drugbank_target|P23008 Genome polyprotein (DB03017; DB08017; DB08231; DB08723; DB08728)
 OpenBabel12092120453D

  0  0  0     0  0            999 V3000
M  V30 BEGIN CTAB
M  V30 COUNTS 33901 34317 0 0 0
M  V30 BEGIN ATOM
M  V30 1 H -0.908 1.98254 -0.117106 0
M  V30 2 N 0 1.576 0 0
M  V30 3 C 0.933 2.03868 1.02534 0
M  V30 4 C 1.911 0.928543 1.3348 0
M  V30 5 O 3.095 1.19667 1.45644 0
M  V30 6 C 0.222 2.43627 2.35294 0
M  V30 7 C -0.732 3.65373 2.2001 0
M  V30 8 S 0.101 5.13292 1.52614 0
M  V30 9 C 1.257 5.56322 2.86805 0
M  V30 10 H 1.49 2.90518 0.631377 0
M  V30 11 H -0.977 1.52953 0.210867 0
M  V30 12 H 0.981 2.67203 3.11629 0
M  V30 13 H -0.358 1.57376 2.7183 0
M  V30 14 H -1.165 3.90944 3.18086 0
M  V30 15 H -1.563 3.418 1.51819 0
M  V30 16 H 0.729 5.58782 3.83104 0
M  V30 17 H 1.672 6.56266 2.65933 0
M  V30 18 H 2.08 4.83886 2.90714 0
M  V30 19 N 1.4781 -0.272755 1.55222 0
M  V30 20 C 2.7261 -1.00234 1.75492 0
M  V30 21 C 3.0471 -1.8681 0.5592 0
M  V30 22 O 2.3171 -1.91215 -0.425882 0
M  V30 23 H 0.8971 -0.373076 0.647166 0
M  V30 24 H 3.5591 -0.296926 1.92625 0
M  V30 25 H 2.6551 -1.63913 2.65592 0
M  V30 26 N 2.9562 -1.48159 -0.537278 0
M  V30 27 C 3.9192 -1.61665 -1.62472 0
M  V30 28 C 4.9192 -0.490395 -1.5314 0
M  V30 29 O 6.1092 -0.755998 -1.5694 0
M  V30 30 C 3.2412 -1.57997 -3.02076 0
M  V30 31 H 4.4342 -2.58621 -1.51839 0
M  V30 32 H 1.9872 -1.36647 -0.758771 0
M  V30 33 H 2.7222 -0.624913 -3.18222 0
M  V30 34 H 2.5072 -2.39755 -3.10258 0
M  V30 35 H 3.9972 -1.70627 -3.81151 0
M  V30 36 N 4.4343 0.785586 -1.36625 0
M  V30 37 C 5.3663 1.90711 -1.2713 0
M  V30 38 C 6.3793 1.61688 -0.189986 0
M  V30 39 O 7.5683 1.72864 -0.445014 0
M  V30 40 C 4.6683 3.25611 -0.939713 0
M  V30 41 C 3.8413 3.82385 -2.12369 0
M  V30 42 C 2.9003 4.95732 -1.76456 0
M  V30 43 O 1.9263 5.12047 -2.48589 0
M  V30 44 N 3.1283 5.76258 -0.700492 0
M  V30 45 H 5.8933 1.99376 -2.23762 0
M  V30 46 H 3.4543 0.964041 -1.30069 0
M  V30 47 H 5.4463 3.98937 -0.680554 0
M  V30 48 H 4.0163 3.12538 -0.0624074 0
M  V30 49 H 3.2363 3.01001 -2.54543 0
M  V30 50 H 4.5243 4.17047 -2.9146 0
M  V30 51 H 3.9223 5.65609 -0.101624 0
M  V30 52 H 2.4793 6.4987 -0.501165 0
M  V30 53 N 5.9124 1.20967 1.01018 0
M  V30 54 C 7.1584 1.02526 1.74975 0
M  V30 55 C 7.4914 -0.4408 1.89131 0
M  V30 56 O 6.7664 -1.32718 1.42184 0
M  V30 57 C 7.0494 1.71699 3.1653 0
M  V30 58 C 6.9024 3.25791 3.10129 0
M  V30 59 C 8.2214 1.45531 4.15342 0
M  V30 60 H 5.3404 0.373863 0.635134 0
M  V30 61 H 7.9824 1.49071 1.17805 0
M  V30 62 H 6.1324 1.32128 3.65341 0
M  V30 63 H 7.8044 3.74697 2.69072 0
M  V30 64 H 6.0474 3.56363 2.47362 0
M  V30 65 H 6.7184 3.69353 4.10222 0
M  V30 66 H 9.1944 1.79872 3.75213 0
M  V30 67 H 8.0704 1.96453 5.1254 0
M  V30 68 H 8.3314 0.384237 4.40427 0
M  V30 69 N 7.3905 -1.2043 1.01659 0
M  V30 70 C 8.6155 -1.94318 0.724942 0
M  V30 71 C 9.0405 -1.74266 -0.708034 0
M  V30 72 O 8.3985 -1.03694 -1.48719 0
M  V30 73 C 8.4465 -3.44486 1.06591 0
M  V30 74 O 7.5505 -4.12017 0.177599 0
M  V30 75 H 6.8915 -0.60708 0.26898 0
M  V30 76 H 9.4215 -1.52861 1.35995 0
M  V30 77 H 9.4315 -3.95106 1.01762 0
M  V30 78 H 8.1065 -3.58404 2.10997 0
M  V30 79 H 6.6835 -3.71821 0.283421 0
M  V30 80 N 8.8686 -0.792821 -1.36206 0
M  V30 81 C 10.2846 -0.474903 -1.52371 0
M  V30 82 C 10.4846 1.00622 -1.74578 0
M  V30 83 O 9.5406 1.79162 -1.77924 0
M  V30 84 C 10.8536 -1.3083 -2.70747 0
M  V30 85 C 12.4016 -1.30234 -2.84619 0
M  V30 86 C 12.8766 -2.11956 -4.06004 0
M  V30 87 N 14.3676 -2.09419 -4.13156 0
M  V30 88 C 15.1026 -2.69419 -5.06163 0
M  V30 89 N 14.5986 -3.3829 -6.04592 0
M  V30 90 N 16.3916 -2.59134 -4.98804 0
M  V30 91 H 8.5426 -1.75222 -1.20046 0
M  V30 92 H 10.8056 -0.745024 -0.586211 0
M  V30 93 H 10.5116 -2.35881 -2.6087 0
M  V30 94 H 10.3856 -0.95196 -3.6499 0
M  V30 95 H 12.7726 -0.259748 -2.93955 0
M  V30 96 H 12.8536 -1.69847 -1.91274 0
M  V30 97 H 12.4976 -3.16248 -3.97429 0
M  V30 98 H 12.4276 -1.69711 -4.98503 0
M  V30 99 H 14.9186 -1.59297 -3.42685 0
M  V30 100 H 15.2316 -3.81394 -6.7213 0
M  V30 101 H 13.5766 -3.42393 -6.04807 0
M  V30 102 H 16.7676 -2.04927 -4.20859 0
M  V30 103 H 16.9406 -3.06185 -5.711 0
M  V30 104 N 10.3467 1.47872 -0.545128 0
M  V30 105 C 11.2787 2.27869 0.246621 0
M  V30 106 C 12.2917 1.36282 0.890561 0
M  V30 107 O 13.4807 1.61207 0.766449 0
M  V30 108 C 10.5807 3.10159 1.36582 0
M  V30 109 C 9.7537 4.29627 0.820954 0
M  V30 110 C 8.8127 4.93607 1.82314 0
M  V30 111 O 7.8387 5.52366 1.37406 0
M  V30 112 N 9.0407 4.87211 3.15603 0
M  V30 113 H 11.8057 2.96459 -0.439539 0
M  V30 114 H 9.3667 1.57367 -0.380421 0
M  V30 115 H 11.3587 3.49829 2.03474 0
M  V30 116 H 9.9287 2.43891 1.9554 0
M  V30 117 H 9.1487 3.94192 -0.0244032 0
M  V30 118 H 10.4367 5.06928 0.436063 0
M  V30 119 H 9.8347 4.40651 3.54744 0
M  V30 120 H 8.3917 5.30937 3.78087 0
M  V30 121 N 11.8248 0.280983 1.55075 0
M  V30 122 C 12.7728 -0.619864 2.24188 0
M  V30 123 C 13.7668 -1.15315 1.24092 0
M  V30 124 O 14.9728 -1.1061 1.42005 0
M  V30 125 H 11.3478 -0.218459 0.719569 0
M  V30 126 H 13.3188 -0.0141831 2.98397 0
M  V30 127 C 12.0678 -1.7899 2.98091 0
M  V30 128 H 11.3908 -1.38874 3.74905 0
M  V30 129 H 12.8308 -2.39672 3.49762 0
M  V30 130 C 11.2898 -2.68192 2.03899 0
M  V30 131 O 11.8198 -3.6872 1.594 0
M  V30 132 N 10.0258 -2.35488 1.70275 0
M  V30 133 H 9.5728 -1.53787 2.06658 0
M  V30 134 H 9.5308 -2.95442 1.07524 0
M  V30 135 N 13.3029 -1.57598 0.00835791 0
M  V30 136 C 14.5489 -1.91211 -0.675732 0
M  V30 137 C 14.8819 -0.883139 -1.72958 0
M  V30 138 O 14.1569 0.097016 -1.94258 0
M  V30 139 C 14.4399 -3.35379 -1.31123 0
M  V30 140 C 14.2929 -4.48999 -0.268356 0
M  V30 141 C 15.6119 -3.7912 -2.23508 0
M  V30 142 H 12.7309 -0.695374 -0.244179 0
M  V30 143 H 15.3729 -1.89901 0.0613655 0
M  V30 144 H 13.5229 -3.36626 -1.93946 0
M  V30 145 H 15.1949 -4.59887 0.360844 0
M  V30 146 H 13.4379 -4.31873 0.408482 0
M  V30 147 H 14.1089 -5.46851 -0.752218 0
M  V30 148 H 16.5849 -3.79477 -1.70693 0
M  V30 149 H 15.4609 -4.80729 -2.64936 0
M  V30 150 H 15.7219 -3.13455 -3.11766 0
M  V30 151 N 14.781 0.264519 -1.55364 0
M  V30 152 C 16.029 0.993021 -1.76021 0
M  V30 153 C 16.35 1.86511 -0.569099 0
M  V30 154 O 15.62 1.91438 0.415735 0
M  V30 155 H 14.2 0.369639 -0.649135 0
M  V30 156 H 16.862 0.286707 -1.9278 0
M  V30 157 H 15.958 1.62502 -2.66457 0
M  V30 158 N 16.2591 1.48442 0.529413 0
M  V30 159 C 17.4871 1.60151 1.30994 0
M  V30 160 C 17.9021 0.261985 1.86973 0
M  V30 161 O 17.2591 -0.748805 1.66431 0
M  V30 162 C 17.3101 2.64854 2.46038 0
M  V30 163 O 17.0311 3.93608 1.92365 0
M  V30 164 C 18.5321 2.87007 3.37849 0
M  V30 165 H 15.7521 0.539971 0.398338 0
M  V30 166 H 18.2961 1.94273 0.638597 0
M  V30 167 H 16.4511 2.33589 3.09055 0
M  V30 168 H 16.8651 4.51055 2.67675 0
M  V30 169 H 18.3391 3.64068 4.14919 0
M  V30 170 H 18.8161 1.95852 3.93114 0
M  V30 171 H 19.4221 3.19579 2.80623 0
M  V30 172 N 17.7372 -0.778329 1.37039 0
M  V30 173 C 18.6872 -1.88142 1.28789 0
M  V30 174 C 19.6712 -1.59923 0.177063 0
M  V30 175 O 20.8632 -1.72165 0.410873 0
M  V30 176 C 17.9922 -3.25518 1.09055 0
M  V30 177 C 17.0782 -3.5971 2.24654 0
M  V30 178 N 17.4692 -3.65131 3.50018 0
M  V30 179 C 15.7672 -3.89837 2.16663 0
M  V30 180 C 16.4682 -3.95882 4.26207 0
M  V30 181 N 15.4442 -4.11441 3.55271 0
M  V30 182 H 19.2462 -1.90575 2.23737 0
M  V30 183 H 16.7602 -0.974435 1.29917 0
M  V30 184 H 18.7572 -4.04423 1.0123 0
M  V30 185 H 17.4172 -3.24353 0.15018 0
M  V30 186 H 18.4282 -3.475 3.84011 0
M  V30 187 H 15.1052 -3.96533 1.30645 0
M  V30 188 H 16.4952 -4.06907 5.34674 0
M  V30 189 N 19.2153 -1.21501 -1.00376 0
M  V30 190 C 20.4403 -1.05977 -1.78279 0
M  V30 191 C 20.8653 0.385994 -1.84097 0
M  V30 192 O 20.2233 1.27849 -1.28547 0
M  V30 193 C 20.2713 -1.66302 -3.19963 0
M  V30 194 O 19.3753 -0.909333 -4.0225 0
M  V30 195 H 18.7163 -0.372906 -0.549397 0
M  V30 196 H 21.2463 -1.6107 -1.26165 0
M  V30 197 H 21.2563 -1.70574 -3.70632 0
M  V30 198 H 19.9313 -2.71515 -3.15043 0
M  V30 199 H 18.5083 -0.941795 -3.60811 0
M  V30 200 N 20.6934 1.19889 -1.02296 0
M  V30 201 C 21.9214 1.9339 -0.735399 0
M  V30 202 C 22.3364 1.75148 0.704887 0
M  V30 203 O 21.6934 1.06954 1.47875 0
M  V30 204 C 21.7444 3.45313 -1.06962 0
M  V30 205 O 21.4654 3.62964 -2.45334 0
M  V30 206 C 22.9664 4.35948 -0.804021 0
M  V30 207 H 20.1864 0.61448 -0.269546 0
M  V30 208 H 22.7304 1.522 -1.36585 0
M  V30 209 H 20.8854 3.84359 -0.484455 0
M  V30 210 H 21.2994 4.56886 -2.57595 0
M  V30 211 H 22.7734 5.41174 -1.0879 0
M  V30 212 H 23.2504 4.3842 0.261691 0
M  V30 213 H 23.8564 4.02574 -1.37164 0
M  V30 214 N 22.1715 0.800033 1.35784 0
M  V30 215 C 23.1035 0.163596 2.28615 0
M  V30 216 C 24.1165 -0.633317 1.49976 0
M  V30 217 O 25.3055 -0.466754 1.72289 0
M  V30 218 C 22.4055 -0.790958 3.29541 0
M  V30 219 C 21.5785 -0.0418255 4.3738 0
M  V30 220 C 20.6375 -0.91389 5.18203 0
M  V30 221 O 19.6635 -0.367234 5.68014 0
M  V30 222 N 20.8655 -2.23682 5.35674 0
M  V30 223 H 23.6305 0.96105 2.83873 0
M  V30 224 H 21.1915 0.654894 1.48063 0
M  V30 225 H 23.1835 -1.37844 3.80501 0
M  V30 226 H 21.7535 -1.48925 2.74846 0
M  V30 227 H 20.9735 0.726813 3.87442 0
M  V30 228 H 22.2615 0.474719 5.06581 0
M  V30 229 H 21.6595 -2.70497 4.96838 0
M  V30 230 H 20.2165 -2.77369 5.89839 0
M  V30 231 N 23.6496 -1.47581 0.552962 0
M  V30 232 C 24.5976 -2.31648 -0.21023 0
M  V30 233 C 25.5916 -1.42663 -0.913432 0
M  V30 234 O 26.7976 -1.5945 -0.835201 0
M  V30 235 H 23.1726 -0.746989 -0.0866676 0
M  V30 236 H 25.1436 -2.93869 0.518051 0
M  V30 237 C 23.8926 -3.25226 -1.22976 0
M  V30 238 H 23.2156 -3.93658 -0.698077 0
M  V30 239 H 24.6556 -3.86889 -1.73473 0
M  V30 240 C 23.1146 -2.48448 -2.27542 0
M  V30 241 O 23.6446 -2.22585 -3.34393 0
M  V30 242 N 21.8506 -2.09532 -2.01357 0
M  V30 243 H 21.3976 -2.30765 -1.14478 0
M  V30 244 H 21.3556 -1.58476 -2.71538 0
M  V30 245 N 25.1277 -0.289203 -1.54924 0
M  V30 246 C 26.3527 0.329299 -2.04769 0
M  V30 247 C 26.7777 1.4763 -1.16564 0
M  V30 248 O 26.1357 1.80527 -0.167186 0
M  V30 249 C 26.1837 0.774438 -3.52186 0
M  V30 250 O 25.2877 1.88038 -3.67036 0
M  V30 251 H 24.6287 0.0659259 -0.660719 0
M  V30 252 H 27.1587 -0.42761 -2.00082 0
M  V30 253 H 27.1687 1.06642 -3.93816 0
M  V30 254 H 25.8437 -0.0646707 -4.1585 0
M  V30 255 H 24.4207 1.58985 -3.3731 0
M  V30 256 N 26.6058 1.57591 -0.0167156 0
M  V30 257 C 27.8518 1.91567 0.665582 0
M  V30 258 C 28.1848 0.892298 1.72487 0
M  V30 259 O 27.4598 -0.0867127 1.94307 0
M  V30 260 C 27.7428 3.36069 1.29342 0
M  V30 261 C 27.5958 4.49135 0.244541 0
M  V30 262 C 28.9148 3.803 2.21495 0
M  V30 263 H 26.0338 0.69666 0.240488 0
M  V30 264 H 28.6758 1.89866 -0.0714356 0
M  V30 265 H 26.8258 3.3765 1.92158 0
M  V30 266 H 28.4978 4.59689 -0.385228 0
M  V30 267 H 26.7408 4.3165 -0.431379 0
M  V30 268 H 27.4118 5.47242 0.723207 0
M  V30 269 H 29.8878 3.80377 1.68678 0
M  V30 270 H 28.7638 4.82127 2.62382 0
M  V30 271 H 29.0248 3.15104 3.101 0
M  V30 272 N 28.0839 -0.256276 1.55502 0
M  V30 273 C 29.3089 -1.00766 1.81276 0
M  V30 274 C 29.7339 -1.78524 0.59252 0
M  V30 275 O 29.0919 -1.75413 -0.45827 0
M  V30 276 C 29.1399 -1.92869 3.04687 0
M  V30 277 O 28.2439 -3.019 2.80945 0
M  V30 278 H 27.5849 -0.287224 0.598664 0
M  V30 279 H 30.1149 -0.280109 2.02674 0
M  V30 280 H 30.1249 -2.34511 3.33869 0
M  V30 281 H 28.7999 -1.35689 3.93143 0
M  V30 282 H 27.3769 -2.64454 2.62904 0
M  V30 283 N 29.562 -1.4872 -0.521534 0
M  V30 284 C 30.51 -1.64328 -1.64618 0
M  V30 285 C 31.504 -0.50953 -1.61555 0
M  V30 286 O 32.71 -0.688525 -1.66311 0
M  V30 287 H 29.085 -0.517805 -0.545328 0
M  V30 288 H 31.056 -2.58767 -1.48601 0
M  V30 289 C 29.805 -1.70805 -3.02855 0
M  V30 290 H 29.128 -2.5741 -3.05909 0
M  V30 291 H 30.568 -1.85766 -3.81139 0
M  V30 292 C 29.027 -0.448479 -3.33902 0
M  V30 293 O 29.557 0.434928 -3.99339 0
M  V30 294 N 27.763 -0.317616 -2.88859 0
M  V30 295 H 27.31 -1.03748 -2.35784 0
M  V30 296 H 27.268 0.524113 -3.10001 0
M  V30 297 N 31.0401 0.771051 -1.3745 0
M  V30 298 C 32.2881 1.52661 -1.32435 0
M  V30 299 C 32.6091 1.9479 0.0905024 0
M  V30 300 O 31.8791 1.66348 1.03466 0
M  V30 301 H 30.4591 0.566218 -0.487244 0
M  V30 302 H 33.1211 0.917636 -1.71946 0
M  V30 303 H 32.2171 2.42568 -1.96385 0
M  V30 304 N 32.5182 1.22032 0.997298 0
M  V30 305 C 33.7432 1.06921 1.77715 0
M  V30 306 C 34.1682 -0.376226 1.84299 0
M  V30 307 O 33.5262 -1.27165 1.29223 0
M  V30 308 C 33.5742 1.67996 3.19076 0
M  V30 309 O 32.6782 0.930653 4.01762 0
M  V30 310 H 32.0192 0.375814 0.547412 0
M  V30 311 H 34.5492 1.61737 1.25309 0
M  V30 312 H 34.5592 1.72538 3.69723 0
M  V30 313 H 33.2342 2.73182 3.13599 0
M  V30 314 H 31.8112 0.960917 3.60307 0
M  V30 315 N 33.9963 -1.19345 1.0293 0
M  V30 316 C 35.2213 -1.93538 0.745511 0
M  V30 317 C 35.6463 -1.75007 -0.689511 0
M  V30 318 O 35.0043 -1.05265 -1.47611 0
M  V30 319 C 35.0523 -3.43336 1.10239 0
M  V30 320 O 34.1563 -4.11806 0.221289 0
M  V30 321 H 33.4973 -0.604193 0.275404 0
M  V30 322 H 36.0273 -1.5141 1.37609 0
M  V30 323 H 36.0373 -3.94004 1.05947 0
M  V30 324 H 34.7123 -3.56146 2.14786 0
M  V30 325 H 33.2893 -3.715 0.322842 0
M  V30 326 N 35.4744 -0.807222 -1.35358 0
M  V30 327 C 36.4044 -0.232509 -2.3234 0
M  V30 328 C 37.3854 0.642386 -1.57504 0
M  V30 329 O 38.5704 0.572526 -1.85569 0
M  V30 330 C 35.7004 0.619238 -3.41735 0
M  V30 331 C 34.6544 -0.157215 -4.27711 0
M  V30 332 C 33.9804 0.816273 -5.28433 0
M  V30 333 C 35.2804 -1.35656 -5.04376 0
M  V30 334 H 36.9744 -1.04276 -2.80654 0
M  V30 335 H 34.5204 -0.50288 -1.34934 0
M  V30 336 H 36.4734 1.03137 -4.08584 0
M  V30 337 H 35.1974 1.46239 -2.92031 0
M  V30 338 H 33.8564 -0.550525 -3.62443 0
M  V30 339 H 33.5044 1.65494 -4.74996 0
M  V30 340 H 33.2044 0.301067 -5.86828 0
M  V30 341 H 34.7284 1.22659 -5.98153 0
M  V30 342 H 36.1424 -1.01927 -5.64166 0
M  V30 343 H 34.5394 -1.8063 -5.7227 0
M  V30 344 H 35.6094 -2.14288 -4.34981 0
M  V30 345 N 36.9525 1.47285 -0.560781 0
M  V30 346 C 37.9005 2.31756 0.197942 0
M  V30 347 C 38.8945 1.43146 0.905854 0
M  V30 348 O 40.1005 1.59891 0.826733 0
M  V30 349 H 36.4755 0.747438 0.0827049 0
M  V30 350 H 38.4465 2.9359 -0.533629 0
M  V30 351 C 37.1955 3.25874 1.21249 0
M  V30 352 H 36.5185 3.94023 0.67719 0
M  V30 353 H 37.9585 3.87803 1.71419 0
M  V30 354 C 36.4175 2.49651 2.26221 0
M  V30 355 O 36.9475 2.24355 3.33208 0
M  V30 356 N 35.1535 2.10597 2.00243 0
M  V30 357 H 34.7005 2.31369 1.13252 0
M  V30 358 H 34.6585 1.59913 2.70694 0
M  V30 359 N 38.4306 0.297415 1.54768 0
M  V30 360 C 39.6606 -0.315165 2.04182 0
M  V30 361 C 40.0686 -1.4834 1.17439 0
M  V30 362 O 39.4116 -1.82695 0.191891 0
M  V30 363 C 39.4736 -0.837583 3.49607 0
M  V30 364 C 39.1376 0.204912 4.5654 0
M  V30 365 C 40.1346 1.03214 5.09552 0
M  V30 366 C 37.8196 0.345578 5.0111 0
M  V30 367 C 39.8136 1.986 6.05671 0
M  V30 368 C 37.5006 1.30289 5.97049 0
M  V30 369 C 38.4986 2.12159 6.49213 0
M  V30 370 O 38.1866 3.06268 7.43273 0
M  V30 371 H 37.9186 -0.0729646 0.672051 0
M  V30 372 H 40.4726 0.433907 2.00765 0
M  V30 373 H 38.7026 -1.63712 3.50336 0
M  V30 374 H 40.3916 -1.36566 3.82236 0
M  V30 375 H 41.1576 0.934312 4.75916 0
M  V30 376 H 37.0366 -0.28171 4.60138 0
M  V30 377 H 40.5806 2.62542 6.46311 0
M  V30 378 H 36.4776 1.40145 6.30103 0
M  V30 379 H 37.2456 3.01205 7.61064 0
M  V30 380 N 39.9087 -1.5758 0.0250728 0
M  V30 381 C 41.1557 -1.91633 -0.654444 0
M  V30 382 C 41.4837 -0.901103 -1.72367 0
M  V30 383 O 40.7387 0.0905647 -1.9549 0
M  V30 384 C 41.0377 -3.32421 -1.31268 0
M  V30 385 C 40.7037 -4.49344 -0.374223 0
M  V30 386 C 39.3657 -4.8106 -0.115911 0
M  V30 387 C 41.7177 -5.20498 0.270432 0
M  V30 388 C 39.0457 -5.8129 0.79493 0
M  V30 389 C 41.3977 -6.21699 1.1693 0
M  V30 390 C 40.0617 -6.51859 1.43655 0
M  V30 391 H 39.3317 -0.701236 -0.239478 0
M  V30 392 H 41.9787 -1.91307 0.0859734 0
M  V30 393 H 40.2837 -3.28989 -2.12775 0
M  V30 394 H 41.9807 -3.56038 -1.84494 0
M  V30 395 H 38.5707 -4.24579 -0.58573 0
M  V30 396 H 42.7547 -4.96229 0.0839194 0
M  V30 397 H 38.0107 -6.03005 1.00973 0
M  V30 398 H 42.1847 -6.75955 1.67504 0
M  V30 399 H 39.8117 -7.2934 2.144 0
M  V30 400 N 41.3868 0.248026 -1.55636 0
M  V30 401 C 42.3348 1.32683 -1.91045 0
M  V30 402 C 43.3288 1.49883 -0.789401 0
M  V30 403 O 44.5348 1.51371 -0.974007 0
M  V30 404 H 40.9098 0.444272 -0.606734 0
M  V30 405 H 42.8808 1.00085 -2.81115 0
M  V30 406 C 41.6298 2.6755 -2.22064 0
M  V30 407 H 40.9528 2.55114 -3.07826 0
M  V30 408 H 42.3928 3.41912 -2.50743 0
M  V30 409 C 40.8518 3.20556 -1.0366 0
M  V30 410 O 41.3818 4.00695 -0.284016 0
M  V30 411 N 39.5878 2.78568 -0.82753 0
M  V30 412 H 39.1348 2.1351 -1.44123 0
M  V30 413 H 39.0928 3.14378 -0.0369803 0
M  V30 414 N 42.8649 1.48995 0.513639 0
M  V30 415 C 44.1139 1.57093 1.2651 0
M  V30 416 C 44.4269 0.257091 1.93903 0
M  V30 417 O 45.6329 0.216478 2.70636 0
M  V30 418 C 44.0889 2.77118 2.29638 0
M  V30 419 C 43.6969 4.15209 1.68241 0
M  V30 420 C 45.4409 2.94538 3.05692 0
M  V30 421 C 43.3479 5.26474 2.69406 0
M  V30 422 H 42.2779 0.584876 0.475854 0
M  V30 423 H 44.9289 1.7536 0.540487 0
M  V30 424 H 43.3109 2.52319 3.05207 0
M  V30 425 H 44.4849 4.50094 0.987505 0
M  V30 426 H 42.7999 4.03042 1.04623 0
M  V30 427 H 45.3969 3.74832 3.8132 0
M  V30 428 H 45.7399 2.04614 3.62545 0
M  V30 429 H 46.2729 3.19316 2.37238 0
M  V30 430 H 43.0119 6.18417 2.17351 0
M  V30 431 H 42.5319 4.96058 3.37175 0
M  V30 432 H 44.2109 5.55277 3.32078 0
M  V30 433 N 44.343 -0.763751 1.37857 0
M  V30 434 C 45.291 -1.89864 1.34367 0
M  V30 435 C 46.285 -1.67816 0.231143 0
M  V30 436 O 47.491 -1.75508 0.399617 0
M  V30 437 H 43.866 -0.624501 0.41893 0
M  V30 438 H 45.837 -1.89925 2.30155 0
M  V30 439 C 44.586 -3.27227 1.1755 0
M  V30 440 H 43.909 -3.44773 2.02414 0
M  V30 441 H 45.349 -4.06911 1.1916 0
M  V30 442 C 43.808 -3.36692 -0.118311 0
M  V30 443 O 44.338 -3.86374 -1.09902 0
M  V30 444 N 42.544 -2.90092 -0.171717 0
M  V30 445 H 42.091 -2.49853 0.627012 0
M  V30 446 H 42.049 -2.96806 -1.03699 0
M  V30 447 N 45.8211 -1.22559 -0.990812 0
M  V30 448 C 47.0511 -1.07623 -1.76355 0
M  V30 449 C 47.4591 0.37601 -1.85426 0
M  V30 450 O 46.8021 1.27228 -1.32509 0
M  V30 451 C 46.8641 -1.61507 -3.21179 0
M  V30 452 C 46.5281 -3.10146 -3.35646 0
M  V30 453 C 47.5251 -4.07553 -3.22796 0
M  V30 454 C 45.2101 -3.49644 -3.60631 0
M  V30 455 C 47.2041 -5.42442 -3.34716 0
M  V30 456 C 44.8911 -4.84682 -3.72192 0
M  V30 457 C 45.8891 -5.8089 -3.59243 0
M  V30 458 O 45.5771 -7.13476 -3.70415 0
M  V30 459 H 45.3091 -0.377745 -0.560611 0
M  V30 460 H 47.8631 -1.62658 -1.25425 0
M  V30 461 H 46.0931 -1.00881 -3.73309 0
M  V30 462 H 47.7821 -1.42202 -3.80175 0
M  V30 463 H 48.5481 -3.78381 -3.03403 0
M  V30 464 H 44.4271 -2.75282 -3.69785 0
M  V30 465 H 47.9711 -6.17518 -3.24526 0
M  V30 466 H 43.8681 -5.13534 -3.91092 0
M  V30 467 H 44.6361 -7.21083 -3.87275 0
M  V30 468 N 47.2992 1.18797 -1.03562 0
M  V30 469 C 48.5462 1.8865 -0.736023 0
M  V30 470 C 48.8742 1.80041 0.735889 0
M  V30 471 O 48.1292 1.19179 1.55225 0
M  V30 472 C 48.4282 3.38692 -1.14117 0
M  V30 473 C 48.0942 3.67504 -2.6125 0
M  V30 474 C 46.7562 3.75078 -3.01447 0
M  V30 475 C 49.1082 3.80293 -3.56408 0
M  V30 476 C 46.4362 3.92915 -4.35701 0
M  V30 477 C 48.7882 3.99645 -4.90374 0
M  V30 478 C 47.4522 4.05453 -5.30249 0
M  V30 479 H 46.7222 0.690321 -0.26933 0
M  V30 480 H 49.3692 1.40641 -1.29971 0
M  V30 481 H 47.6742 3.88645 -0.496202 0
M  V30 482 H 49.3712 3.91072 -0.886789 0
M  V30 483 H 45.9612 3.62223 -2.29113 0
M  V30 484 H 50.1452 3.73779 -3.26501 0
M  V30 485 H 45.4012 3.95653 -4.66121 0
M  V30 486 H 49.5752 4.08482 -5.64017 0
M  V30 487 H 47.2022 4.19027 -6.34288 0
M  V30 488 N 48.7773 0.814389 1.34928 0
M  V30 489 C 49.7243 0.22822 2.29669 0
M  V30 490 C 50.6943 -0.642164 1.53184 0
M  V30 491 O 51.8793 -0.585605 1.81591 0
M  V30 492 C 49.0193 -0.61089 3.3965 0
M  V30 493 C 48.1323 0.280792 4.31086 0
M  V30 494 C 47.2673 -0.567067 5.28165 0
M  V30 495 C 46.3063 0.324531 6.11239 0
M  V30 496 N 45.4433 -0.483756 7.00431 0
M  V30 497 H 50.2833 1.04153 2.79206 0
M  V30 498 H 47.8203 0.525133 1.37407 0
M  V30 499 H 49.7783 -1.11263 4.0209 0
M  V30 500 H 48.4083 -1.38939 2.91369 0
M  V30 501 H 47.4603 0.900688 3.69583 0
M  V30 502 H 48.7723 0.966723 4.89342 0
M  V30 503 H 47.9263 -1.13363 5.96015 0
M  V30 504 H 46.6653 -1.28654 4.70425 0
M  V30 505 H 45.6703 0.903298 5.42329 0
M  V30 506 H 46.8953 1.04198 6.71059 0
M  V30 507 H 44.8413 -1.18706 6.45171 0
M  V30 508 H 44.7583 0.143965 7.55863 0
M  V30 509 H 46.0263 -1.03334 7.7262 0
M  V30 510 N 50.2554 -1.46986 0.568584 0
M  V30 511 C 51.5324 -1.95592 -0.0174074 0
M  V30 512 C 51.9124 -1.51124 -1.47393 0
M  V30 513 O 51.2604 -0.755329 -2.15655 0
M  V30 514 C 51.4704 -3.48719 0.139913 0
M  V30 515 C 52.8184 -4.246 0.000426376 0
M  V30 516 O 53.8424 -3.56135 0.0680316 0
M  V30 517 O 52.7014 -5.46302 -0.146988 0
M  V30 518 H 49.7954 -0.82498 -0.0577599 0
M  V30 519 H 52.3414 -1.57335 0.635909 0
M  V30 520 H 51.1134 -3.73927 1.15301 0
M  V30 521 H 50.7364 -3.93771 -0.550491 0
M  V30 522 N 51.7335 -0.305618 -1.54608 0
M  V30 523 C 52.6965 0.555591 -2.22364 0
M  V30 524 C 53.6965 1.05768 -1.21119 0
M  V30 525 O 54.8865 0.952972 -1.45822 0
M  V30 526 C 52.0185 1.76974 -2.91364 0
M  V30 527 H 53.2115 -0.0364572 -2.99878 0
M  V30 528 H 50.7645 -0.0565007 -1.56198 0
M  V30 529 H 51.4995 2.40151 -2.17941 0
M  V30 530 H 51.2845 1.41732 -3.65588 0
M  V30 531 H 52.7745 2.38148 -3.43038 0
M  V30 532 N 53.2116 1.57565 -0.0334293 0
M  V30 533 C 54.1746 2.09393 0.932048 0
M  V30 534 C 55.1746 1.00986 1.25134 0
M  V30 535 O 56.3646 1.27129 1.19096 0
M  V30 536 C 53.4966 2.56338 2.2473 0
M  V30 537 H 54.6896 2.95984 0.483085 0
M  V30 538 H 52.2426 1.54819 0.21468 0
M  V30 539 H 52.9776 1.7309 2.74245 0
M  V30 540 H 52.7626 3.35542 2.02865 0
M  V30 541 H 54.2526 2.96646 2.93923 0
M  V30 542 N 54.6897 -0.239769 1.55765 0
M  V30 543 C 55.9147 -0.988373 1.82335 0
M  V30 544 C 56.3397 -1.77886 0.611421 0
M  V30 545 O 55.6977 -1.75889 -0.439639 0
M  V30 546 C 55.7457 -1.89627 3.06715 0
M  V30 547 O 54.8497 -2.98904 2.84131 0
M  V30 548 H 54.1907 -0.280858 0.601677 0
M  V30 549 H 56.7207 -0.258597 2.02959 0
M  V30 550 H 56.7307 -2.30957 3.36338 0
M  V30 551 H 55.4057 -1.31511 3.9456 0
M  V30 552 H 53.9827 -2.61651 2.65694 0
M  V30 553 N 56.1678 -1.49265 -0.50573 0
M  V30 554 C 57.3928 -1.62478 -1.28902 0
M  V30 555 C 57.8178 -0.294332 -1.85783 0
M  V30 556 O 57.1758 0.737412 -1.65626 0
M  V30 557 C 57.2238 -2.69268 -2.39848 0
M  V30 558 O 56.3278 -2.28113 -3.43567 0
M  V30 559 H 55.6688 -0.54399 -0.380751 0
M  V30 560 H 58.1988 -1.95421 -0.605952 0
M  V30 561 H 58.2088 -2.91291 -2.85681 0
M  V30 562 H 56.8838 -3.65846 -1.97812 0
M  V30 563 H 55.4608 -2.16401 -3.03685 0
M  V30 564 N 57.6459 0.756429 -1.3826 0
M  V30 565 C 58.8939 1.51248 -1.34047 0
M  V30 566 C 59.2149 1.94875 0.0698372 0
M  V30 567 O 58.4849 1.67436 1.01696 0
M  V30 568 H 57.0649 0.561018 -0.493222 0
M  V30 569 H 59.7269 0.899347 -1.7291 0
M  V30 570 H 58.8229 2.40472 -1.98947 0
M  V30 571 N 59.124 1.23083 0.984299 0
M  V30 572 C 60.087 1.00979 2.05757 0
M  V30 573 C 61.087 -0.0269573 1.60777 0
M  V30 574 O 62.277 0.212403 1.729 0
M  V30 575 C 59.409 0.527072 3.36801 0
M  V30 576 H 60.602 1.9622 2.26799 0
M  V30 577 H 58.155 1.05072 1.15714 0
M  V30 578 H 58.89 -0.429294 3.21446 0
M  V30 579 H 58.675 1.27515 3.70786 0
M  V30 580 H 60.165 0.392942 4.15747 0
M  V30 581 N 60.6021 -1.18246 1.0419 0
M  V30 582 C 61.8271 -1.92736 0.765996 0
M  V30 583 C 62.2521 -1.75728 -0.67091 0
M  V30 584 O 61.6101 -1.06825 -1.46486 0
M  V30 585 C 61.6581 -3.42148 1.13875 0
M  V30 586 O 60.7621 -4.11548 0.264954 0
M  V30 587 H 60.1031 -0.601238 0.281797 0
M  V30 588 H 62.6331 -1.49942 1.39207 0
M  V30 589 H 62.6431 -3.92858 1.1012 0
M  V30 590 H 61.3181 -3.53848 2.18551 0
M  V30 591 H 59.8951 -3.71137 0.362226 0
M  V30 592 N 62.0802 -0.821533 -1.34494 0
M  V30 593 C 63.4962 -0.507117 -1.51329 0
M  V30 594 C 63.6962 0.968964 -1.76673 0
M  V30 595 O 62.7522 1.75348 -1.81685 0
M  V30 596 C 64.0652 -1.36544 -2.67911 0
M  V30 597 C 65.6132 -1.36242 -2.81793 0
M  V30 598 C 66.0882 -2.2052 -4.01416 0
M  V30 599 N 67.5792 -2.18136 -4.08621 0
M  V30 600 C 68.3142 -2.80095 -5.00334 0
M  V30 601 N 67.8102 -3.51039 -5.9728 0
M  V30 602 N 69.6032 -2.69656 -4.93196 0
M  V30 603 H 61.7542 -1.77729 -1.16302 0
M  V30 604 H 64.0172 -0.757291 -0.570276 0
M  V30 605 H 63.7232 -2.41361 -2.55808 0
M  V30 606 H 63.5972 -1.02917 -3.62888 0
M  V30 607 H 65.9842 -0.322041 -2.93338 0
M  V30 608 H 66.0652 -1.73866 -1.87628 0
M  V30 609 H 65.7092 -3.24607 -3.90631 0
M  V30 610 H 65.6392 -1.80247 -4.94791 0
M  V30 611 H 68.1302 -1.6653 -3.39229 0
M  V30 612 H 68.4432 -3.95565 -6.63889 0
M  V30 613 H 66.7882 -3.55145 -5.97409 0
M  V30 614 H 69.9792 -2.13808 -4.16418 0
M  V30 615 H 70.1522 -3.1823 -5.64476 0
M  V30 616 N 63.5583 1.46682 -0.576371 0
M  V30 617 C 64.4883 2.33028 0.148397 0
M  V30 618 C 65.4693 1.44961 0.889956 0
M  V30 619 O 66.6543 1.73789 0.866662 0
M  V30 620 C 63.7843 3.27117 1.1667 0
M  V30 621 C 62.7383 4.24575 0.540386 0
M  V30 622 C 62.0643 5.08126 1.6647 0
M  V30 623 C 63.3643 5.19722 -0.518331 0
M  V30 624 H 65.0583 2.93875 -0.572509 0
M  V30 625 H 62.6043 1.41315 -0.276768 0
M  V30 626 H 64.5573 3.86374 1.68204 0
M  V30 627 H 63.2813 2.64364 1.9178 0
M  V30 628 H 61.9403 3.66571 0.0461769 0
M  V30 629 H 61.5883 4.41762 2.40531 0
M  V30 630 H 61.2883 5.74122 1.25131 0
M  V30 631 H 62.8123 5.70246 2.18293 0
M  V30 632 H 64.2263 5.73232 -0.0883058 0
M  V30 633 H 62.6233 5.94026 -0.851679 0
M  V30 634 H 63.6933 4.64037 -1.40703 0
M  V30 635 N 65.0364 0.313813 1.54444 0
M  V30 636 C 66.3134 -0.345447 1.92525 0
M  V30 637 C 66.6934 -1.70667 1.24242 0
M  V30 638 O 66.0414 -2.25273 0.382654 0
M  V30 639 C 66.2514 -0.44737 3.46121 0
M  V30 640 C 67.5994 -0.712238 4.18584 0
M  V30 641 O 68.6234 -0.530678 3.52225 0
M  V30 642 O 67.4824 -1.06183 5.36085 0
M  V30 643 H 64.5764 -0.195407 0.803583 0
M  V30 644 H 67.1224 0.362813 1.65776 0
M  V30 645 H 65.8944 0.509043 3.87975 0
M  V30 646 H 65.5174 -1.20359 3.78945 0
M  V30 647 N 66.5145 -1.57545 0.0417849 0
M  V30 648 C 67.7615 -1.92317 -0.634082 0
M  V30 649 C 68.0895 -0.919334 -1.71402 0
M  V30 650 O 67.3445 0.0698253 -1.95575 0
M  V30 651 C 67.6435 -3.33794 -1.27735 0
M  V30 652 C 67.3095 -4.49716 -0.326543 0
M  V30 653 C 65.9715 -4.81156 -0.0648814 0
M  V30 654 C 68.3235 -5.20182 0.325623 0
M  V30 655 C 65.6515 -5.80414 0.856539 0
M  V30 656 C 68.0035 -6.20424 1.23518 0
M  V30 657 C 66.6675 -6.50298 1.5056 0
M  V30 658 H 65.9375 -0.703736 -0.232027 0
M  V30 659 H 68.5845 -1.91205 0.106259 0
M  V30 660 H 66.8895 -3.31228 -2.09274 0
M  V30 661 H 68.5865 -3.57975 -1.80707 0
M  V30 662 H 65.1765 -4.25176 -0.540665 0
M  V30 663 H 69.3605 -4.96112 0.136546 0
M  V30 664 H 64.6165 -6.019 1.07363 0
M  V30 665 H 68.7905 -6.74141 1.74664 0
M  V30 666 H 66.4175 -7.27025 2.22123 0
M  V30 667 N 67.9926 0.231505 -1.5589 0
M  V30 668 C 69.2176 0.978689 -1.82856 0
M  V30 669 C 69.6426 1.77559 -0.620846 0
M  V30 670 O 69.0006 1.76119 0.430305 0
M  V30 671 C 69.0486 1.87997 -3.07716 0
M  V30 672 O 68.1526 2.97393 -2.85712 0
M  V30 673 H 67.4936 0.277663 -0.603158 0
M  V30 674 H 70.0236 0.24783 -2.03093 0
M  V30 675 H 70.0336 2.2917 -3.37558 0
M  V30 676 H 68.7086 1.29417 -3.95252 0
M  V30 677 H 67.2856 2.60238 -2.67078 0
M  V30 678 N 69.4707 1.49531 0.497807 0
M  V30 679 C 70.4027 1.62559 1.61578 0
M  V30 680 C 71.4157 0.508134 1.54667 0
M  V30 681 O 72.6047 0.780309 1.60541 0
M  V30 682 C 69.7047 1.56925 3.00379 0
M  V30 683 C 68.8777 2.84257 3.3244 0
M  V30 684 C 67.9367 2.71632 4.50669 0
M  V30 685 O 66.9627 3.4557 4.52294 0
M  V30 686 N 68.1647 1.83391 5.5077 0
M  V30 687 H 70.9297 2.58981 1.50828 0
M  V30 688 H 68.4907 1.4666 0.685743 0
M  V30 689 H 70.4827 1.46129 3.77397 0
M  V30 690 H 69.0527 0.683483 3.05037 0
M  V30 691 H 68.2727 3.09381 2.44289 0
M  V30 692 H 69.5607 3.68666 3.5066 0
M  V30 693 H 68.9587 1.22583 5.52259 0
M  V30 694 H 67.5157 1.78515 6.26878 0
M  V30 695 N 70.9488 -0.749086 1.3866 0
M  V30 696 C 72.2258 -1.4992 1.25632 0
M  V30 697 C 72.6058 -2.10633 -0.140317 0
M  V30 698 O 71.9538 -1.97437 -1.15025 0
M  V30 699 C 72.1638 -2.56195 2.36992 0
M  V30 700 C 73.5118 -3.22972 2.75634 0
M  V30 701 O 74.5358 -2.66502 2.36337 0
M  V30 702 O 73.3948 -4.25122 3.43415 0
M  V30 703 H 70.4888 -0.665067 0.491544 0
M  V30 704 H 73.0348 -0.784113 1.50498 0
M  V30 705 H 71.8068 -2.09612 3.30422 0
M  V30 706 H 71.4298 -3.35279 2.13714 0
M  V30 707 N 72.4269 -1.23603 -0.977757 0
M  V30 708 C 73.8379 -1.06424 -1.53398 0
M  V30 709 C 74.1889 0.367578 -1.92726 0
M  V30 710 O 73.3139 1.25465 -1.76316 0
M  V30 711 C 73.9089 -1.92568 -2.78753 0
M  V30 712 C 72.4679 -1.79642 -3.30765 0
M  V30 713 C 71.6149 -1.88111 -2.03739 0
M  V30 714 H 74.5659 -1.37227 -0.797152 0
M  V30 715 H 74.5869 -1.45203 -3.51705 0
M  V30 716 H 74.0989 -2.96771 -2.50098 0
M  V30 717 H 72.1999 -0.782325 -3.64294 0
M  V30 718 H 72.3129 -2.63174 -4.00345 0
M  V30 719 H 70.6769 -1.31723 -2.17994 0
M  V30 720 H 71.4599 -2.93875 -1.77461 0
M  V30 721 N 73.905 1.17692 -1.04816 0
M  V30 722 C 75.13 1.92327 -0.776207 0
M  V30 723 C 75.555 1.76082 0.661581 0
M  V30 724 O 74.913 1.076 1.45917 0
M  V30 725 C 74.961 3.41539 -1.15687 0
M  V30 726 O 74.065 4.11402 -0.286775 0
M  V30 727 H 73.406 0.599735 -0.284981 0
M  V30 728 H 75.936 1.49201 -1.4 0
M  V30 729 H 75.946 3.92269 -1.12202 0
M  V30 730 H 74.621 3.52684 -2.20425 0
M  V30 731 H 73.198 3.70939 -0.381903 0
M  V30 732 N 75.3831 0.828654 1.34056 0
M  V30 733 C 76.3301 0.252567 2.29414 0
M  V30 734 C 77.3001 -0.62588 1.53857 0
M  V30 735 O 78.4851 -0.566312 1.82202 0
M  V30 736 C 75.6251 -0.574831 3.40279 0
M  V30 737 C 74.7381 0.326499 4.30764 0
M  V30 738 C 73.8731 -0.511016 5.28736 0
M  V30 739 C 72.9121 0.389342 6.1086 0
M  V30 740 N 72.0491 -0.409439 7.00905 0
M  V30 741 H 76.8891 1.07108 2.78086 0
M  V30 742 H 74.4261 0.539677 1.36843 0
M  V30 743 H 76.3841 -1.06992 4.03248 0
M  V30 744 H 75.0141 -1.35841 2.92826 0
M  V30 745 H 74.0661 0.939837 3.68607 0
M  V30 746 H 75.3781 1.01857 4.88289 0
M  V30 747 H 74.5321 -1.07035 5.97184 0
M  V30 748 H 73.2711 -1.23657 4.71763 0
M  V30 749 H 72.2761 0.960769 5.4134 0
M  V30 750 H 73.5011 1.1131 6.69916 0
M  V30 751 H 71.4471 -1.11856 6.46393 0
M  V30 752 H 71.3641 0.224126 7.55668 0
M  V30 753 H 72.6321 -0.951336 7.73673 0
M  V30 754 N 76.8612 -1.46375 0.584142 0
M  V30 755 C 78.1082 -2.02378 0.0702675 0
M  V30 756 C 78.4362 -1.45545 -1.29023 0
M  V30 757 O 77.6912 -0.610967 -1.85918 0
M  V30 758 C 77.9902 -3.57373 -0.0439342 0
M  V30 759 C 77.6562 -4.33252 1.24915 0
M  V30 760 C 76.3182 -4.53701 1.60341 0
M  V30 761 C 78.6702 -4.7681 2.1048 0
M  V30 762 C 75.9982 -5.1496 2.81128 0
M  V30 763 C 78.3502 -5.39404 3.30494 0
M  V30 764 C 77.0142 -5.5808 3.66201 0
M  V30 765 H 76.2842 -0.740554 0.0257127 0
M  V30 766 H 78.9312 -1.75727 0.761065 0
M  V30 767 H 77.2362 -3.83169 -0.817869 0
M  V30 768 H 78.9332 -3.98384 -0.457318 0
M  V30 769 H 75.5232 -4.17633 0.963364 0
M  V30 770 H 79.7072 -4.60766 1.84414 0
M  V30 771 H 74.9632 -5.27611 3.08928 0
M  V30 772 H 79.1372 -5.72114 3.97063 0
M  V30 773 H 76.7642 -6.05318 4.59885 0
M  V30 774 N 78.3393 -0.321999 -1.54275 0
M  V30 775 C 79.5673 0.283052 -2.04955 0
M  V30 776 C 79.9823 1.45904 -1.19823 0
M  V30 777 O 79.3393 1.81063 -0.228545 0
M  V30 778 C 79.3903 0.719028 -3.54277 0
M  V30 779 O 79.1113 -0.410175 -4.36176 0
M  V30 780 C 80.6123 1.38705 -4.21041 0
M  V30 781 H 77.8323 0.0584616 -0.668448 0
M  V30 782 H 80.3763 -0.467734 -1.99079 0
M  V30 783 H 78.5313 1.41979 -3.60445 0
M  V30 784 H 78.9453 -0.0669416 -5.24457 0
M  V30 785 H 80.4193 1.64306 -5.2698 0
M  V30 786 H 80.8963 2.33385 -3.72059 0
M  V30 787 H 81.5023 0.728906 -4.19007 0
M  V30 788 N 79.8174 1.5752 -0.0501392 0
M  V30 789 C 81.0944 1.83996 0.663685 0
M  V30 790 C 81.4744 0.938339 1.89099 0
M  V30 791 O 80.8224 -0.00087759 2.285 0
M  V30 792 C 81.0324 3.33702 1.02196 0
M  V30 793 C 82.3804 4.00691 1.40469 0
M  V30 794 O 83.4044 3.38321 1.11433 0
M  V30 795 O 82.2634 5.10658 1.94654 0
M  V30 796 H 79.3574 0.759385 0.32751 0
M  V30 797 H 81.9034 1.69514 -0.0794238 0
M  V30 798 H 80.6754 3.91015 0.149364 0
M  V30 799 H 80.2984 3.53368 1.82255 0
M  V30 800 N 81.2955 -0.223234 1.56011 0
M  V30 801 C 82.7065 -0.790368 1.69145 0
M  V30 802 C 83.0575 -1.85055 0.651845 0
M  V30 803 O 82.1825 -2.15498 -0.197359 0
M  V30 804 C 82.7775 -1.4404 3.06656 0
M  V30 805 C 81.3365 -1.95494 3.2165 0
M  V30 806 C 80.4835 -0.814506 2.65068 0
M  V30 807 H 83.4345 0.00139011 1.587 0
M  V30 808 H 83.4555 -2.30916 3.0242 0
M  V30 809 H 82.9675 -0.668543 3.82298 0
M  V30 810 H 81.0685 -2.75487 2.50874 0
M  V30 811 H 81.1815 -2.13607 4.28846 0
M  V30 812 H 79.5455 -1.22137 2.23505 0
M  V30 813 H 80.3285 -0.0553515 3.43255 0
M  V30 814 N 82.7736 -1.49793 -0.48987 0
M  V30 815 C 84.0196 -1.60078 -1.24511 0
M  V30 816 C 84.3526 -0.291608 -1.91998 0
M  V30 817 O 83.6276 0.705647 -1.81248 0
M  V30 818 C 83.9106 -2.76791 -2.30345 0
M  V30 819 C 83.7636 -4.17535 -1.67286 0
M  V30 820 C 85.0826 -2.89111 -3.31817 0
M  V30 821 H 82.2016 -0.582645 -0.451324 0
M  V30 822 H 84.8436 -1.82117 -0.541612 0
M  V30 823 H 82.9936 -2.5813 -2.90346 0
M  V30 824 H 84.6656 -4.4774 -1.11026 0
M  V30 825 H 82.9086 -4.22665 -0.976577 0
M  V30 826 H 83.5796 -4.95094 -2.44103 0
M  V30 827 H 86.0556 -3.06133 -2.81819 0
M  V30 828 H 84.9316 -3.72433 -4.03219 0
M  V30 829 H 85.1926 -1.9893 -3.94815 0
M  V30 830 N 84.2517 0.741722 -1.39055 0
M  V30 831 C 85.1987 1.85566 -1.37237 0
M  V30 832 C 86.1687 1.64457 -0.233072 0
M  V30 833 O 87.3537 1.85957 -0.427147 0
M  V30 834 C 84.4937 3.23004 -1.215 0
M  V30 835 C 83.6067 3.55864 -2.44918 0
M  V30 836 C 82.7417 4.82669 -2.21821 0
M  V30 837 C 81.7807 5.08351 -3.40948 0
M  V30 838 N 80.9177 6.26356 -3.17211 0
M  V30 839 H 85.7577 1.86455 -2.32462 0
M  V30 840 H 83.2947 0.911176 -1.15482 0
M  V30 841 H 85.2527 4.02331 -1.10389 0
M  V30 842 H 83.8827 3.21411 -0.29908 0
M  V30 843 H 82.9347 2.7129 -2.66657 0
M  V30 844 H 84.2467 3.70765 -3.33668 0
M  V30 845 H 83.4007 5.69962 -2.07914 0
M  V30 846 H 82.1397 4.69929 -1.30454 0
M  V30 847 H 81.1447 4.19522 -3.55361 0
M  V30 848 H 82.3697 5.22981 -4.33207 0
M  V30 849 H 80.3157 6.14917 -2.28502 0
M  V30 850 H 80.2327 6.41813 -3.99515 0
M  V30 851 H 81.5007 7.16506 -3.06984 0
M  V30 852 N 85.7298 1.2412 0.971189 0
M  V30 853 C 87.0068 0.986867 1.6888 0
M  V30 854 C 87.3868 -0.491857 2.0529 0
M  V30 855 O 86.7348 -1.46531 1.75331 0
M  V30 856 C 86.9448 1.9063 2.92338 0
M  V30 857 C 88.2928 2.17515 3.64654 0
M  V30 858 O 89.3168 1.88254 3.02388 0
M  V30 859 O 88.1758 2.6719 4.7673 0
M  V30 860 H 85.2698 0.372944 0.738134 0
M  V30 861 H 87.8158 1.35203 1.02559 0
M  V30 862 H 86.5878 2.90552 2.62097 0
M  V30 863 H 86.2108 1.54408 3.66393 0
M  V30 864 N 87.2079 -1.17134 1.05439 0
M  V30 865 C 88.4539 -1.87733 0.767077 0
M  V30 866 C 88.7869 -1.8098 -0.704253 0
M  V30 867 O 88.0619 -1.21951 -1.5152 0
M  V30 868 C 88.3449 -3.37659 1.25133 0
M  V30 869 C 88.1979 -3.53149 2.78578 0
M  V30 870 C 89.5169 -4.31768 0.852324 0
M  V30 871 H 86.6359 -0.681687 0.280129 0
M  V30 872 H 89.2779 -1.37732 1.30881 0
M  V30 873 H 87.4279 -3.80373 0.790469 0
M  V30 874 H 89.0999 -3.19434 3.32806 0
M  V30 875 H 87.3429 -2.95345 3.17732 0
M  V30 876 H 88.0139 -4.58403 3.07523 0
M  V30 877 H 90.4899 -3.96909 1.24911 0
M  V30 878 H 89.3659 -5.35199 1.21873 0
M  V30 879 H 89.6269 -4.41429 -0.243485 0
M  V30 880 N 88.686 -0.835752 -1.33615 0
M  V30 881 C 89.616 -0.281739 -2.31794 0
M  V30 882 C 90.597 0.608833 -1.58831 0
M  V30 883 O 91.782 0.533035 -1.86741 0
M  V30 884 C 88.912 0.546612 -3.42971 0
M  V30 885 C 87.866 -0.247904 -4.27281 0
M  V30 886 C 87.192 0.704001 -5.30045 0
M  V30 887 C 88.492 -1.46324 -5.01385 0
M  V30 888 H 90.186 -1.10206 -2.78379 0
M  V30 889 H 87.732 -0.531388 -1.33837 0
M  V30 890 H 89.685 0.944467 -4.1068 0
M  V30 891 H 88.409 1.40011 -2.95067 0
M  V30 892 H 87.068 -0.627281 -3.61194 0
M  V30 893 H 86.716 1.55381 -4.78399 0
M  V30 894 H 86.416 0.176524 -5.87335 0
M  V30 895 H 87.94 1.09944 -6.0062 0
M  V30 896 H 89.354 -1.13871 -5.61877 0
M  V30 897 H 87.751 -1.92728 -5.6831 0
M  V30 898 H 88.821 -2.23467 -4.30338 0
M  V30 899 N 90.1641 1.46063 -0.591896 0
M  V30 900 C 91.0741 2.34192 0.13831 0
M  V30 901 C 92.0901 1.50305 0.876608 0
M  V30 902 O 93.2661 1.8315 0.837728 0
M  V30 903 C 90.3311 3.27656 1.13326 0
M  V30 904 C 89.3921 4.27445 0.39863 0
M  V30 905 C 88.6251 5.16443 1.34618 0
M  V30 906 O 88.8481 5.08553 2.58321 0
M  V30 907 O 87.7821 5.95843 0.851768 0
M  V30 908 H 91.6081 2.98002 -0.58552 0
M  V30 909 H 89.1931 1.45188 -0.352239 0
M  V30 910 H 91.0751 3.85291 1.70671 0
M  V30 911 H 89.7501 2.6643 1.83839 0
M  V30 912 H 88.6571 3.73471 -0.216895 0
M  V30 913 H 89.9901 4.91482 -0.265709 0
M  V30 914 N 91.6422 0.330177 1.54103 0
M  V30 915 C 92.5892 -0.532762 2.24567 0
M  V30 916 C 93.5592 -1.10635 1.23892 0
M  V30 917 O 94.7442 -1.14546 1.5259 0
M  V30 918 C 91.8842 -1.6845 3.01195 0
M  V30 919 C 90.9972 -1.13951 4.167 0
M  V30 920 C 90.1322 -2.25746 4.80845 0
M  V30 921 C 89.1712 -1.6853 5.88442 0
M  V30 922 N 88.3082 -2.74014 6.46421 0
M  V30 923 H 93.1482 0.0746905 2.97906 0
M  V30 924 H 90.6852 0.048632 1.4702 0
M  V30 925 H 92.6432 -2.36234 3.43874 0
M  V30 926 H 91.2732 -2.26314 2.30178 0
M  V30 927 H 90.3252 -0.35301 3.78758 0
M  V30 928 H 91.6372 -0.680892 4.94131 0
M  V30 929 H 90.7912 -3.01422 5.26526 0
M  V30 930 H 89.5302 -2.74947 4.0281 0
M  V30 931 H 88.5352 -0.913543 5.42157 0
M  V30 932 H 89.7602 -1.20198 6.68378 0
M  V30 933 H 87.7062 -3.22494 5.71256 0
M  V30 934 H 87.6232 -2.32735 7.19285 0
M  V30 935 H 88.8912 -3.49499 6.96757 0
M  V30 936 N 93.1203 -1.57491 0.0584922 0
M  V30 937 C 94.3683 -1.92597 -0.612436 0
M  V30 938 C 94.6893 -0.938162 -1.70949 0
M  V30 939 O 93.9593 0.0158301 -1.95894 0
M  V30 940 H 92.5393 -0.710964 -0.229214 0
M  V30 941 H 95.2013 -1.94571 0.113218 0
M  V30 942 H 94.2973 -2.94038 -1.04633 0
M  V30 943 N 94.5984 0.214957 -1.56127 0
M  V30 944 C 95.8474 0.936451 -1.78643 0
M  V30 945 C 96.1604 1.85237 -0.628229 0
M  V30 946 O 97.3664 2.613 -0.737186 0
M  V30 947 C 95.8224 1.7154 -3.16389 0
M  V30 948 C 95.4304 0.845299 -4.39953 0
M  V30 949 C 97.1744 2.42772 -3.48227 0
M  V30 950 C 95.0814 1.62198 -5.68723 0
M  V30 951 H 94.0114 0.353401 -0.666051 0
M  V30 952 H 96.6624 0.190169 -1.82512 0
M  V30 953 H 95.0444 2.50484 -3.06715 0
M  V30 954 H 96.2184 0.0959353 -4.607 0
M  V30 955 H 94.5334 0.244789 -4.1568 0
M  V30 956 H 97.1304 3.01394 -4.41663 0
M  V30 957 H 97.4734 3.15984 -2.71035 0
M  V30 958 H 98.0064 1.70813 -3.5926 0
M  V30 959 H 94.7454 0.933011 -6.48826 0
M  V30 960 H 94.2654 2.34579 -5.52026 0
M  V30 961 H 95.9444 2.18095 -6.09133 0
M  V30 962 N 96.0765 1.50051 0.48192 0
M  V30 963 C 97.4875 1.5348 1.06305 0
M  V30 964 C 97.8385 0.331997 1.93371 0
M  V30 965 O 96.9635 -0.556256 2.09129 0
M  V30 966 C 97.5585 2.7813 1.93466 0
M  V30 967 C 96.1175 2.84275 2.46707 0
M  V30 968 C 95.2645 2.47637 1.24785 0
M  V30 969 H 98.2155 1.56472 0.264995 0
M  V30 970 H 98.2365 2.59372 2.78399 0
M  V30 971 H 97.7485 3.65654 1.30072 0
M  V30 972 H 95.8495 2.01077 3.13686 0
M  V30 973 H 95.9625 3.8691 2.82555 0
M  V30 974 H 94.3265 1.99835 1.57918 0
M  V30 975 H 95.1095 3.37457 0.630694 0
M  V30 976 N 97.5546 -0.734337 1.39446 0
M  V30 977 C 98.7826 -1.52358 1.39981 0
M  V30 978 C 99.1976 -1.88799 -0.0054975 0
M  V30 979 O 98.5546 -1.54146 -0.976998 0
M  V30 980 C 98.6056 -2.81072 2.27333 0
M  V30 981 O 98.3266 -2.46178 3.62392 0
M  V30 982 C 99.8276 -3.75096 2.36259 0
M  V30 983 H 97.0476 -0.470806 0.478103 0
M  V30 984 H 99.5916 -0.907339 1.83269 0
M  V30 985 H 97.7466 -3.39026 1.87457 0
M  V30 986 H 98.1606 -3.28866 4.08592 0
M  V30 987 H 99.6346 -4.62305 3.01626 0
M  V30 988 H 100.112 -4.16892 1.38194 0
M  V30 989 H 100.718 -3.23061 2.76608 0
M  V30 990 N 99.0327 -1.24633 -0.964593 0
M  V30 991 C 99.9627 -1.06611 -2.07741 0
M  V30 992 C 100.944 0.0218666 -1.70086 0
M  V30 993 O 102.129 -0.145793 -1.93652 0
M  V30 994 C 99.2587 -0.673444 -3.40708 0
M  V30 995 C 98.2127 -1.71054 -3.92332 0
M  V30 996 C 97.5387 -1.17285 -5.21678 0
M  V30 997 C 98.8387 -3.10718 -4.19824 0
M  V30 998 H 100.533 -1.99693 -2.23076 0
M  V30 999 H 98.0787 -0.96152 -1.07195 0
M  V30 1000 H 100.032 -0.534345 -4.17998 0
M  V30 1001 H 98.7557 0.293073 -3.25282 0
M  V30 1002 H 97.4147 -1.83791 -3.17201 0
M  V30 1003 H 97.0627 -0.196847 -5.02615 0
M  V30 1004 H 96.7627 -1.86592 -5.57187 0
M  V30 1005 H 98.2867 -1.04593 -6.01575 0
M  V30 1006 H 99.7007 -3.01192 -4.87808 0
M  V30 1007 H 98.0977 -3.77406 -4.66567 0
M  V30 1008 H 99.1677 -3.58524 -3.26479 0
M  V30 1009 N 100.511 1.16574 -1.06058 0
M  V30 1010 C 101.443 2.2045 -0.627239 0
M  V30 1011 C 102.456 1.59752 0.313534 0
M  V30 1012 O 103.645 1.78192 0.104896 0
M  V30 1013 C 100.745 3.3875 0.100974 0
M  V30 1014 C 99.9178 4.29008 -0.852687 0
M  V30 1015 C 98.9768 5.25944 -0.164152 0
M  V30 1016 O 98.0028 5.63535 -0.801047 0
M  V30 1017 N 99.2048 5.70075 1.09518 0
M  V30 1018 H 101.97 2.58249 -1.52077 0
M  V30 1019 H 99.5308 1.3156 -0.943594 0
M  V30 1020 H 101.523 4.00638 0.57194 0
M  V30 1021 H 100.093 2.99476 0.89628 0
M  V30 1022 H 99.3128 3.64419 -1.50308 0
M  V30 1023 H 100.601 4.86195 -1.49972 0
M  V30 1024 H 99.9988 5.41624 1.6328 0
M  V30 1025 H 98.5558 6.34067 1.51006 0
M  V30 1026 N 101.989 0.842826 1.3317 0
M  V30 1027 C 103.214 0.453129 2.02389 0
M  V30 1028 C 103.639 -0.939105 1.6298 0
M  V30 1029 O 102.997 -1.61472 0.8244 0
M  V30 1030 C 103.045 0.586094 3.55805 0
M  V30 1031 O 102.149 -0.386029 4.10589 0
M  V30 1032 H 101.49 0.183664 0.638094 0
M  V30 1033 H 104.02 1.13875 1.69981 0
M  V30 1034 H 104.03 0.469209 4.05293 0
M  V30 1035 H 102.705 1.6014 3.83833 0
M  V30 1036 H 101.282 -0.226371 3.72212 0
M  V30 1037 N 103.467 -1.45747 0.599634 0
M  V30 1038 C 104.878 -1.85853 0.177681 0
M  V30 1039 C 105.229 -1.50102 -1.26348 0
M  V30 1040 O 104.354 -0.923905 -1.95686 0
M  V30 1041 C 104.949 -3.37326 0.315688 0
M  V30 1042 C 103.508 -3.76365 -0.0515144 0
M  V30 1043 C 102.655 -2.69722 0.643822 0
M  V30 1044 H 105.606 -1.36661 0.806814 0
M  V30 1045 H 105.627 -3.77778 -0.454321 0
M  V30 1046 H 105.139 -3.63315 1.36468 0
M  V30 1047 H 103.24 -3.55993 -1.09999 0
M  V30 1048 H 103.353 -4.77916 0.336594 0
M  V30 1049 H 101.717 -2.54567 0.0822881 0
M  V30 1050 H 102.5 -2.98549 1.6948 0
M  V30 1051 N 104.945 -0.338344 -1.53925 0
M  V30 1052 C 106.17 0.263987 -2.05713 0
M  V30 1053 C 106.595 1.43847 -1.21201 0
M  V30 1054 O 105.953 1.79904 -0.224535 0
M  V30 1055 C 106.001 0.662 -3.54471 0
M  V30 1056 O 105.105 1.76265 -3.72833 0
M  V30 1057 H 104.446 0.0448722 -0.662482 0
M  V30 1058 H 106.976 -0.491048 -1.9862 0
M  V30 1059 H 106.986 0.940594 -3.9701 0
M  V30 1060 H 105.661 -0.196937 -4.15433 0
M  V30 1061 H 104.238 1.48173 -3.42198 0
M  V30 1062 N 106.423 1.57458 -0.0668435 0
M  V30 1063 C 107.669 1.93587 0.6043 0
M  V30 1064 C 108.002 0.946722 1.69561 0
M  V30 1065 O 107.277 -0.0248516 1.94484 0
M  V30 1066 C 107.56 3.40014 1.18585 0
M  V30 1067 C 107.413 4.49685 0.101529 0
M  V30 1068 C 108.732 3.87154 2.09284 0
M  V30 1069 H 105.851 0.703958 0.218202 0
M  V30 1070 H 108.493 1.89542 -0.131804 0
M  V30 1071 H 106.643 3.43592 1.81319 0
M  V30 1072 H 108.315 4.5823 -0.531279 0
M  V30 1073 H 106.558 4.30059 -0.568487 0
M  V30 1074 H 107.229 5.49266 0.54874 0
M  V30 1075 H 109.705 3.85551 1.56491 0
M  V30 1076 H 108.581 4.90231 2.46911 0
M  V30 1077 H 108.842 3.2481 2.99918 0
M  V30 1078 N 107.901 -0.206675 1.56239 0
M  V30 1079 C 108.811 -1.27686 1.96808 0
M  V30 1080 C 109.827 -1.50455 0.874035 0
M  V30 1081 O 111.003 -1.63295 1.17884 0
M  V30 1082 C 108.068 -2.60358 2.28942 0
M  V30 1083 C 107.129 -2.45762 3.51994 0
M  V30 1084 C 106.362 -3.72108 3.82585 0
M  V30 1085 O 106.585 -4.75776 3.14631 0
M  V30 1086 O 105.519 -3.6833 4.76043 0
M  V30 1087 H 109.345 -0.962593 2.88041 0
M  V30 1088 H 106.93 -0.410746 1.43643 0
M  V30 1089 H 108.812 -3.38687 2.50737 0
M  V30 1090 H 107.487 -2.91435 1.4088 0
M  V30 1091 H 106.394 -1.65584 3.35459 0
M  V30 1092 H 107.727 -2.19621 4.40486 0
M  V30 1093 N 109.379 -1.50304 -0.473955 0
M  V30 1094 C 110.342 -1.6841 -1.55469 0
M  V30 1095 C 111.342 -0.554905 -1.50922 0
M  V30 1096 O 112.532 -0.821882 -1.53593 0
M  V30 1097 C 109.664 -1.70667 -2.95102 0
M  V30 1098 H 110.857 -2.64828 -1.40733 0
M  V30 1099 H 108.41 -1.39742 -0.700132 0
M  V30 1100 H 109.145 -0.75932 -3.15285 0
M  V30 1101 H 108.93 -2.52698 -2.9981 0
M  V30 1102 H 110.42 -1.8664 -3.73571 0
M  V30 1103 N 110.857 0.726932 -1.39834 0
M  V30 1104 C 112.097 1.4992 -1.38936 0
M  V30 1105 C 112.461 1.91996 0.0126883 0
M  V30 1106 O 113.662 2.68399 0.146715 0
M  V30 1107 C 111.933 2.70013 -2.34153 0
M  V30 1108 S 113.492 3.59563 -2.51515 0
M  V30 1109 H 110.31 0.51271 -0.492595 0
M  V30 1110 H 112.912 0.85107 -1.76003 0
M  V30 1111 H 111.616 2.37254 -3.34871 0
M  V30 1112 H 111.147 3.39748 -1.98331 0
M  V30 1113 H 113.162 4.63973 -1.75909 0
M  V30 1114 N 112.336 1.25143 0.95797 0
M  V30 1115 C 113.584 1.09476 1.69881 0
M  V30 1116 C 113.905 -0.365502 1.91544 0
M  V30 1117 O 113.175 -1.25985 1.50015 0
M  V30 1118 H 111.755 0.402128 0.629525 0
M  V30 1119 H 114.417 1.57214 1.15194 0
M  V30 1120 H 113.513 1.60046 2.6794 0
M  V30 1121 N 113.814 -1.1601 1.06675 0
M  V30 1122 C 115.044 -1.90251 0.805497 0
M  V30 1123 C 115.452 -1.77891 -0.64431 0
M  V30 1124 O 114.795 -1.12383 -1.45313 0
M  V30 1125 C 114.857 -3.41419 1.12576 0
M  V30 1126 C 114.521 -3.77564 2.57477 0
M  V30 1127 C 115.518 -3.79161 3.55715 0
M  V30 1128 C 113.203 -4.08079 2.92877 0
M  V30 1129 C 115.197 -4.10767 4.8739 0
M  V30 1130 C 112.884 -4.39351 4.24751 0
M  V30 1131 C 113.882 -4.40675 5.21818 0
M  V30 1132 O 113.57 -4.71202 6.51325 0
M  V30 1133 H 113.302 -0.610018 0.291297 0
M  V30 1134 H 115.856 -1.47958 1.4247 0
M  V30 1135 H 114.086 -3.84079 0.449503 0
M  V30 1136 H 115.775 -3.9694 0.84814 0
M  V30 1137 H 116.541 -3.55693 3.29708 0
M  V30 1138 H 112.42 -4.06211 2.17976 0
M  V30 1139 H 115.964 -4.11715 5.63148 0
M  V30 1140 H 111.861 -4.62285 4.50514 0
M  V30 1141 H 112.629 -4.88996 6.56373 0
M  V30 1142 N 115.292 -0.849877 -1.32721 0
M  V30 1143 C 116.517 -0.463856 -2.02146 0
M  V30 1144 C 116.942 0.930449 -1.63476 0
M  V30 1145 O 116.3 1.61033 -0.832952 0
M  V30 1146 C 116.348 -0.604955 -3.55489 0
M  V30 1147 O 115.452 0.36425 -4.10788 0
M  V30 1148 H 114.793 -0.187046 -0.637111 0
M  V30 1149 H 117.323 -1.14775 -1.69375 0
M  V30 1150 H 117.333 -0.490696 -4.05038 0
M  V30 1151 H 116.008 -1.62174 -3.82978 0
M  V30 1152 H 114.585 0.206628 -3.72327 0
M  V30 1153 N 116.77 1.45427 -0.607355 0
M  V30 1154 C 118.047 1.9557 -0.0344566 0
M  V30 1155 C 118.427 1.54979 1.43334 0
M  V30 1156 O 117.775 0.812241 2.13576 0
M  V30 1157 C 117.985 3.48226 -0.232321 0
M  V30 1158 C 119.333 4.2445 -0.113001 0
M  V30 1159 O 120.357 3.55829 -0.162431 0
M  V30 1160 O 119.216 5.465 0.00209442 0
M  V30 1161 H 116.31 0.826222 0.0358667 0
M  V30 1162 H 118.856 1.55594 -0.6774 0
M  V30 1163 H 117.628 3.70739 -1.25174 0
M  V30 1164 H 117.251 3.95092 0.445896 0
M  V30 1165 N 118.248 0.346503 1.53744 0
M  V30 1166 C 119.664 -0.00530975 1.59599 0
M  V30 1167 C 119.864 -1.48465 1.36236 0
M  V30 1168 O 118.92 -2.24376 1.15808 0
M  V30 1169 C 120.233 0.433516 2.97559 0
M  V30 1170 C 121.781 0.386111 3.10609 0
M  V30 1171 C 122.256 0.800451 4.50951 0
M  V30 1172 N 123.747 0.754753 4.5701 0
M  V30 1173 C 124.482 1.04727 5.63755 0
M  V30 1174 N 123.978 1.4081 6.7834 0
M  V30 1175 N 125.771 0.971316 5.53644 0
M  V30 1176 H 117.922 1.31009 1.67184 0
M  V30 1177 H 120.185 0.534242 0.783128 0
M  V30 1178 H 119.891 1.46509 3.19731 0
M  V30 1179 H 119.765 -0.189753 3.76722 0
M  V30 1180 H 122.152 -0.636295 2.88158 0
M  V30 1181 H 122.233 1.04462 2.33498 0
M  V30 1182 H 121.877 1.82088 4.74137 0
M  V30 1183 H 121.807 0.119386 5.26465 0
M  V30 1184 H 124.298 0.488662 3.74727 0
M  V30 1185 H 124.611 1.61607 7.55714 0
M  V30 1186 H 122.956 1.44657 6.79779 0
M  V30 1187 H 126.147 0.688748 4.63005 0
M  V30 1188 H 126.32 1.20263 6.36742 0
M  V30 1189 N 119.726 -1.57421 0.075193 0
M  V30 1190 C 120.975 -1.92794 -0.592731 0
M  V30 1191 C 121.288 -0.957478 -1.70563 0
M  V30 1192 O 122.494 -1.20417 -2.43335 0
M  V30 1193 C 120.95 -3.42495 -1.10569 0
M  V30 1194 C 120.558 -4.47994 -0.0236121 0
M  V30 1195 C 122.302 -3.86864 -1.74748 0
M  V30 1196 C 120.209 -5.88829 -0.550803 0
M  V30 1197 H 119.139 -0.719591 -0.225177 0
M  V30 1198 H 121.79 -1.82902 0.147978 0
M  V30 1199 H 120.172 -3.47471 -1.89947 0
M  V30 1200 H 121.346 -4.54637 0.751099 0
M  V30 1201 H 119.661 -4.13113 0.522159 0
M  V30 1202 H 122.258 -4.8947 -2.15229 0
M  V30 1203 H 122.601 -3.24417 -2.60882 0
M  V30 1204 H 123.134 -3.84504 -1.01986 0
M  V30 1205 H 119.873 -6.54929 0.273457 0
M  V30 1206 H 119.393 -5.85698 -1.29296 0
M  V30 1207 H 121.072 -6.38811 -1.02613 0
M  V30 1208 N 121.204 0.198386 -1.56346 0
M  V30 1209 C 122.137 1.27381 -1.89339 0
M  V30 1210 C 123.115 1.44106 -0.753134 0
M  V30 1211 O 124.299 1.59549 -1.00381 0
M  V30 1212 C 121.426 2.6409 -2.12071 0
M  V30 1213 C 120.472 2.64253 -3.34772 0
M  V30 1214 S 121.305 2.16013 -4.89999 0
M  V30 1215 C 122.461 3.54553 -5.15794 0
M  V30 1216 H 122.694 0.992058 -2.8026 0
M  V30 1217 H 120.227 0.401726 -1.49082 0
M  V30 1218 H 122.185 3.42786 -2.2585 0
M  V30 1219 H 120.846 2.89478 -1.21906 0
M  V30 1220 H 120.039 3.64768 -3.47794 0
M  V30 1221 H 119.641 1.93637 -3.1997 0
M  V30 1222 H 121.933 4.50396 -5.06112 0
M  V30 1223 H 122.876 3.46428 -6.1757 0
M  V30 1224 H 123.284 3.49313 -4.43442 0
M  V30 1225 N 122.682 1.50554 0.465978 0
M  V30 1226 C 123.614 1.65949 1.58093 0
M  V30 1227 C 124.627 0.540827 1.53554 0
M  V30 1228 O 125.816 0.814187 1.5885 0
M  V30 1229 C 122.916 1.63261 2.96983 0
M  V30 1230 C 122.089 2.91245 3.26336 0
M  V30 1231 C 121.148 2.8113 4.44806 0
M  V30 1232 O 120.174 3.55086 4.44862 0
M  V30 1233 N 121.376 1.95032 5.46756 0
M  V30 1234 H 124.141 2.62122 1.45301 0
M  V30 1235 H 121.702 1.48082 0.65448 0
M  V30 1236 H 123.694 1.54101 3.74212 0
M  V30 1237 H 122.264 0.748032 3.03518 0
M  V30 1238 H 121.484 3.14493 2.37672 0
M  V30 1239 H 122.772 3.76022 3.42761 0
M  V30 1240 H 122.17 1.3427 5.49534 0
M  V30 1241 H 120.727 1.91772 6.2295 0
M  V30 1242 N 124.16 -0.719506 1.40217 0
M  V30 1243 C 125.409 -1.47486 1.37589 0
M  V30 1244 C 125.722 -1.9559 -0.0201568 0
M  V30 1245 O 126.928 -2.70973 -0.169049 0
M  V30 1246 C 125.384 -2.66575 2.41796 0
M  V30 1247 C 124.992 -2.25358 3.87192 0
M  V30 1248 C 126.736 -3.4433 2.48269 0
M  V30 1249 C 124.643 -3.41262 4.83005 0
M  V30 1250 H 123.573 -0.553901 0.511576 0
M  V30 1251 H 126.224 -0.783427 1.65936 0
M  V30 1252 H 124.606 -3.3787 2.06543 0
M  V30 1253 H 125.78 -1.61509 4.31569 0
M  V30 1254 H 124.095 -1.60657 3.84159 0
M  V30 1255 H 126.692 -4.30569 3.17041 0
M  V30 1256 H 127.035 -3.87872 1.51198 0
M  V30 1257 H 127.568 -2.80076 2.82493 0
M  V30 1258 H 124.307 -3.02755 5.81394 0
M  V30 1259 H 123.827 -4.0404 4.43297 0
M  V30 1260 H 125.506 -4.07383 5.02641 0
M  V30 1261 N 125.638 -1.25649 -0.95132 0
M  V30 1262 C 126.866 -1.13343 -1.73092 0
M  V30 1263 C 127.281 0.312434 -1.86197 0
M  V30 1264 O 126.638 1.21465 -1.36207 0
M  V30 1265 C 126.689 -1.78602 -3.14299 0
M  V30 1266 O 126.41 -3.17537 -3.01831 0
M  V30 1267 C 127.911 -1.72119 -4.08522 0
M  V30 1268 H 125.131 -0.395181 -0.542285 0
M  V30 1269 H 127.675 -1.66076 -1.19328 0
M  V30 1270 H 125.83 -1.29832 -3.64996 0
M  V30 1271 H 126.244 -3.49676 -3.90931 0
M  V30 1272 H 127.718 -2.22435 -5.052 0
M  V30 1273 H 128.195 -0.685635 -4.33815 0
M  V30 1274 H 128.801 -2.20393 -3.63741 0
M  V30 1275 N 127.117 1.15442 -1.07289 0
M  V30 1276 C 128.533 1.38201 -0.798288 0
M  V30 1277 C 128.733 1.92429 0.597769 0
M  V30 1278 O 127.789 2.12962 1.3566 0
M  V30 1279 C 129.102 2.35357 -1.87156 0
M  V30 1280 C 130.65 2.49021 -1.89624 0
M  V30 1281 C 131.125 3.49468 -2.96034 0
M  V30 1282 N 132.616 3.57003 -2.95132 0
M  V30 1283 C 133.351 4.34543 -3.74112 0
M  V30 1284 N 132.847 5.15421 -4.6294 0
M  V30 1285 N 134.64 4.29625 -3.62462 0
M  V30 1286 H 126.791 0.78584 -1.97328 0
M  V30 1287 H 129.054 0.408065 -0.855679 0
M  V30 1288 H 128.76 2.02626 -2.87464 0
M  V30 1289 H 128.634 3.35129 -1.73114 0
M  V30 1290 H 131.021 2.81051 -0.899687 0
M  V30 1291 H 131.102 1.4925 -2.07745 0
M  V30 1292 H 130.746 3.18173 -3.95889 0
M  V30 1293 H 130.676 4.48992 -2.75161 0
M  V30 1294 H 133.167 2.99276 -2.30743 0
M  V30 1295 H 133.48 5.7183 -5.19837 0
M  V30 1296 H 131.825 5.14729 -4.66989 0
M  V30 1297 H 135.016 3.65505 -2.92444 0
M  V30 1298 H 135.189 4.89807 -4.24256 0
M  V30 1299 N 128.595 0.856903 1.32268 0
M  V30 1300 C 129.843 0.460474 1.96784 0
M  V30 1301 C 130.164 -0.987701 1.68135 0
M  V30 1302 O 129.434 -1.69058 0.989765 0
M  V30 1303 H 128.014 0.167289 0.728027 0
M  V30 1304 H 130.676 1.09383 1.61312 0
M  V30 1305 H 129.772 0.60739 3.06133 0
M  V30 1306 N 130.073 -1.45103 0.615059 0
M  V30 1307 C 131.35 -1.95549 0.0448276 0
M  V30 1308 C 131.73 -1.55737 -1.4251 0
M  V30 1309 O 131.078 -0.823556 -2.13143 0
M  V30 1310 C 131.288 -3.48098 0.250785 0
M  V30 1311 C 132.636 -4.24384 0.135509 0
M  V30 1312 O 133.66 -3.55738 0.181299 0
M  V30 1313 O 132.519 -5.46493 0.0268878 0
M  V30 1314 H 129.613 -0.8264 -0.0314845 0
M  V30 1315 H 132.159 -1.55232 0.685642 0
M  V30 1316 H 130.931 -3.7007 1.27139 0
M  V30 1317 H 130.554 -3.95323 -0.424937 0
M  V30 1318 N 131.551 -0.354651 -1.53558 0
M  V30 1319 C 132.776 0.242153 -2.05981 0
M  V30 1320 C 133.201 1.42553 -1.2272 0
M  V30 1321 O 132.559 1.79656 -0.243604 0
M  V30 1322 C 132.607 0.624367 -3.55154 0
M  V30 1323 O 131.711 1.72301 -3.74681 0
M  V30 1324 H 131.052 0.0378432 -0.662921 0
M  V30 1325 H 133.582 -0.512087 -1.98088 0
M  V30 1326 H 133.592 0.898433 -3.97985 0
M  V30 1327 H 132.267 -0.240989 -4.15201 0
M  V30 1328 H 130.844 1.44535 -3.4375 0
M  V30 1329 N 133.029 1.57378 -0.0835403 0
M  V30 1330 C 134.257 1.98263 0.59157 0
M  V30 1331 C 134.672 0.962302 1.62435 0
M  V30 1332 O 134.029 -0.049581 1.82433 0
M  V30 1333 C 134.08 3.39214 1.24965 0
M  V30 1334 O 133.801 4.37339 0.258186 0
M  V30 1335 C 135.302 3.95038 2.01147 0
M  V30 1336 H 132.522 0.651773 0.159477 0
M  V30 1337 H 135.066 2.03878 -0.159415 0
M  V30 1338 H 133.221 3.34649 1.95164 0
M  V30 1339 H 133.635 5.19371 0.731734 0
M  V30 1340 H 135.109 4.95848 2.42567 0
M  V30 1341 H 135.586 3.32222 2.87272 0
M  V30 1342 H 136.192 4.0304 1.35789 0
M  V30 1343 N 134.507 -0.190092 1.56449 0
M  V30 1344 C 135.756 -0.907912 1.80111 0
M  V30 1345 C 136.069 -1.84214 0.657619 0
M  V30 1346 O 137.275 -2.60094 0.778663 0
M  V30 1347 C 135.731 -1.66485 3.19078 0
M  V30 1348 C 135.339 -0.7752 4.41242 0
M  V30 1349 C 137.083 -2.37201 3.52045 0
M  V30 1350 C 134.99 -1.53129 5.71231 0
M  V30 1351 H 133.92 -0.34276 0.671589 0
M  V30 1352 H 136.571 -0.161109 1.82791 0
M  V30 1353 H 134.953 -2.45572 3.10661 0
M  V30 1354 H 136.127 -0.0226298 4.60794 0
M  V30 1355 H 134.442 -0.178627 4.16017 0
M  V30 1356 H 137.039 -2.94329 4.46402 0
M  V30 1357 H 137.382 -3.11632 2.76028 0
M  V30 1358 H 137.915 -1.65075 3.61932 0
M  V30 1359 H 134.654 -0.82967 6.50228 0
M  V30 1360 H 134.174 -2.25767 5.55688 0
M  V30 1361 H 135.853 -2.08377 6.12526 0
M  V30 1362 N 135.985 -1.50799 -0.457987 0
M  V30 1363 C 137.213 -1.66218 -1.23203 0
M  V30 1364 C 137.628 -0.350894 -1.85511 0
M  V30 1365 O 136.985 0.668546 -1.69814 0
M  V30 1366 C 137.036 -2.76291 -2.33121 0
M  V30 1367 O 136.757 -4.02338 -1.73366 0
M  V30 1368 C 138.258 -3.028 -3.2377 0
M  V30 1369 H 135.478 -0.558361 -0.372121 0
M  V30 1370 H 138.022 -1.97099 -0.545179 0
M  V30 1371 H 136.177 -2.48068 -2.97558 0
M  V30 1372 H 136.591 -4.63312 -2.4585 0
M  V30 1373 H 138.065 -3.8345 -3.97077 0
M  V30 1374 H 138.542 -2.14385 -3.83322 0
M  V30 1375 H 139.148 -3.32604 -2.65056 0
M  V30 1376 N 137.463 0.71206 -1.40597 0
M  V30 1377 C 138.688 1.50617 -1.42581 0
M  V30 1378 C 139.113 1.88079 -0.0282102 0
M  V30 1379 O 138.471 1.53511 0.964579 0
M  V30 1380 C 138.519 2.7557 -2.3258 0
M  V30 1381 O 137.623 3.72414 -1.77148 0
M  V30 1382 H 136.964 0.453966 -0.484573 0
M  V30 1383 H 139.494 0.876649 -1.84868 0
M  V30 1384 H 139.504 3.2406 -2.47889 0
M  V30 1385 H 138.179 2.47639 -3.34138 0
M  V30 1386 H 136.756 3.31276 -1.71204 0
M  V30 1387 N 138.941 1.26152 0.944643 0
M  V30 1388 C 139.873 1.03199 2.04652 0
M  V30 1389 C 140.886 -0.00642356 1.62799 0
M  V30 1390 O 142.075 0.233263 1.76969 0
M  V30 1391 C 139.175 0.540111 3.34568 0
M  V30 1392 C 138.348 1.64697 4.05208 0
M  V30 1393 C 137.407 1.15374 5.13396 0
M  V30 1394 O 136.433 1.85013 5.38293 0
M  V30 1395 N 137.635 0.00031529 5.805 0
M  V30 1396 H 140.4 1.9808 2.2491 0
M  V30 1397 H 137.961 1.17491 1.11389 0
M  V30 1398 H 139.953 0.194401 4.04233 0
M  V30 1399 H 138.523 -0.315021 3.11009 0
M  V30 1400 H 137.743 2.16379 3.29506 0
M  V30 1401 H 139.031 2.3903 4.49157 0
M  V30 1402 H 138.429 -0.581336 5.62705 0
M  V30 1403 H 136.986 -0.286346 6.51171 0
M  V30 1404 N 140.419 -1.14872 1.07899 0
M  V30 1405 C 141.696 -1.81928 0.71845 0
M  V30 1406 C 142.076 -1.95417 -0.798455 0
M  V30 1407 O 141.424 -1.50997 -1.715 0
M  V30 1408 C 141.634 -3.17937 1.43935 0
M  V30 1409 C 142.982 -3.93501 1.59506 0
M  V30 1410 O 144.006 -3.27509 1.40058 0
M  V30 1411 O 142.865 -5.1183 1.91551 0
M  V30 1412 H 139.959 -0.78628 0.256305 0
M  V30 1413 H 142.505 -1.21934 1.18026 0
M  V30 1414 H 141.277 -3.0325 2.47295 0
M  V30 1415 H 140.9 -3.85619 0.968687 0
M  V30 1416 N 141.898 -0.863906 -1.31812 0
M  V30 1417 C 143.144 -0.472535 -1.97218 0
M  V30 1418 C 143.477 0.971394 -1.68159 0
M  V30 1419 O 142.752 1.68309 -0.974798 0
M  V30 1420 C 143.035 -0.723054 -3.52766 0
M  V30 1421 C 142.888 -2.21608 -3.91421 0
M  V30 1422 C 144.207 -0.185522 -4.39709 0
M  V30 1423 H 141.326 -0.173158 -0.71637 0
M  V30 1424 H 143.968 -1.08403 -1.56041 0
M  V30 1425 H 142.118 -0.202577 -3.87971 0
M  V30 1426 H 143.79 -2.80334 -3.66347 0
M  V30 1427 H 142.033 -2.691 -3.40246 0
M  V30 1428 H 142.704 -2.34203 -4.99853 0
M  V30 1429 H 145.18 -0.630726 -4.11292 0
M  V30 1430 H 144.056 -0.390306 -5.47511 0
M  V30 1431 H 144.317 0.912229 -4.32586 0
M  V30 1432 N 143.376 1.44774 -0.622745 0
M  V30 1433 C 144.339 2.29069 0.0774015 0
M  V30 1434 C 145.339 1.4059 0.780461 0
M  V30 1435 O 146.529 1.62551 0.626322 0
M  V30 1436 C 143.661 3.21974 1.12006 0
M  V30 1437 H 144.854 2.92459 -0.663901 0
M  V30 1438 H 142.407 1.51548 -0.382486 0
M  V30 1439 H 143.142 2.63417 1.89162 0
M  V30 1440 H 142.927 3.87168 0.619951 0
M  V30 1441 H 144.417 3.85318 1.60995 0
M  V30 1442 N 144.854 0.36279 1.53368 0
M  V30 1443 C 145.802 -0.500155 2.27159 0
M  V30 1444 C 146.796 -1.08575 1.3003 0
M  V30 1445 O 148.002 -1.02927 1.47668 0
M  V30 1446 H 144.377 -0.180009 0.730138 0
M  V30 1447 H 146.348 0.14401 2.98052 0
M  V30 1448 C 145.097 -1.62937 3.07159 0
M  V30 1449 H 144.42 -1.18806 3.8174 0
M  V30 1450 H 145.86 -2.20795 3.61975 0
M  V30 1451 C 144.319 -2.57007 2.17829 0
M  V30 1452 O 144.849 -3.59752 1.78721 0
M  V30 1453 N 143.055 -2.26131 1.82518 0
M  V30 1454 H 142.602 -1.42616 2.14519 0
M  V30 1455 H 142.56 -2.89327 1.23034 0
M  V30 1456 N 146.332 -1.57332 0.0918853 0
M  V30 1457 C 147.295 -2.12708 -0.85369 0
M  V30 1458 C 148.295 -1.05561 -1.213 0
M  V30 1459 O 149.485 -1.31461 -1.14296 0
M  V30 1460 C 146.617 -2.64503 -2.15061 0
M  V30 1461 H 147.81 -2.97573 -0.3729 0
M  V30 1462 H 145.363 -1.55509 -0.157072 0
M  V30 1463 H 146.098 -1.83149 -2.67632 0
M  V30 1464 H 145.883 -3.4284 -1.90272 0
M  V30 1465 H 147.373 -3.07351 -2.82711 0
M  V30 1466 N 147.81 0.181792 -1.56548 0
M  V30 1467 C 149.056 0.901431 -1.81665 0
M  V30 1468 C 149.389 1.82347 -0.668075 0
M  V30 1469 O 148.664 1.91669 0.330615 0
M  V30 1470 C 148.947 1.70618 -3.17115 0
M  V30 1471 C 148.8 0.807964 -4.42484 0
M  V30 1472 C 150.119 2.67605 -3.49393 0
M  V30 1473 H 147.238 0.32627 -0.660846 0
M  V30 1474 H 149.88 0.168134 -1.89255 0
M  V30 1475 H 148.03 2.33133 -3.10775 0
M  V30 1476 H 149.702 0.19649 -4.60881 0
M  V30 1477 H 147.945 0.115411 -4.33646 0
M  V30 1478 H 148.616 1.40632 -5.33785 0
M  V30 1479 H 151.092 2.15218 -3.56118 0
M  V30 1480 H 149.968 3.20985 -4.45264 0
M  V30 1481 H 150.229 3.47298 -2.73563 0
M  V30 1482 N 149.288 1.51039 0.449983 0
M  V30 1483 C 150.534 1.63322 1.20223 0
M  V30 1484 C 150.867 0.34241 1.91158 0
M  V30 1485 O 150.142 -0.657344 1.83055 0
M  V30 1486 C 150.425 2.82801 2.22925 0
M  V30 1487 C 150.278 4.21823 1.56157 0
M  V30 1488 C 151.597 2.97807 3.24035 0
M  V30 1489 H 148.716 0.594407 0.435718 0
M  V30 1490 H 151.358 1.83489 0.493136 0
M  V30 1491 H 149.508 2.65738 2.834 0
M  V30 1492 H 151.18 4.50526 0.991162 0
M  V30 1493 H 149.423 4.25105 0.864172 0
M  V30 1494 H 150.094 5.01391 2.30891 0
M  V30 1495 H 152.57 3.13497 2.73603 0
M  V30 1496 H 151.446 3.82992 3.93202 0
M  V30 1497 H 151.707 2.09328 3.89402 0
M  V30 1498 N 150.766 -0.704594 1.40972 0
M  V30 1499 C 152.014 -1.46169 1.39568 0
M  V30 1500 C 152.335 -1.95 0.00253745 0
M  V30 1501 O 151.605 -1.71095 -0.954114 0
M  V30 1502 H 150.185 -0.542326 0.513704 0
M  V30 1503 H 152.847 -0.834553 1.76128 0
M  V30 1504 H 151.943 -2.32922 2.07735 0
M  V30 1505 N 152.244 -1.26651 -0.937939 0
M  V30 1506 C 153.474 -1.15006 -1.71631 0
M  V30 1507 C 153.882 0.297026 -1.86854 0
M  V30 1508 O 153.225 1.21493 -1.37786 0
M  V30 1509 C 153.287 -1.74984 -3.14039 0
M  V30 1510 C 152.951 -3.24103 -3.2219 0
M  V30 1511 C 153.948 -4.20877 -3.05219 0
M  V30 1512 C 151.633 -3.64625 -3.45476 0
M  V30 1513 C 153.627 -5.56151 -3.11408 0
M  V30 1514 C 151.314 -5.00032 -3.513 0
M  V30 1515 C 152.312 -5.95604 -3.34282 0
M  V30 1516 O 152 -7.28545 -3.3982 0
M  V30 1517 H 151.732 -0.401183 -0.544085 0
M  V30 1518 H 154.286 -1.67832 -1.18413 0
M  V30 1519 H 152.516 -1.16624 -3.68695 0
M  V30 1520 H 154.205 -1.58199 -3.73802 0
M  V30 1521 H 154.971 -3.90908 -2.87081 0
M  V30 1522 H 150.85 -2.90718 -3.57777 0
M  V30 1523 H 154.394 -6.30727 -2.98043 0
M  V30 1524 H 150.291 -5.29659 -3.68959 0
M  V30 1525 H 151.059 -7.3686 -3.56343 0
M  V30 1526 N 153.722 1.14298 -1.08507 0
M  V30 1527 C 154.97 1.84993 -0.813763 0
M  V30 1528 C 155.291 1.83405 0.662393 0
M  V30 1529 O 154.561 1.28319 1.48024 0
M  V30 1530 H 153.141 0.684966 -0.298045 0
M  V30 1531 H 155.803 1.385 -1.37126 0
M  V30 1532 H 154.899 2.89788 -1.15884 0
M  V30 1533 N 155.201 0.870884 1.31352 0
M  V30 1534 C 156.447 0.482987 1.96965 0
M  V30 1535 C 156.78 -0.962462 1.68672 0
M  V30 1536 O 156.055 -1.6779 0.98371 0
M  V30 1537 C 156.338 0.741752 3.52378 0
M  V30 1538 C 156.191 2.2368 3.9024 0
M  V30 1539 C 157.51 0.208838 4.39604 0
M  V30 1540 H 154.629 0.176955 0.715441 0
M  V30 1541 H 157.271 1.09229 1.55464 0
M  V30 1542 H 155.421 0.223149 3.87859 0
M  V30 1543 H 157.093 2.82273 3.64856 0
M  V30 1544 H 155.336 2.70901 3.38814 0
M  V30 1545 H 156.007 2.3685 4.98604 0
M  V30 1546 H 158.483 0.652529 4.10952 0
M  V30 1547 H 157.359 0.419336 5.47296 0
M  V30 1548 H 157.62 -0.889275 4.33064 0
M  V30 1549 N 156.679 -1.44442 0.630414 0
M  V30 1550 C 157.925 -2.02894 0.143332 0
M  V30 1551 C 158.28 -1.48697 -1.22094 0
M  V30 1552 O 157.573 -0.661171 -1.79831 0
M  V30 1553 C 157.767 -3.57332 0.0697835 0
M  V30 1554 C 157.596 -4.26512 1.42539 0
M  V30 1555 C 156.366 -4.63516 2.01198 0
M  V30 1556 C 158.564 -4.57004 2.35907 0
M  V30 1557 N 156.546 -5.17661 3.30001 0
M  V30 1558 C 157.917 -5.12223 3.49324 0
M  V30 1559 C 159.972 -4.38955 2.34995 0
M  V30 1560 C 158.675 -5.51295 4.62024 0
M  V30 1561 C 160.701 -4.79075 3.46758 0
M  V30 1562 C 160.063 -5.34407 4.58899 0
M  V30 1563 H 156.162 -0.776041 0.0963523 0
M  V30 1564 H 158.746 -1.75945 0.833752 0
M  V30 1565 H 156.917 -3.83894 -0.589915 0
M  V30 1566 H 158.649 -4.02451 -0.42606 0
M  V30 1567 H 155.404 -4.47811 1.54151 0
M  V30 1568 H 155.828 -5.4921 3.95851 0
M  V30 1569 H 160.47 -3.95469 1.49545 0
M  V30 1570 H 158.188 -5.93736 5.48182 0
M  V30 1571 H 161.774 -4.66824 3.47227 0
M  V30 1572 H 160.654 -5.64878 5.4395 0
M  V30 1573 N 158.157 -0.370918 -1.53173 0
M  V30 1574 C 159.568 0.107139 -1.86392 0
M  V30 1575 C 159.919 1.47714 -1.29132 0
M  V30 1576 O 159.044 2.07464 -0.615439 0
M  V30 1577 C 159.639 0.201187 -3.38202 0
M  V30 1578 C 158.198 0.623507 -3.712 0
M  V30 1579 C 157.345 -0.225978 -2.76378 0
M  V30 1580 H 160.296 -0.58951 -1.47345 0
M  V30 1581 H 160.317 1.02377 -3.66468 0
M  V30 1582 H 159.829 -0.796058 -3.79848 0
M  V30 1583 H 157.93 1.62879 -3.35114 0
M  V30 1584 H 158.043 0.394414 -4.77474 0
M  V30 1585 H 156.407 0.305962 -2.52856 0
M  V30 1586 H 157.19 -1.22086 -3.20858 0
M  V30 1587 N 159.635 1.57281 -0.100228 0
M  V30 1588 C 160.585 2.10848 0.86759 0
M  V30 1589 C 161.569 1.02473 1.24049 0
M  V30 1590 O 162.761 1.28739 1.21471 0
M  V30 1591 C 159.89 2.69648 2.12474 0
M  V30 1592 C 158.976 3.85074 1.77704 0
M  V30 1593 N 159.367 4.92897 1.13518 0
M  V30 1594 C 157.665 3.94905 2.07282 0
M  V30 1595 C 158.366 5.73475 0.974735 0
M  V30 1596 N 157.342 5.22675 1.4937 0
M  V30 1597 H 161.144 2.91594 0.367471 0
M  V30 1598 H 158.658 1.62074 0.102829 0
M  V30 1599 H 160.655 3.06356 2.82757 0
M  V30 1600 H 159.315 1.90359 2.63047 0
M  V30 1601 H 160.326 5.11662 0.801381 0
M  V30 1602 H 157.003 3.26633 2.60033 0
M  V30 1603 H 158.393 6.70238 0.472364 0
M  V30 1604 N 161.113 -0.173488 1.56642 0
M  V30 1605 C 162.343 -0.904781 1.85734 0
M  V30 1606 C 162.751 -1.76431 0.68328 0
M  V30 1607 O 162.094 -1.802 -0.356865 0
M  V30 1608 C 162.156 -1.83382 3.09211 0
M  V30 1609 C 161.82 -1.15411 4.42187 0
M  V30 1610 C 162.817 -0.520609 5.17287 0
M  V30 1611 C 160.502 -1.15151 4.88923 0
M  V30 1612 C 162.496 0.106412 6.37311 0
M  V30 1613 C 160.183 -0.520664 6.08878 0
M  V30 1614 C 161.181 0.107196 6.82916 0
M  V30 1615 O 160.869 0.728102 8.00596 0
M  V30 1616 H 160.601 -0.268408 0.62043 0
M  V30 1617 H 163.155 -0.179096 2.04618 0
M  V30 1618 H 161.385 -2.59976 2.86268 0
M  V30 1619 H 163.074 -2.43476 3.24768 0
M  V30 1620 H 163.84 -0.514606 4.82262 0
M  V30 1621 H 159.719 -1.62961 4.31236 0
M  V30 1622 H 163.263 0.597081 6.9504 0
M  V30 1623 H 159.16 -0.524242 6.43368 0
M  V30 1624 H 159.928 0.627138 8.16094 0
M  V30 1625 N 162.591 -1.51276 -0.441967 0
M  V30 1626 C 163.521 -1.752 -1.54361 0
M  V30 1627 C 164.502 -0.601682 -1.59103 0
M  V30 1628 O 165.687 -0.843913 -1.74905 0
M  V30 1629 C 162.817 -1.87282 -2.92477 0
M  V30 1630 C 161.771 -3.02687 -3.02596 0
M  V30 1631 C 161.097 -2.99947 -4.42647 0
M  V30 1632 C 162.397 -4.4273 -2.77106 0
M  V30 1633 H 164.091 -2.67442 -1.34592 0
M  V30 1634 H 161.637 -1.28694 -0.646048 0
M  V30 1635 H 163.59 -2.02602 -3.695 0
M  V30 1636 H 162.314 -0.916844 -3.13467 0
M  V30 1637 H 160.973 -2.87065 -2.28012 0
M  V30 1638 H 160.621 -2.02136 -4.60597 0
M  V30 1639 H 160.321 -3.77439 -4.50348 0
M  V30 1640 H 161.845 -3.17354 -5.2165 0
M  V30 1641 H 163.259 -4.58727 -3.43864 0
M  V30 1642 H 161.656 -5.21893 -2.96222 0
M  V30 1643 H 162.726 -4.53087 -1.72744 0
M  V30 1644 N 164.069 0.697108 -1.41344 0
M  V30 1645 C 165.297 1.48593 -1.43972 0
M  V30 1646 C 165.712 1.88747 -0.0445612 0
M  V30 1647 O 165.069 1.56682 0.935785 0
M  V30 1648 C 165.12 2.74946 -2.34706 0
M  V30 1649 O 164.841 2.36484 -3.68791 0
M  V30 1650 C 166.342 3.687 -2.46121 0
M  V30 1651 H 163.562 0.457964 -0.490418 0
M  V30 1652 H 166.106 0.858429 -1.8561 0
M  V30 1653 H 164.261 3.33937 -1.9638 0
M  V30 1654 H 164.675 3.17918 -4.17167 0
M  V30 1655 H 166.149 4.54145 -3.13777 0
M  V30 1656 H 166.626 4.13081 -1.49199 0
M  V30 1657 H 167.232 3.15613 -2.85076 0
M  V30 1658 N 165.547 1.27147 0.931209 0
M  V30 1659 C 166.958 1.12044 1.49342 0
M  V30 1660 C 167.309 -0.295795 1.93957 0
M  V30 1661 O 166.434 -1.18835 1.80852 0
M  V30 1662 C 167.029 2.02781 2.71414 0
M  V30 1663 C 165.588 1.91794 3.2387 0
M  V30 1664 C 164.735 1.95543 1.96617 0
M  V30 1665 H 167.686 1.40091 0.745672 0
M  V30 1666 H 167.707 1.58156 3.46074 0
M  V30 1667 H 167.219 3.05848 2.38911 0
M  V30 1668 H 165.32 0.916992 3.6114 0
M  V30 1669 H 165.433 2.77852 3.90302 0
M  V30 1670 H 163.797 1.39722 2.12955 0
M  V30 1671 H 164.58 3.00259 1.66432 0
M  V30 1672 N 167.025 -1.13721 1.09112 0
M  V30 1673 C 167.957 -2.1871 0.685467 0
M  V30 1674 C 168.97 -1.60527 -0.271068 0
M  V30 1675 O 170.159 -1.78407 -0.0576148 0
M  V30 1676 C 167.259 -3.38898 -0.0111255 0
M  V30 1677 C 166.432 -4.26597 0.966131 0
M  V30 1678 C 165.491 -5.25324 0.303539 0
M  V30 1679 O 164.517 -5.61213 0.950177 0
M  V30 1680 N 165.719 -5.72779 -0.943651 0
M  V30 1681 H 168.484 -2.54126 1.58871 0
M  V30 1682 H 166.045 -1.29012 0.978143 0
M  V30 1683 H 168.037 -4.02014 -0.465517 0
M  V30 1684 H 166.607 -3.01747 -0.816565 0
M  V30 1685 H 165.827 -3.60306 1.59917 0
M  V30 1686 H 167.115 -4.82048 1.6281 0
M  V30 1687 H 166.513 -5.45762 -1.48862 0
M  V30 1688 H 165.07 -6.37847 -1.34142 0
M  V30 1689 N 168.503 -0.877838 -1.30888 0
M  V30 1690 C 169.78 -0.413052 -1.91189 0
M  V30 1691 C 170.16 1.1056 -1.79832 0
M  V30 1692 O 169.508 1.93771 -1.21099 0
M  V30 1693 C 169.718 -0.903191 -3.3711 0
M  V30 1694 C 171.066 -0.93395 -4.14201 0
M  V30 1695 O 172.09 -0.849373 -3.45925 0
M  V30 1696 O 170.949 -1.05772 -5.36167 0
M  V30 1697 H 168.043 -0.125035 -0.817493 0
M  V30 1698 H 170.589 -0.966269 -1.39504 0
M  V30 1699 H 169.361 -1.94692 -3.39427 0
M  V30 1700 H 168.984 -0.328732 -3.96239 0
M  V30 1701 N 169.982 1.44106 -0.638065 0
M  V30 1702 C 170.945 2.29138 0.0531013 0
M  V30 1703 C 171.945 1.41409 0.765506 0
M  V30 1704 O 173.135 1.63206 0.609046 0
M  V30 1705 C 170.267 3.23144 1.08584 0
M  V30 1706 H 171.46 2.91739 -0.694883 0
M  V30 1707 H 169.013 1.51134 -0.398538 0
M  V30 1708 H 169.748 2.65408 1.86357 0
M  V30 1709 H 169.533 3.87804 0.578852 0
M  V30 1710 H 171.023 3.87004 1.56899 0
M  V30 1711 N 171.46 0.379036 1.52974 0
M  V30 1712 C 172.688 -0.20679 2.05864 0
M  V30 1713 C 173.103 -1.41356 1.25155 0
M  V30 1714 O 172.46 -1.8009 0.295588 0
M  V30 1715 C 172.511 -0.587045 3.56702 0
M  V30 1716 O 172.232 0.571776 4.34353 0
M  V30 1717 C 173.733 -1.22983 4.25899 0
M  V30 1718 H 170.953 -0.0336123 0.670158 0
M  V30 1719 H 173.497 0.541298 1.97206 0
M  V30 1720 H 171.652 -1.28504 3.65466 0
M  V30 1721 H 172.066 0.261544 5.23847 0
M  V30 1722 H 173.54 -1.44635 5.32715 0
M  V30 1723 H 174.017 -2.19416 3.80465 0
M  V30 1724 H 174.623 -0.572892 4.21424 0
M  V30 1725 N 172.938 -1.57226 0.108567 0
M  V30 1726 C 173.901 -2.13602 -0.831082 0
M  V30 1727 C 174.901 -1.06841 -1.20173 0
M  V30 1728 O 176.091 -1.32666 -1.12895 0
M  V30 1729 C 173.223 -2.66769 -2.12243 0
M  V30 1730 H 174.416 -2.97951 -0.341317 0
M  V30 1731 H 171.969 -1.55667 -0.14057 0
M  V30 1732 H 172.704 -1.85977 -2.65675 0
M  V30 1733 H 172.489 -3.44839 -1.86625 0
M  V30 1734 H 173.979 -3.10332 -2.79435 0
M  V30 1735 N 174.416 0.165178 -1.56732 0
M  V30 1736 C 175.665 0.879143 -1.81532 0
M  V30 1737 C 175.978 1.83144 -0.686842 0
M  V30 1738 O 177.184 2.58823 -0.819944 0
M  V30 1739 C 175.64 1.61388 -3.21686 0
M  V30 1740 C 175.248 0.704904 -4.4242 0
M  V30 1741 C 176.992 2.3157 -3.55774 0
M  V30 1742 C 174.899 1.44022 -5.73595 0
M  V30 1743 H 173.829 0.332033 -0.676957 0
M  V30 1744 H 176.48 0.132008 -1.83025 0
M  V30 1745 H 174.862 2.40599 -3.14529 0
M  V30 1746 H 176.036 -0.0506815 -4.60772 0
M  V30 1747 H 174.351 0.112419 -4.16248 0
M  V30 1748 H 176.948 2.8719 -4.51028 0
M  V30 1749 H 177.291 3.07201 -2.8095 0
M  V30 1750 H 177.824 1.59297 -3.64513 0
M  V30 1751 H 174.563 0.72612 -6.51466 0
M  V30 1752 H 174.083 2.16898 -5.5921 0
M  V30 1753 H 175.762 1.98606 -6.15764 0
M  V30 1754 N 175.894 1.51508 0.433938 0
M  V30 1755 C 177.171 1.54888 1.19453 0
M  V30 1756 C 177.551 0.315154 2.08734 0
M  V30 1757 O 176.899 -0.699558 2.17528 0
M  V30 1758 C 177.109 2.86467 1.99342 0
M  V30 1759 C 178.457 3.38545 2.56267 0
M  V30 1760 O 179.481 2.88041 2.0955 0
M  V30 1761 O 178.34 4.26675 3.41483 0
M  V30 1762 H 175.434 0.622863 0.544032 0
M  V30 1763 H 177.98 1.63823 0.442732 0
M  V30 1764 H 176.752 3.67718 1.33788 0
M  V30 1765 H 176.375 2.8071 2.8158 0
M  V30 1766 N 177.372 -0.689602 1.41712 0
M  V30 1767 C 178.319 -1.80345 1.44029 0
M  V30 1768 C 179.289 -1.63478 0.293948 0
M  V30 1769 O 180.474 -1.84244 0.495869 0
M  V30 1770 C 177.614 -3.18272 1.33405 0
M  V30 1771 C 176.727 -3.46529 2.57956 0
M  V30 1772 C 175.862 -4.74103 2.39582 0
M  V30 1773 C 174.901 -4.95347 3.5958 0
M  V30 1774 N 174.038 -6.14151 3.40239 0
M  V30 1775 H 178.878 -1.77698 2.39222 0
M  V30 1776 H 176.415 -0.867688 1.18784 0
M  V30 1777 H 178.373 -3.97956 1.25246 0
M  V30 1778 H 177.003 -3.2008 0.418164 0
M  V30 1779 H 176.055 -2.61207 2.76542 0
M  V30 1780 H 177.367 -3.58126 3.47199 0
M  V30 1781 H 176.521 -5.61853 2.28924 0
M  V30 1782 H 175.26 -4.64763 1.47805 0
M  V30 1783 H 174.265 -4.06044 3.70686 0
M  V30 1784 H 175.49 -5.06542 4.52318 0
M  V30 1785 H 173.436 -6.06013 2.51167 0
M  V30 1786 H 173.353 -6.26543 4.23061 0
M  V30 1787 H 174.621 -7.04619 3.33365 0
M  V30 1788 N 178.85 -1.27639 -0.924453 0
M  V30 1789 C 180.261 -1.12834 -1.48746 0
M  V30 1790 C 180.612 0.285505 -1.94112 0
M  V30 1791 O 179.737 1.17874 -1.81479 0
M  V30 1792 C 180.332 -2.04217 -2.70334 0
M  V30 1793 C 178.891 -1.93509 -3.22848 0
M  V30 1794 C 178.038 -1.96583 -1.95577 0
M  V30 1795 H 180.989 -1.40484 -0.738233 0
M  V30 1796 H 181.01 -1.59989 -3.4523 0
M  V30 1797 H 180.522 -3.07111 -2.37285 0
M  V30 1798 H 178.623 -0.936131 -3.60649 0
M  V30 1799 H 178.736 -2.79917 -3.88823 0
M  V30 1800 H 177.1 -1.4085 -2.12211 0
M  V30 1801 H 177.883 -3.01137 -1.64837 0
M  V30 1802 N 180.328 1.1314 -1.09713 0
M  V30 1803 C 181.556 1.88321 -0.856898 0
M  V30 1804 C 181.971 1.79276 0.592073 0
M  V30 1805 O 181.328 1.16142 1.40774 0
M  V30 1806 C 181.379 3.37812 -1.28706 0
M  V30 1807 O 181.1 3.46627 -2.67921 0
M  V30 1808 C 182.601 4.29952 -1.07964 0
M  V30 1809 H 179.821 0.596094 -0.308079 0
M  V30 1810 H 182.365 1.43205 -1.45988 0
M  V30 1811 H 180.52 3.805 -0.727912 0
M  V30 1812 H 180.934 4.39579 -2.8613 0
M  V30 1813 H 182.408 5.33159 -1.42986 0
M  V30 1814 H 182.885 4.39196 -0.0176577 0
M  V30 1815 H 183.491 3.93036 -1.62489 0
M  V30 1816 N 181.806 0.884767 1.30421 0
M  V30 1817 C 182.738 0.308655 2.27112 0
M  V30 1818 C 183.751 -0.536655 1.53701 0
M  V30 1819 O 184.94 -0.35624 1.74909 0
M  V30 1820 C 182.04 -0.579782 3.33904 0
M  V30 1821 C 181.213 0.236417 4.36761 0
M  V30 1822 C 180.272 -0.582482 5.22966 0
M  V30 1823 O 179.298 -0.00525502 5.692 0
M  V30 1824 N 180.5 -1.89163 5.48815 0
M  V30 1825 H 183.265 1.13964 2.77186 0
M  V30 1826 H 180.826 0.747731 1.43599 0
M  V30 1827 H 182.818 -1.13366 3.88497 0
M  V30 1828 H 181.388 -1.31144 2.83761 0
M  V30 1829 H 180.608 0.97174 3.82035 0
M  V30 1830 H 181.896 0.795924 5.02536 0
M  V30 1831 H 181.294 -2.38352 5.13035 0
M  V30 1832 H 179.851 -2.39296 6.06284 0
M  V30 1833 N 183.284 -1.43765 0.645699 0
M  V30 1834 C 184.695 -1.85193 0.236719 0
M  V30 1835 C 185.046 -1.54045 -1.21509 0
M  V30 1836 O 184.171 -0.985694 -1.92647 0
M  V30 1837 C 184.766 -3.36151 0.422845 0
M  V30 1838 C 183.325 -3.76338 0.0682492 0
M  V30 1839 C 182.472 -2.67538 0.729306 0
M  V30 1840 H 185.423 -1.34025 0.849883 0
M  V30 1841 H 185.444 -3.79032 -0.333904 0
M  V30 1842 H 184.956 -3.5879 1.47958 0
M  V30 1843 H 183.057 -3.59312 -0.986179 0
M  V30 1844 H 183.17 -4.76603 0.488469 0
M  V30 1845 H 181.534 -2.54176 0.163235 0
M  V30 1846 H 182.317 -2.93006 1.78892 0
M  V30 1847 N 184.763 -0.387143 -1.52771 0
M  V30 1848 C 186.04 0.253197 -1.93954 0
M  V30 1849 C 186.42 1.64545 -1.32243 0
M  V30 1850 O 185.768 2.23191 -0.489699 0
M  V30 1851 C 185.978 0.281722 -3.47861 0
M  V30 1852 C 187.326 0.511715 -4.21505 0
M  V30 1853 O 188.35 0.362023 -3.54356 0
M  V30 1854 O 187.209 0.804847 -5.40541 0
M  V30 1855 H 184.303 0.156845 -0.811991 0
M  V30 1856 H 186.849 -0.441494 -1.63856 0
M  V30 1857 H 185.621 -0.693571 -3.85104 0
M  V30 1858 H 185.244 1.02142 -3.84256 0
M  V30 1859 N 186.241 1.57166 -0.116904 0
M  V30 1860 C 187.469 1.99473 0.549383 0
M  V30 1861 C 187.884 0.996541 1.60357 0
M  V30 1862 O 187.241 -0.0108731 1.82497 0
M  V30 1863 C 187.292 3.41788 1.17741 0
M  V30 1864 O 187.013 4.37788 0.165362 0
M  V30 1865 C 188.514 3.99216 1.92722 0
M  V30 1866 H 185.734 0.655009 0.145616 0
M  V30 1867 H 188.278 2.03494 -0.202625 0
M  V30 1868 H 186.433 3.38713 1.88021 0
M  V30 1869 H 186.847 5.20806 0.621403 0
M  V30 1870 H 188.321 5.00882 2.31995 0
M  V30 1871 H 188.798 3.3824 2.80161 0
M  V30 1872 H 189.404 4.0583 1.27209 0
M  V30 1873 N 187.719 -0.156864 1.56817 0
M  V30 1874 C 188.944 -0.890331 1.87318 0
M  V30 1875 C 189.369 -1.74394 0.704855 0
M  V30 1876 O 188.727 -1.77972 -0.345786 0
M  V30 1877 C 188.775 -1.73102 3.16336 0
M  V30 1878 O 187.879 -2.83422 2.99576 0
M  V30 1879 H 187.22 -0.24857 0.615718 0
M  V30 1880 H 189.75 -0.150649 2.04045 0
M  V30 1881 H 189.76 -2.12803 3.48107 0
M  V30 1882 H 188.435 -1.10412 4.00976 0
M  V30 1883 H 187.012 -2.47199 2.7919 0
M  V30 1884 N 189.197 -1.51736 -0.425897 0
M  V30 1885 C 190.422 -1.69082 -1.20108 0
M  V30 1886 C 190.847 -0.392398 -1.83962 0
M  V30 1887 O 190.205 0.64858 -1.69302 0
M  V30 1888 C 190.253 -2.81604 -2.25237 0
M  V30 1889 O 189.357 -2.46004 -3.30992 0
M  V30 1890 H 188.698 -0.563408 -0.35138 0
M  V30 1891 H 191.228 -1.98358 -0.501512 0
M  V30 1892 H 191.238 -3.06025 -2.69838 0
M  V30 1893 H 189.913 -3.75817 -1.78142 0
M  V30 1894 H 188.49 -2.32195 -2.91787 0
M  V30 1895 N 190.675 0.682077 -1.42076 0
M  V30 1896 C 191.623 1.81707 -1.45208 0
M  V30 1897 C 192.617 1.66183 -0.328591 0
M  V30 1898 O 193.823 1.7288 -0.501264 0
M  V30 1899 H 190.198 0.599014 -0.454628 0
M  V30 1900 H 192.169 1.76183 -2.40836 0
M  V30 1901 C 190.918 3.19816 -1.36428 0
M  V30 1902 H 190.241 3.32385 -2.22171 0
M  V30 1903 H 191.681 3.99272 -1.42681 0
M  V30 1904 C 190.14 3.36809 -0.078191 0
M  V30 1905 O 190.67 3.92124 0.87188 0
M  V30 1906 N 188.876 2.906 0.00229266 0
M  V30 1907 H 188.423 2.45772 -0.771616 0
M  V30 1908 H 188.381 3.02347 0.862179 0
M  V30 1909 N 192.153 1.28127 0.917671 0
M  V30 1910 C 193.569 1.05749 1.19538 0
M  V30 1911 C 193.769 -0.202633 2.00479 0
M  V30 1912 O 192.825 -0.905382 2.3571 0
M  V30 1913 C 194.138 2.30273 1.93378 0
M  V30 1914 C 195.686 2.35412 2.06277 0
M  V30 1915 C 196.161 3.59692 2.83524 0
M  V30 1916 N 197.652 3.60309 2.91087 0
M  V30 1917 C 198.387 4.53147 3.51348 0
M  V30 1918 N 197.883 5.563 4.12919 0
M  V30 1919 N 199.676 4.40751 3.48849 0
M  V30 1920 H 191.827 2.09024 0.377184 0
M  V30 1921 H 194.09 0.919798 0.22951 0
M  V30 1922 H 193.796 3.22055 1.41328 0
M  V30 1923 H 193.67 2.36378 2.93947 0
M  V30 1924 H 196.057 1.4413 2.57508 0
M  V30 1925 H 196.138 2.33304 1.04895 0
M  V30 1926 H 195.782 4.51316 2.32973 0
M  V30 1927 H 195.712 3.59054 3.85211 0
M  V30 1928 H 198.203 2.85714 2.47338 0
M  V30 1929 H 198.516 6.2329 4.56869 0
M  V30 1930 H 196.861 5.60131 4.11435 0
M  V30 1931 H 200.052 3.59367 2.99955 0
M  V30 1932 H 200.225 5.13291 3.9552 0
M  V30 1933 N 193.631 -1.12557 1.10312 0
M  V30 1934 C 194.878 -1.84038 0.844759 0
M  V30 1935 C 195.206 -1.84026 -0.629668 0
M  V30 1936 O 194.461 -1.28026 -1.48013 0
M  V30 1937 C 194.76 -3.31462 1.33669 0
M  V30 1938 C 194.426 -3.51647 2.82232 0
M  V30 1939 C 193.088 -3.56864 3.22802 0
M  V30 1940 C 195.44 -3.58867 3.77974 0
M  V30 1941 C 192.768 -3.66844 4.57867 0
M  V30 1942 C 195.12 -3.70375 5.1284 0
M  V30 1943 C 193.784 -3.73848 5.52986 0
M  V30 1944 H 193.054 -0.673444 0.309119 0
M  V30 1945 H 195.701 -1.32824 1.37949 0
M  V30 1946 H 194.006 -3.85091 0.721949 0
M  V30 1947 H 195.703 -3.85236 1.11329 0
M  V30 1948 H 192.293 -3.48249 2.49842 0
M  V30 1949 H 196.477 -3.54107 3.47738 0
M  V30 1950 H 191.733 -3.67804 4.88396 0
M  V30 1951 H 195.907 -3.74904 5.86873 0
M  V30 1952 H 193.534 -3.81333 6.57639 0
M  V30 1953 N 195.109 -0.891671 -1.2995 0
M  V30 1954 C 196.339 -0.527893 -1.99742 0
M  V30 1955 C 196.747 0.88979 -1.66971 0
M  V30 1956 O 196.09 1.59766 -0.906667 0
M  V30 1957 C 196.152 -0.630804 -3.53922 0
M  V30 1958 C 195.816 -2.01401 -4.10228 0
M  V30 1959 C 196.813 -2.98422 -4.25724 0
M  V30 1960 C 194.498 -2.32121 -4.45449 0
M  V30 1961 C 196.492 -4.24293 -4.75662 0
M  V30 1962 C 194.179 -3.58237 -4.95086 0
M  V30 1963 C 195.177 -4.54137 -5.10146 0
M  V30 1964 O 194.865 -5.78014 -5.58708 0
M  V30 1965 H 194.597 -0.201953 -0.645129 0
M  V30 1966 H 197.151 -1.20076 -1.66646 0
M  V30 1967 H 195.381 0.0990616 -3.86573 0
M  V30 1968 H 197.07 -0.277338 -4.04951 0
M  V30 1969 H 197.836 -2.76001 -3.98809 0
M  V30 1970 H 193.715 -1.5824 -4.32991 0
M  V30 1971 H 197.259 -4.99153 -4.87332 0
M  V30 1972 H 193.156 -3.80491 -5.21437 0
M  V30 1973 H 193.924 -5.8049 -5.77039 0
M  V30 1974 N 196.587 1.43421 -0.653314 0
M  V30 1975 C 197.815 2.06163 -0.174491 0
M  V30 1976 C 198.23 1.48969 1.1599 0
M  V30 1977 O 197.587 0.621042 1.71608 0
M  V30 1978 C 197.638 3.61417 -0.0774865 0
M  V30 1979 O 197.359 4.16485 -1.35912 0
M  V30 1980 C 198.86 4.41235 0.427402 0
M  V30 1981 H 196.08 0.664946 -0.0899353 0
M  V30 1982 H 198.624 1.83924 -0.893988 0
M  V30 1983 H 196.779 3.82841 0.59257 0
M  V30 1984 H 197.193 5.10153 -1.21839 0
M  V30 1985 H 198.667 5.5021 0.44423 0
M  V30 1986 H 199.144 4.14268 1.45873 0
M  V30 1987 H 199.75 4.2478 -0.210167 0
M  V30 1988 N 198.065 0.39524 1.52563 0
M  V30 1989 C 198.995 -0.428384 2.29537 0
M  V30 1990 C 199.976 -1.05831 1.33169 0
M  V30 1991 O 201.161 -1.06995 1.62067 0
M  V30 1992 C 198.291 -1.55274 3.10656 0
M  V30 1993 C 197.245 -1.04855 4.14957 0
M  V30 1994 C 196.571 -2.26543 4.84337 0
M  V30 1995 C 197.871 -0.112324 5.22179 0
M  V30 1996 H 199.565 0.213867 2.98635 0
M  V30 1997 H 197.111 0.104298 1.43622 0
M  V30 1998 H 199.064 -2.1358 3.63265 0
M  V30 1999 H 197.788 -2.22266 2.39302 0
M  V30 2000 H 196.447 -0.487985 3.63338 0
M  V30 2001 H 196.095 -2.92059 4.09525 0
M  V30 2002 H 195.795 -1.93466 5.54837 0
M  V30 2003 H 197.319 -2.85481 5.39753 0
M  V30 2004 H 198.733 -0.603752 5.70112 0
M  V30 2005 H 197.13 0.128968 5.99961 0
M  V30 2006 H 198.2 0.837052 4.77621 0
M  V30 2007 N 199.544 -1.57102 0.125237 0
M  V30 2008 C 200.454 -2.19191 -0.8362 0
M  V30 2009 C 201.47 -1.16985 -1.28805 0
M  V30 2010 O 202.646 -1.49479 -1.34974 0
M  V30 2011 C 199.711 -2.78407 -2.06617 0
M  V30 2012 C 198.772 -3.9567 -1.66565 0
M  V30 2013 C 198.005 -4.52052 -2.83698 0
M  V30 2014 O 198.228 -4.07326 -3.99302 0
M  V30 2015 O 197.162 -5.42645 -2.60423 0
M  V30 2016 H 200.988 -3.01816 -0.337776 0
M  V30 2017 H 198.573 -1.4906 -0.100695 0
M  V30 2018 H 200.455 -3.16129 -2.7864 0
M  V30 2019 H 199.13 -1.9881 -2.55453 0
M  V30 2020 H 198.037 -3.62705 -0.916296 0
M  V30 2021 H 199.37 -4.76722 -1.22464 0
M  V30 2022 N 201.022 0.148545 -1.56898 0
M  V30 2023 C 202.247 0.880385 -1.87787 0
M  V30 2024 C 202.672 1.74018 -0.714093 0
M  V30 2025 O 202.03 1.78153 0.336343 0
M  V30 2026 C 202.078 1.71422 -3.17249 0
M  V30 2027 O 201.182 2.8183 -3.01074 0
M  V30 2028 H 200.523 0.245301 -0.617028 0
M  V30 2029 H 203.053 0.139826 -2.04122 0
M  V30 2030 H 203.063 2.10954 -3.49231 0
M  V30 2031 H 201.738 1.08284 -4.01556 0
M  V30 2032 H 200.315 2.45715 -2.80497 0
M  V30 2033 N 202.5 1.5196 0.417844 0
M  V30 2034 C 203.447 1.74678 1.50852 0
M  V30 2035 C 204.417 0.588947 1.55308 0
M  V30 2036 O 205.602 0.825544 1.72016 0
M  V30 2037 C 202.742 1.89544 2.88387 0
M  V30 2038 C 201.855 3.17166 2.93309 0
M  V30 2039 C 200.99 3.22513 4.22088 0
M  V30 2040 C 200.029 4.44372 4.20951 0
M  V30 2041 N 199.166 4.47161 5.41287 0
M  V30 2042 H 204.006 2.67768 1.30783 0
M  V30 2043 H 201.543 1.32689 0.63498 0
M  V30 2044 H 203.501 1.96146 3.68216 0
M  V30 2045 H 202.131 0.998424 3.06971 0
M  V30 2046 H 201.183 3.19778 2.06024 0
M  V30 2047 H 202.495 4.07021 2.88332 0
M  V30 2048 H 201.649 3.28139 5.10303 0
M  V30 2049 H 200.388 2.30581 4.29748 0
M  V30 2050 H 199.393 4.38902 3.31127 0
M  V30 2051 H 200.618 5.3759 4.14938 0
M  V30 2052 H 198.564 3.58108 5.49632 0
M  V30 2053 H 198.481 5.3085 5.3827 0
M  V30 2054 H 199.749 4.57005 6.3148 0
M  V30 2055 N 203.978 -0.674533 1.42435 0
M  V30 2056 C 204.928 -1.7807 1.4239 0
M  V30 2057 C 205.912 -1.58169 0.295202 0
M  V30 2058 O 207.104 -1.68643 0.537449 0
M  V30 2059 C 204.233 -3.16532 1.32901 0
M  V30 2060 C 203.319 -3.42055 2.50717 0
M  V30 2061 N 203.71 -3.38162 3.76139 0
M  V30 2062 C 202.008 -3.72692 2.44983 0
M  V30 2063 C 202.709 -3.63177 4.54398 0
M  V30 2064 N 201.685 -3.83954 3.84812 0
M  V30 2065 H 205.487 -1.73454 2.37257 0
M  V30 2066 H 203.001 -0.875381 1.36788 0
M  V30 2067 H 204.998 -3.958 1.30951 0
M  V30 2068 H 203.658 -3.22345 0.390363 0
M  V30 2069 H 204.669 -3.18057 4.0873 0
M  V30 2070 H 201.346 -3.85749 1.59699 0
M  V30 2071 H 202.736 -3.66125 5.63384 0
M  V30 2072 N 205.456 -1.28612 -0.910864 0
M  V30 2073 C 206.702 -1.17116 -1.66299 0
M  V30 2074 C 207.057 0.276917 -1.90397 0
M  V30 2075 O 206.35 1.19795 -1.49532 0
M  V30 2076 C 206.544 -1.90624 -3.0232 0
M  V30 2077 C 206.373 -3.42431 -2.91498 0
M  V30 2078 C 205.143 -4.11773 -2.92867 0
M  V30 2079 C 207.341 -4.38124 -2.69355 0
M  V30 2080 N 205.323 -5.50025 -2.72664 0
M  V30 2081 C 206.694 -5.63759 -2.58023 0
M  V30 2082 C 208.749 -4.28016 -2.54375 0
M  V30 2083 C 207.452 -6.80436 -2.33238 0
M  V30 2084 C 209.478 -5.44433 -2.30969 0
M  V30 2085 C 208.84 -6.69034 -2.20394 0
M  V30 2086 H 204.939 -0.483506 -0.61461 0
M  V30 2087 H 207.523 -1.62299 -1.0755 0
M  V30 2088 H 205.694 -1.4787 -3.5915 0
M  V30 2089 H 207.426 -1.71488 -3.66571 0
M  V30 2090 H 204.181 -3.63378 -3.03732 0
M  V30 2091 H 204.605 -6.22705 -2.65646 0
M  V30 2092 H 209.247 -3.32388 -2.613 0
M  V30 2093 H 206.965 -7.7613 -2.25051 0
M  V30 2094 H 210.551 -5.38504 -2.20238 0
M  V30 2095 H 209.431 -7.57595 -2.02531 0
M  V30 2096 N 206.934 1.1197 -1.10907 0
M  V30 2097 C 207.882 2.19927 -0.757303 0
M  V30 2098 C 208.876 1.67564 0.248747 0
M  V30 2099 O 210.082 1.79672 0.108605 0
M  V30 2100 H 206.457 0.716925 -0.226987 0
M  V30 2101 H 208.428 2.46847 -1.67658 0
M  V30 2102 C 207.177 3.47061 -0.210671 0
M  V30 2103 H 206.5 3.87703 -0.976049 0
M  V30 2104 H 207.94 4.24 -0.0026584 0
M  V30 2105 C 206.399 3.19864 1.05777 0
M  V30 2106 O 206.929 3.40049 2.13845 0
M  V30 2107 N 205.135 2.73636 0.978349 0
M  V30 2108 H 204.682 2.5741 0.0988246 0
M  V30 2109 H 204.64 2.55815 1.82773 0
M  V30 2110 N 208.412 0.89855 1.29475 0
M  V30 2111 C 209.66 0.522847 1.9522 0
M  V30 2112 C 209.981 -0.93371 1.71192 0
M  V30 2113 O 209.251 -1.65823 1.04305 0
M  V30 2114 H 207.831 0.190366 0.722336 0
M  V30 2115 H 210.493 1.14459 1.5775 0
M  V30 2116 H 209.589 0.704476 3.04045 0
M  V30 2117 N 209.89 -1.43072 0.660911 0
M  V30 2118 C 211.115 -2.06584 0.183805 0
M  V30 2119 C 211.54 -1.49257 -1.14472 0
M  V30 2120 O 210.898 -0.605528 -1.70889 0
M  V30 2121 C 210.946 -3.60418 0.114434 0
M  V30 2122 O 210.05 -4.01981 -0.921137 0
M  V30 2123 H 209.391 -0.656669 0.0983994 0
M  V30 2124 H 211.921 -1.83447 0.906006 0
M  V30 2125 H 211.931 -4.07946 -0.0663394 0
M  V30 2126 H 210.606 -4.01519 1.08422 0
M  V30 2127 H 209.183 -3.66029 -0.71253 0
M  V30 2128 N 211.368 -0.403325 -1.52352 0
M  V30 2129 C 212.593 0.176499 -2.06648 0
M  V30 2130 C 213.018 1.38577 -1.27193 0
M  V30 2131 O 212.376 1.7879 -0.300637 0
M  V30 2132 C 212.424 0.511061 -3.5696 0
M  V30 2133 O 211.528 1.60294 -3.79973 0
M  V30 2134 H 210.869 0.0167337 -0.663789 0
M  V30 2135 H 213.399 -0.574848 -1.96359 0
M  V30 2136 H 213.409 0.771362 -4.00642 0
M  V30 2137 H 212.084 -0.37296 -4.14224 0
M  V30 2138 H 210.661 1.33526 -3.48174 0
M  V30 2139 N 212.846 1.57033 -0.133567 0
M  V30 2140 C 213.793 2.16074 0.811208 0
M  V30 2141 C 214.763 1.08979 1.2535 0
M  V30 2142 O 215.948 1.36958 1.32843 0
M  V30 2143 C 213.088 2.77595 2.05024 0
M  V30 2144 C 212.201 3.99042 1.65498 0
M  V30 2145 C 211.336 4.48603 2.84479 0
M  V30 2146 C 210.375 5.62547 2.41262 0
M  V30 2147 N 209.512 6.06787 3.53206 0
M  V30 2148 H 214.352 2.96477 0.300906 0
M  V30 2149 H 211.889 1.46462 0.136822 0
M  V30 2150 H 213.847 3.11402 2.77642 0
M  V30 2151 H 212.477 1.99859 2.53488 0
M  V30 2152 H 211.529 3.71302 0.826981 0
M  V30 2153 H 212.841 4.81629 1.29748 0
M  V30 2154 H 211.995 4.84395 3.65303 0
M  V30 2155 H 210.734 3.64995 3.23465 0
M  V30 2156 H 209.739 5.26345 1.58874 0
M  V30 2157 H 210.964 6.47931 2.03377 0
M  V30 2158 H 208.91 5.26117 3.91838 0
M  V30 2159 H 208.827 6.84266 3.21427 0
M  V30 2160 H 210.095 6.4722 4.34427 0
M  V30 2161 N 214.325 -0.140222 1.56975 0
M  V30 2162 C 215.573 -0.850005 1.83356 0
M  V30 2163 C 215.894 -1.81399 0.71551 0
M  V30 2164 O 215.164 -1.94136 -0.262294 0
M  V30 2165 H 213.744 -0.316886 0.676456 0
M  V30 2166 H 216.406 -0.132608 1.94448 0
M  V30 2167 H 215.502 -1.40814 2.78528 0
M  V30 2168 N 215.803 -1.52179 -0.40978 0
M  V30 2169 C 217.049 -1.67408 -1.15525 0
M  V30 2170 C 217.404 -0.398746 -1.88223 0
M  V30 2171 O 216.697 0.60678 -1.81738 0
M  V30 2172 C 216.891 -2.83428 -2.17723 0
M  V30 2173 C 216.72 -4.22121 -1.55061 0
M  V30 2174 C 215.49 -4.87657 -1.3236 0
M  V30 2175 C 217.688 -5.04248 -1.01185 0
M  V30 2176 N 215.67 -6.10387 -0.655834 0
M  V30 2177 C 217.041 -6.18209 -0.470963 0
M  V30 2178 C 219.096 -4.89583 -0.906252 0
M  V30 2179 C 217.799 -7.1911 0.165172 0
M  V30 2180 C 219.825 -5.90718 -0.28397 0
M  V30 2181 C 219.187 -7.03969 0.246243 0
M  V30 2182 H 215.286 -0.666251 -0.409431 0
M  V30 2183 H 217.87 -1.89482 -0.447729 0
M  V30 2184 H 216.041 -2.6297 -2.85834 0
M  V30 2185 H 217.773 -2.87697 -2.84627 0
M  V30 2186 H 214.528 -4.46007 -1.59294 0
M  V30 2187 H 214.952 -6.76153 -0.338596 0
M  V30 2188 H 219.594 -4.02253 -1.302 0
M  V30 2189 H 217.312 -8.06066 0.572986 0
M  V30 2190 H 220.898 -5.81443 -0.203792 0
M  V30 2191 H 219.778 -7.80886 0.720173 0
M  V30 2192 N 217.281 0.66697 -1.42791 0
M  V30 2193 C 218.527 1.42754 -1.44889 0
M  V30 2194 C 218.882 1.92283 -0.0669755 0
M  V30 2195 O 218.175 1.68494 0.912154 0
M  V30 2196 C 218.369 2.6349 -2.4147 0
M  V30 2197 C 218.198 2.25776 -3.88915 0
M  V30 2198 C 216.968 2.1476 -4.57391 0
M  V30 2199 C 219.166 1.86927 -4.79127 0
M  V30 2200 N 217.148 1.70232 -5.89826 0
M  V30 2201 C 218.519 1.53378 -6.00729 0
M  V30 2202 C 220.574 1.73989 -4.66511 0
M  V30 2203 C 219.277 1.08187 -7.11117 0
M  V30 2204 C 221.303 1.30203 -5.76889 0
M  V30 2205 C 220.665 0.975818 -6.97608 0
M  V30 2206 H 216.764 0.518559 -0.585338 0
M  V30 2207 H 219.348 0.768906 -1.78874 0
M  V30 2208 H 217.519 3.27033 -2.09533 0
M  V30 2209 H 219.251 3.30123 -2.34096 0
M  V30 2210 H 216.006 2.3408 -4.11708 0
M  V30 2211 H 216.43 1.50369 -6.6009 0
M  V30 2212 H 221.072 1.97853 -3.7365 0
M  V30 2213 H 218.79 0.830701 -8.03819 0
M  V30 2214 H 222.376 1.20701 -5.69142 0
M  V30 2215 H 221.256 0.642157 -7.81566 0
M  V30 2216 N 218.759 1.29093 0.90403 0
M  V30 2217 C 220.005 1.17996 1.65676 0
M  V30 2218 C 220.36 -0.266816 1.90541 0
M  V30 2219 O 219.653 -1.19 1.50165 0
M  V30 2220 C 219.847 1.92224 3.01305 0
M  V30 2221 C 219.676 3.43972 2.89678 0
M  V30 2222 C 218.446 4.1332 2.90679 0
M  V30 2223 C 220.644 4.39546 2.67028 0
M  V30 2224 N 218.626 5.51463 2.69743 0
M  V30 2225 C 219.997 5.65119 2.5503 0
M  V30 2226 C 222.052 4.29359 2.52101 0
M  V30 2227 C 220.755 6.81663 2.29626 0
M  V30 2228 C 222.781 5.4565 2.28079 0
M  V30 2229 C 222.143 6.70193 2.16843 0
M  V30 2230 H 218.242 0.486759 0.612037 0
M  V30 2231 H 220.826 1.62868 1.06688 0
M  V30 2232 H 218.997 1.49773 3.58361 0
M  V30 2233 H 220.729 1.73429 3.65656 0
M  V30 2234 H 217.484 3.64984 3.01801 0
M  V30 2235 H 217.908 6.24105 2.6234 0
M  V30 2236 H 222.55 3.33769 2.59534 0
M  V30 2237 H 220.268 7.77313 2.20932 0
M  V30 2238 H 223.854 5.39664 2.1738 0
M  V30 2239 H 222.734 7.58659 1.98511 0
M  V30 2240 N 220.237 -1.11381 1.11499 0
M  V30 2241 C 221.184 -2.17439 0.773887 0
M  V30 2242 C 222.154 -1.64132 -0.254899 0
M  V30 2243 O 223.339 -1.90345 -0.13168 0
M  V30 2244 C 220.479 -3.44373 0.223917 0
M  V30 2245 C 219.592 -4.1168 1.30934 0
M  V30 2246 C 218.727 -5.263 0.71984 0
M  V30 2247 C 217.766 -5.85493 1.78507 0
M  V30 2248 N 216.903 -6.91507 1.21502 0
M  V30 2249 H 221.743 -2.45962 1.68246 0
M  V30 2250 H 219.28 -1.20744 0.840191 0
M  V30 2251 H 221.238 -4.17047 -0.112921 0
M  V30 2252 H 219.868 -3.16232 -0.647851 0
M  V30 2253 H 218.92 -3.37073 1.76312 0
M  V30 2254 H 220.232 -4.51729 2.11524 0
M  V30 2255 H 219.386 -6.05785 0.333094 0
M  V30 2256 H 218.125 -4.87559 -0.117377 0
M  V30 2257 H 217.13 -5.04686 2.18111 0
M  V30 2258 H 218.355 -6.26301 2.62533 0
M  V30 2259 H 216.301 -6.54783 0.399455 0
M  V30 2260 H 216.218 -7.30214 1.95763 0
M  V30 2261 H 217.486 -7.74795 0.855181 0
M  V30 2262 N 221.715 -0.905404 -1.28997 0
M  V30 2263 C 222.645 -0.404212 -2.29975 0
M  V30 2264 C 223.626 0.523784 -1.61835 0
M  V30 2265 O 224.811 0.433298 -1.89304 0
M  V30 2266 C 221.941 0.364042 -3.45387 0
M  V30 2267 C 220.895 -0.474048 -4.25367 0
M  V30 2268 C 220.221 0.422045 -5.33032 0
M  V30 2269 C 221.521 -1.72696 -4.92923 0
M  V30 2270 H 223.215 -1.24807 -2.72146 0
M  V30 2271 H 220.761 -0.601585 -1.30832 0
M  V30 2272 H 222.714 0.725447 -4.15109 0
M  V30 2273 H 221.438 1.24174 -3.02074 0
M  V30 2274 H 220.097 -0.81786 -3.57361 0
M  V30 2275 H 219.745 1.29804 -4.85963 0
M  V30 2276 H 219.445 -0.135057 -5.87445 0
M  V30 2277 H 220.969 0.779517 -6.05604 0
M  V30 2278 H 222.383 -1.43495 -5.55051 0
M  V30 2279 H 220.78 -2.22582 -5.57295 0
M  V30 2280 H 221.85 -2.45964 -4.17887 0
M  V30 2281 N 223.193 1.4272 -0.668489 0
M  V30 2282 C 224.604 1.84793 -0.266151 0
M  V30 2283 C 224.955 1.55959 1.19043 0
M  V30 2284 O 224.08 1.01622 1.91055 0
M  V30 2285 C 224.675 3.35436 -0.476271 0
M  V30 2286 C 223.234 3.76182 -0.128113 0
M  V30 2287 C 222.381 2.66344 -0.771777 0
M  V30 2288 H 225.332 1.32656 -0.871098 0
M  V30 2289 H 225.353 3.79515 0.273561 0
M  V30 2290 H 224.865 3.5639 -1.53647 0
M  V30 2291 H 222.966 3.60836 0.928891 0
M  V30 2292 H 223.079 4.75766 -0.564231 0
M  V30 2293 H 221.443 2.53885 -0.203652 0
M  V30 2294 H 222.226 2.90123 -1.83531 0
M  V30 2295 N 224.671 0.411399 1.52136 0
M  V30 2296 C 225.948 -0.222308 1.94333 0
M  V30 2297 C 226.328 -1.6242 1.34844 0
M  V30 2298 O 225.676 -2.22384 0.525145 0
M  V30 2299 C 225.886 -0.226345 3.48265 0
M  V30 2300 C 227.234 -0.444592 4.22266 0
M  V30 2301 O 228.258 -0.305602 3.54887 0
M  V30 2302 O 227.117 -0.718749 5.41753 0
M  V30 2303 H 224.211 -0.143907 0.814383 0
M  V30 2304 H 226.757 0.467506 1.63133 0
M  V30 2305 H 225.529 0.75475 3.83952 0
M  V30 2306 H 225.152 -0.960163 3.85832 0
M  V30 2307 N 226.149 -1.5696 0.141893 0
M  V30 2308 C 227.112 -2.15316 -0.785587 0
M  V30 2309 C 228.112 -1.09366 -1.1788 0
M  V30 2310 O 229.302 -1.35031 -1.10056 0
M  V30 2311 C 226.434 -2.71211 -2.06537 0
M  V30 2312 H 227.627 -2.98608 -0.278041 0
M  V30 2313 H 225.18 -1.5593 -0.107519 0
M  V30 2314 H 225.915 -1.91571 -2.6167 0
M  V30 2315 H 225.7 -3.4872 -1.79268 0
M  V30 2316 H 227.19 -3.16189 -2.72789 0
M  V30 2317 N 227.627 0.131896 -1.57047 0
M  V30 2318 C 228.557 1.16384 -2.02428 0
M  V30 2319 C 229.538 1.43936 -0.90644 0
M  V30 2320 O 230.723 1.54599 -1.17528 0
M  V30 2321 C 227.853 2.49328 -2.4177 0
M  V30 2322 C 226.807 2.36266 -3.56879 0
M  V30 2323 C 226.133 3.74057 -3.8208 0
M  V30 2324 C 227.433 1.834 -4.89042 0
M  V30 2325 H 229.127 0.786433 -2.88887 0
M  V30 2326 H 226.673 0.376855 -1.38981 0
M  V30 2327 H 228.626 3.21759 -2.7212 0
M  V30 2328 H 227.35 2.88934 -1.52266 0
M  V30 2329 H 226.009 1.66286 -3.26718 0
M  V30 2330 H 225.657 4.11125 -2.89803 0
M  V30 2331 H 225.357 3.66174 -4.59554 0
M  V30 2332 H 226.881 4.48012 -4.1487 0
M  V30 2333 H 228.295 2.45636 -5.18011 0
M  V30 2334 H 226.692 1.8637 -5.70426 0
M  V30 2335 H 227.762 0.790662 -4.7841 0
M  V30 2336 N 229.106 1.52395 0.401703 0
M  V30 2337 C 230.053 1.76268 1.48991 0
M  V30 2338 C 231.023 0.605386 1.54675 0
M  V30 2339 O 232.208 0.843742 1.7113 0
M  V30 2340 C 229.348 1.92592 2.86361 0
M  V30 2341 C 228.461 3.20259 2.89928 0
M  V30 2342 C 227.596 3.26972 4.18644 0
M  V30 2343 C 226.635 4.48812 4.16214 0
M  V30 2344 N 225.772 4.52877 5.36514 0
M  V30 2345 H 230.612 2.6914 1.27935 0
M  V30 2346 H 228.149 1.33355 0.620871 0
M  V30 2347 H 230.107 2.0004 3.66115 0
M  V30 2348 H 228.737 1.03093 3.05895 0
M  V30 2349 H 227.789 3.21945 2.02621 0
M  V30 2350 H 229.101 4.10056 2.83999 0
M  V30 2351 H 228.255 3.33533 5.06794 0
M  V30 2352 H 226.994 2.35126 4.27278 0
M  V30 2353 H 225.999 4.4239 3.26453 0
M  V30 2354 H 227.224 5.41961 4.09213 0
M  V30 2355 H 225.17 3.63917 5.45802 0
M  V30 2356 H 225.087 5.36529 5.32609 0
M  V30 2357 H 226.355 4.63676 6.26597 0
M  V30 2358 N 230.584 -0.659388 1.43143 0
M  V30 2359 C 231.861 -1.41627 1.34912 0
M  V30 2360 C 232.241 -2.11099 -0.00607785 0
M  V30 2361 O 231.589 -2.04353 -1.02236 0
M  V30 2362 C 231.799 -2.40604 2.52805 0
M  V30 2363 C 233.147 -3.04789 2.95616 0
M  V30 2364 O 234.171 -2.50932 2.52807 0
M  V30 2365 O 233.03 -4.02421 3.69756 0
M  V30 2366 H 230.124 -0.63246 0.532844 0
M  V30 2367 H 232.67 -0.686814 1.5518 0
M  V30 2368 H 231.442 -1.88174 3.43083 0
M  V30 2369 H 231.065 -3.21009 2.34604 0
M  V30 2370 N 232.062 -1.29571 -0.897171 0
M  V30 2371 C 232.995 -1.0924 -2.00354 0
M  V30 2372 C 233.973 -0.00354011 -1.626 0
M  V30 2373 O 235.157 -0.15473 -1.87864 0
M  V30 2374 C 232.284 -0.66352 -3.32137 0
M  V30 2375 C 231.33 -1.75146 -3.88878 0
M  V30 2376 S 232.163 -3.35124 -4.17674 0
M  V30 2377 C 233.319 -2.9411 -5.52494 0
M  V30 2378 H 233.552 -2.02907 -2.17292 0
M  V30 2379 H 231.085 -1.13746 -1.04408 0
M  V30 2380 H 233.043 -0.422791 -4.08317 0
M  V30 2381 H 231.704 0.253588 -3.13075 0
M  V30 2382 H 230.897 -1.40337 -4.84068 0
M  V30 2383 H 230.499 -1.94584 -3.19395 0
M  V30 2384 H 232.791 -2.41312 -6.33068 0
M  V30 2385 H 233.734 -3.88161 -5.9223 0
M  V30 2386 H 234.142 -2.32332 -5.14473 0
M  V30 2387 N 233.54 1.10788 -1.12088 0
M  V30 2388 C 234.788 1.8231 -0.872205 0
M  V30 2389 C 235.109 1.85419 0.603709 0
M  V30 2390 O 234.379 1.32963 1.43867 0
M  V30 2391 H 232.959 0.675137 -0.319686 0
M  V30 2392 H 235.621 1.34068 -1.41463 0
M  V30 2393 H 234.717 2.85955 -1.25045 0
M  V30 2394 N 235.018 0.912232 1.28515 0
M  V30 2395 C 236.267 0.540504 1.94323 0
M  V30 2396 C 236.58 -0.920044 1.72611 0
M  V30 2397 O 237.786 -1.39986 2.32629 0
M  V30 2398 C 236.242 0.915803 3.48053 0
M  V30 2399 C 235.85 2.39598 3.78546 0
M  V30 2400 C 237.594 0.614588 4.20027 0
M  V30 2401 C 235.501 2.71148 5.25578 0
M  V30 2402 H 234.431 0.198418 0.727424 0
M  V30 2403 H 237.082 1.11094 1.46049 0
M  V30 2404 H 235.464 0.274168 3.9505 0
M  V30 2405 H 236.638 3.08422 3.42364 0
M  V30 2406 H 234.953 2.66749 3.1974 0
M  V30 2407 H 237.55 0.827002 5.28266 0
M  V30 2408 H 237.893 -0.447531 4.13887 0
M  V30 2409 H 238.426 1.21462 3.78803 0
M  V30 2410 H 235.165 3.76207 5.36794 0
M  V30 2411 H 234.685 2.0696 5.62963 0
M  V30 2412 H 236.364 2.58072 5.93302 0
M  V30 2413 N 236.496 -1.42363 0.676048 0
M  V30 2414 C 237.743 -2.01522 0.19883 0
M  V30 2415 C 238.071 -1.53456 -1.19505 0
M  V30 2416 O 237.326 -0.727967 -1.81657 0
M  V30 2417 C 237.625 -3.56929 0.183431 0
M  V30 2418 C 237.291 -4.24431 1.52215 0
M  V30 2419 C 235.953 -4.42585 1.8887 0
M  V30 2420 C 238.305 -4.62459 2.40377 0
M  V30 2421 C 235.633 -4.96039 3.13309 0
M  V30 2422 C 237.985 -5.17294 3.64129 0
M  V30 2423 C 236.649 -5.33661 4.00951 0
M  V30 2424 H 235.919 -0.737419 0.0727571 0
M  V30 2425 H 238.566 -1.70531 0.871281 0
M  V30 2426 H 236.871 -3.87594 -0.572532 0
M  V30 2427 H 238.568 -4.00486 -0.203035 0
M  V30 2428 H 235.158 -4.10661 1.22701 0
M  V30 2429 H 239.342 -4.48105 2.13343 0
M  V30 2430 H 234.598 -5.06896 3.41857 0
M  V30 2431 H 238.772 -5.45704 4.32644 0
M  V30 2432 H 236.399 -5.74845 4.9745 0
M  V30 2433 N 237.974 -0.419461 -1.51915 0
M  V30 2434 C 239.222 0.152637 -2.01523 0
M  V30 2435 C 239.543 1.44762 -1.30649 0
M  V30 2436 O 238.813 1.90997 -0.435535 0
M  V30 2437 H 237.393 0.0593966 -0.744635 0
M  V30 2438 H 240.055 -0.558073 -1.86739 0
M  V30 2439 H 239.151 0.341369 -3.10227 0
M  V30 2440 N 239.452 1.56882 -0.150215 0
M  V30 2441 C 240.362 2.20494 0.801222 0
M  V30 2442 C 241.378 1.19019 1.26927 0
M  V30 2443 O 242.554 1.51607 1.32579 0
M  V30 2444 C 239.619 2.81659 2.02161 0
M  V30 2445 C 238.68 3.9827 1.60249 0
M  V30 2446 C 237.913 4.56508 2.7647 0
M  V30 2447 O 238.136 4.13627 3.92771 0
M  V30 2448 O 237.07 5.46719 2.51757 0
M  V30 2449 H 240.896 3.02315 0.289717 0
M  V30 2450 H 238.481 1.49202 0.0769684 0
M  V30 2451 H 240.363 3.20522 2.73576 0
M  V30 2452 H 239.038 2.02849 2.52258 0
M  V30 2453 H 237.945 3.64117 0.858477 0
M  V30 2454 H 239.278 4.78609 1.14864 0
M  V30 2455 N 240.93 -0.123565 1.57115 0
M  V30 2456 C 241.878 -1.17082 2.00984 0
M  V30 2457 C 242.872 -1.43136 0.906009 0
M  V30 2458 O 244.078 -1.43152 1.09121 0
M  V30 2459 H 240.453 -0.394653 0.64012 0
M  V30 2460 H 242.424 -0.774292 2.88179 0
M  V30 2461 C 241.173 -2.49057 2.42623 0
M  V30 2462 H 240.496 -2.29846 3.27125 0
M  V30 2463 H 241.936 -3.20906 2.7712 0
M  V30 2464 C 240.395 -3.11305 1.28805 0
M  V30 2465 O 240.925 -3.97171 0.60153 0
M  V30 2466 N 239.131 -2.71111 1.04628 0
M  V30 2467 H 238.678 -2.01382 1.60634 0
M  V30 2468 H 238.636 -3.1309 0.286685 0
M  V30 2469 N 242.408 -1.52605 -0.393616 0
M  V30 2470 C 243.341 -1.71798 -1.50202 0
M  V30 2471 C 244.319 -0.565743 -1.52441 0
M  V30 2472 O 245.503 -0.794987 -1.70916 0
M  V30 2473 C 242.63 -1.7714 -2.88685 0
M  V30 2474 C 241.676 -2.98845 -3.04292 0
M  V30 2475 S 242.509 -4.58909 -2.75976 0
M  V30 2476 C 243.665 -4.6706 -4.1666 0
M  V30 2477 H 243.898 -2.65542 -1.33696 0
M  V30 2478 H 241.431 -1.42839 -0.586195 0
M  V30 2479 H 243.389 -1.80903 -3.68489 0
M  V30 2480 H 242.05 -0.844969 -3.02521 0
M  V30 2481 H 241.243 -2.99111 -4.05646 0
M  V30 2482 H 240.845 -2.9305 -2.32374 0
M  V30 2483 H 243.137 -4.45391 -5.10523 0
M  V30 2484 H 244.08 -5.6905 -4.21412 0
M  V30 2485 H 244.488 -3.95944 -4.02354 0
M  V30 2486 N 243.887 0.651787 -1.4349 0
M  V30 2487 C 245.117 1.43728 -1.48411 0
M  V30 2488 C 245.525 1.8893 -0.10103 0
M  V30 2489 O 244.868 1.60182 0.899307 0
M  V30 2490 C 244.93 2.70411 -2.36893 0
M  V30 2491 C 244.594 2.4714 -3.8441 0
M  V30 2492 C 245.591 2.10271 -4.75481 0
M  V30 2493 C 243.276 2.6142 -4.28912 0
M  V30 2494 C 245.27 1.87982 -6.0905 0
M  V30 2495 C 242.957 2.38746 -5.62533 0
M  V30 2496 C 243.955 2.02083 -6.5242 0
M  V30 2497 O 243.643 1.79647 -7.8357 0
M  V30 2498 H 243.375 0.447962 -0.506267 0
M  V30 2499 H 245.929 0.80624 -1.88915 0
M  V30 2500 H 244.159 3.36079 -1.91278 0
M  V30 2501 H 245.848 3.32364 -2.33 0
M  V30 2502 H 246.614 1.98814 -4.42378 0
M  V30 2503 H 242.493 2.88931 -3.59222 0
M  V30 2504 H 246.037 1.5929 -6.7917 0
M  V30 2505 H 241.934 2.49806 -5.95203 0
M  V30 2506 H 242.702 1.9406 -7.95162 0
M  V30 2507 N 245.365 1.30045 0.890287 0
M  V30 2508 C 246.595 1.21296 1.67245 0
M  V30 2509 C 247.003 -0.227471 1.87828 0
M  V30 2510 O 246.346 -1.16296 1.422 0
M  V30 2511 C 246.408 1.86519 3.07329 0
M  V30 2512 C 246.072 3.35837 3.09939 0
M  V30 2513 C 247.069 4.31915 2.89389 0
M  V30 2514 C 244.754 3.77196 3.31706 0
M  V30 2515 C 246.748 5.67325 2.90552 0
M  V30 2516 C 244.435 5.12725 3.32499 0
M  V30 2517 C 245.433 6.076 3.11947 0
M  V30 2518 O 245.121 7.40655 3.12547 0
M  V30 2519 H 244.853 0.4211 0.528821 0
M  V30 2520 H 247.407 1.72111 1.12103 0
M  V30 2521 H 245.637 1.30228 3.64112 0
M  V30 2522 H 247.326 1.71963 3.67673 0
M  V30 2523 H 248.092 4.01294 2.72375 0
M  V30 2524 H 243.971 3.03796 3.4674 0
M  V30 2525 H 247.515 6.41354 2.74429 0
M  V30 2526 H 243.412 5.42988 3.49047 0
M  V30 2527 H 244.18 7.49577 3.28749 0
M  V30 2528 N 246.843 -1.10192 1.12674 0
M  V30 2529 C 247.793 -2.14754 0.765801 0
M  V30 2530 C 248.777 -1.59154 -0.236409 0
M  V30 2531 O 249.969 -1.76951 -0.0415261 0
M  V30 2532 C 247.098 -3.42563 0.224827 0
M  V30 2533 C 246.184 -4.05091 1.25548 0
M  V30 2534 N 246.575 -4.42287 2.4539 0
M  V30 2535 C 244.873 -4.32186 1.10142 0
M  V30 2536 C 245.574 -4.91441 3.11224 0
M  V30 2537 N 244.55 -4.88405 2.38666 0
M  V30 2538 H 248.352 -2.41309 1.67772 0
M  V30 2539 H 245.866 -1.27339 1.00789 0
M  V30 2540 H 247.863 -4.16868 -0.0519578 0
M  V30 2541 H 246.523 -3.17467 -0.681515 0
M  V30 2542 H 247.534 -4.33902 2.82754 0
M  V30 2543 H 244.211 -4.16735 0.252587 0
M  V30 2544 H 245.601 -5.29749 4.13298 0
M  V30 2545 N 248.321 -0.919034 -1.28029 0
M  V30 2546 C 249.568 -0.554934 -1.94748 0
M  V30 2547 C 249.896 0.90231 -1.72304 0
M  V30 2548 O 249.151 1.65767 -1.04018 0
M  V30 2549 C 249.45 -0.816855 -3.4794 0
M  V30 2550 C 249.116 -2.25448 -3.90492 0
M  V30 2551 C 247.778 -2.64752 -4.01821 0
M  V30 2552 C 250.13 -3.18977 -4.12193 0
M  V30 2553 C 247.458 -3.96727 -4.32232 0
M  V30 2554 C 249.81 -4.50523 -4.44086 0
M  V30 2555 C 248.474 -4.89673 -4.53626 0
M  V30 2556 H 247.744 -0.203065 -0.712633 0
M  V30 2557 H 250.391 -1.16136 -1.52265 0
M  V30 2558 H 248.696 -0.127677 -3.91592 0
M  V30 2559 H 250.393 -0.514238 -3.97689 0
M  V30 2560 H 246.983 -1.93952 -3.82205 0
M  V30 2561 H 251.167 -2.89817 -4.02889 0
M  V30 2562 H 246.423 -4.26754 -4.37825 0
M  V30 2563 H 250.597 -5.23005 -4.59825 0
M  V30 2564 H 248.224 -5.91969 -4.76946 0
M  V30 2565 N 249.799 1.42003 -0.683588 0
M  V30 2566 C 250.729 2.33487 -0.024866 0
M  V30 2567 C 251.71 1.51163 0.779975 0
M  V30 2568 O 252.895 1.79739 0.735362 0
M  V30 2569 C 250.025 3.3487 0.920836 0
M  V30 2570 C 248.979 4.27414 0.223958 0
M  V30 2571 C 248.305 5.19074 1.2832 0
M  V30 2572 C 249.605 5.14445 -0.90242 0
M  V30 2573 H 251.299 2.88819 -0.788921 0
M  V30 2574 H 248.845 1.38873 -0.38083 0
M  V30 2575 H 250.798 3.97787 1.39081 0
M  V30 2576 H 249.522 2.77861 1.71642 0
M  V30 2577 H 248.181 3.65904 -0.225864 0
M  V30 2578 H 247.829 4.58387 2.071 0
M  V30 2579 H 247.529 5.81822 0.821995 0
M  V30 2580 H 249.053 5.84867 1.75392 0
M  V30 2581 H 250.467 5.70998 -0.513272 0
M  V30 2582 H 248.864 5.86072 -1.28997 0
M  V30 2583 H 249.934 4.52322 -1.74737 0
M  V30 2584 N 251.277 0.427512 1.51691 0
M  V30 2585 C 252.525 -0.141948 2.01601 0
M  V30 2586 C 252.846 -1.44067 1.31414 0
M  V30 2587 O 252.116 -1.90763 0.445658 0
M  V30 2588 H 250.696 -0.0554468 0.744939 0
M  V30 2589 H 253.358 0.567968 1.86441 0
M  V30 2590 H 252.454 -0.324913 3.10404 0
M  V30 2591 N 252.755 -1.56801 0.158532 0
M  V30 2592 C 254.171 -1.5837 -0.197774 0
M  V30 2593 C 254.371 -1.17334 -1.63814 0
M  V30 2594 O 253.427 -0.878988 -2.36707 0
M  V30 2595 C 254.74 -3.00615 0.0714459 0
M  V30 2596 C 256.288 -3.12999 0.00864533 0
M  V30 2597 C 256.763 -4.57313 0.250685 0
M  V30 2598 N 258.254 -4.62777 0.198014 0
M  V30 2599 C 258.989 -5.72271 0.359642 0
M  V30 2600 N 258.485 -6.90371 0.579625 0
M  V30 2601 N 260.278 -5.61318 0.296438 0
M  V30 2602 H 252.429 -1.81765 1.09887 0
M  V30 2603 H 254.692 -0.841849 0.435884 0
M  V30 2604 H 254.398 -3.35068 1.06874 0
M  V30 2605 H 254.272 -3.71683 -0.642757 0
M  V30 2606 H 256.659 -2.7838 -0.979217 0
M  V30 2607 H 256.74 -2.44393 0.755359 0
M  V30 2608 H 256.384 -4.92639 1.2357 0
M  V30 2609 H 256.314 -5.24061 -0.516489 0
M  V30 2610 H 258.805 -3.77885 0.0331115 0
M  V30 2611 H 259.118 -7.69689 0.69275 0
M  V30 2612 H 257.463 -6.92264 0.616087 0
M  V30 2613 H 260.654 -4.67932 0.125258 0
M  V30 2614 H 260.827 -6.46599 0.425831 0
M  V30 2615 N 254.233 0.115231 -1.57178 0
M  V30 2616 C 255.458 0.840354 -1.89612 0
M  V30 2617 C 255.883 1.72464 -0.750845 0
M  V30 2618 O 255.241 1.78826 0.298478 0
M  V30 2619 C 255.289 1.64654 -3.20814 0
M  V30 2620 O 254.393 2.7538 -3.06985 0
M  V30 2621 H 253.734 0.232158 -0.622092 0
M  V30 2622 H 256.264 0.0964977 -2.04372 0
M  V30 2623 H 256.274 2.03499 -3.53627 0
M  V30 2624 H 254.949 0.997416 -4.03763 0
M  V30 2625 H 253.526 2.3971 -2.85646 0
M  V30 2626 N 255.711 1.52812 0.385517 0
M  V30 2627 C 256.959 1.67694 1.12797 0
M  V30 2628 C 257.28 0.421115 1.90399 0
M  V30 2629 O 256.55 -0.564551 1.87589 0
M  V30 2630 H 255.13 0.618155 0.419396 0
M  V30 2631 H 257.792 1.89938 0.436972 0
M  V30 2632 H 256.888 2.52896 1.82894 0
M  V30 2633 N 257.189 -0.644168 1.43834 0
M  V30 2634 C 258.419 -1.42939 1.49171 0
M  V30 2635 C 258.827 -1.88874 0.111048 0
M  V30 2636 O 258.17 -1.60656 -0.8908 0
M  V30 2637 C 258.232 -2.69151 2.38324 0
M  V30 2638 C 257.896 -2.45097 3.85715 0
M  V30 2639 C 258.893 -2.07747 4.76589 0
M  V30 2640 C 256.578 -2.59141 4.30292 0
M  V30 2641 C 258.572 -1.8475 6.10038 0
M  V30 2642 C 256.259 -2.35759 5.63792 0
M  V30 2643 C 257.257 -1.9862 6.53482 0
M  V30 2644 O 256.945 -1.75489 7.84512 0
M  V30 2645 H 256.677 -0.445271 0.508635 0
M  V30 2646 H 259.231 -0.79621 1.8934 0
M  V30 2647 H 257.461 -3.3506 1.93058 0
M  V30 2648 H 259.15 -3.31123 2.3476 0
M  V30 2649 H 259.916 -1.96465 4.43426 0
M  V30 2650 H 255.795 -2.87022 3.60749 0
M  V30 2651 H 259.339 -1.55686 6.80006 0
M  V30 2652 H 255.236 -2.46646 5.9652 0
M  V30 2653 H 256.004 -1.89841 7.9618 0
M  V30 2654 N 258.668 -1.30515 -0.883378 0
M  V30 2655 C 259.896 -1.22359 -1.66841 0
M  V30 2656 C 260.311 0.213296 -1.87591 0
M  V30 2657 O 259.668 1.14075 -1.42454 0
M  V30 2658 C 259.719 -1.95011 -3.04389 0
M  V30 2659 O 259.44 -3.3309 -2.84575 0
M  V30 2660 C 260.941 -1.93532 -3.98824 0
M  V30 2661 H 258.161 -0.423371 -0.520575 0
M  V30 2662 H 260.705 -1.72167 -1.10357 0
M  V30 2663 H 258.86 -1.48997 -3.57601 0
M  V30 2664 H 259.274 -3.69907 -3.71846 0
M  V30 2665 H 260.748 -2.48902 -4.92699 0
M  V30 2666 H 261.225 -0.914627 -4.29571 0
M  V30 2667 H 261.831 -2.39364 -3.51547 0
M  V30 2668 N 260.146 1.09593 -1.13257 0
M  V30 2669 C 261.392 1.82003 -0.89458 0
M  V30 2670 C 261.725 1.85402 0.577906 0
M  V30 2671 O 261 1.32099 1.42759 0
M  V30 2672 C 261.283 3.28237 -1.48096 0
M  V30 2673 C 261.136 3.3312 -3.02244 0
M  V30 2674 C 262.455 4.24871 -1.14774 0
M  V30 2675 H 259.574 0.66077 -0.326424 0
M  V30 2676 H 262.216 1.28389 -1.40058 0
M  V30 2677 H 260.366 3.74024 -1.05062 0
M  V30 2678 H 262.038 2.95748 -3.54021 0
M  V30 2679 H 260.281 2.72756 -3.37323 0
M  V30 2680 H 260.952 4.3613 -3.38371 0
M  V30 2681 H 263.428 3.87361 -1.51957 0
M  V30 2682 H 262.304 5.25532 -1.58452 0
M  V30 2683 H 262.565 4.42058 -0.0611849 0
M  V30 2684 N 261.624 0.925811 1.2754 0
M  V30 2685 C 262.574 0.394488 2.24561 0
M  V30 2686 C 263.558 -0.500183 1.52928 0
M  V30 2687 O 264.75 -0.337936 1.73744 0
M  V30 2688 C 261.879 -0.353328 3.41477 0
M  V30 2689 C 260.965 0.557752 4.20416 0
M  V30 2690 N 261.356 1.67674 4.77199 0
M  V30 2691 C 259.654 0.360404 4.44541 0
M  V30 2692 C 260.355 2.24324 5.36706 0
M  V30 2693 N 259.331 1.53305 5.21535 0
M  V30 2694 H 263.133 1.2489 2.66045 0
M  V30 2695 H 260.647 0.779864 1.4245 0
M  V30 2696 H 262.644 -0.7509 4.10082 0
M  V30 2697 H 261.304 -1.20469 3.01525 0
M  V30 2698 H 262.315 2.05915 4.75204 0
M  V30 2699 H 258.992 -0.450454 4.15063 0
M  V30 2700 H 260.382 3.18521 5.91603 0
M  V30 2701 N 263.102 -1.41638 0.69111 0
M  V30 2702 C 264.348 -2.01598 0.220519 0
M  V30 2703 C 264.681 -1.54594 -1.17535 0
M  V30 2704 O 263.956 -0.755177 -1.79241 0
M  V30 2705 C 264.239 -3.59062 0.273243 0
M  V30 2706 C 264.092 -4.16203 1.70573 0
M  V30 2707 C 265.411 -4.38546 -0.369457 0
M  V30 2708 H 262.53 -0.732468 0.0816045 0
M  V30 2709 H 265.172 -1.68445 0.878986 0
M  V30 2710 H 263.322 -3.87435 -0.287411 0
M  V30 2711 H 264.994 -3.98722 2.31989 0
M  V30 2712 H 263.237 -3.71414 2.2413 0
M  V30 2713 H 263.908 -5.25358 1.69419 0
M  V30 2714 H 266.384 -4.1596 0.107977 0
M  V30 2715 H 265.26 -5.48069 -0.302002 0
M  V30 2716 H 265.521 -4.17662 -1.44951 0
M  V30 2717 N 264.58 -0.43555 -1.51462 0
M  V30 2718 C 265.512 0.41257 -2.25456 0
M  V30 2719 C 266.525 0.987822 -1.29406 0
M  V30 2720 O 267.714 0.882266 -1.55172 0
M  V30 2721 C 264.814 1.58894 -2.99342 0
M  V30 2722 C 263.987 1.13288 -4.22474 0
M  V30 2723 C 263.046 2.17917 -4.78956 0
M  V30 2724 O 262.072 1.77425 -5.40841 0
M  V30 2725 N 263.274 3.50382 -4.62832 0
M  V30 2726 H 266.039 -0.221603 -2.9888 0
M  V30 2727 H 263.6 -0.264342 -1.59727 0
M  V30 2728 H 265.592 2.28508 -3.34015 0
M  V30 2729 H 264.162 2.12849 -2.28941 0
M  V30 2730 H 263.382 0.263881 -3.93316 0
M  V30 2731 H 264.67 0.805542 -5.02383 0
M  V30 2732 H 264.068 3.86013 -4.13534 0
M  V30 2733 H 262.625 4.15895 -5.01871 0
M  V30 2734 N 266.058 1.56714 -0.166846 0
M  V30 2735 C 267.298 1.98641 0.481763 0
M  V30 2736 C 267.662 1.05038 1.6072 0
M  V30 2737 O 268.863 1.36087 2.31805 0
M  V30 2738 C 267.134 3.44362 0.956517 0
M  V30 2739 S 268.693 4.08317 1.60694 0
M  V30 2740 H 265.511 0.693873 0.155116 0
M  V30 2741 H 268.113 1.93719 -0.263251 0
M  V30 2742 H 266.817 4.10204 0.126936 0
M  V30 2743 H 266.348 3.53041 1.73568 0
M  V30 2744 H 268.363 4.02999 2.89494 0
M  V30 2745 N 267.536 -0.106894 1.57237 0
M  V30 2746 C 268.484 -1.14944 2.02215 0
M  V30 2747 C 269.478 -1.42167 0.92114 0
M  V30 2748 O 270.684 -1.41987 1.10634 0
M  V30 2749 H 267.059 -0.387841 0.64427 0
M  V30 2750 H 269.03 -0.743683 2.88984 0
M  V30 2751 C 267.779 -2.4647 2.4525 0
M  V30 2752 H 267.102 -2.26363 3.29545 0
M  V30 2753 H 268.542 -3.17948 2.80508 0
M  V30 2754 C 267.001 -3.09921 1.321 0
M  V30 2755 O 267.531 -3.9651 0.643622 0
M  V30 2756 N 265.737 -2.69986 1.07497 0
M  V30 2757 H 265.284 -1.99667 1.62761 0
M  V30 2758 H 265.242 -3.12769 0.319876 0
M  V30 2759 N 269.014 -1.53014 -0.377408 0
M  V30 2760 C 269.977 -1.77957 -1.44444 0
M  V30 2761 C 270.977 -0.649763 -1.47087 0
M  V30 2762 O 272.167 -0.917897 -1.48055 0
M  V30 2763 C 269.299 -1.89089 -2.83651 0
M  V30 2764 H 270.492 -2.73243 -1.23606 0
M  V30 2765 H 268.045 -1.43912 -0.609844 0
M  V30 2766 H 268.78 -0.958293 -3.09818 0
M  V30 2767 H 268.565 -2.71254 -2.83132 0
M  V30 2768 H 270.055 -2.1002 -3.60945 0
M  V30 2769 N 270.492 0.636531 -1.44174 0
M  V30 2770 C 271.717 1.42847 -1.50364 0
M  V30 2771 C 272.142 1.87665 -0.127867 0
M  V30 2772 O 271.5 1.58408 0.88185 0
M  V30 2773 C 271.548 2.62854 -2.4686 0
M  V30 2774 O 270.652 3.62501 -1.9664 0
M  V30 2775 H 269.993 0.427642 -0.507955 0
M  V30 2776 H 272.523 0.777422 -1.89255 0
M  V30 2777 H 272.533 3.10465 -2.64718 0
M  V30 2778 H 271.208 2.29578 -3.46795 0
M  V30 2779 H 269.785 3.21735 -1.88523 0
M  V30 2780 N 271.97 1.30982 0.876444 0
M  V30 2781 C 272.917 1.18085 1.98304 0
M  V30 2782 C 273.887 0.0682263 1.6596 0
M  V30 2783 O 275.072 0.239937 1.89285 0
M  V30 2784 C 272.212 0.887475 3.33493 0
M  V30 2785 C 271.325 2.08281 3.78475 0
M  V30 2786 C 270.46 1.72678 5.0235 0
M  V30 2787 C 269.499 2.88657 5.39762 0
M  V30 2788 N 268.636 2.53292 6.54819 0
M  V30 2789 H 273.476 2.1275 2.08666 0
M  V30 2790 H 271.013 1.05839 1.02159 0
M  V30 2791 H 272.971 0.697961 4.1132 0
M  V30 2792 H 271.601 -0.022315 3.22792 0
M  V30 2793 H 270.653 2.3833 2.96484 0
M  V30 2794 H 271.965 2.95108 4.02135 0
M  V30 2795 H 271.119 1.50151 5.87826 0
M  V30 2796 H 269.858 0.830327 4.8058 0
M  V30 2797 H 268.863 3.1184 4.52809 0
M  V30 2798 H 270.088 3.79002 5.63502 0
M  V30 2799 H 268.034 1.66163 6.34607 0
M  V30 2800 H 267.951 3.3365 6.7839 0
M  V30 2801 H 269.219 2.34143 7.43503 0
M  V30 2802 N 273.449 -1.08991 1.13837 0
M  V30 2803 C 274.696 -1.81258 0.902882 0
M  V30 2804 C 275.024 -1.85936 -0.570803 0
M  V30 2805 O 274.279 -1.3267 -1.43865 0
M  V30 2806 C 274.578 -3.27042 1.44147 0
M  V30 2807 C 274.244 -3.4249 2.93276 0
M  V30 2808 C 272.906 -3.46414 3.33992 0
M  V30 2809 C 275.258 -3.4666 3.892 0
M  V30 2810 C 272.586 -3.52091 4.69307 0
M  V30 2811 C 274.938 -3.53872 5.24364 0
M  V30 2812 C 273.602 -3.56066 5.646 0
M  V30 2813 H 272.872 -0.663268 0.330388 0
M  V30 2814 H 275.519 -1.28368 1.42105 0
M  V30 2815 H 273.824 -3.82599 0.844097 0
M  V30 2816 H 275.521 -3.81499 1.23528 0
M  V30 2817 H 272.111 -3.40124 2.60794 0
M  V30 2818 H 276.295 -3.42865 3.58828 0
M  V30 2819 H 271.551 -3.52079 4.9985 0
M  V30 2820 H 275.725 -3.56043 5.98503 0
M  V30 2821 H 273.352 -3.60218 6.69438 0
M  V30 2822 N 274.927 -0.932562 -1.27047 0
M  V30 2823 C 275.877 -0.406392 -2.24349 0
M  V30 2824 C 276.861 0.492066 -1.53191 0
M  V30 2825 O 278.053 0.328717 -1.73921 0
M  V30 2826 C 275.182 0.335214 -3.41659 0
M  V30 2827 C 274.268 -0.58004 -4.20115 0
M  V30 2828 N 274.659 -1.70203 -4.76303 0
M  V30 2829 C 272.957 -0.383974 -4.44344 0
M  V30 2830 C 273.658 -2.27167 -5.35509 0
M  V30 2831 N 272.634 -1.56068 -5.20715 0
M  V30 2832 H 276.436 -1.26299 -2.65378 0
M  V30 2833 H 273.95 -0.787408 -1.42034 0
M  V30 2834 H 275.947 0.729142 -4.10474 0
M  V30 2835 H 274.607 1.18868 -3.0216 0
M  V30 2836 H 275.618 -2.08433 -4.74106 0
M  V30 2837 H 272.295 0.428436 -4.15296 0
M  V30 2838 H 273.685 -3.21654 -5.89905 0
M  V30 2839 N 276.405 1.4127 -0.698611 0
M  V30 2840 C 277.337 2.292 0.00399731 0
M  V30 2841 C 278.35 1.44944 0.741279 0
M  V30 2842 O 279.539 1.68416 0.591477 0
M  V30 2843 C 276.639 3.22875 1.02979 0
M  V30 2844 C 275.812 4.35904 0.36151 0
M  V30 2845 C 274.871 5.10134 1.29033 0
M  V30 2846 O 273.897 5.63809 0.781562 0
M  V30 2847 N 275.099 5.17885 2.6225 0
M  V30 2848 H 277.864 2.9014 -0.750921 0
M  V30 2849 H 275.425 1.52455 -0.544882 0
M  V30 2850 H 277.417 3.69404 1.65296 0
M  V30 2851 H 275.987 2.63221 1.68622 0
M  V30 2852 H 275.207 3.91719 -0.441584 0
M  V30 2853 H 276.495 5.08696 -0.103055 0
M  V30 2854 H 275.893 4.7573 3.061 0
M  V30 2855 H 274.45 5.6798 3.19754 0
M  V30 2856 N 277.883 0.443576 1.51229 0
M  V30 2857 C 279.131 -0.120557 2.0174 0
M  V30 2858 C 279.452 -1.42665 1.32935 0
M  V30 2859 O 278.722 -1.9028 0.465866 0
M  V30 2860 H 277.302 -0.0475426 0.745486 0
M  V30 2861 H 279.964 0.587711 1.85828 0
M  V30 2862 H 279.06 -0.291972 3.10731 0
M  V30 2863 N 279.361 -1.56624 0.175154 0
M  V30 2864 C 280.589 -2.01374 -0.474971 0
M  V30 2865 C 281.004 -1.05537 -1.56548 0
M  V30 2866 O 280.361 -0.0568668 -1.82411 0
M  V30 2867 C 280.412 -3.45923 -1.04975 0
M  V30 2868 O 280.133 -4.381 -0.00276605 0
M  V30 2869 C 281.634 -4.06093 -1.77773 0
M  V30 2870 H 278.854 -0.659962 -0.121206 0
M  V30 2871 H 281.398 -2.02601 0.27801 0
M  V30 2872 H 279.553 -3.45458 -1.75321 0
M  V30 2873 H 279.967 -5.22753 -0.427681 0
M  V30 2874 H 281.441 -5.09147 -2.13245 0
M  V30 2875 H 281.918 -3.48405 -2.67414 0
M  V30 2876 H 282.524 -4.10272 -1.12059 0
M  V30 2877 N 280.839 0.0985539 -1.57292 0
M  V30 2878 C 281.769 1.12064 -2.04851 0
M  V30 2879 C 282.75 1.41981 -0.936767 0
M  V30 2880 O 283.935 1.52071 -1.20781 0
M  V30 2881 C 281.065 2.44144 -2.47004 0
M  V30 2882 C 280.019 2.28643 -3.6181 0
M  V30 2883 C 279.345 3.65869 -3.89929 0
M  V30 2884 C 280.645 1.72986 -4.92822 0
M  V30 2885 H 282.339 0.724979 -2.9049 0
M  V30 2886 H 279.885 0.34729 -1.39749 0
M  V30 2887 H 281.838 3.15914 -2.78884 0
M  V30 2888 H 280.562 2.85639 -1.5836 0
M  V30 2889 H 279.221 1.59318 -3.30172 0
M  V30 2890 H 278.869 4.04885 -2.98458 0
M  V30 2891 H 278.569 3.56344 -4.67218 0
M  V30 2892 H 280.093 4.39112 -4.2428 0
M  V30 2893 H 281.507 2.34593 -5.23105 0
M  V30 2894 H 279.904 1.74229 -5.74251 0
M  V30 2895 H 280.974 0.689007 -4.7998 0
M  V30 2896 N 282.317 1.53212 0.369288 0
M  V30 2897 C 283.247 1.82365 1.45826 0
M  V30 2898 C 284.228 0.676907 1.56051 0
M  V30 2899 O 285.413 0.926401 1.70679 0
M  V30 2900 C 282.543 2.01023 2.83208 0
M  V30 2901 C 281.497 3.1678 2.8781 0
M  V30 2902 C 280.823 3.20724 4.27832 0
M  V30 2903 C 282.123 4.55447 2.55667 0
M  V30 2904 H 283.817 2.73559 1.21678 0
M  V30 2905 H 281.363 1.3163 0.583911 0
M  V30 2906 H 283.316 2.20001 3.59413 0
M  V30 2907 H 282.04 1.06536 3.08736 0
M  V30 2908 H 280.699 2.97616 2.14056 0
M  V30 2909 H 280.347 2.23882 4.50429 0
M  V30 2910 H 280.047 3.98496 4.31827 0
M  V30 2911 H 281.571 3.41881 5.05915 0
M  V30 2912 H 282.985 4.74611 3.21586 0
M  V30 2913 H 281.382 5.35432 2.70984 0
M  V30 2914 H 282.452 4.60812 1.5093 0
M  V30 2915 N 283.795 -0.628877 1.44509 0
M  V30 2916 C 285.041 -1.39045 1.47629 0
M  V30 2917 C 285.374 -1.93892 0.109343 0
M  V30 2918 O 284.649 -1.7379 -0.87334 0
M  V30 2919 C 284.932 -2.55408 2.53848 0
M  V30 2920 C 284.785 -2.05896 3.99909 0
M  V30 2921 C 286.104 -3.5759 2.56549 0
M  V30 2922 H 283.223 -0.504232 0.537512 0
M  V30 2923 H 285.865 -0.710854 1.76201 0
M  V30 2924 H 284.015 -3.13384 2.29615 0
M  V30 2925 H 285.687 -1.52734 4.35282 0
M  V30 2926 H 283.93 -1.37061 4.11578 0
M  V30 2927 H 284.601 -2.89681 4.69882 0
M  V30 2928 H 287.077 -3.09419 2.78207 0
M  V30 2929 H 285.953 -4.36527 3.32769 0
M  V30 2930 H 286.214 -4.11808 1.60832 0
M  V30 2931 N 285.273 -1.31445 -0.869486 0
M  V30 2932 C 286.236 -1.19094 -1.9583 0
M  V30 2933 C 287.236 -0.117906 -1.60367 0
M  V30 2934 O 288.426 -0.367208 -1.70286 0
M  V30 2935 C 285.558 -0.828165 -3.30688 0
M  V30 2936 H 286.751 -2.15842 -2.08212 0
M  V30 2937 H 284.304 -1.15063 -1.05784 0
M  V30 2938 H 285.039 0.138142 -3.24006 0
M  V30 2939 H 284.824 -1.6038 -3.578 0
M  V30 2940 H 286.314 -0.765658 -4.10521 0
M  V30 2941 N 286.751 1.08385 -1.14413 0
M  V30 2942 C 287.684 2.14642 -0.774871 0
M  V30 2943 C 288.662 1.60761 0.243876 0
M  V30 2944 O 289.846 1.88031 0.132883 0
M  V30 2945 C 286.973 3.38366 -0.150491 0
M  V30 2946 C 286.019 4.10997 -1.13945 0
M  V30 2947 S 286.852 4.63797 -2.67679 0
M  V30 2948 C 288.008 5.90808 -2.06631 0
M  V30 2949 H 288.241 2.45633 -1.67487 0
M  V30 2950 H 285.774 1.20498 -0.96538 0
M  V30 2951 H 287.732 4.09996 0.203334 0
M  V30 2952 H 286.393 3.05572 0.72694 0
M  V30 2953 H 285.586 4.99783 -0.65059 0
M  V30 2954 H 285.188 3.4528 -1.43727 0
M  V30 2955 H 287.48 6.62411 -1.4219 0
M  V30 2956 H 288.423 6.4439 -2.93542 0
M  V30 2957 H 288.831 5.4383 -1.51357 0
M  V30 2958 N 288.23 0.939286 1.26551 0
M  V30 2959 C 289.479 0.581601 1.93133 0
M  V30 2960 C 289.792 -0.883224 1.74524 0
M  V30 2961 O 290.998 -1.3502 2.35546 0
M  V30 2962 C 289.454 0.989425 3.46032 0
M  V30 2963 C 289.062 2.47573 3.73379 0
M  V30 2964 C 290.806 0.703544 4.18629 0
M  V30 2965 C 288.713 2.82235 5.19709 0
M  V30 2966 H 287.643 0.213803 0.723052 0
M  V30 2967 H 290.294 1.14167 1.4366 0
M  V30 2968 H 288.676 0.357902 3.94379 0
M  V30 2969 H 289.85 3.15614 3.35744 0
M  V30 2970 H 288.165 2.73471 3.1401 0
M  V30 2971 H 290.762 0.938869 5.26393 0
M  V30 2972 H 291.105 -0.359639 4.14744 0
M  V30 2973 H 291.638 1.2947 3.76141 0
M  V30 2974 H 288.377 3.87509 5.28694 0
M  V30 2975 H 287.897 2.18854 5.58447 0
M  V30 2976 H 289.576 2.70599 5.87695 0
M  V30 2977 N 289.708 -1.40897 0.706093 0
M  V30 2978 C 291.119 -1.84023 0.315052 0
M  V30 2979 C 291.47 -1.5906 -1.14866 0
M  V30 2980 O 290.595 -1.06651 -1.88293 0
M  V30 2981 C 291.19 -3.34055 0.565038 0
M  V30 2982 C 289.749 -3.7571 0.227806 0
M  V30 2983 C 288.896 -2.64204 0.842122 0
M  V30 2984 H 291.847 -1.303 0.905963 0
M  V30 2985 H 291.868 -3.80107 -0.172843 0
M  V30 2986 H 291.38 -3.52192 1.63042 0
M  V30 2987 H 289.481 -3.63172 -0.832895 0
M  V30 2988 H 289.594 -4.74103 0.690174 0
M  V30 2989 H 287.958 -2.53255 0.270893 0
M  V30 2990 H 288.741 -2.85155 1.91158 0
M  V30 2991 N 291.186 -0.45159 -1.50991 0
M  V30 2992 C 292.096 0.358431 -2.31846 0
M  V30 2993 C 293.112 1.01438 -1.41373 0
M  V30 2994 O 294.288 1.00663 -1.74439 0
M  V30 2995 C 291.353 1.43704 -3.15515 0
M  V30 2996 C 290.414 0.799742 -4.21785 0
M  V30 2997 C 289.647 1.82696 -5.01456 0
M  V30 2998 O 289.87 3.05105 -4.81941 0
M  V30 2999 O 288.804 1.40958 -5.85162 0
M  V30 3000 H 292.63 -0.302032 -3.02194 0
M  V30 3001 H 290.215 -0.213825 -1.47862 0
M  V30 3002 H 292.097 2.06227 -3.67489 0
M  V30 3003 H 290.772 2.08133 -2.47916 0
M  V30 3004 H 289.679 0.136084 -3.73852 0
M  V30 3005 H 291.012 0.198718 -4.91799 0
M  V30 3006 N 292.664 1.56529 -0.183458 0
M  V30 3007 C 293.614 2.1515 0.754605 0
M  V30 3008 C 294.598 1.08904 1.18443 0
M  V30 3009 O 295.79 1.34997 1.14476 0
M  V30 3010 C 292.919 2.80531 1.97881 0
M  V30 3011 C 292.005 3.93952 1.57043 0
M  V30 3012 N 292.396 4.98221 0.87231 0
M  V30 3013 C 290.694 4.05338 1.86057 0
M  V30 3014 C 291.395 5.77836 0.669377 0
M  V30 3015 N 290.371 5.29858 1.21454 0
M  V30 3016 H 294.173 2.93132 0.212387 0
M  V30 3017 H 291.687 1.62391 0.0167725 0
M  V30 3018 H 293.684 3.20914 2.6612 0
M  V30 3019 H 292.344 2.04035 2.52586 0
M  V30 3020 H 293.355 5.15191 0.529033 0
M  V30 3021 H 290.032 3.39957 2.42354 0
M  V30 3022 H 291.422 6.71799 0.116422 0
M  V30 3023 N 294.142 -0.090211 1.57342 0
M  V30 3024 C 295.074 -1.13541 1.99101 0
M  V30 3025 C 296.087 -1.3604 0.894258 0
M  V30 3026 O 297.276 -1.34606 1.17233 0
M  V30 3027 C 294.376 -2.49001 2.29895 0
M  V30 3028 C 293.549 -2.46712 3.61182 0
M  V30 3029 C 292.608 -3.64136 3.79857 0
M  V30 3030 O 291.634 -3.46405 4.51655 0
M  V30 3031 N 292.836 -4.83802 3.20806 0
M  V30 3032 H 295.601 -0.779942 2.89373 0
M  V30 3033 H 293.162 -0.279125 1.59476 0
M  V30 3034 H 295.154 -3.26166 2.39578 0
M  V30 3035 H 293.724 -2.76619 1.45605 0
M  V30 3036 H 292.944 -1.55058 3.62423 0
M  V30 3037 H 294.232 -2.42265 4.4742 0
M  V30 3038 H 293.63 -5.01112 2.62494 0
M  V30 3039 H 292.187 -5.58543 3.35966 0
M  V30 3040 N 295.62 -1.53406 -0.361157 0
M  V30 3041 C 296.55 -1.83136 -1.44857 0
M  V30 3042 C 297.531 -0.685174 -1.5569 0
M  V30 3043 O 298.716 -0.93544 -1.70186 0
M  V30 3044 C 295.846 -2.02522 -2.82138 0
M  V30 3045 C 294.8 -3.18302 -2.86126 0
M  V30 3046 C 294.126 -3.22989 -4.26125 0
M  V30 3047 C 295.426 -4.56796 -2.53248 0
M  V30 3048 H 297.12 -2.74201 -1.20226 0
M  V30 3049 H 294.666 -1.31938 -0.576922 0
M  V30 3050 H 296.619 -2.21904 -3.58241 0
M  V30 3051 H 295.343 -1.08172 -3.08166 0
M  V30 3052 H 294.002 -2.98747 -2.12475 0
M  V30 3053 H 293.65 -2.26267 -4.49235 0
M  V30 3054 H 293.35 -4.00781 -4.29708 0
M  V30 3055 H 294.874 -3.44559 -5.04094 0
M  V30 3056 H 296.288 -4.7631 -3.19064 0
M  V30 3057 H 294.685 -5.36862 -2.68141 0
M  V30 3058 H 295.755 -4.61606 -1.48484 0
M  V30 3059 N 297.098 0.621204 -1.44841 0
M  V30 3060 C 298.061 1.71459 -1.521 0
M  V30 3061 C 299.061 1.55696 -0.401933 0
M  V30 3062 O 300.251 1.61011 -0.664925 0
M  V30 3063 C 297.383 3.10624 -1.40447 0
M  V30 3064 H 298.576 1.66394 -2.49506 0
M  V30 3065 H 296.129 0.835745 -1.3208 0
M  V30 3066 H 296.864 3.21277 -0.441737 0
M  V30 3067 H 296.649 3.23473 -2.21602 0
M  V30 3068 H 298.139 3.90293 -1.4853 0
M  V30 3069 N 298.576 1.31904 0.862503 0
M  V30 3070 C 299.801 1.25135 1.65397 0
M  V30 3071 C 300.226 -0.179 1.87246 0
M  V30 3072 O 299.584 -1.1277 1.4196 0
M  V30 3073 C 299.632 2.00832 2.99498 0
M  V30 3074 O 298.736 1.35075 3.89652 0
M  V30 3075 H 298.077 0.431655 0.504549 0
M  V30 3076 H 300.607 1.74094 1.07483 0
M  V30 3077 H 300.617 2.10709 3.49379 0
M  V30 3078 H 299.292 3.04847 2.82916 0
M  V30 3079 H 297.869 1.33696 3.48109 0
M  V30 3080 N 300.054 -1.07777 1.14986 0
M  V30 3081 C 301.017 -2.13041 0.845358 0
M  V30 3082 C 302.017 -1.60071 -0.152931 0
M  V30 3083 O 303.207 -1.74033 0.0761879 0
M  V30 3084 C 300.339 -3.39896 0.261383 0
M  V30 3085 H 301.532 -2.41485 1.77834 0
M  V30 3086 H 299.085 -1.23595 0.956757 0
M  V30 3087 H 299.82 -3.17091 -0.68 0
M  V30 3088 H 299.605 -3.79642 0.980514 0
M  V30 3089 H 301.095 -4.17548 0.0657687 0
M  V30 3090 N 301.532 -0.945985 -1.26051 0
M  V30 3091 C 302.479 -0.45809 -2.26208 0
M  V30 3092 C 303.449 0.484816 -1.58867 0
M  V30 3093 O 304.634 0.399969 -1.86561 0
M  V30 3094 C 301.774 0.266131 -3.44072 0
M  V30 3095 C 300.887 -0.713005 -4.26075 0
M  V30 3096 C 300.022 0.0329013 -5.3119 0
M  V30 3097 C 299.061 -0.93774 -6.04874 0
M  V30 3098 N 298.198 -0.223274 -7.01745 0
M  V30 3099 H 303.038 -1.3171 -2.67313 0
M  V30 3100 H 300.575 -0.66069 -1.31428 0
M  V30 3101 H 302.533 0.702514 -4.11243 0
M  V30 3102 H 301.163 1.08925 -3.03867 0
M  V30 3103 H 300.215 -1.26789 -3.58648 0
M  V30 3104 H 301.527 -1.45406 -4.77136 0
M  V30 3105 H 300.681 0.528335 -6.04395 0
M  V30 3106 H 299.42 0.806801 -4.8098 0
M  V30 3107 H 298.425 -1.44425 -5.30492 0
M  V30 3108 H 299.65 -1.71172 -6.57173 0
M  V30 3109 H 297.596 0.532046 -6.53839 0
M  V30 3110 H 297.513 -0.90357 -7.50581 0
M  V30 3111 H 298.781 0.250907 -7.79096 0
M  V30 3112 N 303.011 1.40521 -0.713556 0
M  V30 3113 C 303.961 2.27971 -0.036165 0
M  V30 3114 C 304.945 1.43151 0.734623 0
M  V30 3115 O 306.137 1.66261 0.607158 0
M  V30 3116 C 303.266 3.31661 0.886331 0
M  V30 3117 C 302.352 4.23955 0.110836 0
M  V30 3118 N 302.743 4.97641 -0.904847 0
M  V30 3119 C 301.041 4.44674 0.343692 0
M  V30 3120 C 301.742 5.65322 -1.37064 0
M  V30 3121 N 300.718 5.39162 -0.693168 0
M  V30 3122 H 304.52 2.82384 -0.814645 0
M  V30 3123 H 302.034 1.52948 -0.545963 0
M  V30 3124 H 304.031 3.93154 1.38692 0
M  V30 3125 H 302.691 2.78808 1.66421 0
M  V30 3126 H 303.702 5.01689 -1.28563 0
M  V30 3127 H 300.379 4.02801 1.09805 0
M  V30 3128 H 301.769 6.34359 -2.21447 0
M  V30 3129 N 304.489 0.459591 1.5075 0
M  V30 3130 C 305.737 -0.0991532 2.01857 0
M  V30 3131 C 306.058 -1.41247 1.34441 0
M  V30 3132 O 305.328 -1.89775 0.486022 0
M  V30 3133 H 303.908 -0.039633 0.745948 0
M  V30 3134 H 306.57 0.607387 1.85194 0
M  V30 3135 H 305.666 -0.258998 3.11023 0
M  V30 3136 N 305.967 -1.56429 0.191757 0
M  V30 3137 C 307.192 -2.02309 -0.456706 0
M  V30 3138 C 307.617 -1.07103 -1.5463 0
M  V30 3139 O 306.975 -0.0539677 -1.8122 0
M  V30 3140 C 307.023 -3.46654 -0.993159 0
M  V30 3141 O 306.127 -3.54559 -2.10622 0
M  V30 3142 H 305.468 -0.655303 -0.107114 0
M  V30 3143 H 307.998 -2.02364 0.301653 0
M  V30 3144 H 308.008 -3.86377 -1.31061 0
M  V30 3145 H 306.683 -4.1544 -0.195504 0
M  V30 3146 H 305.26 -3.26708 -1.79767 0
M  V30 3147 N 307.445 0.0818655 -1.57387 0
M  V30 3148 C 308.691 0.784074 -1.8703 0
M  V30 3149 C 309.024 1.77729 -0.782689 0
M  V30 3150 O 308.299 1.93384 0.208051 0
M  V30 3151 C 308.582 1.50105 -3.27323 0
M  V30 3152 C 308.435 0.524925 -4.46727 0
M  V30 3153 C 309.754 2.44843 -3.65705 0
M  V30 3154 H 306.873 0.283582 -0.680257 0
M  V30 3155 H 309.515 0.0474352 -1.89941 0
M  V30 3156 H 307.665 2.12897 -3.24972 0
M  V30 3157 H 309.337 -0.0970111 -4.61198 0
M  V30 3158 H 307.58 -0.160606 -4.33503 0
M  V30 3159 H 308.251 1.064 -5.41648 0
M  V30 3160 H 310.727 1.92135 -3.69085 0
M  V30 3161 H 309.603 2.92018 -4.64776 0
M  V30 3162 H 309.864 3.29197 -2.95096 0
M  V30 3163 N 308.923 1.53595 0.353017 0
M  V30 3164 C 310.151 1.74311 1.1146 0
M  V30 3165 C 310.566 0.477854 1.82653 0
M  V30 3166 O 309.923 -0.549977 1.74016 0
M  V30 3167 C 309.974 2.91694 2.13534 0
M  V30 3168 O 309.695 4.13325 1.45238 0
M  V30 3169 C 311.196 3.24384 3.02142 0
M  V30 3170 H 308.416 0.582669 0.332773 0
M  V30 3171 H 310.96 2.00386 0.408107 0
M  V30 3172 H 309.115 2.67977 2.79763 0
M  V30 3173 H 309.529 4.79148 2.13349 0
M  V30 3174 H 311.003 4.09893 3.69718 0
M  V30 3175 H 311.48 2.40282 3.67643 0
M  V30 3176 H 312.086 3.50073 2.41514 0
M  V30 3177 N 310.401 -0.613514 1.45168 0
M  V30 3178 C 311.364 -1.7065 1.53007 0
M  V30 3179 C 312.364 -1.5548 0.410184 0
M  V30 3180 O 313.554 -1.60656 0.673455 0
M  V30 3181 C 310.686 -3.09875 1.42093 0
M  V30 3182 H 311.879 -1.65068 2.50385 0
M  V30 3183 H 309.432 -0.828728 1.32521 0
M  V30 3184 H 310.167 -3.21039 0.458769 0
M  V30 3185 H 309.952 -3.22293 2.23315 0
M  V30 3186 H 311.442 -3.895 1.50598 0
M  V30 3187 N 311.879 -1.3236 -0.855495 0
M  V30 3188 C 313.127 -1.22629 -1.60644 0
M  V30 3189 C 313.448 0.212136 -1.93843 0
M  V30 3190 O 312.718 1.13666 -1.59552 0
M  V30 3191 H 311.298 -0.450882 -0.595579 0
M  V30 3192 H 313.96 -1.65871 -1.02337 0
M  V30 3193 H 313.056 -1.80832 -2.54374 0
M  V30 3194 N 313.357 1.07166 -1.15556 0
M  V30 3195 C 314.587 1.83248 -0.954133 0
M  V30 3196 C 314.995 1.82449 0.500911 0
M  V30 3197 O 314.338 1.23575 1.35923 0
M  V30 3198 C 314.4 3.31393 -1.39351 0
M  V30 3199 C 314.064 3.5591 -2.86666 0
M  V30 3200 C 315.061 3.49695 -3.8472 0
M  V30 3201 C 312.746 3.83515 -3.24379 0
M  V30 3202 C 314.74 3.70737 -5.18491 0
M  V30 3203 C 312.427 4.04209 -4.58321 0
M  V30 3204 C 313.425 3.97815 -5.55186 0
M  V30 3205 O 313.113 4.17954 -6.86709 0
M  V30 3206 H 312.845 0.584941 -0.338851 0
M  V30 3207 H 315.399 1.36169 -1.53777 0
M  V30 3208 H 313.629 3.79292 -0.75329 0
M  V30 3209 H 315.318 3.88945 -1.16089 0
M  V30 3210 H 316.084 3.28368 -3.56931 0
M  V30 3211 H 311.963 3.87605 -2.49567 0
M  V30 3212 H 315.507 3.65663 -5.94085 0
M  V30 3213 H 311.404 4.25023 -4.85825 0
M  V30 3214 H 312.172 4.35291 -6.93155 0
M  V30 3215 N 314.835 0.952656 1.25548 0
M  V30 3216 C 315.782 0.47008 2.25962 0
M  V30 3217 C 316.752 -0.476384 1.59122 0
M  V30 3218 O 317.937 -0.39007 1.8677 0
M  V30 3219 C 315.077 -0.247881 3.44209 0
M  V30 3220 C 314.19 0.735591 4.25691 0
M  V30 3221 C 313.325 -0.0047306 5.312 0
M  V30 3222 C 312.364 0.969805 6.04368 0
M  V30 3223 N 311.501 0.260486 7.01617 0
M  V30 3224 H 316.341 1.33126 2.66611 0
M  V30 3225 H 313.878 0.66765 1.31076 0
M  V30 3226 H 315.836 -0.680695 4.1161 0
M  V30 3227 H 314.466 -1.07312 3.0444 0
M  V30 3228 H 313.518 1.28689 3.57971 0
M  V30 3229 H 314.83 1.47934 4.76358 0
M  V30 3230 H 313.984 -0.496275 6.04667 0
M  V30 3231 H 312.723 -0.781282 4.81401 0
M  V30 3232 H 311.728 1.47237 5.29718 0
M  V30 3233 H 312.953 1.74655 6.56256 0
M  V30 3234 H 310.899 -0.497364 6.54112 0
M  V30 3235 H 310.816 0.943362 7.50091 0
M  V30 3236 H 312.084 -0.209587 7.79218 0
M  V30 3237 N 316.313 -1.40141 0.720998 0
M  V30 3238 C 317.243 -2.33339 0.0867621 0
M  V30 3239 C 318.224 -1.53178 -0.739622 0
M  V30 3240 O 319.409 -1.81625 -0.687449 0
M  V30 3241 C 316.539 -3.37194 -0.831728 0
M  V30 3242 C 315.493 -4.27857 -0.110558 0
M  V30 3243 C 314.819 -5.22294 -1.14513 0
M  V30 3244 C 316.119 -5.11872 1.0385 0
M  V30 3245 H 317.813 -2.86626 0.865219 0
M  V30 3246 H 315.359 -1.37814 0.417516 0
M  V30 3247 H 317.312 -4.01335 -1.28485 0
M  V30 3248 H 316.036 -2.82314 -1.64214 0
M  V30 3249 H 314.695 -3.65176 0.322797 0
M  V30 3250 H 314.343 -4.63717 -1.94874 0
M  V30 3251 H 314.043 -5.83797 -0.667446 0
M  V30 3252 H 315.567 -5.89312 -1.59824 0
M  V30 3253 H 316.981 -5.69436 0.664482 0
M  V30 3254 H 315.378 -5.82445 1.4449 0
M  V30 3255 H 316.448 -4.4753 1.86668 0
M  V30 3256 N 317.792 -0.46758 -1.50504 0
M  V30 3257 C 319.02 0.0864133 -2.06719 0
M  V30 3258 C 319.435 1.33819 -1.33184 0
M  V30 3259 O 318.792 1.78061 -0.400083 0
M  V30 3260 C 318.843 0.378079 -3.59517 0
M  V30 3261 O 318.564 -0.824044 -4.3028 0
M  V30 3262 C 320.065 0.979426 -4.32345 0
M  V30 3263 H 317.285 -0.00551697 -0.670977 0
M  V30 3264 H 319.829 -0.655354 -1.93715 0
M  V30 3265 H 317.984 1.06977 -3.72337 0
M  V30 3266 H 318.398 -0.566518 -5.21432 0
M  V30 3267 H 319.872 1.1333 -5.40241 0
M  V30 3268 H 320.349 1.9686 -3.9261 0
M  V30 3269 H 320.955 0.326216 -4.24047 0
M  V30 3270 N 319.27 1.56325 -0.20005 0
M  V30 3271 C 320.22 2.15939 0.731743 0
M  V30 3272 C 321.204 1.10154 1.17281 0
M  V30 3273 O 322.396 1.36203 1.13038 0
M  V30 3274 C 319.525 2.82614 1.94895 0
M  V30 3275 C 318.611 3.95596 1.52855 0
M  V30 3276 N 319.002 4.99118 0.819418 0
M  V30 3277 C 317.3 4.07288 1.81748 0
M  V30 3278 C 318.001 5.78513 0.608053 0
M  V30 3279 N 316.977 5.31117 1.15828 0
M  V30 3280 H 320.779 2.9334 0.181285 0
M  V30 3281 H 318.293 1.624 -0.000452172 0
M  V30 3282 H 320.29 3.23718 2.62702 0
M  V30 3283 H 318.95 2.06702 2.50408 0
M  V30 3284 H 319.961 5.15723 0.47436 0
M  V30 3285 H 316.638 3.42509 2.38734 0
M  V30 3286 H 318.028 6.71885 0.0451619 0
M  V30 3287 N 320.748 -0.0735177 1.57428 0
M  V30 3288 C 322.159 -0.625551 1.75908 0
M  V30 3289 C 322.51 -1.78 0.825261 0
M  V30 3290 O 321.635 -2.16398 0.00893964 0
M  V30 3291 C 322.23 -1.14155 3.18989 0
M  V30 3292 C 320.789 -1.63946 3.38819 0
M  V30 3293 C 319.936 -0.558151 2.71625 0
M  V30 3294 H 322.887 0.152647 1.57964 0
M  V30 3295 H 322.908 -2.0104 3.23053 0
M  V30 3296 H 322.42 -0.301116 3.8693 0
M  V30 3297 H 320.521 -2.50321 2.7599 0
M  V30 3298 H 320.634 -1.71759 4.47253 0
M  V30 3299 H 318.998 -1.00278 2.34129 0
M  V30 3300 H 319.781 0.272071 3.4222 0
M  V30 3301 N 322.226 -1.5378 -0.344866 0
M  V30 3302 C 323.474 -1.70625 -1.08311 0
M  V30 3303 C 323.795 -0.471447 -1.89215 0
M  V30 3304 O 323.065 0.514616 -1.8902 0
M  V30 3305 H 321.645 -0.629058 -0.402859 0
M  V30 3306 H 324.307 -1.9103 -0.386459 0
M  V30 3307 H 323.403 -2.57656 -1.76124 0
M  V30 3308 N 323.704 0.605807 -1.45491 0
M  V30 3309 C 324.614 1.74466 -1.56839 0
M  V30 3310 C 325.63 1.68006 -0.452772 0
M  V30 3311 O 326.806 1.8833 -0.713708 0
M  V30 3312 C 323.871 3.10931 -1.53371 0
M  V30 3313 C 322.932 3.28832 -2.75986 0
M  V30 3314 C 322.165 4.58787 -2.72673 0
M  V30 3315 O 322.388 5.4122 -1.80102 0
M  V30 3316 O 321.322 4.79438 -3.63899 0
M  V30 3317 H 325.148 1.67843 -2.53106 0
M  V30 3318 H 322.733 0.770108 -1.28022 0
M  V30 3319 H 324.615 3.92233 -1.54051 0
M  V30 3320 H 323.29 3.18042 -0.602572 0
M  V30 3321 H 322.197 2.47112 -2.80867 0
M  V30 3322 H 323.53 3.26599 -3.68231 0
M  V30 3323 N 325.182 1.32811 0.848464 0
M  V30 3324 C 326.145 1.22194 1.9391 0
M  V30 3325 C 327.145 0.143404 1.60159 0
M  V30 3326 O 328.335 0.394253 1.6968 0
M  V30 3327 C 325.467 0.88067 3.29328 0
M  V30 3328 H 326.66 2.19127 2.04752 0
M  V30 3329 H 324.213 1.16731 1.0394 0
M  V30 3330 H 324.948 -0.0865776 3.24184 0
M  V30 3331 H 324.733 1.66052 3.55203 0
M  V30 3332 H 326.223 0.830871 4.09251 0
M  V30 3333 N 326.66 -1.06551 1.16123 0
M  V30 3334 C 327.908 -1.78947 0.939267 0
M  V30 3335 C 328.229 -1.87532 -0.534476 0
M  V30 3336 O 327.499 -1.38211 -1.38833 0
M  V30 3337 H 326.079 -0.662807 0.344523 0
M  V30 3338 H 328.741 -1.28725 1.46342 0
M  V30 3339 H 327.837 -2.81117 1.35572 0
M  V30 3340 N 328.138 -0.959301 -1.25041 0
M  V30 3341 C 329.554 -0.664474 -1.4511 0
M  V30 3342 C 329.754 0.776481 -1.85938 0
M  V30 3343 O 328.81 1.55128 -1.99227 0
M  V30 3344 C 330.123 -1.64139 -2.5195 0
M  V30 3345 C 331.671 -1.65309 -2.65786 0
M  V30 3346 C 332.146 -2.61777 -3.75815 0
M  V30 3347 N 333.637 -2.60169 -3.83231 0
M  V30 3348 C 334.372 -3.31489 -4.6787 0
M  V30 3349 N 333.868 -4.12298 -5.56761 0
M  V30 3350 N 335.661 -3.20354 -4.61876 0
M  V30 3351 H 327.812 -1.89043 -0.968332 0
M  V30 3352 H 330.075 -0.813408 -0.4869 0
M  V30 3353 H 329.781 -2.67086 -2.28819 0
M  V30 3354 H 329.655 -1.40756 -3.49954 0
M  V30 3355 H 332.042 -0.630778 -2.8828 0
M  V30 3356 H 332.123 -1.92753 -1.68167 0
M  V30 3357 H 331.767 -3.64137 -3.54071 0
M  V30 3358 H 331.697 -2.31616 -4.72929 0
M  V30 3359 H 334.188 -2.01507 -3.19692 0
M  V30 3360 H 334.501 -4.63625 -6.18281 0
M  V30 3361 H 332.846 -4.16395 -5.56454 0
M  V30 3362 H 336.037 -2.56692 -3.91442 0
M  V30 3363 H 336.21 -3.76201 -5.27614 0
M  V30 3364 N 329.616 1.39756 -0.72842 0
M  V30 3365 C 330.893 1.94574 -0.200079 0
M  V30 3366 C 331.273 1.66569 1.29684 0
M  V30 3367 O 330.621 0.990326 2.05924 0
M  V30 3368 C 330.831 3.45004 -0.526608 0
M  V30 3369 C 332.179 4.21965 -0.472318 0
M  V30 3370 O 333.203 3.53173 -0.463413 0
M  V30 3371 O 332.062 5.44552 -0.461075 0
M  V30 3372 H 329.156 0.826289 -0.0342851 0
M  V30 3373 H 331.702 1.49293 -0.806829 0
M  V30 3374 H 330.474 3.58796 -1.56144 0
M  V30 3375 H 330.097 3.97449 0.109449 0
M  V30 3376 N 331.094 0.475555 1.50254 0
M  V30 3377 C 332.34 -0.0780073 2.0265 0
M  V30 3378 C 332.673 -1.38968 1.35652 0
M  V30 3379 O 331.948 -1.8839 0.483691 0
M  V30 3380 C 332.231 -0.257161 3.59181 0
M  V30 3381 C 332.084 1.07585 4.36744 0
M  V30 3382 C 333.403 -1.00965 4.28362 0
M  V30 3383 H 330.522 -0.0268758 0.73651 0
M  V30 3384 H 333.164 0.622015 1.7953 0
M  V30 3385 H 331.314 -0.853412 3.79011 0
M  V30 3386 H 332.986 1.70902 4.28474 0
M  V30 3387 H 331.229 1.6714 4.00308 0
M  V30 3388 H 331.9 0.904088 5.44546 0
M  V30 3389 H 334.376 -0.504214 4.13034 0
M  V30 3390 H 333.252 -1.10381 5.37687 0
M  V30 3391 H 333.513 -2.04731 3.91839 0
M  V30 3392 N 332.573 -1.56217 0.208337 0
M  V30 3393 C 333.798 -2.02782 -0.435222 0
M  V30 3394 C 334.223 -1.08738 -1.53485 0
M  V30 3395 O 333.581 -0.0731855 -1.81152 0
M  V30 3396 C 333.629 -3.47687 -0.956335 0
M  V30 3397 O 332.733 -3.56773 -2.06849 0
M  V30 3398 H 332.074 -0.656403 -0.100158 0
M  V30 3399 H 334.604 -2.02033 0.3231 0
M  V30 3400 H 334.614 -3.87745 -1.26955 0
M  V30 3401 H 333.289 -4.15624 -0.15143 0
M  V30 3402 H 331.866 -3.28597 -1.76292 0
M  V30 3403 N 334.051 0.0651679 -1.57465 0
M  V30 3404 C 334.983 1.10359 -2.00882 0
M  V30 3405 C 335.996 1.346 -0.915788 0
M  V30 3406 O 337.185 1.32723 -1.1936 0
M  V30 3407 C 334.285 2.45312 -2.33828 0
M  V30 3408 C 333.458 2.40934 -3.65061 0
M  V30 3409 C 332.517 3.58047 -3.85602 0
M  V30 3410 O 331.543 3.39175 -4.57109 0
M  V30 3411 N 332.745 4.78637 -3.28462 0
M  V30 3412 H 335.51 0.733807 -2.90578 0
M  V30 3413 H 333.071 0.253719 -1.599 0
M  V30 3414 H 335.063 3.22314 -2.44737 0
M  V30 3415 H 333.633 2.74267 -1.49988 0
M  V30 3416 H 332.853 1.49273 -3.64844 0
M  V30 3417 H 334.141 2.35117 -4.51218 0
M  V30 3418 H 333.539 4.96872 -2.70433 0
M  V30 3419 H 332.096 5.53127 -3.44809 0
M  V30 3420 N 335.529 1.53961 0.336706 0
M  V30 3421 C 336.439 1.85432 1.43708 0
M  V30 3422 C 337.455 0.745053 1.57242 0
M  V30 3423 O 338.631 1.03804 1.72588 0
M  V30 3424 C 335.696 2.06349 2.78605 0
M  V30 3425 C 334.757 3.30191 2.74358 0
M  V30 3426 C 333.99 3.50101 4.02822 0
M  V30 3427 O 334.213 2.7371 5.00439 0
M  V30 3428 O 333.147 4.43547 4.06878 0
M  V30 3429 H 336.973 2.78975 1.20028 0
M  V30 3430 H 334.558 1.39701 0.52952 0
M  V30 3431 H 336.44 2.21513 3.58483 0
M  V30 3432 H 335.115 1.15995 3.02203 0
M  V30 3433 H 334.022 3.20425 1.93078 0
M  V30 3434 H 335.355 4.2056 2.55715 0
M  V30 3435 N 337.007 -0.598083 1.45811 0
M  V30 3436 C 338.423 -0.919847 1.30426 0
M  V30 3437 C 338.623 -1.99759 0.264303 0
M  V30 3438 O 337.679 -2.50221 -0.338472 0
M  V30 3439 C 338.992 -1.35176 2.68603 0
M  V30 3440 C 340.54 -1.46546 2.76574 0
M  V30 3441 C 341.015 -1.9311 4.15298 0
M  V30 3442 N 342.506 -2.00328 4.1764 0
M  V30 3443 C 343.241 -2.37599 5.21856 0
M  V30 3444 N 342.737 -2.73771 6.36413 0
M  V30 3445 N 344.53 -2.38021 5.09218 0
M  V30 3446 H 336.681 0.114111 2.12093 0
M  V30 3447 H 338.944 -0.0116121 0.947929 0
M  V30 3448 H 338.65 -0.633969 3.45939 0
M  V30 3449 H 338.524 -2.3164 2.97696 0
M  V30 3450 H 340.911 -2.17415 1.99537 0
M  V30 3451 H 340.992 -0.483727 2.51185 0
M  V30 3452 H 340.636 -1.22824 4.92825 0
M  V30 3453 H 340.566 -2.92213 4.38086 0
M  V30 3454 H 343.057 -1.74925 3.34977 0
M  V30 3455 H 343.37 -3.0112 7.11721 0
M  V30 3456 H 341.715 -2.71445 6.39799 0
M  V30 3457 H 344.906 -2.09174 4.18765 0
M  V30 3458 H 345.079 -2.66741 5.90554 0
M  V30 3459 N 338.485 -1.33259 -0.841409 0
M  V30 3460 C 339.762 -1.15174 -1.58096 0
M  V30 3461 C 340.142 0.282858 -2.09196 0
M  V30 3462 O 339.49 1.28151 -1.89181 0
M  V30 3463 C 339.7 -2.1907 -2.71679 0
M  V30 3464 C 341.048 -2.53093 -3.40924 0
M  V30 3465 O 342.072 -2.17717 -2.81918 0
M  V30 3466 O 340.931 -3.1379 -4.47435 0
M  V30 3467 H 338.025 -0.445303 -0.696875 0
M  V30 3468 H 340.571 -1.44833 -0.884385 0
M  V30 3469 H 339.343 -3.15443 -2.31541 0
M  V30 3470 H 338.966 -1.90481 -3.49002 0
M  V30 3471 N 339.963 1.05934 -1.16686 0
M  V30 3472 C 340.926 2.11669 -0.879144 0
M  V30 3473 C 341.926 1.60294 0.127445 0
M  V30 3474 O 343.116 1.7389 -0.103865 0
M  V30 3475 C 340.248 3.39438 -0.315425 0
M  V30 3476 H 341.441 2.38626 -1.81653 0
M  V30 3477 H 338.994 1.22058 -0.976299 0
M  V30 3478 H 339.729 3.18132 0.629468 0
M  V30 3479 H 339.514 3.78034 -1.04079 0
M  V30 3480 H 341.004 4.17391 -0.132189 0
M  V30 3481 N 341.441 0.965919 1.2453 0
M  V30 3482 C 342.666 0.643971 1.97149 0
M  V30 3483 C 343.091 -0.779487 1.71189 0
M  V30 3484 O 342.449 -1.5288 0.974553 0
M  V30 3485 C 342.497 0.922557 3.48599 0
M  V30 3486 O 341.601 0.00707672 4.12399 0
M  V30 3487 H 340.942 0.243647 0.617683 0
M  V30 3488 H 343.472 1.29558 1.58353 0
M  V30 3489 H 343.482 0.853373 3.98976 0
M  V30 3490 H 342.157 1.95996 3.66822 0
M  V30 3491 H 340.734 0.12943 3.72675 0
M  V30 3492 N 342.919 -1.39368 0.735821 0
M  V30 3493 C 343.849 -2.33234 0.111506 0
M  V30 3494 C 344.83 -1.53954 -0.723334 0
M  V30 3495 O 346.015 -1.82344 -0.668147 0
M  V30 3496 C 343.145 -3.38057 -0.795917 0
M  V30 3497 C 342.099 -4.2795 -0.065172 0
M  V30 3498 C 341.425 -5.23479 -1.08967 0
M  V30 3499 C 342.725 -5.10741 1.09273 0
M  V30 3500 H 344.419 -2.85692 0.895571 0
M  V30 3501 H 341.965 -1.37364 0.432109 0
M  V30 3502 H 343.918 -4.02675 -1.24221 0
M  V30 3503 H 342.642 -2.8404 -1.61211 0
M  V30 3504 H 341.301 -3.64813 0.361511 0
M  V30 3505 H 340.949 -4.65758 -1.89944 0
M  V30 3506 H 340.649 -5.84472 -0.605489 0
M  V30 3507 H 342.173 -5.90974 -1.53565 0
M  V30 3508 H 343.587 -5.68699 0.724841 0
M  V30 3509 H 341.984 -5.8088 1.50659 0
M  V30 3510 H 343.054 -4.45525 1.91404 0
M  V30 3511 N 344.397 -0.483516 -1.5 0
M  V30 3512 C 345.813 -0.138404 -1.58999 0
M  V30 3513 C 346.013 1.35597 -1.4905 0
M  V30 3514 O 345.069 2.13039 -1.35539 0
M  V30 3515 C 346.382 -0.699658 -2.92447 0
M  V30 3516 C 347.93 -0.664195 -3.05872 0
M  V30 3517 C 348.405 -1.20321 -4.41913 0
M  V30 3518 N 349.896 -1.16315 -4.48358 0
M  V30 3519 C 350.631 -1.55058 -5.52037 0
M  V30 3520 N 350.127 -2.01311 -6.62907 0
M  V30 3521 N 351.92 -1.46584 -5.42651 0
M  V30 3522 H 344.071 -1.45529 -1.5471 0
M  V30 3523 H 346.334 -0.60258 -0.731848 0
M  V30 3524 H 346.04 -1.747 -3.05242 0
M  V30 3525 H 345.914 -0.150194 -3.76901 0
M  V30 3526 H 348.301 0.374272 -2.92717 0
M  V30 3527 H 348.382 -1.25061 -2.23144 0
M  V30 3528 H 348.026 -2.24037 -4.55818 0
M  V30 3529 H 347.956 -0.592896 -5.23252 0
M  V30 3530 H 350.447 -0.824058 -3.68806 0
M  V30 3531 H 350.76 -2.2899 -7.38095 0
M  V30 3532 H 349.105 -2.05273 -6.63994 0
M  V30 3533 H 352.296 -1.10281 -4.54924 0
M  V30 3534 H 352.469 -1.77103 -6.23329 0
M  V30 3535 N 345.875 1.56104 -0.216619 0
M  V30 3536 C 346.807 2.17339 0.72776 0
M  V30 3537 C 347.82 1.14109 1.16116 0
M  V30 3538 O 349.009 1.4111 1.09317 0
M  V30 3539 C 346.109 2.73818 1.99693 0
M  V30 3540 C 345.282 4.02168 1.71988 0
M  V30 3541 C 344.341 4.43259 2.83562 0
M  V30 3542 O 343.367 5.10257 2.52244 0
M  V30 3543 N 344.569 4.08535 4.12407 0
M  V30 3544 H 347.334 2.99005 0.203983 0
M  V30 3545 H 344.895 1.61861 -0.0354289 0
M  V30 3546 H 346.887 2.9828 2.73516 0
M  V30 3547 H 345.457 1.96483 2.43132 0
M  V30 3548 H 344.677 3.85612 0.818337 0
M  V30 3549 H 345.965 4.85907 1.50903 0
M  V30 3550 H 345.363 3.54687 4.40696 0
M  V30 3551 H 343.92 4.37901 4.8279 0
M  V30 3552 N 347.353 -0.0568162 1.57498 0
M  V30 3553 C 348.764 -0.606858 1.76562 0
M  V30 3554 C 349.115 -1.77114 0.844094 0
M  V30 3555 O 348.24 -2.16376 0.0318911 0
M  V30 3556 C 348.835 -1.10766 3.20182 0
M  V30 3557 C 347.394 -1.60344 3.40539 0
M  V30 3558 C 346.541 -0.529311 2.72201 0
M  V30 3559 H 349.492 0.169393 1.57793 0
M  V30 3560 H 349.513 -1.97602 3.25167 0
M  V30 3561 H 349.025 -0.26006 3.87228 0
M  V30 3562 H 347.126 -2.47379 2.78629 0
M  V30 3563 H 347.239 -1.67006 4.4905 0
M  V30 3564 H 345.603 -0.977893 2.35179 0
M  V30 3565 H 346.386 0.308352 3.41912 0
M  V30 3566 N 348.832 -1.54138 -0.328536 0
M  V30 3567 C 350.057 -1.76378 -1.09112 0
M  V30 3568 C 350.482 -0.508596 -1.81094 0
M  V30 3569 O 349.84 0.539598 -1.73084 0
M  V30 3570 C 349.888 -2.95358 -2.06872 0
M  V30 3571 O 348.992 -2.66556 -3.14677 0
M  V30 3572 H 348.333 -0.584614 -0.314838 0
M  V30 3573 H 350.863 -2.01146 -0.374348 0
M  V30 3574 H 350.873 -3.22566 -2.4983 0
M  V30 3575 H 349.548 -3.86385 -1.5388 0
M  V30 3576 H 348.125 -2.50282 -2.7643 0
M  V30 3577 N 350.31 0.590341 -1.46126 0
M  V30 3578 C 351.587 1.35029 -1.41515 0
M  V30 3579 C 351.967 2.10888 -0.0946472 0
M  V30 3580 O 351.315 2.08998 0.923693 0
M  V30 3581 C 351.525 2.28269 -2.63997 0
M  V30 3582 C 352.873 2.90338 -3.09821 0
M  V30 3583 O 353.897 2.38585 -2.64492 0
M  V30 3584 O 352.756 3.84321 -3.88535 0
M  V30 3585 H 349.85 0.606317 -0.562413 0
M  V30 3586 H 352.396 0.611994 -1.58281 0
M  V30 3587 H 351.168 1.71591 -3.51671 0
M  V30 3588 H 350.791 3.0945 -2.49652 0
M  V30 3589 N 351.788 1.33704 0.83433 0
M  V30 3590 C 353.065 1.16011 1.57483 0
M  V30 3591 C 353.445 -0.27176 2.09343 0
M  V30 3592 O 352.793 -1.27146 1.89858 0
M  V30 3593 C 353.003 2.20507 2.70514 0
M  V30 3594 C 354.351 2.54898 3.39577 0
M  V30 3595 O 355.375 2.19209 2.80759 0
M  V30 3596 O 354.234 3.16158 4.45765 0
M  V30 3597 H 351.328 0.448992 0.694503 0
M  V30 3598 H 353.874 1.453 0.876691 0
M  V30 3599 H 352.646 3.16667 2.29865 0
M  V30 3600 H 352.269 1.92329 3.47987 0
M  V30 3601 N 353.266 -1.05314 1.17247 0
M  V30 3602 C 354.491 -1.82509 0.985148 0
M  V30 3603 C 354.916 -1.82343 -0.461788 0
M  V30 3604 O 354.274 -1.23151 -1.33055 0
M  V30 3605 C 354.322 -3.26566 1.52929 0
M  V30 3606 O 353.426 -4.05666 0.742225 0
M  V30 3607 H 352.767 -0.564347 0.349869 0
M  V30 3608 H 355.297 -1.32718 1.55715 0
M  V30 3609 H 355.307 -3.77369 1.55103 0
M  V30 3610 H 353.982 -3.26001 2.58256 0
M  V30 3611 H 352.559 -3.64397 0.791794 0
M  V30 3612 N 354.744 -0.972509 -1.24016 0
M  V30 3613 C 355.99 -0.647583 -1.92816 0
M  V30 3614 C 356.345 0.809015 -1.74564 0
M  V30 3615 O 355.638 1.57502 -1.09103 0
M  V30 3616 C 355.832 -0.963694 -3.44162 0
M  V30 3617 C 355.661 -2.44947 -3.77135 0
M  V30 3618 C 354.431 -3.11012 -3.98246 0
M  V30 3619 C 356.629 -3.42978 -3.83237 0
M  V30 3620 N 354.611 -4.49277 -4.18358 0
M  V30 3621 C 355.982 -4.66619 -4.08248 0
M  V30 3622 C 358.037 -3.37569 -3.65994 0
M  V30 3623 C 356.74 -5.85516 -4.17808 0
M  V30 3624 C 358.766 -4.55822 -3.76802 0
M  V30 3625 C 358.128 -5.78256 -4.02243 0
M  V30 3626 H 354.227 -0.287894 -0.727077 0
M  V30 3627 H 356.811 -1.24835 -1.49413 0
M  V30 3628 H 354.982 -0.391692 -3.8642 0
M  V30 3629 H 356.714 -0.596849 -4.00275 0
M  V30 3630 H 353.469 -2.61529 -3.94841 0
M  V30 3631 H 353.893 -5.20935 -4.32384 0
M  V30 3632 H 358.535 -2.43945 -3.45327 0
M  V30 3633 H 356.253 -6.79564 -4.37285 0
M  V30 3634 H 359.839 -4.53204 -3.64825 0
M  V30 3635 H 358.719 -6.68231 -4.10411 0
M  V30 3636 N 356.222 1.38976 -0.743202 0
M  V30 3637 C 357.152 2.33171 -0.123873 0
M  V30 3638 C 358.133 1.54336 0.71516 0
M  V30 3639 O 359.318 1.82696 0.658467 0
M  V30 3640 C 356.448 3.38474 0.777978 0
M  V30 3641 C 355.402 4.27979 0.0424758 0
M  V30 3642 C 354.728 5.2405 1.06189 0
M  V30 3643 C 356.028 5.10155 -1.1198 0
M  V30 3644 H 357.722 2.85213 -0.910709 0
M  V30 3645 H 355.268 1.37133 -0.439388 0
M  V30 3646 H 357.221 4.03328 1.22084 0
M  V30 3647 H 355.945 2.84891 1.59702 0
M  V30 3648 H 354.604 3.64616 -0.380853 0
M  V30 3649 H 354.252 4.66758 1.87472 0
M  V30 3650 H 353.952 5.84785 0.574485 0
M  V30 3651 H 355.476 5.9178 1.50428 0
M  V30 3652 H 356.89 5.68307 -0.75499 0
M  V30 3653 H 355.287 5.80073 -1.53738 0
M  V30 3654 H 356.357 4.44504 -1.93764 0
M  V30 3655 N 357.7 0.491464 1.49741 0
M  V30 3656 C 358.648 -0.305837 2.30581 0
M  V30 3657 C 359.642 -0.971642 1.38764 0
M  V30 3658 O 360.848 -0.90042 1.5586 0
M  V30 3659 H 357.223 -0.117482 0.742767 0
M  V30 3660 H 359.194 0.396093 2.95759 0
M  V30 3661 C 357.943 -1.36319 3.19863 0
M  V30 3662 H 357.266 -0.860258 3.90435 0
M  V30 3663 H 358.706 -1.89323 3.79385 0
M  V30 3664 C 357.165 -2.37621 2.38826 0
M  V30 3665 O 357.695 -3.43311 2.08567 0
M  V30 3666 N 355.901 -2.09849 2.01026 0
M  V30 3667 H 355.448 -1.23922 2.25834 0
M  V30 3668 H 355.406 -2.77859 1.47112 0
M  V30 3669 N 359.178 -1.55987 0.224894 0
M  V30 3670 C 360.425 -1.9839 -0.4059 0
M  V30 3671 C 360.753 -1.11261 -1.59535 0
M  V30 3672 O 360.008 -0.158314 -1.95059 0
M  V30 3673 C 360.307 -3.46394 -0.880106 0
M  V30 3674 C 359.973 -4.5046 0.19918 0
M  V30 3675 C 358.635 -4.7864 0.495661 0
M  V30 3676 C 360.987 -5.12855 0.928939 0
M  V30 3677 C 358.315 -5.66497 1.52636 0
M  V30 3678 C 360.667 -6.01828 1.949 0
M  V30 3679 C 359.331 -6.28351 2.25236 0
M  V30 3680 H 358.601 -0.725961 -0.148529 0
M  V30 3681 H 361.248 -1.88668 0.328113 0
M  V30 3682 H 359.553 -3.53337 -1.69294 0
M  V30 3683 H 361.25 -3.76577 -1.37808 0
M  V30 3684 H 357.84 -4.28579 -0.0420526 0
M  V30 3685 H 362.024 -4.9115 0.713129 0
M  V30 3686 H 357.28 -5.8531 1.76698 0
M  V30 3687 H 361.454 -6.49225 2.51951 0
M  V30 3688 H 359.081 -6.96226 3.05244 0
M  V30 3689 N 360.656 0.0484629 -1.57525 0
M  V30 3690 C 361.933 0.777447 -1.79486 0
M  V30 3691 C 362.313 1.94597 -0.818251 0
M  V30 3692 O 361.661 2.28047 0.143767 0
M  V30 3693 C 361.871 1.22864 -3.26658 0
M  V30 3694 C 363.219 1.65251 -3.91123 0
M  V30 3695 O 364.243 1.32372 -3.3069 0
M  V30 3696 O 363.102 2.26207 -4.97486 0
M  V30 3697 H 360.196 0.374357 -0.737419 0
M  V30 3698 H 362.742 0.0267359 -1.69679 0
M  V30 3699 H 361.514 0.393589 -3.89316 0
M  V30 3700 H 361.137 2.03996 -3.41279 0
M  V30 3701 N 362.134 1.5431 0.320358 0
M  V30 3702 C 363.382 1.72327 1.05583 0
M  V30 3703 C 363.703 0.50149 1.88441 0
M  V30 3704 O 362.973 -0.48448 1.89815 0
M  V30 3705 H 361.553 0.635387 0.3928 0
M  V30 3706 H 364.215 1.91621 0.356019 0
M  V30 3707 H 363.311 2.60426 1.72003 0
M  V30 3708 N 363.613 -0.582584 1.46437 0
M  V30 3709 C 364.841 -1.36682 1.55324 0
M  V30 3710 C 365.256 -1.87796 0.194409 0
M  V30 3711 O 364.613 -1.63623 -0.808318 0
M  V30 3712 C 364.664 -2.55426 2.55812 0
M  V30 3713 O 364.385 -2.0643 3.86417 0
M  V30 3714 C 365.886 -3.47976 2.74641 0
M  V30 3715 H 363.106 -0.417545 0.525259 0
M  V30 3716 H 365.65 -0.708219 1.91845 0
M  V30 3717 H 363.805 -3.17275 2.22295 0
M  V30 3718 H 364.219 -2.83762 4.41111 0
M  V30 3719 H 365.693 -4.27775 3.48874 0
M  V30 3720 H 366.17 -3.99919 1.81553 0
M  V30 3721 H 366.776 -2.91962 3.09255 0
M  V30 3722 N 365.091 -1.34144 -0.827227 0
M  V30 3723 C 366.021 -1.28005 -1.95287 0
M  V30 3724 C 367.002 -0.158321 -1.69362 0
M  V30 3725 O 368.187 -0.349987 -1.9102 0
M  V30 3726 C 365.317 -1.03036 -3.31664 0
M  V30 3727 C 364.271 -2.11628 -3.72019 0
M  V30 3728 C 363.597 -1.71854 -5.0633 0
M  V30 3729 C 364.897 -3.53417 -3.8457 0
M  V30 3730 H 366.591 -2.22187 -2.00682 0
M  V30 3731 H 364.137 -1.0696 -0.964135 0
M  V30 3732 H 366.09 -0.973863 -4.09993 0
M  V30 3733 H 364.814 -0.0529391 -3.26557 0
M  V30 3734 H 363.473 -2.16339 -2.95961 0
M  V30 3735 H 363.121 -0.727841 -4.97706 0
M  V30 3736 H 362.821 -2.44531 -5.34302 0
M  V30 3737 H 364.345 -1.67692 -5.87122 0
M  V30 3738 H 365.759 -3.51142 -4.5318 0
M  V30 3739 H 364.156 -4.24679 -4.2399 0
M  V30 3740 H 365.226 -3.91072 -2.86689 0
M  V30 3741 N 366.569 1.04691 -1.17803 0
M  V30 3742 C 367.499 2.14494 -0.92275 0
M  V30 3743 C 368.48 1.69546 0.137179 0
M  V30 3744 O 369.665 1.94195 -0.0141108 0
M  V30 3745 C 366.795 3.44491 -0.440803 0
M  V30 3746 C 365.749 4.03031 -1.4405 0
M  V30 3747 C 365.075 5.28432 -0.81631 0
M  V30 3748 C 366.375 4.39932 -2.81527 0
M  V30 3749 H 368.069 2.36107 -1.84103 0
M  V30 3750 H 365.615 1.1347 -0.886599 0
M  V30 3751 H 367.568 4.2066 -0.249602 0
M  V30 3752 H 366.292 3.22546 0.513025 0
M  V30 3753 H 364.951 3.28937 -1.61853 0
M  V30 3754 H 364.599 5.02792 0.144511 0
M  V30 3755 H 364.299 5.68559 -1.48371 0
M  V30 3756 H 365.823 6.07284 -0.635496 0
M  V30 3757 H 367.237 5.07113 -2.67412 0
M  V30 3758 H 365.634 4.9109 -3.44892 0
M  V30 3759 H 366.704 3.50045 -3.35554 0
M  V30 3760 N 368.047 0.979072 1.23499 0
M  V30 3761 C 369.295 0.645941 1.91499 0
M  V30 3762 C 369.616 -0.822948 1.76784 0
M  V30 3763 O 368.886 -1.58854 1.14639 0
M  V30 3764 H 367.466 0.235919 0.708767 0
M  V30 3765 H 370.128 1.2426 1.50152 0
M  V30 3766 H 369.224 0.896411 2.9895 0
M  V30 3767 N 369.525 -1.3858 0.750561 0
M  V30 3768 C 370.473 -2.32339 0.110162 0
M  V30 3769 C 371.467 -1.53864 -0.708674 0
M  V30 3770 O 372.673 -1.69417 -0.608112 0
M  V30 3771 H 369.048 -0.751812 0.0168275 0
M  V30 3772 H 371.019 -2.83959 0.917053 0
M  V30 3773 C 369.768 -3.39043 -0.771067 0
M  V30 3774 H 369.091 -3.99517 -0.150374 0
M  V30 3775 H 370.531 -4.07061 -1.1865 0
M  V30 3776 C 368.99 -2.77365 -1.91234 0
M  V30 3777 O 369.52 -2.66434 -3.00626 0
M  V30 3778 N 367.726 -2.35219 -1.70646 0
M  V30 3779 H 367.273 -2.4431 -0.81673 0
M  V30 3780 H 367.231 -1.94294 -2.47178 0
M  V30 3781 N 371.003 -0.499398 -1.49478 0
M  V30 3782 C 371.933 0.269244 -2.31943 0
M  V30 3783 C 372.914 0.964054 -1.40143 0
M  V30 3784 O 374.099 0.955767 -1.69052 0
M  V30 3785 C 371.229 1.33504 -3.20615 0
M  V30 3786 C 370.183 0.760202 -4.21195 0
M  V30 3787 C 369.509 1.9264 -4.98792 0
M  V30 3788 C 370.809 -0.247661 -5.21712 0
M  V30 3789 H 372.503 -0.419082 -2.96452 0
M  V30 3790 H 370.049 -0.202988 -1.42562 0
M  V30 3791 H 372.002 1.88048 -3.77115 0
M  V30 3792 H 370.726 2.05253 -2.54045 0
M  V30 3793 H 369.385 0.23653 -3.65836 0
M  V30 3794 H 369.033 2.63154 -4.28671 0
M  V30 3795 H 368.733 1.54785 -5.66847 0
M  V30 3796 H 370.257 2.4762 -5.58137 0
M  V30 3797 H 371.671 0.209579 -5.72917 0
M  V30 3798 H 370.068 -0.541962 -5.97648 0
M  V30 3799 H 371.138 -1.16409 -4.7072 0
M  V30 3800 N 372.481 1.55866 -0.233164 0
M  V30 3801 C 373.411 2.23783 0.666599 0
M  V30 3802 C 374.392 1.21343 1.19205 0
M  V30 3803 O 375.577 1.4996 1.23392 0
M  V30 3804 C 372.707 2.92671 1.86978 0
M  V30 3805 C 371.661 4.01682 1.47768 0
M  V30 3806 C 370.987 4.57926 2.76058 0
M  V30 3807 C 372.287 5.18126 0.658993 0
M  V30 3808 H 373.981 2.99232 0.100306 0
M  V30 3809 H 371.527 1.43924 0.046804 0
M  V30 3810 H 373.48 3.3888 2.50476 0
M  V30 3811 H 372.204 2.14688 2.46123 0
M  V30 3812 H 370.863 3.56222 0.866106 0
M  V30 3813 H 370.511 3.76659 3.33372 0
M  V30 3814 H 370.211 5.31505 2.50552 0
M  V30 3815 H 371.735 5.06859 3.40479 0
M  V30 3816 H 373.149 5.60644 1.19795 0
M  V30 3817 H 371.546 5.98009 0.500552 0
M  V30 3818 H 372.616 4.83763 -0.331856 0
M  V30 3819 N 373.959 -0.0401083 1.57549 0
M  V30 3820 C 375.208 -0.732108 1.87944 0
M  V30 3821 C 375.521 -1.77107 0.830206 0
M  V30 3822 O 376.727 -2.51488 1.02302 0
M  V30 3823 C 375.183 -1.35315 3.33494 0
M  V30 3824 C 374.791 -0.351105 4.46622 0
M  V30 3825 C 376.535 -2.02566 3.73051 0
M  V30 3826 C 374.442 -0.979859 5.83226 0
M  V30 3827 H 373.372 -0.277188 0.701201 0
M  V30 3828 H 376.023 0.0138501 1.83495 0
M  V30 3829 H 374.405 -2.14844 3.32653 0
M  V30 3830 H 375.579 0.416674 4.58912 0
M  V30 3831 H 373.894 0.218708 4.15825 0
M  V30 3832 H 376.491 -2.50441 4.72423 0
M  V30 3833 H 376.834 -2.83904 3.04474 0
M  V30 3834 H 377.367 -1.29827 3.76018 0
M  V30 3835 H 374.106 -0.206135 6.55176 0
M  V30 3836 H 373.626 -1.71774 5.74677 0
M  V30 3837 H 375.305 -1.49046 6.29599 0
M  V30 3838 N 375.437 -1.54477 -0.31217 0
M  V30 3839 C 376.684 -1.73227 -1.04875 0
M  V30 3840 C 377.012 -0.512042 -1.87639 0
M  V30 3841 O 376.267 0.506131 -1.89042 0
M  V30 3842 C 376.566 -2.967 -1.99258 0
M  V30 3843 C 376.232 -4.30974 -1.32559 0
M  V30 3844 C 374.894 -4.67477 -1.141 0
M  V30 3845 C 377.246 -5.14258 -0.847835 0
M  V30 3846 C 374.574 -5.84852 -0.465326 0
M  V30 3847 C 376.926 -6.32327 -0.185931 0
M  V30 3848 C 375.59 -6.67499 0.0107077 0
M  V30 3849 H 374.86 -0.633881 -0.383765 0
M  V30 3850 H 377.507 -1.88727 -0.324731 0
M  V30 3851 H 375.812 -2.75935 -2.7815 0
M  V30 3852 H 377.509 -3.08401 -2.563 0
M  V30 3853 H 374.099 -4.02262 -1.4793 0
M  V30 3854 H 378.283 -4.86565 -0.978192 0
M  V30 3855 H 373.539 -6.10654 -0.301883 0
M  V30 3856 H 377.713 -6.96135 0.192211 0
M  V30 3857 H 375.34 -7.58306 0.536287 0
M  V30 3858 N 376.915 0.57481 -1.46744 0
M  V30 3859 C 378.326 1.15695 -1.46532 0
M  V30 3860 C 378.677 1.95068 -0.210425 0
M  V30 3861 O 377.802 2.05241 0.685944 0
M  V30 3862 C 378.397 2.1048 -2.65487 0
M  V30 3863 C 376.956 2.64002 -2.68291 0
M  V30 3864 C 376.103 1.40026 -2.39349 0
M  V30 3865 H 379.054 0.362325 -1.54509 0
M  V30 3866 H 379.075 2.94074 -2.41455 0
M  V30 3867 H 378.587 1.52683 -3.56805 0
M  V30 3868 H 376.688 3.25646 -1.81067 0
M  V30 3869 H 376.801 3.06197 -3.68483 0
M  V30 3870 H 375.165 1.70106 -1.89568 0
M  V30 3871 H 375.948 0.840485 -3.32852 0
M  V30 3872 N 378.394 1.34581 0.820102 0
M  V30 3873 C 379.344 1.22943 1.92013 0
M  V30 3874 C 380.328 0.127802 1.60392 0
M  V30 3875 O 381.52 0.357737 1.73347 0
M  V30 3876 C 378.649 0.989938 3.28717 0
M  V30 3877 C 377.735 2.13486 3.66449 0
M  V30 3878 N 378.126 3.38625 3.75722 0
M  V30 3879 C 376.424 2.04573 3.96315 0
M  V30 3880 C 377.125 4.13832 4.08801 0
M  V30 3881 N 376.101 3.42451 4.22171 0
M  V30 3882 H 379.903 2.17771 1.97365 0
M  V30 3883 H 377.417 1.2686 1.01392 0
M  V30 3884 H 379.414 0.887462 4.07345 0
M  V30 3885 H 378.074 0.0503691 3.24661 0
M  V30 3886 H 379.085 3.73143 3.59144 0
M  V30 3887 H 375.762 1.1839 4.00362 0
M  V30 3888 H 377.152 5.21909 4.23156 0
M  V30 3889 N 379.872 -1.04064 1.18357 0
M  V30 3890 C 380.804 -2.12114 0.868358 0
M  V30 3891 C 381.817 -1.62247 -0.134045 0
M  V30 3892 O 383.006 -1.78253 0.0937933 0
M  V30 3893 C 380.106 -3.37773 0.276132 0
M  V30 3894 C 379.279 -4.16874 1.3242 0
M  V30 3895 C 378.338 -5.20861 0.747662 0
M  V30 3896 O 377.364 -5.51141 1.42239 0
M  V30 3897 N 378.566 -5.78715 -0.454823 0
M  V30 3898 H 381.331 -2.39748 1.79836 0
M  V30 3899 H 378.892 -1.20258 1.08396 0
M  V30 3900 H 380.884 -4.04513 -0.123133 0
M  V30 3901 H 379.454 -3.07581 -0.557895 0
M  V30 3902 H 378.674 -3.45456 1.89878 0
M  V30 3903 H 379.962 -4.66516 2.03078 0
M  V30 3904 H 379.36 -5.56415 -1.02073 0
M  V30 3905 H 377.917 -6.46921 -0.79601 0
M  V30 3906 N 381.35 -0.985608 -1.22978 0
M  V30 3907 C 382.597 -0.657386 -1.91532 0
M  V30 3908 C 382.925 0.809707 -1.76845 0
M  V30 3909 O 382.18 1.60021 -1.12658 0
M  V30 3910 C 382.479 -1.00014 -3.43121 0
M  V30 3911 C 382.145 -2.4583 -3.77993 0
M  V30 3912 C 380.807 -2.85679 -3.87222 0
M  V30 3913 C 383.159 -3.40378 -3.94705 0
M  V30 3914 C 380.487 -4.19081 -4.10595 0
M  V30 3915 C 382.839 -4.73429 -4.1958 0
M  V30 3916 C 381.503 -5.1303 -4.27032 0
M  V30 3917 H 380.773 -0.240555 -0.700867 0
M  V30 3918 H 383.42 -1.24044 -1.45895 0
M  V30 3919 H 381.725 -0.335072 -3.90365 0
M  V30 3920 H 383.422 -0.724322 -3.94404 0
M  V30 3921 H 380.012 -2.13939 -3.71387 0
M  V30 3922 H 384.196 -3.10766 -3.8696 0
M  V30 3923 H 379.452 -4.49362 -4.14589 0
M  V30 3924 H 383.626 -5.46644 -4.31455 0
M  V30 3925 H 381.253 -6.16418 -4.44896 0
M  V30 3926 N 382.828 1.3818 -0.7579 0
M  V30 3927 C 384.077 1.99261 -0.312744 0
M  V30 3928 C 384.39 1.60846 1.11301 0
M  V30 3929 O 385.596 2.14929 1.65885 0
M  V30 3930 C 384.052 3.56294 -0.50821 0
M  V30 3931 C 383.66 4.03657 -1.94333 0
M  V30 3932 C 385.404 4.24313 -0.125982 0
M  V30 3933 C 383.311 5.53347 -2.08712 0
M  V30 3934 H 382.241 0.745456 -0.113185 0
M  V30 3935 H 384.892 1.57889 -0.935056 0
M  V30 3936 H 383.274 3.95575 0.183353 0
M  V30 3937 H 384.448 3.75655 -2.66871 0
M  V30 3938 H 382.763 3.48376 -2.28086 0
M  V30 3939 H 385.36 5.34279 -0.212125 0
M  V30 3940 H 385.703 4.05962 0.921964 0
M  V30 3941 H 386.236 3.90285 -0.769563 0
M  V30 3942 H 382.975 5.76607 -3.11777 0
M  V30 3943 H 382.495 5.83078 -1.4064 0
M  V30 3944 H 384.174 6.19111 -1.87912 0
M  V30 3945 N 384.306 0.507319 1.49211 0
M  V30 3946 C 385.254 -0.281364 2.30892 0
M  V30 3947 C 386.248 -0.95687 1.39787 0
M  V30 3948 O 387.454 -0.883838 1.56807 0
M  V30 3949 H 383.829 -0.109597 0.743971 0
M  V30 3950 H 385.8 0.42744 2.95323 0
M  V30 3951 C 384.549 -1.32918 3.21291 0
M  V30 3952 H 383.872 -0.818799 3.91326 0
M  V30 3953 H 385.312 -1.85288 3.81372 0
M  V30 3954 C 383.771 -2.35074 2.41333 0
M  V30 3955 O 384.301 -3.4108 2.12197 0
M  V30 3956 N 382.507 -2.07705 2.03241 0
M  V30 3957 H 382.054 -1.2152 2.27136 0
M  V30 3958 H 382.012 -2.76283 1.50051 0
M  V30 3959 N 385.784 -1.5574 0.241426 0
M  V30 3960 C 386.714 -2.24133 -0.654722 0
M  V30 3961 C 387.695 -1.21974 -1.1856 0
M  V30 3962 O 388.88 -1.50612 -1.22595 0
M  V30 3963 C 386.01 -2.93659 -1.85423 0
M  V30 3964 C 384.964 -4.0246 -1.45636 0
M  V30 3965 C 384.29 -4.59383 -2.73626 0
M  V30 3966 C 385.59 -5.18468 -0.631506 0
M  V30 3967 H 387.284 -2.99281 -0.0844353 0
M  V30 3968 H 384.83 -1.43947 -0.0391707 0
M  V30 3969 H 386.783 -3.40203 -2.48676 0
M  V30 3970 H 385.507 -2.15991 -2.44981 0
M  V30 3971 H 384.166 -3.56676 -0.847202 0
M  V30 3972 H 383.814 -3.78422 -3.3137 0
M  V30 3973 H 383.514 -5.32826 -2.4773 0
M  V30 3974 H 385.038 -5.08658 -3.37786 0
M  V30 3975 H 386.452 -5.61272 -1.1682 0
M  V30 3976 H 384.849 -5.98266 -0.468831 0
M  V30 3977 H 385.919 -4.8358 0.357506 0
M  V30 3978 N 387.262 0.0317525 -1.57568 0
M  V30 3979 C 388.678 0.38735 -1.54828 0
M  V30 3980 C 388.878 1.7677 -0.967187 0
M  V30 3981 O 387.934 2.45581 -0.587063 0
M  V30 3982 C 389.247 0.291667 -2.99282 0
M  V30 3983 C 390.795 0.368946 -3.10818 0
M  V30 3984 C 391.27 0.302741 -4.56998 0
M  V30 3985 N 392.761 0.361617 -4.61786 0
M  V30 3986 C 393.496 0.333238 -5.72431 0
M  V30 3987 N 392.992 0.257308 -6.92322 0
M  V30 3988 N 394.785 0.382769 -5.60795 0
M  V30 3989 H 386.936 -0.871609 -1.93692 0
M  V30 3990 H 389.199 -0.331161 -0.888277 0
M  V30 3991 H 388.905 -0.656794 -3.45513 0
M  V30 3992 H 388.779 1.08638 -3.61217 0
M  V30 3993 H 391.166 1.30784 -2.64536 0
M  V30 3994 H 391.247 -0.455066 -2.5172 0
M  V30 3995 H 390.891 -0.632473 -5.03947 0
M  V30 3996 H 390.821 1.14482 -5.14005 0
M  V30 3997 H 393.312 0.422923 -3.75526 0
M  V30 3998 H 393.625 0.24068 -7.72425 0
M  V30 3999 H 391.97 0.223396 -6.94641 0
M  V30 4000 H 395.161 0.44006 -4.66027 0
M  V30 4001 H 395.334 0.357184 -6.47015 0
M  V30 4002 N 388.74 1.54641 0.303973 0
M  V30 4003 C 389.965 1.78092 1.06292 0
M  V30 4004 C 390.39 0.537342 1.80262 0
M  V30 4005 O 389.748 -0.511993 1.7392 0
M  V30 4006 C 389.796 2.98612 2.02147 0
M  V30 4007 O 388.9 2.71528 3.10397 0
M  V30 4008 H 388.241 0.589548 0.305497 0
M  V30 4009 H 390.771 2.01716 0.3423 0
M  V30 4010 H 390.781 3.265 2.44667 0
M  V30 4011 H 389.456 3.88785 1.47714 0
M  V30 4012 H 388.033 2.54648 2.72413 0
M  V30 4013 N 390.218 -0.567019 1.47046 0
M  V30 4014 C 391.166 -1.69593 1.59188 0
M  V30 4015 C 392.16 -1.63046 0.459609 0
M  V30 4016 O 393.366 -1.6835 0.637058 0
M  V30 4017 H 389.741 -0.560993 0.500791 0
M  V30 4018 H 391.712 -1.56488 2.54075 0
M  V30 4019 C 390.461 -3.07964 1.61411 0
M  V30 4020 H 389.784 -3.13679 2.47881 0
M  V30 4021 H 391.224 -3.86671 1.73958 0
M  V30 4022 C 389.683 -3.35123 0.34559 0
M  V30 4023 O 390.213 -3.97812 -0.557521 0
M  V30 4024 N 388.419 -2.89699 0.22864 0
M  V30 4025 H 387.966 -2.38863 0.964479 0
M  V30 4026 H 387.924 -3.08242 -0.619192 0
M  V30 4027 N 391.696 -1.35014 -0.812953 0
M  V30 4028 C 392.644 -1.27435 -1.94585 0
M  V30 4029 C 393.638 -0.170494 -1.6854 0
M  V30 4030 O 394.844 -0.336085 -1.76835 0
M  V30 4031 H 391.219 -0.396144 -0.639198 0
M  V30 4032 H 393.19 -2.23158 -1.98098 0
M  V30 4033 C 391.939 -1.05677 -3.31252 0
M  V30 4034 H 391.262 -1.89853 -3.51846 0
M  V30 4035 H 392.702 -1.04413 -4.10943 0
M  V30 4036 C 391.161 0.239615 -3.36047 0
M  V30 4037 O 391.691 1.23759 -3.8216 0
M  V30 4038 N 389.897 0.276186 -2.89285 0
M  V30 4039 H 389.444 -0.53653 -2.51951 0
M  V30 4040 H 389.402 1.14332 -2.92875 0
M  V30 4041 N 393.175 1.03435 -1.18907 0
M  V30 4042 C 394.4 1.80919 -1.01406 0
M  V30 4043 C 394.825 1.83055 0.432721 0
M  V30 4044 O 394.183 1.25252 1.31079 0
M  V30 4045 C 394.231 3.24091 -1.58105 0
M  V30 4046 O 393.335 4.04434 -0.806669 0
M  V30 4047 H 392.676 0.558709 -0.358803 0
M  V30 4048 H 395.206 1.30223 -1.57807 0
M  V30 4049 H 395.216 3.74853 -1.61087 0
M  V30 4050 H 393.891 3.21851 -2.6341 0
M  V30 4051 H 392.468 3.63091 -0.849666 0
M  V30 4052 N 394.653 0.992116 1.22453 0
M  V30 4053 C 395.616 0.546883 2.2258 0
M  V30 4054 C 396.616 -0.369829 1.56489 0
M  V30 4055 O 397.806 -0.161896 1.73446 0
M  V30 4056 C 394.938 -0.204659 3.40285 0
M  V30 4057 H 396.131 1.43234 2.63484 0
M  V30 4058 H 393.684 0.779239 1.3549 0
M  V30 4059 H 394.419 -1.10614 3.04853 0
M  V30 4060 H 394.204 0.45354 3.89468 0
M  V30 4061 H 395.694 -0.504358 4.14543 0
M  V30 4062 N 396.131 -1.37776 0.765217 0
M  V30 4063 C 397.359 -2.04124 0.337767 0
M  V30 4064 C 397.774 -1.57715 -1.03785 0
M  V30 4065 O 397.131 -0.755447 -1.6613 0
M  V30 4066 C 397.182 -3.59658 0.364442 0
M  V30 4067 O 396.903 -4.04367 1.68579 0
M  V30 4068 C 398.404 -4.43236 -0.0754221 0
M  V30 4069 H 395.624 -0.655696 0.142491 0
M  V30 4070 H 398.168 -1.76238 1.03732 0
M  V30 4071 H 396.323 -3.86339 -0.286471 0
M  V30 4072 H 396.737 -4.98857 1.61993 0
M  V30 4073 H 398.211 -5.52 -0.00560067 0
M  V30 4074 H 398.688 -4.2455 -1.12491 0
M  V30 4075 H 399.294 -4.21767 0.547055 0
M  V30 4076 N 397.609 -0.515225 -1.4894 0
M  V30 4077 C 398.539 0.244628 -2.32215 0
M  V30 4078 C 399.52 0.949136 -1.41157 0
M  V30 4079 O 400.705 0.937783 -1.70057 0
M  V30 4080 C 397.835 1.30096 -3.22013 0
M  V30 4081 C 396.789 0.715486 -4.21977 0
M  V30 4082 C 396.115 1.87339 -5.00808 0
M  V30 4083 C 397.415 -0.302982 -5.2142 0
M  V30 4084 H 399.109 -0.450501 -2.95991 0
M  V30 4085 H 396.655 -0.218098 -1.42339 0
M  V30 4086 H 398.608 1.84037 -3.79089 0
M  V30 4087 H 397.332 2.02547 -2.56207 0
M  V30 4088 H 395.991 0.197715 -3.66066 0
M  V30 4089 H 395.639 2.58592 -4.31438 0
M  V30 4090 H 395.339 1.48764 -5.68457 0
M  V30 4091 H 396.863 2.41686 -5.60732 0
M  V30 4092 H 398.277 0.148802 -5.73107 0
M  V30 4093 H 396.674 -0.60532 -5.97039 0
M  V30 4094 H 397.744 -1.21395 -4.69459 0
M  V30 4095 N 399.087 1.5561 -0.249682 0
M  V30 4096 C 400.336 1.98187 0.37479 0
M  V30 4097 C 400.649 1.14111 1.58865 0
M  V30 4098 O 401.855 1.46714 2.28445 0
M  V30 4099 C 400.311 3.52661 0.718192 0
M  V30 4100 C 399.919 4.45481 -0.474428 0
M  V30 4101 C 401.663 4.03888 1.3067 0
M  V30 4102 C 399.57 5.91303 -0.107026 0
M  V30 4103 H 398.5 0.740159 0.143808 0
M  V30 4104 H 401.151 1.80125 -0.350336 0
M  V30 4105 H 399.533 3.66429 1.50152 0
M  V30 4106 H 400.707 4.43473 -1.25172 0
M  V30 4107 H 399.022 4.04751 -0.978052 0
M  V30 4108 H 401.619 5.10358 1.59496 0
M  V30 4109 H 401.962 3.51401 2.23211 0
M  V30 4110 H 402.495 3.93457 0.586211 0
M  V30 4111 H 399.234 6.47833 -0.999642 0
M  V30 4112 H 398.754 5.9644 0.634013 0
M  V30 4113 H 400.433 6.46258 0.309807 0
M  V30 4114 N 400.565 -0.0233959 1.57583 0
M  V30 4115 C 401.811 -0.714119 1.89811 0
M  V30 4116 C 402.144 -1.74702 0.848113 0
M  V30 4117 O 401.419 -1.94023 -0.136135 0
M  V30 4118 C 401.702 -1.37853 3.32669 0
M  V30 4119 C 401.555 -0.358764 4.48367 0
M  V30 4120 C 402.874 -2.31101 3.7454 0
M  V30 4121 H 399.993 -0.25814 0.690314 0
M  V30 4122 H 402.635 0.0230927 1.89986 0
M  V30 4123 H 400.785 -2.00689 3.3265 0
M  V30 4124 H 402.457 0.268115 4.6052 0
M  V30 4125 H 400.7 0.321387 4.32608 0
M  V30 4126 H 401.371 -0.862242 5.45224 0
M  V30 4127 H 403.847 -1.78304 3.75961 0
M  V30 4128 H 402.723 -2.74567 4.75294 0
M  V30 4129 H 402.984 -3.18018 3.0711 0
M  V30 4130 N 402.043 -1.548 -0.295768 0
M  V30 4131 C 403.454 -1.65274 -0.868411 0
M  V30 4132 C 403.805 -0.56481 -1.87894 0
M  V30 4133 O 402.93 0.29767 -2.14343 0
M  V30 4134 C 403.525 -2.99603 -1.58188 0
M  V30 4135 C 402.084 -3.12181 -2.10286 0
M  V30 4136 C 401.231 -2.6098 -0.93727 0
M  V30 4137 H 404.182 -1.58534 -0.0726422 0
M  V30 4138 H 404.203 -2.91319 -2.44772 0
M  V30 4139 H 403.715 -3.78764 -0.846151 0
M  V30 4140 H 401.816 -2.3775 -2.8689 0
M  V30 4141 H 401.929 -4.18415 -2.33379 0
M  V30 4142 H 400.293 -2.17564 -1.32431 0
M  V30 4143 H 401.076 -3.42623 -0.215414 0
M  V30 4144 N 403.521 0.559213 -1.47345 0
M  V30 4145 C 404.751 1.33999 -1.57251 0
M  V30 4146 C 405.159 1.87905 -0.220978 0
M  V30 4147 O 404.502 1.65577 0.795617 0
M  V30 4148 C 404.564 2.54798 -2.53611 0
M  V30 4149 C 404.228 2.22192 -3.99349 0
M  V30 4150 C 405.225 1.79607 -4.87891 0
M  V30 4151 C 402.91 2.33613 -4.44669 0
M  V30 4152 C 404.904 1.48868 -6.19772 0
M  V30 4153 C 402.591 2.02487 -5.76578 0
M  V30 4154 C 403.589 1.60183 -6.63951 0
M  V30 4155 O 403.277 1.29451 -7.93409 0
M  V30 4156 H 403.009 0.414858 -0.533731 0
M  V30 4157 H 405.563 0.684465 -1.9366 0
M  V30 4158 H 403.793 3.23235 -2.12265 0
M  V30 4159 H 405.482 3.16873 -2.53666 0
M  V30 4160 H 406.248 1.70278 -4.54126 0
M  V30 4161 H 402.127 2.65501 -3.76869 0
M  V30 4162 H 405.671 1.15775 -6.87926 0
M  V30 4163 H 401.568 2.11448 -6.09885 0
M  V30 4164 H 402.336 1.43098 -8.05894 0
M  V30 4165 N 404.999 1.35443 0.805782 0
M  V30 4166 C 406.245 1.28952 1.56522 0
M  V30 4167 C 406.578 -0.135597 1.93726 0
M  V30 4168 O 405.853 -1.08516 1.61414 0
M  V30 4169 C 406.136 2.19678 2.85331 0
M  V30 4170 C 405.989 3.7081 2.54598 0
M  V30 4171 C 407.308 2.09495 3.8704 0
M  V30 4172 H 404.427 0.469764 0.567883 0
M  V30 4173 H 407.069 1.65851 0.927001 0
M  V30 4174 H 405.219 1.8834 3.39795 0
M  V30 4175 H 406.891 4.12593 2.06312 0
M  V30 4176 H 405.134 3.91051 1.8778 0
M  V30 4177 H 405.805 4.29679 3.46525 0
M  V30 4178 H 408.281 2.37045 3.41978 0
M  V30 4179 H 407.157 2.75173 4.74943 0
M  V30 4180 H 407.418 1.07714 4.28777 0
M  V30 4181 N 406.477 -1.02803 1.19454 0
M  V30 4182 C 407.425 -2.13213 0.929673 0
M  V30 4183 C 408.419 -1.69011 -0.114806 0
M  V30 4184 O 409.625 -1.79967 0.0345147 0
M  V30 4185 H 406 -0.69662 0.28324 0
M  V30 4186 H 407.971 -2.32744 1.86743 0
M  V30 4187 C 406.72 -3.4429 0.485797 0
M  V30 4188 H 406.043 -3.7872 1.28105 0
M  V30 4189 H 407.483 -4.22638 0.339582 0
M  V30 4190 C 405.942 -3.27258 -0.800244 0
M  V30 4191 O 406.472 -3.55967 -1.86146 0
M  V30 4192 N 404.678 -2.80545 -0.75781 0
M  V30 4193 H 404.225 -2.57382 0.106039 0
M  V30 4194 H 404.183 -2.6953 -1.61867 0
M  V30 4195 N 407.956 -0.998596 -1.21925 0
M  V30 4196 C 408.919 -0.558679 -2.22287 0
M  V30 4197 C 409.919 0.361525 -1.56683 0
M  V30 4198 O 411.109 0.152695 -1.73529 0
M  V30 4199 C 408.241 0.18661 -3.40389 0
M  V30 4200 H 409.434 -1.4463 -2.62721 0
M  V30 4201 H 406.987 -0.786413 -1.35075 0
M  V30 4202 H 407.722 1.08996 -3.05435 0
M  V30 4203 H 407.507 -0.474188 -3.89222 0
M  V30 4204 H 408.997 0.482367 -4.14805 0
M  V30 4205 N 409.434 1.37368 -0.772513 0
M  V30 4206 C 410.68 1.99969 -0.337681 0
M  V30 4207 C 411.013 1.61184 1.08321 0
M  V30 4208 O 410.288 0.858395 1.74533 0
M  V30 4209 C 410.571 3.56858 -0.482121 0
M  V30 4210 C 410.424 4.0555 -1.94549 0
M  V30 4211 C 411.743 4.39955 0.113143 0
M  V30 4212 H 408.862 0.726464 -0.124171 0
M  V30 4213 H 411.504 1.63034 -0.975699 0
M  V30 4214 H 409.654 3.88452 0.0610361 0
M  V30 4215 H 411.326 3.84518 -2.54841 0
M  V30 4216 H 409.569 3.57715 -2.45403 0
M  V30 4217 H 410.24 5.14587 -1.9976 0
M  V30 4218 H 412.716 4.14623 -0.35031 0
M  V30 4219 H 411.592 5.48897 -0.0180514 0
M  V30 4220 H 411.853 4.25403 1.20354 0
M  V30 4221 N 410.912 0.523116 1.48665 0
M  V30 4222 C 412.323 0.0808997 1.86525 0
M  V30 4223 C 412.674 -1.33975 1.43336 0
M  V30 4224 O 411.799 -2.00221 0.821009 0
M  V30 4225 C 412.394 0.140037 3.3851 0
M  V30 4226 C 410.953 -0.246948 3.75589 0
M  V30 4227 C 410.1 0.502845 2.72703 0
M  V30 4228 H 413.051 0.734736 1.40667 0
M  V30 4229 H 413.072 -0.649945 3.74908 0
M  V30 4230 H 412.584 1.17412 3.69914 0
M  V30 4231 H 410.685 -1.28343 3.49798 0
M  V30 4232 H 410.798 0.0878859 4.79019 0
M  V30 4233 H 409.162 -0.0500581 2.54651 0
M  V30 4234 H 409.945 1.53743 3.0695 0
M  V30 4235 N 412.39 -1.55475 0.257931 0
M  V30 4236 C 413.323 -2.179 -0.677862 0
M  V30 4237 C 414.301 -1.13448 -1.16483 0
M  V30 4238 O 415.485 -1.41889 -1.24095 0
M  V30 4239 C 412.612 -2.78851 -1.92249 0
M  V30 4240 C 411.658 -3.96454 -1.57246 0
M  V30 4241 S 412.491 -5.31349 -0.665501 0
M  V30 4242 C 413.647 -5.9576 -1.91889 0
M  V30 4243 H 413.88 -2.96934 -0.147396 0
M  V30 4244 H 411.413 -1.54342 0.0423023 0
M  V30 4245 H 413.371 -3.14602 -2.63697 0
M  V30 4246 H 412.032 -1.99742 -2.42409 0
M  V30 4247 H 411.225 -4.37731 -2.49814 0
M  V30 4248 H 410.827 -3.62038 -0.938325 0
M  V30 4249 H 413.119 -6.13947 -2.86487 0
M  V30 4250 H 414.062 -6.9094 -1.54942 0
M  V30 4251 H 414.47 -5.2494 -2.076 0
M  V30 4252 N 413.868 0.0150385 -1.57593 0
M  V30 4253 C 415.145 0.7392 -1.81094 0
M  V30 4254 C 415.525 1.92817 -0.859344 0
M  V30 4255 O 414.873 2.28301 0.095362 0
M  V30 4256 C 415.083 1.15907 -3.29191 0
M  V30 4257 C 416.431 1.56918 -3.9454 0
M  V30 4258 O 417.455 1.25328 -3.33424 0
M  V30 4259 O 416.314 2.15604 -5.02173 0
M  V30 4260 H 413.408 0.358631 -0.745193 0
M  V30 4261 H 415.954 -0.00926156 -1.69697 0
M  V30 4262 H 414.726 0.310921 -3.90063 0
M  V30 4263 H 414.349 1.96711 -3.45529 0
M  V30 4264 N 415.346 1.54954 0.287554 0
M  V30 4265 C 416.571 1.79209 1.04397 0
M  V30 4266 C 416.996 0.556431 1.79682 0
M  V30 4267 O 416.354 -0.493518 1.74454 0
M  V30 4268 C 416.402 3.00739 1.98969 0
M  V30 4269 O 415.506 2.74805 3.075 0
M  V30 4270 H 414.847 0.592755 0.299227 0
M  V30 4271 H 417.377 2.02068 0.320886 0
M  V30 4272 H 417.387 3.29077 2.4119 0
M  V30 4273 H 416.062 3.90329 1.43582 0
M  V30 4274 H 414.639 2.57523 2.69697 0
M  V30 4275 N 416.824 -0.551391 1.4764 0
M  V30 4276 C 417.757 -1.6738 1.5511 0
M  V30 4277 C 418.735 -1.5753 0.402856 0
M  V30 4278 O 419.919 -1.78307 0.611475 0
M  V30 4279 C 417.046 -3.05661 1.45908 0
M  V30 4280 C 416.092 -3.33938 2.65307 0
M  V30 4281 S 416.925 -3.22553 4.27457 0
M  V30 4282 C 418.081 -4.63317 4.20818 0
M  V30 4283 H 418.314 -1.6079 2.50068 0
M  V30 4284 H 415.847 -0.732674 1.35909 0
M  V30 4285 H 417.805 -3.8542 1.41286 0
M  V30 4286 H 416.466 -3.09711 0.523248 0
M  V30 4287 H 415.659 -4.34761 2.54948 0
M  V30 4288 H 415.261 -2.61809 2.67081 0
M  V30 4289 H 417.553 -5.54391 3.89431 0
M  V30 4290 H 418.496 -4.78732 5.21748 0
M  V30 4291 H 418.904 -4.41636 3.51593 0
M  V30 4292 N 418.302 -1.35869 -0.798587 0
M  V30 4293 C 419.232 -1.32118 -1.92528 0
M  V30 4294 C 420.213 -0.194209 -1.68988 0
M  V30 4295 O 421.398 -0.390426 -1.90235 0
M  V30 4296 C 418.528 -1.10047 -3.29404 0
M  V30 4297 C 417.482 -2.19471 -3.67446 0
M  V30 4298 C 416.808 -1.82555 -5.02571 0
M  V30 4299 C 418.108 -3.61495 -3.76987 0
M  V30 4300 H 419.802 -2.26394 -1.95924 0
M  V30 4301 H 417.348 -1.08981 -0.94123 0
M  V30 4302 H 419.301 -1.06061 -4.07835 0
M  V30 4303 H 418.025 -0.122195 -3.26371 0
M  V30 4304 H 416.684 -2.22568 -2.91306 0
M  V30 4305 H 416.332 -0.833249 -4.9605 0
M  V30 4306 H 416.032 -2.5581 -5.28995 0
M  V30 4307 H 417.556 -1.80108 -5.83432 0
M  V30 4308 H 418.97 -3.60676 -4.4563 0
M  V30 4309 H 417.367 -4.33577 -4.14887 0
M  V30 4310 H 418.437 -3.97065 -2.78329 0
M  V30 4311 N 419.78 1.02168 -1.19998 0
M  V30 4312 C 421.196 1.27969 -0.953737 0
M  V30 4313 C 421.396 1.98079 0.369703 0
M  V30 4314 O 420.452 2.27306 1.09947 0
M  V30 4315 C 421.765 2.11971 -2.13281 0
M  V30 4316 C 423.313 2.25255 -2.17323 0
M  V30 4317 C 423.788 3.12632 -3.34702 0
M  V30 4318 N 425.279 3.2022 -3.34684 0
M  V30 4319 C 426.014 3.88039 -4.22153 0
M  V30 4320 N 425.51 4.58027 -5.19791 0
M  V30 4321 N 427.303 3.84511 -4.10009 0
M  V30 4322 H 419.454 0.550794 -2.05134 0
M  V30 4323 H 421.717 0.305683 -0.897364 0
M  V30 4324 H 421.423 1.67785 -3.09097 0
M  V30 4325 H 421.297 3.12699 -2.10949 0
M  V30 4326 H 423.684 2.68667 -1.22073 0
M  V30 4327 H 423.765 1.24053 -2.23706 0
M  V30 4328 H 423.409 2.69926 -4.30235 0
M  V30 4329 H 423.339 4.13909 -3.25556 0
M  V30 4330 H 425.83 2.70382 -2.64012 0
M  V30 4331 H 426.143 5.07429 -5.82868 0
M  V30 4332 H 424.488 4.56869 -5.23733 0
M  V30 4333 H 427.679 3.28978 -3.33003 0
M  V30 4334 H 427.852 4.3709 -4.78389 0
M  V30 4335 N 421.258 1.00505 1.21394 0
M  V30 4336 C 422.208 0.536503 2.21598 0
M  V30 4337 C 423.192 -0.401914 1.55799 0
M  V30 4338 O 424.384 -0.226757 1.75541 0
M  V30 4339 C 421.513 -0.135446 3.43033 0
M  V30 4340 C 420.599 0.823992 4.16018 0
M  V30 4341 N 420.99 1.97683 4.6557 0
M  V30 4342 C 419.288 0.642387 4.4135 0
M  V30 4343 C 419.989 2.58003 5.21354 0
M  V30 4344 N 418.965 1.86162 5.1073 0
M  V30 4345 H 422.767 1.41557 2.57563 0
M  V30 4346 H 420.281 0.868878 1.37202 0
M  V30 4347 H 422.278 -0.488584 4.14027 0
M  V30 4348 H 420.938 -1.01049 3.08576 0
M  V30 4349 H 421.949 2.3572 4.61147 0
M  V30 4350 H 418.626 -0.185578 4.17087 0
M  V30 4351 H 420.016 3.555 5.70149 0
M  V30 4352 N 422.737 -1.36956 0.779787 0
M  V30 4353 C 423.685 -2.32053 0.15942 0
M  V30 4354 C 424.679 -1.55333 -0.675878 0
M  V30 4355 O 425.885 -1.70668 -0.57204 0
M  V30 4356 H 422.26 -0.751286 0.0327707 0
M  V30 4357 H 424.231 -2.8195 0.977078 0
M  V30 4358 C 422.98 -3.40602 -0.698977 0
M  V30 4359 H 422.303 -3.99746 -0.0655966 0
M  V30 4360 H 423.743 -4.09486 -1.09989 0
M  V30 4361 C 422.202 -2.81359 -1.85307 0
M  V30 4362 O 422.732 -2.72751 -2.94906 0
M  V30 4363 N 420.938 -2.38786 -1.65619 0
M  V30 4364 H 420.485 -2.45987 -0.764725 0
M  V30 4365 H 420.443 -1.99493 -2.43002 0
M  V30 4366 N 424.215 -0.530993 -1.48385 0
M  V30 4367 C 425.163 0.244595 -2.3131 0
M  V30 4368 C 426.157 0.93451 -1.41291 0
M  V30 4369 O 427.363 0.85878 -1.58193 0
M  V30 4370 H 423.738 0.0977472 -0.74562 0
M  V30 4371 H 425.709 -0.474369 -2.94605 0
M  V30 4372 C 424.458 1.2779 -3.23365 0
M  V30 4373 H 423.781 0.756439 -3.92579 0
M  V30 4374 H 425.221 1.79198 -3.84271 0
M  V30 4375 C 423.68 2.31205 -2.45042 0
M  V30 4376 O 424.21 3.37661 -2.17596 0
M  V30 4377 N 422.416 2.04446 -2.0652 0
M  V30 4378 H 421.963 1.17891 -2.2904 0
M  V30 4379 H 421.921 2.73861 -1.54427 0
M  V30 4380 N 425.693 1.55336 -0.266172 0
M  V30 4381 C 426.939 2.00423 0.346714 0
M  V30 4382 C 427.294 1.15132 1.54151 0
M  V30 4383 O 426.587 0.211289 1.90431 0
M  V30 4384 C 426.781 3.48606 0.787957 0
M  V30 4385 C 426.61 4.48236 -0.362535 0
M  V30 4386 C 425.38 4.98211 -0.843445 0
M  V30 4387 C 427.578 5.00199 -1.19603 0
M  V30 4388 N 425.56 5.81625 -1.96434 0
M  V30 4389 C 426.931 5.80973 -2.16497 0
M  V30 4390 C 428.986 4.82458 -1.2304 0
M  V30 4391 C 427.689 6.45896 -3.1656 0
M  V30 4392 C 429.715 5.48174 -2.21944 0
M  V30 4393 C 429.077 6.28751 -3.17571 0
M  V30 4394 H 425.176 0.776535 0.0922914 0
M  V30 4395 H 427.76 1.90792 -0.388154 0
M  V30 4396 H 425.931 3.58597 1.49207 0
M  V30 4397 H 427.663 3.80538 1.37742 0
M  V30 4398 H 424.418 4.71696 -0.424271 0
M  V30 4399 H 424.842 6.28025 -2.52813 0
M  V30 4400 H 429.484 4.19774 -0.504903 0
M  V30 4401 H 427.202 7.07734 -3.90048 0
M  V30 4402 H 430.788 5.36392 -2.25333 0
M  V30 4403 H 429.668 6.78703 -3.92851 0
M  V30 4404 N 427.171 -0.0066808 1.57599 0
M  V30 4405 C 428.396 -0.707738 1.94951 0
M  V30 4406 C 428.821 -1.66882 0.867868 0
M  V30 4407 O 428.179 -1.80457 -0.17458 0
M  V30 4408 C 428.227 -1.42162 3.31394 0
M  V30 4409 O 427.331 -2.53578 3.25226 0
M  V30 4410 H 426.672 -0.188752 0.636607 0
M  V30 4411 H 429.202 0.0445193 2.04552 0
M  V30 4412 H 429.212 -1.78655 3.66806 0
M  V30 4413 H 427.887 -0.716903 4.09675 0
M  V30 4414 H 426.464 -2.19463 3.01481 0
M  V30 4415 N 428.649 -1.55105 -0.279332 0
M  V30 4416 C 429.579 -1.90557 -1.34945 0
M  V30 4417 C 430.56 -0.766738 -1.51839 0
M  V30 4418 O 431.745 -1.02434 -1.64988 0
M  V30 4419 C 428.875 -2.17193 -2.71006 0
M  V30 4420 C 427.829 -3.33021 -2.68851 0
M  V30 4421 C 427.155 -3.45123 -4.08405 0
M  V30 4422 C 428.455 -4.69578 -2.28678 0
M  V30 4423 H 430.149 -2.80188 -1.05522 0
M  V30 4424 H 427.695 -1.34811 -0.506173 0
M  V30 4425 H 429.648 -2.40581 -3.45975 0
M  V30 4426 H 428.372 -1.24355 -3.01999 0
M  V30 4427 H 427.031 -3.0959 -1.9634 0
M  V30 4428 H 426.679 -2.49762 -4.3661 0
M  V30 4429 H 426.379 -4.22995 -4.07859 0
M  V30 4430 H 427.903 -3.70796 -4.85121 0
M  V30 4431 H 429.317 -4.92553 -2.93368 0
M  V30 4432 H 427.714 -5.5032 -2.39306 0
M  V30 4433 H 428.784 -4.68828 -1.23807 0
M  V30 4434 N 430.127 0.543554 -1.4793 0
M  V30 4435 C 431.373 1.30201 -1.55485 0
M  V30 4436 C 431.706 1.92925 -0.222201 0
M  V30 4437 O 430.981 1.78586 0.77053 0
M  V30 4438 C 431.264 2.40174 -2.68307 0
M  V30 4439 C 431.117 1.8223 -4.11233 0
M  V30 4440 C 432.436 3.42024 -2.76961 0
M  V30 4441 H 429.555 0.472036 -0.565996 0
M  V30 4442 H 432.197 0.606914 -1.80046 0
M  V30 4443 H 430.347 2.99463 -2.47495 0
M  V30 4444 H 432.019 1.27096 -4.43446 0
M  V30 4445 H 430.262 1.12832 -4.18869 0
M  V30 4446 H 430.933 2.61793 -4.85972 0
M  V30 4447 H 433.409 2.92672 -2.95774 0
M  V30 4448 H 432.285 4.16383 -3.57654 0
M  V30 4449 H 432.546 4.0173 -1.84568 0
M  V30 4450 N 431.605 1.3629 0.791371 0
M  V30 4451 C 432.854 1.29742 1.54434 0
M  V30 4452 C 433.167 -0.121729 1.95221 0
M  V30 4453 O 434.373 -0.309579 2.69729 0
M  V30 4454 C 432.829 2.27623 2.78776 0
M  V30 4455 C 432.437 3.74963 2.45166 0
M  V30 4456 C 434.181 2.30047 3.56761 0
M  V30 4457 C 432.088 4.64626 3.65891 0
M  V30 4458 H 431.018 0.482113 0.579727 0
M  V30 4459 H 433.669 1.61642 0.868565 0
M  V30 4460 H 432.051 1.88714 3.48142 0
M  V30 4461 H 433.225 4.22596 1.83709 0
M  V30 4462 H 431.54 3.75295 1.80396 0
M  V30 4463 H 434.137 2.94247 4.46456 0
M  V30 4464 H 434.48 1.30846 3.95203 0
M  V30 4465 H 435.013 2.67563 2.94372 0
M  V30 4466 H 431.752 5.64883 3.32547 0
M  V30 4467 H 431.272 4.2171 4.26521 0
M  V30 4468 H 432.951 4.80801 4.32943 0
M  V30 4469 N 433.083 -1.0153 1.20538 0
M  V30 4470 C 434.332 -1.74558 1.01057 0
M  V30 4471 C 434.645 -1.90168 -0.457756 0
M  V30 4472 O 435.851 -2.60301 -0.771722 0
M  V30 4473 C 434.307 -3.13963 1.75941 0
M  V30 4474 C 433.915 -3.06361 3.26875 0
M  V30 4475 C 435.659 -3.91191 1.64832 0
M  V30 4476 C 433.566 -4.40782 3.94291 0
M  V30 4477 H 432.496 -0.654417 0.374505 0
M  V30 4478 H 435.147 -1.13521 1.44171 0
M  V30 4479 H 433.529 -3.75549 1.25614 0
M  V30 4480 H 434.703 -2.54074 3.84425 0
M  V30 4481 H 433.018 -2.42625 3.38411 0
M  V30 4482 H 435.615 -4.90644 2.12539 0
M  V30 4483 H 435.958 -4.11884 0.604745 0
M  V30 4484 H 436.491 -3.36236 2.12579 0
M  V30 4485 H 433.23 -4.25292 4.98805 0
M  V30 4486 H 432.75 -4.9307 3.41529 0
M  V30 4487 H 434.429 -5.09621 3.98617 0
M  V30 4488 N 434.561 -1.01147 -1.20859 0
M  V30 4489 C 435.972 -0.730205 -1.71828 0
M  V30 4490 C 436.323 0.751662 -1.8123 0
M  V30 4491 O 435.448 1.58686 -1.47132 0
M  V30 4492 C 436.043 -1.31885 -3.12077 0
M  V30 4493 C 434.602 -1.08656 -3.60376 0
M  V30 4494 C 433.749 -1.42769 -2.37723 0
M  V30 4495 H 436.7 -1.18158 -1.05945 0
M  V30 4496 H 436.721 -0.706793 -3.73878 0
M  V30 4497 H 436.233 -2.39737 -3.05201 0
M  V30 4498 H 434.334 -0.0254814 -3.72591 0
M  V30 4499 H 434.447 -1.76301 -4.45483 0
M  V30 4500 H 432.811 -0.846603 -2.40218 0
M  V30 4501 H 433.594 -2.51666 -2.33493 0
M  V30 4502 N 436.039 1.36541 -0.78704 0
M  V30 4503 C 437.288 1.98552 -0.35494 0
M  V30 4504 C 437.601 1.63171 1.07864 0
M  V30 4505 O 438.807 2.18399 1.61289 0
M  V30 4506 C 437.263 3.55136 -0.583671 0
M  V30 4507 C 436.871 3.99444 -2.02851 0
M  V30 4508 C 438.615 4.2395 -0.215957 0
M  V30 4509 C 436.522 5.48796 -2.20403 0
M  V30 4510 H 435.452 0.742888 -0.128972 0
M  V30 4511 H 438.103 1.5587 -0.968337 0
M  V30 4512 H 436.485 3.95875 0.0994046 0
M  V30 4513 H 437.659 3.6991 -2.74779 0
M  V30 4514 H 435.974 3.43459 -2.35425 0
M  V30 4515 H 438.571 5.33709 -0.325405 0
M  V30 4516 H 438.914 4.07827 0.835646 0
M  V30 4517 H 439.447 3.88565 -0.852175 0
M  V30 4518 H 436.186 5.69864 -3.23937 0
M  V30 4519 H 435.706 5.79964 -1.52977 0
M  V30 4520 H 437.385 6.14986 -2.01002 0
M  V30 4521 N 437.518 0.538854 1.48102 0
M  V30 4522 C 438.743 0.0102694 2.07397 0
M  V30 4523 C 439.168 -1.26562 1.39153 0
M  V30 4524 O 438.526 -1.75357 0.460387 0
M  V30 4525 C 438.574 -0.187602 3.60112 0
M  V30 4526 O 437.678 -1.25432 3.92862 0
M  V30 4527 H 437.019 0.0430975 0.6626 0
M  V30 4528 H 439.549 0.749301 1.90385 0
M  V30 4529 H 439.559 -0.407517 4.0596 0
M  V30 4530 H 438.234 0.744386 4.09184 0
M  V30 4531 H 436.811 -1.01636 3.58782 0
M  V30 4532 N 438.996 -1.55193 0.274407 0
M  V30 4533 C 440.407 -1.85358 -0.223488 0
M  V30 4534 C 440.758 -1.19642 -1.555 0
M  V30 4535 O 439.883 -0.484498 -2.10907 0
M  V30 4536 C 440.478 -3.36282 -0.412285 0
M  V30 4537 C 439.037 -3.66574 -0.854413 0
M  V30 4538 C 438.184 -2.7725 0.0527056 0
M  V30 4539 H 441.135 -1.50743 0.496215 0
M  V30 4540 H 441.156 -3.59349 -1.25094 0
M  V30 4541 H 440.668 -3.84083 0.556965 0
M  V30 4542 H 438.769 -3.24273 -1.83516 0
M  V30 4543 H 438.882 -4.74073 -0.692226 0
M  V30 4544 H 437.246 -2.50447 -0.463484 0
M  V30 4545 H 438.029 -3.27865 1.01783 0
M  V30 4546 N 440.474 -0.00167713 -1.576 0
M  V30 4547 C 441.404 0.988091 -2.11563 0
M  V30 4548 C 442.385 1.35736 -1.02517 0
M  V30 4549 O 443.57 1.44082 -1.30208 0
M  V30 4550 C 440.7 2.27941 -2.62031 0
M  V30 4551 C 439.654 2.0517 -3.75619 0
M  V30 4552 C 438.98 3.4033 -4.12407 0
M  V30 4553 C 440.28 1.41294 -5.02825 0
M  V30 4554 H 441.974 0.538771 -2.94513 0
M  V30 4555 H 439.52 0.257712 -1.41675 0
M  V30 4556 H 441.473 2.97539 -2.9841 0
M  V30 4557 H 440.197 2.74989 -1.76205 0
M  V30 4558 H 438.856 1.37998 -3.39635 0
M  V30 4559 H 438.504 3.85085 -3.23603 0
M  V30 4560 H 438.204 3.25909 -4.88935 0
M  V30 4561 H 439.728 4.1124 -4.51347 0
M  V30 4562 H 441.142 2.00851 -5.36965 0
M  V30 4563 H 439.539 1.37356 -5.84169 0
M  V30 4564 H 440.609 0.382362 -4.8339 0
M  V30 4565 N 441.952 1.55251 0.271103 0
M  V30 4566 C 443.368 1.47133 0.618393 0
M  V30 4567 C 443.568 0.686994 1.89427 0
M  V30 4568 O 442.624 0.206609 2.51653 0
M  V30 4569 C 443.937 2.91361 0.743593 0
M  V30 4570 C 445.485 3.01587 0.837522 0
M  V30 4571 C 445.96 4.47073 0.994483 0
M  V30 4572 N 447.451 4.50909 1.05996 0
M  V30 4573 C 448.186 5.60698 1.20024 0
M  V30 4574 N 447.682 6.80348 1.30759 0
M  V30 4575 N 449.475 5.48444 1.23149 0
M  V30 4576 H 441.626 2.04698 -0.566784 0
M  V30 4577 H 443.889 0.928319 -0.192165 0
M  V30 4578 H 443.595 3.51483 -0.123493 0
M  V30 4579 H 443.469 3.40484 1.62328 0
M  V30 4580 H 445.856 2.4156 1.69507 0
M  V30 4581 H 445.937 2.55713 -0.0668086 0
M  V30 4582 H 445.581 5.07703 0.141582 0
M  V30 4583 H 445.511 4.90605 1.91349 0
M  V30 4584 H 448.002 3.6472 0.989316 0
M  V30 4585 H 448.315 7.59772 1.41303 0
M  V30 4586 H 446.66 6.83156 1.27761 0
M  V30 4587 H 449.851 4.53907 1.14394 0
M  V30 4588 H 450.024 6.34049 1.33738 0
M  V30 4589 N 443.43 -0.535701 1.48216 0
M  V30 4590 C 444.655 -1.32149 1.59848 0
M  V30 4591 C 445.08 -1.86338 0.256842 0
M  V30 4592 O 444.438 -1.64107 -0.770632 0
M  V30 4593 C 444.486 -2.45224 2.64381 0
M  V30 4594 O 443.59 -3.48093 2.21144 0
M  V30 4595 H 442.931 -0.391634 0.536208 0
M  V30 4596 H 445.461 -0.645202 1.94161 0
M  V30 4597 H 445.471 -2.91491 2.85476 0
M  V30 4598 H 444.146 -2.05143 3.61786 0
M  V30 4599 H 442.723 -3.07984 2.10239 0
M  V30 4600 N 444.908 -1.36708 -0.784132 0
M  V30 4601 C 445.818 -1.3363 -1.92822 0
M  V30 4602 C 446.834 -0.237686 -1.72369 0
M  V30 4603 O 448.01 -0.470962 -1.95816 0
M  V30 4604 C 445.075 -1.13011 -3.27764 0
M  V30 4605 C 444.136 -2.32397 -3.60957 0
M  V30 4606 C 443.369 -2.12752 -4.89461 0
M  V30 4607 O 443.592 -1.10541 -5.59586 0
M  V30 4608 O 442.526 -3.00653 -5.21432 0
M  V30 4609 H 446.352 -2.29964 -1.98369 0
M  V30 4610 H 443.937 -1.1731 -0.925136 0
M  V30 4611 H 445.819 -1.03451 -4.08504 0
M  V30 4612 H 444.494 -0.19743 -3.23097 0
M  V30 4613 H 443.401 -2.47527 -2.80502 0
M  V30 4614 H 444.734 -3.2419 -3.70354 0
M  V30 4615 N 446.386 1.0089 -1.21074 0
M  V30 4616 C 447.614 1.78191 -1.05145 0
M  V30 4617 C 448.029 1.84537 0.398952 0
M  V30 4618 O 447.386 1.30393 1.27687 0
M  V30 4619 C 447.437 3.22288 -1.63746 0
M  V30 4620 O 447.158 3.16315 -3.03111 0
M  V30 4621 C 448.659 4.16106 -1.52875 0
M  V30 4622 H 445.879 0.560129 -0.369454 0
M  V30 4623 H 448.423 1.26945 -1.60328 0
M  V30 4624 H 446.578 3.70655 -1.12664 0
M  V30 4625 H 446.992 4.06817 -3.31059 0
M  V30 4626 H 448.466 5.15026 -1.98626 0
M  V30 4627 H 448.943 4.36541 -0.482521 0
M  V30 4628 H 449.549 3.73625 -2.03185 0
M  V30 4629 N 447.864 1.01787 1.20321 0
M  V30 4630 C 449.092 0.727194 1.937 0
M  V30 4631 C 449.507 -0.712305 1.74848 0
M  V30 4632 O 448.864 -1.48327 1.06327 0
M  V30 4633 C 448.915 1.05497 3.45764 0
M  V30 4634 O 448.636 2.43794 3.64 0
M  V30 4635 C 450.137 0.785534 4.36285 0
M  V30 4636 H 447.357 0.266939 0.615617 0
M  V30 4637 H 449.901 1.35939 1.52777 0
M  V30 4638 H 448.056 0.468158 3.84561 0
M  V30 4639 H 448.47 2.55656 4.57974 0
M  V30 4640 H 449.944 1.06495 5.4163 0
M  V30 4641 H 450.421 -0.280273 4.38305 0
M  V30 4642 H 451.027 1.35456 4.03152 0
M  V30 4643 N 449.342 -1.36122 0.79427 0
M  V30 4644 C 450.567 -2.03891 0.379871 0
M  V30 4645 C 450.992 -1.59488 -0.997251 0
M  V30 4646 O 450.35 -0.765652 -1.64339 0
M  V30 4647 C 450.398 -3.57687 0.457442 0
M  V30 4648 O 449.502 -4.08931 -0.5338 0
M  V30 4649 H 448.843 -0.6443 0.160541 0
M  V30 4650 H 451.373 -1.73976 1.07673 0
M  V30 4651 H 451.383 -4.06721 0.322792 0
M  V30 4652 H 450.058 -3.89357 1.46199 0
M  V30 4653 H 448.635 -3.71154 -0.360409 0
M  V30 4654 N 450.82 -0.546701 -1.47814 0
M  V30 4655 C 452.045 -0.021268 -2.07389 0
M  V30 4656 C 452.47 1.25822 -1.39822 0
M  V30 4657 O 451.828 1.75111 -0.46968 0
M  V30 4658 C 451.876 0.168502 -3.60206 0
M  V30 4659 O 450.98 1.23347 -3.93522 0
M  V30 4660 H 450.321 -0.0466108 -0.662362 0
M  V30 4661 H 452.851 -0.759387 -1.89985 0
M  V30 4662 H 452.861 0.385982 -4.0617 0
M  V30 4663 H 451.536 -0.766075 -4.08784 0
M  V30 4664 H 450.113 0.997319 -3.59316 0
M  V30 4665 N 452.299 1.55045 -0.282633 0
M  V30 4666 C 453.247 2.24254 0.617478 0
M  V30 4667 C 454.241 1.24215 1.15183 0
M  V30 4668 O 455.447 1.42123 1.10459 0
M  V30 4669 H 451.822 0.719801 0.217693 0
M  V30 4670 H 453.793 2.98398 0.0110076 0
M  V30 4671 C 452.542 2.98281 1.78672 0
M  V30 4672 H 451.865 3.75053 1.38475 0
M  V30 4673 H 453.305 3.50017 2.393 0
M  V30 4674 C 451.764 2.04184 2.67975 0
M  V30 4675 O 452.294 1.59792 3.6855 0
M  V30 4676 N 450.5 1.70526 2.35307 0
M  V30 4677 H 450.047 2.06821 1.53567 0
M  V30 4678 H 450.005 1.07839 2.95327 0
M  V30 4679 N 453.777 0.010035 1.57597 0
M  V30 4680 C 455.026 -0.671945 1.90178 0
M  V30 4681 C 455.339 -1.74376 0.886131 0
M  V30 4682 O 456.545 -2.48107 1.10252 0
M  V30 4683 C 455.001 -1.24636 3.3763 0
M  V30 4684 C 454.609 -0.208838 4.47513 0
M  V30 4685 C 456.353 -1.90595 3.79307 0
M  V30 4686 C 454.26 -0.793814 5.86048 0
M  V30 4687 H 453.19 -0.25474 0.709665 0
M  V30 4688 H 455.841 0.0722206 1.83358 0
M  V30 4689 H 454.223 -2.04152 3.3932 0
M  V30 4690 H 455.397 0.562463 4.57354 0
M  V30 4691 H 453.712 0.350889 4.14919 0
M  V30 4692 H 456.309 -2.35284 4.80151 0
M  V30 4693 H 456.652 -2.74074 3.13352 0
M  V30 4694 H 457.185 -1.17798 3.79958 0
M  V30 4695 H 453.924 0.00240855 6.555 0
M  V30 4696 H 453.444 -1.53404 5.79851 0
M  V30 4697 H 455.123 -1.2894 6.34022 0
M  V30 4698 N 455.255 -1.55392 -0.262866 0
M  V30 4699 C 456.501 -1.76737 -0.99458 0
M  V30 4700 C 456.834 -0.572453 -1.85571 0
M  V30 4701 O 456.109 0.429732 -1.89693 0
M  V30 4702 C 456.392 -3.07824 -1.8686 0
M  V30 4703 C 456.245 -4.3769 -1.03672 0
M  V30 4704 C 457.564 -3.35021 -2.85393 0
M  V30 4705 H 454.683 -0.643005 -0.360157 0
M  V30 4706 H 457.325 -1.88126 -0.266216 0
M  V30 4707 H 455.475 -2.98245 -2.48962 0
M  V30 4708 H 457.147 -4.59238 -0.43563 0
M  V30 4709 H 455.39 -4.32461 -0.340513 0
M  V30 4710 H 456.061 -5.25759 -1.6817 0
M  V30 4711 H 458.537 -3.44458 -2.33426 0
M  V30 4712 H 457.413 -4.27989 -3.43681 0
M  V30 4713 H 457.674 -2.55153 -3.61039 0
M  V30 4714 N 456.733 0.527833 -1.48498 0
M  V30 4715 C 458.144 1.10975 -1.50138 0
M  V30 4716 C 458.495 1.943 -0.272378 0
M  V30 4717 O 457.62 2.07319 0.620301 0
M  V30 4718 C 458.215 2.01927 -2.72049 0
M  V30 4719 C 456.774 2.55332 -2.76554 0
M  V30 4720 C 455.921 1.32341 -2.43683 0
M  V30 4721 H 458.872 0.312986 -1.55583 0
M  V30 4722 H 458.893 2.86244 -2.50689 0
M  V30 4723 H 458.405 1.41254 -3.61481 0
M  V30 4724 H 456.506 3.19721 -1.91336 0
M  V30 4725 H 456.619 2.94319 -3.78038 0
M  V30 4726 H 454.983 1.63989 -1.94884 0
M  V30 4727 H 455.766 0.734165 -3.35358 0
M  V30 4728 N 458.211 1.37122 0.776871 0
M  V30 4729 C 459.46 1.31373 1.53049 0
M  V30 4730 C 459.773 -0.101016 1.95339 0
M  V30 4731 O 460.979 -0.280953 2.70042 0
M  V30 4732 C 459.435 2.30567 2.76346 0
M  V30 4733 C 459.043 3.77543 2.41175 0
M  V30 4734 C 460.787 2.33818 3.54301 0
M  V30 4735 C 458.694 4.68481 3.60943 0
M  V30 4736 H 457.624 0.488234 0.574581 0
M  V30 4737 H 460.275 1.62554 0.851372 0
M  V30 4738 H 458.657 1.92396 3.46121 0
M  V30 4739 H 459.831 4.24521 1.79216 0
M  V30 4740 H 458.146 3.77187 1.76405 0
M  V30 4741 H 460.743 2.98965 4.4331 0
M  V30 4742 H 461.086 1.3503 3.93793 0
M  V30 4743 H 461.619 2.7067 2.91518 0
M  V30 4744 H 458.358 5.68378 3.26537 0
M  V30 4745 H 457.878 4.2621 4.22025 0
M  V30 4746 H 459.557 4.85366 4.27819 0
M  V30 4747 N 459.689 -1.00246 1.21608 0
M  V30 4748 C 460.917 -1.77631 1.06089 0
M  V30 4749 C 461.332 -1.84746 -0.38916 0
M  V30 4750 O 460.689 -1.31068 -1.26994 0
M  V30 4751 C 460.74 -3.21415 1.65453 0
M  V30 4752 O 460.461 -3.14703 3.04785 0
M  V30 4753 C 461.962 -4.15289 1.55079 0
M  V30 4754 H 459.182 -0.558162 0.37242 0
M  V30 4755 H 461.726 -1.26093 1.60999 0
M  V30 4756 H 459.881 -3.70053 1.14629 0
M  V30 4757 H 460.295 -4.05056 3.33212 0
M  V30 4758 H 461.769 -5.13965 2.01355 0
M  V30 4759 H 462.246 -4.36279 0.505665 0
M  V30 4760 H 462.852 -3.72543 2.05163 0
M  V30 4761 N 461.167 -1.02423 -1.1978 0
M  V30 4762 C 462.413 -0.719051 -1.89625 0
M  V30 4763 C 462.746 0.750083 -1.7913 0
M  V30 4764 O 462.021 1.54574 -1.18056 0
M  V30 4765 C 462.304 -1.16499 -3.40735 0
M  V30 4766 C 462.157 -2.695 -3.60125 0
M  V30 4767 C 463.476 -0.742166 -4.33797 0
M  V30 4768 H 460.595 -0.26269 -0.688595 0
M  V30 4769 H 463.237 -1.27333 -1.41018 0
M  V30 4770 H 461.387 -0.69341 -3.82262 0
M  V30 4771 H 463.059 -3.24569 -3.278 0
M  V30 4772 H 461.302 -3.10113 -3.03336 0
M  V30 4773 H 461.973 -2.95757 -4.66081 0
M  V30 4774 H 464.449 -1.1477 -3.99959 0
M  V30 4775 H 463.325 -1.08213 -5.38127 0
M  V30 4776 H 463.586 0.355747 -4.40666 0
M  V30 4777 N 462.645 1.35699 -0.801477 0
M  V30 4778 C 463.87 2.03687 -0.390678 0
M  V30 4779 C 464.295 1.60015 0.988778 0
M  V30 4780 O 463.653 0.774357 1.63931 0
M  V30 4781 C 463.701 3.57439 -0.476404 0
M  V30 4782 O 462.805 4.09208 0.512106 0
M  V30 4783 H 462.146 0.64344 -0.163956 0
M  V30 4784 H 464.676 1.73403 -1.08594 0
M  V30 4785 H 464.686 4.06544 -0.344357 0
M  V30 4786 H 463.361 3.88576 -1.48262 0
M  V30 4787 H 461.938 3.7134 0.340721 0
M  V30 4788 N 464.123 0.554532 1.47522 0
M  V30 4789 C 465.372 0.0273458 2.01681 0
M  V30 4790 C 465.685 -1.32962 1.43459 0
M  V30 4791 O 466.891 -1.94657 1.89265 0
M  V30 4792 C 465.347 -0.00159057 3.599 0
M  V30 4793 C 464.955 1.35197 4.27113 0
M  V30 4794 C 466.699 -0.476311 4.21819 0
M  V30 4795 C 464.606 1.28229 5.77331 0
M  V30 4796 H 463.536 0.00645269 0.753972 0
M  V30 4797 H 466.187 0.701985 1.69542 0
M  V30 4798 H 464.569 -0.741821 3.8899 0
M  V30 4799 H 465.743 2.1097 4.09668 0
M  V30 4800 H 464.058 1.76441 3.77171 0
M  V30 4801 H 466.655 -0.5468 5.31897 0
M  V30 4802 H 466.998 -1.4877 3.8881 0
M  V30 4803 H 467.531 0.20898 3.97251 0
M  V30 4804 H 464.27 2.26959 6.14955 0
M  V30 4805 H 463.79 0.566314 5.97121 0
M  V30 4806 H 465.469 0.983226 6.39485 0
M  V30 4807 N 465.601 -1.54893 0.290851 0
M  V30 4808 C 466.826 -2.04804 -0.32712 0
M  V30 4809 C 467.251 -1.16721 -1.47506 0
M  V30 4810 O 466.609 -0.169107 -1.8051 0
M  V30 4811 C 466.657 -3.52268 -0.770689 0
M  V30 4812 O 465.761 -3.67236 -1.87647 0
M  V30 4813 H 465.102 -0.660789 -0.0652227 0
M  V30 4814 H 467.632 -2.00036 0.429739 0
M  V30 4815 H 467.642 -3.9393 -1.06223 0
M  V30 4816 H 466.317 -4.15843 0.069096 0
M  V30 4817 H 464.894 -3.37479 -1.58626 0
M  V30 4818 N 467.08 -0.0183926 -1.57589 0
M  V30 4819 C 468.491 0.521927 -1.79256 0
M  V30 4820 C 468.842 1.72885 -0.927636 0
M  V30 4821 O 467.967 2.15978 -0.135091 0
M  V30 4822 C 468.562 0.953632 -3.25102 0
M  V30 4823 C 467.121 1.43913 -3.47801 0
M  V30 4824 C 466.268 0.398837 -2.74417 0
M  V30 4825 H 469.219 -0.244485 -1.56805 0
M  V30 4826 H 469.24 1.81863 -3.34224 0
M  V30 4827 H 468.752 0.0750123 -3.88028 0
M  V30 4828 H 466.853 2.33804 -2.90115 0
M  V30 4829 H 466.966 1.45391 -4.56507 0
M  V30 4830 H 465.33 0.864572 -2.39577 0
M  V30 4831 H 466.113 -0.471132 -3.40052 0
M  V30 4832 N 468.558 1.5553 0.254621 0
M  V30 4833 C 469.491 1.84624 1.34124 0
M  V30 4834 C 470.469 0.700693 1.46728 0
M  V30 4835 O 471.653 0.94564 1.63064 0
M  V30 4836 C 468.78 2.02412 2.71564 0
M  V30 4837 C 467.826 3.25028 2.7615 0
M  V30 4838 S 468.659 4.81893 2.33538 0
M  V30 4839 C 469.815 5.02677 3.72917 0
M  V30 4840 H 470.048 2.76501 1.09245 0
M  V30 4841 H 467.581 1.47537 0.455211 0
M  V30 4842 H 469.539 2.13345 3.50705 0
M  V30 4843 H 468.2 1.11391 2.93685 0
M  V30 4844 H 467.393 3.34418 3.77069 0
M  V30 4845 H 466.995 3.12781 2.05046 0
M  V30 4846 H 469.287 4.89546 4.68349 0
M  V30 4847 H 470.23 6.0468 3.68467 0
M  V30 4848 H 470.638 4.30561 3.65072 0
M  V30 4849 N 470.036 -0.519951 1.48776 0
M  V30 4850 C 471.276 -1.2856 1.58908 0
M  V30 4851 C 471.64 -1.90212 0.261418 0
M  V30 4852 O 472.841 -2.67746 0.237791 0
M  V30 4853 C 471.112 -2.33836 2.70288 0
M  V30 4854 S 472.671 -3.19992 3.0025 0
M  V30 4855 H 469.489 -0.43717 0.560717 0
M  V30 4856 H 472.091 -0.591205 1.86346 0
M  V30 4857 H 470.795 -1.87041 3.653 0
M  V30 4858 H 470.326 -3.07969 2.44783 0
M  V30 4859 H 472.341 -4.34122 2.40317 0
M  V30 4860 N 471.514 -1.37532 -0.769588 0
M  V30 4861 C 472.477 -1.33292 -1.86456 0
M  V30 4862 C 473.477 -0.236537 -1.59051 0
M  V30 4863 O 474.667 -0.492511 -1.67093 0
M  V30 4864 C 471.799 -1.07118 -3.23633 0
M  V30 4865 H 472.992 -2.30692 -1.91628 0
M  V30 4866 H 470.545 -1.22593 -0.969572 0
M  V30 4867 H 471.28 -0.102578 -3.24138 0
M  V30 4868 H 471.065 -1.86479 -3.44917 0
M  V30 4869 H 472.555 -1.06806 -4.03711 0
M  V30 4870 N 472.992 0.995999 -1.22138 0
M  V30 4871 C 473.902 2.11985 -1.00496 0
M  V30 4872 C 474.918 1.7394 0.0457701 0
M  V30 4873 O 476.094 2.00868 -0.146273 0
M  V30 4874 C 473.159 3.41779 -0.582086 0
M  V30 4875 C 472.22 3.93943 -1.70608 0
M  V30 4876 C 471.453 5.17542 -1.30328 0
M  V30 4877 O 471.676 5.70114 -0.180743 0
M  V30 4878 O 470.61 5.63382 -2.11861 0
M  V30 4879 H 474.436 2.33123 -1.94647 0
M  V30 4880 H 472.021 1.10358 -1.00705 0
M  V30 4881 H 473.903 4.1989 -0.356467 0
M  V30 4882 H 472.578 3.22007 0.330592 0
M  V30 4883 H 471.485 3.17019 -1.98619 0
M  V30 4884 H 472.818 4.18141 -2.59651 0
M  V30 4885 N 474.47 1.03057 1.19235 0
M  V30 4886 C 475.717 0.728019 1.88961 0
M  V30 4887 C 476.045 -0.743515 1.79728 0
M  V30 4888 O 475.3 -1.55729 1.1852 0
M  V30 4889 C 475.599 1.1268 3.39172 0
M  V30 4890 C 475.265 2.5969 3.68608 0
M  V30 4891 C 473.927 2.99854 3.76352 0
M  V30 4892 C 476.279 3.54793 3.81801 0
M  V30 4893 C 473.607 4.34031 3.94758 0
M  V30 4894 C 475.959 4.88675 4.0172 0
M  V30 4895 C 474.623 5.28526 4.07697 0
M  V30 4896 H 473.893 0.266401 0.691456 0
M  V30 4897 H 476.54 1.29373 1.41191 0
M  V30 4898 H 474.845 0.479722 3.88852 0
M  V30 4899 H 476.542 0.870203 3.91444 0
M  V30 4900 H 473.132 2.27575 3.63191 0
M  V30 4901 H 477.316 3.24914 3.7516 0
M  V30 4902 H 472.572 4.6444 3.97625 0
M  V30 4903 H 476.746 5.6228 4.1087 0
M  V30 4904 H 474.373 6.32506 4.21712 0
M  V30 4905 N 475.948 -1.35272 0.808662 0
M  V30 4906 C 477.173 -2.03477 0.401475 0
M  V30 4907 C 477.598 -1.60537 -0.980279 0
M  V30 4908 O 476.956 -0.78304 -1.63518 0
M  V30 4909 C 477.004 -3.57181 0.495354 0
M  V30 4910 O 476.108 -4.09474 -0.490397 0
M  V30 4911 H 475.449 -0.642561 0.167366 0
M  V30 4912 H 477.979 -1.72824 1.09512 0
M  V30 4913 H 477.989 -4.06356 0.365912 0
M  V30 4914 H 476.664 -3.87784 1.5032 0
M  V30 4915 H 475.241 -3.71516 -0.321023 0
M  V30 4916 N 477.426 -0.562348 -1.47226 0
M  V30 4917 C 478.674 -0.0401371 -2.0206 0
M  V30 4918 C 478.995 1.3165 -1.43852 0
M  V30 4919 O 478.265 1.85976 -0.615599 0
M  V30 4920 H 476.845 -0.0118479 -0.746906 0
M  V30 4921 H 479.507 -0.73352 -1.8057 0
M  V30 4922 H 478.603 0.0441254 -3.12069 0
M  V30 4923 N 478.904 1.54736 -0.299062 0
M  V30 4924 C 479.867 2.22127 0.565012 0
M  V30 4925 C 480.867 1.20669 1.06281 0
M  V30 4926 O 482.057 1.45417 0.959145 0
M  V30 4927 C 479.189 2.90611 1.78208 0
M  V30 4928 H 480.382 2.99891 -0.0237448 0
M  V30 4929 H 477.935 1.5622 -0.0498788 0
M  V30 4930 H 478.67 2.16921 2.41072 0
M  V30 4931 H 478.455 3.64984 1.43281 0
M  V30 4932 H 479.945 3.42026 2.396 0
M  V30 4933 N 480.382 0.0267497 1.57577 0
M  V30 4934 C 481.798 -0.32962 1.56159 0
M  V30 4935 C 481.998 -1.73059 1.03213 0
M  V30 4936 O 481.054 -2.43233 0.677804 0
M  V30 4937 C 482.367 -0.18039 3.00158 0
M  V30 4938 C 483.915 -0.253334 3.11973 0
M  V30 4939 C 484.39 -0.132921 4.57807 0
M  V30 4940 N 485.881 -0.189979 4.6281 0
M  V30 4941 C 486.616 -0.120554 5.73273 0
M  V30 4942 N 486.112 -0.000180315 6.928 0
M  V30 4943 N 487.905 -0.174369 5.61829 0
M  V30 4944 H 480.056 0.942896 1.90324 0
M  V30 4945 H 482.319 0.3639 0.875375 0
M  V30 4946 H 482.025 0.784576 3.42837 0
M  V30 4947 H 481.899 -0.951565 3.65 0
M  V30 4948 H 484.286 -1.20876 2.69208 0
M  V30 4949 H 484.367 0.548177 2.49857 0
M  V30 4950 H 484.011 0.819073 5.01252 0
M  V30 4951 H 483.941 -0.953264 5.179 0
M  V30 4952 H 486.432 -0.283257 3.76837 0
M  V30 4953 H 486.745 0.0461666 7.72786 0
M  V30 4954 H 485.09 0.034569 6.94991 0
M  V30 4955 H 488.281 -0.266794 4.67339 0
M  V30 4956 H 488.454 -0.116802 6.47895 0
M  V30 4957 N 481.861 -1.55662 -0.24637 0
M  V30 4958 C 482.824 -1.89558 -1.28842 0
M  V30 4959 C 483.824 -0.772082 -1.41052 0
M  V30 4960 O 485.014 -1.04007 -1.39743 0
M  V30 4961 C 482.146 -2.12449 -2.66605 0
M  V30 4962 H 483.339 -2.82735 -1.00004 0
M  V30 4963 H 480.892 -1.48562 -0.485684 0
M  V30 4964 H 481.627 -1.21742 -3.00582 0
M  V30 4965 H 481.412 -2.94273 -2.59125 0
M  V30 4966 H 482.902 -2.39854 -3.41847 0
M  V30 4967 N 483.339 0.512053 -1.4905 0
M  V30 4968 C 484.286 1.6148 -1.64902 0
M  V30 4969 C 485.256 1.58687 -0.490673 0
M  V30 4970 O 486.441 1.76842 -0.71636 0
M  V30 4971 C 483.581 2.99676 -1.71139 0
M  V30 4972 C 482.694 3.12568 -2.98203 0
M  V30 4973 C 481.829 4.4143 -2.95487 0
M  V30 4974 C 480.868 4.47916 -4.17179 0
M  V30 4975 N 480.005 5.68191 -4.12437 0
M  V30 4976 H 484.845 1.47271 -2.59066 0
M  V30 4977 H 482.382 0.716713 -1.28459 0
M  V30 4978 H 484.34 3.79761 -1.72736 0
M  V30 4979 H 482.97 3.12614 -0.804508 0
M  V30 4980 H 482.022 2.25618 -3.06269 0
M  V30 4981 H 483.334 3.1322 -3.88194 0
M  V30 4982 H 482.488 5.29825 -2.95585 0
M  V30 4983 H 481.227 4.43326 -2.03256 0
M  V30 4984 H 480.232 3.57925 -4.17337 0
M  V30 4985 H 481.457 4.47744 -5.1059 0
M  V30 4986 H 479.403 5.7095 -3.23036 0
M  V30 4987 H 479.32 5.70413 -4.96151 0
M  V30 4988 H 480.588 6.58823 -4.16621 0
M  V30 4989 N 484.817 1.37938 0.762283 0
M  V30 4990 C 485.765 1.34569 1.89721 0
M  V30 4991 C 486.759 0.232929 1.67791 0
M  V30 4992 O 487.965 0.401485 1.75465 0
M  V30 4993 H 484.34 0.419594 0.624055 0
M  V30 4994 H 486.311 2.30357 1.8968 0
M  V30 4995 C 485.06 1.17898 3.27101 0
M  V30 4996 H 484.383 2.02781 3.44558 0
M  V30 4997 H 485.823 1.19593 4.06784 0
M  V30 4998 C 484.282 -0.114728 3.36705 0
M  V30 4999 O 484.812 -1.0949 3.8649 0
M  V30 5000 N 483.018 -0.16863 2.9011 0
M  V30 5001 H 482.565 0.62967 2.49786 0
M  V30 5002 H 482.523 -1.03383 2.96916 0
M  V30 5003 N 486.295 -0.989507 1.22664 0
M  V30 5004 C 487.544 -1.72375 1.04737 0
M  V30 5005 C 487.857 -1.91096 -0.417316 0
M  V30 5006 O 489.063 -2.6188 -0.716334 0
M  V30 5007 C 487.519 -3.10161 1.82561 0
M  V30 5008 C 487.127 -2.99358 3.333 0
M  V30 5009 C 488.871 -3.87607 1.73093 0
M  V30 5010 C 486.778 -4.32319 4.03552 0
M  V30 5011 H 485.708 -0.646326 0.388302 0
M  V30 5012 H 488.359 -1.10437 1.46546 0
M  V30 5013 H 486.741 -3.728 1.33552 0
M  V30 5014 H 487.915 -2.45863 3.89728 0
M  V30 5015 H 486.23 -2.35392 3.43481 0
M  V30 5016 H 488.827 -4.86025 2.22899 0
M  V30 5017 H 489.17 -4.10509 0.691976 0
M  V30 5018 H 489.703 -3.31652 2.19663 0
M  V30 5019 H 486.442 -4.14616 5.07714 0
M  V30 5020 H 485.962 -4.85714 3.51911 0
M  V30 5021 H 487.641 -5.01051 4.09337 0
M  V30 5022 N 487.773 -1.03688 -1.18687 0
M  V30 5023 C 488.72 -0.624624 -2.22187 0
M  V30 5024 C 489.69 0.365636 -1.62026 0
M  V30 5025 O 490.875 0.260481 -1.89014 0
M  V30 5026 C 488.015 0.0101738 -3.45099 0
M  V30 5027 C 487.128 -1.02709 -4.19613 0
M  V30 5028 C 486.263 -0.361213 -5.2997 0
M  V30 5029 C 485.302 -1.38384 -5.96252 0
M  V30 5030 N 484.439 -0.743196 -6.98155 0
M  V30 5031 H 489.279 -1.51176 -2.56807 0
M  V30 5032 H 486.816 -0.75636 -1.26165 0
M  V30 5033 H 488.774 0.395528 -4.15321 0
M  V30 5034 H 487.404 0.860848 -3.1111 0
M  V30 5035 H 486.456 -1.53043 -3.48256 0
M  V30 5036 H 487.768 -1.80398 -4.65036 0
M  V30 5037 H 486.922 0.0785537 -6.06649 0
M  V30 5038 H 485.661 0.447799 -4.8564 0
M  V30 5039 H 484.666 -1.83378 -5.18317 0
M  V30 5040 H 485.891 -2.19448 -6.42666 0
M  V30 5041 H 483.837 0.0455789 -6.55984 0
M  V30 5042 H 483.754 -1.45784 -7.41811 0
M  V30 5043 H 485.022 -0.327698 -7.78811 0
M  V30 5044 N 489.251 1.34841 -0.815825 0
M  V30 5045 C 490.183 2.28409 -0.190265 0
M  V30 5046 C 491.196 1.50705 0.615771 0
M  V30 5047 O 492.385 1.72822 0.446616 0
M  V30 5048 C 489.485 3.30441 0.752446 0
M  V30 5049 C 488.658 4.37399 -0.00922152 0
M  V30 5050 C 487.717 5.19234 0.853351 0
M  V30 5051 O 486.743 5.68404 0.300919 0
M  V30 5052 N 487.945 5.38248 2.17416 0
M  V30 5053 H 490.71 2.82732 -0.994114 0
M  V30 5054 H 488.271 1.47289 -0.672129 0
M  V30 5055 H 490.263 3.82084 1.33394 0
M  V30 5056 H 488.833 2.76565 1.45707 0
M  V30 5057 H 488.053 3.86567 -0.771979 0
M  V30 5058 H 489.341 5.05992 -0.533807 0
M  V30 5059 H 488.739 4.99961 2.6468 0
M  V30 5060 H 487.296 5.93035 2.70467 0
M  V30 5061 N 490.729 0.570148 1.46925 0
M  V30 5062 C 491.977 0.0508523 2.02036 0
M  V30 5063 C 492.298 -1.30885 1.44548 0
M  V30 5064 O 491.568 -1.85647 0.625453 0
M  V30 5065 H 490.148 0.0158088 0.746833 0
M  V30 5066 H 492.81 0.743086 1.80178 0
M  V30 5067 H 491.906 -0.027575 3.12088 0
M  V30 5068 N 492.207 -1.54576 0.307264 0
M  V30 5069 C 493.137 -2.26708 -0.55907 0
M  V30 5070 C 494.118 -1.26893 -1.1328 0
M  V30 5071 O 495.303 -1.55677 -1.16097 0
M  V30 5072 C 492.433 -3.01259 -1.72801 0
M  V30 5073 C 491.387 -4.08275 -1.28435 0
M  V30 5074 C 490.713 -4.70575 -2.53895 0
M  V30 5075 C 492.013 -5.2068 -0.411038 0
M  V30 5076 H 493.707 -2.9937 0.042576 0
M  V30 5077 H 491.253 -1.43983 0.0219173 0
M  V30 5078 H 493.206 -3.50444 -2.34023 0
M  V30 5079 H 491.93 -2.26187 -2.356 0
M  V30 5080 H 490.589 -3.59949 -0.695161 0
M  V30 5081 H 490.237 -3.92136 -3.15021 0
M  V30 5082 H 489.937 -5.42854 -2.24908 0
M  V30 5083 H 491.461 -5.22527 -3.15908 0
M  V30 5084 H 492.875 -5.65721 -0.929097 0
M  V30 5085 H 491.272 -5.99716 -0.214664 0
M  V30 5086 H 492.342 -4.81629 0.562287 0
M  V30 5087 N 493.685 -0.035106 -1.57561 0
M  V30 5088 C 495.096 0.502885 -1.798 0
M  V30 5089 C 495.447 1.71892 -0.945921 0
M  V30 5090 O 494.572 2.15822 -0.157991 0
M  V30 5091 C 495.167 0.919097 -3.26095 0
M  V30 5092 C 493.726 1.40216 -3.49308 0
M  V30 5093 C 492.873 0.369709 -2.74824 0
M  V30 5094 H 495.824 -0.261102 -1.56537 0
M  V30 5095 H 495.845 1.78308 -3.36135 0
M  V30 5096 H 495.357 0.0338526 -3.88085 0
M  V30 5097 H 493.458 2.30714 -2.92578 0
M  V30 5098 H 493.571 1.40541 -4.58023 0
M  V30 5099 H 491.935 0.839113 -2.40481 0
M  V30 5100 H 492.718 -0.507173 -3.39533 0
M  V30 5101 N 495.163 1.55791 0.238111 0
M  V30 5102 C 496.409 1.78297 0.966337 0
M  V30 5103 C 496.742 0.601903 1.84637 0
M  V30 5104 O 496.017 -0.399499 1.90353 0
M  V30 5105 C 496.3 3.10758 1.81939 0
M  V30 5106 C 496.153 4.39283 0.966958 0
M  V30 5107 C 497.472 3.39519 2.80027 0
M  V30 5108 H 494.591 0.648654 0.349882 0
M  V30 5109 H 497.233 1.88525 0.236253 0
M  V30 5110 H 495.383 3.02168 2.44185 0
M  V30 5111 H 497.055 4.59873 0.362514 0
M  V30 5112 H 495.298 4.32948 0.271669 0
M  V30 5113 H 495.969 5.28368 1.59784 0
M  V30 5114 H 498.445 3.48128 2.27917 0
M  V30 5115 H 497.321 4.33402 3.36829 0
M  V30 5116 H 497.582 2.60864 3.56934 0
M  V30 5117 N 496.642 -0.504142 1.49319 0
M  V30 5118 C 497.872 -1.28071 1.62116 0
M  V30 5119 C 498.28 -1.86955 0.290566 0
M  V30 5120 O 497.623 -1.68415 -0.733616 0
M  V30 5121 C 497.685 -2.4521 2.62893 0
M  V30 5122 C 497.349 -2.07218 4.0732 0
M  V30 5123 C 498.346 -1.61375 4.94221 0
M  V30 5124 C 496.031 -2.16949 4.53033 0
M  V30 5125 C 498.025 -1.25763 6.2487 0
M  V30 5126 C 495.712 -1.80949 5.83696 0
M  V30 5127 C 496.71 -1.3543 6.69438 0
M  V30 5128 O 496.398 -0.99915 7.97667 0
M  V30 5129 H 496.13 -0.394763 0.54876 0
M  V30 5130 H 498.684 -0.612118 1.96067 0
M  V30 5131 H 496.914 -3.15134 2.24115 0
M  V30 5132 H 498.603 -3.0724 2.65252 0
M  V30 5133 H 499.369 -1.53306 4.60133 0
M  V30 5134 H 495.248 -2.5133 3.86463 0
M  V30 5135 H 498.792 -0.901631 6.91749 0
M  V30 5136 H 494.689 -1.88667 6.17313 0
M  V30 5137 H 495.457 -1.13089 8.1065 0
M  V30 5138 N 498.12 -1.38341 -0.754957 0
M  V30 5139 C 499.369 -1.33791 -1.5094 0
M  V30 5140 C 499.682 0.0699267 -1.95475 0
M  V30 5141 O 500.888 0.237956 -2.70455 0
M  V30 5142 C 499.344 -2.34934 -2.72643 0
M  V30 5143 C 498.952 -3.81332 -2.35138 0
M  V30 5144 C 500.696 -2.39425 -3.50536 0
M  V30 5145 C 498.603 -4.74164 -3.53444 0
M  V30 5146 H 497.533 -0.497314 -0.566741 0
M  V30 5147 H 500.184 -1.63888 -0.825403 0
M  V30 5148 H 498.566 -1.97878 -3.43017 0
M  V30 5149 H 499.74 -4.27319 -1.7244 0
M  V30 5150 H 498.055 -3.79946 -1.70382 0
M  V30 5151 H 500.652 -3.0598 -4.38498 0
M  V30 5152 H 500.995 -1.41278 -3.91594 0
M  V30 5153 H 501.528 -2.75274 -2.87174 0
M  V30 5154 H 498.267 -5.73501 -3.17453 0
M  V30 5155 H 497.787 -4.3287 -4.15191 0
M  V30 5156 H 499.466 -4.92111 -4.20043 0
M  V30 5157 N 499.598 0.982988 -1.23187 0
M  V30 5158 C 500.826 1.75921 -1.08901 0
M  V30 5159 C 501.241 1.85341 0.359719 0
M  V30 5160 O 500.598 1.33072 1.24892 0
M  V30 5161 C 500.649 3.18742 -1.70545 0
M  V30 5162 O 500.37 3.09814 -3.09753 0
M  V30 5163 C 501.871 4.1277 -1.61667 0
M  V30 5164 H 499.091 0.552166 -0.381252 0
M  V30 5165 H 501.635 1.23516 -1.62985 0
M  V30 5166 H 499.79 3.68182 -1.20501 0
M  V30 5167 H 500.204 3.99703 -3.39614 0
M  V30 5168 H 501.678 5.10697 -2.09506 0
M  V30 5169 H 502.155 4.3542 -0.575009 0
M  V30 5170 H 502.761 3.69232 -2.11064 0
M  V30 5171 N 501.076 1.04316 1.18135 0
M  V30 5172 C 502.487 0.775505 1.69832 0
M  V30 5173 C 502.838 -0.703348 1.8316 0
M  V30 5174 O 501.963 -1.54729 1.51287 0
M  V30 5175 C 502.558 1.40112 3.0847 0
M  V30 5176 C 501.117 1.18172 3.57368 0
M  V30 5177 C 500.264 1.49022 2.33854 0
M  V30 5178 H 503.215 1.20925 1.02775 0
M  V30 5179 H 503.236 0.805672 3.71873 0
M  V30 5180 H 502.748 2.47744 2.98738 0
M  V30 5181 H 500.849 0.124258 3.72393 0
M  V30 5182 H 500.962 1.8805 4.40652 0
M  V30 5183 H 499.326 0.909995 2.37889 0
M  V30 5184 H 500.109 2.57768 2.26738 0
M  V30 5185 N 502.554 -1.34406 0.822964 0
M  V30 5186 C 503.802 -1.97892 0.410245 0
M  V30 5187 C 504.123 -1.65567 -1.03017 0
M  V30 5188 O 503.393 -0.94642 -1.71522 0
M  V30 5189 H 501.973 -0.732049 0.148707 0
M  V30 5190 H 504.635 -1.64043 1.05242 0
M  V30 5191 H 503.731 -3.07579 0.529284 0
M  V30 5192 N 504.032 -0.577932 -1.46621 0
M  V30 5193 C 505.257 -0.0652536 -2.07297 0
M  V30 5194 C 505.682 1.22828 -1.4246 0
M  V30 5195 O 505.04 1.74075 -0.506718 0
M  V30 5196 C 505.088 0.0920589 -3.60482 0
M  V30 5197 O 504.192 1.14972 -3.96049 0
M  V30 5198 H 503.533 -0.06065 -0.661224 0
M  V30 5199 H 506.063 -0.799515 -1.88332 0
M  V30 5200 H 506.073 0.299741 -4.06897 0
M  V30 5201 H 504.748 -0.852612 -4.07067 0
M  V30 5202 H 503.325 0.920879 -3.61351 0
M  V30 5203 N 505.51 1.54411 -0.315457 0
M  V30 5204 C 506.758 2.00023 0.288971 0
M  V30 5205 C 507.079 1.20529 1.5329 0
M  V30 5206 O 506.349 0.304986 1.93511 0
M  V30 5207 H 504.929 0.738891 0.109766 0
M  V30 5208 H 507.591 1.90094 -0.430129 0
M  V30 5209 H 506.687 3.07198 0.550999 0
M  V30 5210 N 506.988 0.0434614 1.5754 0
M  V30 5211 C 507.92 -0.962586 2.08007 0
M  V30 5212 C 508.933 -1.27972 1.00634 0
M  V30 5213 O 510.122 -1.24186 1.28219 0
M  V30 5214 C 507.222 -2.28621 2.50171 0
M  V30 5215 C 506.395 -2.15214 3.80791 0
M  V30 5216 C 505.454 -3.30633 4.09351 0
M  V30 5217 O 504.48 -3.0688 4.79388 0
M  V30 5218 N 505.682 -4.54873 3.60654 0
M  V30 5219 H 508.447 -0.531891 2.94942 0
M  V30 5220 H 506.008 -0.142965 1.61268 0
M  V30 5221 H 508 -3.04689 2.66359 0
M  V30 5222 H 506.57 -2.63283 1.68525 0
M  V30 5223 H 505.79 -1.23785 3.74261 0
M  V30 5224 H 507.078 -2.03475 4.66343 0
M  V30 5225 H 506.476 -4.77063 3.04019 0
M  V30 5226 H 505.033 -5.2806 3.82094 0
M  V30 5227 N 508.466 -1.55915 -0.229846 0
M  V30 5228 C 509.713 -1.78542 -0.955452 0
M  V30 5229 C 510.041 -0.610785 -1.84661 0
M  V30 5230 O 509.296 0.405213 -1.91459 0
M  V30 5231 C 509.595 -3.06845 -1.8325 0
M  V30 5232 C 509.261 -4.37395 -1.09528 0
M  V30 5233 C 507.923 -4.72868 -0.891598 0
M  V30 5234 C 510.275 -5.18029 -0.574046 0
M  V30 5235 C 507.603 -5.86496 -0.154655 0
M  V30 5236 C 509.955 -6.32423 0.149513 0
M  V30 5237 C 508.619 -6.66504 0.364519 0
M  V30 5238 H 507.889 -0.653333 -0.349625 0
M  V30 5239 H 510.536 -1.90183 -0.224235 0
M  V30 5240 H 508.841 -2.90291 -2.63132 0
M  V30 5241 H 510.538 -3.21553 -2.39592 0
M  V30 5242 H 507.128 -4.09538 -1.26399 0
M  V30 5243 H 511.312 -4.91066 -0.718899 0
M  V30 5244 H 506.568 -6.11396 0.0222356 0
M  V30 5245 H 510.742 -6.94137 0.560947 0
M  V30 5246 H 508.369 -7.54397 0.937495 0
M  V30 5247 N 509.944 0.496216 -1.49584 0
M  V30 5248 C 510.877 1.61508 -1.61215 0
M  V30 5249 C 511.855 1.55927 -0.461045 0
M  V30 5250 O 513.039 1.75914 -0.677231 0
M  V30 5251 C 510.166 3.00035 -1.57152 0
M  V30 5252 C 509.212 3.23861 -2.77518 0
M  V30 5253 S 510.045 3.06466 -4.39134 0
M  V30 5254 C 511.201 4.4738 -4.37724 0
M  V30 5255 H 511.434 1.51398 -2.55863 0
M  V30 5256 H 508.967 0.681727 -1.38535 0
M  V30 5257 H 510.925 3.7991 -1.55494 0
M  V30 5258 H 509.586 3.07556 -0.637834 0
M  V30 5259 H 508.779 4.25 -2.70908 0
M  V30 5260 H 508.381 2.51716 -2.76614 0
M  V30 5261 H 510.673 5.39556 -4.09738 0
M  V30 5262 H 511.616 4.59038 -5.39156 0
M  V30 5263 H 512.024 4.28283 -3.67742 0
M  V30 5264 N 511.423 1.38739 0.74761 0
M  V30 5265 C 512.651 1.38521 1.53686 0
M  V30 5266 C 513.066 -0.0235129 1.88785 0
M  V30 5267 O 512.423 -0.991662 1.53207 0
M  V30 5268 C 512.474 2.24641 2.83229 0
M  V30 5269 O 512.195 3.60026 2.49625 0
M  V30 5270 C 513.696 2.32669 3.77333 0
M  V30 5271 H 510.916 0.473589 0.475347 0
M  V30 5272 H 513.46 1.82395 0.924786 0
M  V30 5273 H 511.615 1.84213 3.40799 0
M  V30 5274 H 512.029 4.05435 3.3275 0
M  V30 5275 H 513.503 2.97201 4.65162 0
M  V30 5276 H 513.98 1.3421 4.18192 0
M  V30 5277 H 514.586 2.73512 3.25685 0
M  V30 5278 N 512.901 -0.976442 1.23707 0
M  V30 5279 C 514.129 -1.75341 1.09833 0
M  V30 5280 C 514.544 -1.8553 -0.349885 0
M  V30 5281 O 513.901 -1.33732 -1.24185 0
M  V30 5282 C 513.952 -3.17833 1.72233 0
M  V30 5283 O 513.673 -3.08167 3.11391 0
M  V30 5284 C 515.174 -4.11906 1.63853 0
M  V30 5285 H 512.394 -0.550137 0.384175 0
M  V30 5286 H 514.938 -1.2265 1.63638 0
M  V30 5287 H 513.093 -3.67538 1.22452 0
M  V30 5288 H 513.507 -3.97897 3.41729 0
M  V30 5289 H 514.981 -5.09579 2.12211 0
M  V30 5290 H 515.458 -4.35109 0.598092 0
M  V30 5291 H 516.064 -3.68107 2.13019 0
M  V30 5292 N 514.379 -1.04941 -1.1758 0
M  V30 5293 C 515.656 -0.671918 -1.83697 0
M  V30 5294 C 516.036 0.847929 -1.93322 0
M  V30 5295 O 515.384 1.75287 -1.46583 0
M  V30 5296 C 515.594 -1.35797 -3.21497 0
M  V30 5297 C 516.942 -1.4944 -3.97433 0
M  V30 5298 O 517.966 -1.31678 -3.30967 0
M  V30 5299 O 516.825 -1.78463 -5.1654 0
M  V30 5300 H 513.919 -0.236212 -0.792548 0
M  V30 5301 H 516.465 -1.14884 -1.24899 0
M  V30 5302 H 515.237 -2.39498 -3.09446 0
M  V30 5303 H 514.86 -0.870236 -3.8796 0
M  V30 5304 N 515.857 1.33968 -0.830081 0
M  V30 5305 C 517.134 1.92554 -0.343858 0
M  V30 5306 C 517.514 1.7573 1.16971 0
M  V30 5307 O 516.862 1.14035 1.98011 0
M  V30 5308 C 517.072 3.40147 -0.781073 0
M  V30 5309 C 518.42 4.17299 -0.78402 0
M  V30 5310 O 519.444 3.48762 -0.724112 0
M  V30 5311 O 518.303 5.39631 -0.863739 0
M  V30 5312 H 515.397 0.821469 -0.0954827 0
M  V30 5313 H 517.943 1.42897 -0.915348 0
M  V30 5314 H 516.715 3.46225 -1.82329 0
M  V30 5315 H 516.338 3.97166 -0.18567 0
M  V30 5316 N 517.335 0.585699 1.46312 0
M  V30 5317 C 518.268 -0.194257 2.27372 0
M  V30 5318 C 519.246 -0.894116 1.3581 0
M  V30 5319 O 520.43 -0.907402 1.65222 0
M  V30 5320 C 517.557 -1.27901 3.13622 0
M  V30 5321 C 516.603 -0.684666 4.20969 0
M  V30 5322 S 517.436 0.490745 5.33247 0
M  V30 5323 C 518.592 -0.595137 6.23064 0
M  V30 5324 H 518.825 0.493515 2.93175 0
M  V30 5325 H 516.358 0.372666 1.49835 0
M  V30 5326 H 518.316 -1.90008 3.63878 0
M  V30 5327 H 516.977 -1.93875 2.47126 0
M  V30 5328 H 516.17 -1.50015 4.81156 0
M  V30 5329 H 515.772 -0.139204 3.73741 0
M  V30 5330 H 518.064 -1.48002 6.61137 0
M  V30 5331 H 519.007 -0.0299446 7.08094 0
M  V30 5332 H 519.415 -0.900627 5.57269 0
M  V30 5333 N 518.813 -1.54241 0.323641 0
M  V30 5334 C 519.745 -2.21836 -0.576311 0
M  V30 5335 C 520.758 -1.21837 -1.07979 0
M  V30 5336 O 521.947 -1.48306 -0.99336 0
M  V30 5337 C 519.047 -2.86923 -1.80356 0
M  V30 5338 C 518.22 -4.1306 -1.43875 0
M  V30 5339 C 517.279 -4.6174 -2.52353 0
M  V30 5340 O 516.305 -5.26421 -2.16494 0
M  V30 5341 N 517.507 -4.35974 -3.83284 0
M  V30 5342 H 520.272 -2.997 0.00247987 0
M  V30 5343 H 517.833 -1.61233 0.146848 0
M  V30 5344 H 519.825 -3.16414 -2.52318 0
M  V30 5345 H 518.395 -2.12765 -2.29019 0
M  V30 5346 H 517.615 -3.90334 -0.550752 0
M  V30 5347 H 518.903 -4.95148 -1.17071 0
M  V30 5348 H 518.301 -3.84203 -4.15216 0
M  V30 5349 H 516.858 -4.70119 -4.51477 0
M  V30 5350 N 520.291 -0.0518155 -1.57515 0
M  V30 5351 C 521.516 0.634896 -1.97443 0
M  V30 5352 C 521.941 1.63546 -0.929207 0
M  V30 5353 O 521.299 1.80981 0.107484 0
M  V30 5354 C 521.347 1.29765 -3.36442 0
M  V30 5355 O 520.451 2.41333 -3.34413 0
M  V30 5356 H 519.792 0.164994 -0.643174 0
M  V30 5357 H 522.322 -0.120407 -2.04245 0
M  V30 5358 H 522.332 1.64918 -3.73184 0
M  V30 5359 H 521.007 0.564361 -4.12053 0
M  V30 5360 H 519.584 2.08122 -3.09418 0
M  V30 5361 N 521.769 1.56035 0.221574 0
M  V30 5362 C 523.18 1.69229 0.788567 0
M  V30 5363 C 523.531 0.653814 1.84986 0
M  V30 5364 O 522.656 -0.195065 2.15519 0
M  V30 5365 C 523.251 3.06809 1.43713 0
M  V30 5366 C 521.81 3.21858 1.95152 0
M  V30 5367 C 520.957 2.65155 0.811685 0
M  V30 5368 H 523.908 1.587 -0.00307894 0
M  V30 5369 H 523.929 3.02666 2.30594 0
M  V30 5370 H 523.441 3.82369 0.664475 0
M  V30 5371 H 521.542 2.51167 2.7522 0
M  V30 5372 H 521.655 4.29073 2.1315 0
M  V30 5373 H 520.019 2.23635 1.21899 0
M  V30 5374 H 520.802 3.43261 0.0516987 0
M  V30 5375 N 523.247 -0.488276 1.49845 0
M  V30 5376 C 524.487 -1.2516 1.61599 0
M  V30 5377 C 524.851 -1.89615 0.301706 0
M  V30 5378 O 526.052 -2.67182 0.29453 0
M  V30 5379 C 524.323 -2.2805 2.75187 0
M  V30 5380 S 525.882 -3.13552 3.0697 0
M  V30 5381 H 522.7 -0.425178 0.569864 0
M  V30 5382 H 525.302 -0.551545 1.87559 0
M  V30 5383 H 524.006 -1.7925 3.69185 0
M  V30 5384 H 523.537 -3.02708 2.5126 0
M  V30 5385 H 525.552 -4.28927 2.49471 0
M  V30 5386 N 524.725 -1.39134 -0.740242 0
M  V30 5387 C 525.688 -1.37217 -1.83587 0
M  V30 5388 C 526.688 -0.270221 -1.58513 0
M  V30 5389 O 527.878 -0.527843 -1.6601 0
M  V30 5390 C 525.01 -1.13959 -3.21288 0
M  V30 5391 H 526.203 -2.34705 -1.86691 0
M  V30 5392 H 523.756 -1.24622 -0.94335 0
M  V30 5393 H 524.491 -0.17131 -3.23847 0
M  V30 5394 H 524.276 -1.93754 -3.40884 0
M  V30 5395 H 525.766 -1.15346 -4.01354 0
M  V30 5396 N 526.204 0.969867 -1.24223 0
M  V30 5397 C 527.134 2.08191 -1.05729 0
M  V30 5398 C 528.115 1.70075 0.0290765 0
M  V30 5399 O 529.3 1.93712 -0.137583 0
M  V30 5400 C 526.43 3.40991 -0.658995 0
M  V30 5401 C 525.384 3.93054 -1.69389 0
M  V30 5402 C 524.71 5.22171 -1.15072 0
M  V30 5403 C 526.01 4.21137 -3.08935 0
M  V30 5404 H 527.704 2.23921 -1.98746 0
M  V30 5405 H 525.25 1.07602 -0.956967 0
M  V30 5406 H 527.203 4.18221 -0.51662 0
M  V30 5407 H 525.927 3.25155 0.30686 0
M  V30 5408 H 524.586 3.17977 -1.82444 0
M  V30 5409 H 524.234 5.02694 -0.175539 0
M  V30 5410 H 523.934 5.57973 -1.84229 0
M  V30 5411 H 525.458 6.02013 -1.02042 0
M  V30 5412 H 526.872 4.8908 -2.99121 0
M  V30 5413 H 525.269 4.68163 -3.75425 0
M  V30 5414 H 526.339 3.27996 -3.57137 0
M  V30 5415 N 527.682 1.05563 1.17022 0
M  V30 5416 C 529.093 0.793475 1.69 0
M  V30 5417 C 529.444 -0.683882 1.83895 0
M  V30 5418 O 528.569 -1.53116 1.5292 0
M  V30 5419 C 529.164 1.43376 3.06967 0
M  V30 5420 C 527.723 1.21956 3.56095 0
M  V30 5421 C 526.87 1.51494 2.3226 0
M  V30 5422 H 529.821 1.22008 1.01487 0
M  V30 5423 H 529.842 0.845068 3.70997 0
M  V30 5424 H 529.354 2.50899 2.96093 0
M  V30 5425 H 527.455 0.163749 3.7224 0
M  V30 5426 H 527.568 1.92713 4.38633 0
M  V30 5427 H 525.932 0.935175 2.3691 0
M  V30 5428 H 526.715 2.60159 2.23992 0
M  V30 5429 N 529.16 -1.33526 0.837174 0
M  V30 5430 C 530.406 -1.98541 0.44193 0
M  V30 5431 C 530.761 -1.65124 -0.987517 0
M  V30 5432 O 530.054 -0.919948 -1.6807 0
M  V30 5433 C 530.248 -3.52367 0.597675 0
M  V30 5434 C 530.077 -4.00731 2.04071 0
M  V30 5435 C 528.847 -4.28649 2.67559 0
M  V30 5436 C 531.045 -4.17073 3.00923 0
M  V30 5437 N 529.027 -4.63142 4.02955 0
M  V30 5438 C 530.398 -4.54905 4.21261 0
M  V30 5439 C 532.453 -3.99358 2.97351 0
M  V30 5440 C 531.156 -4.76874 5.38501 0
M  V30 5441 C 533.182 -4.22501 4.1382 0
M  V30 5442 C 532.544 -4.60634 5.32912 0
M  V30 5443 H 528.643 -0.753246 0.210105 0
M  V30 5444 H 531.227 -1.61674 1.08488 0
M  V30 5445 H 529.398 -3.88397 -0.0154658 0
M  V30 5446 H 531.13 -4.04326 0.17404 0
M  V30 5447 H 527.885 -4.20077 2.18706 0
M  V30 5448 H 528.309 -4.84601 4.72748 0
M  V30 5449 H 532.951 -3.68993 2.06408 0
M  V30 5450 H 530.669 -5.06101 6.2999 0
M  V30 5451 H 534.255 -4.10316 4.12471 0
M  V30 5452 H 533.135 -4.78187 6.21536 0
M  V30 5453 N 530.638 -0.59345 -1.46 0
M  V30 5454 C 531.868 -0.0889642 -2.06408 0
M  V30 5455 C 532.276 1.22597 -1.44106 0
M  V30 5456 O 531.619 1.75448 -0.544398 0
M  V30 5457 C 531.681 0.139902 -3.59228 0
M  V30 5458 C 531.345 -1.09107 -4.43784 0
M  V30 5459 C 532.342 -2.00577 -4.79651 0
M  V30 5460 C 530.027 -1.31593 -4.84756 0
M  V30 5461 C 532.021 -3.12873 -5.55328 0
M  V30 5462 C 529.708 -2.44192 -5.60191 0
M  V30 5463 C 530.706 -3.34661 -5.95392 0
M  V30 5464 O 530.394 -4.45302 -6.69299 0
M  V30 5465 H 530.126 -0.0594613 -0.67338 0
M  V30 5466 H 532.68 -0.817 -1.88452 0
M  V30 5467 H 530.91 0.922672 -3.75531 0
M  V30 5468 H 532.599 0.594228 -4.01527 0
M  V30 5469 H 533.365 -1.84425 -4.48567 0
M  V30 5470 H 529.244 -0.620801 -4.56801 0
M  V30 5471 H 532.788 -3.83511 -5.82722 0
M  V30 5472 H 528.685 -2.60303 -5.90688 0
M  V30 5473 H 529.453 -4.43805 -6.87735 0
M  V30 5474 N 532.116 1.54067 -0.331816 0
M  V30 5475 C 533.066 2.21363 0.546101 0
M  V30 5476 C 534.05 1.19698 1.07523 0
M  V30 5477 O 535.242 1.45293 1.01088 0
M  V30 5478 C 532.371 2.98115 1.70242 0
M  V30 5479 C 531.457 4.07127 1.18779 0
M  V30 5480 N 531.848 5.04267 0.393465 0
M  V30 5481 C 530.146 4.21226 1.46576 0
M  V30 5482 C 530.847 5.81585 0.115572 0
M  V30 5483 N 529.823 5.39022 0.703987 0
M  V30 5484 H 533.625 2.93821 -0.0679751 0
M  V30 5485 H 531.139 1.61812 -0.138085 0
M  V30 5486 H 533.136 3.44818 2.34321 0
M  V30 5487 H 531.796 2.27181 2.31989 0
M  V30 5488 H 532.807 5.17888 0.0355757 0
M  V30 5489 H 529.484 3.61509 2.08848 0
M  V30 5490 H 530.874 6.6985 -0.524426 0
M  V30 5491 N 533.594 0.0601682 1.57485 0
M  V30 5492 C 535.005 -0.474217 1.80577 0
M  V30 5493 C 535.356 -1.70365 0.973147 0
M  V30 5494 O 534.481 -2.15544 0.192306 0
M  V30 5495 C 535.076 -0.867102 3.27516 0
M  V30 5496 C 533.635 -1.34642 3.51495 0
M  V30 5497 C 532.782 -0.32594 2.75378 0
M  V30 5498 H 535.733 0.285973 1.56102 0
M  V30 5499 H 535.754 -1.72938 3.38929 0
M  V30 5500 H 535.266 0.0278927 3.8809 0
M  V30 5501 H 533.367 -2.2603 2.96212 0
M  V30 5502 H 533.48 -1.33237 4.60201 0
M  V30 5503 H 531.844 -0.800749 2.41785 0
M  V30 5504 H 532.627 0.561125 3.38683 0
M  V30 5505 N 535.072 -1.5615 -0.213296 0
M  V30 5506 C 536.3 -1.83638 -0.953139 0
M  V30 5507 C 536.715 -0.640362 -1.77609 0
M  V30 5508 O 536.072 0.391071 -1.78261 0
M  V30 5509 C 536.123 -3.09735 -1.86405 0
M  V30 5510 O 535.844 -4.24723 -1.07435 0
M  V30 5511 C 537.345 -3.5027 -2.71709 0
M  V30 5512 H 534.565 -0.610263 -0.278962 0
M  V30 5513 H 537.109 -2.03247 -0.226035 0
M  V30 5514 H 535.264 -2.92077 -2.545 0
M  V30 5515 H 535.678 -4.9641 -1.69343 0
M  V30 5516 H 537.152 -4.41515 -3.31313 0
M  V30 5517 H 537.629 -2.72406 -3.44516 0
M  V30 5518 H 538.235 -3.70396 -2.09015 0
M  V30 5519 N 536.55 0.480323 -1.50102 0
M  V30 5520 C 537.497 1.57946 -1.6829 0
M  V30 5521 C 538.467 1.57611 -0.524223 0
M  V30 5522 O 539.652 1.75282 -0.753709 0
M  V30 5523 C 536.792 2.95978 -1.77457 0
M  V30 5524 C 535.905 3.06173 -3.04766 0
M  V30 5525 C 535.04 4.35063 -3.04784 0
M  V30 5526 C 534.079 4.38966 -4.26586 0
M  V30 5527 N 533.216 5.59314 -4.24396 0
M  V30 5528 H 538.056 1.41743 -2.62131 0
M  V30 5529 H 535.593 0.689304 -1.2995 0
M  V30 5530 H 537.551 3.76011 -1.80752 0
M  V30 5531 H 536.181 3.10837 -0.870637 0
M  V30 5532 H 535.233 2.19071 -3.10986 0
M  V30 5533 H 536.545 3.04916 -3.9475 0
M  V30 5534 H 535.699 5.23436 -3.06757 0
M  V30 5535 H 534.438 4.38915 -2.12614 0
M  V30 5536 H 533.443 3.48992 -4.24835 0
M  V30 5537 H 534.668 4.36813 -5.19972 0
M  V30 5538 H 532.614 5.63969 -3.35074 0
M  V30 5539 H 532.531 5.5976 -5.08138 0
M  V30 5540 H 533.799 6.49837 -4.30502 0
M  V30 5541 N 538.028 1.39524 0.732853 0
M  V30 5542 C 538.938 1.40695 1.87729 0
M  V30 5543 C 539.954 0.301496 1.71368 0
M  V30 5544 O 541.13 0.543313 1.93933 0
M  V30 5545 C 538.195 1.25098 3.23344 0
M  V30 5546 C 537.256 2.45634 3.52083 0
M  V30 5547 C 536.489 2.30772 4.81228 0
M  V30 5548 O 536.712 1.31233 5.55098 0
M  V30 5549 O 535.646 3.19799 5.09914 0
M  V30 5550 H 539.472 2.37168 1.89697 0
M  V30 5551 H 537.057 1.20663 0.880959 0
M  V30 5552 H 538.939 1.18541 4.04383 0
M  V30 5553 H 537.614 0.317209 3.22142 0
M  V30 5554 H 536.521 2.57767 2.71122 0
M  V30 5555 H 537.854 3.37712 3.58066 0
M  V30 5556 N 539.506 -0.963266 1.24736 0
M  V30 5557 C 540.755 -1.70115 1.08369 0
M  V30 5558 C 541.068 -1.91939 -0.376688 0
M  V30 5559 O 542.274 -2.6334 -0.660624 0
M  V30 5560 C 540.73 -3.06218 1.89099 0
M  V30 5561 C 540.338 -2.92221 3.39574 0
M  V30 5562 C 542.082 -3.83848 1.81275 0
M  V30 5563 C 539.989 -4.23662 4.12631 0
M  V30 5564 H 538.919 -0.637944 0.401924 0
M  V30 5565 H 541.57 -1.07304 1.48856 0
M  V30 5566 H 539.952 -3.69884 1.41429 0
M  V30 5567 H 541.126 -2.37541 3.94856 0
M  V30 5568 H 539.441 -2.28054 3.48397 0
M  V30 5569 H 542.038 -4.81188 2.33158 0
M  V30 5570 H 542.381 -4.08949 0.778895 0
M  V30 5571 H 542.914 -3.26918 2.26649 0
M  V30 5572 H 539.653 -4.03753 5.16395 0
M  V30 5573 H 539.173 -4.78141 3.62135 0
M  V30 5574 H 540.852 -4.92256 4.19873 0
M  V30 5575 N 540.985 -1.06182 -1.16461 0
M  V30 5576 C 542.21 -0.798599 -1.91408 0
M  V30 5577 C 542.635 0.640987 -1.76842 0
M  V30 5578 O 541.993 1.44652 -1.09296 0
M  V30 5579 C 542.041 -1.19665 -3.40165 0
M  V30 5580 O 541.145 -0.334768 -4.11039 0
M  V30 5581 H 540.486 -0.291961 -0.596368 0
M  V30 5582 H 543.016 -1.41732 -1.47557 0
M  V30 5583 H 543.026 -1.16772 -3.90933 0
M  V30 5584 H 541.701 -2.24526 -3.50087 0
M  V30 5585 H 540.278 -0.425168 -3.70468 0
M  V30 5586 N 542.463 1.3308 -0.844243 0
M  V30 5587 C 543.712 1.96868 -0.438833 0
M  V30 5588 C 544.025 1.67599 1.00846 0
M  V30 5589 O 545.231 2.25043 1.51881 0
M  V30 5590 C 543.687 3.5234 -0.73377 0
M  V30 5591 C 543.295 3.90481 -2.1961 0
M  V30 5592 C 545.039 4.22653 -0.395574 0
M  V30 5593 C 542.946 5.38954 -2.43481 0
M  V30 5594 H 541.876 0.736749 -0.160364 0
M  V30 5595 H 544.527 1.51623 -1.03358 0
M  V30 5596 H 542.909 3.95941 -0.068589 0
M  V30 5597 H 544.083 3.57922 -2.90221 0
M  V30 5598 H 542.398 3.33165 -2.4978 0
M  V30 5599 H 544.995 5.31848 -0.551477 0
M  V30 5600 H 545.338 4.11004 0.661921 0
M  V30 5601 H 545.871 3.84601 -1.01621 0
M  V30 5602 H 542.61 5.55612 -3.47816 0
M  V30 5603 H 542.13 5.72954 -1.77437 0
M  V30 5604 H 543.809 6.05907 -2.26905 0
M  V30 5605 N 543.941 0.601185 1.45683 0
M  V30 5606 C 545.352 0.179659 1.85834 0
M  V30 5607 C 545.703 -1.26189 1.50236 0
M  V30 5608 O 544.828 -1.95587 0.925987 0
M  V30 5609 C 545.423 0.319277 3.37292 0
M  V30 5610 C 543.982 -0.0475092 3.7637 0
M  V30 5611 C 543.129 0.646692 2.69654 0
M  V30 5612 H 546.08 0.808268 1.36575 0
M  V30 5613 H 546.101 -0.4503 3.77826 0
M  V30 5614 H 545.613 1.36855 3.6317 0
M  V30 5615 H 543.714 -1.0962 3.5611 0
M  V30 5616 H 543.827 0.34168 4.7788 0
M  V30 5617 H 542.191 0.0849971 2.54558 0
M  V30 5618 H 542.974 1.69797 2.98369 0
M  V30 5619 N 545.419 -1.53889 0.339982 0
M  V30 5620 C 546.667 -2.00458 -0.257112 0
M  V30 5621 C 546.988 -1.22953 -1.51353 0
M  V30 5622 O 546.258 -0.335734 -1.93002 0
M  V30 5623 H 544.838 -0.740544 -0.0979965 0
M  V30 5624 H 547.5 -1.89386 0.460317 0
M  V30 5625 H 546.596 -3.08035 -0.502057 0
M  V30 5626 N 546.897 -0.0685191 -1.57451 0
M  V30 5627 C 547.807 0.914677 -2.16034 0
M  V30 5628 C 548.823 1.32938 -1.12265 0
M  V30 5629 O 549.999 1.40275 -1.44516 0
M  V30 5630 C 547.064 2.16519 -2.70777 0
M  V30 5631 C 546.125 1.80721 -3.89408 0
M  V30 5632 C 545.358 2.9981 -4.41531 0
M  V30 5633 O 545.581 4.13727 -3.92666 0
M  V30 5634 O 544.515 2.79817 -5.32903 0
M  V30 5635 H 548.341 0.446364 -3.00402 0
M  V30 5636 H 545.926 0.154367 -1.486 0
M  V30 5637 H 547.808 2.89856 -3.05878 0
M  V30 5638 H 546.483 2.62454 -1.89471 0
M  V30 5639 H 545.39 1.04646 -3.59166 0
M  V30 5640 H 546.723 1.39571 -4.71997 0
M  V30 5641 N 548.375 1.56261 0.205012 0
M  V30 5642 C 549.621 1.80306 0.9283 0
M  V30 5643 C 549.954 0.640932 1.83319 0
M  V30 5644 O 549.229 -0.359032 1.91158 0
M  V30 5645 C 549.512 3.14547 1.75306 0
M  V30 5646 C 549.365 4.41236 0.873562 0
M  V30 5647 C 550.684 3.45382 2.72762 0
M  V30 5648 H 547.803 0.655929 0.336044 0
M  V30 5649 H 550.445 1.88984 0.196211 0
M  V30 5650 H 548.595 3.0728 2.37721 0
M  V30 5651 H 550.267 4.60539 0.264887 0
M  V30 5652 H 548.51 4.33427 0.179773 0
M  V30 5653 H 549.181 5.31639 1.48541 0
M  V30 5654 H 551.657 3.52884 2.20481 0
M  V30 5655 H 550.533 4.40449 3.2756 0
M  V30 5656 H 550.794 2.68377 3.51321 0
M  V30 5657 N 549.853 -0.472356 1.50355 0
M  V30 5658 C 550.8 -1.57051 1.69126 0
M  V30 5659 C 551.77 -1.5733 0.532574 0
M  V30 5660 O 552.955 -1.7488 0.762994 0
M  V30 5661 C 550.095 -2.95033 1.79024 0
M  V30 5662 C 549.208 -3.04552 3.06386 0
M  V30 5663 C 548.343 -4.33441 3.07087 0
M  V30 5664 C 547.382 -4.36697 4.28908 0
M  V30 5665 N 546.519 -5.57056 4.27356 0
M  V30 5666 H 551.359 -1.40351 2.62879 0
M  V30 5667 H 548.896 -0.682403 1.30314 0
M  V30 5668 H 550.854 -3.75048 1.82744 0
M  V30 5669 H 549.484 -3.10371 0.887109 0
M  V30 5670 H 548.536 -2.17419 3.12143 0
M  V30 5671 H 549.848 -3.02818 3.96362 0
M  V30 5672 H 549.002 -5.21801 3.09529 0
M  V30 5673 H 547.741 -4.37782 2.14939 0
M  V30 5674 H 546.746 -3.46734 4.2668 0
M  V30 5675 H 547.971 -4.34049 5.22282 0
M  V30 5676 H 545.917 -5.62184 3.3806 0
M  V30 5677 H 545.834 -5.57058 5.111 0
M  V30 5678 H 547.102 -6.47545 4.33942 0
M  V30 5679 N 551.331 -1.39911 -0.725443 0
M  V30 5680 C 552.279 -1.39552 -1.86086 0
M  V30 5681 C 553.273 -0.277334 -1.67114 0
M  V30 5682 O 554.479 -0.447865 -1.74339 0
M  V30 5683 H 550.854 -0.435993 -0.612711 0
M  V30 5684 H 552.825 -2.35305 -1.83505 0
M  V30 5685 C 551.574 -1.26529 -3.2386 0
M  V30 5686 H 550.897 -2.11845 -3.3906 0
M  V30 5687 H 552.337 -1.30336 -4.03471 0
M  V30 5688 C 550.796 0.0254168 -3.3689 0
M  V30 5689 O 551.326 0.992048 -3.89257 0
M  V30 5690 N 549.532 0.0916528 -2.90455 0
M  V30 5691 H 549.079 -0.695675 -2.48028 0
M  V30 5692 H 549.037 0.954745 -2.99553 0
M  V30 5693 N 552.809 0.956637 -1.25245 0
M  V30 5694 C 553.739 2.07058 -1.07931 0
M  V30 5695 C 554.72 1.70096 0.0110361 0
M  V30 5696 O 555.905 1.93555 -0.158121 0
M  V30 5697 C 553.035 3.40272 -0.695124 0
M  V30 5698 C 551.989 3.91235 -1.73549 0
M  V30 5699 C 551.315 5.20921 -1.20604 0
M  V30 5700 C 552.615 4.17837 -3.13385 0
M  V30 5701 H 554.309 2.218 -2.01109 0
M  V30 5702 H 551.855 1.06581 -0.968326 0
M  V30 5703 H 553.808 4.1765 -0.560949 0
M  V30 5704 H 552.532 3.25462 0.272355 0
M  V30 5705 H 551.191 3.16025 -1.85807 0
M  V30 5706 H 550.839 5.02479 -0.228846 0
M  V30 5707 H 550.539 5.55987 -1.90136 0
M  V30 5708 H 552.063 6.00897 -1.08421 0
M  V30 5709 H 553.477 4.8588 -3.04292 0
M  V30 5710 H 551.874 4.64154 -3.80369 0
M  V30 5711 H 552.944 3.2419 -3.60595 0
M  V30 5712 N 554.287 1.06798 1.15896 0
M  V30 5713 C 555.536 0.782796 1.8589 0
M  V30 5714 C 555.849 -0.693498 1.82893 0
M  V30 5715 O 557.055 -1.09325 2.48516 0
M  V30 5716 C 555.511 1.3502 3.33613 0
M  V30 5717 C 555.119 2.8571 3.45071 0
M  V30 5718 C 556.863 1.14278 4.08829 0
M  V30 5719 C 554.77 3.35669 4.86909 0
M  V30 5720 H 553.7 0.289149 0.696354 0
M  V30 5721 H 556.351 1.28734 1.30766 0
M  V30 5722 H 554.733 0.773407 3.88374 0
M  V30 5723 H 555.907 3.49385 3.00445 0
M  V30 5724 H 554.222 3.05178 2.83294 0
M  V30 5725 H 556.819 1.49087 5.13495 0
M  V30 5726 H 557.162 0.0814575 4.1622 0
M  V30 5727 H 557.695 1.68563 3.60321 0
M  V30 5728 H 554.434 4.41302 4.84698 0
M  V30 5729 H 553.954 2.76745 5.32139 0
M  V30 5730 H 555.633 3.31296 5.55745 0
M  V30 5731 N 555.766 -1.3263 0.851289 0
M  V30 5732 C 556.676 -2.32722 0.296268 0
M  V30 5733 C 557.692 -1.63901 -0.584162 0
M  V30 5734 O 558.868 -1.95465 -0.485334 0
M  V30 5735 C 555.933 -3.42942 -0.509103 0
M  V30 5736 C 554.994 -4.2746 0.397069 0
M  V30 5737 C 554.227 -5.32416 -0.36996 0
M  V30 5738 O 554.45 -5.47491 -1.6003 0
M  V30 5739 O 553.384 -6.01327 0.262493 0
M  V30 5740 H 557.21 -2.82078 1.12543 0
M  V30 5741 H 554.795 -1.36194 0.614135 0
M  V30 5742 H 556.677 -4.1017 -0.96634 0
M  V30 5743 H 555.352 -2.95781 -1.31512 0
M  V30 5744 H 554.259 -3.63053 0.902411 0
M  V30 5745 H 555.592 -4.78136 1.16818 0
M  V30 5746 N 557.244 -0.608902 -1.45362 0
M  V30 5747 C 558.177 0.158059 -2.27652 0
M  V30 5748 C 559.155 0.872397 -1.37215 0
M  V30 5749 O 560.339 0.881002 -1.66645 0
M  V30 5750 C 557.466 1.22896 -3.15617 0
M  V30 5751 C 556.512 0.617607 -4.22005 0
M  V30 5752 S 557.345 -0.575518 -5.32398 0
M  V30 5753 C 558.501 0.495938 -6.23932 0
M  V30 5754 H 558.734 -0.540095 -2.92353 0
M  V30 5755 H 556.267 -0.396456 -1.49223 0
M  V30 5756 H 558.225 1.84195 -3.66855 0
M  V30 5757 H 556.886 1.89919 -2.50179 0
M  V30 5758 H 556.079 1.42341 -4.83482 0
M  V30 5759 H 555.681 0.0797273 -3.73915 0
M  V30 5760 H 557.973 1.37465 -6.63408 0
M  V30 5761 H 558.916 -0.0827108 -7.08052 0
M  V30 5762 H 559.324 0.811856 -5.58631 0
M  V30 5763 N 558.722 1.53707 -0.348139 0
M  V30 5764 C 559.962 2.02899 0.247254 0
M  V30 5765 C 560.326 1.23033 1.47401 0
M  V30 5766 O 561.527 1.62146 2.14388 0
M  V30 5767 C 559.798 3.53156 0.549151 0
M  V30 5768 S 561.357 4.24247 1.1207 0
M  V30 5769 H 558.175 0.707213 0.0732894 0
M  V30 5770 H 560.777 1.89338 -0.486965 0
M  V30 5771 H 559.481 4.08893 -0.351435 0
M  V30 5772 H 559.012 3.70845 1.31291 0
M  V30 5773 H 561.027 4.33958 2.40613 0
M  V30 5774 N 560.2 0.0768682 1.57412 0
M  V30 5775 C 561.132 -0.918248 2.10002 0
M  V30 5776 C 562.145 -1.25808 1.03325 0
M  V30 5777 O 563.334 -1.21438 1.30824 0
M  V30 5778 C 560.434 -2.23263 2.54964 0
M  V30 5779 C 559.607 -2.07088 3.8527 0
M  V30 5780 C 558.666 -3.21876 4.16272 0
M  V30 5781 O 557.692 -2.96643 4.8579 0
M  V30 5782 N 558.894 -4.4712 3.70221 0
M  V30 5783 H 561.659 -0.469209 2.96004 0
M  V30 5784 H 559.22 -0.108725 1.61535 0
M  V30 5785 H 561.212 -2.9897 2.72762 0
M  V30 5786 H 559.782 -2.59649 1.74072 0
M  V30 5787 H 559.002 -1.15818 3.76802 0
M  V30 5788 H 560.29 -1.93537 4.70554 0
M  V30 5789 H 559.688 -4.70506 3.1407 0
M  V30 5790 H 558.245 -5.19837 3.93209 0
M  V30 5791 N 561.678 -1.56367 -0.196722 0
M  V30 5792 C 562.924 -1.80796 -0.918725 0
M  V30 5793 C 563.257 -0.650645 -1.82976 0
M  V30 5794 O 562.532 0.348889 -1.91345 0
M  V30 5795 C 562.815 -3.15472 -1.73636 0
M  V30 5796 C 562.668 -4.41693 -0.85015 0
M  V30 5797 C 563.987 -3.46824 -2.70927 0
M  V30 5798 H 561.106 -0.657702 -0.332561 0
M  V30 5799 H 563.748 -1.89086 -0.186186 0
M  V30 5800 H 561.898 -3.08536 -2.36088 0
M  V30 5801 H 563.57 -4.60673 -0.240459 0
M  V30 5802 H 561.813 -4.33517 -0.156785 0
M  V30 5803 H 562.484 -5.32419 -1.45719 0
M  V30 5804 H 564.96 -3.54049 -2.18607 0
M  V30 5805 H 563.836 -4.4218 -3.25219 0
M  V30 5806 H 564.097 -2.70236 -3.49893 0
M  V30 5807 N 563.156 0.464375 -1.50603 0
M  V30 5808 C 564.433 1.22549 -1.5245 0
M  V30 5809 C 564.813 2.09327 -0.273035 0
M  V30 5810 O 564.161 2.16074 0.743242 0
M  V30 5811 C 564.371 2.05074 -2.82393 0
M  V30 5812 C 565.719 2.63036 -3.33313 0
M  V30 5813 O 566.743 2.1531 -2.8376 0
M  V30 5814 O 565.602 3.5001 -4.19709 0
M  V30 5815 H 562.696 0.556471 -0.611775 0
M  V30 5816 H 565.242 0.475648 -1.62898 0
M  V30 5817 H 564.014 1.41169 -3.64948 0
M  V30 5818 H 563.637 2.87179 -2.7498 0
M  V30 5819 N 564.634 1.40294 0.718013 0
M  V30 5820 C 565.862 1.4175 1.50714 0
M  V30 5821 C 566.277 0.0165366 1.88793 0
M  V30 5822 O 565.634 -0.958942 1.55276 0
M  V30 5823 C 565.685 2.30598 2.784 0
M  V30 5824 O 565.406 3.6524 2.41932 0
M  V30 5825 C 566.907 2.4062 3.72313 0
M  V30 5826 H 564.127 0.483565 0.465194 0
M  V30 5827 H 566.671 1.84316 0.885889 0
M  V30 5828 H 564.826 1.91401 3.36815 0
M  V30 5829 H 565.24 4.12402 3.24076 0
M  V30 5830 H 566.714 3.07001 4.58753 0
M  V30 5831 H 567.191 1.4305 4.15251 0
M  V30 5832 H 567.797 2.80359 3.19811 0
M  V30 5833 N 566.112 -0.949982 1.2575 0
M  V30 5834 C 567.042 -2.06483 1.09028 0
M  V30 5835 C 568.023 -1.701 -0.00201532 0
M  V30 5836 O 569.208 -1.93469 0.168383 0
M  V30 5837 C 566.338 -3.39899 0.71316 0
M  V30 5838 C 565.292 -3.90309 1.75621 0
M  V30 5839 C 564.618 -5.20274 1.23365 0
M  V30 5840 C 565.918 -4.16169 3.15596 0
M  V30 5841 H 567.612 -2.20731 2.02283 0
M  V30 5842 H 565.158 -1.06066 0.973964 0
M  V30 5843 H 567.111 -4.17346 0.58309 0
M  V30 5844 H 565.835 -3.25602 -0.255091 0
M  V30 5845 H 564.494 -3.15035 1.8748 0
M  V30 5846 H 564.142 -5.02351 0.255491 0
M  V30 5847 H 563.842 -5.54971 1.93082 0
M  V30 5848 H 565.366 -6.00314 1.11607 0
M  V30 5849 H 566.78 -4.84259 3.06864 0
M  V30 5850 H 565.177 -4.62131 3.82825 0
M  V30 5851 H 566.247 -3.22273 3.6231 0
M  V30 5852 N 567.59 -1.07411 -1.15328 0
M  V30 5853 C 568.839 -0.792643 -1.85473 0
M  V30 5854 C 569.152 0.683789 -1.83259 0
M  V30 5855 O 570.358 1.08005 -2.49093 0
M  V30 5856 C 568.814 -1.36787 -3.32892 0
M  V30 5857 C 568.422 -2.87536 -3.43551 0
M  V30 5858 C 570.166 -1.16444 -4.08217 0
M  V30 5859 C 568.073 -3.38247 -4.85122 0
M  V30 5860 H 567.003 -0.292838 -0.694811 0
M  V30 5861 H 569.654 -1.29426 -1.30082 0
M  V30 5862 H 568.036 -0.793993 -3.87958 0
M  V30 5863 H 569.21 -3.50973 -2.98588 0
M  V30 5864 H 567.525 -3.06676 -2.81672 0
M  V30 5865 H 570.122 -1.51808 -5.12697 0
M  V30 5866 H 570.465 -0.10353 -4.16171 0
M  V30 5867 H 570.998 -1.70472 -3.59422 0
M  V30 5868 H 567.737 -4.43866 -4.82351 0
M  V30 5869 H 567.257 -2.79564 -5.30664 0
M  V30 5870 H 568.936 -3.34238 -5.5398 0
M  V30 5871 N 569.068 1.32177 -0.85831 0
M  V30 5872 C 570.479 1.79381 -0.517621 0
M  V30 5873 C 570.83 1.70841 0.964769 0
M  V30 5874 O 569.955 1.26917 1.75274 0
M  V30 5875 C 570.55 3.25706 -0.932801 0
M  V30 5876 C 569.109 3.70851 -0.643953 0
M  V30 5877 C 568.256 2.53208 -1.13054 0
M  V30 5878 H 571.207 1.19424 -1.04516 0
M  V30 5879 H 571.228 3.79673 -0.250674 0
M  V30 5880 H 570.74 3.31889 -2.01174 0
M  V30 5881 H 568.841 3.70178 0.424112 0
M  V30 5882 H 568.954 4.63495 -1.21281 0
M  V30 5883 H 567.318 2.48676 -0.550679 0
M  V30 5884 H 568.101 2.62143 -2.21666 0
M  V30 5885 N 570.547 0.616602 1.45037 0
M  V30 5886 C 571.793 0.115501 2.02471 0
M  V30 5887 C 572.126 -1.25406 1.4828 0
M  V30 5888 O 571.401 -1.82922 0.661051 0
M  V30 5889 C 571.684 0.0863588 3.59996 0
M  V30 5890 C 571.537 1.48723 4.24501 0
M  V30 5891 C 572.856 -0.596762 4.36035 0
M  V30 5892 H 569.975 0.0434461 0.735718 0
M  V30 5893 H 572.617 0.7903 1.72784 0
M  V30 5894 H 570.767 -0.488277 3.85419 0
M  V30 5895 H 572.439 2.10964 4.10234 0
M  V30 5896 H 570.682 2.04534 3.82555 0
M  V30 5897 H 571.353 1.419 5.3345 0
M  V30 5898 H 573.829 -0.10824 4.15959 0
M  V30 5899 H 572.705 -0.586289 5.4576 0
M  V30 5900 H 572.966 -1.66451 4.09569 0
M  V30 5901 N 572.025 -1.5352 0.356285 0
M  V30 5902 C 572.973 -2.26945 -0.50978 0
M  V30 5903 C 573.967 -1.29569 -1.09125 0
M  V30 5904 O 575.173 -1.47231 -1.03552 0
M  V30 5905 H 571.548 -0.729368 -0.183102 0
M  V30 5906 H 573.519 -2.98111 0.131374 0
M  V30 5907 C 572.268 -3.06466 -1.64237 0
M  V30 5908 H 571.591 -3.81233 -1.20423 0
M  V30 5909 H 573.031 -3.61035 -2.22327 0
M  V30 5910 C 571.49 -2.16737 -2.57928 0
M  V30 5911 O 572.02 -1.77195 -3.60507 0
M  V30 5912 N 570.226 -1.81558 -2.26903 0
M  V30 5913 H 569.773 -2.13913 -1.43524 0
M  V30 5914 H 569.731 -1.21806 -2.89846 0
M  V30 5915 N 573.503 -0.0852151 -1.57369 0
M  V30 5916 C 574.451 0.894856 -2.14698 0
M  V30 5917 C 575.445 1.29903 -1.08727 0
M  V30 5918 O 576.651 1.27471 -1.27088 0
M  V30 5919 H 573.026 0.306569 -0.686673 0
M  V30 5920 H 574.997 0.386542 -2.95886 0
M  V30 5921 C 573.746 2.14798 -2.73417 0
M  V30 5922 H 573.069 1.84585 -3.54638 0
M  V30 5923 H 574.509 2.81456 -3.1711 0
M  V30 5924 C 572.968 2.91546 -1.68828 0
M  V30 5925 O 573.498 3.85733 -1.12129 0
M  V30 5926 N 571.704 2.54901 -1.39549 0
M  V30 5927 H 571.251 1.7838 -1.85845 0
M  V30 5928 H 571.209 3.06553 -0.698054 0
M  V30 5929 N 574.981 1.5647 0.188427 0
M  V30 5930 C 576.227 1.81281 0.909124 0
M  V30 5931 C 576.56 0.66034 1.82628 0
M  V30 5932 O 575.835 -0.338737 1.91528 0
M  V30 5933 C 576.118 3.16388 1.7196 0
M  V30 5934 C 575.971 4.42137 0.826714 0
M  V30 5935 C 577.29 3.48256 2.69083 0
M  V30 5936 H 574.409 0.659457 0.329068 0
M  V30 5937 H 577.051 1.89182 0.176156 0
M  V30 5938 H 575.201 3.09784 2.34448 0
M  V30 5939 H 576.873 4.60794 0.216025 0
M  V30 5940 H 575.116 4.33594 0.133792 0
M  V30 5941 H 575.787 5.33184 1.42893 0
M  V30 5942 H 578.263 3.55203 2.16726 0
M  V30 5943 H 577.139 4.43899 3.2287 0
M  V30 5944 H 577.4 2.72088 3.48455 0
M  V30 5945 N 576.459 -0.456382 1.50847 0
M  V30 5946 C 577.707 -1.20497 1.62249 0
M  V30 5947 C 578.028 -1.92156 0.331839 0
M  V30 5948 O 577.298 -1.84751 -0.651443 0
M  V30 5949 H 575.878 -0.447775 0.597918 0
M  V30 5950 H 578.54 -0.525099 1.87693 0
M  V30 5951 H 577.636 -1.94492 2.44089 0
M  V30 5952 N 577.937 -1.40673 -0.710563 0
M  V30 5953 C 578.885 -1.41517 -1.84596 0
M  V30 5954 C 579.879 -0.295043 -1.66811 0
M  V30 5955 O 581.085 -0.466331 -1.73854 0
M  V30 5956 H 577.46 -0.442467 -0.608052 0
M  V30 5957 H 579.431 -2.37238 -1.80999 0
M  V30 5958 C 578.18 -1.29957 -3.225 0
M  V30 5959 H 577.503 -2.15429 -3.36794 0
M  V30 5960 H 578.943 -1.34608 -4.02066 0
M  V30 5961 C 577.402 -0.0103164 -3.36898 0
M  V30 5962 O 577.932 0.950707 -3.90288 0
M  V30 5963 N 576.138 0.0608409 -2.90536 0
M  V30 5964 H 575.685 -0.721943 -2.47277 0
M  V30 5965 H 575.643 0.92292 -3.00549 0
M  V30 5966 N 579.415 0.9433 -1.26252 0
M  V30 5967 C 580.363 2.06302 -1.07434 0
M  V30 5968 C 581.357 1.694 -0.00189471 0
M  V30 5969 O 582.563 1.79302 -0.158408 0
M  V30 5970 H 578.938 0.675453 -0.330556 0
M  V30 5971 H 580.909 2.19326 -2.02333 0
M  V30 5972 C 579.658 3.40125 -0.721817 0
M  V30 5973 H 578.981 3.68996 -1.5389 0
M  V30 5974 H 580.421 4.19295 -0.629922 0
M  V30 5975 C 578.88 3.31993 0.572902 0
M  V30 5976 O 579.41 3.67945 1.61182 0
M  V30 5977 N 577.616 2.85099 0.562748 0
M  V30 5978 H 577.163 2.5604 -0.283092 0
M  V30 5979 H 577.121 2.80041 1.42915 0
M  V30 5980 N 580.893 1.08022 1.14757 0
M  V30 5981 C 582.139 0.808705 1.85978 0
M  V30 5982 C 582.472 -0.663764 1.82504 0
M  V30 5983 O 581.747 -1.48765 1.25296 0
M  V30 5984 C 582.03 1.32623 3.34788 0
M  V30 5985 C 581.883 2.86375 3.46856 0
M  V30 5986 C 583.202 0.948291 4.29762 0
M  V30 5987 H 580.321 0.295244 0.675278 0
M  V30 5988 H 582.963 1.33917 1.34783 0
M  V30 5989 H 581.113 0.875002 3.78518 0
M  V30 5990 H 582.785 3.39839 3.11941 0
M  V30 5991 H 581.028 3.24232 2.88194 0
M  V30 5992 H 581.699 3.17658 4.51439 0
M  V30 5993 H 584.175 1.33722 3.94028 0
M  V30 5994 H 583.051 1.33765 5.32352 0
M  V30 5995 H 583.312 -0.145094 4.41862 0
M  V30 5996 N 582.371 -1.3172 0.865308 0
M  V30 5997 C 583.619 -1.96487 0.472995 0
M  V30 5998 C 583.94 -1.68761 -0.976975 0
M  V30 5999 O 583.21 -1.00051 -1.68424 0
M  V30 6000 H 581.79 -0.726947 0.171922 0
M  V30 6001 H 584.452 -1.60612 1.10407 0
M  V30 6002 H 583.548 -3.0574 0.62687 0
M  V30 6003 N 583.85 -0.624285 -1.44708 0
M  V30 6004 C 584.798 0.0969952 -2.32398 0
M  V30 6005 C 585.792 0.842762 -1.46949 0
M  V30 6006 O 586.998 0.756436 -1.63334 0
M  V30 6007 H 583.373 0.0501306 -0.750327 0
M  V30 6008 H 585.344 -0.660767 -2.90992 0
M  V30 6009 C 584.093 1.06967 -3.30837 0
M  V30 6010 H 583.416 0.505242 -3.96595 0
M  V30 6011 H 584.856 1.54397 -3.94889 0
M  V30 6012 C 583.315 2.15153 -2.5925 0
M  V30 6013 O 583.845 3.23139 -2.3863 0
M  V30 6014 N 582.051 1.90898 -2.19103 0
M  V30 6015 H 581.598 1.03086 -2.36074 0
M  V30 6016 H 581.556 2.63485 -1.71531 0
M  V30 6017 N 585.328 1.53329 -0.364422 0
M  V30 6018 C 586.574 2.01537 0.225969 0
M  V30 6019 C 586.907 1.25128 1.48515 0
M  V30 6020 O 586.182 0.344653 1.91422 0
M  V30 6021 C 586.465 3.56339 0.519092 0
M  V30 6022 C 586.318 4.43441 -0.753639 0
M  V30 6023 C 587.637 4.19833 1.32015 0
M  V30 6024 H 584.756 0.732573 0.0806548 0
M  V30 6025 H 587.398 1.83597 -0.489084 0
M  V30 6026 H 585.548 3.71756 1.12825 0
M  V30 6027 H 587.22 4.39823 -1.39116 0
M  V30 6028 H 585.463 4.11457 -1.37424 0
M  V30 6029 H 586.134 5.49699 -0.503517 0
M  V30 6030 H 588.61 4.08242 0.804859 0
M  V30 6031 H 587.486 5.28177 1.49399 0
M  V30 6032 H 587.747 3.75821 2.32832 0
M  V30 6033 N 586.806 0.0935595 1.57322 0
M  V30 6034 C 588.031 -0.582324 1.99057 0
M  V30 6035 C 588.456 -1.61025 0.972242 0
M  V30 6036 O 587.814 -1.81202 -0.0594622 0
M  V30 6037 C 587.862 -1.20799 3.39765 0
M  V30 6038 O 586.966 -2.32382 3.40694 0
M  V30 6039 H 586.307 -0.147884 0.647323 0
M  V30 6040 H 588.837 0.174516 2.03854 0
M  V30 6041 H 588.847 -1.54966 3.77425 0
M  V30 6042 H 587.522 -0.454914 4.13405 0
M  V30 6043 H 586.099 -1.99845 3.14827 0
M  V30 6044 N 588.284 -1.56567 -0.180126 0
M  V30 6045 C 589.217 -1.90813 -1.25163 0
M  V30 6046 C 590.195 -0.7699 -1.43218 0
M  V30 6047 O 591.379 -1.02236 -1.58367 0
M  V30 6048 C 588.506 -2.15138 -2.61597 0
M  V30 6049 C 587.552 -3.37834 -2.60328 0
M  V30 6050 S 588.385 -4.92486 -2.1028 0
M  V30 6051 C 589.541 -5.19896 -3.48509 0
M  V30 6052 H 589.774 -2.81398 -0.959283 0
M  V30 6053 H 587.307 -1.49541 -0.3843 0
M  V30 6054 H 589.265 -2.29835 -3.40127 0
M  V30 6055 H 587.926 -1.25276 -2.88036 0
M  V30 6056 H 587.119 -3.52027 -3.60684 0
M  V30 6057 H 586.721 -3.22208 -1.8989 0
M  V30 6058 H 589.013 -5.11334 -4.44459 0
M  V30 6059 H 589.956 -6.21571 -3.39198 0
M  V30 6060 H 590.364 -4.47489 -3.44114 0
M  V30 6061 N 589.762 0.448376 -1.51087 0
M  V30 6062 C 590.992 1.21965 -1.66757 0
M  V30 6063 C 591.4 1.85748 -0.359753 0
M  V30 6064 O 590.743 1.71022 0.670604 0
M  V30 6065 C 590.805 2.35284 -2.71812 0
M  V30 6066 C 590.469 1.91957 -4.1473 0
M  V30 6067 C 591.466 1.42921 -4.9987 0
M  V30 6068 C 589.151 1.99985 -4.60772 0
M  V30 6069 C 591.145 1.02485 -6.29107 0
M  V30 6070 C 588.832 1.5916 -5.90009 0
M  V30 6071 C 589.83 1.10491 -6.74004 0
M  V30 6072 O 589.518 0.702413 -8.00825 0
M  V30 6073 H 589.25 0.374125 -0.563034 0
M  V30 6074 H 591.804 0.538927 -1.98204 0
M  V30 6075 H 590.034 3.06599 -2.35657 0
M  V30 6076 H 591.723 2.97184 -2.76472 0
M  V30 6077 H 592.489 1.36123 -4.65506 0
M  V30 6078 H 588.368 2.36814 -3.95525 0
M  V30 6079 H 591.912 0.644271 -6.94619 0
M  V30 6080 H 587.809 1.65626 -6.2389 0
M  V30 6081 H 588.577 0.829248 -8.14288 0
M  V30 6082 N 591.24 1.41047 0.703093 0
M  V30 6083 C 592.468 1.4334 1.49202 0
M  V30 6084 C 592.883 0.0365596 1.88765 0
M  V30 6085 O 592.24 -0.942419 1.56284 0
M  V30 6086 C 592.291 2.33538 2.75939 0
M  V30 6087 O 592.012 3.67786 2.38045 0
M  V30 6088 C 593.513 2.44555 3.6974 0
M  V30 6089 H 590.733 0.488472 0.460039 0
M  V30 6090 H 593.277 1.85245 0.86629 0
M  V30 6091 H 591.432 1.94962 3.34766 0
M  V30 6092 H 591.846 4.15816 3.19683 0
M  V30 6093 H 593.32 3.11849 4.55471 0
M  V30 6094 H 593.797 1.47447 4.1371 0
M  V30 6095 H 594.403 2.83735 3.16819 0
M  V30 6096 N 592.718 -0.936591 1.26751 0
M  V30 6097 C 593.964 -1.6858 1.12733 0
M  V30 6098 C 594.297 -1.91414 -0.327745 0
M  V30 6099 O 593.572 -1.49812 -1.24043 0
M  V30 6100 C 593.855 -3.05779 1.90187 0
M  V30 6101 C 593.708 -2.90242 3.43627 0
M  V30 6102 C 595.027 -4.0597 1.69931 0
M  V30 6103 H 592.146 -0.61182 0.410908 0
M  V30 6104 H 594.788 -1.08747 1.55801 0
M  V30 6105 H 592.938 -3.56853 1.53584 0
M  V30 6106 H 594.61 -2.46354 3.9001 0
M  V30 6107 H 592.853 -2.2577 3.70419 0
M  V30 6108 H 593.524 -3.87572 3.93055 0
M  V30 6109 H 596 -3.63874 2.0183 0
M  V30 6110 H 594.876 -4.99974 2.26534 0
M  V30 6111 H 595.137 -4.37369 0.64502 0
M  V30 6112 N 594.196 -1.08629 -1.14182 0
M  V30 6113 C 595.128 -0.676189 -2.18998 0
M  V30 6114 C 596.141 0.277871 -1.60411 0
M  V30 6115 O 597.33 0.0651771 -1.78381 0
M  V30 6116 C 594.43 0.0254916 -3.3889 0
M  V30 6117 C 593.603 -0.948039 -4.27002 0
M  V30 6118 C 592.662 -0.281268 -5.25448 0
M  V30 6119 O 591.688 -0.926378 -5.61611 0
M  V30 6120 N 592.89 0.967923 -5.72374 0
M  V30 6121 H 595.655 -1.57792 -2.54798 0
M  V30 6122 H 593.216 -0.972665 -1.29425 0
M  V30 6123 H 595.208 0.482554 -4.01813 0
M  V30 6124 H 593.778 0.829348 -3.01398 0
M  V30 6125 H 592.998 -1.58388 -3.6098 0
M  V30 6126 H 594.286 -1.60765 -4.82734 0
M  V30 6127 H 593.684 1.51175 -5.45126 0
M  V30 6128 H 592.241 1.36844 -6.37273 0
M  V30 6129 N 595.674 1.31259 -0.872281 0
M  V30 6130 C 596.604 2.30929 -0.345554 0
M  V30 6131 C 597.585 1.60449 0.5648 0
M  V30 6132 O 598.77 1.8814 0.481335 0
M  V30 6133 C 595.9 3.44348 0.451823 0
M  V30 6134 C 594.854 4.26435 -0.365641 0
M  V30 6135 C 594.18 5.31785 0.557562 0
M  V30 6136 C 595.48 4.97159 -1.60095 0
M  V30 6137 H 597.174 2.75234 -1.17841 0
M  V30 6138 H 594.72 1.3232 -0.568094 0
M  V30 6139 H 596.673 4.13128 0.830854 0
M  V30 6140 H 595.397 2.98816 1.31821 0
M  V30 6141 H 594.056 3.59326 -0.726649 0
M  V30 6142 H 593.704 4.82502 1.4213 0
M  V30 6143 H 593.404 5.87598 0.0144878 0
M  V30 6144 H 594.928 6.03424 0.933387 0
M  V30 6145 H 596.342 5.58523 -1.29323 0
M  V30 6146 H 594.739 5.62779 -2.08327 0
M  V30 6147 H 595.809 4.24012 -2.35249 0
M  V30 6148 N 597.152 0.631951 1.44375 0
M  V30 6149 C 598.4 0.136497 2.01639 0
M  V30 6150 C 598.721 -1.24637 1.49969 0
M  V30 6151 O 597.991 -1.82827 0.70363 0
M  V30 6152 H 596.571 0.0474703 0.74549 0
M  V30 6153 H 599.233 0.818837 1.76865 0
M  V30 6154 H 598.329 0.104817 3.11924 0
M  V30 6155 N 598.631 -1.53133 0.372548 0
M  V30 6156 C 599.579 -2.27473 -0.485681 0
M  V30 6157 C 600.573 -1.30719 -1.07745 0
M  V30 6158 O 601.779 -1.48321 -1.01985 0
M  V30 6159 H 598.154 -0.731269 -0.175356 0
M  V30 6160 H 600.125 -2.97955 0.162986 0
M  V30 6161 C 598.874 -3.08191 -1.60978 0
M  V30 6162 H 598.197 -3.82488 -1.16373 0
M  V30 6163 H 599.637 -3.63373 -2.18485 0
M  V30 6164 C 598.096 -2.19461 -2.55614 0
M  V30 6165 O 598.626 -1.81008 -3.58607 0
M  V30 6166 N 596.832 -1.83955 -2.24965 0
M  V30 6167 H 596.379 -2.15423 -1.41247 0
M  V30 6168 H 596.337 -1.24874 -2.88538 0
M  V30 6169 N 600.109 -0.101901 -1.5727 0
M  V30 6170 C 601.041 0.884723 -2.11436 0
M  V30 6171 C 602.054 1.24149 -1.05314 0
M  V30 6172 O 603.243 1.19341 -1.3274 0
M  V30 6173 C 600.343 2.19179 -2.58484 0
M  V30 6174 C 599.516 2.00933 -3.88516 0
M  V30 6175 C 598.575 3.15213 -4.2134 0
M  V30 6176 O 597.601 2.88877 -4.90448 0
M  V30 6177 N 598.803 4.41174 -3.77288 0
M  V30 6178 H 601.568 0.422058 -2.96713 0
M  V30 6179 H 599.129 0.0830128 -1.61687 0
M  V30 6180 H 601.121 2.94593 -2.77484 0
M  V30 6181 H 599.691 2.56847 -1.7818 0
M  V30 6182 H 598.911 1.09809 -3.78597 0
M  V30 6183 H 600.199 1.86026 -4.73573 0
M  V30 6184 H 599.597 4.6545 -3.21516 0
M  V30 6185 H 598.154 5.13515 -4.01429 0
M  V30 6186 N 601.587 1.56661 0.17182 0
M  V30 6187 C 602.815 1.861 0.904115 0
M  V30 6188 C 603.23 0.687227 1.75848 0
M  V30 6189 O 602.587 -0.343671 1.79235 0
M  V30 6190 C 602.638 3.14568 1.78127 0
M  V30 6191 O 602.359 4.27422 0.961366 0
M  V30 6192 C 603.86 3.5735 2.62327 0
M  V30 6193 H 601.08 0.617445 0.262684 0
M  V30 6194 H 603.624 2.03775 0.172068 0
M  V30 6195 H 601.779 2.98721 2.46666 0
M  V30 6196 H 602.193 5.00725 1.56123 0
M  V30 6197 H 603.667 4.50144 3.1949 0
M  V30 6198 H 604.144 2.81445 3.37173 0
M  V30 6199 H 604.75 3.75807 1.99121 0
M  V30 6200 N 603.065 -0.440357 1.51323 0
M  V30 6201 C 604.313 -1.18769 1.63518 0
M  V30 6202 C 604.634 -1.91793 0.352201 0
M  V30 6203 O 603.904 -1.85432 -0.631811 0
M  V30 6204 H 602.484 -0.441408 0.602634 0
M  V30 6205 H 605.146 -0.505162 1.8824 0
M  V30 6206 H 604.242 -1.91892 2.46138 0
M  V30 6207 N 604.543 -1.41418 -0.695603 0
M  V30 6208 C 605.476 -1.3768 -1.81988 0
M  V30 6209 C 606.454 -0.244061 -1.60758 0
M  V30 6210 O 607.638 -0.430965 -1.83507 0
M  V30 6211 C 604.765 -1.1476 -3.18666 0
M  V30 6212 C 603.811 -2.30752 -3.58686 0
M  V30 6213 S 604.644 -3.9323 -3.63498 0
M  V30 6214 C 605.8 -3.72613 -5.02902 0
M  V30 6215 H 606.033 -2.32822 -1.84882 0
M  V30 6216 H 603.566 -1.27942 -0.86431 0
M  V30 6217 H 605.524 -1.02223 -3.97569 0
M  V30 6218 H 604.185 -0.212385 -3.13381 0
M  V30 6219 H 603.378 -2.10409 -4.57978 0
M  V30 6220 H 602.98 -2.39696 -2.87092 0
M  V30 6221 H 605.272 -3.32317 -5.904 0
M  V30 6222 H 606.215 -4.71507 -5.28286 0
M  V30 6223 H 606.623 -3.0589 -4.74438 0
M  V30 6224 N 606.021 0.929856 -1.27246 0
M  V30 6225 C 606.984 2.01172 -1.09829 0
M  V30 6226 C 607.984 1.60743 -0.0429687 0
M  V30 6227 O 609.174 1.71813 -0.287373 0
M  V30 6228 C 606.306 3.34191 -0.673003 0
M  V30 6229 H 607.499 2.18054 -2.05895 0
M  V30 6230 H 605.052 1.11036 -1.10003 0
M  V30 6231 H 605.787 3.23009 0.289134 0
M  V30 6232 H 605.572 3.64892 -1.43515 0
M  V30 6233 H 607.062 4.13646 -0.573323 0
M  V30 6234 N 607.499 1.09233 1.13605 0
M  V30 6235 C 608.431 0.687794 2.18637 0
M  V30 6236 C 609.444 -0.26936 1.60556 0
M  V30 6237 O 610.633 -0.0557162 1.78413 0
M  V30 6238 C 607.733 -0.00751901 3.38899 0
M  V30 6239 C 606.906 0.97067 4.26494 0
M  V30 6240 C 605.965 0.309129 5.25291 0
M  V30 6241 O 604.991 0.956149 5.61112 0
M  V30 6242 N 606.193 -0.937555 5.72879 0
M  V30 6243 H 608.958 1.59141 2.53957 0
M  V30 6244 H 606.519 0.979515 1.28907 0
M  V30 6245 H 608.511 -0.461238 4.02063 0
M  V30 6246 H 607.081 -0.813353 3.01833 0
M  V30 6247 H 606.301 1.603 3.60135 0
M  V30 6248 H 607.589 1.63323 4.81875 0
M  V30 6249 H 606.987 -1.48281 5.4592 0
M  V30 6250 H 605.544 -1.33463 6.3799 0
M  V30 6251 N 608.977 -1.30795 0.87923 0
M  V30 6252 C 609.924 -2.28282 0.339968 0
M  V30 6253 C 610.894 -1.56134 -0.566685 0
M  V30 6254 O 612.079 -1.84231 -0.496338 0
M  V30 6255 C 609.219 -3.42225 -0.444501 0
M  V30 6256 C 608.332 -4.29204 0.490717 0
M  V30 6257 C 607.467 -5.30302 -0.308784 0
M  V30 6258 C 606.506 -6.08929 0.622272 0
M  V30 6259 N 605.643 -7.01957 -0.14155 0
M  V30 6260 H 610.483 -2.73794 1.17647 0
M  V30 6261 H 608.02 -1.34682 0.591527 0
M  V30 6262 H 609.978 -4.07038 -0.915186 0
M  V30 6263 H 608.608 -2.97799 -1.24562 0
M  V30 6264 H 607.66 -3.6475 1.07988 0
M  V30 6265 H 608.972 -4.84045 1.20425 0
M  V30 6266 H 608.126 -6.00835 -0.841575 0
M  V30 6267 H 606.865 -4.7614 -1.05556 0
M  V30 6268 H 605.87 -5.37278 1.16674 0
M  V30 6269 H 607.095 -6.65178 1.36804 0
M  V30 6270 H 605.041 -6.50192 -0.870966 0
M  V30 6271 H 604.958 -7.54261 0.51246 0
M  V30 6272 H 606.226 -7.76741 -0.655271 0
M  V30 6273 N 610.455 -0.639598 -1.44038 0
M  V30 6274 C 611.701 -0.147698 -2.02261 0
M  V30 6275 C 612.034 1.23031 -1.50256 0
M  V30 6276 O 611.309 1.81847 -0.690068 0
M  V30 6277 C 611.592 -0.14362 -3.59813 0
M  V30 6278 C 611.445 -1.55458 -4.22082 0
M  V30 6279 C 612.764 0.527317 -4.36929 0
M  V30 6280 H 609.883 -0.0551453 -0.734934 0
M  V30 6281 H 612.525 -0.817688 -1.71505 0
M  V30 6282 H 610.675 0.426898 -3.86147 0
M  V30 6283 H 612.347 -2.17464 -4.06826 0
M  V30 6284 H 610.59 -2.10594 -3.79253 0
M  V30 6285 H 611.261 -1.50369 -5.31124 0
M  V30 6286 H 613.737 0.0420504 -4.16079 0
M  V30 6287 H 612.613 0.499389 -5.46624 0
M  V30 6288 H 612.874 1.59914 -4.12165 0
M  V30 6289 N 611.933 1.52934 -0.380664 0
M  V30 6290 C 613.18 2.01467 0.204278 0
M  V30 6291 C 613.508 1.26744 1.47533 0
M  V30 6292 O 612.763 0.353723 1.92477 0
M  V30 6293 C 613.062 3.5349 0.527199 0
M  V30 6294 C 612.728 4.46171 -0.651295 0
M  V30 6295 C 611.39 4.71227 -0.974619 0
M  V30 6296 C 613.742 5.00909 -1.44012 0
M  V30 6297 C 611.07 5.4827 -2.08847 0
M  V30 6298 C 613.422 5.7917 -2.5445 0
M  V30 6299 C 612.086 6.02507 -2.87301 0
M  V30 6300 H 611.356 0.73722 0.0747504 0
M  V30 6301 H 614.003 1.84411 -0.516234 0
M  V30 6302 H 612.308 3.68574 1.32892 0
M  V30 6303 H 614.005 3.88529 0.992283 0
M  V30 6304 H 610.595 4.26829 -0.389276 0
M  V30 6305 H 614.779 4.81485 -1.20357 0
M  V30 6306 H 610.035 5.64567 -2.34679 0
M  V30 6307 H 614.209 6.20588 -3.1598 0
M  V30 6308 H 611.836 6.61989 -3.7373 0
M  V30 6309 N 613.412 0.11024 1.57214 0
M  V30 6310 C 614.637 -0.561179 1.99664 0
M  V30 6311 C 615.062 -1.59985 0.989266 0
M  V30 6312 O 614.42 -1.81255 -0.0402399 0
M  V30 6313 C 614.468 -1.17189 3.41027 0
M  V30 6314 O 613.572 -2.28755 3.4314 0
M  V30 6315 H 612.913 -0.14101 0.648855 0
M  V30 6316 H 615.443 0.196128 2.03658 0
M  V30 6317 H 615.453 -1.50954 3.79047 0
M  V30 6318 H 614.128 -0.411041 4.13864 0
M  V30 6319 H 612.705 -1.96495 3.16929 0
M  V30 6320 N 614.89 -1.56749 -0.16351 0
M  V30 6321 C 616.139 -1.81626 -0.877211 0
M  V30 6322 C 616.452 -0.688791 -1.83071 0
M  V30 6323 O 617.658 -0.822697 -2.58735 0
M  V30 6324 C 616.114 -3.21858 -1.61045 0
M  V30 6325 C 615.722 -4.42494 -0.700195 0
M  V30 6326 C 617.466 -3.56021 -2.31192 0
M  V30 6327 C 615.373 -5.73748 -1.43412 0
M  V30 6328 H 614.303 -0.67731 -0.331312 0
M  V30 6329 H 616.954 -1.83039 -0.13006 0
M  V30 6330 H 615.336 -3.14784 -2.40264 0
M  V30 6331 H 616.51 -4.60766 0.0555849 0
M  V30 6332 H 614.825 -4.1626 -0.10799 0
M  V30 6333 H 617.422 -4.51333 -2.8671 0
M  V30 6334 H 617.765 -2.81277 -3.06902 0
M  V30 6335 H 618.298 -3.64682 -1.58909 0
M  V30 6336 H 615.037 -6.51543 -0.719186 0
M  V30 6337 H 614.557 -5.5944 -2.16302 0
M  V30 6338 H 616.236 -6.15975 -1.9795 0
M  V30 6339 N 616.368 0.432326 -1.51554 0
M  V30 6340 C 617.315 1.52512 -1.7323 0
M  V30 6341 C 618.285 1.55863 -0.5741 0
M  V30 6342 O 619.47 1.72796 -0.809093 0
M  V30 6343 C 616.61 2.90183 -1.86783 0
M  V30 6344 C 615.723 2.96322 -3.14352 0
M  V30 6345 C 614.858 4.25147 -3.18471 0
M  V30 6346 C 613.897 4.25172 -4.40335 0
M  V30 6347 N 613.034 5.45529 -4.41975 0
M  V30 6348 H 617.874 1.33332 -2.66508 0
M  V30 6349 H 615.411 0.647613 -1.32077 0
M  V30 6350 H 617.369 3.70071 -1.92623 0
M  V30 6351 H 615.999 3.0791 -0.969087 0
M  V30 6352 H 615.051 2.09066 -3.17798 0
M  V30 6353 H 616.363 2.92203 -4.04251 0
M  V30 6354 H 615.517 5.13411 -3.23255 0
M  V30 6355 H 614.256 4.31929 -2.2647 0
M  V30 6356 H 613.261 3.353 -4.35723 0
M  V30 6357 H 614.486 4.20049 -5.33606 0
M  V30 6358 H 612.432 5.53024 -3.52847 0
M  V30 6359 H 612.349 5.43311 -5.25689 0
M  V30 6360 H 613.617 6.35812 -4.50958 0
M  V30 6361 N 617.846 1.41785 0.688094 0
M  V30 6362 C 619.092 1.41753 1.4503 0
M  V30 6363 C 619.425 0.0290745 1.94178 0
M  V30 6364 O 618.7 -0.944456 1.7003 0
M  V30 6365 C 618.983 2.43069 2.65686 0
M  V30 6366 C 618.836 3.91053 2.22256 0
M  V30 6367 C 620.155 2.41543 3.67893 0
M  V30 6368 H 617.274 0.516202 0.526027 0
M  V30 6369 H 619.916 1.73111 0.783105 0
M  V30 6370 H 618.066 2.1646 3.2261 0
M  V30 6371 H 619.738 4.28594 1.70602 0
M  V30 6372 H 617.981 4.05559 1.53963 0
M  V30 6373 H 618.652 4.57501 3.08863 0
M  V30 6374 H 621.128 2.65175 3.20658 0
M  V30 6375 H 620.004 3.14434 4.49914 0
M  V30 6376 H 620.265 1.43666 4.18106 0
M  V30 6377 N 619.324 -0.923095 1.27737 0
M  V30 6378 C 620.601 -1.64989 1.05062 0
M  V30 6379 C 620.981 -2.07018 -0.413124 0
M  V30 6380 O 620.329 -1.80797 -1.39731 0
M  V30 6381 C 620.539 -2.84847 2.01652 0
M  V30 6382 C 621.887 -3.56083 2.31279 0
M  V30 6383 O 622.911 -2.94981 1.99662 0
M  V30 6384 O 621.77 -4.66182 2.85196 0
M  V30 6385 H 618.864 -0.723357 0.400853 0
M  V30 6386 H 621.41 -0.973224 1.3902 0
M  V30 6387 H 620.182 -2.50814 3.00347 0
M  V30 6388 H 619.805 -3.60231 1.68284 0
M  V30 6389 N 620.802 -1.09834 -1.13024 0
M  V30 6390 C 622.051 -0.831806 -1.83749 0
M  V30 6391 C 622.364 0.644763 -1.84668 0
M  V30 6392 O 623.57 1.02697 -2.51327 0
M  V30 6393 C 622.026 -1.43817 -3.29916 0
M  V30 6394 C 621.634 -2.94759 -3.37374 0
M  V30 6395 C 623.378 -1.25077 -4.05655 0
M  V30 6396 C 621.285 -3.48461 -4.77838 0
M  V30 6397 H 620.215 -0.30751 -0.688443 0
M  V30 6398 H 622.866 -1.32156 -1.27307 0
M  V30 6399 H 621.248 -0.876106 -3.86187 0
M  V30 6400 H 622.422 -3.57228 -2.91076 0
M  V30 6401 H 620.737 -3.12581 -2.75103 0
M  V30 6402 H 623.334 -1.62649 -5.09362 0
M  V30 6403 H 623.677 -0.191782 -4.15858 0
M  V30 6404 H 624.21 -1.78057 -3.55725 0
M  V30 6405 H 620.949 -4.53998 -4.72828 0
M  V30 6406 H 620.469 -2.90757 -5.24615 0
M  V30 6407 H 622.148 -3.45914 -5.46766 0
M  V30 6408 N 622.28 1.30327 -0.886154 0
M  V30 6409 C 623.508 2.00254 -0.520176 0
M  V30 6410 C 623.923 1.66419 0.891637 0
M  V30 6411 O 623.28 0.901951 1.58654 0
M  V30 6412 C 623.331 3.54916 -0.686775 0
M  V30 6413 O 623.052 3.87547 -2.04301 0
M  V30 6414 C 624.553 4.42115 -0.323945 0
M  V30 6415 H 621.773 0.640204 -0.200947 0
M  V30 6416 H 624.317 1.66183 -1.19178 0
M  V30 6417 H 622.472 3.8735 -0.0625273 0
M  V30 6418 H 622.886 4.82247 -2.06249 0
M  V30 6419 H 624.36 5.49808 -0.491407 0
M  V30 6420 H 624.837 4.32953 0.73811 0
M  V30 6421 H 625.443 4.15129 -0.924565 0
M  V30 6422 N 623.758 0.647228 1.43697 0
M  V30 6423 C 624.983 0.164083 2.0675 0
M  V30 6424 C 625.408 -1.15892 1.48158 0
M  V30 6425 O 624.766 -1.71459 0.589194 0
M  V30 6426 C 624.814 0.0800368 3.60511 0
M  V30 6427 O 623.918 -0.959453 4.01084 0
M  V30 6428 H 623.259 0.0921288 0.657578 0
M  V30 6429 H 625.789 0.88846 1.84303 0
M  V30 6430 H 625.799 -0.105263 4.07864 0
M  V30 6431 H 624.474 1.04586 4.02535 0
M  V30 6432 H 623.051 -0.747425 3.65333 0
M  V30 6433 N 625.236 -1.5273 0.388769 0
M  V30 6434 C 626.168 -2.24081 -0.481704 0
M  V30 6435 C 627.181 -1.26307 -1.02715 0
M  V30 6436 O 628.37 -1.52386 -0.929565 0
M  V30 6437 C 625.47 -2.94315 -1.68024 0
M  V30 6438 C 624.643 -4.18791 -1.26226 0
M  V30 6439 C 623.702 -4.72028 -2.32542 0
M  V30 6440 O 622.728 -5.35129 -1.93972 0
M  V30 6441 N 623.93 -4.51838 -3.64448 0
M  V30 6442 H 626.695 -2.9942 0.129591 0
M  V30 6443 H 624.256 -1.60465 0.2151 0
M  V30 6444 H 626.248 -3.26831 -2.38671 0
M  V30 6445 H 624.818 -2.22287 -2.19789 0
M  V30 6446 H 624.038 -3.92318 -0.384703 0
M  V30 6447 H 625.326 -4.99668 -0.959647 0
M  V30 6448 H 624.724 -4.01468 -3.98547 0
M  V30 6449 H 623.281 -4.88845 -4.31131 0
M  V30 6450 N 626.714 -0.118576 -1.57153 0
M  V30 6451 C 628.125 0.40687 -1.82213 0
M  V30 6452 C 628.476 1.66636 -1.03571 0
M  V30 6453 O 627.601 2.14682 -0.272171 0
M  V30 6454 C 628.196 0.744949 -3.30509 0
M  V30 6455 C 626.755 1.21503 -3.5625 0
M  V30 6456 C 625.902 0.223511 -2.76398 0
M  V30 6457 H 628.853 -0.343712 -1.54933 0
M  V30 6458 H 628.874 1.6024 -3.45114 0
M  V30 6459 H 628.386 -0.171911 -3.87719 0
M  V30 6460 H 626.487 2.1488 -3.04396 0
M  V30 6461 H 626.6 1.16065 -4.64829 0
M  V30 6462 H 624.964 0.71046 -2.44591 0
M  V30 6463 H 625.747 -0.686439 -3.36367 0
M  V30 6464 N 628.193 1.56834 0.155195 0
M  V30 6465 C 629.123 2.00678 1.19376 0
M  V30 6466 C 630.104 0.884973 1.45266 0
M  V30 6467 O 631.289 1.1522 1.56326 0
M  V30 6468 C 628.419 2.38042 2.5289 0
M  V30 6469 C 627.373 3.53332 2.41538 0
M  V30 6470 C 626.699 3.76485 3.79688 0
M  V30 6471 C 627.999 4.86265 1.9064 0
M  V30 6472 H 629.693 2.87688 0.829232 0
M  V30 6473 H 627.239 1.38407 0.397445 0
M  V30 6474 H 629.192 2.67314 3.25763 0
M  V30 6475 H 627.916 1.4796 2.91162 0
M  V30 6476 H 626.575 3.24213 1.71117 0
M  V30 6477 H 626.223 2.83667 4.15382 0
M  V30 6478 H 625.923 4.54068 3.72956 0
M  V30 6479 H 627.447 4.08174 4.54122 0
M  V30 6480 H 628.861 5.14308 2.53299 0
M  V30 6481 H 627.258 5.67597 1.94818 0
M  V30 6482 H 628.328 4.77184 0.861596 0
M  V30 6483 N 629.671 -0.424282 1.51781 0
M  V30 6484 C 630.634 -1.49848 1.73431 0
M  V30 6485 C 631.634 -1.49016 0.604225 0
M  V30 6486 O 632.824 -1.50808 0.871935 0
M  V30 6487 C 629.956 -2.89332 1.80277 0
M  V30 6488 H 631.149 -1.3195 2.69312 0
M  V30 6489 H 628.702 -0.653809 1.41968 0
M  V30 6490 H 629.437 -3.12618 0.862568 0
M  V30 6491 H 629.222 -2.9134 2.62419 0
M  V30 6492 H 630.712 -3.67233 1.98821 0
M  V30 6493 N 631.149 -1.42148 -0.680565 0
M  V30 6494 C 632.377 -1.45696 -1.46902 0
M  V30 6495 C 632.792 -0.0665858 -1.88683 0
M  V30 6496 O 632.149 0.917436 -1.57764 0
M  V30 6497 C 632.2 -2.37898 -2.72188 0
M  V30 6498 O 631.921 -3.71526 -2.32163 0
M  V30 6499 C 633.422 -2.50407 -3.65802 0
M  V30 6500 H 630.642 -0.495729 -0.45221 0
M  V30 6501 H 633.186 -1.866 -0.836709 0
M  V30 6502 H 631.341 -2.00263 -3.31622 0
M  V30 6503 H 631.755 -4.20849 -3.13027 0
M  V30 6504 H 633.229 -3.19056 -4.50452 0
M  V30 6505 H 633.706 -1.5401 -4.11312 0
M  V30 6506 H 634.312 -2.8874 -3.12265 0
M  V30 6507 N 632.627 0.916307 -1.28225 0
M  V30 6508 C 633.855 1.69901 -1.18073 0
M  V30 6509 C 634.27 1.86988 0.260968 0
M  V30 6510 O 633.627 1.39505 1.17663 0
M  V30 6511 C 633.678 3.09254 -1.87201 0
M  V30 6512 O 633.399 2.92959 -3.2574 0
M  V30 6513 C 634.9 4.0362 -1.83319 0
M  V30 6514 H 632.12 0.531181 -0.409985 0
M  V30 6515 H 634.664 1.14703 -1.69303 0
M  V30 6516 H 632.819 3.61277 -1.39848 0
M  V30 6517 H 633.233 3.81139 -3.60324 0
M  V30 6518 H 634.707 4.98873 -2.36282 0
M  V30 6519 H 635.184 4.3176 -0.805007 0
M  V30 6520 H 635.79 3.57524 -2.3034 0
M  V30 6521 N 634.105 1.10431 1.1244 0
M  V30 6522 C 635.035 0.775143 2.20258 0
M  V30 6523 C 636.016 -0.25186 1.68225 0
M  V30 6524 O 637.201 -0.117637 1.93843 0
M  V30 6525 C 634.331 0.206133 3.46688 0
M  V30 6526 C 633.285 1.16382 4.11873 0
M  V30 6527 C 632.611 0.456014 5.32752 0
M  V30 6528 C 633.911 2.5104 4.58013 0
M  V30 6529 H 635.605 1.67665 2.4805 0
M  V30 6530 H 633.151 0.807595 1.19222 0
M  V30 6531 H 635.104 -0.036291 4.21384 0
M  V30 6532 H 633.828 -0.730614 3.18323 0
M  V30 6533 H 632.487 1.39169 3.39157 0
M  V30 6534 H 632.135 -0.485203 5.00654 0
M  V30 6535 H 631.835 1.09466 5.77314 0
M  V30 6536 H 633.359 0.222135 6.10196 0
M  V30 6537 H 634.773 2.32401 5.24083 0
M  V30 6538 H 633.17 3.10789 5.13352 0
M  V30 6539 H 634.24 3.11039 3.71998 0
M  V30 6540 N 635.583 -1.29855 0.893053 0
M  V30 6541 C 636.832 -1.95104 0.511597 0
M  V30 6542 C 637.145 -1.71226 -0.945567 0
M  V30 6543 O 638.351 -2.30525 -1.43424 0
M  V30 6544 C 636.807 -3.49374 0.864034 0
M  V30 6545 C 636.415 -3.82061 2.33952 0
M  V30 6546 C 638.159 -4.20894 0.552167 0
M  V30 6547 C 636.066 -5.29546 2.63316 0
M  V30 6548 H 634.996 -0.73029 0.187597 0
M  V30 6549 H 637.647 -1.47682 1.08914 0
M  V30 6550 H 636.029 -3.95413 0.215493 0
M  V30 6551 H 637.203 -3.46904 3.03305 0
M  V30 6552 H 635.518 -3.23665 2.61973 0
M  V30 6553 H 638.115 -5.29435 0.748489 0
M  V30 6554 H 638.458 -4.13178 -0.508924 0
M  V30 6555 H 638.991 -3.80564 1.15825 0
M  V30 6556 H 635.73 -5.4232 3.68197 0
M  V30 6557 H 635.25 -5.65974 1.9858 0
M  V30 6558 H 636.929 -5.97068 2.49236 0
M  V30 6559 N 637.061 -0.65484 -1.43351 0
M  V30 6560 C 638.309 -0.168559 -2.01396 0
M  V30 6561 C 638.63 1.22235 -1.51933 0
M  V30 6562 O 637.9 1.81685 -0.732627 0
M  V30 6563 H 636.48 -0.0593244 -0.744641 0
M  V30 6564 H 639.142 -0.846871 -1.75539 0
M  V30 6565 H 638.238 -0.154428 -3.11718 0
M  V30 6566 N 638.539 1.52521 -0.396863 0
M  V30 6567 C 639.449 2.30403 0.44178 0
M  V30 6568 C 640.465 1.37625 1.06468 0
M  V30 6569 O 641.641 1.70697 1.06886 0
M  V30 6570 C 638.706 3.1013 1.54986 0
M  V30 6571 C 637.767 4.18628 0.951279 0
M  V30 6572 C 637 4.94543 2.00655 0
M  V30 6573 O 637.223 4.70629 3.22281 0
M  V30 6574 O 636.157 5.797 1.61962 0
M  V30 6575 H 639.983 3.03087 -0.192892 0
M  V30 6576 H 637.568 1.48537 -0.16038 0
M  V30 6577 H 639.45 3.59816 2.19341 0
M  V30 6578 H 638.125 2.40251 2.16935 0
M  V30 6579 H 637.032 3.73119 0.270773 0
M  V30 6580 H 638.365 4.90763 0.375887 0
M  V30 6581 N 640.017 0.126909 1.57088 0
M  V30 6582 C 641.266 -0.529024 1.94639 0
M  V30 6583 C 641.579 -1.67323 1.01304 0
M  V30 6584 O 642.785 -2.39245 1.28352 0
M  V30 6585 C 641.241 -0.992483 3.45945 0
M  V30 6586 C 640.849 0.123691 4.47829 0
M  V30 6587 C 642.593 -1.61934 3.924 0
M  V30 6588 C 640.5 -0.356911 5.90322 0
M  V30 6589 H 639.43 -0.201397 0.726605 0
M  V30 6590 H 642.081 0.208032 1.82317 0
M  V30 6591 H 640.463 -1.7842 3.53528 0
M  V30 6592 H 641.637 0.900168 4.51922 0
M  V30 6593 H 639.952 0.657699 4.11173 0
M  V30 6594 H 642.549 -1.9902 4.96281 0
M  V30 6595 H 642.892 -2.50075 3.32819 0
M  V30 6596 H 643.425 -0.892894 3.8765 0
M  V30 6597 H 640.164 0.488636 6.53676 0
M  V30 6598 H 639.684 -1.0997 5.89633 0
M  V30 6599 H 641.363 -0.815547 6.41839 0
M  V30 6600 N 641.495 -1.56914 -0.146875 0
M  V30 6601 C 642.458 -1.97368 -1.16526 0
M  V30 6602 C 643.458 -0.860223 -1.35856 0
M  V30 6603 O 644.648 -1.12684 -1.32846 0
M  V30 6604 C 641.78 -2.28974 -2.52555 0
M  V30 6605 H 642.973 -2.88523 -0.818209 0
M  V30 6606 H 640.526 -1.5135 -0.390221 0
M  V30 6607 H 641.261 -1.40611 -2.92231 0
M  V30 6608 H 641.046 -3.10157 -2.39886 0
M  V30 6609 H 642.536 -2.61109 -3.25902 0
M  V30 6610 N 642.974 0.416227 -1.52004 0
M  V30 6611 C 644.199 1.19029 -1.69843 0
M  V30 6612 C 644.624 1.83708 -0.404103 0
M  V30 6613 O 643.982 1.69711 0.637787 0
M  V30 6614 C 644.03 2.23439 -2.83032 0
M  V30 6615 O 643.134 3.29419 -2.48106 0
M  V30 6616 H 642.475 0.347785 -0.565634 0
M  V30 6617 H 645.005 0.488871 -1.98674 0
M  V30 6618 H 645.015 2.67884 -3.07737 0
M  V30 6619 H 643.69 1.75745 -3.76944 0
M  V30 6620 H 642.267 2.90303 -2.34048 0
M  V30 6621 N 644.452 1.42507 0.673017 0
M  V30 6622 C 645.682 1.46261 1.45916 0
M  V30 6623 C 646.09 0.0729724 1.89059 0
M  V30 6624 O 645.433 -0.922987 1.58829 0
M  V30 6625 C 645.495 2.32853 2.73898 0
M  V30 6626 C 645.159 3.80699 2.52819 0
M  V30 6627 C 646.156 4.72307 2.17306 0
M  V30 6628 C 643.841 4.24983 2.67758 0
M  V30 6629 C 645.835 6.06192 1.97003 0
M  V30 6630 C 643.522 5.58927 2.4707 0
M  V30 6631 C 644.52 6.49348 2.11746 0
M  V30 6632 O 644.208 7.80817 1.91259 0
M  V30 6633 H 643.94 0.499561 0.455428 0
M  V30 6634 H 646.494 1.87697 0.834196 0
M  V30 6635 H 644.724 1.86268 3.38882 0
M  V30 6636 H 646.413 2.28041 3.35786 0
M  V30 6637 H 647.179 4.39378 2.05359 0
M  V30 6638 H 643.058 3.54893 2.94231 0
M  V30 6639 H 646.602 6.76731 1.69355 0
M  V30 6640 H 642.499 5.91429 2.58615 0
M  V30 6641 H 643.267 7.92194 2.05843 0
M  V30 6642 N 645.93 -0.909495 1.28709 0
M  V30 6643 C 647.16 -1.69027 1.188 0
M  V30 6644 C 647.568 -1.87469 -0.255329 0
M  V30 6645 O 646.911 -1.40458 -1.18394 0
M  V30 6646 C 646.973 -3.10064 1.81936 0
M  V30 6647 C 646.637 -3.14891 3.31199 0
M  V30 6648 C 647.634 -2.95768 4.27571 0
M  V30 6649 C 645.319 -3.37269 3.7223 0
M  V30 6650 C 647.313 -2.98942 5.6295 0
M  V30 6651 C 645 -3.40074 5.07733 0
M  V30 6652 C 645.998 -3.20932 6.02903 0
M  V30 6653 O 645.686 -3.23507 7.35934 0
M  V30 6654 H 645.418 -0.535014 0.413203 0
M  V30 6655 H 647.972 -1.14645 1.70428 0
M  V30 6656 H 646.202 -3.66005 1.24808 0
M  V30 6657 H 647.891 -3.70185 1.66486 0
M  V30 6658 H 648.657 -2.78302 3.97206 0
M  V30 6659 H 644.536 -3.51212 2.98615 0
M  V30 6660 H 648.08 -2.83919 6.37209 0
M  V30 6661 H 643.977 -3.5707 5.37747 0
M  V30 6662 H 644.745 -3.3984 7.44615 0
M  V30 6663 N 647.408 -1.11026 -1.11852 0
M  V30 6664 C 648.636 -0.878818 -1.87308 0
M  V30 6665 C 649.051 0.57111 -1.79955 0
M  V30 6666 O 648.408 1.39409 -1.17777 0
M  V30 6667 C 648.459 -1.3264 -3.36287 0
M  V30 6668 O 648.18 -2.71948 -3.43476 0
M  V30 6669 C 649.681 -1.12974 -4.28663 0
M  V30 6670 H 646.901 -0.315015 -0.592458 0
M  V30 6671 H 649.445 -1.47649 -1.41492 0
M  V30 6672 H 647.6 -0.772269 -3.79625 0
M  V30 6673 H 648.014 -2.91241 -4.3621 0
M  V30 6674 H 649.488 -1.49198 -5.31454 0
M  V30 6675 H 649.965 -0.0689127 -4.39146 0
M  V30 6676 H 650.571 -1.67064 -3.91113 0
M  V30 6677 N 648.886 1.2938 -0.899927 0
M  V30 6678 C 649.836 2.25311 -0.349165 0
M  V30 6679 C 650.82 1.51889 0.530892 0
M  V30 6680 O 652.012 1.73028 0.372872 0
M  V30 6681 C 649.141 3.40696 0.422055 0
M  V30 6682 C 648.227 4.21455 -0.472935 0
M  V30 6683 N 648.618 4.8048 -1.58026 0
M  V30 6684 C 646.916 4.45177 -0.270767 0
M  V30 6685 C 647.617 5.41117 -2.13465 0
M  V30 6686 N 646.593 5.24518 -1.42766 0
M  V30 6687 H 650.395 2.68507 -1.19505 0
M  V30 6688 H 647.909 1.43992 -0.751006 0
M  V30 6689 H 649.906 4.08486 0.833369 0
M  V30 6690 H 648.566 2.99037 1.2652 0
M  V30 6691 H 649.577 4.79257 -1.96299 0
M  V30 6692 H 646.254 4.14071 0.533988 0
M  V30 6693 H 647.644 5.979 -3.06537 0
M  V30 6694 N 650.364 0.662433 1.43002 0
M  V30 6695 C 651.61 0.188492 2.02525 0
M  V30 6696 C 651.965 -1.18752 1.51379 0
M  V30 6697 O 651.258 -1.78313 0.701065 0
M  V30 6698 C 651.452 0.149363 3.57088 0
M  V30 6699 C 651.281 1.52004 4.23231 0
M  V30 6700 C 650.051 2.11473 4.5892 0
M  V30 6701 C 652.249 2.46028 4.51635 0
M  V30 6702 N 650.231 3.4145 5.10181 0
M  V30 6703 C 651.602 3.60647 5.04315 0
M  V30 6704 C 653.657 2.44715 4.33612 0
M  V30 6705 C 652.36 4.74189 5.40867 0
M  V30 6706 C 654.386 3.57344 4.71232 0
M  V30 6707 C 653.748 4.70689 5.24053 0
M  V30 6708 H 649.847 0.113615 0.773703 0
M  V30 6709 H 652.431 0.872738 1.74044 0
M  V30 6710 H 650.602 -0.504255 3.85113 0
M  V30 6711 H 652.334 -0.336307 4.033 0
M  V30 6712 H 649.089 1.64087 4.44266 0
M  V30 6713 H 649.513 4.07987 5.40255 0
M  V30 6714 H 654.155 1.58318 3.9204 0
M  V30 6715 H 651.873 5.61271 5.81378 0
M  V30 6716 H 655.459 3.5754 4.58973 0
M  V30 6717 H 654.339 5.56398 5.52621 0
M  V30 6718 N 651.842 -1.52309 0.404946 0
M  V30 6719 C 653.07 -2.06185 -0.171818 0
M  V30 6720 C 653.485 -1.27536 -1.39212 0
M  V30 6721 O 652.842 -0.326112 -1.79563 0
M  V30 6722 C 652.893 -3.57647 -0.526417 0
M  V30 6723 O 652.614 -4.3332 0.645417 0
M  V30 6724 C 654.115 -4.27925 -1.15736 0
M  V30 6725 H 651.335 -0.670632 -0.0222328 0
M  V30 6726 H 653.879 -1.96259 0.574692 0
M  V30 6727 H 652.034 -3.67595 -1.22282 0
M  V30 6728 H 652.448 -5.23328 0.35042 0
M  V30 6729 H 653.922 -5.35093 -1.35572 0
M  V30 6730 H 654.399 -3.84134 -2.12926 0
M  V30 6731 H 655.005 -4.22335 -0.501281 0
M  V30 6732 N 653.32 -0.135238 -1.57019 0
M  V30 6733 C 654.568 0.51777 -1.95355 0
M  V30 6734 C 654.889 1.6617 -1.02042 0
M  V30 6735 O 654.159 1.95738 -0.0797343 0
M  V30 6736 H 652.739 0.194264 -0.721298 0
M  V30 6737 H 655.401 -0.207983 -1.93787 0
M  V30 6738 H 654.497 0.901675 -2.98791 0
M  V30 6739 N 654.798 1.5699 0.138552 0
M  V30 6740 C 656.023 1.88344 0.86841 0
M  V30 6741 C 656.448 0.725159 1.7356 0
M  V30 6742 O 655.806 -0.324992 1.78363 0
M  V30 6743 C 655.854 3.18334 1.69398 0
M  V30 6744 O 654.958 3.02863 2.79907 0
M  V30 6745 H 654.299 0.618577 0.241367 0
M  V30 6746 H 656.829 2.04207 0.126826 0
M  V30 6747 H 656.839 3.50567 2.08726 0
M  V30 6748 H 655.514 4.02238 1.05725 0
M  V30 6749 H 654.091 2.82056 2.43924 0
M  V30 6750 N 656.276 -0.40816 1.52223 0
M  V30 6751 C 657.206 -1.5042 1.78595 0
M  V30 6752 C 658.187 -1.57723 0.636974 0
M  V30 6753 O 659.372 -1.72982 0.882664 0
M  V30 6754 C 656.502 -2.88232 1.93751 0
M  V30 6755 C 655.456 -2.95779 3.09352 0
M  V30 6756 C 654.782 -4.35855 3.09732 0
M  V30 6757 C 656.082 -2.67175 4.48793 0
M  V30 6758 H 657.776 -1.28601 2.70374 0
M  V30 6759 H 655.322 -0.617221 1.30101 0
M  V30 6760 H 657.275 -3.64895 2.10783 0
M  V30 6761 H 655.999 -3.11347 0.986443 0
M  V30 6762 H 654.658 -2.21561 2.92072 0
M  V30 6763 H 654.306 -4.55981 2.12346 0
M  V30 6764 H 654.006 -4.41829 3.87377 0
M  V30 6765 H 655.53 -5.14451 3.28895 0
M  V30 6766 H 656.944 -3.3356 4.66273 0
M  V30 6767 H 655.341 -2.84523 5.28362 0
M  V30 6768 H 656.411 -1.62609 4.56822 0
M  V30 6769 N 657.755 -1.42862 -0.66545 0
M  V30 6770 C 659.171 -1.25993 -0.979687 0
M  V30 6771 C 659.371 -0.170831 -2.00775 0
M  V30 6772 O 658.427 0.454827 -2.4837 0
M  V30 6773 C 659.74 -2.62005 -1.47559 0
M  V30 6774 C 661.288 -2.69437 -1.59288 0
M  V30 6775 C 661.763 -4.05838 -2.12272 0
M  V30 6776 N 663.254 -4.0784 -2.19592 0
M  V30 6777 C 663.989 -5.10205 -2.61684 0
M  V30 6778 N 663.485 -6.22949 -3.03161 0
M  V30 6779 N 665.278 -4.9756 -2.61516 0
M  V30 6780 H 657.429 -2.12395 0.0150493 0
M  V30 6781 H 659.692 -0.946355 -0.0558187 0
M  V30 6782 H 659.398 -3.42605 -0.794654 0
M  V30 6783 H 659.272 -2.86566 -2.45275 0
M  V30 6784 H 661.659 -1.89178 -2.26486 0
M  V30 6785 H 661.74 -2.48655 -0.600374 0
M  V30 6786 H 661.384 -4.86559 -1.4568 0
M  V30 6787 H 661.314 -4.23977 -3.12331 0
M  V30 6788 H 663.805 -3.26452 -1.90361 0
M  V30 6789 H 664.118 -6.96899 -3.33993 0
M  V30 6790 H 662.463 -6.2644 -3.00995 0
M  V30 6791 H 665.654 -4.08551 -2.28481 0
M  V30 6792 H 665.827 -5.77468 -2.93999 0
M  V30 6793 N 659.233 0.902656 -1.29189 0
M  V30 6794 C 660.48 1.65287 -1.16989 0
M  V30 6795 C 660.808 1.92485 0.279232 0
M  V30 6796 O 660.063 1.53143 1.21843 0
M  V30 6797 C 660.362 3.011 -1.92545 0
M  V30 6798 C 660.028 2.93521 -3.42281 0
M  V30 6799 C 658.69 2.91161 -3.83117 0
M  V30 6800 C 661.042 2.82947 -4.3771 0
M  V30 6801 C 658.37 2.76043 -5.17704 0
M  V30 6802 C 660.722 2.69368 -5.72384 0
M  V30 6803 C 659.386 2.65373 -6.12482 0
M  V30 6804 H 658.656 0.604828 -0.428094 0
M  V30 6805 H 661.303 1.05084 -1.60092 0
M  V30 6806 H 659.608 3.65153 -1.42024 0
M  V30 6807 H 661.305 3.58073 -1.80512 0
M  V30 6808 H 657.895 2.96158 -3.09819 0
M  V30 6809 H 662.079 2.83849 -4.07116 0
M  V30 6810 H 657.335 2.71352 -5.47885 0
M  V30 6811 H 661.509 2.60156 -6.45981 0
M  V30 6812 H 659.136 2.53415 -7.16718 0
M  V30 6813 N 660.711 1.11618 1.11262 0
M  V30 6814 C 661.936 0.889013 1.8738 0
M  V30 6815 C 662.361 -0.555884 1.79698 0
M  V30 6816 O 661.719 -1.39272 1.16073 0
M  V30 6817 C 661.767 1.35759 3.34069 0
M  V30 6818 O 660.871 0.530499 4.08974 0
M  V30 6819 H 660.212 0.320082 0.581759 0
M  V30 6820 H 662.742 1.48611 1.40627 0
M  V30 6821 H 662.752 1.35291 3.84916 0
M  V30 6822 H 661.427 2.40973 3.38976 0
M  V30 6823 H 660.004 0.601439 3.68018 0
M  V30 6824 N 662.189 -1.289 0.906776 0
M  V30 6825 C 663.436 -1.95269 0.536326 0
M  V30 6826 C 663.764 -1.71435 -0.918711 0
M  V30 6827 O 663.019 -1.02431 -1.66752 0
M  V30 6828 C 663.318 -3.48704 0.783617 0
M  V30 6829 C 662.984 -3.92626 2.21711 0
M  V30 6830 C 661.646 -4.04329 2.60906 0
M  V30 6831 C 663.998 -4.15218 3.15029 0
M  V30 6832 C 661.326 -4.35998 3.92584 0
M  V30 6833 C 663.678 -4.48365 4.46264 0
M  V30 6834 C 662.342 -4.58278 4.85322 0
M  V30 6835 H 661.612 -0.714538 0.196256 0
M  V30 6836 H 664.259 -1.53366 1.14678 0
M  V30 6837 H 662.564 -3.91696 0.0903048 0
M  V30 6838 H 664.261 -3.98162 0.476267 0
M  V30 6839 H 660.851 -3.84038 1.90296 0
M  V30 6840 H 665.035 -4.05636 2.8596 0
M  V30 6841 H 660.291 -4.41878 4.22557 0
M  V30 6842 H 664.465 -4.64795 5.18593 0
M  V30 6843 H 662.092 -4.82573 5.87391 0
M  V30 6844 N 663.667 -0.670007 -1.42649 0
M  V30 6845 C 664.6 0.0613623 -2.28117 0
M  V30 6846 C 665.578 0.813414 -1.40792 0
M  V30 6847 O 666.762 0.809529 -1.70232 0
M  V30 6848 C 663.889 1.09399 -3.20546 0
M  V30 6849 C 662.935 0.438064 -4.24244 0
M  V30 6850 S 663.768 -0.800808 -5.29478 0
M  V30 6851 C 664.924 0.23086 -6.25474 0
M  V30 6852 H 665.157 -0.663606 -2.89799 0
M  V30 6853 H 662.69 -0.45939 -1.47407 0
M  V30 6854 H 664.648 1.68469 -3.74337 0
M  V30 6855 H 663.309 1.79137 -2.58009 0
M  V30 6856 H 662.502 1.21707 -4.89084 0
M  V30 6857 H 662.104 -0.0789346 -3.73917 0
M  V30 6858 H 664.396 1.09204 -6.68641 0
M  V30 6859 H 665.339 -0.382945 -7.07064 0
M  V30 6860 H 665.747 0.574191 -5.61572 0
M  V30 6861 N 665.145 1.52092 -0.413018 0
M  V30 6862 C 666.392 2.01855 0.161497 0
M  V30 6863 C 666.72 1.29845 1.44812 0
M  V30 6864 O 665.975 0.394471 1.91683 0
M  V30 6865 C 666.274 3.54529 0.4521 0
M  V30 6866 C 665.94 4.4469 -0.745788 0
M  V30 6867 C 664.602 4.69053 -1.07435 0
M  V30 6868 C 666.954 4.97742 -1.54604 0
M  V30 6869 C 664.282 5.43717 -2.20429 0
M  V30 6870 C 666.634 5.73642 -2.66678 0
M  V30 6871 C 665.298 5.96277 -3.00016 0
M  V30 6872 H 664.568 0.73864 0.0590961 0
M  V30 6873 H 667.215 1.83274 -0.555234 0
M  V30 6874 H 665.52 3.7131 1.25045 0
M  V30 6875 H 667.217 3.90546 0.909647 0
M  V30 6876 H 663.807 4.25907 -0.479725 0
M  V30 6877 H 667.991 4.78824 -1.30543 0
M  V30 6878 H 663.247 5.59462 -2.46602 0
M  V30 6879 H 667.421 6.13746 -3.29072 0
M  V30 6880 H 665.048 6.53913 -3.87688 0
M  V30 6881 N 666.623 0.143563 1.56945 0
M  V30 6882 C 667.863 -0.511198 1.97904 0
M  V30 6883 C 668.227 -1.62262 1.0264 0
M  V30 6884 O 669.428 -2.338 1.32631 0
M  V30 6885 C 667.699 -1.00753 3.42905 0
M  V30 6886 S 669.258 -1.66737 4.05887 0
M  V30 6887 H 666.076 -0.165399 0.691494 0
M  V30 6888 H 668.678 0.234464 1.94089 0
M  V30 6889 H 667.382 -0.187817 4.0997 0
M  V30 6890 H 666.913 -1.7879 3.50425 0
M  V30 6891 H 668.928 -2.95444 3.98657 0
M  V30 6892 N 668.101 -1.57061 -0.130224 0
M  V30 6893 C 669.349 -1.83893 -0.838313 0
M  V30 6894 C 669.67 -0.727046 -1.80939 0
M  V30 6895 O 668.94 0.249927 -1.94299 0
M  V30 6896 H 667.52 -0.67846 -0.312573 0
M  V30 6897 H 670.182 -1.94529 -0.120224 0
M  V30 6898 H 669.278 -2.79419 -1.39038 0
M  V30 6899 N 669.579 0.400081 -1.52437 0
M  V30 6900 C 670.807 1.16768 -1.70801 0
M  V30 6901 C 671.222 1.84036 -0.421462 0
M  V30 6902 O 670.579 1.72242 0.603228 0
M  V30 6903 C 670.63 2.22403 -2.8499 0
M  V30 6904 O 670.351 1.57879 -4.08663 0
M  V30 6905 C 671.852 3.11974 -3.1494 0
M  V30 6906 H 669.072 0.350533 -0.57216 0
M  V30 6907 H 671.616 0.469534 -1.99037 0
M  V30 6908 H 669.771 2.87871 -2.59247 0
M  V30 6909 H 670.185 2.27982 -4.7236 0
M  V30 6910 H 671.659 3.82148 -3.9833 0
M  V30 6911 H 672.136 3.74858 -2.28863 0
M  V30 6912 H 672.742 2.52165 -3.42481 0
M  V30 6913 N 671.057 1.43213 0.657864 0
M  V30 6914 C 672.02 1.47687 1.75275 0
M  V30 6915 C 673.02 0.362179 1.56668 0
M  V30 6916 O 674.21 0.623734 1.62651 0
M  V30 6917 C 671.342 1.32497 3.14098 0
M  V30 6918 H 672.535 2.4519 1.7269 0
M  V30 6919 H 670.088 1.2991 0.869087 0
M  V30 6920 H 670.823 0.359831 3.22298 0
M  V30 6921 H 670.608 2.13299 3.29008 0
M  V30 6922 H 672.098 1.38549 3.93946 0
M  V30 6923 N 672.536 -0.895792 1.29666 0
M  V30 6924 C 673.484 -2.02173 1.15017 0
M  V30 6925 C 674.478 -1.69276 0.0647651 0
M  V30 6926 O 675.684 -1.7859 0.224846 0
M  V30 6927 H 672.059 -0.662719 0.355397 0
M  V30 6928 H 674.03 -2.11666 2.10334 0
M  V30 6929 C 672.779 -3.37212 0.847555 0
M  V30 6930 H 672.102 -3.6303 1.67479 0
M  V30 6931 H 673.542 -4.16668 0.785106 0
M  V30 6932 C 672.001 -3.33891 -0.44929 0
M  V30 6933 O 672.531 -3.73673 -1.47415 0
M  V30 6934 N 670.737 -2.86991 -0.456547 0
M  V30 6935 H 670.284 -2.54813 0.377925 0
M  V30 6936 H 670.242 -2.85152 -1.32423 0
M  V30 6937 N 674.014 -1.12206 -1.10668 0
M  V30 6938 C 675.242 -0.898635 -1.86366 0
M  V30 6939 C 675.657 0.551991 -1.80551 0
M  V30 6940 O 675.014 1.38152 -1.19249 0
M  V30 6941 C 675.065 -1.36199 -3.34861 0
M  V30 6942 O 674.786 -2.75576 -3.40573 0
M  V30 6943 C 676.287 -1.17515 -4.2744 0
M  V30 6944 H 673.507 -0.321281 -0.589084 0
M  V30 6945 H 676.051 -1.49142 -1.39918 0
M  V30 6946 H 674.206 -0.81249 -3.78784 0
M  V30 6947 H 674.62 -2.95851 -4.33096 0
M  V30 6948 H 676.094 -1.54827 -5.29842 0
M  V30 6949 H 676.571 -0.115486 -4.39048 0
M  V30 6950 H 677.177 -1.71203 -3.89319 0
M  V30 6951 N 675.492 1.28418 -0.913599 0
M  V30 6952 C 676.72 1.99106 -0.562536 0
M  V30 6953 C 677.135 1.68273 0.856137 0
M  V30 6954 O 676.492 0.935401 1.56705 0
M  V30 6955 C 676.543 3.5338 -0.761903 0
M  V30 6956 O 676.264 3.83127 -2.12475 0
M  V30 6957 C 677.765 4.41328 -0.417651 0
M  V30 6958 H 674.985 0.635798 -0.214481 0
M  V30 6959 H 677.529 1.63618 -1.22676 0
M  V30 6960 H 675.684 3.8713 -0.144676 0
M  V30 6961 H 676.098 4.77763 -2.16431 0
M  V30 6962 H 677.572 5.48642 -0.607919 0
M  V30 6963 H 678.049 4.34422 0.646108 0
M  V30 6964 H 678.655 4.13074 -1.01241 0
M  V30 6965 N 676.97 0.677563 1.42291 0
M  V30 6966 C 677.9 0.014968 2.33495 0
M  V30 6967 C 678.881 -0.786376 1.50831 0
M  V30 6968 O 680.066 -0.742975 1.79426 0
M  V30 6969 C 677.196 -0.935023 3.34477 0
M  V30 6970 C 676.15 -0.242074 4.27315 0
M  V30 6971 C 675.476 -1.30519 5.18526 0
M  V30 6972 C 676.776 0.880604 5.14823 0
M  V30 6973 H 678.47 0.776671 2.89151 0
M  V30 6974 H 676.016 0.37494 1.39033 0
M  V30 6975 H 677.969 -1.40766 3.97194 0
M  V30 6976 H 676.693 -1.72818 2.77131 0
M  V30 6977 H 675.352 0.210351 3.65996 0
M  V30 6978 H 675 -2.09041 4.57505 0
M  V30 6979 H 674.7 -0.846652 5.81468 0
M  V30 6980 H 676.224 -1.7787 5.84119 0
M  V30 6981 H 677.638 0.489062 5.7121 0
M  V30 6982 H 676.035 1.26511 5.86613 0
M  V30 6983 H 677.105 1.72818 4.53059 0
M  V30 6984 N 678.448 -1.51871 0.421078 0
M  V30 6985 C 679.395 -2.27334 -0.398508 0
M  V30 6986 C 680.365 -1.30241 -1.03085 0
M  V30 6987 O 681.55 -1.59121 -1.05285 0
M  V30 6988 C 678.69 -3.10664 -1.50272 0
M  V30 6989 C 677.803 -4.2273 -0.890122 0
M  V30 6990 C 676.938 -4.93399 -1.96803 0
M  V30 6991 C 675.977 -5.97409 -1.333 0
M  V30 6992 N 675.114 -6.61548 -2.35156 0
M  V30 6993 H 679.954 -2.96938 0.251411 0
M  V30 6994 H 677.491 -1.46472 0.135825 0
M  V30 6995 H 679.449 -3.57292 -2.15403 0
M  V30 6996 H 678.079 -2.43207 -2.1225 0
M  V30 6997 H 677.131 -3.80186 -0.127537 0
M  V30 6998 H 678.443 -4.97302 -0.386349 0
M  V30 6999 H 677.597 -5.43491 -2.69633 0
M  V30 7000 H 676.336 -4.18421 -2.50549 0
M  V30 7001 H 675.341 -5.46624 -0.59008 0
M  V30 7002 H 676.566 -6.74335 -0.803076 0
M  V30 7003 H 674.512 -5.89394 -2.88012 0
M  V30 7004 H 674.429 -7.31832 -1.89624 0
M  V30 7005 H 675.697 -7.16276 -3.0752 0
M  V30 7006 N 679.926 -0.151884 -1.56866 0
M  V30 7007 C 680.856 0.781943 -2.20018 0
M  V30 7008 C 681.837 1.25347 -1.14987 0
M  V30 7009 O 683.022 1.31015 -1.43348 0
M  V30 7010 C 680.152 2.01928 -2.82564 0
M  V30 7011 C 679.106 1.68434 -3.93464 0
M  V30 7012 C 678.432 2.99472 -4.42968 0
M  V30 7013 C 679.732 0.927244 -5.14003 0
M  V30 7014 H 681.426 0.255607 -2.98307 0
M  V30 7015 H 678.972 0.121502 -1.43486 0
M  V30 7016 H 680.925 2.67741 -3.25411 0
M  V30 7017 H 679.649 2.56943 -2.01614 0
M  V30 7018 H 678.308 1.04998 -3.51242 0
M  V30 7019 H 677.956 3.52488 -3.58834 0
M  V30 7020 H 677.656 2.77823 -5.17772 0
M  V30 7021 H 679.18 3.66348 -4.88489 0
M  V30 7022 H 680.594 1.48756 -5.53665 0
M  V30 7023 H 678.991 0.810513 -5.94601 0
M  V30 7024 H 680.061 -0.0801163 -4.84834 0
M  V30 7025 N 681.404 1.57128 0.121893 0
M  V30 7026 C 682.334 2.03165 1.15092 0
M  V30 7027 C 683.315 0.915587 1.43356 0
M  V30 7028 O 684.5 1.1851 1.53847 0
M  V30 7029 C 681.63 2.43352 2.47784 0
M  V30 7030 C 680.584 3.58376 2.33989 0
M  V30 7031 C 679.91 3.84454 3.71617 0
M  V30 7032 C 681.21 4.90199 1.80283 0
M  V30 7033 H 682.904 2.89382 0.768023 0
M  V30 7034 H 680.45 1.39218 0.367998 0
M  V30 7035 H 682.403 2.74163 3.20019 0
M  V30 7036 H 681.127 1.54103 2.87958 0
M  V30 7037 H 679.786 3.2777 1.64202 0
M  V30 7038 H 679.434 2.92414 4.09271 0
M  V30 7039 H 679.134 4.61877 3.6324 0
M  V30 7040 H 680.658 4.17714 4.45362 0
M  V30 7041 H 682.072 5.19565 2.42333 0
M  V30 7042 H 680.469 5.71601 1.82735 0
M  V30 7043 H 681.539 4.78904 0.760184 0
M  V30 7044 N 682.882 -0.391992 1.52647 0
M  V30 7045 C 683.812 -1.48517 1.8018 0
M  V30 7046 C 684.793 -1.57039 0.653667 0
M  V30 7047 O 685.978 -1.72036 0.900962 0
M  V30 7048 C 683.108 -2.86161 1.96797 0
M  V30 7049 C 682.062 -2.92481 3.12472 0
M  V30 7050 C 681.388 -4.32546 3.14338 0
M  V30 7051 C 682.688 -2.624 4.51601 0
M  V30 7052 H 684.382 -1.25726 2.71723 0
M  V30 7053 H 681.928 -0.603387 1.30749 0
M  V30 7054 H 683.881 -3.62639 2.14641 0
M  V30 7055 H 682.605 -3.10283 1.01941 0
M  V30 7056 H 681.264 -2.18451 2.94406 0
M  V30 7057 H 680.912 -4.53703 2.1717 0
M  V30 7058 H 680.612 -4.37695 3.92042 0
M  V30 7059 H 682.136 -5.10934 3.34333 0
M  V30 7060 H 683.55 -3.28596 4.69785 0
M  V30 7061 H 681.947 -2.78903 5.3135 0
M  V30 7062 H 683.017 -1.57754 4.58521 0
M  V30 7063 N 684.36 -1.4356 -0.65026 0
M  V30 7064 C 685.323 -1.48615 -1.74489 0
M  V30 7065 C 686.323 -0.370483 -1.56474 0
M  V30 7066 O 687.513 -0.632351 -1.62317 0
M  V30 7067 C 684.645 -1.34161 -3.13391 0
M  V30 7068 H 685.838 -2.46103 -1.71387 0
M  V30 7069 H 683.391 -1.30369 -0.862186 0
M  V30 7070 H 684.126 -0.376918 -3.22102 0
M  V30 7071 H 683.911 -2.1504 -3.27872 0
M  V30 7072 H 685.401 -1.40637 -3.93206 0
M  V30 7073 N 685.838 0.888903 -1.30139 0
M  V30 7074 C 687.068 1.67115 -1.21474 0
M  V30 7075 C 687.476 1.87852 0.225472 0
M  V30 7076 O 686.819 1.42324 1.16145 0
M  V30 7077 C 686.881 3.0713 -1.86846 0
M  V30 7078 C 686.545 3.09582 -3.36167 0
M  V30 7079 C 687.542 2.88929 -4.32222 0
M  V30 7080 C 685.227 3.31304 -3.77549 0
M  V30 7081 C 687.221 2.89949 -5.67634 0
M  V30 7082 C 684.908 3.31954 -5.13079 0
M  V30 7083 C 685.906 3.113 -6.07932 0
M  V30 7084 O 685.594 3.11758 -7.40987 0
M  V30 7085 H 685.326 0.528372 -0.421662 0
M  V30 7086 H 687.88 1.11919 -1.7223 0
M  V30 7087 H 686.11 3.63973 -1.30615 0
M  V30 7088 H 687.799 3.6749 -1.72354 0
M  V30 7089 H 688.565 2.71948 -4.01584 0
M  V30 7090 H 684.444 3.46417 -3.04165 0
M  V30 7091 H 687.988 2.73746 -6.41645 0
M  V30 7092 H 683.885 3.48469 -5.43359 0
M  V30 7093 H 684.653 3.27951 -7.49927 0
M  V30 7094 N 687.317 1.12792 1.10072 0
M  V30 7095 C 688.545 0.908506 1.85886 0
M  V30 7096 C 688.96 -0.542408 1.80841 0
M  V30 7097 O 688.317 -1.37517 1.1998 0
M  V30 7098 C 688.368 1.37973 3.34134 0
M  V30 7099 O 688.089 2.77378 3.39106 0
M  V30 7100 C 689.59 1.1978 4.26811 0
M  V30 7101 H 686.81 0.3244 0.587372 0
M  V30 7102 H 689.354 1.49882 1.39125 0
M  V30 7103 H 687.509 0.832566 3.78348 0
M  V30 7104 H 687.923 2.98144 4.31521 0
M  V30 7105 H 689.397 1.57635 5.29014 0
M  V30 7106 H 689.874 0.138768 4.38981 0
M  V30 7107 H 690.48 1.73266 3.88406 0
M  V30 7108 N 688.795 -1.27931 0.920396 0
M  V30 7109 C 690.206 -1.76707 0.602616 0
M  V30 7110 C 690.557 -1.75249 -0.882159 0
M  V30 7111 O 689.682 -1.35135 -1.69019 0
M  V30 7112 C 690.277 -3.20884 1.08714 0
M  V30 7113 C 688.836 -3.67356 0.820157 0
M  V30 7114 C 687.983 -2.47525 1.25006 0
M  V30 7115 H 690.934 -1.14301 1.10095 0
M  V30 7116 H 690.955 -3.78045 0.431535 0
M  V30 7117 H 690.467 -3.21913 2.1678 0
M  V30 7118 H 688.568 -3.7178 -0.247012 0
M  V30 7119 H 688.681 -4.57181 1.43257 0
M  V30 7120 H 687.045 -2.45765 0.668698 0
M  V30 7121 H 687.828 -2.51269 2.3392 0
M  V30 7122 N 690.273 -0.685099 -1.4193 0
M  V30 7123 C 691.684 -0.287699 -1.8447 0
M  V30 7124 C 692.035 1.17215 -1.57338 0
M  V30 7125 O 691.16 1.89856 -1.03845 0
M  V30 7126 C 691.755 -0.515385 -3.34857 0
M  V30 7127 C 690.314 -0.172006 -3.76007 0
M  V30 7128 C 689.461 -0.802808 -2.65425 0
M  V30 7129 H 692.412 -0.88652 -1.3163 0
M  V30 7130 H 692.433 0.229251 -3.79809 0
M  V30 7131 H 691.945 -1.57796 -3.54573 0
M  V30 7132 H 690.046 0.886716 -3.61895 0
M  V30 7133 H 690.159 -0.619717 -4.75075 0
M  V30 7134 H 688.523 -0.233267 -2.5363 0
M  V30 7135 H 689.306 -1.86904 -2.87961 0
M  V30 7136 N 691.751 1.51645 -0.429126 0
M  V30 7137 C 692.999 2.01616 0.139802 0
M  V30 7138 C 693.32 1.31568 1.43927 0
M  V30 7139 O 692.59 0.447688 1.90716 0
M  V30 7140 H 691.17 0.744998 0.054654 0
M  V30 7141 H 693.832 1.8638 -0.569952 0
M  V30 7142 H 692.928 3.10439 0.321609 0
M  V30 7143 N 693.229 0.160201 1.56784 0
M  V30 7144 C 694.478 -0.487619 1.95717 0
M  V30 7145 C 694.791 -1.65136 1.0483 0
M  V30 7146 O 695.997 -2.36468 1.33398 0
M  V30 7147 C 694.453 -0.91888 3.47972 0
M  V30 7148 C 694.061 0.218655 4.47466 0
M  V30 7149 C 695.805 -1.53575 3.95746 0
M  V30 7150 C 693.712 -0.231614 5.90946 0
M  V30 7151 H 692.642 -0.185939 0.730714 0
M  V30 7152 H 695.293 0.246657 1.81835 0
M  V30 7153 H 693.675 -1.70881 3.57234 0
M  V30 7154 H 694.849 0.995825 4.49911 0
M  V30 7155 H 693.164 0.744767 4.09685 0
M  V30 7156 H 695.761 -1.88448 5.00391 0
M  V30 7157 H 696.104 -2.42959 3.38048 0
M  V30 7158 H 696.637 -0.810467 3.89456 0
M  V30 7159 H 693.376 0.62718 6.52493 0
M  V30 7160 H 692.896 -0.974379 5.91833 0
M  V30 7161 H 694.575 -0.67922 6.43425 0
M  V30 7162 N 694.707 -1.5719 -0.113559 0
M  V30 7163 C 695.984 -1.76117 -0.850999 0
M  V30 7164 C 696.364 -0.737085 -1.97814 0
M  V30 7165 O 695.712 0.237942 -2.27258 0
M  V30 7166 C 695.922 -3.21298 -1.36266 0
M  V30 7167 C 697.27 -3.83955 -1.81283 0
M  V30 7168 O 698.294 -3.24934 -1.45933 0
M  V30 7169 O 697.153 -4.87707 -2.46585 0
M  V30 7170 H 694.247 -0.721308 -0.404529 0
M  V30 7171 H 696.793 -1.69423 -0.0968756 0
M  V30 7172 H 695.565 -3.87355 -0.554235 0
M  V30 7173 H 695.188 -3.32552 -2.17933 0
M  V30 7174 N 696.185 0.383891 -1.52853 0
M  V30 7175 C 697.095 1.49343 -1.80925 0
M  V30 7176 C 698.111 1.59458 -0.696348 0
M  V30 7177 O 699.287 1.75698 -0.984481 0
M  V30 7178 C 696.352 2.84819 -1.97684 0
M  V30 7179 C 695.413 2.84382 -3.21598 0
M  V30 7180 C 694.646 4.13397 -3.37548 0
M  V30 7181 O 694.869 5.08619 -2.58192 0
M  V30 7182 O 693.803 4.20325 -4.30826 0
M  V30 7183 H 697.629 1.2855 -2.75152 0
M  V30 7184 H 695.214 0.572229 -1.38007 0
M  V30 7185 H 697.096 3.65125 -2.10385 0
M  V30 7186 H 695.771 3.05627 -1.06647 0
M  V30 7187 H 694.678 2.0284 -3.14336 0
M  V30 7188 H 696.011 2.68526 -4.12498 0
M  V30 7189 N 697.663 1.43903 0.642637 0
M  V30 7190 C 699.074 1.40975 1.22404 0
M  V30 7191 C 699.425 0.1192 1.95838 0
M  V30 7192 O 698.55 -0.780939 2.01818 0
M  V30 7193 C 699.145 2.5538 2.22636 0
M  V30 7194 C 697.704 2.55684 2.76229 0
M  V30 7195 C 696.851 2.32556 1.51039 0
M  V30 7196 H 699.802 1.5265 0.434006 0
M  V30 7197 H 699.823 2.27474 3.05017 0
M  V30 7198 H 699.335 3.49294 1.69161 0
M  V30 7199 H 697.436 1.65679 3.33738 0
M  V30 7200 H 697.549 3.53799 3.23053 0
M  V30 7201 H 695.913 1.81427 1.78764 0
M  V30 7202 H 696.696 3.28569 0.99484 0
M  V30 7203 N 699.141 -0.881989 1.30609 0
M  V30 7204 C 700.369 -1.66711 1.22536 0
M  V30 7205 C 700.784 -1.87614 -0.2113 0
M  V30 7206 O 700.141 -1.42576 -1.13923 0
M  V30 7207 C 700.192 -3.04182 1.95335 0
M  V30 7208 O 699.913 -2.8422 3.33393 0
M  V30 7209 C 701.414 -3.98617 1.93956 0
M  V30 7210 H 698.634 -0.520124 0.423925 0
M  V30 7211 H 701.178 -1.10174 1.72285 0
M  V30 7212 H 699.333 -3.57442 1.49378 0
M  V30 7213 H 699.747 -3.71452 3.70302 0
M  V30 7214 H 701.221 -4.92433 2.49426 0
M  V30 7215 H 701.698 -4.29473 0.919198 0
M  V30 7216 H 702.304 -3.51292 2.39738 0
M  V30 7217 N 700.619 -1.13374 -1.09472 0
M  V30 7218 C 701.847 -0.918351 -1.85402 0
M  V30 7219 C 702.262 0.53281 -1.81126 0
M  V30 7220 O 701.619 1.36879 -1.20708 0
M  V30 7221 C 701.67 -1.39743 -3.33398 0
M  V30 7222 O 701.391 -2.79172 -3.37631 0
M  V30 7223 C 702.892 -1.22042 -4.2617 0
M  V30 7224 H 700.112 -0.327511 -0.585643 0
M  V30 7225 H 702.656 -1.50617 -1.38328 0
M  V30 7226 H 700.811 -0.852619 -3.77901 0
M  V30 7227 H 701.225 -3.00428 -4.29934 0
M  V30 7228 H 702.699 -1.60438 -5.2817 0
M  V30 7229 H 703.176 -0.162047 -4.38901 0
M  V30 7230 H 703.782 -1.75323 -3.87482 0
M  V30 7231 N 702.098 1.27442 -0.927168 0
M  V30 7232 C 703.514 1.46754 -0.627329 0
M  V30 7233 C 703.714 1.83902 0.823549 0
M  V30 7234 O 702.77 1.95215 1.60148 0
M  V30 7235 C 704.083 2.56045 -1.57674 0
M  V30 7236 C 705.631 2.69906 -1.58491 0
M  V30 7237 C 706.106 3.82355 -2.52128 0
M  V30 7238 N 707.597 3.89728 -2.50332 0
M  V30 7239 C 708.332 4.76155 -3.19475 0
M  V30 7240 N 707.828 5.67073 -3.97995 0
M  V30 7241 N 709.621 4.6988 -3.08496 0
M  V30 7242 H 701.772 1.01613 -1.86517 0
M  V30 7243 H 704.035 0.507443 -0.800753 0
M  V30 7244 H 703.741 2.35542 -2.61176 0
M  V30 7245 H 703.615 3.53423 -1.31804 0
M  V30 7246 H 706.002 2.89792 -0.557208 0
M  V30 7247 H 706.083 1.73018 -1.8841 0
M  V30 7248 H 705.727 3.63224 -3.55008 0
M  V30 7249 H 705.657 4.7867 -2.19505 0
M  V30 7250 H 708.148 3.24717 -1.93306 0
M  V30 7251 H 708.461 6.2988 -4.4774 0
M  V30 7252 H 706.806 5.6687 -4.02098 0
M  V30 7253 H 709.997 3.97848 -2.46646 0
M  V30 7254 H 710.17 5.37017 -3.62652 0
M  V30 7255 N 703.576 0.692616 1.41565 0
M  V30 7256 C 704.523 0.0254264 2.30786 0
M  V30 7257 C 705.493 -0.774347 1.46946 0
M  V30 7258 O 706.678 -0.742981 1.7574 0
M  V30 7259 C 703.818 -0.907123 3.32964 0
M  V30 7260 C 702.931 -0.0992784 4.31886 0
M  V30 7261 C 702.066 -1.0292 5.21134 0
M  V30 7262 C 701.105 -0.214088 6.11725 0
M  V30 7263 N 700.242 -1.09766 6.93467 0
M  V30 7264 H 705.082 0.792036 2.87282 0
M  V30 7265 H 702.619 0.4023 1.41492 0
M  V30 7266 H 704.577 -1.46181 3.90752 0
M  V30 7267 H 703.207 -1.64016 2.78026 0
M  V30 7268 H 702.259 0.572287 3.76071 0
M  V30 7269 H 703.571 0.532782 4.95946 0
M  V30 7270 H 702.725 -1.65321 5.83741 0
M  V30 7271 H 701.464 -1.69512 4.57293 0
M  V30 7272 H 700.469 0.42302 5.4817 0
M  V30 7273 H 701.694 0.447995 6.77621 0
M  V30 7274 H 699.64 -1.74965 6.32237 0
M  V30 7275 H 699.557 -0.521099 7.54202 0
M  V30 7276 H 700.825 -1.70858 7.60544 0
M  V30 7277 N 705.054 -1.51416 0.437162 0
M  V30 7278 C 706.331 -1.94682 -0.189292 0
M  V30 7279 C 706.711 -1.37581 -1.60108 0
M  V30 7280 O 706.059 -0.562815 -2.2146 0
M  V30 7281 C 706.269 -3.48599 -0.167201 0
M  V30 7282 C 707.617 -4.2296 -0.372856 0
M  V30 7283 O 708.641 -3.55354 -0.245323 0
M  V30 7284 O 707.5 -5.42895 -0.626693 0
M  V30 7285 H 704.594 -0.816708 -0.130063 0
M  V30 7286 H 707.14 -1.62316 0.495128 0
M  V30 7287 H 705.912 -3.82616 0.81981 0
M  V30 7288 H 705.535 -3.87406 -0.894537 0
M  V30 7289 N 706.532 -0.168513 -1.56696 0
M  V30 7290 C 707.495 0.748928 -2.16619 0
M  V30 7291 C 708.495 1.16007 -1.11351 0
M  V30 7292 O 709.685 1.07748 -1.3688 0
M  V30 7293 C 706.817 2.01904 -2.74677 0
M  V30 7294 H 708.01 0.227317 -2.99037 0
M  V30 7295 H 705.563 0.0810372 -1.5609 0
M  V30 7296 H 706.298 2.58381 -1.95985 0
M  V30 7297 H 706.083 1.73323 -3.51712 0
M  V30 7298 H 707.573 2.67383 -3.20774 0
M  V30 7299 N 708.01 1.57248 0.105221 0
M  V30 7300 C 708.943 1.96567 1.15916 0
M  V30 7301 C 709.921 0.837355 1.39381 0
M  V30 7302 O 711.105 1.09676 1.53308 0
M  V30 7303 C 708.232 2.27375 2.51035 0
M  V30 7304 C 707.278 3.49869 2.43913 0
M  V30 7305 S 708.111 5.01958 1.86543 0
M  V30 7306 C 709.267 5.35932 3.23307 0
M  V30 7307 H 709.5 2.85655 0.823931 0
M  V30 7308 H 707.033 1.51204 0.312515 0
M  V30 7309 H 708.991 2.45801 3.28774 0
M  V30 7310 H 707.652 1.38876 2.81731 0
M  V30 7311 H 706.845 3.68835 3.43477 0
M  V30 7312 H 706.447 3.30901 1.743 0
M  V30 7313 H 708.739 5.31958 4.19556 0
M  V30 7314 H 709.682 6.37047 3.09155 0
M  V30 7315 H 710.09 4.63397 3.22372 0
M  V30 7316 N 709.488 -0.375779 1.53054 0
M  V30 7317 C 710.418 -1.46598 1.81745 0
M  V30 7318 C 711.399 -1.56337 0.670286 0
M  V30 7319 O 712.584 -1.71071 0.919158 0
M  V30 7320 C 709.714 -2.84058 1.99821 0
M  V30 7321 C 708.668 -2.8915 3.15557 0
M  V30 7322 C 707.994 -4.29187 3.18908 0
M  V30 7323 C 709.294 -2.57595 4.54359 0
M  V30 7324 H 710.988 -1.22837 2.73041 0
M  V30 7325 H 708.534 -0.589485 1.31381 0
M  V30 7326 H 710.487 -3.60342 2.18475 0
M  V30 7327 H 709.211 -3.09184 1.05226 0
M  V30 7328 H 707.87 -2.15316 2.96706 0
M  V30 7329 H 707.518 -4.51374 2.2197 0
M  V30 7330 H 707.218 -4.33512 3.96662 0
M  V30 7331 H 708.742 -5.07359 3.39734 0
M  V30 7332 H 710.156 -3.23595 4.73243 0
M  V30 7333 H 708.553 -2.73252 5.34279 0
M  V30 7334 H 709.623 -1.52882 4.60169 0
M  V30 7335 N 710.966 -1.44241 -0.634997 0
M  V30 7336 C 712.214 -1.46531 -1.39187 0
M  V30 7337 C 712.535 -0.0976441 -1.94755 0
M  V30 7338 O 711.805 0.869528 -1.75545 0
M  V30 7339 H 710.385 -0.539544 -0.516625 0
M  V30 7340 H 713.047 -1.79989 -0.747655 0
M  V30 7341 H 712.143 -2.18848 -2.22513 0
M  V30 7342 N 712.444 0.87505 -1.31075 0
M  V30 7343 C 713.672 1.66058 -1.23419 0
M  V30 7344 C 714.087 1.87723 0.201347 0
M  V30 7345 O 713.444 1.43178 1.13165 0
M  V30 7346 C 713.495 3.03142 -1.96945 0
M  V30 7347 O 713.216 2.82448 -3.34895 0
M  V30 7348 C 714.717 3.97583 -1.96067 0
M  V30 7349 H 711.937 0.517868 -0.426677 0
M  V30 7350 H 714.481 1.09258 -1.72867 0
M  V30 7351 H 712.636 3.56645 -1.51271 0
M  V30 7352 H 713.05 3.69483 -3.72267 0
M  V30 7353 H 714.524 4.91104 -2.52034 0
M  V30 7354 H 715.001 4.2898 -0.941961 0
M  V30 7355 H 715.607 3.50015 -2.41597 0
M  V30 7356 N 713.922 1.13953 1.08869 0
M  V30 7357 C 714.872 0.790812 2.13846 0
M  V30 7358 C 715.856 -0.217819 1.59419 0
M  V30 7359 O 717.048 -0.0208723 1.76988 0
M  V30 7360 C 714.177 0.26479 3.42277 0
M  V30 7361 C 713.263 1.30267 4.03598 0
M  V30 7362 N 713.654 2.50535 4.39393 0
M  V30 7363 C 711.952 1.15178 4.30871 0
M  V30 7364 C 712.653 3.16938 4.87776 0
M  V30 7365 N 711.629 2.44349 4.85587 0
M  V30 7366 H 715.431 1.70577 2.39334 0
M  V30 7367 H 712.945 1.02268 1.26154 0
M  V30 7368 H 714.942 -0.00330398 4.169 0
M  V30 7369 H 713.602 -0.644419 3.18241 0
M  V30 7370 H 714.613 2.87798 4.30572 0
M  V30 7371 H 711.29 0.301204 4.16412 0
M  V30 7372 H 712.68 4.19453 5.2489 0
M  V30 7373 N 715.4 -1.26948 0.933913 0
M  V30 7374 C 716.646 -1.94374 0.57848 0
M  V30 7375 C 716.979 -1.73166 -0.879048 0
M  V30 7376 O 716.254 -1.06438 -1.62792 0
M  V30 7377 C 716.537 -3.4834 0.912739 0
M  V30 7378 C 716.39 -3.78866 2.42448 0
M  V30 7379 C 717.709 -4.38062 0.423003 0
M  V30 7380 H 714.828 -0.705959 0.211639 0
M  V30 7381 H 717.47 -1.49951 1.16682 0
M  V30 7382 H 715.62 -3.86309 0.412058 0
M  V30 7383 H 717.292 -3.50654 2.99733 0
M  V30 7384 H 715.535 -3.25198 2.87104 0
M  V30 7385 H 716.206 -4.86458 2.60887 0
M  V30 7386 H 718.682 -4.0728 0.852191 0
M  V30 7387 H 717.558 -5.44599 0.685776 0
M  V30 7388 H 717.819 -4.36886 -0.676994 0
M  V30 7389 N 716.879 -0.700114 -1.41195 0
M  V30 7390 C 718.125 -0.233351 -2.01453 0
M  V30 7391 C 718.458 1.16548 -1.55339 0
M  V30 7392 O 717.733 1.78756 -0.766575 0
M  V30 7393 C 718.016 -0.2961 -3.58881 0
M  V30 7394 C 717.869 -1.7322 -4.15108 0
M  V30 7395 C 719.188 0.341525 -4.38773 0
M  V30 7396 H 716.307 -0.0862667 -0.731934 0
M  V30 7397 H 718.949 -0.889693 -1.67882 0
M  V30 7398 H 717.099 0.262736 -3.87611 0
M  V30 7399 H 718.771 -2.34523 -3.97236 0
M  V30 7400 H 717.014 -2.2649 -3.69979 0
M  V30 7401 H 717.685 -1.7276 -5.24269 0
M  V30 7402 H 720.161 -0.134461 -4.15883 0
M  V30 7403 H 719.037 0.267098 -5.4825 0
M  V30 7404 H 719.298 1.42289 -4.18577 0
M  V30 7405 N 718.357 1.51182 -0.445186 0
M  V30 7406 C 719.603 2.03097 0.111049 0
M  V30 7407 C 719.958 1.32293 1.397 0
M  V30 7408 O 719.251 0.431529 1.86677 0
M  V30 7409 C 719.445 3.55408 0.376797 0
M  V30 7410 C 719.274 4.40969 -0.88185 0
M  V30 7411 C 718.044 4.85006 -1.41766 0
M  V30 7412 C 720.242 4.82876 -1.77017 0
M  V30 7413 N 718.224 5.54804 -2.62803 0
M  V30 7414 C 719.595 5.51821 -2.82654 0
M  V30 7415 C 721.65 4.64855 -1.78365 0
M  V30 7416 C 720.353 6.04655 -3.89595 0
M  V30 7417 C 722.379 5.18612 -2.84246 0
M  V30 7418 C 721.741 5.87509 -3.88603 0
M  V30 7419 H 717.84 0.781999 0.0012696 0
M  V30 7420 H 720.424 1.84976 -0.60761 0
M  V30 7421 H 718.595 3.73528 1.06449 0
M  V30 7422 H 720.327 3.93985 0.925082 0
M  V30 7423 H 717.082 4.6355 -0.970476 0
M  V30 7424 H 717.506 5.94326 -3.24201 0
M  V30 7425 H 722.148 4.11043 -0.990119 0
M  V30 7426 H 719.866 6.57518 -4.69782 0
M  V30 7427 H 723.452 5.06515 -2.86241 0
M  V30 7428 H 722.332 6.28358 -4.69186 0
M  V30 7429 N 719.835 0.176821 1.56605 0
M  V30 7430 C 721.112 -0.513365 1.88743 0
M  V30 7431 C 721.492 -1.80929 1.08757 0
M  V30 7432 O 720.84 -2.27765 0.183127 0
M  V30 7433 C 721.05 -0.749925 3.40848 0
M  V30 7434 C 722.398 -1.07747 4.10701 0
M  V30 7435 O 723.422 -0.838277 3.46196 0
M  V30 7436 O 722.281 -1.52901 5.24675 0
M  V30 7437 H 719.375 -0.265296 0.783292 0
M  V30 7438 H 721.921 0.215669 1.68324 0
M  V30 7439 H 720.693 0.16599 3.90948 0
M  V30 7440 H 720.316 -1.53208 3.66897 0
M  V30 7441 N 721.313 -1.57302 -0.09688 0
M  V30 7442 C 722.559 -1.86273 -0.801885 0
M  V30 7443 C 722.892 -0.765694 -1.78468 0
M  V30 7444 O 722.167 0.226495 -1.93177 0
M  V30 7445 C 722.45 -3.25876 -1.53221 0
M  V30 7446 C 722.303 -4.46205 -0.567529 0
M  V30 7447 C 723.622 -3.63352 -2.48321 0
M  V30 7448 H 720.741 -0.67752 -0.29006 0
M  V30 7449 H 723.383 -1.89887 -0.0655577 0
M  V30 7450 H 721.533 -3.22926 -2.15988 0
M  V30 7451 H 723.205 -4.6127 0.0529982 0
M  V30 7452 H 721.448 -4.33636 0.119233 0
M  V30 7453 H 722.119 -5.40608 -1.11564 0
M  V30 7454 H 724.595 -3.67234 -1.95648 0
M  V30 7455 H 723.471 -4.61968 -2.9644 0
M  V30 7456 H 723.732 -2.91941 -3.31998 0
M  V30 7457 N 722.791 0.367657 -1.53252 0
M  V30 7458 C 724.039 1.10832 -1.68999 0
M  V30 7459 C 724.36 1.89894 -0.443306 0
M  V30 7460 O 723.63 1.88235 0.54262 0
M  V30 7461 H 722.21 0.412153 -0.623008 0
M  V30 7462 H 724.872 0.414775 -1.90435 0
M  V30 7463 H 723.968 1.7993 -2.55013 0
M  V30 7464 N 724.269 1.44576 0.627338 0
M  V30 7465 C 725.199 1.54562 1.75022 0
M  V30 7466 C 726.18 0.398378 1.65369 0
M  V30 7467 O 727.365 0.61899 1.84071 0
M  V30 7468 C 724.495 1.49309 3.13567 0
M  V30 7469 C 723.449 2.62549 3.38012 0
M  V30 7470 C 722.775 2.42348 4.76625 0
M  V30 7471 C 724.075 4.04678 3.30202 0
M  V30 7472 H 725.769 2.4855 1.66922 0
M  V30 7473 H 723.315 1.19624 0.801636 0
M  V30 7474 H 725.268 1.54895 3.919 0
M  V30 7475 H 723.992 0.518392 3.2246 0
M  V30 7476 H 722.651 2.56358 2.62061 0
M  V30 7477 H 722.299 1.43062 4.82226 0
M  V30 7478 H 721.999 3.18273 4.93939 0
M  V30 7479 H 723.523 2.49758 5.57183 0
M  V30 7480 H 724.937 4.12217 3.98435 0
M  V30 7481 H 723.334 4.80836 3.5905 0
M  V30 7482 H 724.404 4.2798 2.27949 0
M  V30 7483 N 725.747 -0.868086 1.31537 0
M  V30 7484 C 726.679 -1.98165 1.15166 0
M  V30 7485 C 727.692 -1.6255 0.0902335 0
M  V30 7486 O 728.881 -1.75272 0.33791 0
M  V30 7487 C 725.981 -3.30772 0.737776 0
M  V30 7488 C 725.154 -3.94716 1.88462 0
M  V30 7489 C 724.213 -5.05641 1.45648 0
M  V30 7490 O 723.239 -5.2636 2.16642 0
M  V30 7491 N 724.441 -5.79474 0.34493 0
M  V30 7492 H 727.206 -2.12754 2.11083 0
M  V30 7493 H 724.767 -1.04217 1.23897 0
M  V30 7494 H 726.759 -4.02366 0.434032 0
M  V30 7495 H 725.329 -3.1233 -0.129834 0
M  V30 7496 H 724.549 -3.16079 2.35558 0
M  V30 7497 H 725.837 -4.34175 2.65273 0
M  V30 7498 H 725.235 -5.65164 -0.246259 0
M  V30 7499 H 723.792 -6.51722 0.100728 0
M  V30 7500 N 727.225 -1.14528 -1.08264 0
M  V30 7501 C 728.45 -0.938381 -1.84957 0
M  V30 7502 C 728.875 0.508044 -1.81109 0
M  V30 7503 O 728.233 1.36146 -1.19724 0
M  V30 7504 C 728.281 -1.44568 -3.30352 0
M  V30 7505 O 727.385 -0.638745 -4.07423 0
M  V30 7506 H 726.726 -0.335394 -0.573068 0
M  V30 7507 H 729.256 -1.52287 -1.36637 0
M  V30 7508 H 729.266 -1.45449 -3.81194 0
M  V30 7509 H 727.941 -2.49876 -3.32468 0
M  V30 7510 H 726.518 -0.698801 -3.66294 0
M  V30 7511 N 728.703 1.26451 -0.940633 0
M  V30 7512 C 729.931 1.97868 -0.604642 0
M  V30 7513 C 730.346 1.70051 0.820251 0
M  V30 7514 O 729.703 0.96843 1.54686 0
M  V30 7515 C 729.754 3.51684 -0.836689 0
M  V30 7516 O 729.475 3.78533 -2.20554 0
M  V30 7517 C 730.976 4.40343 -0.511169 0
M  V30 7518 H 728.196 0.631105 -0.227919 0
M  V30 7519 H 730.74 1.60979 -1.26119 0
M  V30 7520 H 728.895 3.86736 -0.226759 0
M  V30 7521 H 729.309 4.73065 -2.26517 0
M  V30 7522 H 730.783 5.47229 -0.724157 0
M  V30 7523 H 731.26 4.35694 0.553815 0
M  V30 7524 H 731.866 4.10834 -1.0998 0
M  V30 7525 N 730.181 0.707592 1.40822 0
M  V30 7526 C 731.43 0.240705 2.00259 0
M  V30 7527 C 731.743 -1.17027 1.56729 0
M  V30 7528 O 732.949 -1.73526 2.08809 0
M  V30 7529 C 731.405 0.379432 3.57894 0
M  V30 7530 C 731.013 1.79654 4.104 0
M  V30 7531 C 732.757 -0.0270684 4.24491 0
M  V30 7532 C 730.664 1.88628 5.60512 0
M  V30 7533 H 729.594 0.0862369 0.749052 0
M  V30 7534 H 732.245 0.877528 1.61157 0
M  V30 7535 H 730.627 -0.325842 3.94657 0
M  V30 7536 H 731.801 2.53155 3.85032 0
M  V30 7537 H 730.116 2.15379 3.56372 0
M  V30 7538 H 732.713 0.0193743 5.34696 0
M  V30 7539 H 733.056 -1.06772 4.02375 0
M  V30 7540 H 733.589 0.628361 3.92806 0
M  V30 7541 H 730.328 2.90787 5.87472 0
M  V30 7542 H 729.848 1.19528 5.8777 0
M  V30 7543 H 731.527 1.6547 6.25483 0
M  V30 7544 N 731.66 -1.50943 0.453197 0
M  V30 7545 C 732.885 -2.07116 -0.108463 0
M  V30 7546 C 733.31 -1.31681 -1.3432 0
M  V30 7547 O 732.668 -0.359256 -1.77705 0
M  V30 7548 C 732.716 -3.58447 -0.393424 0
M  V30 7549 O 731.82 -3.85038 -1.47714 0
M  V30 7550 H 731.161 -0.66398 0.0050993 0
M  V30 7551 H 733.691 -1.94362 0.639095 0
M  V30 7552 H 733.701 -4.02961 -0.639222 0
M  V30 7553 H 732.376 -4.12774 0.508946 0
M  V30 7554 H 730.953 -3.52376 -1.22006 0
M  V30 7555 N 733.138 -0.185124 -1.56509 0
M  V30 7556 C 734.068 0.735098 -2.21627 0
M  V30 7557 C 735.049 1.2288 -1.1762 0
M  V30 7558 O 736.234 1.27945 -1.46095 0
M  V30 7559 C 733.364 1.95889 -2.86783 0
M  V30 7560 C 732.318 1.6005 -3.96948 0
M  V30 7561 C 731.644 2.90009 -4.4922 0
M  V30 7562 C 732.944 0.818008 -5.15855 0
M  V30 7563 H 734.638 0.192274 -2.98782 0
M  V30 7564 H 732.184 0.0910393 -1.43712 0
M  V30 7565 H 734.137 2.60779 -3.31017 0
M  V30 7566 H 732.861 2.52608 -2.07018 0
M  V30 7567 H 731.52 0.975237 -3.5339 0
M  V30 7568 H 731.168 3.44797 -3.6623 0
M  V30 7569 H 730.868 2.66778 -5.23549 0
M  V30 7570 H 732.392 3.55904 -4.9615 0
M  V30 7571 H 733.806 1.36979 -5.56695 0
M  V30 7572 H 732.203 0.684207 -5.96187 0
M  V30 7573 H 733.273 -0.182939 -4.84555 0
M  V30 7574 N 734.616 1.57351 0.0885366 0
M  V30 7575 C 735.862 1.86696 0.791996 0
M  V30 7576 C 736.195 0.775148 1.78059 0
M  V30 7577 O 735.47 -0.216247 1.93294 0
M  V30 7578 C 735.753 3.26684 1.51491 0
M  V30 7579 C 735.606 4.465 0.543858 0
M  V30 7580 C 736.925 3.64664 2.46391 0
M  V30 7581 H 734.044 0.679049 0.286463 0
M  V30 7582 H 736.686 1.89919 0.0554866 0
M  V30 7583 H 734.836 3.24067 2.14273 0
M  V30 7584 H 736.508 4.61235 -0.0774597 0
M  V30 7585 H 734.751 4.33567 -0.142228 0
M  V30 7586 H 735.422 5.41192 1.08696 0
M  V30 7587 H 737.898 3.68267 1.93698 0
M  V30 7588 H 736.774 4.63534 2.93986 0
M  V30 7589 H 737.035 2.93698 3.30445 0
M  V30 7590 N 736.094 -0.359525 1.53444 0
M  V30 7591 C 737.34 -1.10315 1.70172 0
M  V30 7592 C 737.673 -1.88788 0.455287 0
M  V30 7593 O 736.948 -1.86635 -0.547514 0
M  V30 7594 C 737.231 -2.05744 2.95536 0
M  V30 7595 C 737.084 -1.3084 4.3035 0
M  V30 7596 C 738.403 -3.05784 3.16518 0
M  V30 7597 H 735.522 -0.399662 0.619225 0
M  V30 7598 H 738.164 -0.383338 1.86093 0
M  V30 7599 H 736.314 -2.67125 2.82093 0
M  V30 7600 H 737.986 -0.721959 4.55615 0
M  V30 7601 H 736.229 -0.610283 4.29486 0
M  V30 7602 H 736.9 -2.00718 5.14214 0
M  V30 7603 H 739.376 -2.5451 3.29187 0
M  V30 7604 H 738.252 -3.69772 4.05659 0
M  V30 7605 H 738.513 -3.76289 2.32076 0
M  V30 7606 N 737.572 -1.44907 -0.619662 0
M  V30 7607 C 738.983 -1.42905 -1.20146 0
M  V30 7608 C 739.334 -0.150341 -1.95623 0
M  V30 7609 O 738.459 0.748732 -2.03034 0
M  V30 7610 C 739.054 -2.58889 -2.18545 0
M  V30 7611 C 737.613 -2.60046 -2.72127 0
M  V30 7612 C 736.76 -2.3493 -1.4732 0
M  V30 7613 H 739.711 -1.53321 -0.409666 0
M  V30 7614 H 739.732 -2.32298 -3.0136 0
M  V30 7615 H 739.244 -3.51941 -1.63583 0
M  V30 7616 H 737.345 -1.70968 -3.3106 0
M  V30 7617 H 737.458 -3.58893 -3.17384 0
M  V30 7618 H 735.822 -1.84248 -1.75855 0
M  V30 7619 H 736.605 -3.3011 -0.942442 0
M  V30 7620 N 739.05 0.861098 -1.31996 0
M  V30 7621 C 740.296 1.61707 -1.23379 0
M  V30 7622 C 740.651 1.91315 0.204026 0
M  V30 7623 O 739.944 1.53997 1.13998 0
M  V30 7624 C 740.138 2.94822 -2.02027 0
M  V30 7625 C 739.967 2.78212 -3.5331 0
M  V30 7626 C 738.737 2.76933 -4.22654 0
M  V30 7627 C 740.935 2.52432 -4.48088 0
M  V30 7628 N 738.917 2.51466 -5.60034 0
M  V30 7629 C 740.288 2.36312 -5.73198 0
M  V30 7630 C 742.343 2.37848 -4.37416 0
M  V30 7631 C 741.046 2.0709 -6.88844 0
M  V30 7632 C 743.072 2.10016 -5.52854 0
M  V30 7633 C 742.434 1.94691 -6.7696 0
M  V30 7634 H 738.533 0.595703 -0.506618 0
M  V30 7635 H 741.117 1.01275 -1.66287 0
M  V30 7636 H 739.288 3.53243 -1.61474 0
M  V30 7637 H 741.02 3.59756 -1.85358 0
M  V30 7638 H 737.775 2.89638 -3.74709 0
M  V30 7639 H 738.199 2.41679 -6.32392 0
M  V30 7640 H 742.841 2.4842 -3.42122 0
M  V30 7641 H 740.559 1.95256 -7.84156 0
M  V30 7642 H 744.145 1.99519 -5.46519 0
M  V30 7643 H 743.025 1.7346 -7.64775 0
M  V30 7644 N 740.528 1.15101 1.07655 0
M  V30 7645 C 741.774 0.925343 1.80458 0
M  V30 7646 C 742.107 -0.546354 1.86356 0
M  V30 7647 O 741.382 -1.40496 1.34503 0
M  V30 7648 C 741.665 1.53646 3.25676 0
M  V30 7649 C 741.518 3.07854 3.27942 0
M  V30 7650 C 742.837 1.21968 4.22861 0
M  V30 7651 H 739.956 0.337592 0.655134 0
M  V30 7652 H 742.598 1.42217 1.25993 0
M  V30 7653 H 740.748 1.11395 3.72187 0
M  V30 7654 H 742.42 3.58989 2.89697 0
M  V30 7655 H 740.663 3.41904 2.66991 0
M  V30 7656 H 741.334 3.45725 4.30324 0
M  V30 7657 H 743.81 1.5851 3.84726 0
M  V30 7658 H 742.686 1.67349 5.22767 0
M  V30 7659 H 742.947 0.136207 4.4189 0
M  V30 7660 N 742.006 -1.2595 0.947325 0
M  V30 7661 C 743.231 -1.98083 0.614633 0
M  V30 7662 C 743.656 -1.70013 -0.804815 0
M  V30 7663 O 743.014 -0.95175 -1.54309 0
M  V30 7664 C 743.062 -3.4993 0.870706 0
M  V30 7665 O 742.166 -4.12364 -0.0541451 0
M  V30 7666 H 741.507 -0.621232 0.234451 0
M  V30 7667 H 744.037 -1.60259 1.27193 0
M  V30 7668 H 744.047 -4.00198 0.794051 0
M  V30 7669 H 742.722 -3.69691 1.90529 0
M  V30 7670 H 741.299 -3.72826 0.0740917 0
M  V30 7671 N 743.484 -0.715051 -1.40445 0
M  V30 7672 C 744.447 -0.0708726 -2.2909 0
M  V30 7673 C 745.447 0.687926 -1.45342 0
M  V30 7674 O 746.637 0.519908 -1.66261 0
M  V30 7675 C 743.769 0.909528 -3.28543 0
M  V30 7676 H 744.962 -0.851611 -2.87555 0
M  V30 7677 H 742.515 -0.479674 -1.48758 0
M  V30 7678 H 743.25 1.71734 -2.75096 0
M  V30 7679 H 743.035 0.368318 -3.90366 0
M  V30 7680 H 744.525 1.35744 -3.94922 0
M  V30 7681 N 744.962 1.50701 -0.461195 0
M  V30 7682 C 746.187 2.07171 0.0974773 0
M  V30 7683 C 746.612 1.32391 1.3362 0
M  V30 7684 O 745.97 0.368676 1.77512 0
M  V30 7685 C 746.018 3.58651 0.374409 0
M  V30 7686 O 745.122 3.85816 1.4567 0
M  V30 7687 H 744.463 0.663944 -0.00862047 0
M  V30 7688 H 746.993 1.94021 -0.649394 0
M  V30 7689 H 747.003 4.03295 0.617843 0
M  V30 7690 H 745.678 4.12498 -0.530829 0
M  V30 7691 H 744.255 3.53018 1.20136 0
M  V30 7692 N 746.441 0.193421 1.56409 0
M  V30 7693 C 747.391 -0.74089 2.15627 0
M  V30 7694 C 748.375 -1.17747 1.09656 0
M  V30 7695 O 749.567 -1.13615 1.35723 0
M  V30 7696 C 746.696 -1.96091 2.81786 0
M  V30 7697 C 745.782 -1.54531 3.94944 0
M  V30 7698 N 746.173 -0.840569 4.98767 0
M  V30 7699 C 744.471 -1.83473 4.06514 0
M  V30 7700 C 745.172 -0.632571 5.7825 0
M  V30 7701 N 744.148 -1.18078 5.30621 0
M  V30 7702 H 747.95 -0.193718 2.93261 0
M  V30 7703 H 745.464 -0.00643211 1.62399 0
M  V30 7704 H 747.461 -2.64071 3.22602 0
M  V30 7705 H 746.121 -2.51282 2.05639 0
M  V30 7706 H 747.132 -0.496218 5.15517 0
M  V30 7707 H 743.809 -2.40184 3.41493 0
M  V30 7708 H 745.199 -0.0736433 6.7186 0
M  V30 7709 N 747.919 -1.57396 -0.0801906 0
M  V30 7710 C 749.166 -1.86836 -0.780927 0
M  V30 7711 C 749.494 -0.784012 -1.77999 0
M  V30 7712 O 748.749 0.220881 -1.94449 0
M  V30 7713 C 749.048 -3.22915 -1.53169 0
M  V30 7714 C 748.714 -4.45843 -0.67339 0
M  V30 7715 C 747.376 -4.79213 -0.436829 0
M  V30 7716 C 749.728 -5.21142 -0.0776786 0
M  V30 7717 C 747.056 -5.853 0.405062 0
M  V30 7718 C 749.408 -6.28119 0.751619 0
M  V30 7719 C 748.072 -6.59995 0.998131 0
M  V30 7720 H 747.342 -0.683682 -0.285761 0
M  V30 7721 H 749.989 -1.91454 -0.0419435 0
M  V30 7722 H 748.294 -3.14049 -2.34265 0
M  V30 7723 H 749.991 -3.42926 -2.07853 0
M  V30 7724 H 746.581 -4.19721 -0.867891 0
M  V30 7725 H 750.765 -4.95682 -0.247572 0
M  V30 7726 H 746.021 -6.084 0.60488 0
M  V30 7727 H 750.195 -6.8563 1.22 0
M  V30 7728 H 747.822 -7.42027 1.65227 0
M  V30 7729 N 749.397 0.351382 -1.53633 0
M  V30 7730 C 750.813 0.693987 -1.43722 0
M  V30 7731 C 751.013 1.9274 -0.587669 0
M  V30 7732 O 750.069 2.52387 -0.0756082 0
M  V30 7733 C 751.382 0.893937 -2.87105 0
M  V30 7734 C 752.93 0.993051 -2.96829 0
M  V30 7735 C 753.405 1.22537 -4.41303 0
M  V30 7736 N 754.896 1.29275 -4.44795 0
M  V30 7737 C 755.631 1.48988 -5.53706 0
M  V30 7738 N 755.127 1.65924 -6.72637 0
M  V30 7739 N 756.92 1.51472 -5.41306 0
M  V30 7740 H 749.071 -0.459688 -2.07366 0
M  V30 7741 H 751.334 -0.143684 -0.937048 0
M  V30 7742 H 751.04 0.0592517 -3.5165 0
M  V30 7743 H 750.914 1.79795 -3.31592 0
M  V30 7744 H 753.301 1.81827 -2.32429 0
M  V30 7745 H 753.382 0.0661119 -2.55715 0
M  V30 7746 H 753.026 0.405117 -5.06282 0
M  V30 7747 H 752.956 2.16575 -4.80003 0
M  V30 7748 H 755.447 1.17743 -3.59089 0
M  V30 7749 H 755.76 1.80578 -7.51406 0
M  V30 7750 H 754.105 1.63075 -6.75597 0
M  V30 7751 H 757.296 1.37818 -4.47352 0
M  V30 7752 H 757.469 1.66493 -6.26246 0
M  V30 7753 N 750.875 1.45233 0.611969 0
M  V30 7754 C 751.805 1.5641 1.73373 0
M  V30 7755 C 752.786 0.415896 1.64937 0
M  V30 7756 O 753.971 0.638478 1.83404 0
M  V30 7757 C 751.101 1.52627 3.11965 0
M  V30 7758 C 750.055 2.66119 3.35208 0
M  V30 7759 C 749.381 2.4739 4.74028 0
M  V30 7760 C 750.681 4.08157 3.25891 0
M  V30 7761 H 752.375 2.50307 1.64277 0
M  V30 7762 H 749.921 1.20467 0.788904 0
M  V30 7763 H 751.874 1.59043 3.90235 0
M  V30 7764 H 750.598 0.552564 3.21892 0
M  V30 7765 H 749.257 2.59123 2.59327 0
M  V30 7766 H 748.905 1.48168 4.80682 0
M  V30 7767 H 748.605 3.23494 4.90536 0
M  V30 7768 H 750.129 2.55653 5.54503 0
M  V30 7769 H 751.543 4.1642 3.9404 0
M  V30 7770 H 749.94 4.84617 3.5393 0
M  V30 7771 H 751.01 4.30374 2.23397 0
M  V30 7772 N 752.353 -0.854086 1.3245 0
M  V30 7773 C 753.581 -1.64074 1.26045 0
M  V30 7774 C 753.996 -1.8802 -0.171456 0
M  V30 7775 O 753.353 -1.4496 -1.10873 0
M  V30 7776 C 753.404 -2.9997 2.01743 0
M  V30 7777 O 753.125 -2.77084 3.39346 0
M  V30 7778 C 754.626 -3.94414 2.02368 0
M  V30 7779 H 751.846 -0.511015 0.434862 0
M  V30 7780 H 754.39 -1.06494 1.74583 0
M  V30 7781 H 752.545 -3.54193 1.56926 0
M  V30 7782 H 752.959 -3.63514 3.78098 0
M  V30 7783 H 754.433 -4.87032 2.59815 0
M  V30 7784 H 754.91 -4.27427 1.01009 0
M  V30 7785 H 755.516 -3.46127 2.47135 0
M  V30 7786 N 753.831 -1.1567 -1.07043 0
M  V30 7787 C 754.794 -0.858906 -2.12498 0
M  V30 7788 C 755.794 0.142735 -1.60165 0
M  V30 7789 O 756.984 -0.0872678 -1.73981 0
M  V30 7790 C 754.116 -0.283021 -3.39723 0
M  V30 7791 H 755.309 -1.79368 -2.40348 0
M  V30 7792 H 752.862 -0.964608 -1.22984 0
M  V30 7793 H 753.597 0.659796 -3.17517 0
M  V30 7794 H 753.382 -1.00467 -3.7901 0
M  V30 7795 H 754.872 -0.0923543 -4.17498 0
M  V30 7796 N 755.309 1.25446 -0.953992 0
M  V30 7797 C 756.586 1.884 -0.525823 0
M  V30 7798 C 756.966 1.86079 0.996891 0
M  V30 7799 O 756.314 1.32389 1.8624 0
M  V30 7800 C 756.524 3.31154 -1.10172 0
M  V30 7801 C 757.872 4.07926 -1.17819 0
M  V30 7802 O 758.896 3.40273 -1.05323 0
M  V30 7803 O 757.755 5.28942 -1.37415 0
M  V30 7804 H 754.849 0.808629 -0.173345 0
M  V30 7805 H 757.395 1.33522 -1.04738 0
M  V30 7806 H 756.167 3.27271 -2.14499 0
M  V30 7807 H 755.79 3.93588 -0.56338 0
M  V30 7808 N 756.787 0.722489 1.40064 0
M  V30 7809 C 757.735 0.063329 2.32514 0
M  V30 7810 C 758.729 -0.73953 1.52405 0
M  V30 7811 O 759.935 -0.642122 1.68157 0
M  V30 7812 H 756.31 0.00167692 0.751998 0
M  V30 7813 H 758.281 0.859656 2.85749 0
M  V30 7814 C 757.03 -0.839219 3.3742 0
M  V30 7815 H 756.353 -0.230836 3.99133 0
M  V30 7816 H 757.793 -1.26827 4.04587 0
M  V30 7817 C 756.252 -1.96783 2.73456 0
M  V30 7818 O 756.782 -3.05933 2.60323 0
M  V30 7819 N 754.988 -1.75351 2.31734 0
M  V30 7820 H 754.535 -0.865787 2.42615 0
M  V30 7821 H 754.493 -2.51043 1.89275 0
M  V30 7822 N 758.265 -1.50454 0.469181 0
M  V30 7823 C 759.212 -2.28486 -0.325982 0
M  V30 7824 C 760.182 -1.33455 -0.988893 0
M  V30 7825 O 761.367 -1.6239 -1.0017 0
M  V30 7826 C 758.507 -3.15288 -1.40313 0
M  V30 7827 C 757.62 -4.25348 -0.755183 0
M  V30 7828 C 756.755 -4.9941 -1.81006 0
M  V30 7829 C 755.794 -6.01348 -1.14226 0
M  V30 7830 N 754.931 -6.68695 -2.1399 0
M  V30 7831 H 759.771 -2.95987 0.345753 0
M  V30 7832 H 757.308 -1.45965 0.182355 0
M  V30 7833 H 759.266 -3.63964 -2.03927 0
M  V30 7834 H 757.896 -2.49837 -2.04405 0
M  V30 7835 H 756.948 -3.80399 -0.00651901 0
M  V30 7836 H 758.26 -4.98279 -0.227941 0
M  V30 7837 H 757.414 -5.51794 -2.52206 0
M  V30 7838 H 756.153 -4.26181 -2.3711 0
M  V30 7839 H 755.158 -5.48225 -0.415876 0
M  V30 7840 H 756.383 -6.76548 -0.588135 0
M  V30 7841 H 754.329 -5.98258 -2.69115 0
M  V30 7842 H 754.246 -7.37495 -1.66246 0
M  V30 7843 H 755.514 -7.25697 -2.84576 0
M  V30 7844 N 759.743 -0.201713 -1.56304 0
M  V30 7845 C 760.973 0.440084 -2.01858 0
M  V30 7846 C 761.381 1.55279 -1.08098 0
M  V30 7847 O 760.724 1.83529 -0.0792216 0
M  V30 7848 C 760.786 1.05091 -3.43797 0
M  V30 7849 C 760.45 0.0761208 -4.56937 0
M  V30 7850 C 761.447 -0.716951 -5.14933 0
M  V30 7851 C 759.132 -0.0368815 -5.02286 0
M  V30 7852 C 761.126 -1.60993 -6.16733 0
M  V30 7853 C 758.813 -0.933409 -6.03929 0
M  V30 7854 C 759.811 -1.71849 -6.61027 0
M  V30 7855 O 759.499 -2.59998 -7.60695 0
M  V30 7856 H 759.231 0.114139 -0.666294 0
M  V30 7857 H 761.785 -0.309672 -2.03052 0
M  V30 7858 H 760.015 1.84938 -3.3961 0
M  V30 7859 H 761.704 1.59804 -3.73118 0
M  V30 7860 H 762.47 -0.63999 -4.80759 0
M  V30 7861 H 758.349 0.564034 -4.57537 0
M  V30 7862 H 761.893 -2.22315 -6.61227 0
M  V30 7863 H 757.79 -1.01146 -6.37526 0
M  V30 7864 H 758.558 -2.53851 -7.7814 0
M  V30 7865 N 761.222 1.57436 0.0718424 0
M  V30 7866 C 762.447 1.91858 0.787745 0
M  V30 7867 C 762.872 0.798119 1.70328 0
M  V30 7868 O 762.23 -0.24905 1.79581 0
M  V30 7869 C 762.278 3.25232 1.55744 0
M  V30 7870 O 761.382 3.14462 2.6681 0
M  V30 7871 H 760.723 0.628258 0.214914 0
M  V30 7872 H 763.253 2.04561 0.0401012 0
M  V30 7873 H 763.263 3.59105 1.9367 0
M  V30 7874 H 761.938 4.0636 0.885691 0
M  V30 7875 H 760.515 2.92148 2.31741 0
M  V30 7876 N 762.7 -0.34323 1.53817 0
M  V30 7877 C 763.633 -1.44472 1.76644 0
M  V30 7878 C 764.611 -1.50498 0.615556 0
M  V30 7879 O 765.795 -1.6821 0.850751 0
M  V30 7880 C 762.922 -2.82705 1.86536 0
M  V30 7881 C 761.968 -2.94302 3.08688 0
M  V30 7882 S 762.801 -2.60739 4.67735 0
M  V30 7883 C 763.957 -4.01079 4.80506 0
M  V30 7884 H 764.19 -1.24893 2.69794 0
M  V30 7885 H 761.723 -0.538915 1.4469 0
M  V30 7886 H 763.681 -3.62342 1.92921 0
M  V30 7887 H 762.342 -2.9958 0.943975 0
M  V30 7888 H 761.535 -3.95593 3.12286 0
M  V30 7889 H 761.137 -2.22614 3.00531 0
M  V30 7890 H 763.429 -4.95603 4.61935 0
M  V30 7891 H 764.372 -4.02475 5.82597 0
M  V30 7892 H 764.78 -3.89119 4.08958 0
M  V30 7893 N 764.178 -1.45556 -0.604258 0
M  V30 7894 C 765.141 -1.54091 -1.69672 0
M  V30 7895 C 766.141 -0.420076 -1.55216 0
M  V30 7896 O 767.331 -0.683671 -1.60224 0
M  V30 7897 C 764.463 -1.44063 -3.08964 0
M  V30 7898 H 765.656 -2.51431 -1.6347 0
M  V30 7899 H 763.209 -1.33046 -0.820273 0
M  V30 7900 H 763.944 -0.479201 -3.2074 0
M  V30 7901 H 763.729 -2.25362 -3.20865 0
M  V30 7902 H 765.219 -1.53075 -3.88533 0
M  V30 7903 N 765.656 0.84705 -1.32902 0
M  V30 7904 C 766.904 1.5986 -1.2365 0
M  V30 7905 C 767.225 1.93974 0.199789 0
M  V30 7906 O 766.495 1.60273 1.12648 0
M  V30 7907 H 765.075 0.592696 -0.454665 0
M  V30 7908 H 767.737 1.01278 -1.66519 0
M  V30 7909 H 766.833 2.53218 -1.82448 0
M  V30 7910 N 767.134 1.16236 1.06428 0
M  V30 7911 C 768.364 0.965782 1.82637 0
M  V30 7912 C 768.772 -0.489284 1.82764 0
M  V30 7913 O 768.115 -1.35133 1.24438 0
M  V30 7914 C 768.177 1.41458 3.30499 0
M  V30 7915 C 767.841 2.88926 3.54077 0
M  V30 7916 C 768.838 3.86939 3.47238 0
M  V30 7917 C 766.523 3.26814 3.81442 0
M  V30 7918 C 768.517 5.20841 3.67428 0
M  V30 7919 C 766.204 4.60886 4.01282 0
M  V30 7920 C 767.202 5.57708 3.94272 0
M  V30 7921 O 766.89 6.89357 4.13573 0
M  V30 7922 H 766.622 0.342569 0.582772 0
M  V30 7923 H 769.176 1.54641 1.35187 0
M  V30 7924 H 767.406 0.777426 3.78805 0
M  V30 7925 H 769.095 1.18563 3.88198 0
M  V30 7926 H 769.861 3.59014 3.26089 0
M  V30 7927 H 765.74 2.5203 3.86008 0
M  V30 7928 H 769.284 5.96401 3.61873 0
M  V30 7929 H 765.181 4.88522 4.21921 0
M  V30 7930 H 765.949 6.95913 4.30869 0
M  V30 7931 N 768.612 -1.24939 0.960631 0
M  V30 7932 C 769.861 -1.92118 0.614298 0
M  V30 7933 C 770.174 -1.75998 -0.853474 0
M  V30 7934 O 771.38 -2.37804 -1.31003 0
M  V30 7935 C 769.836 -3.44303 1.04801 0
M  V30 7936 C 769.444 -3.69123 2.53875 0
M  V30 7937 C 771.188 -4.17375 0.774497 0
M  V30 7938 C 769.095 -5.14843 2.91016 0
M  V30 7939 H 768.025 -0.719319 0.226045 0
M  V30 7940 H 770.676 -1.41701 1.16589 0
M  V30 7941 H 769.058 -3.93715 0.42479 0
M  V30 7942 H 770.232 -3.30339 3.21267 0
M  V30 7943 H 768.547 -3.09323 2.78762 0
M  V30 7944 H 771.144 -5.24723 1.02808 0
M  V30 7945 H 771.487 -4.15294 -0.289192 0
M  V30 7946 H 772.02 -3.7389 1.35835 0
M  V30 7947 H 768.759 -5.2204 3.96427 0
M  V30 7948 H 768.279 -5.54652 2.28302 0
M  V30 7949 H 769.958 -5.83017 2.80535 0
M  V30 7950 N 770.09 -0.729906 -1.39679 0
M  V30 7951 C 771.318 -0.285709 -2.04918 0
M  V30 7952 C 771.733 1.07765 -1.55023 0
M  V30 7953 O 771.09 1.67999 -0.712923 0
M  V30 7954 C 771.141 -0.272793 -3.60469 0
M  V30 7955 O 770.862 -1.58233 -4.08527 0
M  V30 7956 C 772.363 0.188199 -4.429 0
M  V30 7957 H 769.583 -0.125758 -0.65911 0
M  V30 7958 H 772.127 -0.992129 -1.78821 0
M  V30 7959 H 770.282 0.384699 -3.85485 0
M  V30 7960 H 770.696 -1.49245 -5.02818 0
M  V30 7961 H 772.17 0.14608 -5.51807 0
M  V30 7962 H 772.647 1.2326 -4.21549 0
M  V30 7963 H 773.253 -0.439541 -4.23023 0
M  V30 7964 N 771.568 1.50203 -0.477153 0
M  V30 7965 C 772.808 2.04265 0.0744065 0
M  V30 7966 C 773.172 1.35082 1.36443 0
M  V30 7967 O 774.373 1.79732 1.99875 0
M  V30 7968 C 772.644 3.56539 0.247874 0
M  V30 7969 S 774.203 4.32219 0.757117 0
M  V30 7970 H 771.021 0.71088 0.0130891 0
M  V30 7971 H 773.623 1.8453 -0.645678 0
M  V30 7972 H 772.327 4.04443 -0.696709 0
M  V30 7973 H 771.858 3.80638 0.993896 0
M  V30 7974 H 773.873 4.52789 2.0297 0
M  V30 7975 N 773.046 0.209999 1.56195 0
M  V30 7976 C 774.292 -0.418742 1.99043 0
M  V30 7977 C 774.647 -1.58201 1.095 0
M  V30 7978 O 773.94 -1.91069 0.1425 0
M  V30 7979 C 774.134 -0.91312 3.45539 0
M  V30 7980 C 773.963 0.200706 4.49252 0
M  V30 7981 C 772.733 0.663287 5.00928 0
M  V30 7982 C 774.931 1.01493 5.04186 0
M  V30 7983 N 772.913 1.75338 5.88328 0
M  V30 7984 C 774.284 1.95411 5.884 0
M  V30 7985 C 776.339 1.05567 4.8658 0
M  V30 7986 C 775.042 2.93069 6.56889 0
M  V30 7987 C 777.068 2.02037 5.55819 0
M  V30 7988 C 776.43 2.94697 6.39791 0
M  V30 7989 H 772.529 -0.120226 0.772703 0
M  V30 7990 H 775.113 0.319119 1.92067 0
M  V30 7991 H 773.284 -1.62038 3.52985 0
M  V30 7992 H 775.016 -1.51371 3.75325 0
M  V30 7993 H 771.771 0.253945 4.72919 0
M  V30 7994 H 772.195 2.30007 6.3673 0
M  V30 7995 H 776.837 0.353242 4.21322 0
M  V30 7996 H 774.555 3.6428 7.21336 0
M  V30 7997 H 778.141 2.05849 5.44167 0
M  V30 7998 H 777.021 3.68128 6.92425 0
M  V30 7999 N 774.524 -1.57472 -0.0634922 0
M  V30 8000 C 775.754 -1.91608 -0.772645 0
M  V30 8001 C 776.162 -0.805019 -1.71219 0
M  V30 8002 O 775.505 0.229941 -1.82255 0
M  V30 8003 C 775.567 -3.21281 -1.61304 0
M  V30 8004 C 775.231 -4.49177 -0.841973 0
M  V30 8005 C 776.228 -5.19661 -0.157494 0
M  V30 8006 C 773.913 -4.9578 -0.80669 0
M  V30 8007 C 775.907 -6.35006 0.551948 0
M  V30 8008 C 773.594 -6.11028 -0.0934812 0
M  V30 8009 C 774.592 -6.80493 0.58463 0
M  V30 8010 O 774.28 -7.93542 1.28633 0
M  V30 8011 H 774.012 -0.637685 -0.224352 0
M  V30 8012 H 776.566 -2.05369 -0.0355279 0
M  V30 8013 H 774.796 -3.03752 -2.39315 0
M  V30 8014 H 776.485 -3.41003 -2.20162 0
M  V30 8015 H 777.251 -4.84681 -0.176006 0
M  V30 8016 H 773.13 -4.41579 -1.32397 0
M  V30 8017 H 776.674 -6.89161 1.0818 0
M  V30 8018 H 772.571 -6.45459 -0.0729258 0
M  V30 8019 H 773.339 -8.09708 1.19646 0
M  V30 8020 N 776.003 0.335068 -1.53997 0
M  V30 8021 C 776.935 1.4327 -1.78903 0
M  V30 8022 C 777.948 1.48347 -0.670598 0
M  V30 8023 O 779.137 1.51277 -0.947494 0
M  V30 8024 C 776.237 2.81878 -1.88144 0
M  V30 8025 C 775.41 3.00141 -3.18174 0
M  V30 8026 C 774.469 4.19041 -3.18263 0
M  V30 8027 O 773.495 4.12751 -3.9195 0
M  V30 8028 N 774.697 5.28004 -2.41231 0
M  V30 8029 H 777.462 1.22272 -2.73623 0
M  V30 8030 H 775.023 0.524996 -1.53152 0
M  V30 8031 H 777.015 3.59609 -1.85644 0
M  V30 8032 H 775.585 2.9598 -1.00572 0
M  V30 8033 H 774.805 2.09808 -3.33728 0
M  V30 8034 H 776.093 3.0923 -4.04047 0
M  V30 8035 H 775.491 5.35986 -1.8093 0
M  V30 8036 H 774.048 6.04196 -2.44521 0
M  V30 8037 N 777.481 1.45874 0.596531 0
M  V30 8038 C 778.709 1.54013 1.38158 0
M  V30 8039 C 779.124 0.17648 1.87973 0
M  V30 8040 O 778.481 -0.823895 1.62844 0
M  V30 8041 C 778.532 2.53363 2.57855 0
M  V30 8042 O 778.253 3.8443 2.10108 0
M  V30 8043 C 779.754 2.71308 3.50581 0
M  V30 8044 H 776.974 0.521251 0.422538 0
M  V30 8045 H 779.518 1.9116 0.726493 0
M  V30 8046 H 777.673 2.19257 3.19382 0
M  V30 8047 H 778.087 4.38384 2.87958 0
M  V30 8048 H 779.561 3.44776 4.31084 0
M  V30 8049 H 780.038 1.77728 4.01633 0
M  V30 8050 H 780.644 3.06455 2.94899 0
M  V30 8051 N 778.959 -0.83999 1.33349 0
M  V30 8052 C 779.907 -1.97113 1.23488 0
M  V30 8053 C 780.901 -1.68849 0.136503 0
M  V30 8054 O 782.107 -1.77476 0.300389 0
M  V30 8055 H 778.482 -0.647049 0.383185 0
M  V30 8056 H 780.453 -2.02554 2.19122 0
M  V30 8057 C 779.202 -3.33314 0.989815 0
M  V30 8058 H 778.525 -3.556 1.82726 0
M  V30 8059 H 779.965 -4.12963 0.961123 0
M  V30 8060 C 778.424 -3.35496 -0.307272 0
M  V30 8061 O 778.954 -3.79589 -1.31434 0
M  V30 8062 N 777.16 -2.88669 -0.334414 0
M  V30 8063 H 776.707 -2.5298 0.485659 0
M  V30 8064 H 776.665 -2.90512 -1.20209 0
M  V30 8065 N 780.437 -1.16799 -1.0581 0
M  V30 8066 C 781.367 -0.902241 -2.15364 0
M  V30 8067 C 782.348 0.153351 -1.69407 0
M  V30 8068 O 783.533 0.00442032 -1.94199 0
M  V30 8069 C 780.663 -0.407911 -3.44896 0
M  V30 8070 C 779.617 -1.40197 -4.04387 0
M  V30 8071 C 778.943 -0.765848 -5.29187 0
M  V30 8072 C 780.243 -2.77316 -4.42598 0
M  V30 8073 H 781.937 -1.81841 -2.37853 0
M  V30 8074 H 779.483 -0.875731 -1.14311 0
M  V30 8075 H 781.436 -0.20945 -4.20879 0
M  V30 8076 H 780.16 0.54378 -3.22041 0
M  V30 8077 H 778.819 -1.58707 -3.30466 0
M  V30 8078 H 778.467 0.192482 -5.02632 0
M  V30 8079 H 778.167 -1.42939 -5.69949 0
M  V30 8080 H 779.691 -0.577519 -6.07863 0
M  V30 8081 H 781.105 -2.62561 -5.09642 0
M  V30 8082 H 779.502 -3.4019 -4.94359 0
M  V30 8083 H 780.572 -3.32199 -3.53231 0
M  V30 8084 N 781.915 1.24427 -0.967243 0
M  V30 8085 C 783.161 1.92772 -0.629812 0
M  V30 8086 C 783.494 1.75436 0.832827 0
M  V30 8087 O 782.769 1.10716 1.59913 0
M  V30 8088 C 783.052 3.45798 -1.00477 0
M  V30 8089 C 782.905 3.72304 -2.52407 0
M  V30 8090 C 784.224 4.36787 -0.538999 0
M  V30 8091 H 781.343 0.700099 -0.230282 0
M  V30 8092 H 783.985 1.46805 -1.20616 0
M  V30 8093 H 782.135 3.8508 -0.514336 0
M  V30 8094 H 783.807 3.42584 -3.08924 0
M  V30 8095 H 782.05 3.17472 -2.95625 0
M  V30 8096 H 782.721 4.7937 -2.73693 0
M  V30 8097 H 785.197 4.04877 -0.959874 0
M  V30 8098 H 784.073 5.4259 -0.829926 0
M  V30 8099 H 784.334 4.38527 0.560923 0
M  V30 8100 N 783.393 0.737304 1.3929 0
M  V30 8101 C 784.639 0.286681 2.00763 0
M  V30 8102 C 784.972 -1.12388 1.58375 0
M  V30 8103 O 784.247 -1.76661 0.813699 0
M  V30 8104 C 784.53 0.391147 3.57969 0
M  V30 8105 C 784.383 1.84165 4.1037 0
M  V30 8106 C 785.702 -0.225072 4.39524 0
M  V30 8107 H 782.821 0.105642 0.729389 0
M  V30 8108 H 785.463 0.933892 1.65464 0
M  V30 8109 H 783.613 -0.159875 3.88171 0
M  V30 8110 H 785.285 2.44972 3.90879 0
M  V30 8111 H 783.528 2.3622 3.63844 0
M  V30 8112 H 784.199 1.866 5.19504 0
M  V30 8113 H 786.675 0.244677 4.1538 0
M  V30 8114 H 785.551 -0.121646 5.48765 0
M  V30 8115 H 785.812 -1.31141 4.22202 0
M  V30 8116 N 784.871 -1.49948 0.485112 0
M  V30 8117 C 786.282 -1.8667 0.0334041 0
M  V30 8118 C 786.633 -1.3988 -1.37579 0
M  V30 8119 O 785.758 -0.769788 -2.02245 0
M  V30 8120 C 786.353 -3.38757 0.0538426 0
M  V30 8121 C 784.912 -3.74839 -0.342453 0
M  V30 8122 C 784.059 -2.73894 0.433281 0
M  V30 8123 H 787.01 -1.42492 0.698699 0
M  V30 8124 H 787.031 -3.73132 -0.745146 0
M  V30 8125 H 786.543 -3.72782 1.07959 0
M  V30 8126 H 784.644 -3.46419 -1.37203 0
M  V30 8127 H 784.757 -4.79088 -0.0340503 0
M  V30 8128 H 783.121 -2.54441 -0.114849 0
M  V30 8129 H 783.904 -3.10763 1.45881 0
M  V30 8130 N 786.349 -0.21828 -1.56081 0
M  V30 8131 C 787.76 0.290166 -1.84431 0
M  V30 8132 C 788.111 1.59712 -1.13958 0
M  V30 8133 O 787.236 2.12516 -0.40815 0
M  V30 8134 C 787.831 0.53325 -3.34577 0
M  V30 8135 C 786.39 0.986011 -3.63256 0
M  V30 8136 C 785.537 0.0472798 -2.7726 0
M  V30 8137 H 788.488 -0.441548 -1.52434 0
M  V30 8138 H 788.509 1.37967 -3.54606 0
M  V30 8139 H 788.021 -0.418137 -3.85841 0
M  V30 8140 H 786.122 1.95087 -3.17446 0
M  V30 8141 H 786.235 0.862684 -4.71269 0
M  V30 8142 H 784.599 0.553471 -2.48614 0
M  V30 8143 H 785.382 -0.898966 -3.31321 0
M  V30 8144 N 787.827 1.57504 0.0551401 0
M  V30 8145 C 789.052 1.92682 0.767352 0
M  V30 8146 C 789.477 0.81614 1.69472 0
M  V30 8147 O 788.835 -0.229989 1.79835 0
M  V30 8148 C 788.883 3.26866 1.52286 0
M  V30 8149 O 787.987 3.17274 2.63459 0
M  V30 8150 H 787.328 0.630502 0.208238 0
M  V30 8151 H 789.858 2.04592 0.0184026 0
M  V30 8152 H 789.868 3.61138 1.8985 0
M  V30 8153 H 788.543 4.07276 0.842541 0
M  V30 8154 H 787.12 2.94589 2.2863 0
M  V30 8155 N 789.305 -0.326896 1.54172 0
M  V30 8156 C 790.533 -1.08486 1.76177 0
M  V30 8157 C 790.948 -1.81815 0.508788 0
M  V30 8158 O 790.305 -1.74924 -0.520362 0
M  V30 8159 C 790.356 -2.08552 2.95276 0
M  V30 8160 O 790.077 -1.38202 4.15731 0
M  V30 8161 C 791.578 -2.96593 3.29466 0
M  V30 8162 H 788.798 -0.322835 0.588233 0
M  V30 8163 H 791.342 -0.374036 2.0105 0
M  V30 8164 H 789.497 -2.75174 2.72687 0
M  V30 8165 H 789.911 -2.05186 4.827 0
M  V30 8166 H 791.385 -3.62708 4.16109 0
M  V30 8167 H 791.862 -3.63511 2.46487 0
M  V30 8168 H 792.468 -2.35537 3.54122 0
M  V30 8169 N 790.784 -1.46188 -0.588786 0
M  V30 8170 C 792.195 -1.45421 -1.17088 0
M  V30 8171 C 792.546 -0.191801 -1.9526 0
M  V30 8172 O 791.671 0.705497 -2.04577 0
M  V30 8173 C 792.266 -2.63467 -2.13004 0
M  V30 8174 C 790.825 -2.6576 -2.6655 0
M  V30 8175 C 789.972 -2.38002 -1.42304 0
M  V30 8176 H 792.923 -1.54156 -0.377052 0
M  V30 8177 H 792.944 -2.38638 -2.96365 0
M  V30 8178 H 792.456 -3.55331 -1.56081 0
M  V30 8179 H 790.557 -1.77952 -3.27359 0
M  V30 8180 H 790.67 -3.65545 -3.09699 0
M  V30 8181 H 789.034 -1.87936 -1.71907 0
M  V30 8182 H 789.817 -3.32035 -0.872209 0
M  V30 8183 N 792.262 0.832906 -1.33792 0
M  V30 8184 C 793.194 1.95042 -1.2038 0
M  V30 8185 C 794.207 1.62253 -0.133299 0
M  V30 8186 O 795.396 1.74315 -0.384261 0
M  V30 8187 C 792.496 3.287 -0.825215 0
M  V30 8188 C 791.669 3.89581 -1.98861 0
M  V30 8189 C 790.728 5.01602 -1.59003 0
M  V30 8190 O 789.754 5.20431 -2.30522 0
M  V30 8191 N 790.956 5.78356 -0.498446 0
M  V30 8192 H 793.721 2.07083 -2.16649 0
M  V30 8193 H 791.282 1.00896 -1.26616 0
M  V30 8194 H 793.274 4.01074 -0.540559 0
M  V30 8195 H 791.844 3.12565 0.0469796 0
M  V30 8196 H 791.064 3.09723 -2.43856 0
M  V30 8197 H 792.352 4.26989 -2.76691 0
M  V30 8198 H 791.75 5.65618 0.0963297 0
M  V30 8199 H 790.307 6.51226 -0.273485 0
M  V30 8200 N 793.74 1.17359 1.05189 0
M  V30 8201 C 794.968 0.986529 1.81866 0
M  V30 8202 C 795.383 -0.46522 1.82979 0
M  V30 8203 O 794.74 -1.32305 1.25705 0
M  V30 8204 C 794.791 1.52021 3.27982 0
M  V30 8205 O 794.512 2.91511 3.27037 0
M  V30 8206 C 796.013 1.37774 4.21347 0
M  V30 8207 H 793.233 0.349021 0.573084 0
M  V30 8208 H 795.777 1.55648 1.32643 0
M  V30 8209 H 793.932 0.992287 3.74476 0
M  V30 8210 H 794.346 3.16178 4.18488 0
M  V30 8211 H 795.82 1.7993 5.21852 0
M  V30 8212 H 796.297 0.32483 4.37997 0
M  V30 8213 H 796.903 1.89583 3.80708 0
M  V30 8214 N 795.218 -1.23913 0.973828 0
M  V30 8215 C 796.181 -2.23367 0.51378 0
M  V30 8216 C 797.181 -1.55923 -0.39302 0
M  V30 8217 O 798.371 -1.73187 -0.187626 0
M  V30 8218 C 795.503 -3.39944 -0.255152 0
M  V30 8219 H 796.696 -2.65581 1.39307 0
M  V30 8220 H 794.249 -1.36632 0.759039 0
M  V30 8221 H 794.984 -3.03177 -1.15127 0
M  V30 8222 H 794.769 -3.90098 0.395673 0
M  V30 8223 H 796.259 -4.13749 -0.565842 0
M  V30 8224 N 796.696 -0.74468 -1.38897 0
M  V30 8225 C 797.973 -0.222773 -1.94327 0
M  V30 8226 C 798.353 1.27731 -1.68071 0
M  V30 8227 O 797.701 2.04754 -1.01429 0
M  V30 8228 C 797.911 -0.566836 -3.44366 0
M  V30 8229 C 799.259 -0.521531 -4.21385 0
M  V30 8230 O 800.283 -0.504599 -3.52608 0
M  V30 8231 O 799.142 -0.524595 -5.43976 0
M  V30 8232 H 796.236 -0.0439259 -0.825833 0
M  V30 8233 H 798.782 -0.824197 -1.48341 0
M  V30 8234 H 797.554 -1.60321 -3.56949 0
M  V30 8235 H 797.177 0.0630577 -3.9755 0
M  V30 8236 N 798.174 1.49689 -0.493057 0
M  V30 8237 C 799.107 2.25712 0.336062 0
M  V30 8238 C 800.085 1.29953 0.977294 0
M  V30 8239 O 801.269 1.59225 1.00895 0
M  V30 8240 C 798.396 3.0501 1.47263 0
M  V30 8241 C 797.442 4.15863 0.946575 0
M  V30 8242 S 798.275 5.35272 -0.156323 0
M  V30 8243 C 799.431 6.18123 0.983601 0
M  V30 8244 H 799.664 2.95688 -0.309215 0
M  V30 8245 H 797.197 1.51872 -0.278238 0
M  V30 8246 H 799.155 3.51284 2.12391 0
M  V30 8247 H 797.816 2.34519 2.08949 0
M  V30 8248 H 797.009 4.70834 1.7981 0
M  V30 8249 H 796.611 3.72139 0.372647 0
M  V30 8250 H 798.903 6.50588 1.89056 0
M  V30 8251 H 799.846 7.06521 0.472687 0
M  V30 8252 H 800.254 5.50547 1.24735 0
M  V30 8253 N 799.652 0.226554 1.55963 0
M  V30 8254 C 800.582 -0.676079 2.23498 0
M  V30 8255 C 801.563 -1.19718 1.20837 0
M  V30 8256 O 802.748 -1.24027 1.49436 0
M  V30 8257 C 799.878 -1.88217 2.91876 0
M  V30 8258 C 798.832 -1.4947 4.01052 0
M  V30 8259 C 798.158 -2.77997 4.56751 0
M  V30 8260 C 799.458 -0.680951 5.17842 0
M  V30 8261 H 801.152 -0.112989 2.99187 0
M  V30 8262 H 798.698 -0.0529046 1.43903 0
M  V30 8263 H 800.651 -2.51911 3.37815 0
M  V30 8264 H 799.375 -2.47031 2.13643 0
M  V30 8265 H 798.034 -0.881199 3.55852 0
M  V30 8266 H 797.682 -3.34966 3.75243 0
M  V30 8267 H 797.382 -2.52803 5.30438 0
M  V30 8268 H 798.906 -3.42625 5.05411 0
M  V30 8269 H 800.32 -1.22171 5.60131 0
M  V30 8270 H 798.717 -0.525898 5.97791 0
M  V30 8271 H 799.787 0.311346 4.83899 0
M  V30 8272 N 801.13 -1.57531 -0.0467866 0
M  V30 8273 C 802.37 -1.90294 -0.746171 0
M  V30 8274 C 802.734 -0.823194 -1.73458 0
M  V30 8275 O 803.935 -1.03463 -2.48091 0
M  V30 8276 C 802.206 -3.28249 -1.41378 0
M  V30 8277 S 803.765 -3.82812 -2.14477 0
M  V30 8278 H 800.583 -0.666496 -0.247598 0
M  V30 8279 H 803.185 -1.955 -0.00135143 0
M  V30 8280 H 801.889 -4.04712 -0.680937 0
M  V30 8281 H 801.42 -3.26302 -2.19751 0
M  V30 8282 H 803.435 -3.60111 -3.41372 0
M  V30 8283 N 802.608 0.318715 -1.54344 0
M  V30 8284 C 803.855 1.05608 -1.72781 0
M  V30 8285 C 804.183 1.87854 -0.504083 0
M  V30 8286 O 803.438 1.88826 0.51414 0
M  V30 8287 C 803.737 2.00514 -2.95853 0
M  V30 8288 C 803.403 1.34385 -4.30409 0
M  V30 8289 C 802.065 1.16081 -4.66989 0
M  V30 8290 C 804.417 0.869627 -5.13894 0
M  V30 8291 C 801.745 0.490114 -5.84649 0
M  V30 8292 C 804.097 0.212735 -6.32242 0
M  V30 8293 C 802.761 0.0175882 -6.67498 0
M  V30 8294 H 802.031 0.386449 -0.632249 0
M  V30 8295 H 804.678 0.332729 -1.88587 0
M  V30 8296 H 802.983 2.79317 -2.74753 0
M  V30 8297 H 804.68 2.57605 -3.07312 0
M  V30 8298 H 801.27 1.49634 -4.01631 0
M  V30 8299 H 805.454 0.998809 -4.86146 0
M  V30 8300 H 800.71 0.327767 -6.10521 0
M  V30 8301 H 804.884 -0.162699 -6.9621 0
M  V30 8302 H 802.511 -0.504137 -7.58527 0
M  V30 8303 N 804.086 1.46499 0.581025 0
M  V30 8304 C 805.332 1.52121 1.34116 0
M  V30 8305 C 805.665 0.173031 1.93428 0
M  V30 8306 O 804.94 -0.815729 1.76568 0
M  V30 8307 C 805.223 2.62108 2.46924 0
M  V30 8308 C 805.076 4.06462 1.92636 0
M  V30 8309 C 806.395 2.68167 3.48962 0
M  V30 8310 H 803.514 0.5538 0.486287 0
M  V30 8311 H 806.156 1.78443 0.652538 0
M  V30 8312 H 804.306 2.39794 3.05665 0
M  V30 8313 H 805.978 4.40068 1.3834 0
M  V30 8314 H 804.221 4.15862 1.23455 0
M  V30 8315 H 804.892 4.79152 2.74076 0
M  V30 8316 H 807.368 2.8823 3.00104 0
M  V30 8317 H 806.244 3.46942 4.2535 0
M  V30 8318 H 806.505 1.74284 4.06297 0
M  V30 8319 N 805.565 -0.825799 1.34232 0
M  V30 8320 C 806.79 -1.61883 1.29648 0
M  V30 8321 C 807.215 -1.87669 -0.127295 0
M  V30 8322 O 806.573 -1.45016 -1.08813 0
M  V30 8323 C 806.621 -2.93846 2.09014 0
M  V30 8324 O 805.725 -3.85778 1.4577 0
M  V30 8325 H 805.066 -0.492454 0.445405 0
M  V30 8326 H 807.596 -1.02641 1.76992 0
M  V30 8327 H 807.606 -3.43435 2.20264 0
M  V30 8328 H 806.281 -2.74401 3.12533 0
M  V30 8329 H 804.858 -3.4429 1.43245 0
M  V30 8330 N 807.043 -1.17915 -1.04565 0
M  V30 8331 C 808.006 -0.903787 -2.10628 0
M  V30 8332 C 809.006 0.10873 -1.60432 0
M  V30 8333 O 810.196 -0.124152 -1.73757 0
M  V30 8334 C 807.328 -0.355017 -3.39046 0
M  V30 8335 H 808.521 -1.84425 -2.3649 0
M  V30 8336 H 806.074 -0.990477 -1.2091 0
M  V30 8337 H 806.809 0.592297 -3.18845 0
M  V30 8338 H 806.594 -1.08484 -3.76794 0
M  V30 8339 H 808.084 -0.180891 -4.17208 0
M  V30 8340 N 808.521 1.23394 -0.980386 0
M  V30 8341 C 809.761 1.93543 -0.657288 0
M  V30 8342 C 810.125 1.74791 0.794477 0
M  V30 8343 O 811.326 2.39089 1.2284 0
M  V30 8344 C 809.597 3.42025 -1.03701 0
M  V30 8345 S 811.156 4.30871 -0.830379 0
M  V30 8346 H 807.974 0.669012 -0.240717 0
M  V30 8347 H 810.576 1.49478 -1.26002 0
M  V30 8348 H 809.28 3.53183 -2.09022 0
M  V30 8349 H 808.811 3.91091 -0.425559 0
M  V30 8350 H 810.826 4.95377 0.285719 0
M  V30 8351 N 809.999 0.752036 1.385 0
M  V30 8352 C 810.946 0.123288 2.3047 0
M  V30 8353 C 811.916 -0.711326 1.50098 0
M  V30 8354 O 813.101 -0.667775 1.78733 0
M  V30 8355 C 810.241 -0.765085 3.36512 0
M  V30 8356 C 809.354 0.0839885 4.31918 0
M  V30 8357 C 808.489 -0.807243 5.25031 0
M  V30 8358 C 807.528 0.0455583 6.12083 0
M  V30 8359 N 806.665 -0.802547 6.97498 0
M  V30 8360 H 811.505 0.913169 2.83664 0
M  V30 8361 H 809.042 0.46195 1.39658 0
M  V30 8362 H 811 -1.29476 3.966 0
M  V30 8363 H 809.63 -1.52077 2.84732 0
M  V30 8364 H 808.682 0.731276 3.73305 0
M  V30 8365 H 809.994 0.74265 4.9324 0
M  V30 8366 H 809.148 -1.40414 5.90228 0
M  V30 8367 H 807.887 -1.49964 4.64071 0
M  V30 8368 H 806.892 0.655137 5.45883 0
M  V30 8369 H 808.117 0.734994 6.75111 0
M  V30 8370 H 806.063 -1.47992 6.39089 0
M  V30 8371 H 805.98 -0.200747 7.55733 0
M  V30 8372 H 807.248 -1.38447 7.67107 0
M  V30 8373 N 811.477 -1.49425 0.500989 0
M  V30 8374 C 812.754 -1.9531 -0.106551 0
M  V30 8375 C 813.134 -1.44248 -1.54129 0
M  V30 8376 O 812.482 -0.656237 -2.18874 0
M  V30 8377 C 812.692 -3.48995 -0.0191972 0
M  V30 8378 C 814.04 -4.24161 -0.193129 0
M  V30 8379 O 815.064 -3.56075 -0.0943843 0
M  V30 8380 O 813.923 -5.45064 -0.395869 0
M  V30 8381 H 811.017 -0.82149 -0.0953068 0
M  V30 8382 H 813.563 -1.6007 0.563526 0
M  V30 8383 H 812.335 -3.78794 0.981353 0
M  V30 8384 H 811.958 -3.90852 -0.72942 0
M  V30 8385 N 812.955 -0.234822 -1.55841 0
M  V30 8386 C 814.202 0.39326 -1.98645 0
M  V30 8387 C 814.53 1.58823 -1.12274 0
M  V30 8388 O 813.785 1.94954 -0.170731 0
M  V30 8389 C 814.084 0.858032 -3.46947 0
M  V30 8390 C 813.75 -0.227858 -4.50324 0
M  V30 8391 C 812.412 -0.526128 -4.78315 0
M  V30 8392 C 814.764 -0.961576 -5.12253 0
M  V30 8393 C 812.092 -1.5624 -5.65514 0
M  V30 8394 C 814.444 -1.98728 -6.00575 0
M  V30 8395 C 813.108 -2.29233 -6.26904 0
M  V30 8396 H 812.378 0.143904 -0.726892 0
M  V30 8397 H 815.025 -0.34012 -1.88455 0
M  V30 8398 H 813.33 1.67041 -3.54408 0
M  V30 8399 H 815.027 1.35407 -3.77447 0
M  V30 8400 H 811.617 0.0147624 -4.28597 0
M  V30 8401 H 815.801 -0.744388 -4.90686 0
M  V30 8402 H 811.057 -1.80422 -5.84173 0
M  V30 8403 H 815.231 -2.5608 -6.47608 0
M  V30 8404 H 812.858 -3.09671 -6.94268 0
M  V30 8405 N 814.433 1.57553 0.0384317 0
M  V30 8406 C 815.673 1.90687 0.736069 0
M  V30 8407 C 816.037 0.832381 1.73019 0
M  V30 8408 O 817.238 1.04777 2.47538 0
M  V30 8409 C 815.509 3.28994 1.39635 0
M  V30 8410 S 817.068 3.83944 2.12444 0
M  V30 8411 H 813.886 0.667799 0.244059 0
M  V30 8412 H 816.488 1.95498 -0.00901643 0
M  V30 8413 H 815.192 4.05067 0.659465 0
M  V30 8414 H 814.723 3.27463 2.18018 0
M  V30 8415 H 816.738 3.61916 3.39457 0
M  V30 8416 N 815.911 -0.310526 1.54511 0
M  V30 8417 C 816.841 -1.38757 1.878 0
M  V30 8418 C 817.822 -1.53353 0.735991 0
M  V30 8419 O 819.007 -1.67018 0.990887 0
M  V30 8420 C 816.137 -2.75327 2.11689 0
M  V30 8421 C 815.091 -2.75506 3.27537 0
M  V30 8422 C 814.417 -4.15275 3.36824 0
M  V30 8423 C 815.717 -2.38093 4.64875 0
M  V30 8424 H 817.411 -1.11146 2.78005 0
M  V30 8425 H 814.957 -0.533232 1.33763 0
M  V30 8426 H 816.91 -3.50752 2.33562 0
M  V30 8427 H 815.634 -3.04443 1.18245 0
M  V30 8428 H 814.293 -2.02538 3.05572 0
M  V30 8429 H 813.941 -4.41553 2.40915 0
M  V30 8430 H 813.641 -4.16299 4.14692 0
M  V30 8431 H 815.165 -4.92493 3.60947 0
M  V30 8432 H 816.579 -3.03232 4.86542 0
M  V30 8433 H 814.976 -2.50345 5.45387 0
M  V30 8434 H 816.046 -1.33227 4.66239 0
M  V30 8435 N 817.389 -1.46805 -0.573248 0
M  V30 8436 C 818.805 -1.31969 -0.897577 0
M  V30 8437 C 819.005 -0.298171 -1.99282 0
M  V30 8438 O 818.061 0.295953 -2.5076 0
M  V30 8439 C 819.374 -2.70859 -1.30598 0
M  V30 8440 C 820.922 -2.79022 -1.4183 0
M  V30 8441 C 821.397 -4.18516 -1.86033 0
M  V30 8442 N 822.888 -4.2098 -1.9321 0
M  V30 8443 C 823.623 -5.25814 -2.28707 0
M  V30 8444 N 823.119 -6.40968 -2.6293 0
M  V30 8445 N 824.912 -5.13184 -2.29343 0
M  V30 8446 H 817.063 -2.11869 0.150094 0
M  V30 8447 H 819.326 -0.947989 0.00447895 0
M  V30 8448 H 819.032 -3.46965 -0.575161 0
M  V30 8449 H 818.906 -3.01585 -2.26554 0
M  V30 8450 H 821.293 -2.03198 -2.13996 0
M  V30 8451 H 821.374 -2.51969 -0.441024 0
M  V30 8452 H 821.018 -4.94839 -1.14442 0
M  V30 8453 H 820.948 -4.42982 -2.84735 0
M  V30 8454 H 823.439 -3.37898 -1.69214 0
M  V30 8455 H 823.752 -7.16729 -2.88996 0
M  V30 8456 H 822.097 -6.44314 -2.60547 0
M  V30 8457 H 825.288 -4.22255 -2.02036 0
M  V30 8458 H 825.461 -5.94996 -2.56679 0
M  V30 8459 N 818.867 0.818669 -1.34668 0
M  V30 8460 C 819.8 1.93516 -1.20941 0
M  V30 8461 C 820.778 1.62292 -0.100061 0
M  V30 8462 O 821.962 1.86614 -0.265983 0
M  V30 8463 C 819.089 3.27612 -0.859524 0
M  V30 8464 C 818.135 3.77794 -1.97923 0
M  V30 8465 S 818.968 3.97043 -3.59329 0
M  V30 8466 C 820.124 5.3406 -3.2639 0
M  V30 8467 H 820.357 2.04864 -2.15449 0
M  V30 8468 H 817.89 0.974716 -1.19744 0
M  V30 8469 H 819.848 4.05087 -0.664444 0
M  V30 8470 H 818.509 3.14028 0.0672835 0
M  V30 8471 H 817.702 4.74883 -1.68827 0
M  V30 8472 H 817.304 3.0728 -2.13202 0
M  V30 8473 H 819.596 6.17626 -2.78469 0
M  V30 8474 H 820.539 5.68143 -4.22634 0
M  V30 8475 H 820.947 4.99773 -2.62464 0
M  V30 8476 N 820.346 1.18468 1.03938 0
M  V30 8477 C 821.309 0.914944 2.10146 0
M  V30 8478 C 822.309 -0.10022 1.60487 0
M  V30 8479 O 823.499 0.133365 1.73689 0
M  V30 8480 C 820.631 0.372993 3.38853 0
M  V30 8481 H 821.824 1.85677 2.35508 0
M  V30 8482 H 819.377 0.996876 1.20383 0
M  V30 8483 H 820.112 -0.57538 3.19155 0
M  V30 8484 H 819.897 1.1048 3.76213 0
M  V30 8485 H 821.387 0.203014 4.17106 0
M  V30 8486 N 821.824 -1.22873 0.986916 0
M  V30 8487 C 823.24 -1.43594 0.696633 0
M  V30 8488 C 823.44 -1.87622 -0.734869 0
M  V30 8489 O 822.496 -2.02633 -1.50652 0
M  V30 8490 C 823.809 -2.48231 1.69711 0
M  V30 8491 C 825.357 -2.62037 1.71188 0
M  V30 8492 C 825.832 -3.6989 2.70084 0
M  V30 8493 N 827.323 -3.77341 2.68641 0
M  V30 8494 C 828.058 -4.6037 3.41829 0
M  V30 8495 N 827.554 -5.47438 4.24598 0
M  V30 8496 N 829.347 -4.54626 3.30563 0
M  V30 8497 H 821.498 -0.925982 1.91153 0
M  V30 8498 H 823.761 -0.46866 0.824052 0
M  V30 8499 H 823.467 -2.22812 2.72117 0
M  V30 8500 H 823.341 -3.46731 1.48516 0
M  V30 8501 H 825.728 -2.86803 0.694837 0
M  V30 8502 H 825.809 -1.63831 1.96451 0
M  V30 8503 H 825.453 -3.45872 3.71934 0
M  V30 8504 H 825.383 -4.67652 2.42093 0
M  V30 8505 H 827.874 -3.15124 2.08578 0
M  V30 8506 H 828.187 -6.078 4.77283 0
M  V30 8507 H 826.532 -5.4704 4.28687 0
M  V30 8508 H 829.723 -3.85627 2.65347 0
M  V30 8509 H 829.896 -5.19103 3.8786 0
M  V30 8510 N 823.302 -0.75937 -1.38099 0
M  V30 8511 C 824.579 -0.243371 -1.9408 0
M  V30 8512 C 824.959 1.25942 -1.69416 0
M  V30 8513 O 824.307 2.03667 -1.03595 0
M  V30 8514 C 824.517 -0.603328 -3.43745 0
M  V30 8515 C 825.865 -0.566195 -4.20808 0
M  V30 8516 O 826.889 -0.541969 -3.52053 0
M  V30 8517 O 825.748 -0.582261 -5.43389 0
M  V30 8518 H 822.842 -0.0526825 -0.82532 0
M  V30 8519 H 825.388 -0.839884 -1.47459 0
M  V30 8520 H 824.16 -1.64098 -3.55229 0
M  V30 8521 H 823.783 0.0208887 -3.97595 0
M  V30 8522 N 824.78 1.49157 -0.508906 0
M  V30 8523 C 826.008 2.06879 0.0293734 0
M  V30 8524 C 826.423 1.36823 1.30095 0
M  V30 8525 O 825.78 0.449034 1.7689 0
M  V30 8526 C 825.831 3.60423 0.278791 0
M  V30 8527 O 825.552 4.27844 -0.942389 0
M  V30 8528 C 827.053 4.34881 0.859825 0
M  V30 8529 H 824.273 0.67057 -0.0240184 0
M  V30 8530 H 826.817 1.91834 -0.708526 0
M  V30 8531 H 824.972 3.75145 0.966689 0
M  V30 8532 H 825.386 5.19671 -0.710097 0
M  V30 8533 H 826.86 5.43161 0.983884 0
M  V30 8534 H 827.337 3.9789 1.85958 0
M  V30 8535 H 827.943 4.24785 0.209152 0
M  V30 8536 N 826.258 0.243083 1.55714 0
M  V30 8537 C 827.535 -0.432851 1.90751 0
M  V30 8538 C 827.915 -1.76153 1.16333 0
M  V30 8539 O 827.263 -2.26783 0.279565 0
M  V30 8540 C 827.473 -0.604685 3.43722 0
M  V30 8541 C 828.821 -0.90231 4.14902 0
M  V30 8542 O 829.845 -0.690689 3.49439 0
M  V30 8543 O 828.704 -1.3051 5.30688 0
M  V30 8544 H 825.798 -0.231835 0.79384 0
M  V30 8545 H 828.344 0.286867 1.67258 0
M  V30 8546 H 827.116 0.331655 3.89892 0
M  V30 8547 H 826.739 -1.37509 3.73065 0
M  V30 8548 N 827.736 -1.57571 -0.0300757 0
M  V30 8549 C 828.666 -2.0953 -1.03051 0
M  V30 8550 C 829.647 -0.99761 -1.37774 0
M  V30 8551 O 830.832 -1.27279 -1.46676 0
M  V30 8552 C 827.962 -2.57385 -2.33174 0
M  V30 8553 C 826.916 -3.71409 -2.12696 0
M  V30 8554 C 826.242 -4.05467 -3.4857 0
M  V30 8555 C 827.542 -4.99877 -1.51396 0
M  V30 8556 H 829.236 -2.93367 -0.597999 0
M  V30 8557 H 826.782 -1.41127 -0.286203 0
M  V30 8558 H 828.735 -2.92355 -3.03491 0
M  V30 8559 H 827.459 -1.70629 -2.78484 0
M  V30 8560 H 826.118 -3.36786 -1.44813 0
M  V30 8561 H 825.766 -3.15779 -3.91526 0
M  V30 8562 H 825.466 -4.82269 -3.35694 0
M  V30 8563 H 826.99 -4.4297 -4.2025 0
M  V30 8564 H 828.404 -5.3281 -2.11629 0
M  V30 8565 H 826.801 -5.81283 -1.49098 0
M  V30 8566 H 827.871 -4.82522 -0.479676 0
M  V30 8567 N 829.214 0.302327 -1.54673 0
M  V30 8568 C 830.164 1.37443 -1.81916 0
M  V30 8569 C 831.148 1.45999 -0.676251 0
M  V30 8570 O 832.34 1.50174 -0.93685 0
M  V30 8571 C 829.469 2.73966 -2.06876 0
M  V30 8572 C 828.555 2.69637 -3.27348 0
M  V30 8573 N 828.946 2.34926 -4.47933 0
M  V30 8574 C 827.244 3.00742 -3.29348 0
M  V30 8575 C 827.945 2.39862 -5.29944 0
M  V30 8576 N 826.921 2.77163 -4.67634 0
M  V30 8577 H 830.723 1.09567 -2.72713 0
M  V30 8578 H 828.237 0.5109 -1.54154 0
M  V30 8579 H 830.234 3.51265 -2.2454 0
M  V30 8580 H 828.894 3.02754 -1.17346 0
M  V30 8581 H 829.905 2.07403 -4.74557 0
M  V30 8582 H 826.582 3.34434 -2.49921 0
M  V30 8583 H 827.972 2.15835 -6.3629 0
M  V30 8584 N 830.692 1.47107 0.565454 0
M  V30 8585 C 831.941 1.5257 1.31929 0
M  V30 8586 C 832.254 0.189092 1.94684 0
M  V30 8587 O 833.46 0.121657 2.71227 0
M  V30 8588 C 831.916 2.68914 2.39193 0
M  V30 8589 C 831.524 4.09069 1.82665 0
M  V30 8590 C 833.268 2.83663 3.1581 0
M  V30 8591 C 831.175 5.16726 2.87661 0
M  V30 8592 H 830.105 0.567869 0.496025 0
M  V30 8593 H 832.756 1.73361 0.60151 0
M  V30 8594 H 831.138 2.41486 3.13848 0
M  V30 8595 H 832.312 4.46364 1.14438 0
M  V30 8596 H 830.627 3.99135 1.1866 0
M  V30 8597 H 833.224 3.61261 3.94201 0
M  V30 8598 H 833.567 1.91804 3.69482 0
M  V30 8599 H 834.1 3.10821 2.48265 0
M  V30 8600 H 830.839 6.10433 2.38854 0
M  V30 8601 H 830.359 4.83957 3.54324 0
M  V30 8602 H 832.038 5.43319 3.51303 0
M  V30 8603 N 832.17 -0.811516 1.35101 0
M  V30 8604 C 833.102 -1.93102 1.23468 0
M  V30 8605 C 834.115 -1.62021 0.159095 0
M  V30 8606 O 835.304 -1.73682 0.411945 0
M  V30 8607 C 832.404 -3.27345 0.877404 0
M  V30 8608 C 831.577 -3.86368 2.05033 0
M  V30 8609 C 830.636 -4.99009 1.66963 0
M  V30 8610 O 829.662 -5.16698 2.38772 0
M  V30 8611 N 830.864 -5.7749 0.590394 0
M  V30 8612 H 833.629 -2.0361 2.19916 0
M  V30 8613 H 831.19 -0.988687 1.28205 0
M  V30 8614 H 833.182 -4.00163 0.604298 0
M  V30 8615 H 831.752 -3.126 0.00275267 0
M  V30 8616 H 830.972 -3.05804 2.48752 0
M  V30 8617 H 832.26 -4.22533 2.83449 0
M  V30 8618 H 831.658 -5.657 -0.00633259 0
M  V30 8619 H 830.215 -6.50708 0.377055 0
M  V30 8620 N 833.648 -1.19017 -1.03309 0
M  V30 8621 C 834.873 -1.01598 -1.80811 0
M  V30 8622 C 835.298 0.430773 -1.83101 0
M  V30 8623 O 834.656 1.30946 -1.25391 0
M  V30 8624 C 834.704 -1.5845 -3.23923 0
M  V30 8625 O 833.808 -0.810972 -4.04348 0
M  V30 8626 H 833.149 -0.359398 -0.558327 0
M  V30 8627 H 835.679 -1.57945 -1.30055 0
M  V30 8628 H 835.689 -1.61486 -3.74682 0
M  V30 8629 H 834.364 -2.63752 -3.21571 0
M  V30 8630 H 832.941 -0.85353 -3.63 0
M  V30 8631 N 835.127 1.22348 -0.993418 0
M  V30 8632 C 836.375 1.90733 -0.668246 0
M  V30 8633 C 836.696 1.77732 0.802261 0
M  V30 8634 O 835.966 1.16486 1.57505 0
M  V30 8635 H 834.546 0.705966 -0.244174 0
M  V30 8636 H 837.208 1.48691 -1.26004 0
M  V30 8637 H 836.304 2.97883 -0.931239 0
M  V30 8638 N 836.605 0.766683 1.37694 0
M  V30 8639 C 838.016 0.394761 1.82479 0
M  V30 8640 C 838.367 -1.07842 1.63904 0
M  V30 8641 O 837.492 -1.83479 1.14737 0
M  V30 8642 C 838.087 0.70974 3.31283 0
M  V30 8643 C 836.646 0.390936 3.74364 0
M  V30 8644 C 835.793 0.956192 2.60293 0
M  V30 8645 H 838.744 0.961756 1.26238 0
M  V30 8646 H 838.765 -0.00742144 3.80499 0
M  V30 8647 H 838.277 1.782 3.4477 0
M  V30 8648 H 836.378 -0.674213 3.66449 0
M  V30 8649 H 836.491 0.895645 4.70654 0
M  V30 8650 H 834.855 0.380744 2.51838 0
M  V30 8651 H 835.638 2.03375 2.76575 0
M  V30 8652 N 838.083 -1.48885 0.516809 0
M  V30 8653 C 839.332 -2.01686 -0.0239899 0
M  V30 8654 C 839.645 -1.40029 -1.3657 0
M  V30 8655 O 840.851 -1.84249 -1.9941 0
M  V30 8656 C 839.307 -3.59779 -0.0931825 0
M  V30 8657 C 838.915 -4.30416 1.24283 0
M  V30 8658 C 840.659 -4.20471 -0.583507 0
M  V30 8659 C 838.566 -5.80408 1.13494 0
M  V30 8660 H 837.496 -0.753892 -0.0127376 0
M  V30 8661 H 840.147 -1.71273 0.65861 0
M  V30 8662 H 838.529 -3.86976 -0.840577 0
M  V30 8663 H 839.703 -4.14905 2.00476 0
M  V30 8664 H 838.018 -3.81539 1.66785 0
M  V30 8665 H 840.615 -5.30333 -0.681987 0
M  V30 8666 H 840.958 -3.84898 -1.58617 0
M  V30 8667 H 841.491 -3.97654 0.107814 0
M  V30 8668 H 838.23 -6.20532 2.11235 0
M  V30 8669 H 837.75 -5.98368 0.414167 0
M  V30 8670 H 839.429 -6.41781 0.820162 0
M  V30 8671 N 839.561 -0.251338 -1.55583 0
M  V30 8672 C 840.471 0.656978 -2.25213 0
M  V30 8673 C 841.487 1.18966 -1.26977 0
M  V30 8674 O 842.663 1.22499 -1.59862 0
M  V30 8675 C 839.728 1.83527 -2.94141 0
M  V30 8676 C 838.789 1.34162 -4.07798 0
M  V30 8677 C 838.022 2.46375 -4.73429 0
M  V30 8678 O 838.245 3.65205 -4.38157 0
M  V30 8679 O 837.179 2.15881 -5.61853 0
M  V30 8680 H 841.005 0.0936395 -3.03556 0
M  V30 8681 H 838.59 -0.0196638 -1.49387 0
M  V30 8682 H 840.472 2.52279 -3.3754 0
M  V30 8683 H 839.147 2.38614 -2.18735 0
M  V30 8684 H 838.054 0.621249 -3.68906 0
M  V30 8685 H 839.387 0.836779 -4.85035 0
M  V30 8686 N 841.039 1.57585 0.0217189 0
M  V30 8687 C 841.971 2.03849 1.04777 0
M  V30 8688 C 842.984 0.952558 1.32023 0
M  V30 8689 O 844.173 1.22974 1.29381 0
M  V30 8690 C 841.273 2.40504 2.3877 0
M  V30 8691 C 840.446 3.71566 2.30775 0
M  V30 8692 C 839.505 3.95329 3.47277 0
M  V30 8693 O 838.531 4.66289 3.26441 0
M  V30 8694 N 839.733 3.41536 4.69397 0
M  V30 8695 H 842.498 2.92491 0.653395 0
M  V30 8696 H 840.059 1.60538 0.209527 0
M  V30 8697 H 842.051 2.53532 3.15442 0
M  V30 8698 H 840.621 1.57494 2.70027 0
M  V30 8699 H 839.841 3.68822 1.39155 0
M  V30 8700 H 841.129 4.5753 2.22584 0
M  V30 8701 H 840.527 2.84033 4.89226 0
M  V30 8702 H 839.084 3.59932 5.43408 0
M  V30 8703 N 842.517 -0.29412 1.54831 0
M  V30 8704 C 843.465 -1.38296 1.87021 0
M  V30 8705 C 844.459 -1.5216 0.744557 0
M  V30 8706 O 845.665 -1.54196 0.92864 0
M  V30 8707 H 842.04 -0.462088 0.593278 0
M  V30 8708 H 844.011 -1.08386 2.7802 0
M  V30 8709 C 842.76 -2.74024 2.14023 0
M  V30 8710 H 842.083 -2.6414 3.00117 0
M  V30 8711 H 843.523 -3.49205 2.40482 0
M  V30 8712 C 841.982 -3.23492 0.940982 0
M  V30 8713 O 842.512 -4.01361 0.164937 0
M  V30 8714 N 840.718 -2.80902 0.744467 0
M  V30 8715 H 840.265 -2.17694 1.37721 0
M  V30 8716 H 840.223 -3.14349 -0.0563652 0
M  V30 8717 N 843.995 -1.47404 -0.557645 0
M  V30 8718 C 845.406 -1.47872 -1.13977 0
M  V30 8719 C 845.757 -0.233176 -1.94809 0
M  V30 8720 O 844.882 0.661945 -2.06027 0
M  V30 8721 C 845.477 -2.67926 -2.07368 0
M  V30 8722 C 844.036 -2.71354 -2.60852 0
M  V30 8723 C 843.183 -2.40967 -1.37223 0
M  V30 8724 H 846.134 -1.54921 -0.344268 0
M  V30 8725 H 846.155 -2.44871 -2.91236 0
M  V30 8726 H 845.667 -3.58562 -1.48509 0
M  V30 8727 H 843.768 -1.84855 -3.23511 0
M  V30 8728 H 843.881 -3.72032 -3.01876 0
M  V30 8729 H 842.245 -1.91541 -1.67882 0
M  V30 8730 H 843.028 -3.33811 -0.801583 0
M  V30 8731 N 845.473 0.80434 -1.35529 0
M  V30 8732 C 846.719 1.56385 -1.29118 0
M  V30 8733 C 847.052 1.9374 0.133536 0
M  V30 8734 O 846.327 1.6153 1.08344 0
M  V30 8735 C 846.61 2.85097 -2.19981 0
M  V30 8736 C 846.463 2.54204 -3.7108 0
M  V30 8737 C 847.782 3.86817 -2.09907 0
M  V30 8738 H 844.901 0.567382 -0.470368 0
M  V30 8739 H 847.543 0.925235 -1.6595 0
M  V30 8740 H 845.693 3.39594 -1.88701 0
M  V30 8741 H 847.365 2.05872 -4.12813 0
M  V30 8742 H 845.608 1.87364 -3.91251 0
M  V30 8743 H 846.279 3.46068 -4.30048 0
M  V30 8744 H 848.755 3.41725 -2.37409 0
M  V30 8745 H 847.631 4.7465 -2.75678 0
M  V30 8746 H 847.892 4.28663 -1.08171 0
M  V30 8747 N 846.951 1.19563 1.02676 0
M  V30 8748 C 847.861 0.950691 2.14474 0
M  V30 8749 C 848.877 -0.0900219 1.73767 0
M  V30 8750 O 850.053 0.0951063 2.01175 0
M  V30 8751 C 847.118 0.494917 3.43149 0
M  V30 8752 C 846.179 1.60527 3.98158 0
M  V30 8753 C 845.412 1.17115 5.20692 0
M  V30 8754 O 845.635 0.0355937 5.70389 0
M  V30 8755 O 844.569 1.97454 5.68591 0
M  V30 8756 H 848.395 1.88651 2.38001 0
M  V30 8757 H 845.98 0.978635 1.12885 0
M  V30 8758 H 847.862 0.249492 4.20661 0
M  V30 8759 H 846.537 -0.412434 3.21062 0
M  V30 8760 H 845.444 1.90487 3.21971 0
M  V30 8761 H 846.777 2.48925 4.24614 0
M  V30 8762 N 848.429 -1.21819 0.999893 0
M  V30 8763 C 849.377 -2.26027 0.549047 0
M  V30 8764 C 850.371 -1.64516 -0.403826 0
M  V30 8765 O 851.577 -1.77878 -0.275578 0
M  V30 8766 H 847.952 -0.734958 0.159185 0
M  V30 8767 H 849.923 -2.61398 1.43923 0
M  V30 8768 C 848.672 -3.47514 -0.11369 0
M  V30 8769 H 847.995 -3.95112 0.610482 0
M  V30 8770 H 849.435 -4.22179 -0.3925 0
M  V30 8771 C 847.894 -3.08614 -1.35126 0
M  V30 8772 O 848.424 -3.1864 -2.44605 0
M  V30 8773 N 846.63 -2.63327 -1.22911 0
M  V30 8774 H 846.177 -2.55369 -0.338288 0
M  V30 8775 H 846.135 -2.37668 -2.05818 0
M  V30 8776 N 849.908 -0.773975 -1.37286 0
M  V30 8777 C 851.138 -0.350249 -2.03609 0
M  V30 8778 C 851.546 1.03313 -1.58502 0
M  V30 8779 O 850.889 1.67118 -0.7627 0
M  V30 8780 C 850.951 -0.317215 -3.58098 0
M  V30 8781 C 850.615 -1.64556 -4.26345 0
M  V30 8782 C 851.612 -2.59839 -4.50311 0
M  V30 8783 C 849.297 -1.92061 -4.64131 0
M  V30 8784 C 851.291 -3.80833 -5.11122 0
M  V30 8785 C 848.978 -3.13325 -5.24663 0
M  V30 8786 C 849.976 -4.0753 -5.48095 0
M  V30 8787 O 849.664 -5.26658 -6.0736 0
M  V30 8788 H 849.396 -0.144456 -0.660385 0
M  V30 8789 H 851.95 -1.0496 -1.76557 0
M  V30 8790 H 850.18 0.438528 -3.84205 0
M  V30 8791 H 851.869 0.0797428 -4.05822 0
M  V30 8792 H 852.635 -2.39872 -4.21529 0
M  V30 8793 H 848.514 -1.19562 -4.45226 0
M  V30 8794 H 852.058 -4.54377 -5.29327 0
M  V30 8795 H 847.955 -3.33177 -5.52869 0
M  V30 8796 H 848.723 -5.27513 -6.25837 0
M  V30 8797 N 851.386 1.48609 -0.524698 0
M  V30 8798 C 852.635 2.01696 0.0132937 0
M  V30 8799 C 852.948 1.40751 1.35825 0
M  V30 8800 O 854.154 1.85304 1.9843 0
M  V30 8801 C 852.61 3.59824 0.0741012 0
M  V30 8802 C 852.218 4.2975 -1.26564 0
M  V30 8803 C 853.962 4.20774 0.5612 0
M  V30 8804 C 851.869 5.79798 -1.16571 0
M  V30 8805 H 850.799 0.753949 0.00873931 0
M  V30 8806 H 853.45 1.70922 -0.667684 0
M  V30 8807 H 851.832 3.87416 0.820043 0
M  V30 8808 H 853.006 4.13836 -2.02674 0
M  V30 8809 H 851.321 3.80649 -1.68806 0
M  V30 8810 H 853.918 5.30687 0.653853 0
M  V30 8811 H 854.261 3.85734 1.56573 0
M  V30 8812 H 854.794 3.97591 -0.128901 0
M  V30 8813 H 851.533 6.19403 -2.14523 0
M  V30 8814 H 851.053 5.9814 -0.445894 0
M  V30 8815 H 852.732 6.41337 -0.854186 0
M  V30 8816 N 852.864 0.259585 1.55447 0
M  V30 8817 C 854.141 -0.412595 1.91199 0
M  V30 8818 C 854.521 -1.74909 1.18194 0
M  V30 8819 O 853.869 -2.26474 0.303603 0
M  V30 8820 C 854.079 -0.568195 3.44344 0
M  V30 8821 C 855.427 -0.858253 4.15836 0
M  V30 8822 O 856.451 -0.653588 3.50152 0
M  V30 8823 O 855.31 -1.24874 5.32042 0
M  V30 8824 H 852.404 -0.223403 0.796254 0
M  V30 8825 H 854.95 0.30459 1.66944 0
M  V30 8826 H 853.722 0.372989 3.89518 0
M  V30 8827 H 853.345 -1.33544 3.74502 0
M  V30 8828 N 854.342 -1.57594 -0.0133615 0
M  V30 8829 C 855.252 -2.10991 -1.02566 0
M  V30 8830 C 856.268 -1.05208 -1.3859 0
M  V30 8831 O 857.444 -1.37034 -1.47593 0
M  V30 8832 C 854.509 -2.59165 -2.30292 0
M  V30 8833 C 853.57 -3.79495 -2.00704 0
M  V30 8834 C 852.803 -4.25361 -3.22341 0
M  V30 8835 O 853.026 -3.70645 -4.33565 0
M  V30 8836 O 851.96 -5.17649 -3.07121 0
M  V30 8837 H 855.786 -2.97678 -0.601806 0
M  V30 8838 H 853.371 -1.47598 -0.23135 0
M  V30 8839 H 855.253 -2.90409 -3.05354 0
M  V30 8840 H 853.928 -1.75582 -2.71942 0
M  V30 8841 H 852.835 -3.53245 -1.23161 0
M  V30 8842 H 854.168 -4.64109 -1.639 0
M  V30 8843 N 855.82 0.285905 -1.54985 0
M  V30 8844 C 857.066 1.02071 -1.75241 0
M  V30 8845 C 857.399 1.864 -0.544842 0
M  V30 8846 O 856.674 1.89034 0.457844 0
M  V30 8847 C 856.957 1.91409 -3.05016 0
M  V30 8848 C 856.81 1.10158 -4.36102 0
M  V30 8849 C 858.129 2.90335 -3.30747 0
M  V30 8850 H 855.248 0.369663 -0.637588 0
M  V30 8851 H 857.89 0.294114 -1.8771 0
M  V30 8852 H 856.04 2.53362 -2.94517 0
M  V30 8853 H 857.712 0.503756 -4.58541 0
M  V30 8854 H 855.955 0.404675 -4.31908 0
M  V30 8855 H 856.626 1.75956 -5.23205 0
M  V30 8856 H 859.102 2.38514 -3.40955 0
M  V30 8857 H 857.978 3.49997 -4.2284 0
M  V30 8858 H 858.239 3.64787 -2.49765 0
M  V30 8859 N 857.298 1.47698 0.54982 0
M  V30 8860 C 858.228 1.63622 1.66583 0
M  V30 8861 C 859.209 0.485477 1.63025 0
M  V30 8862 O 860.394 0.715692 1.80531 0
M  V30 8863 C 857.524 1.65721 3.05211 0
M  V30 8864 C 856.478 2.80097 3.2362 0
M  V30 8865 C 855.804 2.67272 4.63109 0
M  V30 8866 C 857.104 4.21612 3.08286 0
M  V30 8867 H 858.798 2.57049 1.53512 0
M  V30 8868 H 856.344 1.23705 0.737099 0
M  V30 8869 H 858.297 1.75451 3.83138 0
M  V30 8870 H 857.021 0.688593 3.19258 0
M  V30 8871 H 855.68 2.69889 2.48104 0
M  V30 8872 H 855.328 1.68422 4.73965 0
M  V30 8873 H 855.028 3.44008 4.76374 0
M  V30 8874 H 856.552 2.78942 5.43161 0
M  V30 8875 H 857.966 4.32758 3.76024 0
M  V30 8876 H 856.363 4.99193 3.33057 0
M  V30 8877 H 857.433 4.39462 2.04942 0
M  V30 8878 N 858.776 -0.797141 1.35954 0
M  V30 8879 C 859.724 -1.93084 1.29697 0
M  V30 8880 C 860.718 -1.68329 0.190152 0
M  V30 8881 O 861.924 -1.7643 0.3567 0
M  V30 8882 H 858.299 -0.634531 0.403577 0
M  V30 8883 H 860.27 -1.95481 2.25455 0
M  V30 8884 C 859.019 -3.29996 1.09536 0
M  V30 8885 H 858.342 -3.49607 1.93946 0
M  V30 8886 H 859.782 -4.09696 1.09202 0
M  V30 8887 C 858.241 -3.36304 -0.200381 0
M  V30 8888 O 858.771 -3.83579 -1.19291 0
M  V30 8889 N 856.977 -2.89587 -0.242406 0
M  V30 8890 H 856.524 -2.51307 0.565897 0
M  V30 8891 H 856.482 -2.94189 -1.10906 0
M  V30 8892 N 860.254 -1.20106 -1.0204 0
M  V30 8893 C 861.164 -0.962051 -2.13967 0
M  V30 8894 C 862.18 0.0808053 -1.73812 0
M  V30 8895 O 863.356 -0.105774 -2.01122 0
M  V30 8896 C 860.421 -0.513108 -3.42882 0
M  V30 8897 C 859.482 -1.62636 -3.97301 0
M  V30 8898 C 858.715 -1.19875 -5.20063 0
M  V30 8899 O 858.938 -0.0658423 -5.70362 0
M  V30 8900 O 857.872 -2.00467 -5.67536 0
M  V30 8901 H 861.698 -1.8991 -2.36998 0
M  V30 8902 H 859.283 -0.984608 -1.12365 0
M  V30 8903 H 861.165 -0.271797 -4.20523 0
M  V30 8904 H 859.84 0.395402 -3.21276 0
M  V30 8905 H 858.747 -1.92192 -3.20957 0
M  V30 8906 H 860.08 -2.51174 -4.23288 0
M  V30 8907 N 861.732 1.21287 -1.00634 0
M  V30 8908 C 862.978 1.90671 -0.690822 0
M  V30 8909 C 863.311 1.77996 0.776592 0
M  V30 8910 O 862.586 1.15748 1.5631 0
M  V30 8911 C 862.869 3.42426 -1.11428 0
M  V30 8912 C 862.722 3.64086 -2.64124 0
M  V30 8913 C 864.041 4.34851 -0.677686 0
M  V30 8914 H 861.16 0.692419 -0.252439 0
M  V30 8915 H 863.802 1.42893 -1.25226 0
M  V30 8916 H 861.952 3.83249 -0.636586 0
M  V30 8917 H 863.624 3.32582 -3.19667 0
M  V30 8918 H 861.867 3.07906 -3.05576 0
M  V30 8919 H 862.538 4.7042 -2.88806 0
M  V30 8920 H 865.014 4.01619 -1.0882 0
M  V30 8921 H 863.89 5.39675 -1.00213 0
M  V30 8922 H 864.151 4.4009 0.421125 0
M  V30 8923 N 863.21 0.781244 1.36873 0
M  V30 8924 C 864.14 0.188128 2.32741 0
M  V30 8925 C 865.121 -0.672326 1.56249 0
M  V30 8926 O 866.306 -0.607835 1.84442 0
M  V30 8927 C 863.436 -0.684341 3.40491 0
M  V30 8928 C 862.39 0.0755641 4.27933 0
M  V30 8929 C 861.716 -0.916968 5.26779 0
M  V30 8930 C 863.016 1.26006 5.06873 0
M  V30 8931 H 864.71 0.989016 2.82593 0
M  V30 8932 H 862.256 0.477038 1.35869 0
M  V30 8933 H 864.209 -1.10915 4.06541 0
M  V30 8934 H 862.933 -1.51785 2.89187 0
M  V30 8935 H 861.592 0.481258 3.63427 0
M  V30 8936 H 861.24 -1.74528 4.71751 0
M  V30 8937 H 860.94 -0.413 5.86147 0
M  V30 8938 H 862.464 -1.34052 5.95703 0
M  V30 8939 H 863.878 0.911425 5.66009 0
M  V30 8940 H 862.275 1.69676 5.75613 0
M  V30 8941 H 863.345 2.05948 4.38991 0
M  V30 8942 N 864.689 -1.48329 0.532571 0
M  V30 8943 C 865.935 -2.028 -0.000583219 0
M  V30 8944 C 866.268 -1.40858 -1.33688 0
M  V30 8945 O 865.543 -0.555261 -1.86406 0
M  V30 8946 C 865.826 -3.59901 -0.119846 0
M  V30 8947 C 865.679 -4.32318 1.2418 0
M  V30 8948 C 866.998 -4.31904 -0.845372 0
M  V30 8949 H 864.117 -0.736999 0.00126205 0
M  V30 8950 H 866.759 -1.77024 0.690102 0
M  V30 8951 H 864.909 -3.81993 -0.708092 0
M  V30 8952 H 866.581 -4.21637 1.87136 0
M  V30 8953 H 864.824 -3.93635 1.82301 0
M  V30 8954 H 865.495 -5.40697 1.11132 0
M  V30 8955 H 867.971 -4.14658 -0.346159 0
M  V30 8956 H 866.847 -5.41509 -0.897723 0
M  V30 8957 H 867.108 -3.99369 -1.89622 0
M  V30 8958 N 866.167 -0.267825 -1.55308 0
M  V30 8959 C 867.413 0.351556 -1.9973 0
M  V30 8960 C 867.746 1.56049 -1.15596 0
M  V30 8961 O 867.021 1.93203 -0.224274 0
M  V30 8962 C 867.304 0.74091 -3.52395 0
M  V30 8963 C 867.157 -0.474861 -4.47286 0
M  V30 8964 C 868.476 1.5801 -4.10756 0
M  V30 8965 H 865.595 0.126308 -0.726096 0
M  V30 8966 H 868.237 -0.373316 -1.86296 0
M  V30 8967 H 866.387 1.35851 -3.63973 0
M  V30 8968 H 868.059 -1.1134 -4.47662 0
M  V30 8969 H 866.302 -1.11425 -4.19246 0
M  V30 8970 H 866.973 -0.158782 -5.51772 0
M  V30 8971 H 869.449 1.05857 -4.0241 0
M  V30 8972 H 868.325 1.82135 -5.17801 0
M  V30 8973 H 868.586 2.55878 -3.60526 0
M  V30 8974 N 867.645 1.57599 0.00500368 0
M  V30 8975 C 869.056 1.78462 0.54848 0
M  V30 8976 C 869.407 0.901869 1.74243 0
M  V30 8977 O 868.532 0.103014 2.16155 0
M  V30 8978 C 869.127 3.2365 1.00179 0
M  V30 8979 C 867.686 3.45627 1.49061 0
M  V30 8980 C 866.833 2.73794 0.439531 0
M  V30 8981 H 869.784 1.57151 -0.22118 0
M  V30 8982 H 869.805 3.31488 1.86805 0
M  V30 8983 H 869.317 3.87873 0.132607 0
M  V30 8984 H 867.418 2.86612 2.38085 0
M  V30 8985 H 867.531 4.54298 1.52152 0
M  V30 8986 H 865.895 2.38267 0.900043 0
M  V30 8987 H 866.678 3.40714 -0.420599 0
M  V30 8988 N 869.123 -0.277682 1.55134 0
M  V30 8989 C 870.071 -1.36305 1.88478 0
M  V30 8990 C 871.065 -1.51362 0.760654 0
M  V30 8991 O 872.271 -1.53202 0.944943 0
M  V30 8992 H 868.646 -0.45577 0.598146 0
M  V30 8993 H 870.617 -1.05431 2.79154 0
M  V30 8994 C 869.366 -2.71739 2.16918 0
M  V30 8995 H 868.689 -2.60942 3.02901 0
M  V30 8996 H 870.129 -3.46635 2.44172 0
M  V30 8997 C 868.588 -3.22476 0.975239 0
M  V30 8998 O 869.118 -4.01164 0.207497 0
M  V30 8999 N 867.324 -2.80097 0.774219 0
M  V30 9000 H 866.871 -2.16221 1.40022 0
M  V30 9001 H 866.829 -3.14392 -0.023021 0
M  V30 9002 N 870.601 -1.47988 -0.541979 0
M  V30 9003 C 871.85 -1.5465 -1.29485 0
M  V30 9004 C 872.163 -0.220041 -1.94358 0
M  V30 9005 O 873.369 -0.164792 -2.70999 0
M  V30 9006 C 871.825 -2.72685 -2.34885 0
M  V30 9007 C 871.433 -4.11923 -1.76134 0
M  V30 9008 C 873.177 -2.88651 -3.11257 0
M  V30 9009 C 871.084 -5.21237 -2.79404 0
M  V30 9010 H 870.014 -0.575688 -0.486928 0
M  V30 9011 H 872.665 -1.74296 -0.573853 0
M  V30 9012 H 871.047 -2.46448 -3.09966 0
M  V30 9013 H 872.221 -4.48128 -1.07322 0
M  V30 9014 H 870.536 -4.00972 -1.12295 0
M  V30 9015 H 873.133 -3.67487 -3.88404 0
M  V30 9016 H 873.476 -1.97658 -3.66384 0
M  V30 9017 H 874.009 -3.14731 -2.43288 0
M  V30 9018 H 870.748 -6.14156 -2.29113 0
M  V30 9019 H 870.268 -4.89533 -3.4658 0
M  V30 9020 H 871.947 -5.48839 -3.42615 0
M  V30 9021 N 872.079 0.78992 -1.36375 0
M  V30 9022 C 873.026 1.90254 -1.3066 0
M  V30 9023 C 873.996 1.65171 -0.17539 0
M  V30 9024 O 875.181 1.87338 -0.361824 0
M  V30 9025 C 872.321 3.27057 -1.10125 0
M  V30 9026 C 871.434 3.64215 -2.32317 0
M  V30 9027 C 870.569 4.90134 -2.04798 0
M  V30 9028 C 869.608 5.19969 -3.22953 0
M  V30 9029 N 868.745 6.37071 -2.95102 0
M  V30 9030 H 873.585 1.94474 -2.25796 0
M  V30 9031 H 871.122 0.951022 -1.12223 0
M  V30 9032 H 873.08 4.05947 -0.962453 0
M  V30 9033 H 871.71 3.22261 -0.186444 0
M  V30 9034 H 870.762 2.80454 -2.57002 0
M  V30 9035 H 872.074 3.82212 -3.20492 0
M  V30 9036 H 871.228 5.76888 -1.87845 0
M  V30 9037 H 869.967 4.74205 -1.13932 0
M  V30 9038 H 868.972 4.31699 -3.40465 0
M  V30 9039 H 870.197 5.37817 -4.14644 0
M  V30 9040 H 868.143 6.22535 -2.06848 0
M  V30 9041 H 868.06 6.55398 -3.76815 0
M  V30 9042 H 869.328 7.26808 -2.81727 0
M  V30 9043 N 873.557 1.20646 1.01402 0
M  V30 9044 C 874.467 0.973385 2.13453 0
M  V30 9045 C 875.483 -0.0715865 1.73853 0
M  V30 9046 O 876.659 0.116438 2.01063 0
M  V30 9047 C 873.724 0.531285 3.42605 0
M  V30 9048 C 872.785 1.64741 3.96433 0
M  V30 9049 C 872.018 1.22631 5.1942 0
M  V30 9050 O 872.241 0.0960891 5.70319 0
M  V30 9051 O 871.175 2.03474 5.66465 0
M  V30 9052 H 875.001 1.91164 2.35987 0
M  V30 9053 H 872.586 0.990553 1.11841 0
M  V30 9054 H 874.468 0.294095 4.20373 0
M  V30 9055 H 873.143 -0.378358 3.21481 0
M  V30 9056 H 872.05 1.93891 3.19933 0
M  V30 9057 H 873.383 2.53415 4.2195 0
M  V30 9058 N 875.035 -1.20752 1.01276 0
M  V30 9059 C 876.26 -1.94547 0.718769 0
M  V30 9060 C 876.685 -1.7404 -0.713563 0
M  V30 9061 O 876.043 -1.03221 -1.49047 0
M  V30 9062 C 876.091 -3.44823 1.05497 0
M  V30 9063 O 875.195 -4.12072 0.164516 0
M  V30 9064 H 874.536 -0.607931 0.267051 0
M  V30 9065 H 877.066 -1.53292 1.35509 0
M  V30 9066 H 877.076 -3.95427 1.00507 0
M  V30 9067 H 875.751 -3.59072 2.09858 0
M  V30 9068 H 874.328 -3.71909 0.271615 0
M  V30 9069 N 876.513 -0.788492 -1.36457 0
M  V30 9070 C 877.463 -0.159377 -2.27442 0
M  V30 9071 C 878.447 0.656146 -1.46913 0
M  V30 9072 O 879.639 0.516372 -1.693 0
M  V30 9073 C 876.768 0.705703 -3.35968 0
M  V30 9074 C 875.854 -0.11856 -4.23934 0
M  V30 9075 N 876.245 -1.1726 -4.9202 0
M  V30 9076 C 874.543 0.102752 -4.45882 0
M  V30 9077 C 875.244 -1.6743 -5.57083 0
M  V30 9078 N 874.22 -0.983682 -5.34626 0
M  V30 9079 H 878.022 -0.96614 -2.77566 0
M  V30 9080 H 875.536 -0.627864 -1.49772 0
M  V30 9081 H 877.533 1.17231 -4.00078 0
M  V30 9082 H 876.193 1.51102 -2.87399 0
M  V30 9083 H 877.204 -1.55502 -4.94004 0
M  V30 9084 H 873.881 0.878651 -4.08149 0
M  V30 9085 H 875.271 -2.55423 -6.21457 0
M  V30 9086 N 877.991 1.48044 -0.54043 0
M  V30 9087 C 878.941 2.26768 0.236657 0
M  V30 9088 C 879.925 1.33341 0.900505 0
M  V30 9089 O 881.117 1.57809 0.801584 0
M  V30 9090 C 878.246 3.18685 1.27651 0
M  V30 9091 C 877.332 4.19589 0.616923 0
M  V30 9092 N 877.723 5.04889 -0.303377 0
M  V30 9093 C 876.021 4.37375 0.872879 0
M  V30 9094 C 876.722 5.77654 -0.684905 0
M  V30 9095 N 875.698 5.43583 -0.0435728 0
M  V30 9096 H 879.5 2.90098 -0.471183 0
M  V30 9097 H 877.014 1.58378 -0.359183 0
M  V30 9098 H 879.011 3.73752 1.84702 0
M  V30 9099 H 877.671 2.56911 1.98562 0
M  V30 9100 H 878.682 5.13461 -0.676591 0
M  V30 9101 H 875.359 3.86784 1.57177 0
M  V30 9102 H 876.749 6.56285 -1.44015 0
M  V30 9103 N 879.47 0.276058 1.55163 0
M  V30 9104 C 880.698 -0.343772 2.04024 0
M  V30 9105 C 881.113 -1.49397 1.15438 0
M  V30 9106 O 880.47 -1.81662 0.174692 0
M  V30 9107 C 880.521 -0.823885 3.51986 0
M  V30 9108 O 880.242 0.280507 4.37201 0
M  V30 9109 C 881.743 -1.51143 4.16738 0
M  V30 9110 H 878.963 -0.07828 0.666418 0
M  V30 9111 H 881.507 0.408427 2.0038 0
M  V30 9112 H 879.662 -1.52617 3.56071 0
M  V30 9113 H 880.076 -0.0887831 5.24425 0
M  V30 9114 H 881.55 -1.79878 5.2187 0
M  V30 9115 H 882.027 -2.44327 3.64967 0
M  V30 9116 H 882.633 -0.852975 4.16659 0
M  V30 9117 N 880.948 -1.576 0.00335426 0
M  V30 9118 C 882.176 -1.94996 -0.691685 0
M  V30 9119 C 882.591 -0.878405 -1.67121 0
M  V30 9120 O 881.948 0.142343 -1.81944 0
M  V30 9121 C 881.999 -3.32416 -1.42063 0
M  V30 9122 O 881.72 -4.35458 -0.48038 0
M  V30 9123 C 883.221 -3.84291 -2.20987 0
M  V30 9124 H 880.441 -0.642814 -0.192434 0
M  V30 9125 H 882.985 -2.04425 0.0554706 0
M  V30 9126 H 881.14 -3.24285 -2.11939 0
M  V30 9127 H 881.554 -5.14975 -0.995054 0
M  V30 9128 H 883.028 -4.82863 -2.67483 0
M  V30 9129 H 883.505 -3.17174 -3.03805 0
M  V30 9130 H 884.111 -3.95609 -1.56121 0
M  V30 9131 N 882.426 0.269451 -1.5528 0
M  V30 9132 C 883.651 1.02299 -1.80415 0
M  V30 9133 C 884.076 1.7902 -0.577363 0
M  V30 9134 O 883.434 1.75018 0.473125 0
M  V30 9135 C 883.482 1.95445 -3.0304 0
M  V30 9136 O 882.586 3.04271 -2.78375 0
M  V30 9137 H 881.927 0.292289 -0.596207 0
M  V30 9138 H 884.457 0.297282 -2.02429 0
M  V30 9139 H 884.467 2.37333 -3.31869 0
M  V30 9140 H 883.142 1.39017 -3.91978 0
M  V30 9141 H 881.719 2.66673 -2.60653 0
M  V30 9142 N 883.904 1.48273 0.534124 0
M  V30 9143 C 884.852 1.62926 1.66005 0
M  V30 9144 C 885.846 0.495814 1.61982 0
M  V30 9145 O 887.052 0.6744 1.66889 0
M  V30 9146 H 883.427 0.513163 0.549698 0
M  V30 9147 H 885.398 2.57498 1.50789 0
M  V30 9148 C 884.147 1.68231 3.04292 0
M  V30 9149 H 883.47 2.54807 3.0808 0
M  V30 9150 H 884.91 1.82528 3.827 0
M  V30 9151 C 883.369 0.420154 3.3427 0
M  V30 9152 O 883.899 -0.468769 3.98955 0
M  V30 9153 N 882.105 0.293115 2.89118 0
M  V30 9154 H 881.652 1.01745 2.36655 0
M  V30 9155 H 881.61 -0.550376 3.09545 0
M  V30 9156 N 885.382 -0.782676 1.36792 0
M  V30 9157 C 886.607 -1.57676 1.34733 0
M  V30 9158 C 887.032 -1.87979 -0.0675253 0
M  V30 9159 O 886.39 -1.48404 -1.04144 0
M  V30 9160 C 886.438 -2.87047 2.18257 0
M  V30 9161 O 885.542 -3.80946 1.57969 0
M  V30 9162 H 884.883 -0.478034 0.460846 0
M  V30 9163 H 887.413 -0.969578 1.80168 0
M  V30 9164 H 887.423 -3.36254 2.31079 0
M  V30 9165 H 886.098 -2.64319 3.21104 0
M  V30 9166 H 884.675 -3.39558 1.54126 0
M  V30 9167 N 886.86 -1.21182 -1.00761 0
M  V30 9168 C 887.823 -0.970339 -2.07646 0
M  V30 9169 C 888.823 0.0576345 -1.60697 0
M  V30 9170 O 890.013 -0.179369 -1.73274 0
M  V30 9171 C 887.145 -0.462703 -3.37745 0
M  V30 9172 H 888.338 -1.91856 -2.30502 0
M  V30 9173 H 885.891 -1.02844 -1.17698 0
M  V30 9174 H 886.626 0.490559 -3.20568 0
M  V30 9175 H 886.411 -1.20416 -3.73152 0
M  V30 9176 H 887.901 -0.313531 -4.16421 0
M  V30 9177 N 888.338 1.20213 -1.01915 0
M  V30 9178 C 889.749 1.7136 -0.741131 0
M  V30 9179 C 890.1 1.81705 0.740107 0
M  V30 9180 O 889.225 1.48139 1.57746 0
M  V30 9181 C 889.82 3.11231 -1.33869 0
M  V30 9182 C 888.379 3.59677 -1.10948 0
M  V30 9183 C 887.526 2.36809 -1.4428 0
M  V30 9184 H 890.477 1.05191 -1.1883 0
M  V30 9185 H 890.498 3.7342 -0.730585 0
M  V30 9186 H 890.01 3.03669 -2.41675 0
M  V30 9187 H 888.111 3.72568 -0.0492052 0
M  V30 9188 H 888.224 4.44351 -1.79134 0
M  V30 9189 H 886.588 2.39674 -0.861881 0
M  V30 9190 H 887.371 2.31886 -2.53148 0
M  V30 9191 N 889.816 0.795718 1.36037 0
M  V30 9192 C 890.746 0.212803 2.32528 0
M  V30 9193 C 891.727 -0.655716 1.56953 0
M  V30 9194 O 892.912 -0.588238 1.85077 0
M  V30 9195 C 890.042 -0.648189 3.41198 0
M  V30 9196 C 888.996 0.120948 4.27829 0
M  V30 9197 C 888.322 -0.861044 5.27722 0
M  V30 9198 C 889.622 1.31375 5.05508 0
M  V30 9199 H 891.316 1.01893 2.81528 0
M  V30 9200 H 888.862 0.491422 1.35355 0
M  V30 9201 H 890.815 -1.06597 4.07695 0
M  V30 9202 H 889.539 -1.48709 2.9078 0
M  V30 9203 H 888.198 0.519777 3.62897 0
M  V30 9204 H 887.846 -1.69515 4.73575 0
M  V30 9205 H 887.546 -0.350808 5.86552 0
M  V30 9206 H 889.07 -1.27726 5.97092 0
M  V30 9207 H 890.484 0.971406 5.6501 0
M  V30 9208 H 888.881 1.75772 5.73781 0
M  V30 9209 H 889.951 2.10593 4.36782 0
M  V30 9210 N 891.294 -1.47756 0.548274 0
M  V30 9211 C 892.224 -2.32702 -0.19284 0
M  V30 9212 C 893.205 -1.43237 -0.917457 0
M  V30 9213 O 894.39 -1.72103 -0.89967 0
M  V30 9214 C 891.52 -3.24831 -1.22891 0
M  V30 9215 C 890.474 -4.23466 -0.621312 0
M  V30 9216 C 889.8 -5.04856 -1.76137 0
M  V30 9217 C 891.1 -5.20616 0.419055 0
M  V30 9218 H 892.794 -2.94914 0.516323 0
M  V30 9219 H 890.34 -1.41818 0.24975 0
M  V30 9220 H 892.293 -3.83094 -1.75547 0
M  V30 9221 H 891.017 -2.60656 -1.9679 0
M  V30 9222 H 889.676 -3.66416 -0.116123 0
M  V30 9223 H 889.324 -4.37091 -2.48918 0
M  V30 9224 H 889.024 -5.71629 -1.36065 0
M  V30 9225 H 890.548 -5.65976 -2.29136 0
M  V30 9226 H 891.962 -5.73296 -0.0211034 0
M  V30 9227 H 890.359 -5.95543 0.738163 0
M  V30 9228 H 891.429 -4.66638 1.31822 0
M  V30 9229 N 892.772 -0.284283 -1.55015 0
M  V30 9230 C 894.049 0.382125 -1.91831 0
M  V30 9231 C 894.429 1.73007 -1.20962 0
M  V30 9232 O 893.777 2.25962 -0.339594 0
M  V30 9233 C 893.987 0.513341 -3.45204 0
M  V30 9234 C 895.335 0.791989 -4.17148 0
M  V30 9235 O 896.359 0.597799 -3.51148 0
M  V30 9236 O 895.218 1.16394 -5.33961 0
M  V30 9237 H 892.312 0.210707 -0.799707 0
M  V30 9238 H 894.858 -0.331111 -1.66438 0
M  V30 9239 H 893.63 -0.434911 -3.88876 0
M  V30 9240 H 893.253 1.27569 -3.76579 0
M  V30 9241 N 894.251 1.57596 -0.0117121 0
M  V30 9242 C 895.214 2.08089 0.960816 0
M  V30 9243 C 896.214 0.992519 1.26514 0
M  V30 9244 O 897.404 1.25475 1.20837 0
M  V30 9245 C 894.536 2.53217 2.28241 0
M  V30 9246 H 895.729 2.9529 0.523829 0
M  V30 9247 H 893.282 1.54508 0.235995 0
M  V30 9248 H 894.017 1.69294 2.76604 0
M  V30 9249 H 893.802 3.32714 2.0747 0
M  V30 9250 H 895.292 2.92568 2.97983 0
M  V30 9251 N 895.729 -0.261212 1.5542 0
M  V30 9252 C 896.692 -1.30645 1.8832 0
M  V30 9253 C 897.692 -1.41782 0.758588 0
M  V30 9254 O 898.882 -1.40729 1.02669 0
M  V30 9255 C 896.014 -2.6862 2.09895 0
M  V30 9256 H 897.207 -1.02698 2.81768 0
M  V30 9257 H 894.76 -0.499838 1.48092 0
M  V30 9258 H 895.495 -3.0173 1.18868 0
M  V30 9259 H 895.28 -2.61921 2.91787 0
M  V30 9260 H 896.77 -3.44121 2.36581 0
M  V30 9261 N 897.207 -1.48554 -0.526253 0
M  V30 9262 C 898.117 -1.66044 -1.65731 0
M  V30 9263 C 899.133 -0.542951 -1.65312 0
M  V30 9264 O 900.309 -0.814495 -1.84195 0
M  V30 9265 C 897.374 -1.69959 -3.02184 0
M  V30 9266 C 896.435 -2.93362 -3.13428 0
M  V30 9267 C 895.668 -2.97081 -4.43372 0
M  V30 9268 O 895.891 -2.09103 -5.3069 0
M  V30 9269 O 894.825 -3.8929 -4.59061 0
M  V30 9270 H 898.651 -2.61811 -1.53912 0
M  V30 9271 H 896.236 -1.31999 -0.699759 0
M  V30 9272 H 898.118 -1.75033 -3.83329 0
M  V30 9273 H 896.793 -0.773658 -3.14319 0
M  V30 9274 H 895.7 -2.93818 -2.31564 0
M  V30 9275 H 897.033 -3.85352 -3.06211 0
M  V30 9276 N 898.685 0.775411 -1.37205 0
M  V30 9277 C 899.913 1.56446 -1.35397 0
M  V30 9278 C 900.328 1.887 0.0615437 0
M  V30 9279 O 899.685 1.51178 1.02233 0
M  V30 9280 C 899.736 2.87697 -2.18889 0
M  V30 9281 O 899.457 2.56828 -3.54924 0
M  V30 9282 C 900.958 3.81944 -2.25019 0
M  V30 9283 H 898.178 0.484792 -0.463916 0
M  V30 9284 H 900.722 0.961346 -1.80495 0
M  V30 9285 H 898.877 3.44442 -1.7731 0
M  V30 9286 H 899.291 3.40851 -3.98649 0
M  V30 9287 H 900.765 4.71055 -2.87769 0
M  V30 9288 H 901.242 4.20811 -1.25757 0
M  V30 9289 H 901.848 3.3113 -2.66895 0
M  V30 9290 N 900.163 1.21714 1.00117 0
M  V30 9291 C 901.411 1.03465 1.73607 0
M  V30 9292 C 901.732 -0.432295 1.90148 0
M  V30 9293 O 901.002 -1.31157 1.45515 0
M  V30 9294 H 899.582 0.379857 0.643209 0
M  V30 9295 H 902.244 1.53088 1.20624 0
M  V30 9296 H 901.34 1.50574 2.73375 0
M  V30 9297 N 901.641 -1.19671 1.02551 0
M  V30 9298 C 902.591 -2.20655 0.574037 0
M  V30 9299 C 903.575 -1.56459 -0.375412 0
M  V30 9300 O 904.767 -1.75901 -0.196929 0
M  V30 9301 C 901.896 -3.43213 -0.0772031 0
M  V30 9302 C 900.982 -4.1456 0.894485 0
M  V30 9303 N 901.373 -4.62147 2.05557 0
M  V30 9304 C 899.671 -4.40196 0.717205 0
M  V30 9305 C 900.372 -5.16899 2.66814 0
M  V30 9306 N 899.348 -5.07496 1.94804 0
M  V30 9307 H 903.15 -2.55124 1.45908 0
M  V30 9308 H 900.664 -1.35707 0.89204 0
M  V30 9309 H 902.661 -4.14797 -0.41824 0
M  V30 9310 H 901.321 -3.10247 -0.957973 0
M  V30 9311 H 902.332 -4.5708 2.43513 0
M  V30 9312 H 899.009 -4.17342 -0.114758 0
M  V30 9313 H 900.399 -5.64032 3.65126 0
M  V30 9314 N 903.119 -0.802921 -1.35613 0
M  V30 9315 C 904.347 -0.39393 -2.03115 0
M  V30 9316 C 904.762 0.993961 -1.60517 0
M  V30 9317 O 904.119 1.63984 -0.800973 0
M  V30 9318 C 904.17 -0.463486 -3.58516 0
M  V30 9319 O 903.891 -1.79666 -3.99565 0
M  V30 9320 C 905.392 -0.0468377 -4.43275 0
M  V30 9321 H 902.612 -0.160519 -0.651517 0
M  V30 9322 H 905.156 -1.08552 -1.73311 0
M  V30 9323 H 903.311 0.179821 -3.86982 0
M  V30 9324 H 903.725 -1.75688 -4.942 0
M  V30 9325 H 905.199 -0.146626 -5.51805 0
M  V30 9326 H 905.676 1.00741 -4.2749 0
M  V30 9327 H 906.282 -0.663158 -4.20098 0
M  V30 9328 N 904.597 1.47463 -0.556102 0
M  V30 9329 C 905.822 2.07371 -0.0344729 0
M  V30 9330 C 906.247 1.40621 1.2493 0
M  V30 9331 O 905.605 0.48082 1.74808 0
M  V30 9332 C 905.653 3.60306 0.145563 0
M  V30 9333 O 904.757 3.94299 1.20839 0
M  V30 9334 H 904.098 0.662052 -0.0508274 0
M  V30 9335 H 906.628 1.89498 -0.771469 0
M  V30 9336 H 906.638 4.06408 0.360112 0
M  V30 9337 H 905.313 4.08288 -0.792089 0
M  V30 9338 H 903.89 3.59944 0.97442 0
M  V30 9339 N 906.075 0.2925 1.54862 0
M  V30 9340 C 907.023 -0.603186 2.24643 0
M  V30 9341 C 908.017 -1.1439 1.24946 0
M  V30 9342 O 909.223 -1.09552 1.42823 0
M  V30 9343 H 905.598 -0.213105 0.721173 0
M  V30 9344 H 907.569 0.00799278 2.98399 0
M  V30 9345 C 906.318 -1.76769 2.99413 0
M  V30 9346 H 905.641 -1.36084 3.75927 0
M  V30 9347 H 907.081 -2.37066 3.51533 0
M  V30 9348 C 905.54 -2.66669 2.05886 0
M  V30 9349 O 906.07 -3.67525 1.62136 0
M  V30 9350 N 904.276 -2.34216 1.7202 0
M  V30 9351 H 903.823 -1.52246 2.07795 0
M  V30 9352 H 903.781 -2.94635 1.09717 0
M  V30 9353 N 907.553 -1.57587 0.0200696 0
M  V30 9354 C 908.799 -1.91708 -0.661503 0
M  V30 9355 C 909.132 -0.895968 -1.72296 0
M  V30 9356 O 908.407 0.082577 -1.94325 0
M  V30 9357 C 908.69 -3.36344 -1.28627 0
M  V30 9358 C 908.543 -4.49186 -0.234982 0
M  V30 9359 C 909.862 -3.80771 -2.20685 0
M  V30 9360 H 906.981 -0.69717 -0.239005 0
M  V30 9361 H 909.623 -1.8985 0.0754764 0
M  V30 9362 H 907.773 -3.38058 -1.91439 0
M  V30 9363 H 909.445 -4.59606 0.395011 0
M  V30 9364 H 907.688 -4.31557 0.440565 0
M  V30 9365 H 908.359 -5.47395 -0.711558 0
M  V30 9366 H 910.835 -3.80735 -1.67868 0
M  V30 9367 H 909.711 -4.82685 -2.61356 0
M  V30 9368 H 909.972 -3.15764 -3.09428 0
M  V30 9369 N 909.032 0.252966 -1.55557 0
M  V30 9370 C 909.964 1.33585 -1.86246 0
M  V30 9371 C 910.977 1.44584 -0.748291 0
M  V30 9372 O 912.166 1.46042 -1.02635 0
M  V30 9373 C 909.266 2.71509 -2.02821 0
M  V30 9374 C 908.439 2.82853 -3.33636 0
M  V30 9375 C 907.498 4.01581 -3.40028 0
M  V30 9376 O 906.524 3.91394 -4.13278 0
M  V30 9377 N 907.726 5.14474 -2.6888 0
M  V30 9378 H 910.491 1.07596 -2.7972 0
M  V30 9379 H 908.052 0.443075 -1.55719 0
M  V30 9380 H 910.044 3.49262 -2.04445 0
M  V30 9381 H 908.614 2.90232 -1.1612 0
M  V30 9382 H 907.834 1.91823 -3.4438 0
M  V30 9383 H 909.122 2.87378 -4.19871 0
M  V30 9384 H 908.52 5.25641 -2.09087 0
M  V30 9385 H 907.077 5.90385 -2.76204 0
M  V30 9386 N 910.51 1.48831 0.518367 0
M  V30 9387 C 911.921 1.50842 1.10016 0
M  V30 9388 C 912.272 0.284744 1.94123 0
M  V30 9389 O 911.397 -0.607088 2.0771 0
M  V30 9390 C 911.992 2.73329 2.00191 0
M  V30 9391 C 910.551 2.78175 2.53566 0
M  V30 9392 C 909.698 2.4452 1.30786 0
M  V30 9393 H 912.649 1.55779 0.303073 0
M  V30 9394 H 912.67 2.52506 2.84642 0
M  V30 9395 H 912.182 3.62374 1.3895 0
M  V30 9396 H 910.283 1.93368 3.18496 0
M  V30 9397 H 910.396 3.79905 2.91906 0
M  V30 9398 H 908.76 1.95924 1.62744 0
M  V30 9399 H 909.543 3.35819 0.712797 0
M  V30 9400 N 911.988 -0.768124 1.37614 0
M  V30 9401 C 912.898 -1.91249 1.35871 0
M  V30 9402 C 913.914 -1.7208 0.257786 0
M  V30 9403 O 915.09 -1.95253 0.493782 0
M  V30 9404 C 912.155 -3.26423 1.16829 0
M  V30 9405 C 911.216 -3.5822 2.36594 0
M  V30 9406 C 910.449 -4.86945 2.1845 0
M  V30 9407 O 910.672 -5.58258 1.17064 0
M  V30 9408 O 909.606 -5.17888 3.06718 0
M  V30 9409 H 913.432 -1.95671 2.32264 0
M  V30 9410 H 911.017 -0.911382 1.18382 0
M  V30 9411 H 912.899 -4.07269 1.08212 0
M  V30 9412 H 911.574 -3.22845 0.235123 0
M  V30 9413 H 910.481 -2.77594 2.50783 0
M  V30 9414 H 911.814 -3.66545 3.2849 0
M  V30 9415 N 913.466 -1.22244 -0.994698 0
M  V30 9416 C 914.743 -0.954459 -1.70732 0
M  V30 9417 C 915.123 0.530945 -2.04314 0
M  V30 9418 O 914.471 1.49851 -1.72502 0
M  V30 9419 C 914.681 -1.85016 -2.95922 0
M  V30 9420 C 916.029 -2.10517 -3.68738 0
M  V30 9421 O 917.053 -1.82449 -3.05926 0
M  V30 9422 O 915.912 -2.58044 -4.81742 0
M  V30 9423 H 913.006 -0.35879 -0.745116 0
M  V30 9424 H 915.552 -1.33221 -1.0512 0
M  V30 9425 H 914.324 -2.85498 -2.67594 0
M  V30 9426 H 913.947 -1.47388 -3.69273 0
M  V30 9427 N 914.944 1.19125 -1.03184 0
M  V30 9428 C 915.907 2.20662 -0.619766 0
M  V30 9429 C 916.907 1.57621 0.318179 0
M  V30 9430 O 918.097 1.73885 0.104783 0
M  V30 9431 C 915.229 3.40774 0.0926696 0
M  V30 9432 H 916.422 2.58633 -1.5182 0
M  V30 9433 H 913.975 1.32855 -0.823364 0
M  V30 9434 H 914.71 3.08324 1.00531 0
M  V30 9435 H 914.495 3.87766 -0.581344 0
M  V30 9436 H 915.985 4.15977 0.367792 0
M  V30 9437 N 916.422 0.810101 1.35185 0
M  V30 9438 C 917.671 0.388589 1.97921 0
M  V30 9439 C 917.984 -1.05079 1.64978 0
M  V30 9440 O 919.19 -1.57559 2.21105 0
M  V30 9441 C 917.646 0.643864 3.54094 0
M  V30 9442 C 917.254 2.09602 3.95943 0
M  V30 9443 C 918.998 0.287883 4.23523 0
M  V30 9444 C 916.905 2.29686 5.44976 0
M  V30 9445 H 915.835 0.141562 0.740592 0
M  V30 9446 H 918.486 0.994653 1.54204 0
M  V30 9447 H 916.868 -0.0321978 3.95987 0
M  V30 9448 H 918.042 2.81018 3.65192 0
M  V30 9449 H 916.357 2.4122 3.39414 0
M  V30 9450 H 918.954 0.415946 5.3308 0
M  V30 9451 H 919.297 -0.766305 4.09186 0
M  V30 9452 H 919.83 0.918004 3.87063 0
M  V30 9453 H 916.569 3.33563 5.64284 0
M  V30 9454 H 916.089 1.62798 5.77284 0
M  V30 9455 H 917.768 2.11411 6.11485 0
M  V30 9456 N 917.9 -1.47166 0.563914 0
M  V30 9457 C 918.81 -2.33885 -0.182977 0
M  V30 9458 C 919.826 -1.48605 -0.905132 0
M  V30 9459 O 921.002 -1.81518 -0.872527 0
M  V30 9460 C 918.067 -3.25433 -1.19558 0
M  V30 9461 C 917.128 -4.26607 -0.480129 0
M  V30 9462 C 916.361 -5.1378 -1.44449 0
M  V30 9463 O 916.584 -5.03531 -2.67979 0
M  V30 9464 O 915.518 -5.94109 -0.965321 0
M  V30 9465 H 919.344 -2.99065 0.528544 0
M  V30 9466 H 916.929 -1.45834 0.324468 0
M  V30 9467 H 918.811 -3.81964 -1.77993 0
M  V30 9468 H 917.486 -2.62873 -1.8889 0
M  V30 9469 H 916.393 -3.73817 0.145583 0
M  V30 9470 H 917.726 -4.919 0.171868 0
M  V30 9471 N 919.378 -0.300708 -1.54705 0
M  V30 9472 C 920.606 0.31127 -2.04545 0
M  V30 9473 C 921.021 1.47542 -1.178 0
M  V30 9474 O 920.378 1.81361 -0.203571 0
M  V30 9475 C 920.429 0.767783 -3.53253 0
M  V30 9476 O 920.15 -0.350027 -4.36699 0
M  V30 9477 C 921.651 1.44494 -4.1909 0
M  V30 9478 H 918.871 0.067668 -0.667579 0
M  V30 9479 H 921.415 -0.440254 -1.99705 0
M  V30 9480 H 919.57 1.46933 -3.58454 0
M  V30 9481 H 919.984 0.00534038 -5.245 0
M  V30 9482 H 921.458 1.71553 -5.24665 0
M  V30 9483 H 921.935 2.3849 -3.68808 0
M  V30 9484 H 922.541 0.786581 -4.17963 0
M  V30 9485 N 920.856 1.57574 -0.0284266 0
M  V30 9486 C 922.272 1.56194 0.327958 0
M  V30 9487 C 922.472 1.03397 1.72949 0
M  V30 9488 O 921.528 0.680392 2.4316 0
M  V30 9489 C 922.841 3.00177 0.177196 0
M  V30 9490 C 924.389 3.12 0.250014 0
M  V30 9491 C 924.864 4.57821 0.128049 0
M  V30 9492 N 926.355 4.6283 0.185054 0
M  V30 9493 C 927.09 5.73286 0.114454 0
M  V30 9494 N 926.586 6.928 -0.00719225 0
M  V30 9495 N 928.379 5.61848 0.16839 0
M  V30 9496 H 920.53 1.90224 -0.944921 0
M  V30 9497 H 922.793 0.874987 -0.364832 0
M  V30 9498 H 922.499 3.42753 -0.788224 0
M  V30 9499 H 922.373 3.65101 0.94768 0
M  V30 9500 H 924.76 2.69337 1.20589 0
M  V30 9501 H 924.841 2.49799 -0.550835 0
M  V30 9502 H 924.485 5.01165 -0.824407 0
M  V30 9503 H 924.415 5.18001 0.947753 0
M  V30 9504 H 926.906 3.76867 0.279247 0
M  V30 9505 H 927.219 7.72781 -0.0543903 0
M  V30 9506 H 925.564 6.94987 -0.0419648 0
M  V30 9507 H 928.755 4.67367 0.261821 0
M  V30 9508 H 928.928 6.47907 0.109908 0
M  V30 9509 N 922.334 -0.244713 1.55689 0
M  V30 9510 C 923.564 -0.988508 1.81417 0
M  V30 9511 C 923.972 -1.79362 0.602143 0
M  V30 9512 O 923.315 -1.78386 -0.438639 0
M  V30 9513 C 923.377 -1.97287 3.0053 0
M  V30 9514 C 923.041 -1.35448 4.36466 0
M  V30 9515 C 924.038 -0.755874 5.14376 0
M  V30 9516 C 921.723 -1.37319 4.83165 0
M  V30 9517 C 923.717 -0.184218 6.37134 0
M  V30 9518 C 921.404 -0.797681 6.05871 0
M  V30 9519 C 922.402 -0.204224 6.82695 0
M  V30 9520 O 922.09 0.362392 8.03083 0
M  V30 9521 H 921.822 -0.296412 0.607549 0
M  V30 9522 H 924.376 -0.272185 2.03589 0
M  V30 9523 H 922.606 -2.72756 2.74119 0
M  V30 9524 H 924.295 -2.58028 3.13331 0
M  V30 9525 H 925.061 -0.733912 4.79415 0
M  V30 9526 H 920.94 -1.8245 4.23359 0
M  V30 9527 H 924.484 0.279624 6.97039 0
M  V30 9528 H 920.381 -0.816978 6.40309 0
M  V30 9529 H 921.149 0.254467 8.18104 0
M  V30 9530 N 923.813 -1.49104 -0.510467 0
M  V30 9531 C 925.059 -1.58346 -1.26705 0
M  V30 9532 C 925.392 -0.265121 -1.92382 0
M  V30 9533 O 924.667 0.730558 -1.80258 0
M  V30 9534 C 924.95 -2.7359 -2.34137 0
M  V30 9535 C 924.803 -4.1519 -1.73024 0
M  V30 9536 C 926.122 -2.84511 -3.3577 0
M  V30 9537 H 923.241 -0.57637 -0.459311 0
M  V30 9538 H 925.883 -1.81353 -0.566658 0
M  V30 9539 H 924.033 -2.54105 -2.93876 0
M  V30 9540 H 925.705 -4.46167 -1.17186 0
M  V30 9541 H 923.948 -4.21279 -1.03473 0
M  V30 9542 H 924.619 -4.91683 -2.50903 0
M  V30 9543 H 927.095 -3.0222 -2.86011 0
M  V30 9544 H 925.971 -3.6684 -4.08313 0
M  V30 9545 H 926.232 -1.93471 -3.97519 0
M  V30 9546 N 925.291 0.760815 -1.38019 0
M  V30 9547 C 926.54 1.51506 -1.3315 0
M  V30 9548 C 926.853 1.95444 0.0782124 0
M  V30 9549 O 928.059 2.70352 0.249418 0
M  V30 9550 C 926.515 2.73636 -2.33776 0
M  V30 9551 C 926.123 2.36753 -3.80332 0
M  V30 9552 C 927.867 3.51548 -2.37937 0
M  V30 9553 C 925.774 3.55451 -4.72661 0
M  V30 9554 H 924.704 0.568844 -0.494907 0
M  V30 9555 H 927.355 0.832343 -1.63537 0
M  V30 9556 H 925.737 3.43852 -1.96422 0
M  V30 9557 H 926.911 1.7425 -4.26584 0
M  V30 9558 H 925.226 1.71991 -3.7922 0
M  V30 9559 H 927.823 4.39791 -3.04119 0
M  V30 9560 H 928.166 3.9219 -1.39617 0
M  V30 9561 H 928.699 2.88339 -2.74054 0
M  V30 9562 H 925.438 3.19882 -5.7215 0
M  V30 9563 H 924.958 4.17022 -4.31107 0
M  V30 9564 H 926.637 4.22125 -4.90326 0
M  V30 9565 N 926.769 1.22769 0.988202 0
M  V30 9566 C 927.997 1.08155 1.76381 0
M  V30 9567 C 928.412 -0.367573 1.85187 0
M  V30 9568 O 927.769 -1.25455 1.32541 0
M  V30 9569 C 927.82 1.69193 3.19462 0
M  V30 9570 O 927.541 3.08437 3.11125 0
M  V30 9571 C 929.042 1.59915 4.13451 0
M  V30 9572 H 926.262 0.378908 0.553778 0
M  V30 9573 H 928.806 1.6246 1.24206 0
M  V30 9574 H 926.961 1.18939 3.6869 0
M  V30 9575 H 927.375 3.37916 4.0114 0
M  V30 9576 H 928.849 2.07339 5.1158 0
M  V30 9577 H 929.326 0.556546 4.3566 0
M  V30 9578 H 929.932 2.09497 3.70123 0
M  V30 9579 N 928.247 -1.18576 1.03814 0
M  V30 9580 C 929.472 -1.92978 0.759873 0
M  V30 9581 C 929.897 -1.75514 -0.676486 0
M  V30 9582 O 929.255 -1.06359 -1.46824 0
M  V30 9583 C 929.303 -3.42507 1.12788 0
M  V30 9584 O 928.407 -4.1163 0.251886 0
M  V30 9585 H 927.748 -0.602129 0.279886 0
M  V30 9586 H 930.278 -1.50383 1.3873 0
M  V30 9587 H 930.288 -3.93206 1.08872 0
M  V30 9588 H 928.963 -3.5454 2.17427 0
M  V30 9589 H 927.54 -3.7125 0.350441 0
M  V30 9590 N 929.725 -0.817259 -1.34754 0
M  V30 9591 C 930.657 -0.192695 -2.28389 0
M  V30 9592 C 931.67 0.614167 -1.50771 0
M  V30 9593 O 932.859 0.444776 -1.7287 0
M  V30 9594 C 929.959 0.748929 -3.30521 0
M  V30 9595 C 929.132 -0.0138762 -4.37398 0
M  V30 9596 C 928.191 0.847825 -5.19325 0
M  V30 9597 O 927.217 0.29487 -5.68436 0
M  V30 9598 N 928.419 2.16843 -5.38479 0
M  V30 9599 H 931.184 -0.997122 -2.82626 0
M  V30 9600 H 928.745 -0.673696 -1.47217 0
M  V30 9601 H 930.737 1.32987 -3.82226 0
M  V30 9602 H 929.307 1.45412 -2.7672 0
M  V30 9603 H 928.527 -0.776093 -3.86485 0
M  V30 9604 H 929.815 -0.539191 -5.05935 0
M  V30 9605 H 929.213 2.64148 -5.00242 0
M  V30 9606 H 927.77 2.69835 -5.93323 0
M  V30 9607 N 931.203 1.46865 -0.571711 0
M  V30 9608 C 932.431 2.06818 -0.0583975 0
M  V30 9609 C 932.846 1.42218 1.24175 0
M  V30 9610 O 932.203 0.523655 1.74826 0
M  V30 9611 C 932.254 3.61281 0.125673 0
M  V30 9612 O 931.975 4.23462 -1.123 0
M  V30 9613 C 933.476 4.38137 0.674604 0
M  V30 9614 H 930.696 0.668948 -0.052438 0
M  V30 9615 H 933.24 1.88656 -0.789251 0
M  V30 9616 H 931.395 3.78908 0.806707 0
M  V30 9617 H 931.809 5.16192 -0.929869 0
M  V30 9618 H 933.283 5.46845 0.752626 0
M  V30 9619 H 933.76 4.05419 1.68915 0
M  V30 9620 H 934.366 4.2529 0.0287979 0
M  V30 9621 N 932.681 0.308908 1.54543 0
M  V30 9622 C 934.097 -0.0442273 1.59539 0
M  V30 9623 C 934.297 -1.51743 1.32575 0
M  V30 9624 O 933.353 -2.27134 1.10302 0
M  V30 9625 C 934.666 0.360826 2.98527 0
M  V30 9626 C 936.214 0.310252 3.11459 0
M  V30 9627 C 936.689 0.690246 4.52769 0
M  V30 9628 N 938.18 0.643084 4.58714 0
M  V30 9629 C 938.915 0.909483 5.66141 0
M  V30 9630 N 938.411 1.24226 6.81572 0
M  V30 9631 N 940.204 0.836018 5.55848 0
M  V30 9632 H 932.355 1.26893 1.70329 0
M  V30 9633 H 934.618 0.514986 0.795923 0
M  V30 9634 H 934.324 1.38669 3.23209 0
M  V30 9635 H 934.198 -0.281563 3.76148 0
M  V30 9636 H 936.585 -0.706375 2.86521 0
M  V30 9637 H 936.666 0.987373 2.35976 0
M  V30 9638 H 936.31 1.70472 4.78437 0
M  V30 9639 H 936.24 -0.00903075 5.26599 0
M  V30 9640 H 938.731 0.397138 3.75807 0
M  V30 9641 H 939.044 1.4313 7.5943 0
M  V30 9642 H 937.389 1.28038 6.83104 0
M  V30 9643 H 940.58 0.575637 4.64547 0
M  V30 9644 H 940.753 1.047 6.39486 0
M  V30 9645 N 934.159 -1.57557 0.0367827 0
M  V30 9646 C 935.436 -1.83427 -0.679261 0
M  V30 9647 C 935.816 -0.922274 -1.89888 0
M  V30 9648 O 935.164 0.02025 -2.28491 0
M  V30 9649 C 935.374 -3.32823 -1.05022 0
M  V30 9650 C 936.722 -3.99486 -1.43861 0
M  V30 9651 O 937.746 -3.37364 -1.14297 0
M  V30 9652 O 936.605 -5.0899 -1.98977 0
M  V30 9653 H 933.699 -0.756581 -0.333936 0
M  V30 9654 H 936.245 -1.69575 0.0650494 0
M  V30 9655 H 935.017 -3.90874 -0.182509 0
M  V30 9656 H 934.64 -3.5181 -1.85244 0
M  V30 9657 N 935.637 0.236453 -1.55816 0
M  V30 9658 C 936.547 1.31418 -1.94336 0
M  V30 9659 C 937.563 1.52095 -0.845164 0
M  V30 9660 O 938.739 1.65515 -1.14746 0
M  V30 9661 C 935.804 2.6468 -2.23932 0
M  V30 9662 C 934.865 2.52435 -3.47239 0
M  V30 9663 C 934.098 3.79342 -3.75414 0
M  V30 9664 O 934.321 4.81694 -3.05495 0
M  V30 9665 O 933.255 3.77347 -4.68927 0
M  V30 9666 H 937.081 1.01739 -2.86152 0
M  V30 9667 H 934.666 0.438084 -1.42833 0
M  V30 9668 H 936.548 3.4341 -2.44228 0
M  V30 9669 H 935.223 2.94071 -1.35292 0
M  V30 9670 H 934.13 1.71955 -3.32238 0
M  V30 9671 H 935.463 2.27987 -4.36214 0
M  V30 9672 N 937.115 1.49373 0.502552 0
M  V30 9673 C 938.048 1.60529 1.6219 0
M  V30 9674 C 939.026 0.454431 1.56121 0
M  V30 9675 O 940.21 0.669768 1.762 0
M  V30 9676 C 937.337 1.55879 3.00698 0
M  V30 9677 C 936.383 2.76143 3.25034 0
M  V30 9678 S 937.216 4.37831 3.08325 0
M  V30 9679 C 938.372 4.35824 4.49231 0
M  V30 9680 H 938.605 2.55219 1.52482 0
M  V30 9681 H 936.138 1.38244 0.687594 0
M  V30 9682 H 938.096 1.53882 3.80566 0
M  V30 9683 H 936.757 0.624791 3.07823 0
M  V30 9684 H 935.95 2.69104 4.26144 0
M  V30 9685 H 935.552 2.75544 2.52886 0
M  V30 9686 H 937.844 4.07447 5.41288 0
M  V30 9687 H 938.787 5.37206 4.6132 0
M  V30 9688 H 939.195 3.65923 4.29838 0
M  V30 9689 N 938.594 -0.753485 1.38421 0
M  V30 9690 C 939.819 -1.54783 1.38047 0
M  V30 9691 C 940.244 -1.8808 -0.0276371 0
M  V30 9692 O 939.602 -1.5058 -1.00973 0
M  V30 9693 C 939.65 -2.82353 2.24297 0
M  V30 9694 O 938.754 -3.77509 1.66014 0
M  V30 9695 H 938.095 -0.468151 0.470883 0
M  V30 9696 H 940.625 -0.931144 1.82184 0
M  V30 9697 H 940.635 -3.31277 2.38159 0
M  V30 9698 H 939.31 -2.57449 3.26639 0
M  V30 9699 H 937.887 -3.36212 1.61294 0
M  V30 9700 N 940.072 -1.23292 -0.981677 0
M  V30 9701 C 941.321 -1.05832 -1.71705 0
M  V30 9702 C 941.634 0.40514 -1.91358 0
M  V30 9703 O 942.84 0.699645 -2.6233 0
M  V30 9704 C 941.296 -1.84532 -3.08992 0
M  V30 9705 C 940.904 -3.35199 -2.9723 0
M  V30 9706 C 942.648 -1.75557 -3.86497 0
M  V30 9707 C 940.555 -4.06296 -4.29741 0
M  V30 9708 H 939.485 -0.39241 -0.64384 0
M  V30 9709 H 942.136 -1.47247 -1.09502 0
M  V30 9710 H 940.518 -1.35923 -3.71942 0
M  V30 9711 H 941.692 -3.91286 -2.43377 0
M  V30 9712 H 940.007 -3.44973 -2.332 0
M  V30 9713 H 942.604 -2.25989 -4.84596 0
M  V30 9714 H 942.947 -0.718101 -4.1006 0
M  V30 9715 H 943.48 -2.21771 -3.30246 0
M  V30 9716 H 940.219 -5.10344 -4.11375 0
M  V30 9717 H 939.739 -3.54997 -4.83464 0
M  V30 9718 H 941.418 -4.12519 -4.98434 0
M  V30 9719 N 941.55 1.18024 -1.04442 0
M  V30 9720 C 942.46 2.25436 -0.649276 0
M  V30 9721 C 943.476 1.70915 0.326189 0
M  V30 9722 O 944.652 2.00592 0.180174 0
M  V30 9723 C 941.717 3.46693 -0.0222558 0
M  V30 9724 C 940.778 4.16332 -1.0472 0
M  V30 9725 C 940.011 5.31799 -0.450011 0
M  V30 9726 O 940.234 5.65544 0.742717 0
M  V30 9727 O 939.168 5.90209 -1.18056 0
M  V30 9728 H 942.994 2.61508 -1.54426 0
M  V30 9729 H 940.579 1.25178 -0.81552 0
M  V30 9730 H 942.461 4.20132 0.326597 0
M  V30 9731 H 941.136 3.12436 0.84649 0
M  V30 9732 H 940.043 3.44944 -1.44792 0
M  V30 9733 H 941.376 4.54598 -1.88684 0
M  V30 9734 N 943.028 0.824394 1.34319 0
M  V30 9735 C 944.253 0.425194 2.02995 0
M  V30 9736 C 944.678 -0.961476 1.6167 0
M  V30 9737 O 944.036 -1.62593 0.80207 0
M  V30 9738 C 944.084 0.537004 3.56579 0
M  V30 9739 O 943.188 -0.442576 4.10018 0
M  V30 9740 H 942.529 0.174853 0.640564 0
M  V30 9741 H 945.059 1.11522 1.71534 0
M  V30 9742 H 945.069 0.413311 4.05901 0
M  V30 9743 H 943.744 1.54836 3.86004 0
M  V30 9744 H 942.321 -0.277644 3.71865 0
M  V30 9745 N 944.506 -1.46559 0.579492 0
M  V30 9746 C 945.753 -2.02399 0.0638418 0
M  V30 9747 C 946.081 -1.45135 -1.29484 0
M  V30 9748 O 945.336 -0.605061 -1.86112 0
M  V30 9749 C 945.635 -3.57357 -0.0552803 0
M  V30 9750 C 945.301 -4.33646 1.23539 0
M  V30 9751 C 943.963 -4.54207 1.589 0
M  V30 9752 C 946.315 -4.77476 2.08965 0
M  V30 9753 C 943.643 -5.1585 2.79492 0
M  V30 9754 C 945.995 -5.4045 3.2878 0
M  V30 9755 C 944.659 -5.5924 3.64427 0
M  V30 9756 H 943.929 -0.740632 0.0233614 0
M  V30 9757 H 946.576 -1.75968 0.755482 0
M  V30 9758 H 944.881 -3.82907 -0.83003 0
M  V30 9759 H 946.578 -3.98237 -0.469964 0
M  V30 9760 H 943.168 -4.17937 0.9501 0
M  V30 9761 H 947.352 -4.61349 1.8295 0
M  V30 9762 H 942.608 -5.28589 3.07252 0
M  V30 9763 H 946.782 -5.73371 3.95245 0
M  V30 9764 H 944.409 -6.06775 4.57961 0
M  V30 9765 N 945.984 -0.3171 -1.54377 0
M  V30 9766 C 946.914 0.544623 -2.2706 0
M  V30 9767 C 947.895 1.12469 -1.27611 0
M  V30 9768 O 949.08 1.15103 -1.56413 0
M  V30 9769 C 946.21 1.70879 -3.02353 0
M  V30 9770 C 945.164 1.25833 -4.09084 0
M  V30 9771 C 944.49 2.50894 -4.72182 0
M  V30 9772 C 945.79 0.377876 -5.20931 0
M  V30 9773 H 947.484 -0.0616372 -2.99337 0
M  V30 9774 H 945.03 -0.0310848 -1.43966 0
M  V30 9775 H 946.983 2.31787 -3.51927 0
M  V30 9776 H 945.707 2.34155 -2.27682 0
M  V30 9777 H 944.366 0.672228 -3.60384 0
M  V30 9778 H 944.014 3.12518 -3.94134 0
M  V30 9779 H 943.714 2.21447 -5.44275 0
M  V30 9780 H 945.238 3.12575 -5.24528 0
M  V30 9781 H 946.652 0.893056 -5.66302 0
M  V30 9782 H 945.049 0.176474 -5.9984 0
M  V30 9783 H 946.119 -0.592943 -4.81261 0
M  V30 9784 N 947.462 1.57535 -0.0451378 0
M  V30 9785 C 948.71 1.92071 0.628743 0
M  V30 9786 C 949.031 0.923635 1.71738 0
M  V30 9787 O 948.301 -0.0324376 1.95873 0
M  V30 9788 H 946.881 0.708995 0.235233 0
M  V30 9789 H 949.543 1.9466 -0.0967177 0
M  V30 9790 H 948.639 2.9314 1.07123 0
M  V30 9791 N 948.94 -0.228186 1.55939 0
M  V30 9792 C 950.356 -0.577583 1.48782 0
M  V30 9793 C 950.556 -1.87461 0.738972 0
M  V30 9794 O 949.612 -2.50988 0.275929 0
M  V30 9795 C 950.925 -0.662961 2.93301 0
M  V30 9796 C 952.473 -0.754035 3.03782 0
M  V30 9797 C 952.948 -0.870815 4.49645 0
M  V30 9798 N 954.439 -0.935208 4.53661 0
M  V30 9799 C 955.174 -1.04516 5.63794 0
M  V30 9800 N 954.67 -1.11948 6.83696 0
M  V30 9801 N 956.463 -1.07978 5.51631 0
M  V30 9802 H 948.614 0.623018 2.03057 0
M  V30 9803 H 950.877 0.217692 0.922667 0
M  V30 9804 H 950.583 0.220375 3.51009 0
M  V30 9805 H 950.457 -1.52876 3.44831 0
M  V30 9806 H 952.844 -1.62782 2.46143 0
M  V30 9807 H 952.925 0.137301 2.55431 0
M  V30 9808 H 952.569 -0.0015186 5.079 0
M  V30 9809 H 952.499 -1.77747 4.95695 0
M  V30 9810 H 954.99 -0.88836 3.6731 0
M  V30 9811 H 955.303 -1.20297 7.6338 0
M  V30 9812 H 953.648 -1.08873 6.8642 0
M  V30 9813 H 956.839 -1.01833 4.56889 0
M  V30 9814 H 957.012 -1.16202 6.37496 0
M  V30 9815 N 950.418 -1.49637 -0.494624 0
M  V30 9816 C 951.643 -1.63431 -1.27691 0
M  V30 9817 C 952.068 -0.30813 -1.85559 0
M  V30 9818 O 951.426 0.725083 -1.66169 0
M  V30 9819 C 951.474 -2.71043 -2.3784 0
M  V30 9820 O 950.578 -2.3066 -3.41862 0
M  V30 9821 H 949.919 -0.546804 -0.376698 0
M  V30 9822 H 952.449 -1.95866 -0.591413 0
M  V30 9823 H 952.459 -2.93406 -2.83508 0
M  V30 9824 H 951.134 -3.67306 -1.95088 0
M  V30 9825 H 949.711 -2.18652 -3.02069 0
M  V30 9826 N 951.896 0.746133 -1.38819 0
M  V30 9827 C 953.144 1.50247 -1.35167 0
M  V30 9828 C 953.465 1.94921 0.0553531 0
M  V30 9829 O 952.735 1.68187 1.00449 0
M  V30 9830 H 951.315 0.557337 -0.497377 0
M  V30 9831 H 953.977 0.886472 -1.73573 0
M  V30 9832 H 953.073 2.38986 -2.00728 0
M  V30 9833 N 953.375 1.23811 0.975125 0
M  V30 9834 C 954.615 1.08517 1.73215 0
M  V30 9835 C 954.979 -0.370777 1.88386 0
M  V30 9836 O 956.18 -0.645036 2.60946 0
M  V30 9837 C 954.451 1.79649 3.08968 0
M  V30 9838 S 956.01 1.79993 4.00185 0
M  V30 9839 H 952.828 0.388256 0.595633 0
M  V30 9840 H 955.43 1.57028 1.16458 0
M  V30 9841 H 954.134 2.8471 2.95581 0
M  V30 9842 H 953.665 1.31441 3.70792 0
M  V30 9843 H 955.68 0.862294 4.8865 0
M  V30 9844 N 954.853 -1.17469 1.05066 0
M  V30 9845 C 956.099 -1.87976 0.761113 0
M  V30 9846 C 956.432 -1.80756 -0.709995 0
M  V30 9847 O 955.707 -1.21469 -1.51906 0
M  V30 9848 C 955.99 -3.38055 1.2406 0
M  V30 9849 C 955.843 -3.54032 2.77455 0
M  V30 9850 C 957.162 -4.32036 0.838612 0
M  V30 9851 H 954.281 -0.682573 0.277963 0
M  V30 9852 H 956.923 -1.38147 1.30443 0
M  V30 9853 H 955.073 -3.80622 0.778388 0
M  V30 9854 H 956.745 -3.20489 3.3179 0
M  V30 9855 H 954.988 -2.96352 3.16793 0
M  V30 9856 H 955.659 -4.59377 3.06066 0
M  V30 9857 H 958.135 -3.97303 1.23651 0
M  V30 9858 H 957.011 -5.35583 1.20173 0
M  V30 9859 H 957.272 -4.41349 -0.257498 0
M  V30 9860 N 956.331 -0.831506 -1.3388 0
M  V30 9861 C 957.281 -0.231656 -2.2682 0
M  V30 9862 C 958.265 0.609075 -1.48926 0
M  V30 9863 O 959.457 0.462249 -1.70857 0
M  V30 9864 C 956.586 0.59846 -3.38043 0
M  V30 9865 C 955.672 -0.253372 -4.23342 0
M  V30 9866 N 956.063 -1.32854 -4.8804 0
M  V30 9867 C 954.361 -0.0391537 -4.45983 0
M  V30 9868 C 955.062 -1.85069 -5.51475 0
M  V30 9869 N 954.038 -1.15327 -5.31226 0
M  V30 9870 H 957.84 -1.05396 -2.74352 0
M  V30 9871 H 955.354 -0.675195 -1.47699 0
M  V30 9872 H 957.351 1.04443 -4.03605 0
M  V30 9873 H 956.011 1.41882 -2.92061 0
M  V30 9874 H 957.022 -1.71139 -4.88806 0
M  V30 9875 H 953.699 0.748356 -4.10738 0
M  V30 9876 H 955.089 -2.75065 -6.13016 0
M  V30 9877 N 957.809 1.4625 -0.587256 0
M  V30 9878 C 959.058 2.01571 -0.0722643 0
M  V30 9879 C 959.371 1.46385 1.29733 0
M  V30 9880 O 960.577 1.93554 1.90392 0
M  V30 9881 C 959.033 3.59814 -0.078579 0
M  V30 9882 C 958.641 4.23996 -1.44678 0
M  V30 9883 C 960.385 4.22776 0.382231 0
M  V30 9884 C 958.292 5.74332 -1.41057 0
M  V30 9885 H 957.222 0.753642 -0.0232461 0
M  V30 9886 H 959.873 1.67936 -0.739577 0
M  V30 9887 H 958.255 3.90546 0.654988 0
M  V30 9888 H 959.429 4.04867 -2.20043 0
M  V30 9889 H 957.744 3.73147 -1.84799 0
M  V30 9890 H 960.341 5.32983 0.428182 0
M  V30 9891 H 960.684 3.92027 1.40072 0
M  V30 9892 H 961.217 3.96687 -0.297417 0
M  V30 9893 H 957.956 6.09747 -2.40601 0
M  V30 9894 H 957.476 5.95711 -0.699185 0
M  V30 9895 H 959.155 6.37137 -1.12543 0
M  V30 9896 N 959.287 0.325282 1.54207 0
M  V30 9897 C 960.512 -0.281418 2.05482 0
M  V30 9898 C 960.937 -1.44869 1.19977 0
M  V30 9899 O 960.295 -1.80088 0.209275 0
M  V30 9900 C 960.343 -0.692029 3.53897 0
M  V30 9901 O 959.447 -1.7942 3.71325 0
M  V30 9902 H 958.788 -0.0504872 0.662078 0
M  V30 9903 H 961.318 0.474191 1.99029 0
M  V30 9904 H 961.328 -0.974219 3.96198 0
M  V30 9905 H 960.003 0.161709 4.15586 0
M  V30 9906 H 958.58 -1.51069 3.40929 0
M  V30 9907 N 960.765 -1.57509 0.0534917 0
M  V30 9908 C 962.181 -1.56696 -0.303067 0
M  V30 9909 C 962.381 -1.06135 -1.71282 0
M  V30 9910 O 961.437 -0.71899 -2.42047 0
M  V30 9911 C 962.75 -3.00421 -0.129418 0
M  V30 9912 C 964.298 -3.12358 -0.200346 0
M  V30 9913 C 964.773 -4.57967 -0.0551971 0
M  V30 9914 N 966.264 -4.63066 -0.111398 0
M  V30 9915 C 966.999 -5.73395 -0.0232344 0
M  V30 9916 N 966.495 -6.92701 0.11741 0
M  V30 9917 N 968.288 -5.62045 -0.078984 0
M  V30 9918 H 960.439 -1.88696 0.975064 0
M  V30 9919 H 962.702 -0.869072 0.378706 0
M  V30 9920 H 962.408 -3.41456 0.842653 0
M  V30 9921 H 962.282 -3.66563 -0.889476 0
M  V30 9922 H 964.669 -2.71221 -1.16289 0
M  V30 9923 H 964.75 -2.48891 0.590506 0
M  V30 9924 H 964.394 -4.9979 0.904034 0
M  V30 9925 H 964.324 -5.19443 -0.865223 0
M  V30 9926 H 966.815 -3.77263 -0.219256 0
M  V30 9927 H 967.128 -7.72597 0.177326 0
M  V30 9928 H 965.473 -6.94833 0.152526 0
M  V30 9929 H 968.664 -4.67725 -0.187434 0
M  V30 9930 H 968.837 -6.48 -0.00681731 0
M  V30 9931 N 962.243 0.219913 -1.56058 0
M  V30 9932 C 963.492 0.942119 -1.78345 0
M  V30 9933 C 963.805 1.85435 -0.622344 0
M  V30 9934 O 965.011 2.61533 -0.728886 0
M  V30 9935 C 963.467 1.72544 -3.15843 0
M  V30 9936 C 963.075 0.859263 -4.39682 0
M  V30 9937 C 964.819 2.43876 -3.47455 0
M  V30 9938 C 962.726 1.64003 -5.68205 0
M  V30 9939 H 961.656 0.355514 -0.664925 0
M  V30 9940 H 964.307 0.195963 -1.82451 0
M  V30 9941 H 962.689 2.51456 -3.05918 0
M  V30 9942 H 963.863 0.110562 -4.60667 0
M  V30 9943 H 962.178 0.257985 -4.156 0
M  V30 9944 H 964.775 3.02794 -4.40704 0
M  V30 9945 H 965.118 3.16843 -2.7003 0
M  V30 9946 H 965.651 1.71952 -3.58716 0
M  V30 9947 H 962.39 0.953606 -6.48526 0
M  V30 9948 H 961.91 2.3633 -5.51279 0
M  V30 9949 H 963.589 2.20028 -6.08438 0
M  V30 9950 N 963.721 1.49897 0.486681 0
M  V30 9951 C 964.668 1.67619 1.58658 0
M  V30 9952 C 965.638 0.517537 1.57831 0
M  V30 9953 O 966.823 0.746272 1.756 0
M  V30 9954 C 963.963 1.762 2.96728 0
M  V30 9955 C 963.076 3.03465 3.07462 0
M  V30 9956 C 962.211 3.02937 4.36351 0
M  V30 9957 C 961.25 4.24721 4.4077 0
M  V30 9958 N 960.387 4.22021 5.61108 0
M  V30 9959 H 965.227 2.61528 1.42853 0
M  V30 9960 H 962.764 1.29657 0.694807 0
M  V30 9961 H 964.722 1.79156 3.76774 0
M  V30 9962 H 963.352 0.857452 3.11203 0
M  V30 9963 H 962.404 3.10054 2.20387 0
M  V30 9964 H 963.716 3.93454 3.06586 0
M  V30 9965 H 962.87 3.04536 5.24731 0
M  V30 9966 H 961.609 2.10751 4.39813 0
M  V30 9967 H 960.614 4.23352 3.5079 0
M  V30 9968 H 961.839 5.18116 4.39013 0
M  V30 9969 H 959.785 3.3268 5.65385 0
M  V30 9970 H 959.702 5.05761 5.61909 0
M  V30 9971 H 960.97 4.27743 6.51656 0
M  V30 9972 N 965.199 -0.738761 1.39212 0
M  V30 9973 C 966.445 -1.50046 1.36433 0
M  V30 9974 C 966.778 -1.94157 -0.0409474 0
M  V30 9975 O 966.053 -1.66515 -1.00514 0
M  V30 9976 C 966.336 -2.74277 2.33333 0
M  V30 9977 C 966.189 -2.36209 3.82786 0
M  V30 9978 C 967.508 -3.76361 2.28123 0
M  V30 9979 H 964.627 -0.544294 0.496903 0
M  V30 9980 H 967.269 -0.845005 1.70175 0
M  V30 9981 H 965.419 -3.30204 2.04689 0
M  V30 9982 H 967.091 -1.85942 4.22165 0
M  V30 9983 H 965.334 -1.68483 3.99745 0
M  V30 9984 H 966.005 -3.25156 4.46069 0
M  V30 9985 H 968.481 -3.30009 2.53443 0
M  V30 9986 H 967.357 -4.60957 2.9801 0
M  V30 9987 H 967.618 -4.23013 1.28499 0
M  V30 9988 N 966.677 -1.24326 -0.968545 0
M  V30 9989 C 967.954 -0.990459 -1.68669 0
M  V30 9990 C 968.334 0.487487 -2.05394 0
M  V30 9991 O 967.682 1.46158 -1.75642 0
M  V30 9992 C 967.892 -1.91251 -2.91931 0
M  V30 9993 C 969.24 -2.18291 -3.6419 0
M  V30 9994 O 970.264 -1.88897 -3.01987 0
M  V30 9995 O 969.123 -2.68204 -4.76161 0
M  V30 9996 H 966.217 -0.374515 -0.737338 0
M  V30 9997 H 968.763 -1.35421 -1.02271 0
M  V30 9998 H 967.535 -2.9111 -2.61478 0
M  V30 9999 H 967.158 -1.55188 -3.66064 0
M  V30 10000 N 968.156 1.1691 -1.05688 0
M  V30 10001 C 969.386 1.90927 -0.789339 0
M  V30 10002 C 969.794 1.77339 0.659369 0
M  V30 10003 O 969.137 1.11147 1.4626 0
M  V30 10004 C 969.199 3.42361 -1.09677 0
M  V30 10005 C 968.863 3.79733 -2.54267 0
M  V30 10006 C 969.86 3.82163 -3.52487 0
M  V30 10007 C 967.545 4.10547 -2.89406 0
M  V30 10008 C 969.539 4.14884 -4.8389 0
M  V30 10009 C 967.226 4.42936 -4.21011 0
M  V30 10010 C 968.224 4.45084 -5.18063 0
M  V30 10011 O 967.912 4.76707 -6.47307 0
M  V30 10012 H 967.644 0.612466 -0.286115 0
M  V30 10013 H 970.198 1.4916 -1.4121 0
M  V30 10014 H 968.428 3.84446 -0.416924 0
M  V30 10015 H 970.117 3.97645 -0.814456 0
M  V30 10016 H 970.883 3.58476 -3.26681 0
M  V30 10017 H 966.762 4.08044 -2.14525 0
M  V30 10018 H 970.306 4.16475 -5.59638 0
M  V30 10019 H 966.203 4.66088 -4.46579 0
M  V30 10020 H 966.971 4.94544 -6.52203 0
M  V30 10021 N 969.634 0.838594 1.33437 0
M  V30 10022 C 970.862 0.447644 2.01999 0
M  V30 10023 C 971.277 -0.951053 1.63096 0
M  V30 10024 O 970.634 -1.61802 0.844169 0
M  V30 10025 C 970.685 0.558378 3.57162 0
M  V30 10026 O 970.406 1.90196 3.94661 0
M  V30 10027 C 971.907 0.164348 4.42995 0
M  V30 10028 H 969.127 0.177736 0.647032 0
M  V30 10029 H 971.671 1.13109 1.70372 0
M  V30 10030 H 969.826 -0.0771563 3.87323 0
M  V30 10031 H 970.24 1.88729 4.89369 0
M  V30 10032 H 971.714 0.292876 5.51222 0
M  V30 10033 H 972.191 -0.893713 4.30011 0
M  V30 10034 H 972.797 0.774306 4.18192 0
M  V30 10035 N 971.112 -1.45937 0.595003 0
M  V30 10036 C 972.389 -1.95592 0.0178748 0
M  V30 10037 C 972.769 -1.53758 -1.44643 0
M  V30 10038 O 972.117 -0.794104 -2.14257 0
M  V30 10039 C 972.327 -3.4841 0.202789 0
M  V30 10040 C 973.675 -4.2453 0.0770121 0
M  V30 10041 O 974.699 -3.55954 0.132257 0
M  V30 10042 O 973.558 -5.46479 -0.0484271 0
M  V30 10043 H 970.652 -0.825888 -0.0428702 0
M  V30 10044 H 973.198 -1.56162 0.664184 0
M  V30 10045 H 971.97 -3.71787 1.22027 0
M  V30 10046 H 971.593 -3.947 -0.479376 0
M  V30 10047 N 972.59 -0.333456 -1.54032 0
M  V30 10048 C 973.82 0.267425 -2.04862 0
M  V30 10049 C 974.228 1.45559 -1.20869 0
M  V30 10050 O 973.571 1.82197 -0.234478 0
M  V30 10051 C 973.633 0.755759 -3.51466 0
M  V30 10052 C 973.297 -0.311409 -4.55938 0
M  V30 10053 C 974.294 -1.15078 -5.07004 0
M  V30 10054 C 971.979 -0.462439 -5.00167 0
M  V30 10055 C 973.973 -2.12682 -6.0087 0
M  V30 10056 C 971.66 -1.44188 -5.93846 0
M  V30 10057 C 972.658 -2.27253 -6.44085 0
M  V30 10058 O 972.346 -3.23532 -7.35923 0
M  V30 10059 H 972.078 0.0572596 -0.673571 0
M  V30 10060 H 974.632 -0.480646 -1.99697 0
M  V30 10061 H 972.862 1.55491 -3.54062 0
M  V30 10062 H 974.551 1.27607 -3.8532 0
M  V30 10063 H 975.317 -1.04513 -4.73605 0
M  V30 10064 H 971.196 0.17424 -4.60671 0
M  V30 10065 H 974.74 -2.77555 -6.40007 0
M  V30 10066 H 970.637 -1.54813 -6.2666 0
M  V30 10067 H 971.405 -3.18886 -7.53826 0
M  V30 10068 N 974.068 1.57479 -0.061844 0
M  V30 10069 C 975.016 2.13346 0.926629 0
M  V30 10070 C 976.01 1.06787 1.31502 0
M  V30 10071 O 977.216 1.25181 1.29343 0
M  V30 10072 H 973.591 0.682046 0.316729 0
M  V30 10073 H 975.562 2.95279 0.430424 0
M  V30 10074 C 974.311 2.70198 2.18834 0
M  V30 10075 H 973.634 3.51859 1.89829 0
M  V30 10076 H 975.074 3.12897 2.86132 0
M  V30 10077 C 973.533 1.64481 2.9402 0
M  V30 10078 O 974.063 1.0639 3.87355 0
M  V30 10079 N 972.269 1.35749 2.56944 0
M  V30 10080 H 971.816 1.83177 1.81119 0
M  V30 10081 H 971.774 0.652469 3.07555 0
M  V30 10082 N 975.546 -0.211634 1.56173 0
M  V30 10083 C 976.794 -0.932704 1.7929 0
M  V30 10084 C 977.115 -1.84472 0.632076 0
M  V30 10085 O 976.385 -1.92739 -0.350519 0
M  V30 10086 H 974.965 -0.347393 0.661307 0
M  V30 10087 H 977.627 -0.22111 1.93642 0
M  V30 10088 H 976.723 -1.53365 2.71819 0
M  V30 10089 N 977.024 -1.50153 -0.478725 0
M  V30 10090 C 977.956 -1.64603 -1.59494 0
M  V30 10091 C 978.969 -0.527789 -1.54007 0
M  V30 10092 O 980.158 -0.80069 -1.59534 0
M  V30 10093 C 977.258 -1.60738 -2.98356 0
M  V30 10094 C 976.431 -2.88468 -3.28794 0
M  V30 10095 C 975.49 -2.77349 -4.47173 0
M  V30 10096 O 974.516 -3.51302 -4.47857 0
M  V30 10097 N 975.718 -1.9039 -5.4839 0
M  V30 10098 H 978.483 -2.6088 -1.47518 0
M  V30 10099 H 976.044 -1.47521 -0.667011 0
M  V30 10100 H 978.036 -1.50923 -3.75505 0
M  V30 10101 H 976.606 -0.722273 -3.04141 0
M  V30 10102 H 975.826 -3.12467 -2.40329 0
M  V30 10103 H 977.114 -3.73102 -3.45937 0
M  V30 10104 H 976.512 -1.29606 -5.50653 0
M  V30 10105 H 975.069 -1.86484 -6.24553 0
M  V30 10106 N 978.502 0.731368 -1.39602 0
M  V30 10107 C 979.779 1.48308 -1.27531 0
M  V30 10108 C 980.159 2.10795 0.113482 0
M  V30 10109 O 979.507 1.98886 1.12501 0
M  V30 10110 C 979.717 2.53156 -2.40235 0
M  V30 10111 C 981.065 3.19436 -2.79725 0
M  V30 10112 O 982.089 2.6347 -2.39712 0
M  V30 10113 O 980.948 4.20714 -3.48801 0
M  V30 10114 H 978.042 0.658753 -0.499973 0
M  V30 10115 H 980.588 0.764884 -1.51485 0
M  V30 10116 H 979.36 2.05387 -3.33064 0
M  V30 10117 H 978.983 3.3253 -2.17966 0
M  V30 10118 N 979.98 1.24838 0.961938 0
M  V30 10119 C 981.229 1.0855 1.69999 0
M  V30 10120 C 981.542 -0.374645 1.91979 0
M  V30 10121 O 982.748 -0.657822 2.6341 0
M  V30 10122 C 981.204 1.89424 3.06017 0
M  V30 10123 C 980.812 3.39885 2.9186 0
M  V30 10124 C 982.556 1.81684 3.83655 0
M  V30 10125 C 980.463 4.13082 4.23223 0
M  V30 10126 H 979.393 0.402603 0.637516 0
M  V30 10127 H 982.044 1.4897 1.07146 0
M  V30 10128 H 980.426 1.41823 3.69733 0
M  V30 10129 H 981.6 3.95108 2.37121 0
M  V30 10130 H 979.915 3.4864 2.27683 0
M  V30 10131 H 982.512 2.3367 4.80939 0
M  V30 10132 H 982.855 0.783247 4.08865 0
M  V30 10133 H 983.388 2.26997 3.26676 0
M  V30 10134 H 980.127 5.16824 4.03204 0
M  V30 10135 H 979.647 3.62644 4.77755 0
M  V30 10136 H 981.326 4.20397 4.91808 0
M  V30 10137 N 981.458 -1.16348 1.06306 0
M  V30 10138 C 982.406 -2.22799 0.668087 0
M  V30 10139 C 983.4 -1.66426 -0.316051 0
M  V30 10140 O 984.606 -1.79089 -0.180902 0
M  V30 10141 H 980.981 -0.725487 0.19792 0
M  V30 10142 H 982.952 -2.53401 1.57577 0
M  V30 10143 C 981.701 -3.47628 0.0706797 0
M  V30 10144 H 981.024 -3.9132 0.819064 0
M  V30 10145 H 982.464 -4.23666 -0.16816 0
M  V30 10146 C 980.923 -3.15343 -1.18577 0
M  V30 10147 O 981.453 -3.31158 -2.27371 0
M  V30 10148 N 979.659 -2.69472 -1.08779 0
M  V30 10149 H 979.206 -2.56803 -0.202447 0
M  V30 10150 H 979.164 -2.48244 -1.92931 0
M  V30 10151 N 982.937 -0.845659 -1.3299 0
M  V30 10152 C 984.184 -0.444653 -1.97558 0
M  V30 10153 C 984.512 0.997682 -1.66963 0
M  V30 10154 O 983.767 1.71349 -0.94541 0
M  V30 10155 C 984.066 -0.6201 -3.51979 0
M  V30 10156 C 983.732 -2.03155 -4.02541 0
M  V30 10157 C 982.394 -2.4176 -4.16059 0
M  V30 10158 C 984.746 -2.95317 -4.29462 0
M  V30 10159 C 982.074 -3.71818 -4.53837 0
M  V30 10160 C 984.426 -4.24863 -4.68694 0
M  V30 10161 C 983.09 -4.63416 -4.80419 0
M  V30 10162 H 982.36 -0.16271 -0.722915 0
M  V30 10163 H 985.007 -1.07399 -1.58549 0
M  V30 10164 H 983.312 0.092513 -3.91691 0
M  V30 10165 H 985.009 -0.290012 -3.9995 0
M  V30 10166 H 981.599 -1.72174 -3.92497 0
M  V30 10167 H 985.783 -2.66726 -4.18534 0
M  V30 10168 H 981.039 -4.01484 -4.61108 0
M  V30 10169 H 985.213 -4.96347 -4.8848 0
M  V30 10170 H 982.84 -5.6424 -5.09448 0
M  V30 10171 N 984.415 1.45619 -0.602734 0
M  V30 10172 C 985.643 2.06647 -0.102253 0
M  V30 10173 C 986.058 1.4482 1.21131 0
M  V30 10174 O 985.415 0.560621 1.73676 0
M  V30 10175 C 985.466 3.61467 0.0490113 0
M  V30 10176 O 985.187 4.20985 -1.21257 0
M  V30 10177 C 986.688 4.39469 0.581517 0
M  V30 10178 H 983.908 0.667685 -0.0666155 0
M  V30 10179 H 986.452 1.86939 -0.829091 0
M  V30 10180 H 984.607 3.80534 0.726153 0
M  V30 10181 H 985.021 5.14103 -1.03915 0
M  V30 10182 H 986.495 5.48318 0.636462 0
M  V30 10183 H 986.972 4.0891 1.60277 0
M  V30 10184 H 987.578 4.25256 -0.061419 0
M  V30 10185 N 985.893 0.34162 1.53853 0
M  V30 10186 C 986.84 -0.516058 2.24957 0
M  V30 10187 C 987.81 -1.09711 1.2471 0
M  V30 10188 O 988.995 -1.13409 1.53438 0
M  V30 10189 C 986.135 -1.66207 3.02439 0
M  V30 10190 C 985.248 -1.10851 4.17536 0
M  V30 10191 C 984.383 -2.22167 4.82509 0
M  V30 10192 C 983.422 -1.64152 5.89678 0
M  V30 10193 N 982.559 -2.69203 6.4844 0
M  V30 10194 H 987.399 0.0968275 2.97843 0
M  V30 10195 H 984.936 0.0595565 1.46979 0
M  V30 10196 H 986.894 -2.33672 3.4562 0
M  V30 10197 H 985.524 -2.24597 2.31853 0
M  V30 10198 H 984.576 -0.324853 3.7901 0
M  V30 10199 H 985.888 -0.644151 4.94623 0
M  V30 10200 H 985.042 -2.97501 5.28751 0
M  V30 10201 H 983.781 -2.71946 4.04842 0
M  V30 10202 H 982.786 -0.873228 5.42821 0
M  V30 10203 H 984.011 -1.15228 6.69253 0
M  V30 10204 H 981.957 -3.1824 5.73637 0
M  V30 10205 H 981.874 -2.27383 7.20994 0
M  V30 10206 H 983.142 -3.44312 6.99335 0
M  V30 10207 N 987.371 -1.57444 0.0701946 0
M  V30 10208 C 988.617 -1.94528 -0.594177 0
M  V30 10209 C 988.972 -0.949898 -1.67316 0
M  V30 10210 O 988.265 0.0280668 -1.91579 0
M  V30 10211 C 988.459 -3.36044 -1.21694 0
M  V30 10212 C 988.288 -4.49256 -0.199806 0
M  V30 10213 C 987.058 -5.04843 0.214963 0
M  V30 10214 C 989.256 -5.11217 0.562312 0
M  V30 10215 N 987.238 -6.01595 1.22297 0
M  V30 10216 C 988.609 -6.03453 1.42284 0
M  V30 10217 C 990.664 -4.94043 0.618555 0
M  V30 10218 C 989.367 -6.80359 2.33461 0
M  V30 10219 C 991.393 -5.71591 1.51783 0
M  V30 10220 C 990.755 -6.63474 2.36604 0
M  V30 10221 H 986.854 -0.758941 -0.1885 0
M  V30 10222 H 989.438 -1.94145 0.146965 0
M  V30 10223 H 987.609 -3.37168 -1.92801 0
M  V30 10224 H 989.341 -3.60368 -1.84165 0
M  V30 10225 H 986.096 -4.73303 -0.167835 0
M  V30 10226 H 986.52 -6.5467 1.72443 0
M  V30 10227 H 991.162 -4.22794 -0.0230235 0
M  V30 10228 H 988.88 -7.50886 2.98656 0
M  V30 10229 H 992.466 -5.60324 1.56616 0
M  V30 10230 H 991.346 -7.22432 3.0506 0
M  V30 10231 N 988.849 0.203349 -1.56283 0
M  V30 10232 C 989.796 1.25205 -1.93888 0
M  V30 10233 C 990.766 1.45654 -0.798376 0
M  V30 10234 O 991.951 1.58924 -1.05583 0
M  V30 10235 C 989.091 2.59355 -2.27659 0
M  V30 10236 C 988.204 2.46553 -3.54733 0
M  V30 10237 C 987.339 3.73351 -3.77865 0
M  V30 10238 C 986.378 3.55347 -4.98392 0
M  V30 10239 N 985.515 4.74137 -5.17821 0
M  V30 10240 H 990.355 0.924356 -2.83301 0
M  V30 10241 H 987.892 0.445082 -1.40205 0
M  V30 10242 H 989.85 3.375 -2.45254 0
M  V30 10243 H 988.48 2.90184 -1.41396 0
M  V30 10244 H 987.532 1.59749 -3.45231 0
M  V30 10245 H 988.844 2.2918 -4.43033 0
M  V30 10246 H 987.998 4.59937 -3.95655 0
M  V30 10247 H 986.737 3.9367 -2.8788 0
M  V30 10248 H 985.742 2.67146 -4.80534 0
M  V30 10249 H 986.967 3.36482 -5.89879 0
M  V30 10250 H 984.913 4.94735 -4.30782 0
M  V30 10251 H 984.83 4.59558 -6.00285 0
M  V30 10252 H 986.098 5.62098 -5.40061 0
M  V30 10253 N 990.327 1.50405 0.470755 0
M  V30 10254 C 991.576 1.60652 1.21959 0
M  V30 10255 C 991.889 0.312521 1.93087 0
M  V30 10256 O 993.095 0.293901 2.69905 0
M  V30 10257 C 991.551 2.83581 2.21607 0
M  V30 10258 C 991.159 4.19858 1.5628 0
M  V30 10259 C 992.903 3.03173 2.9713 0
M  V30 10260 C 990.81 5.33974 2.54217 0
M  V30 10261 H 989.74 0.598264 0.458907 0
M  V30 10262 H 992.391 1.76836 0.490041 0
M  V30 10263 H 990.773 2.60957 2.97855 0
M  V30 10264 H 991.947 4.52738 0.85819 0
M  V30 10265 H 990.262 4.05873 0.930366 0
M  V30 10266 H 992.859 3.856 3.70428 0
M  V30 10267 H 993.202 2.14914 3.56536 0
M  V30 10268 H 993.735 3.2598 2.27995 0
M  V30 10269 H 990.474 6.24388 1.99549 0
M  V30 10270 H 989.994 5.05511 3.22829 0
M  V30 10271 H 991.673 5.64561 3.16039 0
M  V30 10272 N 991.805 -0.723954 1.39988 0
M  V30 10273 C 993.033 -1.51313 1.4111 0
M  V30 10274 C 993.448 -1.88798 0.00853333 0
M  V30 10275 O 992.805 -1.54868 -0.965516 0
M  V30 10276 C 992.856 -2.79375 2.29416 0
M  V30 10277 O 992.577 -2.43478 3.64211 0
M  V30 10278 C 994.078 -3.7333 2.3904 0
M  V30 10279 H 991.298 -0.46724 0.481589 0
M  V30 10280 H 993.842 -0.893694 1.83938 0
M  V30 10281 H 991.997 -3.37624 1.89971 0
M  V30 10282 H 992.411 -3.25821 4.11024 0
M  V30 10283 H 993.885 -4.60051 3.05053 0
M  V30 10284 H 994.362 -4.15854 1.41289 0
M  V30 10285 H 994.968 -3.20996 2.79001 0
M  V30 10286 N 993.283 -1.25346 -0.955304 0
M  V30 10287 C 994.213 -1.08152 -2.06943 0
M  V30 10288 C 995.194 0.00922598 -1.70097 0
M  V30 10289 O 996.379 -0.160181 -1.93538 0
M  V30 10290 C 993.509 -0.698745 -3.40198 0
M  V30 10291 C 992.463 -1.73965 -3.9105 0
M  V30 10292 C 991.789 -1.21158 -5.20792 0
M  V30 10293 C 993.089 -3.13829 -4.17503 0
M  V30 10294 H 994.783 -2.01345 -2.21586 0
M  V30 10295 H 992.329 -0.969459 -1.06478 0
M  V30 10296 H 994.282 -0.565394 -4.1759 0
M  V30 10297 H 993.006 0.268892 -3.25491 0
M  V30 10298 H 991.665 -1.86143 -3.15827 0
M  V30 10299 H 991.313 -0.234193 -5.02455 0
M  V30 10300 H 991.013 -1.90728 -5.55785 0
M  V30 10301 H 992.537 -1.09061 -6.00781 0
M  V30 10302 H 993.951 -3.04809 -4.85556 0
M  V30 10303 H 992.348 -3.80863 -4.63749 0
M  V30 10304 H 993.418 -3.6094 -3.23806 0
M  V30 10305 N 994.761 1.15782 -1.06922 0
M  V30 10306 C 995.693 2.19978 -0.643604 0
M  V30 10307 C 996.706 1.59981 0.301653 0
M  V30 10308 O 997.895 1.78265 0.0916508 0
M  V30 10309 C 994.995 3.38815 0.0757973 0
M  V30 10310 C 994.168 4.28363 -0.884545 0
M  V30 10311 C 993.227 5.25807 -0.203233 0
M  V30 10312 O 992.253 5.62924 -0.842904 0
M  V30 10313 N 993.455 5.70874 1.05279 0
M  V30 10314 H 996.22 2.57112 -1.53992 0
M  V30 10315 H 993.781 1.30855 -0.953344 0
M  V30 10316 H 995.773 4.01052 0.542151 0
M  V30 10317 H 994.343 3.00133 0.874 0
M  V30 10318 H 993.563 3.63292 -1.53012 0
M  V30 10319 H 994.851 4.85067 -1.53581 0
M  V30 10320 H 994.249 5.42822 1.5925 0
M  V30 10321 H 992.806 6.35171 1.46289 0
M  V30 10322 N 996.239 0.8527 1.3254 0
M  V30 10323 C 997.149 0.298744 2.3269 0
M  V30 10324 C 998.165 -0.582418 1.63963 0
M  V30 10325 O 999.341 -0.483253 1.95516 0
M  V30 10326 C 996.406 -0.505453 3.42996 0
M  V30 10327 C 995.467 0.401618 4.27417 0
M  V30 10328 C 994.7 -0.364294 5.32455 0
M  V30 10329 O 994.923 -1.59448 5.47661 0
M  V30 10330 O 993.857 0.268892 6.01299 0
M  V30 10331 H 997.683 1.12843 2.81958 0
M  V30 10332 H 995.268 0.615584 1.36128 0
M  V30 10333 H 997.15 -0.961974 4.10273 0
M  V30 10334 H 995.825 -1.31197 2.95921 0
M  V30 10335 H 994.732 0.906274 3.62957 0
M  V30 10336 H 996.065 1.17327 4.78012 0
M  V30 10337 N 997.718 -1.45297 0.610449 0
M  V30 10338 C 998.651 -2.27669 -0.155637 0
M  V30 10339 C 999.629 -1.37308 -0.870936 0
M  V30 10340 O 1000.81 -1.66739 -0.879228 0
M  V30 10341 C 997.94 -3.15748 -1.2256 0
M  V30 10342 C 996.986 -4.2207 -0.613116 0
M  V30 10343 S 997.819 -5.32337 0.581183 0
M  V30 10344 C 998.975 -6.23985 -0.489298 0
M  V30 10345 H 999.208 -2.92295 0.543205 0
M  V30 10346 H 996.741 -1.49181 0.398044 0
M  V30 10347 H 998.699 -3.67051 -1.83804 0
M  V30 10348 H 997.36 -2.50381 -1.89652 0
M  V30 10349 H 996.553 -4.83633 -1.41827 0
M  V30 10350 H 996.155 -3.73923 -0.0757482 0
M  V30 10351 H 998.447 -6.63553 -1.36759 0
M  V30 10352 H 999.39 -7.08042 0.0902456 0
M  V30 10353 H 999.798 -5.58718 -0.805911 0
M  V30 10354 N 999.196 -0.349774 -1.5367 0
M  V30 10355 C 1000.16 0.491676 -2.23864 0
M  V30 10356 C 1001.16 1.02256 -1.24098 0
M  V30 10357 O 1002.35 0.910816 -1.48492 0
M  V30 10358 C 999.481 1.68557 -2.96313 0
M  V30 10359 H 1000.67 -0.12233 -2.9965 0
M  V30 10360 H 998.227 -0.101214 -1.55972 0
M  V30 10361 H 998.962 2.3381 -2.2473 0
M  V30 10362 H 998.747 1.31203 -3.69497 0
M  V30 10363 H 1000.24 2.28225 -3.49718 0
M  V30 10364 N 1000.67 1.57404 -0.0785433 0
M  V30 10365 C 1001.61 2.101 0.916013 0
M  V30 10366 C 1002.62 1.03459 1.25698 0
M  V30 10367 O 1003.81 1.30954 1.21299 0
M  V30 10368 C 1000.91 2.55202 2.22992 0
M  V30 10369 C 1000.08 3.85491 2.06678 0
M  V30 10370 C 999.14 4.16614 3.21433 0
M  V30 10371 O 998.166 4.86105 2.96126 0
M  V30 10372 N 999.368 3.70697 4.46726 0
M  V30 10373 H 1002.13 2.96054 0.466059 0
M  V30 10374 H 999.694 1.61546 0.107006 0
M  V30 10375 H 1001.69 2.7308 2.9868 0
M  V30 10376 H 1000.26 1.74348 2.59464 0
M  V30 10377 H 999.476 3.76925 1.15417 0
M  V30 10378 H 1000.76 4.70759 1.93036 0
M  V30 10379 H 1000.16 3.14571 4.70172 0
M  V30 10380 H 998.719 3.93762 5.19418 0
M  V30 10381 N 1002.15 -0.195058 1.56388 0
M  V30 10382 C 1003.4 -0.913626 1.79821 0
M  V30 10383 C 1003.71 -1.84422 0.651767 0
M  V30 10384 O 1004.92 -2.6034 0.770402 0
M  V30 10385 C 1003.38 -1.67497 3.18548 0
M  V30 10386 C 1002.98 -0.789205 4.40994 0
M  V30 10387 C 1004.73 -2.38318 3.5129 0
M  V30 10388 C 1002.63 -1.54942 5.70742 0
M  V30 10389 H 1001.56 -0.344891 0.670497 0
M  V30 10390 H 1004.22 -0.166912 1.82739 0
M  V30 10391 H 1002.6 -2.46557 3.0988 0
M  V30 10392 H 1003.77 -0.0372595 4.60785 0
M  V30 10393 H 1002.09 -0.191834 4.15958 0
M  V30 10394 H 1004.68 -2.95745 4.45465 0
M  V30 10395 H 1005.03 -3.12507 2.75037 0
M  V30 10396 H 1005.56 -1.66224 3.61406 0
M  V30 10397 H 1002.3 -0.85031 6.49962 0
M  V30 10398 H 1001.82 -2.2753 5.54969 0
M  V30 10399 H 1003.5 -2.1032 6.11861 0
M  V30 10400 N 1003.63 -1.50653 -0.462772 0
M  V30 10401 C 1005.05 -1.38263 -0.797213 0
M  V30 10402 C 1005.25 -0.445172 -1.96521 0
M  V30 10403 O 1004.3 0.10913 -2.52264 0
M  V30 10404 C 1005.61 -2.798 -1.10146 0
M  V30 10405 C 1007.16 -2.88774 -1.20742 0
M  V30 10406 C 1007.64 -4.31163 -1.54476 0
M  V30 10407 N 1009.13 -4.34152 -1.61451 0
M  V30 10408 C 1009.86 -5.4133 -1.89074 0
M  V30 10409 N 1009.36 -6.58705 -2.1466 0
M  V30 10410 N 1011.15 -5.28783 -1.90645 0
M  V30 10411 H 1003.3 -2.10172 0.30684 0
M  V30 10412 H 1005.57 -0.945046 0.0747862 0
M  V30 10413 H 1005.27 -3.50276 -0.316207 0
M  V30 10414 H 1005.15 -3.17559 -2.03559 0
M  V30 10415 H 1007.53 -2.18512 -1.98334 0
M  V30 10416 H 1007.61 -2.54547 -0.252904 0
M  V30 10417 H 1007.26 -5.01965 -0.774207 0
M  V30 10418 H 1007.19 -4.62883 -2.51092 0
M  V30 10419 H 1009.68 -3.49519 -1.43684 0
M  V30 10420 H 1009.99 -7.36192 -2.35035 0
M  V30 10421 H 1008.34 -6.61866 -2.12035 0
M  V30 10422 H 1011.53 -4.36078 -1.70158 0
M  V30 10423 H 1011.7 -6.12396 -2.11836 0
M  V30 10424 N 1005.11 0.71652 -1.4037 0
M  V30 10425 C 1006.52 1.02447 -1.22379 0
M  V30 10426 C 1006.72 2.0126 -0.0983394 0
M  V30 10427 O 1005.78 2.46569 0.544071 0
M  V30 10428 C 1007.09 1.56909 -2.56515 0
M  V30 10429 C 1008.64 1.68898 -2.6352 0
M  V30 10430 C 1009.12 2.26765 -3.97922 0
M  V30 10431 N 1010.61 2.34152 -3.99658 0
M  V30 10432 C 1011.34 2.79907 -5.00439 0
M  V30 10433 N 1010.84 3.25422 -6.11615 0
M  V30 10434 N 1012.63 2.79283 -4.87809 0
M  V30 10435 H 1004.78 0.0615306 -2.12311 0
M  V30 10436 H 1007.05 0.0898994 -0.943728 0
M  V30 10437 H 1006.75 0.917649 -3.39517 0
M  V30 10438 H 1006.63 2.55446 -2.77538 0
M  V30 10439 H 1009.01 2.33159 -1.8089 0
M  V30 10440 H 1009.09 0.689626 -2.46329 0
M  V30 10441 H 1008.74 1.63126 -4.80991 0
M  V30 10442 H 1008.67 3.27413 -4.12442 0
M  V30 10443 H 1011.16 2.02006 -3.19378 0
M  V30 10444 H 1011.47 3.58899 -6.84406 0
M  V30 10445 H 1009.82 3.23383 -6.15181 0
M  V30 10446 H 1013.01 2.43061 -4.00049 0
M  V30 10447 H 1013.18 3.14626 -5.66493 0
M  V30 10448 N 1006.59 1.25851 0.948643 0
M  V30 10449 C 1007.53 1.06759 2.04625 0
M  V30 10450 C 1008.5 -0.0251144 1.66081 0
M  V30 10451 O 1009.69 0.133221 1.90334 0
M  V30 10452 C 1006.83 0.698724 3.37952 0
M  V30 10453 C 1005.94 1.8669 3.89578 0
M  V30 10454 C 1005.08 1.44184 5.11258 0
M  V30 10455 C 1004.12 2.57878 5.55126 0
M  V30 10456 N 1003.25 2.16106 6.68014 0
M  V30 10457 H 1008.09 2.00691 2.20289 0
M  V30 10458 H 1005.63 0.999327 1.07944 0
M  V30 10459 H 1007.59 0.465788 4.14592 0
M  V30 10460 H 1006.22 -0.203618 3.22157 0
M  V30 10461 H 1005.27 2.21298 3.09405 0
M  V30 10462 H 1006.58 2.72051 4.18079 0
M  V30 10463 H 1005.74 1.16891 5.95333 0
M  V30 10464 H 1004.47 0.559035 4.84485 0
M  V30 10465 H 1003.48 2.85909 4.69612 0
M  V30 10466 H 1004.7 3.46747 5.83904 0
M  V30 10467 H 1002.65 1.3025 6.42939 0
M  V30 10468 H 1002.57 2.95012 6.96063 0
M  V30 10469 H 1003.84 1.92005 7.55483 0
M  V30 10470 N 1008.06 -1.15214 1.07534 0
M  V30 10471 C 1009.31 -1.86043 0.799629 0
M  V30 10472 C 1009.64 -1.82435 -0.674356 0
M  V30 10473 O 1008.89 -1.24379 -1.51091 0
M  V30 10474 C 1009.19 -3.34623 1.25547 0
M  V30 10475 C 1008.86 -3.58425 2.73573 0
M  V30 10476 C 1007.52 -3.6463 3.14004 0
M  V30 10477 C 1009.87 -3.67977 3.6911 0
M  V30 10478 C 1007.2 -3.779 4.48786 0
M  V30 10479 C 1009.55 -3.82771 5.03656 0
M  V30 10480 C 1008.22 -3.87222 5.43705 0
M  V30 10481 H 1007.49 -0.680781 0.292605 0
M  V30 10482 H 1010.13 -1.36149 1.34669 0
M  V30 10483 H 1008.44 -3.86737 0.627828 0
M  V30 10484 H 1010.14 -3.87836 1.01901 0
M  V30 10485 H 1006.73 -3.54238 2.41275 0
M  V30 10486 H 1010.91 -3.62482 3.39 0
M  V30 10487 H 1006.17 -3.79604 4.79281 0
M  V30 10488 H 1010.34 -3.89104 5.77556 0
M  V30 10489 H 1007.97 -3.97256 6.48145 0
M  V30 10490 N 1009.54 -0.859717 -1.32086 0
M  V30 10491 C 1010.45 -0.31108 -2.32528 0
M  V30 10492 C 1011.47 0.573714 -1.6427 0
M  V30 10493 O 1012.64 0.472878 -1.9577 0
M  V30 10494 C 1009.71 0.487256 -3.43259 0
M  V30 10495 C 1008.77 -0.424279 -4.27198 0
M  V30 10496 C 1008 0.336051 -5.32641 0
M  V30 10497 O 1008.23 1.56541 -5.48499 0
M  V30 10498 O 1007.16 -0.300777 -6.01148 0
M  V30 10499 H 1010.99 -1.14336 -2.81355 0
M  V30 10500 H 1008.57 -0.622794 -1.358 0
M  V30 10501 H 1010.45 0.940203 -4.10777 0
M  V30 10502 H 1009.13 1.29626 -2.96612 0
M  V30 10503 H 1008.04 -0.925509 -3.62471 0
M  V30 10504 H 1009.37 -1.1986 -4.77383 0
M  V30 10505 N 1011.02 1.44971 -0.618145 0
M  V30 10506 C 1011.95 2.33357 0.0815955 0
M  V30 10507 C 1012.93 1.47451 0.848072 0
M  V30 10508 O 1014.12 1.762 0.816532 0
M  V30 10509 C 1011.25 3.30324 1.07253 0
M  V30 10510 C 1010.2 4.25948 0.418563 0
M  V30 10511 C 1009.53 5.12685 1.51849 0
M  V30 10512 C 1010.83 5.18024 -0.66697 0
M  V30 10513 H 1012.52 2.92115 -0.656442 0
M  V30 10514 H 1010.07 1.40465 -0.317129 0
M  V30 10515 H 1012.02 3.91033 1.57069 0
M  V30 10516 H 1010.74 2.69748 1.8413 0
M  V30 10517 H 1009.4 3.66553 -0.0588308 0
M  V30 10518 H 1009.05 4.4847 2.2778 0
M  V30 10519 H 1008.75 5.7747 1.08637 0
M  V30 10520 H 1010.27 5.76264 2.01871 0
M  V30 10521 H 1011.69 5.72744 -0.252448 0
M  V30 10522 H 1010.09 5.91343 -1.02146 0
M  V30 10523 H 1011.16 4.59817 -1.53936 0
M  V30 10524 N 1012.5 0.357919 1.53482 0
M  V30 10525 C 1013.75 -0.234163 2.01142 0
M  V30 10526 C 1014.07 -1.49399 1.2454 0
M  V30 10527 O 1013.33 -1.92981 0.325111 0
M  V30 10528 C 1013.63 -0.579617 3.52669 0
M  V30 10529 C 1013.29 0.584988 4.47089 0
M  V30 10530 C 1011.96 0.904558 4.72622 0
M  V30 10531 C 1014.31 1.3656 5.02992 0
M  V30 10532 C 1011.64 2.00685 5.5131 0
M  V30 10533 C 1013.99 2.45824 5.82884 0
M  V30 10534 C 1012.65 2.78325 6.06706 0
M  V30 10535 H 1011.92 -0.0856863 0.736029 0
M  V30 10536 H 1014.57 0.488801 1.85157 0
M  V30 10537 H 1012.87 -1.38349 3.66561 0
M  V30 10538 H 1014.57 -1.04985 3.87013 0
M  V30 10539 H 1011.16 0.32587 4.27359 0
M  V30 10540 H 1015.34 1.13196 4.83219 0
M  V30 10541 H 1010.6 2.26272 5.67988 0
M  V30 10542 H 1014.77 3.06732 6.25211 0
M  V30 10543 H 1012.4 3.63862 6.67464 0
M  V30 10544 N 1013.98 -1.5736 0.0868897 0
M  V30 10545 C 1015.2 -1.98388 -0.587349 0
M  V30 10546 C 1015.62 -0.965757 -1.6223 0
M  V30 10547 O 1014.98 0.0456981 -1.82443 0
M  V30 10548 C 1015.03 -3.39479 -1.24242 0
M  V30 10549 O 1014.75 -4.37393 -0.248878 0
M  V30 10550 C 1016.25 -3.95465 -2.00305 0
M  V30 10551 H 1013.47 -0.652111 -0.15809 0
M  V30 10552 H 1016.01 -2.03843 0.163754 0
M  V30 10553 H 1014.17 -3.35063 -1.94451 0
M  V30 10554 H 1014.58 -5.19525 -0.720678 0
M  V30 10555 H 1016.06 -4.96363 -2.41511 0
M  V30 10556 H 1016.53 -3.32832 -2.86565 0
M  V30 10557 H 1017.14 -4.03328 -1.34931 0
M  V30 10558 N 1015.45 0.186762 -1.56489 0
M  V30 10559 C 1016.68 0.920495 -1.84961 0
M  V30 10560 C 1017.09 1.77004 -0.668297 0
M  V30 10561 O 1016.44 1.79891 0.37213 0
M  V30 10562 C 1016.5 1.85997 -3.07645 0
M  V30 10563 C 1016.16 1.19156 -4.41193 0
M  V30 10564 C 1017.16 0.564446 -5.16827 0
M  V30 10565 C 1014.84 1.19292 -4.87929 0
M  V30 10566 C 1016.84 -0.0523768 -6.37378 0
M  V30 10567 C 1014.52 0.572266 -6.08415 0
M  V30 10568 C 1015.52 -0.049294 -6.82982 0
M  V30 10569 O 1015.21 -0.660201 -8.01184 0
M  V30 10570 H 1014.94 0.273659 -0.618132 0
M  V30 10571 H 1017.5 0.196437 -2.04459 0
M  V30 10572 H 1015.73 2.62394 -2.84053 0
M  V30 10573 H 1017.42 2.46221 -3.22692 0
M  V30 10574 H 1018.18 0.555474 -4.81809 0
M  V30 10575 H 1014.06 1.66611 -4.29839 0
M  V30 10576 H 1017.6 -0.538133 -6.95521 0
M  V30 10577 H 1013.5 0.578769 -6.429 0
M  V30 10578 H 1014.27 -0.557926 -8.16596 0
M  V30 10579 N 1016.93 1.50896 0.454776 0
M  V30 10580 C 1018.18 1.6294 1.20741 0
M  V30 10581 C 1018.51 0.336339 1.91265 0
M  V30 10582 O 1017.79 -0.663153 1.82846 0
M  V30 10583 C 1018.07 2.82092 2.23822 0
M  V30 10584 C 1017.92 4.21326 1.57495 0
M  V30 10585 C 1019.24 2.96777 3.24979 0
M  V30 10586 H 1016.36 0.59302 0.437603 0
M  V30 10587 H 1019 1.83331 0.498959 0
M  V30 10588 H 1017.15 2.64837 2.84243 0
M  V30 10589 H 1018.82 4.50209 1.00546 0
M  V30 10590 H 1017.07 4.24829 0.877664 0
M  V30 10591 H 1017.74 5.00656 2.32482 0
M  V30 10592 H 1020.21 3.12627 2.74597 0
M  V30 10593 H 1019.09 3.81742 3.94416 0
M  V30 10594 H 1019.35 2.08091 3.90065 0
M  V30 10595 N 1018.41 -0.709066 1.40748 0
M  V30 10596 C 1019.83 -1.01797 1.22921 0
M  V30 10597 C 1020.03 -2.01205 0.109011 0
M  V30 10598 O 1019.08 -2.46854 -0.530987 0
M  V30 10599 C 1020.4 -1.55546 2.57344 0
M  V30 10600 C 1021.94 -1.67498 2.64412 0
M  V30 10601 C 1022.42 -2.24652 3.99119 0
M  V30 10602 N 1023.91 -2.3203 4.00895 0
M  V30 10603 C 1024.64 -2.7725 5.01917 0
M  V30 10604 N 1024.14 -3.22174 6.13332 0
M  V30 10605 N 1025.93 -2.76692 4.89283 0
M  V30 10606 H 1018.08 -0.0502704 2.12341 0
M  V30 10607 H 1020.35 -0.0848933 0.944191 0
M  V30 10608 H 1020.05 -0.899631 3.39999 0
M  V30 10609 H 1019.93 -2.53971 2.78888 0
M  V30 10610 H 1022.31 -2.32196 1.82123 0
M  V30 10611 H 1022.4 -0.676553 2.46691 0
M  V30 10612 H 1022.04 -1.60573 4.81849 0
M  V30 10613 H 1021.97 -3.25221 4.14173 0
M  V30 10614 H 1024.46 -2.00309 3.20444 0
M  V30 10615 H 1024.77 -3.55265 6.86299 0
M  V30 10616 H 1023.12 -3.20116 6.16888 0
M  V30 10617 H 1026.31 -2.40936 4.01332 0
M  V30 10618 H 1026.48 -3.11617 5.68154 0
M  V30 10619 N 1019.89 -1.26353 -0.941956 0
M  V30 10620 C 1021.14 -1.11851 -1.68806 0
M  V30 10621 C 1021.46 0.33829 -1.91535 0
M  V30 10622 O 1020.72 1.26495 -1.49324 0
M  V30 10623 C 1021.02 -1.83195 -3.06879 0
M  V30 10624 C 1020.68 -3.33093 -3.03908 0
M  V30 10625 C 1019.35 -3.73982 -3.02805 0
M  V30 10626 C 1021.7 -4.28803 -2.96273 0
M  V30 10627 C 1019.03 -5.08971 -2.91832 0
M  V30 10628 C 1021.38 -5.6383 -2.86842 0
M  V30 10629 C 1020.04 -6.04032 -2.84081 0
M  V30 10630 H 1019.31 -0.409293 -0.617706 0
M  V30 10631 H 1021.96 -1.56785 -1.09957 0
M  V30 10632 H 1020.26 -1.30728 -3.69347 0
M  V30 10633 H 1021.96 -1.69416 -3.63455 0
M  V30 10634 H 1018.55 -3.00566 -3.05546 0
M  V30 10635 H 1022.74 -3.98195 -2.96234 0
M  V30 10636 H 1017.99 -5.39282 -2.88072 0
M  V30 10637 H 1022.17 -6.37676 -2.79898 0
M  V30 10638 H 1019.79 -7.08586 -2.75335 0
M  V30 10639 N 1021.37 1.14642 -1.08144 0
M  V30 10640 C 1022.64 1.81774 -0.72232 0
M  V30 10641 C 1023.02 1.95587 0.794294 0
M  V30 10642 O 1022.37 1.51361 1.71178 0
M  V30 10643 C 1022.58 3.1763 -1.44611 0
M  V30 10644 C 1023.93 3.93161 -1.60343 0
M  V30 10645 O 1024.95 3.2721 -1.40755 0
M  V30 10646 O 1023.81 5.11422 -1.9264 0
M  V30 10647 H 1020.91 0.785733 -0.257978 0
M  V30 10648 H 1023.45 1.21683 -1.18285 0
M  V30 10649 H 1022.23 3.02723 -2.4794 0
M  V30 10650 H 1021.85 3.85412 -0.976892 0
M  V30 10651 N 1022.85 0.866709 1.31628 0
M  V30 10652 C 1024.07 0.48956 2.01539 0
M  V30 10653 C 1024.5 -0.909556 1.64647 0
M  V30 10654 O 1023.85 -1.59959 0.853391 0
M  V30 10655 C 1023.9 0.650176 3.5469 0
M  V30 10656 O 1023.01 -0.311908 4.11219 0
M  V30 10657 H 1022.35 0.195144 0.634677 0
M  V30 10658 H 1024.88 1.16923 1.679 0
M  V30 10659 H 1024.89 0.542236 4.04381 0
M  V30 10660 H 1023.56 1.67038 3.80882 0
M  V30 10661 H 1022.14 -0.159197 3.7256 0
M  V30 10662 N 1024.32 -1.44642 0.625825 0
M  V30 10663 C 1025.23 -2.34451 -0.0836134 0
M  V30 10664 C 1026.25 -1.5231 -0.841289 0
M  V30 10665 O 1027.43 -1.85056 -0.794754 0
M  V30 10666 C 1024.49 -3.30211 -1.05648 0
M  V30 10667 C 1023.55 -4.28259 -0.298759 0
M  V30 10668 C 1022.78 -5.19444 -1.22528 0
M  V30 10669 O 1023.01 -5.14444 -2.46382 0
M  V30 10670 O 1021.94 -5.97668 -0.71247 0
M  V30 10671 H 1025.77 -2.96555 0.654912 0
M  V30 10672 H 1023.35 -1.44327 0.386029 0
M  V30 10673 H 1025.23 -3.8917 -1.61632 0
M  V30 10674 H 1023.91 -2.70648 -1.77571 0
M  V30 10675 H 1022.82 -3.72863 0.304001 0
M  V30 10676 H 1024.15 -4.90728 0.380345 0
M  V30 10677 N 1025.8 -0.366053 -1.5329 0
M  V30 10678 C 1027.05 0.224614 -2.00445 0
M  V30 10679 C 1027.36 1.49829 -1.2574 0
M  V30 10680 O 1028.57 2.16759 -1.63487 0
M  V30 10681 C 1027.03 0.450818 -3.57065 0
M  V30 10682 C 1026.63 -0.808257 -4.40649 0
M  V30 10683 C 1028.38 0.999116 -4.12575 0
M  V30 10684 C 1026.28 -0.551612 -5.88822 0
M  V30 10685 H 1025.21 0.0877114 -0.748881 0
M  V30 10686 H 1027.87 -0.484866 -1.76978 0
M  V30 10687 H 1026.25 1.22157 -3.76688 0
M  V30 10688 H 1027.42 -1.58184 -4.32798 0
M  V30 10689 H 1025.74 -1.27981 -3.96245 0
M  V30 10690 H 1028.33 1.20646 -5.20911 0
M  V30 10691 H 1028.68 1.96139 -3.67199 0
M  V30 10692 H 1029.21 0.288518 -3.96752 0
M  V30 10693 H 1025.95 -1.48423 -6.38475 0
M  V30 10694 H 1025.47 0.183462 -5.99519 0
M  V30 10695 H 1027.15 -0.177307 -6.46757 0
M  V30 10696 N 1027.28 1.57312 -0.0952337 0
M  V30 10697 C 1028.51 1.98697 0.57682 0
M  V30 10698 C 1028.92 0.974347 1.61716 0
M  V30 10699 O 1028.28 -0.036022 1.82464 0
M  V30 10700 C 1028.33 3.40133 1.2244 0
M  V30 10701 O 1028.05 4.37518 0.225678 0
M  V30 10702 C 1029.55 3.96522 1.98205 0
M  V30 10703 H 1026.77 0.65294 0.154629 0
M  V30 10704 H 1029.32 2.03754 -0.174562 0
M  V30 10705 H 1027.47 3.3609 1.92671 0
M  V30 10706 H 1027.89 5.199 0.693116 0
M  V30 10707 H 1029.36 4.97637 2.38875 0
M  V30 10708 H 1029.84 3.34347 2.84796 0
M  V30 10709 H 1030.44 4.04038 1.3279 0
M  V30 10710 N 1028.76 -0.17846 1.56586 0
M  V30 10711 C 1029.69 -1.22342 1.98884 0
M  V30 10712 C 1030.67 -1.46564 0.86331 0
M  V30 10713 O 1031.85 -1.58019 1.12887 0
M  V30 10714 C 1028.98 -2.56396 2.34261 0
M  V30 10715 C 1027.94 -2.46756 3.49708 0
M  V30 10716 C 1027.26 -3.85235 3.70807 0
M  V30 10717 C 1028.56 -1.97838 4.83381 0
M  V30 10718 H 1030.26 -0.871848 2.86425 0
M  V30 10719 H 1027.8 -0.417948 1.37801 0
M  V30 10720 H 1029.76 -3.29695 2.62448 0
M  V30 10721 H 1028.48 -2.93327 1.43621 0
M  V30 10722 H 1027.14 -1.75912 3.21637 0
M  V30 10723 H 1026.79 -4.19547 2.7747 0
M  V30 10724 H 1026.49 -3.79655 4.48481 0
M  V30 10725 H 1028.01 -4.60131 4.01387 0
M  V30 10726 H 1029.43 -2.60906 5.10491 0
M  V30 10727 H 1027.82 -2.03223 5.64642 0
M  V30 10728 H 1028.89 -0.932339 4.75852 0
M  V30 10729 N 1030.24 -1.51135 -0.446768 0
M  V30 10730 C 1031.48 -1.63578 -1.19875 0
M  V30 10731 C 1031.81 -0.346478 -1.91084 0
M  V30 10732 O 1031.09 0.653447 -1.83195 0
M  V30 10733 C 1031.37 -2.83275 -2.22323 0
M  V30 10734 C 1031.23 -4.22155 -1.55259 0
M  V30 10735 C 1032.54 -2.98496 -3.23401 0
M  V30 10736 H 1029.66 -0.595333 -0.434452 0
M  V30 10737 H 1032.31 -1.83593 -0.48923 0
M  V30 10738 H 1030.46 -2.6634 -2.82834 0
M  V30 10739 H 1032.13 -4.50736 -0.981571 0
M  V30 10740 H 1030.37 -4.25288 -0.855122 0
M  V30 10741 H 1031.04 -5.01882 -2.29823 0
M  V30 10742 H 1033.52 -3.14079 -2.72935 0
M  V30 10743 H 1032.39 -3.83828 -3.92386 0
M  V30 10744 H 1032.65 -2.10157 -3.88956 0
M  V30 10745 N 1031.71 0.701592 -1.41122 0
M  V30 10746 C 1033.12 1.28129 -1.35793 0
M  V30 10747 C 1033.48 1.96163 -0.0381185 0
M  V30 10748 O 1032.6 1.98416 0.863723 0
M  V30 10749 C 1033.2 2.33005 -2.45955 0
M  V30 10750 C 1031.75 2.86566 -2.44043 0
M  V30 10751 C 1030.9 1.60526 -2.26112 0
M  V30 10752 H 1033.85 0.496756 -1.50725 0
M  V30 10753 H 1033.87 3.14163 -2.14667 0
M  V30 10754 H 1033.39 1.8346 -3.42 0
M  V30 10755 H 1031.49 3.40304 -1.51737 0
M  V30 10756 H 1031.6 3.37406 -3.40138 0
M  V30 10757 H 1029.96 1.86113 -1.7388 0
M  V30 10758 H 1030.75 1.12985 -3.24175 0
M  V30 10759 N 1033.19 1.2685 0.935242 0
M  V30 10760 C 1034.43 1.13972 1.69675 0
M  V30 10761 C 1034.8 -0.310655 1.8947 0
M  V30 10762 O 1036 -0.561692 2.62866 0
M  V30 10763 C 1034.27 1.89387 3.03096 0
M  V30 10764 S 1035.83 1.92633 3.94256 0
M  V30 10765 H 1032.64 0.407009 0.582979 0
M  V30 10766 H 1035.25 1.60653 1.11404 0
M  V30 10767 H 1033.95 2.9397 2.86374 0
M  V30 10768 H 1033.48 1.43171 3.66423 0
M  V30 10769 H 1035.5 1.01732 4.85659 0
M  V30 10770 N 1034.67 -1.14067 1.0875 0
M  V30 10771 C 1035.92 -1.84535 0.814235 0
M  V30 10772 C 1036.23 -1.84044 -0.662355 0
M  V30 10773 O 1037.44 -2.50336 -1.05091 0
M  V30 10774 C 1035.89 -3.31273 1.40663 0
M  V30 10775 C 1035.5 -3.40171 2.91526 0
M  V30 10776 C 1037.25 -4.0683 1.21201 0
M  V30 10777 C 1035.15 -4.81141 3.43885 0
M  V30 10778 H 1034.08 -0.691346 0.300926 0
M  V30 10779 H 1036.73 -1.28562 1.30935 0
M  V30 10780 H 1035.12 -3.87005 0.839215 0
M  V30 10781 H 1036.29 -2.94471 3.54434 0
M  V30 10782 H 1034.61 -2.78073 3.09942 0
M  V30 10783 H 1037.2 -5.10891 1.57781 0
M  V30 10784 H 1037.55 -4.16022 0.152092 0
M  V30 10785 H 1038.08 -3.57408 1.74655 0
M  V30 10786 H 1034.82 -4.77138 4.49466 0
M  V30 10787 H 1034.34 -5.27365 2.85738 0
M  V30 10788 H 1036.02 -5.50042 3.40681 0
M  V30 10789 N 1036.15 -0.873678 -1.31166 0
M  V30 10790 C 1037.11 -0.337069 -2.26708 0
M  V30 10791 C 1038.11 0.51406 -1.52362 0
M  V30 10792 O 1039.3 0.322834 -1.71182 0
M  V30 10793 C 1036.43 0.520897 -3.36897 0
M  V30 10794 H 1037.63 -1.18056 -2.75686 0
M  V30 10795 H 1035.18 -0.649577 -1.42163 0
M  V30 10796 H 1035.91 1.38543 -2.93217 0
M  V30 10797 H 1035.7 -0.0886015 -3.92 0
M  V30 10798 H 1037.19 0.888497 -4.08039 0
M  V30 10799 N 1037.63 1.44308 -0.633487 0
M  V30 10800 C 1038.87 2.01624 -0.138643 0
M  V30 10801 C 1039.2 1.50101 1.24477 0
M  V30 10802 O 1038.47 0.705575 1.82752 0
M  V30 10803 H 1037.05 0.745439 -0.0482636 0
M  V30 10804 H 1039.71 1.76777 -0.820719 0
M  V30 10805 H 1038.8 3.11913 -0.108136 0
M  V30 10806 N 1039.1 0.374177 1.53094 0
M  V30 10807 C 1040.52 0.0234783 1.59583 0
M  V30 10808 C 1040.72 -1.45984 1.38892 0
M  V30 10809 O 1039.78 -2.22251 1.19836 0
M  V30 10810 C 1041.09 0.487117 2.96728 0
M  V30 10811 C 1042.64 0.442073 3.09862 0
M  V30 10812 C 1043.11 0.881659 4.49434 0
M  V30 10813 N 1044.6 0.837062 4.55574 0
M  V30 10814 C 1045.34 1.14878 5.61774 0
M  V30 10815 N 1044.83 1.53022 6.75689 0
M  V30 10816 N 1046.63 1.07102 5.51802 0
M  V30 10817 H 1038.78 1.34003 1.64794 0
M  V30 10818 H 1041.04 0.548281 0.773364 0
M  V30 10819 H 1040.75 1.52252 3.17037 0
M  V30 10820 H 1040.62 -0.121772 3.77003 0
M  V30 10821 H 1043.01 -0.584216 2.89259 0
M  V30 10822 H 1043.09 1.08657 2.31576 0
M  V30 10823 H 1042.73 1.90611 4.70776 0
M  V30 10824 H 1042.66 0.214326 5.26164 0
M  V30 10825 H 1045.15 0.556173 3.73785 0
M  V30 10826 H 1045.47 1.75211 7.52676 0
M  V30 10827 H 1043.81 1.56895 6.77059 0
M  V30 10828 H 1047 0.772149 4.61688 0
M  V30 10829 H 1047.18 1.31728 6.3447 0
M  V30 10830 N 1040.58 -1.57259 0.103575 0
M  V30 10831 C 1041.83 -1.94272 -0.557024 0
M  V30 10832 C 1042.15 -0.986739 -1.68192 0
M  V30 10833 O 1041.42 -0.0402818 -1.95859 0
M  V30 10834 H 1040 -0.717237 -0.208757 0
M  V30 10835 H 1042.66 -1.94167 0.168898 0
M  V30 10836 H 1041.76 -2.96914 -0.961691 0
M  V30 10837 N 1042.06 0.170153 -1.56679 0
M  V30 10838 C 1043.34 0.913938 -1.72935 0
M  V30 10839 C 1043.72 2.00342 -0.665293 0
M  V30 10840 O 1043.07 2.26252 0.319715 0
M  V30 10841 C 1043.28 1.47761 -3.16177 0
M  V30 10842 C 1044.62 1.95007 -3.7717 0
M  V30 10843 O 1045.65 1.57552 -3.19462 0
M  V30 10844 O 1044.51 2.64007 -4.78501 0
M  V30 10845 H 1041.6 0.43027 -0.706256 0
M  V30 10846 H 1044.15 0.157891 -1.68964 0
M  V30 10847 H 1042.92 0.69352 -3.85105 0
M  V30 10848 H 1042.54 2.2978 -3.24479 0
M  V30 10849 N 1043.54 1.5137 0.438746 0
M  V30 10850 C 1044.82 1.54508 1.19944 0
M  V30 10851 C 1045.2 0.308525 2.08833 0
M  V30 10852 O 1044.54 -0.706461 2.17305 0
M  V30 10853 C 1044.75 2.85833 2.00251 0
M  V30 10854 C 1046.1 3.37729 2.5734 0
M  V30 10855 O 1047.13 2.87374 2.10463 0
M  V30 10856 O 1045.98 4.25589 3.42836 0
M  V30 10857 H 1043.08 0.621132 0.546007 0
M  V30 10858 H 1045.62 1.63682 0.447931 0
M  V30 10859 H 1044.4 3.67291 1.34955 0
M  V30 10860 H 1044.02 2.79815 2.8247 0
M  V30 10861 N 1045.02 -0.694098 1.41492 0
M  V30 10862 C 1046.27 -1.4498 1.40227 0
M  V30 10863 C 1046.58 -1.95594 0.0151253 0
M  V30 10864 O 1047.78 -2.71234 -0.120146 0
M  V30 10865 C 1046.24 -2.62171 2.46565 0
M  V30 10866 C 1045.85 -2.18337 3.91194 0
M  V30 10867 C 1047.59 -3.39796 2.54439 0
M  V30 10868 C 1045.5 -3.32495 4.89082 0
M  V30 10869 H 1044.43 -0.544584 0.521483 0
M  V30 10870 H 1047.08 -0.75337 1.67322 0
M  V30 10871 H 1045.46 -3.34089 2.12604 0
M  V30 10872 H 1046.64 -1.53698 4.34412 0
M  V30 10873 H 1044.95 -1.53702 3.86994 0
M  V30 10874 H 1047.55 -4.2478 3.24755 0
M  V30 10875 H 1047.89 -3.85082 1.5817 0
M  V30 10876 H 1048.42 -2.74935 2.87499 0
M  V30 10877 H 1045.16 -2.92219 5.86761 0
M  V30 10878 H 1044.68 -3.95978 4.50512 0
M  V30 10879 H 1046.36 -3.98251 5.09907 0
M  V30 10880 N 1046.49 -1.27344 -0.928501 0
M  V30 10881 C 1047.74 -1.13411 -1.67279 0
M  V30 10882 C 1048.06 0.320698 -1.92345 0
M  V30 10883 O 1047.33 1.2245 -1.52915 0
M  V30 10884 H 1045.91 -0.416712 -0.619968 0
M  V30 10885 H 1048.58 -1.5986 -1.11493 0
M  V30 10886 H 1047.67 -1.66256 -2.64131 0
M  V30 10887 N 1047.97 1.13488 -1.09353 0
M  V30 10888 C 1048.92 2.16933 -0.701709 0
M  V30 10889 C 1049.91 1.58382 0.283553 0
M  V30 10890 O 1051.1 1.7675 0.0940391 0
M  V30 10891 C 1048.23 3.43079 -0.123031 0
M  V30 10892 C 1047.31 4.08639 -1.13466 0
M  V30 10893 N 1047.7 4.49377 -2.32152 0
M  V30 10894 C 1046 4.35265 -0.972632 0
M  V30 10895 C 1046.7 5.00464 -2.96497 0
M  V30 10896 N 1045.68 4.95275 -2.24061 0
M  V30 10897 H 1049.48 2.46183 -1.60534 0
M  V30 10898 H 1047 1.30275 -0.969644 0
M  V30 10899 H 1048.99 4.1653 0.17569 0
M  V30 10900 H 1047.65 3.15304 0.775461 0
M  V30 10901 H 1048.66 4.42105 -2.69748 0
M  V30 10902 H 1045.34 4.17301 -0.12876 0
M  V30 10903 H 1046.73 5.41785 -3.9739 0
M  V30 10904 N 1049.45 0.880621 1.30701 0
M  V30 10905 C 1050.7 0.492957 1.95583 0
M  V30 10906 C 1051.01 -0.961863 1.70316 0
M  V30 10907 O 1052.22 -1.45617 2.29146 0
M  V30 10908 C 1050.68 0.830656 3.50183 0
M  V30 10909 C 1050.28 2.30295 3.84276 0
M  V30 10910 C 1052.03 0.511979 4.21401 0
M  V30 10911 C 1049.93 2.58251 5.32034 0
M  V30 10912 H 1048.86 0.18062 0.732047 0
M  V30 10913 H 1051.52 1.075 1.48715 0
M  V30 10914 H 1049.9 0.177752 3.95601 0
M  V30 10915 H 1051.07 2.99981 3.49783 0
M  V30 10916 H 1049.39 2.58873 3.2615 0
M  V30 10917 H 1051.98 0.697935 5.30125 0
M  V30 10918 H 1052.33 -0.548327 4.12673 0
M  V30 10919 H 1052.86 1.12189 3.81652 0
M  V30 10920 H 1049.6 3.63005 5.45809 0
M  V30 10921 H 1049.12 1.9317 5.67843 0
M  V30 10922 H 1050.8 2.43527 5.99419 0
M  V30 10923 N 1050.93 -1.4397 0.641131 0
M  V30 10924 C 1052.18 -2.02246 0.14985 0
M  V30 10925 C 1052.51 -1.50387 -1.22871 0
M  V30 10926 O 1051.78 -0.692003 -1.81773 0
M  V30 10927 C 1052.07 -3.59798 0.147449 0
M  V30 10928 C 1051.92 -4.21916 1.55907 0
M  V30 10929 C 1053.24 -4.36985 -0.522667 0
M  V30 10930 H 1050.36 -0.734875 0.0559274 0
M  V30 10931 H 1053 -1.71418 0.819513 0
M  V30 10932 H 1051.15 -3.86193 -0.422789 0
M  V30 10933 H 1052.82 -4.06594 2.17896 0
M  V30 10934 H 1051.06 -3.79028 2.10998 0
M  V30 10935 H 1051.74 -5.30964 1.50934 0
M  V30 10936 H 1054.21 -4.16083 -0.0376226 0
M  V30 10937 H 1053.09 -5.46676 -0.493572 0
M  V30 10938 H 1053.35 -4.12335 -1.59475 0
M  V30 10939 N 1052.41 -0.382291 -1.52893 0
M  V30 10940 C 1053.34 0.500194 -2.22651 0
M  V30 10941 C 1054.32 1.06969 -1.22459 0
M  V30 10942 O 1055.5 1.12267 -1.51422 0
M  V30 10943 C 1052.63 1.6917 -2.93427 0
M  V30 10944 C 1051.68 1.24811 -4.07829 0
M  V30 10945 S 1052.51 0.235466 -5.34982 0
M  V30 10946 C 1053.66 1.43292 -6.09277 0
M  V30 10947 H 1053.9 -0.0921913 -2.97157 0
M  V30 10948 H 1051.43 -0.16645 -1.535 0
M  V30 10949 H 1053.39 2.37507 -3.34815 0
M  V30 10950 H 1052.05 2.25537 -2.18613 0
M  V30 10951 H 1051.24 2.13754 -4.56426 0
M  V30 10952 H 1050.84 0.643744 -3.68418 0
M  V30 10953 H 1053.14 2.36118 -6.35023 0
M  V30 10954 H 1054.08 0.988003 -7.01173 0
M  V30 10955 H 1054.49 1.64655 -5.39953 0
M  V30 10956 N 1053.89 1.57202 -0.111913 0
M  V30 10957 C 1054.82 2.11995 0.871242 0
M  V30 10958 C 1055.83 1.06102 1.23475 0
M  V30 10959 O 1057.02 1.33497 1.18494 0
M  V30 10960 C 1054.12 2.59874 2.17528 0
M  V30 10961 C 1053.29 3.89788 1.98455 0
M  V30 10962 C 1052.35 4.23339 3.12523 0
M  V30 10963 O 1051.38 4.92277 2.85748 0
M  V30 10964 N 1052.58 3.80089 4.38762 0
M  V30 10965 H 1055.34 2.96976 0.403157 0
M  V30 10966 H 1052.91 1.61737 0.0727159 0
M  V30 10967 H 1054.9 2.79354 2.9282 0
M  V30 10968 H 1053.47 1.79812 2.55707 0
M  V30 10969 H 1052.69 3.79288 1.07396 0
M  V30 10970 H 1053.98 4.74748 1.83007 0
M  V30 10971 H 1053.37 3.24473 4.63394 0
M  V30 10972 H 1051.93 4.04691 5.10949 0
M  V30 10973 N 1055.36 -0.161842 1.56767 0
M  V30 10974 C 1056.59 -0.890953 1.86402 0
M  V30 10975 C 1057 -1.75918 0.696373 0
M  V30 10976 O 1056.34 -1.80461 -0.343463 0
M  V30 10977 C 1056.41 -1.81079 3.10565 0
M  V30 10978 C 1056.07 -1.12121 4.43032 0
M  V30 10979 C 1057.07 -0.482152 5.17659 0
M  V30 10980 C 1054.75 -1.11514 4.89765 0
M  V30 10981 C 1056.75 0.153772 6.37214 0
M  V30 10982 C 1054.43 -0.4754 6.09248 0
M  V30 10983 C 1055.43 0.157944 6.82817 0
M  V30 10984 O 1055.12 0.787579 8.00033 0
M  V30 10985 H 1054.85 -0.26379 0.622407 0
M  V30 10986 H 1057.41 -0.163884 2.04745 0
M  V30 10987 H 1055.64 -2.57842 2.88192 0
M  V30 10988 H 1057.32 -2.41056 3.26568 0
M  V30 10989 H 1058.09 -0.478752 4.82631 0
M  V30 10990 H 1053.97 -1.59752 4.32435 0
M  V30 10991 H 1057.51 0.648716 6.94577 0
M  V30 10992 H 1053.41 -0.476416 6.43739 0
M  V30 10993 H 1054.18 0.687769 8.15605 0
M  V30 10994 N 1056.84 -1.516 -0.430713 0
M  V30 10995 C 1057.77 -1.68084 -1.54347 0
M  V30 10996 C 1058.75 -0.528401 -1.53775 0
M  V30 10997 O 1059.94 -0.753072 -1.72804 0
M  V30 10998 C 1057.06 -1.70048 -2.92919 0
M  V30 10999 C 1056.11 -2.91336 -3.11489 0
M  V30 11000 S 1056.94 -4.52043 -2.87084 0
M  V30 11001 C 1058.1 -4.56761 -4.27926 0
M  V30 11002 H 1058.33 -2.62203 -1.40131 0
M  V30 11003 H 1055.86 -1.41368 -0.620853 0
M  V30 11004 H 1057.82 -1.71864 -3.72791 0
M  V30 11005 H 1056.48 -0.770946 -3.04492 0
M  V30 11006 H 1055.68 -2.8913 -4.1282 0
M  V30 11007 H 1055.28 -2.87296 -2.39451 0
M  V30 11008 H 1057.57 -4.32809 -5.21232 0
M  V30 11009 H 1058.51 -5.58604 -4.35163 0
M  V30 11010 H 1058.92 -3.86014 -4.1189 0
M  V30 11011 N 1058.32 0.686584 -1.41858 0
M  V30 11012 C 1059.55 1.47305 -1.44862 0
M  V30 11013 C 1059.96 1.8912 -0.0549286 0
M  V30 11014 O 1059.3 1.57941 0.938101 0
M  V30 11015 C 1059.36 2.76107 -2.30229 0
M  V30 11016 C 1059.03 2.5644 -3.78269 0
M  V30 11017 C 1060.02 2.21803 -4.70212 0
M  V30 11018 C 1057.71 2.71801 -4.22409 0
M  V30 11019 C 1059.7 2.02778 -6.04284 0
M  V30 11020 C 1057.39 2.52392 -5.56544 0
M  V30 11021 C 1058.39 2.17933 -6.47298 0
M  V30 11022 O 1058.08 1.98701 -7.78956 0
M  V30 11023 H 1057.81 0.460174 -0.495193 0
M  V30 11024 H 1060.36 0.852069 -1.86893 0
M  V30 11025 H 1058.59 3.40644 -1.83026 0
M  V30 11026 H 1060.28 3.37947 -2.24826 0
M  V30 11027 H 1061.05 2.09542 -4.37398 0
M  V30 11028 H 1056.93 2.97605 -3.52069 0
M  V30 11029 H 1060.47 1.75805 -6.75084 0
M  V30 11030 H 1056.37 2.64246 -5.88935 0
M  V30 11031 H 1057.13 2.13393 -7.90193 0
M  V30 11032 N 1059.8 1.27835 0.921735 0
M  V30 11033 C 1061.04 1.14692 1.67253 0
M  V30 11034 C 1061.38 -0.305384 1.91784 0
M  V30 11035 O 1060.65 -1.22286 1.51249 0
M  V30 11036 C 1060.93 1.93743 3.03539 0
M  V30 11037 C 1060.79 3.46991 2.86212 0
M  V30 11038 C 1062.11 1.74658 4.03959 0
M  V30 11039 H 1059.23 0.418021 0.606983 0
M  V30 11040 H 1061.87 1.5706 1.06922 0
M  V30 11041 H 1060.02 1.57738 3.55037 0
M  V30 11042 H 1061.69 3.92858 2.41785 0
M  V30 11043 H 1059.93 3.73029 2.21432 0
M  V30 11044 H 1060.6 3.97551 3.82958 0
M  V30 11045 H 1063.08 2.06063 3.61493 0
M  V30 11046 H 1061.96 2.32353 4.97296 0
M  V30 11047 H 1062.22 0.696019 4.36587 0
M  V30 11048 N 1061.28 -1.12907 1.09954 0
M  V30 11049 C 1062.69 -1.65847 0.857417 0
M  V30 11050 C 1063.04 -1.86372 -0.613176 0
M  V30 11051 O 1062.16 -1.58654 -1.47166 0
M  V30 11052 C 1062.76 -3.01269 1.54991 0
M  V30 11053 C 1061.32 -3.51179 1.35462 0
M  V30 11054 C 1060.46 -2.26307 1.60251 0
M  V30 11055 H 1063.41 -0.96755 1.25794 0
M  V30 11056 H 1063.44 -3.675 0.986091 0
M  V30 11057 H 1062.95 -2.86299 2.6202 0
M  V30 11058 H 1061.05 -3.71343 0.305742 0
M  V30 11059 H 1061.16 -4.30955 2.09318 0
M  V30 11060 H 1059.53 -2.33167 1.02494 0
M  V30 11061 H 1060.31 -2.13896 2.68521 0
M  V30 11062 N 1062.75 -0.88754 -1.30232 0
M  V30 11063 C 1064.16 -0.55745 -1.78184 0
M  V30 11064 C 1064.52 0.926474 -1.72948 0
M  V30 11065 O 1063.64 1.72403 -1.3079 0
M  V30 11066 C 1064.24 -1.00512 -3.23547 0
M  V30 11067 C 1062.79 -0.726402 -3.69324 0
M  V30 11068 C 1061.94 -1.18666 -2.50627 0
M  V30 11069 H 1064.89 -1.07151 -1.17066 0
M  V30 11070 H 1064.91 -0.335185 -3.79021 0
M  V30 11071 H 1064.43 -2.08517 -3.27326 0
M  V30 11072 H 1062.53 0.341548 -3.71031 0
M  V30 11073 H 1062.64 -1.31575 -4.60679 0
M  V30 11074 H 1061 -0.605936 -2.47387 0
M  V30 11075 H 1061.79 -2.2745 -2.57141 0
M  V30 11076 N 1064.23 1.43628 -0.648757 0
M  V30 11077 C 1065.48 2.01465 -0.16002 0
M  V30 11078 C 1065.8 1.51413 1.22878 0
M  V30 11079 O 1065.07 0.724919 1.81994 0
M  V30 11080 H 1063.65 0.744885 -0.0561672 0
M  V30 11081 H 1066.31 1.75897 -0.839422 0
M  V30 11082 H 1065.41 3.1178 -0.141213 0
M  V30 11083 N 1065.71 0.390394 1.52688 0
M  V30 11084 C 1066.67 -0.432149 2.25089 0
M  V30 11085 C 1067.67 -0.989296 1.26766 0
M  V30 11086 O 1068.86 -0.871126 1.50854 0
M  V30 11087 C 1066 -1.60642 3.00678 0
M  V30 11088 H 1067.19 0.201734 2.99221 0
M  V30 11089 H 1064.74 0.142531 1.55649 0
M  V30 11090 H 1065.48 -2.2777 2.3085 0
M  V30 11091 H 1065.26 -1.21361 3.72846 0
M  V30 11092 H 1066.75 -2.18873 3.55647 0
M  V30 11093 N 1067.19 -1.57141 0.120249 0
M  V30 11094 C 1068.6 -1.82256 -0.404931 0
M  V30 11095 C 1068.95 -1.03748 -1.66526 0
M  V30 11096 O 1068.08 -0.274456 -2.14653 0
M  V30 11097 C 1068.67 -3.30588 -0.741431 0
M  V30 11098 C 1067.23 -3.56379 -1.21124 0
M  V30 11099 C 1066.38 -2.76421 -0.220569 0
M  V30 11100 H 1069.33 -1.54897 0.345361 0
M  V30 11101 H 1069.35 -3.45284 -1.59872 0
M  V30 11102 H 1068.86 -3.87701 0.176036 0
M  V30 11103 H 1066.96 -3.04625 -2.14556 0
M  V30 11104 H 1067.07 -4.64952 -1.1557 0
M  V30 11105 H 1065.44 -2.44666 -0.707857 0
M  V30 11106 H 1066.22 -3.36294 0.690018 0
M  V30 11107 N 1068.67 0.153526 -1.5685 0
M  V30 11108 C 1069.92 0.865628 -1.82181 0
M  V30 11109 C 1070.23 1.82629 -0.700434 0
M  V30 11110 O 1071.43 2.58206 -0.839155 0
M  V30 11111 C 1069.89 1.58993 -3.22877 0
M  V30 11112 C 1069.5 0.672006 -4.42931 0
M  V30 11113 C 1071.24 2.2892 -3.57486 0
M  V30 11114 C 1069.15 1.39755 -5.7465 0
M  V30 11115 H 1068.08 0.326993 -0.679406 0
M  V30 11116 H 1070.73 0.118403 -1.83118 0
M  V30 11117 H 1069.11 2.38255 -3.16308 0
M  V30 11118 H 1070.29 -0.0849226 -4.60722 0
M  V30 11119 H 1068.6 0.0814825 -4.1632 0
M  V30 11120 H 1071.2 2.8383 -4.5315 0
M  V30 11121 H 1071.54 3.05105 -2.83226 0
M  V30 11122 H 1072.07 1.56583 -3.65686 0
M  V30 11123 H 1068.81 0.677686 -6.51987 0
M  V30 11124 H 1068.33 2.12736 -5.60806 0
M  V30 11125 H 1070.01 1.94024 -6.17223 0
M  V30 11126 N 1070.14 1.51827 0.422667 0
M  V30 11127 C 1071.56 1.57533 1.00201 0
M  V30 11128 C 1071.91 0.407623 1.91919 0
M  V30 11129 O 1071.03 -0.473763 2.1115 0
M  V30 11130 C 1071.63 2.85508 1.82403 0
M  V30 11131 C 1070.19 2.93737 2.35362 0
M  V30 11132 C 1069.33 2.52343 1.14971 0
M  V30 11133 H 1072.28 1.57391 0.20339 0
M  V30 11134 H 1072.3 2.70097 2.68007 0
M  V30 11135 H 1071.82 3.70477 1.15623 0
M  V30 11136 H 1069.92 2.13231 3.05554 0
M  V30 11137 H 1070.03 3.977 2.67155 0
M  V30 11138 H 1068.39 2.05878 1.49955 0
M  V30 11139 H 1069.18 3.39672 0.497786 0
M  V30 11140 N 1071.62 -0.679052 1.4222 0
M  V30 11141 C 1072.85 -1.47248 1.46058 0
M  V30 11142 C 1073.27 -1.87962 0.0720987 0
M  V30 11143 O 1072.63 -1.5572 -0.928488 0
M  V30 11144 C 1072.68 -2.70067 2.38948 0
M  V30 11145 O 1071.78 -3.68178 1.85791 0
M  V30 11146 H 1071.12 -0.442533 0.495036 0
M  V30 11147 H 1073.65 -0.833263 1.86863 0
M  V30 11148 H 1073.66 -3.18187 2.55385 0
M  V30 11149 H 1072.34 -2.39773 3.39826 0
M  V30 11150 H 1070.92 -3.2719 1.78889 0
M  V30 11151 N 1073.1 -1.28322 -0.914942 0
M  V30 11152 C 1074.05 -1.12146 -2.01722 0
M  V30 11153 C 1075.02 -0.0189279 -1.66089 0
M  V30 11154 O 1076.2 -0.183638 -1.89914 0
M  V30 11155 C 1073.34 -0.78808 -3.35981 0
M  V30 11156 C 1072.46 -1.96954 -3.84491 0
M  V30 11157 C 1071.59 -1.57688 -5.07255 0
M  V30 11158 C 1070.63 -2.72506 -5.48094 0
M  V30 11159 N 1069.77 -2.33741 -6.62049 0
M  V30 11160 H 1074.61 -2.06461 -2.1489 0
M  V30 11161 H 1072.14 -1.0276 -1.05256 0
M  V30 11162 H 1074.1 -0.575546 -4.13211 0
M  V30 11163 H 1072.73 0.118132 -3.22584 0
M  V30 11164 H 1071.78 -2.29423 -3.03429 0
M  V30 11165 H 1073.1 -2.8304 -4.10719 0
M  V30 11166 H 1072.25 -1.32634 -5.92025 0
M  V30 11167 H 1070.99 -0.687291 -4.82833 0
M  V30 11168 H 1069.99 -2.9826 -4.61867 0
M  V30 11169 H 1071.22 -3.62106 -5.74505 0
M  V30 11170 H 1069.16 -1.4725 -6.3926 0
M  V30 11171 H 1069.08 -3.13364 -6.87997 0
M  V30 11172 H 1070.35 -2.11968 -7.50127 0
M  V30 11173 N 1074.58 1.12322 -1.10551 0
M  V30 11174 C 1075.99 1.35858 -0.837543 0
M  V30 11175 C 1076.19 1.94062 0.54241 0
M  V30 11176 O 1075.25 2.1676 1.29505 0
M  V30 11177 C 1076.56 2.299 -1.9382 0
M  V30 11178 C 1078.11 2.43488 -1.96679 0
M  V30 11179 C 1078.59 3.40846 -3.05922 0
M  V30 11180 N 1080.08 3.48404 -3.05236 0
M  V30 11181 C 1080.81 4.2365 -3.86405 0
M  V30 11182 N 1080.31 5.01951 -4.77512 0
M  V30 11183 N 1082.1 4.19068 -3.74618 0
M  V30 11184 H 1074.25 0.729002 -1.99498 0
M  V30 11185 H 1076.52 0.38339 -0.867016 0
M  V30 11186 H 1076.22 1.94309 -2.9315 0
M  V30 11187 H 1076.1 3.30033 -1.82641 0
M  V30 11188 H 1078.48 2.78359 -0.979813 0
M  V30 11189 H 1078.56 1.43239 -2.11934 0
M  V30 11190 H 1078.21 3.06704 -4.04839 0
M  V30 11191 H 1078.14 4.40927 -2.87907 0
M  V30 11192 H 1080.63 2.92545 -2.39219 0
M  V30 11193 H 1080.94 5.56707 -5.36002 0
M  V30 11194 H 1079.29 5.01143 -4.8154 0
M  V30 11195 H 1082.48 3.5698 -3.02792 0
M  V30 11196 H 1082.65 4.77455 -4.38111 0
M  V30 11197 N 1076.06 0.894434 1.2976 0
M  V30 11198 C 1077 0.357958 2.29829 0
M  V30 11199 C 1078 -0.540093 1.6056 0
M  V30 11200 O 1079.2 -0.423478 1.74948 0
M  V30 11201 H 1075.58 0.0971183 0.745702 0
M  V30 11202 H 1077.55 1.21542 2.72526 0
M  V30 11203 C 1076.3 -0.404126 3.45343 0
M  V30 11204 H 1075.62 0.277671 3.98835 0
M  V30 11205 H 1077.06 -0.744446 4.17413 0
M  V30 11206 C 1075.52 -1.6048 2.96222 0
M  V30 11207 O 1076.05 -2.70414 2.97051 0
M  V30 11208 N 1074.26 -1.44517 2.52117 0
M  V30 11209 H 1073.8 -0.55082 2.51642 0
M  V30 11210 H 1073.76 -2.24987 2.1961 0
M  V30 11211 N 1077.53 -1.43282 0.656365 0
M  V30 11212 C 1078.81 -1.9534 0.100816 0
M  V30 11213 C 1079.19 -1.59755 -1.37992 0
M  V30 11214 O 1078.54 -0.884264 -2.10697 0
M  V30 11215 C 1078.75 -3.47237 0.35038 0
M  V30 11216 C 1080.1 -4.23822 0.257001 0
M  V30 11217 O 1081.12 -3.55073 0.283111 0
M  V30 11218 O 1079.98 -5.46192 0.183397 0
M  V30 11219 H 1077.07 -0.826963 -0.00780287 0
M  V30 11220 H 1079.62 -1.53205 0.72982 0
M  V30 11221 H 1078.39 -3.66276 1.37685 0
M  V30 11222 H 1078.02 -3.96378 -0.311539 0
M  V30 11223 N 1079.01 -0.398486 -1.52479 0
M  V30 11224 C 1080.26 0.180752 -2.01692 0
M  V30 11225 C 1080.59 1.46044 -1.28457 0
M  V30 11226 O 1079.84 1.92051 -0.376162 0
M  V30 11227 C 1080.14 0.485909 -3.54081 0
M  V30 11228 C 1079.81 -0.703321 -4.45381 0
M  V30 11229 C 1078.47 -1.02955 -4.70057 0
M  V30 11230 C 1080.82 -1.49848 -4.99194 0
M  V30 11231 C 1078.15 -2.15231 -5.45795 0
M  V30 11232 C 1080.5 -2.61192 -5.76161 0
M  V30 11233 C 1079.17 -2.94313 -5.99113 0
M  V30 11234 H 1078.44 0.0661417 -0.738042 0
M  V30 11235 H 1081.08 -0.53772 -1.83796 0
M  V30 11236 H 1079.39 1.28582 -3.701 0
M  V30 11237 H 1081.09 0.946872 -3.89661 0
M  V30 11238 H 1077.68 -0.439062 -4.26345 0
M  V30 11239 H 1081.86 -1.25968 -4.80048 0
M  V30 11240 H 1077.12 -2.41252 -5.61789 0
M  V30 11241 H 1081.29 -3.23201 -6.16858 0
M  V30 11242 H 1078.92 -3.81431 -6.57583 0
M  V30 11243 N 1080.49 1.57075 -0.12858 0
M  V30 11244 C 1081.72 2.00305 0.537839 0
M  V30 11245 C 1082.14 1.00787 1.58819 0
M  V30 11246 O 1081.5 -0.0190839 1.8129 0
M  V30 11247 C 1081.55 3.42371 1.13201 0
M  V30 11248 O 1080.65 3.45786 2.24735 0
M  V30 11249 H 1079.99 0.650456 0.133428 0
M  V30 11250 H 1082.52 2.03415 -0.219882 0
M  V30 11251 H 1082.53 3.80783 1.4652 0
M  V30 11252 H 1081.21 4.14315 0.362713 0
M  V30 11253 H 1079.78 3.19201 1.92783 0
M  V30 11254 N 1081.97 -0.145205 1.5693 0
M  V30 11255 C 1083.22 -0.85395 1.84606 0
M  V30 11256 C 1083.57 -1.78709 0.712811 0
M  V30 11257 O 1082.86 -1.89406 -0.289108 0
M  V30 11258 C 1083.06 -1.66391 3.16305 0
M  V30 11259 C 1082.89 -0.810698 4.42332 0
M  V30 11260 C 1081.66 -0.475623 5.03057 0
M  V30 11261 C 1083.85 -0.140213 5.14109 0
M  V30 11262 N 1081.84 0.390996 6.12654 0
M  V30 11263 C 1083.21 0.586471 6.1722 0
M  V30 11264 C 1085.26 -0.0610725 4.97863 0
M  V30 11265 C 1083.97 1.38483 7.05844 0
M  V30 11266 C 1085.99 0.724026 5.86951 0
M  V30 11267 C 1085.35 1.43899 6.89545 0
M  V30 11268 H 1081.45 -0.290253 0.726138 0
M  V30 11269 H 1084.04 -0.119211 1.94335 0
M  V30 11270 H 1082.21 -2.36987 3.0772 0
M  V30 11271 H 1083.94 -2.31596 3.31882 0
M  V30 11272 H 1080.69 -0.811824 4.6659 0
M  V30 11273 H 1081.12 0.815383 6.72072 0
M  V30 11274 H 1085.76 -0.599475 4.18529 0
M  V30 11275 H 1083.48 1.93448 7.84604 0
M  V30 11276 H 1087.06 0.787276 5.76449 0
M  V30 11277 H 1085.94 2.03674 7.57289 0
M  V30 11278 N 1083.45 -1.52049 -0.414609 0
M  V30 11279 C 1084.38 -1.7122 -1.52369 0
M  V30 11280 C 1085.39 -0.592634 -1.5163 0
M  V30 11281 O 1086.58 -0.867634 -1.55995 0
M  V30 11282 C 1083.68 -1.73247 -2.91271 0
M  V30 11283 C 1082.85 -3.02153 -3.16263 0
M  V30 11284 C 1081.91 -2.96066 -4.35007 0
M  V30 11285 O 1080.94 -3.69981 -4.32554 0
M  V30 11286 N 1082.14 -2.13478 -5.39822 0
M  V30 11287 H 1084.91 -2.66902 -1.3632 0
M  V30 11288 H 1082.47 -1.50218 -0.603842 0
M  V30 11289 H 1084.46 -1.66714 -3.68766 0
M  V30 11290 H 1083.03 -0.85062 -3.00804 0
M  V30 11291 H 1082.25 -3.22379 -2.2686 0
M  V30 11292 H 1083.54 -3.87439 -3.29801 0
M  V30 11293 H 1082.94 -1.52844 -5.44661 0
M  V30 11294 H 1081.49 -2.12805 -6.16082 0
M  V30 11295 N 1084.93 0.6715 -1.42579 0
M  V30 11296 C 1086.15 1.46471 -1.46836 0
M  V30 11297 C 1086.58 1.87921 -0.0820658 0
M  V30 11298 O 1085.93 1.5621 0.920217 0
M  V30 11299 C 1085.98 2.68796 -2.40377 0
M  V30 11300 O 1085.09 3.67188 -1.87741 0
M  V30 11301 H 1084.43 0.439901 -0.497376 0
M  V30 11302 H 1086.96 0.823342 -1.87303 0
M  V30 11303 H 1086.97 3.16828 -2.57068 0
M  V30 11304 H 1085.64 2.37967 -3.41093 0
M  V30 11305 H 1084.22 3.26237 -1.80621 0
M  V30 11306 N 1086.4 1.28806 0.908124 0
M  V30 11307 C 1087.65 1.16058 1.65454 0
M  V30 11308 C 1087.97 -0.290057 1.92831 0
M  V30 11309 O 1087.24 -1.20001 1.54843 0
M  V30 11310 H 1085.82 0.426522 0.61326 0
M  V30 11311 H 1088.48 1.61614 1.08936 0
M  V30 11312 H 1087.58 1.70437 2.61453 0
M  V30 11313 N 1087.88 -1.11734 1.11145 0
M  V30 11314 C 1089.11 -1.87215 0.880811 0
M  V30 11315 C 1089.52 -1.80016 -0.569195 0
M  V30 11316 O 1088.88 -1.17926 -1.39283 0
M  V30 11317 C 1088.93 -3.36146 1.32998 0
M  V30 11318 O 1088.65 -3.43187 2.72313 0
M  V30 11319 C 1090.15 -4.28542 1.1343 0
M  V30 11320 H 1087.37 -0.592123 0.315645 0
M  V30 11321 H 1089.92 -1.41335 1.478 0
M  V30 11322 H 1088.07 -3.79542 0.776308 0
M  V30 11323 H 1088.49 -4.359 2.91705 0
M  V30 11324 H 1089.96 -5.31295 1.49764 0
M  V30 11325 H 1090.44 -4.39138 0.0735859 0
M  V30 11326 H 1091.04 -3.90935 1.67481 0
M  V30 11327 N 1089.36 -0.901303 -1.29284 0
M  V30 11328 C 1090.31 -0.370142 -2.29636 0
M  V30 11329 C 1091.3 0.53157 -1.60844 0
M  V30 11330 O 1092.51 0.414194 -1.7517 0
M  V30 11331 H 1088.88 -0.101072 -0.745177 0
M  V30 11332 H 1090.85 -1.22985 -2.71877 0
M  V30 11333 C 1089.6 0.385806 -3.45553 0
M  V30 11334 H 1088.93 -0.298818 -3.98682 0
M  V30 11335 H 1090.37 0.722299 -4.17802 0
M  V30 11336 C 1088.82 1.58907 -2.97069 0
M  V30 11337 O 1089.35 2.68835 -2.98481 0
M  V30 11338 N 1087.56 1.43178 -2.5288 0
M  V30 11339 H 1087.11 0.537467 -2.51931 0
M  V30 11340 H 1087.07 2.23819 -2.208 0
M  V30 11341 N 1090.84 1.42931 -0.663954 0
M  V30 11342 C 1091.77 2.28089 0.0710318 0
M  V30 11343 C 1092.75 1.40446 0.819375 0
M  V30 11344 O 1093.93 1.69887 0.816738 0
M  V30 11345 C 1091.06 3.20079 1.10756 0
M  V30 11346 C 1090.11 4.24055 0.456045 0
M  V30 11347 S 1090.94 5.29813 -0.778356 0
M  V30 11348 C 1092.09 6.25371 0.257373 0
M  V30 11349 H 1092.33 2.90078 -0.651315 0
M  V30 11350 H 1089.86 1.47601 -0.453137 0
M  V30 11351 H 1091.82 3.7362 1.70055 0
M  V30 11352 H 1090.48 2.57248 1.80229 0
M  V30 11353 H 1089.67 4.88564 1.23779 0
M  V30 11354 H 1089.27 3.73947 -0.0630832 0
M  V30 11355 H 1091.57 6.68172 1.12037 0
M  V30 11356 H 1092.51 7.0722 -0.352969 0
M  V30 11357 H 1092.92 5.61324 0.597991 0
M  V30 11358 N 1092.32 0.406567 1.52266 0
M  V30 11359 C 1093.54 -0.172101 2.06685 0
M  V30 11360 C 1093.97 -1.38306 1.27488 0
M  V30 11361 O 1093.32 -1.78726 0.304441 0
M  V30 11362 C 1093.37 -0.503463 3.57068 0
M  V30 11363 O 1092.48 -1.59485 3.80314 0
M  V30 11364 H 1091.82 -0.0153209 0.663823 0
M  V30 11365 H 1094.35 0.579025 1.96236 0
M  V30 11366 H 1094.36 -0.762833 4.00805 0
M  V30 11367 H 1093.03 0.381775 4.14144 0
M  V30 11368 H 1091.61 -1.32784 3.48458 0
M  V30 11369 N 1093.79 -1.57004 0.136909 0
M  V30 11370 C 1095.04 -1.94972 -0.51662 0
M  V30 11371 C 1095.36 -1.02367 -1.66674 0
M  V30 11372 O 1096.56 -1.29873 -2.38423 0
M  V30 11373 C 1095.02 -3.4657 -0.970435 0
M  V30 11374 C 1094.63 -4.47741 0.152204 0
M  V30 11375 C 1096.37 -3.93423 -1.59432 0
M  V30 11376 C 1094.28 -5.90537 -0.319315 0
M  V30 11377 H 1093.21 -0.727873 -0.196766 0
M  V30 11378 H 1095.86 -1.82181 0.219637 0
M  V30 11379 H 1094.24 -3.54657 -1.76165 0
M  V30 11380 H 1095.41 -4.5134 0.928925 0
M  V30 11381 H 1093.73 -4.10746 0.683867 0
M  V30 11382 H 1096.33 -4.97539 -1.95856 0
M  V30 11383 H 1096.67 -3.34404 -2.47951 0
M  V30 11384 H 1097.2 -3.8821 -0.868193 0
M  V30 11385 H 1093.94 -6.53352 0.530248 0
M  V30 11386 H 1093.46 -5.90321 -1.06213 0
M  V30 11387 H 1095.14 -6.42346 -0.774662 0
M  V30 11388 N 1095.27 0.136881 -1.57004 0
M  V30 11389 C 1096.52 0.847775 -1.83899 0
M  V30 11390 C 1096.85 1.80709 -0.719332 0
M  V30 11391 O 1096.1 1.93527 0.290838 0
M  V30 11392 C 1096.4 1.64711 -3.17183 0
M  V30 11393 C 1096.07 0.833683 -4.43126 0
M  V30 11394 C 1094.73 0.609306 -4.77327 0
M  V30 11395 C 1097.08 0.265504 -5.20523 0
M  V30 11396 C 1094.41 -0.193793 -5.8638 0
M  V30 11397 C 1096.76 -0.524688 -6.3042 0
M  V30 11398 C 1095.43 -0.759548 -6.63164 0
M  V30 11399 H 1094.7 0.310223 -0.672936 0
M  V30 11400 H 1097.34 0.110937 -1.91178 0
M  V30 11401 H 1095.65 2.45435 -3.054 0
M  V30 11402 H 1097.34 2.20081 -3.3521 0
M  V30 11403 H 1093.93 1.01864 -4.16319 0
M  V30 11404 H 1098.12 0.426109 -4.94467 0
M  V30 11405 H 1093.37 -0.385153 -6.10186 0
M  V30 11406 H 1097.55 -0.972033 -6.89583 0
M  V30 11407 H 1095.18 -1.38369 -7.47501 0
M  V30 11408 N 1096.75 1.52266 0.40654 0
M  V30 11409 C 1098 1.67654 1.15168 0
M  V30 11410 C 1098.35 0.402751 1.88137 0
M  V30 11411 O 1097.64 -0.60291 1.81867 0
M  V30 11412 C 1097.84 2.8389 2.1712 0
M  V30 11413 C 1097.67 4.2245 1.54162 0
M  V30 11414 C 1096.44 4.87937 1.31322 0
M  V30 11415 C 1098.64 5.04462 1.00112 0
M  V30 11416 N 1096.62 6.10525 0.642842 0
M  V30 11417 C 1097.99 6.18307 0.457805 0
M  V30 11418 C 1100.04 4.89775 0.89583 0
M  V30 11419 C 1098.75 7.19074 -0.180477 0
M  V30 11420 C 1100.77 5.90777 0.271397 0
M  V30 11421 C 1100.13 7.03915 -0.261225 0
M  V30 11422 H 1096.23 0.667121 0.408012 0
M  V30 11423 H 1098.82 1.89577 0.443695 0
M  V30 11424 H 1096.99 2.63578 2.85274 0
M  V30 11425 H 1098.72 2.88302 2.84014 0
M  V30 11426 H 1095.48 4.46345 1.58344 0
M  V30 11427 H 1095.9 6.76223 0.324204 0
M  V30 11428 H 1100.54 4.0253 1.29344 0
M  V30 11429 H 1098.26 8.05942 -0.590141 0
M  V30 11430 H 1101.85 5.81485 0.191417 0
M  V30 11431 H 1100.73 7.80731 -0.736791 0
M  V30 11432 N 1098.23 -0.663929 1.42933 0
M  V30 11433 C 1099.16 -1.78946 1.43217 0
M  V30 11434 C 1100.17 -1.59426 0.329727 0
M  V30 11435 O 1101.36 -1.68344 0.5935 0
M  V30 11436 C 1098.46 -3.16217 1.21902 0
M  V30 11437 C 1097.64 -3.6249 2.44785 0
M  V30 11438 C 1096.69 -4.78529 2.18853 0
M  V30 11439 O 1095.72 -4.88516 2.92131 0
M  V30 11440 N 1096.92 -5.67994 1.19845 0
M  V30 11441 H 1099.69 -1.79184 2.40236 0
M  V30 11442 H 1097.25 -0.847404 1.37952 0
M  V30 11443 H 1099.24 -3.91517 1.02454 0
M  V30 11444 H 1097.81 -3.10814 0.333676 0
M  V30 11445 H 1097.03 -2.77751 2.79729 0
M  V30 11446 H 1098.32 -3.90151 3.26588 0
M  V30 11447 H 1097.72 -5.62588 0.59259 0
M  V30 11448 H 1096.27 -6.4306 1.06382 0
M  V30 11449 N 1099.71 -1.29285 -0.901281 0
M  V30 11450 C 1100.66 -1.10907 -1.99208 0
M  V30 11451 C 1101.64 -0.0289641 -1.60874 0
M  V30 11452 O 1102.83 -0.2505 -1.75218 0
M  V30 11453 C 1099.96 -0.785997 -3.34181 0
M  V30 11454 C 1099.05 -1.90556 -3.78879 0
M  V30 11455 N 1099.44 -3.14888 -3.95827 0
M  V30 11456 C 1097.74 -1.79824 -4.08141 0
M  V30 11457 C 1098.44 -3.87919 -4.33467 0
M  V30 11458 N 1097.41 -3.15852 -4.42424 0
M  V30 11459 H 1101.22 -2.05227 -2.10379 0
M  V30 11460 H 1098.73 -1.20387 -1.08999 0
M  V30 11461 H 1100.73 -0.635381 -4.1203 0
M  V30 11462 H 1099.39 0.149302 -3.24357 0
M  V30 11463 H 1100.4 -3.5036 -3.81403 0
M  V30 11464 H 1097.07 -0.935548 -4.06883 0
M  V30 11465 H 1098.46 -4.94909 -4.54439 0
M  V30 11466 N 1101.18 1.11143 -1.11736 0
M  V30 11467 C 1102.43 1.82586 -0.866412 0
M  V30 11468 C 1102.75 1.85227 0.609593 0
M  V30 11469 O 1102.02 1.32505 1.44288 0
M  V30 11470 H 1100.6 0.676149 -0.31754 0
M  V30 11471 H 1103.27 1.34516 -1.41037 0
M  V30 11472 H 1102.36 2.8635 -1.24136 0
M  V30 11473 N 1102.66 0.908147 1.28804 0
M  V30 11474 C 1103.59 0.34957 2.26519 0
M  V30 11475 C 1104.61 -0.508845 1.54643 0
M  V30 11476 O 1105.8 -0.324633 1.75523 0
M  V30 11477 C 1102.9 -0.519461 3.34895 0
M  V30 11478 C 1102.07 0.315157 4.36263 0
M  V30 11479 C 1101.13 -0.488059 5.23932 0
M  V30 11480 O 1100.15 0.0974133 5.69117 0
M  V30 11481 N 1101.36 -1.79233 5.52137 0
M  V30 11482 H 1104.12 1.18945 2.75086 0
M  V30 11483 H 1101.68 0.77351 1.42227 0
M  V30 11484 H 1103.67 -1.0634 3.90479 0
M  V30 11485 H 1102.24 -1.26004 2.8608 0
M  V30 11486 H 1101.46 1.04049 3.8022 0
M  V30 11487 H 1102.75 0.886438 5.01019 0
M  V30 11488 H 1102.15 -2.2906 5.1725 0
M  V30 11489 H 1100.71 -2.28322 6.10502 0
M  V30 11490 N 1104.14 -1.42577 0.671525 0
M  V30 11491 C 1105.55 -1.84736 0.270084 0
M  V30 11492 C 1105.9 -1.56212 -1.18711 0
M  V30 11493 O 1105.03 -1.02028 -1.90838 0
M  V30 11494 C 1105.62 -3.35334 0.483409 0
M  V30 11495 C 1104.18 -3.76154 0.136119 0
M  V30 11496 C 1103.33 -2.66179 0.777444 0
M  V30 11497 H 1106.28 -1.3247 0.873919 0
M  V30 11498 H 1106.3 -3.79573 -0.265483 0
M  V30 11499 H 1105.81 -3.56063 1.54405 0
M  V30 11500 H 1103.91 -3.61033 -0.921209 0
M  V30 11501 H 1104.03 -4.75645 0.574356 0
M  V30 11502 H 1102.39 -2.53841 0.209055 0
M  V30 11503 H 1103.17 -2.89732 1.84148 0
M  V30 11504 N 1105.62 -0.414636 -1.52048 0
M  V30 11505 C 1106.87 0.159349 -2.01872 0
M  V30 11506 C 1107.19 1.44674 -1.29999 0
M  V30 11507 O 1106.45 1.91641 -0.396511 0
M  V30 11508 C 1106.75 0.448327 -3.54577 0
M  V30 11509 C 1106.41 -0.75052 -4.4461 0
M  V30 11510 C 1105.08 -1.07935 -4.68939 0
M  V30 11511 C 1107.43 -1.55134 -4.97577 0
M  V30 11512 C 1104.76 -2.21008 -5.43482 0
M  V30 11513 C 1107.11 -2.67288 -5.73358 0
M  V30 11514 C 1105.77 -3.00651 -5.95958 0
M  V30 11515 H 1105.04 0.05831 -0.738702 0
M  V30 11516 H 1107.69 -0.557184 -1.83215 0
M  V30 11517 H 1105.99 1.24649 -3.71443 0
M  V30 11518 H 1107.69 0.90549 -3.90643 0
M  V30 11519 H 1104.28 -0.484257 -4.25856 0
M  V30 11520 H 1108.46 -1.31052 -4.78685 0
M  V30 11521 H 1103.72 -2.47197 -5.59199 0
M  V30 11522 H 1107.89 -3.29725 -6.13396 0
M  V30 11523 H 1105.52 -3.88384 -6.535 0
M  V30 11524 N 1107.1 1.56929 -0.145233 0
M  V30 11525 C 1108.51 1.82877 0.375884 0
M  V30 11526 C 1108.86 1.06384 1.64854 0
M  V30 11527 O 1107.98 0.30857 2.14189 0
M  V30 11528 C 1108.58 3.31725 0.688744 0
M  V30 11529 C 1107.14 3.58261 1.15439 0
M  V30 11530 C 1106.28 2.76737 0.176565 0
M  V30 11531 H 1109.24 1.54328 -0.36996 0
M  V30 11532 H 1109.26 3.47784 1.54359 0
M  V30 11533 H 1108.77 3.87371 -0.237694 0
M  V30 11534 H 1106.87 3.08 2.09683 0
M  V30 11535 H 1106.98 4.66732 1.08158 0
M  V30 11536 H 1105.35 2.45761 0.668843 0
M  V30 11537 H 1106.13 3.35154 -0.743432 0
M  V30 11538 N 1108.58 -0.128553 1.57075 0
M  V30 11539 C 1109.99 -0.481794 1.52154 0
M  V30 11540 C 1110.19 -1.82381 0.856694 0
M  V30 11541 O 1109.25 -2.48725 0.434989 0
M  V30 11542 C 1110.56 -0.475091 2.96923 0
M  V30 11543 C 1112.11 -0.559315 3.07962 0
M  V30 11544 C 1112.58 -0.583095 4.54273 0
M  V30 11545 N 1114.07 -0.644803 4.5869 0
M  V30 11546 C 1114.81 -0.684493 5.693 0
M  V30 11547 N 1114.31 -0.682407 6.89431 0
M  V30 11548 N 1116.1 -0.726777 5.57382 0
M  V30 11549 H 1108.25 0.750894 1.98684 0
M  V30 11550 H 1110.51 0.27593 0.906955 0
M  V30 11551 H 1110.22 0.443157 3.48897 0
M  V30 11552 H 1110.09 -1.30637 3.53856 0
M  V30 11553 H 1112.48 -1.46798 2.55997 0
M  V30 11554 H 1112.56 0.299468 2.54041 0
M  V30 11555 H 1112.2 0.32149 5.06881 0
M  V30 11556 H 1112.13 -1.45863 5.05996 0
M  V30 11557 H 1114.63 -0.652967 3.72216 0
M  V30 11558 H 1114.94 -0.715051 7.69485 0
M  V30 11559 H 1113.28 -0.649984 6.91954 0
M  V30 11560 H 1116.47 -0.725704 4.6244 0
M  V30 11561 H 1116.65 -0.754242 6.43596 0
M  V30 11562 N 1110.05 -1.5248 -0.398459 0
M  V30 11563 C 1111.3 -1.67061 -1.14441 0
M  V30 11564 C 1111.63 -0.405821 -1.90219 0
M  V30 11565 O 1110.88 0.611532 -1.859 0
M  V30 11566 C 1111.18 -2.85038 -2.15611 0
M  V30 11567 C 1110.85 -4.22847 -1.56561 0
M  V30 11568 C 1109.51 -4.60329 -1.40182 0
M  V30 11569 C 1111.86 -5.08683 -1.1354 0
M  V30 11570 C 1109.19 -5.81314 -0.793149 0
M  V30 11571 C 1111.54 -6.30284 -0.540866 0
M  V30 11572 C 1110.21 -6.66505 -0.364297 0
M  V30 11573 H 1109.48 -0.611321 -0.418769 0
M  V30 11574 H 1112.12 -1.86604 -0.430241 0
M  V30 11575 H 1110.43 -2.59873 -2.93212 0
M  V30 11576 H 1112.13 -2.93516 -2.73221 0
M  V30 11577 H 1108.72 -3.93316 -1.70295 0
M  V30 11578 H 1112.9 -4.80301 -1.24999 0
M  V30 11579 H 1108.16 -6.07994 -0.64446 0
M  V30 11580 H 1112.33 -6.96115 -0.199167 0
M  V30 11581 H 1109.96 -7.60121 0.109439 0
M  V30 11582 N 1111.53 0.65634 -1.43283 0
M  V30 11583 C 1112.76 1.44906 -1.48382 0
M  V30 11584 C 1113.18 1.87823 -0.101993 0
M  V30 11585 O 1112.54 1.57178 0.903597 0
M  V30 11586 C 1112.59 2.66231 -2.43215 0
M  V30 11587 O 1111.69 3.65176 -1.91625 0
M  V30 11588 H 1111.03 0.434601 -0.502014 0
M  V30 11589 H 1113.56 0.803429 -1.88165 0
M  V30 11590 H 1113.57 3.14083 -2.60414 0
M  V30 11591 H 1112.25 2.34336 -3.43598 0
M  V30 11592 H 1110.82 3.24302 -1.84072 0
M  V30 11593 N 1113.01 1.29761 0.894412 0
M  V30 11594 C 1113.94 1.17902 2.01547 0
M  V30 11595 C 1114.92 0.0719402 1.69948 0
M  V30 11596 O 1116.11 0.252338 1.92554 0
M  V30 11597 C 1113.24 0.860262 3.36477 0
M  V30 11598 C 1112.19 1.92424 3.82305 0
M  V30 11599 C 1111.52 1.45868 5.14419 0
M  V30 11600 C 1112.82 3.33391 4.02054 0
M  V30 11601 H 1114.51 2.11688 2.11727 0
M  V30 11602 H 1112.06 1.01916 1.01731 0
M  V30 11603 H 1114.01 0.763987 4.14417 0
M  V30 11604 H 1112.73 -0.113289 3.26403 0
M  V30 11605 H 1111.39 2.00999 3.06586 0
M  V30 11606 H 1111.04 0.473654 5.00765 0
M  V30 11607 H 1110.74 2.17028 5.46052 0
M  V30 11608 H 1112.26 1.37601 5.94894 0
M  V30 11609 H 1113.68 3.27628 4.7046 0
M  V30 11610 H 1112.07 4.02555 4.4505 0
M  V30 11611 H 1113.14 3.75978 3.06216 0
M  V30 11612 N 1114.49 -1.10549 1.12324 0
M  V30 11613 C 1115.9 -1.63991 0.892402 0
M  V30 11614 C 1116.25 -1.87631 -0.573506 0
M  V30 11615 O 1115.37 -1.6174 -1.43768 0
M  V30 11616 C 1115.97 -2.97914 1.61347 0
M  V30 11617 C 1114.53 -3.48227 1.42881 0
M  V30 11618 C 1113.68 -2.22857 1.65015 0
M  V30 11619 H 1116.63 -0.94065 1.27818 0
M  V30 11620 H 1116.65 -3.65326 1.06382 0
M  V30 11621 H 1116.16 -2.80677 2.68034 0
M  V30 11622 H 1114.26 -3.70611 0.384441 0
M  V30 11623 H 1114.37 -4.26419 2.18413 0
M  V30 11624 H 1112.74 -2.30941 1.07417 0
M  V30 11625 H 1113.52 -2.08152 2.72997 0
M  V30 11626 N 1115.97 -0.914965 -1.28321 0
M  V30 11627 C 1117.21 -0.548749 -1.94923 0
M  V30 11628 C 1117.54 0.907776 -1.72016 0
M  V30 11629 O 1116.8 1.66097 -1.03491 0
M  V30 11630 C 1117.09 -0.805805 -3.48198 0
M  V30 11631 C 1116.76 -2.24207 -3.91206 0
M  V30 11632 C 1115.42 -2.63475 -4.02659 0
M  V30 11633 C 1117.77 -3.17667 -4.13204 0
M  V30 11634 C 1115.1 -3.95353 -4.3349 0
M  V30 11635 C 1117.45 -4.4911 -4.45514 0
M  V30 11636 C 1116.12 -4.8823 -4.55179 0
M  V30 11637 H 1115.39 -0.200801 -0.713274 0
M  V30 11638 H 1118.04 -1.15652 -1.52633 0
M  V30 11639 H 1116.34 -0.115244 -3.9163 0
M  V30 11640 H 1118.04 -0.501609 -3.9785 0
M  V30 11641 H 1114.63 -1.92737 -3.82819 0
M  V30 11642 H 1118.81 -2.88537 -4.03807 0
M  V30 11643 H 1114.07 -4.25362 -4.39178 0
M  V30 11644 H 1118.24 -5.21542 -4.61483 0
M  V30 11645 H 1115.87 -5.90451 -4.78823 0
M  V30 11646 N 1117.44 1.42219 -0.679077 0
M  V30 11647 C 1118.37 2.33493 -0.0174528 0
M  V30 11648 C 1119.35 1.50915 0.78477 0
M  V30 11649 O 1120.54 1.79504 0.741065 0
M  V30 11650 C 1117.67 3.34576 0.931463 0
M  V30 11651 C 1116.62 4.2734 0.237527 0
M  V30 11652 C 1115.95 5.18664 1.29967 0
M  V30 11653 C 1117.25 5.14729 -0.886082 0
M  V30 11654 H 1118.94 2.89068 -0.779748 0
M  V30 11655 H 1116.49 1.38993 -0.376419 0
M  V30 11656 H 1118.44 3.97343 1.40343 0
M  V30 11657 H 1117.17 2.77315 1.72523 0
M  V30 11658 H 1115.83 3.65973 -0.214245 0
M  V30 11659 H 1115.47 4.57727 2.08554 0
M  V30 11660 H 1115.17 5.81558 0.840463 0
M  V30 11661 H 1116.7 5.84308 1.77249 0
M  V30 11662 H 1118.11 5.71158 -0.495141 0
M  V30 11663 H 1116.51 5.86478 -1.27135 0
M  V30 11664 H 1117.58 4.52874 -1.733 0
M  V30 11665 N 1118.92 0.422693 1.51826 0
M  V30 11666 C 1120.15 -0.15017 2.06856 0
M  V30 11667 C 1120.57 -1.36946 1.28948 0
M  V30 11668 O 1119.93 -1.78393 0.32338 0
M  V30 11669 C 1119.98 -0.465563 3.57582 0
M  V30 11670 O 1119.08 -1.55442 3.81984 0
M  V30 11671 H 1118.42 -0.00827931 0.663948 0
M  V30 11672 H 1120.95 0.599806 1.95611 0
M  V30 11673 H 1120.96 -0.720279 4.01592 0
M  V30 11674 H 1119.64 0.425679 4.13716 0
M  V30 11675 H 1118.21 -1.29081 3.49846 0
M  V30 11676 N 1120.4 -1.5685 0.153553 0
M  V30 11677 C 1121.65 -1.95509 -0.495911 0
M  V30 11678 C 1121.96 -1.04129 -1.65579 0
M  V30 11679 O 1123.17 -1.32394 -2.37032 0
M  V30 11680 C 1121.62 -3.47579 -0.933622 0
M  V30 11681 C 1121.23 -4.47555 0.199684 0
M  V30 11682 C 1122.98 -3.95092 -1.55251 0
M  V30 11683 C 1120.88 -5.90843 -0.256663 0
M  V30 11684 H 1119.81 -0.729919 -0.189035 0
M  V30 11685 H 1122.46 -1.81938 0.238947 0
M  V30 11686 H 1120.85 -3.56506 -1.72394 0
M  V30 11687 H 1122.02 -4.50329 0.976744 0
M  V30 11688 H 1120.33 -4.09997 0.727394 0
M  V30 11689 H 1122.93 -4.99588 -1.90567 0
M  V30 11690 H 1123.27 -3.37015 -2.4439 0
M  V30 11691 H 1123.81 -3.89109 -0.826969 0
M  V30 11692 H 1120.55 -6.52753 0.599515 0
M  V30 11693 H 1120.07 -5.91414 -0.999458 0
M  V30 11694 H 1121.75 -6.43131 -0.70649 0
M  V30 11695 N 1121.88 0.120221 -1.57141 0
M  V30 11696 C 1122.84 1.13159 -1.99318 0
M  V30 11697 C 1123.84 1.34376 -0.883158 0
M  V30 11698 O 1125.03 1.30914 -1.14922 0
M  V30 11699 C 1122.16 2.48632 -2.33227 0
M  V30 11700 H 1123.36 0.769119 -2.8987 0
M  V30 11701 H 1120.91 0.364475 -1.51991 0
M  V30 11702 H 1121.64 2.89802 -1.45551 0
M  V30 11703 H 1121.43 2.34587 -3.14184 0
M  V30 11704 H 1122.92 3.21423 -2.66603 0
M  V30 11705 N 1123.36 1.52689 0.390367 0
M  V30 11706 C 1124.58 1.71839 1.16129 0
M  V30 11707 C 1125.01 0.435226 1.82996 0
M  V30 11708 O 1124.36 -0.60889 1.70769 0
M  V30 11709 C 1124.41 2.86784 2.18603 0
M  V30 11710 O 1123.52 2.53662 3.25161 0
M  V30 11711 H 1122.86 0.571455 0.338135 0
M  V30 11712 H 1125.39 1.99475 0.45508 0
M  V30 11713 H 1125.4 3.12239 2.62622 0
M  V30 11714 H 1124.07 3.79872 1.69322 0
M  V30 11715 H 1122.65 2.38942 2.86289 0
M  V30 11716 N 1124.83 -0.648732 1.43629 0
M  V30 11717 C 1125.8 -1.74331 1.488 0
M  V30 11718 C 1126.8 -1.56434 0.372147 0
M  V30 11719 O 1127.99 -1.6225 0.634078 0
M  V30 11720 C 1125.12 -3.13248 1.34494 0
M  V30 11721 H 1126.31 -1.71125 2.46285 0
M  V30 11722 H 1123.87 -0.860798 1.30461 0
M  V30 11723 H 1124.6 -3.22062 0.380345 0
M  V30 11724 H 1124.39 -3.27643 2.15389 0
M  V30 11725 H 1125.88 -3.93056 1.41055 0
M  V30 11726 N 1126.31 -1.30234 -0.887518 0
M  V30 11727 C 1127.54 -1.21652 -1.66986 0
M  V30 11728 C 1127.95 0.223473 -1.87876 0
M  V30 11729 O 1127.29 1.15993 -1.42448 0
M  V30 11730 C 1127.36 -1.87173 -3.06931 0
M  V30 11731 C 1127.02 -3.36496 -3.09224 0
M  V30 11732 C 1128.02 -4.3253 -2.88469 0
M  V30 11733 C 1125.7 -3.77901 -3.30902 0
M  V30 11734 C 1127.7 -5.67942 -2.89344 0
M  V30 11735 C 1125.38 -5.13432 -3.31407 0
M  V30 11736 C 1126.38 -6.08263 -3.10653 0
M  V30 11737 O 1126.07 -7.41318 -3.1097 0
M  V30 11738 H 1125.8 -0.422224 -0.527923 0
M  V30 11739 H 1128.35 -1.72349 -1.11736 0
M  V30 11740 H 1126.58 -1.31002 -3.63834 0
M  V30 11741 H 1128.27 -1.72745 -3.67306 0
M  V30 11742 H 1129.04 -4.01873 -2.7152 0
M  V30 11743 H 1124.92 -3.04534 -3.46093 0
M  V30 11744 H 1128.46 -6.41936 -2.73063 0
M  V30 11745 H 1124.36 -5.4373 -3.47891 0
M  V30 11746 H 1125.13 -7.50275 -3.27153 0
M  V30 11747 N 1127.79 1.09952 -1.12909 0
M  V30 11748 C 1129.02 1.8552 -0.909163 0
M  V30 11749 C 1129.43 1.81173 0.545253 0
M  V30 11750 O 1128.77 1.20223 1.38896 0
M  V30 11751 C 1128.83 3.34693 -1.31228 0
M  V30 11752 C 1128.5 3.62794 -2.77902 0
M  V30 11753 C 1129.49 3.58973 -3.76078 0
M  V30 11754 C 1127.18 3.91311 -3.1493 0
M  V30 11755 C 1129.17 3.83271 -5.09296 0
M  V30 11756 C 1126.86 4.15265 -4.48328 0
M  V30 11757 C 1127.86 4.11236 -5.4532 0
M  V30 11758 O 1127.55 4.34576 -6.76313 0
M  V30 11759 H 1127.28 0.59303 -0.324486 0
M  V30 11760 H 1129.83 1.39878 -1.5041 0
M  V30 11761 H 1128.06 3.81016 -0.660573 0
M  V30 11762 H 1129.75 3.9166 -1.06569 0
M  V30 11763 H 1130.52 3.36974 -3.48817 0
M  V30 11764 H 1126.4 3.93575 -2.40041 0
M  V30 11765 H 1129.94 3.80041 -5.84991 0
M  V30 11766 H 1125.84 4.36743 -4.75316 0
M  V30 11767 H 1126.61 4.52065 -6.82334 0
M  V30 11768 N 1129.27 0.921757 1.27833 0
M  V30 11769 C 1130.2 0.360683 2.25332 0
M  V30 11770 C 1131.18 -0.53961 1.53385 0
M  V30 11771 O 1132.36 -0.48146 1.82248 0
M  V30 11772 C 1129.49 -0.483626 3.35229 0
M  V30 11773 C 1128.54 0.352405 4.25042 0
M  V30 11774 S 1129.37 1.76421 5.05605 0
M  V30 11775 C 1130.53 0.92742 6.18991 0
M  V30 11776 H 1130.76 1.18703 2.72574 0
M  V30 11777 H 1128.29 0.72354 1.36397 0
M  V30 11778 H 1130.25 -0.964914 3.98998 0
M  V30 11779 H 1128.91 -1.28444 2.86637 0
M  V30 11780 H 1128.1 -0.293558 5.03144 0
M  V30 11781 H 1127.71 0.767643 3.66037 0
M  V30 11782 H 1130 0.160698 6.77309 0
M  V30 11783 H 1130.94 1.68126 6.87851 0
M  V30 11784 H 1131.35 0.472056 5.62523 0
M  V30 11785 N 1130.75 -1.41857 0.686609 0
M  V30 11786 C 1131.99 -2.01368 0.213801 0
M  V30 11787 C 1132.32 -1.5434 -1.18361 0
M  V30 11788 O 1131.58 -0.741447 -1.81111 0
M  V30 11789 C 1131.88 -3.56783 0.209951 0
M  V30 11790 C 1131.54 -4.23288 1.55365 0
M  V30 11791 C 1130.2 -4.41169 1.92154 0
M  V30 11792 C 1132.56 -4.6066 2.43807 0
M  V30 11793 C 1129.88 -4.93697 3.16986 0
M  V30 11794 C 1132.24 -5.14573 3.67963 0
M  V30 11795 C 1130.9 -5.30667 4.04906 0
M  V30 11796 H 1130.17 -0.736858 0.0782352 0
M  V30 11797 H 1132.82 -1.69879 0.88393 0
M  V30 11798 H 1131.12 -3.88009 -0.543712 0
M  V30 11799 H 1132.82 -4.00625 -0.173267 0
M  V30 11800 H 1129.41 -4.09738 1.2575 0
M  V30 11801 H 1133.59 -4.46507 2.16668 0
M  V30 11802 H 1128.85 -5.04342 3.45615 0
M  V30 11803 H 1133.02 -5.42473 4.36687 0
M  V30 11804 H 1130.65 -5.71133 5.01709 0
M  V30 11805 N 1132.22 -0.430739 -1.51599 0
M  V30 11806 C 1133.45 0.136599 -2.06148 0
M  V30 11807 C 1133.86 1.37577 -1.29881 0
M  V30 11808 O 1133.21 1.80337 -0.349875 0
M  V30 11809 C 1133.27 0.53071 -3.55561 0
M  V30 11810 C 1132.93 -0.600738 -4.53034 0
M  V30 11811 C 1133.93 -1.47089 -4.98659 0
M  V30 11812 C 1131.61 -0.77959 -4.96213 0
M  V30 11813 C 1133.61 -2.50464 -5.86128 0
M  V30 11814 C 1131.29 -1.81663 -5.83474 0
M  V30 11815 C 1132.29 -2.67755 -6.28328 0
M  V30 11816 O 1131.98 -3.69679 -7.13858 0
M  V30 11817 H 1131.71 0.0143071 -0.675849 0
M  V30 11818 H 1134.27 -0.606673 -1.96236 0
M  V30 11819 H 1132.5 1.32659 -3.63233 0
M  V30 11820 H 1134.19 1.02844 -3.92655 0
M  V30 11821 H 1134.95 -1.34421 -4.66 0
M  V30 11822 H 1130.83 -0.119082 -4.60846 0
M  V30 11823 H 1134.37 -3.17695 -6.2106 0
M  V30 11824 H 1130.27 -1.94353 -6.15546 0
M  V30 11825 H 1131.04 -3.66181 -7.3202 0
M  V30 11826 N 1133.7 1.56767 -0.161869 0
M  V30 11827 C 1134.98 1.88245 0.531352 0
M  V30 11828 C 1135.36 1.07025 1.81958 0
M  V30 11829 O 1134.71 0.161385 2.27929 0
M  V30 11830 C 1134.92 3.40117 0.782416 0
M  V30 11831 C 1136.27 4.09655 1.11661 0
M  V30 11832 O 1137.29 3.4538 0.871274 0
M  V30 11833 O 1136.15 5.23192 1.57901 0
M  V30 11834 H 1133.24 0.780725 0.272759 0
M  V30 11835 H 1135.79 1.68522 -0.199597 0
M  V30 11836 H 1134.56 3.91088 -0.128677 0
M  V30 11837 H 1134.18 3.65418 1.56702 0
M  V30 11838 N 1135.18 -0.111886 1.57202 0
M  V30 11839 C 1136.43 -0.816794 1.84859 0
M  V30 11840 C 1136.75 -1.80079 0.748113 0
M  V30 11841 O 1136.02 -1.94578 -0.227235 0
M  V30 11842 H 1134.6 -0.304633 0.682061 0
M  V30 11843 H 1137.26 -0.097513 1.94656 0
M  V30 11844 H 1136.36 -1.35768 2.81022 0
M  V30 11845 N 1136.66 -1.52894 -0.382264 0
M  V30 11846 C 1137.89 -1.71902 -1.146 0
M  V30 11847 C 1138.3 -0.44017 -1.84009 0
M  V30 11848 O 1137.64 0.595616 -1.73776 0
M  V30 11849 C 1137.7 -2.81785 -2.23244 0
M  V30 11850 C 1137.37 -4.22684 -1.73745 0
M  V30 11851 C 1138.36 -5.05611 -1.21054 0
M  V30 11852 C 1136.05 -4.69031 -1.79763 0
M  V30 11853 C 1138.04 -6.32968 -0.750368 0
M  V30 11854 C 1135.73 -5.96371 -1.33358 0
M  V30 11855 C 1136.73 -6.7817 -0.810832 0
M  V30 11856 O 1136.41 -8.03122 -0.353577 0
M  V30 11857 H 1136.15 -0.578767 -0.349292 0
M  V30 11858 H 1138.7 -2.00359 -0.452246 0
M  V30 11859 H 1136.93 -2.48764 -2.96063 0
M  V30 11860 H 1138.62 -2.89131 -2.84883 0
M  V30 11861 H 1139.39 -4.70984 -1.15755 0
M  V30 11862 H 1135.26 -4.05447 -2.19394 0
M  V30 11863 H 1138.81 -6.96763 -0.341666 0
M  V30 11864 H 1134.71 -6.30501 -1.38344 0
M  V30 11865 H 1135.47 -8.17124 -0.474439 0
M  V30 11866 N 1138.14 0.641106 -1.43971 0
M  V30 11867 C 1139.41 1.39897 -1.36704 0
M  V30 11868 C 1139.79 2.1109 -0.0208051 0
M  V30 11869 O 1139.14 2.05638 0.99625 0
M  V30 11870 C 1139.35 2.37366 -2.55849 0
M  V30 11871 C 1140.7 3.01 -2.99473 0
M  V30 11872 O 1141.72 2.47692 -2.55982 0
M  V30 11873 O 1140.58 3.9768 -3.74851 0
M  V30 11874 H 1137.68 0.625623 -0.540855 0
M  V30 11875 H 1140.22 0.666997 -1.56042 0
M  V30 11876 H 1139 1.8379 -3.45452 0
M  V30 11877 H 1138.62 3.17995 -2.38673 0
M  V30 11878 N 1139.62 1.30703 0.880598 0
M  V30 11879 C 1140.86 1.19541 1.62955 0
M  V30 11880 C 1141.18 -0.249089 1.93403 0
M  V30 11881 O 1140.45 -1.1669 1.57354 0
M  V30 11882 H 1139.03 0.439434 0.604075 0
M  V30 11883 H 1141.7 1.63888 1.05483 0
M  V30 11884 H 1140.79 1.75945 2.57779 0
M  V30 11885 N 1141.09 -1.09351 1.1349 0
M  V30 11886 C 1142.37 -1.78121 0.808225 0
M  V30 11887 C 1142.75 -1.99154 -0.700072 0
M  V30 11888 O 1142.1 -1.59356 -1.63762 0
M  V30 11889 C 1142.31 -3.10368 1.59601 0
M  V30 11890 C 1143.66 -3.85063 1.78919 0
M  V30 11891 O 1144.68 -3.20122 1.56206 0
M  V30 11892 O 1143.54 -5.01648 2.16821 0
M  V30 11893 H 1140.63 -0.77253 0.295173 0
M  V30 11894 H 1143.18 -1.15901 1.23956 0
M  V30 11895 H 1141.95 -2.90549 2.62101 0
M  V30 11896 H 1141.57 -3.80312 1.15967 0
M  V30 11897 N 1142.57 -0.928524 -1.27343 0
M  V30 11898 C 1143.52 -0.418768 -2.28799 0
M  V30 11899 C 1144.51 0.497334 -1.61935 0
M  V30 11900 O 1145.72 0.376945 -1.76009 0
M  V30 11901 H 1142.09 -0.116855 -0.742865 0
M  V30 11902 H 1144.07 -1.28725 -2.69207 0
M  V30 11903 C 1142.81 0.312422 -3.46294 0
M  V30 11904 H 1142.14 -0.383317 -3.97958 0
M  V30 11905 H 1143.58 0.633514 -4.19241 0
M  V30 11906 C 1142.04 1.5257 -3.00373 0
M  V30 11907 O 1142.57 2.62443 -3.04116 0
M  V30 11908 N 1140.77 1.37782 -2.5586 0
M  V30 11909 H 1140.32 0.483908 -2.53014 0
M  V30 11910 H 1140.28 2.19085 -2.25498 0
M  V30 11911 N 1144.05 1.41491 -0.694123 0
M  V30 11912 C 1145.28 2.05579 -0.233466 0
M  V30 11913 C 1145.69 1.5223 1.11675 0
M  V30 11914 O 1145.05 0.669937 1.69759 0
M  V30 11915 C 1145.1 3.61047 -0.180967 0
M  V30 11916 O 1144.82 4.12421 -1.47785 0
M  V30 11917 C 1146.32 4.42278 0.300853 0
M  V30 11918 H 1143.54 0.662097 -0.108943 0
M  V30 11919 H 1146.09 1.81288 -0.946299 0
M  V30 11920 H 1144.24 3.84381 0.482678 0
M  V30 11921 H 1144.66 5.06454 -1.364 0
M  V30 11922 H 1146.13 5.51256 0.286464 0
M  V30 11923 H 1146.61 4.18276 1.33948 0
M  V30 11924 H 1147.21 4.24004 -0.331741 0
M  V30 11925 N 1145.53 0.438773 1.51369 0
M  V30 11926 C 1146.75 -0.128221 2.07003 0
M  V30 11927 C 1147.18 -1.3557 1.30393 0
M  V30 11928 O 1146.54 -1.7804 0.342283 0
M  V30 11929 C 1146.58 -0.42761 3.58056 0
M  V30 11930 O 1145.69 -1.51382 3.83611 0
M  V30 11931 H 1145.03 -0.00123679 0.663999 0
M  V30 11932 H 1147.56 0.62052 1.94963 0
M  V30 11933 H 1147.57 -0.677645 4.02333 0
M  V30 11934 H 1146.24 0.469535 4.13241 0
M  V30 11935 H 1144.82 -1.25363 3.51196 0
M  V30 11936 N 1147.01 -1.56678 0.170181 0
M  V30 11937 C 1148.23 -2.0166 -0.484543 0
M  V30 11938 C 1148.66 -1.04962 -1.56091 0
M  V30 11939 O 1148.01 -0.0289887 -1.81277 0
M  V30 11940 C 1148.06 -3.45252 -1.04084 0
M  V30 11941 O 1147.17 -3.51623 -2.15488 0
M  V30 11942 H 1146.51 -0.653765 -0.116135 0
M  V30 11943 H 1149.04 -2.02761 0.273737 0
M  V30 11944 H 1149.05 -3.84534 -1.36373 0
M  V30 11945 H 1147.72 -4.15131 -0.252738 0
M  V30 11946 H 1146.3 -3.242 -1.84252 0
M  V30 11947 N 1148.48 0.103547 -1.57259 0
M  V30 11948 C 1149.43 1.12621 -2.01458 0
M  V30 11949 C 1150.4 1.40282 -0.889391 0
M  V30 11950 O 1151.59 1.51887 -1.15477 0
M  V30 11951 C 1148.73 2.44352 -2.43692 0
M  V30 11952 C 1147.84 2.23495 -3.69695 0
M  V30 11953 C 1146.97 3.48565 -4.00844 0
M  V30 11954 C 1146.01 3.22932 -5.19982 0
M  V30 11955 N 1145.15 4.40246 -5.46926 0
M  V30 11956 H 1149.99 0.742315 -2.88606 0
M  V30 11957 H 1147.53 0.355016 -1.42752 0
M  V30 11958 H 1149.48 3.2122 -2.66221 0
M  V30 11959 H 1148.11 2.80605 -1.59565 0
M  V30 11960 H 1147.17 1.3747 -3.54692 0
M  V30 11961 H 1148.48 2.0054 -4.56711 0
M  V30 11962 H 1147.63 4.33844 -4.24104 0
M  V30 11963 H 1146.37 3.74565 -3.12333 0
M  V30 11964 H 1145.38 2.36045 -4.96551 0
M  V30 11965 H 1146.6 2.98286 -6.10084 0
M  V30 11966 H 1144.55 4.66338 -4.61373 0
M  V30 11967 H 1144.46 4.20452 -6.28296 0
M  V30 11968 H 1145.73 5.26614 -5.74716 0
M  V30 11969 N 1149.96 1.53094 0.37415 0
M  V30 11970 C 1151.19 1.72508 1.13687 0
M  V30 11971 C 1151.6 0.449922 1.83773 0
M  V30 11972 O 1150.94 -0.586391 1.74089 0
M  V30 11973 C 1151 2.82965 2.21746 0
M  V30 11974 C 1150.67 4.23599 1.71501 0
M  V30 11975 C 1151.67 5.06245 1.1837 0
M  V30 11976 C 1149.35 4.69978 1.77273 0
M  V30 11977 C 1151.34 6.33357 0.71679 0
M  V30 11978 C 1149.03 5.9707 1.30194 0
M  V30 11979 C 1150.03 6.7859 0.774856 0
M  V30 11980 O 1149.72 8.03298 0.310981 0
M  V30 11981 H 1149.45 0.580611 0.346218 0
M  V30 11982 H 1152 2.00596 0.441614 0
M  V30 11983 H 1150.23 2.5033 2.9474 0
M  V30 11984 H 1151.92 2.90638 2.83345 0
M  V30 11985 H 1152.69 4.71591 1.13256 0
M  V30 11986 H 1148.57 4.06605 2.17241 0
M  V30 11987 H 1152.11 6.96934 0.30471 0
M  V30 11988 H 1148.01 6.31225 1.34999 0
M  V30 11989 H 1148.78 8.17364 0.431098 0
M  V30 11990 N 1151.44 -0.633461 1.44309 0
M  V30 11991 C 1152.69 -1.39031 1.46679 0
M  V30 11992 C 1153.01 -1.94745 0.0997165 0
M  V30 11993 O 1152.28 -1.75637 -0.867659 0
M  V30 11994 H 1150.86 -0.516051 0.540093 0
M  V30 11995 H 1153.52 -0.745739 1.80069 0
M  V30 11996 H 1152.62 -2.2228 2.19085 0
M  V30 11997 N 1152.92 -1.31168 -0.873655 0
M  V30 11998 C 1154.14 -1.23728 -1.66452 0
M  V30 11999 C 1154.57 0.194869 -1.87088 0
M  V30 12000 O 1153.93 1.1397 -1.40998 0
M  V30 12001 C 1153.97 -1.98285 -3.0119 0
M  V30 12002 O 1153.08 -1.31767 -3.90783 0
M  V30 12003 H 1152.42 -0.427362 -0.508191 0
M  V30 12004 H 1154.95 -1.73176 -1.08955 0
M  V30 12005 H 1154.96 -2.0774 -3.51153 0
M  V30 12006 H 1153.63 -3.02437 -2.8549 0
M  V30 12007 H 1152.21 -1.3074 -3.4923 0
M  V30 12008 N 1154.4 1.08748 -1.14068 0
M  V30 12009 C 1155.64 1.81333 -0.908081 0
M  V30 12010 C 1155.98 1.85826 0.564112 0
M  V30 12011 O 1155.25 1.33157 1.41773 0
M  V30 12012 C 1155.53 3.27127 -1.50531 0
M  V30 12013 C 1155.39 3.30865 -3.04711 0
M  V30 12014 C 1156.71 4.24006 -1.17928 0
M  V30 12015 H 1153.82 0.658326 -0.331325 0
M  V30 12016 H 1156.47 1.27345 -1.41008 0
M  V30 12017 H 1154.62 3.73233 -1.07839 0
M  V30 12018 H 1156.29 2.93109 -3.56209 0
M  V30 12019 H 1154.53 2.70241 -3.39341 0
M  V30 12020 H 1155.2 4.33603 -3.41603 0
M  V30 12021 H 1157.68 3.86221 -1.54831 0
M  V30 12022 H 1156.55 5.2434 -1.62353 0
M  V30 12023 H 1156.82 4.42 -0.0940349 0
M  V30 12024 N 1155.87 0.935264 1.26849 0
M  V30 12025 C 1157.12 0.580548 1.94313 0
M  V30 12026 C 1157.45 -0.877205 1.73259 0
M  V30 12027 O 1156.73 -1.62679 1.06611 0
M  V30 12028 C 1157.01 0.916445 3.48243 0
M  V30 12029 C 1156.86 2.42851 3.78607 0
M  V30 12030 C 1158.18 0.427665 4.38017 0
M  V30 12031 H 1155.3 0.21239 0.705733 0
M  V30 12032 H 1157.94 1.16841 1.49827 0
M  V30 12033 H 1156.09 0.416169 3.86265 0
M  V30 12034 H 1157.77 3.00106 3.50335 0
M  V30 12035 H 1156.01 2.8745 3.24892 0
M  V30 12036 H 1156.68 2.61405 4.8618 0
M  V30 12037 H 1159.16 0.856525 4.07189 0
M  V30 12038 H 1158.03 0.691571 5.44526 0
M  V30 12039 H 1158.29 -0.672344 4.36958 0
M  V30 12040 N 1157.35 -1.41121 0.701616 0
M  V30 12041 C 1158.58 -2.05452 0.244365 0
M  V30 12042 C 1159 -1.5282 -1.10866 0
M  V30 12043 O 1158.35 -0.67893 -1.69401 0
M  V30 12044 C 1158.4 -3.60946 0.200112 0
M  V30 12045 O 1158.12 -4.11632 1.4997 0
M  V30 12046 C 1159.63 -4.42431 -0.277394 0
M  V30 12047 H 1156.85 -0.66151 0.112453 0
M  V30 12048 H 1159.39 -1.80784 0.9559 0
M  V30 12049 H 1157.54 -3.84632 -0.462287 0
M  V30 12050 H 1157.96 -5.05723 1.39084 0
M  V30 12051 H 1159.43 -5.514 -0.257225 0
M  V30 12052 H 1159.91 -4.1898 -1.31728 0
M  V30 12053 H 1160.52 -4.23822 0.354223 0
M  V30 12054 N 1158.83 -0.446794 -1.51134 0
M  V30 12055 C 1159.78 0.374154 -2.29571 0
M  V30 12056 C 1160.77 1.01241 -1.35818 0
M  V30 12057 O 1161.98 0.946293 -1.53119 0
M  V30 12058 H 1158.35 0.13948 -0.738951 0
M  V30 12059 H 1160.32 -0.308117 -2.96805 0
M  V30 12060 C 1159.07 1.45754 -3.15675 0
M  V30 12061 H 1158.4 0.975787 -3.87709 0
M  V30 12062 H 1159.84 2.00502 -3.73597 0
M  V30 12063 C 1158.3 2.44606 -2.31667 0
M  V30 12064 O 1158.83 3.49352 -1.98284 0
M  V30 12065 N 1157.03 2.15725 -1.94708 0
M  V30 12066 H 1156.58 1.30572 -2.22056 0
M  V30 12067 H 1156.54 2.82103 -1.38798 0
M  V30 12068 N 1160.31 1.56586 -0.178487 0
M  V30 12069 C 1161.59 1.88798 0.511356 0
M  V30 12070 C 1161.97 1.08949 1.80813 0
M  V30 12071 O 1161.31 0.185551 2.27745 0
M  V30 12072 C 1161.52 3.40927 0.746298 0
M  V30 12073 C 1162.87 4.10816 1.0731 0
M  V30 12074 O 1163.9 3.46285 0.834592 0
M  V30 12075 O 1162.75 5.24837 1.52343 0
M  V30 12076 H 1159.85 0.783574 0.264463 0
M  V30 12077 H 1162.39 1.68301 -0.21746 0
M  V30 12078 H 1161.17 3.9093 -0.17015 0
M  V30 12079 H 1160.79 3.67059 1.52817 0
M  V30 12080 N 1161.79 -0.095206 1.57312 0
M  V30 12081 C 1162.72 -1.14662 1.97301 0
M  V30 12082 C 1163.7 -1.38845 0.846212 0
M  V30 12083 O 1164.88 -1.52607 1.1065 0
M  V30 12084 C 1162.01 -2.49582 2.28968 0
M  V30 12085 C 1161.05 -2.41681 3.51415 0
M  V30 12086 S 1161.89 -1.83343 5.03136 0
M  V30 12087 C 1163.04 -3.19888 5.3798 0
M  V30 12088 H 1163.28 -0.805726 2.86174 0
M  V30 12089 H 1160.81 -0.302881 1.514 0
M  V30 12090 H 1162.77 -3.27202 2.47889 0
M  V30 12091 H 1161.43 -2.80841 1.40667 0
M  V30 12092 H 1160.62 -3.41122 3.71015 0
M  V30 12093 H 1160.22 -1.7219 3.32004 0
M  V30 12094 H 1162.52 -4.16161 5.34618 0
M  V30 12095 H 1163.46 -3.05093 6.39002 0
M  V30 12096 H 1163.87 -3.19414 4.6544 0
M  V30 12097 N 1163.26 -1.53291 -0.366026 0
M  V30 12098 C 1164.51 -1.69117 -1.10653 0
M  V30 12099 C 1164.83 -0.445327 -1.89847 0
M  V30 12100 O 1164.1 0.540616 -1.88293 0
M  V30 12101 H 1162.68 -0.623446 -0.41149 0
M  V30 12102 H 1165.35 -1.90479 -0.412749 0
M  V30 12103 H 1164.44 -2.55205 -1.79658 0
M  V30 12104 N 1164.74 0.6258 -1.44643 0
M  V30 12105 C 1165.97 1.41233 -1.51198 0
M  V30 12106 C 1166.39 1.88291 -0.138572 0
M  V30 12107 O 1165.74 1.61151 0.856537 0
M  V30 12108 C 1165.79 2.62908 -2.48117 0
M  V30 12109 O 1165.51 2.1781 -3.80119 0
M  V30 12110 C 1167.02 3.55976 -2.6419 0
M  V30 12111 H 1164.24 0.432954 -0.512632 0
M  V30 12112 H 1166.78 0.76486 -1.89658 0
M  V30 12113 H 1164.93 3.23735 -2.12778 0
M  V30 12114 H 1165.35 2.96732 -4.32493 0
M  V30 12115 H 1166.82 4.37943 -3.3602 0
M  V30 12116 H 1167.3 4.05133 -1.696 0
M  V30 12117 H 1167.91 3.01014 -3.00451 0
M  V30 12118 N 1166.22 1.31629 0.866686 0
M  V30 12119 C 1167.47 1.20861 1.61479 0
M  V30 12120 C 1167.78 -0.231208 1.94229 0
M  V30 12121 O 1168.99 -0.460618 2.67564 0
M  V30 12122 C 1167.44 2.11602 2.91123 0
M  V30 12123 C 1167.05 3.60598 2.65844 0
M  V30 12124 C 1168.8 2.09642 3.69121 0
M  V30 12125 C 1166.7 4.43337 3.91415 0
M  V30 12126 H 1165.63 0.448783 0.605896 0
M  V30 12127 H 1168.28 1.56507 0.958001 0
M  V30 12128 H 1166.67 1.68858 3.58194 0
M  V30 12129 H 1167.84 4.11609 2.07159 0
M  V30 12130 H 1166.16 3.64568 2.01194 0
M  V30 12131 H 1168.75 2.68701 4.62281 0
M  V30 12132 H 1169.1 1.08438 4.01929 0
M  V30 12133 H 1169.63 2.50603 3.08938 0
M  V30 12134 H 1166.37 5.45309 3.63756 0
M  V30 12135 H 1165.89 3.97083 4.49539 0
M  V30 12136 H 1167.57 4.5572 4.5927 0
M  V30 12137 N 1167.7 -1.08142 1.14644 0
M  V30 12138 C 1168.94 -1.82183 0.926747 0
M  V30 12139 C 1169.3 -1.8434 -0.53692 0
M  V30 12140 O 1170.5 -2.54172 -0.874651 0
M  V30 12141 C 1168.78 -3.23726 1.51446 0
M  V30 12142 S 1170.33 -4.14612 1.43673 0
M  V30 12143 H 1167.15 -0.627815 0.333721 0
M  V30 12144 H 1169.75 -1.29968 1.46043 0
M  V30 12145 H 1168.46 -3.19741 2.57282 0
M  V30 12146 H 1167.99 -3.81016 0.979289 0
M  V30 12147 H 1170 -4.94384 0.424105 0
M  V30 12148 N 1169.18 -0.941978 -1.26351 0
M  V30 12149 C 1170.4 -0.606231 -1.98342 0
M  V30 12150 C 1170.83 0.812014 -1.6967 0
M  V30 12151 O 1170.19 1.54712 -0.9452 0
M  V30 12152 C 1170.23 -0.855864 -3.50296 0
M  V30 12153 O 1169.34 0.0716251 -4.12338 0
M  V30 12154 H 1168.68 -0.231815 -0.62222 0
M  V30 12155 H 1171.21 -1.26513 -1.60797 0
M  V30 12156 H 1171.22 -0.777079 -4.00531 0
M  V30 12157 H 1169.89 -1.8896 -3.70496 0
M  V30 12158 H 1168.47 -0.0582866 -3.72854 0
M  V30 12159 N 1170.66 1.40747 -0.709091 0
M  V30 12160 C 1172.07 1.54961 -0.381989 0
M  V30 12161 C 1172.27 1.68181 1.10985 0
M  V30 12162 O 1171.33 1.66776 1.89584 0
M  V30 12163 C 1172.64 2.78156 -1.14236 0
M  V30 12164 C 1174.19 2.91967 -1.12803 0
M  V30 12165 C 1174.66 4.18066 -1.87042 0
M  V30 12166 N 1176.15 4.25052 -1.84078 0
M  V30 12167 C 1176.89 5.21514 -2.38349 0
M  V30 12168 N 1176.39 6.23924 -3.01149 0
M  V30 12169 N 1178.18 5.13548 -2.28528 0
M  V30 12170 H 1170.33 1.30412 -1.6765 0
M  V30 12171 H 1172.59 0.630147 -0.70825 0
M  V30 12172 H 1172.3 2.74643 -2.19691 0
M  V30 12173 H 1172.17 3.70074 -0.729731 0
M  V30 12174 H 1174.56 2.94987 -0.0816956 0
M  V30 12175 H 1174.64 2.01185 -1.57982 0
M  V30 12176 H 1174.28 4.15808 -2.91662 0
M  V30 12177 H 1174.21 5.07845 -1.39287 0
M  V30 12178 H 1176.71 3.51682 -1.38305 0
M  V30 12179 H 1177.02 6.93942 -3.40094 0
M  V30 12180 H 1175.36 6.24387 -3.05231 0
M  V30 12181 H 1178.55 4.3247 -1.79129 0
M  V30 12182 H 1178.73 5.88553 -2.71126 0
M  V30 12183 N 1172.13 0.454803 1.50895 0
M  V30 12184 C 1173.38 -0.107367 2.01414 0
M  V30 12185 C 1173.7 -1.42243 1.34262 0
M  V30 12186 O 1174.9 -2.06858 1.75846 0
M  V30 12187 C 1173.36 -0.241872 3.59086 0
M  V30 12188 C 1172.97 1.06379 4.35187 0
M  V30 12189 C 1174.71 -0.756873 4.17698 0
M  V30 12190 C 1172.62 0.893973 5.84604 0
M  V30 12191 H 1171.55 -0.0439003 0.752721 0
M  V30 12192 H 1174.2 0.587225 1.7385 0
M  V30 12193 H 1172.58 -0.999873 3.83169 0
M  V30 12194 H 1173.75 1.83148 4.2284 0
M  V30 12195 H 1172.07 1.50865 3.88109 0
M  V30 12196 H 1174.67 -0.900697 5.27059 0
M  V30 12197 H 1175.01 -1.74397 3.7801 0
M  V30 12198 H 1175.54 -0.0567088 3.9776 0
M  V30 12199 H 1172.28 1.85395 6.28736 0
M  V30 12200 H 1171.8 0.166387 5.99569 0
M  V30 12201 H 1173.48 0.554084 6.44623 0
M  V30 12202 N 1173.61 -1.56489 0.186789 0
M  V30 12203 C 1174.86 -1.97634 -0.454831 0
M  V30 12204 C 1175.19 -1.07334 -1.61843 0
M  V30 12205 O 1174.47 -0.123612 -1.94107 0
M  V30 12206 C 1174.75 -3.48071 -0.922962 0
M  V30 12207 C 1174.6 -4.49149 0.241877 0
M  V30 12208 C 1175.92 -4.01994 -1.79134 0
M  V30 12209 H 1173.04 -0.718555 -0.163854 0
M  V30 12210 H 1175.68 -1.87984 0.27604 0
M  V30 12211 H 1173.83 -3.56425 -1.54575 0
M  V30 12212 H 1175.5 -4.52841 0.87936 0
M  V30 12213 H 1173.75 -4.24468 0.894964 0
M  V30 12214 H 1174.42 -5.51851 -0.128051 0
M  V30 12215 H 1176.89 -3.96367 -1.26618 0
M  V30 12216 H 1175.77 -5.07641 -2.08787 0
M  V30 12217 H 1176.03 -3.46747 -2.74261 0
M  V30 12218 N 1175.09 0.086862 -1.5736 0
M  V30 12219 C 1176.32 0.802167 -1.90717 0
M  V30 12220 C 1176.73 1.71875 -0.781304 0
M  V30 12221 O 1176.09 1.80831 0.246255 0
M  V30 12222 C 1176.14 1.60858 -3.23739 0
M  V30 12223 O 1175.86 0.728851 -4.31995 0
M  V30 12224 C 1177.36 2.42621 -3.71012 0
M  V30 12225 H 1174.58 0.228914 -0.630745 0
M  V30 12226 H 1177.13 0.061634 -2.04407 0
M  V30 12227 H 1175.28 2.30153 -3.11622 0
M  V30 12228 H 1175.7 1.2882 -5.08435 0
M  V30 12229 H 1177.17 2.94683 -4.66761 0
M  V30 12230 H 1177.65 3.21462 -2.99264 0
M  V30 12231 H 1178.25 1.78509 -3.86024 0
M  V30 12232 N 1176.57 1.53483 0.357892 0
M  V30 12233 C 1177.48 1.83434 1.4625 0
M  V30 12234 C 1178.49 0.723313 1.58254 0
M  V30 12235 O 1179.67 1.01416 1.74002 0
M  V30 12236 C 1176.73 2.0249 2.81423 0
M  V30 12237 C 1175.8 3.26378 2.78883 0
M  V30 12238 C 1175.03 3.44516 4.07608 0
M  V30 12239 O 1175.25 2.66787 5.04163 0
M  V30 12240 O 1174.19 4.37898 4.12952 0
M  V30 12241 H 1178.01 2.77294 1.23861 0
M  V30 12242 H 1175.6 1.38958 0.548722 0
M  V30 12243 H 1177.48 2.16552 3.61501 0
M  V30 12244 H 1176.15 1.11819 3.03773 0
M  V30 12245 H 1175.06 3.17733 1.97475 0
M  V30 12246 H 1176.39 4.16996 2.61486 0
M  V30 12247 N 1178.05 -0.61812 1.44973 0
M  V30 12248 C 1178.99 -1.72942 1.52838 0
M  V30 12249 C 1179.96 -1.6181 0.375056 0
M  V30 12250 O 1181.15 -1.81544 0.587075 0
M  V30 12251 C 1178.29 -3.11228 1.49101 0
M  V30 12252 C 1177.4 -3.33243 2.74906 0
M  V30 12253 C 1176.54 -4.61574 2.62912 0
M  V30 12254 C 1175.57 -4.76811 3.8382 0
M  V30 12255 N 1174.71 -5.96432 3.70424 0
M  V30 12256 H 1179.55 -1.65556 2.47781 0
M  V30 12257 H 1177.09 -0.807411 1.2296 0
M  V30 12258 H 1179.05 -3.9122 1.44923 0
M  V30 12259 H 1177.68 -3.17598 0.577163 0
M  V30 12260 H 1176.73 -2.471 2.89216 0
M  V30 12261 H 1178.04 -3.40377 3.64616 0
M  V30 12262 H 1177.19 -5.49746 2.56641 0
M  V30 12263 H 1175.93 -4.5682 1.70784 0
M  V30 12264 H 1174.94 -3.87066 3.90461 0
M  V30 12265 H 1176.16 -4.83371 4.77001 0
M  V30 12266 H 1174.11 -5.92742 2.81057 0
M  V30 12267 H 1174.03 -6.0468 4.5376 0
M  V30 12268 H 1175.29 -6.8713 3.68067 0
M  V30 12269 N 1179.52 -1.32087 -0.859693 0
M  V30 12270 C 1180.46 -1.16426 -1.97428 0
M  V30 12271 C 1181.47 -0.100582 -1.62489 0
M  V30 12272 O 1182.66 -0.349063 -1.75054 0
M  V30 12273 C 1179.76 -0.758822 -3.30295 0
M  V30 12274 C 1178.93 -1.90971 -3.93508 0
M  V30 12275 C 1177.99 -1.48865 -5.04704 0
M  V30 12276 O 1177.02 -2.1999 -5.2497 0
M  V30 12277 N 1178.22 -0.38182 -5.79243 0
M  V30 12278 H 1180.98 -2.12433 -2.11406 0
M  V30 12279 H 1178.54 -1.24558 -1.03426 0
M  V30 12280 H 1180.54 -0.459643 -4.02081 0
M  V30 12281 H 1179.11 0.109944 -3.12407 0
M  V30 12282 H 1178.33 -2.37566 -3.14573 0
M  V30 12283 H 1179.61 -2.68032 -4.32477 0
M  V30 12284 H 1179.01 0.210268 -5.65309 0
M  V30 12285 H 1177.57 -0.142224 -6.51645 0
M  V30 12286 N 1181 1.07532 -1.15215 0
M  V30 12287 C 1181.95 2.14687 -0.847243 0
M  V30 12288 C 1182.92 1.64903 0.199043 0
M  V30 12289 O 1184.1 1.90682 0.0669986 0
M  V30 12290 C 1181.24 3.43414 -0.340673 0
M  V30 12291 C 1180.36 4.06999 -1.44831 0
M  V30 12292 C 1179.49 5.23554 -0.898059 0
M  V30 12293 C 1178.53 5.79097 -1.98276 0
M  V30 12294 N 1177.67 6.86985 -1.44902 0
M  V30 12295 H 1182.51 2.4011 -1.76498 0
M  V30 12296 H 1180.04 1.17823 -0.880689 0
M  V30 12297 H 1182 4.1719 -0.0286956 0
M  V30 12298 H 1180.63 3.18249 0.540144 0
M  V30 12299 H 1179.68 3.30895 -1.87651 0
M  V30 12300 H 1181 4.44289 -2.26735 0
M  V30 12301 H 1180.15 6.04305 -0.538514 0
M  V30 12302 H 1178.89 4.87676 -0.0481752 0
M  V30 12303 H 1177.89 4.96992 -2.35115 0
M  V30 12304 H 1179.12 6.1703 -2.83639 0
M  V30 12305 H 1177.07 6.5305 -0.621468 0
M  V30 12306 H 1176.98 7.23149 -2.20434 0
M  V30 12307 H 1178.25 7.71446 -1.11767 0
M  V30 12308 N 1182.48 0.948665 1.2585 0
M  V30 12309 C 1183.43 0.434929 2.23813 0
M  V30 12310 C 1184.41 -0.472518 1.53805 0
M  V30 12311 O 1185.61 -0.306542 1.74325 0
M  V30 12312 C 1182.74 -0.291678 3.42059 0
M  V30 12313 C 1181.82 0.633493 4.19342 0
M  V30 12314 N 1182.21 1.76254 4.74097 0
M  V30 12315 C 1180.51 0.440528 4.43819 0
M  V30 12316 C 1181.21 2.33968 5.32573 0
M  V30 12317 N 1180.19 1.62687 5.18685 0
M  V30 12318 H 1183.99 1.29668 2.63749 0
M  V30 12319 H 1181.5 0.805431 1.4102 0
M  V30 12320 H 1183.5 -0.676811 4.1137 0
M  V30 12321 H 1182.16 -1.15011 3.03649 0
M  V30 12322 H 1183.17 2.14453 4.71413 0
M  V30 12323 H 1179.85 -0.375515 4.15808 0
M  V30 12324 H 1181.24 3.2914 5.85761 0
M  V30 12325 N 1183.96 -1.40369 0.716545 0
M  V30 12326 C 1185.18 -2.05704 0.264729 0
M  V30 12327 C 1185.61 -1.53634 -1.08527 0
M  V30 12328 O 1184.97 -0.67212 -1.68381 0
M  V30 12329 C 1185.01 -3.59692 0.255778 0
M  V30 12330 O 1184.12 -4.05286 -0.762686 0
M  V30 12331 H 1183.46 -0.652301 0.124092 0
M  V30 12332 H 1185.99 -1.7975 0.977295 0
M  V30 12333 H 1186 -4.07892 0.0937944 0
M  V30 12334 H 1184.67 -3.96955 1.24095 0
M  V30 12335 H 1183.25 -3.68543 -0.568347 0
M  V30 12336 N 1185.44 -0.462799 -1.50652 0
M  V30 12337 C 1186.68 0.0951853 -2.02576 0
M  V30 12338 C 1187.02 1.40113 -1.34469 0
M  V30 12339 O 1186.29 1.88793 -0.467702 0
M  V30 12340 C 1186.57 0.287603 -3.5895 0
M  V30 12341 C 1186.43 -1.03878 -4.37641 0
M  V30 12342 C 1187.75 1.04593 -4.27491 0
M  V30 12343 H 1184.86 0.0331191 -0.736255 0
M  V30 12344 H 1187.51 -0.606772 -1.80051 0
M  V30 12345 H 1185.66 0.885514 -3.78274 0
M  V30 12346 H 1187.33 -1.67263 -4.29908 0
M  V30 12347 H 1185.57 -1.6374 -4.01711 0
M  V30 12348 H 1186.24 -0.857889 -5.45293 0
M  V30 12349 H 1188.72 0.539213 -4.12591 0
M  V30 12350 H 1187.59 1.14935 -5.36732 0
M  V30 12351 H 1187.86 2.08045 -3.90089 0
M  V30 12352 N 1186.91 1.56388 -0.195085 0
M  V30 12353 C 1188.16 1.97872 0.444344 0
M  V30 12354 C 1188.49 1.0819 1.61271 0
M  V30 12355 O 1187.77 0.133904 1.94039 0
M  V30 12356 C 1188.05 3.48556 0.90449 0
M  V30 12357 C 1187.9 4.49015 -0.265693 0
M  V30 12358 C 1189.22 4.02938 1.76999 0
M  V30 12359 H 1186.34 0.719413 0.160041 0
M  V30 12360 H 1188.98 1.87835 -0.286005 0
M  V30 12361 H 1187.13 3.5724 1.52682 0
M  V30 12362 H 1188.81 4.52368 -0.903363 0
M  V30 12363 H 1187.05 4.23987 -0.917462 0
M  V30 12364 H 1187.72 5.51912 0.0987834 0
M  V30 12365 H 1190.2 3.97033 1.24514 0
M  V30 12366 H 1189.07 5.08741 2.06092 0
M  V30 12367 H 1189.33 3.48197 2.72418 0
M  V30 12368 N 1188.39 -0.0785156 1.57404 0
M  V30 12369 C 1189.64 -0.777722 1.86103 0
M  V30 12370 C 1189.95 -1.79079 0.786771 0
M  V30 12371 O 1191.16 -2.53908 0.961393 0
M  V30 12372 C 1189.62 -1.43407 3.30095 0
M  V30 12373 C 1189.22 -0.459912 4.45633 0
M  V30 12374 C 1190.97 -2.11603 3.68 0
M  V30 12375 C 1188.88 -1.12179 5.80663 0
M  V30 12376 H 1187.81 -0.294205 0.694233 0
M  V30 12377 H 1190.46 -0.0309003 1.83474 0
M  V30 12378 H 1188.84 -2.22892 3.27315 0
M  V30 12379 H 1190.01 0.304642 4.59792 0
M  V30 12380 H 1188.33 0.117242 4.16235 0
M  V30 12381 H 1190.92 -2.61887 4.66175 0
M  V30 12382 H 1191.27 -2.91244 2.9746 0
M  V30 12383 H 1191.8 -1.38958 3.72741 0
M  V30 12384 H 1188.54 -0.365842 6.54478 0
M  V30 12385 H 1188.06 -1.85737 5.70317 0
M  V30 12386 H 1189.74 -1.64355 6.25777 0
M  V30 12387 N 1189.87 -1.5367 -0.349747 0
M  V30 12388 C 1191.1 -1.74547 -1.11089 0
M  V30 12389 C 1191.51 -0.481741 -1.82551 0
M  V30 12390 O 1190.87 0.546272 -1.74132 0
M  V30 12391 C 1190.92 -2.92148 -2.12913 0
M  V30 12392 O 1190.64 -4.13633 -1.44358 0
M  V30 12393 C 1192.14 -3.25027 -3.01451 0
M  V30 12394 H 1189.36 -0.583376 -0.331532 0
M  V30 12395 H 1191.91 -2.00473 -0.403841 0
M  V30 12396 H 1190.06 -2.68572 -2.79192 0
M  V30 12397 H 1190.48 -4.79601 -2.12329 0
M  V30 12398 H 1191.95 -4.10679 -3.68845 0
M  V30 12399 H 1192.43 -2.41064 -3.67131 0
M  V30 12400 H 1193.03 -3.50586 -2.40768 0
M  V30 12401 N 1191.35 0.610423 -1.45298 0
M  V30 12402 C 1192.58 1.39621 -1.52688 0
M  V30 12403 C 1192.99 1.88133 -0.158535 0
M  V30 12404 O 1192.35 1.62051 0.839396 0
M  V30 12405 C 1192.4 2.60261 -2.50891 0
M  V30 12406 O 1192.12 2.13766 -3.82408 0
M  V30 12407 C 1193.62 3.53154 -2.6795 0
M  V30 12408 H 1190.84 0.427493 -0.517195 0
M  V30 12409 H 1193.39 0.744701 -1.90459 0
M  V30 12410 H 1191.54 3.2146 -2.162 0
M  V30 12411 H 1191.95 2.92128 -4.35616 0
M  V30 12412 H 1193.43 4.34355 -3.40647 0
M  V30 12413 H 1193.91 4.03311 -1.73888 0
M  V30 12414 H 1194.51 2.9781 -3.03627 0
M  V30 12415 N 1192.83 1.32541 0.852676 0
M  V30 12416 C 1193.78 1.18224 1.94954 0
M  V30 12417 C 1194.76 0.0886514 1.60656 0
M  V30 12418 O 1195.95 0.315359 1.74168 0
M  V30 12419 C 1193.08 0.909484 3.31034 0
M  V30 12420 C 1192.17 2.04486 3.71546 0
M  V30 12421 N 1192.56 3.29362 3.83868 0
M  V30 12422 C 1190.86 1.94848 4.01186 0
M  V30 12423 C 1191.56 4.0374 4.18771 0
M  V30 12424 N 1190.53 3.32054 4.30396 0
M  V30 12425 H 1194.34 2.12893 2.02617 0
M  V30 12426 H 1191.85 1.24349 1.04456 0
M  V30 12427 H 1193.85 0.787865 4.09388 0
M  V30 12428 H 1192.51 -0.0288163 3.24687 0
M  V30 12429 H 1193.52 3.64274 3.68137 0
M  V30 12430 H 1190.19 1.08591 4.0313 0
M  V30 12431 H 1191.58 5.11434 4.35757 0
M  V30 12432 N 1194.3 -1.0692 1.15784 0
M  V30 12433 C 1195.55 -1.78983 0.929944 0
M  V30 12434 C 1195.87 -1.87884 -0.543969 0
M  V30 12435 O 1197.07 -2.56513 -0.889578 0
M  V30 12436 C 1195.53 -3.21657 1.61446 0
M  V30 12437 C 1195.14 -3.20943 3.12569 0
M  V30 12438 C 1196.88 -3.98299 1.46828 0
M  V30 12439 C 1194.79 -4.58298 3.73788 0
M  V30 12440 H 1193.72 -0.670809 0.344284 0
M  V30 12441 H 1196.37 -1.19975 1.38846 0
M  V30 12442 H 1194.75 -3.80885 1.08364 0
M  V30 12443 H 1195.92 -2.71334 3.72444 0
M  V30 12444 H 1194.24 -2.57799 3.26999 0
M  V30 12445 H 1196.84 -4.99822 1.89952 0
M  V30 12446 H 1197.18 -4.14213 0.416358 0
M  V30 12447 H 1197.71 -3.45577 1.97031 0
M  V30 12448 H 1194.45 -4.47588 4.789 0
M  V30 12449 H 1193.97 -5.08126 3.18698 0
M  V30 12450 H 1195.65 -5.27262 3.74972 0
M  V30 12451 N 1195.78 -0.955326 -1.25345 0
M  V30 12452 C 1197.01 -0.626783 -1.96863 0
M  V30 12453 C 1197.42 0.80547 -1.71198 0
M  V30 12454 O 1196.76 1.55049 -0.985163 0
M  V30 12455 C 1196.83 -0.806404 -3.50339 0
M  V30 12456 C 1196.49 -2.21595 -3.99681 0
M  V30 12457 C 1197.49 -3.19268 -4.10322 0
M  V30 12458 C 1195.17 -2.54032 -4.33328 0
M  V30 12459 C 1197.17 -4.47471 -4.53926 0
M  V30 12460 C 1194.85 -3.82465 -4.76617 0
M  V30 12461 C 1195.85 -4.78997 -4.86879 0
M  V30 12462 O 1195.54 -6.0514 -5.29208 0
M  V30 12463 H 1195.27 -0.233854 -0.634262 0
M  V30 12464 H 1197.82 -1.28232 -1.60455 0
M  V30 12465 H 1196.05 -0.0937184 -3.86586 0
M  V30 12466 H 1197.74 -0.47881 -4.03066 0
M  V30 12467 H 1198.51 -2.95534 -3.84558 0
M  V30 12468 H 1194.39 -1.79623 -4.24566 0
M  V30 12469 H 1197.93 -5.22819 -4.6185 0
M  V30 12470 H 1193.83 -4.06005 -5.01827 0
M  V30 12471 H 1194.6 -6.08527 -5.47392 0
M  V30 12472 N 1197.26 1.39987 -0.723979 0
M  V30 12473 C 1198.21 2.27938 -0.0531058 0
M  V30 12474 C 1199.2 1.43693 0.723965 0
M  V30 12475 O 1200.39 1.66707 0.594785 0
M  V30 12476 C 1197.52 3.32311 0.861659 0
M  V30 12477 C 1196.6 4.24026 0.079327 0
M  V30 12478 N 1196.99 4.96954 -0.941805 0
M  V30 12479 C 1195.29 4.44917 0.310637 0
M  V30 12480 C 1195.99 5.64287 -1.41261 0
M  V30 12481 N 1194.97 5.38632 -0.733217 0
M  V30 12482 H 1198.77 2.81771 -0.835608 0
M  V30 12483 H 1196.28 1.52538 -0.557315 0
M  V30 12484 H 1198.28 3.94174 1.35766 0
M  V30 12485 H 1196.94 2.80038 1.64344 0
M  V30 12486 H 1197.95 5.0072 -1.32288 0
M  V30 12487 H 1194.63 4.03606 1.06809 0
M  V30 12488 H 1196.02 6.32695 -2.26155 0
M  V30 12489 N 1198.74 0.470782 1.50404 0
M  V30 12490 C 1199.69 -0.32355 2.28521 0
M  V30 12491 C 1200.66 -0.987472 1.3356 0
M  V30 12492 O 1201.84 -0.999969 1.62497 0
M  V30 12493 C 1198.98 -1.39977 3.15437 0
M  V30 12494 C 1198.09 -0.750656 4.25428 0
M  V30 12495 C 1197.23 -1.80474 4.99602 0
M  V30 12496 C 1196.27 -1.13586 6.01469 0
M  V30 12497 N 1195.41 -2.13279 6.68922 0
M  V30 12498 H 1200.25 0.348902 2.9595 0
M  V30 12499 H 1197.78 0.183908 1.45946 0
M  V30 12500 H 1199.74 -2.0354 3.6418 0
M  V30 12501 H 1198.37 -2.04139 2.50054 0
M  V30 12502 H 1197.42 -0.00247092 3.804 0
M  V30 12503 H 1198.73 -0.222638 4.98303 0
M  V30 12504 H 1197.89 -2.51619 5.52062 0
M  V30 12505 H 1196.63 -2.36657 4.26433 0
M  V30 12506 H 1195.63 -0.410042 5.48269 0
M  V30 12507 H 1196.86 -0.580935 6.76611 0
M  V30 12508 H 1194.8 -2.68479 5.98544 0
M  V30 12509 H 1194.72 -1.65461 7.37671 0
M  V30 12510 H 1195.99 -2.83804 7.26 0
M  V30 12511 N 1200.22 -1.56282 0.203376 0
M  V30 12512 C 1201.18 -2.18233 -0.700489 0
M  V30 12513 C 1202.18 -1.13908 -1.13497 0
M  V30 12514 O 1203.37 -1.39246 -1.04672 0
M  V30 12515 C 1200.5 -2.79107 -1.95735 0
M  V30 12516 H 1201.7 -2.99469 -0.160649 0
M  V30 12517 H 1199.25 -1.56232 -0.0462475 0
M  V30 12518 H 1199.98 -2.01691 -2.53951 0
M  V30 12519 H 1199.77 -3.55486 -1.65446 0
M  V30 12520 H 1201.26 -3.2665 -2.60172 0
M  V30 12521 N 1201.7 0.070167 -1.57444 0
M  V30 12522 C 1202.64 1.08322 -2.03801 0
M  V30 12523 C 1203.61 1.38364 -0.918946 0
M  V30 12524 O 1204.8 1.49404 -1.18672 0
M  V30 12525 C 1201.94 2.39128 -2.48821 0
M  V30 12526 C 1201.05 2.15603 -3.74352 0
M  V30 12527 C 1200.19 3.39984 -4.08148 0
M  V30 12528 C 1199.22 3.1183 -5.26715 0
M  V30 12529 N 1198.36 4.28546 -5.56141 0
M  V30 12530 H 1203.2 0.680931 -2.90116 0
M  V30 12531 H 1200.74 0.324657 -1.43473 0
M  V30 12532 H 1202.7 3.15501 -2.72975 0
M  V30 12533 H 1201.33 2.77157 -1.65481 0
M  V30 12534 H 1200.38 1.29915 -3.57528 0
M  V30 12535 H 1201.69 1.90808 -4.60862 0
M  V30 12536 H 1200.84 4.2475 -4.33211 0
M  V30 12537 H 1199.58 3.67856 -3.20208 0
M  V30 12538 H 1198.59 2.2546 -5.01446 0
M  V30 12539 H 1199.81 2.85278 -6.16273 0
M  V30 12540 H 1197.76 4.56447 -4.71161 0
M  V30 12541 H 1197.68 4.0703 -6.37073 0
M  V30 12542 H 1198.94 5.14305 -5.85757 0
M  V30 12543 N 1203.17 1.53854 0.341593 0
M  V30 12544 C 1204.12 1.7836 1.42028 0
M  V30 12545 C 1205.11 0.638876 1.47673 0
M  V30 12546 O 1206.3 0.898328 1.52509 0
M  V30 12547 C 1203.43 1.99837 2.79142 0
M  V30 12548 C 1202.51 3.20379 2.77881 0
M  V30 12549 N 1202.91 4.41809 2.46249 0
M  V30 12550 C 1201.2 3.21588 3.09026 0
M  V30 12551 C 1201.9 5.23668 2.53271 0
M  V30 12552 N 1200.88 4.60429 2.88974 0
M  V30 12553 H 1204.68 2.69836 1.16472 0
M  V30 12554 H 1202.2 1.52804 0.549966 0
M  V30 12555 H 1204.19 2.15528 3.56866 0
M  V30 12556 H 1202.85 1.09603 3.05642 0
M  V30 12557 H 1203.86 4.69125 2.19413 0
M  V30 12558 H 1200.54 2.41329 3.40686 0
M  V30 12559 H 1201.93 6.30591 2.31958 0
M  V30 12560 N 1204.65 -0.602709 1.4562 0
M  V30 12561 C 1205.88 -1.3881 1.53426 0
M  V30 12562 C 1206.29 -1.88046 0.16851 0
M  V30 12563 O 1205.65 -1.62493 -0.830791 0
M  V30 12564 C 1205.7 -2.58927 2.52268 0
M  V30 12565 O 1205.42 -2.11735 3.83536 0
M  V30 12566 C 1206.92 -3.51728 2.69819 0
M  V30 12567 H 1204.14 -0.424744 0.519455 0
M  V30 12568 H 1206.69 -0.73459 1.90851 0
M  V30 12569 H 1204.84 -3.20309 2.17902 0
M  V30 12570 H 1205.26 -2.89814 4.37159 0
M  V30 12571 H 1206.73 -4.32542 3.42945 0
M  V30 12572 H 1207.21 -4.02383 1.76024 0
M  V30 12573 H 1207.81 -2.96196 3.05202 0
M  V30 12574 N 1206.13 -1.32992 -0.845635 0
M  V30 12575 C 1207.08 -1.22682 -1.95494 0
M  V30 12576 C 1208.05 -0.106942 -1.65755 0
M  V30 12577 O 1209.23 -0.28405 -1.88674 0
M  V30 12578 C 1206.37 -0.965068 -3.31331 0
M  V30 12579 C 1205.48 -2.17058 -3.7351 0
M  V30 12580 C 1204.62 -1.84355 -4.98183 0
M  V30 12581 C 1203.66 -3.01176 -5.32878 0
M  V30 12582 N 1202.8 -2.68506 -6.48729 0
M  V30 12583 H 1207.64 -2.17562 -2.03644 0
M  V30 12584 H 1205.17 -1.08194 -0.996613 0
M  V30 12585 H 1207.13 -0.793771 -4.09579 0
M  V30 12586 H 1205.76 -0.0530285 -3.22756 0
M  V30 12587 H 1204.81 -2.45185 -2.90841 0
M  V30 12588 H 1206.12 -3.04413 -3.95138 0
M  V30 12589 H 1205.28 -1.6383 -5.84162 0
M  V30 12590 H 1204.02 -0.942264 -4.78511 0
M  V30 12591 H 1203.02 -3.22323 -4.45408 0
M  V30 12592 H 1204.25 -3.9205 -5.54503 0
M  V30 12593 H 1202.19 -1.80929 -6.30556 0
M  V30 12594 H 1202.11 -3.49392 -6.70419 0
M  V30 12595 H 1203.38 -2.51432 -7.37836 0
M  V30 12596 N 1207.61 1.06304 -1.1635 0
M  V30 12597 C 1208.57 2.11947 -0.872419 0
M  V30 12598 C 1209.57 1.60253 0.132534 0
M  V30 12599 O 1210.76 1.73922 -0.0983441 0
M  V30 12600 C 1207.89 3.39536 -0.304646 0
M  V30 12601 H 1209.09 2.39201 -1.80894 0
M  V30 12602 H 1206.64 1.22367 -0.972419 0
M  V30 12603 H 1207.37 3.17931 0.639565 0
M  V30 12604 H 1207.16 3.78363 -1.02878 0
M  V30 12605 H 1208.65 4.17431 -0.118936 0
M  V30 12606 N 1209.09 0.96196 1.24836 0
M  V30 12607 C 1210.33 0.631213 1.93358 0
M  V30 12608 C 1210.69 -0.823785 1.73872 0
M  V30 12609 O 1209.98 -1.58422 1.07764 0
M  V30 12610 C 1210.17 0.934481 3.44967 0
M  V30 12611 C 1210 2.41741 3.79198 0
M  V30 12612 C 1208.77 3.07624 4.00868 0
M  V30 12613 C 1210.97 3.39717 3.86131 0
M  V30 12614 N 1208.95 4.45714 4.22152 0
M  V30 12615 C 1210.32 4.63141 4.1219 0
M  V30 12616 C 1212.38 3.34454 3.68843 0
M  V30 12617 C 1211.08 5.81953 4.22757 0
M  V30 12618 C 1213.11 4.52611 3.80653 0
M  V30 12619 C 1212.47 5.74825 4.07131 0
M  V30 12620 H 1208.57 0.281719 0.729492 0
M  V30 12621 H 1211.15 1.23564 1.50466 0
M  V30 12622 H 1209.32 0.358917 3.86738 0
M  V30 12623 H 1211.06 0.562892 4.00766 0
M  V30 12624 H 1207.81 2.58172 3.97044 0
M  V30 12625 H 1208.23 5.1725 4.36785 0
M  V30 12626 H 1212.88 2.41008 3.47383 0
M  V30 12627 H 1210.59 6.75832 4.43031 0
M  V30 12628 H 1214.18 4.50095 3.68654 0
M  V30 12629 H 1213.06 6.64727 4.16061 0
M  V30 12630 N 1210.56 -1.39601 0.731392 0
M  V30 12631 C 1211.8 -2.0244 0.282387 0
M  V30 12632 C 1212.17 -1.56776 -1.10839 0
M  V30 12633 O 1213.37 -2.11788 -1.65527 0
M  V30 12634 C 1211.64 -3.55409 0.376704 0
M  V30 12635 S 1213.2 -4.38799 0.00700932 0
M  V30 12636 H 1210.02 -0.7023 0.110886 0
M  V30 12637 H 1212.62 -1.70469 0.957111 0
M  V30 12638 H 1211.32 -3.86134 1.39027 0
M  V30 12639 H 1210.85 -3.92129 -0.315963 0
M  V30 12640 H 1212.87 -4.81213 -1.21032 0
M  V30 12641 N 1212.04 -0.478751 -1.50152 0
M  V30 12642 C 1213.45 -0.0254907 -1.86683 0
M  V30 12643 C 1213.8 1.38171 -1.39295 0
M  V30 12644 O 1212.93 2.0257 -0.761207 0
M  V30 12645 C 1213.52 -0.0394819 -3.38777 0
M  V30 12646 C 1212.08 0.35834 -3.7469 0
M  V30 12647 C 1211.23 -0.421667 -2.74075 0
M  V30 12648 H 1214.18 -0.692653 -1.42787 0
M  V30 12649 H 1214.2 0.760957 -3.72813 0
M  V30 12650 H 1213.71 -1.06378 -3.73236 0
M  V30 12651 H 1211.82 1.38671 -3.45834 0
M  V30 12652 H 1211.93 0.0543589 -4.79069 0
M  V30 12653 H 1210.29 0.125634 -2.5439 0
M  V30 12654 H 1211.08 -1.44562 -3.11379 0
M  V30 12655 N 1213.52 1.56172 -0.211661 0
M  V30 12656 C 1214.94 1.5895 0.143907 0
M  V30 12657 C 1215.14 1.22826 1.59737 0
M  V30 12658 O 1214.19 0.958823 2.33587 0
M  V30 12659 C 1215.51 3.00199 -0.173438 0
M  V30 12660 C 1217.05 3.12789 -0.114877 0
M  V30 12661 C 1217.53 4.56199 -0.405759 0
M  V30 12662 N 1219.02 4.61838 -0.354973 0
M  V30 12663 C 1219.75 5.70721 -0.553671 0
M  V30 12664 N 1219.25 6.88006 -0.813613 0
M  V30 12665 N 1221.04 5.59988 -0.486787 0
M  V30 12666 H 1213.19 1.77931 -1.15993 0
M  V30 12667 H 1215.46 0.826569 -0.464206 0
M  V30 12668 H 1215.16 3.31248 -1.18186 0
M  V30 12669 H 1215.04 3.73651 0.516232 0
M  V30 12670 H 1217.42 2.81543 0.884166 0
M  V30 12671 H 1217.51 2.41688 -0.837875 0
M  V30 12672 H 1217.15 4.88161 -1.40219 0
M  V30 12673 H 1217.08 5.25512 0.338318 0
M  V30 12674 H 1219.57 3.77555 -0.161352 0
M  V30 12675 H 1219.88 7.66894 -0.953594 0
M  V30 12676 H 1218.23 6.89774 -0.850696 0
M  V30 12677 H 1221.42 4.67238 -0.284009 0
M  V30 12678 H 1221.59 6.44781 -0.645051 0
M  V30 12679 N 1215 -0.0618163 1.57479 0
M  V30 12680 C 1216.41 -0.612461 1.76368 0
M  V30 12681 C 1216.76 -1.77381 0.838466 0
M  V30 12682 O 1215.89 -2.16386 0.0250211 0
M  V30 12683 C 1216.48 -1.11782 3.19829 0
M  V30 12684 C 1215.04 -1.61424 3.40028 0
M  V30 12685 C 1214.19 -0.53795 2.72032 0
M  V30 12686 H 1217.14 0.164382 1.57846 0
M  V30 12687 H 1217.16 -1.98634 3.24538 0
M  V30 12688 H 1216.67 -0.272353 3.87143 0
M  V30 12689 H 1214.77 -2.48263 2.77842 0
M  V30 12690 H 1214.88 -1.68431 4.48517 0
M  V30 12691 H 1213.25 -0.985355 2.34868 0
M  V30 12692 H 1214.03 0.297495 3.42009 0
M  V30 12693 N 1216.48 -1.54033 -0.333429 0
M  V30 12694 C 1217.89 -1.63107 -0.908455 0
M  V30 12695 C 1218.24 -0.518823 -1.89216 0
M  V30 12696 O 1217.36 0.34985 -2.13553 0
M  V30 12697 C 1217.96 -2.95657 -1.65447 0
M  V30 12698 C 1216.52 -3.0696 -2.17836 0
M  V30 12699 C 1215.66 -2.58617 -1.00063 0
M  V30 12700 H 1218.62 -1.58309 -0.11128 0
M  V30 12701 H 1218.64 -2.85263 -2.51804 0
M  V30 12702 H 1218.15 -3.76588 -0.938263 0
M  V30 12703 H 1216.25 -2.30683 -2.92602 0
M  V30 12704 H 1216.36 -4.12599 -2.43513 0
M  V30 12705 H 1214.73 -2.1427 -1.37697 0
M  V30 12706 H 1215.51 -3.41996 -0.298901 0
M  V30 12707 N 1217.95 0.594978 -1.45938 0
M  V30 12708 C 1219.37 0.917069 -1.30622 0
M  V30 12709 C 1219.57 1.99702 -0.268554 0
M  V30 12710 O 1218.63 2.50293 0.333146 0
M  V30 12711 C 1219.94 1.34604 -2.68891 0
M  V30 12712 C 1221.49 1.45957 -2.76886 0
M  V30 12713 C 1221.96 1.92225 -4.15708 0
M  V30 12714 N 1223.45 1.99439 -4.18065 0
M  V30 12715 C 1224.19 2.36488 -5.22361 0
M  V30 12716 N 1223.68 2.72416 -6.36994 0
M  V30 12717 N 1225.48 2.36936 -5.09723 0
M  V30 12718 H 1217.63 -0.118625 -2.12068 0
M  V30 12719 H 1219.89 0.00959453 -0.947951 0
M  V30 12720 H 1219.6 0.626605 -3.46073 0
M  V30 12721 H 1219.47 2.31006 -2.98188 0
M  V30 12722 H 1221.86 2.16989 -1.99999 0
M  V30 12723 H 1221.94 0.47838 -2.51287 0
M  V30 12724 H 1221.58 1.21775 -4.93085 0
M  V30 12725 H 1221.51 2.9128 -4.38707 0
M  V30 12726 H 1224 1.74212 -3.35349 0
M  V30 12727 H 1224.32 2.99604 -7.1236 0
M  V30 12728 H 1222.66 2.70083 -6.40375 0
M  V30 12729 H 1225.85 2.08282 -4.19209 0
M  V30 12730 H 1226.03 2.65483 -5.9112 0
M  V30 12731 N 1219.43 1.33438 0.838571 0
M  V30 12732 C 1220.4 1.23632 1.92997 0
M  V30 12733 C 1221.4 0.155302 1.60048 0
M  V30 12734 O 1222.59 0.406852 1.69382 0
M  V30 12735 C 1219.72 0.90512 3.28665 0
M  V30 12736 H 1220.91 2.20643 2.03117 0
M  V30 12737 H 1218.46 1.17501 1.03069 0
M  V30 12738 H 1219.2 -0.0624833 3.2424 0
M  V30 12739 H 1218.98 1.68688 3.53959 0
M  V30 12740 H 1220.47 0.861262 4.08622 0
M  V30 12741 N 1220.91 -1.05686 1.16912 0
M  V30 12742 C 1222.16 -1.78862 0.955839 0
M  V30 12743 C 1222.49 -1.87257 -0.514645 0
M  V30 12744 O 1221.76 -1.36869 -1.38193 0
M  V30 12745 C 1222.05 -3.23021 1.59152 0
M  V30 12746 C 1221.9 -3.22669 3.13376 0
M  V30 12747 C 1223.22 -4.2073 1.29128 0
M  V30 12748 H 1220.34 -0.64931 0.348663 0
M  V30 12749 H 1222.98 -1.23561 1.44335 0
M  V30 12750 H 1221.13 -3.70243 1.17697 0
M  V30 12751 H 1222.8 -2.83562 3.63855 0
M  V30 12752 H 1221.05 -2.61149 3.46386 0
M  V30 12753 H 1221.72 -4.24394 3.52979 0
M  V30 12754 H 1224.19 -3.8198 1.65017 0
M  V30 12755 H 1223.07 -5.19851 1.76198 0
M  V30 12756 H 1223.33 -4.41595 0.21119 0
M  V30 12757 N 1222.39 -0.968567 -1.24324 0
M  V30 12758 C 1223.8 -0.66964 -1.74278 0
M  V30 12759 C 1224.15 0.81461 -1.7849 0
M  V30 12760 O 1223.28 1.63736 -1.4149 0
M  V30 12761 C 1223.87 -1.20885 -3.165 0
M  V30 12762 C 1222.43 -0.959808 -3.63957 0
M  V30 12763 C 1221.58 -1.34365 -2.42573 0
M  V30 12764 H 1224.53 -1.14379 -1.10015 0
M  V30 12765 H 1224.55 -0.57555 -3.76122 0
M  V30 12766 H 1224.06 -2.28912 -3.13402 0
M  V30 12767 H 1222.16 0.104894 -3.72452 0
M  V30 12768 H 1222.27 -1.60606 -4.51378 0
M  V30 12769 H 1220.64 -0.762039 -2.43033 0
M  V30 12770 H 1221.42 -2.43343 -2.42155 0
M  V30 12771 N 1223.87 1.39211 -0.738786 0
M  V30 12772 C 1225.1 2.04435 -0.298318 0
M  V30 12773 C 1225.5 1.55822 1.07314 0
M  V30 12774 O 1224.85 0.719922 1.69005 0
M  V30 12775 C 1224.91 3.58789 -0.225979 0
M  V30 12776 C 1224.57 4.30395 -1.53653 0
M  V30 12777 C 1225.57 4.56777 -2.48295 0
M  V30 12778 C 1223.26 4.68869 -1.80187 0
M  V30 12779 C 1225.25 5.20648 -3.67702 0
M  V30 12780 C 1222.94 5.32467 -2.99871 0
M  V30 12781 C 1223.93 5.58289 -3.93449 0
M  V30 12782 O 1223.62 6.20567 -5.1103 0
M  V30 12783 H 1223.35 0.663848 -0.127603 0
M  V30 12784 H 1225.91 1.79171 -1.00433 0
M  V30 12785 H 1224.14 3.82965 0.536164 0
M  V30 12786 H 1225.83 4.05487 0.182996 0
M  V30 12787 H 1226.59 4.27497 -2.29066 0
M  V30 12788 H 1222.47 4.48124 -1.08193 0
M  V30 12789 H 1226.02 5.4072 -4.40759 0
M  V30 12790 H 1221.91 5.61169 -3.18998 0
M  V30 12791 H 1222.68 6.39059 -5.11415 0
M  V30 12792 N 1225.34 0.486708 1.49896 0
M  V30 12793 C 1226.57 -0.0600816 2.06813 0
M  V30 12794 C 1226.99 -1.32112 1.34877 0
M  V30 12795 O 1226.34 -1.77537 0.422725 0
M  V30 12796 C 1226.4 -0.332266 3.5997 0
M  V30 12797 O 1226.12 0.878771 4.29196 0
M  V30 12798 C 1227.62 -0.924289 4.33557 0
M  V30 12799 H 1224.84 0.0140611 0.670853 0
M  V30 12800 H 1227.38 0.67997 1.92864 0
M  V30 12801 H 1225.54 -1.02227 3.73669 0
M  V30 12802 H 1225.95 0.632873 5.20668 0
M  V30 12803 H 1227.42 -1.06441 5.4164 0
M  V30 12804 H 1227.9 -1.91844 3.95085 0
M  V30 12805 H 1228.51 -0.272189 4.24428 0
M  V30 12806 N 1226.82 -1.56058 0.219941 0
M  V30 12807 C 1227.77 -2.16853 -0.704185 0
M  V30 12808 C 1228.76 -1.11639 -1.15869 0
M  V30 12809 O 1229.95 -1.37632 -1.11295 0
M  V30 12810 C 1227.08 -2.85073 -1.9128 0
M  V30 12811 C 1226.16 -3.9751 -1.47805 0
M  V30 12812 N 1226.56 -5.00121 -0.755792 0
M  V30 12813 C 1224.85 -4.0957 -1.76546 0
M  V30 12814 C 1225.55 -5.79241 -0.534332 0
M  V30 12815 N 1224.53 -5.32549 -1.09055 0
M  V30 12816 H 1228.33 -2.93547 -0.143914 0
M  V30 12817 H 1225.85 -1.62386 0.021133 0
M  V30 12818 H 1227.84 -3.27037 -2.58558 0
M  V30 12819 H 1226.5 -2.09874 -2.47756 0
M  V30 12820 H 1227.51 -5.16285 -0.408647 0
M  V30 12821 H 1224.19 -3.45521 -2.34353 0
M  V30 12822 H 1225.58 -6.71888 0.0404032 0
M  V30 12823 N 1228.3 0.053464 -1.57509 0
M  V30 12824 C 1229.53 0.765301 -1.92764 0
M  V30 12825 C 1229.95 1.69385 -0.817943 0
M  V30 12826 O 1229.31 1.7986 0.228075 0
M  V30 12827 C 1229.36 1.51938 -3.27028 0
M  V30 12828 O 1228.46 2.63121 -3.17555 0
M  V30 12829 H 1227.8 0.207567 -0.630723 0
M  V30 12830 H 1230.33 0.0162254 -2.04594 0
M  V30 12831 H 1230.34 1.89466 -3.6134 0
M  V30 12832 H 1229.02 0.838207 -4.07366 0
M  V30 12833 H 1227.59 2.28316 -2.94832 0
M  V30 12834 N 1229.78 1.54207 0.325255 0
M  V30 12835 C 1230.73 1.79856 1.40128 0
M  V30 12836 C 1231.71 0.654503 1.46987 0
M  V30 12837 O 1232.91 0.914453 1.51548 0
M  V30 12838 C 1230.03 2.02786 2.77007 0
M  V30 12839 C 1229.12 3.23309 2.74467 0
M  V30 12840 N 1229.51 4.44396 2.41549 0
M  V30 12841 C 1227.81 3.24848 3.05598 0
M  V30 12842 C 1228.51 5.26325 2.47703 0
M  V30 12843 N 1227.49 4.63468 2.84074 0
M  V30 12844 H 1231.29 2.71056 1.13603 0
M  V30 12845 H 1228.8 1.53379 0.533728 0
M  V30 12846 H 1230.8 2.19301 3.5456 0
M  V30 12847 H 1229.46 1.12839 3.04463 0
M  V30 12848 H 1230.47 4.71426 2.14425 0
M  V30 12849 H 1227.15 2.44929 3.38107 0
M  V30 12850 H 1228.54 6.33016 2.25257 0
M  V30 12851 N 1231.26 -0.58723 1.46251 0
M  V30 12852 C 1232.5 -1.3476 1.51551 0
M  V30 12853 C 1232.84 -1.93499 0.16483 0
M  V30 12854 O 1232.11 -1.7622 -0.823207 0
M  V30 12855 C 1232.39 -2.48033 2.61059 0
M  V30 12856 C 1232.25 -1.94358 4.05642 0
M  V30 12857 C 1233.57 -3.50096 2.66685 0
M  V30 12858 H 1230.69 -0.48863 0.551733 0
M  V30 12859 H 1233.33 -0.660097 1.78165 0
M  V30 12860 H 1231.48 -3.06679 2.38496 0
M  V30 12861 H 1233.15 -1.40204 4.39478 0
M  V30 12862 H 1231.39 -1.25217 4.15335 0
M  V30 12863 H 1232.06 -2.76105 4.77986 0
M  V30 12864 H 1234.54 -3.01324 2.86955 0
M  V30 12865 H 1233.42 -4.26817 3.45135 0
M  V30 12866 H 1233.68 -4.07032 1.7256 0
M  V30 12867 N 1232.74 -1.33881 -0.831482 0
M  V30 12868 C 1233.96 -1.28812 -1.61911 0
M  V30 12869 C 1234.38 0.139519 -1.88284 0
M  V30 12870 O 1233.74 1.08397 -1.46821 0
M  V30 12871 C 1233.79 -2.06806 -2.96502 0
M  V30 12872 O 1233.51 -3.44 -2.71285 0
M  V30 12873 C 1235.01 -2.09033 -3.90922 0
M  V30 12874 H 1232.23 -0.443473 -0.50356 0
M  V30 12875 H 1234.77 -1.76365 -1.03516 0
M  V30 12876 H 1232.93 -1.62915 -3.51479 0
M  V30 12877 H 1233.34 -3.84213 -3.57044 0
M  V30 12878 H 1234.82 -2.68044 -4.82552 0
M  V30 12879 H 1235.29 -1.08249 -4.25651 0
M  V30 12880 H 1235.9 -2.52975 -3.41883 0
M  V30 12881 N 1234.21 1.05064 -1.1747 0
M  V30 12882 C 1235.16 2.14948 -0.888815 0
M  V30 12883 C 1236.16 1.68761 0.147038 0
M  V30 12884 O 1237.36 1.8 -0.000164278 0
M  V30 12885 H 1233.74 0.701898 -0.269894 0
M  V30 12886 H 1235.71 2.36265 -1.82268 0
M  V30 12887 C 1234.46 3.45154 -0.420006 0
M  V30 12888 H 1233.78 3.81096 -1.20854 0
M  V30 12889 H 1235.22 4.23209 -0.258866 0
M  V30 12890 C 1233.68 3.25671 0.862551 0
M  V30 12891 O 1234.21 3.5235 1.92906 0
M  V30 12892 N 1232.41 2.79048 0.81121 0
M  V30 12893 H 1231.96 2.57537 -0.0569025 0
M  V30 12894 H 1231.92 2.66392 1.66981 0
M  V30 12895 N 1235.69 0.975146 1.23809 0
M  V30 12896 C 1236.92 0.658023 1.95841 0
M  V30 12897 C 1237.33 -0.778132 1.72458 0
M  V30 12898 O 1236.67 -1.53462 1.00971 0
M  V30 12899 C 1236.73 0.862038 3.49012 0
M  V30 12900 C 1236.4 2.27925 3.96105 0
M  V30 12901 C 1237.4 3.25755 4.05191 0
M  V30 12902 C 1235.08 2.60894 4.29231 0
M  V30 12903 C 1237.07 4.54636 4.46749 0
M  V30 12904 C 1234.76 3.89999 4.70472 0
M  V30 12905 C 1235.76 4.86682 4.79197 0
M  V30 12906 O 1235.45 6.13483 5.19513 0
M  V30 12907 H 1235.18 0.243915 0.630461 0
M  V30 12908 H 1237.73 1.30768 1.58395 0
M  V30 12909 H 1235.96 0.155209 3.86388 0
M  V30 12910 H 1237.65 0.542873 4.02253 0
M  V30 12911 H 1238.42 3.01614 3.79808 0
M  V30 12912 H 1234.3 1.86355 4.21655 0
M  V30 12913 H 1237.84 5.30101 4.53474 0
M  V30 12914 H 1233.74 4.13937 4.95304 0
M  V30 12915 H 1234.51 6.17158 5.37641 0
M  V30 12916 N 1237.17 -1.38817 0.746158 0
M  V30 12917 C 1238.1 -2.28116 0.0620717 0
M  V30 12918 C 1239.08 -1.44984 -0.736097 0
M  V30 12919 O 1240.26 -1.7436 -0.7163 0
M  V30 12920 C 1237.39 -3.25992 -0.919065 0
M  V30 12921 C 1236.44 -4.25992 -0.208033 0
M  V30 12922 S 1237.27 -5.24374 1.08593 0
M  V30 12923 C 1238.43 -6.25807 0.107674 0
M  V30 12924 H 1238.66 -2.85787 0.819331 0
M  V30 12925 H 1236.19 -1.44708 0.538422 0
M  V30 12926 H 1238.15 -3.82899 -1.47982 0
M  V30 12927 H 1236.81 -2.67318 -1.64924 0
M  V30 12928 H 1236 -4.9495 -0.95084 0
M  V30 12929 H 1235.61 -3.72943 0.280998 0
M  V30 12930 H 1237.9 -6.73568 -0.728905 0
M  V30 12931 H 1238.84 -7.03959 0.764698 0
M  V30 12932 H 1239.25 -5.63855 -0.269706 0
M  V30 12933 N 1238.65 -0.49465 -1.49636 0
M  V30 12934 C 1240.06 -0.0452894 -1.86645 0
M  V30 12935 C 1240.41 1.36686 -1.40753 0
M  V30 12936 O 1239.53 2.01751 -0.78265 0
M  V30 12937 C 1240.13 -0.0754115 -3.38716 0
M  V30 12938 C 1238.69 0.318579 -3.75049 0
M  V30 12939 C 1237.84 -0.450712 -2.73613 0
M  V30 12940 H 1240.79 -0.707758 -1.42044 0
M  V30 12941 H 1240.81 0.721372 -3.73599 0
M  V30 12942 H 1240.32 -1.10331 -3.72087 0
M  V30 12943 H 1238.42 1.34995 -3.47285 0
M  V30 12944 H 1238.53 0.00354416 -4.791 0
M  V30 12945 H 1236.9 0.0986455 -2.54509 0
M  V30 12946 H 1237.68 -1.47857 -3.09828 0
M  V30 12947 N 1240.13 1.55939 -0.228214 0
M  V30 12948 C 1241.04 2.24213 0.690339 0
M  V30 12949 C 1242.05 1.25197 1.20838 0
M  V30 12950 O 1243.23 1.58026 1.24859 0
M  V30 12951 C 1240.29 2.91384 1.87873 0
M  V30 12952 C 1239.35 4.05761 1.40201 0
M  V30 12953 C 1238.59 4.6972 2.53376 0
M  V30 12954 O 1238.81 4.32687 3.71669 0
M  V30 12955 O 1237.74 5.58587 2.24198 0
M  V30 12956 H 1241.57 3.03383 0.138692 0
M  V30 12957 H 1239.15 1.494 0.00251504 0
M  V30 12958 H 1241.04 3.33758 2.57262 0
M  V30 12959 H 1239.71 2.15168 2.41835 0
M  V30 12960 H 1238.62 3.67943 0.675945 0
M  V30 12961 H 1239.95 4.83739 0.908691 0
M  V30 12962 N 1241.6 -0.0451101 1.57535 0
M  V30 12963 C 1242.83 -0.75132 1.92777 0
M  V30 12964 C 1243.25 -1.69743 0.826599 0
M  V30 12965 O 1242.6 -1.8142 -0.198224 0
M  V30 12966 C 1242.66 -1.52218 3.2789 0
M  V30 12967 O 1242.38 -0.614059 4.33775 0
M  V30 12968 C 1243.88 -2.32699 3.77314 0
M  V30 12969 H 1241.1 -0.21211 0.636593 0
M  V30 12970 H 1243.64 -0.0074174 2.04499 0
M  V30 12971 H 1241.8 -2.2181 3.17614 0
M  V30 12972 H 1242.21 -1.15294 5.11671 0
M  V30 12973 H 1243.68 -2.82205 4.7441 0
M  V30 12974 H 1244.16 -3.13414 3.07682 0
M  V30 12975 H 1244.77 -1.68212 3.90621 0
M  V30 12976 N 1243.08 -1.54377 -0.317073 0
M  V30 12977 C 1244.33 -1.72551 -1.05216 0
M  V30 12978 C 1244.65 -0.5055 -1.88334 0
M  V30 12979 O 1243.92 0.480439 -1.89917 0
M  V30 12980 H 1242.5 -0.636222 -0.391447 0
M  V30 12981 H 1245.16 -1.91696 -0.35194 0
M  V30 12982 H 1244.26 -2.60791 -1.71448 0
M  V30 12983 N 1244.56 0.579466 -1.4656 0
M  V30 12984 C 1245.84 1.33973 -1.42515 0
M  V30 12985 C 1246.22 2.10812 -0.110317 0
M  V30 12986 O 1245.57 2.09679 0.908135 0
M  V30 12987 C 1245.78 2.26301 -2.65686 0
M  V30 12988 C 1247.12 2.88027 -3.1197 0
M  V30 12989 O 1248.15 2.36612 -2.66257 0
M  V30 12990 O 1247.01 3.81423 -3.9138 0
M  V30 12991 H 1244.1 0.602121 -0.566903 0
M  V30 12992 H 1246.65 0.600214 -1.58731 0
M  V30 12993 H 1245.42 1.68973 -3.52936 0
M  V30 12994 H 1245.04 3.07586 -2.51945 0
M  V30 12995 N 1246.04 1.3432 0.824371 0
M  V30 12996 C 1247.28 1.26783 1.58284 0
M  V30 12997 C 1247.62 -0.162282 1.93521 0
M  V30 12998 O 1246.89 -1.1073 1.59903 0
M  V30 12999 C 1247.18 2.15725 2.88331 0
M  V30 13000 C 1247.03 3.67266 2.59684 0
M  V30 13001 C 1248.35 2.04141 3.8989 0
M  V30 13002 H 1245.47 0.461893 0.574303 0
M  V30 13003 H 1248.11 1.64558 0.949769 0
M  V30 13004 H 1246.26 1.83639 3.42358 0
M  V30 13005 H 1247.93 4.09711 2.11978 0
M  V30 13006 H 1246.17 3.88426 1.93151 0
M  V30 13007 H 1246.84 4.24863 3.52414 0
M  V30 13008 H 1249.32 2.3231 3.45212 0
M  V30 13009 H 1248.2 2.68601 4.7869 0
M  V30 13010 H 1248.46 1.01795 4.30221 0
M  V30 13011 N 1247.52 -1.0444 1.18026 0
M  V30 13012 C 1248.74 -1.81234 0.998089 0
M  V30 13013 C 1249.16 -1.83271 -0.453559 0
M  V30 13014 O 1248.52 -1.26545 -1.31502 0
M  V30 13015 C 1248.57 -3.27007 1.54106 0
M  V30 13016 O 1248.29 -3.25174 2.93587 0
M  V30 13017 C 1249.79 -4.20461 1.40455 0
M  V30 13018 H 1247.01 -0.57085 0.352663 0
M  V30 13019 H 1249.55 -1.31649 1.56489 0
M  V30 13020 H 1247.71 -3.73837 1.01611 0
M  V30 13021 H 1248.12 -4.16466 3.18836 0
M  V30 13022 H 1249.6 -5.20695 1.83249 0
M  V30 13023 H 1250.07 -4.37781 0.352713 0
M  V30 13024 H 1250.68 -3.79493 1.92004 0
M  V30 13025 N 1248.99 -0.981699 -1.2329 0
M  V30 13026 C 1250.22 -0.66937 -1.95773 0
M  V30 13027 C 1250.64 0.763898 -1.72656 0
M  V30 13028 O 1249.99 1.51418 -1.01876 0
M  V30 13029 C 1250.05 -0.951863 -3.48743 0
M  V30 13030 O 1249.77 -2.3288 -3.71078 0
M  V30 13031 C 1251.27 -0.655668 -4.38424 0
M  V30 13032 H 1248.49 -0.248545 -0.623271 0
M  V30 13033 H 1251.03 -1.31343 -1.56746 0
M  V30 13034 H 1249.19 -0.353787 -3.85781 0
M  V30 13035 H 1249.6 -2.41948 -4.65362 0
M  V30 13036 H 1251.07 -0.903683 -5.44553 0
M  V30 13037 H 1251.55 0.410269 -4.3728 0
M  V30 13038 H 1252.16 -1.23428 -4.06996 0
M  V30 13039 N 1250.47 1.3842 -0.753509 0
M  V30 13040 C 1251.44 2.28808 -0.134022 0
M  V30 13041 C 1252.44 1.47184 0.647583 0
M  V30 13042 O 1253.63 1.67631 0.473861 0
M  V30 13043 C 1250.76 3.30926 0.81858 0
M  V30 13044 H 1251.95 2.85097 -0.930586 0
M  V30 13045 H 1249.5 1.47378 -0.520514 0
M  V30 13046 H 1250.24 2.79728 1.64082 0
M  V30 13047 H 1250.02 3.91234 0.260526 0
M  V30 13048 H 1251.51 3.98515 1.24802 0
M  V30 13049 N 1251.95 0.502579 1.49372 0
M  V30 13050 C 1253.2 -0.0432341 2.01654 0
M  V30 13051 C 1253.51 -1.379 1.38719 0
M  V30 13052 O 1254.72 -2.01159 1.82338 0
M  V30 13053 C 1253.17 -0.127509 3.59674 0
M  V30 13054 C 1252.78 1.20171 4.31582 0
M  V30 13055 C 1254.53 -0.623603 4.19895 0
M  V30 13056 C 1252.43 1.07951 5.81464 0
M  V30 13057 H 1251.36 -0.0199308 0.753737 0
M  V30 13058 H 1254.01 0.642237 1.71894 0
M  V30 13059 H 1252.4 -0.877465 3.86156 0
M  V30 13060 H 1253.57 1.96508 4.16799 0
M  V30 13061 H 1251.89 1.63136 3.83113 0
M  V30 13062 H 1254.48 -0.732562 5.29658 0
M  V30 13063 H 1254.83 -1.62282 3.83367 0
M  V30 13064 H 1255.36 0.0698641 3.97739 0
M  V30 13065 H 1252.1 2.05304 6.22519 0
M  V30 13066 H 1251.62 0.357051 5.98736 0
M  V30 13067 H 1253.3 0.758885 6.42534 0
M  V30 13068 N 1253.43 -1.55816 0.23648 0
M  V30 13069 C 1254.67 -1.98981 -0.391725 0
M  V30 13070 C 1255.01 -1.12428 -1.58346 0
M  V30 13071 O 1254.28 -0.185303 -1.93615 0
M  V30 13072 C 1254.57 -3.50831 -0.811759 0
M  V30 13073 C 1254.42 -4.48152 0.384648 0
M  V30 13074 C 1255.74 -4.07489 -1.66254 0
M  V30 13075 H 1252.86 -0.723404 -0.140911 0
M  V30 13076 H 1255.5 -1.87011 0.335706 0
M  V30 13077 H 1253.65 -3.61162 -1.43157 0
M  V30 13078 H 1255.32 -4.49814 1.02298 0
M  V30 13079 H 1253.56 -4.21406 1.02955 0
M  V30 13080 H 1254.23 -5.51979 0.0475809 0
M  V30 13081 H 1256.71 -4.00195 -1.13944 0
M  V30 13082 H 1255.59 -5.14026 -1.92531 0
M  V30 13083 H 1255.85 -3.55297 -2.6309 0
M  V30 13084 N 1254.91 0.036755 -1.57557 0
M  V30 13085 C 1256.32 0.392264 -1.54704 0
M  V30 13086 C 1256.52 1.77076 -0.96157 0
M  V30 13087 O 1255.58 2.45766 -0.579263 0
M  V30 13088 C 1256.89 0.301168 -2.99188 0
M  V30 13089 C 1258.44 0.378813 -3.10699 0
M  V30 13090 C 1258.91 0.317249 -4.569 0
M  V30 13091 N 1260.41 0.376277 -4.61669 0
M  V30 13092 C 1261.14 0.351411 -5.72322 0
M  V30 13093 N 1260.64 0.279288 -6.92237 0
M  V30 13094 N 1262.43 0.400571 -5.60671 0
M  V30 13095 H 1254.58 -0.865455 -1.93968 0
M  V30 13096 H 1256.84 -0.328339 -0.889324 0
M  V30 13097 H 1256.55 -0.64582 -3.4572 0
M  V30 13098 H 1256.42 1.09784 -3.6087 0
M  V30 13099 H 1258.81 1.31623 -2.6412 0
M  V30 13100 H 1258.89 -0.447072 -2.51863 0
M  V30 13101 H 1258.54 -0.616469 -5.04145 0
M  V30 13102 H 1258.47 1.16114 -5.13639 0
M  V30 13103 H 1260.96 0.434843 -3.7539 0
M  V30 13104 H 1261.27 0.265202 -7.72345 0
M  V30 13105 H 1259.61 0.24545 -6.94566 0
M  V30 13106 H 1262.81 0.454854 -4.65885 0
M  V30 13107 H 1262.98 0.377724 -6.46898 0
M  V30 13108 N 1256.39 1.54543 0.308881 0
M  V30 13109 C 1257.8 1.45581 0.654088 0
M  V30 13110 C 1258 0.640597 1.91046 0
M  V30 13111 O 1257.06 0.14518 2.52082 0
M  V30 13112 C 1258.37 2.89461 0.814422 0
M  V30 13113 C 1259.92 2.99455 0.910817 0
M  V30 13114 C 1260.39 4.44515 1.10321 0
M  V30 13115 N 1261.88 4.4819 1.1696 0
M  V30 13116 C 1262.62 5.57604 1.33661 0
M  V30 13117 N 1262.12 6.76957 1.47311 0
M  V30 13118 N 1263.91 5.45278 1.36487 0
M  V30 13119 H 1256.06 2.06019 -0.516699 0
M  V30 13120 H 1258.32 0.932729 -0.169471 0
M  V30 13121 H 1258.03 3.5168 -0.0377455 0
M  V30 13122 H 1257.9 3.36425 1.70582 0
M  V30 13123 H 1260.29 2.37355 1.75348 0
M  V30 13124 H 1260.37 2.558 -0.00443172 0
M  V30 13125 H 1260.01 5.07206 0.265346 0
M  V30 13126 H 1259.94 4.85793 2.03256 0
M  V30 13127 H 1262.44 3.62199 1.07796 0
M  V30 13128 H 1262.75 7.561 1.59788 0
M  V30 13129 H 1261.09 6.79837 1.44382 0
M  V30 13130 H 1264.28 4.50983 1.25429 0
M  V30 13131 H 1264.46 6.30599 1.4916 0
M  V30 13132 N 1257.86 -0.571685 1.46866 0
M  V30 13133 C 1258.81 -1.70098 1.58649 0
M  V30 13134 C 1259.81 -1.63191 0.45443 0
M  V30 13135 O 1261.01 -1.68551 0.63171 0
M  V30 13136 H 1257.39 -0.56258 0.499007 0
M  V30 13137 H 1259.36 -1.57293 2.53577 0
M  V30 13138 C 1258.11 -3.08475 1.60433 0
M  V30 13139 H 1257.43 -3.14465 2.46884 0
M  V30 13140 H 1258.87 -3.87221 1.7273 0
M  V30 13141 C 1257.33 -3.35231 0.334948 0
M  V30 13142 O 1257.86 -3.97633 -0.570149 0
M  V30 13143 N 1256.06 -2.8977 0.219441 0
M  V30 13144 H 1255.61 -2.39168 0.956891 0
M  V30 13145 H 1255.57 -3.08044 -0.628975 0
M  V30 13146 N 1259.34 -1.34755 -0.817236 0
M  V30 13147 C 1260.57 -1.30522 -1.60536 0
M  V30 13148 C 1260.98 0.119541 -1.88421 0
M  V30 13149 O 1260.34 1.06833 -1.47962 0
M  V30 13150 C 1260.39 -2.09939 -2.94292 0
M  V30 13151 O 1260.11 -3.46858 -2.67621 0
M  V30 13152 C 1261.61 -2.13168 -3.88683 0
M  V30 13153 H 1258.83 -0.448789 -0.498828 0
M  V30 13154 H 1261.38 -1.77453 -1.01639 0
M  V30 13155 H 1259.53 -1.66634 -3.49731 0
M  V30 13156 H 1259.95 -3.87979 -3.52949 0
M  V30 13157 H 1261.42 -2.73147 -4.79682 0
M  V30 13158 H 1261.9 -1.12758 -4.24479 0
M  V30 13159 H 1262.5 -2.56587 -3.39181 0
M  V30 13160 N 1260.82 1.03812 -1.18578 0
M  V30 13161 C 1262.07 1.76455 -0.977071 0
M  V30 13162 C 1262.38 1.8926 0.493964 0
M  V30 13163 O 1263.59 2.58781 0.821256 0
M  V30 13164 C 1262.04 3.17264 -1.69917 0
M  V30 13165 C 1261.65 3.12543 -3.20969 0
M  V30 13166 C 1263.4 3.94266 -1.57337 0
M  V30 13167 C 1261.3 4.48226 -3.85807 0
M  V30 13168 H 1260.23 0.661445 -0.361949 0
M  V30 13169 H 1262.88 1.16252 -1.41978 0
M  V30 13170 H 1261.27 3.77878 -1.18424 0
M  V30 13171 H 1262.44 2.61364 -3.79507 0
M  V30 13172 H 1260.75 2.49039 -3.33719 0
M  V30 13173 H 1263.35 4.9461 -2.03137 0
M  V30 13174 H 1263.69 4.12963 -0.526033 0
M  V30 13175 H 1264.23 3.40232 -2.06124 0
M  V30 13176 H 1260.97 4.34734 -4.90599 0
M  V30 13177 H 1260.49 4.99497 -3.32058 0
M  V30 13178 H 1262.17 5.17135 -3.88819 0
M  V30 13179 N 1262.3 0.988223 1.22768 0
M  V30 13180 C 1263.53 0.679743 1.95415 0
M  V30 13181 C 1263.94 -0.754731 1.73059 0
M  V30 13182 O 1263.3 -1.50876 1.02678 0
M  V30 13183 C 1263.35 0.970344 3.48234 0
M  V30 13184 O 1263.07 2.34845 3.69837 0
M  V30 13185 C 1264.57 0.67891 4.3807 0
M  V30 13186 H 1261.79 0.251847 0.621944 0
M  V30 13187 H 1264.33 1.32173 1.56047 0
M  V30 13188 H 1262.49 0.374241 3.85588 0
M  V30 13189 H 1262.9 2.44412 4.64072 0
M  V30 13190 H 1264.38 0.932549 5.44066 0
M  V30 13191 H 1264.85 -0.387073 4.37491 0
M  V30 13192 H 1265.46 1.25585 4.06335 0
M  V30 13193 N 1263.78 -1.38018 0.760839 0
M  V30 13194 C 1265 -2.04231 0.331285 0
M  V30 13195 C 1265.42 -1.57385 -1.04285 0
M  V30 13196 O 1264.78 -0.750168 -1.66369 0
M  V30 13197 C 1264.83 -3.59772 0.353021 0
M  V30 13198 O 1264.55 -4.049 1.67294 0
M  V30 13199 C 1266.05 -4.4321 -0.0894942 0
M  V30 13200 H 1263.27 -0.656145 0.140408 0
M  V30 13201 H 1265.81 -1.76567 1.03172 0
M  V30 13202 H 1263.97 -3.86246 -0.298735 0
M  V30 13203 H 1264.38 -4.99369 1.60408 0
M  V30 13204 H 1265.86 -5.51995 -0.0231262 0
M  V30 13205 H 1266.33 -4.2419 -1.13839 0
M  V30 13206 H 1266.94 -4.21939 0.533661 0
M  V30 13207 N 1265.25 -0.510493 -1.49103 0
M  V30 13208 C 1266.22 0.251915 -2.27811 0
M  V30 13209 C 1267.22 0.885432 -1.34226 0
M  V30 13210 O 1268.41 0.748494 -1.573 0
M  V30 13211 C 1265.54 1.3624 -3.12492 0
M  V30 13212 H 1266.73 -0.438872 -2.96671 0
M  V30 13213 H 1264.28 -0.265767 -1.54024 0
M  V30 13214 H 1265.02 2.08705 -2.48219 0
M  V30 13215 H 1264.8 0.913485 -3.81311 0
M  V30 13216 H 1266.29 1.89919 -3.71915 0
M  V30 13217 N 1266.73 1.55688 -0.24474 0
M  V30 13218 C 1267.98 1.98498 0.379852 0
M  V30 13219 C 1268.3 1.13416 1.58625 0
M  V30 13220 O 1267.57 0.216456 1.947 0
M  V30 13221 H 1266.15 0.73312 0.143334 0
M  V30 13222 H 1268.81 1.91858 -0.343027 0
M  V30 13223 H 1267.91 3.04367 0.690463 0
M  V30 13224 N 1268.21 -0.0283989 1.57574 0
M  V30 13225 C 1269.62 -0.574912 1.77628 0
M  V30 13226 C 1269.97 -1.75563 0.875903 0
M  V30 13227 O 1269.1 -2.16284 0.0709141 0
M  V30 13228 C 1269.69 -1.04972 3.22128 0
M  V30 13229 C 1268.25 -1.54175 3.43376 0
M  V30 13230 C 1267.4 -0.480127 2.73112 0
M  V30 13231 H 1270.35 0.197826 1.57462 0
M  V30 13232 H 1270.37 -1.91705 3.28678 0
M  V30 13233 H 1269.88 -0.190173 3.87634 0
M  V30 13234 H 1267.98 -2.42313 2.83046 0
M  V30 13235 H 1268.1 -1.58879 4.51989 0
M  V30 13236 H 1266.46 -0.935314 2.36905 0
M  V30 13237 H 1267.24 0.369973 3.41301 0
M  V30 13238 N 1269.69 -1.54705 -0.300681 0
M  V30 13239 C 1270.91 -1.78318 -1.05913 0
M  V30 13240 C 1271.34 -0.541177 -1.80147 0
M  V30 13241 O 1270.7 0.508291 -1.74029 0
M  V30 13242 C 1270.74 -2.99041 -2.01511 0
M  V30 13243 O 1269.85 -2.72188 -3.09818 0
M  V30 13244 H 1269.19 -0.590197 -0.304242 0
M  V30 13245 H 1271.72 -2.01789 -0.338006 0
M  V30 13246 H 1271.73 -3.2702 -2.43971 0
M  V30 13247 H 1270.4 -3.89098 -1.46886 0
M  V30 13248 H 1268.98 -2.55227 -2.71871 0
M  V30 13249 N 1271.17 0.563888 -1.47167 0
M  V30 13250 C 1272.44 1.32454 -1.43928 0
M  V30 13251 C 1272.82 2.10683 -0.13267 0
M  V30 13252 O 1272.17 2.1063 0.885845 0
M  V30 13253 C 1272.38 2.2347 -2.68071 0
M  V30 13254 C 1273.73 2.84702 -3.15008 0
M  V30 13255 O 1274.75 2.33775 -2.68752 0
M  V30 13256 O 1273.61 3.77251 -3.95404 0
M  V30 13257 H 1270.71 0.596074 -0.573258 0
M  V30 13258 H 1273.25 0.583345 -1.59359 0
M  V30 13259 H 1272.02 1.6522 -3.54708 0
M  V30 13260 H 1271.65 3.04897 -2.55193 0
M  V30 13261 N 1272.64 1.35187 0.810078 0
M  V30 13262 C 1273.57 1.30481 1.93641 0
M  V30 13263 C 1274.56 0.179875 1.69146 0
M  V30 13264 O 1275.74 0.374284 1.90559 0
M  V30 13265 C 1272.87 1.07251 3.30325 0
M  V30 13266 C 1271.82 2.16348 3.69293 0
M  V30 13267 C 1271.15 1.78288 5.04101 0
M  V30 13268 C 1272.45 3.58285 3.80038 0
M  V30 13269 H 1274.14 2.24725 1.97836 0
M  V30 13270 H 1271.69 1.08179 0.950436 0
M  V30 13271 H 1273.64 1.02599 4.08719 0
M  V30 13272 H 1272.37 0.0945203 3.26463 0
M  V30 13273 H 1271.03 2.2009 2.93182 0
M  V30 13274 H 1270.67 0.791163 4.96739 0
M  V30 13275 H 1270.37 2.51315 5.31144 0
M  V30 13276 H 1271.9 1.75155 5.84938 0
M  V30 13277 H 1273.31 3.56884 4.48672 0
M  V30 13278 H 1271.71 4.30044 4.18548 0
M  V30 13279 H 1272.78 3.94691 2.81685 0
M  V30 13280 N 1274.12 -1.03182 1.19127 0
M  V30 13281 C 1275.35 -1.79904 1.01578 0
M  V30 13282 C 1275.76 -1.84044 -0.438697 0
M  V30 13283 O 1275.1 -1.28117 -1.3165 0
M  V30 13284 C 1275.17 -3.26473 1.50519 0
M  V30 13285 C 1274.83 -3.45975 2.98581 0
M  V30 13286 C 1275.83 -3.36436 3.96367 0
M  V30 13287 C 1273.51 -3.72284 3.37209 0
M  V30 13288 C 1275.51 -3.52925 5.30775 0
M  V30 13289 C 1273.19 -3.8842 4.71777 0
M  V30 13290 C 1274.19 -3.78742 5.68369 0
M  V30 13291 O 1273.88 -3.94405 7.005 0
M  V30 13292 H 1273.61 -0.573103 0.35851 0
M  V30 13293 H 1276.16 -1.30871 1.5831 0
M  V30 13294 H 1274.39 -3.76517 0.881593 0
M  V30 13295 H 1276.08 -3.84781 1.29223 0
M  V30 13296 H 1276.85 -3.16064 3.6787 0
M  V30 13297 H 1272.73 -3.78911 2.62579 0
M  V30 13298 H 1276.27 -3.45288 6.06153 0
M  V30 13299 H 1272.17 -4.08288 4.99971 0
M  V30 13300 H 1272.94 -4.11514 7.0753 0
M  V30 13301 N 1275.6 -0.99472 -1.22242 0
M  V30 13302 C 1276.85 -0.672596 -1.91322 0
M  V30 13303 C 1277.18 0.793542 -1.77247 0
M  V30 13304 O 1276.45 1.57407 -1.14251 0
M  V30 13305 C 1276.74 -1.08155 -3.43474 0
M  V30 13306 C 1276.59 -2.60638 -3.6659 0
M  V30 13307 C 1277.91 -0.636161 -4.35478 0
M  V30 13308 H 1275.03 -0.24582 -0.694796 0
M  V30 13309 H 1277.67 -1.23857 -1.44082 0
M  V30 13310 H 1275.82 -0.599987 -3.83839 0
M  V30 13311 H 1277.49 -3.16479 -3.35617 0
M  V30 13312 H 1275.74 -3.02624 -3.10808 0
M  V30 13313 H 1276.41 -2.84304 -4.73155 0
M  V30 13314 H 1278.88 -1.04982 -4.02639 0
M  V30 13315 H 1277.76 -0.950584 -5.40606 0
M  V30 13316 H 1278.02 0.4631 -4.39668 0
M  V30 13317 N 1277.08 1.37613 -0.768148 0
M  V30 13318 C 1278.03 2.27654 -0.125596 0
M  V30 13319 C 1279.01 1.45923 0.677883 0
M  V30 13320 O 1280.2 1.68515 0.541448 0
M  V30 13321 C 1277.33 3.34884 0.7555 0
M  V30 13322 C 1276.42 4.24064 -0.0556137 0
M  V30 13323 N 1276.81 4.93707 -1.09943 0
M  V30 13324 C 1275.11 4.4568 0.168932 0
M  V30 13325 C 1275.81 5.59508 -1.59142 0
M  V30 13326 N 1274.79 5.36027 -0.904208 0
M  V30 13327 H 1278.59 2.7897 -0.924828 0
M  V30 13328 H 1276.1 1.50687 -0.605561 0
M  V30 13329 H 1278.1 3.98294 1.23157 0
M  V30 13330 H 1276.76 2.85124 1.55352 0
M  V30 13331 H 1277.77 4.96258 -1.48151 0
M  V30 13332 H 1274.45 4.068 0.939144 0
M  V30 13333 H 1275.84 6.2518 -2.4617 0
M  V30 13334 N 1278.56 0.518393 1.4883 0
M  V30 13335 C 1279.8 -0.0199348 2.0279 0
M  V30 13336 C 1280.14 -1.35026 1.39576 0
M  V30 13337 O 1279.41 -1.86927 0.537449 0
M  V30 13338 C 1279.69 -0.154184 3.5977 0
M  V30 13339 C 1279.55 1.2005 4.33484 0
M  V30 13340 C 1280.87 -0.886547 4.31078 0
M  V30 13341 H 1277.98 -0.00577061 0.736977 0
M  V30 13342 H 1280.63 0.673178 1.77675 0
M  V30 13343 H 1278.78 -0.74451 3.81299 0
M  V30 13344 H 1280.45 1.83104 4.23404 0
M  V30 13345 H 1278.69 1.78537 3.95357 0
M  V30 13346 H 1279.36 1.05968 5.41733 0
M  V30 13347 H 1281.84 -0.385711 4.14308 0
M  V30 13348 H 1280.71 -0.949355 5.40628 0
M  V30 13349 H 1280.98 -1.93424 3.97542 0
M  V30 13350 N 1280.03 -1.55556 0.252993 0
M  V30 13351 C 1281.28 -1.98697 -0.369319 0
M  V30 13352 C 1281.6 -1.14256 -1.58021 0
M  V30 13353 O 1280.87 -0.226779 -1.94583 0
M  V30 13354 H 1279.45 -0.733869 -0.139444 0
M  V30 13355 H 1282.12 -1.91673 0.353197 0
M  V30 13356 H 1281.21 -3.04728 -0.674312 0
M  V30 13357 N 1281.51 0.0200419 -1.57587 0
M  V30 13358 C 1282.46 1.0362 -2.08244 0
M  V30 13359 C 1283.45 1.36872 -0.998119 0
M  V30 13360 O 1284.66 1.35671 -1.18293 0
M  V30 13361 H 1281.04 0.351731 -0.664673 0
M  V30 13362 H 1283.01 0.583226 -2.92645 0
M  V30 13363 C 1281.76 2.32574 -2.58466 0
M  V30 13364 H 1281.08 2.0785 -3.41523 0
M  V30 13365 H 1282.52 3.02 -2.97611 0
M  V30 13366 C 1280.98 3.02167 -1.48986 0
M  V30 13367 O 1281.51 3.92359 -0.861251 0
M  V30 13368 N 1279.71 2.63649 -1.22219 0
M  V30 13369 H 1279.26 1.90389 -1.73521 0
M  V30 13370 H 1279.22 3.10529 -0.491828 0
M  V30 13371 N 1282.99 1.54862 0.292472 0
M  V30 13372 C 1283.92 1.89406 1.36556 0
M  V30 13373 C 1284.9 0.753838 1.52484 0
M  V30 13374 O 1286.09 1.01031 1.6585 0
M  V30 13375 C 1283.22 2.14888 2.72838 0
M  V30 13376 C 1282.17 3.3073 2.71665 0
M  V30 13377 C 1281.5 3.41648 4.11316 0
M  V30 13378 C 1282.8 4.67622 2.32651 0
M  V30 13379 H 1284.49 2.79284 1.07894 0
M  V30 13380 H 1282.04 1.34377 0.517585 0
M  V30 13381 H 1283.99 2.3764 3.48002 0
M  V30 13382 H 1282.71 1.2179 3.03042 0
M  V30 13383 H 1281.37 3.07915 1.98958 0
M  V30 13384 H 1281.02 2.46051 4.38711 0
M  V30 13385 H 1280.72 4.19522 4.11431 0
M  V30 13386 H 1282.24 3.6667 4.88248 0
M  V30 13387 H 1283.66 4.90048 2.97533 0
M  V30 13388 H 1282.06 5.48272 2.43963 0
M  V30 13389 H 1283.13 4.67762 1.27777 0
M  V30 13390 N 1284.47 -0.556076 1.47464 0
M  V30 13391 C 1285.72 -1.30955 1.53407 0
M  V30 13392 C 1286.03 -1.94559 0.201485 0
M  V30 13393 O 1287.24 -2.71144 0.138925 0
M  V30 13394 C 1285.69 -2.37476 2.70431 0
M  V30 13395 C 1285.3 -1.80057 4.10224 0
M  V30 13396 C 1287.04 -3.13997 2.85668 0
M  V30 13397 C 1284.95 -2.84365 5.18547 0
M  V30 13398 H 1283.88 -0.4924 0.571015 0
M  V30 13399 H 1286.53 -0.590459 1.73741 0
M  V30 13400 H 1284.91 -3.12304 2.43479 0
M  V30 13401 H 1286.09 -1.11593 4.47083 0
M  V30 13402 H 1284.4 -1.16116 3.99882 0
M  V30 13403 H 1287 -3.91892 3.63764 0
M  V30 13404 H 1287.34 -3.68253 1.94153 0
M  V30 13405 H 1287.88 -2.46281 3.12395 0
M  V30 13406 H 1284.62 -2.34963 6.11942 0
M  V30 13407 H 1284.14 -3.51235 4.86203 0
M  V30 13408 H 1285.81 -3.47836 5.45545 0
M  V30 13409 N 1285.95 -1.35615 -0.802897 0
M  V30 13410 C 1287.18 -1.32025 -1.58911 0
M  V30 13411 C 1287.59 0.103539 -1.88916 0
M  V30 13412 O 1286.93 1.06699 -1.49536 0
M  V30 13413 C 1286.99 -2.06313 -2.94406 0
M  V30 13414 C 1286.65 -3.5548 -2.87198 0
M  V30 13415 C 1287.65 -4.5 -2.60377 0
M  V30 13416 C 1285.34 -3.9818 -3.06199 0
M  V30 13417 C 1287.33 -5.85194 -2.5264 0
M  V30 13418 C 1285.02 -5.33469 -2.98084 0
M  V30 13419 C 1286.02 -6.26788 -2.71341 0
M  V30 13420 O 1285.7 -7.59594 -2.63195 0
M  V30 13421 H 1285.44 -0.454943 -0.500003 0
M  V30 13422 H 1287.99 -1.79106 -1.00549 0
M  V30 13423 H 1286.22 -1.53875 -3.54766 0
M  V30 13424 H 1287.91 -1.95755 -3.55577 0
M  V30 13425 H 1288.67 -4.18327 -2.45413 0
M  V30 13426 H 1284.55 -3.25927 -3.26025 0
M  V30 13427 H 1288.1 -6.58003 -2.31686 0
M  V30 13428 H 1283.99 -5.64754 -3.12607 0
M  V30 13429 H 1284.76 -7.69562 -2.78776 0
M  V30 13430 N 1287.43 1.02549 -1.19673 0
M  V30 13431 C 1288.84 1.28271 -0.94967 0
M  V30 13432 C 1289.04 1.97961 0.37599 0
M  V30 13433 O 1288.1 2.26955 1.10668 0
M  V30 13434 C 1289.41 2.12647 -2.12607 0
M  V30 13435 C 1290.96 2.25943 -2.16607 0
M  V30 13436 C 1291.43 3.13693 -3.33708 0
M  V30 13437 N 1292.92 3.21281 -3.33665 0
M  V30 13438 C 1293.66 3.89377 -4.20919 0
M  V30 13439 N 1293.16 4.59675 -5.18334 0
M  V30 13440 N 1294.95 3.85811 -4.08786 0
M  V30 13441 H 1287.1 0.557304 -2.04958 0
M  V30 13442 H 1289.36 0.308531 -0.896389 0
M  V30 13443 H 1289.07 1.68766 -3.08563 0
M  V30 13444 H 1288.94 3.13367 -2.09955 0
M  V30 13445 H 1291.33 2.69053 -1.2122 0
M  V30 13446 H 1291.41 1.24762 -2.23311 0
M  V30 13447 H 1291.05 2.7129 -4.29376 0
M  V30 13448 H 1290.98 4.14941 -3.2424 0
M  V30 13449 H 1293.48 2.71218 -2.63152 0
M  V30 13450 H 1293.79 5.09277 -5.81254 0
M  V30 13451 H 1292.13 4.58529 -5.22279 0
M  V30 13452 H 1295.32 3.30033 -3.31957 0
M  V30 13453 H 1295.5 4.38607 -4.76999 0
M  V30 13454 N 1288.9 1.00119 1.21713 0
M  V30 13455 C 1289.85 0.551452 2.25969 0
M  V30 13456 C 1290.85 -0.402075 1.64559 0
M  V30 13457 O 1292.05 -0.273685 1.77907 0
M  V30 13458 H 1288.43 0.159968 0.734789 0
M  V30 13459 H 1290.4 1.44201 2.61244 0
M  V30 13460 C 1289.15 -0.109992 3.47526 0
M  V30 13461 H 1288.47 0.614686 3.95046 0
M  V30 13462 H 1289.91 -0.388007 4.22221 0
M  V30 13463 C 1288.37 -1.34798 3.08757 0
M  V30 13464 O 1288.9 -2.44266 3.189 0
M  V30 13465 N 1287.1 -1.2263 2.63458 0
M  V30 13466 H 1286.65 -0.335571 2.55405 0
M  V30 13467 H 1286.61 -2.05565 2.37887 0
M  V30 13468 N 1290.38 -1.37203 0.775435 0
M  V30 13469 C 1291.31 -2.32819 0.17826 0
M  V30 13470 C 1292.29 -1.55963 -0.678944 0
M  V30 13471 O 1293.48 -1.84183 -0.615648 0
M  V30 13472 C 1290.61 -3.40198 -0.698768 0
M  V30 13473 C 1289.56 -4.27961 0.057423 0
M  V30 13474 C 1288.89 -5.26385 -0.93929 0
M  V30 13475 C 1290.19 -5.07402 1.23856 0
M  V30 13476 H 1291.88 -2.8301 0.977028 0
M  V30 13477 H 1289.43 -1.3607 0.471274 0
M  V30 13478 H 1291.38 -4.06067 -1.12637 0
M  V30 13479 H 1290.1 -2.88541 -1.53009 0
M  V30 13480 H 1288.76 -3.63628 0.465848 0
M  V30 13481 H 1288.41 -4.71007 -1.76527 0
M  V30 13482 H 1288.11 -5.85966 -0.437844 0
M  V30 13483 H 1289.64 -5.9513 -1.36576 0
M  V30 13484 H 1291.05 -5.6639 0.887423 0
M  V30 13485 H 1289.45 -5.76327 1.67234 0
M  V30 13486 H 1290.52 -4.3986 2.04085 0
M  V30 13487 N 1291.86 -0.526279 -1.48553 0
M  V30 13488 C 1292.81 0.258285 -2.26532 0
M  V30 13489 C 1293.79 0.913187 -1.32475 0
M  V30 13490 O 1294.99 0.816606 -1.57037 0
M  V30 13491 C 1292.11 1.30686 -3.17452 0
M  V30 13492 C 1291.2 0.656933 -4.18981 0
M  V30 13493 N 1291.59 -0.255186 -5.05156 0
M  V30 13494 C 1289.89 0.914575 -4.36522 0
M  V30 13495 C 1290.59 -0.629753 -5.78281 0
M  V30 13496 N 1289.57 0.00829904 -5.43599 0
M  V30 13497 H 1293.37 -0.44348 -2.90535 0
M  V30 13498 H 1290.88 -0.344054 -1.58714 0
M  V30 13499 H 1292.88 1.8826 -3.71973 0
M  V30 13500 H 1291.54 2.01004 -2.55005 0
M  V30 13501 H 1292.55 -0.627564 -5.14084 0
M  V30 13502 H 1289.23 1.6086 -3.85266 0
M  V30 13503 H 1290.62 -1.37746 -6.57629 0
M  V30 13504 N 1293.34 1.5542 -0.261239 0
M  V30 13505 C 1294.27 2.24949 0.626126 0
M  V30 13506 C 1295.25 1.23474 1.16997 0
M  V30 13507 O 1296.43 1.52161 1.20667 0
M  V30 13508 C 1293.56 2.95996 1.81669 0
M  V30 13509 C 1292.52 4.04282 1.40499 0
M  V30 13510 C 1291.84 4.62831 2.67753 0
M  V30 13511 C 1293.14 5.1923 0.56543 0
M  V30 13512 H 1294.84 2.99364 0.0463164 0
M  V30 13513 H 1292.38 1.43985 0.0208366 0
M  V30 13514 H 1294.34 3.43343 2.44323 0
M  V30 13515 H 1293.06 2.19093 2.42211 0
M  V30 13516 H 1291.72 3.57726 0.801712 0
M  V30 13517 H 1291.37 3.82611 3.26524 0
M  V30 13518 H 1291.07 5.35938 2.40925 0
M  V30 13519 H 1292.59 5.12918 3.31281 0
M  V30 13520 H 1294.01 5.62714 1.09663 0
M  V30 13521 H 1292.4 5.98814 0.392607 0
M  V30 13522 H 1293.47 4.83086 -0.419059 0
M  V30 13523 N 1294.82 -0.0116844 1.57596 0
M  V30 13524 C 1296.06 -0.698958 1.90055 0
M  V30 13525 C 1296.39 -1.74422 0.860659 0
M  V30 13526 O 1295.65 -1.95226 -0.136132 0
M  V30 13527 C 1295.94 -1.38985 3.29269 0
M  V30 13528 C 1295.61 -0.478916 4.48349 0
M  V30 13529 C 1294.27 -0.228071 4.80659 0
M  V30 13530 C 1296.62 0.14897 5.20987 0
M  V30 13531 C 1293.95 0.659147 5.82986 0
M  V30 13532 C 1296.3 1.02399 6.24257 0
M  V30 13533 C 1294.97 1.28413 6.55032 0
M  V30 13534 H 1294.24 -0.255767 0.69546 0
M  V30 13535 H 1296.89 0.0413339 1.91455 0
M  V30 13536 H 1295.19 -2.2039 3.23937 0
M  V30 13537 H 1296.89 -1.92747 3.51638 0
M  V30 13538 H 1293.48 -0.68459 4.23097 0
M  V30 13539 H 1297.66 -0.0318326 4.9629 0
M  V30 13540 H 1292.92 0.86882 6.05195 0
M  V30 13541 H 1297.09 1.51694 6.79678 0
M  V30 13542 H 1294.72 1.97332 7.34142 0
M  V30 13543 N 1296.29 -1.55015 -0.284256 0
M  V30 13544 C 1297.24 -1.87898 -1.37102 0
M  V30 13545 C 1298.24 -0.754231 -1.51683 0
M  V30 13546 O 1299.44 -0.93844 -1.53601 0
M  V30 13547 H 1295.82 -0.596208 -0.458301 0
M  V30 13548 H 1297.79 -2.78704 -1.06613 0
M  V30 13549 C 1296.54 -2.15764 -2.72656 0
M  V30 13550 H 1295.86 -3.01792 -2.62224 0
M  V30 13551 H 1297.3 -2.42701 -3.47667 0
M  V30 13552 C 1295.76 -0.961561 -3.22886 0
M  V30 13553 O 1296.29 -0.190489 -4.01248 0
M  V30 13554 N 1294.49 -0.762338 -2.80422 0
M  V30 13555 H 1294.04 -1.39104 -2.16813 0
M  V30 13556 H 1294 0.0363482 -3.14379 0
M  V30 13557 N 1297.77 0.548248 -1.47757 0
M  V30 13558 C 1299 1.335 -1.58722 0
M  V30 13559 C 1299.42 1.86549 -0.241034 0
M  V30 13560 O 1298.78 1.63447 0.784517 0
M  V30 13561 C 1298.83 2.47457 -2.62293 0
M  V30 13562 O 1297.93 3.49956 -2.18185 0
M  V30 13563 H 1297.27 0.396166 -0.532868 0
M  V30 13564 H 1299.8 0.66164 -1.93607 0
M  V30 13565 H 1299.81 2.93901 -2.82995 0
M  V30 13566 H 1298.49 2.08203 -3.60034 0
M  V30 13567 H 1297.06 3.09755 -2.0762 0
M  V30 13568 N 1299.25 1.36039 0.795694 0
M  V30 13569 C 1300.16 1.31991 1.93948 0
M  V30 13570 C 1301.18 0.223064 1.72564 0
M  V30 13571 O 1302.35 0.454344 1.96208 0
M  V30 13572 C 1299.42 1.10228 3.28711 0
M  V30 13573 C 1298.48 2.29328 3.62914 0
M  V30 13574 C 1297.71 2.08595 4.91247 0
M  V30 13575 O 1297.93 1.05793 5.60503 0
M  V30 13576 O 1296.87 2.96222 5.23962 0
M  V30 13577 H 1300.69 2.28274 2.00311 0
M  V30 13578 H 1298.28 1.16521 0.935048 0
M  V30 13579 H 1300.16 0.999842 4.09367 0
M  V30 13580 H 1298.84 0.17003 3.23253 0
M  V30 13581 H 1297.74 2.4514 2.8259 0
M  V30 13582 H 1299.08 3.21038 3.73089 0
M  V30 13583 N 1300.73 -1.01913 1.20215 0
M  V30 13584 C 1301.66 -2.10043 0.89203 0
M  V30 13585 C 1302.64 -1.61861 -0.154873 0
M  V30 13586 O 1303.82 -1.88478 -0.0290135 0
M  V30 13587 C 1300.95 -3.37021 0.336813 0
M  V30 13588 C 1300 -4.0409 1.36431 0
M  V30 13589 S 1300.83 -4.48334 2.92843 0
M  V30 13590 C 1301.99 -5.78517 2.3889 0
M  V30 13591 H 1302.22 -2.36025 1.80775 0
M  V30 13592 H 1299.75 -1.14992 1.03035 0
M  V30 13593 H 1301.71 -4.10494 0.0230191 0
M  V30 13594 H 1300.37 -3.09115 -0.557363 0
M  V30 13595 H 1299.56 -4.95436 0.925147 0
M  V30 13596 H 1299.17 -3.36831 1.62545 0
M  V30 13597 H 1301.46 -6.53564 1.78494 0
M  V30 13598 H 1302.4 -6.27226 3.28623 0
M  V30 13599 H 1302.81 -5.34658 1.8111 0
M  V30 13600 N 1302.21 -1.00763 -1.2118 0
M  V30 13601 C 1303.16 -0.541218 -2.21483 0
M  V30 13602 C 1304.14 0.398597 -1.55885 0
M  V30 13603 O 1305.33 0.22302 -1.75589 0
M  V30 13604 C 1302.46 0.128145 -3.43061 0
M  V30 13605 C 1301.55 -0.832845 -4.15842 0
M  V30 13606 N 1301.94 -1.98673 -4.65148 0
M  V30 13607 C 1300.24 -0.651779 -4.41212 0
M  V30 13608 C 1300.94 -2.59112 -5.20803 0
M  V30 13609 N 1299.91 -1.87249 -5.10332 0
M  V30 13610 H 1303.72 -1.42105 -2.57262 0
M  V30 13611 H 1301.23 -0.871796 -1.37016 0
M  V30 13612 H 1303.23 0.479771 -4.1413 0
M  V30 13613 H 1301.89 1.00392 -3.0879 0
M  V30 13614 H 1302.9 -2.36701 -4.60644 0
M  V30 13615 H 1299.57 0.1767 -4.17126 0
M  V30 13616 H 1300.96 -3.56713 -5.69391 0
M  V30 13617 N 1303.68 1.3679 -0.7827 0
M  V30 13618 C 1304.96 1.93639 -0.276278 0
M  V30 13619 C 1305.34 1.7153 1.23048 0
M  V30 13620 O 1304.69 1.07037 2.01879 0
M  V30 13621 C 1304.9 3.42672 -0.661586 0
M  V30 13622 C 1306.25 4.19786 -0.637538 0
M  V30 13623 O 1307.27 3.51082 -0.601645 0
M  V30 13624 O 1306.13 5.42323 -0.674408 0
M  V30 13625 H 1303.22 0.824307 -0.0666832 0
M  V30 13626 H 1305.77 1.46012 -0.864792 0
M  V30 13627 H 1304.54 3.52393 -1.70103 0
M  V30 13628 H 1304.17 3.97573 -0.0465987 0
M  V30 13629 N 1305.16 0.53415 1.48272 0
M  V30 13630 C 1306.39 0.00368464 2.074 0
M  V30 13631 C 1306.81 -1.27003 1.38751 0
M  V30 13632 O 1306.17 -1.75502 0.454817 0
M  V30 13633 C 1306.22 -0.199034 3.6005 0
M  V30 13634 O 1305.32 -1.26679 3.92462 0
M  V30 13635 H 1304.66 0.0409936 0.662733 0
M  V30 13636 H 1307.19 0.743253 1.90622 0
M  V30 13637 H 1307.2 -0.420404 4.05828 0
M  V30 13638 H 1305.88 0.731391 4.09418 0
M  V30 13639 H 1304.46 -1.02775 3.58457 0
M  V30 13640 N 1306.64 -1.55279 0.269478 0
M  V30 13641 C 1307.89 -1.98649 -0.349522 0
M  V30 13642 C 1308.2 -1.16125 -1.57399 0
M  V30 13643 O 1309.41 -1.49612 -2.26558 0
M  V30 13644 C 1307.86 -3.53547 -0.673224 0
M  V30 13645 C 1307.47 -4.44841 0.531119 0
M  V30 13646 C 1309.22 -4.05519 -1.25516 0
M  V30 13647 C 1307.12 -5.91119 0.182317 0
M  V30 13648 H 1306.05 -0.74193 -0.13437 0
M  V30 13649 H 1308.7 -1.79664 0.373246 0
M  V30 13650 H 1307.09 -3.68311 -1.45474 0
M  V30 13651 H 1308.26 -4.41843 1.3081 0
M  V30 13652 H 1306.58 -4.03472 1.02952 0
M  V30 13653 H 1309.17 -5.12347 -1.52984 0
M  V30 13654 H 1309.52 -3.54215 -2.18718 0
M  V30 13655 H 1310.05 -3.94172 -0.536059 0
M  V30 13656 H 1306.79 -6.46507 1.08206 0
M  V30 13657 H 1306.31 -5.97199 -0.558008 0
M  V30 13658 H 1307.99 -6.466 -0.227484 0
M  V30 13659 N 1308.12 0.00332656 -1.576 0
M  V30 13660 C 1309.05 0.994803 -2.11248 0
M  V30 13661 C 1310.03 1.36061 -1.02085 0
M  V30 13662 O 1311.21 1.44494 -1.2975 0
M  V30 13663 C 1308.34 2.28772 -2.61306 0
M  V30 13664 C 1307.3 2.06362 -3.74965 0
M  V30 13665 C 1306.62 3.41638 -4.11324 0
M  V30 13666 C 1307.92 1.4289 -5.02374 0
M  V30 13667 H 1309.62 0.548119 -2.9434 0
M  V30 13668 H 1307.16 0.262208 -1.41593 0
M  V30 13669 H 1309.12 2.98485 -2.97464 0
M  V30 13670 H 1307.84 2.75547 -1.75332 0
M  V30 13671 H 1306.5 1.39076 -3.39195 0
M  V30 13672 H 1306.15 3.8611 -3.22379 0
M  V30 13673 H 1305.85 3.2746 -4.87897 0
M  V30 13674 H 1307.37 4.12671 -4.50039 0
M  V30 13675 H 1308.79 2.02555 -5.36325 0
M  V30 13676 H 1307.18 1.3921 -5.8373 0
M  V30 13677 H 1308.25 0.397708 -4.83266 0
M  V30 13678 N 1309.6 1.55164 0.276031 0
M  V30 13679 C 1310.85 1.74833 1.0058 0
M  V30 13680 C 1311.16 0.555089 1.87558 0
M  V30 13681 O 1312.36 0.634127 2.63991 0
M  V30 13682 C 1310.82 3.09417 1.83818 0
M  V30 13683 C 1310.43 4.36299 1.01721 0
M  V30 13684 C 1312.17 3.38437 2.56244 0
M  V30 13685 C 1310.08 5.61923 1.8438 0
M  V30 13686 H 1309.01 0.651676 0.379254 0
M  V30 13687 H 1311.66 1.81626 0.26161 0
M  V30 13688 H 1310.04 2.96654 2.62321 0
M  V30 13689 H 1311.22 4.59969 0.276565 0
M  V30 13690 H 1309.53 4.144 0.407645 0
M  V30 13691 H 1312.13 4.29501 3.18485 0
M  V30 13692 H 1312.47 2.58432 3.26372 0
M  V30 13693 H 1313 3.52284 1.84773 0
M  V30 13694 H 1309.74 6.44667 1.18679 0
M  V30 13695 H 1309.26 5.424 2.56051 0
M  V30 13696 H 1310.94 6.0011 2.4182 0
M  V30 13697 N 1311.07 -0.540404 1.48045 0
M  V30 13698 C 1312.3 -1.32656 1.59427 0
M  V30 13699 C 1312.72 -1.86419 0.250924 0
M  V30 13700 O 1312.08 -1.63861 -0.775838 0
M  V30 13701 C 1312.13 -2.46062 2.63602 0
M  V30 13702 O 1311.23 -3.48794 2.20038 0
M  V30 13703 H 1310.58 -0.393334 0.534962 0
M  V30 13704 H 1313.11 -0.651363 1.93955 0
M  V30 13705 H 1313.12 -2.92396 2.84549 0
M  V30 13706 H 1311.79 -2.06291 3.61133 0
M  V30 13707 H 1310.37 -3.0865 2.0926 0
M  V30 13708 N 1312.55 -1.36459 -0.788468 0
M  V30 13709 C 1313.78 -1.33703 -1.57502 0
M  V30 13710 C 1314.19 0.0834961 -1.89016 0
M  V30 13711 O 1313.53 1.05107 -1.50659 0
M  V30 13712 C 1313.6 -2.09424 -2.92201 0
M  V30 13713 C 1313.26 -3.58507 -2.83411 0
M  V30 13714 C 1314.26 -4.52736 -2.5559 0
M  V30 13715 C 1311.94 -4.01405 -3.01959 0
M  V30 13716 C 1313.94 -5.87841 -2.46419 0
M  V30 13717 C 1311.62 -5.366 -2.92409 0
M  V30 13718 C 1312.62 -6.29631 -2.64677 0
M  V30 13719 O 1312.31 -7.62343 -2.55124 0
M  V30 13720 H 1312.04 -0.460221 -0.495149 0
M  V30 13721 H 1314.59 -1.80163 -0.986437 0
M  V30 13722 H 1312.82 -1.5763 -3.53114 0
M  V30 13723 H 1314.51 -1.99515 -3.53481 0
M  V30 13724 H 1315.28 -4.20906 -2.40962 0
M  V30 13725 H 1311.16 -3.29367 -3.2255 0
M  V30 13726 H 1314.7 -6.60423 -2.24694 0
M  V30 13727 H 1310.6 -5.68038 -3.066 0
M  V30 13728 H 1311.37 -7.72476 -2.70598 0
M  V30 13729 N 1314.03 1.01274 -1.20754 0
M  V30 13730 C 1315.26 1.7906 -1.04653 0
M  V30 13731 C 1315.68 1.83806 0.399632 0
M  V30 13732 O 1315.04 1.27596 1.28798 0
M  V30 13733 C 1315.09 3.21187 -1.63925 0
M  V30 13734 O 1314.19 4.02913 -0.879486 0
M  V30 13735 H 1313.53 0.552147 -0.368823 0
M  V30 13736 H 1316.06 1.27356 -1.6013 0
M  V30 13737 H 1316.07 3.71887 -1.67822 0
M  V30 13738 H 1314.75 3.17048 -2.69172 0
M  V30 13739 H 1313.32 3.61499 -0.915019 0
M  V30 13740 N 1315.51 1.01404 1.20644 0
M  V30 13741 C 1316.73 0.720839 1.9447 0
M  V30 13742 C 1317.16 -0.711711 1.74116 0
M  V30 13743 O 1316.52 -1.48938 1.03379 0
M  V30 13744 C 1316.57 1.05864 3.4471 0
M  V30 13745 O 1315.67 0.168901 4.12054 0
M  V30 13746 H 1315.01 0.267698 0.607646 0
M  V30 13747 H 1317.54 1.35672 1.53147 0
M  V30 13748 H 1317.55 1.00928 3.9532 0
M  V30 13749 H 1316.23 2.1024 3.58848 0
M  V30 13750 H 1314.8 0.275572 3.7188 0
M  V30 13751 N 1316.99 -1.36373 0.789944 0
M  V30 13752 C 1318.26 -1.9349 0.286543 0
M  V30 13753 C 1318.64 -1.7218 -1.22136 0
M  V30 13754 O 1317.99 -1.08106 -2.01309 0
M  V30 13755 C 1318.2 -3.42316 0.679749 0
M  V30 13756 C 1319.55 -4.19442 0.659791 0
M  V30 13757 O 1320.57 -3.50758 0.620256 0
M  V30 13758 O 1319.43 -5.41957 0.703159 0
M  V30 13759 H 1316.53 -0.823942 0.0710537 0
M  V30 13760 H 1319.07 -1.45551 0.872523 0
M  V30 13761 H 1317.85 -3.51485 1.7197 0
M  V30 13762 H 1317.47 -3.97542 0.0676823 0
M  V30 13763 N 1318.47 -0.542005 -1.47987 0
M  V30 13764 C 1319.4 0.202703 -2.32618 0
M  V30 13765 C 1320.38 0.923521 -1.42846 0
M  V30 13766 O 1321.56 0.906957 -1.7172 0
M  V30 13767 C 1318.69 1.24267 -3.24307 0
M  V30 13768 C 1317.65 0.639257 -4.23199 0
M  V30 13769 C 1316.97 1.78275 -5.04105 0
M  V30 13770 C 1318.27 -0.396982 -5.20789 0
M  V30 13771 H 1319.97 -0.503817 -2.95131 0
M  V30 13772 H 1317.51 -0.243736 -1.41922 0
M  V30 13773 H 1319.46 1.7717 -3.82347 0
M  V30 13774 H 1318.19 1.97893 -2.59819 0
M  V30 13775 H 1316.85 0.131655 -3.66364 0
M  V30 13776 H 1316.5 2.50768 -4.36032 0
M  V30 13777 H 1316.2 1.38487 -5.71047 0
M  V30 13778 H 1317.72 2.31533 -5.65 0
M  V30 13779 H 1319.13 0.0454057 -5.73282 0
M  V30 13780 H 1317.53 -0.712911 -5.9585 0
M  V30 13781 H 1318.6 -1.29843 -4.67193 0
M  V30 13782 N 1319.94 1.55134 -0.277709 0
M  V30 13783 C 1321.19 1.98831 0.338982 0
M  V30 13784 C 1321.51 1.16958 1.56781 0
M  V30 13785 O 1322.71 1.50811 2.25762 0
M  V30 13786 C 1321.17 3.53899 0.654465 0
M  V30 13787 C 1320.78 4.44553 -0.554703 0
M  V30 13788 C 1322.52 4.06179 1.23364 0
M  V30 13789 C 1320.43 5.91014 -0.213663 0
M  V30 13790 H 1319.36 0.742632 0.130434 0
M  V30 13791 H 1322.01 1.79463 -0.382768 0
M  V30 13792 H 1320.39 3.69078 1.43519 0
M  V30 13793 H 1321.56 4.41143 -1.33151 0
M  V30 13794 H 1319.88 4.02921 -1.0509 0
M  V30 13795 H 1322.48 5.13152 1.50265 0
M  V30 13796 H 1322.82 3.5537 2.16836 0
M  V30 13797 H 1323.35 3.9445 0.515147 0
M  V30 13798 H 1320.09 6.45924 -1.11633 0
M  V30 13799 H 1319.61 5.97486 0.526329 0
M  V30 13800 H 1321.29 6.46712 0.19319 0
M  V30 13801 N 1321.42 0.00503138 1.57599 0
M  V30 13802 C 1322.67 -0.677979 1.89964 0
M  V30 13803 C 1322.98 -1.74657 0.88059 0
M  V30 13804 O 1324.19 -2.48455 1.09463 0
M  V30 13805 C 1322.65 -1.25708 3.37232 0
M  V30 13806 C 1322.25 -0.223045 4.47444 0
M  V30 13807 C 1324 -1.91799 3.787 0
M  V30 13808 C 1321.9 -0.812416 5.85793 0
M  V30 13809 H 1320.83 -0.256991 0.708852 0
M  V30 13810 H 1323.49 0.0663988 1.8338 0
M  V30 13811 H 1321.87 -2.05228 3.3867 0
M  V30 13812 H 1323.04 0.54794 4.57531 0
M  V30 13813 H 1321.36 0.337714 4.15028 0
M  V30 13814 H 1323.95 -2.36808 4.79402 0
M  V30 13815 H 1324.3 -2.75067 3.1248 0
M  V30 13816 H 1324.83 -1.19004 3.79583 0
M  V30 13817 H 1321.57 -0.0184031 6.55497 0
M  V30 13818 H 1321.09 -1.55244 5.79361 0
M  V30 13819 H 1322.77 -1.30952 6.33609 0
M  V30 13820 N 1322.9 -1.55308 -0.267798 0
M  V30 13821 C 1324.13 -1.79929 -1.01533 0
M  V30 13822 C 1324.54 -0.57545 -1.80237 0
M  V30 13823 O 1323.88 0.465072 -1.77715 0
M  V30 13824 C 1323.94 -2.97568 -2.01726 0
M  V30 13825 C 1323.61 -4.34407 -1.41912 0
M  V30 13826 C 1324.6 -5.13197 -0.832151 0
M  V30 13827 C 1322.29 -4.81074 -1.44476 0
M  V30 13828 C 1324.28 -6.3679 -0.278781 0
M  V30 13829 C 1321.97 -6.04621 -0.887535 0
M  V30 13830 C 1322.97 -6.82316 -0.305548 0
M  V30 13831 O 1322.66 -8.03532 0.243133 0
M  V30 13832 H 1322.39 -0.603082 -0.305398 0
M  V30 13833 H 1324.94 -2.03162 -0.302378 0
M  V30 13834 H 1323.17 -2.7004 -2.76795 0
M  V30 13835 H 1324.86 -3.09466 -2.62651 0
M  V30 13836 H 1325.63 -4.78273 -0.805 0
M  V30 13837 H 1321.51 -4.20604 -1.88714 0
M  V30 13838 H 1325.05 -6.97378 0.176117 0
M  V30 13839 H 1320.95 -6.39026 -0.911943 0
M  V30 13840 H 1321.71 -8.18392 0.132991 0
M  V30 13841 N 1324.38 0.532545 -1.4833 0
M  V30 13842 C 1325.79 0.860843 -1.34394 0
M  V30 13843 C 1325.99 1.98384 -0.353013 0
M  V30 13844 O 1325.05 2.5148 0.226688 0
M  V30 13845 C 1326.36 1.23079 -2.74358 0
M  V30 13846 C 1327.91 1.34082 -2.82827 0
M  V30 13847 C 1328.39 1.74421 -4.23487 0
M  V30 13848 N 1329.88 1.81528 -4.26148 0
M  V30 13849 C 1330.61 2.1412 -5.31921 0
M  V30 13850 N 1330.11 2.45154 -6.47975 0
M  V30 13851 N 1331.9 2.15104 -5.19314 0
M  V30 13852 H 1324.05 -0.208464 -2.11375 0
M  V30 13853 H 1326.31 -0.03062 -0.947505 0
M  V30 13854 H 1326.02 0.47926 -3.48419 0
M  V30 13855 H 1325.89 2.18151 -3.07718 0
M  V30 13856 H 1328.28 2.08311 -2.09022 0
M  V30 13857 H 1328.36 0.37137 -2.5309 0
M  V30 13858 H 1328.01 1.00752 -4.97807 0
M  V30 13859 H 1327.94 2.72411 -4.50666 0
M  V30 13860 H 1330.43 1.59832 -3.42436 0
M  V30 13861 H 1330.74 2.69121 -7.24426 0
M  V30 13862 H 1329.09 2.42679 -6.51254 0
M  V30 13863 H 1332.28 1.90315 -4.27666 0
M  V30 13864 H 1332.45 2.40173 -6.01848 0
M  V30 13865 N 1325.86 1.36875 0.78122 0
M  V30 13866 C 1327.08 1.34732 1.57019 0
M  V30 13867 C 1327.5 -0.0695423 1.88672 0
M  V30 13868 O 1326.86 -1.02873 1.50743 0
M  V30 13869 C 1326.91 2.17668 2.88623 0
M  V30 13870 O 1326.63 3.53832 2.5833 0
M  V30 13871 C 1328.13 2.23398 3.82895 0
M  V30 13872 H 1325.35 0.461857 0.486754 0
M  V30 13873 H 1327.89 1.80086 0.968989 0
M  V30 13874 H 1326.05 1.75848 3.4519 0
M  V30 13875 H 1326.46 3.972 3.42538 0
M  V30 13876 H 1327.94 2.85769 4.72271 0
M  V30 13877 H 1328.41 1.23972 4.2134 0
M  V30 13878 H 1329.02 2.65489 3.32258 0
M  V30 13879 N 1327.33 -1.00632 1.21289 0
M  V30 13880 C 1328.28 -2.11502 0.96798 0
M  V30 13881 C 1329.28 -1.6919 -0.0843024 0
M  V30 13882 O 1330.48 -1.79875 0.06697 0
M  V30 13883 H 1326.86 -0.691398 0.295759 0
M  V30 13884 H 1328.83 -2.29337 1.90911 0
M  V30 13885 C 1327.58 -3.43357 0.547818 0
M  V30 13886 H 1326.9 -3.76348 1.34915 0
M  V30 13887 H 1328.34 -4.21957 0.415759 0
M  V30 13888 C 1326.8 -3.28648 -0.741086 0
M  V30 13889 O 1327.33 -3.59267 -1.79695 0
M  V30 13890 N 1325.53 -2.81866 -0.707084 0
M  V30 13891 H 1325.08 -2.57149 0.152447 0
M  V30 13892 H 1325.04 -2.72406 -1.56979 0
M  V30 13893 N 1328.81 -1.02043 -1.20104 0
M  V30 13894 C 1330.04 -0.731315 -1.93544 0
M  V30 13895 C 1330.45 0.708582 -1.74999 0
M  V30 13896 O 1329.81 1.481 -1.06642 0
M  V30 13897 C 1329.86 -1.06233 -3.45538 0
M  V30 13898 O 1329.58 -2.44568 -3.63481 0
M  V30 13899 C 1331.08 -0.794818 -4.36116 0
M  V30 13900 H 1328.3 -0.268248 -0.615048 0
M  V30 13901 H 1330.85 -1.36264 -1.52488 0
M  V30 13902 H 1329 -0.476341 -3.8446 0
M  V30 13903 H 1329.42 -2.5663 -4.57429 0
M  V30 13904 H 1330.89 -1.07647 -5.41402 0
M  V30 13905 H 1331.37 0.270944 -4.38363 0
M  V30 13906 H 1331.97 -1.36314 -4.02863 0
M  V30 13907 N 1330.29 1.35952 -0.797165 0
M  V30 13908 C 1331.54 1.98283 -0.369685 0
M  V30 13909 C 1331.85 1.63968 1.06649 0
M  V30 13910 O 1333.06 2.19591 1.59662 0
M  V30 13911 C 1331.51 3.54692 -0.610046 0
M  V30 13912 C 1331.12 3.97925 -2.05814 0
M  V30 13913 C 1332.87 4.23778 -0.247457 0
M  V30 13914 C 1330.77 5.47142 -2.24475 0
M  V30 13915 H 1329.7 0.741909 -0.134489 0
M  V30 13916 H 1332.35 1.55146 -0.979893 0
M  V30 13917 H 1330.74 3.95938 0.0699822 0
M  V30 13918 H 1331.91 3.67857 -2.77521 0
M  V30 13919 H 1330.23 3.417 -2.37971 0
M  V30 13920 H 1332.82 5.33452 -0.365059 0
M  V30 13921 H 1333.17 4.08436 0.805315 0
M  V30 13922 H 1333.7 3.87921 -0.881028 0
M  V30 13923 H 1330.44 5.67441 -3.28163 0
M  V30 13924 H 1329.96 5.78811 -1.57282 0
M  V30 13925 H 1331.64 6.13475 -2.05567 0
M  V30 13926 N 1331.77 0.549846 1.47697 0
M  V30 13927 C 1333.02 0.0230048 2.02087 0
M  V30 13928 C 1333.34 -1.32865 1.4273 0
M  V30 13929 O 1332.61 -1.86492 0.59981 0
M  V30 13930 H 1331.19 0.00551514 0.74698 0
M  V30 13931 H 1333.85 0.718185 1.81185 0
M  V30 13932 H 1332.95 -0.0705813 3.1202 0
M  V30 13933 N 1333.25 -1.54984 0.285932 0
M  V30 13934 C 1334.52 -1.91872 -0.380083 0
M  V30 13935 C 1334.9 -1.21146 -1.72878 0
M  V30 13936 O 1334.25 -0.341999 -2.25926 0
M  V30 13937 C 1334.46 -3.45258 -0.509667 0
M  V30 13938 C 1335.81 -4.17232 -0.787549 0
M  V30 13939 O 1336.83 -3.51211 -0.594062 0
M  V30 13940 O 1335.69 -5.34085 -1.15826 0
M  V30 13941 H 1332.79 -0.799931 -0.209856 0
M  V30 13942 H 1335.33 -1.66403 0.332882 0
M  V30 13943 H 1334.1 -3.88829 0.439049 0
M  V30 13944 H 1333.73 -3.76715 -1.27168 0
M  V30 13945 N 1334.72 -0.0133892 -1.57594 0
M  V30 13946 C 1336 0.706416 -1.82398 0
M  V30 13947 C 1336.38 1.91236 -0.893983 0
M  V30 13948 O 1335.73 2.28436 0.0541675 0
M  V30 13949 C 1335.94 1.09951 -3.31228 0
M  V30 13950 C 1337.29 1.49776 -3.97306 0
M  V30 13951 O 1338.31 1.19293 -3.3563 0
M  V30 13952 O 1337.17 2.06511 -5.0598 0
M  V30 13953 H 1334.26 0.345131 -0.751541 0
M  V30 13954 H 1336.81 -0.0398687 -1.69653 0
M  V30 13955 H 1335.58 0.240514 -3.9056 0
M  V30 13956 H 1335.21 1.90447 -3.49021 0
M  V30 13957 N 1336.2 1.55448 0.259558 0
M  V30 13958 C 1337.43 1.80465 1.00577 0
M  V30 13959 C 1337.84 0.585001 1.79929 0
M  V30 13960 O 1337.18 -0.455641 1.7796 0
M  V30 13961 C 1337.25 2.98634 2.00146 0
M  V30 13962 C 1336.91 4.35154 1.39607 0
M  V30 13963 C 1337.91 5.13631 0.804923 0
M  V30 13964 C 1335.59 4.81833 1.41923 0
M  V30 13965 C 1337.59 6.36929 0.245007 0
M  V30 13966 C 1335.27 6.05083 0.855458 0
M  V30 13967 C 1336.27 6.82469 0.269359 0
M  V30 13968 O 1335.96 8.03392 -0.285743 0
M  V30 13969 H 1335.69 0.604693 0.302196 0
M  V30 13970 H 1338.24 2.0332 0.291599 0
M  V30 13971 H 1336.47 2.71504 2.75359 0
M  V30 13972 H 1338.16 3.10855 2.61006 0
M  V30 13973 H 1338.93 4.78693 0.779625 0
M  V30 13974 H 1334.81 4.21599 1.86481 0
M  V30 13975 H 1338.35 6.97274 -0.213098 0
M  V30 13976 H 1334.25 6.395 0.878041 0
M  V30 13977 H 1335.02 8.1831 -0.17639 0
M  V30 13978 N 1337.68 -0.524672 1.4861 0
M  V30 13979 C 1338.93 -1.27671 1.5615 0
M  V30 13980 C 1339.24 -1.94088 0.242709 0
M  V30 13981 O 1340.45 -2.70789 0.196407 0
M  V30 13982 C 1338.9 -2.31686 2.75408 0
M  V30 13983 C 1338.51 -1.71315 4.13951 0
M  V30 13984 C 1340.26 -3.07867 2.92264 0
M  V30 13985 C 1338.16 -2.73302 5.24462 0
M  V30 13986 H 1337.09 -0.480177 0.581332 0
M  V30 13987 H 1339.74 -0.553473 1.74954 0
M  V30 13988 H 1338.13 -3.07069 2.50049 0
M  V30 13989 H 1339.3 -1.02085 4.4935 0
M  V30 13990 H 1337.62 -1.07608 4.02255 0
M  V30 13991 H 1340.21 -3.84088 3.71995 0
M  V30 13992 H 1340.56 -3.64052 2.01921 0
M  V30 13993 H 1341.09 -2.39599 3.17549 0
M  V30 13994 H 1337.83 -2.21929 6.16788 0
M  V30 13995 H 1337.35 -3.40843 4.93544 0
M  V30 13996 H 1339.03 -3.36186 5.528 0
M  V30 13997 N 1339.16 -1.37287 -0.77395 0
M  V30 13998 C 1340.57 -1.28954 -1.3501 0
M  V30 13999 C 1340.92 0.0638301 -1.96096 0
M  V30 14000 O 1340.05 0.965624 -1.93661 0
M  V30 14001 C 1340.64 -2.3352 -2.45467 0
M  V30 14002 C 1339.2 -2.28828 -2.98856 0
M  V30 14003 C 1338.35 -2.17468 -1.72055 0
M  V30 14004 H 1341.3 -1.47941 -0.57438 0
M  V30 14005 H 1341.32 -1.98058 -3.24889 0
M  V30 14006 H 1340.83 -3.32009 -2.00977 0
M  V30 14007 H 1338.93 -1.33855 -3.47726 0
M  V30 14008 H 1339.04 -3.22152 -3.54619 0
M  V30 14009 H 1337.41 -1.63977 -1.94894 0
M  V30 14010 H 1338.19 -3.17868 -1.29672 0
M  V30 14011 N 1340.64 0.999871 -1.21821 0
M  V30 14012 C 1341.58 2.10985 -0.979183 0
M  V30 14013 C 1342.58 1.69232 0.0753287 0
M  V30 14014 O 1343.78 1.79837 -0.0765083 0
M  V30 14015 H 1340.16 0.689819 -0.299421 0
M  V30 14016 H 1342.13 2.28322 -1.92124 0
M  V30 14017 C 1340.88 3.43062 -0.56602 0
M  V30 14018 H 1340.2 3.75627 -1.36909 0
M  V30 14019 H 1341.64 4.2173 -0.43813 0
M  V30 14020 C 1340.1 3.29036 0.723647 0
M  V30 14021 O 1340.63 3.60214 1.77788 0
M  V30 14022 N 1338.84 2.82237 0.692126 0
M  V30 14023 H 1338.38 2.57064 -0.166082 0
M  V30 14024 H 1338.34 2.73235 1.55532 0
M  V30 14025 N 1342.11 1.02678 1.19562 0
M  V30 14026 C 1343.35 0.7307 1.90893 0
M  V30 14027 C 1343.72 -0.727166 1.77697 0
M  V30 14028 O 1344.92 -1.13623 2.43605 0
M  V30 14029 C 1343.19 1.16683 3.37816 0
M  V30 14030 S 1344.75 0.994271 4.27387 0
M  V30 14031 H 1341.57 0.266082 0.659334 0
M  V30 14032 H 1344.17 1.31617 1.44558 0
M  V30 14033 H 1342.87 2.22354 3.44945 0
M  V30 14034 H 1342.4 0.574559 3.89182 0
M  V30 14035 H 1344.42 -0.0963871 4.96106 0
M  V30 14036 N 1343.59 -1.35528 0.804364 0
M  V30 14037 C 1344.54 -2.31728 0.20125 0
M  V30 14038 C 1345.53 -1.56527 -0.647751 0
M  V30 14039 O 1346.74 -1.71672 -0.541163 0
M  V30 14040 H 1343.12 -0.750572 0.0463165 0
M  V30 14041 H 1345.09 -2.80142 1.02777 0
M  V30 14042 C 1343.84 -3.41807 -0.637429 0
M  V30 14043 H 1343.16 -3.99799 0.00651699 0
M  V30 14044 H 1344.6 -4.11403 -1.02585 0
M  V30 14045 C 1343.06 -2.84655 -1.80202 0
M  V30 14046 O 1343.59 -2.78026 -2.89939 0
M  V30 14047 N 1341.79 -2.41735 -1.61285 0
M  V30 14048 H 1341.34 -2.47327 -0.720231 0
M  V30 14049 H 1341.3 -2.03844 -2.39364 0
M  V30 14050 N 1345.07 -0.557671 -1.47404 0
M  V30 14051 C 1346.31 -0.0361491 -2.04368 0
M  V30 14052 C 1346.68 1.2894 -1.42262 0
M  V30 14053 O 1347.88 1.89864 -1.90276 0
M  V30 14054 C 1346.15 0.0547287 -3.57358 0
M  V30 14055 S 1347.71 0.522307 -4.3568 0
M  V30 14056 H 1344.52 -0.0253676 -0.710547 0
M  V30 14057 H 1347.13 -0.744509 -1.80769 0
M  V30 14058 H 1345.83 -0.914374 -4.00084 0
M  V30 14059 H 1345.36 0.786629 -3.85455 0
M  V30 14060 H 1347.38 1.7819 -4.63101 0
M  V30 14061 N 1346.55 1.54831 -0.294147 0
M  V30 14062 C 1347.78 2.04411 0.319938 0
M  V30 14063 C 1348.19 1.17174 1.4804 0
M  V30 14064 O 1347.55 0.195881 1.81446 0
M  V30 14065 C 1347.6 3.52924 0.782751 0
M  V30 14066 O 1347.32 4.36844 -0.331512 0
M  V30 14067 C 1348.82 4.18474 1.4627 0
M  V30 14068 H 1346.04 0.667286 0.0704973 0
M  V30 14069 H 1348.59 1.9989 -0.431785 0
M  V30 14070 H 1346.74 3.57828 1.48451 0
M  V30 14071 H 1347.16 5.24493 0.0275743 0
M  V30 14072 H 1348.63 5.23933 1.73776 0
M  V30 14073 H 1349.11 3.67793 2.40052 0
M  V30 14074 H 1349.71 4.17626 0.804291 0
M  V30 14075 N 1348.03 0.0217466 1.57585 0
M  V30 14076 C 1348.94 -0.978407 2.13224 0
M  V30 14077 C 1349.95 -1.36212 1.08269 0
M  V30 14078 O 1351.13 -1.44504 1.40288 0
M  V30 14079 C 1348.19 -2.24462 2.6423 0
M  V30 14080 C 1347.26 -1.92201 3.83871 0
M  V30 14081 C 1346.49 -3.12786 4.32436 0
M  V30 14082 O 1346.71 -4.25201 3.8021 0
M  V30 14083 O 1345.65 -2.95514 5.24362 0
M  V30 14084 H 1349.47 -0.535347 2.98944 0
M  V30 14085 H 1347.06 -0.198414 1.48077 0
M  V30 14086 H 1348.94 -2.98809 2.97138 0
M  V30 14087 H 1347.61 -2.67964 1.81596 0
M  V30 14088 H 1346.52 -1.15262 3.55901 0
M  V30 14089 H 1347.85 -1.53521 4.67645 0
M  V30 14090 N 1349.51 -1.55583 -0.251311 0
M  V30 14091 C 1350.47 -1.89148 -1.29443 0
M  V30 14092 C 1351.47 -0.7676 -1.41296 0
M  V30 14093 O 1352.66 -1.03563 -1.40073 0
M  V30 14094 C 1349.79 -2.11601 -2.67279 0
M  V30 14095 H 1350.98 -2.82416 -1.00901 0
M  V30 14096 H 1348.54 -1.48407 -0.490398 0
M  V30 14097 H 1349.27 -1.20787 -3.00967 0
M  V30 14098 H 1349.06 -2.93449 -2.60058 0
M  V30 14099 H 1350.55 -2.38768 -3.42607 0
M  V30 14100 N 1350.98 0.516783 -1.48886 0
M  V30 14101 C 1352.21 1.29628 -1.61258 0
M  V30 14102 C 1352.63 1.86744 -0.27786 0
M  V30 14103 O 1351.98 1.67061 0.734639 0
M  V30 14104 C 1352.03 2.43779 -2.66935 0
M  V30 14105 O 1351.76 1.89014 -3.95228 0
M  V30 14106 C 1353.26 3.35398 -2.89867 0
M  V30 14107 H 1350.48 0.393736 -0.543335 0
M  V30 14108 H 1353.02 0.622069 -1.94809 0
M  V30 14109 H 1351.18 3.0706 -2.36206 0
M  V30 14110 H 1351.59 2.63833 -4.53312 0
M  V30 14111 H 1353.06 4.11812 -3.6758 0
M  V30 14112 H 1353.54 3.91436 -1.99185 0
M  V30 14113 H 1354.15 2.77898 -3.21952 0
M  V30 14114 N 1352.46 1.37696 0.766659 0
M  V30 14115 C 1353.69 1.36192 1.55355 0
M  V30 14116 C 1354.1 -0.0534148 1.89125 0
M  V30 14117 O 1353.44 -1.02697 1.52312 0
M  V30 14118 C 1353.5 2.14047 2.88833 0
M  V30 14119 C 1353.17 3.6297 2.77672 0
M  V30 14120 C 1354.17 4.56745 2.48355 0
M  V30 14121 C 1351.85 4.06158 2.95534 0
M  V30 14122 C 1353.84 5.91687 2.37035 0
M  V30 14123 C 1351.53 5.41185 2.83835 0
M  V30 14124 C 1352.53 6.33762 2.54627 0
M  V30 14125 O 1352.22 7.66305 2.42963 0
M  V30 14126 H 1351.95 0.46804 0.487765 0
M  V30 14127 H 1354.5 1.81709 0.95765 0
M  V30 14128 H 1352.73 1.63227 3.50562 0
M  V30 14129 H 1354.42 2.05113 3.50262 0
M  V30 14130 H 1355.19 4.24687 2.34236 0
M  V30 14131 H 1351.07 3.34457 3.17269 0
M  V30 14132 H 1354.61 6.63914 2.14158 0
M  V30 14133 H 1350.51 5.72844 2.97524 0
M  V30 14134 H 1351.28 7.76683 2.58274 0
M  V30 14135 N 1353.94 -0.993397 1.22349 0
M  V30 14136 C 1355.17 -1.76581 1.0725 0
M  V30 14137 C 1355.58 -1.85346 -0.379923 0
M  V30 14138 O 1354.92 -1.3224 -1.27508 0
M  V30 14139 C 1354.98 -3.21519 1.60829 0
M  V30 14140 C 1354.65 -3.363 3.09437 0
M  V30 14141 C 1355.64 -3.23655 4.0687 0
M  V30 14142 C 1353.33 -3.61368 3.48882 0
M  V30 14143 C 1355.32 -3.3586 5.41735 0
M  V30 14144 C 1353.01 -3.73214 4.83895 0
M  V30 14145 C 1354.01 -3.60468 5.80131 0
M  V30 14146 O 1353.7 -3.7192 7.12693 0
M  V30 14147 H 1353.43 -0.561407 0.376561 0
M  V30 14148 H 1355.98 -1.25768 1.62393 0
M  V30 14149 H 1354.21 -3.73521 1.00093 0
M  V30 14150 H 1355.9 -3.80475 1.41399 0
M  V30 14151 H 1356.67 -3.04201 3.77739 0
M  V30 14152 H 1352.55 -3.70365 2.74501 0
M  V30 14153 H 1356.09 -3.25829 6.16832 0
M  V30 14154 H 1351.99 -3.92175 5.12707 0
M  V30 14155 H 1352.75 -3.88796 7.20264 0
M  V30 14156 N 1355.42 -1.03311 -1.19015 0
M  V30 14157 C 1356.66 -0.740813 -1.90503 0
M  V30 14158 C 1357.02 0.717732 -1.7808 0
M  V30 14159 O 1358.22 1.12329 -2.44204 0
M  V30 14160 C 1356.49 -1.18473 -3.37193 0
M  V30 14161 S 1358.05 -1.01692 -4.26854 0
M  V30 14162 H 1354.87 -0.269575 -0.657913 0
M  V30 14163 H 1357.47 -1.32382 -1.43858 0
M  V30 14164 H 1356.18 -2.2418 -3.43761 0
M  V30 14165 H 1355.71 -0.59519 -3.88872 0
M  V30 14166 H 1357.72 0.070076 -4.96151 0
M  V30 14167 N 1356.9 1.35099 -0.81154 0
M  V30 14168 C 1358.31 1.51701 -0.495883 0
M  V30 14169 C 1358.51 1.7595 0.982035 0
M  V30 14170 O 1357.57 1.8038 1.7669 0
M  V30 14171 C 1358.88 2.68916 -1.34554 0
M  V30 14172 C 1360.43 2.82795 -1.34149 0
M  V30 14173 C 1360.9 4.0304 -2.17538 0
M  V30 14174 N 1362.39 4.10227 -2.151 0
M  V30 14175 C 1363.13 5.02397 -2.76377 0
M  V30 14176 N 1362.63 5.99866 -3.46601 0
M  V30 14177 N 1364.42 4.95181 -2.65992 0
M  V30 14178 H 1356.57 1.17617 -1.76862 0
M  V30 14179 H 1358.83 0.575875 -0.753042 0
M  V30 14180 H 1358.54 2.57591 -2.39458 0
M  V30 14181 H 1358.41 3.63641 -1.00223 0
M  V30 14182 H 1360.8 2.93568 -0.300285 0
M  V30 14183 H 1360.88 1.88912 -1.7247 0
M  V30 14184 H 1360.52 3.93027 -3.21702 0
M  V30 14185 H 1360.45 4.96114 -1.76574 0
M  V30 14186 H 1362.95 3.40454 -1.6401 0
M  V30 14187 H 1363.26 6.66803 -3.90632 0
M  V30 14188 H 1361.6 6.00025 -3.50706 0
M  V30 14189 H 1364.79 4.17991 -2.10715 0
M  V30 14190 H 1364.97 5.6682 -3.14036 0
M  V30 14191 N 1358.37 0.56548 1.47106 0
M  V30 14192 C 1359.32 -0.198133 2.27137 0
M  V30 14193 C 1360.31 -0.877743 1.3485 0
M  V30 14194 O 1361.5 -0.774683 1.59147 0
M  V30 14195 C 1358.63 -1.22223 3.20806 0
M  V30 14196 C 1357.71 -0.545616 4.20576 0
M  V30 14197 N 1358.11 0.389029 5.04302 0
M  V30 14198 C 1356.4 -0.798517 4.38793 0
M  V30 14199 C 1357.1 0.782852 5.76408 0
M  V30 14200 N 1356.08 0.13583 5.4343 0
M  V30 14201 H 1359.88 0.520354 2.89257 0
M  V30 14202 H 1357.4 0.386013 1.57746 0
M  V30 14203 H 1359.39 -1.78332 3.76833 0
M  V30 14204 H 1358.05 -1.94172 2.60244 0
M  V30 14205 H 1359.06 0.763644 5.12239 0
M  V30 14206 H 1355.74 -1.50589 3.89396 0
M  V30 14207 H 1357.13 1.55133 6.53746 0
M  V30 14208 N 1359.85 -1.54672 0.302354 0
M  V30 14209 C 1360.8 -2.2357 -0.573141 0
M  V30 14210 C 1361.77 -1.21878 -1.12849 0
M  V30 14211 O 1362.95 -1.50502 -1.17277 0
M  V30 14212 C 1360.09 -2.98111 -1.7385 0
M  V30 14213 C 1359.21 -4.14579 -1.21441 0
M  V30 14214 C 1358.34 -4.76699 -2.34374 0
M  V30 14215 C 1357.38 -5.8531 -1.79106 0
M  V30 14216 N 1356.52 -6.41379 -2.85618 0
M  V30 14217 H 1361.36 -2.97993 0.0209969 0
M  V30 14218 H 1358.9 -1.47083 0.0221318 0
M  V30 14219 H 1360.85 -3.39561 -2.42392 0
M  V30 14220 H 1359.48 -2.26063 -2.30425 0
M  V30 14221 H 1358.54 -3.78061 -0.421204 0
M  V30 14222 H 1359.85 -4.92824 -0.769821 0
M  V30 14223 H 1359 -5.21009 -3.10861 0
M  V30 14224 H 1357.74 -3.9779 -2.8216 0
M  V30 14225 H 1356.75 -5.40423 -1.01109 0
M  V30 14226 H 1357.97 -6.66104 -1.32222 0
M  V30 14227 H 1355.92 -5.65352 -3.32735 0
M  V30 14228 H 1355.83 -7.14974 -2.45659 0
M  V30 14229 H 1357.1 -6.90346 -3.61998 0
M  V30 14230 N 1361.33 -0.0301034 -1.57571 0
M  V30 14231 C 1362.28 0.969425 -2.11435 0
M  V30 14232 C 1363.27 1.33627 -1.04116 0
M  V30 14233 O 1364.48 1.31839 -1.2255 0
M  V30 14234 H 1360.85 0.330407 -0.675526 0
M  V30 14235 H 1362.82 0.489828 -2.94352 0
M  V30 14236 C 1361.57 2.24233 -2.65734 0
M  V30 14237 H 1360.9 1.9688 -3.47963 0
M  V30 14238 H 1362.34 2.92378 -3.07068 0
M  V30 14239 C 1360.8 2.97274 -1.58524 0
M  V30 14240 O 1361.33 3.8942 -0.985641 0
M  V30 14241 N 1359.53 2.59627 -1.30545 0
M  V30 14242 H 1359.08 1.84773 -1.79491 0
M  V30 14243 H 1359.04 3.08807 -0.590372 0
M  V30 14244 N 1362.81 1.55714 0.243056 0
M  V30 14245 C 1364.22 1.48224 0.591754 0
M  V30 14246 C 1364.42 0.72105 1.88157 0
M  V30 14247 O 1363.48 0.251966 2.5124 0
M  V30 14248 C 1364.79 2.92655 0.690918 0
M  V30 14249 C 1366.34 3.03048 0.782988 0
M  V30 14250 C 1366.82 4.48794 0.913682 0
M  V30 14251 N 1368.31 4.52748 0.978454 0
M  V30 14252 C 1369.04 5.62771 1.09891 0
M  V30 14253 N 1368.54 6.82596 1.18467 0
M  V30 14254 N 1370.33 5.50576 1.13237 0
M  V30 14255 H 1362.48 2.03642 -0.603614 0
M  V30 14256 H 1364.75 0.924702 -0.208878 0
M  V30 14257 H 1364.45 3.51203 -0.186871 0
M  V30 14258 H 1364.33 3.43357 1.5616 0
M  V30 14259 H 1366.71 2.44578 1.65123 0
M  V30 14260 H 1366.79 2.55551 -0.112921 0
M  V30 14261 H 1366.44 5.07875 0.0499835 0
M  V30 14262 H 1366.37 4.93976 1.82469 0
M  V30 14263 H 1368.86 3.66445 0.92337 0
M  V30 14264 H 1369.17 7.62197 1.27576 0
M  V30 14265 H 1367.52 6.85349 1.15418 0
M  V30 14266 H 1370.71 4.55897 1.06188 0
M  V30 14267 H 1370.88 6.36358 1.2228 0
M  V30 14268 N 1364.29 -0.50888 1.49158 0
M  V30 14269 C 1365.52 -1.28585 1.61708 0
M  V30 14270 C 1365.92 -1.87047 0.284629 0
M  V30 14271 O 1365.27 -1.68182 -0.738959 0
M  V30 14272 C 1365.33 -2.46043 2.62113 0
M  V30 14273 C 1364.99 -2.0851 4.0666 0
M  V30 14274 C 1365.99 -1.62943 4.93706 0
M  V30 14275 C 1363.68 -2.18386 4.52342 0
M  V30 14276 C 1365.67 -1.27747 6.24467 0
M  V30 14277 C 1363.36 -1.82801 5.83118 0
M  V30 14278 C 1364.35 -1.37555 6.69005 0
M  V30 14279 O 1364.04 -1.02447 7.97345 0
M  V30 14280 H 1363.77 -0.396504 0.547504 0
M  V30 14281 H 1366.33 -0.61834 1.95872 0
M  V30 14282 H 1364.56 -3.15844 2.23113 0
M  V30 14283 H 1366.25 -3.08081 2.64275 0
M  V30 14284 H 1367.01 -1.54766 4.59644 0
M  V30 14285 H 1362.89 -2.52556 3.85664 0
M  V30 14286 H 1366.44 -0.923589 6.91459 0
M  V30 14287 H 1362.33 -1.90626 6.16711 0
M  V30 14288 H 1363.1 -1.15663 8.10287 0
M  V30 14289 N 1365.76 -1.381 -0.759346 0
M  V30 14290 C 1366.99 -1.37014 -1.54631 0
M  V30 14291 C 1367.4 0.0433843 -1.8915 0
M  V30 14292 O 1366.75 1.01888 -1.52855 0
M  V30 14293 C 1366.81 -2.15575 -2.87693 0
M  V30 14294 C 1366.47 -3.64438 -2.75743 0
M  V30 14295 C 1367.47 -4.58055 -2.45929 0
M  V30 14296 C 1365.15 -4.0772 -2.93376 0
M  V30 14297 C 1367.15 -5.92935 -2.33894 0
M  V30 14298 C 1364.83 -5.42682 -2.80961 0
M  V30 14299 C 1365.83 -6.35103 -2.51262 0
M  V30 14300 O 1365.52 -7.67583 -2.38896 0
M  V30 14301 H 1365.25 -0.47062 -0.485276 0
M  V30 14302 H 1367.81 -1.82214 -0.948 0
M  V30 14303 H 1366.04 -1.65084 -3.49691 0
M  V30 14304 H 1367.73 -2.06968 -3.49169 0
M  V30 14305 H 1368.49 -4.25923 -2.3198 0
M  V30 14306 H 1364.37 -3.36135 -3.15491 0
M  V30 14307 H 1367.91 -6.65041 -2.10634 0
M  V30 14308 H 1363.81 -5.74413 -2.94482 0
M  V30 14309 H 1364.58 -7.78042 -2.54152 0
M  V30 14310 N 1367.24 0.986894 -1.22875 0
M  V30 14311 C 1368.65 1.54182 -1.05284 0
M  V30 14312 C 1369 1.92448 0.381856 0
M  V30 14313 O 1368.13 1.75381 1.26769 0
M  V30 14314 C 1368.72 2.80173 -1.90496 0
M  V30 14315 C 1367.28 3.32088 -1.77185 0
M  V30 14316 C 1366.43 2.05128 -1.86596 0
M  V30 14317 H 1369.38 0.807304 -1.36632 0
M  V30 14318 H 1369.4 3.52772 -1.42591 0
M  V30 14319 H 1368.91 2.52291 -2.94908 0
M  V30 14320 H 1367.02 3.64864 -0.755295 0
M  V30 14321 H 1367.13 4.02285 -2.60199 0
M  V30 14322 H 1365.49 2.18964 -1.30103 0
M  V30 14323 H 1366.28 1.79635 -2.92551 0
M  V30 14324 N 1368.72 1.0394 1.18466 0
M  V30 14325 C 1369.97 0.737233 1.87744 0
M  V30 14326 C 1370.28 -0.737891 1.81148 0
M  V30 14327 O 1371.49 -1.15353 2.45776 0
M  V30 14328 C 1369.94 1.26844 3.36806 0
M  V30 14329 C 1369.55 2.7721 3.51935 0
M  V30 14330 C 1371.3 1.04274 4.11494 0
M  V30 14331 C 1369.2 3.23696 4.9495 0
M  V30 14332 H 1368.13 0.272082 0.703198 0
M  V30 14333 H 1370.78 1.25507 1.33866 0
M  V30 14334 H 1369.17 0.67847 3.90145 0
M  V30 14335 H 1370.34 3.41954 3.08875 0
M  V30 14336 H 1368.66 2.98179 2.90652 0
M  V30 14337 H 1371.25 1.3652 5.16978 0
M  V30 14338 H 1371.6 -0.0200645 4.16295 0
M  V30 14339 H 1372.13 1.59726 3.64325 0
M  V30 14340 H 1368.87 4.29351 4.95316 0
M  V30 14341 H 1368.39 2.63687 5.38729 0
M  V30 14342 H 1370.07 3.17645 5.63658 0
M  V30 14343 N 1370.2 -1.34667 0.818693 0
M  V30 14344 C 1371.15 -2.29595 0.235551 0
M  V30 14345 C 1372.12 -1.53389 -0.63727 0
M  V30 14346 O 1373.3 -1.81777 -0.579804 0
M  V30 14347 C 1370.44 -3.39843 -0.600043 0
M  V30 14348 C 1369.55 -4.30995 0.294553 0
M  V30 14349 C 1368.69 -5.28343 -0.550203 0
M  V30 14350 C 1367.73 -6.11132 0.344043 0
M  V30 14351 N 1366.86 -7.00582 -0.461392 0
M  V30 14352 H 1371.7 -2.78872 1.05044 0
M  V30 14353 H 1369.24 -1.37239 0.529517 0
M  V30 14354 H 1371.2 -4.02443 -1.09978 0
M  V30 14355 H 1369.83 -2.91811 -1.38008 0
M  V30 14356 H 1368.88 -3.69294 0.912483 0
M  V30 14357 H 1370.19 -4.89031 0.982341 0
M  V30 14358 H 1369.35 -5.96374 -1.11459 0
M  V30 14359 H 1368.09 -4.70833 -1.27151 0
M  V30 14360 H 1367.09 -5.42038 0.920608 0
M  V30 14361 H 1368.32 -6.70722 1.0634 0
M  V30 14362 H 1366.26 -6.45546 -1.16645 0
M  V30 14363 H 1366.18 -7.55813 0.168095 0
M  V30 14364 H 1367.45 -7.72946 -1.00867 0
M  V30 14365 N 1371.68 -0.573274 -1.46804 0
M  V30 14366 C 1372.92 -0.0553432 -2.02724 0
M  V30 14367 C 1373.26 1.29753 -1.44492 0
M  V30 14368 O 1372.53 1.84804 -0.606455 0
M  V30 14369 C 1372.81 0.0205511 -3.60094 0
M  V30 14370 C 1372.67 -1.36055 -4.2873 0
M  V30 14371 C 1373.99 0.725944 -4.34071 0
M  V30 14372 H 1371.1 -0.0215858 -0.736684 0
M  V30 14373 H 1373.75 -0.738657 -1.75054 0
M  V30 14374 H 1371.9 0.602481 -3.838 0
M  V30 14375 H 1373.57 -1.98692 -4.16316 0
M  V30 14376 H 1371.81 -1.93087 -3.88458 0
M  V30 14377 H 1372.48 -1.26001 -5.37427 0
M  V30 14378 H 1374.96 0.231677 -4.15455 0
M  V30 14379 H 1373.83 0.74805 -5.43779 0
M  V30 14380 H 1374.1 1.78536 -4.04447 0
M  V30 14381 N 1373.15 1.5451 -0.310553 0
M  V30 14382 C 1374.38 2.04739 0.29824 0
M  V30 14383 C 1374.8 1.18737 1.46788 0
M  V30 14384 O 1374.15 0.215114 1.81228 0
M  V30 14385 C 1374.21 3.53734 0.745274 0
M  V30 14386 O 1373.93 4.36468 -0.377826 0
M  V30 14387 C 1375.43 4.20001 1.41823 0
M  V30 14388 H 1372.65 0.667997 0.0634159 0
M  V30 14389 H 1375.19 1.9942 -0.452961 0
M  V30 14390 H 1373.35 3.59383 1.44648 0
M  V30 14391 H 1373.76 5.24492 -0.0280567 0
M  V30 14392 H 1375.23 5.25747 1.68209 0
M  V30 14393 H 1375.71 3.70319 2.36137 0
M  V30 14394 H 1376.32 4.18455 0.759951 0
M  V30 14395 N 1374.63 0.0384594 1.57553 0
M  V30 14396 C 1376.04 -0.499057 1.79906 0
M  V30 14397 C 1376.4 -1.7169 0.949577 0
M  V30 14398 O 1375.52 -2.15788 0.162584 0
M  V30 14399 C 1376.12 -0.912155 3.2629 0
M  V30 14400 C 1374.67 -1.39473 3.49606 0
M  V30 14401 C 1373.82 -0.363859 2.74902 0
M  V30 14402 H 1376.77 0.264433 1.56481 0
M  V30 14403 H 1376.79 -1.77592 3.36513 0
M  V30 14404 H 1376.31 -0.0255928 3.88092 0
M  V30 14405 H 1374.41 -2.3009 2.93068 0
M  V30 14406 H 1374.52 -1.39566 4.58321 0
M  V30 14407 H 1372.88 -0.833993 2.40659 0
M  V30 14408 H 1373.67 0.514398 3.39424 0
M  V30 14409 N 1376.11 -1.55841 -0.234795 0
M  V30 14410 C 1377.06 -1.8772 -1.29403 0
M  V30 14411 C 1378.05 -0.739087 -1.42921 0
M  V30 14412 O 1379.24 -1.00125 -1.45959 0
M  V30 14413 C 1376.37 -2.18592 -2.64712 0
M  V30 14414 C 1375.45 -3.38761 -2.55151 0
M  V30 14415 N 1375.84 -4.57723 -2.15229 0
M  V30 14416 C 1374.14 -3.42112 -2.86138 0
M  V30 14417 C 1374.84 -5.39872 -2.16595 0
M  V30 14418 N 1373.82 -4.79242 -2.5657 0
M  V30 14419 H 1377.62 -2.77219 -0.976067 0
M  V30 14420 H 1375.13 -1.5623 -0.443396 0
M  V30 14421 H 1377.13 -2.39599 -3.41171 0
M  V30 14422 H 1375.79 -1.30398 -2.97366 0
M  V30 14423 H 1376.8 -4.83126 -1.86575 0
M  V30 14424 H 1373.48 -2.64224 -3.23252 0
M  V30 14425 H 1374.87 -6.45072 -1.87967 0
M  V30 14426 N 1377.59 0.500963 -1.49426 0
M  V30 14427 C 1378.87 1.26231 -1.49416 0
M  V30 14428 C 1379.25 2.0993 -0.221908 0
M  V30 14429 O 1378.59 2.14198 0.795712 0
M  V30 14430 C 1378.8 2.11899 -2.77308 0
M  V30 14431 C 1380.15 2.71086 -3.26799 0
M  V30 14432 O 1381.18 2.22166 -2.78425 0
M  V30 14433 O 1380.04 3.60141 -4.11049 0
M  V30 14434 H 1377.13 0.571224 -0.598024 0
M  V30 14435 H 1379.68 0.51523 -1.61689 0
M  V30 14436 H 1378.45 1.50027 -3.61397 0
M  V30 14437 H 1378.07 2.93799 -2.67896 0
M  V30 14438 N 1379.07 1.38501 0.752011 0
M  V30 14439 C 1380.31 1.36 1.51246 0
M  V30 14440 C 1380.67 -0.049305 1.92337 0
M  V30 14441 O 1379.96 -1.01227 1.62676 0
M  V30 14442 C 1380.16 2.25111 2.77596 0
M  V30 14443 C 1379.98 3.74566 2.48858 0
M  V30 14444 C 1378.75 4.43582 2.41999 0
M  V30 14445 C 1380.95 4.6696 2.1553 0
M  V30 14446 N 1378.93 5.78465 2.05553 0
M  V30 14447 C 1380.31 5.90366 1.89388 0
M  V30 14448 C 1382.36 4.55148 2.01853 0
M  V30 14449 C 1381.06 7.03283 1.50948 0
M  V30 14450 C 1383.09 5.6797 1.64815 0
M  V30 14451 C 1382.45 6.90439 1.39546 0
M  V30 14452 H 1378.55 0.552942 0.552973 0
M  V30 14453 H 1381.13 1.73902 0.875559 0
M  V30 14454 H 1379.31 1.89395 3.39093 0
M  V30 14455 H 1381.04 2.13725 3.43662 0
M  V30 14456 H 1377.79 3.96816 2.58523 0
M  V30 14457 H 1378.22 6.498 1.8997 0
M  V30 14458 H 1382.86 3.61015 2.20063 0
M  V30 14459 H 1380.58 7.97333 1.31477 0
M  V30 14460 H 1384.16 5.60811 1.54862 0
M  V30 14461 H 1383.04 7.7626 1.11313 0
M  V30 14462 N 1380.55 -0.980364 1.23396 0
M  V30 14463 C 1381.78 -1.75434 1.09117 0
M  V30 14464 C 1382.18 -1.85739 -0.360243 0
M  V30 14465 O 1381.53 -1.33585 -1.26098 0
M  V30 14466 C 1381.59 -3.19795 1.6423 0
M  V30 14467 C 1381.25 -3.32999 3.12986 0
M  V30 14468 C 1382.25 -3.19321 4.1028 0
M  V30 14469 C 1379.93 -3.57647 3.52695 0
M  V30 14470 C 1381.93 -3.30096 5.45266 0
M  V30 14471 C 1379.62 -3.68061 4.87826 0
M  V30 14472 C 1380.61 -3.54295 5.83921 0
M  V30 14473 O 1380.3 -3.6434 7.16597 0
M  V30 14474 H 1380.03 -0.557382 0.382494 0
M  V30 14475 H 1382.59 -1.24038 1.63718 0
M  V30 14476 H 1380.82 -3.72439 1.04049 0
M  V30 14477 H 1382.51 -3.78954 1.45427 0
M  V30 14478 H 1383.27 -3.00177 3.80945 0
M  V30 14479 H 1379.15 -3.67433 2.78413 0
M  V30 14480 H 1382.7 -3.19268 6.20253 0
M  V30 14481 H 1378.59 -3.86715 5.16838 0
M  V30 14482 H 1379.36 -3.81135 7.24347 0
M  V30 14483 N 1382.02 -1.04567 -1.17913 0
M  V30 14484 C 1382.93 -0.651674 -2.25367 0
M  V30 14485 C 1383.95 0.32437 -1.7095 0
M  V30 14486 O 1385.13 0.178039 -2.00612 0
M  V30 14487 C 1382.19 -0.0259452 -3.4669 0
M  V30 14488 C 1381.25 -1.05163 -4.1622 0
M  V30 14489 C 1380.48 -0.45567 -5.31751 0
M  V30 14490 O 1380.71 0.736698 -5.65623 0
M  V30 14491 O 1379.64 -1.18684 -5.90083 0
M  V30 14492 H 1383.47 -1.54704 -2.61344 0
M  V30 14493 H 1381.05 -0.816852 -1.25092 0
M  V30 14494 H 1382.93 0.322126 -4.20167 0
M  V30 14495 H 1381.61 0.843165 -3.12526 0
M  V30 14496 H 1380.52 -1.45159 -3.44789 0
M  V30 14497 H 1381.85 -1.89168 -4.54397 0
M  V30 14498 N 1383.5 1.34231 -0.825823 0
M  V30 14499 C 1384.75 1.97454 -0.411661 0
M  V30 14500 C 1385.06 1.66193 1.03147 0
M  V30 14501 O 1386.27 2.22929 1.54968 0
M  V30 14502 C 1384.73 3.53318 -0.685145 0
M  V30 14503 C 1384.33 3.9347 -2.14208 0
M  V30 14504 C 1386.08 4.23158 -0.337291 0
M  V30 14505 C 1383.98 5.42258 -2.3603 0
M  V30 14506 H 1382.91 0.738889 -0.150196 0
M  V30 14507 H 1385.57 1.53033 -1.01258 0
M  V30 14508 H 1383.95 3.95998 -0.0140178 0
M  V30 14509 H 1385.12 3.61888 -2.85261 0
M  V30 14510 H 1383.44 3.36575 -2.45165 0
M  V30 14511 H 1386.03 5.32558 -0.47813 0
M  V30 14512 H 1386.38 4.10053 0.718499 0
M  V30 14513 H 1386.91 3.85965 -0.963113 0
M  V30 14514 H 1383.65 5.60352 -3.40126 0
M  V30 14515 H 1383.17 5.75345 -1.69524 0
M  V30 14516 H 1384.85 6.08976 -2.18533 0
M  V30 14517 N 1384.98 0.581051 1.46498 0
M  V30 14518 C 1385.91 -0.19094 2.28403 0
M  V30 14519 C 1386.92 -0.857039 1.38415 0
M  V30 14520 O 1388.11 -0.726881 1.6303 0
M  V30 14521 C 1385.21 -1.28972 3.134 0
M  V30 14522 C 1384.39 -0.715867 4.31502 0
M  V30 14523 C 1383.45 -1.70215 4.97909 0
M  V30 14524 O 1382.47 -1.23885 5.55555 0
M  V30 14525 N 1383.67 -3.0362 4.94768 0
M  V30 14526 H 1386.44 0.511754 2.95298 0
M  V30 14527 H 1384 0.41871 1.56392 0
M  V30 14528 H 1385.99 -1.94877 3.5469 0
M  V30 14529 H 1384.56 -1.8953 2.4859 0
M  V30 14530 H 1383.78 0.120591 3.94016 0
M  V30 14531 H 1385.07 -0.312226 5.07841 0
M  V30 14532 H 1384.47 -3.43885 4.49177 0
M  V30 14533 H 1383.02 -3.65018 5.40005 0
M  V30 14534 N 1386.46 -1.54343 0.318742 0
M  V30 14535 C 1387.37 -2.27856 -0.558442 0
M  V30 14536 C 1388.38 -1.32029 -1.13333 0
M  V30 14537 O 1389.56 -1.65037 -1.15433 0
M  V30 14538 C 1386.62 -3.01842 -1.70565 0
M  V30 14539 C 1385.69 -4.13245 -1.16305 0
M  V30 14540 C 1384.92 -4.83693 -2.25559 0
M  V30 14541 O 1385.14 -4.53621 -3.4581 0
M  V30 14542 O 1384.08 -5.70708 -1.91249 0
M  V30 14543 H 1387.9 -3.03676 0.0384247 0
M  V30 14544 H 1385.49 -1.4916 0.0845936 0
M  V30 14545 H 1387.37 -3.48189 -2.37365 0
M  V30 14546 H 1386.04 -2.28902 -2.28879 0
M  V30 14547 H 1384.95 -3.71258 -0.460274 0
M  V30 14548 H 1386.28 -4.88214 -0.625111 0
M  V30 14549 N 1387.94 -0.0468143 -1.5753 0
M  V30 14550 C 1389.16 0.641161 -1.97241 0
M  V30 14551 C 1389.59 1.6384 -0.92401 0
M  V30 14552 O 1388.94 1.80946 0.113229 0
M  V30 14553 C 1388.99 1.30832 -3.36029 0
M  V30 14554 O 1388.1 2.42394 -3.33645 0
M  V30 14555 H 1387.44 0.167035 -0.642647 0
M  V30 14556 H 1389.97 -0.113921 -2.04283 0
M  V30 14557 H 1389.98 1.66102 -3.72658 0
M  V30 14558 H 1388.65 0.57744 -4.11872 0
M  V30 14559 H 1387.23 2.09104 -3.08756 0
M  V30 14560 N 1389.41 1.55964 0.226527 0
M  V30 14561 C 1390.32 1.95169 1.30178 0
M  V30 14562 C 1391.34 0.854831 1.51554 0
M  V30 14563 O 1392.52 1.15798 1.64781 0
M  V30 14564 C 1389.58 2.25612 2.63249 0
M  V30 14565 C 1388.64 3.4884 2.50219 0
M  V30 14566 C 1387.88 3.77822 3.76944 0
M  V30 14567 O 1388.1 3.08556 4.79739 0
M  V30 14568 O 1387.03 4.7132 3.74354 0
M  V30 14569 H 1390.86 2.86794 0.999145 0
M  V30 14570 H 1388.44 1.43109 0.42898 0
M  V30 14571 H 1390.33 2.4641 3.41848 0
M  V30 14572 H 1389 1.37162 2.93203 0
M  V30 14573 H 1387.91 3.33326 1.69836 0
M  V30 14574 H 1389.24 4.37657 2.25205 0
M  V30 14575 N 1390.89 -0.493031 1.4969 0
M  V30 14576 C 1392.12 -1.26862 1.63063 0
M  V30 14577 C 1392.53 -1.86734 0.304451 0
M  V30 14578 O 1391.87 -1.68956 -0.72108 0
M  V30 14579 C 1391.94 -2.43249 2.64708 0
M  V30 14580 C 1391.6 -2.04185 4.08849 0
M  V30 14581 C 1392.6 -1.57698 4.95406 0
M  V30 14582 C 1390.28 -2.13576 4.54632 0
M  V30 14583 C 1392.28 -1.21116 6.25787 0
M  V30 14584 C 1389.96 -1.76606 5.85024 0
M  V30 14585 C 1390.96 -1.30451 6.70426 0
M  V30 14586 O 1390.65 -0.939844 7.98387 0
M  V30 14587 H 1390.38 -0.390674 0.551679 0
M  V30 14588 H 1392.93 -0.59753 1.96516 0
M  V30 14589 H 1391.16 -3.1346 2.26451 0
M  V30 14590 H 1392.85 -3.0526 2.67528 0
M  V30 14591 H 1393.62 -1.49882 4.6126 0
M  V30 14592 H 1389.5 -2.48451 3.88321 0
M  V30 14593 H 1393.04 -0.850198 6.924 0
M  V30 14594 H 1388.94 -1.84074 6.18698 0
M  V30 14595 H 1389.71 -1.07062 8.11468 0
M  V30 14596 N 1392.37 -1.38898 -0.744656 0
M  V30 14597 C 1393.6 -1.38647 -1.53169 0
M  V30 14598 C 1394.01 0.0233199 -1.89186 0
M  V30 14599 O 1393.35 1.00261 -1.53927 0
M  V30 14600 C 1393.41 -2.18615 -2.85391 0
M  V30 14601 C 1393.08 -3.67342 -2.71862 0
M  V30 14602 C 1394.07 -4.60638 -2.41057 0
M  V30 14603 C 1391.76 -4.10809 -2.89035 0
M  V30 14604 C 1393.75 -5.95383 -2.27592 0
M  V30 14605 C 1391.44 -5.45632 -2.7519 0
M  V30 14606 C 1392.44 -6.37733 -2.44512 0
M  V30 14607 O 1392.13 -7.70074 -2.30741 0
M  V30 14608 H 1391.86 -0.475741 -0.480257 0
M  V30 14609 H 1394.41 -1.8321 -0.928621 0
M  V30 14610 H 1392.64 -1.68784 -3.47921 0
M  V30 14611 H 1394.33 -2.1066 -3.46954 0
M  V30 14612 H 1395.1 -4.28359 -2.2745 0
M  V30 14613 H 1390.98 -3.39462 -3.11908 0
M  V30 14614 H 1394.52 -6.67237 -2.03569 0
M  V30 14615 H 1390.42 -5.77504 -2.88373 0
M  V30 14616 H 1391.19 -7.80694 -2.45885 0
M  V30 14617 N 1393.85 0.973806 -1.23914 0
M  V30 14618 C 1395.26 1.53057 -1.06913 0
M  V30 14619 C 1395.61 1.92842 0.361423 0
M  V30 14620 O 1394.74 1.76716 1.24901 0
M  V30 14621 C 1395.33 2.78137 -1.93457 0
M  V30 14622 C 1393.89 3.3019 -1.80697 0
M  V30 14623 C 1393.04 2.03137 -1.88761 0
M  V30 14624 H 1395.99 0.792767 -1.37481 0
M  V30 14625 H 1396.01 3.5124 -1.46325 0
M  V30 14626 H 1395.52 2.49149 -2.97568 0
M  V30 14627 H 1393.62 3.64043 -0.793951 0
M  V30 14628 H 1393.73 3.99503 -2.64451 0
M  V30 14629 H 1392.1 2.17572 -1.32418 0
M  V30 14630 H 1392.88 1.76522 -2.9444 0
M  V30 14631 N 1395.33 1.05191 1.17357 0
M  V30 14632 C 1396.27 0.652868 2.21374 0
M  V30 14633 C 1397.24 -0.344974 1.62478 0
M  V30 14634 O 1398.43 -0.23639 1.8933 0
M  V30 14635 C 1395.57 0.0337737 3.45083 0
M  V30 14636 C 1394.68 1.08045 4.18271 0
M  V30 14637 C 1393.82 0.428673 5.29468 0
M  V30 14638 C 1392.86 1.45966 5.94441 0
M  V30 14639 N 1391.99 0.832042 6.97152 0
M  V30 14640 H 1396.83 1.54434 2.54861 0
M  V30 14641 H 1394.37 0.772365 1.25192 0
M  V30 14642 H 1396.33 -0.342607 4.15791 0
M  V30 14643 H 1394.96 -0.821159 3.12181 0
M  V30 14644 H 1394.01 1.57466 3.46278 0
M  V30 14645 H 1395.32 1.86305 4.62701 0
M  V30 14646 H 1394.48 -0.00129344 6.067 0
M  V30 14647 H 1393.21 -0.385919 4.86171 0
M  V30 14648 H 1392.22 1.89964 5.1594 0
M  V30 14649 H 1393.44 2.27615 6.39819 0
M  V30 14650 H 1391.39 0.0379612 6.55989 0
M  V30 14651 H 1391.31 1.55219 7.39894 0
M  V30 14652 H 1392.58 0.42685 7.7833 0
M  V30 14653 N 1396.8 -1.33791 0.83293 0
M  V30 14654 C 1397.75 -2.26795 0.234069 0
M  V30 14655 C 1398.74 -1.48991 -0.60749 0
M  V30 14656 O 1399.93 -1.70907 -0.46043 0
M  V30 14657 C 1397.06 -3.38107 -0.594863 0
M  V30 14658 C 1396.15 -4.23315 0.257877 0
M  V30 14659 N 1396.54 -4.87899 1.33373 0
M  V30 14660 C 1394.83 -4.45978 0.0438997 0
M  V30 14661 C 1395.54 -5.51278 1.85655 0
M  V30 14662 N 1394.51 -5.31103 1.15892 0
M  V30 14663 H 1398.31 -2.7424 1.05688 0
M  V30 14664 H 1395.83 -1.47627 0.676767 0
M  V30 14665 H 1397.82 -4.03716 -1.04014 0
M  V30 14666 H 1396.48 -2.92212 -1.41571 0
M  V30 14667 H 1397.5 -4.88624 1.71659 0
M  V30 14668 H 1394.17 -4.10818 -0.743985 0
M  V30 14669 H 1395.56 -6.12723 2.75717 0
M  V30 14670 N 1398.28 -0.588812 -1.46187 0
M  V30 14671 C 1399.53 -0.0744093 -2.01563 0
M  V30 14672 C 1399.84 1.29578 -1.46523 0
M  V30 14673 O 1401.05 1.90186 -1.93756 0
M  V30 14674 C 1399.51 -0.082408 -3.59806 0
M  V30 14675 C 1399.11 -1.45129 -4.23842 0
M  V30 14676 C 1400.86 0.377732 -4.22816 0
M  V30 14677 C 1398.77 -1.41668 -5.74181 0
M  V30 14678 H 1397.7 -0.0240481 -0.753616 0
M  V30 14679 H 1400.35 -0.741364 -1.67857 0
M  V30 14680 H 1398.73 0.650832 -3.90615 0
M  V30 14681 H 1399.9 -2.20474 -4.04633 0
M  V30 14682 H 1398.22 -1.85196 -3.7295 0
M  V30 14683 H 1400.81 0.42251 -5.33028 0
M  V30 14684 H 1401.16 1.39655 -3.92176 0
M  V30 14685 H 1401.69 -0.301638 -3.96655 0
M  V30 14686 H 1398.43 -2.4125 -6.09491 0
M  V30 14687 H 1397.95 -0.705524 -5.95636 0
M  V30 14688 H 1399.63 -1.13221 -6.37016 0
M  V30 14689 N 1399.76 1.54172 -0.326923 0
M  V30 14690 C 1400.69 2.21958 0.571588 0
M  V30 14691 C 1401.71 1.22067 1.0772 0
M  V30 14692 O 1402.89 1.48517 0.990202 0
M  V30 14693 C 1399.99 2.87307 1.79744 0
M  V30 14694 C 1399.17 4.13366 1.42995 0
M  V30 14695 C 1398.23 4.62276 2.5137 0
M  V30 14696 O 1397.25 5.2688 2.15373 0
M  V30 14697 N 1398.45 4.36789 3.82355 0
M  V30 14698 H 1401.22 2.99699 -0.00885848 0
M  V30 14699 H 1398.78 1.61201 -0.150279 0
M  V30 14700 H 1400.77 3.1695 2.51644 0
M  V30 14701 H 1399.34 2.13252 2.28566 0
M  V30 14702 H 1398.56 3.9045 0.542444 0
M  V30 14703 H 1399.85 4.95396 1.16017 0
M  V30 14704 H 1399.25 3.85086 4.14397 0
M  V30 14705 H 1397.81 4.71079 4.50475 0
M  V30 14706 N 1401.24 0.0551678 1.57503 0
M  V30 14707 C 1402.47 -0.626291 1.96879 0
M  V30 14708 C 1402.88 -1.64677 0.93156 0
M  V30 14709 O 1402.22 -1.83469 -0.0921632 0
M  V30 14710 C 1402.28 -1.36674 3.32506 0
M  V30 14711 C 1401.95 -0.501632 4.54239 0
M  V30 14712 C 1402.94 0.233939 5.19373 0
M  V30 14713 C 1400.63 -0.431385 5.00444 0
M  V30 14714 C 1402.62 1.02815 6.29053 0
M  V30 14715 C 1400.31 0.366514 6.1 0
M  V30 14716 C 1401.31 1.09497 6.74166 0
M  V30 14717 O 1400.99 1.87974 7.81614 0
M  V30 14718 H 1400.73 -0.175738 0.652757 0
M  V30 14719 H 1403.28 0.11909 2.05054 0
M  V30 14720 H 1401.51 -2.15783 3.20896 0
M  V30 14721 H 1403.2 -1.93882 3.56602 0
M  V30 14722 H 1403.97 0.189161 4.84631 0
M  V30 14723 H 1399.84 -0.98798 4.50289 0
M  V30 14724 H 1403.39 1.59724 6.79068 0
M  V30 14725 H 1399.29 0.412916 6.44178 0
M  V30 14726 H 1400.05 1.80228 7.98411 0
M  V30 14727 N 1402.72 -1.56081 -0.218252 0
M  V30 14728 C 1403.66 -1.93544 -1.2901 0
M  V30 14729 C 1404.66 -0.817886 -1.48348 0
M  V30 14730 O 1405.86 -1.00274 -1.49483 0
M  V30 14731 H 1402.24 -0.61511 -0.432601 0
M  V30 14732 H 1404.21 -2.82975 -0.946966 0
M  V30 14733 C 1402.96 -2.27134 -2.63259 0
M  V30 14734 H 1402.28 -3.12643 -2.49188 0
M  V30 14735 H 1403.72 -2.57228 -3.3706 0
M  V30 14736 C 1402.18 -1.09764 -3.18518 0
M  V30 14737 O 1402.71 -0.360501 -4.00079 0
M  V30 14738 N 1400.92 -0.880589 -2.76937 0
M  V30 14739 H 1400.46 -1.48175 -2.10718 0
M  V30 14740 H 1400.42 -0.0970234 -3.1425 0
M  V30 14741 N 1404.2 0.485086 -1.49949 0
M  V30 14742 C 1405.13 1.59312 -1.7071 0
M  V30 14743 C 1406.11 1.6076 -0.555896 0
M  V30 14744 O 1407.29 1.77249 -0.793504 0
M  V30 14745 C 1404.42 2.97718 -1.78834 0
M  V30 14746 C 1403.38 3.11136 -2.93902 0
M  V30 14747 C 1402.7 4.51051 -2.87154 0
M  V30 14748 C 1404 2.89665 -4.34617 0
M  V30 14749 H 1405.7 1.42192 -2.6348 0
M  V30 14750 H 1403.24 0.68262 -1.26792 0
M  V30 14751 H 1405.19 3.75148 -1.91943 0
M  V30 14752 H 1403.92 3.15963 -0.826744 0
M  V30 14753 H 1402.58 2.36135 -2.80421 0
M  V30 14754 H 1402.23 4.66195 -1.88869 0
M  V30 14755 H 1401.93 4.60967 -3.64394 0
M  V30 14756 H 1403.45 5.3052 -3.02293 0
M  V30 14757 H 1404.86 3.56853 -4.48697 0
M  V30 14758 H 1403.26 3.11039 -5.13201 0
M  V30 14759 H 1404.33 1.85642 -4.47956 0
M  V30 14760 N 1405.67 1.39291 0.737279 0
M  V30 14761 C 1406.6 1.40562 1.86452 0
M  V30 14762 C 1407.58 0.269283 1.67955 0
M  V30 14763 O 1408.77 0.474769 1.88307 0
M  V30 14764 C 1405.9 1.2461 3.24175 0
M  V30 14765 C 1404.85 2.35619 3.57306 0
M  V30 14766 C 1404.18 2.04758 4.93941 0
M  V30 14767 C 1405.48 3.77927 3.60512 0
M  V30 14768 H 1407.17 2.34896 1.85646 0
M  V30 14769 H 1404.72 1.13065 0.891756 0
M  V30 14770 H 1406.67 1.2412 4.02706 0
M  V30 14771 H 1405.4 0.267438 3.25503 0
M  V30 14772 H 1404.06 2.35322 2.81104 0
M  V30 14773 H 1403.7 1.05336 4.91847 0
M  V30 14774 H 1403.4 2.79117 5.17076 0
M  V30 14775 H 1404.93 2.05915 5.74832 0
M  V30 14776 H 1406.34 3.80166 4.29123 0
M  V30 14777 H 1404.74 4.51626 3.95164 0
M  V30 14778 H 1405.81 4.09068 2.60368 0
M  V30 14779 N 1407.15 -0.967221 1.24429 0
M  V30 14780 C 1408.4 -1.70458 1.07829 0
M  V30 14781 C 1408.71 -1.91818 -0.38278 0
M  V30 14782 O 1409.92 -2.63129 -0.668982 0
M  V30 14783 C 1408.38 -3.06817 1.88125 0
M  V30 14784 C 1407.98 -2.93298 3.38645 0
M  V30 14785 C 1409.73 -3.84422 1.80056 0
M  V30 14786 C 1407.63 -4.2497 4.11284 0
M  V30 14787 H 1406.56 -0.639217 0.399897 0
M  V30 14788 H 1409.22 -1.07776 1.48515 0
M  V30 14789 H 1407.6 -3.70331 1.40254 0
M  V30 14790 H 1408.77 -2.38793 3.94099 0
M  V30 14791 H 1407.09 -2.29159 3.47671 0
M  V30 14792 H 1409.68 -4.81925 2.31629 0
M  V30 14793 H 1410.03 -4.09194 0.765908 0
M  V30 14794 H 1410.56 -3.27636 2.2561 0
M  V30 14795 H 1407.3 -4.05391 5.1511 0
M  V30 14796 H 1406.82 -4.79288 3.60615 0
M  V30 14797 H 1408.5 -4.93586 4.18308 0
M  V30 14798 N 1408.63 -1.05812 -1.16797 0
M  V30 14799 C 1409.88 -0.770398 -1.8684 0
M  V30 14800 C 1410.2 0.704986 -1.8181 0
M  V30 14801 O 1409.47 1.50977 -1.24832 0
M  V30 14802 H 1408.05 -0.281989 -0.691731 0
M  V30 14803 H 1410.71 -1.33859 -1.41661 0
M  V30 14804 H 1409.81 -1.09094 -2.92412 0
M  V30 14805 N 1410.11 1.33347 -0.840014 0
M  V30 14806 C 1411.02 2.32965 -0.276527 0
M  V30 14807 C 1412.03 1.634 0.598037 0
M  V30 14808 O 1413.21 1.95046 0.501888 0
M  V30 14809 C 1410.27 3.42498 0.53816 0
M  V30 14810 C 1409.34 4.27781 -0.360814 0
M  V30 14811 C 1408.57 5.32083 0.415085 0
M  V30 14812 O 1408.79 5.46115 1.64666 0
M  V30 14813 O 1407.73 6.01528 -0.211503 0
M  V30 14814 H 1411.55 2.83022 -1.10147 0
M  V30 14815 H 1409.14 1.3671 -0.602566 0
M  V30 14816 H 1411.02 4.09336 1.00108 0
M  V30 14817 H 1409.69 2.94655 1.34015 0
M  V30 14818 H 1408.6 3.63805 -0.871598 0
M  V30 14819 H 1409.93 4.7911 -1.1276 0
M  V30 14820 N 1411.59 0.596556 1.45873 0
M  V30 14821 C 1412.83 0.0872856 2.01911 0
M  V30 14822 C 1413.15 -1.28257 1.46885 0
M  V30 14823 O 1412.42 -1.84489 0.658837 0
M  V30 14824 H 1411 0.0292769 0.746426 0
M  V30 14825 H 1413.67 0.775464 1.78809 0
M  V30 14826 H 1412.76 0.0287213 3.12087 0
M  V30 14827 N 1413.06 -1.53996 0.335095 0
M  V30 14828 C 1414.47 -1.86092 -0.15058 0
M  V30 14829 C 1414.83 -1.25652 -1.50685 0
M  V30 14830 O 1413.95 -0.566887 -2.08843 0
M  V30 14831 C 1414.55 -3.37641 -0.280007 0
M  V30 14832 C 1413.1 -3.69645 -0.709907 0
M  V30 14833 C 1412.25 -2.7683 0.161461 0
M  V30 14834 H 1415.2 -1.4868 0.554986 0
M  V30 14835 H 1415.22 -3.63981 -1.10896 0
M  V30 14836 H 1414.74 -3.81601 0.707254 0
M  V30 14837 H 1412.84 -3.31224 -1.7065 0
M  V30 14838 H 1412.95 -4.76424 -0.505661 0
M  V30 14839 H 1411.31 -2.52073 -0.364849 0
M  V30 14840 H 1412.1 -3.23618 1.1457 0
M  V30 14841 N 1414.54 -0.0635198 -1.57472 0
M  V30 14842 C 1415.78 0.611234 -1.95047 0
M  V30 14843 C 1416.15 1.67274 -0.94251 0
M  V30 14844 O 1417.35 2.40246 -1.20563 0
M  V30 14845 C 1415.62 1.18071 -3.37334 0
M  V30 14846 S 1417.18 1.87174 -3.96877 0
M  V30 14847 H 1413.99 0.20037 -0.682182 0
M  V30 14848 H 1416.6 -0.135403 -1.95031 0
M  V30 14849 H 1415.3 0.396176 -4.08483 0
M  V30 14850 H 1414.83 1.96388 -3.40874 0
M  V30 14851 H 1416.85 3.15346 -3.83107 0
M  V30 14852 N 1416.02 1.56195 0.209972 0
M  V30 14853 C 1416.93 1.96539 1.28101 0
M  V30 14854 C 1417.95 0.870858 1.50639 0
M  V30 14855 O 1419.12 1.17539 1.63544 0
M  V30 14856 C 1416.19 2.28392 2.60841 0
M  V30 14857 C 1415.25 3.51474 2.46505 0
M  V30 14858 C 1414.48 3.81798 3.72915 0
M  V30 14859 O 1414.7 3.13627 4.76439 0
M  V30 14860 O 1413.64 4.75264 3.69334 0
M  V30 14861 H 1417.46 2.87838 0.968671 0
M  V30 14862 H 1415.05 1.43556 0.413777 0
M  V30 14863 H 1416.93 2.50022 3.39215 0
M  V30 14864 H 1415.61 1.40264 2.91732 0
M  V30 14865 H 1414.51 3.35109 1.66292 0
M  V30 14866 H 1415.85 4.40021 2.2055 0
M  V30 14867 N 1417.5 -0.477127 1.50204 0
M  V30 14868 C 1418.91 -1.05815 1.53819 0
M  V30 14869 C 1419.26 -1.93264 0.338169 0
M  V30 14870 O 1418.38 -2.09305 -0.549576 0
M  V30 14871 C 1418.98 -1.92577 2.78746 0
M  V30 14872 C 1417.54 -2.45799 2.85061 0
M  V30 14873 C 1416.69 -1.23994 2.48034 0
M  V30 14874 H 1419.64 -0.259998 1.56556 0
M  V30 14875 H 1419.66 -2.7757 2.6026 0
M  V30 14876 H 1419.17 -1.28904 3.66068 0
M  V30 14877 H 1417.27 -3.13042 2.02077 0
M  V30 14878 H 1417.38 -2.81318 3.8781 0
M  V30 14879 H 1415.75 -1.5728 2.00338 0
M  V30 14880 H 1416.53 -0.619917 3.37657 0
M  V30 14881 N 1418.98 -1.3968 -0.729882 0
M  V30 14882 C 1420.22 -1.36911 -1.4866 0
M  V30 14883 C 1420.55 0.0326011 -1.94973 0
M  V30 14884 O 1419.82 0.984789 -1.69348 0
M  V30 14885 H 1418.4 -0.503848 -0.551495 0
M  V30 14886 H 1421.06 -1.74596 -0.866155 0
M  V30 14887 H 1420.15 -2.03504 -2.36628 0
M  V30 14888 N 1420.45 0.960609 -1.2494 0
M  V30 14889 C 1421.73 1.68035 -1.00118 0
M  V30 14890 C 1422.11 2.057 0.474399 0
M  V30 14891 O 1421.46 1.76569 1.45036 0
M  V30 14892 C 1421.67 2.90708 -1.93106 0
M  V30 14893 C 1423.02 3.62792 -2.20606 0
M  V30 14894 O 1424.04 3.00778 -1.90816 0
M  V30 14895 O 1422.9 4.74443 -2.71231 0
M  V30 14896 H 1419.99 0.734939 -0.379202 0
M  V30 14897 H 1422.54 1.01407 -1.36069 0
M  V30 14898 H 1421.31 2.59619 -2.92769 0
M  V30 14899 H 1420.94 3.65068 -1.57515 0
M  V30 14900 N 1421.93 1.0643 1.16234 0
M  V30 14901 C 1423.17 0.791061 1.88472 0
M  V30 14902 C 1423.54 -0.670265 1.79921 0
M  V30 14903 O 1424.74 -1.05815 2.47096 0
M  V30 14904 C 1423.01 1.27371 3.33933 0
M  V30 14905 S 1424.57 1.12974 4.24008 0
M  V30 14906 H 1421.39 0.286924 0.650535 0
M  V30 14907 H 1423.99 1.3615 1.40298 0
M  V30 14908 H 1422.69 2.33215 3.37696 0
M  V30 14909 H 1422.22 0.698083 3.87157 0
M  V30 14910 H 1424.24 0.0614942 4.96162 0
M  V30 14911 N 1423.41 -1.329 0.847073 0
M  V30 14912 C 1424.66 -1.9712 0.445872 0
M  V30 14913 C 1424.98 -1.67398 -1.00014 0
M  V30 14914 O 1424.25 -0.977204 -1.69787 0
M  V30 14915 H 1422.83 -0.729247 0.161887 0
M  V30 14916 H 1425.49 -1.62118 1.08184 0
M  V30 14917 H 1424.59 -3.06575 0.584676 0
M  V30 14918 N 1424.89 -0.604284 -1.45555 0
M  V30 14919 C 1426.14 -0.0979922 -2.01862 0
M  V30 14920 C 1426.46 1.27476 -1.47563 0
M  V30 14921 O 1425.73 1.84137 -0.668612 0
M  V30 14922 H 1424.31 -0.033235 -0.74626 0
M  V30 14923 H 1426.97 -0.784936 -1.78395 0
M  V30 14924 H 1426.07 -0.0452716 -3.12067 0
M  V30 14925 N 1426.37 1.53816 -0.343257 0
M  V30 14926 C 1427.31 2.25011 0.513664 0
M  V30 14927 C 1428.28 1.24827 1.09578 0
M  V30 14928 O 1429.47 1.53558 1.13245 0
M  V30 14929 C 1426.61 3.02616 1.65885 0
M  V30 14930 C 1425.72 4.17653 1.10406 0
M  V30 14931 C 1424.86 4.82746 2.21653 0
M  V30 14932 C 1423.9 5.89853 1.63524 0
M  V30 14933 N 1423.03 6.48726 2.68512 0
M  V30 14934 H 1427.87 2.97832 -0.099997 0
M  V30 14935 H 1425.41 1.46973 -0.0611206 0
M  V30 14936 H 1427.37 3.45868 2.33304 0
M  V30 14937 H 1426 2.32092 2.2435 0
M  V30 14938 H 1425.05 3.79045 0.320819 0
M  V30 14939 H 1426.36 4.94691 0.638887 0
M  V30 14940 H 1425.52 5.29068 2.96938 0
M  V30 14941 H 1424.25 4.05131 2.71515 0
M  V30 14942 H 1423.26 5.42914 0.86745 0
M  V30 14943 H 1424.48 6.69375 1.14515 0
M  V30 14944 H 1422.43 5.73975 3.17629 0
M  V30 14945 H 1422.35 7.21236 2.26616 0
M  V30 14946 H 1423.62 6.99701 3.43567 0
M  V30 14947 N 1427.84 0.0718701 1.57436 0
M  V30 14948 C 1428.77 -0.89288 2.15754 0
M  V30 14949 C 1429.76 -1.31036 1.0846 0
M  V30 14950 O 1430.94 -1.38139 1.36496 0
M  V30 14951 C 1428.07 -2.16044 2.71923 0
M  V30 14952 C 1427.02 -1.88236 3.84384 0
M  V30 14953 C 1426.35 -3.21624 4.27156 0
M  V30 14954 C 1427.65 -1.18758 5.0862 0
M  V30 14955 H 1429.34 -0.407061 2.9662 0
M  V30 14956 H 1426.89 -0.194354 1.42682 0
M  V30 14957 H 1428.84 -2.83952 3.11366 0
M  V30 14958 H 1427.57 -2.66868 1.88279 0
M  V30 14959 H 1426.23 -1.22734 3.45445 0
M  V30 14960 H 1425.87 -3.70289 3.40433 0
M  V30 14961 H 1425.57 -3.03809 5.02965 0
M  V30 14962 H 1427.1 -3.90729 4.69215 0
M  V30 14963 H 1428.51 -1.76735 5.45378 0
M  V30 14964 H 1426.91 -1.11201 5.89707 0
M  V30 14965 H 1427.98 -0.166682 4.84613 0
M  V30 14966 N 1429.32 -1.56304 -0.201686 0
M  V30 14967 C 1430.25 -1.97046 -1.25281 0
M  V30 14968 C 1431.23 -0.841458 -1.47829 0
M  V30 14969 O 1432.42 -1.10529 -1.59678 0
M  V30 14970 C 1429.55 -2.30429 -2.59845 0
M  V30 14971 C 1428.5 -3.46006 -2.5192 0
M  V30 14972 C 1427.83 -3.65047 -3.90697 0
M  V30 14973 C 1429.13 -4.80391 -2.04992 0
M  V30 14974 H 1430.82 -2.85099 -0.914272 0
M  V30 14975 H 1428.37 -1.37166 -0.438359 0
M  V30 14976 H 1430.32 -2.57525 -3.33555 0
M  V30 14977 H 1429.05 -1.39251 -2.95426 0
M  V30 14978 H 1427.7 -3.18991 -1.80667 0
M  V30 14979 H 1427.35 -2.71211 -4.2362 0
M  V30 14980 H 1427.05 -4.42796 -3.86271 0
M  V30 14981 H 1428.58 -3.94512 -4.66039 0
M  V30 14982 H 1429.99 -5.06561 -2.68456 0
M  V30 14983 H 1428.39 -5.61563 -2.11582 0
M  V30 14984 H 1429.46 -4.74416 -1.00288 0
M  V30 14985 N 1430.8 0.469154 -1.50455 0
M  V30 14986 C 1432.04 1.23092 -1.6318 0
M  V30 14987 C 1432.4 1.89215 -0.325829 0
M  V30 14988 O 1433.61 2.66785 -0.328531 0
M  V30 14989 C 1431.88 2.24527 -2.78069 0
M  V30 14990 S 1433.44 3.09617 -3.10938 0
M  V30 14991 H 1430.25 0.417887 -0.575232 0
M  V30 14992 H 1432.86 0.527616 -1.88246 0
M  V30 14993 H 1431.56 1.74534 -3.71438 0
M  V30 14994 H 1431.09 2.99483 -2.55095 0
M  V30 14995 H 1433.11 4.25716 -2.54913 0
M  V30 14996 N 1432.28 1.40065 0.722464 0
M  V30 14997 C 1433.69 1.21944 1.02965 0
M  V30 14998 C 1433.89 0.0898069 2.013 0
M  V30 14999 O 1432.95 -0.554519 2.46336 0
M  V30 15000 C 1434.26 2.55848 1.57995 0
M  V30 15001 C 1435.81 2.62801 1.70013 0
M  V30 15002 C 1436.29 3.96957 2.2845 0
M  V30 15003 N 1437.78 3.98662 2.35844 0
M  V30 15004 C 1438.51 4.99248 2.82026 0
M  V30 15005 N 1438.01 6.1023 3.28012 0
M  V30 15006 N 1439.8 4.8662 2.81349 0
M  V30 15007 H 1431.95 2.12283 0.0705301 0
M  V30 15008 H 1434.22 0.943338 0.0938991 0
M  V30 15009 H 1433.92 3.39125 0.932034 0
M  V30 15010 H 1433.8 2.76452 2.5662 0
M  V30 15011 H 1436.18 1.799 2.33923 0
M  V30 15012 H 1436.26 2.46034 0.700062 0
M  V30 15013 H 1435.91 4.80295 1.65164 0
M  V30 15014 H 1435.84 4.1105 3.29158 0
M  V30 15015 H 1438.33 3.18518 2.03358 0
M  V30 15016 H 1438.64 6.82878 3.61797 0
M  V30 15017 H 1436.99 6.13805 3.25988 0
M  V30 15018 H 1440.18 3.99015 2.44755 0
M  V30 15019 H 1440.35 5.65155 3.17024 0
M  V30 15020 N 1433.76 -0.95397 1.25448 0
M  V30 15021 C 1434.71 -2.03623 1.02575 0
M  V30 15022 C 1435.69 -1.60856 -0.0375824 0
M  V30 15023 O 1436.88 -1.76104 0.177833 0
M  V30 15024 C 1434.01 -3.37145 0.64714 0
M  V30 15025 C 1433.1 -3.86434 1.74726 0
M  V30 15026 N 1433.49 -4.08509 2.98251 0
M  V30 15027 C 1431.79 -4.15228 1.62793 0
M  V30 15028 C 1432.49 -4.49137 3.69663 0
M  V30 15029 N 1431.46 -4.55106 2.97287 0
M  V30 15030 H 1435.27 -2.18685 1.96352 0
M  V30 15031 H 1432.78 -1.13884 1.15777 0
M  V30 15032 H 1434.78 -4.14305 0.464462 0
M  V30 15033 H 1433.44 -3.23462 -0.283296 0
M  V30 15034 H 1434.45 -3.95564 3.3429 0
M  V30 15035 H 1431.13 -4.10403 0.766501 0
M  V30 15036 H 1432.52 -4.74515 4.75695 0
M  V30 15037 N 1435.24 -1.07045 -1.15668 0
M  V30 15038 C 1436.48 -0.790172 -1.86013 0
M  V30 15039 C 1436.8 0.685663 -1.82548 0
M  V30 15040 O 1436.07 1.49644 -1.26426 0
M  V30 15041 H 1434.65 -0.28931 -0.688701 0
M  V30 15042 H 1437.32 -1.35354 -1.40233 0
M  V30 15043 H 1436.41 -1.1219 -2.91239 0
M  V30 15044 N 1436.71 1.32449 -0.85411 0
M  V30 15045 C 1437.96 1.97563 -0.4579 0
M  V30 15046 C 1438.29 1.67435 0.983835 0
M  V30 15047 O 1437.57 0.962292 1.69027 0
M  V30 15048 C 1437.85 3.53292 -0.69688 0
M  V30 15049 C 1437.7 3.93053 -2.18699 0
M  V30 15050 C 1439.02 4.39834 -0.152917 0
M  V30 15051 H 1436.14 0.717634 -0.167842 0
M  V30 15052 H 1438.78 1.5684 -1.07243 0
M  V30 15053 H 1436.93 3.88111 -0.173807 0
M  V30 15054 H 1438.61 3.68416 -2.7761 0
M  V30 15055 H 1436.85 3.42232 -2.6657 0
M  V30 15056 H 1437.52 5.01576 -2.3049 0
M  V30 15057 H 1440 4.11748 -0.600216 0
M  V30 15058 H 1438.87 5.47785 -0.349703 0
M  V30 15059 H 1439.13 4.31898 0.944276 0
M  V30 15060 N 1438.19 0.611994 1.45232 0
M  V30 15061 C 1439.44 0.106467 2.01419 0
M  V30 15062 C 1439.75 -1.2723 1.48566 0
M  V30 15063 O 1440.96 -1.8708 1.96757 0
M  V30 15064 C 1439.42 0.139639 3.59629 0
M  V30 15065 C 1439.02 1.51853 4.21479 0
M  V30 15066 C 1440.77 -0.310417 4.23364 0
M  V30 15067 C 1438.67 1.50785 5.71855 0
M  V30 15068 H 1437.6 0.0360345 0.753138 0
M  V30 15069 H 1440.26 0.767974 1.66657 0
M  V30 15070 H 1438.64 -0.588606 3.91601 0
M  V30 15071 H 1439.81 2.26884 4.01074 0
M  V30 15072 H 1438.13 1.91105 3.69956 0
M  V30 15073 H 1440.72 -0.337656 5.33633 0
M  V30 15074 H 1441.07 -1.33398 3.94348 0
M  V30 15075 H 1441.6 0.364704 3.96125 0
M  V30 15076 H 1438.34 2.50916 6.05575 0
M  V30 15077 H 1437.86 0.800195 5.94438 0
M  V30 15078 H 1439.54 1.23341 6.35135 0
M  V30 15079 N 1439.67 -1.53632 0.351409 0
M  V30 15080 C 1440.92 -2.00643 -0.242208 0
M  V30 15081 C 1441.24 -1.24074 -1.50435 0
M  V30 15082 O 1440.51 -0.350067 -1.92747 0
M  V30 15083 H 1439.09 -0.741252 -0.0924904 0
M  V30 15084 H 1441.75 -1.89039 0.474379 0
M  V30 15085 H 1440.85 -3.084 -0.479151 0
M  V30 15086 N 1441.15 -0.0802183 -1.57396 0
M  V30 15087 C 1442.4 0.586573 -1.92982 0
M  V30 15088 C 1442.71 1.70256 -0.962918 0
M  V30 15089 O 1443.92 2.4295 -1.21193 0
M  V30 15090 C 1442.37 1.09475 -3.42846 0
M  V30 15091 C 1441.98 0.0093098 -4.47999 0
M  V30 15092 C 1443.72 1.73512 -3.87419 0
M  V30 15093 C 1441.63 0.532002 -5.89002 0
M  V30 15094 H 1440.56 0.222878 -0.720306 0
M  V30 15095 H 1443.21 -0.153816 -1.82854 0
M  V30 15096 H 1441.59 1.88836 -3.48076 0
M  V30 15097 H 1442.77 -0.765609 -4.54395 0
M  V30 15098 H 1441.08 -0.535345 -4.12944 0
M  V30 15099 H 1443.68 2.13665 -4.90154 0
M  V30 15100 H 1444.02 2.59845 -3.25248 0
M  V30 15101 H 1444.56 1.00758 -3.84828 0
M  V30 15102 H 1441.29 -0.294364 -6.54839 0
M  V30 15103 H 1440.81 1.27425 -5.86108 0
M  V30 15104 H 1442.49 1.00573 -6.39135 0
M  V30 15105 N 1442.63 1.56409 0.193394 0
M  V30 15106 C 1443.87 1.79919 0.911712 0
M  V30 15107 C 1444.19 0.653729 1.84352 0
M  V30 15108 O 1445.39 0.773172 2.60258 0
M  V30 15109 C 1443.85 3.18726 1.67158 0
M  V30 15110 C 1443.46 4.41078 0.784512 0
M  V30 15111 C 1445.2 3.51544 2.37944 0
M  V30 15112 C 1443.11 5.70907 1.54335 0
M  V30 15113 H 1442.04 0.670864 0.344177 0
M  V30 15114 H 1444.69 1.82757 0.164967 0
M  V30 15115 H 1443.07 3.10142 2.46227 0
M  V30 15116 H 1444.25 4.60789 0.032356 0
M  V30 15117 H 1442.56 4.15978 0.187407 0
M  V30 15118 H 1445.16 4.45779 2.95271 0
M  V30 15119 H 1445.5 2.75369 3.12214 0
M  V30 15120 H 1446.03 3.61583 1.65839 0
M  V30 15121 H 1442.77 6.50052 0.843393 0
M  V30 15122 H 1442.29 5.5521 2.26939 0
M  V30 15123 H 1443.97 6.12085 2.09669 0
M  V30 15124 N 1444.1 -0.461169 1.50702 0
M  V30 15125 C 1445.33 -1.23554 1.65958 0
M  V30 15126 C 1445.75 -1.85584 0.346977 0
M  V30 15127 O 1445.1 -1.69672 -0.672129 0
M  V30 15128 C 1445.15 -2.33704 2.75799 0
M  V30 15129 O 1444.88 -1.74215 4.01971 0
M  V30 15130 C 1446.38 -3.24409 3.02116 0
M  V30 15131 H 1443.6 -0.373299 0.557574 0
M  V30 15132 H 1446.14 -0.549338 1.96984 0
M  V30 15133 H 1444.3 -2.98081 2.47439 0
M  V30 15134 H 1444.71 -2.46827 4.62792 0
M  V30 15135 H 1446.18 -3.97885 3.82611 0
M  V30 15136 H 1446.66 -3.83774 2.13576 0
M  V30 15137 H 1447.27 -2.65757 3.32044 0
M  V30 15138 N 1445.58 -1.40446 -0.715026 0
M  V30 15139 C 1446.54 -1.40506 -1.81082 0
M  V30 15140 C 1447.54 -0.298768 -1.58 0
M  V30 15141 O 1448.73 -0.5577 -1.65031 0
M  V30 15142 C 1445.87 -1.19735 -3.19181 0
M  V30 15143 H 1447.06 -2.38034 -1.82427 0
M  V30 15144 H 1444.61 -1.26303 -0.920718 0
M  V30 15145 H 1445.35 -0.229695 -3.23486 0
M  V30 15146 H 1445.13 -1.99871 -3.37334 0
M  V30 15147 H 1446.62 -1.22566 -3.99208 0
M  V30 15148 N 1447.06 0.947303 -1.25952 0
M  V30 15149 C 1448.31 1.68945 -1.10915 0
M  V30 15150 C 1448.63 1.91848 0.349216 0
M  V30 15151 O 1447.9 1.5108 1.24706 0
M  V30 15152 H 1446.48 0.626086 -0.407462 0
M  V30 15153 H 1449.14 1.13854 -1.58187 0
M  V30 15154 H 1448.24 2.6657 -1.62317 0
M  V30 15155 N 1448.54 1.07657 1.15099 0
M  V30 15156 C 1449.79 0.800025 1.85591 0
M  V30 15157 C 1450.11 -0.675973 1.82909 0
M  V30 15158 O 1449.38 -1.48971 1.27218 0
M  V30 15159 H 1447.96 0.292958 0.687157 0
M  V30 15160 H 1450.62 1.36096 1.39513 0
M  V30 15161 H 1449.72 1.13733 2.90639 0
M  V30 15162 N 1450.02 -1.31994 0.861122 0
M  V30 15163 C 1450.93 -2.32495 0.313555 0
M  V30 15164 C 1451.94 -1.64331 -0.571966 0
M  V30 15165 O 1453.12 -1.9582 -0.470794 0
M  V30 15166 C 1450.18 -3.43311 -0.483603 0
M  V30 15167 C 1449.24 -4.27153 0.428825 0
M  V30 15168 C 1448.48 -5.32676 -0.330383 0
M  V30 15169 O 1448.7 -5.48665 -1.55957 0
M  V30 15170 O 1447.63 -6.01116 0.307174 0
M  V30 15171 H 1451.46 -2.81234 1.14636 0
M  V30 15172 H 1449.05 -1.35734 0.624239 0
M  V30 15173 H 1450.93 -4.10877 -0.935831 0
M  V30 15174 H 1449.6 -2.9675 -1.2931 0
M  V30 15175 H 1448.51 -3.62372 0.929366 0
M  V30 15176 H 1449.84 -4.77255 1.20368 0
M  V30 15177 N 1451.49 -0.619688 -1.44906 0
M  V30 15178 C 1452.74 -0.119397 -2.01747 0
M  V30 15179 C 1453.06 1.25904 -1.48907 0
M  V30 15180 O 1452.33 1.83417 -0.688104 0
M  V30 15181 H 1450.91 -0.0411482 -0.745866 0
M  V30 15182 H 1453.58 -0.803813 -1.77552 0
M  V30 15183 H 1452.67 -0.078368 -3.12002 0
M  V30 15184 N 1452.97 1.53444 -0.359552 0
M  V30 15185 C 1453.92 2.22312 0.506084 0
M  V30 15186 C 1454.91 1.21618 1.05347 0
M  V30 15187 O 1456.1 1.47093 0.984511 0
M  V30 15188 C 1453.23 3.01137 1.64837 0
M  V30 15189 C 1452.31 4.09203 1.11416 0
M  V30 15190 N 1452.7 5.04895 0.302445 0
M  V30 15191 C 1451 4.23801 1.38954 0
M  V30 15192 C 1451.7 5.81699 0.0106517 0
M  V30 15193 N 1450.68 5.40204 0.606648 0
M  V30 15194 H 1454.48 2.93651 -0.120961 0
M  V30 15195 H 1452 1.61536 -0.167249 0
M  V30 15196 H 1453.99 3.48988 2.28063 0
M  V30 15197 H 1452.65 2.31328 2.27854 0
M  V30 15198 H 1453.66 5.17868 -0.0578423 0
M  V30 15199 H 1450.34 3.65217 2.02293 0
M  V30 15200 H 1451.73 6.68795 -0.645163 0
M  V30 15201 N 1454.45 0.0885642 1.57351 0
M  V30 15202 C 1455.7 -0.57753 1.94403 0
M  V30 15203 C 1456.03 -1.68238 0.970029 0
M  V30 15204 O 1455.3 -1.945 0.00198684 0
M  V30 15205 C 1455.59 -1.13882 3.41618 0
M  V30 15206 C 1455.44 -0.0394686 4.49783 0
M  V30 15207 C 1456.76 -2.03922 3.90005 0
M  V30 15208 H 1453.88 -0.208468 0.706902 0
M  V30 15209 H 1456.52 0.157945 1.89342 0
M  V30 15210 H 1454.67 -1.76561 3.46061 0
M  V30 15211 H 1456.34 0.594458 4.57454 0
M  V30 15212 H 1454.59 0.627775 4.29234 0
M  V30 15213 H 1455.26 -0.472897 5.49971 0
M  V30 15214 H 1457.73 -1.51156 3.87674 0
M  V30 15215 H 1456.61 -2.40123 4.93591 0
M  V30 15216 H 1456.87 -2.95407 3.28918 0
M  V30 15217 N 1455.93 -1.56509 -0.185096 0
M  V30 15218 C 1456.89 -1.94468 -1.21305 0
M  V30 15219 C 1457.89 -0.826838 -1.37913 0
M  V30 15220 O 1459.08 -1.09411 -1.35554 0
M  V30 15221 C 1456.21 -2.22747 -2.58063 0
M  V30 15222 H 1457.41 -2.86442 -0.888323 0
M  V30 15223 H 1454.96 -1.50354 -0.427012 0
M  V30 15224 H 1455.69 -1.33443 -2.95573 0
M  V30 15225 H 1455.48 -3.04215 -2.47378 0
M  V30 15226 H 1456.97 -2.53084 -3.32172 0
M  V30 15227 N 1457.41 0.45317 -1.50944 0
M  V30 15228 C 1458.65 1.20389 -1.62827 0
M  V30 15229 C 1458.98 1.91559 -0.336982 0
M  V30 15230 O 1458.24 1.83574 0.678153 0
M  V30 15231 C 1458.54 2.25747 -2.7708 0
M  V30 15232 C 1458.2 1.71703 -4.16928 0
M  V30 15233 C 1456.86 1.56686 -4.54976 0
M  V30 15234 C 1459.22 1.31804 -5.04259 0
M  V30 15235 C 1456.54 1.0022 -5.78077 0
M  V30 15236 C 1458.9 0.767738 -6.27924 0
M  V30 15237 C 1457.56 0.604341 -6.64759 0
M  V30 15238 H 1456.83 0.440536 -0.595827 0
M  V30 15239 H 1459.48 0.497234 -1.84932 0
M  V30 15240 H 1457.78 3.0239 -2.49134 0
M  V30 15241 H 1459.48 2.83625 -2.83475 0
M  V30 15242 H 1456.07 1.84364 -3.86921 0
M  V30 15243 H 1460.25 1.42233 -4.75482 0
M  V30 15244 H 1455.51 0.863228 -6.05275 0
M  V30 15245 H 1459.68 0.449994 -6.94945 0
M  V30 15246 H 1457.31 0.164663 -7.60022 0
M  V30 15247 N 1458.88 1.40823 0.707568 0
M  V30 15248 C 1460.13 1.38837 1.46312 0
M  V30 15249 C 1460.45 -0.00353939 1.956 0
M  V30 15250 O 1461.65 -0.146022 2.71107 0
M  V30 15251 C 1460.11 2.44052 2.64512 0
M  V30 15252 C 1459.72 3.89093 2.2206 0
M  V30 15253 C 1461.46 2.51185 3.42208 0
M  V30 15254 C 1459.37 4.85887 3.37147 0
M  V30 15255 H 1458.3 0.516263 0.549535 0
M  V30 15256 H 1460.95 1.66595 0.769302 0
M  V30 15257 H 1459.33 2.09406 3.36103 0
M  V30 15258 H 1460.5 4.32925 1.57837 0
M  V30 15259 H 1458.82 3.8551 1.57388 0
M  V30 15260 H 1461.42 3.20687 4.2786 0
M  V30 15261 H 1461.76 1.54488 3.86574 0
M  V30 15262 H 1462.29 2.84862 2.77666 0
M  V30 15263 H 1459.03 5.83946 2.97805 0
M  V30 15264 H 1458.55 4.46713 4.00259 0
M  V30 15265 H 1460.23 5.06084 4.03098 0
M  V30 15266 N 1460.36 -0.94061 1.26453 0
M  V30 15267 C 1461.64 -1.66421 1.02779 0
M  V30 15268 C 1462.02 -2.06429 -0.441614 0
M  V30 15269 O 1461.37 -1.78854 -1.42209 0
M  V30 15270 C 1461.58 -2.87599 1.97707 0
M  V30 15271 C 1462.93 -3.59237 2.26349 0
M  V30 15272 O 1463.95 -2.97704 1.95577 0
M  V30 15273 O 1462.81 -4.70068 2.78744 0
M  V30 15274 H 1459.9 -0.728813 0.390846 0
M  V30 15275 H 1462.45 -0.99229 1.37665 0
M  V30 15276 H 1461.22 -2.54929 2.96862 0
M  V30 15277 H 1460.84 -3.62516 1.63303 0
M  V30 15278 N 1461.84 -1.08266 -1.14527 0
M  V30 15279 C 1462.77 -0.732968 -2.21698 0
M  V30 15280 C 1463.75 0.283917 -1.67714 0
M  V30 15281 O 1464.94 0.154607 -1.93584 0
M  V30 15282 C 1462.07 -0.139935 -3.47018 0
M  V30 15283 C 1461.02 -1.08501 -4.14019 0
M  V30 15284 C 1460.35 -0.354263 -5.33525 0
M  V30 15285 C 1461.65 -2.42254 -4.62721 0
M  V30 15286 H 1463.34 -1.629 -2.51205 0
M  V30 15287 H 1460.89 -0.784696 -1.20742 0
M  V30 15288 H 1462.84 0.1167 -4.21238 0
M  V30 15289 H 1461.56 0.791228 -3.16871 0
M  V30 15290 H 1460.22 -1.32672 -3.41751 0
M  V30 15291 H 1459.87 0.580658 -4.99637 0
M  V30 15292 H 1459.57 -0.984287 -5.79297 0
M  V30 15293 H 1461.09 -0.105648 -6.10509 0
M  V30 15294 H 1462.51 -2.22357 -5.28422 0
M  V30 15295 H 1460.91 -3.00935 -5.1919 0
M  V30 15296 H 1461.98 -3.03884 -3.77866 0
M  V30 15297 N 1463.32 1.31536 -0.86811 0
M  V30 15298 C 1464.74 1.49461 -0.559778 0
M  V30 15299 C 1464.94 1.79957 0.906525 0
M  V30 15300 O 1463.99 1.87711 1.68881 0
M  V30 15301 C 1465.3 2.62967 -1.45839 0
M  V30 15302 C 1466.85 2.76851 -1.46023 0
M  V30 15303 C 1467.33 3.93451 -2.34436 0
M  V30 15304 N 1468.82 4.00735 -2.32306 0
M  V30 15305 C 1469.55 4.90223 -2.97437 0
M  V30 15306 N 1469.05 5.84626 -3.71731 0
M  V30 15307 N 1470.84 4.83454 -2.86755 0
M  V30 15308 H 1462.99 1.1001 -1.81691 0
M  V30 15309 H 1465.26 0.543418 -0.776789 0
M  V30 15310 H 1464.96 2.47203 -2.50168 0
M  V30 15311 H 1464.84 3.59063 -1.15556 0
M  V30 15312 H 1467.22 2.9203 -0.424527 0
M  V30 15313 H 1467.3 1.81427 -1.80327 0
M  V30 15314 H 1466.95 3.79029 -3.38082 0
M  V30 15315 H 1466.88 4.88179 -1.97457 0
M  V30 15316 H 1469.37 3.33191 -1.78303 0
M  V30 15317 H 1469.68 6.49635 -4.18562 0
M  V30 15318 H 1468.03 5.84611 -3.75839 0
M  V30 15319 H 1471.22 4.08678 -2.28254 0
M  V30 15320 H 1471.39 5.52991 -3.37795 0
M  V30 15321 N 1464.8 0.627364 1.44575 0
M  V30 15322 C 1465.73 -0.118179 2.28895 0
M  V30 15323 C 1466.74 -0.812569 1.41071 0
M  V30 15324 O 1467.93 -0.674646 1.6526 0
M  V30 15325 C 1465.03 -1.18937 3.17344 0
M  V30 15326 C 1464.2 -0.578226 4.33561 0
M  V30 15327 C 1463.26 -1.54288 5.03072 0
M  V30 15328 O 1462.29 -1.06148 5.59215 0
M  V30 15329 N 1463.49 -2.87725 5.04177 0
M  V30 15330 H 1466.26 0.605442 2.93521 0
M  V30 15331 H 1463.82 0.468253 1.54981 0
M  V30 15332 H 1465.81 -1.83494 3.60711 0
M  V30 15333 H 1464.38 -1.81526 2.54494 0
M  V30 15334 H 1463.6 0.245883 3.93432 0
M  V30 15335 H 1464.89 -0.150502 5.08577 0
M  V30 15336 H 1464.29 -3.29421 4.5989 0
M  V30 15337 H 1462.84 -3.47653 5.51344 0
M  V30 15338 N 1466.28 -1.53251 0.367684 0
M  V30 15339 C 1467.52 -2.01287 -0.221351 0
M  V30 15340 C 1467.85 -1.25489 -1.48603 0
M  V30 15341 O 1467.11 -0.337392 -1.9277 0
M  V30 15342 C 1467.4 -3.53031 -0.557149 0
M  V30 15343 C 1467.07 -4.46708 0.613444 0
M  V30 15344 C 1465.73 -4.72036 0.934633 0
M  V30 15345 C 1468.08 -5.02112 1.3976 0
M  V30 15346 C 1465.41 -5.50021 2.04191 0
M  V30 15347 C 1467.76 -5.81306 2.49531 0
M  V30 15348 C 1466.43 -6.04921 2.82182 0
M  V30 15349 H 1465.7 -0.73656 -0.080998 0
M  V30 15350 H 1468.35 -1.84842 0.500581 0
M  V30 15351 H 1466.65 -3.67434 -1.36012 0
M  V30 15352 H 1468.35 -3.87674 -1.02519 0
M  V30 15353 H 1464.94 -4.27143 0.353075 0
M  V30 15354 H 1469.12 -4.82488 1.1627 0
M  V30 15355 H 1464.38 -5.66536 2.29884 0
M  V30 15356 H 1468.55 -6.23245 3.10707 0
M  V30 15357 H 1466.18 -6.65134 3.68104 0
M  V30 15358 N 1467.75 -0.0969077 -1.57302 0
M  V30 15359 C 1468.7 0.872039 -2.10664 0
M  V30 15360 C 1469.69 1.24265 -1.02211 0
M  V30 15361 O 1470.88 1.21743 -1.28482 0
M  V30 15362 C 1468.01 2.13042 -2.69199 0
M  V30 15363 C 1467.09 1.78517 -3.84698 0
M  V30 15364 N 1467.49 1.14558 -4.92656 0
M  V30 15365 C 1465.78 2.08115 -3.94467 0
M  V30 15366 C 1466.48 0.986837 -5.73268 0
M  V30 15367 N 1465.46 1.50473 -5.22359 0
M  V30 15368 H 1469.26 0.373625 -2.91515 0
M  V30 15369 H 1466.78 0.10625 -1.62052 0
M  V30 15370 H 1468.77 2.83403 -3.05759 0
M  V30 15371 H 1467.43 2.63448 -1.89803 0
M  V30 15372 H 1468.44 0.812179 -5.11492 0
M  V30 15373 H 1465.12 2.60722 -3.26083 0
M  V30 15374 H 1466.51 0.48651 -6.70136 0
M  V30 15375 N 1469.23 1.56605 0.176793 0
M  V30 15376 C 1470.47 1.83477 0.900858 0
M  V30 15377 C 1470.84 0.677051 1.79666 0
M  V30 15378 O 1472.04 0.826091 2.55791 0
M  V30 15379 C 1470.31 3.15444 1.68017 0
M  V30 15380 S 1471.87 3.63781 2.45375 0
M  V30 15381 H 1468.68 0.643758 0.301823 0
M  V30 15382 H 1471.29 1.9482 0.162888 0
M  V30 15383 H 1469.99 3.97701 1.01302 0
M  V30 15384 H 1469.52 3.07028 2.45962 0
M  V30 15385 H 1471.54 3.30672 3.6996 0
M  V30 15386 N 1470.71 -0.445159 1.51182 0
M  V30 15387 C 1471.67 -1.52224 1.71349 0
M  V30 15388 C 1472.67 -1.49834 0.583632 0
M  V30 15389 O 1473.86 -1.51995 0.85107 0
M  V30 15390 C 1470.99 -2.91789 1.76273 0
M  V30 15391 H 1472.19 -1.35649 2.67468 0
M  V30 15392 H 1469.74 -0.673312 1.41054 0
M  V30 15393 H 1470.48 -3.13777 0.819405 0
M  V30 15394 H 1470.26 -2.94928 2.58379 0
M  V30 15395 H 1471.75 -3.69938 1.93741 0
M  V30 15396 N 1472.19 -1.41197 -0.700089 0
M  V30 15397 C 1473.1 -1.45038 -1.84394 0
M  V30 15398 C 1474.11 -0.34141 -1.70618 0
M  V30 15399 O 1475.29 -0.588428 -1.92612 0
M  V30 15400 C 1472.35 -1.32611 -3.20336 0
M  V30 15401 C 1471.42 -2.53784 -3.46254 0
M  V30 15402 C 1470.65 -2.4194 -4.75711 0
M  V30 15403 O 1470.87 -1.44153 -5.51884 0
M  V30 15404 O 1469.81 -3.31613 -5.02311 0
M  V30 15405 H 1473.63 -2.41531 -1.8411 0
M  V30 15406 H 1471.22 -1.22686 -0.852558 0
M  V30 15407 H 1473.1 -1.27947 -4.01507 0
M  V30 15408 H 1471.77 -0.392309 -3.21314 0
M  V30 15409 H 1470.68 -2.64024 -2.65032 0
M  V30 15410 H 1472.01 -3.45977 -3.50087 0
M  V30 15411 N 1473.67 0.933891 -1.2695 0
M  V30 15412 C 1474.58 2.06713 -1.10936 0
M  V30 15413 C 1475.59 1.73952 -0.0409734 0
M  V30 15414 O 1476.77 1.9989 -0.246199 0
M  V30 15415 C 1473.83 3.38453 -0.751696 0
M  V30 15416 C 1472.89 3.84951 -1.90029 0
M  V30 15417 C 1472.13 5.10404 -1.55959 0
M  V30 15418 O 1472.35 5.68504 -0.464646 0
M  V30 15419 O 1471.28 5.52123 -2.39675 0
M  V30 15420 H 1475.11 2.23133 -2.06023 0
M  V30 15421 H 1472.69 1.05202 -1.06079 0
M  V30 15422 H 1474.58 4.17591 -0.565285 0
M  V30 15423 H 1473.25 3.23255 0.169703 0
M  V30 15424 H 1472.16 3.06727 -2.14172 0
M  V30 15425 H 1473.49 4.04681 -2.80167 0
M  V30 15426 N 1475.14 1.08871 1.13951 0
M  V30 15427 C 1476.08 0.680849 2.18854 0
M  V30 15428 C 1477.09 -0.274456 1.6047 0
M  V30 15429 O 1478.28 -0.0613804 1.78394 0
M  V30 15430 C 1475.38 -0.0182788 3.38895 0
M  V30 15431 C 1474.55 0.957125 4.268 0
M  V30 15432 C 1473.61 0.29245 5.25387 0
M  V30 15433 O 1472.64 0.938329 5.61413 0
M  V30 15434 N 1473.84 -0.955738 5.72578 0
M  V30 15435 H 1476.6 1.58334 2.54461 0
M  V30 15436 H 1474.16 0.975417 1.29218 0
M  V30 15437 H 1476.16 -0.474001 4.01915 0
M  V30 15438 H 1474.73 -0.822932 3.01574 0
M  V30 15439 H 1473.95 1.59156 3.60642 0
M  V30 15440 H 1475.23 1.61792 4.82391 0
M  V30 15441 H 1474.63 -1.50014 5.45447 0
M  V30 15442 H 1473.19 -1.35488 6.37563 0
M  V30 15443 N 1476.62 -1.31073 0.875073 0
M  V30 15444 C 1477.87 -1.9613 0.487584 0
M  V30 15445 C 1478.19 -1.69482 -0.964407 0
M  V30 15446 O 1477.46 -1.013 -1.67676 0
M  V30 15447 H 1476.04 -0.725649 0.177319 0
M  V30 15448 H 1478.7 -1.59787 1.11598 0
M  V30 15449 H 1477.8 -3.05265 0.649574 0
M  V30 15450 N 1478.1 -0.635022 -1.4424 0
M  V30 15451 C 1479.35 -0.138497 -2.01224 0
M  V30 15452 C 1479.66 1.2485 -1.50571 0
M  V30 15453 O 1480.87 1.83926 -1.99709 0
M  V30 15454 C 1479.32 -0.196836 -3.59361 0
M  V30 15455 C 1478.93 -1.58539 -4.1901 0
M  V30 15456 C 1480.68 0.243025 -4.23804 0
M  V30 15457 C 1478.58 -1.59864 -5.69384 0
M  V30 15458 H 1477.51 -0.0480117 -0.75247 0
M  V30 15459 H 1480.16 -0.794391 -1.65414 0
M  V30 15460 H 1478.55 0.526231 -3.92488 0
M  V30 15461 H 1479.72 -2.33236 -3.97414 0
M  V30 15462 H 1478.04 -1.96967 -3.66869 0
M  V30 15463 H 1480.63 0.252717 -5.34102 0
M  V30 15464 H 1480.98 1.27107 -3.96421 0
M  V30 15465 H 1481.51 -0.427678 -3.95494 0
M  V30 15466 H 1478.25 -2.60518 -6.01507 0
M  V30 15467 H 1477.77 -0.894664 -5.9309 0
M  V30 15468 H 1479.45 -1.3343 -6.33092 0
M  V30 15469 N 1479.58 1.53054 -0.375806 0
M  V30 15470 C 1480.81 2.0582 0.211135 0
M  V30 15471 C 1481.22 1.24856 1.4162 0
M  V30 15472 O 1480.58 0.291786 1.80152 0
M  V30 15473 C 1480.63 3.56577 0.594573 0
M  V30 15474 O 1480.35 4.34472 -0.562607 0
M  V30 15475 C 1481.85 4.25639 1.23882 0
M  V30 15476 H 1479.07 0.670085 0.0350268 0
M  V30 15477 H 1481.62 1.9732 -0.537135 0
M  V30 15478 H 1479.77 3.65194 1.29275 0
M  V30 15479 H 1480.18 5.23902 -0.250487 0
M  V30 15480 H 1481.66 5.32408 1.45759 0
M  V30 15481 H 1482.14 3.80001 2.20218 0
M  V30 15482 H 1482.74 4.21302 0.581786 0
M  V30 15483 N 1481.06 0.105248 1.57248 0
M  V30 15484 C 1482.33 -0.598871 1.86207 0
M  V30 15485 C 1482.71 -1.85698 1.00396 0
M  V30 15486 O 1482.06 -2.28363 0.0791093 0
M  V30 15487 C 1482.27 -0.904522 3.37075 0
M  V30 15488 C 1483.62 -1.26357 4.05363 0
M  V30 15489 O 1484.64 -0.99522 3.42014 0
M  V30 15490 O 1483.5 -1.76659 5.17159 0
M  V30 15491 H 1480.6 -0.300727 0.770384 0
M  V30 15492 H 1483.14 0.138713 1.69132 0
M  V30 15493 H 1481.91 -0.0123974 3.91298 0
M  V30 15494 H 1481.54 -1.69774 3.59531 0
M  V30 15495 N 1482.53 -1.56697 -0.168486 0
M  V30 15496 C 1483.76 -1.86022 -0.898847 0
M  V30 15497 C 1484.17 -0.688909 -1.76212 0
M  V30 15498 O 1483.52 0.35111 -1.80313 0
M  V30 15499 C 1483.58 -3.09795 -1.82394 0
M  V30 15500 C 1483.24 -4.42553 -1.13999 0
M  V30 15501 C 1484.24 -5.1745 -0.504092 0
M  V30 15502 C 1481.92 -4.89288 -1.1359 0
M  V30 15503 C 1483.92 -6.37274 0.126758 0
M  V30 15504 C 1481.6 -6.09041 -0.501222 0
M  V30 15505 C 1482.6 -6.82878 0.128998 0
M  V30 15506 O 1482.29 -8.00359 0.753658 0
M  V30 15507 H 1482.02 -0.621283 -0.266426 0
M  V30 15508 H 1484.58 -2.04674 -0.172562 0
M  V30 15509 H 1482.81 -2.87096 -2.59061 0
M  V30 15510 H 1484.5 -3.25544 -2.42438 0
M  V30 15511 H 1485.26 -4.82424 -0.499207 0
M  V30 15512 H 1481.14 -4.31754 -1.61584 0
M  V30 15513 H 1484.68 -6.94846 0.619267 0
M  V30 15514 H 1480.58 -6.43532 -0.5037 0
M  V30 15515 H 1481.35 -8.1589 0.653188 0
M  V30 15516 N 1484.01 0.437135 -1.51416 0
M  V30 15517 C 1485.26 1.1835 -1.63328 0
M  V30 15518 C 1485.57 1.92343 -0.355455 0
M  V30 15519 O 1486.78 2.69183 -0.353951 0
M  V30 15520 C 1485.24 2.15235 -2.88447 0
M  V30 15521 C 1484.84 1.46889 -4.23235 0
M  V30 15522 C 1486.59 2.90303 -3.09716 0
M  V30 15523 C 1484.5 2.42259 -5.39504 0
M  V30 15524 H 1483.43 0.445467 -0.608338 0
M  V30 15525 H 1486.08 0.450528 -1.77883 0
M  V30 15526 H 1484.46 2.91968 -2.67527 0
M  V30 15527 H 1485.63 0.757128 -4.54537 0
M  V30 15528 H 1483.95 0.839725 -4.07845 0
M  V30 15529 H 1486.54 3.61747 -3.93756 0
M  V30 15530 H 1486.89 3.5166 -2.22802 0
M  V30 15531 H 1487.42 2.20677 -3.30978 0
M  V30 15532 H 1484.16 1.85591 -6.28678 0
M  V30 15533 H 1483.68 3.11488 -5.12577 0
M  V30 15534 H 1485.36 3.03384 -5.7146 0
M  V30 15535 N 1485.49 1.41566 0.692592 0
M  V30 15536 C 1486.44 1.40114 1.79867 0
M  V30 15537 C 1487.42 0.275064 1.58531 0
M  V30 15538 O 1488.62 0.515959 1.69313 0
M  V30 15539 C 1485.75 1.28865 3.18196 0
M  V30 15540 C 1484.83 2.46347 3.45216 0
M  V30 15541 N 1485.22 3.71808 3.42918 0
M  V30 15542 C 1483.52 2.40224 3.75777 0
M  V30 15543 C 1484.22 4.49743 3.68926 0
M  V30 15544 N 1483.2 3.79898 3.88817 0
M  V30 15545 H 1487 2.35032 1.76457 0
M  V30 15546 H 1484.51 1.35663 0.892705 0
M  V30 15547 H 1486.51 1.25907 3.97433 0
M  V30 15548 H 1485.17 0.349339 3.22815 0
M  V30 15549 H 1486.18 4.04652 3.2323 0
M  V30 15550 H 1482.86 1.54781 3.87749 0
M  V30 15551 H 1484.25 5.58683 3.7326 0
M  V30 15552 N 1486.97 -0.927146 1.27443 0
M  V30 15553 C 1487.9 -2.02847 1.04538 0
M  V30 15554 C 1488.88 -1.62564 -0.0343819 0
M  V30 15555 O 1490.06 -1.88174 0.110875 0
M  V30 15556 C 1487.19 -3.33594 0.58588 0
M  V30 15557 C 1486.24 -3.92857 1.66029 0
M  V30 15558 S 1487.07 -4.25376 3.25292 0
M  V30 15559 C 1488.23 -5.59203 2.81145 0
M  V30 15560 H 1488.46 -2.21965 1.97784 0
M  V30 15561 H 1485.99 -1.07033 1.11281 0
M  V30 15562 H 1487.95 -4.09192 0.32745 0
M  V30 15563 H 1486.61 -3.12398 -0.326534 0
M  V30 15564 H 1485.8 -4.87209 1.2901 0
M  V30 15565 H 1485.41 -3.23846 1.87082 0
M  V30 15566 H 1487.7 -6.38523 2.26482 0
M  V30 15567 H 1488.64 -6.01122 3.74243 0
M  V30 15568 H 1489.05 -5.19751 2.2027 0
M  V30 15569 N 1488.45 -1.09474 -1.13372 0
M  V30 15570 C 1489.38 -0.756441 -2.20908 0
M  V30 15571 C 1490.36 0.266113 -1.68006 0
M  V30 15572 O 1491.54 0.134067 -1.93737 0
M  V30 15573 C 1488.67 -0.176733 -3.4685 0
M  V30 15574 C 1487.63 -1.12886 -4.12845 0
M  V30 15575 C 1486.95 -0.410831 -5.33119 0
M  V30 15576 C 1488.25 -2.47148 -4.60125 0
M  V30 15577 H 1489.95 -1.65555 -2.49463 0
M  V30 15578 H 1487.49 -0.797458 -1.19902 0
M  V30 15579 H 1489.45 0.0720151 -4.21338 0
M  V30 15580 H 1488.17 0.757576 -3.17692 0
M  V30 15581 H 1486.83 -1.36289 -3.40325 0
M  V30 15582 H 1486.48 0.527632 -5.00225 0
M  V30 15583 H 1486.18 -1.04567 -5.78221 0
M  V30 15584 H 1487.7 -0.170394 -6.10362 0
M  V30 15585 H 1489.11 -2.27949 -5.26034 0
M  V30 15586 H 1487.51 -3.06425 -5.15969 0
M  V30 15587 H 1488.58 -3.07874 -3.74622 0
M  V30 15588 N 1489.92 1.30607 -0.882012 0
M  V30 15589 C 1491.17 1.95869 -0.497978 0
M  V30 15590 C 1491.49 1.69991 0.955405 0
M  V30 15591 O 1490.76 1.02188 1.67136 0
M  V30 15592 H 1489.34 0.724699 -0.181165 0
M  V30 15593 H 1492.01 1.59193 -1.12444 0
M  V30 15594 H 1491.1 3.04917 -0.665754 0
M  V30 15595 N 1491.4 0.642663 1.43901 0
M  V30 15596 C 1492.31 -0.0562462 2.34533 0
M  V30 15597 C 1493.33 -0.823457 1.53281 0
M  V30 15598 O 1494.5 -0.773103 1.85971 0
M  V30 15599 C 1491.57 -1.01787 3.31422 0
M  V30 15600 C 1490.63 -0.248759 4.28579 0
M  V30 15601 C 1489.86 -1.16458 5.20839 0
M  V30 15602 O 1490.09 -2.40361 5.17284 0
M  V30 15603 O 1489.02 -0.642671 5.98459 0
M  V30 15604 H 1492.85 0.689476 2.9577 0
M  V30 15605 H 1490.43 0.402847 1.43866 0
M  V30 15606 H 1492.31 -1.5708 3.91029 0
M  V30 15607 H 1490.99 -1.744 2.72702 0
M  V30 15608 H 1489.9 0.347495 3.72483 0
M  V30 15609 H 1491.23 0.437589 4.90251 0
M  V30 15610 N 1492.88 -1.52852 0.383918 0
M  V30 15611 C 1493.84 -2.24904 -0.441687 0
M  V30 15612 C 1494.84 -1.26345 -0.99466 0
M  V30 15613 O 1496.03 -1.50484 -0.877513 0
M  V30 15614 C 1493.17 -2.99994 -1.61915 0
M  V30 15615 H 1494.36 -2.99304 0.189047 0
M  V30 15616 H 1491.91 -1.55708 0.135932 0
M  V30 15617 H 1492.65 -2.29882 -2.28746 0
M  V30 15618 H 1492.43 -3.72328 -1.2294 0
M  V30 15619 H 1493.92 -3.54716 -2.20378 0
M  V30 15620 N 1494.36 -0.113586 -1.5719 0
M  V30 15621 C 1495.61 0.54572 -1.95008 0
M  V30 15622 C 1495.93 1.67031 -0.996541 0
M  V30 15623 O 1495.19 1.9569 -0.0194353 0
M  V30 15624 C 1495.49 1.1238 -3.39272 0
M  V30 15625 C 1495.15 0.12112 -4.50737 0
M  V30 15626 C 1493.82 -0.154607 -4.80952 0
M  V30 15627 C 1496.17 -0.562502 -5.18156 0
M  V30 15628 C 1493.5 -1.12033 -5.75904 0
M  V30 15629 C 1495.85 -1.51682 -6.14146 0
M  V30 15630 C 1494.51 -1.80059 -6.42756 0
M  V30 15631 H 1493.78 0.199693 -0.713585 0
M  V30 15632 H 1496.43 -0.193344 -1.90521 0
M  V30 15633 H 1494.73 1.93951 -3.40426 0
M  V30 15634 H 1496.43 1.64195 -3.65843 0
M  V30 15635 H 1493.02 0.34621 -4.27199 0
M  V30 15636 H 1497.21 -0.362645 -4.94973 0
M  V30 15637 H 1492.46 -1.34699 -5.96377 0
M  V30 15638 H 1496.64 -2.05225 -6.65474 0
M  V30 15639 H 1494.26 -2.55046 -7.16139 0
M  V30 15640 N 1495.84 1.56784 0.160173 0
M  V30 15641 C 1497.09 1.8226 0.873253 0
M  V30 15642 C 1497.41 0.692384 1.82294 0
M  V30 15643 O 1496.68 -0.286961 1.93787 0
M  V30 15644 H 1495.26 0.672371 0.325463 0
M  V30 15645 H 1497.92 1.94264 0.157325 0
M  V30 15646 H 1497.01 2.76714 1.44345 0
M  V30 15647 N 1497.32 -0.429099 1.51646 0
M  V30 15648 C 1498.26 -1.54202 1.74139 0
M  V30 15649 C 1499.26 -1.58117 0.607905 0
M  V30 15650 O 1500.46 -1.61763 0.789486 0
M  V30 15651 H 1496.84 -0.512456 0.550357 0
M  V30 15652 H 1498.81 -1.32408 2.67415 0
M  V30 15653 C 1497.56 -2.91779 1.89104 0
M  V30 15654 H 1496.88 -2.89502 2.75733 0
M  V30 15655 H 1498.32 -3.68995 2.08851 0
M  V30 15656 C 1496.78 -3.30512 0.652945 0
M  V30 15657 O 1497.31 -4.01257 -0.188553 0
M  V30 15658 N 1495.52 -2.86359 0.494634 0
M  V30 15659 H 1495.06 -2.28959 1.18049 0
M  V30 15660 H 1495.02 -3.12637 -0.332503 0
M  V30 15661 N 1498.79 -1.41931 -0.685074 0
M  V30 15662 C 1500.04 -1.41571 -1.44229 0
M  V30 15663 C 1500.36 -0.0294445 -1.94978 0
M  V30 15664 O 1499.63 0.930414 -1.72395 0
M  V30 15665 H 1498.21 -0.521138 -0.535186 0
M  V30 15666 H 1500.87 -1.77263 -0.81017 0
M  V30 15667 H 1499.97 -2.10929 -2.30034 0
M  V30 15668 N 1500.27 0.920374 -1.27933 0
M  V30 15669 C 1501.52 1.66883 -1.147 0
M  V30 15670 C 1501.85 1.92082 0.305732 0
M  V30 15671 O 1501.1 1.51449 1.23942 0
M  V30 15672 C 1501.4 3.03725 -1.88377 0
M  V30 15673 C 1501.07 2.9821 -3.38203 0
M  V30 15674 C 1499.73 2.96413 -3.79068 0
M  V30 15675 C 1502.08 2.88952 -4.3377 0
M  V30 15676 C 1499.41 2.83151 -5.13851 0
M  V30 15677 C 1501.76 2.77231 -5.68618 0
M  V30 15678 C 1500.42 2.73788 -6.08766 0
M  V30 15679 H 1499.69 0.61067 -0.419718 0
M  V30 15680 H 1502.34 1.0728 -1.58629 0
M  V30 15681 H 1500.65 3.67075 -1.36978 0
M  V30 15682 H 1502.34 3.60527 -1.7556 0
M  V30 15683 H 1498.93 3.004 -3.05709 0
M  V30 15684 H 1503.12 2.89433 -4.03165 0
M  V30 15685 H 1498.37 2.78877 -5.44093 0
M  V30 15686 H 1502.55 2.69034 -6.42335 0
M  V30 15687 H 1500.17 2.63268 -7.13158 0
M  V30 15688 N 1501.75 1.10074 1.1279 0
M  V30 15689 C 1503 0.842118 1.84489 0
M  V30 15690 C 1503.33 -0.630737 1.83672 0
M  V30 15691 O 1502.6 -1.46481 1.27959 0
M  V30 15692 C 1502.89 1.3864 3.32342 0
M  V30 15693 C 1502.74 2.92585 3.41635 0
M  V30 15694 C 1504.06 1.02565 4.27982 0
M  V30 15695 H 1501.18 0.307376 0.669842 0
M  V30 15696 H 1503.82 1.36326 1.32345 0
M  V30 15697 H 1501.97 0.943134 3.76878 0
M  V30 15698 H 1503.64 3.4541 3.0576 0
M  V30 15699 H 1501.88 3.29378 2.82299 0
M  V30 15700 H 1502.56 3.25749 4.45636 0
M  V30 15701 H 1505.03 1.40807 3.91552 0
M  V30 15702 H 1503.91 1.43345 5.29852 0
M  V30 15703 H 1504.17 -0.0653712 4.42052 0
M  V30 15704 N 1503.23 -1.30138 0.888926 0
M  V30 15705 C 1504.5 -1.90831 0.42928 0
M  V30 15706 C 1504.88 -1.80765 -1.09028 0
M  V30 15707 O 1504.23 -1.22741 -1.92735 0
M  V30 15708 C 1504.44 -3.36331 0.931798 0
M  V30 15709 C 1505.79 -4.13393 0.969106 0
M  V30 15710 O 1506.81 -3.45191 0.878731 0
M  V30 15711 O 1505.67 -5.35249 1.10323 0
M  V30 15712 H 1502.77 -0.816401 0.131976 0
M  V30 15713 H 1505.31 -1.38678 0.978086 0
M  V30 15714 H 1504.09 -3.37761 1.97568 0
M  V30 15715 H 1503.71 -3.95945 0.362383 0
M  V30 15716 N 1504.71 -0.650285 -1.43559 0
M  V30 15717 C 1505.93 -0.168483 -2.06715 0
M  V30 15718 C 1506.36 1.15576 -1.48404 0
M  V30 15719 O 1505.71 1.71333 -0.592842 0
M  V30 15720 C 1505.76 -0.0877095 -3.60493 0
M  V30 15721 O 1504.87 0.950915 -4.01287 0
M  V30 15722 H 1504.21 -0.0935281 -0.65738 0
M  V30 15723 H 1506.74 -0.892381 -1.84113 0
M  V30 15724 H 1506.75 0.0965825 -4.07886 0
M  V30 15725 H 1505.42 -1.05442 -4.02312 0
M  V30 15726 H 1504 0.739648 -3.65491 0
M  V30 15727 N 1506.18 1.52647 -0.392018 0
M  V30 15728 C 1507.43 2.01912 0.18958 0
M  V30 15729 C 1507.76 1.27786 1.46234 0
M  V30 15730 O 1507.04 0.379124 1.90769 0
M  V30 15731 C 1507.32 3.57217 0.454734 0
M  V30 15732 C 1507.17 4.4201 -0.833501 0
M  V30 15733 C 1508.49 4.22146 1.24421 0
M  V30 15734 H 1505.61 0.733909 0.0674281 0
M  V30 15735 H 1508.25 1.82685 -0.52212 0
M  V30 15736 H 1506.4 3.73731 1.06101 0
M  V30 15737 H 1508.08 4.37242 -1.47027 0
M  V30 15738 H 1506.32 4.08912 -1.44823 0
M  V30 15739 H 1506.99 5.48701 -0.602585 0
M  V30 15740 H 1509.47 4.09627 0.731093 0
M  V30 15741 H 1508.34 5.30786 1.39848 0
M  V30 15742 H 1508.6 3.7996 2.26016 0
M  V30 15743 N 1507.66 0.121921 1.57128 0
M  V30 15744 C 1508.61 -0.827205 2.15467 0
M  V30 15745 C 1509.58 -1.26155 1.08047 0
M  V30 15746 O 1510.76 -1.33855 1.35969 0
M  V30 15747 C 1507.9 -2.07077 2.76067 0
M  V30 15748 C 1507.02 -1.68452 3.97804 0
M  V30 15749 C 1506.15 -2.87797 4.46482 0
M  V30 15750 C 1505.19 -2.45426 5.60743 0
M  V30 15751 N 1504.33 -3.57695 6.04151 0
M  V30 15752 H 1509.17 -0.322879 2.96246 0
M  V30 15753 H 1506.71 -0.147677 1.46357 0
M  V30 15754 H 1508.66 -2.79943 3.09335 0
M  V30 15755 H 1507.29 -2.54963 1.97974 0
M  V30 15756 H 1506.35 -0.854487 3.70679 0
M  V30 15757 H 1507.66 -1.33316 4.80654 0
M  V30 15758 H 1506.81 -3.68885 4.81673 0
M  V30 15759 H 1505.55 -3.26162 3.62587 0
M  V30 15760 H 1504.56 -1.62772 5.25153 0
M  V30 15761 H 1505.78 -2.08175 6.46405 0
M  V30 15762 H 1503.73 -3.95728 5.23197 0
M  V30 15763 H 1503.64 -3.26491 6.81865 0
M  V30 15764 H 1504.91 -4.39213 6.43981 0
M  V30 15765 N 1509.14 -1.56867 -0.151857 0
M  V30 15766 C 1510.05 -2.01157 -1.20718 0
M  V30 15767 C 1511.07 -0.926166 -1.47303 0
M  V30 15768 O 1512.24 -1.23528 -1.59069 0
M  V30 15769 C 1509.31 -2.37915 -2.52185 0
M  V30 15770 C 1508.37 -3.60381 -2.3329 0
M  V30 15771 C 1507.6 -3.95376 -3.58488 0
M  V30 15772 O 1507.82 -3.31093 -4.64471 0
M  V30 15773 O 1506.76 -4.88645 -3.5144 0
M  V30 15774 H 1510.58 -2.91234 -0.861175 0
M  V30 15775 H 1508.17 -1.44993 -0.360213 0
M  V30 15776 H 1510.05 -2.6244 -3.29702 0
M  V30 15777 H 1508.73 -1.50995 -2.86325 0
M  V30 15778 H 1507.63 -3.4105 -1.5374 0
M  V30 15779 H 1508.97 -4.47903 -2.04067 0
M  V30 15780 N 1510.62 0.421051 -1.51871 0
M  V30 15781 C 1511.55 1.53094 -1.70572 0
M  V30 15782 C 1512.56 1.5188 -0.586201 0
M  V30 15783 O 1513.75 1.56361 -0.861013 0
M  V30 15784 C 1510.85 2.92002 -1.72011 0
M  V30 15785 C 1510.03 3.17541 -3.0081 0
M  V30 15786 C 1509.08 4.36259 -2.94219 0
M  V30 15787 O 1508.11 4.34118 -3.68144 0
M  V30 15788 N 1509.31 5.40722 -2.11188 0
M  V30 15789 H 1512.08 1.3745 -2.66322 0
M  V30 15790 H 1509.64 0.610204 -1.4996 0
M  V30 15791 H 1511.63 3.6947 -1.65149 0
M  V30 15792 H 1510.2 3.01162 -0.837861 0
M  V30 15793 H 1509.42 2.28225 -3.21414 0
M  V30 15794 H 1510.71 3.3144 -3.86037 0
M  V30 15795 H 1510.11 5.45304 -1.50534 0
M  V30 15796 H 1508.66 6.16979 -2.10192 0
M  V30 15797 N 1512.1 1.42293 0.677538 0
M  V30 15798 C 1513.35 1.41909 1.43334 0
M  V30 15799 C 1513.66 0.037951 1.95563 0
M  V30 15800 O 1514.86 -0.0884836 2.71356 0
M  V30 15801 C 1513.32 2.49608 2.59275 0
M  V30 15802 C 1512.93 3.93716 2.13757 0
M  V30 15803 C 1514.67 2.58387 3.36803 0
M  V30 15804 C 1512.58 4.92929 3.26764 0
M  V30 15805 H 1511.51 0.527803 0.538461 0
M  V30 15806 H 1514.16 1.6819 0.733791 0
M  V30 15807 H 1512.54 2.16488 3.31585 0
M  V30 15808 H 1513.72 4.36176 1.48618 0
M  V30 15809 H 1512.03 3.88762 1.49175 0
M  V30 15810 H 1514.63 3.29691 4.20961 0
M  V30 15811 H 1514.97 1.62653 3.8321 0
M  V30 15812 H 1515.5 2.90688 2.71561 0
M  V30 15813 H 1512.24 5.90131 2.85352 0
M  V30 15814 H 1511.76 4.55103 3.90694 0
M  V30 15815 H 1513.44 5.1452 3.92273 0
M  V30 15816 N 1513.57 -0.913576 1.28419 0
M  V30 15817 C 1514.52 -2.03739 1.1222 0
M  V30 15818 C 1515.52 -1.69349 0.0414309 0
M  V30 15819 O 1516.72 -1.78883 0.200213 0
M  V30 15820 H 1513.1 -0.667554 0.34623 0
M  V30 15821 H 1515.07 -2.14544 2.07397 0
M  V30 15822 C 1513.82 -3.38348 0.801003 0
M  V30 15823 H 1513.14 -3.65304 1.6246 0
M  V30 15824 H 1514.58 -4.1771 0.727611 0
M  V30 15825 C 1513.04 -3.3324 -0.495261 0
M  V30 15826 O 1513.57 -3.71606 -1.52551 0
M  V30 15827 N 1511.78 -2.86335 -0.496054 0
M  V30 15828 H 1511.32 -2.55309 0.342773 0
M  V30 15829 H 1511.28 -2.833 -1.3634 0
M  V30 15830 N 1515.05 -1.1067 -1.12204 0
M  V30 15831 C 1516.02 -0.761145 -2.16193 0
M  V30 15832 C 1517.02 0.215599 -1.59348 0
M  V30 15833 O 1518.21 -0.00786723 -1.74198 0
M  V30 15834 C 1515.34 -0.127863 -3.4066 0
M  V30 15835 H 1516.53 -1.68225 -2.48275 0
M  V30 15836 H 1514.08 -0.907542 -1.27253 0
M  V30 15837 H 1514.82 0.803851 -3.14179 0
M  V30 15838 H 1514.6 -0.83085 -3.83196 0
M  V30 15839 H 1516.09 0.0980593 -4.17485 0
M  V30 15840 N 1516.53 1.29665 -0.895815 0
M  V30 15841 C 1517.78 1.94995 -0.515749 0
M  V30 15842 C 1518.09 1.71427 0.94192 0
M  V30 15843 O 1519.3 2.3083 1.42933 0
M  V30 15844 C 1517.75 3.4919 -0.871468 0
M  V30 15845 C 1517.36 3.81562 -2.34764 0
M  V30 15846 C 1519.11 4.20775 -0.561123 0
M  V30 15847 C 1517.01 5.28984 -2.64442 0
M  V30 15848 H 1515.94 0.729889 -0.189151 0
M  V30 15849 H 1518.59 1.4745 -1.09228 0
M  V30 15850 H 1516.98 3.95366 -0.223908 0
M  V30 15851 H 1518.15 3.46258 -3.04043 0
M  V30 15852 H 1516.47 3.23107 -2.62661 0
M  V30 15853 H 1519.06 5.29275 -0.759755 0
M  V30 15854 H 1519.41 4.13285 0.500129 0
M  V30 15855 H 1519.94 3.80317 -1.16635 0
M  V30 15856 H 1516.68 5.41535 -3.69351 0
M  V30 15857 H 1516.2 5.6555 -1.99784 0
M  V30 15858 H 1517.88 5.96536 -2.50506 0
M  V30 15859 N 1518.01 0.657889 1.43212 0
M  V30 15860 C 1518.96 -0.0427288 2.32561 0
M  V30 15861 C 1519.95 -0.808236 1.48875 0
M  V30 15862 O 1521.16 -0.718109 1.65055 0
M  V30 15863 H 1517.53 -0.0326049 0.751293 0
M  V30 15864 H 1519.5 0.728503 2.89371 0
M  V30 15865 C 1518.25 -0.99216 3.33244 0
M  V30 15866 H 1517.57 -0.412542 3.97666 0
M  V30 15867 H 1519.01 -1.45138 3.98385 0
M  V30 15868 C 1517.47 -2.09044 2.64201 0
M  V30 15869 O 1518 -3.17481 2.46107 0
M  V30 15870 N 1516.21 -1.85732 2.23499 0
M  V30 15871 H 1515.76 -0.975483 2.38416 0
M  V30 15872 H 1515.71 -2.5941 1.77634 0
M  V30 15873 N 1519.49 -1.52437 0.400108 0
M  V30 15874 C 1520.9 -1.86563 -0.0715162 0
M  V30 15875 C 1521.25 -1.3193 -1.4522 0
M  V30 15876 O 1520.37 -0.654955 -2.06251 0
M  V30 15877 C 1520.97 -3.38525 -0.13655 0
M  V30 15878 C 1519.53 -3.72323 -0.55249 0
M  V30 15879 C 1518.67 -2.75896 0.278729 0
M  V30 15880 H 1521.63 -1.46192 0.617547 0
M  V30 15881 H 1521.65 -3.68357 -0.953588 0
M  V30 15882 H 1521.16 -3.78258 0.868468 0
M  V30 15883 H 1519.26 -3.38164 -1.56448 0
M  V30 15884 H 1519.37 -4.7814 -0.303139 0
M  V30 15885 H 1517.74 -2.53394 -0.257608 0
M  V30 15886 H 1518.52 -3.18467 1.28193 0
M  V30 15887 N 1520.96 -0.130252 -1.57061 0
M  V30 15888 C 1522.21 0.52488 -1.94751 0
M  V30 15889 C 1522.53 1.67107 -1.0166 0
M  V30 15890 O 1523.73 2.38971 -1.28861 0
M  V30 15891 C 1522.19 0.985118 -3.46155 0
M  V30 15892 C 1521.8 -0.133222 -4.47802 0
M  V30 15893 C 1523.54 1.61099 -3.92743 0
M  V30 15894 C 1521.45 0.344346 -5.90397 0
M  V30 15895 H 1520.38 0.19985 -0.727032 0
M  V30 15896 H 1523.03 -0.211912 -1.82272 0
M  V30 15897 H 1521.41 1.77667 -3.53907 0
M  V30 15898 H 1522.58 -0.909784 -4.5173 0
M  V30 15899 H 1520.9 -0.666449 -4.11032 0
M  V30 15900 H 1523.5 1.97963 -4.96704 0
M  V30 15901 H 1523.84 2.49366 -3.3335 0
M  V30 15902 H 1524.37 0.884641 -3.87839 0
M  V30 15903 H 1521.11 -0.502547 -6.53571 0
M  V30 15904 H 1520.63 1.08714 -5.89865 0
M  V30 15905 H 1522.31 0.801885 -6.42012 0
M  V30 15906 N 1522.44 1.56945 0.143535 0
M  V30 15907 C 1523.39 1.99479 1.19628 0
M  V30 15908 C 1524.39 0.887733 1.44276 0
M  V30 15909 O 1525.59 1.07292 1.44528 0
M  V30 15910 H 1521.97 0.635049 0.402761 0
M  V30 15911 H 1523.94 2.87171 0.810877 0
M  V30 15912 C 1522.69 2.39436 2.52123 0
M  V30 15913 H 1522.01 3.24176 2.33987 0
M  V30 15914 H 1523.45 2.73017 3.24404 0
M  V30 15915 C 1521.91 1.24836 3.12918 0
M  V30 15916 O 1522.44 0.550973 3.97903 0
M  V30 15917 N 1520.64 1.01172 2.7242 0
M  V30 15918 H 1520.19 1.5806 2.03408 0
M  V30 15919 H 1520.15 0.246846 3.13429 0
M  V30 15920 N 1523.92 -0.412991 1.52093 0
M  V30 15921 C 1524.87 -1.52347 1.75765 0
M  V30 15922 C 1525.86 -1.57463 0.624641 0
M  V30 15923 O 1527.07 -1.60916 0.806599 0
M  V30 15924 H 1523.44 -0.50659 0.555761 0
M  V30 15925 H 1525.42 -1.29564 2.68804 0
M  V30 15926 C 1524.16 -2.89757 1.92188 0
M  V30 15927 H 1523.49 -2.86561 2.78788 0
M  V30 15928 H 1524.93 -3.66759 2.12753 0
M  V30 15929 C 1523.39 -3.29801 0.687963 0
M  V30 15930 O 1523.92 -4.01435 -0.145984 0
M  V30 15931 N 1522.12 -2.85819 0.524978 0
M  V30 15932 H 1521.67 -2.27694 1.20471 0
M  V30 15933 H 1521.63 -3.12972 -0.299325 0
M  V30 15934 N 1525.4 -1.4265 -0.669982 0
M  V30 15935 C 1526.65 -1.42667 -1.42579 0
M  V30 15936 C 1526.96 -0.0483217 -1.9554 0
M  V30 15937 O 1528.17 0.0740917 -2.71399 0
M  V30 15938 C 1526.62 -2.5098 -2.57948 0
M  V30 15939 C 1526.23 -3.94844 -2.11666 0
M  V30 15940 C 1527.98 -2.6017 -3.35428 0
M  V30 15941 C 1525.88 -4.94655 -3.24146 0
M  V30 15942 H 1524.81 -0.530651 -0.535654 0
M  V30 15943 H 1527.46 -1.68576 -0.724861 0
M  V30 15944 H 1525.85 -2.18244 -3.30432 0
M  V30 15945 H 1527.02 -4.36958 -1.46303 0
M  V30 15946 H 1525.33 -3.89547 -1.47111 0
M  V30 15947 H 1527.93 -3.31918 -4.19207 0
M  V30 15948 H 1528.27 -1.64683 -3.82342 0
M  V30 15949 H 1528.81 -2.92124 -2.70016 0
M  V30 15950 H 1525.55 -5.91636 -2.82218 0
M  V30 15951 H 1525.07 -4.57168 -3.88275 0
M  V30 15952 H 1526.75 -5.16593 -3.89538 0
M  V30 15953 N 1526.88 0.906753 -1.28902 0
M  V30 15954 C 1528.1 1.69547 -1.19452 0
M  V30 15955 C 1528.53 1.86531 0.242418 0
M  V30 15956 O 1527.89 1.38052 1.17521 0
M  V30 15957 C 1527.93 3.06139 -1.90556 0
M  V30 15958 O 1527.04 3.9401 -1.21779 0
M  V30 15959 H 1526.38 0.518902 -0.41429 0
M  V30 15960 H 1528.91 1.13327 -1.70347 0
M  V30 15961 H 1528.92 3.56326 -1.98736 0
M  V30 15962 H 1527.59 2.93094 -2.95074 0
M  V30 15963 H 1526.17 3.52444 -1.2181 0
M  V30 15964 N 1528.36 1.11264 1.11616 0
M  V30 15965 C 1529.3 0.769295 2.17602 0
M  V30 15966 C 1530.27 -0.258362 1.64078 0
M  V30 15967 O 1531.46 -0.135698 1.90317 0
M  V30 15968 C 1528.6 0.216647 3.44419 0
M  V30 15969 C 1527.71 1.30064 4.11955 0
M  V30 15970 C 1526.85 0.708729 5.26451 0
M  V30 15971 C 1525.88 1.7727 5.85868 0
M  V30 15972 N 1525.02 1.20042 6.91762 0
M  V30 15973 H 1529.86 1.67727 2.46316 0
M  V30 15974 H 1527.4 0.83764 1.20921 0
M  V30 15975 H 1529.36 -0.121724 4.17022 0
M  V30 15976 H 1527.99 -0.654525 3.16095 0
M  V30 15977 H 1527.04 1.756 3.37445 0
M  V30 15978 H 1528.35 2.1057 4.52174 0
M  V30 15979 H 1527.5 0.320307 6.05854 0
M  V30 15980 H 1526.24 -0.127668 4.87533 0
M  V30 15981 H 1525.25 2.17046 5.05145 0
M  V30 15982 H 1526.47 2.6121 6.26854 0
M  V30 15983 H 1524.42 0.385633 6.54866 0
M  V30 15984 H 1524.34 1.94221 7.30626 0
M  V30 15985 H 1525.6 0.838825 7.74974 0
M  V30 15986 N 1529.83 -1.29188 0.902679 0
M  V30 15987 C 1530.78 -2.27632 0.381088 0
M  V30 15988 C 1531.75 -1.57131 -0.538431 0
M  V30 15989 O 1532.94 -1.85096 -0.463027 0
M  V30 15990 C 1530.08 -3.42971 -0.382701 0
M  V30 15991 C 1529.19 -4.28249 0.568054 0
M  V30 15992 C 1528.32 -5.30772 -0.213082 0
M  V30 15993 C 1527.36 -6.07707 0.732004 0
M  V30 15994 N 1526.5 -7.02098 -0.0149139 0
M  V30 15995 H 1531.34 -2.71628 1.22566 0
M  V30 15996 H 1528.88 -1.33594 0.615724 0
M  V30 15997 H 1530.83 -4.08623 -0.841619 0
M  V30 15998 H 1529.46 -2.99997 -1.19171 0
M  V30 15999 H 1528.52 -3.62743 1.14549 0
M  V30 16000 H 1529.83 -4.81794 1.29136 0
M  V30 16001 H 1528.98 -6.02255 -0.733065 0
M  V30 16002 H 1527.72 -4.77966 -0.969504 0
M  V30 16003 H 1526.73 -5.35086 1.26346 0
M  V30 16004 H 1527.95 -6.62602 1.4878 0
M  V30 16005 H 1525.9 -6.51658 -0.753548 0
M  V30 16006 H 1525.81 -7.53214 0.648423 0
M  V30 16007 H 1527.08 -7.77796 -0.515062 0
M  V30 16008 N 1531.31 -0.665475 -1.42861 0
M  V30 16009 C 1532.56 -0.184156 -2.01962 0
M  V30 16010 C 1532.89 1.20301 -1.52451 0
M  V30 16011 O 1532.17 1.80573 -0.722756 0
M  V30 16012 C 1532.45 -0.208497 -3.59496 0
M  V30 16013 C 1532.3 -1.63045 -4.19209 0
M  V30 16014 C 1533.62 0.448421 -4.3781 0
M  V30 16015 H 1530.74 -0.0683924 -0.73382 0
M  V30 16016 H 1533.38 -0.84849 -1.70002 0
M  V30 16017 H 1531.53 0.357179 -3.86855 0
M  V30 16018 H 1533.2 -2.24766 -4.02837 0
M  V30 16019 H 1531.45 -2.17401 -3.75392 0
M  V30 16020 H 1532.12 -1.59924 -5.28326 0
M  V30 16021 H 1534.59 -0.0330053 -4.16087 0
M  V30 16022 H 1533.47 0.400713 -5.47435 0
M  V30 16023 H 1533.73 1.52454 -4.14982 0
M  V30 16024 N 1532.79 1.52222 -0.408187 0
M  V30 16025 C 1534.04 2.00989 0.169252 0
M  V30 16026 C 1534.35 1.29824 1.46305 0
M  V30 16027 O 1535.56 1.69402 2.12168 0
M  V30 16028 C 1534.01 3.58173 0.352179 0
M  V30 16029 C 1533.62 4.38252 -0.929468 0
M  V30 16030 C 1535.37 4.15173 0.88496 0
M  V30 16031 C 1533.27 5.87077 -0.713781 0
M  V30 16032 H 1532.2 0.751015 0.0670261 0
M  V30 16033 H 1534.85 1.75574 -0.533487 0
M  V30 16034 H 1533.24 3.79913 1.11723 0
M  V30 16035 H 1534.41 4.28272 -1.70059 0
M  V30 16036 H 1532.72 3.92565 -1.38859 0
M  V30 16037 H 1535.32 5.2404 1.06235 0
M  V30 16038 H 1535.66 3.72468 1.85938 0
M  V30 16039 H 1536.2 3.97397 0.178995 0
M  V30 16040 H 1532.94 6.3414 -1.65974 0
M  V30 16041 H 1532.46 5.99797 0.0180631 0
M  V30 16042 H 1534.14 6.46022 -0.355596 0
M  V30 16043 N 1534.27 0.138579 1.5699 0
M  V30 16044 C 1535.21 -0.804305 2.16332 0
M  V30 16045 C 1536.18 -1.25002 1.09379 0
M  V30 16046 O 1537.37 -1.32405 1.37381 0
M  V30 16047 C 1534.51 -2.04137 2.78248 0
M  V30 16048 C 1533.62 -1.64223 3.99568 0
M  V30 16049 C 1532.76 -2.83046 4.49509 0
M  V30 16050 C 1531.8 -2.39465 5.63314 0
M  V30 16051 N 1530.93 -3.51267 6.07911 0
M  V30 16052 H 1535.77 -0.29144 2.96571 0
M  V30 16053 H 1533.31 -0.132146 1.46505 0
M  V30 16054 H 1535.27 -2.76646 3.12286 0
M  V30 16055 H 1533.9 -2.52849 2.00667 0
M  V30 16056 H 1532.95 -0.815123 3.71564 0
M  V30 16057 H 1534.26 -1.2821 4.82041 0
M  V30 16058 H 1533.42 -3.63755 4.85559 0
M  V30 16059 H 1532.16 -3.22298 3.66026 0
M  V30 16060 H 1531.16 -1.57193 5.2685 0
M  V30 16061 H 1532.39 -2.01307 6.48577 0
M  V30 16062 H 1530.33 -3.90156 5.27365 0
M  V30 16063 H 1530.25 -3.19241 6.85289 0
M  V30 16064 H 1531.52 -4.32358 6.48604 0
M  V30 16065 N 1535.75 -1.57019 -0.13521 0
M  V30 16066 C 1536.99 -1.85146 -0.842178 0
M  V30 16067 C 1537.35 -0.724176 -1.78251 0
M  V30 16068 O 1536.64 0.277042 -1.89586 0
M  V30 16069 C 1536.83 -3.17358 -1.64373 0
M  V30 16070 C 1536.66 -4.42839 -0.782516 0
M  V30 16071 C 1535.43 -5.03349 -0.443581 0
M  V30 16072 C 1537.63 -5.14188 -0.107475 0
M  V30 16073 N 1535.61 -6.12392 0.429998 0
M  V30 16074 C 1536.98 -6.16834 0.62576 0
M  V30 16075 C 1539.04 -4.97891 -0.0293703 0
M  V30 16076 C 1537.74 -7.04947 1.42974 0
M  V30 16077 C 1539.77 -5.86478 0.761385 0
M  V30 16078 C 1539.13 -6.88615 1.48286 0
M  V30 16079 H 1535.23 -0.727972 -0.285624 0
M  V30 16080 H 1537.81 -1.94407 -0.106834 0
M  V30 16081 H 1535.98 -3.09223 -2.35023 0
M  V30 16082 H 1537.72 -3.33349 -2.29478 0
M  V30 16083 H 1534.47 -4.67098 -0.782098 0
M  V30 16084 H 1534.89 -6.71539 0.85816 0
M  V30 16085 H 1539.54 -4.18902 -0.572813 0
M  V30 16086 H 1537.25 -7.83356 1.9844 0
M  V30 16087 H 1540.84 -5.75936 0.823965 0
M  V30 16088 H 1539.72 -7.55977 2.08491 0
M  V30 16089 N 1537.22 0.404919 -1.52309 0
M  V30 16090 C 1538.15 1.50039 -1.78915 0
M  V30 16091 C 1539.14 1.57587 -0.640329 0
M  V30 16092 O 1540.32 1.72793 -0.886344 0
M  V30 16093 C 1537.45 2.87819 -1.94364 0
M  V30 16094 C 1536.4 2.9512 -3.09981 0
M  V30 16095 C 1535.73 4.35195 -3.10659 0
M  V30 16096 C 1537.03 2.66219 -4.4936 0
M  V30 16097 H 1538.72 1.28025 -2.70647 0
M  V30 16098 H 1536.27 0.61445 -1.30233 0
M  V30 16099 H 1538.22 3.64446 -2.11559 0
M  V30 16100 H 1536.95 3.11136 -0.993067 0
M  V30 16101 H 1535.61 2.20939 -2.92543 0
M  V30 16102 H 1535.25 4.55528 -2.13316 0
M  V30 16103 H 1534.95 4.41003 -3.88317 0
M  V30 16104 H 1536.48 5.1375 -3.29989 0
M  V30 16105 H 1537.89 3.32567 -4.66982 0
M  V30 16106 H 1536.29 2.83398 -5.28967 0
M  V30 16107 H 1537.36 1.61636 -4.57167 0
M  V30 16108 N 1538.7 1.43003 0.662408 0
M  V30 16109 C 1539.63 1.50248 1.78739 0
M  V30 16110 C 1540.61 0.357934 1.66291 0
M  V30 16111 O 1541.8 0.573919 1.85526 0
M  V30 16112 C 1538.93 1.41618 3.17114 0
M  V30 16113 C 1537.88 2.54228 3.44314 0
M  V30 16114 C 1537.21 2.30653 4.82393 0
M  V30 16115 C 1538.51 3.96505 3.39972 0
M  V30 16116 H 1540.2 2.44406 1.72934 0
M  V30 16117 H 1537.75 1.17633 0.830569 0
M  V30 16118 H 1539.7 1.45293 3.9556 0
M  V30 16119 H 1538.43 0.439605 3.23628 0
M  V30 16120 H 1537.08 2.49891 2.68235 0
M  V30 16121 H 1536.73 1.3126 4.85572 0
M  V30 16122 H 1536.43 3.06134 5.01554 0
M  V30 16123 H 1537.96 2.36096 5.63108 0
M  V30 16124 H 1539.37 4.02378 4.08368 0
M  V30 16125 H 1537.77 4.71937 3.70668 0
M  V30 16126 H 1538.84 4.22295 2.38318 0
M  V30 16127 N 1540.18 -0.899904 1.29381 0
M  V30 16128 C 1541.6 -1.18067 1.07388 0
M  V30 16129 C 1541.8 -2.00739 -0.174951 0
M  V30 16130 O 1540.85 -2.36937 -0.872771 0
M  V30 16131 C 1542.17 -1.90182 2.32919 0
M  V30 16132 C 1543.71 -2.03009 2.38236 0
M  V30 16133 C 1544.19 -2.78533 3.6357 0
M  V30 16134 N 1545.68 -2.86088 3.64291 0
M  V30 16135 C 1546.41 -3.45062 4.57952 0
M  V30 16136 N 1545.91 -4.05204 5.61945 0
M  V30 16137 N 1547.7 -3.42734 4.45522 0
M  V30 16138 H 1539.85 -0.348306 2.09525 0
M  V30 16139 H 1542.12 -0.216796 0.922878 0
M  V30 16140 H 1541.82 -1.36871 3.23974 0
M  V30 16141 H 1541.7 -2.90658 2.40412 0
M  V30 16142 H 1544.08 -2.55495 1.47669 0
M  V30 16143 H 1544.17 -1.01666 2.34729 0
M  V30 16144 H 1543.81 -2.26723 4.54488 0
M  V30 16145 H 1543.74 -3.8022 3.64335 0
M  V30 16146 H 1546.23 -2.43372 2.891 0
M  V30 16147 H 1546.54 -4.48225 6.29535 0
M  V30 16148 H 1544.89 -4.03667 5.65755 0
M  V30 16149 H 1548.08 -2.94967 3.63472 0
M  V30 16150 H 1548.25 -3.884 5.187 0
M  V30 16151 N 1541.66 -1.11854 -1.11024 0
M  V30 16152 C 1542.91 -0.864814 -1.82219 0
M  V30 16153 C 1543.22 0.611349 -1.85801 0
M  V30 16154 O 1544.43 0.981475 -2.53139 0
M  V30 16155 C 1542.88 -1.49745 -3.27268 0
M  V30 16156 C 1542.49 -3.00796 -3.32003 0
M  V30 16157 C 1544.23 -1.32374 -4.03333 0
M  V30 16158 C 1542.14 -3.57023 -4.71475 0
M  V30 16159 H 1541.07 -0.319877 -0.682784 0
M  V30 16160 H 1543.72 -1.34431 -1.24903 0
M  V30 16161 H 1542.1 -0.94562 -3.84544 0
M  V30 16162 H 1543.28 -3.6242 -2.84585 0
M  V30 16163 H 1541.59 -3.17493 -2.6942 0
M  V30 16164 H 1544.19 -1.7181 -5.06345 0
M  V30 16165 H 1544.53 -0.26676 -4.15444 0
M  V30 16166 H 1545.07 -1.84444 -3.52456 0
M  V30 16167 H 1541.81 -4.62453 -4.64562 0
M  V30 16168 H 1541.33 -3.00172 -5.19285 0
M  V30 16169 H 1543 -3.5572 -5.40437 0
M  V30 16170 N 1543.14 1.28707 -0.909517 0
M  V30 16171 C 1544.39 1.94437 -0.536401 0
M  V30 16172 C 1544.7 1.72416 0.923685 0
M  V30 16173 O 1545.9 2.32333 1.40477 0
M  V30 16174 C 1544.36 3.48246 -0.908455 0
M  V30 16175 C 1543.97 3.79051 -2.38798 0
M  V30 16176 C 1545.71 4.20156 -0.605721 0
M  V30 16177 C 1543.62 5.2615 -2.70038 0
M  V30 16178 H 1542.55 0.727842 -0.196882 0
M  V30 16179 H 1545.2 1.46283 -1.10786 0
M  V30 16180 H 1543.58 3.95107 -0.265829 0
M  V30 16181 H 1544.76 3.43014 -3.07698 0
M  V30 16182 H 1543.07 3.20303 -2.66074 0
M  V30 16183 H 1545.67 5.28439 -0.815849 0
M  V30 16184 H 1546.01 4.13792 0.456266 0
M  V30 16185 H 1546.54 3.79059 -1.20662 0
M  V30 16186 H 1543.28 5.37587 -3.75073 0
M  V30 16187 H 1542.8 5.63399 -2.05771 0
M  V30 16188 H 1544.48 5.93846 -2.56819 0
M  V30 16189 N 1544.61 0.673042 1.42506 0
M  V30 16190 C 1545.84 0.201349 2.0642 0
M  V30 16191 C 1546.26 -1.132 1.50224 0
M  V30 16192 O 1545.62 -1.70368 0.620024 0
M  V30 16193 C 1545.67 0.14505 3.60308 0
M  V30 16194 O 1544.77 -0.886953 4.02749 0
M  V30 16195 H 1544.12 0.103975 0.655809 0
M  V30 16196 H 1546.65 0.921559 1.8267 0
M  V30 16197 H 1546.66 -0.0316792 4.07988 0
M  V30 16198 H 1545.33 1.11829 4.00583 0
M  V30 16199 H 1543.91 -0.681408 3.66621 0
M  V30 16200 N 1546.09 -1.52004 0.416254 0
M  V30 16201 C 1547.06 -2.2579 -0.393882 0
M  V30 16202 C 1548.06 -1.28427 -0.967637 0
M  V30 16203 O 1549.25 -1.52311 -0.845396 0
M  V30 16204 C 1546.38 -3.03361 -1.55515 0
M  V30 16205 H 1547.57 -2.98835 0.252492 0
M  V30 16206 H 1545.12 -1.55384 0.168929 0
M  V30 16207 H 1545.86 -2.34682 -2.23818 0
M  V30 16208 H 1545.64 -3.74852 -1.15015 0
M  V30 16209 H 1547.13 -3.5931 -2.12805 0
M  V30 16210 N 1547.57 -0.146903 -1.56914 0
M  V30 16211 C 1548.5 0.830846 -2.12538 0
M  V30 16212 C 1549.48 1.24243 -1.04892 0
M  V30 16213 O 1550.67 1.33855 -1.32721 0
M  V30 16214 C 1547.79 2.11561 -2.64499 0
M  V30 16215 C 1546.84 1.84995 -3.8429 0
M  V30 16216 S 1547.67 1.04104 -5.25283 0
M  V30 16217 C 1548.83 2.337 -5.80633 0
M  V30 16218 H 1549.06 0.357829 -2.95139 0
M  V30 16219 H 1546.59 0.0673772 -1.54253 0
M  V30 16220 H 1548.55 2.85366 -2.95087 0
M  V30 16221 H 1547.21 2.55977 -1.82028 0
M  V30 16222 H 1546.41 2.8026 -4.18892 0
M  V30 16223 H 1546.01 1.19298 -3.54463 0
M  V30 16224 H 1548.3 3.29351 -5.92059 0
M  V30 16225 H 1549.24 2.03603 -6.78197 0
M  V30 16226 H 1549.65 2.44344 -5.08878 0
M  V30 16227 N 1549.05 1.57088 0.126881 0
M  V30 16228 C 1550.29 1.84709 0.837287 0
M  V30 16229 C 1550.63 0.731496 1.79897 0
M  V30 16230 O 1549.9 -0.263319 1.92709 0
M  V30 16231 C 1550.19 3.22893 1.59412 0
M  V30 16232 C 1550.04 4.45041 0.652578 0
M  V30 16233 C 1551.36 3.58547 2.5521 0
M  V30 16234 H 1548.48 0.671862 0.302937 0
M  V30 16235 H 1551.12 1.89727 0.101783 0
M  V30 16236 H 1549.27 3.18746 2.22112 0
M  V30 16237 H 1550.94 4.61287 0.0350382 0
M  V30 16238 H 1549.18 4.33785 -0.0364578 0
M  V30 16239 H 1549.85 5.38381 1.21861 0
M  V30 16240 H 1552.33 3.63434 2.0262 0
M  V30 16241 H 1551.21 4.56227 3.05202 0
M  V30 16242 H 1551.47 2.85552 3.37509 0
M  V30 16243 N 1550.53 -0.396836 1.52522 0
M  V30 16244 C 1551.78 -1.13978 1.66409 0
M  V30 16245 C 1552.09 -1.91333 0.406326 0
M  V30 16246 O 1553.29 -2.6815 0.425195 0
M  V30 16247 C 1551.75 -2.07512 2.94052 0
M  V30 16248 C 1551.36 -1.35616 4.2698 0
M  V30 16249 C 1553.1 -2.8199 3.17304 0
M  V30 16250 C 1551.01 -2.2787 5.45737 0
M  V30 16251 H 1549.94 -0.429181 0.619935 0
M  V30 16252 H 1552.59 -0.403207 1.79015 0
M  V30 16253 H 1550.97 -2.84773 2.75174 0
M  V30 16254 H 1552.15 -0.636349 4.56385 0
M  V30 16255 H 1550.46 -0.731297 4.09928 0
M  V30 16256 H 1553.06 -3.5118 4.03208 0
M  V30 16257 H 1553.4 -3.45629 2.32048 0
M  V30 16258 H 1553.93 -2.11824 3.36712 0
M  V30 16259 H 1550.67 -1.68858 6.33378 0
M  V30 16260 H 1550.19 -2.97789 5.20655 0
M  V30 16261 H 1551.87 -2.88126 5.79303 0
M  V30 16262 N 1552.01 -1.43353 -0.654814 0
M  V30 16263 C 1553.25 -1.44172 -1.41058 0
M  V30 16264 C 1553.57 -0.0690586 -1.95478 0
M  V30 16265 O 1554.77 0.0453021 -2.71462 0
M  V30 16266 C 1553.23 -2.53701 -2.55272 0
M  V30 16267 C 1552.84 -3.97066 -2.07466 0
M  V30 16268 C 1554.58 -2.63713 -3.3265 0
M  V30 16269 C 1552.49 -4.98065 -3.18881 0
M  V30 16270 H 1551.42 -0.536303 -0.529995 0
M  V30 16271 H 1554.07 -1.69336 -0.706941 0
M  V30 16272 H 1552.45 -2.21736 -3.28099 0
M  V30 16273 H 1553.63 -4.38485 -1.4166 0
M  V30 16274 H 1551.94 -3.91086 -1.42972 0
M  V30 16275 H 1554.54 -3.36346 -4.15663 0
M  V30 16276 H 1554.88 -1.68729 -3.80574 0
M  V30 16277 H 1555.41 -2.94971 -2.66902 0
M  V30 16278 H 1552.15 -5.94596 -2.75927 0
M  V30 16279 H 1551.67 -4.61261 -3.83404 0
M  V30 16280 H 1553.35 -5.20696 -3.84037 0
M  V30 16281 N 1553.48 0.89303 -1.29857 0
M  V30 16282 C 1554.73 1.63881 -1.17583 0
M  V30 16283 C 1555.05 1.93723 0.270293 0
M  V30 16284 O 1556.25 2.66582 0.514432 0
M  V30 16285 C 1554.71 2.95327 -2.05694 0
M  V30 16286 C 1554.32 2.73055 -3.55169 0
M  V30 16287 C 1556.06 3.7327 -2.02162 0
M  V30 16288 C 1553.97 4.00268 -4.35361 0
M  V30 16289 H 1552.9 0.614815 -0.436485 0
M  V30 16290 H 1555.55 0.989339 -1.54546 0
M  V30 16291 H 1553.93 3.61523 -1.61607 0
M  V30 16292 H 1555.1 2.1541 -4.07351 0
M  V30 16293 H 1553.42 2.08498 -3.6044 0
M  V30 16294 H 1556.02 4.67601 -2.59333 0
M  V30 16295 H 1556.36 4.04032 -1.00318 0
M  V30 16296 H 1556.89 3.13925 -2.44328 0
M  V30 16297 H 1553.63 3.74669 -5.37869 0
M  V30 16298 H 1553.15 4.57448 -3.87945 0
M  V30 16299 H 1554.83 4.68358 -4.46374 0
M  V30 16300 N 1554.96 1.12442 1.10429 0
M  V30 16301 C 1556.38 0.860481 1.34417 0
M  V30 16302 C 1556.58 -0.509394 1.94955 0
M  V30 16303 O 1555.63 -1.25807 2.18927 0
M  V30 16304 C 1556.95 1.97694 2.26578 0
M  V30 16305 C 1558.49 2.00783 2.40115 0
M  V30 16306 C 1558.97 3.11663 3.35604 0
M  V30 16307 N 1560.46 3.11106 3.43173 0
M  V30 16308 C 1561.2 3.9354 4.1703 0
M  V30 16309 N 1560.69 4.85963 4.93773 0
M  V30 16310 N 1562.48 3.81677 4.12649 0
M  V30 16311 H 1554.64 2.00706 0.695036 0
M  V30 16312 H 1556.9 0.873398 0.368619 0
M  V30 16313 H 1556.6 2.96405 1.89306 0
M  V30 16314 H 1556.48 1.88217 3.26886 0
M  V30 16315 H 1558.87 1.02692 2.76656 0
M  V30 16316 H 1558.95 2.14335 1.39621 0
M  V30 16317 H 1558.59 4.09987 2.99789 0
M  V30 16318 H 1558.52 2.9535 4.35977 0
M  V30 16319 H 1561.01 2.4415 2.88442 0
M  V30 16320 H 1561.32 5.45373 5.47529 0
M  V30 16321 H 1559.67 4.89976 4.92898 0
M  V30 16322 H 1562.86 3.08808 3.51789 0
M  V30 16323 H 1563.03 4.46151 4.6995 0
M  V30 16324 N 1556.44 -1.28223 0.91633 0
M  V30 16325 C 1557.39 -2.29188 0.396916 0
M  V30 16326 C 1558.38 -1.61453 -0.512763 0
M  V30 16327 O 1559.59 -1.75641 -0.393723 0
M  V30 16328 H 1555.96 -0.743947 0.109761 0
M  V30 16329 H 1557.93 -2.70423 1.2615 0
M  V30 16330 C 1556.68 -3.4598 -0.345452 0
M  V30 16331 H 1556.01 -3.98306 0.345326 0
M  V30 16332 H 1557.45 -4.18617 -0.67349 0
M  V30 16333 C 1555.9 -2.98904 -1.55429 0
M  V30 16334 O 1556.43 -3.01598 -2.65333 0
M  V30 16335 N 1554.64 -2.54534 -1.40217 0
M  V30 16336 H 1554.19 -2.52541 -0.508029 0
M  V30 16337 H 1554.15 -2.23397 -2.21227 0
M  V30 16338 N 1557.92 -0.68059 -1.42147 0
M  V30 16339 C 1559.14 -0.212293 -2.06311 0
M  V30 16340 C 1559.57 1.12402 -1.50822 0
M  V30 16341 O 1558.93 1.70037 -0.629051 0
M  V30 16342 C 1558.97 -0.164156 -3.60226 0
M  V30 16343 O 1558.08 0.865582 -4.03214 0
M  V30 16344 H 1557.42 -0.107451 -0.655248 0
M  V30 16345 H 1559.95 -0.931233 -1.82179 0
M  V30 16346 H 1559.96 0.0100422 -4.07999 0
M  V30 16347 H 1558.63 -1.13952 -3.99985 0
M  V30 16348 H 1557.21 0.661955 -3.66978 0
M  V30 16349 N 1559.4 1.51781 -0.424309 0
M  V30 16350 C 1560.62 2.06871 0.147968 0
M  V30 16351 C 1561.05 1.29093 1.36808 0
M  V30 16352 O 1560.4 0.325279 1.78358 0
M  V30 16353 C 1560.45 3.57631 0.461757 0
M  V30 16354 O 1559.56 3.82149 1.55035 0
M  V30 16355 H 1558.9 0.663957 0.00757275 0
M  V30 16356 H 1561.43 1.95547 -0.601888 0
M  V30 16357 H 1561.44 4.01668 0.716005 0
M  V30 16358 H 1560.11 4.1367 -0.430081 0
M  V30 16359 H 1558.69 3.49984 1.28709 0
M  V30 16360 N 1560.87 0.155222 1.56834 0
M  V30 16361 C 1562.15 -0.539327 1.88018 0
M  V30 16362 C 1562.53 -1.8241 1.06253 0
M  V30 16363 O 1561.88 -2.27996 0.151721 0
M  V30 16364 C 1562.09 -0.796826 3.39782 0
M  V30 16365 C 1563.44 -1.13397 4.09178 0
M  V30 16366 O 1564.46 -0.885907 3.45007 0
M  V30 16367 O 1563.32 -1.60117 5.22518 0
M  V30 16368 H 1560.41 -0.276066 0.779562 0
M  V30 16369 H 1562.96 0.192451 1.68605 0
M  V30 16370 H 1561.73 0.112097 3.91139 0
M  V30 16371 H 1561.35 -1.5825 3.6475 0
M  V30 16372 N 1562.35 -1.57153 -0.118549 0
M  V30 16373 C 1563.76 -1.74046 -0.675645 0
M  V30 16374 C 1564.11 -0.773974 -1.80289 0
M  V30 16375 O 1563.24 0.0530041 -2.16335 0
M  V30 16376 C 1563.83 -3.15591 -1.23239 0
M  V30 16377 C 1562.39 -3.33988 -1.73577 0
M  V30 16378 C 1561.54 -2.69916 -0.63567 0
M  V30 16379 H 1564.49 -1.58336 0.10737 0
M  V30 16380 H 1564.51 -3.17166 -2.10205 0
M  V30 16381 H 1564.02 -3.8591 -0.411744 0
M  V30 16382 H 1562.12 -2.68712 -2.58118 0
M  V30 16383 H 1562.24 -4.42154 -1.84491 0
M  V30 16384 H 1560.6 -2.31163 -1.06939 0
M  V30 16385 H 1561.38 -3.42859 0.174005 0
M  V30 16386 N 1563.83 0.388742 -1.5273 0
M  V30 16387 C 1564.76 1.49441 -1.73781 0
M  V30 16388 C 1565.77 1.50602 -0.618285 0
M  V30 16389 O 1566.96 1.545 -0.893986 0
M  V30 16390 C 1564.06 2.88288 -1.78166 0
M  V30 16391 C 1563.24 3.11089 -3.07478 0
M  V30 16392 C 1562.3 4.2992 -3.03407 0
M  V30 16393 O 1561.32 4.26212 -3.77269 0
M  V30 16394 N 1562.52 5.36121 -2.2261 0
M  V30 16395 H 1565.29 1.3177 -2.69178 0
M  V30 16396 H 1562.85 0.578258 -1.51221 0
M  V30 16397 H 1564.84 3.65884 -1.72949 0
M  V30 16398 H 1563.41 2.99317 -0.901553 0
M  V30 16399 H 1562.63 2.21356 -3.26183 0
M  V30 16400 H 1563.92 3.23177 -3.92981 0
M  V30 16401 H 1563.32 5.41988 -1.62067 0
M  V30 16402 H 1561.87 6.12381 -2.23232 0
M  V30 16403 N 1565.31 1.43698 0.647203 0
M  V30 16404 C 1566.54 1.49085 1.43462 0
M  V30 16405 C 1566.95 0.110605 1.88476 0
M  V30 16406 O 1566.31 -0.880365 1.59862 0
M  V30 16407 C 1566.36 2.44186 2.66562 0
M  V30 16408 O 1566.08 3.76844 2.23429 0
M  V30 16409 C 1567.58 2.58876 3.59858 0
M  V30 16410 H 1564.8 0.506148 0.440517 0
M  V30 16411 H 1567.34 1.88502 0.792931 0
M  V30 16412 H 1565.5 2.07949 3.26858 0
M  V30 16413 H 1565.91 4.2804 3.0312 0
M  V30 16414 H 1567.39 3.29482 4.42883 0
M  V30 16415 H 1567.86 1.63567 4.07606 0
M  V30 16416 H 1568.47 2.95949 3.05441 0
M  V30 16417 N 1566.79 -0.886131 1.30328 0
M  V30 16418 C 1568.04 -1.63255 1.18451 0
M  V30 16419 C 1568.35 -1.93864 -0.260016 0
M  V30 16420 O 1569.55 -2.66851 -0.500288 0
M  V30 16421 C 1568.01 -2.94232 2.07257 0
M  V30 16422 C 1567.62 -2.71168 3.56612 0
M  V30 16423 C 1569.36 -3.72193 2.04139 0
M  V30 16424 C 1567.27 -3.97954 4.37478 0
M  V30 16425 H 1566.2 -0.612491 0.439739 0
M  V30 16426 H 1568.85 -0.981129 1.55068 0
M  V30 16427 H 1567.23 -3.60661 1.63522 0
M  V30 16428 H 1568.41 -2.13247 4.08488 0
M  V30 16429 H 1566.72 -2.06584 3.61541 0
M  V30 16430 H 1569.32 -4.66219 2.61809 0
M  V30 16431 H 1569.66 -4.03495 1.02459 0
M  V30 16432 H 1570.19 -3.12624 2.45989 0
M  V30 16433 H 1566.93 -3.71811 5.39849 0
M  V30 16434 H 1566.45 -4.55384 3.90366 0
M  V30 16435 H 1568.13 -4.65984 4.48852 0
M  V30 16436 N 1568.26 -1.13026 -1.09832 0
M  V30 16437 C 1569.51 -0.884093 -1.81292 0
M  V30 16438 C 1569.83 0.591608 -1.86439 0
M  V30 16439 O 1571.03 0.954571 -2.54166 0
M  V30 16440 C 1569.49 -1.53207 -3.25662 0
M  V30 16441 C 1569.1 -3.043 -3.28794 0
M  V30 16442 C 1570.84 -1.36644 -4.01906 0
M  V30 16443 C 1568.75 -3.62003 -4.67662 0
M  V30 16444 H 1567.68 -0.327101 -0.679353 0
M  V30 16445 H 1570.33 -1.35748 -1.2347 0
M  V30 16446 H 1568.71 -0.986353 -3.83519 0
M  V30 16447 H 1569.88 -3.65418 -2.80725 0
M  V30 16448 H 1568.2 -3.20332 -2.66038 0
M  V30 16449 H 1570.8 -1.7717 -5.04495 0
M  V30 16450 H 1571.14 -0.310809 -4.15138 0
M  V30 16451 H 1571.67 -1.88172 -3.5048 0
M  V30 16452 H 1568.41 -4.67354 -4.59631 0
M  V30 16453 H 1567.93 -3.05663 -5.16072 0
M  V30 16454 H 1569.61 -3.61432 -5.36634 0
M  V30 16455 N 1569.74 1.27735 -0.923117 0
M  V30 16456 C 1570.71 2.25256 -0.423375 0
M  V30 16457 C 1571.71 1.54213 0.455517 0
M  V30 16458 O 1572.9 1.7229 0.257245 0
M  V30 16459 C 1570.03 3.3864 0.391897 0
M  V30 16460 H 1571.22 2.70978 -1.28495 0
M  V30 16461 H 1568.77 1.39579 -0.703378 0
M  V30 16462 H 1569.51 2.98293 1.27248 0
M  V30 16463 H 1569.29 3.91376 -0.238194 0
M  V30 16464 H 1570.78 4.11133 0.732069 0
M  V30 16465 N 1571.22 0.688118 1.41784 0
M  V30 16466 C 1572.45 0.22475 2.05676 0
M  V30 16467 C 1572.86 -1.1232 1.51755 0
M  V30 16468 O 1572.22 -1.70041 0.662735 0
M  V30 16469 C 1572.27 0.165661 3.6112 0
M  V30 16470 O 1571.99 1.46035 4.13044 0
M  V30 16471 C 1573.49 -0.319599 4.42146 0
M  V30 16472 H 1570.71 0.106135 0.662553 0
M  V30 16473 H 1573.26 0.938605 1.81688 0
M  V30 16474 H 1571.41 -0.498968 3.84173 0
M  V30 16475 H 1571.83 1.34252 5.07027 0
M  V30 16476 H 1573.3 -0.30983 5.5113 0
M  V30 16477 H 1573.78 -1.3572 4.17704 0
M  V30 16478 H 1574.38 0.313764 4.24141 0
M  V30 16479 N 1572.7 -1.51554 0.432352 0
M  V30 16480 C 1573.63 -2.30514 -0.372243 0
M  V30 16481 C 1574.61 -1.35712 -1.02549 0
M  V30 16482 O 1575.79 -1.6463 -1.03009 0
M  V30 16483 C 1572.92 -3.14353 -1.47646 0
M  V30 16484 C 1571.88 -4.17392 -0.946974 0
M  V30 16485 C 1571.2 -4.89721 -2.14656 0
M  V30 16486 C 1572.5 -5.22298 0.0151377 0
M  V30 16487 H 1574.2 -2.98024 0.28668 0
M  V30 16488 H 1571.74 -1.43325 0.139315 0
M  V30 16489 H 1573.7 -3.68369 -2.04651 0
M  V30 16490 H 1572.42 -2.44654 -2.1636 0
M  V30 16491 H 1571.08 -3.6442 -0.399174 0
M  V30 16492 H 1570.73 -4.1653 -2.81978 0
M  V30 16493 H 1570.43 -5.59393 -1.79869 0
M  V30 16494 H 1571.95 -5.46559 -2.72224 0
M  V30 16495 H 1573.37 -5.71416 -0.464447 0
M  V30 16496 H 1571.76 -5.99468 0.275339 0
M  V30 16497 H 1572.83 -4.75436 0.953357 0
M  V30 16498 N 1574.18 -0.163538 -1.56749 0
M  V30 16499 C 1575.4 0.489888 -2.01017 0
M  V30 16500 C 1575.82 1.57327 -1.04373 0
M  V30 16501 O 1575.18 1.82449 -0.0433414 0
M  V30 16502 C 1575.23 1.07537 -3.45135 0
M  V30 16503 O 1574.95 0.0352465 -4.38086 0
M  V30 16504 C 1576.45 1.80779 -4.04764 0
M  V30 16505 H 1573.67 0.126095 -0.659046 0
M  V30 16506 H 1576.21 -0.262982 -2.02802 0
M  V30 16507 H 1574.37 1.77877 -3.44149 0
M  V30 16508 H 1574.78 0.466426 -5.22422 0
M  V30 16509 H 1576.26 2.17014 -5.07552 0
M  V30 16510 H 1576.73 2.6999 -3.46413 0
M  V30 16511 H 1577.34 1.15098 -4.09429 0
M  V30 16512 N 1575.65 1.57214 0.110213 0
M  V30 16513 C 1576.58 2.04015 1.13579 0
M  V30 16514 C 1577.57 0.926215 1.42672 0
M  V30 16515 O 1578.75 1.19651 1.52962 0
M  V30 16516 C 1575.88 2.45187 2.45969 0
M  V30 16517 C 1574.83 3.60105 2.31319 0
M  V30 16518 C 1574.16 3.87205 3.68749 0
M  V30 16519 C 1575.46 4.91526 1.76635 0
M  V30 16520 H 1577.15 2.89944 0.746496 0
M  V30 16521 H 1574.7 1.39488 0.357642 0
M  V30 16522 H 1576.65 2.76534 3.17973 0
M  V30 16523 H 1575.38 1.56238 2.86805 0
M  V30 16524 H 1574.04 3.28981 1.61762 0
M  V30 16525 H 1573.68 2.95448 4.07087 0
M  V30 16526 H 1573.38 4.64563 3.59798 0
M  V30 16527 H 1574.91 4.21013 4.42245 0
M  V30 16528 H 1576.32 5.21351 2.38465 0
M  V30 16529 H 1574.72 5.72944 1.78482 0
M  V30 16530 H 1575.79 4.79456 0.724573 0
M  V30 16531 N 1577.13 -0.380637 1.52934 0
M  V30 16532 C 1578.38 -1.12207 1.67608 0
M  V30 16533 C 1578.69 -1.90891 0.426597 0
M  V30 16534 O 1579.9 -2.67684 0.453612 0
M  V30 16535 C 1578.36 -2.04381 2.96237 0
M  V30 16536 C 1577.96 -1.3108 4.28395 0
M  V30 16537 C 1579.71 -2.78608 3.20277 0
M  V30 16538 C 1577.62 -2.22069 5.48124 0
M  V30 16539 H 1576.55 -0.422582 0.624452 0
M  V30 16540 H 1579.2 -0.384198 1.79433 0
M  V30 16541 H 1577.58 -2.81838 2.78179 0
M  V30 16542 H 1578.75 -0.587907 4.57034 0
M  V30 16543 H 1577.07 -0.687778 4.10681 0
M  V30 16544 H 1579.66 -3.46883 4.0691 0
M  V30 16545 H 1580.01 -3.43149 2.35701 0
M  V30 16546 H 1580.54 -2.08241 3.3894 0
M  V30 16547 H 1577.28 -1.62131 6.35133 0
M  V30 16548 H 1576.8 -2.9225 5.23784 0
M  V30 16549 H 1578.48 -2.81966 5.82327 0
M  V30 16550 N 1578.61 -1.44039 -0.639573 0
M  V30 16551 C 1579.86 -1.46088 -1.39652 0
M  V30 16552 C 1580.18 -0.0914602 -1.94785 0
M  V30 16553 O 1579.45 0.875097 -1.75268 0
M  V30 16554 H 1578.03 -0.537901 -0.518335 0
M  V30 16555 H 1580.69 -1.79751 -0.753365 0
M  V30 16556 H 1579.79 -2.1814 -2.23207 0
M  V30 16557 N 1580.09 0.879207 -1.30796 0
M  V30 16558 C 1581.33 1.6456 -1.21242 0
M  V30 16559 C 1581.69 1.90642 0.227986 0
M  V30 16560 O 1582.89 2.65059 0.446875 0
M  V30 16561 C 1581.16 2.94576 -2.02386 0
M  V30 16562 S 1582.72 3.85508 -2.09592 0
M  V30 16563 H 1579.54 0.564732 -0.43197 0
M  V30 16564 H 1582.14 1.04314 -1.65345 0
M  V30 16565 H 1580.85 2.73322 -3.06142 0
M  V30 16566 H 1580.38 3.59852 -1.58966 0
M  V30 16567 H 1582.39 4.80777 -1.2275 0
M  V30 16568 N 1581.57 1.13606 1.09231 0
M  V30 16569 C 1582.52 0.810747 2.18013 0
M  V30 16570 C 1583.51 -0.207782 1.68121 0
M  V30 16571 O 1584.72 -0.0647274 1.79884 0
M  V30 16572 H 1581.09 0.244415 0.711172 0
M  V30 16573 H 1583.06 1.73632 2.42682 0
M  V30 16574 C 1581.81 0.295302 3.46444 0
M  V30 16575 H 1581.13 1.07037 3.85205 0
M  V30 16576 H 1582.57 0.106127 4.23867 0
M  V30 16577 C 1581.03 -0.979398 3.2235 0
M  V30 16578 O 1581.56 -2.05483 3.45166 0
M  V30 16579 N 1579.77 -0.911282 2.75942 0
M  V30 16580 H 1579.32 -0.035979 2.57575 0
M  V30 16581 H 1579.27 -1.76476 2.60199 0
M  V30 16582 N 1583.05 -1.27244 0.929878 0
M  V30 16583 C 1584.29 -1.93886 0.570331 0
M  V30 16584 C 1584.61 -1.7342 -0.891656 0
M  V30 16585 O 1583.88 -1.0832 -1.63228 0
M  V30 16586 H 1582.46 -0.717476 0.207937 0
M  V30 16587 H 1585.13 -1.5491 1.18275 0
M  V30 16588 H 1584.22 -3.02236 0.778463 0
M  V30 16589 N 1584.52 -0.695628 -1.41417 0
M  V30 16590 C 1585.75 -0.234163 -2.06074 0
M  V30 16591 C 1586.17 1.10796 -1.52006 0
M  V30 16592 O 1585.53 1.6936 -0.64705 0
M  V30 16593 C 1585.58 -0.202353 -3.60032 0
M  V30 16594 O 1584.68 0.822767 -4.04109 0
M  V30 16595 H 1584.02 -0.114395 -0.654072 0
M  V30 16596 H 1586.55 -0.950503 -1.81181 0
M  V30 16597 H 1586.56 -0.0332321 -4.07986 0
M  V30 16598 H 1585.24 -1.18188 -3.98754 0
M  V30 16599 H 1583.82 0.622995 -3.67659 0
M  V30 16600 N 1586 1.51322 -0.440383 0
M  V30 16601 C 1587.41 1.86687 0.0220272 0
M  V30 16602 C 1587.76 1.35734 1.41671 0
M  V30 16603 O 1586.89 0.709408 2.04442 0
M  V30 16604 C 1587.48 3.38768 0.0467477 0
M  V30 16605 C 1586.04 3.73657 0.45358 0
M  V30 16606 C 1585.19 2.7506 -0.351779 0
M  V30 16607 H 1588.14 1.44503 -0.65609 0
M  V30 16608 H 1588.16 3.70756 0.855589 0
M  V30 16609 H 1587.67 3.75823 -0.968451 0
M  V30 16610 H 1585.77 3.42193 1.47427 0
M  V30 16611 H 1585.89 4.78776 0.176262 0
M  V30 16612 H 1584.25 2.53988 0.190334 0
M  V30 16613 H 1585.03 3.14957 -1.36591 0
M  V30 16614 N 1587.48 0.171848 1.5666 0
M  V30 16615 C 1588.73 -0.467156 1.97963 0
M  V30 16616 C 1589.08 -1.60824 1.05609 0
M  V30 16617 O 1588.37 -1.9136 0.0958638 0
M  V30 16618 C 1588.57 -0.99711 3.43209 0
M  V30 16619 C 1588.4 0.0910934 4.49608 0
M  V30 16620 C 1587.17 0.540935 5.02396 0
M  V30 16621 C 1589.36 0.891679 5.06511 0
M  V30 16622 N 1587.35 1.60939 5.92429 0
M  V30 16623 C 1588.72 1.81005 5.9299 0
M  V30 16624 C 1590.77 0.9367 4.8901 0
M  V30 16625 C 1589.48 2.76964 6.6384 0
M  V30 16626 C 1591.5 1.88423 5.60581 0
M  V30 16627 C 1590.86 2.79008 6.46787 0
M  V30 16628 H 1586.96 -0.139033 0.769541 0
M  V30 16629 H 1589.55 0.272188 1.92788 0
M  V30 16630 H 1587.72 -1.70597 3.48929 0
M  V30 16631 H 1589.45 -1.60479 3.71522 0
M  V30 16632 H 1586.2 0.138545 4.73397 0
M  V30 16633 H 1586.63 2.14412 6.4215 0
M  V30 16634 H 1591.27 0.250396 4.22058 0
M  V30 16635 H 1588.99 3.46582 7.30005 0
M  V30 16636 H 1592.57 1.92518 5.49025 0
M  V30 16637 H 1591.45 3.51133 7.01196 0
M  V30 16638 N 1588.96 -1.5727 -0.101874 0
M  V30 16639 C 1590.37 -1.5295 -0.455899 0
M  V30 16640 C 1590.57 -0.887526 -1.80901 0
M  V30 16641 O 1589.63 -0.477143 -2.47951 0
M  V30 16642 C 1590.94 -2.97687 -0.424625 0
M  V30 16643 C 1592.49 -3.08867 -0.506963 0
M  V30 16644 C 1592.97 -4.55197 -0.505907 0
M  V30 16645 N 1594.46 -4.59718 -0.566856 0
M  V30 16646 C 1595.19 -5.7038 -0.587766 0
M  V30 16647 N 1594.69 -6.9049 -0.56529 0
M  V30 16648 N 1596.48 -5.58535 -0.632067 0
M  V30 16649 H 1588.63 -1.97381 0.784509 0
M  V30 16650 H 1590.89 -0.902141 0.291284 0
M  V30 16651 H 1590.6 -3.48094 0.502312 0
M  V30 16652 H 1590.47 -3.56022 -1.24612 0
M  V30 16653 H 1592.86 -2.58451 -1.42432 0
M  V30 16654 H 1592.94 -2.53496 0.342544 0
M  V30 16655 H 1592.59 -5.06263 0.407477 0
M  V30 16656 H 1592.52 -5.08399 -1.37253 0
M  V30 16657 H 1595.01 -3.73271 -0.589696 0
M  V30 16658 H 1595.32 -7.70588 -0.584342 0
M  V30 16659 H 1593.67 -6.92957 -0.532444 0
M  V30 16660 H 1596.86 -4.63606 -0.647109 0
M  V30 16661 H 1597.03 -6.44783 -0.644895 0
M  V30 16662 N 1590.44 0.372521 -1.53134 0
M  V30 16663 C 1591.68 1.11589 -1.6898 0
M  V30 16664 C 1592.01 1.89503 -0.438049 0
M  V30 16665 O 1591.27 1.86911 0.579891 0
M  V30 16666 C 1591.56 2.10742 -2.88656 0
M  V30 16667 C 1591.23 1.49361 -4.25443 0
M  V30 16668 C 1589.89 1.32348 -4.62642 0
M  V30 16669 C 1592.24 1.04889 -5.10537 0
M  V30 16670 C 1589.57 0.694368 -5.82577 0
M  V30 16671 C 1591.92 0.433809 -6.31111 0
M  V30 16672 C 1590.59 0.251118 -6.67027 0
M  V30 16673 H 1589.86 0.408333 -0.618341 0
M  V30 16674 H 1592.51 0.398507 -1.87308 0
M  V30 16675 H 1590.81 2.88759 -2.64812 0
M  V30 16676 H 1592.51 2.682 -2.98111 0
M  V30 16677 H 1589.1 1.63594 -3.9615 0
M  V30 16678 H 1593.28 1.16829 -4.82353 0
M  V30 16679 H 1588.54 0.541171 -6.09 0
M  V30 16680 H 1592.71 0.0809859 -6.96353 0
M  V30 16681 H 1590.34 -0.23844 -7.59826 0
M  V30 16682 N 1591.91 1.44376 0.631925 0
M  V30 16683 C 1592.84 1.54005 1.75512 0
M  V30 16684 C 1593.82 0.393126 1.65495 0
M  V30 16685 O 1595.01 0.613143 1.84267 0
M  V30 16686 C 1592.14 1.48313 3.14039 0
M  V30 16687 C 1591.09 2.61474 3.38844 0
M  V30 16688 C 1590.42 2.40834 4.77392 0
M  V30 16689 C 1591.72 4.03627 3.31485 0
M  V30 16690 H 1593.41 2.48019 1.6771 0
M  V30 16691 H 1590.96 1.19368 0.80543 0
M  V30 16692 H 1592.91 1.5365 3.9239 0
M  V30 16693 H 1591.64 0.508152 3.22623 0
M  V30 16694 H 1590.3 2.55525 2.62874 0
M  V30 16695 H 1589.94 1.4153 4.82678 0
M  V30 16696 H 1589.64 3.16703 4.94947 0
M  V30 16697 H 1591.17 2.47988 5.57974 0
M  V30 16698 H 1592.58 4.1095 3.99741 0
M  V30 16699 H 1590.98 4.79694 3.60574 0
M  V30 16700 H 1592.05 4.27255 2.29307 0
M  V30 16701 N 1593.39 -0.872258 1.31261 0
M  V30 16702 C 1594.34 -1.97926 1.18718 0
M  V30 16703 C 1595.31 -1.65937 0.0735242 0
M  V30 16704 O 1596.49 -1.89208 0.245979 0
M  V30 16705 C 1593.63 -3.33208 0.898117 0
M  V30 16706 C 1592.75 -3.77808 2.09488 0
M  V30 16707 C 1591.88 -5.01796 1.74281 0
M  V30 16708 C 1590.92 -5.38838 2.90379 0
M  V30 16709 N 1590.06 -6.54007 2.55382 0
M  V30 16710 H 1594.9 -2.07986 2.13415 0
M  V30 16711 H 1592.43 -1.01821 1.06165 0
M  V30 16712 H 1594.39 -4.11095 0.711089 0
M  V30 16713 H 1593.02 -3.22798 -0.0120097 0
M  V30 16714 H 1592.07 -2.95722 2.39276 0
M  V30 16715 H 1593.39 -4.01191 2.96391 0
M  V30 16716 H 1592.54 -5.87344 1.52027 0
M  V30 16717 H 1591.28 -4.80312 0.845665 0
M  V30 16718 H 1590.28 -4.51811 3.13284 0
M  V30 16719 H 1591.51 -5.62289 3.80799 0
M  V30 16720 H 1589.46 -6.34073 1.68188 0
M  V30 16721 H 1589.37 -6.77322 3.35814 0
M  V30 16722 H 1590.64 -7.42752 2.36516 0
M  V30 16723 N 1594.87 -1.14184 -1.08627 0
M  V30 16724 C 1595.78 -0.84033 -2.19033 0
M  V30 16725 C 1596.8 0.178322 -1.73084 0
M  V30 16726 O 1597.97 0.00737963 -2.01399 0
M  V30 16727 C 1595.04 -0.319674 -3.45223 0
M  V30 16728 C 1594.1 -1.4006 -4.0581 0
M  V30 16729 C 1593.33 -0.904693 -5.25976 0
M  V30 16730 O 1593.55 0.25468 -5.69831 0
M  V30 16731 O 1592.49 -1.68267 -5.77901 0
M  V30 16732 H 1596.31 -1.76296 -2.47292 0
M  V30 16733 H 1593.9 -0.919929 -1.17719 0
M  V30 16734 H 1595.78 -0.0351268 -4.21385 0
M  V30 16735 H 1594.46 0.575264 -3.18547 0
M  V30 16736 H 1593.36 -1.73858 -3.31247 0
M  V30 16737 H 1594.7 -2.26998 -4.3673 0
M  V30 16738 N 1596.35 1.26749 -0.936613 0
M  V30 16739 C 1597.3 2.26542 -0.441307 0
M  V30 16740 C 1598.27 1.58503 0.496581 0
M  V30 16741 O 1599.45 1.86259 0.41379 0
M  V30 16742 C 1596.59 3.43866 0.291633 0
M  V30 16743 C 1595.7 4.26592 -0.681397 0
M  V30 16744 C 1594.84 5.31151 0.0722826 0
M  V30 16745 C 1593.88 6.05553 -0.892869 0
M  V30 16746 N 1593.01 7.01891 -0.17124 0
M  V30 16747 H 1597.85 2.68282 -1.29725 0
M  V30 16748 H 1595.39 1.31914 -0.650928 0
M  V30 16749 H 1597.35 4.10711 0.732984 0
M  V30 16750 H 1595.98 3.03051 1.11175 0
M  V30 16751 H 1595.03 3.59579 -1.24126 0
M  V30 16752 H 1596.34 4.78201 -1.41864 0
M  V30 16753 H 1595.5 6.03987 0.57313 0
M  V30 16754 H 1594.24 4.80369 0.842439 0
M  V30 16755 H 1593.24 5.31548 -1.40488 0
M  V30 16756 H 1594.47 6.58424 -1.66296 0
M  V30 16757 H 1592.41 6.53426 0.580507 0
M  V30 16758 H 1592.33 7.5123 -0.847897 0
M  V30 16759 H 1593.6 7.78889 0.308662 0
M  V30 16760 N 1597.83 0.703118 1.41046 0
M  V30 16761 C 1599.07 0.237287 2.01105 0
M  V30 16762 C 1599.4 -1.16552 1.55711 0
M  V30 16763 O 1598.66 -1.80233 0.762533 0
M  V30 16764 C 1598.96 0.251575 3.56513 0
M  V30 16765 C 1598.62 1.60295 4.21446 0
M  V30 16766 C 1597.28 1.9729 4.38897 0
M  V30 16767 C 1599.64 2.49167 4.57783 0
M  V30 16768 C 1596.96 3.22726 4.89964 0
M  V30 16769 C 1599.32 3.73943 5.10244 0
M  V30 16770 C 1597.98 4.11072 5.25905 0
M  V30 16771 H 1597.25 0.0868294 0.735895 0
M  V30 16772 H 1599.9 0.903695 1.68836 0
M  V30 16773 H 1598.2 -0.498393 3.88617 0
M  V30 16774 H 1599.9 -0.126501 4.008 0
M  V30 16775 H 1596.49 1.30523 4.08242 0
M  V30 16776 H 1600.67 2.21864 4.43948 0
M  V30 16777 H 1595.93 3.51477 5.00274 0
M  V30 16778 H 1600.1 4.42988 5.3734 0
M  V30 16779 H 1597.73 5.0834 5.65239 0
M  V30 16780 N 1599.3 -1.51086 0.448402 0
M  V30 16781 C 1600.54 -2.04085 -0.113374 0
M  V30 16782 C 1600.91 -1.32454 -1.38996 0
M  V30 16783 O 1602.11 -1.75885 -2.03268 0
M  V30 16784 C 1600.38 -3.56001 -0.315869 0
M  V30 16785 S 1601.94 -4.30695 -0.839462 0
M  V30 16786 H 1598.76 -0.7105 -0.0266528 0
M  V30 16787 H 1601.36 -1.85728 0.610345 0
M  V30 16788 H 1600.06 -4.05699 0.6194 0
M  V30 16789 H 1599.59 -3.78672 -1.06635 0
M  V30 16790 H 1601.61 -4.48833 -2.11573 0
M  V30 16791 N 1600.78 -0.180154 -1.56567 0
M  V30 16792 C 1601.73 0.746666 -2.18389 0
M  V30 16793 C 1602.7 1.22058 -1.12655 0
M  V30 16794 O 1603.88 1.28716 -1.40843 0
M  V30 16795 C 1601.02 1.96688 -2.83563 0
M  V30 16796 C 1600.14 1.53572 -4.03782 0
M  V30 16797 C 1599.27 2.71028 -4.56856 0
M  V30 16798 C 1598.31 2.24445 -5.69465 0
M  V30 16799 N 1597.45 3.35026 -6.17011 0
M  V30 16800 H 1602.29 0.212707 -2.9724 0
M  V30 16801 H 1599.83 0.093256 -1.46804 0
M  V30 16802 H 1601.78 2.68269 -3.19511 0
M  V30 16803 H 1600.41 2.4744 -2.073 0
M  V30 16804 H 1599.47 0.716323 -3.73595 0
M  V30 16805 H 1600.78 1.15385 -4.85271 0
M  V30 16806 H 1599.93 3.50753 -4.95032 0
M  V30 16807 H 1598.67 3.1248 -3.74443 0
M  V30 16808 H 1597.68 1.43169 -5.30832 0
M  V30 16809 H 1598.9 1.84041 -6.53686 0
M  V30 16810 H 1596.85 3.76037 -5.37524 0
M  V30 16811 H 1596.76 3.0096 -6.93512 0
M  V30 16812 H 1598.03 4.15009 -6.59839 0
M  V30 16813 N 1602.26 1.57322 0.0935319 0
M  V30 16814 C 1603.51 1.87313 0.792794 0
M  V30 16815 C 1603.86 0.771181 1.76268 0
M  V30 16816 O 1603.15 -0.226679 1.90254 0
M  V30 16817 C 1603.35 3.21605 1.55901 0
M  V30 16818 C 1603.18 4.44758 0.66483 0
M  V30 16819 C 1601.95 5.04348 0.309971 0
M  V30 16820 C 1604.15 5.14292 -0.0288905 0
M  V30 16821 N 1602.13 6.11037 -0.592212 0
M  V30 16822 C 1603.5 6.14958 -0.789082 0
M  V30 16823 C 1605.55 4.97794 -0.102647 0
M  V30 16824 C 1604.26 7.00909 -1.61614 0
M  V30 16825 C 1606.28 5.84254 -0.916612 0
M  V30 16826 C 1605.64 6.84441 -1.66492 0
M  V30 16827 H 1601.74 0.735289 0.266222 0
M  V30 16828 H 1604.33 1.94622 0.0552534 0
M  V30 16829 H 1602.5 3.15345 2.26742 0
M  V30 16830 H 1604.23 3.39317 2.20559 0
M  V30 16831 H 1600.99 4.69007 0.65798 0
M  V30 16832 H 1601.41 6.69028 -1.0359 0
M  V30 16833 H 1606.05 4.20273 0.461548 0
M  V30 16834 H 1603.77 7.7782 -2.1914 0
M  V30 16835 H 1607.36 5.73549 -0.976374 0
M  V30 16836 H 1606.24 7.50183 -2.28461 0
M  V30 16837 N 1603.74 -0.364395 1.53329 0
M  V30 16838 C 1604.97 -1.1275 1.7348 0
M  V30 16839 C 1605.38 -1.83002 0.4643 0
M  V30 16840 O 1604.74 -1.73603 -0.562864 0
M  V30 16841 C 1604.79 -2.15691 2.90103 0
M  V30 16842 O 1604.51 -1.48298 4.12237 0
M  V30 16843 C 1606.01 -3.04539 3.22135 0
M  V30 16844 H 1603.23 -0.337084 0.580186 0
M  V30 16845 H 1605.78 -0.422952 2.00078 0
M  V30 16846 H 1603.93 -2.81742 2.65895 0
M  V30 16847 H 1604.34 -2.16896 4.77553 0
M  V30 16848 H 1605.82 -3.72747 4.07141 0
M  V30 16849 H 1606.3 -3.69414 2.3755 0
M  V30 16850 H 1606.9 -2.44103 3.48273 0
M  V30 16851 N 1605.22 -1.44709 -0.62426 0
M  V30 16852 C 1606.15 -1.48097 -1.74928 0
M  V30 16853 C 1607.16 -0.373567 -1.58456 0
M  V30 16854 O 1608.35 -0.639699 -1.66644 0
M  V30 16855 C 1605.45 -1.30576 -3.12735 0
M  V30 16856 C 1604.62 -2.54688 -3.55602 0
M  V30 16857 C 1603.68 -2.31966 -4.72311 0
M  V30 16858 O 1602.71 -3.05492 -4.80274 0
M  V30 16859 N 1603.91 -1.35463 -5.64473 0
M  V30 16860 H 1606.68 -2.45086 -1.72491 0
M  V30 16861 H 1604.24 -1.40236 -0.809039 0
M  V30 16862 H 1606.23 -1.13212 -3.88542 0
M  V30 16863 H 1604.8 -0.419262 -3.09776 0
M  V30 16864 H 1604.02 -2.87282 -2.69931 0
M  V30 16865 H 1605.31 -3.37223 -3.80996 0
M  V30 16866 H 1604.7 -0.747509 -5.60739 0
M  V30 16867 H 1603.26 -1.24075 -6.39882 0
M  V30 16868 N 1606.69 0.865285 -1.31722 0
M  V30 16869 C 1607.62 1.98871 -1.22362 0
M  V30 16870 C 1608.61 1.69745 -0.109779 0
M  V30 16871 O 1609.79 1.91944 -0.295167 0
M  V30 16872 C 1606.92 3.34477 -0.935 0
M  V30 16873 C 1605.87 3.77924 -2.00892 0
M  V30 16874 C 1605.2 5.11042 -1.57291 0
M  V30 16875 C 1606.5 3.94528 -3.42264 0
M  V30 16876 H 1608.19 2.06959 -2.16352 0
M  V30 16877 H 1605.74 0.994355 -1.04157 0
M  V30 16878 H 1607.69 4.12612 -0.856111 0
M  V30 16879 H 1606.42 3.26575 0.0405536 0
M  V30 16880 H 1605.08 3.02032 -2.07779 0
M  V30 16881 H 1604.72 4.99586 -0.585084 0
M  V30 16882 H 1604.42 5.41082 -2.29138 0
M  V30 16883 H 1605.95 5.91681 -1.50818 0
M  V30 16884 H 1607.36 4.63045 -3.38027 0
M  V30 16885 H 1605.76 4.35972 -4.12369 0
M  V30 16886 H 1606.83 2.97765 -3.82706 0
M  V30 16887 N 1608.17 1.14759 1.0802 0
M  V30 16888 C 1609.4 0.941887 1.84218 0
M  V30 16889 C 1609.82 -0.509702 1.8179 0
M  V30 16890 O 1609.17 -1.35331 1.22441 0
M  V30 16891 C 1609.22 1.43978 3.31591 0
M  V30 16892 O 1608.94 2.83449 3.34048 0
M  V30 16893 C 1610.45 1.27459 4.24581 0
M  V30 16894 H 1607.67 0.334942 0.581425 0
M  V30 16895 H 1610.21 1.52367 1.36399 0
M  V30 16896 H 1608.36 0.900674 3.76785 0
M  V30 16897 H 1608.78 3.05878 4.26073 0
M  V30 16898 H 1610.25 1.67151 5.26084 0
M  V30 16899 H 1610.73 0.217925 4.38659 0
M  V30 16900 H 1611.34 1.80243 3.85217 0
M  V30 16901 N 1609.65 -1.26251 0.943322 0
M  V30 16902 C 1610.88 -1.97452 0.607969 0
M  V30 16903 C 1611.29 -1.70422 -0.82177 0
M  V30 16904 O 1610.63 -0.970323 -1.55982 0
M  V30 16905 C 1610.69 -3.51092 0.772938 0
M  V30 16906 C 1610.36 -4.01777 2.17771 0
M  V30 16907 C 1611.35 -4.1335 3.15338 0
M  V30 16908 C 1609.04 -4.35732 2.49886 0
M  V30 16909 C 1611.03 -4.58175 4.43119 0
M  V30 16910 C 1608.72 -4.80245 3.779 0
M  V30 16911 C 1609.72 -4.91427 4.74329 0
M  V30 16912 O 1609.41 -5.34958 6.00063 0
M  V30 16913 H 1609.14 -0.636465 0.227791 0
M  V30 16914 H 1611.69 -1.61671 1.26695 0
M  V30 16915 H 1609.92 -3.86658 0.0568252 0
M  V30 16916 H 1611.61 -4.03505 0.440326 0
M  V30 16917 H 1612.38 -3.87361 2.91851 0
M  V30 16918 H 1608.26 -4.26261 1.75563 0
M  V30 16919 H 1611.8 -4.66818 5.18389 0
M  V30 16920 H 1607.7 -5.05678 4.01198 0
M  V30 16921 H 1608.47 -5.53173 6.03276 0
M  V30 16922 N 1611.13 -0.710588 -1.40671 0
M  V30 16923 C 1612.38 -0.244967 -2.00207 0
M  V30 16924 C 1612.69 1.16693 -1.56978 0
M  V30 16925 O 1613.9 1.73081 -2.09177 0
M  V30 16926 C 1612.35 -0.387049 -3.57813 0
M  V30 16927 C 1611.96 -1.80527 -4.10017 0
M  V30 16928 C 1613.71 0.0180338 -4.24496 0
M  V30 16929 C 1611.61 -1.89821 -5.60109 0
M  V30 16930 H 1610.54 -0.087831 -0.748867 0
M  V30 16931 H 1613.19 -0.880956 -1.6097 0
M  V30 16932 H 1611.58 0.317442 -3.94726 0
M  V30 16933 H 1612.75 -2.53974 -3.84492 0
M  V30 16934 H 1611.06 -2.16137 -3.55913 0
M  V30 16935 H 1613.66 -0.0307544 -5.34691 0
M  V30 16936 H 1614 1.05915 -4.02601 0
M  V30 16937 H 1614.54 -0.63672 -3.92671 0
M  V30 16938 H 1611.28 -2.92036 -5.86852 0
M  V30 16939 H 1610.8 -1.20779 -5.87514 0
M  V30 16940 H 1612.48 -1.66801 -6.25129 0
M  V30 16941 N 1612.61 1.50847 -0.456408 0
M  V30 16942 C 1613.56 2.25081 0.363678 0
M  V30 16943 C 1614.54 1.28071 0.973991 0
M  V30 16944 O 1615.73 1.53056 0.888972 0
M  V30 16945 C 1612.86 3.11011 1.45352 0
M  V30 16946 C 1611.95 4.15461 0.851665 0
M  V30 16947 N 1612.34 5.05796 -0.0192612 0
M  V30 16948 C 1610.64 4.31781 1.11721 0
M  V30 16949 C 1611.34 5.80589 -0.359309 0
M  V30 16950 N 1610.31 5.42969 0.26187 0
M  V30 16951 H 1614.12 2.92287 -0.307467 0
M  V30 16952 H 1611.63 1.60146 -0.269642 0
M  V30 16953 H 1613.63 3.62786 2.05407 0
M  V30 16954 H 1612.29 2.45351 2.12681 0
M  V30 16955 H 1613.3 5.16452 -0.38707 0
M  V30 16956 H 1609.98 3.77343 1.78657 0
M  V30 16957 H 1611.37 6.63339 -1.06919 0
M  V30 16958 N 1614.09 0.188454 1.56469 0
M  V30 16959 C 1615.03 -0.735074 2.18781 0
M  V30 16960 C 1616 -1.21459 1.133 0
M  V30 16961 O 1617.19 -1.27967 1.41524 0
M  V30 16962 C 1614.33 -1.95181 2.84602 0
M  V30 16963 C 1613.44 -1.51428 4.0459 0
M  V30 16964 C 1612.58 -2.68601 4.58287 0
M  V30 16965 C 1611.61 -2.21422 5.70648 0
M  V30 16966 N 1610.75 -3.31749 6.18779 0
M  V30 16967 H 1615.59 -0.19694 2.97349 0
M  V30 16968 H 1613.13 -0.0854693 1.46851 0
M  V30 16969 H 1615.09 -2.66571 3.2093 0
M  V30 16970 H 1613.72 -2.46337 2.0861 0
M  V30 16971 H 1612.77 -0.6965 3.73969 0
M  V30 16972 H 1614.08 -1.1281 4.85876 0
M  V30 16973 H 1613.23 -3.48123 4.96885 0
M  V30 16974 H 1611.97 -3.1049 3.76095 0
M  V30 16975 H 1610.98 -1.40352 5.31584 0
M  V30 16976 H 1612.2 -1.80572 6.54653 0
M  V30 16977 H 1610.15 -3.73181 5.39511 0
M  V30 16978 H 1610.07 -2.97277 6.95099 0
M  V30 16979 H 1611.33 -4.11504 6.62031 0
M  V30 16980 N 1615.56 -1.5737 -0.0851874 0
M  V30 16981 C 1616.47 -2.06097 -1.12078 0
M  V30 16982 C 1617.49 -0.987809 -1.43242 0
M  V30 16983 O 1618.67 -1.30163 -1.53686 0
M  V30 16984 C 1615.73 -2.48397 -2.41867 0
M  V30 16985 C 1614.79 -3.69951 -2.17795 0
M  V30 16986 C 1614.02 -4.10225 -3.41396 0
M  V30 16987 O 1614.25 -3.50495 -4.5001 0
M  V30 16988 O 1613.18 -5.03111 -3.30399 0
M  V30 16989 H 1617.01 -2.94625 -0.736877 0
M  V30 16990 H 1614.59 -1.4639 -0.298392 0
M  V30 16991 H 1616.47 -2.76187 -3.18274 0
M  V30 16992 H 1615.15 -1.63003 -2.79664 0
M  V30 16993 H 1614.06 -3.47263 -1.39136 0
M  V30 16994 H 1615.39 -4.56156 -1.84886 0
M  V30 16995 N 1617.04 0.356258 -1.53521 0
M  V30 16996 C 1618.27 1.12273 -1.74383 0
M  V30 16997 C 1618.69 1.81981 -0.475881 0
M  V30 16998 O 1618.05 1.72083 0.570699 0
M  V30 16999 C 1618.1 2.12161 -2.91582 0
M  V30 17000 O 1617.2 3.1943 -2.60842 0
M  V30 17001 H 1616.54 0.325321 -0.578845 0
M  V30 17002 H 1619.07 0.410533 -2.00439 0
M  V30 17003 H 1619.08 2.55602 -3.18012 0
M  V30 17004 H 1617.76 1.60818 -3.8355 0
M  V30 17005 H 1616.33 2.80895 -2.4526 0
M  V30 17006 N 1618.52 1.45038 0.616577 0
M  V30 17007 C 1619.8 1.39059 1.37557 0
M  V30 17008 C 1620.18 0.0566307 2.11024 0
M  V30 17009 O 1619.52 -0.961203 2.073 0
M  V30 17010 C 1619.73 2.59841 2.32989 0
M  V30 17011 C 1621.08 3.04539 2.95874 0
M  V30 17012 O 1622.11 2.6015 2.43312 0
M  V30 17013 O 1620.97 3.81547 3.9126 0
M  V30 17014 H 1618.06 0.551396 0.616353 0
M  V30 17015 H 1620.61 1.57152 0.640416 0
M  V30 17016 H 1619.38 3.48521 1.779 0
M  V30 17017 H 1619 2.44036 3.13899 0
M  V30 17018 N 1620 -0.858287 1.32179 0
M  V30 17019 C 1621.22 -1.64997 1.25662 0
M  V30 17020 C 1621.65 -1.87303 -0.173021 0
M  V30 17021 O 1621.01 -1.42319 -1.12317 0
M  V30 17022 C 1621.05 -2.98855 2.01787 0
M  V30 17023 O 1620.16 -3.89218 1.36319 0
M  V30 17024 H 1619.5 -0.503169 0.433264 0
M  V30 17025 H 1622.03 -1.06926 1.74436 0
M  V30 17026 H 1622.04 -3.48704 2.11824 0
M  V30 17027 H 1620.71 -2.81941 3.05748 0
M  V30 17028 H 1619.29 -3.4768 1.34807 0
M  V30 17029 N 1621.48 -1.1533 -1.07409 0
M  V30 17030 C 1622.72 -0.939155 -1.8042 0
M  V30 17031 C 1623.08 0.528116 -1.8501 0
M  V30 17032 O 1622.37 1.38649 -1.32239 0
M  V30 17033 C 1622.56 -1.48646 -3.25022 0
M  V30 17034 C 1622.39 -3.00542 -3.34522 0
M  V30 17035 C 1621.16 -3.69083 -3.45117 0
M  V30 17036 C 1623.36 -3.98331 -3.25326 0
M  V30 17037 N 1621.34 -5.08794 -3.43513 0
M  V30 17038 C 1622.71 -5.24356 -3.30833 0
M  V30 17039 C 1624.77 -3.9031 -3.09132 0
M  V30 17040 C 1623.47 -6.43295 -3.21813 0
M  V30 17041 C 1625.5 -5.08807 -3.01446 0
M  V30 17042 C 1624.86 -6.33706 -3.07565 0
M  V30 17043 H 1620.96 -0.397311 -0.673549 0
M  V30 17044 H 1623.54 -1.46524 -1.28214 0
M  V30 17045 H 1621.71 -0.987019 -3.75649 0
M  V30 17046 H 1623.45 -1.2112 -3.8615 0
M  V30 17047 H 1620.2 -3.19672 -3.49438 0
M  V30 17048 H 1620.62 -5.81761 -3.46242 0
M  V30 17049 H 1625.27 -2.94612 -3.03255 0
M  V30 17050 H 1622.98 -7.39227 -3.26449 0
M  V30 17051 H 1626.57 -5.0436 -2.9002 0
M  V30 17052 H 1625.45 -7.23858 -3.01661 0
M  V30 17053 N 1622.95 1.25748 -0.950004 0
M  V30 17054 C 1623.88 2.28419 -0.484467 0
M  V30 17055 C 1624.86 1.63569 0.466813 0
M  V30 17056 O 1626.05 1.90705 0.366766 0
M  V30 17057 C 1623.18 3.46449 0.242916 0
M  V30 17058 C 1622.13 4.23447 -0.622657 0
M  V30 17059 C 1621.46 5.34182 0.235199 0
M  V30 17060 C 1622.76 4.86576 -1.89845 0
M  V30 17061 H 1624.45 2.6761 -1.34257 0
M  V30 17062 H 1622 1.28646 -0.647014 0
M  V30 17063 H 1623.95 4.17394 0.579693 0
M  V30 17064 H 1622.68 3.06235 1.13523 0
M  V30 17065 H 1621.34 3.54279 -0.942453 0
M  V30 17066 H 1620.98 4.90209 1.12713 0
M  V30 17067 H 1620.68 5.86612 -0.340609 0
M  V30 17068 H 1622.21 6.07961 0.567048 0
M  V30 17069 H 1623.62 5.49688 -1.62837 0
M  V30 17070 H 1622.02 5.49162 -2.41954 0
M  V30 17071 H 1623.09 4.09021 -2.60441 0
M  V30 17072 N 1624.43 0.718038 1.40292 0
M  V30 17073 C 1625.38 0.0670495 2.30703 0
M  V30 17074 C 1626.35 -0.747716 1.48319 0
M  V30 17075 O 1627.53 -0.711161 1.77051 0
M  V30 17076 C 1624.67 -0.846918 3.34546 0
M  V30 17077 C 1623.79 -0.0213622 4.31995 0
M  V30 17078 C 1622.92 -0.935035 5.22906 0
M  V30 17079 C 1621.96 -0.103715 6.12012 0
M  V30 17080 N 1621.1 -0.972397 6.95334 0
M  V30 17081 H 1625.94 0.843724 2.85806 0
M  V30 17082 H 1623.47 0.427756 1.40743 0
M  V30 17083 H 1625.43 -1.39109 3.93325 0
M  V30 17084 H 1624.06 -1.58975 2.80939 0
M  V30 17085 H 1623.11 0.640026 3.74977 0
M  V30 17086 H 1624.43 0.62215 4.94905 0
M  V30 17087 H 1623.58 -1.54766 5.86628 0
M  V30 17088 H 1622.32 -1.61236 4.60276 0
M  V30 17089 H 1621.32 0.521826 5.47318 0
M  V30 17090 H 1622.55 0.570146 6.76702 0
M  V30 17091 H 1620.5 -1.63533 6.3529 0
M  V30 17092 H 1620.41 -0.384977 7.55019 0
M  V30 17093 H 1621.68 -1.57112 7.63503 0
M  V30 17094 N 1625.91 -1.50602 0.464402 0
M  V30 17095 C 1626.86 -2.28382 -0.333234 0
M  V30 17096 C 1627.83 -1.3314 -0.993125 0
M  V30 17097 O 1629.01 -1.62072 -1.00685 0
M  V30 17098 C 1626.15 -3.14841 -1.41313 0
M  V30 17099 C 1625.27 -4.25106 -0.768684 0
M  V30 17100 C 1624.4 -4.98833 -1.82591 0
M  V30 17101 C 1623.44 -6.00982 -1.16135 0
M  V30 17102 N 1622.58 -6.68012 -2.16112 0
M  V30 17103 H 1627.42 -2.96096 0.336354 0
M  V30 17104 H 1624.95 -1.46022 0.17772 0
M  V30 17105 H 1626.91 -3.63314 -2.05082 0
M  V30 17106 H 1625.54 -2.49186 -2.05197 0
M  V30 17107 H 1624.59 -3.80395 -0.0185964 0
M  V30 17108 H 1625.91 -4.98204 -0.243759 0
M  V30 17109 H 1625.06 -5.50991 -2.53957 0
M  V30 17110 H 1623.8 -4.25426 -2.38462 0
M  V30 17111 H 1622.8 -5.4809 -0.43328 0
M  V30 17112 H 1624.03 -6.76358 -0.609612 0
M  V30 17113 H 1621.97 -5.97401 -2.71013 0
M  V30 17114 H 1621.89 -7.36963 -1.68586 0
M  V30 17115 H 1623.16 -7.2479 -2.86879 0
M  V30 17116 N 1627.39 -0.19675 -1.56367 0
M  V30 17117 C 1628.64 0.441584 -1.97627 0
M  V30 17118 C 1628.96 1.61514 -1.08368 0
M  V30 17119 O 1628.22 1.95312 -0.123139 0
M  V30 17120 C 1628.52 0.942382 -3.44752 0
M  V30 17121 C 1628.18 -0.117977 -4.50746 0
M  V30 17122 C 1626.85 -0.409332 -4.79456 0
M  V30 17123 C 1629.2 -0.836374 -5.14446 0
M  V30 17124 C 1626.53 -1.42403 -5.69156 0
M  V30 17125 C 1628.88 -1.84024 -6.05242 0
M  V30 17126 C 1627.54 -2.13877 -6.32308 0
M  V30 17127 H 1626.81 0.161587 -0.723167 0
M  V30 17128 H 1629.46 -0.294063 -1.89229 0
M  V30 17129 H 1627.76 1.75633 -3.50229 0
M  V30 17130 H 1629.46 1.44571 -3.74032 0
M  V30 17131 H 1626.05 0.119274 -4.28434 0
M  V30 17132 H 1630.23 -0.62451 -4.92355 0
M  V30 17133 H 1625.49 -1.66122 -5.88399 0
M  V30 17134 H 1629.66 -2.40212 -6.5366 0
M  V30 17135 H 1627.29 -2.92649 -7.01613 0
M  V30 17136 N 1628.87 1.57413 0.0768405 0
M  V30 17137 C 1630.09 1.91224 0.790007 0
M  V30 17138 C 1630.51 0.792232 1.71374 0
M  V30 17139 O 1629.87 -0.234736 1.80984 0
M  V30 17140 C 1629.92 3.24757 1.58793 0
M  V30 17141 O 1629.64 4.3245 0.701329 0
M  V30 17142 C 1631.14 3.72549 2.40254 0
M  V30 17143 H 1628.36 0.63219 0.224893 0
M  V30 17144 H 1630.9 2.04442 0.0486173 0
M  V30 17145 H 1629.06 3.13081 2.28165 0
M  V30 17146 H 1629.47 5.09245 1.2558 0
M  V30 17147 H 1630.95 4.68628 2.91705 0
M  V30 17148 H 1631.42 3.01305 3.1955 0
M  V30 17149 H 1632.03 3.87153 1.76048 0
M  V30 17150 N 1630.34 -0.348112 1.53707 0
M  V30 17151 C 1631.25 -1.45079 1.84361 0
M  V30 17152 C 1632.27 -1.5779 0.733375 0
M  V30 17153 O 1633.45 -1.73353 1.02522 0
M  V30 17154 C 1630.51 -2.80127 2.04278 0
M  V30 17155 C 1629.57 -2.76799 3.28148 0
M  V30 17156 C 1628.81 -4.05406 3.47105 0
M  V30 17157 O 1629.03 -5.02454 2.69992 0
M  V30 17158 O 1627.96 -4.10155 4.40519 0
M  V30 17159 H 1631.79 -1.22093 2.78077 0
M  V30 17160 H 1629.37 -0.539863 1.39305 0
M  V30 17161 H 1631.26 -3.60115 2.18849 0
M  V30 17162 H 1629.93 -3.03055 1.13751 0
M  V30 17163 H 1628.84 -1.95448 3.18984 0
M  V30 17164 H 1630.17 -2.58826 4.18653 0
M  V30 17165 N 1631.82 -1.45363 -0.608876 0
M  V30 17166 C 1632.76 -1.48425 -1.73336 0
M  V30 17167 C 1633.73 -0.340757 -1.58989 0
M  V30 17168 O 1634.92 -0.541066 -1.80568 0
M  V30 17169 C 1632.04 -1.33807 -3.11149 0
M  V30 17170 C 1631.09 -2.52005 -3.44087 0
M  V30 17171 S 1631.92 -4.14477 -3.39071 0
M  V30 17172 C 1633.08 -4.02321 -4.79467 0
M  V30 17173 H 1633.31 -2.43568 -1.70475 0
M  V30 17174 H 1630.85 -1.32931 -0.785418 0
M  V30 17175 H 1632.8 -1.2606 -3.90665 0
M  V30 17176 H 1631.46 -0.401365 -3.11525 0
M  V30 17177 H 1630.66 -2.37699 -4.44427 0
M  V30 17178 H 1630.26 -2.56606 -2.72083 0
M  V30 17179 H 1632.55 -3.67386 -5.6924 0
M  V30 17180 H 1633.49 -5.02569 -4.98829 0
M  V30 17181 H 1633.9 -3.34 -4.55087 0
M  V30 17182 N 1633.3 0.851265 -1.32632 0
M  V30 17183 C 1634.54 1.61951 -1.24705 0
M  V30 17184 C 1634.9 1.91082 0.187497 0
M  V30 17185 O 1636.11 2.65948 0.390552 0
M  V30 17186 C 1634.38 2.90216 -2.08589 0
M  V30 17187 S 1635.94 3.80976 -2.17722 0
M  V30 17188 H 1632.75 0.555443 -0.443852 0
M  V30 17189 H 1635.36 1.00783 -1.6752 0
M  V30 17190 H 1634.06 2.66767 -3.11871 0
M  V30 17191 H 1633.59 3.56399 -1.66564 0
M  V30 17192 H 1635.61 4.78065 -1.32921 0
M  V30 17193 N 1634.78 1.15898 1.06796 0
M  V30 17194 C 1635.73 0.856808 2.16244 0
M  V30 17195 C 1636.72 -0.172075 1.68524 0
M  V30 17196 O 1637.93 -0.0265569 1.7998 0
M  V30 17197 H 1634.3 0.259445 0.705827 0
M  V30 17198 H 1636.27 1.7874 2.38945 0
M  V30 17199 C 1635.02 0.368721 3.45739 0
M  V30 17200 H 1634.34 1.15184 3.82848 0
M  V30 17201 H 1635.78 0.196012 4.23547 0
M  V30 17202 C 1634.24 -0.910802 3.24355 0
M  V30 17203 O 1634.77 -1.98115 3.49447 0
M  V30 17204 N 1632.98 -0.852545 2.77813 0
M  V30 17205 H 1632.53 0.0186646 2.57593 0
M  V30 17206 H 1632.48 -1.70917 2.63884 0
M  V30 17207 N 1636.26 -1.25243 0.956659 0
M  V30 17208 C 1637.22 -2.24054 0.482949 0
M  V30 17209 C 1638.22 -1.55367 -0.41447 0
M  V30 17210 O 1639.41 -1.72912 -0.211475 0
M  V30 17211 C 1636.54 -3.3956 -0.301975 0
M  V30 17212 H 1637.73 -2.67476 1.35634 0
M  V30 17213 H 1635.29 -1.37665 0.740138 0
M  V30 17214 H 1636.02 -3.01561 -1.19294 0
M  V30 17215 H 1635.81 -3.90607 0.341876 0
M  V30 17216 H 1637.3 -4.1293 -0.622807 0
M  V30 17217 N 1637.73 -0.725468 -1.3991 0
M  V30 17218 C 1638.7 -0.0878956 -2.29031 0
M  V30 17219 C 1639.7 0.677105 -1.45849 0
M  V30 17220 O 1640.89 0.507538 -1.66642 0
M  V30 17221 C 1638.02 0.885087 -3.2921 0
M  V30 17222 H 1639.21 -0.872957 -2.86914 0
M  V30 17223 H 1636.77 -0.490715 -1.48397 0
M  V30 17224 H 1637.5 1.69685 -2.76365 0
M  V30 17225 H 1637.29 0.339297 -3.90629 0
M  V30 17226 H 1638.78 1.32806 -3.9592 0
M  V30 17227 N 1639.21 1.50354 -0.472382 0
M  V30 17228 C 1640.63 1.59097 -0.126613 0
M  V30 17229 C 1640.83 1.4804 1.36698 0
M  V30 17230 O 1639.88 1.33956 2.14038 0
M  V30 17231 C 1641.2 2.92958 -0.677957 0
M  V30 17232 C 1642.75 3.06356 -0.6415 0
M  V30 17233 C 1643.22 4.42793 -1.17041 0
M  V30 17234 N 1644.71 4.49208 -1.12988 0
M  V30 17235 C 1645.45 5.53171 -1.50961 0
M  V30 17236 N 1644.94 6.64381 -1.96391 0
M  V30 17237 N 1646.74 5.43722 -1.42556 0
M  V30 17238 H 1638.89 1.55785 -1.44378 0
M  V30 17239 H 1641.15 0.736295 -0.597138 0
M  V30 17240 H 1640.86 3.06529 -1.72433 0
M  V30 17241 H 1640.73 3.77002 -0.122247 0
M  V30 17242 H 1643.12 2.92431 0.395964 0
M  V30 17243 H 1643.2 2.24066 -1.23403 0
M  V30 17244 H 1642.84 4.57466 -2.20651 0
M  V30 17245 H 1642.77 5.23677 -0.554086 0
M  V30 17246 H 1645.26 3.69407 -0.796692 0
M  V30 17247 H 1645.58 7.39772 -2.23511 0
M  V30 17248 H 1643.92 6.65498 -2.00344 0
M  V30 17249 H 1647.11 4.55729 -1.06905 0
M  V30 17250 H 1647.28 6.24625 -1.72476 0
M  V30 17251 N 1640.69 0.205039 1.56261 0
M  V30 17252 C 1641.94 -0.430245 1.97467 0
M  V30 17253 C 1642.26 -1.6146 1.09342 0
M  V30 17254 O 1641.53 -1.95188 0.166836 0
M  V30 17255 H 1640.11 -0.161945 0.729234 0
M  V30 17256 H 1642.77 0.294089 1.92668 0
M  V30 17257 H 1641.87 -0.767699 3.02511 0
M  V30 17258 N 1642.17 -1.57451 -0.0684915 0
M  V30 17259 C 1643.1 -2.06954 -1.0813 0
M  V30 17260 C 1644.08 -0.963716 -1.40166 0
M  V30 17261 O 1645.27 -1.23664 -1.49736 0
M  V30 17262 C 1642.4 -2.51622 -2.39381 0
M  V30 17263 C 1641.35 -3.66111 -2.2169 0
M  V30 17264 C 1640.68 -3.96846 -3.58354 0
M  V30 17265 C 1641.98 -4.96036 -1.63541 0
M  V30 17266 H 1643.67 -2.91822 -0.66936 0
M  V30 17267 H 1641.22 -1.40387 -0.320533 0
M  V30 17268 H 1643.17 -2.84867 -3.1053 0
M  V30 17269 H 1641.89 -1.63788 -2.82562 0
M  V30 17270 H 1640.55 -3.33155 -1.52982 0
M  V30 17271 H 1640.2 -3.06137 -3.9911 0
M  V30 17272 H 1639.9 -4.73939 -3.47354 0
M  V30 17273 H 1641.42 -4.3259 -4.30927 0
M  V30 17274 H 1642.84 -5.27491 -2.24559 0
M  V30 17275 H 1641.23 -5.77474 -1.63228 0
M  V30 17276 H 1642.3 -4.81208 -0.597199 0
M  V30 17277 N 1643.65 0.339955 -1.5389 0
M  V30 17278 C 1644.56 1.441 -1.85128 0
M  V30 17279 C 1645.57 1.57399 -0.741733 0
M  V30 17280 O 1646.75 1.72807 -1.0344 0
M  V30 17281 C 1643.81 2.7904 -2.05761 0
M  V30 17282 C 1642.88 2.75055 -3.29611 0
M  V30 17283 C 1642.11 4.0356 -3.4925 0
M  V30 17284 O 1642.33 5.01015 -2.72653 0
M  V30 17285 O 1641.27 4.07813 -4.42687 0
M  V30 17286 H 1645.09 1.20616 -2.78721 0
M  V30 17287 H 1642.68 0.532468 -1.39589 0
M  V30 17288 H 1644.56 3.5895 -2.20756 0
M  V30 17289 H 1643.23 3.02447 -1.15357 0
M  V30 17290 H 1642.14 1.93753 -3.20016 0
M  V30 17291 H 1643.47 2.56602 -4.20019 0
M  V30 17292 N 1645.13 1.45684 0.601159 0
M  V30 17293 C 1646.37 1.51248 1.35999 0
M  V30 17294 C 1646.73 0.154593 1.91778 0
M  V30 17295 O 1646.02 -0.834366 1.72479 0
M  V30 17296 C 1646.21 2.53235 2.52204 0
M  V30 17297 C 1646.04 3.98807 2.07806 0
M  V30 17298 C 1644.81 4.66708 1.93678 0
M  V30 17299 C 1647.01 4.87153 1.64883 0
M  V30 17300 N 1644.99 5.96975 1.43157 0
M  V30 17301 C 1646.36 6.07098 1.25823 0
M  V30 17302 C 1648.42 4.7396 1.52533 0
M  V30 17303 C 1647.12 7.15311 0.756454 0
M  V30 17304 C 1649.15 5.82227 1.0376 0
M  V30 17305 C 1648.51 7.01332 0.656674 0
M  V30 17306 H 1644.61 0.608376 0.491327 0
M  V30 17307 H 1647.19 1.82194 0.686534 0
M  V30 17308 H 1645.36 2.24229 3.17137 0
M  V30 17309 H 1647.1 2.48907 3.19104 0
M  V30 17310 H 1643.85 4.21955 2.15061 0
M  V30 17311 H 1644.27 6.6626 1.20111 0
M  V30 17312 H 1648.92 3.82284 1.80607 0
M  V30 17313 H 1646.63 8.06771 0.463273 0
M  V30 17314 H 1650.22 5.74054 0.946207 0
M  V30 17315 H 1649.1 7.83682 0.285073 0
M  V30 17316 N 1646.6 -0.84422 1.33082 0
M  V30 17317 C 1647.85 -1.59404 1.23585 0
M  V30 17318 C 1648.17 -1.94593 -0.198208 0
M  V30 17319 O 1649.37 -2.68307 -0.415138 0
M  V30 17320 C 1647.83 -2.87489 2.16513 0
M  V30 17321 C 1647.44 -2.59685 3.65059 0
M  V30 17322 C 1649.18 -3.6551 2.15877 0
M  V30 17323 C 1647.09 -3.83834 4.49917 0
M  V30 17324 H 1646.02 -0.598191 0.459003 0
M  V30 17325 H 1648.67 -0.931299 1.58111 0
M  V30 17326 H 1647.05 -3.55276 1.74913 0
M  V30 17327 H 1648.22 -2.00143 4.15065 0
M  V30 17328 H 1646.54 -1.94977 3.6793 0
M  V30 17329 H 1649.14 -4.57654 2.76509 0
M  V30 17330 H 1649.48 -4.00031 1.15244 0
M  V30 17331 H 1650.01 -3.0464 2.55811 0
M  V30 17332 H 1646.75 -3.54448 5.51404 0
M  V30 17333 H 1646.27 -4.42734 4.04656 0
M  V30 17334 H 1647.95 -4.51468 4.63449 0
M  V30 17335 N 1648.08 -1.16463 -1.0618 0
M  V30 17336 C 1649.33 -0.944975 -1.78647 0
M  V30 17337 C 1649.65 0.528486 -1.87702 0
M  V30 17338 O 1648.92 1.38391 -1.38653 0
M  V30 17339 H 1647.5 -0.346637 -0.661704 0
M  V30 17340 H 1650.16 -1.46752 -1.28257 0
M  V30 17341 H 1649.26 -1.36469 -2.80683 0
M  V30 17342 N 1649.56 1.24734 -0.963288 0
M  V30 17343 C 1650.51 2.27557 -0.481704 0
M  V30 17344 C 1651.5 1.63245 0.452488 0
M  V30 17345 O 1652.71 1.76981 0.328263 0
M  V30 17346 H 1649.08 0.73936 -0.137297 0
M  V30 17347 H 1651.05 2.65555 -1.361 0
M  V30 17348 C 1649.8 3.47023 0.216806 0
M  V30 17349 H 1649.13 3.9675 -0.492916 0
M  V30 17350 H 1650.57 4.20828 0.517659 0
M  V30 17351 C 1649.02 3.04466 1.44229 0
M  V30 17352 O 1649.55 3.11238 2.53956 0
M  V30 17353 N 1647.76 2.59563 1.30674 0
M  V30 17354 H 1647.31 2.54252 0.41395 0
M  V30 17355 H 1647.27 2.31453 2.12783 0
M  V30 17356 N 1651.04 0.732878 1.39523 0
M  V30 17357 C 1651.98 0.0915149 2.30618 0
M  V30 17358 C 1652.95 -0.731943 1.49103 0
M  V30 17359 O 1654.14 -0.692343 1.77796 0
M  V30 17360 C 1651.28 -0.811387 3.35426 0
M  V30 17361 C 1650.39 0.0244578 4.31993 0
M  V30 17362 C 1649.53 -0.879521 5.23868 0
M  V30 17363 C 1648.57 -0.0387974 6.12088 0
M  V30 17364 N 1647.7 -0.898593 6.96326 0
M  V30 17365 H 1652.54 0.87399 2.84895 0
M  V30 17366 H 1650.08 0.442659 1.40282 0
M  V30 17367 H 1652.04 -1.3493 3.94778 0
M  V30 17368 H 1650.67 -1.55986 2.8261 0
M  V30 17369 H 1649.72 0.679762 3.74277 0
M  V30 17370 H 1651.03 0.674606 4.94217 0
M  V30 17371 H 1650.19 -1.48535 5.88237 0
M  V30 17372 H 1648.93 -1.56345 4.6196 0
M  V30 17373 H 1647.93 0.579847 5.46734 0
M  V30 17374 H 1649.16 0.641887 6.7606 0
M  V30 17375 H 1647.1 -1.56786 6.36988 0
M  V30 17376 H 1647.02 -0.304876 7.55385 0
M  V30 17377 H 1648.29 -1.49005 7.65126 0
M  V30 17378 N 1652.52 -1.50101 0.480349 0
M  V30 17379 C 1653.76 -2.01567 -0.073165 0
M  V30 17380 C 1654.08 -1.36657 -1.39944 0
M  V30 17381 O 1655.28 -1.79332 -2.03844 0
M  V30 17382 C 1653.74 -3.59445 -0.180889 0
M  V30 17383 C 1653.35 -4.33318 1.1375 0
M  V30 17384 C 1655.09 -4.18923 -0.685868 0
M  V30 17385 C 1653 -5.83003 0.99307 0
M  V30 17386 H 1651.93 -0.753358 -0.0311179 0
M  V30 17387 H 1654.58 -1.72829 0.616648 0
M  V30 17388 H 1652.96 -3.84811 -0.934693 0
M  V30 17389 H 1654.14 -4.1967 1.90299 0
M  V30 17390 H 1652.45 -3.85492 1.57431 0
M  V30 17391 H 1655.05 -5.28512 -0.811109 0
M  V30 17392 H 1655.39 -3.80916 -1.67955 0
M  V30 17393 H 1655.92 -3.97799 0.0108117 0
M  V30 17394 H 1652.66 -6.25499 1.9604 0
M  V30 17395 H 1652.18 -5.992 0.268128 0
M  V30 17396 H 1653.86 -6.4359 0.663417 0
M  V30 17397 N 1653.99 -0.213323 -1.5615 0
M  V30 17398 C 1655.22 0.428746 -2.0292 0
M  V30 17399 C 1655.64 1.53137 -1.09227 0
M  V30 17400 O 1655 1.81128 -0.0789684 0
M  V30 17401 C 1655.05 0.945231 -3.47991 0
M  V30 17402 O 1654.15 2.05709 -3.57432 0
M  V30 17403 H 1653.49 0.0980619 -0.656719 0
M  V30 17404 H 1656.02 -0.329548 -2.01929 0
M  V30 17405 H 1656.03 1.25717 -3.88149 0
M  V30 17406 H 1654.71 0.138161 -4.1567 0
M  V30 17407 H 1653.29 1.75242 -3.29158 0
M  V30 17408 N 1655.47 1.57485 0.0601405 0
M  V30 17409 C 1656.42 2.04487 1.07023 0
M  V30 17410 C 1657.39 0.927738 1.37776 0
M  V30 17411 O 1658.57 1.19621 1.48645 0
M  V30 17412 C 1655.71 2.50338 2.37539 0
M  V30 17413 C 1654.83 3.75717 2.13215 0
M  V30 17414 C 1653.96 4.10304 3.37378 0
M  V30 17415 C 1653 5.2869 3.0847 0
M  V30 17416 N 1652.14 5.58858 4.24996 0
M  V30 17417 H 1656.98 2.90544 0.662444 0
M  V30 17418 H 1654.52 1.43676 0.315515 0
M  V30 17419 H 1656.47 2.74978 3.13756 0
M  V30 17420 H 1655.1 1.67242 2.76098 0
M  V30 17421 H 1654.16 3.58348 1.27636 0
M  V30 17422 H 1655.47 4.62068 1.87869 0
M  V30 17423 H 1654.62 4.35907 4.21983 0
M  V30 17424 H 1653.36 3.22544 3.6581 0
M  V30 17425 H 1652.37 5.02871 2.22262 0
M  V30 17426 H 1653.59 6.18077 2.81349 0
M  V30 17427 H 1651.54 4.74058 4.53437 0
M  V30 17428 H 1651.45 6.39652 4.02965 0
M  V30 17429 H 1652.72 5.89019 5.10565 0
M  V30 17430 N 1656.95 -0.331789 1.54068 0
M  V30 17431 C 1658.2 -1.07069 1.71879 0
M  V30 17432 C 1658.53 -1.88275 0.488139 0
M  V30 17433 O 1657.78 -1.88383 -0.53013 0
M  V30 17434 C 1658.08 -2.03015 2.94142 0
M  V30 17435 C 1657.75 -1.38029 4.29254 0
M  V30 17436 C 1656.41 -1.20036 4.65988 0
M  V30 17437 C 1658.76 -0.913164 5.13138 0
M  V30 17438 C 1656.09 -0.539664 5.84213 0
M  V30 17439 C 1658.44 -0.266329 6.32039 0
M  V30 17440 C 1657.1 -0.0741787 6.67459 0
M  V30 17441 H 1656.37 -0.391795 0.62895 0
M  V30 17442 H 1659.02 -0.348705 1.88298 0
M  V30 17443 H 1657.33 -2.81636 2.72375 0
M  V30 17444 H 1659.02 -2.60201 3.05117 0
M  V30 17445 H 1655.61 -1.53034 4.00348 0
M  V30 17446 H 1659.8 -1.03999 4.85281 0
M  V30 17447 H 1655.05 -0.379516 6.10221 0
M  V30 17448 H 1659.23 0.103668 6.96323 0
M  V30 17449 H 1656.85 0.43981 7.58927 0
M  V30 17450 N 1658.43 -1.46001 -0.593424 0
M  V30 17451 C 1659.68 -1.50025 -1.34816 0
M  V30 17452 C 1659.99 -0.151905 -1.95009 0
M  V30 17453 O 1661.2 -0.0698751 -2.7141 0
M  V30 17454 C 1659.65 -2.643 -2.44282 0
M  V30 17455 C 1659.26 -4.05509 -1.90438 0
M  V30 17456 C 1661 -2.77584 -3.21165 0
M  V30 17457 C 1658.91 -5.11142 -2.97469 0
M  V30 17458 H 1657.84 -0.558299 -0.506772 0
M  V30 17459 H 1660.49 -1.72182 -0.634484 0
M  V30 17460 H 1658.87 -2.35453 -3.18399 0
M  V30 17461 H 1660.05 -4.44099 -1.22935 0
M  V30 17462 H 1658.36 -3.96798 -1.26256 0
M  V30 17463 H 1660.96 -3.53673 -4.01023 0
M  V30 17464 H 1661.3 -1.84718 -3.73075 0
M  V30 17465 H 1661.84 -3.06026 -2.54151 0
M  V30 17466 H 1658.58 -6.05764 -2.5046 0
M  V30 17467 H 1658.1 -4.77107 -3.63495 0
M  V30 17468 H 1659.77 -5.36516 -3.61607 0
M  V30 17469 N 1659.91 0.83715 -1.33527 0
M  V30 17470 C 1661.18 1.57727 -1.15678 0
M  V30 17471 C 1661.56 2.09286 0.276178 0
M  V30 17472 O 1660.91 1.89589 1.27547 0
M  V30 17473 C 1661.12 2.70978 -2.19936 0
M  V30 17474 C 1662.47 3.40114 -2.5418 0
M  V30 17475 O 1663.49 2.81221 -2.18616 0
M  V30 17476 O 1662.35 4.46431 -3.15217 0
M  V30 17477 H 1659.45 0.69545 -0.447525 0
M  V30 17478 H 1661.99 0.879756 -1.45115 0
M  V30 17479 H 1660.76 2.30532 -3.16181 0
M  V30 17480 H 1660.39 3.48393 -1.91594 0
M  V30 17481 N 1661.38 1.17024 1.05561 0
M  V30 17482 C 1662.63 0.967739 1.78903 0
M  V30 17483 C 1662.99 -0.498615 1.85827 0
M  V30 17484 O 1662.28 -1.36528 1.34428 0
M  V30 17485 C 1662.47 1.53798 3.22616 0
M  V30 17486 C 1662.3 3.05826 3.29698 0
M  V30 17487 C 1661.07 3.74527 3.39201 0
M  V30 17488 C 1663.27 4.03456 3.18947 0
M  V30 17489 N 1661.25 5.14195 3.35376 0
M  V30 17490 C 1662.62 5.29553 3.22449 0
M  V30 17491 C 1664.68 3.95179 3.02883 0
M  V30 17492 C 1663.38 6.48333 3.11538 0
M  V30 17493 C 1665.41 5.13538 2.93313 0
M  V30 17494 C 1664.77 6.38519 2.97444 0
M  V30 17495 H 1660.87 0.407976 0.667143 0
M  V30 17496 H 1663.45 1.48545 1.25867 0
M  V30 17497 H 1661.62 1.04666 3.74032 0
M  V30 17498 H 1663.35 1.27248 3.84174 0
M  V30 17499 H 1660.11 3.25191 3.44308 0
M  V30 17500 H 1660.53 5.87196 3.36942 0
M  V30 17501 H 1665.18 2.99399 2.9853 0
M  V30 17502 H 1662.89 7.44327 3.14647 0
M  V30 17503 H 1666.48 5.08911 2.8196 0
M  V30 17504 H 1665.36 7.28566 2.90107 0
M  V30 17505 N 1662.86 -1.24221 0.969889 0
M  V30 17506 C 1663.8 -2.2379 0.446447 0
M  V30 17507 C 1664.77 -1.55333 -0.480658 0
M  V30 17508 O 1665.96 -1.83953 -0.411531 0
M  V30 17509 C 1663.08 -3.36831 -0.35529 0
M  V30 17510 C 1662.13 -4.23386 0.514419 0
M  V30 17511 S 1662.96 -4.98501 1.95595 0
M  V30 17512 C 1664.12 -6.14999 1.16306 0
M  V30 17513 H 1664.35 -2.67844 1.29023 0
M  V30 17514 H 1661.89 -1.33536 0.775086 0
M  V30 17515 H 1663.84 -4.02391 -0.811882 0
M  V30 17516 H 1662.5 -2.91332 -1.17407 0
M  V30 17517 H 1661.7 -5.03898 -0.101254 0
M  V30 17518 H 1661.3 -3.6284 0.906829 0
M  V30 17519 H 1663.59 -6.76202 0.419162 0
M  V30 17520 H 1664.53 -6.80931 1.94264 0
M  V30 17521 H 1664.94 -5.6031 0.68647 0
M  V30 17522 N 1664.34 -0.740267 -1.39132 0
M  V30 17523 C 1665.29 -0.103744 -2.30567 0
M  V30 17524 C 1666.26 0.724026 -1.49489 0
M  V30 17525 O 1667.44 0.682904 -1.7816 0
M  V30 17526 C 1664.58 0.793587 -3.35851 0
M  V30 17527 C 1663.7 -0.0473671 -4.31974 0
M  V30 17528 C 1662.83 0.851726 -5.24327 0
M  V30 17529 C 1661.87 0.00633633 -6.121 0
M  V30 17530 N 1661.01 0.861652 -6.96793 0
M  V30 17531 H 1665.85 -0.889087 -2.84428 0
M  V30 17532 H 1663.38 -0.450093 -1.40045 0
M  V30 17533 H 1665.34 1.32834 -3.95488 0
M  V30 17534 H 1663.97 1.54485 -2.83433 0
M  V30 17535 H 1663.02 -0.699601 -3.73911 0
M  V30 17536 H 1664.34 -0.700806 -4.93852 0
M  V30 17537 H 1663.49 1.45413 -5.89016 0
M  V30 17538 H 1662.23 1.53893 -4.62783 0
M  V30 17539 H 1661.23 -0.608833 -5.46419 0
M  V30 17540 H 1662.46 -0.677731 -6.7571 0
M  V30 17541 H 1660.4 1.53405 -6.37811 0
M  V30 17542 H 1660.32 0.264812 -7.55536 0
M  V30 17543 H 1661.59 1.44945 -7.65905 0
M  V30 17544 N 1665.82 1.49844 -0.488302 0
M  V30 17545 C 1667.04 2.07313 0.0600937 0
M  V30 17546 C 1667.47 1.3478 1.3121 0
M  V30 17547 O 1666.83 0.400634 1.76818 0
M  V30 17548 C 1666.87 3.59268 0.309658 0
M  V30 17549 O 1665.98 3.88381 1.38688 0
M  V30 17550 H 1665.32 0.663681 -0.0205947 0
M  V30 17551 H 1667.85 1.92818 -0.684284 0
M  V30 17552 H 1667.86 4.04344 0.545 0
M  V30 17553 H 1666.53 4.11474 -0.605146 0
M  V30 17554 H 1665.11 3.55128 1.13749 0
M  V30 17555 N 1667.3 0.221601 1.56034 0
M  V30 17556 C 1668.23 -0.728495 2.1626 0
M  V30 17557 C 1669.21 -1.19097 1.107 0
M  V30 17558 O 1670.39 -1.27371 1.38957 0
M  V30 17559 C 1667.52 -1.987 2.74292 0
M  V30 17560 C 1666.56 -1.66449 3.92679 0
M  V30 17561 S 1667.4 -0.78924 5.29652 0
M  V30 17562 C 1668.55 -2.05731 5.91122 0
M  V30 17563 H 1668.79 -0.216607 2.9651 0
M  V30 17564 H 1666.32 0.0062956 1.54399 0
M  V30 17565 H 1668.28 -2.70962 3.08366 0
M  V30 17566 H 1666.94 -2.47001 1.94034 0
M  V30 17567 H 1666.13 -2.59955 4.31786 0
M  V30 17568 H 1665.73 -1.0225 3.59751 0
M  V30 17569 H 1668.03 -3.00728 6.07099 0
M  V30 17570 H 1668.97 -1.71014 6.87139 0
M  V30 17571 H 1669.38 -2.19786 5.19956 0
M  V30 17572 N 1668.77 -1.57515 -0.0517878 0
M  V30 17573 C 1669.7 -2.0809 -1.05929 0
M  V30 17574 C 1670.69 -0.978529 -1.39136 0
M  V30 17575 O 1671.87 -1.25245 -1.48416 0
M  V30 17576 C 1669 -2.54147 -2.36699 0
M  V30 17577 C 1667.95 -3.68442 -2.17794 0
M  V30 17578 C 1667.28 -4.00624 -3.54125 0
M  V30 17579 C 1668.58 -4.97743 -1.5827 0
M  V30 17580 H 1670.27 -2.92515 -0.638371 0
M  V30 17581 H 1667.82 -1.40719 -0.305625 0
M  V30 17582 H 1669.77 -2.88145 -3.07491 0
M  V30 17583 H 1668.5 -1.66775 -2.80809 0
M  V30 17584 H 1667.16 -3.34758 -1.4944 0
M  V30 17585 H 1666.8 -3.10353 -3.95841 0
M  V30 17586 H 1666.5 -4.77597 -3.42308 0
M  V30 17587 H 1668.03 -4.37136 -4.26315 0
M  V30 17588 H 1669.44 -5.29843 -2.18951 0
M  V30 17589 H 1667.84 -5.79173 -1.57094 0
M  V30 17590 H 1668.91 -4.81815 -0.546127 0
M  V30 17591 N 1670.25 0.323614 -1.54242 0
M  V30 17592 C 1671.66 0.898051 -1.63682 0
M  V30 17593 C 1672.02 1.88882 -0.530861 0
M  V30 17594 O 1671.14 2.13772 0.336245 0
M  V30 17595 C 1671.74 1.63561 -2.96704 0
M  V30 17596 C 1670.29 2.15877 -3.08341 0
M  V30 17597 C 1669.44 0.984145 -2.59249 0
M  V30 17598 H 1672.39 0.101198 -1.58377 0
M  V30 17599 H 1672.41 2.49982 -2.86861 0
M  V30 17600 H 1671.93 0.914265 -3.77177 0
M  V30 17601 H 1670.03 2.91127 -2.32542 0
M  V30 17602 H 1670.14 2.40881 -4.14141 0
M  V30 17603 H 1668.5 1.3633 -2.15143 0
M  V30 17604 H 1669.29 0.277118 -3.4218 0
M  V30 17605 N 1671.73 1.46313 0.585673 0
M  V30 17606 C 1672.66 1.52683 1.7094 0
M  V30 17607 C 1673.68 0.415447 1.5741 0
M  V30 17608 O 1674.87 0.683657 1.64889 0
M  V30 17609 C 1671.97 1.38822 3.09163 0
M  V30 17610 C 1671.14 2.64027 3.48724 0
M  V30 17611 C 1670.2 2.44407 4.65995 0
M  V30 17612 O 1669.22 3.18118 4.72006 0
M  V30 17613 N 1670.43 1.50381 5.60683 0
M  V30 17614 H 1673.19 2.49573 1.65932 0
M  V30 17615 H 1670.75 1.42332 0.771573 0
M  V30 17616 H 1672.74 1.23474 3.85404 0
M  V30 17617 H 1671.31 0.501247 3.08555 0
M  V30 17618 H 1670.53 2.94338 2.62219 0
M  V30 17619 H 1671.82 3.47206 3.71921 0
M  V30 17620 H 1671.22 0.895917 5.5856 0
M  V30 17621 H 1669.78 1.40997 6.36367 0
M  V30 17622 N 1673.21 -0.830057 1.33969 0
M  V30 17623 C 1674.17 -1.92206 1.24858 0
M  V30 17624 C 1675.17 -1.59946 0.16549 0
M  V30 17625 O 1676.36 -1.6912 0.417629 0
M  V30 17626 C 1673.49 -3.28082 0.926029 0
M  V30 17627 H 1674.69 -2.01708 2.21932 0
M  V30 17628 H 1672.24 -1.02319 1.18154 0
M  V30 17629 H 1672.98 -3.24273 -0.0418364 0
M  V30 17630 H 1672.76 -3.52878 1.70938 0
M  V30 17631 H 1674.25 -4.08065 0.887263 0
M  V30 17632 N 1674.69 -1.17582 -1.04939 0
M  V30 17633 C 1675.62 -0.852608 -2.12752 0
M  V30 17634 C 1676.63 0.14607 -1.62143 0
M  V30 17635 O 1677.82 -0.0805751 -1.78318 0
M  V30 17636 C 1674.92 -0.251083 -3.37969 0
M  V30 17637 C 1674.09 -1.29325 -4.17844 0
M  V30 17638 C 1673.15 -0.709025 -5.21401 0
M  V30 17639 O 1672.18 -1.38149 -5.52181 0
M  V30 17640 N 1673.38 0.497716 -5.78362 0
M  V30 17641 H 1676.15 -1.78054 -2.41074 0
M  V30 17642 H 1673.71 -1.07502 -1.21058 0
M  V30 17643 H 1675.7 0.15312 -4.0441 0
M  V30 17644 H 1674.27 0.580684 -3.07159 0
M  V30 17645 H 1673.49 -1.87311 -3.46855 0
M  V30 17646 H 1674.78 -1.99614 -4.68008 0
M  V30 17647 H 1674.18 1.06196 -5.55643 0
M  V30 17648 H 1672.73 0.843951 -6.46313 0
M  V30 17649 N 1676.17 1.23705 -0.976463 0
M  V30 17650 C 1677.1 2.2734 -0.532809 0
M  V30 17651 C 1678.08 1.64523 0.432012 0
M  V30 17652 O 1679.26 1.9144 0.326233 0
M  V30 17653 C 1676.39 3.46887 0.169374 0
M  V30 17654 C 1675.35 4.22031 -0.712336 0
M  V30 17655 C 1674.67 5.34561 0.121838 0
M  V30 17656 C 1675.97 4.8244 -2.00123 0
M  V30 17657 H 1677.67 2.64702 -1.39904 0
M  V30 17658 H 1675.21 1.27244 -0.674156 0
M  V30 17659 H 1677.16 4.18529 0.491028 0
M  V30 17660 H 1675.89 3.08574 1.07002 0
M  V30 17661 H 1674.55 3.522 -1.01739 0
M  V30 17662 H 1674.2 4.92489 1.0229 0
M  V30 17663 H 1673.9 5.85758 -0.464962 0
M  V30 17664 H 1675.42 6.09027 0.437963 0
M  V30 17665 H 1676.83 5.46111 -1.7446 0
M  V30 17666 H 1675.23 5.43906 -2.53548 0
M  V30 17667 H 1676.3 4.03405 -2.69059 0
M  V30 17668 N 1677.64 0.747635 1.38738 0
M  V30 17669 C 1678.59 0.11597 2.30508 0
M  V30 17670 C 1679.56 -0.716088 1.49871 0
M  V30 17671 O 1680.75 -0.673446 1.7852 0
M  V30 17672 C 1677.89 -0.775765 3.36268 0
M  V30 17673 C 1677 0.070275 4.31943 0
M  V30 17674 C 1676.13 -0.823908 5.24772 0
M  V30 17675 C 1675.17 0.0261249 6.12094 0
M  V30 17676 N 1674.31 -0.824688 6.9724 0
M  V30 17677 H 1679.15 0.904158 2.83952 0
M  V30 17678 H 1676.69 0.457513 1.39804 0
M  V30 17679 H 1678.64 -1.30735 3.96187 0
M  V30 17680 H 1677.27 -1.5298 2.84248 0
M  V30 17681 H 1676.33 0.719421 3.73535 0
M  V30 17682 H 1677.64 0.726987 4.93474 0
M  V30 17683 H 1676.79 -1.42287 5.89779 0
M  V30 17684 H 1675.53 -1.51437 4.63593 0
M  V30 17685 H 1674.54 0.637803 5.46088 0
M  V30 17686 H 1675.76 0.713556 6.75341 0
M  V30 17687 H 1673.71 -1.50021 6.38616 0
M  V30 17688 H 1673.62 -0.22474 7.55666 0
M  V30 17689 H 1674.89 -1.40882 7.66663 0
M  V30 17690 N 1679.12 -1.49583 0.496242 0
M  V30 17691 C 1680.37 -2.02738 -0.050037 0
M  V30 17692 C 1680.7 -1.37556 -1.37083 0
M  V30 17693 O 1679.98 -0.50964 -1.87704 0
M  V30 17694 C 1680.26 -3.59501 -0.207575 0
M  V30 17695 C 1680.11 -4.35218 1.13601 0
M  V30 17696 C 1681.43 -4.29715 -0.950443 0
M  V30 17697 H 1678.55 -0.736811 -0.0167105 0
M  V30 17698 H 1681.19 -1.78654 0.646728 0
M  V30 17699 H 1679.34 -3.80152 -0.801033 0
M  V30 17700 H 1681.01 -4.26075 1.76798 0
M  V30 17701 H 1679.26 -3.97964 1.72648 0
M  V30 17702 H 1679.93 -5.43247 0.979142 0
M  V30 17703 H 1682.4 -4.1369 -0.447173 0
M  V30 17704 H 1681.28 -5.39159 -1.02951 0
M  V30 17705 H 1681.54 -3.94627 -1.99304 0
M  V30 17706 N 1680.6 -0.229873 -1.55915 0
M  V30 17707 C 1681.55 0.676809 -2.20653 0
M  V30 17708 C 1682.52 1.18412 -1.16481 0
M  V30 17709 O 1683.7 1.2417 -1.44867 0
M  V30 17710 C 1680.84 1.87567 -2.89677 0
M  V30 17711 C 1679.95 1.40648 -4.08463 0
M  V30 17712 C 1679.09 2.56356 -4.65247 0
M  V30 17713 C 1678.13 2.06215 -5.76318 0
M  V30 17714 N 1677.27 3.15226 -6.27357 0
M  V30 17715 H 1682.11 0.118035 -2.97766 0
M  V30 17716 H 1679.64 0.0465042 -1.47026 0
M  V30 17717 H 1681.6 2.57968 -3.27884 0
M  V30 17718 H 1680.23 2.40719 -2.15067 0
M  V30 17719 H 1679.28 0.597104 -3.75684 0
M  V30 17720 H 1680.59 0.998877 -4.88696 0
M  V30 17721 H 1679.75 3.34827 -5.05941 0
M  V30 17722 H 1678.49 3.0041 -3.84194 0
M  V30 17723 H 1677.49 1.26209 -5.35118 0
M  V30 17724 H 1678.72 1.63151 -6.59211 0
M  V30 17725 H 1676.66 3.58746 -5.49215 0
M  V30 17726 H 1676.58 2.78744 -7.02736 0
M  V30 17727 H 1677.85 3.93807 -6.72708 0
M  V30 17728 N 1682.08 1.5754 0.0434337 0
M  V30 17729 C 1683.31 1.92577 0.748182 0
M  V30 17730 C 1683.72 0.826758 1.7018 0
M  V30 17731 O 1683.06 -0.206713 1.82533 0
M  V30 17732 C 1683.12 3.23309 1.57199 0
M  V30 17733 C 1682.78 4.50213 0.784705 0
M  V30 17734 C 1683.78 5.1982 0.091305 0
M  V30 17735 C 1681.47 4.96767 0.74349 0
M  V30 17736 C 1683.46 6.34251 -0.632768 0
M  V30 17737 C 1681.15 6.11098 0.0156621 0
M  V30 17738 C 1682.15 6.79694 -0.67124 0
M  V30 17739 O 1681.83 7.91839 -1.38728 0
M  V30 17740 H 1681.57 0.64049 0.216213 0
M  V30 17741 H 1684.12 2.05398 0.00937223 0
M  V30 17742 H 1682.35 3.06775 2.35428 0
M  V30 17743 H 1684.04 3.43779 2.15802 0
M  V30 17744 H 1684.8 4.84865 0.11427 0
M  V30 17745 H 1680.68 4.43229 1.26763 0
M  V30 17746 H 1684.23 6.87728 -1.16947 0
M  V30 17747 H 1680.12 6.45499 -0.00927628 0
M  V30 17748 H 1680.89 8.08119 -1.29947 0
M  V30 17749 N 1683.56 -0.31543 1.54411 0
M  V30 17750 C 1684.49 -1.39353 1.87358 0
M  V30 17751 C 1685.47 -1.53586 0.731118 0
M  V30 17752 O 1686.65 -1.67332 0.98558 0
M  V30 17753 C 1683.78 -2.75998 2.10814 0
M  V30 17754 C 1682.74 -2.76545 3.2666 0
M  V30 17755 C 1682.06 -4.16343 3.35504 0
M  V30 17756 C 1683.36 -2.39567 4.64117 0
M  V30 17757 H 1685.06 -1.12028 2.77651 0
M  V30 17758 H 1682.6 -0.537476 1.33593 0
M  V30 17759 H 1684.55 -3.51491 2.32447 0
M  V30 17760 H 1683.28 -3.04817 1.17278 0
M  V30 17761 H 1681.94 -2.03507 3.04927 0
M  V30 17762 H 1681.59 -4.42316 2.39512 0
M  V30 17763 H 1681.29 -4.17613 4.13368 0
M  V30 17764 H 1682.81 -4.93637 3.59381 0
M  V30 17765 H 1684.22 -3.04775 4.85577 0
M  V30 17766 H 1682.62 -2.52075 5.4459 0
M  V30 17767 H 1683.69 -1.34707 4.65813 0
M  V30 17768 N 1685.03 -1.46622 -0.577906 0
M  V30 17769 C 1685.98 -1.57926 -1.70769 0
M  V30 17770 C 1686.98 -0.447509 -1.63382 0
M  V30 17771 O 1688.18 -0.624559 -1.68817 0
M  V30 17772 H 1684.56 -0.496618 -0.56469 0
M  V30 17773 H 1686.53 -2.52908 -1.58367 0
M  V30 17774 C 1685.28 -1.59124 -3.09152 0
M  V30 17775 H 1684.6 -2.45549 -3.15509 0
M  V30 17776 H 1686.04 -1.71087 -3.8795 0
M  V30 17777 C 1684.5 -0.320734 -3.3537 0
M  V30 17778 O 1685.03 0.586999 -3.97388 0
M  V30 17779 N 1683.24 -0.207156 -2.89861 0
M  V30 17780 H 1682.78 -0.946744 -2.39572 0
M  V30 17781 H 1682.74 0.642028 -3.07775 0
M  V30 17782 N 1686.51 0.822941 -1.34408 0
M  V30 17783 C 1687.42 1.96567 -1.28056 0
M  V30 17784 C 1688.44 1.72979 -0.188251 0
M  V30 17785 O 1689.61 1.97084 -0.41472 0
M  V30 17786 C 1686.68 3.30865 -1.03583 0
M  V30 17787 C 1685.74 3.67461 -2.2197 0
M  V30 17788 C 1684.97 4.9535 -1.98655 0
M  V30 17789 O 1685.2 5.62521 -0.944785 0
M  V30 17790 O 1684.13 5.29824 -2.85605 0
M  V30 17791 H 1687.96 2.0487 -2.24192 0
M  V30 17792 H 1685.54 0.958334 -1.14614 0
M  V30 17793 H 1687.42 4.11298 -0.917162 0
M  V30 17794 H 1686.1 3.2353 -0.104868 0
M  V30 17795 H 1685.01 2.87472 -2.39396 0
M  V30 17796 H 1686.34 3.79481 -3.13456 0
M  V30 17797 N 1687.99 1.18137 1.04314 0
M  V30 17798 C 1689.24 0.969582 1.76867 0
M  V30 17799 C 1689.55 -0.501982 1.89049 0
M  V30 17800 O 1690.76 -0.832218 2.58431 0
M  V30 17801 C 1689.21 1.68571 3.17981 0
M  V30 17802 C 1688.82 3.19641 3.13901 0
M  V30 17803 C 1690.57 1.55664 3.94929 0
M  V30 17804 C 1688.47 3.83904 4.49858 0
M  V30 17805 H 1687.4 0.359141 0.662973 0
M  V30 17806 H 1690.05 1.41484 1.16852 0
M  V30 17807 H 1688.44 1.16821 3.78377 0
M  V30 17808 H 1689.61 3.78395 2.62971 0
M  V30 17809 H 1687.93 3.32661 2.50451 0
M  V30 17810 H 1690.52 2.01039 4.95467 0
M  V30 17811 H 1690.87 0.508522 4.13182 0
M  V30 17812 H 1691.4 2.0468 3.41103 0
M  V30 17813 H 1688.14 4.88751 4.36809 0
M  V30 17814 H 1687.66 3.29937 5.00901 0
M  V30 17815 H 1689.34 3.86623 5.18779 0
M  V30 17816 N 1689.47 -1.23186 0.98301 0
M  V30 17817 C 1690.42 -2.24748 0.525082 0
M  V30 17818 C 1691.39 -1.60237 -0.437411 0
M  V30 17819 O 1692.57 -1.87666 -0.344376 0
M  V30 17820 C 1689.71 -3.44711 -0.163809 0
M  V30 17821 C 1688.82 -4.23769 0.839254 0
M  V30 17822 C 1687.96 -5.31053 0.1249 0
M  V30 17823 C 1687 -6.01822 1.117 0
M  V30 17824 N 1686.13 -7.00772 0.431625 0
M  V30 17825 H 1690.97 -2.63283 1.39593 0
M  V30 17826 H 1688.51 -1.29407 0.699438 0
M  V30 17827 H 1690.47 -4.13148 -0.580046 0
M  V30 17828 H 1689.1 -3.06969 -0.998507 0
M  V30 17829 H 1688.15 -3.54724 1.37386 0
M  V30 17830 H 1689.46 -4.72606 1.59515 0
M  V30 17831 H 1688.62 -6.05698 -0.348569 0
M  V30 17832 H 1687.36 -4.83165 -0.663573 0
M  V30 17833 H 1686.36 -5.25967 1.6012 0
M  V30 17834 H 1687.59 -6.51799 1.90618 0
M  V30 17835 H 1685.53 -6.55131 -0.337592 0
M  V30 17836 H 1685.45 -7.47566 1.12613 0
M  V30 17837 H 1686.72 -7.79498 -0.0193703 0
M  V30 17838 N 1690.95 -0.754982 -1.38339 0
M  V30 17839 C 1691.89 -0.128193 -2.30444 0
M  V30 17840 C 1692.86 0.70813 -1.50249 0
M  V30 17841 O 1694.05 0.663969 -1.78875 0
M  V30 17842 C 1691.19 0.757921 -3.36674 0
M  V30 17843 C 1690.3 -0.093181 -4.31899 0
M  V30 17844 C 1689.44 0.796067 -5.25201 0
M  V30 17845 C 1688.48 -0.0585854 -6.12072 0
M  V30 17846 N 1687.61 0.7877 -6.97667 0
M  V30 17847 H 1692.45 -0.919204 -2.83469 0
M  V30 17848 H 1689.99 -0.464921 -1.3956 0
M  V30 17849 H 1691.95 1.28632 -3.96875 0
M  V30 17850 H 1690.58 1.5147 -2.85055 0
M  V30 17851 H 1689.63 -0.73922 -3.73148 0
M  V30 17852 H 1690.94 -0.753146 -4.93081 0
M  V30 17853 H 1690.1 1.39158 -5.90525 0
M  V30 17854 H 1688.83 1.48976 -4.64389 0
M  V30 17855 H 1687.84 -0.666754 -5.45742 0
M  V30 17856 H 1689.06 -0.749361 -6.74953 0
M  V30 17857 H 1687.01 1.46632 -6.39402 0
M  V30 17858 H 1686.93 0.184662 -7.55774 0
M  V30 17859 H 1688.2 1.36814 -7.674 0
M  V30 17860 N 1692.42 1.49318 -0.504168 0
M  V30 17861 C 1693.35 2.32027 0.261837 0
M  V30 17862 C 1694.34 1.4045 0.959575 0
M  V30 17863 O 1695.52 1.69357 0.950365 0
M  V30 17864 C 1692.65 3.21039 1.3248 0
M  V30 17865 C 1691.6 4.21435 0.746752 0
M  V30 17866 C 1690.93 4.99405 1.91047 0
M  V30 17867 C 1692.23 5.21631 -0.264315 0
M  V30 17868 H 1693.92 2.96317 -0.428544 0
M  V30 17869 H 1691.47 1.42497 -0.207539 0
M  V30 17870 H 1693.42 3.77714 1.86843 0
M  V30 17871 H 1692.15 2.54699 2.04441 0
M  V30 17872 H 1690.81 3.6591 0.22485 0
M  V30 17873 H 1690.45 4.29509 2.61784 0
M  V30 17874 H 1690.15 5.67338 1.52975 0
M  V30 17875 H 1691.68 5.58924 2.45837 0
M  V30 17876 H 1693.09 5.72981 0.191288 0
M  V30 17877 H 1691.49 5.97472 -0.561039 0
M  V30 17878 H 1692.56 4.70346 -1.17911 0
M  V30 17879 N 1693.9 0.238138 1.5579 0
M  V30 17880 C 1695.13 -0.396409 2.03576 0
M  V30 17881 C 1695.55 -1.5138 1.11649 0
M  V30 17882 O 1694.91 -1.80979 0.107774 0
M  V30 17883 C 1694.96 -0.889749 3.49451 0
M  V30 17884 O 1694.06 -1.99997 3.60659 0
M  V30 17885 H 1693.4 -0.0876017 0.658196 0
M  V30 17886 H 1695.93 0.361632 2.01379 0
M  V30 17887 H 1695.94 -1.19526 3.901 0
M  V30 17888 H 1694.62 -0.0720136 4.15838 0
M  V30 17889 H 1693.2 -1.69983 3.31904 0
M  V30 17890 N 1695.38 -1.57561 -0.0350783 0
M  V30 17891 C 1696.31 -2.09201 -1.03716 0
M  V30 17892 C 1697.29 -0.993231 -1.3809 0
M  V30 17893 O 1698.48 -1.26812 -1.47079 0
M  V30 17894 C 1695.61 -2.56643 -2.3399 0
M  V30 17895 C 1694.56 -3.70731 -2.13874 0
M  V30 17896 C 1693.89 -4.04358 -3.49855 0
M  V30 17897 C 1695.19 -4.99393 -1.52982 0
M  V30 17898 H 1696.88 -2.93176 -0.60731 0
M  V30 17899 H 1694.43 -1.41036 -0.290683 0
M  V30 17900 H 1696.38 -2.9139 -3.04417 0
M  V30 17901 H 1695.1 -1.69744 -2.79024 0
M  V30 17902 H 1693.76 -3.36325 -1.45881 0
M  V30 17903 H 1693.41 -3.14534 -3.92527 0
M  V30 17904 H 1693.11 -4.81201 -3.37223 0
M  V30 17905 H 1694.63 -4.41633 -4.21654 0
M  V30 17906 H 1696.05 -5.32135 -2.13319 0
M  V30 17907 H 1694.45 -5.80807 -1.50943 0
M  V30 17908 H 1695.52 -4.82367 -0.494993 0
M  V30 17909 N 1696.86 0.307236 -1.54576 0
M  V30 17910 C 1697.79 1.38357 -1.88095 0
M  V30 17911 C 1698.77 1.53196 -0.739253 0
M  V30 17912 O 1699.95 1.66807 -0.99444 0
M  V30 17913 C 1697.08 2.74876 -2.12274 0
M  V30 17914 C 1696.04 2.74809 -3.28122 0
M  V30 17915 C 1695.36 4.14557 -3.37707 0
M  V30 17916 C 1696.66 2.37103 -4.65381 0
M  V30 17917 H 1698.36 1.10554 -2.78241 0
M  V30 17918 H 1695.9 0.530383 -1.33877 0
M  V30 17919 H 1697.86 3.50254 -2.34308 0
M  V30 17920 H 1696.58 3.04191 -1.18893 0
M  V30 17921 H 1695.24 2.01887 -3.06002 0
M  V30 17922 H 1694.89 4.41039 -2.41854 0
M  V30 17923 H 1694.59 4.15415 -4.15577 0
M  V30 17924 H 1696.11 4.91724 -3.61994 0
M  V30 17925 H 1697.53 3.02196 -4.87186 0
M  V30 17926 H 1695.92 2.49184 -5.45919 0
M  V30 17927 H 1696.99 1.32235 -4.66521 0
M  V30 17928 N 1698.34 1.46926 0.570122 0
M  V30 17929 C 1699.25 1.6105 1.70587 0
M  V30 17930 C 1700.26 0.493636 1.66851 0
M  V30 17931 O 1701.44 0.759454 1.86532 0
M  V30 17932 C 1698.5 1.60913 3.07096 0
M  V30 17933 C 1697.56 2.83928 3.21999 0
M  V30 17934 C 1696.8 2.83788 4.51996 0
M  V30 17935 O 1697.02 1.93256 5.36664 0
M  V30 17936 O 1695.95 3.75491 4.70415 0
M  V30 17937 H 1699.78 2.57126 1.61616 0
M  V30 17938 H 1697.37 1.29863 0.738637 0
M  V30 17939 H 1699.25 1.63576 3.88356 0
M  V30 17940 H 1697.92 0.680005 3.16477 0
M  V30 17941 H 1696.83 2.86814 2.40185 0
M  V30 17942 H 1698.16 3.76091 3.17516 0
M  V30 17943 N 1699.82 -0.815801 1.34842 0
M  V30 17944 C 1700.76 -1.92713 1.27006 0
M  V30 17945 C 1701.73 -1.65476 0.143838 0
M  V30 17946 O 1702.92 -1.87994 0.326007 0
M  V30 17947 C 1700.06 -3.29099 1.03863 0
M  V30 17948 C 1699.17 -3.68583 2.25324 0
M  V30 17949 C 1698.31 -4.93953 1.95407 0
M  V30 17950 C 1697.34 -5.26037 3.12971 0
M  V30 17951 N 1696.48 -6.42586 2.82891 0
M  V30 17952 H 1701.32 -1.98747 2.22044 0
M  V30 17953 H 1698.86 -0.972265 1.10388 0
M  V30 17954 H 1700.82 -4.07709 0.884809 0
M  V30 17955 H 1699.45 -3.22558 0.124911 0
M  V30 17956 H 1698.5 -2.85307 2.51603 0
M  V30 17957 H 1699.81 -3.88259 3.1314 0
M  V30 17958 H 1698.96 -5.80367 1.76801 0
M  V30 17959 H 1697.7 -4.76293 1.04862 0
M  V30 17960 H 1696.71 -4.38117 3.32165 0
M  V30 17961 H 1697.93 -5.45632 4.04305 0
M  V30 17962 H 1695.88 -6.26369 1.9493 0
M  V30 17963 H 1695.8 -6.62469 3.64239 0
M  V30 17964 H 1697.06 -7.32052 2.67805 0
M  V30 17965 N 1701.29 -1.18689 -1.03686 0
M  V30 17966 C 1702.23 -0.875126 -2.11835 0
M  V30 17967 C 1703.24 0.128865 -1.62289 0
M  V30 17968 O 1704.43 -0.0994835 -1.78223 0
M  V30 17969 C 1701.53 -0.286914 -3.37683 0
M  V30 17970 C 1700.7 -1.3375 -4.16449 0
M  V30 17971 C 1699.76 -0.764286 -5.2062 0
M  V30 17972 O 1698.79 -1.43998 -5.50684 0
M  V30 17973 N 1699.99 0.436345 -5.78858 0
M  V30 17974 H 1702.75 -1.80601 -2.39172 0
M  V30 17975 H 1700.31 -1.0878 -1.19911 0
M  V30 17976 H 1702.31 0.110219 -4.0455 0
M  V30 17977 H 1700.88 0.548073 -3.07758 0
M  V30 17978 H 1700.1 -1.9098 -3.44848 0
M  V30 17979 H 1701.38 -2.04566 -4.65865 0
M  V30 17980 H 1700.78 1.00296 -5.56738 0
M  V30 17981 H 1699.34 0.775353 -6.47172 0
M  V30 17982 N 1702.77 1.22662 -0.989529 0
M  V30 17983 C 1704.02 1.90632 -0.65897 0
M  V30 17984 C 1704.33 1.77942 0.812165 0
M  V30 17985 O 1705.54 2.40796 1.25417 0
M  V30 17986 C 1704 3.41763 -1.12809 0
M  V30 17987 C 1703.6 3.63097 -2.62421 0
M  V30 17988 C 1705.35 4.15454 -0.871698 0
M  V30 17989 C 1703.25 5.07911 -3.02953 0
M  V30 17990 H 1702.18 0.713847 -0.242772 0
M  V30 17991 H 1704.84 1.38942 -1.19864 0
M  V30 17992 H 1703.22 3.92616 -0.516564 0
M  V30 17993 H 1704.39 3.22751 -3.2889 0
M  V30 17994 H 1702.71 3.02733 -2.85905 0
M  V30 17995 H 1705.3 5.22181 -1.15027 0
M  V30 17996 H 1705.65 4.15856 0.192186 0
M  V30 17997 H 1706.18 3.70618 -1.44525 0
M  V30 17998 H 1702.92 5.12646 -4.08503 0
M  V30 17999 H 1702.44 5.49172 -2.41185 0
M  V30 18000 H 1704.12 5.76311 -2.94066 0
M  V30 18001 N 1704.25 0.762308 1.37937 0
M  V30 18002 C 1705.16 0.142724 2.34165 0
M  V30 18003 C 1706.18 -0.690588 1.59709 0
M  V30 18004 O 1707.35 -0.61271 1.91854 0
M  V30 18005 C 1704.42 -0.733325 3.38856 0
M  V30 18006 C 1703.48 0.115359 4.29145 0
M  V30 18007 C 1702.71 -0.718972 5.28835 0
M  V30 18008 O 1702.93 -1.95656 5.35794 0
M  V30 18009 O 1701.87 -0.133162 6.01753 0
M  V30 18010 H 1705.69 0.937662 2.88863 0
M  V30 18011 H 1703.28 0.523325 1.39935 0
M  V30 18012 H 1705.16 -1.23374 4.02935 0
M  V30 18013 H 1703.84 -1.50661 2.86501 0
M  V30 18014 H 1702.74 0.661926 3.68197 0
M  V30 18015 H 1704.08 0.851505 4.84779 0
M  V30 18016 N 1705.73 -1.49049 0.51208 0
M  V30 18017 C 1706.68 -2.30981 -0.273991 0
M  V30 18018 C 1707.67 -1.40092 -0.952402 0
M  V30 18019 O 1708.88 -1.57088 -0.878828 0
M  V30 18020 H 1705.25 -0.744317 -0.107221 0
M  V30 18021 H 1707.22 -2.95185 0.436866 0
M  V30 18022 C 1705.97 -3.21714 -1.31892 0
M  V30 18023 H 1705.29 -3.91585 -0.806302 0
M  V30 18024 H 1706.73 -3.81961 -1.8407 0
M  V30 18025 C 1705.19 -2.42082 -2.34303 0
M  V30 18026 O 1705.72 -2.13285 -3.40401 0
M  V30 18027 N 1703.93 -2.03903 -2.07055 0
M  V30 18028 H 1703.48 -2.27523 -1.20794 0
M  V30 18029 H 1703.43 -1.50932 -2.75802 0
M  V30 18030 N 1707.21 -0.246397 -1.55662 0
M  V30 18031 C 1708.14 0.647563 -2.24341 0
M  V30 18032 C 1709.12 1.1817 -1.22352 0
M  V30 18033 O 1710.3 1.22114 -1.51003 0
M  V30 18034 C 1707.43 1.84485 -2.94249 0
M  V30 18035 C 1706.39 1.4435 -4.02923 0
M  V30 18036 C 1705.71 2.72158 -4.60255 0
M  V30 18037 C 1707.01 0.614951 -5.18667 0
M  V30 18038 H 1708.71 0.0748803 -2.99306 0
M  V30 18039 H 1706.25 0.034575 -1.43958 0
M  V30 18040 H 1708.2 2.47588 -3.40995 0
M  V30 18041 H 1706.93 2.4429 -2.16772 0
M  V30 18042 H 1705.59 0.835811 -3.56945 0
M  V30 18043 H 1705.24 3.3016 -3.79478 0
M  V30 18044 H 1704.94 2.46028 -5.33614 0
M  V30 18045 H 1706.46 3.36161 -5.09734 0
M  V30 18046 H 1707.87 1.15028 -5.61642 0
M  V30 18047 H 1706.27 0.449729 -5.98412 0
M  V30 18048 H 1707.34 -0.372943 -4.83464 0
M  V30 18049 N 1708.68 1.57577 0.026722 0
M  V30 18050 C 1710.1 1.54951 0.382406 0
M  V30 18051 C 1710.3 0.972826 1.76461 0
M  V30 18052 O 1709.36 0.5949 2.45392 0
M  V30 18053 C 1710.67 2.99374 0.282111 0
M  V30 18054 C 1712.22 3.10934 0.359022 0
M  V30 18055 C 1712.69 4.57093 0.28815 0
M  V30 18056 N 1714.18 4.61899 0.346873 0
M  V30 18057 C 1714.92 5.72534 0.314961 0
M  V30 18058 N 1714.41 6.92401 0.235205 0
M  V30 18059 N 1716.21 5.60915 0.364863 0
M  V30 18060 H 1708.36 1.93413 -0.877788 0
M  V30 18061 H 1710.62 0.887216 -0.333995 0
M  V30 18062 H 1710.33 3.45301 -0.667821 0
M  V30 18063 H 1710.2 3.61562 1.07484 0
M  V30 18064 H 1712.59 2.64953 1.29939 0
M  V30 18065 H 1712.67 2.51573 -0.4631 0
M  V30 18066 H 1712.31 5.03742 -0.648558 0
M  V30 18067 H 1712.24 5.14368 1.12841 0
M  V30 18068 H 1714.73 3.75659 0.410932 0
M  V30 18069 H 1715.05 7.72498 0.216019 0
M  V30 18070 H 1713.39 6.94709 0.201219 0
M  V30 18071 H 1716.58 4.66165 0.42518 0
M  V30 18072 H 1716.76 6.47126 0.336526 0
M  V30 18073 N 1710.16 -0.299034 1.54737 0
M  V30 18074 C 1711.12 -1.35199 1.85078 0
M  V30 18075 C 1712.12 -1.4359 0.723788 0
M  V30 18076 O 1713.31 -1.43191 0.992067 0
M  V30 18077 C 1710.45 -2.73659 2.03282 0
M  V30 18078 H 1711.64 -1.09538 2.7918 0
M  V30 18079 H 1709.19 -0.535803 1.46829 0
M  V30 18080 H 1709.93 -3.04539 1.11475 0
M  V30 18081 H 1709.71 -2.68959 2.85313 0
M  V30 18082 H 1711.2 -3.49787 2.28119 0
M  V30 18083 N 1711.64 -1.47227 -0.562322 0
M  V30 18084 C 1712.6 -1.58887 -1.6519 0
M  V30 18085 C 1713.6 -0.464359 -1.53949 0
M  V30 18086 O 1714.79 -0.729279 -1.582 0
M  V30 18087 C 1711.92 -1.52853 -3.04711 0
M  V30 18088 H 1713.12 -2.5601 -1.56202 0
M  V30 18089 H 1710.67 -1.35341 -0.781832 0
M  V30 18090 H 1711.41 -0.570867 -3.19236 0
M  V30 18091 H 1711.19 -2.3446 -3.14279 0
M  V30 18092 H 1712.68 -1.6414 -3.83989 0
M  V30 18093 N 1713.12 0.808639 -1.35273 0
M  V30 18094 C 1714.39 1.55238 -1.18998 0
M  V30 18095 C 1714.77 2.09824 0.231723 0
M  V30 18096 O 1714.12 1.92252 1.23497 0
M  V30 18097 C 1714.33 2.66252 -2.25634 0
M  V30 18098 C 1715.68 3.34646 -2.61338 0
M  V30 18099 O 1716.7 2.76521 -2.24532 0
M  V30 18100 O 1715.56 4.39644 -3.24615 0
M  V30 18101 H 1712.66 0.6858 -0.462176 0
M  V30 18102 H 1715.2 0.848777 -1.46949 0
M  V30 18103 H 1713.98 2.23774 -3.21 0
M  V30 18104 H 1713.6 3.4425 -1.98941 0
M  V30 18105 N 1714.6 1.19237 1.03055 0
M  V30 18106 C 1715.82 1.01983 1.80594 0
M  V30 18107 C 1716.25 -0.426875 1.83192 0
M  V30 18108 O 1715.6 -1.30678 1.2567 0
M  V30 18109 C 1715.65 1.59139 3.23585 0
M  V30 18110 O 1714.76 0.819576 4.04174 0
M  V30 18111 H 1714.1 0.360585 0.557561 0
M  V30 18112 H 1716.63 1.58222 1.29719 0
M  V30 18113 H 1716.64 1.62283 3.74337 0
M  V30 18114 H 1715.31 2.64436 3.21009 0
M  V30 18115 H 1713.89 0.861253 3.62818 0
M  V30 18116 N 1716.07 -1.22136 0.99602 0
M  V30 18117 C 1717.04 -2.22404 0.553986 0
M  V30 18118 C 1718.04 -1.56607 -0.364832 0
M  V30 18119 O 1719.23 -1.73497 -0.156358 0
M  V30 18120 C 1716.36 -3.40349 -0.193794 0
M  V30 18121 H 1717.55 -2.63026 1.44075 0
M  V30 18122 H 1715.11 -1.35241 0.78356 0
M  V30 18123 H 1715.84 -3.05204 -1.0964 0
M  V30 18124 H 1715.63 -3.89321 0.465972 0
M  V30 18125 H 1717.12 -4.14702 -0.491121 0
M  V30 18126 N 1717.55 -0.769612 -1.37531 0
M  V30 18127 C 1718.78 -0.344282 -2.04015 0
M  V30 18128 C 1719.2 1.03281 -1.58046 0
M  V30 18129 O 1718.55 1.65888 -0.760746 0
M  V30 18130 C 1718.6 -0.375922 -3.5954 0
M  V30 18131 O 1718.32 -1.69869 -4.03827 0
M  V30 18132 C 1719.83 0.0612715 -4.43258 0
M  V30 18133 H 1717.05 -0.144584 -0.655238 0
M  V30 18134 H 1719.59 -1.04294 -1.75906 0
M  V30 18135 H 1717.74 0.274136 -3.86429 0
M  V30 18136 H 1718.16 -1.63584 -4.98338 0
M  V30 18137 H 1719.63 -0.012022 -5.51999 0
M  V30 18138 H 1720.11 1.11136 -4.24906 0
M  V30 18139 H 1720.72 -0.560517 -4.2159 0
M  V30 18140 N 1719.03 1.48775 -0.519977 0
M  V30 18141 C 1719.96 2.27418 0.285222 0
M  V30 18142 C 1720.98 1.34753 0.91354 0
M  V30 18143 O 1722.16 1.59885 0.793672 0
M  V30 18144 C 1719.26 3.07799 1.41821 0
M  V30 18145 C 1718.44 4.28173 0.893682 0
M  V30 18146 C 1717.5 4.90445 1.90658 0
M  V30 18147 O 1716.52 5.49957 1.46751 0
M  V30 18148 N 1717.72 4.8179 3.23819 0
M  V30 18149 H 1720.49 2.97162 -0.38921 0
M  V30 18150 H 1718.05 1.5799 -0.353684 0
M  V30 18151 H 1720.04 3.46329 2.09377 0
M  V30 18152 H 1718.61 2.4054 1.99648 0
M  V30 18153 H 1717.83 3.94177 0.0424379 0
M  V30 18154 H 1719.12 5.06116 0.521952 0
M  V30 18155 H 1718.52 4.34573 3.62164 0
M  V30 18156 H 1717.08 5.2445 3.87035 0
M  V30 18157 N 1720.51 0.254649 1.55529 0
M  V30 18158 C 1721.42 -0.652184 2.25352 0
M  V30 18159 C 1722.43 -1.18695 1.2723 0
M  V30 18160 O 1723.61 -1.22158 1.60123 0
M  V30 18161 C 1720.68 -1.829 2.94531 0
M  V30 18162 C 1719.74 -1.33294 4.08082 0
M  V30 18163 C 1718.97 -2.45367 4.73952 0
M  V30 18164 O 1719.19 -3.64271 4.38933 0
M  V30 18165 O 1718.13 -2.14684 5.62311 0
M  V30 18166 H 1721.95 -0.0871786 3.03575 0
M  V30 18167 H 1719.54 0.0228432 1.49383 0
M  V30 18168 H 1721.42 -2.5156 3.38076 0
M  V30 18169 H 1720.09 -2.38148 2.19242 0
M  V30 18170 H 1719 -0.613396 3.69037 0
M  V30 18171 H 1720.33 -0.826454 4.85212 0
M  V30 18172 N 1721.99 -1.57589 -0.0183649 0
M  V30 18173 C 1722.93 -2.07252 -1.01563 0
M  V30 18174 C 1723.9 -0.963941 -1.35268 0
M  V30 18175 O 1725.09 -1.2352 -1.45421 0
M  V30 18176 C 1722.23 -2.56548 -2.30818 0
M  V30 18177 C 1721.34 -3.81238 -2.03178 0
M  V30 18178 C 1720.48 -4.19105 -3.26381 0
M  V30 18179 C 1719.52 -5.36682 -2.94344 0
M  V30 18180 N 1718.65 -5.6993 -4.1003 0
M  V30 18181 H 1723.49 -2.92198 -0.585179 0
M  V30 18182 H 1721.03 -1.44462 -0.27731 0
M  V30 18183 H 1722.99 -2.832 -3.06355 0
M  V30 18184 H 1721.62 -1.74504 -2.71566 0
M  V30 18185 H 1720.67 -3.61606 -1.1809 0
M  V30 18186 H 1721.98 -4.66886 -1.75552 0
M  V30 18187 H 1721.14 -4.46942 -4.10278 0
M  V30 18188 H 1719.87 -3.32129 -3.57129 0
M  V30 18189 H 1718.88 -5.08587 -2.08851 0
M  V30 18190 H 1720.1 -6.2532 -2.64862 0
M  V30 18191 H 1718.05 -4.85913 -4.40709 0
M  V30 18192 H 1717.97 -6.50111 -3.85865 0
M  V30 18193 H 1719.24 -6.02349 -4.94768 0
M  V30 18194 N 1723.46 0.290824 -1.54893 0
M  V30 18195 C 1724.71 1.02244 -1.73865 0
M  V30 18196 C 1725.03 1.88079 -0.537166 0
M  V30 18197 O 1726.23 2.64584 -0.608908 0
M  V30 18198 C 1724.69 1.86762 -3.07649 0
M  V30 18199 C 1724.3 1.0588 -4.35308 0
M  V30 18200 C 1726.04 2.59461 -3.35976 0
M  V30 18201 C 1723.95 1.89734 -5.60138 0
M  V30 18202 H 1722.88 0.385455 -0.648028 0
M  V30 18203 H 1725.53 0.27893 -1.81368 0
M  V30 18204 H 1723.91 2.6514 -2.94137 0
M  V30 18205 H 1725.08 0.320443 -4.59684 0
M  V30 18206 H 1723.4 0.447169 -4.13992 0
M  V30 18207 H 1726 3.22569 -4.26442 0
M  V30 18208 H 1726.34 3.28823 -2.55306 0
M  V30 18209 H 1726.87 1.88126 -3.50505 0
M  V30 18210 H 1723.61 1.24825 -6.43505 0
M  V30 18211 H 1723.13 2.61215 -5.39932 0
M  V30 18212 H 1724.81 2.47535 -5.97775 0
M  V30 18213 N 1724.94 1.47523 0.554506 0
M  V30 18214 C 1725.89 1.60213 1.66134 0
M  V30 18215 C 1726.86 0.445051 1.60027 0
M  V30 18216 O 1728.04 0.665449 1.7882 0
M  V30 18217 C 1725.18 1.62491 3.04452 0
M  V30 18218 C 1724.3 2.89134 3.20976 0
M  V30 18219 C 1723.43 2.82731 4.49707 0
M  V30 18220 C 1722.47 4.04187 4.59673 0
M  V30 18221 N 1721.61 3.96004 5.79763 0
M  V30 18222 H 1726.45 2.54744 1.54626 0
M  V30 18223 H 1723.99 1.26355 0.753189 0
M  V30 18224 H 1725.94 1.61795 3.84549 0
M  V30 18225 H 1724.57 0.714698 3.14789 0
M  V30 18226 H 1723.63 2.99685 2.34292 0
M  V30 18227 H 1724.94 3.79069 3.24203 0
M  V30 18228 H 1724.09 2.80299 5.38068 0
M  V30 18229 H 1722.83 1.90483 4.48963 0
M  V30 18230 H 1721.84 4.06921 3.69724 0
M  V30 18231 H 1723.06 4.97565 4.62175 0
M  V30 18232 H 1721.01 3.06561 5.79962 0
M  V30 18233 H 1720.92 4.7962 5.8438 0
M  V30 18234 H 1722.19 3.97593 6.70478 0
M  V30 18235 N 1726.42 -0.801453 1.357 0
M  V30 18236 C 1727.66 -1.57211 1.3063 0
M  V30 18237 C 1728.02 -1.91647 -0.116449 0
M  V30 18238 O 1729.23 -2.67214 -0.291578 0
M  V30 18239 C 1727.5 -2.82275 2.19216 0
M  V30 18240 S 1729.06 -3.72633 2.31712 0
M  V30 18241 H 1725.87 -0.538587 0.464161 0
M  V30 18242 H 1728.48 -0.944961 1.71145 0
M  V30 18243 H 1727.18 -2.55008 3.21557 0
M  V30 18244 H 1726.71 -3.49971 1.79676 0
M  V30 18245 H 1728.73 -4.72803 1.50572 0
M  V30 18246 N 1727.9 -1.19782 -1.02421 0
M  V30 18247 C 1728.81 -0.955253 -2.14271 0
M  V30 18248 C 1729.82 0.0863233 -1.73786 0
M  V30 18249 O 1731 -0.0993878 -2.01155 0
M  V30 18250 C 1728.07 -0.502219 -3.43043 0
M  V30 18251 C 1727.13 -1.61374 -3.97815 0
M  V30 18252 C 1726.36 -1.18223 -5.20441 0
M  V30 18253 O 1726.58 -0.0477334 -5.7038 0
M  V30 18254 O 1725.52 -1.98664 -5.68169 0
M  V30 18255 H 1729.34 -1.89157 -2.37599 0
M  V30 18256 H 1726.93 -0.981035 -1.12677 0
M  V30 18257 H 1728.81 -0.258445 -4.20607 0
M  V30 18258 H 1727.48 0.4056 -3.21149 0
M  V30 18259 H 1726.39 -1.91172 -3.21565 0
M  V30 18260 H 1727.72 -2.49829 -4.24083 0
M  V30 18261 N 1729.38 1.21606 -1.00248 0
M  V30 18262 C 1730.63 1.89922 -0.679152 0
M  V30 18263 C 1730.94 1.78793 0.793246 0
M  V30 18264 O 1732.15 2.42113 1.22856 0
M  V30 18265 C 1730.6 3.40548 -1.16427 0
M  V30 18266 C 1730.21 3.60293 -2.66257 0
M  V30 18267 C 1731.95 4.14506 -0.915714 0
M  V30 18268 C 1729.86 5.04669 -3.08323 0
M  V30 18269 H 1728.79 0.711232 -0.250329 0
M  V30 18270 H 1731.44 1.37663 -1.21331 0
M  V30 18271 H 1729.82 3.92046 -0.558177 0
M  V30 18272 H 1731 3.19245 -3.32294 0
M  V30 18273 H 1729.31 2.99683 -2.891 0
M  V30 18274 H 1731.91 5.20932 -1.20558 0
M  V30 18275 H 1732.25 4.16037 0.148068 0
M  V30 18276 H 1732.79 3.69064 -1.48448 0
M  V30 18277 H 1729.52 5.08284 -4.13917 0
M  V30 18278 H 1729.04 5.46583 -2.46996 0
M  V30 18279 H 1730.72 5.7316 -3.00162 0
M  V30 18280 N 1730.86 0.776895 1.37121 0
M  V30 18281 C 1732.13 0.268067 1.93754 0
M  V30 18282 C 1732.51 -1.23774 1.71007 0
M  V30 18283 O 1731.86 -2.02331 1.0618 0
M  V30 18284 C 1732.07 0.647054 3.42949 0
M  V30 18285 C 1733.42 0.619737 4.20053 0
M  V30 18286 O 1734.44 0.586757 3.51334 0
M  V30 18287 O 1733.3 0.651412 5.42604 0
M  V30 18288 H 1730.4 0.0631883 0.824582 0
M  V30 18289 H 1732.94 0.858594 1.46377 0
M  V30 18290 H 1731.71 1.68608 3.5311 0
M  V30 18291 H 1731.34 0.0297448 3.97589 0
M  V30 18292 N 1732.33 -1.48497 0.527859 0
M  V30 18293 C 1733.56 -2.069 -0.00302594 0
M  V30 18294 C 1733.98 -1.38469 -1.28342 0
M  V30 18295 O 1733.33 -0.471524 -1.76303 0
M  V30 18296 C 1733.38 -3.60749 -0.232871 0
M  V30 18297 O 1733.11 -4.26609 0.996797 0
M  V30 18298 C 1734.61 -4.35941 -0.804376 0
M  V30 18299 H 1731.83 -0.67021 0.0325559 0
M  V30 18300 H 1734.37 -1.90916 0.732897 0
M  V30 18301 H 1732.53 -3.76346 -0.918837 0
M  V30 18302 H 1732.94 -5.18725 0.776217 0
M  V30 18303 H 1734.41 -5.4437 -0.914635 0
M  V30 18304 H 1734.89 -4.00225 -1.80876 0
M  V30 18305 H 1735.5 -4.25017 -0.155041 0
M  V30 18306 N 1733.81 -0.262893 -1.55392 0
M  V30 18307 C 1734.74 0.623732 -2.25015 0
M  V30 18308 C 1735.72 1.16865 -1.23598 0
M  V30 18309 O 1736.91 1.20505 -1.5229 0
M  V30 18310 C 1734.04 1.81353 -2.9619 0
M  V30 18311 C 1732.99 1.40069 -4.04431 0
M  V30 18312 C 1732.32 2.67261 -4.63115 0
M  V30 18313 C 1733.62 0.559905 -5.1929 0
M  V30 18314 H 1735.31 0.0431306 -2.99369 0
M  V30 18315 H 1732.86 0.0193043 -1.43987 0
M  V30 18316 H 1734.81 2.43958 -3.43602 0
M  V30 18317 H 1733.53 2.41977 -2.1935 0
M  V30 18318 H 1732.19 0.797905 -3.57811 0
M  V30 18319 H 1731.84 3.26117 -3.82958 0
M  V30 18320 H 1731.54 2.40354 -5.36194 0
M  V30 18321 H 1733.07 3.30735 -5.1327 0
M  V30 18322 H 1734.48 1.09064 -5.6283 0
M  V30 18323 H 1732.88 0.386234 -5.98856 0
M  V30 18324 H 1733.95 -0.424199 -4.83041 0
M  V30 18325 N 1735.29 1.57597 0.0100073 0
M  V30 18326 C 1736.24 2.04265 1.01292 0
M  V30 18327 C 1737.22 0.93547 1.30911 0
M  V30 18328 O 1738.42 1.19929 1.30177 0
M  V30 18329 C 1735.54 2.54129 2.3081 0
M  V30 18330 C 1734.63 3.71704 2.04198 0
M  V30 18331 N 1735.02 4.83752 1.47709 0
M  V30 18332 C 1733.32 3.79443 2.34391 0
M  V30 18333 C 1734.02 5.65255 1.37339 0
M  V30 18334 N 1733 5.1095 1.85556 0
M  V30 18335 H 1736.8 2.8831 0.570489 0
M  V30 18336 H 1734.31 1.60958 0.215919 0
M  V30 18337 H 1736.31 2.85832 3.03489 0
M  V30 18338 H 1734.97 1.71497 2.75715 0
M  V30 18339 H 1735.98 5.04805 1.15723 0
M  V30 18340 H 1732.66 3.07648 2.82239 0
M  V30 18341 H 1734.05 6.65293 0.939918 0
M  V30 18342 N 1736.77 -0.282606 1.55045 0
M  V30 18343 C 1738.04 -1.03617 1.659 0
M  V30 18344 C 1738.42 -2.04615 0.519207 0
M  V30 18345 O 1737.77 -2.2336 -0.48191 0
M  V30 18346 C 1737.98 -1.70159 3.04708 0
M  V30 18347 C 1739.33 -2.21677 3.62139 0
M  V30 18348 O 1740.35 -1.80161 3.07279 0
M  V30 18349 O 1739.21 -2.97799 4.58234 0
M  V30 18350 H 1736.31 -0.48004 0.673417 0
M  V30 18351 H 1738.85 -0.279228 1.67387 0
M  V30 18352 H 1737.63 -0.969205 3.79107 0
M  V30 18353 H 1737.25 -2.52564 3.07079 0
M  V30 18354 N 1738.25 -1.47815 -0.546675 0
M  V30 18355 C 1739.18 -1.63976 -1.66235 0
M  V30 18356 C 1740.16 -0.488945 -1.62921 0
M  V30 18357 O 1741.34 -0.719532 -1.80378 0
M  V30 18358 C 1738.47 -1.6637 -3.04858 0
M  V30 18359 C 1737.43 -2.80785 -3.23023 0
M  V30 18360 C 1736.75 -2.68257 -4.62539 0
M  V30 18361 C 1738.05 -4.22267 -3.07388 0
M  V30 18362 H 1739.75 -2.57375 -1.52965 0
M  V30 18363 H 1737.29 -1.23861 -0.734465 0
M  V30 18364 H 1739.24 -1.76266 -3.82764 0
M  V30 18365 H 1737.97 -0.695386 -3.19111 0
M  V30 18366 H 1736.63 -2.70417 -2.47529 0
M  V30 18367 H 1736.28 -1.69431 -4.73606 0
M  V30 18368 H 1735.98 -3.45022 -4.75641 0
M  V30 18369 H 1737.5 -2.80097 -5.42566 0
M  V30 18370 H 1738.91 -4.33557 -3.75102 0
M  V30 18371 H 1737.31 -4.999 -3.31994 0
M  V30 18372 H 1738.38 -4.39897 -2.04006 0
M  V30 18373 N 1739.72 0.794246 -1.36123 0
M  V30 18374 C 1740.95 1.58813 -1.33391 0
M  V30 18375 C 1741.37 1.87915 0.0834599 0
M  V30 18376 O 1740.73 1.47516 1.05398 0
M  V30 18377 C 1740.78 2.88887 -2.15816 0
M  V30 18378 O 1739.88 3.82271 -1.54734 0
M  V30 18379 H 1739.22 0.481924 -0.456777 0
M  V30 18380 H 1741.75 0.984818 -1.79339 0
M  V30 18381 H 1741.76 3.38201 -2.2822 0
M  V30 18382 H 1740.44 2.67032 -3.18852 0
M  V30 18383 H 1739.02 3.40852 -1.51242 0
M  V30 18384 N 1741.2 1.20323 1.01785 0
M  V30 18385 C 1742.44 1.0239 1.76906 0
M  V30 18386 C 1742.81 -0.436461 1.86973 0
M  V30 18387 O 1744.01 -0.735939 2.58529 0
M  V30 18388 C 1742.28 1.68729 3.15064 0
M  V30 18389 S 1743.84 1.65881 4.06237 0
M  V30 18390 H 1740.65 0.367179 0.608852 0
M  V30 18391 H 1743.26 1.52857 1.21881 0
M  V30 18392 H 1741.96 2.74194 3.05362 0
M  V30 18393 H 1741.49 1.18387 3.75164 0
M  V30 18394 H 1743.51 0.6908 4.91368 0
M  V30 18395 N 1742.68 -1.21073 1.00892 0
M  V30 18396 C 1743.63 -2.23583 0.572636 0
M  V30 18397 C 1744.6 -1.61129 -0.403324 0
M  V30 18398 O 1745.78 -1.88355 -0.304491 0
M  V30 18399 C 1742.92 -3.44981 -0.0906539 0
M  V30 18400 C 1742.03 -4.21894 0.928953 0
M  V30 18401 C 1741.17 -5.30669 0.237516 0
M  V30 18402 C 1740.21 -5.99317 1.24441 0
M  V30 18403 N 1739.35 -6.99699 0.580172 0
M  V30 18404 H 1744.19 -2.60263 1.45146 0
M  V30 18405 H 1741.72 -1.27895 0.72673 0
M  V30 18406 H 1743.68 -4.14285 -0.492281 0
M  V30 18407 H 1742.31 -3.09017 -0.933169 0
M  V30 18408 H 1741.36 -3.5173 1.4488 0
M  V30 18409 H 1742.67 -4.69116 1.69503 0
M  V30 18410 H 1741.83 -6.06301 -0.220013 0
M  V30 18411 H 1740.57 -4.84463 -0.560937 0
M  V30 18412 H 1739.57 -5.22453 1.7124 0
M  V30 18413 H 1740.8 -6.47609 2.04401 0
M  V30 18414 H 1738.74 -6.55699 -0.198553 0
M  V30 18415 H 1738.66 -7.45009 1.28444 0
M  V30 18416 H 1739.93 -7.79363 0.145977 0
M  V30 18417 N 1744.16 -0.784156 -1.36707 0
M  V30 18418 C 1745.41 -0.354133 -1.99379 0
M  V30 18419 C 1745.73 1.07276 -1.62241 0
M  V30 18420 O 1744.99 1.75481 -0.866317 0
M  V30 18421 C 1745.29 -0.459004 -3.5444 0
M  V30 18422 C 1744.95 -1.84594 -4.11383 0
M  V30 18423 C 1743.62 -2.22543 -4.26648 0
M  V30 18424 C 1745.97 -2.75433 -4.42477 0
M  V30 18425 C 1743.3 -3.50744 -4.70315 0
M  V30 18426 C 1745.65 -4.03056 -4.87574 0
M  V30 18427 C 1744.31 -4.41034 -5.01044 0
M  V30 18428 H 1743.58 -0.129586 -0.729581 0
M  V30 18429 H 1746.23 -1.00059 -1.6328 0
M  V30 18430 H 1744.53 0.27097 -3.90862 0
M  V30 18431 H 1746.23 -0.107393 -4.00856 0
M  V30 18432 H 1742.82 -1.54103 -3.99938 0
M  V30 18433 H 1747 -2.4737 -4.30258 0
M  V30 18434 H 1742.26 -3.80047 -4.78931 0
M  V30 18435 H 1746.43 -4.73563 -5.10599 0
M  V30 18436 H 1744.06 -5.4043 -5.34639 0
M  V30 18437 N 1745.64 1.48215 -0.535727 0
M  V30 18438 C 1746.57 2.3253 0.212562 0
M  V30 18439 C 1747.55 1.42454 0.929568 0
M  V30 18440 O 1748.73 1.71334 0.914228 0
M  V30 18441 C 1745.86 3.23777 1.25641 0
M  V30 18442 C 1744.82 4.22924 0.657191 0
M  V30 18443 C 1744.14 5.03345 1.80411 0
M  V30 18444 C 1745.44 5.20953 -0.374902 0
M  V30 18445 H 1747.14 2.95341 -0.491301 0
M  V30 18446 H 1744.68 1.42024 -0.237718 0
M  V30 18447 H 1746.64 3.81592 1.78789 0
M  V30 18448 H 1745.36 2.58978 1.98993 0
M  V30 18449 H 1744.02 3.66304 0.147184 0
M  V30 18450 H 1743.67 4.34965 2.52615 0
M  V30 18451 H 1743.37 5.70455 1.40906 0
M  V30 18452 H 1744.89 5.64013 2.33926 0
M  V30 18453 H 1746.3 5.73258 0.0697072 0
M  V30 18454 H 1744.7 5.96147 -0.687646 0
M  V30 18455 H 1745.77 4.67739 -1.27861 0
M  V30 18456 N 1747.11 0.27113 1.5525 0
M  V30 18457 C 1748.53 -0.2274 1.8531 0
M  V30 18458 C 1748.88 -1.55752 1.19314 0
M  V30 18459 O 1748 -2.11008 0.480046 0
M  V30 18460 C 1748.6 -0.419382 3.36194 0
M  V30 18461 C 1747.16 -0.862149 3.66393 0
M  V30 18462 C 1746.3 0.0468534 2.7726 0
M  V30 18463 H 1749.25 0.493032 1.50847 0
M  V30 18464 H 1749.27 -1.25852 3.59084 0
M  V30 18465 H 1748.79 0.548856 3.84199 0
M  V30 18466 H 1746.89 -1.842 3.23884 0
M  V30 18467 H 1747 -0.702231 4.73926 0
M  V30 18468 H 1745.36 -0.468769 2.50349 0
M  V30 18469 H 1746.15 1.0109 3.28079 0
M  V30 18470 N 1748.59 -1.576 -0.00164943 0
M  V30 18471 C 1749.52 -2.11354 -0.992554 0
M  V30 18472 C 1750.5 -1.0223 -1.35952 0
M  V30 18473 O 1751.69 -1.29904 -1.44356 0
M  V30 18474 C 1748.82 -2.61549 -2.28494 0
M  V30 18475 C 1747.77 -3.75185 -2.05962 0
M  V30 18476 C 1747.1 -4.11688 -3.412 0
M  V30 18477 C 1748.4 -5.02526 -1.42355 0
M  V30 18478 H 1750.09 -2.94398 -0.544986 0
M  V30 18479 H 1747.64 -1.4162 -0.260702 0
M  V30 18480 H 1749.59 -2.97782 -2.98168 0
M  V30 18481 H 1748.32 -1.75625 -2.75361 0
M  V30 18482 H 1746.97 -3.39343 -1.38714 0
M  V30 18483 H 1746.62 -3.22789 -3.85767 0
M  V30 18484 H 1746.32 -4.88246 -3.2694 0
M  V30 18485 H 1747.85 -4.50478 -4.12192 0
M  V30 18486 H 1749.26 -5.3654 -2.01984 0
M  V30 18487 H 1747.66 -5.83878 -1.38589 0
M  V30 18488 H 1748.73 -4.83308 -0.392565 0
M  V30 18489 N 1750.07 0.274379 -1.55193 0
M  V30 18490 C 1751.3 1.02295 -1.79497 0
M  V30 18491 C 1751.71 1.80479 -0.567805 0
M  V30 18492 O 1751.05 1.77517 0.472601 0
M  V30 18493 C 1751.11 2.02986 -2.9671 0
M  V30 18494 C 1750.78 1.43753 -4.33802 0
M  V30 18495 C 1751.77 0.853898 -5.1284 0
M  V30 18496 C 1749.46 1.46514 -4.80457 0
M  V30 18497 C 1751.45 0.305773 -6.36666 0
M  V30 18498 C 1749.14 0.913158 -6.04239 0
M  V30 18499 C 1750.14 0.33447 -6.82181 0
M  V30 18500 O 1749.83 -0.209069 -8.03628 0
M  V30 18501 H 1749.56 0.307952 -0.601782 0
M  V30 18502 H 1752.11 0.310987 -2.03032 0
M  V30 18503 H 1750.34 2.77937 -2.68864 0
M  V30 18504 H 1752.03 2.6396 -3.0835 0
M  V30 18505 H 1752.8 0.825268 -4.77927 0
M  V30 18506 H 1748.68 1.90496 -4.198 0
M  V30 18507 H 1752.22 -0.146553 -6.97446 0
M  V30 18508 H 1748.12 0.939023 -6.38633 0
M  V30 18509 H 1748.89 -0.0982973 -8.18441 0
M  V30 18510 N 1751.55 1.48103 0.538828 0
M  V30 18511 C 1752.51 1.61495 1.62641 0
M  V30 18512 C 1753.51 0.488792 1.53191 0
M  V30 18513 O 1754.7 0.754355 1.57019 0
M  V30 18514 C 1751.83 1.57681 3.02241 0
M  V30 18515 H 1753.03 2.58462 1.5211 0
M  V30 18516 H 1750.58 1.36567 0.760201 0
M  V30 18517 H 1751.31 0.621583 3.18287 0
M  V30 18518 H 1751.1 2.3943 3.10509 0
M  V30 18519 H 1752.59 1.70228 3.81329 0
M  V30 18520 N 1753.03 -0.787016 1.36542 0
M  V30 18521 C 1753.98 -1.88956 1.27592 0
M  V30 18522 C 1754.96 -1.60032 0.166904 0
M  V30 18523 O 1756.15 -1.72423 0.399932 0
M  V30 18524 C 1753.28 -3.26204 1.06986 0
M  V30 18525 C 1752.37 -3.6113 2.22365 0
M  V30 18526 N 1752.76 -3.67346 3.47693 0
M  V30 18527 C 1751.06 -3.91205 2.14183 0
M  V30 18528 C 1751.76 -3.98581 4.23684 0
M  V30 18529 N 1750.73 -4.13688 3.52651 0
M  V30 18530 H 1754.54 -1.91992 2.22522 0
M  V30 18531 H 1752.05 -0.982664 1.29296 0
M  V30 18532 H 1754.05 -4.05058 0.986603 0
M  V30 18533 H 1752.71 -3.24441 0.129582 0
M  V30 18534 H 1753.72 -3.49931 3.81797 0
M  V30 18535 H 1750.39 -3.97354 1.28125 0
M  V30 18536 H 1751.78 -4.10294 5.32079 0
M  V30 18537 N 1754.5 -1.20861 -1.01145 0
M  V30 18538 C 1755.41 -0.977926 -2.13246 0
M  V30 18539 C 1756.43 0.0678862 -1.73868 0
M  V30 18540 O 1757.61 -0.120717 -2.01038 0
M  V30 18541 C 1754.67 -0.538575 -3.42491 0
M  V30 18542 C 1753.73 -1.65584 -3.96081 0
M  V30 18543 C 1752.97 -1.23736 -5.19158 0
M  V30 18544 O 1753.19 -0.108227 -5.70297 0
M  V30 18545 O 1752.12 -2.04679 -5.6603 0
M  V30 18546 H 1755.95 -1.91666 -2.3558 0
M  V30 18547 H 1753.53 -0.992931 -1.1163 0
M  V30 18548 H 1755.42 -0.303041 -4.20309 0
M  V30 18549 H 1754.09 0.371515 -3.21561 0
M  V30 18550 H 1753 -1.94572 -3.19519 0
M  V30 18551 H 1754.33 -2.54313 -4.21409 0
M  V30 18552 N 1755.98 1.20536 -1.01532 0
M  V30 18553 C 1756.95 2.21495 -0.589298 0
M  V30 18554 C 1757.95 1.57167 0.339871 0
M  V30 18555 O 1759.14 1.73724 0.128736 0
M  V30 18556 C 1756.27 3.40614 0.139623 0
M  V30 18557 H 1757.46 2.607 -1.48241 0
M  V30 18558 H 1755.01 1.33977 -0.804977 0
M  V30 18559 H 1755.75 3.0691 1.04771 0
M  V30 18560 H 1755.53 3.88531 -0.52785 0
M  V30 18561 H 1757.02 4.15431 0.425083 0
M  V30 18562 N 1757.46 0.791395 1.36289 0
M  V30 18563 C 1758.41 0.189246 2.30023 0
M  V30 18564 C 1759.38 -0.668045 1.52074 0
M  V30 18565 O 1760.56 -0.61631 1.80572 0
M  V30 18566 C 1757.7 -0.668391 3.38565 0
M  V30 18567 C 1756.82 0.207659 4.31501 0
M  V30 18568 C 1755.95 -0.656539 5.27127 0
M  V30 18569 C 1754.99 0.220845 6.11701 0
M  V30 18570 N 1754.13 -0.602449 6.99511 0
M  V30 18571 H 1758.97 0.994038 2.80932 0
M  V30 18572 H 1756.5 0.501759 1.38278 0
M  V30 18573 H 1758.46 -1.18064 4.00146 0
M  V30 18574 H 1757.09 -1.43859 2.88971 0
M  V30 18575 H 1756.14 0.837894 3.71057 0
M  V30 18576 H 1757.46 0.883613 4.90911 0
M  V30 18577 H 1756.61 -1.23452 5.94007 0
M  V30 18578 H 1755.35 -1.36611 4.68176 0
M  V30 18579 H 1754.35 0.811214 5.43782 0
M  V30 18580 H 1755.58 0.928049 6.72729 0
M  V30 18581 H 1753.52 -1.29628 6.43065 0
M  V30 18582 H 1753.44 0.015783 7.55998 0
M  V30 18583 H 1754.71 -1.16419 7.70757 0
M  V30 18584 N 1758.94 -1.47929 0.54358 0
M  V30 18585 C 1760.36 -1.58312 0.202376 0
M  V30 18586 C 1760.56 -1.54394 -1.29479 0
M  V30 18587 O 1759.61 -1.44015 -2.07403 0
M  V30 18588 C 1760.92 -2.89389 0.816958 0
M  V30 18589 C 1762.47 -3.02946 0.786935 0
M  V30 18590 C 1762.95 -4.36704 1.38034 0
M  V30 18591 N 1764.44 -4.43306 1.34291 0
M  V30 18592 C 1765.17 -5.45339 1.77182 0
M  V30 18593 N 1764.67 -6.54255 2.27866 0
M  V30 18594 N 1766.46 -5.36302 1.68336 0
M  V30 18595 H 1758.61 -1.48719 1.51646 0
M  V30 18596 H 1760.88 -0.706966 0.631587 0
M  V30 18597 H 1760.58 -2.97953 1.86861 0
M  V30 18598 H 1760.46 -3.75989 0.30198 0
M  V30 18599 H 1762.84 -2.93988 -0.25599 0
M  V30 18600 H 1762.92 -2.17923 1.33953 0
M  V30 18601 H 1762.57 -4.46418 2.42226 0
M  V30 18602 H 1762.5 -5.20437 0.803308 0
M  V30 18603 H 1764.99 -3.65185 0.972033 0
M  V30 18604 H 1765.3 -7.28265 2.58552 0
M  V30 18605 H 1763.65 -6.55181 2.31868 0
M  V30 18606 H 1766.84 -4.50109 1.28527 0
M  V30 18607 H 1767.01 -6.15684 2.02082 0
M  V30 18608 N 1760.42 -0.27936 -1.55104 0
M  V30 18609 C 1761.67 0.336866 -1.98867 0
M  V30 18610 C 1761.98 1.56656 -1.17124 0
M  V30 18611 O 1763.19 2.25601 -1.51051 0
M  V30 18612 C 1761.64 0.650699 -3.53969 0
M  V30 18613 C 1761.25 -0.559433 -4.44493 0
M  V30 18614 C 1762.99 1.22931 -4.0631 0
M  V30 18615 C 1760.9 -0.219952 -5.90991 0
M  V30 18616 H 1759.83 0.129643 -0.742771 0
M  V30 18617 H 1762.48 -0.384678 -1.79423 0
M  V30 18618 H 1760.86 1.43126 -3.6923 0
M  V30 18619 H 1762.04 -1.3362 -4.41001 0
M  V30 18620 H 1760.35 -1.05519 -4.02809 0
M  V30 18621 H 1762.95 1.49719 -5.13311 0
M  V30 18622 H 1763.29 2.16458 -3.55601 0
M  V30 18623 H 1763.83 0.51095 -3.94505 0
M  V30 18624 H 1760.56 -1.1232 -6.45805 0
M  V30 18625 H 1760.08 0.519971 -5.97542 0
M  V30 18626 H 1761.76 0.186308 -6.46732 0
M  V30 18627 N 1761.9 1.57599 -0.0067085 0
M  V30 18628 C 1762.84 2.08842 0.982532 0
M  V30 18629 C 1763.81 0.985339 1.33717 0
M  V30 18630 O 1765 1.25818 1.43438 0
M  V30 18631 C 1762.14 2.60188 2.26708 0
M  V30 18632 C 1761.25 3.84422 1.97087 0
M  V30 18633 C 1760.39 4.24244 3.19672 0
M  V30 18634 C 1759.42 5.41297 2.85769 0
M  V30 18635 N 1758.56 5.76381 4.00911 0
M  V30 18636 H 1763.4 2.93092 0.538618 0
M  V30 18637 H 1760.94 1.44885 0.254293 0
M  V30 18638 H 1762.9 2.88038 3.01811 0
M  V30 18639 H 1761.53 1.78802 2.68756 0
M  V30 18640 H 1760.58 3.63439 1.12323 0
M  V30 18641 H 1761.89 4.6962 1.68102 0
M  V30 18642 H 1761.04 4.53413 4.03115 0
M  V30 18643 H 1759.78 3.37769 3.518 0
M  V30 18644 H 1758.79 5.11846 2.00734 0
M  V30 18645 H 1760.01 6.29454 2.54881 0
M  V30 18646 H 1757.96 4.92863 4.32923 0
M  V30 18647 H 1757.88 6.56168 3.75473 0
M  V30 18648 H 1759.14 6.10144 4.85123 0
M  V30 18649 N 1763.37 -0.266145 1.55336 0
M  V30 18650 C 1764.62 -0.998308 1.76527 0
M  V30 18651 C 1764.95 -1.85691 0.568535 0
M  V30 18652 O 1764.23 -1.89602 -0.433735 0
M  V30 18653 C 1764.51 -1.87509 3.07429 0
M  V30 18654 C 1764.36 -1.04596 4.3747 0
M  V30 18655 C 1765.68 -2.86099 3.34418 0
M  V30 18656 H 1762.8 -0.361514 0.642244 0
M  V30 18657 H 1765.44 -0.270186 1.88069 0
M  V30 18658 H 1763.59 -2.49591 2.97719 0
M  V30 18659 H 1765.27 -0.445323 4.59145 0
M  V30 18660 H 1763.51 -0.349641 4.32389 0
M  V30 18661 H 1764.18 -1.69279 5.25403 0
M  V30 18662 H 1766.66 -2.34153 3.43965 0
M  V30 18663 H 1765.53 -3.44584 4.27262 0
M  V30 18664 H 1765.79 -3.61577 2.5439 0
M  V30 18665 N 1764.85 -1.48386 -0.530967 0
M  V30 18666 C 1765.78 -1.6573 -1.64486 0
M  V30 18667 C 1766.76 -0.506198 -1.62393 0
M  V30 18668 O 1767.95 -0.738623 -1.79605 0
M  V30 18669 C 1765.08 -1.69594 -3.03076 0
M  V30 18670 C 1764.03 -2.84195 -3.20027 0
M  V30 18671 C 1763.36 -2.73148 -4.59668 0
M  V30 18672 C 1764.66 -4.25504 -3.02892 0
M  V30 18673 H 1766.35 -2.58983 -1.50227 0
M  V30 18674 H 1763.9 -1.24633 -0.721286 0
M  V30 18675 H 1765.85 -1.80316 -3.80873 0
M  V30 18676 H 1764.57 -0.729193 -3.18356 0
M  V30 18677 H 1763.23 -2.73027 -2.44647 0
M  V30 18678 H 1762.88 -1.74444 -4.71782 0
M  V30 18679 H 1762.58 -3.50047 -4.71954 0
M  V30 18680 H 1764.11 -2.85836 -5.39565 0
M  V30 18681 H 1765.52 -4.37511 -3.70482 0
M  V30 18682 H 1763.92 -5.03393 -3.26673 0
M  V30 18683 H 1764.99 -4.42036 -1.99329 0
M  V30 18684 N 1766.33 0.779763 -1.36958 0
M  V30 18685 C 1767.56 1.56648 -1.34704 0
M  V30 18686 C 1767.97 1.89065 0.071459 0
M  V30 18687 O 1767.31 1.51325 1.04146 0
M  V30 18688 C 1767.37 2.90862 -2.11281 0
M  V30 18689 C 1767.04 2.81123 -3.60304 0
M  V30 18690 C 1768.03 2.52702 -4.54354 0
M  V30 18691 C 1765.72 2.99397 -4.0332 0
M  V30 18692 C 1767.71 2.42671 -5.89398 0
M  V30 18693 C 1765.4 2.88987 -5.38451 0
M  V30 18694 C 1766.4 2.60663 -6.31303 0
M  V30 18695 O 1766.09 2.50264 -7.63952 0
M  V30 18696 H 1765.82 0.492209 -0.463364 0
M  V30 18697 H 1768.37 0.974946 -1.80787 0
M  V30 18698 H 1766.6 3.52104 -1.59875 0
M  V30 18699 H 1768.29 3.52203 -2.01762 0
M  V30 18700 H 1769.06 2.38277 -4.22432 0
M  V30 18701 H 1764.94 3.20446 -3.31414 0
M  V30 18702 H 1768.48 2.20484 -6.6184 0
M  V30 18703 H 1764.38 3.02977 -5.69978 0
M  V30 18704 H 1765.14 2.65674 -7.74183 0
M  V30 18705 N 1767.81 1.21396 1.00503 0
M  V30 18706 C 1768.76 0.97023 2.11398 0
M  V30 18707 C 1769.75 -0.0825019 1.69199 0
M  V30 18708 O 1770.96 0.0688841 1.79868 0
M  V30 18709 H 1767.33 0.296494 0.691083 0
M  V30 18710 H 1769.3 1.91155 2.29134 0
M  V30 18711 C 1768.05 0.551472 3.43299 0
M  V30 18712 H 1767.37 1.35316 3.76204 0
M  V30 18713 H 1768.81 0.420249 4.21912 0
M  V30 18714 C 1767.27 -0.737588 3.28727 0
M  V30 18715 O 1767.8 -1.79313 3.59458 0
M  V30 18716 N 1766.01 -0.704084 2.81942 0
M  V30 18717 H 1765.56 0.155183 2.57132 0
M  V30 18718 H 1765.51 -1.56689 2.72573 0
M  V30 18719 N 1769.29 -1.19996 1.0217 0
M  V30 18720 C 1770.23 -2.22963 0.596318 0
M  V30 18721 C 1771.2 -1.61548 -0.386212 0
M  V30 18722 O 1772.39 -1.88667 -0.284497 0
M  V30 18723 C 1769.53 -3.45058 -0.054059 0
M  V30 18724 C 1768.64 -4.20885 0.973648 0
M  V30 18725 C 1767.78 -5.30387 0.293788 0
M  V30 18726 C 1766.81 -5.97964 1.3079 0
M  V30 18727 N 1765.95 -6.99044 0.654351 0
M  V30 18728 H 1770.79 -2.58709 1.47898 0
M  V30 18729 H 1768.33 -1.27117 0.740254 0
M  V30 18730 H 1770.29 -4.14784 -0.448313 0
M  V30 18731 H 1768.92 -3.0999 -0.900342 0
M  V30 18732 H 1767.97 -3.50174 1.48602 0
M  V30 18733 H 1769.28 -4.67292 1.7447 0
M  V30 18734 H 1768.43 -6.065 -0.155695 0
M  V30 18735 H 1767.17 -4.85031 -0.509521 0
M  V30 18736 H 1766.18 -5.20607 1.76772 0
M  V30 18737 H 1767.4 -6.45404 2.11258 0
M  V30 18738 H 1765.35 -6.55873 -0.128996 0
M  V30 18739 H 1765.27 -7.43605 1.36339 0
M  V30 18740 H 1766.53 -7.79165 0.228631 0
M  V30 18741 N 1770.76 -0.798611 -1.35867 0
M  V30 18742 C 1772 -0.380789 -2.00822 0
M  V30 18743 C 1772.37 1.03061 -1.61995 0
M  V30 18744 O 1773.57 1.55001 -2.19609 0
M  V30 18745 C 1771.84 -0.549604 -3.53149 0
M  V30 18746 S 1773.4 -0.221022 -4.38243 0
M  V30 18747 H 1770.22 -0.145008 -0.696056 0
M  V30 18748 H 1772.82 -1.03912 -1.65598 0
M  V30 18749 H 1771.52 -1.57695 -3.78894 0
M  V30 18750 H 1771.05 0.124329 -3.93203 0
M  V30 18751 H 1773.07 0.974167 -4.86543 0
M  V30 18752 N 1772.24 1.47639 -0.551417 0
M  V30 18753 C 1773.47 2.07381 -0.0278888 0
M  V30 18754 C 1773.89 1.40223 1.25375 0
M  V30 18755 O 1773.25 0.475268 1.7496 0
M  V30 18756 C 1773.3 3.60258 0.157001 0
M  V30 18757 O 1772.4 3.93913 1.2209 0
M  V30 18758 H 1771.74 0.66221 -0.0487252 0
M  V30 18759 H 1774.27 1.89742 -0.765449 0
M  V30 18760 H 1774.28 4.06291 0.373013 0
M  V30 18761 H 1772.96 4.08537 -0.779122 0
M  V30 18762 H 1771.53 3.59633 0.985843 0
M  V30 18763 N 1773.72 0.287581 1.54954 0
M  V30 18764 C 1774.67 -0.610315 2.2445 0
M  V30 18765 C 1775.66 -1.14786 1.24582 0
M  V30 18766 O 1776.87 -1.10005 1.42474 0
M  V30 18767 H 1773.24 -0.215394 0.720493 0
M  V30 18768 H 1775.21 -0.00148121 2.984 0
M  V30 18769 C 1773.96 -1.77719 2.9885 0
M  V30 18770 H 1773.29 -1.37277 3.75493 0
M  V30 18771 H 1774.73 -2.38181 3.50779 0
M  V30 18772 C 1773.19 -2.67321 2.05039 0
M  V30 18773 O 1773.72 -3.68038 1.60968 0
M  V30 18774 N 1771.92 -2.34761 1.71276 0
M  V30 18775 H 1771.47 -1.52905 2.07311 0
M  V30 18776 H 1771.43 -2.94981 1.08781 0
M  V30 18777 N 1775.2 -1.57593 0.0150662 0
M  V30 18778 C 1776.45 -1.90392 -0.66587 0
M  V30 18779 C 1776.76 -0.891694 -1.74092 0
M  V30 18780 O 1777.97 -1.11043 -2.47753 0
M  V30 18781 C 1776.42 -3.38026 -1.23558 0
M  V30 18782 C 1776.03 -4.47577 -0.19455 0
M  V30 18783 C 1777.77 -3.79913 -1.89384 0
M  V30 18784 C 1775.68 -5.86299 -0.7751 0
M  V30 18785 H 1774.61 -0.710474 -0.252473 0
M  V30 18786 H 1777.26 -1.83334 0.0780739 0
M  V30 18787 H 1775.64 -3.3997 -2.03068 0
M  V30 18788 H 1776.82 -4.57172 0.577061 0
M  V30 18789 H 1775.13 -4.14805 0.364134 0
M  V30 18790 H 1777.73 -4.809 -2.3375 0
M  V30 18791 H 1778.07 -3.14225 -2.73072 0
M  V30 18792 H 1778.61 -3.80333 -1.16585 0
M  V30 18793 H 1775.35 -6.55496 0.0233354 0
M  V30 18794 H 1774.87 -5.80338 -1.51552 0
M  V30 18795 H 1776.54 -6.3443 -1.26915 0
M  V30 18796 N 1776.68 0.257904 -1.55475 0
M  V30 18797 C 1777.93 0.985329 -1.75995 0
M  V30 18798 C 1778.24 1.86898 -0.57694 0
M  V30 18799 O 1779.44 2.63233 -0.664893 0
M  V30 18800 C 1777.9 1.80195 -3.11541 0
M  V30 18801 C 1777.51 0.966227 -4.37456 0
M  V30 18802 C 1779.25 2.52277 -3.41404 0
M  V30 18803 C 1777.16 1.7781 -5.64037 0
M  V30 18804 H 1776.09 0.371623 -0.656058 0
M  V30 18805 H 1778.74 0.240396 -1.81919 0
M  V30 18806 H 1777.12 2.58841 -2.99695 0
M  V30 18807 H 1778.3 0.222865 -4.60261 0
M  V30 18808 H 1776.61 0.359255 -4.14847 0
M  V30 18809 H 1779.21 3.13451 -4.33189 0
M  V30 18810 H 1779.55 3.23333 -2.62224 0
M  V30 18811 H 1780.08 1.80649 -3.54416 0
M  V30 18812 H 1776.82 1.11147 -6.46008 0
M  V30 18813 H 1776.34 2.49703 -5.45352 0
M  V30 18814 H 1778.02 2.348 -6.02891 0
M  V30 18815 N 1778.15 1.48666 0.52309 0
M  V30 18816 C 1779.1 1.63701 1.62698 0
M  V30 18817 C 1780.07 0.478895 1.59047 0
M  V30 18818 O 1781.26 0.703229 1.77368 0
M  V30 18819 C 1778.4 1.68912 3.00936 0
M  V30 18820 C 1777.51 2.95878 3.1477 0
M  V30 18821 C 1776.64 2.92206 4.43609 0
M  V30 18822 C 1775.68 4.13846 4.50996 0
M  V30 18823 N 1774.82 4.08213 5.71233 0
M  V30 18824 H 1779.66 2.57967 1.49188 0
M  V30 18825 H 1777.2 1.27924 0.726217 0
M  V30 18826 H 1779.16 1.69915 3.81031 0
M  V30 18827 H 1777.79 0.781309 3.13202 0
M  V30 18828 H 1776.84 3.04588 2.27883 0
M  V30 18829 H 1778.15 3.85861 3.1609 0
M  V30 18830 H 1777.3 2.91649 5.32002 0
M  V30 18831 H 1776.04 1.99964 4.44821 0
M  V30 18832 H 1775.05 4.14671 3.61009 0
M  V30 18833 H 1776.27 5.07256 4.51517 0
M  V30 18834 H 1774.22 3.18794 5.73329 0
M  V30 18835 H 1774.14 4.91908 5.74075 0
M  V30 18836 H 1775.4 4.11725 6.61893 0
M  V30 18837 N 1779.63 -0.772489 1.37369 0
M  V30 18838 C 1780.56 -1.89487 1.28948 0
M  V30 18839 C 1781.58 -1.61499 0.205434 0
M  V30 18840 O 1782.77 -1.7243 0.461519 0
M  V30 18841 C 1779.87 -3.24698 0.970798 0
M  V30 18842 C 1779.04 -3.80337 2.16015 0
M  V30 18843 C 1778.1 -4.94022 1.81187 0
M  V30 18844 O 1777.12 -5.09647 2.53473 0
M  V30 18845 N 1778.33 -5.75562 0.755549 0
M  V30 18846 H 1781.09 -1.97228 2.25658 0
M  V30 18847 H 1778.65 -0.951562 1.30984 0
M  V30 18848 H 1780.64 -3.98268 0.71866 0
M  V30 18849 H 1779.21 -3.12464 0.0922825 0
M  V30 18850 H 1778.43 -2.98554 2.57409 0
M  V30 18851 H 1779.72 -4.14242 2.95434 0
M  V30 18852 H 1779.12 -5.65486 0.155691 0
M  V30 18853 H 1777.68 -6.49362 0.563268 0
M  V30 18854 N 1781.11 -1.21927 -0.998575 0
M  V30 18855 C 1782.53 -0.978007 -1.26124 0
M  V30 18856 C 1782.73 0.3318 -1.98749 0
M  V30 18857 O 1781.78 1.05585 -2.29364 0
M  V30 18858 C 1783.1 -2.17291 -2.07858 0
M  V30 18859 C 1784.64 -2.21586 -2.21062 0
M  V30 18860 C 1785.12 -3.40613 -3.06181 0
M  V30 18861 N 1786.61 -3.40739 -3.13769 0
M  V30 18862 C 1787.34 -4.29488 -3.79905 0
M  V30 18863 N 1786.84 -5.28445 -4.48015 0
M  V30 18864 N 1788.63 -4.17279 -3.76609 0
M  V30 18865 H 1780.78 -2.06149 -0.51151 0
M  V30 18866 H 1783.05 -0.903039 -0.288487 0
M  V30 18867 H 1782.75 -3.12246 -1.61851 0
M  V30 18868 H 1782.63 -2.16883 -3.08612 0
M  V30 18869 H 1785.01 -1.27183 -2.66286 0
M  V30 18870 H 1785.1 -2.26035 -1.19757 0
M  V30 18871 H 1784.74 -4.35313 -2.61659 0
M  V30 18872 H 1784.67 -3.33403 -4.07615 0
M  V30 18873 H 1787.16 -2.69128 -2.65289 0
M  V30 18874 H 1787.47 -5.92454 -4.96203 0
M  V30 18875 H 1785.82 -5.32364 -4.46782 0
M  V30 18876 H 1789.01 -3.39226 -3.22557 0
M  V30 18877 H 1789.18 -4.86651 -4.27873 0
M  V30 18878 N 1782.59 1.19452 -1.02805 0
M  V30 18879 C 1783.54 2.22644 -0.608134 0
M  V30 18880 C 1784.51 1.6175 0.377639 0
M  V30 18881 O 1785.69 1.88815 0.274487 0
M  V30 18882 C 1782.83 3.45081 0.0357589 0
M  V30 18883 C 1781.94 4.20363 -0.995955 0
M  V30 18884 C 1781.08 5.30224 -0.321911 0
M  V30 18885 C 1780.12 5.97261 -1.33959 0
M  V30 18886 N 1779.25 6.98687 -0.691414 0
M  V30 18887 H 1784.09 2.57921 -1.49268 0
M  V30 18888 H 1781.63 1.26722 -0.746985 0
M  V30 18889 H 1783.59 4.15016 0.426309 0
M  V30 18890 H 1782.22 3.10463 0.883889 0
M  V30 18891 H 1781.27 3.49381 -1.50457 0
M  V30 18892 H 1782.58 4.6636 -1.76945 0
M  V30 18893 H 1781.74 6.06574 0.123528 0
M  V30 18894 H 1780.48 4.85294 0.483792 0
M  V30 18895 H 1779.48 5.19662 -1.7953 0
M  V30 18896 H 1780.71 6.44275 -2.14678 0
M  V30 18897 H 1778.65 6.55932 0.0942121 0
M  V30 18898 H 1778.57 7.42871 -1.40281 0
M  V30 18899 H 1779.84 7.79032 -0.269948 0
M  V30 18900 N 1784.07 0.805805 1.35442 0
M  V30 18901 C 1785.48 0.489448 1.5191 0
M  V30 18902 C 1785.68 -0.989485 1.75532 0
M  V30 18903 O 1784.74 -1.77453 1.79629 0
M  V30 18904 C 1786.05 1.33413 2.69484 0
M  V30 18905 C 1787.6 1.32949 2.83361 0
M  V30 18906 C 1788.07 2.15827 4.03959 0
M  V30 18907 N 1789.57 2.13359 4.11135 0
M  V30 18908 C 1790.3 2.74245 5.03564 0
M  V30 18909 N 1789.8 3.44055 6.0133 0
M  V30 18910 N 1791.59 2.63891 4.96304 0
M  V30 18911 H 1783.74 1.76361 1.18366 0
M  V30 18912 H 1786 0.750594 0.579062 0
M  V30 18913 H 1785.71 2.38364 2.58603 0
M  V30 18914 H 1785.58 0.986809 3.64063 0
M  V30 18915 H 1787.97 0.287837 2.93693 0
M  V30 18916 H 1788.05 1.71668 1.89641 0
M  V30 18917 H 1787.7 3.20033 3.94388 0
M  V30 18918 H 1787.63 1.74469 4.96858 0
M  V30 18919 H 1790.12 1.62566 3.41146 0
M  V30 18920 H 1790.43 3.87802 6.68453 0
M  V30 18921 H 1788.77 3.48159 6.01507 0
M  V30 18922 H 1791.97 2.08941 4.18881 0
M  V30 18923 H 1792.14 3.11631 5.68146 0
M  V30 18924 N 1785.54 -1.47344 0.559239 0
M  V30 18925 C 1786.77 -2.07364 0.0388864 0
M  V30 18926 C 1787.19 -1.40886 -1.2463 0
M  V30 18927 O 1786.55 -0.48454 -1.74705 0
M  V30 18928 C 1786.6 -3.60336 -0.137894 0
M  V30 18929 O 1785.7 -3.94555 -1.2 0
M  V30 18930 H 1785.05 -0.661942 0.0522363 0
M  V30 18931 H 1787.58 -1.89333 0.7755 0
M  V30 18932 H 1787.59 -4.06483 -0.351462 0
M  V30 18933 H 1786.26 -4.08118 0.800776 0
M  V30 18934 H 1784.84 -3.6015 -0.966757 0
M  V30 18935 N 1787.02 -0.295795 -1.54799 0
M  V30 18936 C 1787.93 0.592206 -2.27002 0
M  V30 18937 C 1788.95 1.1528 -1.30332 0
M  V30 18938 O 1790.12 1.1787 -1.63305 0
M  V30 18939 C 1787.19 1.75027 -2.99277 0
M  V30 18940 C 1786.25 1.22427 -4.11473 0
M  V30 18941 C 1785.48 2.32714 -4.80291 0
M  V30 18942 O 1785.71 3.52506 -4.48437 0
M  V30 18943 O 1784.64 1.997 -5.67806 0
M  V30 18944 H 1788.47 0.00666048 -3.03699 0
M  V30 18945 H 1786.05 -0.0624413 -1.49269 0
M  V30 18946 H 1787.93 2.42508 -3.44627 0
M  V30 18947 H 1786.61 2.32252 -2.25479 0
M  V30 18948 H 1785.52 0.515337 -3.70534 0
M  V30 18949 H 1786.85 0.697518 -4.87233 0
M  V30 18950 N 1788.5 1.57583 -0.0234236 0
M  V30 18951 C 1789.91 1.79422 0.516201 0
M  V30 18952 C 1790.26 0.933151 1.72588 0
M  V30 18953 O 1789.39 0.141985 2.15934 0
M  V30 18954 C 1789.98 3.25405 0.943248 0
M  V30 18955 C 1788.54 3.48259 1.42802 0
M  V30 18956 C 1787.69 2.74543 0.390074 0
M  V30 18957 H 1790.64 1.56727 -0.24949 0
M  V30 18958 H 1790.66 3.34803 1.80795 0
M  V30 18959 H 1790.17 3.88049 0.0626242 0
M  V30 18960 H 1788.27 2.9086 2.32877 0
M  V30 18961 H 1788.39 4.56968 1.43933 0
M  V30 18962 H 1786.75 2.39852 0.856919 0
M  V30 18963 H 1787.53 3.399 -0.481986 0
M  V30 18964 N 1789.98 -0.249655 1.5561 0
M  V30 18965 C 1791.23 -0.979529 1.77576 0
M  V30 18966 C 1791.56 -1.85078 0.588198 0
M  V30 18967 O 1790.83 -1.90052 -0.4136 0
M  V30 18968 C 1791.12 -1.84238 3.094 0
M  V30 18969 C 1790.97 -0.9995 4.38554 0
M  V30 18970 C 1792.29 -2.82536 3.37433 0
M  V30 18971 H 1789.41 -0.354681 0.646042 0
M  V30 18972 H 1792.05 -0.250224 1.88345 0
M  V30 18973 H 1790.2 -2.46419 3.0035 0
M  V30 18974 H 1791.87 -0.396599 4.59592 0
M  V30 18975 H 1790.11 -0.30376 4.32735 0
M  V30 18976 H 1790.79 -1.63697 5.27169 0
M  V30 18977 H 1793.26 -2.30491 3.46429 0
M  V30 18978 H 1792.14 -3.40033 4.30893 0
M  V30 18979 H 1792.4 -3.58859 2.58211 0
M  V30 18980 N 1791.46 -1.48941 -0.515198 0
M  V30 18981 C 1792.42 -1.64062 -1.60051 0
M  V30 18982 C 1793.42 -0.513101 -1.52394 0
M  V30 18983 O 1794.61 -0.77924 -1.558 0
M  V30 18984 C 1791.74 -1.6247 -2.99694 0
M  V30 18985 H 1792.94 -2.60849 -1.47978 0
M  V30 18986 H 1790.49 -1.37759 -0.738378 0
M  V30 18987 H 1791.22 -0.672141 -3.17258 0
M  V30 18988 H 1791.01 -2.4434 -3.0666 0
M  V30 18989 H 1792.5 -1.76273 -3.78573 0
M  V30 18990 N 1792.94 0.765193 -1.37777 0
M  V30 18991 C 1794.18 1.52623 -1.33545 0
M  V30 18992 C 1794.51 1.94043 0.077992 0
M  V30 18993 O 1793.79 1.64566 1.03673 0
M  V30 18994 C 1794.07 2.78679 -2.28057 0
M  V30 18995 C 1793.93 2.43471 -3.78209 0
M  V30 18996 C 1795.24 3.80646 -2.20899 0
M  V30 18997 H 1792.36 0.553678 -0.486425 0
M  V30 18998 H 1795.01 0.877326 -1.68532 0
M  V30 18999 H 1793.16 3.3405 -1.9835 0
M  V30 19000 H 1794.83 1.93965 -4.1854 0
M  V30 19001 H 1793.07 1.76081 -3.96457 0
M  V30 19002 H 1793.74 3.33609 -4.39783 0
M  V30 19003 H 1796.22 3.34786 -2.47099 0
M  V30 19004 H 1795.09 4.6656 -2.89159 0
M  V30 19005 H 1795.35 4.25389 -1.20403 0
M  V30 19006 N 1794.41 1.22455 0.992094 0
M  V30 19007 C 1795.35 0.938597 2.08004 0
M  V30 19008 C 1796.32 -0.118779 1.62166 0
M  V30 19009 O 1797.51 0.0129778 1.88496 0
M  V30 19010 C 1794.64 0.411803 3.36187 0
M  V30 19011 C 1793.68 1.45398 4.00951 0
M  V30 19012 S 1794.51 3.02757 4.417 0
M  V30 19013 C 1795.67 2.51718 5.73052 0
M  V30 19014 H 1795.9 1.85987 2.3194 0
M  V30 19015 H 1793.44 1.0557 1.12669 0
M  V30 19016 H 1795.39 0.114452 4.1034 0
M  V30 19017 H 1794.06 -0.488368 3.1028 0
M  V30 19018 H 1793.25 1.03528 4.93252 0
M  V30 19019 H 1792.85 1.70008 3.33127 0
M  V30 19020 H 1795.14 1.93009 6.49426 0
M  V30 19021 H 1796.09 3.42513 6.1975 0
M  V30 19022 H 1796.49 1.92974 5.30491 0
M  V30 19023 N 1795.89 -1.18905 1.03437 0
M  V30 19024 C 1797.14 -1.88055 0.729268 0
M  V30 19025 C 1797.45 -1.80833 -0.745564 0
M  V30 19026 O 1798.66 -2.45285 -1.16393 0
M  V30 19027 C 1797.12 -3.37341 1.25415 0
M  V30 19028 C 1796.72 -3.53107 2.75716 0
M  V30 19029 C 1798.47 -4.11932 1.02529 0
M  V30 19030 C 1796.37 -4.96317 3.21595 0
M  V30 19031 H 1795.3 -0.704345 0.269098 0
M  V30 19032 H 1797.96 -1.34397 1.24938 0
M  V30 19033 H 1796.34 -3.90429 0.661925 0
M  V30 19034 H 1797.51 -3.10322 3.40642 0
M  V30 19035 H 1795.83 -2.91913 2.96944 0
M  V30 19036 H 1798.42 -5.17552 1.34328 0
M  V30 19037 H 1798.77 -4.16283 -0.0377114 0
M  V30 19038 H 1799.3 -3.64998 1.5818 0
M  V30 19039 H 1796.04 -4.97131 4.27248 0
M  V30 19040 H 1795.56 -5.39842 2.61401 0
M  V30 19041 H 1797.24 -5.65 3.15253 0
M  V30 19042 N 1797.37 -0.812977 -1.35013 0
M  V30 19043 C 1798.32 -0.200375 -2.27118 0
M  V30 19044 C 1799.3 0.629541 -1.48073 0
M  V30 19045 O 1800.5 0.485751 -1.70204 0
M  V30 19046 C 1797.62 0.644989 -3.37187 0
M  V30 19047 C 1796.71 -0.195007 -4.23651 0
M  V30 19048 N 1797.1 -1.26116 -4.89825 0
M  V30 19049 C 1795.4 0.0223111 -4.45994 0
M  V30 19050 C 1796.1 -1.77451 -5.53973 0
M  V30 19051 N 1795.08 -1.07995 -5.32764 0
M  V30 19052 H 1798.88 -1.01605 -2.75778 0
M  V30 19053 H 1796.39 -0.654777 -1.48615 0
M  V30 19054 H 1798.39 1.09995 -4.02128 0
M  V30 19055 H 1797.05 1.45894 -2.90078 0
M  V30 19056 H 1798.06 -1.64387 -4.91118 0
M  V30 19057 H 1794.74 0.804889 -4.09668 0
M  V30 19058 H 1796.13 -2.66591 -6.16749 0
M  V30 19059 N 1798.85 1.47045 -0.567045 0
M  V30 19060 C 1800.1 2.02046 -0.0465877 0
M  V30 19061 C 1800.42 1.44271 1.3119 0
M  V30 19062 O 1799.69 0.621533 1.85779 0
M  V30 19063 H 1798.27 0.746864 -0.0142323 0
M  V30 19064 H 1800.93 1.80335 -0.739281 0
M  V30 19065 H 1800.02 3.12081 0.0341623 0
M  V30 19066 N 1800.33 0.304 1.5464 0
M  V30 19067 C 1801.74 -0.188042 1.85751 0
M  V30 19068 C 1802.09 -1.53186 1.22591 0
M  V30 19069 O 1801.21 -2.09943 0.524696 0
M  V30 19070 C 1801.81 -0.347976 3.37008 0
M  V30 19071 C 1800.37 -0.784238 3.68139 0
M  V30 19072 C 1799.51 0.105654 2.77099 0
M  V30 19073 H 1802.46 0.524918 1.49767 0
M  V30 19074 H 1802.49 -1.18207 3.61673 0
M  V30 19075 H 1802 0.630227 3.82949 0
M  V30 19076 H 1800.1 -1.77288 3.27719 0
M  V30 19077 H 1800.21 -0.601546 4.75309 0
M  V30 19078 H 1798.58 -0.415561 2.51287 0
M  V30 19079 H 1799.36 1.08027 3.25861 0
M  V30 19080 N 1801.8 -1.57568 0.0317802 0
M  V30 19081 C 1803.21 -1.79693 -0.506679 0
M  V30 19082 C 1803.57 -0.94229 -1.72091 0
M  V30 19083 O 1802.69 -0.153435 -2.15855 0
M  V30 19084 C 1803.29 -3.259 -0.925978 0
M  V30 19085 C 1801.84 -3.49012 -1.40953 0
M  V30 19086 C 1800.99 -2.74746 -0.375509 0
M  V30 19087 H 1803.94 -1.56592 0.257798 0
M  V30 19088 H 1803.96 -3.35757 -1.79017 0
M  V30 19089 H 1803.48 -3.88077 -0.0420441 0
M  V30 19090 H 1801.58 -2.9209 -2.31331 0
M  V30 19091 H 1801.69 -4.57725 -1.41508 0
M  V30 19092 H 1800.05 -2.40303 -0.844187 0
M  V30 19093 H 1800.84 -3.39639 0.500005 0
M  V30 19094 N 1803.28 0.241399 -1.5574 0
M  V30 19095 C 1804.53 0.96675 -1.77478 0
M  V30 19096 C 1804.85 1.85644 -0.596757 0
M  V30 19097 O 1804.12 1.92035 0.387236 0
M  V30 19098 H 1802.7 0.35995 -0.654557 0
M  V30 19099 H 1805.36 0.258023 -1.93185 0
M  V30 19100 H 1804.46 1.58524 -2.68843 0
M  V30 19101 N 1804.76 1.49212 0.507292 0
M  V30 19102 C 1805.99 1.6208 1.28599 0
M  V30 19103 C 1806.4 0.289745 1.86563 0
M  V30 19104 O 1805.76 -0.723987 1.67525 0
M  V30 19105 C 1805.81 2.68482 2.42074 0
M  V30 19106 O 1805.53 3.96424 1.86493 0
M  V30 19107 C 1807.03 2.91997 3.33546 0
M  V30 19108 H 1804.25 0.545831 0.390268 0
M  V30 19109 H 1806.8 1.95201 0.609652 0
M  V30 19110 H 1804.95 2.38156 3.05549 0
M  V30 19111 H 1805.37 4.54983 2.60942 0
M  V30 19112 H 1806.84 3.70195 4.09463 0
M  V30 19113 H 1807.32 2.01673 3.9016 0
M  V30 19114 H 1807.92 3.23715 2.75842 0
M  V30 19115 N 1806.24 -0.757876 1.38181 0
M  V30 19116 C 1807.49 -1.51388 1.33888 0
M  V30 19117 C 1807.81 -1.94867 -0.0718767 0
M  V30 19118 O 1807.08 -1.67329 -1.01871 0
M  V30 19119 H 1805.66 -0.561534 0.492634 0
M  V30 19120 H 1808.32 -0.901156 1.72815 0
M  V30 19121 H 1807.42 -2.4068 1.98695 0
M  V30 19122 N 1807.72 -1.22979 -0.985586 0
M  V30 19123 C 1808.66 -1.00637 -2.07704 0
M  V30 19124 C 1809.63 0.0744076 -1.65933 0
M  V30 19125 O 1810.82 -0.0766583 -1.90646 0
M  V30 19126 C 1807.96 -0.598088 -3.39878 0
M  V30 19127 C 1807.07 -1.75043 -3.94948 0
M  V30 19128 C 1806.21 -1.28943 -5.15313 0
M  V30 19129 C 1805.25 -2.41285 -5.62537 0
M  V30 19130 N 1804.38 -1.9618 -6.74135 0
M  V30 19131 H 1809.22 -1.94063 -2.26149 0
M  V30 19132 H 1806.76 -0.966841 -1.10863 0
M  V30 19133 H 1808.72 -0.342503 -4.15792 0
M  V30 19134 H 1807.35 0.299167 -3.21411 0
M  V30 19135 H 1806.4 -2.12015 -3.15838 0
M  V30 19136 H 1807.71 -2.5952 -4.25971 0
M  V30 19137 H 1806.87 -0.99166 -5.98541 0
M  V30 19138 H 1805.6 -0.41496 -4.85931 0
M  V30 19139 H 1804.61 -2.71842 -4.77893 0
M  V30 19140 H 1805.83 -3.2926 -5.9394 0
M  V30 19141 H 1803.78 -1.11105 -6.46523 0
M  V30 19142 H 1803.7 -2.74219 -7.04514 0
M  V30 19143 H 1804.97 -1.69492 -7.6085 0
M  V30 19144 N 1809.19 1.18355 -1.04066 0
M  V30 19145 C 1810.42 1.92816 -0.763979 0
M  V30 19146 C 1810.84 1.75658 0.672749 0
M  V30 19147 O 1810.2 1.06671 1.46598 0
M  V30 19148 C 1810.25 3.42267 -1.13516 0
M  V30 19149 O 1809.35 4.11576 -0.260646 0
M  V30 19150 H 1808.7 0.601532 -0.281167 0
M  V30 19151 H 1811.23 1.50087 -1.3905 0
M  V30 19152 H 1811.24 3.92973 -1.09709 0
M  V30 19153 H 1809.91 3.54076 -2.18181 0
M  V30 19154 H 1808.49 3.71174 -0.358342 0
M  V30 19155 N 1810.67 0.820125 1.3458 0
M  V30 19156 C 1811.92 0.403287 1.97627 0
M  V30 19157 C 1812.23 -1.0385 1.65754 0
M  V30 19158 O 1813.44 -1.55911 2.2227 0
M  V30 19159 C 1811.9 0.670161 3.53606 0
M  V30 19160 C 1811.5 2.12538 3.94375 0
M  V30 19161 C 1813.25 0.31935 4.23297 0
M  V30 19162 C 1811.16 2.3373 5.43254 0
M  V30 19163 H 1810.09 0.147062 0.739519 0
M  V30 19164 H 1812.74 1.00609 1.53461 0
M  V30 19165 H 1811.12 -0.00276896 3.96 0
M  V30 19166 H 1812.29 2.83724 3.63094 0
M  V30 19167 H 1810.61 2.43736 3.37612 0
M  V30 19168 H 1813.2 0.45555 5.32756 0
M  V30 19169 H 1813.55 -0.735875 4.09745 0
M  V30 19170 H 1814.08 0.946743 3.8637 0
M  V30 19171 H 1810.82 3.37747 5.61789 0
M  V30 19172 H 1810.34 1.67084 5.76058 0
M  V30 19173 H 1812.02 2.1595 6.09897 0
M  V30 19174 N 1812.15 -1.46743 0.574835 0
M  V30 19175 C 1813.38 -2.06805 0.0627992 0
M  V30 19176 C 1813.79 -1.42482 -1.23872 0
M  V30 19177 O 1813.15 -0.527375 -1.74714 0
M  V30 19178 C 1813.2 -3.61307 -0.117983 0
M  V30 19179 O 1812.92 -4.23222 1.13201 0
M  V30 19180 C 1814.42 -4.3828 -0.665277 0
M  V30 19181 H 1811.64 -0.668835 0.0538616 0
M  V30 19182 H 1814.19 -1.88488 0.793265 0
M  V30 19183 H 1812.34 -3.79078 -0.798641 0
M  V30 19184 H 1812.76 -5.15992 0.940853 0
M  V30 19185 H 1814.23 -5.47004 -0.740985 0
M  V30 19186 H 1814.71 -4.05777 -1.68052 0
M  V30 19187 H 1815.31 -4.25295 -0.0197462 0
M  V30 19188 N 1813.63 -0.312197 -1.54477 0
M  V30 19189 C 1814.86 0.296061 -2.04771 0
M  V30 19190 C 1815.27 1.46662 -1.18894 0
M  V30 19191 O 1814.63 1.81205 -0.217043 0
M  V30 19192 C 1814.68 0.74151 -3.53813 0
M  V30 19193 O 1814.4 -0.382471 -4.36427 0
M  V30 19194 C 1815.9 1.41376 -4.20152 0
M  V30 19195 H 1813.12 0.062705 -0.668064 0
M  V30 19196 H 1815.67 -0.455083 -1.99372 0
M  V30 19197 H 1813.82 1.44265 -3.59536 0
M  V30 19198 H 1814.23 -0.0336382 -5.24489 0
M  V30 19199 H 1815.71 1.67649 -5.25926 0
M  V30 19200 H 1816.19 2.35743 -3.7057 0
M  V30 19201 H 1816.79 0.755498 -4.18536 0
M  V30 19202 N 1815.11 1.57549 -0.040136 0
M  V30 19203 C 1816.05 2.12048 0.955943 0
M  V30 19204 C 1817.05 1.04965 1.32962 0
M  V30 19205 O 1818.25 1.23387 1.31056 0
M  V30 19206 H 1814.63 0.677616 0.326099 0
M  V30 19207 H 1816.6 2.94658 0.471075 0
M  V30 19208 C 1815.35 2.67157 2.22537 0
M  V30 19209 H 1814.67 3.4921 1.9466 0
M  V30 19210 H 1816.11 3.08924 2.90417 0
M  V30 19211 C 1814.57 1.60413 2.96259 0
M  V30 19212 O 1815.1 1.01042 3.88785 0
M  V30 19213 N 1813.31 1.32196 2.58791 0
M  V30 19214 H 1812.85 1.80663 1.83626 0
M  V30 19215 H 1812.81 0.610023 3.08425 0
M  V30 19216 N 1816.58 -0.233136 1.55866 0
M  V30 19217 C 1817.83 -0.959219 1.7834 0
M  V30 19218 C 1818.16 -1.84789 0.606886 0
M  V30 19219 O 1817.41 -1.91373 -0.409253 0
M  V30 19220 C 1817.71 -1.83897 3.06458 0
M  V30 19221 C 1817.38 -1.1045 4.37163 0
M  V30 19222 C 1816.04 -0.901577 4.72679 0
M  V30 19223 C 1818.39 -0.584979 5.17907 0
M  V30 19224 C 1815.72 -0.167034 5.86462 0
M  V30 19225 C 1818.07 0.136163 6.32453 0
M  V30 19226 C 1816.74 0.35045 6.66579 0
M  V30 19227 H 1816.01 -0.351003 0.652593 0
M  V30 19228 H 1818.65 -0.228249 1.90135 0
M  V30 19229 H 1816.96 -2.63744 2.89735 0
M  V30 19230 H 1818.66 -2.4027 3.21047 0
M  V30 19231 H 1815.25 -1.27263 4.0927 0
M  V30 19232 H 1819.43 -0.729263 4.90913 0
M  V30 19233 H 1814.69 0.00933042 6.11399 0
M  V30 19234 H 1818.86 0.546294 6.94254 0
M  V30 19235 H 1816.49 0.921569 7.54593 0
M  V30 19236 N 1818.06 -1.49479 -0.499372 0
M  V30 19237 C 1818.99 -1.69182 -1.60934 0
M  V30 19238 C 1819.97 -0.54053 -1.61283 0
M  V30 19239 O 1821.16 -0.776554 -1.77998 0
M  V30 19240 C 1818.29 -1.75985 -2.99411 0
M  V30 19241 C 1817.24 -2.9092 -3.13926 0
M  V30 19242 C 1816.57 -2.82837 -4.5377 0
M  V30 19243 C 1817.87 -4.31833 -2.93799 0
M  V30 19244 H 1819.56 -2.62112 -1.44699 0
M  V30 19245 H 1817.11 -1.26135 -0.694688 0
M  V30 19246 H 1819.06 -1.88354 -3.76962 0
M  V30 19247 H 1817.79 -0.796557 -3.16737 0
M  V30 19248 H 1816.45 -2.78155 -2.388 0
M  V30 19249 H 1816.09 -1.84412 -4.67976 0
M  V30 19250 H 1815.79 -3.59979 -4.64423 0
M  V30 19251 H 1817.32 -2.97217 -5.3338 0
M  V30 19252 H 1818.73 -4.45271 -3.61119 0
M  V30 19253 H 1817.13 -5.10209 -3.15922 0
M  V30 19254 H 1818.2 -4.46165 -1.89908 0
M  V30 19255 N 1819.54 0.750537 -1.38581 0
M  V30 19256 C 1820.5 1.84599 -1.35852 0
M  V30 19257 C 1821.5 1.58709 -0.258462 0
M  V30 19258 O 1822.69 1.66397 -0.51552 0
M  V30 19259 C 1819.83 3.22124 -1.11573 0
M  V30 19260 H 1821.02 1.88426 -2.33314 0
M  V30 19261 H 1818.57 0.952564 -1.23919 0
M  V30 19262 H 1819.31 3.23965 -0.147295 0
M  V30 19263 H 1819.09 3.42311 -1.91221 0
M  V30 19264 H 1820.58 4.02198 -1.12367 0
M  V30 19265 N 1821.02 1.235 0.979051 0
M  V30 19266 C 1822.44 0.997948 1.24552 0
M  V30 19267 C 1822.64 -0.300139 1.99252 0
M  V30 19268 O 1821.69 -1.01923 2.31015 0
M  V30 19269 C 1823 2.2057 2.04375 0
M  V30 19270 C 1824.55 2.25075 2.17509 0
M  V30 19271 C 1825.03 3.45441 3.00724 0
M  V30 19272 N 1826.52 3.45688 3.08308 0
M  V30 19273 C 1827.25 4.35478 3.73024 0
M  V30 19274 N 1826.75 5.35506 4.39551 0
M  V30 19275 N 1828.54 4.23218 3.69923 0
M  V30 19276 H 1820.69 2.06936 0.478649 0
M  V30 19277 H 1822.96 0.907514 0.274083 0
M  V30 19278 H 1822.66 3.14781 1.56863 0
M  V30 19279 H 1822.54 2.21765 3.05123 0
M  V30 19280 H 1824.92 1.31403 2.64229 0
M  V30 19281 H 1825 2.27912 1.16146 0
M  V30 19282 H 1824.65 4.3942 2.547 0
M  V30 19283 H 1824.58 3.39845 4.0226 0
M  V30 19284 H 1827.07 2.73315 2.60974 0
M  V30 19285 H 1827.38 6.00274 4.86715 0
M  V30 19286 H 1825.73 5.39404 4.38256 0
M  V30 19287 H 1828.92 3.44315 3.17119 0
M  V30 19288 H 1829.09 4.93396 4.20076 0
M  V30 19289 N 1822.5 -1.17802 1.04693 0
M  V30 19290 C 1823.43 -2.20498 0.587866 0
M  V30 19291 C 1824.41 -1.58076 -0.380899 0
M  V30 19292 O 1825.59 -1.86198 -0.293711 0
M  V30 19293 C 1822.72 -3.38409 -0.140359 0
M  V30 19294 C 1821.77 -4.19258 0.782636 0
M  V30 19295 S 1822.6 -4.85052 2.26902 0
M  V30 19296 C 1823.75 -6.06357 1.55182 0
M  V30 19297 H 1823.99 -2.59096 1.45796 0
M  V30 19298 H 1821.52 -1.28336 0.858441 0
M  V30 19299 H 1823.48 -4.0674 -0.554333 0
M  V30 19300 H 1822.14 -2.98209 -0.98642 0
M  V30 19301 H 1821.33 -5.03522 0.219411 0
M  V30 19302 H 1820.93 -3.56338 1.13575 0
M  V30 19303 H 1823.23 -6.72168 0.848353 0
M  V30 19304 H 1824.17 -6.67198 2.37175 0
M  V30 19305 H 1824.58 -5.54811 1.04142 0
M  V30 19306 N 1823.98 -0.827251 -1.34143 0
M  V30 19307 C 1825.22 -0.413762 -1.9741 0
M  V30 19308 C 1825.54 1.0297 -1.66303 0
M  V30 19309 O 1826.74 1.5473 -2.23094 0
M  V30 19310 C 1825.2 -0.688904 -3.53245 0
M  V30 19311 C 1824.81 -2.14627 -3.93242 0
M  V30 19312 C 1826.55 -0.341794 -4.23122 0
M  V30 19313 C 1824.46 -2.36607 -5.42006 0
M  V30 19314 H 1823.39 -0.150982 -0.738729 0
M  V30 19315 H 1826.04 -1.01421 -1.52925 0
M  V30 19316 H 1824.42 -0.0182319 -3.95996 0
M  V30 19317 H 1825.6 -2.85646 -3.61584 0
M  V30 19318 H 1823.91 -2.45523 -3.36314 0
M  V30 19319 H 1826.51 -0.483797 -5.32507 0
M  V30 19320 H 1826.85 0.714135 -4.10129 0
M  V30 19321 H 1827.38 -0.96722 -3.85862 0
M  V30 19322 H 1824.12 -3.40722 -5.5999 0
M  V30 19323 H 1823.64 -1.70137 -5.75164 0
M  V30 19324 H 1825.32 -2.19181 -6.08744 0
M  V30 19325 N 1825.45 1.46436 -0.582609 0
M  V30 19326 C 1826.68 2.06768 -0.0737657 0
M  V30 19327 C 1827.1 1.43137 1.23115 0
M  V30 19328 O 1826.45 0.536633 1.74432 0
M  V30 19329 C 1826.5 3.61365 0.0988205 0
M  V30 19330 O 1826.23 4.22616 -1.15444 0
M  V30 19331 C 1827.73 4.38626 0.642025 0
M  V30 19332 H 1824.95 0.66854 -0.0574078 0
M  V30 19333 H 1827.49 1.88064 -0.80325 0
M  V30 19334 H 1825.65 3.79497 0.778526 0
M  V30 19335 H 1826.06 5.15486 -0.968204 0
M  V30 19336 H 1827.53 5.47389 0.711966 0
M  V30 19337 H 1828.01 4.06663 1.65897 0
M  V30 19338 H 1828.62 4.253 -0.00280852 0
M  V30 19339 N 1826.93 0.320385 1.54309 0
M  V30 19340 C 1827.88 -0.562569 2.25694 0
M  V30 19341 C 1828.87 -1.12117 1.26988 0
M  V30 19342 O 1830.08 -1.06958 1.44776 0
M  V30 19343 H 1826.45 -0.200063 0.724899 0
M  V30 19344 H 1828.43 0.0618142 2.98336 0
M  V30 19345 C 1827.17 -1.7134 3.02552 0
M  V30 19346 H 1826.5 -1.29281 3.7832 0
M  V30 19347 H 1827.94 -2.30687 3.55752 0
M  V30 19348 C 1826.4 -2.62912 2.10663 0
M  V30 19349 O 1826.93 -3.64541 1.68739 0
M  V30 19350 N 1825.13 -2.31076 1.76217 0
M  V30 19351 H 1824.68 -1.48474 2.10507 0
M  V30 19352 H 1824.64 -2.92608 1.15014 0
M  V30 19353 N 1828.41 -1.57525 0.0484906 0
M  V30 19354 C 1829.32 -2.14854 -0.942076 0
M  V30 19355 C 1830.34 -1.10565 -1.34355 0
M  V30 19356 O 1831.51 -1.4272 -1.42102 0
M  V30 19357 C 1828.58 -2.68002 -2.19945 0
M  V30 19358 C 1827.64 -3.87078 -1.85658 0
M  V30 19359 C 1826.87 -4.37682 -3.05401 0
M  V30 19360 O 1827.09 -3.87373 -4.18687 0
M  V30 19361 O 1826.03 -5.29302 -2.86571 0
M  V30 19362 H 1829.85 -2.9981 -0.48453 0
M  V30 19363 H 1827.44 -1.48392 -0.173252 0
M  V30 19364 H 1829.32 -3.02167 -2.93722 0
M  V30 19365 H 1828 -1.86118 -2.64843 0
M  V30 19366 H 1826.9 -3.57806 -1.09205 0
M  V30 19367 H 1828.24 -4.70184 -1.45562 0
M  V30 19368 N 1829.89 0.224867 -1.55988 0
M  V30 19369 C 1831.11 0.970897 -1.83271 0
M  V30 19370 C 1831.54 1.77293 -0.628399 0
M  V30 19371 O 1830.9 1.76301 0.422804 0
M  V30 19372 C 1830.94 1.86686 -3.08514 0
M  V30 19373 O 1830.05 2.96174 -2.86975 0
M  V30 19374 H 1829.39 0.275093 -0.604334 0
M  V30 19375 H 1831.92 0.239183 -2.03197 0
M  V30 19376 H 1831.93 2.27731 -3.3853 0
M  V30 19377 H 1830.6 1.27733 -3.95799 0
M  V30 19378 H 1829.18 2.59099 -2.68183 0
M  V30 19379 N 1831.37 1.49742 0.491438 0
M  V30 19380 C 1832.64 1.50217 1.25277 0
M  V30 19381 C 1833.02 0.235271 2.09785 0
M  V30 19382 O 1832.37 -0.782057 2.147 0
M  V30 19383 C 1832.58 2.78652 2.10129 0
M  V30 19384 C 1833.93 3.28519 2.68999 0
M  V30 19385 O 1834.95 2.79834 2.20389 0
M  V30 19386 O 1833.81 4.13333 3.57516 0
M  V30 19387 H 1830.91 0.601649 0.567405 0
M  V30 19388 H 1833.45 1.62014 0.504924 0
M  V30 19389 H 1832.22 3.62345 1.47723 0
M  V30 19390 H 1831.85 2.69761 2.92087 0
M  V30 19391 N 1832.84 -0.743177 1.38977 0
M  V30 19392 C 1834.09 -1.50479 1.35956 0
M  V30 19393 C 1834.42 -1.94143 -0.0471116 0
M  V30 19394 O 1833.7 -1.66195 -1.01042 0
M  V30 19395 C 1833.98 -2.75016 2.32461 0
M  V30 19396 C 1833.83 -2.37423 3.82034 0
M  V30 19397 C 1835.15 -3.77084 2.26927 0
M  V30 19398 H 1832.27 -0.545869 0.495172 0
M  V30 19399 H 1834.91 -0.850403 1.69906 0
M  V30 19400 H 1833.06 -3.30852 2.03639 0
M  V30 19401 H 1834.74 -1.87282 4.21572 0
M  V30 19402 H 1832.98 -1.69752 3.99208 0
M  V30 19403 H 1833.65 -3.2657 4.45035 0
M  V30 19404 H 1836.13 -3.30812 2.52394 0
M  V30 19405 H 1835 -4.61901 2.96545 0
M  V30 19406 H 1835.26 -4.23419 1.27156 0
M  V30 19407 N 1834.32 -1.24018 -0.972487 0
M  V30 19408 C 1835.55 -1.10232 -1.74736 0
M  V30 19409 C 1835.96 0.348409 -1.85964 0
M  V30 19410 O 1835.3 1.25245 -1.34386 0
M  V30 19411 C 1835.37 -1.66263 -3.18743 0
M  V30 19412 C 1835.03 -3.151 -3.31 0
M  V30 19413 C 1836.03 -4.12305 -3.16703 0
M  V30 19414 C 1833.71 -3.54965 -3.55394 0
M  V30 19415 C 1835.71 -5.47357 -3.26617 0
M  V30 19416 C 1833.39 -4.9016 -3.64947 0
M  V30 19417 C 1834.39 -5.86165 -3.5057 0
M  V30 19418 O 1834.08 -7.18903 -3.5977 0
M  V30 19419 H 1833.81 -0.386036 -0.554935 0
M  V30 19420 H 1836.36 -1.64505 -1.22993 0
M  V30 19421 H 1834.59 -1.06419 -3.71769 0
M  V30 19422 H 1836.28 -1.47837 -3.7802 0
M  V30 19423 H 1837.05 -3.82848 -2.97745 0
M  V30 19424 H 1832.93 -2.80747 -3.65653 0
M  V30 19425 H 1836.47 -6.22273 -3.15312 0
M  V30 19426 H 1832.37 -5.1929 -3.83416 0
M  V30 19427 H 1833.14 -7.26759 -3.76515 0
M  V30 19428 N 1835.8 1.17245 -1.05316 0
M  V30 19429 C 1837.03 1.91995 -0.784387 0
M  V30 19430 C 1837.45 1.76362 0.65408 0
M  V30 19431 O 1836.81 1.0822 1.45458 0
M  V30 19432 C 1836.86 3.41043 -1.1714 0
M  V30 19433 O 1835.96 4.11276 -0.304285 0
M  V30 19434 H 1835.3 0.598516 -0.287532 0
M  V30 19435 H 1837.83 1.48604 -1.40634 0
M  V30 19436 H 1837.84 3.91788 -1.13871 0
M  V30 19437 H 1836.52 3.51742 -2.21924 0
M  V30 19438 H 1835.09 3.70773 -0.39769 0
M  V30 19439 N 1837.28 0.834353 1.33702 0
M  V30 19440 C 1838.21 0.279313 2.31823 0
M  V30 19441 C 1839.19 -0.610495 1.58767 0
M  V30 19442 O 1840.37 -0.534989 1.86686 0
M  V30 19443 C 1837.5 -0.550201 3.42914 0
M  V30 19444 C 1836.46 0.243432 4.27307 0
M  V30 19445 C 1835.78 -0.709548 5.29971 0
M  V30 19446 C 1837.08 1.45799 5.01537 0
M  V30 19447 H 1838.78 1.09915 2.78494 0
M  V30 19448 H 1836.32 0.529987 1.33892 0
M  V30 19449 H 1838.28 -0.948764 4.10581 0
M  V30 19450 H 1837 -1.4032 2.9492 0
M  V30 19451 H 1835.66 0.6235 3.61259 0
M  V30 19452 H 1835.31 -1.55882 4.78236 0
M  V30 19453 H 1835.01 -0.182671 5.87316 0
M  V30 19454 H 1836.53 -1.10572 6.00505 0
M  V30 19455 H 1837.95 1.13283 5.61996 0
M  V30 19456 H 1836.34 1.92133 5.68511 0
M  V30 19457 H 1837.41 2.23016 4.30571 0
M  V30 19458 N 1838.76 -1.46125 0.590367 0
M  V30 19459 C 1840.17 -1.85962 0.165876 0
M  V30 19460 C 1840.52 -1.49296 -1.27299 0
M  V30 19461 O 1839.64 -0.911461 -1.96269 0
M  V30 19462 C 1840.24 -3.3752 0.294262 0
M  V30 19463 C 1838.8 -3.76324 -0.0754118 0
M  V30 19464 C 1837.94 -2.70126 0.626682 0
M  V30 19465 H 1840.9 -1.3717 0.79812 0
M  V30 19466 H 1840.92 -3.77482 -0.4783 0
M  V30 19467 H 1840.43 -3.64175 1.34159 0
M  V30 19468 H 1838.53 -3.55287 -1.12258 0
M  V30 19469 H 1838.64 -4.7812 0.306241 0
M  V30 19470 H 1837.01 -2.54614 0.0661219 0
M  V30 19471 H 1837.79 -2.99619 1.6758 0
M  V30 19472 N 1840.23 -0.328564 -1.54137 0
M  V30 19473 C 1841.65 0.158467 -1.86026 0
M  V30 19474 C 1842 1.51216 -1.25012 0
M  V30 19475 O 1841.12 2.09081 -0.558029 0
M  V30 19476 C 1841.72 0.294317 -3.37519 0
M  V30 19477 C 1840.28 0.72557 -3.69341 0
M  V30 19478 C 1839.42 -0.149724 -2.76895 0
M  V30 19479 H 1842.37 -0.548678 -1.48913 0
M  V30 19480 H 1842.39 1.12438 -3.63508 0
M  V30 19481 H 1841.91 -0.691071 -3.81898 0
M  V30 19482 H 1840.01 1.72052 -3.30498 0
M  V30 19483 H 1840.12 0.525853 -4.76205 0
M  V30 19484 H 1838.48 0.375531 -2.51916 0
M  V30 19485 H 1839.27 -1.13197 -3.24101 0
M  V30 19486 N 1841.71 1.57497 -0.0568439 0
M  V30 19487 C 1842.99 1.84277 0.655847 0
M  V30 19488 C 1843.37 0.94638 1.88698 0
M  V30 19489 O 1842.72 0.00884889 2.28498 0
M  V30 19490 C 1842.93 3.34134 1.00775 0
M  V30 19491 C 1844.28 4.01286 1.38763 0
M  V30 19492 O 1845.3 3.38792 1.09992 0
M  V30 19493 O 1844.16 5.11482 1.92479 0
M  V30 19494 H 1841.25 0.760773 0.324275 0
M  V30 19495 H 1843.8 1.69479 -0.0866388 0
M  V30 19496 H 1842.57 3.91075 0.132718 0
M  V30 19497 H 1842.19 3.5414 1.80749 0
M  V30 19498 N 1843.19 -0.216591 1.56105 0
M  V30 19499 C 1844.6 -0.783161 1.6948 0
M  V30 19500 C 1844.95 -1.84776 0.659716 0
M  V30 19501 O 1844.08 -2.1558 -0.188184 0
M  V30 19502 C 1844.67 -1.42733 3.07267 0
M  V30 19503 C 1843.23 -1.94123 3.2248 0
M  V30 19504 C 1842.38 -0.803216 2.65412 0
M  V30 19505 H 1845.33 0.00814542 1.58698 0
M  V30 19506 H 1845.35 -2.29627 3.034 0
M  V30 19507 H 1844.86 -0.652264 3.8258 0
M  V30 19508 H 1842.96 -2.74416 2.52045 0
M  V30 19509 H 1843.08 -2.1178 4.29751 0
M  V30 19510 H 1841.44 -1.21185 2.24023 0
M  V30 19511 H 1842.22 -0.0407398 3.43276 0
M  V30 19512 N 1844.67 -1.5 -0.48349 0
M  V30 19513 C 1845.62 -1.67957 -1.58301 0
M  V30 19514 C 1846.59 -0.520895 -1.57721 0
M  V30 19515 O 1847.77 -0.750008 -1.75441 0
M  V30 19516 C 1844.91 -1.76832 -2.96352 0
M  V30 19517 C 1844.02 -3.04119 -3.06815 0
M  V30 19518 C 1843.16 -3.03865 -4.35706 0
M  V30 19519 C 1842.2 -4.25658 -4.39865 0
M  V30 19520 N 1841.33 -4.23214 -5.60209 0
M  V30 19521 H 1846.17 -2.61832 -1.42296 0
M  V30 19522 H 1843.71 -1.29804 -0.692045 0
M  V30 19523 H 1845.67 -1.79958 -3.76392 0
M  V30 19524 H 1844.3 -0.864074 -3.1102 0
M  V30 19525 H 1843.35 -3.10523 -2.19727 0
M  V30 19526 H 1844.66 -3.94106 -3.05748 0
M  V30 19527 H 1843.82 -3.05652 -5.24082 0
M  V30 19528 H 1842.56 -2.11687 -4.39363 0
M  V30 19529 H 1841.56 -4.24097 -3.49888 0
M  V30 19530 H 1842.79 -5.19049 -4.37909 0
M  V30 19531 H 1840.73 -3.33883 -5.64675 0
M  V30 19532 H 1840.65 -5.06956 -5.60832 0
M  V30 19533 H 1841.92 -4.29129 -6.50744 0
M  V30 19534 N 1846.15 0.735796 -1.39369 0
M  V30 19535 C 1847.38 1.52283 -1.39619 0
M  V30 19536 C 1847.78 1.89197 0.0112732 0
M  V30 19537 O 1847.13 1.54562 0.992786 0
M  V30 19538 C 1847.19 2.83993 -2.20427 0
M  V30 19539 C 1846.85 2.69518 -3.69065 0
M  V30 19540 C 1847.85 2.38119 -4.62164 0
M  V30 19541 C 1845.54 2.86414 -4.12641 0
M  V30 19542 C 1847.53 2.23797 -5.9682 0
M  V30 19543 C 1845.22 2.7171 -5.47373 0
M  V30 19544 C 1846.21 2.40447 -6.39277 0
M  V30 19545 O 1845.9 2.25833 -7.71527 0
M  V30 19546 H 1845.63 0.477218 -0.478789 0
M  V30 19547 H 1848.19 0.916936 -1.83797 0
M  V30 19548 H 1846.42 3.46839 -1.70996 0
M  V30 19549 H 1848.11 3.45606 -2.12865 0
M  V30 19550 H 1848.87 2.24717 -4.29799 0
M  V30 19551 H 1844.75 3.0974 -3.41441 0
M  V30 19552 H 1848.3 1.99316 -6.6852 0
M  V30 19553 H 1844.19 2.8469 -5.79329 0
M  V30 19554 H 1844.96 2.40909 -7.82244 0
M  V30 19555 N 1847.63 1.24532 0.965897 0
M  V30 19556 C 1848.87 1.08609 1.7091 0
M  V30 19557 C 1849.2 -0.374781 1.90855 0
M  V30 19558 O 1848.46 -1.29321 1.46883 0
M  V30 19559 C 1848.75 1.77305 3.10319 0
M  V30 19560 C 1848.42 3.27233 3.10209 0
M  V30 19561 C 1847.08 3.68136 3.09887 0
M  V30 19562 C 1849.43 4.23071 3.04402 0
M  V30 19563 C 1846.76 5.03309 3.01492 0
M  V30 19564 C 1849.11 5.58254 2.9755 0
M  V30 19565 C 1847.78 5.985 2.95557 0
M  V30 19566 H 1847.05 0.39743 0.625404 0
M  V30 19567 H 1849.7 1.54658 1.12929 0
M  V30 19568 H 1848 1.23655 3.71775 0
M  V30 19569 H 1849.7 1.62449 3.66622 0
M  V30 19570 H 1846.29 2.9468 3.11226 0
M  V30 19571 H 1850.47 3.92469 3.03779 0
M  V30 19572 H 1845.73 5.33686 2.98311 0
M  V30 19573 H 1849.9 6.32218 2.92016 0
M  V30 19574 H 1847.53 7.03203 2.88807 0
M  V30 19575 N 1849.1 -1.16685 1.05936 0
M  V30 19576 C 1850.38 -1.8312 0.6875 0
M  V30 19577 C 1850.76 -1.94035 -0.831474 0
M  V30 19578 O 1850.11 -1.48067 -1.74036 0
M  V30 19579 C 1850.32 -3.20331 1.38524 0
M  V30 19580 C 1851.67 -3.96149 1.52811 0
M  V30 19581 O 1852.69 -3.29837 1.34485 0
M  V30 19582 O 1851.55 -5.15005 1.82845 0
M  V30 19583 H 1848.64 -0.790513 0.242937 0
M  V30 19584 H 1851.19 -1.23918 1.15941 0
M  V30 19585 H 1849.96 -3.074 2.42118 0
M  V30 19586 H 1849.58 -3.87206 0.903164 0
M  V30 19587 N 1850.58 -0.841432 -1.33258 0
M  V30 19588 C 1851.83 -0.437512 -1.97307 0
M  V30 19589 C 1852.15 1.00723 -1.66973 0
M  V30 19590 O 1851.42 1.70199 -0.969998 0
M  V30 19591 H 1850 -0.158794 -0.729927 0
M  V30 19592 H 1852.66 -1.07495 -1.62575 0
M  V30 19593 H 1851.76 -0.571675 -3.0682 0
M  V30 19594 N 1852.06 1.4581 -0.598108 0
M  V30 19595 C 1853.29 2.06379 -0.0955533 0
M  V30 19596 C 1853.7 1.44497 1.22137 0
M  V30 19597 O 1853.04 0.549997 1.75273 0
M  V30 19598 C 1853.1 3.59271 0.128433 0
M  V30 19599 C 1852.77 4.43434 -1.10523 0
M  V30 19600 C 1853.76 4.79008 -2.02107 0
M  V30 19601 C 1851.45 4.84334 -1.3314 0
M  V30 19602 C 1853.44 5.54326 -3.14644 0
M  V30 19603 C 1851.13 5.59408 -2.45979 0
M  V30 19604 C 1852.13 5.9432 -3.3656 0
M  V30 19605 O 1851.82 6.67874 -4.47437 0
M  V30 19606 H 1851.55 0.673187 -0.0616108 0
M  V30 19607 H 1854.1 1.88191 -0.823012 0
M  V30 19608 H 1852.33 3.75824 0.910679 0
M  V30 19609 H 1854.02 4.01714 0.581406 0
M  V30 19610 H 1854.79 4.47976 -1.85856 0
M  V30 19611 H 1850.67 4.566 -0.635381 0
M  V30 19612 H 1854.21 5.81495 -3.8537 0
M  V30 19613 H 1850.11 5.89854 -2.62187 0
M  V30 19614 H 1850.87 6.86314 -4.45999 0
M  V30 19615 N 1853.54 0.336733 1.53961 0
M  V30 19616 C 1854.81 -0.316794 1.93018 0
M  V30 19617 C 1855.19 -1.68802 1.26764 0
M  V30 19618 O 1854.54 -2.2468 0.416094 0
M  V30 19619 C 1854.75 -0.395878 3.46747 0
M  V30 19620 C 1856.1 -0.649946 4.19596 0
M  V30 19621 O 1857.12 -0.47827 3.52975 0
M  V30 19622 O 1855.98 -0.982035 5.37604 0
M  V30 19623 H 1853.08 -0.183442 0.806398 0
M  V30 19624 H 1855.62 0.387412 1.65219 0
M  V30 19625 H 1854.4 0.56665 3.87175 0
M  V30 19626 H 1854.02 -1.14714 3.80692 0
M  V30 19627 N 1855.02 -1.57465 0.0651956 0
M  V30 19628 C 1855.96 -2.13542 -0.922087 0
M  V30 19629 C 1856.96 -1.07067 -1.31275 0
M  V30 19630 O 1858.16 -1.25456 -1.29076 0
M  V30 19631 H 1854.54 -0.682718 -0.315277 0
M  V30 19632 H 1856.51 -2.9537 -0.424138 0
M  V30 19633 C 1855.26 -2.70663 -2.18258 0
M  V30 19634 H 1854.58 -3.52262 -1.8908 0
M  V30 19635 H 1856.02 -3.13505 -2.85466 0
M  V30 19636 C 1854.48 -1.65106 -2.93669 0
M  V30 19637 O 1855.01 -1.07214 -3.87128 0
M  V30 19638 N 1853.22 -1.36296 -2.56655 0
M  V30 19639 H 1852.76 -1.83562 -1.80728 0
M  V30 19640 H 1852.72 -0.659013 -3.07416 0
M  V30 19641 N 1856.49 0.20831 -1.56217 0
M  V30 19642 C 1857.43 1.28196 -1.89996 0
M  V30 19643 C 1858.44 1.42381 -0.789394 0
M  V30 19644 O 1859.63 1.43043 -1.06776 0
M  V30 19645 C 1856.73 2.65588 -2.10514 0
M  V30 19646 C 1855.9 2.73181 -3.416 0
M  V30 19647 C 1854.96 3.91678 -3.5139 0
M  V30 19648 O 1853.99 3.79397 -4.24319 0
M  V30 19649 N 1855.19 5.06562 -2.83505 0
M  V30 19650 H 1857.95 0.995403 -2.82687 0
M  V30 19651 H 1855.51 0.398294 -1.56924 0
M  V30 19652 H 1857.51 3.43264 -2.14365 0
M  V30 19653 H 1856.08 2.86788 -1.24385 0
M  V30 19654 H 1855.3 1.81881 -3.49733 0
M  V30 19655 H 1856.58 2.75234 -4.27929 0
M  V30 19656 H 1855.98 5.19437 -2.24056 0
M  V30 19657 H 1854.54 5.82232 -2.93 0
M  V30 19658 N 1857.97 1.50255 0.475528 0
M  V30 19659 C 1859.2 1.65044 1.25599 0
M  V30 19660 C 1859.62 0.331736 1.85152 0
M  V30 19661 O 1858.98 -0.703863 1.67079 0
M  V30 19662 C 1859.03 2.7405 2.34369 0
M  V30 19663 O 1858.13 2.34994 3.38897 0
M  V30 19664 H 1857.47 0.551557 0.369704 0
M  V30 19665 H 1860 1.96603 0.566422 0
M  V30 19666 H 1860.01 2.96993 2.79749 0
M  V30 19667 H 1858.69 3.6976 1.90395 0
M  V30 19668 H 1857.26 2.22481 2.9926 0
M  V30 19669 N 1859.45 -0.728395 1.39758 0
M  V30 19670 C 1860.7 -1.49028 1.37544 0
M  V30 19671 C 1861.03 -1.94182 -0.0265175 0
M  V30 19672 O 1860.3 -1.67257 -0.992737 0
M  V30 19673 C 1860.59 -2.72535 2.35365 0
M  V30 19674 C 1860.44 -2.33358 3.84531 0
M  V30 19675 C 1861.76 -3.74656 2.30914 0
M  V30 19676 H 1858.88 -0.540587 0.500934 0
M  V30 19677 H 1861.52 -0.832335 1.70799 0
M  V30 19678 H 1859.67 -3.28674 2.07137 0
M  V30 19679 H 1861.34 -1.828 4.23535 0
M  V30 19680 H 1859.58 -1.65508 4.00986 0
M  V30 19681 H 1860.26 -3.21832 4.48473 0
M  V30 19682 H 1862.73 -3.28117 2.55888 0
M  V30 19683 H 1861.61 -4.58729 3.01428 0
M  V30 19684 H 1861.87 -4.22047 1.31639 0
M  V30 19685 N 1860.93 -1.25042 -0.959279 0
M  V30 19686 C 1862.17 -1.09677 -1.70584 0
M  V30 19687 C 1862.51 0.362184 -1.90793 0
M  V30 19688 O 1861.78 1.26722 -1.47552 0
M  V30 19689 C 1862.06 -1.84646 -3.09157 0
M  V30 19690 C 1861.92 -3.38342 -2.96387 0
M  V30 19691 C 1863.24 -1.62588 -4.08966 0
M  V30 19692 H 1860.36 -0.399817 -0.619125 0
M  V30 19693 H 1863 -1.53816 -1.11537 0
M  V30 19694 H 1861.15 -1.47129 -3.59563 0
M  V30 19695 H 1862.82 -3.85507 -2.53342 0
M  V30 19696 H 1861.06 -3.66291 -2.32408 0
M  V30 19697 H 1861.73 -3.86007 -3.94592 0
M  V30 19698 H 1864.21 -1.9524 -3.67451 0
M  V30 19699 H 1863.09 -2.17488 -5.03975 0
M  V30 19700 H 1863.35 -0.566103 -4.38461 0
M  V30 19701 N 1862.41 1.16121 -1.06553 0
M  V30 19702 C 1863.66 1.86055 -0.778871 0
M  V30 19703 C 1863.97 1.82747 0.697357 0
M  V30 19704 O 1865.17 2.48285 1.09849 0
M  V30 19705 C 1863.63 3.33897 -1.34315 0
M  V30 19706 C 1863.24 3.45673 -2.84981 0
M  V30 19707 C 1864.98 4.09069 -1.13415 0
M  V30 19708 C 1862.89 4.87616 -3.34641 0
M  V30 19709 H 1861.82 0.696963 -0.287678 0
M  V30 19710 H 1864.47 1.31038 -1.28458 0
M  V30 19711 H 1862.85 3.88536 -0.765208 0
M  V30 19712 H 1864.03 3.01181 -3.4875 0
M  V30 19713 H 1862.34 2.83938 -3.04579 0
M  V30 19714 H 1864.94 5.13809 -1.48002 0
M  V30 19715 H 1865.28 4.16237 -0.0726719 0
M  V30 19716 H 1865.81 3.60676 -1.67802 0
M  V30 19717 H 1862.55 4.85629 -4.40278 0
M  V30 19718 H 1862.07 5.32722 -2.75622 0
M  V30 19719 H 1863.75 5.56443 -3.30122 0
M  V30 19720 N 1863.88 0.848487 1.3281 0
M  V30 19721 C 1864.82 0.233527 2.27002 0
M  V30 19722 C 1865.8 -0.624927 1.50111 0
M  V30 19723 O 1866.98 -0.583083 1.79255 0
M  V30 19724 C 1864.11 -0.671187 3.31983 0
M  V30 19725 C 1863.15 0.113068 4.2635 0
M  V30 19726 S 1863.99 1.47738 5.14717 0
M  V30 19727 C 1865.14 0.578218 6.23223 0
M  V30 19728 H 1865.37 1.03203 2.78813 0
M  V30 19729 H 1862.91 0.645772 1.40247 0
M  V30 19730 H 1864.87 -1.18754 3.92948 0
M  V30 19731 H 1863.53 -1.44344 2.78969 0
M  V30 19732 H 1862.72 -0.575751 5.00701 0
M  V30 19733 H 1862.32 0.560799 3.69772 0
M  V30 19734 H 1864.61 -0.220055 6.77143 0
M  V30 19735 H 1865.56 1.29218 6.9621 0
M  V30 19736 H 1865.96 0.155296 5.64286 0
M  V30 19737 N 1865.36 -1.4549 0.605832 0
M  V30 19738 C 1866.64 -1.95573 0.0324098 0
M  V30 19739 C 1867.02 -1.54829 -1.43496 0
M  V30 19740 O 1866.37 -0.810005 -2.13661 0
M  V30 19741 C 1866.58 -3.4825 0.228676 0
M  V30 19742 C 1867.93 -4.24461 0.108559 0
M  V30 19743 O 1868.95 -3.55846 0.158706 0
M  V30 19744 O 1867.81 -5.46499 -0.00781404 0
M  V30 19745 H 1864.9 -0.826184 -0.0367314 0
M  V30 19746 H 1867.45 -1.55664 0.675771 0
M  V30 19747 H 1866.22 -3.70869 1.24786 0
M  V30 19748 H 1865.84 -3.95045 -0.450031 0
M  V30 19749 N 1866.84 -0.344893 -1.5378 0
M  V30 19750 C 1868.12 0.306554 -1.93183 0
M  V30 19751 C 1868.5 1.68127 -1.27658 0
M  V30 19752 O 1867.85 2.24456 -0.428003 0
M  V30 19753 C 1868.06 0.377484 -3.46953 0
M  V30 19754 C 1869.4 0.627685 -4.19935 0
M  V30 19755 O 1870.43 0.459544 -3.53223 0
M  V30 19756 O 1869.29 0.953511 -5.38117 0
M  V30 19757 H 1866.38 0.179163 -0.80736 0
M  V30 19758 H 1868.93 -0.396168 -1.65011 0
M  V30 19759 H 1867.7 -0.587175 -3.86869 0
M  V30 19760 H 1867.32 1.12694 -3.81295 0
M  V30 19761 N 1868.32 1.57428 -0.0735454 0
M  V30 19762 C 1869.57 1.92732 0.594748 0
M  V30 19763 C 1869.88 0.955693 1.70663 0
M  V30 19764 O 1871.09 1.20162 2.43461 0
M  V30 19765 C 1869.54 3.42379 1.10927 0
M  V30 19766 C 1869.15 4.47991 0.0283008 0
M  V30 19767 C 1870.89 3.8668 1.75153 0
M  V30 19768 C 1868.8 5.88771 0.556965 0
M  V30 19769 H 1867.73 0.719355 0.22593 0
M  V30 19770 H 1870.38 1.82918 -0.146063 0
M  V30 19771 H 1868.76 3.47272 1.9031 0
M  V30 19772 H 1869.94 4.54716 -0.74634 0
M  V30 19773 H 1868.25 4.13168 -0.517835 0
M  V30 19774 H 1870.85 4.89244 2.15741 0
M  V30 19775 H 1871.19 3.24144 2.61221 0
M  V30 19776 H 1871.73 3.84397 1.02389 0
M  V30 19777 H 1868.47 6.54958 -0.266602 0
M  V30 19778 H 1867.99 5.85563 1.29909 0
M  V30 19779 H 1869.66 6.38703 1.03281 0
M  V30 19780 N 1869.8 -0.200022 1.56326 0
M  V30 19781 C 1870.73 -1.27579 1.89206 0
M  V30 19782 C 1871.71 -1.44185 0.751625 0
M  V30 19783 O 1872.89 -1.59654 1.00214 0
M  V30 19784 C 1870.02 -2.64312 2.11794 0
M  V30 19785 C 1869.06 -2.64603 3.34496 0
M  V30 19786 S 1869.9 -2.16526 4.89772 0
M  V30 19787 C 1871.05 -3.55092 5.15422 0
M  V30 19788 H 1871.29 -0.99499 2.80156 0
M  V30 19789 H 1868.82 -0.403286 1.4904 0
M  V30 19790 H 1870.78 -3.43022 2.25491 0
M  V30 19791 H 1869.44 -2.89606 1.21603 0
M  V30 19792 H 1868.63 -3.65131 3.47412 0
M  V30 19793 H 1868.23 -1.93972 3.19767 0
M  V30 19794 H 1870.53 -4.50925 5.05641 0
M  V30 19795 H 1871.47 -3.47075 6.17207 0
M  V30 19796 H 1871.88 -3.49777 4.43076 0
M  V30 19797 N 1871.27 -1.50505 -0.467553 0
M  V30 19798 C 1872.21 -1.65784 -1.58267 0
M  V30 19799 C 1873.22 -0.539219 -1.53611 0
M  V30 19800 O 1874.41 -0.812524 -1.58935 0
M  V30 19801 C 1871.51 -1.62951 -2.97154 0
M  V30 19802 C 1870.68 -2.90903 -3.26641 0
M  V30 19803 C 1869.74 -2.80665 -4.451 0
M  V30 19804 O 1868.77 -3.5462 -4.45234 0
M  V30 19805 N 1869.97 -1.9446 -5.4696 0
M  V30 19806 H 1872.73 -2.6197 -1.45575 0
M  V30 19807 H 1870.29 -1.48013 -0.656029 0
M  V30 19808 H 1872.29 -1.53709 -3.74373 0
M  V30 19809 H 1870.86 -0.744855 -3.03596 0
M  V30 19810 H 1870.08 -3.14244 -2.38001 0
M  V30 19811 H 1871.36 -3.75663 -3.43155 0
M  V30 19812 H 1870.76 -1.33694 -5.49675 0
M  V30 19813 H 1869.32 -1.9112 -6.2315 0
M  V30 19814 N 1872.75 0.720973 -1.40142 0
M  V30 19815 C 1873.7 1.8564 -1.40145 0
M  V30 19816 C 1874.69 1.67025 -0.282667 0
M  V30 19817 O 1875.9 1.74195 -0.453429 0
M  V30 19818 H 1872.28 0.611316 -0.437947 0
M  V30 19819 H 1874.25 1.82753 -2.35889 0
M  V30 19820 C 1873 3.23455 -1.27563 0
M  V30 19821 H 1872.32 3.38382 -2.12926 0
M  V30 19822 H 1873.76 4.03052 -1.31623 0
M  V30 19823 C 1872.22 3.36897 0.0146614 0
M  V30 19824 O 1872.75 3.89572 0.979616 0
M  V30 19825 N 1870.95 2.90483 0.0823795 0
M  V30 19826 H 1870.5 2.47805 -0.70359 0
M  V30 19827 H 1870.46 2.99856 0.945177 0
M  V30 19828 N 1874.23 1.25549 0.952634 0
M  V30 19829 C 1875.64 1.09496 1.5122 0
M  V30 19830 C 1875.99 -0.328639 1.93428 0
M  V30 19831 O 1875.12 -1.21884 1.78811 0
M  V30 19832 C 1875.71 1.9815 2.74813 0
M  V30 19833 C 1874.27 1.86275 3.27076 0
M  V30 19834 C 1873.42 1.92181 1.99904 0
M  V30 19835 H 1876.37 1.38806 0.769318 0
M  V30 19836 H 1876.39 1.52265 3.48705 0
M  V30 19837 H 1875.9 3.01754 2.44062 0
M  V30 19838 H 1874 0.855627 3.62643 0
M  V30 19839 H 1874.12 2.71194 3.94957 0
M  V30 19840 H 1872.48 1.36092 2.15293 0
M  V30 19841 H 1873.26 2.97393 1.71499 0
M  V30 19842 N 1875.71 -1.15554 1.07168 0
M  V30 19843 C 1876.99 -1.8238 0.706884 0
M  V30 19844 C 1877.37 -1.94906 -0.810848 0
M  V30 19845 O 1876.71 -1.49905 -1.72455 0
M  V30 19846 C 1876.92 -3.18844 1.41913 0
M  V30 19847 C 1878.27 -3.94506 1.57004 0
M  V30 19848 O 1879.3 -3.28392 1.37976 0
M  V30 19849 O 1878.15 -5.13036 1.88297 0
M  V30 19850 H 1875.25 -0.787892 0.251307 0
M  V30 19851 H 1877.79 -1.22681 1.17249 0
M  V30 19852 H 1876.57 -3.04814 2.45365 0
M  V30 19853 H 1876.19 -3.86227 0.944182 0
M  V30 19854 N 1877.19 -0.855519 -1.32358 0
M  V30 19855 C 1878.44 -0.458415 -1.96832 0
M  V30 19856 C 1878.76 0.98946 -1.68032 0
M  V30 19857 O 1878.03 1.69161 -0.987995 0
M  V30 19858 H 1876.61 -0.166527 -0.728202 0
M  V30 19859 H 1879.27 -1.09214 -1.61426 0
M  V30 19860 H 1878.36 -0.604185 -3.06196 0
M  V30 19861 N 1878.67 1.45167 -0.61354 0
M  V30 19862 C 1879.58 2.34372 0.103487 0
M  V30 19863 C 1880.59 1.51591 0.854172 0
M  V30 19864 O 1881.77 1.84375 0.810414 0
M  V30 19865 C 1878.83 3.29304 1.08443 0
M  V30 19866 C 1877.89 4.2799 0.335056 0
M  V30 19867 C 1877.13 5.18387 1.26928 0
M  V30 19868 O 1877.35 5.12336 2.50734 0
M  V30 19869 O 1876.28 5.97043 0.763115 0
M  V30 19870 H 1880.11 2.97099 -0.629746 0
M  V30 19871 H 1877.69 1.44649 -0.373779 0
M  V30 19872 H 1879.58 3.87785 1.64926 0
M  V30 19873 H 1878.25 2.69133 1.79859 0
M  V30 19874 H 1877.16 3.73107 -0.272378 0
M  V30 19875 H 1878.49 4.91033 -0.338727 0
M  V30 19876 N 1880.14 0.353044 1.53595 0
M  V30 19877 C 1881.42 -0.296304 1.93343 0
M  V30 19878 C 1881.8 -1.67448 1.28548 0
M  V30 19879 O 1881.15 -2.24226 0.4399 0
M  V30 19880 C 1881.36 -0.359079 3.47148 0
M  V30 19881 C 1882.71 -0.605406 4.20262 0
M  V30 19882 O 1883.73 -0.440805 3.53462 0
M  V30 19883 O 1882.59 -0.92496 5.38616 0
M  V30 19884 H 1879.68 -0.174879 0.808298 0
M  V30 19885 H 1882.23 0.404914 1.64798 0
M  V30 19886 H 1881 0.607684 3.86553 0
M  V30 19887 H 1880.62 -1.1067 3.81887 0
M  V30 19888 N 1881.62 -1.57387 0.0818932 0
M  V30 19889 C 1882.55 -2.0892 -0.91802 0
M  V30 19890 C 1883.53 -0.996648 -1.28474 0
M  V30 19891 O 1884.72 -1.27073 -1.39229 0
M  V30 19892 C 1881.84 -2.55525 -2.22317 0
M  V30 19893 C 1880.89 -3.76312 -2.00727 0
M  V30 19894 S 1881.72 -5.20529 -1.25736 0
M  V30 19895 C 1882.88 -5.70473 -2.57509 0
M  V30 19896 H 1883.11 -2.93407 -0.479563 0
M  V30 19897 H 1880.64 -1.53842 -0.131103 0
M  V30 19898 H 1882.6 -2.83035 -2.97324 0
M  V30 19899 H 1881.26 -1.71288 -2.63285 0
M  V30 19900 H 1880.46 -4.06945 -2.97342 0
M  V30 19901 H 1880.06 -3.49227 -1.33853 0
M  V30 19902 H 1882.35 -5.77934 -3.53551 0
M  V30 19903 H 1883.29 -6.69198 -2.31473 0
M  V30 19904 H 1883.7 -4.98339 -2.65177 0
M  V30 19905 N 1883.1 0.191729 -1.56429 0
M  V30 19906 C 1884.33 0.927708 -1.84936 0
M  V30 19907 C 1884.74 1.76708 -0.664809 0
M  V30 19908 O 1884.1 1.78783 0.366436 0
M  V30 19909 C 1884.15 1.82113 -3.12277 0
M  V30 19910 O 1883.87 1.01564 -4.26165 0
M  V30 19911 C 1885.37 2.6685 -3.53986 0
M  V30 19912 H 1882.59 0.270514 -0.614055 0
M  V30 19913 H 1885.14 0.197968 -2.0354 0
M  V30 19914 H 1883.29 2.50445 -2.9556 0
M  V30 19915 H 1883.71 1.62478 -4.987 0
M  V30 19916 H 1885.18 3.25189 -4.46045 0
M  V30 19917 H 1885.66 3.40725 -2.77134 0
M  V30 19918 H 1886.26 2.03884 -3.73245 0
M  V30 19919 N 1884.58 1.50751 0.459565 0
M  V30 19920 C 1885.51 1.73389 1.56392 0
M  V30 19921 C 1886.49 0.583101 1.59793 0
M  V30 19922 O 1887.67 0.823474 1.75876 0
M  V30 19923 C 1884.8 1.83861 2.94639 0
M  V30 19924 C 1883.76 2.9914 3.06103 0
M  V30 19925 C 1883.08 2.94768 4.46112 0
M  V30 19926 C 1884.38 4.39471 2.82246 0
M  V30 19927 H 1886.08 2.65856 1.37699 0
M  V30 19928 H 1883.62 1.27933 0.661001 0
M  V30 19929 H 1885.58 1.98283 3.71836 0
M  V30 19930 H 1884.3 0.880254 3.14514 0
M  V30 19931 H 1882.96 2.84388 2.31342 0
M  V30 19932 H 1882.61 1.96755 4.62922 0
M  V30 19933 H 1882.31 3.72166 4.54716 0
M  V30 19934 H 1883.83 3.11254 5.25313 0
M  V30 19935 H 1885.25 4.54689 3.49186 0
M  V30 19936 H 1883.64 5.18406 3.02283 0
M  V30 19937 H 1884.71 4.51043 1.78012 0
M  V30 19938 N 1886.06 -0.713531 1.40522 0
M  V30 19939 C 1887.3 -1.47343 1.38911 0
M  V30 19940 C 1887.63 -1.94498 -0.00787452 0
M  V30 19941 O 1886.89 -1.68648 -0.992786 0
M  V30 19942 C 1887.18 -2.71283 2.32681 0
M  V30 19943 C 1886.85 -2.42881 3.79894 0
M  V30 19944 C 1885.51 -2.34846 4.20001 0
M  V30 19945 C 1887.86 -2.19093 4.72914 0
M  V30 19946 C 1885.19 -2.01093 5.51161 0
M  V30 19947 C 1887.54 -1.86852 6.04375 0
M  V30 19948 C 1886.21 -1.773 6.43522 0
M  V30 19949 H 1885.48 -0.539166 0.508312 0
M  V30 19950 H 1888.13 -0.817138 1.73191 0
M  V30 19951 H 1886.43 -3.41759 1.91593 0
M  V30 19952 H 1888.13 -3.29378 2.28717 0
M  V30 19953 H 1884.72 -2.50023 3.48118 0
M  V30 19954 H 1888.9 -2.24256 4.42745 0
M  V30 19955 H 1884.16 -1.92236 5.80392 0
M  V30 19956 H 1888.33 -1.6746 6.75966 0
M  V30 19957 H 1885.96 -1.50913 7.4507 0
M  V30 19958 N 1887.53 -1.26053 -0.945962 0
M  V30 19959 C 1888.77 -1.1253 -1.70635 0
M  V30 19960 C 1889.14 0.326708 -1.892 0
M  V30 19961 O 1890.34 0.583957 -2.6238 0
M  V30 19962 C 1888.61 -1.86811 -3.04691 0
M  V30 19963 S 1890.17 -1.89284 -3.95875 0
M  V30 19964 H 1886.99 -0.402052 -0.586409 0
M  V30 19965 H 1889.59 -1.59703 -1.12762 0
M  V30 19966 H 1888.29 -2.91531 -2.88856 0
M  V30 19967 H 1887.82 -1.40059 -3.67623 0
M  V30 19968 H 1889.84 -0.976107 -4.86504 0
M  V30 19969 N 1889.01 1.14984 -1.07779 0
M  V30 19970 C 1889.94 2.19494 -0.659934 0
M  V30 19971 C 1890.96 1.60201 0.289756 0
M  V30 19972 O 1892.15 1.78328 0.0784004 0
M  V30 19973 C 1889.25 3.38862 0.0506161 0
M  V30 19974 C 1888.42 4.27693 -0.916355 0
M  V30 19975 C 1887.48 5.25642 -0.242303 0
M  V30 19976 O 1886.5 5.62282 -0.884715 0
M  V30 19977 N 1887.71 5.7164 1.01033 0
M  V30 19978 H 1890.47 2.5596 -1.55899 0
M  V30 19979 H 1888.03 1.30143 -0.963043 0
M  V30 19980 H 1890.02 4.01444 0.512331 0
M  V30 19981 H 1888.59 3.00775 0.851671 0
M  V30 19982 H 1887.81 3.62145 -1.55708 0
M  V30 19983 H 1889.1 4.83913 -1.57182 0
M  V30 19984 H 1888.5 5.43991 1.55212 0
M  V30 19985 H 1887.06 6.36241 1.41565 0
M  V30 19986 N 1890.49 0.862526 1.31902 0
M  V30 19987 C 1891.42 0.257591 2.26742 0
M  V30 19988 C 1892.4 -0.60897 1.50766 0
M  V30 19989 O 1893.58 -0.564038 1.79863 0
M  V30 19990 C 1890.71 -0.635938 3.32676 0
M  V30 19991 C 1889.76 0.158282 4.26206 0
M  V30 19992 S 1890.59 1.53189 5.13121 0
M  V30 19993 C 1891.75 0.644287 6.22575 0
M  V30 19994 H 1891.98 1.06154 2.77702 0
M  V30 19995 H 1889.51 0.660611 1.39554 0
M  V30 19996 H 1891.47 -1.1458 3.94185 0
M  V30 19997 H 1890.13 -1.41377 2.80484 0
M  V30 19998 H 1889.32 -0.522612 5.01283 0
M  V30 19999 H 1888.93 0.599986 3.69156 0
M  V30 20000 H 1891.22 -0.148223 6.77338 0
M  V30 20001 H 1892.16 1.36595 6.948 0
M  V30 20002 H 1892.57 0.215137 5.6409 0
M  V30 20003 N 1891.97 -1.4484 0.62123 0
M  V30 20004 C 1893.21 -2.02433 0.121965 0
M  V30 20005 C 1893.55 -1.48679 -1.24932 0
M  V30 20006 O 1892.82 -0.666887 -1.8271 0
M  V30 20007 C 1893.11 -3.59967 0.0978513 0
M  V30 20008 C 1892.96 -4.24025 1.50077 0
M  V30 20009 C 1894.28 -4.36224 -0.582838 0
M  V30 20010 H 1891.4 -0.735576 0.0457947 0
M  V30 20011 H 1894.04 -1.72531 0.795812 0
M  V30 20012 H 1892.19 -3.85573 -0.47597 0
M  V30 20013 H 1893.86 -4.09558 2.12272 0
M  V30 20014 H 1892.1 -3.819 2.05754 0
M  V30 20015 H 1892.77 -5.32994 1.43602 0
M  V30 20016 H 1895.25 -4.15992 -0.0949595 0
M  V30 20017 H 1894.13 -5.45944 -0.568863 0
M  V30 20018 H 1894.39 -4.10098 -1.65142 0
M  V30 20019 N 1893.45 -0.361184 -1.53405 0
M  V30 20020 C 1894.67 0.233383 -2.06083 0
M  V30 20021 C 1895.1 1.42029 -1.23326 0
M  V30 20022 O 1894.45 1.79551 -0.251249 0
M  V30 20023 C 1894.5 0.609243 -3.55416 0
M  V30 20024 O 1893.61 1.70705 -3.75411 0
M  V30 20025 H 1892.95 0.035021 -0.663076 0
M  V30 20026 H 1895.48 -0.520514 -1.97868 0
M  V30 20027 H 1895.49 0.881483 -3.98364 0
M  V30 20028 H 1894.16 -0.25866 -4.15095 0
M  V30 20029 H 1892.74 1.4307 -3.44362 0
M  V30 20030 N 1894.92 1.57341 -0.0902386 0
M  V30 20031 C 1896.15 1.98934 0.586524 0
M  V30 20032 C 1896.57 0.968841 1.6123 0
M  V30 20033 O 1895.93 -0.0632868 1.8119 0
M  V30 20034 C 1895.98 3.39509 1.21516 0
M  V30 20035 O 1895.08 3.40203 2.331 0
M  V30 20036 H 1894.43 0.647009 0.14925 0
M  V30 20037 H 1896.96 2.03891 -0.170213 0
M  V30 20038 H 1896.97 3.77097 1.55762 0
M  V30 20039 H 1895.64 4.13308 0.463639 0
M  V30 20040 H 1894.22 3.14405 2.0051 0
M  V30 20041 N 1896.4 -0.183431 1.56529 0
M  V30 20042 C 1897.65 -0.903332 1.8157 0
M  V30 20043 C 1897.98 -1.82417 0.666167 0
M  V30 20044 O 1897.26 -1.91635 -0.332621 0
M  V30 20045 C 1897.54 -1.70949 3.16936 0
M  V30 20046 C 1897.39 -0.812595 4.42399 0
M  V30 20047 C 1898.71 -2.6797 3.49113 0
M  V30 20048 H 1895.83 -0.326961 0.660504 0
M  V30 20049 H 1898.47 -0.170115 1.89237 0
M  V30 20050 H 1896.62 -2.33458 3.10531 0
M  V30 20051 H 1898.29 -0.201313 4.60861 0
M  V30 20052 H 1896.54 -0.119949 4.33634 0
M  V30 20053 H 1897.21 -1.4119 5.33638 0
M  V30 20054 H 1899.68 -2.15591 3.55893 0
M  V30 20055 H 1898.56 -3.21451 4.44927 0
M  V30 20056 H 1898.82 -3.47584 2.73199 0
M  V30 20057 N 1897.88 -1.50992 -0.451564 0
M  V30 20058 C 1899.11 -1.66741 -1.22495 0
M  V30 20059 C 1899.52 -0.358787 -1.8536 0
M  V30 20060 O 1898.88 0.661312 -1.70097 0
M  V30 20061 C 1898.93 -2.77281 -2.31943 0
M  V30 20062 O 1898.65 -4.03072 -1.71652 0
M  V30 20063 C 1900.15 -3.04175 -3.22479 0
M  V30 20064 H 1897.37 -0.55994 -0.369741 0
M  V30 20065 H 1899.92 -1.97329 -0.536785 0
M  V30 20066 H 1898.07 -2.49332 -2.965 0
M  V30 20067 H 1898.49 -4.64354 -2.43875 0
M  V30 20068 H 1899.96 -3.85137 -3.95441 0
M  V30 20069 H 1900.44 -2.16015 -3.82406 0
M  V30 20070 H 1901.04 -3.33729 -2.63638 0
M  V30 20071 N 1899.36 0.706069 -1.40899 0
M  V30 20072 C 1900.61 1.46604 -1.39691 0
M  V30 20073 C 1900.93 1.945 -0.00244032 0
M  V30 20074 O 1900.19 1.69172 0.983828 0
M  V30 20075 C 1900.49 2.70045 -2.34116 0
M  V30 20076 C 1900.15 2.40863 -3.81177 0
M  V30 20077 C 1898.82 2.32615 -4.21241 0
M  V30 20078 C 1901.17 2.16582 -4.74069 0
M  V30 20079 C 1898.5 1.98167 -5.5222 0
M  V30 20080 C 1900.85 1.83645 -6.05357 0
M  V30 20081 C 1899.51 1.73885 -6.44454 0
M  V30 20082 H 1898.78 0.536463 -0.511164 0
M  V30 20083 H 1901.43 0.807941 -1.73622 0
M  V30 20084 H 1899.73 3.40738 -1.93403 0
M  V30 20085 H 1901.43 3.2816 -2.3046 0
M  V30 20086 H 1898.02 2.48173 -3.49439 0
M  V30 20087 H 1902.2 2.21905 -4.43928 0
M  V30 20088 H 1897.46 1.89155 -5.81404 0
M  V30 20089 H 1901.63 1.63873 -6.76845 0
M  V30 20090 H 1899.26 1.46959 -7.4586 0
M  V30 20091 N 1900.84 1.26553 0.939264 0
M  V30 20092 C 1902.09 1.11599 1.68014 0
M  V30 20093 C 1902.4 -0.339956 1.92623 0
M  V30 20094 O 1903.6 -0.610203 2.64554 0
M  V30 20095 C 1902.06 1.94913 3.02551 0
M  V30 20096 C 1901.67 3.45094 2.85682 0
M  V30 20097 C 1903.41 1.88574 3.80316 0
M  V30 20098 C 1901.32 4.20648 4.15703 0
M  V30 20099 H 1900.25 0.414037 0.630151 0
M  V30 20100 H 1902.9 1.50878 1.04441 0
M  V30 20101 H 1901.28 1.48469 3.67115 0
M  V30 20102 H 1902.46 3.99321 2.29956 0
M  V30 20103 H 1900.77 3.5269 2.21357 0
M  V30 20104 H 1903.37 2.42307 4.76646 0
M  V30 20105 H 1903.71 0.856867 4.07386 0
M  V30 20106 H 1904.24 2.32852 3.22529 0
M  V30 20107 H 1900.98 5.24013 3.93816 0
M  V30 20108 H 1900.5 3.71202 4.71136 0
M  V30 20109 H 1902.18 4.29199 4.84146 0
M  V30 20110 N 1902.31 -1.14411 1.08387 0
M  V30 20111 C 1903.73 -1.67013 0.83448 0
M  V30 20112 C 1904.08 -1.85509 -0.638802 0
M  V30 20113 O 1903.2 -1.56611 -1.49338 0
M  V30 20114 C 1903.8 -3.03377 1.50825 0
M  V30 20115 C 1902.36 -3.53013 1.3061 0
M  V30 20116 C 1901.5 -2.28494 1.57117 0
M  V30 20117 H 1904.45 -0.984794 1.24449 0
M  V30 20118 H 1904.47 -3.68824 0.935352 0
M  V30 20119 H 1903.99 -2.89883 2.5805 0
M  V30 20120 H 1902.09 -3.7173 0.254538 0
M  V30 20121 H 1902.2 -4.33799 2.0336 0
M  V30 20122 H 1900.56 -2.34558 0.99271 0
M  V30 20123 H 1901.35 -2.17576 2.65547 0
M  V30 20124 N 1903.79 -0.869509 -1.31443 0
M  V30 20125 C 1905.2 -0.532842 -1.78935 0
M  V30 20126 C 1905.55 0.95022 -1.71654 0
M  V30 20127 O 1904.68 1.74189 -1.28402 0
M  V30 20128 C 1905.27 -0.960439 -3.24902 0
M  V30 20129 C 1903.83 -0.675436 -3.7029 0
M  V30 20130 C 1902.98 -1.15201 -2.52238 0
M  V30 20131 H 1905.93 -1.05527 -1.18531 0
M  V30 20132 H 1905.95 -0.282921 -3.79447 0
M  V30 20133 H 1905.46 -2.03986 -3.30168 0
M  V30 20134 H 1903.57 0.392647 -3.70525 0
M  V30 20135 H 1903.68 -1.25214 -4.62448 0
M  V30 20136 H 1902.04 -0.571786 -2.48199 0
M  V30 20137 H 1902.83 -2.23885 -2.60251 0
M  V30 20138 N 1905.27 1.44508 -0.628902 0
M  V30 20139 C 1906.2 2.27848 0.126632 0
M  V30 20140 C 1907.18 1.38406 0.85338 0
M  V30 20141 O 1908.37 1.67845 0.857923 0
M  V30 20142 C 1905.49 3.17283 1.18529 0
M  V30 20143 C 1904.54 4.22817 0.559317 0
M  V30 20144 S 1905.37 5.31554 -0.648926 0
M  V30 20145 C 1906.53 6.24557 0.409797 0
M  V30 20146 H 1906.76 2.9158 -0.580384 0
M  V30 20147 H 1904.29 1.48662 -0.417009 0
M  V30 20148 H 1906.25 3.69362 1.79115 0
M  V30 20149 H 1904.91 2.52776 1.86449 0
M  V30 20150 H 1904.11 4.854 1.35656 0
M  V30 20151 H 1903.71 3.73989 0.0281246 0
M  V30 20152 H 1906 6.65241 1.28298 0
M  V30 20153 H 1906.94 7.0787 -0.180404 0
M  V30 20154 H 1907.35 5.59699 0.734695 0
M  V30 20155 N 1906.75 0.369315 1.53212 0
M  V30 20156 C 1907.71 -0.463128 2.24472 0
M  V30 20157 C 1908.71 -1.00667 1.2539 0
M  V30 20158 O 1909.9 -0.891832 1.4964 0
M  V30 20159 C 1907.03 -1.6477 2.98435 0
M  V30 20160 H 1908.23 0.160479 2.9947 0
M  V30 20161 H 1905.78 0.121068 1.5583 0
M  V30 20162 H 1906.52 -2.30929 2.27689 0
M  V30 20163 H 1906.3 -1.26487 3.71138 0
M  V30 20164 H 1907.79 -2.23753 3.52596 0
M  V30 20165 N 1908.23 -1.57291 0.0985816 0
M  V30 20166 C 1909.5 -1.85951 -0.606759 0
M  V30 20167 C 1909.88 -0.996077 -1.86122 0
M  V30 20168 O 1909.23 -0.0694281 -2.28394 0
M  V30 20169 C 1909.44 -3.36688 -0.918803 0
M  V30 20170 C 1910.79 -4.04824 -1.28074 0
M  V30 20171 O 1911.81 -3.41589 -1.00971 0
M  V30 20172 O 1910.67 -5.16406 -1.7885 0
M  V30 20173 H 1907.77 -0.769103 -0.30399 0
M  V30 20174 H 1910.31 -1.69189 0.131543 0
M  V30 20175 H 1909.09 -3.91289 -0.0289848 0
M  V30 20176 H 1908.71 -3.58808 -1.71296 0
M  V30 20177 N 1909.71 0.175127 -1.56624 0
M  V30 20178 C 1910.64 1.21918 -1.99144 0
M  V30 20179 C 1911.62 1.4638 -0.866428 0
M  V30 20180 O 1912.8 1.57779 -1.13223 0
M  V30 20181 C 1909.93 2.55897 -2.34807 0
M  V30 20182 C 1908.89 2.46011 -3.50232 0
M  V30 20183 C 1908.21 3.84445 -3.71626 0
M  V30 20184 C 1909.51 1.96808 -4.83801 0
M  V30 20185 H 1911.21 0.86575 -2.8661 0
M  V30 20186 H 1908.75 0.415014 -1.3789 0
M  V30 20187 H 1910.7 3.29136 -2.63149 0
M  V30 20188 H 1909.43 2.9302 -1.44245 0
M  V30 20189 H 1908.09 1.75227 -3.22011 0
M  V30 20190 H 1907.74 4.18955 -2.78362 0
M  V30 20191 H 1907.44 3.787 -4.49288 0
M  V30 20192 H 1908.96 4.59276 -4.02366 0
M  V30 20193 H 1910.37 2.59819 -5.11045 0
M  V30 20194 H 1908.77 2.0202 -5.65073 0
M  V30 20195 H 1909.84 0.922209 -4.7605 0
M  V30 20196 N 1911.18 1.5123 0.44355 0
M  V30 20197 C 1912.59 1.56137 1.02362 0
M  V30 20198 C 1912.95 0.381135 1.92462 0
M  V30 20199 O 1912.07 -0.502817 2.10477 0
M  V30 20200 C 1912.67 2.82967 1.8632 0
M  V30 20201 C 1911.22 2.90466 2.39388 0
M  V30 20202 C 1910.37 2.50735 1.18438 0
M  V30 20203 H 1913.32 1.57096 0.22506 0
M  V30 20204 H 1913.34 2.66378 2.71704 0
M  V30 20205 H 1912.86 3.68848 1.20717 0
M  V30 20206 H 1910.96 2.09 3.08463 0
M  V30 20207 H 1911.07 3.9398 2.7261 0
M  V30 20208 H 1909.43 2.03792 1.52778 0
M  V30 20209 H 1910.22 3.38954 0.544549 0
M  V30 20210 N 1912.66 -0.698586 1.41271 0
M  V30 20211 C 1913.94 -1.45291 1.30957 0
M  V30 20212 C 1914.32 -2.11002 -0.0642533 0
M  V30 20213 O 1913.67 -2.01458 -1.07829 0
M  V30 20214 C 1913.88 -2.4748 2.46078 0
M  V30 20215 C 1915.22 -3.1282 2.87104 0
M  V30 20216 O 1916.25 -2.57804 2.45796 0
M  V30 20217 O 1915.11 -4.12458 3.58525 0
M  V30 20218 H 1912.2 -0.646905 0.515212 0
M  V30 20219 H 1914.75 -0.72932 1.53229 0
M  V30 20220 H 1913.52 -1.97558 3.37767 0
M  V30 20221 H 1913.14 -3.27353 2.25668 0
M  V30 20222 N 1914.14 -1.27049 -0.93254 0
M  V30 20223 C 1915.09 -1.09356 -2.03249 0
M  V30 20224 C 1916.06 0.00396271 -1.661 0
M  V30 20225 O 1917.24 -0.157449 -1.90149 0
M  V30 20226 C 1914.38 -0.741704 -3.37035 0
M  V30 20227 C 1913.49 -1.91636 -3.87169 0
M  V30 20228 C 1912.63 -1.50683 -5.0938 0
M  V30 20229 C 1911.67 -2.64927 -5.51797 0
M  V30 20230 N 1910.81 -2.24595 -6.65208 0
M  V30 20231 H 1915.65 -2.0348 -2.17715 0
M  V30 20232 H 1913.18 -1.01299 -1.06662 0
M  V30 20233 H 1915.14 -0.518546 -4.13965 0
M  V30 20234 H 1913.77 0.162576 -3.2239 0
M  V30 20235 H 1912.82 -2.2522 -3.06562 0
M  V30 20236 H 1914.13 -2.77353 -4.1458 0
M  V30 20237 H 1913.29 -1.24463 -5.93796 0
M  V30 20238 H 1912.03 -0.620687 -4.83734 0
M  V30 20239 H 1911.03 -2.91866 -4.65933 0
M  V30 20240 H 1912.26 -3.54154 -5.79441 0
M  V30 20241 H 1910.2 -1.38427 -6.41229 0
M  V30 20242 H 1910.12 -3.03853 -6.9225 0
M  V30 20243 H 1911.39 -2.0161 -7.52977 0
M  V30 20244 N 1915.62 1.13835 -1.08993 0
M  V30 20245 C 1916.87 1.84645 -0.82163 0
M  V30 20246 C 1917.19 1.83685 0.65458 0
M  V30 20247 O 1916.46 1.28948 1.47477 0
M  V30 20248 H 1915.04 0.683691 -0.300958 0
M  V30 20249 H 1917.7 1.37915 -1.37715 0
M  V30 20250 H 1916.79 2.89292 -1.17117 0
M  V30 20251 N 1917.1 0.876467 1.3098 0
M  V30 20252 C 1918.04 0.335149 2.28354 0
M  V30 20253 C 1919.01 -0.569979 1.56014 0
M  V30 20254 O 1920.2 -0.500226 1.84126 0
M  V30 20255 C 1917.34 -0.451723 3.42131 0
M  V30 20256 C 1916.45 0.481657 4.29306 0
M  V30 20257 C 1915.59 -0.319977 5.30235 0
M  V30 20258 C 1914.62 0.609417 6.09059 0
M  V30 20259 N 1913.76 -0.156366 7.01926 0
M  V30 20260 H 1918.6 1.17069 2.74042 0
M  V30 20261 H 1916.14 0.588683 1.34807 0
M  V30 20262 H 1918.1 -0.923775 4.06844 0
M  V30 20263 H 1916.73 -1.25191 2.97535 0
M  V30 20264 H 1915.78 1.07218 3.64977 0
M  V30 20265 H 1917.09 1.19403 4.84298 0
M  V30 20266 H 1916.24 -0.854256 6.00656 0
M  V30 20267 H 1914.98 -1.06561 4.75916 0
M  V30 20268 H 1913.99 1.1554 5.37523 0
M  V30 20269 H 1915.21 1.354 6.65465 0
M  V30 20270 H 1913.16 -0.884688 6.50007 0
M  V30 20271 H 1913.08 0.496538 7.54368 0
M  V30 20272 H 1914.34 -0.671665 7.76601 0
M  V30 20273 N 1918.57 -1.44173 0.636557 0
M  V30 20274 C 1919.98 -1.8534 0.224954 0
M  V30 20275 C 1920.34 -1.53271 -1.22485 0
M  V30 20276 O 1919.46 -0.973441 -1.93269 0
M  V30 20277 C 1920.06 -3.36413 0.401492 0
M  V30 20278 C 1918.61 -3.76374 0.0443511 0
M  V30 20279 C 1917.76 -2.67995 0.712303 0
M  V30 20280 H 1920.71 -1.34562 0.841356 0
M  V30 20281 H 1920.73 -3.78812 -0.357965 0
M  V30 20282 H 1920.25 -3.59722 1.45677 0
M  V30 20283 H 1918.35 -3.58679 -1.00897 0
M  V30 20284 H 1918.46 -4.76904 0.458196 0
M  V30 20285 H 1916.82 -2.54275 0.147092 0
M  V30 20286 H 1917.61 -2.94136 1.77028 0
M  V30 20287 N 1920.05 -0.377435 -1.53014 0
M  V30 20288 C 1921.3 0.20853 -2.01423 0
M  V30 20289 C 1921.63 1.47801 -1.26433 0
M  V30 20290 O 1920.88 1.92551 -0.34966 0
M  V30 20291 C 1921.18 0.534659 -3.53378 0
M  V30 20292 C 1920.85 -0.641876 -4.46308 0
M  V30 20293 C 1919.51 -0.964671 -4.71431 0
M  V30 20294 C 1921.86 -1.42954 -5.01212 0
M  V30 20295 C 1919.19 -2.07689 -5.4871 0
M  V30 20296 C 1921.54 -2.53227 -5.79706 0
M  V30 20297 C 1920.2 -2.86028 -6.03112 0
M  V30 20298 H 1919.47 0.0763064 -0.737061 0
M  V30 20299 H 1922.12 -0.51234 -1.84519 0
M  V30 20300 H 1920.43 1.3367 -3.68293 0
M  V30 20301 H 1922.12 1.00048 -3.88319 0
M  V30 20302 H 1918.71 -0.380266 -4.2691 0
M  V30 20303 H 1922.9 -1.1934 -4.81738 0
M  V30 20304 H 1918.15 -2.33487 -5.65061 0
M  V30 20305 H 1922.33 -3.14669 -6.21254 0
M  V30 20306 H 1919.95 -3.72332 -6.62777 0
M  V30 20307 N 1921.53 1.57237 -0.106922 0
M  V30 20308 C 1922.81 1.8627 0.596889 0
M  V30 20309 C 1923.19 1.00593 1.85591 0
M  V30 20310 O 1922.54 0.0815394 2.28354 0
M  V30 20311 C 1922.75 3.37171 0.900934 0
M  V30 20312 C 1924.09 4.05497 1.25926 0
M  V30 20313 O 1925.12 3.4212 0.99158 0
M  V30 20314 O 1923.98 5.17347 1.76109 0
M  V30 20315 H 1921.07 0.770704 0.299907 0
M  V30 20316 H 1923.62 1.69117 -0.140513 0
M  V30 20317 H 1922.39 3.91299 0.00823337 0
M  V30 20318 H 1922.01 3.59712 1.69391 0
M  V30 20319 N 1923.01 -0.166818 1.56715 0
M  V30 20320 C 1924.23 -0.902208 1.86748 0
M  V30 20321 C 1924.66 -1.74838 0.693767 0
M  V30 20322 O 1924.02 -1.77749 -0.35708 0
M  V30 20323 C 1924.06 -1.75107 3.1523 0
M  V30 20324 O 1923.17 -2.85319 2.9777 0
M  V30 20325 H 1922.51 -0.252474 0.614128 0
M  V30 20326 H 1925.04 -0.163603 2.03945 0
M  V30 20327 H 1925.05 -2.15009 3.46749 0
M  V30 20328 H 1923.72 -1.12955 4.00267 0
M  V30 20329 H 1922.3 -2.48967 2.77615 0
M  V30 20330 N 1924.49 -1.51463 -0.435524 0
M  V30 20331 C 1925.9 -1.39679 -0.772145 0
M  V30 20332 C 1926.1 -0.480546 -1.95686 0
M  V30 20333 O 1925.16 0.063611 -2.5242 0
M  V30 20334 C 1926.47 -2.81742 -1.05082 0
M  V30 20335 C 1928.02 -2.90905 -1.15514 0
M  V30 20336 C 1928.49 -4.33879 -1.46674 0
M  V30 20337 N 1929.99 -4.36993 -1.53594 0
M  V30 20338 C 1930.72 -5.44653 -1.79279 0
M  V30 20339 N 1930.22 -6.6247 -2.02744 0
M  V30 20340 N 1932.01 -5.32135 -1.81076 0
M  V30 20341 H 1924.16 -2.09584 0.344699 0
M  V30 20342 H 1926.42 -0.943543 0.0918199 0
M  V30 20343 H 1926.13 -3.50789 -0.252975 0
M  V30 20344 H 1926 -3.21179 -1.97798 0
M  V30 20345 H 1928.39 -2.22054 -1.94361 0
M  V30 20346 H 1928.47 -2.54961 -0.20695 0
M  V30 20347 H 1928.12 -5.03279 -0.683541 0
M  V30 20348 H 1928.05 -4.67337 -2.42702 0
M  V30 20349 H 1930.54 -3.52054 -1.37356 0
M  V30 20350 H 1930.85 -7.40311 -2.21718 0
M  V30 20351 H 1929.19 -6.65582 -2.00063 0
M  V30 20352 H 1932.39 -4.39076 -1.62264 0
M  V30 20353 H 1932.56 -6.16118 -2.00756 0
M  V30 20354 N 1925.96 0.691085 -1.4164 0
M  V30 20355 C 1927.21 1.45114 -1.41238 0
M  V30 20356 C 1927.54 1.94486 -0.0230695 0
M  V30 20357 O 1926.79 1.70206 0.96583 0
M  V30 20358 C 1927.09 2.67547 -2.36967 0
M  V30 20359 C 1926.76 2.36807 -3.8371 0
M  V30 20360 C 1925.42 2.28134 -4.23684 0
M  V30 20361 C 1927.77 2.11542 -4.7634 0
M  V30 20362 C 1925.1 1.92299 -5.54291 0
M  V30 20363 C 1927.45 1.77214 -6.07271 0
M  V30 20364 C 1926.12 1.6704 -6.46262 0
M  V30 20365 H 1925.39 0.531011 -0.516825 0
M  V30 20366 H 1928.03 0.789481 -1.74469 0
M  V30 20367 H 1926.34 3.38668 -1.97006 0
M  V30 20368 H 1928.04 3.25697 -2.33928 0
M  V30 20369 H 1924.63 2.44453 -3.52052 0
M  V30 20370 H 1928.81 2.17184 -4.46256 0
M  V30 20371 H 1924.07 1.82978 -5.83377 0
M  V30 20372 H 1928.24 1.56685 -6.78545 0
M  V30 20373 H 1925.87 1.3904 -7.47377 0
M  V30 20374 N 1927.44 1.27542 0.925789 0
M  V30 20375 C 1928.69 1.13375 1.6682 0
M  V30 20376 C 1929 -0.319507 1.92973 0
M  V30 20377 O 1930.21 -0.582109 2.65186 0
M  V30 20378 C 1928.67 1.98111 3.00466 0
M  V30 20379 C 1928.27 3.48105 2.82005 0
M  V30 20380 C 1930.02 1.92597 3.78294 0
M  V30 20381 C 1927.93 4.25034 4.11218 0
M  V30 20382 H 1926.86 0.420697 0.625724 0
M  V30 20383 H 1929.51 1.51978 1.02835 0
M  V30 20384 H 1927.89 1.52354 3.65519 0
M  V30 20385 H 1929.06 4.01737 2.25707 0
M  V30 20386 H 1927.38 3.55018 2.17604 0
M  V30 20387 H 1929.97 2.47348 4.74049 0
M  V30 20388 H 1930.32 0.900028 4.06454 0
M  V30 20389 H 1930.85 2.3626 3.20041 0
M  V30 20390 H 1927.59 5.2816 3.88236 0
M  V30 20391 H 1927.11 3.76178 4.67173 0
M  V30 20392 H 1928.79 4.3431 4.79566 0
M  V30 20393 N 1928.92 -1.13255 1.09595 0
M  V30 20394 C 1929.85 -2.20827 0.758791 0
M  V30 20395 C 1930.83 -1.68034 -0.264325 0
M  V30 20396 O 1932.02 -1.93751 -0.132005 0
M  V30 20397 C 1929.15 -3.46831 0.180424 0
M  V30 20398 C 1928.1 -4.12724 1.13325 0
M  V30 20399 C 1927.43 -5.33075 0.416504 0
M  V30 20400 C 1928.73 -4.59862 2.47637 0
M  V30 20401 H 1930.42 -2.49287 1.65821 0
M  V30 20402 H 1927.97 -1.19818 0.798734 0
M  V30 20403 H 1929.92 -4.21346 -0.0675313 0
M  V30 20404 H 1928.64 -3.17773 -0.754194 0
M  V30 20405 H 1927.3 -3.40179 1.36651 0
M  V30 20406 H 1926.95 -5.00281 -0.522308 0
M  V30 20407 H 1926.65 -5.78109 1.05183 0
M  V30 20408 H 1928.17 -6.10344 0.17689 0
M  V30 20409 H 1929.59 -5.25791 2.28509 0
M  V30 20410 H 1927.99 -5.15642 3.06974 0
M  V30 20411 H 1929.06 -3.74294 3.08273 0
M  V30 20412 N 1930.4 -0.883401 -1.30514 0
M  V30 20413 C 1931.64 -0.507734 -1.97993 0
M  V30 20414 C 1932 0.925497 -1.68222 0
M  V30 20415 O 1933.2 1.40721 -2.29022 0
M  V30 20416 C 1931.47 -0.773081 -3.48939 0
M  V30 20417 S 1933.03 -0.499281 -4.3595 0
M  V30 20418 H 1929.85 -0.188981 -0.685425 0
M  V30 20419 H 1932.45 -1.14233 -1.58654 0
M  V30 20420 H 1931.16 -1.81472 -3.68098 0
M  V30 20421 H 1930.69 -0.125985 -3.93198 0
M  V30 20422 H 1932.7 0.662772 -4.91754 0
M  V30 20423 N 1931.88 1.43833 -0.644194 0
M  V30 20424 C 1933.1 2.06784 -0.159719 0
M  V30 20425 C 1933.53 1.47913 1.16204 0
M  V30 20426 O 1932.88 0.585574 1.71583 0
M  V30 20427 C 1932.93 3.60527 -0.0724271 0
M  V30 20428 O 1932.04 4.0088 0.967917 0
M  V30 20429 H 1931.38 0.657771 -0.0907406 0
M  V30 20430 H 1933.91 1.8449 -0.884568 0
M  V30 20431 H 1933.92 4.07841 0.113872 0
M  V30 20432 H 1932.59 4.02755 -1.03736 0
M  V30 20433 H 1931.17 3.65174 0.755135 0
M  V30 20434 N 1933.35 0.385544 1.52811 0
M  V30 20435 C 1934.58 -0.198025 2.0595 0
M  V30 20436 C 1935 -1.40822 1.25756 0
M  V30 20437 O 1934.35 -1.79963 0.303251 0
M  V30 20438 C 1934.41 -0.571856 3.56948 0
M  V30 20439 O 1934.13 0.59026 4.34105 0
M  V30 20440 C 1935.63 -1.21169 4.26419 0
M  V30 20441 H 1932.85 -0.0307594 0.670295 0
M  V30 20442 H 1935.39 0.549688 1.96974 0
M  V30 20443 H 1933.55 -1.26947 3.6601 0
M  V30 20444 H 1933.96 0.28384 5.23731 0
M  V30 20445 H 1935.43 -1.42366 5.33325 0
M  V30 20446 H 1935.91 -2.17794 3.81395 0
M  V30 20447 H 1936.52 -0.554949 4.21664 0
M  V30 20448 N 1934.83 -1.57178 0.115259 0
M  V30 20449 C 1935.78 -2.16368 -0.853683 0
M  V30 20450 C 1936.77 -1.11189 -1.27802 0
M  V30 20451 O 1937.98 -1.29499 -1.2502 0
M  V30 20452 H 1934.36 -0.692403 -0.293397 0
M  V30 20453 H 1936.33 -2.9657 -0.329954 0
M  V30 20454 C 1935.08 -2.7747 -2.09537 0
M  V30 20455 H 1934.4 -3.581 -1.77777 0
M  V30 20456 H 1935.84 -3.22428 -2.75347 0
M  V30 20457 C 1934.3 -1.74366 -2.88268 0
M  V30 20458 O 1934.83 -1.19476 -3.83521 0
M  V30 20459 N 1933.03 -1.44392 -2.52189 0
M  V30 20460 H 1932.58 -1.89219 -1.74797 0
M  V30 20461 H 1932.54 -0.756482 -3.05163 0
M  V30 20462 N 1936.31 0.158505 -1.56801 0
M  V30 20463 C 1937.26 1.20094 -1.93808 0
M  V30 20464 C 1938.25 1.39146 -0.807916 0
M  V30 20465 O 1939.44 1.40901 -1.07125 0
M  V30 20466 C 1936.57 2.53736 -2.31243 0
M  V30 20467 C 1935.65 2.38324 -3.50803 0
M  V30 20468 N 1936.04 1.92648 -4.67676 0
M  V30 20469 C 1934.34 2.69112 -3.55661 0
M  V30 20470 C 1935.04 1.90005 -5.49793 0
M  V30 20471 N 1934.02 2.3289 -4.91186 0
M  V30 20472 H 1937.82 0.839694 -2.81649 0
M  V30 20473 H 1935.33 0.366668 -1.58207 0
M  V30 20474 H 1937.33 3.29079 -2.55955 0
M  V30 20475 H 1935.99 2.90652 -1.44747 0
M  V30 20476 H 1937 1.62788 -4.91651 0
M  V30 20477 H 1933.68 3.0998 -2.79676 0
M  V30 20478 H 1935.07 1.5628 -6.53472 0
M  V30 20479 N 1937.79 1.51692 0.427485 0
M  V30 20480 C 1939.01 1.68956 1.20285 0
M  V30 20481 C 1939.44 0.390472 1.84003 0
M  V30 20482 O 1938.8 -0.650352 1.69234 0
M  V30 20483 C 1938.85 2.81368 2.25532 0
M  V30 20484 O 1937.95 2.45657 3.3125 0
M  V30 20485 H 1937.29 0.56304 0.351969 0
M  V30 20486 H 1939.82 1.98306 0.503588 0
M  V30 20487 H 1939.83 3.05742 2.70158 0
M  V30 20488 H 1938.51 3.7563 1.78535 0
M  V30 20489 H 1937.08 2.31889 2.9203 0
M  V30 20490 N 1939.27 -0.683564 1.42004 0
M  V30 20491 C 1940.2 -1.8095 1.47578 0
M  V30 20492 C 1941.18 -1.66804 0.333208 0
M  V30 20493 O 1942.36 -1.86357 0.546314 0
M  V30 20494 C 1939.49 -3.19182 1.36895 0
M  V30 20495 C 1938.45 -3.4805 2.49089 0
M  V30 20496 C 1937.77 -4.85764 2.23467 0
M  V30 20497 C 1939.07 -3.4582 3.91415 0
M  V30 20498 H 1940.77 -1.76543 2.41812 0
M  V30 20499 H 1938.31 -0.84794 1.16387 0
M  V30 20500 H 1940.27 -3.97674 1.39404 0
M  V30 20501 H 1938.99 -3.24245 0.391513 0
M  V30 20502 H 1937.65 -2.71915 2.45882 0
M  V30 20503 H 1937.3 -4.87467 1.24037 0
M  V30 20504 H 1937 -5.06043 2.98654 0
M  V30 20505 H 1938.52 -5.66551 2.27711 0
M  V30 20506 H 1939.94 -4.14297 3.96272 0
M  V30 20507 H 1938.33 -3.77633 4.66383 0
M  V30 20508 H 1939.4 -2.4456 4.1871 0
M  V30 20509 N 1940.75 -1.28031 -0.919012 0
M  V30 20510 C 1941.68 -1.14034 -2.03761 0
M  V30 20511 C 1942.66 -0.039495 -1.70054 0
M  V30 20512 O 1943.84 -0.215546 -1.93 0
M  V30 20513 C 1940.97 -0.795894 -3.38057 0
M  V30 20514 C 1939.93 -1.85093 -3.85907 0
M  V30 20515 C 1939.25 -1.36024 -5.17109 0
M  V30 20516 C 1940.55 -3.25658 -4.08343 0
M  V30 20517 H 1942.25 -2.07609 -2.15729 0
M  V30 20518 H 1939.79 -0.999558 -1.03657 0
M  V30 20519 H 1941.74 -0.684762 -4.15799 0
M  V30 20520 H 1940.47 0.175558 -3.26128 0
M  V30 20521 H 1939.13 -1.95112 -3.10366 0
M  V30 20522 H 1938.78 -0.378004 -5.01578 0
M  V30 20523 H 1938.48 -2.06568 -5.50094 0
M  V30 20524 H 1940 -1.26223 -5.97411 0
M  V30 20525 H 1941.41 -3.1859 -4.76627 0
M  V30 20526 H 1939.81 -3.93989 -4.52651 0
M  V30 20527 H 1940.88 -3.70066 -3.13335 0
M  V30 20528 N 1942.22 1.12672 -1.10194 0
M  V30 20529 C 1943.19 2.16513 -0.751974 0
M  V30 20530 C 1944.19 1.59255 0.222352 0
M  V30 20531 O 1945.38 1.742 -0.000482744 0
M  V30 20532 C 1942.51 3.40711 -0.113421 0
M  V30 20533 H 1943.7 2.48986 -1.67171 0
M  V30 20534 H 1941.25 1.27637 -0.90214 0
M  V30 20535 H 1941.99 3.13836 0.817162 0
M  V30 20536 H 1941.77 3.83545 -0.814599 0
M  V30 20537 H 1943.26 4.1744 0.115756 0
M  V30 20538 N 1943.7 0.89031 1.30043 0
M  V30 20539 C 1945.11 0.561241 1.78065 0
M  V30 20540 C 1945.46 -0.922791 1.73144 0
M  V30 20541 O 1944.59 -1.72124 1.31157 0
M  V30 20542 C 1945.18 1.01201 3.23332 0
M  V30 20543 C 1943.74 0.734261 3.69169 0
M  V30 20544 C 1942.89 1.19199 2.50373 0
M  V30 20545 H 1945.84 1.074 1.16838 0
M  V30 20546 H 1945.86 0.343251 3.78949 0
M  V30 20547 H 1945.37 2.09213 3.26881 0
M  V30 20548 H 1943.47 -0.33365 3.71103 0
M  V30 20549 H 1943.59 1.32556 4.60397 0
M  V30 20550 H 1941.95 0.6112 2.47258 0
M  V30 20551 H 1942.73 2.27997 2.56656 0
M  V30 20552 N 1945.18 -1.43489 0.651812 0
M  V30 20553 C 1946.59 -1.85091 0.2446 0
M  V30 20554 C 1946.94 -1.54561 -1.20852 0
M  V30 20555 O 1946.07 -0.993885 -1.92226 0
M  V30 20556 C 1946.66 -3.35968 0.43715 0
M  V30 20557 C 1945.22 -3.76306 0.0842681 0
M  V30 20558 C 1944.37 -2.67225 0.740688 0
M  V30 20559 H 1947.32 -1.33662 0.855581 0
M  V30 20560 H 1947.34 -3.79171 -0.317766 0
M  V30 20561 H 1946.85 -3.58157 1.49484 0
M  V30 20562 H 1944.95 -3.59729 -0.970875 0
M  V30 20563 H 1945.07 -4.76391 0.508752 0
M  V30 20564 H 1943.43 -2.54105 0.174053 0
M  V30 20565 H 1944.21 -2.92242 1.80137 0
M  V30 20566 N 1946.66 -0.393643 -1.52605 0
M  V30 20567 C 1947.89 0.1871 -2.06052 0
M  V30 20568 C 1948.3 1.40154 -1.26501 0
M  V30 20569 O 1947.66 1.798 -0.31279 0
M  V30 20570 C 1947.71 0.552918 -3.57246 0
M  V30 20571 O 1947.43 -0.613274 -4.33786 0
M  V30 20572 C 1948.93 1.18906 -4.27055 0
M  V30 20573 H 1946.15 0.0272042 -0.670448 0
M  V30 20574 H 1948.69 -0.560126 -1.9668 0
M  V30 20575 H 1946.85 1.25004 -3.66678 0
M  V30 20576 H 1947.26 -0.311611 -5.23574 0
M  V30 20577 H 1948.74 1.39535 -5.34073 0
M  V30 20578 H 1949.21 2.15768 -3.82545 0
M  V30 20579 H 1949.82 0.532579 -4.21952 0
M  V30 20580 N 1948.14 1.57115 -0.123593 0
M  V30 20581 C 1949.38 1.94527 0.533131 0
M  V30 20582 C 1949.7 1.0095 1.67536 0
M  V30 20583 O 1950.9 1.27846 2.39515 0
M  V30 20584 C 1949.36 3.45735 0.999783 0
M  V30 20585 C 1948.97 4.47854 -0.114238 0
M  V30 20586 C 1950.71 3.92057 1.62762 0
M  V30 20587 C 1948.62 5.90245 0.36937 0
M  V30 20588 H 1947.55 0.726179 0.20293 0
M  V30 20589 H 1950.2 1.8236 -0.204183 0
M  V30 20590 H 1948.58 3.53151 1.79166 0
M  V30 20591 H 1949.76 4.52111 -0.890627 0
M  V30 20592 H 1948.07 4.11311 -0.649019 0
M  V30 20593 H 1950.67 4.9586 2.00067 0
M  V30 20594 H 1951.01 3.3229 2.50777 0
M  V30 20595 H 1951.54 3.8746 0.901074 0
M  V30 20596 H 1948.28 6.53778 -0.474837 0
M  V30 20597 H 1947.8 5.89399 1.11214 0
M  V30 20598 H 1949.48 6.41666 0.829093 0
M  V30 20599 N 1949.61 -0.150187 1.56883 0
M  V30 20600 C 1950.84 -0.88235 1.87695 0
M  V30 20601 C 1951.26 -1.74093 0.712272 0
M  V30 20602 O 1950.62 -1.78118 -0.338207 0
M  V30 20603 C 1950.67 -1.71754 3.1707 0
M  V30 20604 O 1949.77 -2.82145 3.00779 0
M  V30 20605 H 1949.11 -0.245947 0.616771 0
M  V30 20606 H 1951.64 -0.141963 2.04107 0
M  V30 20607 H 1951.65 -2.1132 3.4901 0
M  V30 20608 H 1950.33 -1.08704 4.01443 0
M  V30 20609 H 1948.91 -2.46008 2.8024 0
M  V30 20610 N 1951.09 -1.51916 -0.419434 0
M  V30 20611 C 1952.32 -1.69592 -1.19387 0
M  V30 20612 C 1952.74 -0.400225 -1.83793 0
M  V30 20613 O 1952.1 0.641368 -1.69576 0
M  V30 20614 C 1952.15 -2.8256 -2.24036 0
M  V30 20615 O 1951.25 -2.4741 -3.29942 0
M  V30 20616 H 1950.59 -0.564898 -0.348978 0
M  V30 20617 H 1953.12 -1.9857 -0.493064 0
M  V30 20618 H 1953.13 -3.07171 -2.68533 0
M  V30 20619 H 1951.81 -3.76572 -1.7654 0
M  V30 20620 H 1950.39 -2.33435 -2.90796 0
M  V30 20621 N 1952.57 0.676023 -1.42365 0
M  V30 20622 C 1953.5 1.80165 -1.48536 0
M  V30 20623 C 1954.48 1.66625 -0.342049 0
M  V30 20624 O 1955.67 1.86065 -0.55619 0
M  V30 20625 C 1952.8 3.18451 -1.38586 0
M  V30 20626 C 1951.75 3.46724 -2.50931 0
M  V30 20627 C 1951.08 4.84572 -2.2604 0
M  V30 20628 C 1952.38 3.4374 -3.93243 0
M  V30 20629 H 1954.07 1.75258 -2.42745 0
M  V30 20630 H 1951.62 0.841756 -1.16835 0
M  V30 20631 H 1953.57 3.96929 -1.41511 0
M  V30 20632 H 1952.29 3.24033 -0.408703 0
M  V30 20633 H 1950.95 2.70607 -2.47321 0
M  V30 20634 H 1950.6 4.86802 -1.2662 0
M  V30 20635 H 1950.3 5.04452 -3.01334 0
M  V30 20636 H 1951.82 5.65336 -2.30712 0
M  V30 20637 H 1953.24 4.12189 -3.98463 0
M  V30 20638 H 1951.64 3.75155 -4.68379 0
M  V30 20639 H 1952.71 2.42337 -4.20001 0
M  V30 20640 N 1954.05 1.28517 0.912209 0
M  V30 20641 C 1955.46 1.14251 1.4766 0
M  V30 20642 C 1955.81 -0.266935 1.94376 0
M  V30 20643 O 1954.94 -1.16134 1.82598 0
M  V30 20644 C 1955.53 2.06792 2.6837 0
M  V30 20645 C 1954.09 1.96587 3.20984 0
M  V30 20646 C 1953.24 1.98444 1.93689 0
M  V30 20647 H 1956.19 1.41184 0.724769 0
M  V30 20648 H 1956.21 1.63282 3.43685 0
M  V30 20649 H 1955.72 3.09365 2.34339 0
M  V30 20650 H 1953.82 0.970565 3.59737 0
M  V30 20651 H 1953.93 2.83622 3.86129 0
M  V30 20652 H 1952.3 1.42872 2.10855 0
M  V30 20653 H 1953.08 3.02699 1.61951 0
M  V30 20654 N 1955.53 -1.12086 1.1079 0
M  V30 20655 C 1956.49 -2.16111 0.763446 0
M  V30 20656 C 1957.49 -1.59371 -0.213903 0
M  V30 20657 O 1958.68 -1.74197 0.00972099 0
M  V30 20658 C 1955.81 -3.40646 0.131488 0
M  V30 20659 H 1957 -2.48096 1.68489 0
M  V30 20660 H 1954.56 -1.27156 0.908896 0
M  V30 20661 H 1955.29 -3.14265 -0.800507 0
M  V30 20662 H 1955.08 -3.83108 0.834928 0
M  V30 20663 H 1956.57 -4.17495 -0.0936165 0
M  V30 20664 N 1957 -0.897194 -1.29569 0
M  V30 20665 C 1957.94 -0.317616 -2.25979 0
M  V30 20666 C 1958.92 0.568783 -1.52327 0
M  V30 20667 O 1960.1 0.516152 -1.81296 0
M  V30 20668 C 1957.23 0.547511 -3.34245 0
M  V30 20669 C 1956.27 -0.271227 -4.25637 0
M  V30 20670 S 1957.11 -1.6674 -5.08879 0
M  V30 20671 C 1958.26 -0.809125 -6.20648 0
M  V30 20672 H 1958.49 -1.1348 -2.7479 0
M  V30 20673 H 1956.03 -0.697379 -1.37753 0
M  V30 20674 H 1957.99 1.04088 -3.97084 0
M  V30 20675 H 1956.65 1.33891 -2.84134 0
M  V30 20676 H 1955.84 0.389522 -5.02493 0
M  V30 20677 H 1955.44 -0.697651 -3.67435 0
M  V30 20678 H 1957.73 -0.0314136 -6.77493 0
M  V30 20679 H 1958.68 -1.54968 -6.90934 0
M  V30 20680 H 1959.08 -0.36462 -5.63321 0
M  V30 20681 N 1958.48 1.43142 -0.659413 0
M  V30 20682 C 1959.43 2.32565 0.040254 0
M  V30 20683 C 1960.42 1.48961 0.806651 0
M  V30 20684 O 1961.63 1.65131 0.716353 0
M  V30 20685 H 1958.01 0.751327 0.0318053 0
M  V30 20686 H 1959.98 2.89293 -0.731581 0
M  V30 20687 C 1958.73 3.33349 0.988614 0
M  V30 20688 H 1958.05 3.9771 0.40831 0
M  V30 20689 H 1959.49 3.9854 1.44714 0
M  V30 20690 C 1957.95 2.64423 2.08763 0
M  V30 20691 O 1958.48 2.46444 3.17219 0
M  V30 20692 N 1956.68 2.23697 1.85494 0
M  V30 20693 H 1956.23 2.38519 0.972945 0
M  V30 20694 H 1956.19 1.7791 2.59221 0
M  V30 20695 N 1959.96 0.40173 1.52394 0
M  V30 20696 C 1961.38 0.0522587 1.59514 0
M  V30 20697 C 1961.58 -1.43455 1.41502 0
M  V30 20698 O 1960.63 -2.20053 1.23825 0
M  V30 20699 C 1961.95 0.540559 2.95801 0
M  V30 20700 C 1963.49 0.497892 3.09015 0
M  V30 20701 C 1963.97 0.962581 4.4777 0
M  V30 20702 N 1965.46 0.919099 4.5399 0
M  V30 20703 C 1966.19 1.24993 5.59611 0
M  V30 20704 N 1965.69 1.65185 6.72819 0
M  V30 20705 N 1967.48 1.17038 5.49781 0
M  V30 20706 H 1959.63 1.36954 1.6235 0
M  V30 20707 H 1961.9 0.562141 0.763349 0
M  V30 20708 H 1961.6 1.57946 3.14239 0
M  V30 20709 H 1961.48 -0.0537516 3.77162 0
M  V30 20710 H 1963.86 -0.531947 2.90266 0
M  V30 20711 H 1963.95 1.12816 2.29578 0
M  V30 20712 H 1963.59 1.99071 4.67261 0
M  V30 20713 H 1963.52 0.309196 5.25691 0
M  V30 20714 H 1966.01 0.623503 3.72721 0
M  V30 20715 H 1966.32 1.88759 7.49393 0
M  V30 20716 H 1964.67 1.69082 6.74119 0
M  V30 20717 H 1967.86 0.855299 4.6022 0
M  V30 20718 H 1968.03 1.43151 6.3199 0
M  V30 20719 N 1961.44 -1.57047 0.131923 0
M  V30 20720 C 1962.85 -1.58012 -0.224598 0
M  V30 20721 C 1963.05 -1.1454 -1.6578 0
M  V30 20722 O 1962.11 -0.838726 -2.38163 0
M  V30 20723 C 1963.42 -3.00693 0.0204646 0
M  V30 20724 C 1964.97 -3.12968 -0.0444267 0
M  V30 20725 C 1965.45 -4.57673 0.173109 0
M  V30 20726 N 1966.94 -4.63046 0.119519 0
M  V30 20727 C 1967.67 -5.72799 0.262558 0
M  V30 20728 N 1967.17 -6.91255 0.462486 0
M  V30 20729 N 1968.96 -5.6174 0.201221 0
M  V30 20730 H 1961.11 -1.83602 1.06789 0
M  V30 20731 H 1963.38 -0.849118 0.421547 0
M  V30 20732 H 1963.08 -3.36832 1.01178 0
M  V30 20733 H 1962.96 -3.7054 -0.705686 0
M  V30 20734 H 1965.34 -2.7668 -1.02628 0
M  V30 20735 H 1965.42 -2.45639 0.713812 0
M  V30 20736 H 1965.07 -4.94663 1.15199 0
M  V30 20737 H 1965 -5.2311 -0.605272 0
M  V30 20738 H 1967.49 -3.77887 -0.0309659 0
M  V30 20739 H 1967.8 -7.70753 0.562145 0
M  V30 20740 H 1966.15 -6.93209 0.498621 0
M  V30 20741 H 1969.34 -4.68077 0.0458997 0
M  V30 20742 H 1969.51 -6.47228 0.316135 0
M  V30 20743 N 1962.92 0.141865 -1.5696 0
M  V30 20744 C 1964.16 0.853609 -1.83629 0
M  V30 20745 C 1964.49 1.80937 -0.713591 0
M  V30 20746 O 1963.75 1.93433 0.296981 0
M  V30 20747 C 1964.05 1.65717 -3.16658 0
M  V30 20748 C 1963.71 0.847748 -4.42859 0
M  V30 20749 C 1962.37 0.624458 -4.77131 0
M  V30 20750 C 1964.73 0.282029 -5.20436 0
M  V30 20751 C 1962.05 -0.175174 -5.86438 0
M  V30 20752 C 1964.41 -0.50467 -6.30584 0
M  V30 20753 C 1963.07 -0.738489 -6.63402 0
M  V30 20754 H 1962.34 0.312358 -0.671948 0
M  V30 20755 H 1964.99 0.117006 -1.91142 0
M  V30 20756 H 1963.29 2.46403 -3.04619 0
M  V30 20757 H 1964.99 2.21144 -3.34509 0
M  V30 20758 H 1961.58 1.03185 -4.15994 0
M  V30 20759 H 1965.76 0.441806 -4.9433 0
M  V30 20760 H 1961.02 -0.365778 -6.10305 0
M  V30 20761 H 1965.19 -0.950134 -6.89888 0
M  V30 20762 H 1962.82 -1.35995 -7.47937 0
M  V30 20763 N 1964.39 1.52136 0.411372 0
M  V30 20764 C 1965.64 1.66085 1.15853 0
M  V30 20765 C 1965.97 0.38968 1.90556 0
M  V30 20766 O 1965.22 -0.62727 1.85375 0
M  V30 20767 C 1965.52 2.832 2.1802 0
M  V30 20768 C 1965.19 4.21504 1.6014 0
M  V30 20769 C 1963.85 4.59124 1.4408 0
M  V30 20770 C 1966.2 5.07702 1.17848 0
M  V30 20771 C 1963.53 5.80621 0.842405 0
M  V30 20772 C 1965.88 6.29802 0.594283 0
M  V30 20773 C 1964.55 6.66172 0.420791 0
M  V30 20774 H 1963.82 0.607749 0.423937 0
M  V30 20775 H 1966.46 1.86233 0.446046 0
M  V30 20776 H 1964.77 2.57378 2.95405 0
M  V30 20777 H 1966.47 2.91189 2.75699 0
M  V30 20778 H 1963.06 3.91858 1.73623 0
M  V30 20779 H 1967.24 4.79224 1.29066 0
M  V30 20780 H 1962.5 6.07426 0.695983 0
M  V30 20781 H 1966.67 6.95921 0.258177 0
M  V30 20782 H 1964.3 7.60187 -0.044991 0
M  V30 20783 N 1965.87 -0.668464 1.42721 0
M  V30 20784 C 1967.12 -1.42849 1.43528 0
M  V30 20785 C 1967.45 -1.94425 0.0540077 0
M  V30 20786 O 1966.7 -1.71721 -0.938629 0
M  V30 20787 C 1967 -2.63743 2.41194 0
M  V30 20788 C 1966.67 -2.30672 3.87429 0
M  V30 20789 C 1965.33 -2.21365 4.2726 0
M  V30 20790 C 1967.68 -2.03937 4.79645 0
M  V30 20791 C 1965.01 -1.83456 5.5728 0
M  V30 20792 C 1967.36 -1.6753 6.10013 0
M  V30 20793 C 1966.03 -1.56737 6.48837 0
M  V30 20794 H 1965.3 -0.522721 0.525208 0
M  V30 20795 H 1967.94 -0.761625 1.75703 0
M  V30 20796 H 1966.25 -3.35491 2.02369 0
M  V30 20797 H 1967.95 -3.21934 2.3908 0
M  V30 20798 H 1964.54 -2.38821 3.55896 0
M  V30 20799 H 1968.72 -2.10057 4.49655 0
M  V30 20800 H 1963.98 -1.73674 5.86214 0
M  V30 20801 H 1968.15 -1.4587 6.80952 0
M  V30 20802 H 1965.78 -1.27133 7.49494 0
M  V30 20803 N 1967.35 -1.28999 -0.905381 0
M  V30 20804 C 1968.63 -1.07329 -1.63523 0
M  V30 20805 C 1969.01 0.384519 -2.07568 0
M  V30 20806 O 1968.36 1.37223 -1.82708 0
M  V30 20807 C 1968.57 -2.05563 -2.82037 0
M  V30 20808 C 1969.91 -2.3617 -3.52858 0
M  V30 20809 O 1970.94 -2.03713 -2.92198 0
M  V30 20810 O 1969.8 -2.91601 -4.62202 0
M  V30 20811 H 1966.89 -0.410796 -0.717757 0
M  V30 20812 H 1969.44 -1.40349 -0.953949 0
M  V30 20813 H 1968.21 -3.03779 -2.46645 0
M  V30 20814 H 1967.83 -1.73238 -3.57875 0
M  V30 20815 N 1968.83 1.11497 -1.11383 0
M  V30 20816 C 1969.76 2.19592 -0.793827 0
M  V30 20817 C 1970.74 1.68433 0.237559 0
M  V30 20818 O 1971.93 1.93936 0.101164 0
M  V30 20819 C 1969.06 3.465 -0.235579 0
M  V30 20820 C 1968.01 4.10869 -1.19877 0
M  V30 20821 C 1967.34 5.32345 -0.501259 0
M  V30 20822 C 1968.64 4.55864 -2.54922 0
M  V30 20823 H 1970.33 2.46617 -1.69766 0
M  V30 20824 H 1967.88 1.18532 -0.817695 0
M  V30 20825 H 1969.83 4.214 0.000490272 0
M  V30 20826 H 1968.55 3.18932 0.703544 0
M  V30 20827 H 1967.21 3.37962 -1.42046 0
M  V30 20828 H 1966.86 5.01048 0.442652 0
M  V30 20829 H 1966.56 5.76363 -1.14367 0
M  V30 20830 H 1968.08 6.09985 -0.273968 0
M  V30 20831 H 1969.5 5.22089 -2.36845 0
M  V30 20832 H 1967.89 5.10693 -3.15139 0
M  V30 20833 H 1968.96 3.69342 -3.14189 0
M  V30 20834 N 1970.31 0.904053 1.29092 0
M  V30 20835 C 1971.58 0.451521 1.90317 0
M  V30 20836 C 1971.96 -1.06911 1.82025 0
M  V30 20837 O 1971.31 -1.9129 1.24982 0
M  V30 20838 C 1971.52 0.970986 3.35221 0
M  V30 20839 C 1972.87 1.01728 4.12234 0
M  V30 20840 O 1973.89 0.918956 3.44142 0
M  V30 20841 O 1972.75 1.16562 5.33925 0
M  V30 20842 H 1969.85 0.141495 0.814806 0
M  V30 20843 H 1972.39 0.994203 1.37527 0
M  V30 20844 H 1971.17 2.01497 3.35432 0
M  V30 20845 H 1970.79 0.408567 3.95495 0
M  V30 20846 N 1971.79 -1.4279 0.666995 0
M  V30 20847 C 1973.03 -2.00866 0.183286 0
M  V30 20848 C 1973.35 -1.53315 -1.21465 0
M  V30 20849 O 1974.55 -2.03756 -1.79432 0
M  V30 20850 C 1973.01 -3.58834 0.276836 0
M  V30 20851 C 1972.62 -4.15374 1.67834 0
M  V30 20852 C 1974.36 -4.2424 -0.14856 0
M  V30 20853 C 1972.27 -5.65681 1.72507 0
M  V30 20854 H 1971.2 -0.751214 0.0647613 0
M  V30 20855 H 1973.85 -1.63603 0.83104 0
M  V30 20856 H 1972.23 -3.93563 -0.438672 0
M  V30 20857 H 1973.41 -3.9212 2.4203 0
M  V30 20858 H 1971.72 -3.62391 2.0509 0
M  V30 20859 H 1974.32 -5.34533 -0.133681 0
M  V30 20860 H 1974.66 -3.99154 -1.18245 0
M  V30 20861 H 1975.19 -3.94444 0.51567 0
M  V30 20862 H 1971.93 -5.95555 2.73852 0
M  V30 20863 H 1971.45 -5.9095 1.02655 0
M  V30 20864 H 1973.13 -6.29963 1.47499 0
M  V30 20865 N 1973.26 -0.409806 -1.52179 0
M  V30 20866 C 1974.51 0.166003 -2.02119 0
M  V30 20867 C 1974.84 1.44732 -1.29484 0
M  V30 20868 O 1974.12 1.90314 -0.401362 0
M  V30 20869 C 1974.4 0.413015 -3.57724 0
M  V30 20870 C 1974.25 -0.885028 -4.41007 0
M  V30 20871 C 1975.57 1.19486 -4.2357 0
M  V30 20872 H 1972.69 0.0588585 -0.734646 0
M  V30 20873 H 1975.33 -0.543405 -1.82063 0
M  V30 20874 H 1973.48 1.01732 -3.74944 0
M  V30 20875 H 1975.16 -1.5212 -4.35497 0
M  V30 20876 H 1973.4 -1.49585 -4.07194 0
M  V30 20877 H 1974.07 -0.66658 -5.47961 0
M  V30 20878 H 1976.55 0.683238 -4.10452 0
M  V30 20879 H 1975.42 1.33644 -5.32382 0
M  V30 20880 H 1975.68 2.21566 -3.82571 0
M  V30 20881 N 1974.74 1.56975 -0.14025 0
M  V30 20882 C 1975.99 1.96196 0.513302 0
M  V30 20883 C 1976.32 1.02482 1.64958 0
M  V30 20884 O 1975.6 0.0659332 1.94388 0
M  V30 20885 C 1975.88 3.45178 1.02589 0
M  V30 20886 C 1975.73 4.49669 -0.108432 0
M  V30 20887 C 1977.05 3.96499 1.90989 0
M  V30 20888 H 1974.17 0.713374 0.185114 0
M  V30 20889 H 1976.81 1.88721 -0.220112 0
M  V30 20890 H 1974.96 3.51679 1.65088 0
M  V30 20891 H 1976.63 4.55252 -0.744538 0
M  V30 20892 H 1974.88 4.26937 -0.768558 0
M  V30 20893 H 1975.55 5.51228 0.291822 0
M  V30 20894 H 1978.02 3.92434 1.38329 0
M  V30 20895 H 1976.9 5.01219 2.23765 0
M  V30 20896 H 1977.16 3.38452 2.84433 0
M  V30 20897 N 1976.22 -0.133539 1.57033 0
M  V30 20898 C 1977.17 -1.16995 1.95694 0
M  V30 20899 C 1978.15 -1.37843 0.82995 0
M  V30 20900 O 1979.35 -1.39179 1.09353 0
M  V30 20901 C 1976.47 -2.50025 2.3525 0
M  V30 20902 C 1975.56 -2.32713 3.5455 0
M  V30 20903 N 1975.95 -1.85183 4.70681 0
M  V30 20904 C 1974.25 -2.63419 3.59898 0
M  V30 20905 C 1974.95 -1.81235 5.52747 0
M  V30 20906 N 1973.93 -2.25046 4.94829 0
M  V30 20907 H 1977.73 -0.79478 2.8295 0
M  V30 20908 H 1975.24 -0.341452 1.5877 0
M  V30 20909 H 1977.24 -3.24965 2.61158 0
M  V30 20910 H 1975.9 -2.88312 1.49352 0
M  V30 20911 H 1976.91 -1.54946 4.94178 0
M  V30 20912 H 1973.59 -3.05491 2.84572 0
M  V30 20913 H 1974.98 -1.45864 6.55876 0
M  V30 20914 N 1977.7 -1.52352 -0.403298 0
M  V30 20915 C 1978.97 -1.57265 -1.16305 0
M  V30 20916 C 1979.35 -0.357181 -2.08056 0
M  V30 20917 O 1978.7 0.655551 -2.18894 0
M  V30 20918 C 1978.91 -2.90429 -1.93525 0
M  V30 20919 C 1980.26 -3.43643 -2.49388 0
M  V30 20920 O 1981.28 -2.92208 -2.03699 0
M  V30 20921 O 1980.14 -4.33474 -3.32809 0
M  V30 20922 H 1977.24 -0.633707 -0.531361 0
M  V30 20923 H 1979.78 -1.64682 -0.409607 0
M  V30 20924 H 1978.56 -3.70341 -1.26346 0
M  V30 20925 H 1978.18 -2.86331 -2.75862 0
M  V30 20926 N 1979.18 0.660885 -1.43074 0
M  V30 20927 C 1980.12 1.79529 -1.47892 0
M  V30 20928 C 1981.12 1.65676 -0.353254 0
M  V30 20929 O 1982.32 1.72115 -0.526903 0
M  V30 20930 H 1978.7 0.592191 -0.46348 0
M  V30 20931 H 1980.67 1.72584 -2.43428 0
M  V30 20932 C 1979.42 3.17753 -1.41167 0
M  V30 20933 H 1978.74 3.29047 -2.27087 0
M  V30 20934 H 1980.18 3.97107 -1.486 0
M  V30 20935 C 1978.64 3.36656 -0.128241 0
M  V30 20936 O 1979.17 3.93376 0.813504 0
M  V30 20937 N 1977.38 2.90571 -0.0408985 0
M  V30 20938 H 1976.92 2.44598 -0.808059 0
M  V30 20939 H 1976.88 3.03595 0.817147 0
M  V30 20940 N 1980.65 1.29477 0.898527 0
M  V30 20941 C 1981.88 1.20232 1.68011 0
M  V30 20942 C 1982.29 -0.239393 1.87679 0
M  V30 20943 O 1981.64 -1.17197 1.41459 0
M  V30 20944 C 1981.7 1.84564 3.08507 0
M  V30 20945 C 1981.36 3.33862 3.12065 0
M  V30 20946 C 1982.36 4.30068 2.92125 0
M  V30 20947 C 1980.04 3.75082 3.34094 0
M  V30 20948 C 1982.04 5.65469 2.94149 0
M  V30 20949 C 1979.72 5.10604 3.35748 0
M  V30 20950 C 1980.72 6.05607 3.15798 0
M  V30 20951 O 1980.41 7.38655 3.17243 0
M  V30 20952 H 1980.14 0.417733 0.531484 0
M  V30 20953 H 1982.7 1.71396 1.13193 0
M  V30 20954 H 1980.93 1.27913 3.64932 0
M  V30 20955 H 1982.62 1.69625 3.68758 0
M  V30 20956 H 1983.38 3.99556 2.74918 0
M  V30 20957 H 1979.26 3.01588 3.48662 0
M  V30 20958 H 1982.8 6.39598 2.78496 0
M  V30 20959 H 1978.7 5.40761 3.52488 0
M  V30 20960 H 1979.47 7.47475 3.33502 0
M  V30 20961 N 1982.13 -1.10905 1.11972 0
M  V30 20962 C 1983.08 -2.17107 0.783135 0
M  V30 20963 C 1984.05 -1.6424 -0.24791 0
M  V30 20964 O 1985.23 -1.90399 -0.123577 0
M  V30 20965 C 1982.37 -3.44274 0.238574 0
M  V30 20966 C 1981.49 -4.11119 1.32685 0
M  V30 20967 C 1980.62 -5.25989 0.742236 0
M  V30 20968 C 1979.66 -5.84728 1.80997 0
M  V30 20969 N 1978.8 -6.90983 1.24444 0
M  V30 20970 H 1983.64 -2.45243 1.69292 0
M  V30 20971 H 1981.18 -1.20386 0.845323 0
M  V30 20972 H 1983.13 -4.17091 -0.0951679 0
M  V30 20973 H 1981.76 -3.16505 -0.634384 0
M  V30 20974 H 1980.82 -3.3632 1.77745 0
M  V30 20975 H 1982.13 -4.50824 2.13445 0
M  V30 20976 H 1981.28 -6.05638 0.358877 0
M  V30 20977 H 1980.02 -4.87604 -0.096622 0
M  V30 20978 H 1979.03 -5.03753 2.20258 0
M  V30 20979 H 1980.25 -6.25178 2.65196 0
M  V30 20980 H 1978.2 -6.54607 0.427323 0
M  V30 20981 H 1978.11 -7.29374 1.98869 0
M  V30 20982 H 1979.38 -7.74424 0.888154 0
M  V30 20983 N 1983.61 -0.910886 -1.2861 0
M  V30 20984 C 1984.89 -0.461608 -1.90075 0
M  V30 20985 C 1985.27 1.05944 -1.8259 0
M  V30 20986 O 1984.62 1.90624 -1.25995 0
M  V30 20987 C 1984.83 -0.98875 -3.34701 0
M  V30 20988 C 1986.17 -1.03913 -4.11688 0
M  V30 20989 O 1987.2 -0.937194 -3.4365 0
M  V30 20990 O 1986.06 -1.19392 -5.33299 0
M  V30 20991 H 1983.15 -0.145814 -0.814044 0
M  V30 20992 H 1985.7 -1.00148 -1.36998 0
M  V30 20993 H 1984.47 -2.03273 -3.34359 0
M  V30 20994 H 1984.09 -0.429535 -3.95273 0
M  V30 20995 N 1985.09 1.42434 -0.674558 0
M  V30 20996 C 1986.32 2.05881 -0.205113 0
M  V30 20997 C 1986.73 1.50677 1.13763 0
M  V30 20998 O 1986.09 0.646479 1.70666 0
M  V30 20999 C 1986.14 3.61262 -0.131194 0
M  V30 21000 O 1985.86 4.14419 -1.42087 0
M  V30 21001 C 1987.36 4.41821 0.361775 0
M  V30 21002 H 1984.58 0.663535 -0.0998083 0
M  V30 21003 H 1987.13 1.82575 -0.921226 0
M  V30 21004 H 1985.28 3.8368 0.535604 0
M  V30 21005 H 1985.69 5.08285 -1.29407 0
M  V30 21006 H 1987.17 5.50809 0.362405 0
M  V30 21007 H 1987.65 4.1639 1.39699 0
M  V30 21008 H 1988.25 4.24421 -0.273278 0
M  V30 21009 N 1986.57 0.417871 1.51959 0
M  V30 21010 C 1987.5 -0.438814 2.2496 0
M  V30 21011 C 1988.51 -1.00283 1.28246 0
M  V30 21012 O 1989.7 -0.900288 1.54133 0
M  V30 21013 C 1986.8 -1.62371 2.97471 0
M  V30 21014 C 1985.97 -1.18204 4.21125 0
M  V30 21015 C 1985.03 -2.23484 4.76384 0
M  V30 21016 O 1984.06 -1.83715 5.38737 0
M  V30 21017 N 1985.26 -3.55751 4.58717 0
M  V30 21018 H 1988.03 0.18676 2.99118 0
M  V30 21019 H 1985.59 0.245711 1.60025 0
M  V30 21020 H 1987.58 -2.32385 3.3133 0
M  V30 21021 H 1986.15 -2.15503 2.26445 0
M  V30 21022 H 1985.37 -0.309696 3.92982 0
M  V30 21023 H 1986.66 -0.86403 5.0141 0
M  V30 21024 H 1986.05 -3.90806 4.09008 0
M  V30 21025 H 1984.61 -4.21715 4.96991 0
M  V30 21026 N 1988.04 -1.56898 0.148573 0
M  V30 21027 C 1989.29 -1.95788 -0.501154 0
M  V30 21028 C 1989.61 -1.03451 -1.65297 0
M  V30 21029 O 1988.88 -0.0963607 -1.95663 0
M  V30 21030 H 1987.46 -0.722922 -0.188129 0
M  V30 21031 H 1990.13 -1.93603 0.224439 0
M  V30 21032 H 1989.22 -2.99547 -0.876258 0
M  V30 21033 N 1989.52 0.125209 -1.57102 0
M  V30 21034 C 1990.47 1.15387 -1.99886 0
M  V30 21035 C 1991.44 1.41494 -0.869974 0
M  V30 21036 O 1992.62 1.53464 -1.13372 0
M  V30 21037 C 1989.76 2.47687 -2.40302 0
M  V30 21038 C 1988.88 2.28568 -3.6658 0
M  V30 21039 C 1988.01 3.54056 -3.96003 0
M  V30 21040 C 1987.05 3.30067 -5.15482 0
M  V30 21041 N 1986.19 4.47741 -5.40807 0
M  V30 21042 H 1991.03 0.782018 -2.87556 0
M  V30 21043 H 1988.57 0.374655 -1.42249 0
M  V30 21044 H 1990.52 3.24858 -2.61769 0
M  V30 21045 H 1989.15 2.82777 -1.55683 0
M  V30 21046 H 1988.21 1.42345 -3.52764 0
M  V30 21047 H 1989.52 2.06815 -4.53904 0
M  V30 21048 H 1988.67 4.39647 -4.18085 0
M  V30 21049 H 1987.41 3.78834 -3.07142 0
M  V30 21050 H 1986.42 2.42866 -4.93251 0
M  V30 21051 H 1987.64 3.06666 -6.05915 0
M  V30 21052 H 1985.59 4.72652 -4.54902 0
M  V30 21053 H 1985.5 4.2907 -6.22442 0
M  V30 21054 H 1986.77 5.34484 -5.67404 0
M  V30 21055 N 1991 1.52564 0.395213 0
M  V30 21056 C 1991.93 1.79867 1.48897 0
M  V30 21057 C 1992.91 0.650351 1.57176 0
M  V30 21058 O 1994.1 0.897328 1.72226 0
M  V30 21059 C 1991.23 1.96192 2.86576 0
M  V30 21060 C 1990.18 3.11854 2.9314 0
M  V30 21061 C 1989.51 3.13424 4.33208 0
M  V30 21062 C 1990.81 4.51046 2.63353 0
M  V30 21063 H 1992.5 2.71457 1.26299 0
M  V30 21064 H 1990.05 1.30621 0.606145 0
M  V30 21065 H 1992 2.13875 3.63091 0
M  V30 21066 H 1990.72 1.01286 3.10498 0
M  V30 21067 H 1989.38 2.93944 2.19072 0
M  V30 21068 H 1989.03 2.16212 4.5416 0
M  V30 21069 H 1988.73 3.91117 4.38522 0
M  V30 21070 H 1990.25 3.33254 5.11639 0
M  V30 21071 H 1991.67 4.6909 3.29587 0
M  V30 21072 H 1990.07 5.3076 2.80024 0
M  V30 21073 H 1991.14 4.58187 1.58722 0
M  V30 21074 N 1992.48 -0.653289 1.43422 0
M  V30 21075 C 1993.76 -1.41051 1.35513 0
M  V30 21076 C 1994.14 -2.111 0.00290798 0
M  V30 21077 O 1993.48 -2.04786 -1.01365 0
M  V30 21078 C 1993.69 -2.39526 2.53827 0
M  V30 21079 C 1995.04 -3.03528 2.96911 0
M  V30 21080 O 1996.07 -2.49854 2.53873 0
M  V30 21081 O 1994.92 -4.00843 3.71466 0
M  V30 21082 H 1992.02 -0.630186 0.535532 0
M  V30 21083 H 1994.56 -0.680203 1.55471 0
M  V30 21084 H 1993.34 -1.86712 3.43881 0
M  V30 21085 H 1992.96 -3.20007 2.35968 0
M  V30 21086 N 1993.96 -1.29952 -0.891648 0
M  V30 21087 C 1995.2 -1.18565 -1.6453 0
M  V30 21088 C 1995.54 0.260539 -1.92444 0
M  V30 21089 O 1994.81 1.18723 -1.54062 0
M  V30 21090 C 1995.09 -2.00774 -2.98934 0
M  V30 21091 C 1994.95 -3.53577 -2.78035 0
M  V30 21092 C 1996.27 -1.84038 -3.99772 0
M  V30 21093 H 1993.38 -0.432073 -0.597061 0
M  V30 21094 H 1996.03 -1.59512 -1.03227 0
M  V30 21095 H 1994.18 -1.65981 -3.51258 0
M  V30 21096 H 1995.85 -3.98394 -2.3255 0
M  V30 21097 H 1994.09 -3.78095 -2.12665 0
M  V30 21098 H 1994.76 -4.06381 -3.73575 0
M  V30 21099 H 1997.24 -2.14444 -3.56585 0
M  V30 21100 H 1996.11 -2.43896 -4.91737 0
M  V30 21101 H 1996.38 -0.797726 -4.34843 0
M  V30 21102 N 1995.44 1.1031 -1.12559 0
M  V30 21103 C 1996.66 1.86618 -0.9049 0
M  V30 21104 C 1997.09 1.80164 0.540597 0
M  V30 21105 O 1996.44 1.17252 1.38281 0
M  V30 21106 C 1996.49 3.32903 -1.38592 0
M  V30 21107 O 1995.6 4.08508 -0.565225 0
M  V30 21108 H 1994.94 0.579019 -0.325013 0
M  V30 21109 H 1997.47 1.39359 -1.498 0
M  V30 21110 H 1997.48 3.83753 -1.38556 0
M  V30 21111 H 1996.15 3.36917 -2.43844 0
M  V30 21112 H 1994.73 3.67494 -0.632682 0
M  V30 21113 N 1996.91 0.917694 1.28125 0
M  V30 21114 C 1997.86 0.407628 2.27172 0
M  V30 21115 C 1998.83 -0.520056 1.57749 0
M  V30 21116 O 2000.02 -0.441394 1.85624 0
M  V30 21117 C 1997.16 -0.342648 3.43395 0
M  V30 21118 C 1996.27 0.617993 4.27557 0
M  V30 21119 C 1995.4 -0.151124 5.30985 0
M  V30 21120 C 1994.44 0.802876 6.06812 0
M  V30 21121 N 1993.58 0.0670251 7.02068 0
M  V30 21122 H 1998.42 1.25728 2.70179 0
M  V30 21123 H 1995.96 0.631273 1.32866 0
M  V30 21124 H 1997.91 -0.793873 4.09577 0
M  V30 21125 H 1996.54 -1.15661 3.01367 0
M  V30 21126 H 1995.6 1.18775 3.61382 0
M  V30 21127 H 1996.91 1.3475 4.80254 0
M  V30 21128 H 1996.06 -0.662729 6.03069 0
M  V30 21129 H 1994.8 -0.913657 4.79065 0
M  V30 21130 H 1993.81 1.32582 5.33575 0
M  V30 21131 H 1995.03 1.56503 6.6082 0
M  V30 21132 H 1992.98 -0.677445 6.52493 0
M  V30 21133 H 1992.89 0.736283 7.52406 0
M  V30 21134 H 1994.16 -0.424255 7.78345 0
M  V30 21135 N 1998.39 -1.42074 0.682102 0
M  V30 21136 C 1999.35 -2.29193 0.0174256 0
M  V30 21137 C 2000.35 -1.43698 -0.721635 0
M  V30 21138 O 2001.54 -1.65003 -0.558542 0
M  V30 21139 C 1998.68 -3.26332 -0.985903 0
M  V30 21140 H 1999.87 -2.89462 0.784316 0
M  V30 21141 H 1997.42 -1.49836 0.44485 0
M  V30 21142 H 1998.16 -2.71016 -1.78103 0
M  V30 21143 H 1997.94 -3.89401 -0.459258 0
M  V30 21144 H 1999.43 -3.91649 -1.44918 0
M  V30 21145 N 1999.87 -0.425924 -1.51735 0
M  V30 21146 C 2001.12 0.144343 -2.01985 0
M  V30 21147 C 2001.44 1.43704 -1.31071 0
M  V30 21148 O 2000.7 1.91341 -0.410741 0
M  V30 21149 C 2001 0.421964 -3.549 0
M  V30 21150 C 2000.66 -0.78354 -4.4404 0
M  V30 21151 C 1999.33 -1.11416 -4.68124 0
M  V30 21152 C 2001.68 -1.58827 -4.9641 0
M  V30 21153 C 1999.01 -2.25041 -5.41824 0
M  V30 21154 C 2001.36 -2.71542 -5.71356 0
M  V30 21155 C 2000.02 -3.05071 -5.93707 0
M  V30 21156 H 1999.29 0.0528187 -0.739115 0
M  V30 21157 H 2001.94 -0.570784 -1.82796 0
M  V30 21158 H 2000.24 1.21885 -3.72359 0
M  V30 21159 H 2001.94 0.876435 -3.91305 0
M  V30 21160 H 1998.53 -0.515891 -4.25484 0
M  V30 21161 H 2002.72 -1.34606 -4.77698 0
M  V30 21162 H 1997.97 -2.51346 -5.57347 0
M  V30 21163 H 2002.15 -3.34275 -6.10928 0
M  V30 21164 H 1999.77 -3.93229 -6.50596 0
M  V30 21165 N 2001.35 1.56817 -0.156891 0
M  V30 21166 C 2002.76 1.58349 0.199431 0
M  V30 21167 C 2002.96 1.17163 1.63937 0
M  V30 21168 O 2002.02 0.87651 2.36799 0
M  V30 21169 C 2003.33 3.00622 -0.0682996 0
M  V30 21170 C 2004.88 3.13 -0.00536951 0
M  V30 21171 C 2005.36 4.57339 -0.245899 0
M  V30 21172 N 2006.85 4.62797 -0.19317 0
M  V30 21173 C 2007.58 5.72308 -0.353652 0
M  V30 21174 N 2007.08 6.90431 -0.5724 0
M  V30 21175 N 2008.87 5.61349 -0.290563 0
M  V30 21176 H 2001.02 1.8188 -1.09697 0
M  V30 21177 H 2003.28 0.842304 -0.435002 0
M  V30 21178 H 2002.99 3.3518 -1.06524 0
M  V30 21179 H 2002.86 3.71616 0.646647 0
M  V30 21180 H 2005.25 2.78277 0.98213 0
M  V30 21181 H 2005.33 2.44472 -0.752801 0
M  V30 21182 H 2004.98 4.92768 -1.23054 0
M  V30 21183 H 2004.91 5.24007 0.521974 0
M  V30 21184 H 2007.4 3.77889 -0.0291566 0
M  V30 21185 H 2007.71 7.69761 -0.684694 0
M  V30 21186 H 2006.06 6.92328 -0.608841 0
M  V30 21187 H 2009.25 4.67945 -0.120361 0
M  V30 21188 H 2009.42 6.46644 -0.419064 0
M  V30 21189 N 2002.83 -0.116876 1.57166 0
M  V30 21190 C 2004.24 -0.673792 1.74118 0
M  V30 21191 C 2004.59 -1.80206 0.775892 0
M  V30 21192 O 2003.71 -2.16341 -0.0507019 0
M  V30 21193 C 2004.31 -1.22903 3.15722 0
M  V30 21194 C 2002.87 -1.73222 3.34172 0
M  V30 21195 C 2002.01 -0.632798 2.69983 0
M  V30 21196 H 2004.96 0.109055 1.58325 0
M  V30 21197 H 2004.99 -2.09867 3.1739 0
M  V30 21198 H 2004.5 -0.407637 3.85953 0
M  V30 21199 H 2002.6 -2.57832 2.68986 0
M  V30 21200 H 2002.71 -1.8402 4.4235 0
M  V30 21201 H 2001.08 -1.06693 2.31276 0
M  V30 21202 H 2001.86 0.177653 3.4284 0
M  V30 21203 N 2004.3 -1.52772 -0.387116 0
M  V30 21204 C 2005.54 -1.69597 -1.14089 0
M  V30 21205 C 2005.91 -0.427661 -1.87177 0
M  V30 21206 O 2007.11 -0.472302 -2.64618 0
M  V30 21207 C 2005.38 -2.89802 -2.09164 0
M  V30 21208 S 2006.94 -3.27225 -2.92352 0
M  V30 21209 H 2003.76 -0.596986 -0.386172 0
M  V30 21210 H 2006.36 -1.90823 -0.425059 0
M  V30 21211 H 2005.06 -3.80332 -1.54195 0
M  V30 21212 H 2004.59 -2.70915 -2.85252 0
M  V30 21213 H 2006.61 -2.77559 -4.11309 0
M  V30 21214 N 2005.78 0.645673 -1.43767 0
M  V30 21215 C 2006.73 1.7795 -1.49788 0
M  V30 21216 C 2007.72 1.65292 -0.370806 0
M  V30 21217 O 2008.93 1.71547 -0.545129 0
M  V30 21218 H 2005.3 0.587242 -0.469735 0
M  V30 21219 H 2007.28 1.69992 -2.45245 0
M  V30 21220 C 2006.02 3.16238 -1.44529 0
M  V30 21221 H 2005.35 3.2662 -2.30564 0
M  V30 21222 H 2006.79 3.95509 -1.52803 0
M  V30 21223 C 2005.25 3.36501 -0.163941 0
M  V30 21224 O 2005.78 3.94217 0.771735 0
M  V30 21225 N 2003.98 2.90511 -0.0717151 0
M  V30 21226 H 2003.53 2.43727 -0.833957 0
M  V30 21227 H 2003.49 3.04445 0.784901 0
M  V30 21228 N 2007.26 1.30423 0.884744 0
M  V30 21229 C 2008.51 1.19435 1.63899 0
M  V30 21230 C 2008.84 -0.25033 1.9258 0
M  V30 21231 O 2008.11 -1.17904 1.5469 0
M  V30 21232 C 2008.4 2.02357 2.97865 0
M  V30 21233 C 2008.25 3.55046 2.76156 0
M  V30 21234 C 2009.57 1.86156 3.98791 0
M  V30 21235 H 2006.69 0.435234 0.594761 0
M  V30 21236 H 2009.33 1.60058 1.0238 0
M  V30 21237 H 2007.48 1.67842 3.50373 0
M  V30 21238 H 2009.15 3.99622 2.30434 0
M  V30 21239 H 2007.39 3.79218 2.10657 0
M  V30 21240 H 2008.07 4.08356 3.71415 0
M  V30 21241 H 2010.54 2.16332 3.55443 0
M  V30 21242 H 2009.42 2.46501 4.90437 0
M  V30 21243 H 2009.68 0.820775 4.34414 0
M  V30 21244 N 2008.74 -1.09711 1.13142 0
M  V30 21245 C 2009.69 -2.18355 0.801498 0
M  V30 21246 C 2010.68 -1.68031 -0.214907 0
M  V30 21247 O 2011.89 -1.79855 -0.0723523 0
M  V30 21248 H 2008.26 -0.712202 0.241398 0
M  V30 21249 H 2010.23 -2.43416 1.72601 0
M  V30 21250 C 2008.98 -3.46566 0.280613 0
M  V30 21251 H 2008.3 -3.85656 1.05403 0
M  V30 21252 H 2009.74 -4.23908 0.0881579 0
M  V30 21253 C 2008.2 -3.21932 -0.993053 0
M  V30 21254 O 2008.73 -3.44292 -2.06944 0
M  V30 21255 N 2006.94 -2.75553 -0.922971 0
M  V30 21256 H 2006.49 -2.57557 -0.0468975 0
M  V30 21257 H 2006.44 -2.59449 -1.77577 0
M  V30 21258 N 2010.22 -0.924476 -1.27637 0
M  V30 21259 C 2011.44 -0.579431 -1.98621 0
M  V30 21260 C 2011.86 0.84181 -1.68994 0
M  V30 21261 O 2011.22 1.55905 -0.948681 0
M  V30 21262 C 2011.27 -0.791898 -3.5272 0
M  V30 21263 O 2010.99 -2.15722 -3.81308 0
M  V30 21264 C 2012.49 -0.45513 -4.40957 0
M  V30 21265 H 2009.71 -0.219875 -0.633953 0
M  V30 21266 H 2012.25 -1.24062 -1.6257 0
M  V30 21267 H 2010.41 -0.17756 -3.86993 0
M  V30 21268 H 2010.82 -2.20483 -4.75907 0
M  V30 21269 H 2012.3 -0.654507 -5.48106 0
M  V30 21270 H 2012.77 0.609177 -4.34955 0
M  V30 21271 H 2013.38 -1.04747 -4.12199 0
M  V30 21272 N 2011.69 1.41711 -0.689627 0
M  V30 21273 C 2012.64 2.30791 -0.020555 0
M  V30 21274 C 2013.61 1.46782 0.777447 0
M  V30 21275 O 2014.8 1.75582 0.746688 0
M  V30 21276 C 2011.94 3.32772 0.914149 0
M  V30 21277 C 2011.05 4.31864 0.108394 0
M  V30 21278 C 2010.18 5.20916 1.0402 0
M  V30 21279 C 2009.22 6.11679 0.227 0
M  V30 21280 N 2008.36 6.93233 1.11229 0
M  V30 21281 H 2013.2 2.87448 -0.78597 0
M  V30 21282 H 2010.74 1.41576 -0.399313 0
M  V30 21283 H 2012.7 3.90442 1.47005 0
M  V30 21284 H 2011.33 2.77679 1.64603 0
M  V30 21285 H 2010.38 3.7619 -0.564348 0
M  V30 21286 H 2011.69 4.96058 -0.522312 0
M  V30 21287 H 2010.84 5.83391 1.66553 0
M  V30 21288 H 2009.58 4.56934 1.70477 0
M  V30 21289 H 2008.59 5.48258 -0.411449 0
M  V30 21290 H 2009.81 6.77714 -0.433691 0
M  V30 21291 H 2007.76 6.31866 1.76299 0
M  V30 21292 H 2007.68 7.5409 0.537017 0
M  V30 21293 H 2008.94 7.60182 1.72463 0
M  V30 21294 N 2013.17 0.433965 1.51507 0
M  V30 21295 C 2014.42 -0.135114 2.01247 0
M  V30 21296 C 2014.73 -1.4408 1.32289 0
M  V30 21297 O 2015.94 -2.09262 1.72979 0
M  V30 21298 C 2014.4 -0.291335 3.58719 0
M  V30 21299 C 2014 1.00372 4.36611 0
M  V30 21300 C 2015.75 -0.814365 4.16615 0
M  V30 21301 C 2013.66 0.813324 5.85781 0
M  V30 21302 H 2012.59 -0.0542694 0.752044 0
M  V30 21303 H 2015.24 0.563211 1.74643 0
M  V30 21304 H 2013.62 -1.05258 3.81755 0
M  V30 21305 H 2014.79 1.77304 4.25323 0
M  V30 21306 H 2013.11 1.45503 3.90151 0
M  V30 21307 H 2015.7 -0.973246 5.25768 0
M  V30 21308 H 2016.05 -1.79589 3.75571 0
M  V30 21309 H 2016.58 -0.111519 3.97644 0
M  V30 21310 H 2013.32 1.76713 6.31231 0
M  V30 21311 H 2012.84 0.083744 5.99742 0
M  V30 21312 H 2014.52 0.465195 6.45325 0
M  V30 21313 N 2014.65 -1.56732 0.165206 0
M  V30 21314 C 2015.9 -1.96308 -0.48036 0
M  V30 21315 C 2016.22 -1.05198 -1.6419 0
M  V30 21316 O 2015.49 -0.117108 -1.9555 0
M  V30 21317 H 2014.07 -0.724877 -0.180451 0
M  V30 21318 H 2016.73 -1.93354 0.244961 0
M  V30 21319 H 2015.83 -3.00459 -0.844437 0
M  V30 21320 N 2016.13 0.10854 -1.57226 0
M  V30 21321 C 2017.08 1.15155 -2.02094 0
M  V30 21322 C 2018.07 1.42263 -0.919651 0
M  V30 21323 O 2019.28 1.42102 -1.10485 0
M  V30 21324 H 2015.65 0.388515 -0.643863 0
M  V30 21325 H 2017.62 0.746707 -2.88906 0
M  V30 21326 C 2016.37 2.46727 -2.44992 0
M  V30 21327 H 2015.69 2.26708 -3.29307 0
M  V30 21328 H 2017.13 3.18242 -2.80175 0
M  V30 21329 C 2015.59 3.10059 -1.31776 0
M  V30 21330 O 2016.12 3.96577 -0.639471 0
M  V30 21331 N 2014.33 2.70099 -1.07215 0
M  V30 21332 H 2013.88 1.99837 -1.62552 0
M  V30 21333 H 2013.83 3.12802 -0.316602 0
M  V30 21334 N 2017.61 1.52975 0.379009 0
M  V30 21335 C 2018.57 1.77806 1.4463 0
M  V30 21336 C 2019.57 0.648223 1.47155 0
M  V30 21337 O 2020.76 0.916347 1.48151 0
M  V30 21338 C 2017.89 1.88792 2.83849 0
M  V30 21339 H 2019.08 2.73113 1.23892 0
M  V30 21340 H 2016.64 1.43848 0.61135 0
M  V30 21341 H 2017.37 0.955049 3.09918 0
M  V30 21342 H 2017.16 2.70957 2.83416 0
M  V30 21343 H 2018.65 2.09642 3.61165 0
M  V30 21344 N 2019.08 -0.63804 1.44107 0
M  V30 21345 C 2020.03 -1.75032 1.5044 0
M  V30 21346 C 2021 -1.62312 0.352721 0
M  V30 21347 O 2022.19 -1.82335 0.562 0
M  V30 21348 C 2019.33 -3.13253 1.44798 0
M  V30 21349 C 2018.44 -3.37 2.70287 0
M  V30 21350 C 2017.57 -4.65154 2.56526 0
M  V30 21351 C 2016.61 -4.82055 3.77212 0
M  V30 21352 N 2015.75 -6.0148 3.62169 0
M  V30 21353 H 2020.59 -1.68954 2.45476 0
M  V30 21354 H 2018.13 -0.82428 1.21836 0
M  V30 21355 H 2020.09 -3.9318 1.39518 0
M  V30 21356 H 2018.72 -3.18364 0.53334 0
M  V30 21357 H 2017.77 -2.51062 2.85783 0
M  V30 21358 H 2019.08 -3.4537 3.5989 0
M  V30 21359 H 2018.23 -5.5323 2.4904 0
M  V30 21360 H 2016.97 -4.5913 1.64472 0
M  V30 21361 H 2015.98 -3.9241 3.8509 0
M  V30 21362 H 2017.2 -4.89898 4.70294 0
M  V30 21363 H 2015.15 -5.96559 2.72861 0
M  V30 21364 H 2015.07 -6.10876 4.45384 0
M  V30 21365 H 2016.33 -6.92137 3.58562 0
M  V30 21366 N 2020.56 -1.3089 -0.877815 0
M  V30 21367 C 2021.8 -1.21417 -1.6443 0
M  V30 21368 C 2022.17 0.225958 -1.90666 0
M  V30 21369 O 2023.37 0.444054 -2.65107 0
M  V30 21370 C 2021.64 -2.02699 -2.9436 0
M  V30 21371 S 2023.2 -2.10002 -3.85285 0
M  V30 21372 H 2020.02 -0.432571 -0.564272 0
M  V30 21373 H 2022.62 -1.65456 -1.04138 0
M  V30 21374 H 2021.32 -3.06433 -2.72996 0
M  V30 21375 H 2020.85 -1.59349 -3.59682 0
M  V30 21376 H 2022.87 -1.23262 -4.80646 0
M  V30 21377 N 2022.04 1.0911 -1.13723 0
M  V30 21378 C 2023.28 1.82962 -0.911268 0
M  V30 21379 C 2023.64 1.83878 0.552529 0
M  V30 21380 O 2024.85 2.53421 0.896168 0
M  V30 21381 C 2023.12 3.24999 -1.48696 0
M  V30 21382 S 2024.68 4.15816 -1.40153 0
M  V30 21383 H 2021.49 0.630622 -0.328386 0
M  V30 21384 H 2024.1 1.31201 -1.44936 0
M  V30 21385 H 2022.8 3.2191 -2.54562 0
M  V30 21386 H 2022.33 3.81833 -0.946951 0
M  V30 21387 H 2024.35 4.94726 -0.382175 0
M  V30 21388 N 2023.52 0.931232 1.27145 0
M  V30 21389 C 2024.93 0.617607 1.76189 0
M  V30 21390 C 2025.28 -0.867239 1.75993 0
M  V30 21391 O 2024.41 -1.67865 1.36567 0
M  V30 21392 C 2025 1.11436 3.19949 0
M  V30 21393 C 2023.56 0.851337 3.66646 0
M  V30 21394 C 2022.71 1.27104 2.46454 0
M  V30 21395 H 2025.66 1.11062 1.13362 0
M  V30 21396 H 2025.68 0.463637 3.77665 0
M  V30 21397 H 2025.19 2.19507 3.2006 0
M  V30 21398 H 2023.29 -0.215418 3.71977 0
M  V30 21399 H 2023.4 1.47136 4.55947 0
M  V30 21400 H 2021.77 0.689554 2.45188 0
M  V30 21401 H 2022.55 2.36047 2.49273 0
M  V30 21402 N 2025 -1.41343 0.697132 0
M  V30 21403 C 2026.24 -2.01204 0.22876 0
M  V30 21404 C 2026.57 -1.55215 -1.17211 0
M  V30 21405 O 2025.83 -0.754886 -1.80555 0
M  V30 21406 C 2026.13 -3.56617 0.236459 0
M  V30 21407 C 2025.79 -4.22121 1.58507 0
M  V30 21408 C 2024.45 -4.39729 1.95427 0
M  V30 21409 C 2026.81 -4.58835 2.47224 0
M  V30 21410 C 2024.13 -4.91328 3.20646 0
M  V30 21411 C 2026.49 -5.11825 3.71777 0
M  V30 21412 C 2025.15 -5.27643 4.08838 0
M  V30 21413 H 2024.42 -0.736257 0.0837091 0
M  V30 21414 H 2027.07 -1.69218 0.89653 0
M  V30 21415 H 2025.37 -3.88402 -0.514862 0
M  V30 21416 H 2027.07 -4.00743 -0.14349 0
M  V30 21417 H 2023.66 -4.08792 1.28791 0
M  V30 21418 H 2027.84 -4.44885 2.1998 0
M  V30 21419 H 2023.1 -5.01759 3.49353 0
M  V30 21420 H 2027.27 -5.39213 4.40706 0
M  V30 21421 H 2024.9 -5.67388 5.05939 0
M  V30 21422 N 2026.48 -0.441993 -1.51275 0
M  V30 21423 C 2027.72 0.123093 -2.02426 0
M  V30 21424 C 2028.05 1.41953 -1.32525 0
M  V30 21425 O 2027.33 1.8942 -0.44164 0
M  V30 21426 C 2027.61 0.337043 -3.58519 0
M  V30 21427 C 2027.47 -0.978373 -4.39031 0
M  V30 21428 C 2028.78 1.10474 -4.26009 0
M  V30 21429 H 2025.9 0.0432623 -0.735729 0
M  V30 21430 H 2028.55 -0.581901 -1.8087 0
M  V30 21431 H 2026.7 0.93756 -3.77017 0
M  V30 21432 H 2028.37 -1.61323 -4.32172 0
M  V30 21433 H 2026.61 -1.58189 -4.03929 0
M  V30 21434 H 2027.28 -0.78266 -5.46423 0
M  V30 21435 H 2029.76 0.596021 -4.11809 0
M  V30 21436 H 2028.63 1.22321 -5.35097 0
M  V30 21437 H 2028.89 2.13401 -3.87185 0
M  V30 21438 N 2027.95 1.56642 -0.173515 0
M  V30 21439 C 2029.19 1.98845 0.473303 0
M  V30 21440 C 2029.56 1.05721 1.60272 0
M  V30 21441 O 2030.76 1.37073 2.31224 0
M  V30 21442 C 2029.03 3.44767 0.94185 0
M  V30 21443 S 2030.59 4.08998 1.58954 0
M  V30 21444 H 2027.41 0.694527 0.152161 0
M  V30 21445 H 2030.01 1.93606 -0.271494 0
M  V30 21446 H 2028.71 4.10254 0.109473 0
M  V30 21447 H 2028.24 3.53776 1.72063 0
M  V30 21448 H 2030.26 4.04227 2.87775 0
M  V30 21449 N 2029.43 -0.1002 1.57281 0
M  V30 21450 C 2030.68 -0.803034 1.85461 0
M  V30 21451 C 2031 -1.79518 0.761475 0
M  V30 21452 O 2030.27 -1.94741 -0.212768 0
M  V30 21453 H 2028.85 -0.299556 0.684306 0
M  V30 21454 H 2031.51 -0.0830444 1.94723 0
M  V30 21455 H 2030.61 -1.33676 2.82024 0
M  V30 21456 N 2030.91 -1.53174 -0.370891 0
M  V30 21457 C 2031.86 -1.79236 -1.45406 0
M  V30 21458 C 2032.83 -0.636453 -1.53423 0
M  V30 21459 O 2034.01 -0.878079 -1.69394 0
M  V30 21460 C 2031.15 -1.98327 -2.82419 0
M  V30 21461 C 2030.26 -3.2604 -2.83411 0
M  V30 21462 C 2029.4 -3.35348 -4.11965 0
M  V30 21463 C 2028.44 -4.57114 -4.07079 0
M  V30 21464 N 2027.58 -4.63603 -5.27272 0
M  V30 21465 H 2032.42 -2.71666 -1.22482 0
M  V30 21466 H 2029.95 -1.3458 -0.593853 0
M  V30 21467 H 2031.91 -2.07382 -3.62006 0
M  V30 21468 H 2030.54 -1.0924 -3.03754 0
M  V30 21469 H 2029.59 -3.25966 -1.96088 0
M  V30 21470 H 2030.9 -4.157 -2.75672 0
M  V30 21471 H 2030.06 -3.43685 -4.99966 0
M  V30 21472 H 2028.8 -2.43695 -4.2245 0
M  V30 21473 H 2027.8 -4.48883 -3.17466 0
M  V30 21474 H 2029.03 -5.50102 -3.98201 0
M  V30 21475 H 2026.97 -3.74849 -5.38353 0
M  V30 21476 H 2026.89 -5.4716 -5.21682 0
M  V30 21477 H 2028.16 -4.76218 -6.1712 0
M  V30 21478 N 2032.39 0.630389 -1.44443 0
M  V30 21479 C 2033.35 1.72422 -1.51008 0
M  V30 21480 C 2034.35 1.55948 -0.392038 0
M  V30 21481 O 2035.54 1.61429 -0.654688 0
M  V30 21482 C 2032.67 3.1151 -1.38472 0
M  V30 21483 H 2033.87 1.67975 -2.48444 0
M  V30 21484 H 2031.42 0.844115 -1.31546 0
M  V30 21485 H 2032.15 3.21551 -0.421327 0
M  V30 21486 H 2031.94 3.24874 -2.19544 0
M  V30 21487 H 2033.43 3.91228 -1.46049 0
M  V30 21488 N 2033.87 1.31354 0.870861 0
M  V30 21489 C 2035.11 1.21167 1.62623 0
M  V30 21490 C 2035.44 -0.22989 1.92835 0
M  V30 21491 O 2034.72 -1.16257 1.55931 0
M  V30 21492 C 2035 2.05505 2.95702 0
M  V30 21493 C 2034.86 3.57955 2.72375 0
M  V30 21494 C 2036.17 1.90375 3.96794 0
M  V30 21495 H 2033.29 0.441517 0.590111 0
M  V30 21496 H 2035.94 1.61134 1.00676 0
M  V30 21497 H 2034.09 1.71549 3.48573 0
M  V30 21498 H 2035.76 4.02044 2.26183 0
M  V30 21499 H 2034 3.81431 2.06623 0
M  V30 21500 H 2034.67 4.12273 3.67063 0
M  V30 21501 H 2037.15 2.20089 3.53129 0
M  V30 21502 H 2036.02 2.51689 4.87795 0
M  V30 21503 H 2036.28 0.866804 4.33519 0
M  V30 21504 N 2035.34 -1.08505 1.143 0
M  V30 21505 C 2036.31 -2.13573 0.831813 0
M  V30 21506 C 2037.31 -1.59971 -0.163092 0
M  V30 21507 O 2038.5 -1.74078 0.0651356 0
M  V30 21508 N 2036.82 -0.937962 -1.26649 0
M  V30 21509 C 2038.07 -0.583818 -1.93902 0
M  V30 21510 C 2038.4 0.876602 -1.73626 0
M  V30 21511 O 2037.65 1.64203 -1.0647 0
M  V30 21512 C 2037.95 -0.868478 -3.46687 0
M  V30 21513 C 2037.62 -2.31227 -3.87098 0
M  V30 21514 C 2036.28 -2.70695 -3.97841 0
M  V30 21515 C 2038.63 -3.25068 -4.07407 0
M  V30 21516 C 2035.96 -4.03107 -4.26288 0
M  V30 21517 C 2038.31 -4.57073 -4.37341 0
M  V30 21518 C 2036.97 -4.96361 -4.46298 0
M  V30 21519 H 2036.24 -0.213634 -0.709536 0
M  V30 21520 H 2038.89 -1.18386 -1.50522 0
M  V30 21521 H 2037.2 -0.185864 -3.91359 0
M  V30 21522 H 2038.89 -0.573289 -3.96881 0
M  V30 21523 H 2035.48 -1.99611 -3.7928 0
M  V30 21524 H 2039.67 -2.95773 -3.98537 0
M  V30 21525 H 2034.92 -4.33214 -4.31434 0
M  V30 21526 H 2039.1 -5.29781 -4.52001 0
M  V30 21527 H 2036.72 -5.98992 -4.68095 0
M  V30 21528 N 2038.3 1.40971 -0.704618 0
M  V30 21529 C 2039.25 2.30756 -0.0450323 0
M  V30 21530 C 2040.22 1.47598 0.761835 0
M  V30 21531 O 2041.4 1.76365 0.728023 0
M  V30 21532 C 2038.54 3.33723 0.878802 0
M  V30 21533 C 2037.65 4.31955 0.0625832 0
M  V30 21534 C 2036.79 5.2199 0.984889 0
M  V30 21535 C 2035.83 6.11885 0.16211 0
M  V30 21536 N 2034.97 6.94374 1.0387 0
M  V30 21537 H 2039.81 2.86598 -0.816414 0
M  V30 21538 H 2037.34 1.41145 -0.414306 0
M  V30 21539 H 2039.3 3.9198 1.42856 0
M  V30 21540 H 2037.93 2.79409 1.61648 0
M  V30 21541 H 2036.98 3.75571 -0.604216 0
M  V30 21542 H 2038.29 4.95476 -0.574897 0
M  V30 21543 H 2037.45 5.85125 1.60356 0
M  V30 21544 H 2036.19 4.58717 1.65621 0
M  V30 21545 H 2035.19 5.47791 -0.469576 0
M  V30 21546 H 2036.42 6.77216 -0.505547 0
M  V30 21547 H 2034.36 6.337 1.69588 0
M  V30 21548 H 2034.28 7.54617 0.457006 0
M  V30 21549 H 2035.55 7.61969 1.6439 0
M  V30 21550 N 2039.78 0.45001 1.51039 0
M  V30 21551 C 2041.06 -0.172746 1.94836 0
M  V30 21552 C 2041.44 -1.58934 1.38936 0
M  V30 21553 O 2040.78 -2.20974 0.581609 0
M  V30 21554 C 2040.99 -0.137579 3.48729 0
M  V30 21555 C 2042.34 -0.33691 4.23261 0
M  V30 21556 O 2043.37 -0.215124 3.5555 0
M  V30 21557 O 2042.22 -0.580548 5.43408 0
M  V30 21558 H 2039.32 -0.12312 0.817784 0
M  V30 21559 H 2041.86 0.5089 1.6189 0
M  V30 21560 H 2040.64 0.852286 3.81905 0
M  V30 21561 H 2040.26 -0.861592 3.88152 0
M  V30 21562 N 2041.26 -1.56548 0.18182 0
M  V30 21563 C 2042.67 -1.58646 -0.174214 0
M  V30 21564 C 2042.87 -1.19756 -1.62052 0
M  V30 21565 O 2041.93 -0.914071 -2.35374 0
M  V30 21566 C 2043.24 -3.00476 0.116117 0
M  V30 21567 C 2044.79 -3.12951 0.0551643 0
M  V30 21568 C 2045.26 -4.5689 0.318626 0
M  V30 21569 N 2046.76 -4.62431 0.266773 0
M  V30 21570 C 2047.49 -5.71673 0.444657 0
M  V30 21571 N 2046.99 -6.89433 0.682169 0
M  V30 21572 N 2048.78 -5.60815 0.379832 0
M  V30 21573 H 2040.93 -1.80112 1.12576 0
M  V30 21574 H 2043.19 -0.835277 0.448348 0
M  V30 21575 H 2042.9 -3.33443 1.11843 0
M  V30 21576 H 2042.77 -3.72598 -0.587444 0
M  V30 21577 H 2045.16 -2.79805 -0.937734 0
M  V30 21578 H 2045.24 -2.43243 0.791599 0
M  V30 21579 H 2044.89 -4.90748 1.30878 0
M  V30 21580 H 2044.82 -5.24771 -0.438543 0
M  V30 21581 H 2047.31 -3.77795 0.0892717 0
M  V30 21582 H 2047.62 -7.68574 0.80707 0
M  V30 21583 H 2045.96 -6.91272 0.718908 0
M  V30 21584 H 2049.16 -4.67695 0.194792 0
M  V30 21585 H 2049.33 -6.45895 0.521886 0
M  V30 21586 N 2042.73 0.0918577 -1.57332 0
M  V30 21587 C 2043.96 0.81208 -1.9084 0
M  V30 21588 C 2044.38 1.71329 -0.776394 0
M  V30 21589 O 2043.74 1.7925 0.271867 0
M  V30 21590 C 2043.79 1.59867 -3.23226 0
M  V30 21591 O 2042.89 2.70787 -3.11044 0
M  V30 21592 H 2042.24 0.222886 -0.625474 0
M  V30 21593 H 2044.77 0.0661119 -2.04493 0
M  V30 21594 H 2044.78 1.98221 -3.56613 0
M  V30 21595 H 2043.45 0.937296 -4.05201 0
M  V30 21596 H 2042.03 2.35438 -2.89177 0
M  V30 21597 N 2044.21 1.53368 0.362763 0
M  V30 21598 C 2045.44 1.73599 1.12565 0
M  V30 21599 C 2045.86 0.466247 1.82952 0
M  V30 21600 O 2045.21 -0.561016 1.73663 0
M  V30 21601 C 2045.26 2.90332 2.15382 0
M  V30 21602 O 2044.98 4.12394 1.4786 0
M  V30 21603 C 2046.49 3.22459 3.04196 0
M  V30 21604 H 2043.71 0.580544 0.336466 0
M  V30 21605 H 2046.25 2.00123 0.420823 0
M  V30 21606 H 2044.4 2.66195 2.81459 0
M  V30 21607 H 2044.82 4.77783 2.16387 0
M  V30 21608 H 2046.29 4.07537 3.72314 0
M  V30 21609 H 2046.77 2.37943 3.69161 0
M  V30 21610 H 2047.38 3.48532 2.43732 0
M  V30 21611 N 2045.69 -0.62272 1.44776 0
M  V30 21612 C 2046.93 -1.39358 1.49529 0
M  V30 21613 C 2047.29 -1.91574 0.12776 0
M  V30 21614 O 2048.5 -2.68754 0.0499687 0
M  V30 21615 C 2046.77 -2.52165 2.53273 0
M  V30 21616 S 2048.33 -3.40206 2.77138 0
M  V30 21617 H 2045.14 -0.475312 0.528772 0
M  V30 21618 H 2047.75 -0.720074 1.81756 0
M  V30 21619 H 2046.45 -2.12129 3.51325 0
M  V30 21620 H 2045.98 -3.24333 2.22647 0
M  V30 21621 H 2048 -4.49865 2.0937 0
M  V30 21622 N 2047.17 -1.31814 -0.863883 0
M  V30 21623 C 2048.39 -1.24961 -1.65528 0
M  V30 21624 C 2048.82 0.18096 -1.87228 0
M  V30 21625 O 2048.18 1.12919 -1.41842 0
M  V30 21626 C 2048.22 -2.00518 -2.99708 0
M  V30 21627 O 2047.33 -1.34668 -3.89793 0
M  V30 21628 H 2046.67 -0.431127 -0.505001 0
M  V30 21629 H 2049.2 -1.73981 -1.07665 0
M  V30 21630 H 2049.21 -2.10344 -3.49599 0
M  V30 21631 H 2047.88 -3.0455 -2.83235 0
M  V30 21632 H 2046.46 -1.33332 -3.48249 0
M  V30 21633 N 2048.65 1.07897 -1.14873 0
M  V30 21634 C 2049.87 1.84117 -0.943847 0
M  V30 21635 C 2050.29 1.81844 0.507767 0
M  V30 21636 O 2049.65 1.22585 1.352 0
M  V30 21637 C 2049.7 3.31438 -1.4433 0
M  V30 21638 O 2049.42 3.33746 -2.83805 0
M  V30 21639 C 2050.92 4.24445 -1.2791 0
M  V30 21640 H 2048.14 0.581068 -0.335561 0
M  V30 21641 H 2050.68 1.36237 -1.52512 0
M  V30 21642 H 2048.84 3.76689 -0.904683 0
M  V30 21643 H 2049.25 4.25748 -3.06332 0
M  V30 21644 H 2050.73 5.25906 -1.67711 0
M  V30 21645 H 2051.2 4.38636 -0.222593 0
M  V30 21646 H 2051.81 3.85025 -1.80653 0
M  V30 21647 N 2050.12 0.944665 1.2615 0
M  V30 21648 C 2051.35 0.61007 1.97387 0
M  V30 21649 C 2051.76 -0.819956 1.70509 0
M  V30 21650 O 2051.11 -1.55879 0.971982 0
M  V30 21651 C 2051.17 0.776673 3.5101 0
M  V30 21652 C 2050.83 2.18198 4.01545 0
M  V30 21653 C 2051.83 3.15777 4.13014 0
M  V30 21654 C 2049.51 2.5035 4.35466 0
M  V30 21655 C 2051.51 4.43607 4.57703 0
M  V30 21656 C 2049.19 3.7841 4.79842 0
M  V30 21657 C 2050.19 4.74852 4.90922 0
M  V30 21658 O 2049.88 6.00632 5.34319 0
M  V30 21659 H 2049.61 0.228468 0.636222 0
M  V30 21660 H 2052.17 1.26867 1.61536 0
M  V30 21661 H 2050.4 0.0609398 3.86652 0
M  V30 21662 H 2052.09 0.44462 4.03457 0
M  V30 21663 H 2052.85 2.92263 3.8705 0
M  V30 21664 H 2048.73 1.76017 4.26074 0
M  V30 21665 H 2052.27 5.18885 4.66266 0
M  V30 21666 H 2048.17 4.01736 5.05251 0
M  V30 21667 H 2048.94 6.03864 5.52531 0
M  V30 21668 N 2051.6 -1.40596 0.712085 0
M  V30 21669 C 2052.83 -2.05265 0.259627 0
M  V30 21670 C 2053.25 -1.5364 -1.09728 0
M  V30 21671 O 2052.6 -0.691501 -1.68892 0
M  V30 21672 C 2052.65 -3.60787 0.22693 0
M  V30 21673 O 2052.37 -4.10506 1.53025 0
M  V30 21674 C 2053.88 -4.42625 -0.244507 0
M  V30 21675 H 2051.1 -0.660656 0.117366 0
M  V30 21676 H 2053.64 -1.80069 0.969308 0
M  V30 21677 H 2051.79 -3.84965 -0.43369 0
M  V30 21678 H 2052.21 -5.04676 1.42838 0
M  V30 21679 H 2053.68 -5.51576 -0.216241 0
M  V30 21680 H 2054.16 -4.19948 -1.2861 0
M  V30 21681 H 2054.77 -4.23547 0.385709 0
M  V30 21682 N 2053.08 -0.458013 -1.50798 0
M  V30 21683 C 2054.01 0.333063 -2.31112 0
M  V30 21684 C 2054.99 1.00231 -1.37433 0
M  V30 21685 O 2056.18 1.00199 -1.66354 0
M  V30 21686 C 2053.31 1.4229 -3.16814 0
M  V30 21687 C 2052.26 0.875993 -4.1894 0
M  V30 21688 C 2051.59 2.06313 -4.93294 0
M  V30 21689 C 2052.89 -0.103786 -5.22197 0
M  V30 21690 H 2054.58 -0.337222 -2.97495 0
M  V30 21691 H 2052.13 -0.163622 -1.43067 0
M  V30 21692 H 2054.08 1.98369 -3.7179 0
M  V30 21693 H 2052.8 2.12177 -2.48291 0
M  V30 21694 H 2051.46 0.337263 -3.65045 0
M  V30 21695 H 2051.11 2.74868 -4.21256 0
M  V30 21696 H 2050.81 1.70348 -5.62366 0
M  V30 21697 H 2052.33 2.62908 -5.511 0
M  V30 21698 H 2053.75 0.367392 -5.72122 0
M  V30 21699 H 2052.15 -0.377048 -5.98914 0
M  V30 21700 H 2053.22 -1.03392 -4.73749 0
M  V30 21701 N 2054.56 1.56449 -0.190119 0
M  V30 21702 C 2055.52 2.17632 0.718966 0
M  V30 21703 C 2056.52 1.12941 1.14459 0
M  V30 21704 O 2057.71 1.38353 1.05849 0
M  V30 21705 C 2054.84 2.77437 1.98095 0
M  V30 21706 H 2056.04 2.99322 0.186033 0
M  V30 21707 H 2053.59 1.56187 0.0594913 0
M  V30 21708 H 2054.33 1.99531 2.55652 0
M  V30 21709 H 2054.11 3.5407 1.68454 0
M  V30 21710 H 2055.6 3.24433 2.62932 0
M  V30 21711 N 2056.04 -0.0835127 1.57379 0
M  V30 21712 C 2056.97 -1.12692 1.99582 0
M  V30 21713 C 2057.98 -1.35658 0.900041 0
M  V30 21714 O 2059.17 -1.34105 1.17805 0
M  V30 21715 C 2056.27 -2.4802 2.30953 0
M  V30 21716 C 2055.44 -2.45172 3.62228 0
M  V30 21717 C 2054.5 -3.62516 3.81403 0
M  V30 21718 O 2053.53 -3.44479 4.53126 0
M  V30 21719 N 2054.73 -4.82432 3.22862 0
M  V30 21720 H 2057.5 -0.767618 2.89703 0
M  V30 21721 H 2055.06 -0.272335 1.59593 0
M  V30 21722 H 2057.05 -3.25144 2.40964 0
M  V30 21723 H 2055.62 -2.75996 1.46781 0
M  V30 21724 H 2054.84 -1.53514 3.6308 0
M  V30 21725 H 2056.13 -2.40359 4.48448 0
M  V30 21726 H 2055.53 -4.9999 2.64625 0
M  V30 21727 H 2054.08 -5.57108 3.3834 0
M  V30 21728 N 2057.52 -1.53558 -0.354624 0
M  V30 21729 C 2058.76 -1.70523 -1.09772 0
M  V30 21730 C 2059.09 -0.461312 -1.88641 0
M  V30 21731 O 2058.37 0.541553 -1.86809 0
M  V30 21732 C 2058.65 -2.96191 -2.04799 0
M  V30 21733 C 2058.51 -4.30765 -1.29465 0
M  V30 21734 C 2059.82 -3.17493 -3.04772 0
M  V30 21735 H 2056.94 -0.620497 -0.397683 0
M  V30 21736 H 2059.59 -1.86214 -0.377395 0
M  V30 21737 H 2057.74 -2.82944 -2.66223 0
M  V30 21738 H 2059.41 -4.55844 -0.707409 0
M  V30 21739 H 2057.65 -4.29678 -0.596569 0
M  V30 21740 H 2058.32 -5.14852 -1.99076 0
M  V30 21741 H 2060.8 -3.29998 -2.53458 0
M  V30 21742 H 2059.67 -4.06838 -3.68476 0
M  V30 21743 H 2059.93 -2.33276 -3.75546 0
M  V30 21744 N 2058.99 0.615033 -1.45104 0
M  V30 21745 C 2060.22 1.39902 -1.52023 0
M  V30 21746 C 2060.63 1.88611 -0.149112 0
M  V30 21747 O 2059.97 1.6242 0.858222 0
M  V30 21748 C 2060.04 2.6429 -2.43703 0
M  V30 21749 C 2059.7 2.3727 -3.90579 0
M  V30 21750 C 2060.7 1.98094 -4.80682 0
M  V30 21751 C 2058.38 2.50412 -4.3543 0
M  V30 21752 C 2060.38 1.72411 -6.13639 0
M  V30 21753 C 2058.06 2.24342 -5.68431 0
M  V30 21754 C 2059.06 1.85402 -6.57354 0
M  V30 21755 O 2058.75 1.59633 -7.87891 0
M  V30 21756 H 2058.48 0.434923 -0.517511 0
M  V30 21757 H 2061.04 0.757868 -1.90907 0
M  V30 21758 H 2059.27 3.31099 -1.99775 0
M  V30 21759 H 2060.95 3.26322 -2.41389 0
M  V30 21760 H 2061.72 1.87483 -4.47297 0
M  V30 21761 H 2057.6 2.79689 -3.66463 0
M  V30 21762 H 2061.14 1.41942 -6.83007 0
M  V30 21763 H 2057.04 2.34567 -6.01372 0
M  V30 21764 H 2057.81 1.73747 -7.99846 0
M  V30 21765 N 2060.47 1.3227 0.85688 0
M  V30 21766 C 2061.42 1.20972 1.98667 0
M  V30 21767 C 2062.41 0.115019 1.69009 0
M  V30 21768 O 2063.62 0.277796 1.77843 0
M  V30 21769 H 2059.99 0.374926 0.65187 0
M  V30 21770 H 2061.97 2.16528 2.05324 0
M  V30 21771 C 2060.71 0.947348 3.34545 0
M  V30 21772 H 2060.04 1.78189 3.57895 0
M  V30 21773 H 2061.48 0.908529 4.14152 0
M  V30 21774 C 2059.94 -0.349912 3.35078 0
M  V30 21775 O 2060.47 -1.3625 3.77887 0
M  V30 21776 N 2058.67 -0.371097 2.88221 0
M  V30 21777 H 2058.22 0.453449 2.53578 0
M  V30 21778 H 2058.18 -1.23894 2.8896 0
M  V30 21779 N 2061.95 -1.07287 1.15444 0
M  V30 21780 C 2062.9 -2.12735 0.820244 0
M  V30 21781 C 2063.88 -1.59704 -0.195801 0
M  V30 21782 O 2065.08 -1.77 0.00355156 0
M  V30 21783 C 2062.2 -3.41879 0.311994 0
M  V30 21784 C 2061.29 -4.01762 1.35823 0
M  V30 21785 N 2061.68 -4.35894 2.56574 0
M  V30 21786 C 2059.98 -4.29241 1.21113 0
M  V30 21787 C 2060.68 -4.83356 3.23638 0
M  V30 21788 N 2059.66 -4.82169 2.51026 0
M  V30 21789 H 2063.46 -2.36958 1.73863 0
M  V30 21790 H 2060.97 -1.24731 1.03999 0
M  V30 21791 H 2062.97 -4.16865 0.0542227 0
M  V30 21792 H 2061.63 -3.191 -0.600445 0
M  V30 21793 H 2062.64 -4.2656 2.93712 0
M  V30 21794 H 2059.32 -4.15957 0.358635 0
M  V30 21795 H 2060.71 -5.19052 4.26655 0
M  V30 21796 N 2063.43 -0.951342 -1.25647 0
M  V30 21797 C 2064.68 -0.600038 -1.92568 0
M  V30 21798 C 2064.99 0.866499 -1.7536 0
M  V30 21799 O 2066.2 1.32762 -2.36826 0
M  V30 21800 C 2064.65 -1.02246 -3.45071 0
M  V30 21801 C 2064.26 -2.51131 -3.70995 0
M  V30 21802 C 2066 -0.743532 -4.17938 0
M  V30 21803 C 2063.91 -2.87191 -5.16987 0
M  V30 21804 H 2062.84 -0.220706 -0.720975 0
M  V30 21805 H 2065.49 -1.15535 -1.42562 0
M  V30 21806 H 2063.87 -0.395588 -3.94019 0
M  V30 21807 H 2065.05 -3.18809 -3.32712 0
M  V30 21808 H 2063.36 -2.76461 -3.11381 0
M  V30 21809 H 2065.96 -0.989148 -5.25471 0
M  V30 21810 H 2066.3 0.319973 -4.15069 0
M  V30 21811 H 2066.84 -1.3306 -3.74887 0
M  V30 21812 H 2063.57 -3.92545 -5.24965 0
M  V30 21813 H 2063.09 -2.24183 -5.56329 0
M  V30 21814 H 2064.77 -2.76205 -5.85081 0
M  V30 21815 N 2064.91 1.40216 -0.719531 0
M  V30 21816 C 2065.84 2.33348 -0.08432 0
M  V30 21817 C 2066.82 1.53101 0.741225 0
M  V30 21818 O 2068 1.81553 0.68935 0
M  V30 21819 C 2065.13 3.37106 0.835256 0
M  V30 21820 C 2064.09 4.27845 0.115036 0
M  V30 21821 C 2063.41 5.22174 1.15059 0
M  V30 21822 C 2064.71 5.1198 -1.03314 0
M  V30 21823 H 2066.41 2.86716 -0.862219 0
M  V30 21824 H 2063.95 1.37858 -0.416073 0
M  V30 21825 H 2065.9 4.012 1.28905 0
M  V30 21826 H 2064.63 2.82142 1.6451 0
M  V30 21827 H 2063.29 3.6521 -0.318975 0
M  V30 21828 H 2062.94 4.63513 1.95359 0
M  V30 21829 H 2062.64 5.83727 0.673556 0
M  V30 21830 H 2064.16 5.89144 1.60441 0
M  V30 21831 H 2065.57 5.69505 -0.658522 0
M  V30 21832 H 2063.97 5.82596 -1.4388 0
M  V30 21833 H 2065.04 4.47725 -1.86199 0
M  V30 21834 N 2066.38 0.466004 1.50553 0
M  V30 21835 C 2067.29 -0.33625 2.32178 0
M  V30 21836 C 2068.31 -1.00081 1.42337 0
M  V30 21837 O 2069.49 -0.989904 1.75393 0
M  V30 21838 C 2066.55 -1.40682 3.16875 0
M  V30 21839 C 2065.61 -0.759384 4.2253 0
M  V30 21840 C 2064.84 -1.77894 5.03179 0
M  V30 21841 O 2065.07 -3.00483 4.84836 0
M  V30 21842 O 2064 -1.35358 5.86483 0
M  V30 21843 H 2067.83 0.330908 3.01892 0
M  V30 21844 H 2065.41 0.22795 1.47651 0
M  V30 21845 H 2067.29 -2.02704 3.69444 0
M  V30 21846 H 2065.97 -2.05753 2.49894 0
M  V30 21847 H 2064.88 -0.100338 3.73965 0
M  V30 21848 H 2066.21 -0.151694 4.91966 0
M  V30 21849 N 2067.86 -1.56346 0.198413 0
M  V30 21850 C 2068.77 -2.22855 -0.733001 0
M  V30 21851 C 2069.79 -1.22868 -1.23205 0
M  V30 21852 O 2070.96 -1.55615 -1.27852 0
M  V30 21853 C 2068.03 -2.87746 -1.93399 0
M  V30 21854 C 2067.09 -4.03012 -1.47919 0
M  V30 21855 C 2066.32 -4.64799 -2.62293 0
M  V30 21856 O 2066.55 -4.25516 -3.79859 0
M  V30 21857 O 2065.48 -5.54206 -2.34817 0
M  V30 21858 H 2069.31 -3.03063 -0.196563 0
M  V30 21859 H 2066.89 -1.49368 -0.0310254 0
M  V30 21860 H 2068.77 -3.28788 -2.63584 0
M  V30 21861 H 2067.45 -2.10514 -2.45897 0
M  V30 21862 H 2066.35 -3.66586 -0.746038 0
M  V30 21863 H 2067.69 -4.81917 -1.00084 0
M  V30 21864 N 2069.34 0.0751653 -1.57421 0
M  V30 21865 C 2070.62 0.807768 -1.78142 0
M  V30 21866 C 2071 1.95956 -0.785139 0
M  V30 21867 O 2070.35 2.27771 0.182413 0
M  V30 21868 C 2070.56 1.28385 -3.24528 0
M  V30 21869 C 2071.9 1.71859 -3.88265 0
M  V30 21870 O 2072.93 1.3796 -3.28398 0
M  V30 21871 O 2071.79 2.3461 -4.93579 0
M  V30 21872 H 2068.88 0.386806 -0.730965 0
M  V30 21873 H 2071.43 0.0555021 -1.69609 0
M  V30 21874 H 2070.2 0.459543 -3.88592 0
M  V30 21875 H 2069.82 2.09753 -3.37771 0
M  V30 21876 N 2070.82 1.53744 0.346476 0
M  V30 21877 C 2071.77 1.81527 1.42536 0
M  V30 21878 C 2072.74 0.660781 1.52391 0
M  V30 21879 O 2073.92 0.904918 1.67976 0
M  V30 21880 C 2071.06 2.02795 2.79228 0
M  V30 21881 C 2070.17 3.30508 2.78188 0
M  V30 21882 C 2069.31 3.41859 4.06578 0
M  V30 21883 C 2068.35 4.63532 3.99755 0
M  V30 21884 N 2067.48 4.71933 5.1983 0
M  V30 21885 H 2072.32 2.7358 1.18144 0
M  V30 21886 H 2069.86 1.35508 0.572368 0
M  V30 21887 H 2071.82 2.13115 3.58661 0
M  V30 21888 H 2070.45 1.14059 3.01978 0
M  V30 21889 H 2069.5 3.29044 1.90877 0
M  V30 21890 H 2070.81 4.20033 2.69024 0
M  V30 21891 H 2069.97 3.51595 4.94435 0
M  V30 21892 H 2068.71 2.50385 4.1852 0
M  V30 21893 H 2067.71 4.53876 3.10284 0
M  V30 21894 H 2068.94 5.56368 3.89399 0
M  V30 21895 H 2066.88 3.83367 5.32321 0
M  V30 21896 H 2066.8 5.5539 5.12911 0
M  V30 21897 H 2068.07 4.85975 6.09466 0
M  V30 21898 N 2072.3 -0.607329 1.45428 0
M  V30 21899 C 2073.71 -0.92811 1.29839 0
M  V30 21900 C 2073.91 -1.99923 0.251614 0
M  V30 21901 O 2072.97 -2.50001 -0.354354 0
M  V30 21902 C 2074.28 -1.36879 2.6774 0
M  V30 21903 C 2075.83 -1.48299 2.75638 0
M  V30 21904 C 2076.3 -1.95743 4.14064 0
M  V30 21905 N 2077.8 -2.02976 4.16359 0
M  V30 21906 C 2078.53 -2.40908 5.20337 0
M  V30 21907 N 2078.03 -2.77807 6.34661 0
M  V30 21908 N 2079.82 -2.41249 5.07696 0
M  V30 21909 H 2071.97 0.100642 2.12161 0
M  V30 21910 H 2074.23 -0.017631 0.947836 0
M  V30 21911 H 2073.94 -0.655923 3.45529 0
M  V30 21912 H 2073.81 -2.33525 2.96219 0
M  V30 21913 H 2076.2 -2.18677 1.98152 0
M  V30 21914 H 2076.28 -0.499667 2.50872 0
M  V30 21915 H 2075.93 -1.25951 4.92035 0
M  V30 21916 H 2075.86 -2.94989 4.36221 0
M  V30 21917 H 2078.35 -1.77048 3.3386 0
M  V30 21918 H 2078.66 -3.05633 7.09794 0
M  V30 21919 H 2077 -2.75502 6.38062 0
M  V30 21920 H 2080.2 -2.11829 4.17428 0
M  V30 21921 H 2080.37 -2.70485 5.88848 0
M  V30 21922 N 2073.77 -1.32722 -0.849853 0
M  V30 21923 C 2075.19 -1.11818 -1.13882 0
M  V30 21924 C 2075.39 0.0981854 -2.01261 0
M  V30 21925 O 2074.45 0.781678 -2.40096 0
M  V30 21926 C 2075.76 -2.4001 -1.81151 0
M  V30 21927 C 2077.31 -2.45813 -1.93765 0
M  V30 21928 C 2077.78 -3.73939 -2.6445 0
M  V30 21929 N 2079.27 -3.74948 -2.71971 0
M  V30 21930 C 2080.01 -4.70792 -3.27326 0
M  V30 21931 N 2079.5 -5.77005 -3.83454 0
M  V30 21932 N 2081.3 -4.58282 -3.25475 0
M  V30 21933 H 2073.45 -2.10702 -0.26806 0
M  V30 21934 H 2075.71 -0.930482 -0.181405 0
M  V30 21935 H 2075.42 -3.28963 -1.24403 0
M  V30 21936 H 2075.29 -2.51333 -2.81267 0
M  V30 21937 H 2077.68 -1.57316 -2.49671 0
M  V30 21938 H 2077.76 -2.38439 -0.926307 0
M  V30 21939 H 2077.4 -4.62812 -2.09206 0
M  V30 21940 H 2077.33 -3.78586 -3.66034 0
M  V30 21941 H 2079.82 -2.9818 -2.32157 0
M  V30 21942 H 2080.14 -6.46188 -4.23864 0
M  V30 21943 H 2078.48 -5.80753 -3.81773 0
M  V30 21944 H 2081.67 -3.74468 -2.80876 0
M  V30 21945 H 2081.85 -5.3315 -3.68314 0
M  V30 21946 N 2075.25 1.06673 -1.16011 0
M  V30 21947 C 2076.67 1.31515 -0.90421 0
M  V30 21948 C 2076.87 1.96524 0.445021 0
M  V30 21949 O 2075.92 2.22945 1.18541 0
M  V30 21950 C 2077.24 2.19955 -2.05037 0
M  V30 21951 C 2078.79 2.33384 -2.08569 0
M  V30 21952 C 2079.26 3.25176 -3.22528 0
M  V30 21953 N 2080.75 3.32759 -3.2222 0
M  V30 21954 C 2081.49 4.03866 -4.07038 0
M  V30 21955 N 2080.98 4.77529 -5.01934 0
M  V30 21956 N 2082.78 3.99877 -3.95037 0
M  V30 21957 H 2074.93 0.628672 -2.02883 0
M  V30 21958 H 2077.19 0.339704 -0.885045 0
M  V30 21959 H 2076.9 1.79458 -3.02469 0
M  V30 21960 H 2076.77 3.20521 -1.98862 0
M  V30 21961 H 2079.16 2.7313 -1.11732 0
M  V30 21962 H 2079.24 1.32499 -2.1881 0
M  V30 21963 H 2078.88 2.86147 -4.19622 0
M  V30 21964 H 2078.81 4.26031 -3.09524 0
M  V30 21965 H 2081.3 2.80259 -2.53502 0
M  V30 21966 H 2081.62 5.29302 -5.6308 0
M  V30 21967 H 2079.96 4.76522 -5.05917 0
M  V30 21968 H 2083.15 3.41446 -3.20207 0
M  V30 21969 H 2083.32 4.55027 -4.61361 0
M  V30 21970 N 2076.73 0.957992 1.25141 0
M  V30 21971 C 2077.66 0.438189 2.24972 0
M  V30 21972 C 2078.68 -0.447769 1.56521 0
M  V30 21973 O 2079.86 -0.255506 1.76662 0
M  V30 21974 C 2076.96 -0.387644 3.36676 0
M  V30 21975 C 2076.14 0.486109 4.3469 0
M  V30 21976 C 2075.2 -0.282086 5.25443 0
M  V30 21977 O 2074.22 0.320666 5.68296 0
M  V30 21978 N 2075.42 -1.57428 5.58746 0
M  V30 21979 H 2078.19 1.29648 2.70206 0
M  V30 21980 H 2075.75 0.828726 1.39082 0
M  V30 21981 H 2077.74 -0.909356 3.94351 0
M  V30 21982 H 2076.31 -1.14681 2.90804 0
M  V30 21983 H 2075.53 1.18889 3.75844 0
M  V30 21984 H 2076.82 1.08236 4.97154 0
M  V30 21985 H 2076.22 -2.08586 5.25841 0
M  V30 21986 H 2074.78 -2.04189 6.18991 0
M  V30 21987 N 2078.21 -1.39832 0.726957 0
M  V30 21988 C 2079.45 -2.00971 0.271788 0
M  V30 21989 C 2079.79 -1.57537 -1.13559 0
M  V30 21990 O 2079.06 -0.800579 -1.7726 0
M  V30 21991 C 2079.35 -3.5825 0.364596 0
M  V30 21992 C 2079.2 -4.11724 1.81117 0
M  V30 21993 C 2080.52 -4.39345 -0.257652 0
M  V30 21994 H 2077.64 -0.730152 0.100232 0
M  V30 21995 H 2080.28 -1.66152 0.921599 0
M  V30 21996 H 2078.43 -3.88042 -0.18865 0
M  V30 21997 H 2080.1 -3.92684 2.42068 0
M  V30 21998 H 2078.34 -3.65585 2.33516 0
M  V30 21999 H 2079.01 -5.20873 1.82743 0
M  V30 22000 H 2081.49 -4.1555 0.213875 0
M  V30 22001 H 2080.37 -5.4866 -0.162327 0
M  V30 22002 H 2080.63 -4.21218 -1.34267 0
M  V30 22003 N 2079.69 -0.473982 -1.50304 0
M  V30 22004 C 2080.93 0.0801282 -2.02642 0
M  V30 22005 C 2081.27 1.3911 -1.35506 0
M  V30 22006 O 2080.54 1.8844 -0.481719 0
M  V30 22007 C 2080.82 0.26092 -3.59153 0
M  V30 22008 C 2080.68 -1.07128 -4.36857 0
M  V30 22009 C 2082 1.01413 -4.28256 0
M  V30 22010 H 2079.11 0.0276467 -0.736481 0
M  V30 22011 H 2081.76 -0.620135 -1.79595 0
M  V30 22012 H 2079.91 0.857378 -3.78921 0
M  V30 22013 H 2081.58 -1.70454 -4.28653 0
M  V30 22014 H 2079.82 -1.66721 -4.00483 0
M  V30 22015 H 2080.49 -0.898389 -5.4464 0
M  V30 22016 H 2082.97 0.508536 -4.12981 0
M  V30 22017 H 2081.84 1.10943 -5.37571 0
M  V30 22018 H 2082.11 2.05141 -3.91624 0
M  V30 22019 N 2081.16 1.56239 -0.206702 0
M  V30 22020 C 2082.44 1.89689 0.477219 0
M  V30 22021 C 2082.82 1.12193 1.78818 0
M  V30 22022 O 2082.17 0.226599 2.27374 0
M  V30 22023 C 2082.38 3.42218 0.684683 0
M  V30 22024 C 2083.73 4.12685 0.998827 0
M  V30 22025 O 2084.75 3.47734 0.771997 0
M  V30 22026 O 2083.61 5.275 1.42851 0
M  V30 22027 H 2080.7 0.788217 0.250286 0
M  V30 22028 H 2083.25 1.67881 -0.247781 0
M  V30 22029 H 2082.02 3.90559 -0.240635 0
M  V30 22030 H 2081.65 3.69756 1.46172 0
M  V30 22031 N 2082.64 -0.0668159 1.57458 0
M  V30 22032 C 2083.89 -0.766159 1.87771 0
M  V30 22033 C 2084.22 -1.76973 0.799644 0
M  V30 22034 O 2083.5 -1.93574 -0.189554 0
M  V30 22035 C 2083.78 -1.46969 3.28743 0
M  V30 22036 C 2083.63 -0.482195 4.47208 0
M  V30 22037 C 2084.95 -2.41336 3.68029 0
M  V30 22038 H 2082.07 -0.277066 0.682937 0
M  V30 22039 H 2084.71 -0.0292751 1.89977 0
M  V30 22040 H 2082.86 -2.09781 3.26993 0
M  V30 22041 H 2084.53 0.141096 4.61084 0
M  V30 22042 H 2082.78 0.202041 4.33329 0
M  V30 22043 H 2083.45 -1.01218 5.42641 0
M  V30 22044 H 2085.92 -1.88598 3.70905 0
M  V30 22045 H 2084.8 -2.87562 4.67546 0
M  V30 22046 H 2085.06 -3.26361 2.98229 0
M  V30 22047 N 2084.12 -1.53926 -0.338317 0
M  V30 22048 C 2085.05 -1.77104 -1.43908 0
M  V30 22049 C 2086.03 -0.620357 -1.50301 0
M  V30 22050 O 2087.22 -0.856117 -1.67937 0
M  V30 22051 C 2084.34 -1.87438 -2.82108 0
M  V30 22052 C 2083.39 -3.09626 -2.93315 0
M  V30 22053 S 2084.22 -4.68565 -2.59244 0
M  V30 22054 C 2085.38 -4.81784 -3.99543 0
M  V30 22055 H 2085.61 -2.70192 -1.24031 0
M  V30 22056 H 2083.14 -1.44861 -0.534293 0
M  V30 22057 H 2085.1 -1.94077 -3.61724 0
M  V30 22058 H 2083.76 -0.953534 -2.99277 0
M  V30 22059 H 2082.96 -3.13547 -3.94594 0
M  V30 22060 H 2082.56 -3.0124 -2.21653 0
M  V30 22061 H 2084.85 -4.63515 -4.94126 0
M  V30 22062 H 2085.79 -5.83879 -4.00613 0
M  V30 22063 H 2086.2 -4.10198 -3.87811 0
M  V30 22064 N 2085.6 0.599608 -1.45748 0
M  V30 22065 C 2086.82 1.38971 -1.53954 0
M  V30 22066 C 2087.25 1.87278 -0.175618 0
M  V30 22067 O 2086.61 1.60602 0.841223 0
M  V30 22068 C 2086.66 2.56482 -2.53474 0
M  V30 22069 O 2085.76 3.57375 -2.05808 0
M  V30 22070 H 2085.1 0.414567 -0.518681 0
M  V30 22071 H 2087.63 0.728972 -1.91173 0
M  V30 22072 H 2087.64 3.03623 -2.72539 0
M  V30 22073 H 2086.32 2.20672 -3.52529 0
M  V30 22074 H 2084.89 3.1683 -1.96656 0
M  V30 22075 N 2087.08 1.33171 0.842803 0
M  V30 22076 C 2088.04 1.23019 1.93388 0
M  V30 22077 C 2089.04 0.15022 1.60097 0
M  V30 22078 O 2090.23 0.401472 1.69511 0
M  V30 22079 C 2087.36 0.89468 3.2895 0
M  V30 22080 H 2088.56 2.19997 2.03817 0
M  V30 22081 H 2086.11 1.17173 1.03442 0
M  V30 22082 H 2086.84 -0.0727774 3.24218 0
M  V30 22083 H 2086.63 1.67563 3.54493 0
M  V30 22084 H 2088.12 0.848284 4.08894 0
M  V30 22085 N 2088.56 -1.06056 1.16576 0
M  V30 22086 C 2089.8 -1.78287 0.943219 0
M  V30 22087 C 2090.12 -1.88283 -0.529992 0
M  V30 22088 O 2091.32 -2.57167 -0.870491 0
M  V30 22089 C 2089.78 -3.20448 1.63832 0
M  V30 22090 C 2089.39 -3.18611 3.14946 0
M  V30 22091 C 2091.13 -3.97196 1.49784 0
M  V30 22092 C 2089.04 -4.55507 3.77183 0
M  V30 22093 H 2087.97 -0.668232 0.34926 0
M  V30 22094 H 2090.62 -1.1894 1.39734 0
M  V30 22095 H 2089 -3.80069 1.11191 0
M  V30 22096 H 2090.18 -2.68559 3.7445 0
M  V30 22097 H 2088.49 -2.55362 3.28906 0
M  V30 22098 H 2091.09 -4.98397 1.93661 0
M  V30 22099 H 2091.43 -4.13892 0.447129 0
M  V30 22100 H 2091.96 -3.44104 1.99594 0
M  V30 22101 H 2088.7 -4.44017 4.82213 0
M  V30 22102 H 2088.22 -5.05743 3.22465 0
M  V30 22103 H 2089.9 -5.24461 3.7888 0
M  V30 22104 N 2090.03 -0.964615 -1.24631 0
M  V30 22105 C 2091.28 -0.624816 -1.9262 0
M  V30 22106 C 2091.61 0.839576 -1.75446 0
M  V30 22107 O 2090.86 1.61908 -1.09929 0
M  V30 22108 C 2091.16 -0.941821 -3.44767 0
M  V30 22109 C 2090.83 -2.39386 -3.82106 0
M  V30 22110 C 2089.49 -2.79073 -3.9201 0
M  V30 22111 C 2091.84 -3.33637 -4.0042 0
M  V30 22112 C 2089.17 -4.12059 -4.17642 0
M  V30 22113 C 2091.52 -4.66247 -4.27547 0
M  V30 22114 C 2090.19 -5.05716 -4.35669 0
M  V30 22115 H 2089.46 -0.228636 -0.704845 0
M  V30 22116 H 2092.1 -1.21552 -1.47977 0
M  V30 22117 H 2090.41 -0.268835 -3.90877 0
M  V30 22118 H 2092.11 -0.657344 -3.95576 0
M  V30 22119 H 2088.7 -2.07611 -3.74961 0
M  V30 22120 H 2092.88 -3.0416 -3.92174 0
M  V30 22121 H 2088.14 -4.42268 -4.22148 0
M  V30 22122 H 2092.31 -5.39249 -4.40662 0
M  V30 22123 H 2089.94 -6.08786 -4.55284 0
M  V30 22124 N 2091.51 1.39445 -0.734362 0
M  V30 22125 C 2092.44 2.29135 -0.0543743 0
M  V30 22126 C 2093.46 1.46785 0.704126 0
M  V30 22127 O 2094.65 1.69867 0.548394 0
M  V30 22128 C 2091.75 3.25393 0.947229 0
M  V30 22129 C 2090.92 4.36683 0.250381 0
M  V30 22130 C 2089.98 5.13255 1.16 0
M  V30 22131 O 2089 5.65616 0.637723 0
M  V30 22132 N 2090.21 5.24396 2.48976 0
M  V30 22133 H 2092.97 2.88134 -0.824567 0
M  V30 22134 H 2090.53 1.51018 -0.583531 0
M  V30 22135 H 2092.52 3.73494 1.55834 0
M  V30 22136 H 2091.09 2.6743 1.61863 0
M  V30 22137 H 2090.31 3.90467 -0.5412 0
M  V30 22138 H 2091.6 5.08268 -0.232571 0
M  V30 22139 H 2091 4.83371 2.93885 0
M  V30 22140 H 2089.56 5.75939 3.05185 0
M  V30 22141 N 2092.99 0.481946 1.5005 0
M  V30 22142 C 2094.24 -0.069141 2.01982 0
M  V30 22143 C 2094.56 -1.39233 1.36525 0
M  V30 22144 O 2093.83 -1.89032 0.514174 0
M  V30 22145 H 2092.41 -0.0285419 0.746455 0
M  V30 22146 H 2095.07 0.634845 1.84271 0
M  V30 22147 H 2094.17 -0.212743 3.11374 0
M  V30 22148 N 2094.47 -1.56127 0.214985 0
M  V30 22149 C 2095.88 -1.8437 -0.294058 0
M  V30 22150 C 2096.23 -1.13621 -1.59952 0
M  V30 22151 O 2095.35 -0.403663 -2.12602 0
M  V30 22152 C 2095.95 -3.34464 -0.540311 0
M  V30 22153 C 2094.51 -3.63047 -0.993677 0
M  V30 22154 C 2093.66 -2.77249 -0.0531319 0
M  V30 22155 H 2096.61 -1.52527 0.43833 0
M  V30 22156 H 2096.63 -3.54314 -1.38716 0
M  V30 22157 H 2096.14 -3.85928 0.409992 0
M  V30 22158 H 2094.24 -3.17033 -1.95757 0
M  V30 22159 H 2094.35 -4.71086 -0.872629 0
M  V30 22160 H 2092.72 -2.48496 -0.558718 0
M  V30 22161 H 2093.5 -3.3151 0.891971 0
M  V30 22162 N 2095.95 0.0584645 -1.57492 0
M  V30 22163 C 2097.19 0.75396 -1.87078 0
M  V30 22164 C 2097.51 1.78063 -0.809512 0
M  V30 22165 O 2098.71 2.52664 -0.993649 0
M  V30 22166 C 2097.17 1.39192 -3.31894 0
M  V30 22167 C 2096.78 0.403126 -4.46183 0
M  V30 22168 C 2098.52 2.069 -3.70665 0
M  V30 22169 C 2096.43 1.04775 -5.82045 0
M  V30 22170 H 2095.36 0.28534 -0.697923 0
M  V30 22171 H 2098.01 0.0075332 -1.83498 0
M  V30 22172 H 2096.39 2.18706 -3.30127 0
M  V30 22173 H 2097.57 -0.36317 -4.59367 0
M  V30 22174 H 2095.88 -0.170238 -4.16052 0
M  V30 22175 H 2098.48 2.55929 -4.69473 0
M  V30 22176 H 2098.82 2.87433 -3.01145 0
M  V30 22177 H 2099.35 1.342 -3.7448 0
M  V30 22178 H 2096.09 0.282468 -6.54891 0
M  V30 22179 H 2095.61 1.78459 -5.72636 0
M  V30 22180 H 2097.29 1.56372 -6.27819 0
M  V30 22181 N 2097.42 1.54103 0.330149 0
M  V30 22182 C 2098.65 1.76264 1.09297 0
M  V30 22183 C 2099.07 0.5067 1.81147 0
M  V30 22184 O 2098.43 -0.541409 1.73027 0
M  V30 22185 C 2098.48 2.95141 2.07181 0
M  V30 22186 O 2097.58 2.66226 3.14956 0
M  V30 22187 H 2096.92 0.584284 0.31545 0
M  V30 22188 H 2099.45 2.01107 0.376453 0
M  V30 22189 H 2099.46 3.22305 2.50167 0
M  V30 22190 H 2098.14 3.86224 1.54285 0
M  V30 22191 H 2096.72 2.49992 2.76692 0
M  V30 22192 N 2098.9 -0.59187 1.46064 0
M  V30 22193 C 2099.83 -1.71199 1.58787 0
M  V30 22194 C 2100.81 -1.64348 0.438615 0
M  V30 22195 O 2102 -1.82506 0.663725 0
M  V30 22196 C 2099.13 -3.0983 1.56917 0
M  V30 22197 C 2098.08 -3.31505 2.70719 0
M  V30 22198 C 2097.41 -4.70569 2.53907 0
M  V30 22199 C 2098.71 -3.20228 4.12615 0
M  V30 22200 H 2100.4 -1.60807 2.5255 0
M  V30 22201 H 2097.95 -0.772206 1.21544 0
M  V30 22202 H 2099.9 -3.88003 1.64413 0
M  V30 22203 H 2098.63 -3.21099 0.596928 0
M  V30 22204 H 2097.28 -2.55727 2.62677 0
M  V30 22205 H 2096.93 -4.78592 1.54787 0
M  V30 22206 H 2096.63 -4.86025 3.30232 0
M  V30 22207 H 2098.16 -5.50923 2.6328 0
M  V30 22208 H 2099.57 -3.88257 4.21817 0
M  V30 22209 H 2097.97 -3.47209 4.89455 0
M  V30 22210 H 2099.04 -2.17437 4.33416 0
M  V30 22211 N 2100.38 -1.33616 -0.835729 0
M  V30 22212 C 2101.66 -1.15846 -1.57604 0
M  V30 22213 C 2102.04 0.273951 -2.09315 0
M  V30 22214 O 2101.39 1.27345 -1.89725 0
M  V30 22215 C 2101.6 -2.20224 -2.70744 0
M  V30 22216 C 2102.94 -2.54542 -3.39843 0
M  V30 22217 O 2103.97 -2.18915 -2.80989 0
M  V30 22218 O 2102.83 -3.15692 -4.46095 0
M  V30 22219 H 2099.92 -0.448265 -0.694973 0
M  V30 22220 H 2102.47 -1.45209 -0.878211 0
M  V30 22221 H 2101.24 -3.16426 -2.30196 0
M  V30 22222 H 2100.86 -1.91965 -3.48188 0
M  V30 22223 N 2101.86 1.05436 -1.17136 0
M  V30 22224 C 2102.82 2.11293 -0.888146 0
M  V30 22225 C 2103.82 1.60347 0.120621 0
M  V30 22226 O 2105.01 1.73844 -0.111266 0
M  V30 22227 N 2103.34 0.971211 1.24118 0
M  V30 22228 C 2104.75 0.673347 1.74135 0
M  V30 22229 C 2105.1 -0.810809 1.78663 0
M  V30 22230 O 2104.22 -1.63435 1.41838 0
M  V30 22231 C 2104.82 1.21558 3.16242 0
M  V30 22232 C 2103.38 0.967552 3.63752 0
M  V30 22233 C 2102.52 1.34881 2.42286 0
M  V30 22234 H 2105.48 1.14613 1.09771 0
M  V30 22235 H 2105.5 0.583554 3.75999 0
M  V30 22236 H 2105.01 2.29578 3.12914 0
M  V30 22237 H 2103.11 -0.0969669 3.72474 0
M  V30 22238 H 2103.22 1.61567 4.51035 0
M  V30 22239 H 2101.59 0.767209 2.4287 0
M  V30 22240 H 2102.37 2.43858 2.41637 0
M  V30 22241 N 2104.81 -1.39054 0.741747 0
M  V30 22242 C 2106.23 -1.83161 0.361815 0
M  V30 22243 C 2106.58 -1.61934 -1.10778 0
M  V30 22244 O 2105.7 -1.11412 -1.85516 0
M  V30 22245 C 2106.3 -3.32508 0.649929 0
M  V30 22246 C 2104.86 -3.75008 0.323414 0
M  V30 22247 C 2104 -2.61973 0.909134 0
M  V30 22248 H 2106.95 -1.2795 0.938853 0
M  V30 22249 H 2106.97 -3.80424 -0.0759846 0
M  V30 22250 H 2106.49 -3.47925 1.71959 0
M  V30 22251 H 2104.59 -3.65175 -0.740136 0
M  V30 22252 H 2104.7 -4.72191 0.81069 0
M  V30 22253 H 2103.06 -2.52483 0.335302 0
M  V30 22254 H 2103.85 -2.80194 1.98358 0
M  V30 22255 N 2106.29 -0.489897 -1.49792 0
M  V30 22256 C 2107.7 -0.0393634 -1.86658 0
M  V30 22257 C 2108.05 1.37132 -1.40318 0
M  V30 22258 O 2107.18 2.01999 -0.776241 0
M  V30 22259 C 2107.77 -0.0646571 -3.38738 0
M  V30 22260 C 2106.33 0.330485 -3.74946 0
M  V30 22261 C 2105.48 -0.442023 -2.73754 0
M  V30 22262 H 2108.43 -0.703245 -1.42268 0
M  V30 22263 H 2108.45 0.73323 -3.73368 0
M  V30 22264 H 2107.96 -1.09149 -3.72435 0
M  V30 22265 H 2106.07 1.36097 -3.46855 0
M  V30 22266 H 2106.18 0.0187552 -4.79096 0
M  V30 22267 H 2104.54 0.106725 -2.54476 0
M  V30 22268 H 2105.33 -1.46872 -3.10296 0
M  V30 22269 N 2107.77 1.56011 -0.223262 0
M  V30 22270 C 2109.18 1.84523 0.284276 0
M  V30 22271 C 2109.53 1.14468 1.59347 0
M  V30 22272 O 2108.66 0.414932 2.12385 0
M  V30 22273 C 2109.25 3.34746 0.522566 0
M  V30 22274 C 2107.81 3.63569 0.974409 0
M  V30 22275 C 2106.96 2.77273 0.038428 0
M  V30 22276 H 2109.91 1.52292 -0.446413 0
M  V30 22277 H 2109.93 3.55044 1.36835 0
M  V30 22278 H 2109.44 3.85705 -0.430453 0
M  V30 22279 H 2107.54 3.18067 1.94073 0
M  V30 22280 H 2107.66 4.71542 0.847634 0
M  V30 22281 H 2106.02 2.48789 0.545532 0
M  V30 22282 H 2106.8 3.31032 -0.909539 0
M  V30 22283 N 2109.25 -0.0501116 1.5752 0
M  V30 22284 C 2110.21 -1.0417 2.0416 0
M  V30 22285 C 2111.21 -1.30309 0.942133 0
M  V30 22286 O 2112.4 -1.25665 1.20639 0
M  V30 22287 C 2109.53 -2.37997 2.4407 0
M  V30 22288 H 2110.73 -0.639249 2.93008 0
M  V30 22289 H 2108.28 -0.296417 1.53464 0
M  V30 22290 H 2109.01 -2.83032 1.58314 0
M  V30 22291 H 2108.8 -2.2036 3.2432 0
M  V30 22292 H 2110.29 -3.09229 2.80654 0
M  V30 22293 N 2110.73 -1.54276 -0.321972 0
M  V30 22294 C 2111.98 -1.7177 -1.05726 0
M  V30 22295 C 2112.29 -0.499164 -1.89124 0
M  V30 22296 O 2113.49 -0.555477 -2.65757 0
M  V30 22297 C 2111.95 -3.03824 -1.92923 0
M  V30 22298 C 2111.56 -4.33087 -1.14629 0
M  V30 22299 C 2113.3 -3.30681 -2.66178 0
M  V30 22300 C 2111.21 -5.56202 -2.00981 0
M  V30 22301 H 2110.14 -0.64013 -0.398433 0
M  V30 22302 H 2112.79 -1.80769 -0.315414 0
M  V30 22303 H 2111.17 -2.88736 -2.71012 0
M  V30 22304 H 2112.35 -4.58946 -0.412993 0
M  V30 22305 H 2110.66 -4.13007 -0.530488 0
M  V30 22306 H 2113.26 -4.19857 -3.31096 0
M  V30 22307 H 2113.6 -2.48629 -3.339 0
M  V30 22308 H 2114.13 -3.46643 -1.95149 0
M  V30 22309 H 2110.87 -6.4086 -1.37764 0
M  V30 22310 H 2110.39 -5.3456 -2.7204 0
M  V30 22311 H 2112.07 -5.92667 -2.59528 0
M  V30 22312 N 2112.2 0.584116 -1.46376 0
M  V30 22313 C 2113.17 1.6753 -1.56417 0
M  V30 22314 C 2114.17 1.54622 -0.441454 0
M  V30 22315 O 2115.36 1.59265 -0.705714 0
M  V30 22316 N 2113.68 1.34058 0.828631 0
M  V30 22317 C 2114.96 1.1668 1.56988 0
M  V30 22318 C 2115.34 -0.262846 2.09457 0
M  V30 22319 O 2114.69 -1.26337 1.90398 0
M  V30 22320 C 2114.9 2.21657 2.69572 0
M  V30 22321 C 2116.25 2.56341 3.38489 0
M  V30 22322 O 2117.27 2.20402 2.79824 0
M  V30 22323 O 2116.13 3.18053 4.44415 0
M  V30 22324 H 2113.22 0.451944 0.692586 0
M  V30 22325 H 2115.77 1.45672 0.870498 0
M  V30 22326 H 2114.54 3.17643 2.28515 0
M  V30 22327 H 2114.16 1.93809 3.47166 0
M  V30 22328 N 2115.16 -1.04814 1.17694 0
M  V30 22329 C 2116.09 -2.1459 0.920505 0
M  V30 22330 C 2117.07 -1.69531 -0.138953 0
M  V30 22331 O 2118.26 -1.94196 0.0120784 0
M  V30 22332 C 2115.39 -3.44537 0.437198 0
M  V30 22333 C 2114.34 -4.03181 1.43628 0
M  V30 22334 C 2113.67 -5.28517 0.810779 0
M  V30 22335 C 2114.97 -4.40226 2.81066 0
M  V30 22336 H 2116.66 -2.363 1.83856 0
M  V30 22337 H 2114.21 -1.13563 0.885411 0
M  V30 22338 H 2116.16 -4.20686 0.245199 0
M  V30 22339 H 2114.88 -3.22492 -0.516401 0
M  V30 22340 H 2113.54 -3.29106 1.61508 0
M  V30 22341 H 2113.19 -5.02777 -0.149773 0
M  V30 22342 H 2112.89 -5.68714 1.47776 0
M  V30 22343 H 2114.42 -6.0735 0.62914 0
M  V30 22344 H 2115.83 -5.07393 2.66881 0
M  V30 22345 H 2114.23 -4.91451 3.44377 0
M  V30 22346 H 2115.3 -3.50396 3.35188 0
M  V30 22347 N 2116.64 -0.977779 -1.23601 0
M  V30 22348 C 2117.57 -0.535228 -2.27283 0
M  V30 22349 C 2118.55 0.430261 -1.64568 0
M  V30 22350 O 2119.74 0.324195 -1.91475 0
M  V30 22351 C 2116.87 0.165683 -3.46905 0
M  V30 22352 C 2115.82 -0.716827 -4.21954 0
M  V30 22353 C 2115.15 0.116149 -5.34574 0
M  V30 22354 C 2116.45 -2.00636 -4.82227 0
M  V30 22355 H 2118.14 -1.40185 -2.64553 0
M  V30 22356 H 2115.69 -0.67551 -1.27173 0
M  V30 22357 H 2117.64 0.486573 -4.18581 0
M  V30 22358 H 2116.36 1.06674 -3.08688 0
M  V30 22359 H 2115.02 -1.02114 -3.52091 0
M  V30 22360 H 2114.67 1.01766 -4.92598 0
M  V30 22361 H 2114.37 -0.471195 -5.85708 0
M  V30 22362 H 2115.89 0.431481 -6.09074 0
M  V30 22363 H 2117.31 -1.75041 -5.45925 0
M  V30 22364 H 2115.7 -2.54126 -5.43636 0
M  V30 22365 H 2116.77 -2.69488 -4.03118 0
M  V30 22366 N 2118.12 1.38658 -0.749111 0
M  V30 22367 C 2119.05 2.29065 -0.0786741 0
M  V30 22368 C 2120.06 1.47524 0.688517 0
M  V30 22369 O 2121.25 1.70439 0.530347 0
M  V30 22370 C 2118.35 3.2638 0.912663 0
M  V30 22371 C 2117.52 4.36924 0.204051 0
M  V30 22372 C 2116.58 5.14456 1.1055 0
M  V30 22373 O 2115.61 5.66261 0.577696 0
M  V30 22374 N 2116.81 5.27007 2.434 0
M  V30 22375 H 2119.58 2.87243 -0.855081 0
M  V30 22376 H 2117.14 1.50391 -0.599516 0
M  V30 22377 H 2119.13 3.75126 1.51864 0
M  V30 22378 H 2117.7 2.69132 1.59018 0
M  V30 22379 H 2116.92 3.89871 -0.582584 0
M  V30 22380 H 2118.21 5.07993 -0.286467 0
M  V30 22381 H 2117.61 4.86461 2.88742 0
M  V30 22382 H 2116.16 5.79143 2.99059 0
M  V30 22383 N 2119.6 0.497834 1.49531 0
M  V30 22384 C 2120.82 -0.0468921 2.07347 0
M  V30 22385 C 2121.25 -1.30349 1.35612 0
M  V30 22386 O 2120.6 -1.76559 0.411884 0
M  V30 22387 C 2120.65 -0.286776 3.59458 0
M  V30 22388 O 2119.76 -1.36212 3.89256 0
M  V30 22389 H 2119.1 0.0248202 0.663536 0
M  V30 22390 H 2121.63 0.696547 1.92378 0
M  V30 22391 H 2121.64 -0.519243 4.04682 0
M  V30 22392 H 2120.31 0.631334 4.1108 0
M  V30 22393 H 2118.89 -1.11485 3.55845 0
M  V30 22394 N 2121.07 -1.5589 0.231532 0
M  V30 22395 C 2122.32 -1.98855 -0.398041 0
M  V30 22396 C 2122.65 -1.11925 -1.58702 0
M  V30 22397 O 2121.93 -0.179155 -1.93673 0
M  V30 22398 C 2122.21 -3.50572 -0.822893 0
M  V30 22399 C 2122.06 -4.48272 0.370417 0
M  V30 22400 C 2123.38 -4.0696 -1.67547 0
M  V30 22401 H 2120.5 -0.722953 -0.143207 0
M  V30 22402 H 2123.14 -1.87116 0.329767 0
M  V30 22403 H 2121.29 -3.60706 -1.44303 0
M  V30 22404 H 2122.97 -4.50137 1.0087 0
M  V30 22405 H 2121.21 -4.2173 1.01617 0
M  V30 22406 H 2121.88 -5.51992 0.0300558 0
M  V30 22407 H 2124.36 -3.99831 -1.15214 0
M  V30 22408 H 2123.23 -5.13412 -1.94162 0
M  V30 22409 H 2123.49 -3.5446 -2.64217 0
M  V30 22410 N 2122.55 0.0417572 -1.57545 0
M  V30 22411 C 2123.97 0.397174 -1.54579 0
M  V30 22412 C 2124.17 1.77381 -0.955943 0
M  V30 22413 O 2123.22 2.45948 -0.571457 0
M  V30 22414 C 2124.54 0.310665 -2.99091 0
M  V30 22415 C 2126.08 0.388675 -3.10577 0
M  V30 22416 C 2126.56 0.331754 -4.56797 0
M  V30 22417 N 2128.05 0.390933 -4.61547 0
M  V30 22418 C 2128.79 0.36958 -5.72208 0
M  V30 22419 N 2128.28 0.301264 -6.92145 0
M  V30 22420 N 2130.07 0.41837 -5.60541 0
M  V30 22421 H 2122.23 -0.859292 -1.94242 0
M  V30 22422 H 2124.49 -0.325513 -0.890362 0
M  V30 22423 H 2124.19 -0.634841 -3.45923 0
M  V30 22424 H 2124.07 1.10929 -3.6052 0
M  V30 22425 H 2126.46 1.32461 -2.63701 0
M  V30 22426 H 2126.54 -0.439073 -2.52004 0
M  V30 22427 H 2126.18 -0.60046 -5.04338 0
M  V30 22428 H 2126.11 1.17744 -5.13268 0
M  V30 22429 H 2128.6 0.44676 -3.7525 0
M  V30 22430 H 2128.91 0.289723 -7.72257 0
M  V30 22431 H 2127.26 0.2675 -6.94485 0
M  V30 22432 H 2130.45 0.469643 -4.65738 0
M  V30 22433 H 2130.62 0.398261 -6.46775 0
M  V30 22434 N 2124.03 1.54445 0.313786 0
M  V30 22435 C 2125.26 1.77093 1.06985 0
M  V30 22436 C 2125.67 0.524216 1.81376 0
M  V30 22437 O 2125.03 -0.505482 1.7536 0
M  V30 22438 C 2125.08 2.97038 2.06036 0
M  V30 22439 O 2124.8 4.1689 1.34665 0
M  V30 22440 C 2126.3 3.31974 2.93783 0
M  V30 22441 H 2123.52 0.590955 0.317826 0
M  V30 22442 H 2126.07 2.01361 0.356942 0
M  V30 22443 H 2124.22 2.75015 2.72847 0
M  V30 22444 H 2124.64 4.84425 2.01078 0
M  V30 22445 H 2126.11 4.19176 3.5916 0
M  V30 22446 H 2126.59 2.49567 3.61404 0
M  V30 22447 H 2127.19 3.5611 2.3252 0
M  V30 22448 N 2125.51 -0.576345 1.46683 0
M  V30 22449 C 2126.92 -1.15848 1.46411 0
M  V30 22450 C 2127.27 -1.9509 0.208383 0
M  V30 22451 O 2126.39 -2.05169 -0.688092 0
M  V30 22452 C 2126.99 -2.10758 2.65267 0
M  V30 22453 C 2125.55 -2.64282 2.68015 0
M  V30 22454 C 2124.7 -1.40277 2.39202 0
M  V30 22455 H 2127.65 -0.363942 1.54471 0
M  V30 22456 H 2127.67 -2.94327 2.41147 0
M  V30 22457 H 2127.18 -1.53056 3.56645 0
M  V30 22458 H 2125.28 -3.25835 1.80726 0
M  V30 22459 H 2125.39 -3.06583 3.68163 0
M  V30 22460 H 2123.76 -1.70304 1.8939 0
M  V30 22461 H 2124.54 -0.843968 3.32764 0
M  V30 22462 N 2126.99 -1.34495 -0.82151 0
M  V30 22463 C 2127.9 -1.28265 -1.96431 0
M  V30 22464 C 2128.91 -0.190092 -1.72959 0
M  V30 22465 O 2130.09 -0.416817 -1.9704 0
M  V30 22466 C 2127.15 -1.03935 -3.30754 0
M  V30 22467 C 2126.21 -2.22361 -3.67225 0
M  V30 22468 C 2125.45 -1.99182 -4.95139 0
M  V30 22469 O 2125.67 -0.950771 -5.6242 0
M  V30 22470 O 2124.6 -2.86169 -5.2952 0
M  V30 22471 H 2128.43 -2.2441 -2.04631 0
M  V30 22472 H 2126.01 -1.14716 -0.957114 0
M  V30 22473 H 2127.9 -0.921538 -4.112 0
M  V30 22474 H 2126.57 -0.108311 -3.23519 0
M  V30 22475 H 2125.48 -2.39702 -2.87217 0
M  V30 22476 H 2126.81 -3.1386 -3.79147 0
M  V30 22477 N 2128.46 1.04188 -1.18248 0
M  V30 22478 C 2129.71 1.7763 -0.978539 0
M  V30 22479 C 2130.04 1.87897 0.490757 0
M  V30 22480 O 2129.32 1.38617 1.36439 0
M  V30 22481 C 2129.6 3.20968 -1.63252 0
M  V30 22482 C 2129.45 3.18653 -3.1746 0
M  V30 22483 C 2130.77 4.19052 -1.34475 0
M  V30 22484 H 2127.89 0.644817 -0.356903 0
M  V30 22485 H 2130.53 1.21713 -1.45897 0
M  V30 22486 H 2128.68 3.68714 -1.22402 0
M  V30 22487 H 2130.36 2.78906 -3.67436 0
M  V30 22488 H 2128.6 2.56717 -3.49684 0
M  V30 22489 H 2129.27 4.19864 -3.58354 0
M  V30 22490 H 2131.75 3.79848 -1.69868 0
M  V30 22491 H 2130.62 5.17565 -1.82804 0
M  V30 22492 H 2130.88 4.41291 -0.267408 0
M  V30 22493 N 2129.94 0.98432 1.23081 0
M  V30 22494 C 2131.19 0.650883 1.90909 0
M  V30 22495 C 2131.5 -0.819701 1.77596 0
M  V30 22496 O 2132.71 -1.26436 2.40263 0
M  V30 22497 C 2131.17 1.11359 3.42239 0
M  V30 22498 C 2130.77 2.60879 3.64206 0
M  V30 22499 C 2132.52 0.854079 4.15819 0
M  V30 22500 C 2130.43 3.00797 5.09191 0
M  V30 22501 H 2129.36 0.239743 0.71487 0
M  V30 22502 H 2132.01 1.19274 1.39449 0
M  V30 22503 H 2130.39 0.499916 3.92832 0
M  V30 22504 H 2131.56 3.27519 3.24142 0
M  V30 22505 H 2129.88 2.84619 3.03942 0
M  V30 22506 H 2132.47 1.12812 5.22664 0
M  V30 22507 H 2132.82 -0.209813 4.15771 0
M  V30 22508 H 2133.35 1.42952 3.71227 0
M  V30 22509 H 2130.09 4.06326 5.14373 0
M  V30 22510 H 2129.61 2.38854 5.5019 0
M  V30 22511 H 2131.29 2.9162 5.77552 0
M  V30 22512 N 2131.42 -1.38259 0.756453 0
M  V30 22513 C 2132.37 -2.3043 0.130645 0
M  V30 22514 C 2133.34 -1.50324 -0.70653 0
M  V30 22515 O 2134.52 -1.78945 -0.662065 0
M  V30 22516 C 2131.66 -3.36755 -0.754338 0
M  V30 22517 C 2130.78 -4.31889 0.0977771 0
M  V30 22518 C 2129.91 -5.25286 -0.790477 0
M  V30 22519 C 2128.95 -6.12065 0.0650988 0
M  V30 22520 N 2128.09 -6.97751 -0.780275 0
M  V30 22521 H 2132.93 -2.83371 0.92222 0
M  V30 22522 H 2130.46 -1.3951 0.466406 0
M  V30 22523 H 2132.42 -3.97012 -1.2821 0
M  V30 22524 H 2131.05 -2.85216 -1.51167 0
M  V30 22525 H 2130.1 -3.73069 0.743191 0
M  V30 22526 H 2131.42 -4.93001 0.758393 0
M  V30 22527 H 2130.57 -5.90673 -1.38529 0
M  V30 22528 H 2129.31 -4.64548 -1.48482 0
M  V30 22529 H 2128.31 -5.45671 0.672561 0
M  V30 22530 H 2129.54 -6.74873 0.756543 0
M  V30 22531 H 2127.48 -6.39558 -1.45951 0
M  V30 22532 H 2127.4 -7.55794 -0.176619 0
M  V30 22533 H 2128.67 -7.67545 -1.35997 0
M  V30 22534 N 2132.9 -0.505757 -1.49264 0
M  V30 22535 C 2134.13 0.0336911 -2.06573 0
M  V30 22536 C 2134.54 1.30934 -1.36576 0
M  V30 22537 O 2133.88 1.7837 -0.439315 0
M  V30 22538 C 2133.94 0.352849 -3.57764 0
M  V30 22539 C 2133.61 -0.825771 -4.49478 0
M  V30 22540 C 2134.6 -1.71758 -4.90709 0
M  V30 22541 C 2132.29 -1.02592 -4.91711 0
M  V30 22542 C 2134.28 -2.79364 -5.72918 0
M  V30 22543 C 2131.97 -2.10516 -5.73695 0
M  V30 22544 C 2132.97 -2.98736 -6.14203 0
M  V30 22545 O 2132.65 -4.04796 -6.94547 0
M  V30 22546 H 2132.39 -0.019393 -0.675722 0
M  V30 22547 H 2134.94 -0.703718 -1.92969 0
M  V30 22548 H 2133.17 1.14391 -3.69393 0
M  V30 22549 H 2134.86 0.831477 -3.97292 0
M  V30 22550 H 2135.63 -1.57478 -4.58722 0
M  V30 22551 H 2131.5 -0.348606 -4.5968 0
M  V30 22552 H 2135.05 -3.48252 -6.04455 0
M  V30 22553 H 2130.95 -2.24788 -6.05095 0
M  V30 22554 H 2131.71 -4.02208 -7.12861 0
M  V30 22555 N 2134.38 1.55765 -0.239796 0
M  V30 22556 C 2135.62 2.00673 0.38854 0
M  V30 22557 C 2135.98 1.12423 1.55644 0
M  V30 22558 O 2137.18 1.46756 2.25202 0
M  V30 22559 C 2135.45 3.48451 0.794775 0
M  V30 22560 S 2137.01 4.15371 1.41464 0
M  V30 22561 H 2133.83 0.700356 0.122567 0
M  V30 22562 H 2136.43 1.9228 -0.353365 0
M  V30 22563 H 2135.14 4.10349 -0.0646279 0
M  V30 22564 H 2134.67 3.60756 1.56904 0
M  V30 22565 H 2136.68 4.16069 2.70372 0
M  V30 22566 N 2135.85 -0.0334016 1.57565 0
M  V30 22567 C 2136.79 -1.06286 2.03066 0
M  V30 22568 C 2137.8 -1.32726 0.942744 0
M  V30 22569 O 2138.99 -1.3029 1.22012 0
M  V30 22570 C 2136.09 -2.40547 2.38727 0
M  V30 22571 C 2135.26 -2.33524 3.69845 0
M  V30 22572 C 2134.32 -3.50199 3.92743 0
M  V30 22573 O 2133.35 -3.29889 4.63856 0
M  V30 22574 N 2134.55 -4.71916 3.38047 0
M  V30 22575 H 2137.31 -0.675062 2.91998 0
M  V30 22576 H 2134.87 -0.221423 1.60379 0
M  V30 22577 H 2136.87 -3.17313 2.51186 0
M  V30 22578 H 2135.44 -2.71187 1.55488 0
M  V30 22579 H 2134.66 -1.41885 3.6778 0
M  V30 22580 H 2135.94 -2.2597 4.55867 0
M  V30 22581 H 2135.34 -4.91318 2.80398 0
M  V30 22582 H 2133.9 -5.46062 3.55893 0
M  V30 22583 N 2137.33 -1.54609 -0.305591 0
M  V30 22584 C 2138.61 -1.64344 -1.06068 0
M  V30 22585 C 2138.99 -0.488774 -2.05364 0
M  V30 22586 O 2138.34 0.515015 -2.2262 0
M  V30 22587 C 2138.55 -3.02149 -1.74663 0
M  V30 22588 C 2139.9 -3.58808 -2.27029 0
M  V30 22589 O 2140.92 -3.04571 -1.84703 0
M  V30 22590 O 2139.78 -4.53762 -3.04568 0
M  V30 22591 H 2136.87 -0.666216 -0.489984 0
M  V30 22592 H 2139.42 -1.66954 -0.304046 0
M  V30 22593 H 2138.19 -3.77626 -1.02538 0
M  V30 22594 H 2137.81 -3.03296 -2.57094 0
M  V30 22595 N 2138.81 0.568558 -1.46987 0
M  V30 22596 C 2139.76 1.6976 -1.5901 0
M  V30 22597 C 2140.75 1.63094 -0.457903 0
M  V30 22598 O 2141.96 1.68416 -0.635295 0
M  V30 22599 H 2138.33 0.561516 -0.500203 0
M  V30 22600 H 2140.3 1.56753 -2.53911 0
M  V30 22601 C 2139.05 3.08133 -1.61089 0
M  V30 22602 H 2138.38 3.13939 -2.47553 0
M  V30 22603 H 2139.82 3.86853 -1.73554 0
M  V30 22604 C 2138.28 3.35159 -0.342082 0
M  V30 22605 O 2138.81 3.97754 0.561684 0
M  V30 22606 N 2137.01 2.89723 -0.225608 0
M  V30 22607 H 2136.56 2.38964 -0.961979 0
M  V30 22608 H 2136.52 3.08177 0.622418 0
M  V30 22609 N 2140.29 1.34929 0.814366 0
M  V30 22610 C 2141.24 1.27211 1.92577 0
M  V30 22611 C 2142.21 0.145599 1.65461 0
M  V30 22612 O 2143.39 0.328007 1.87959 0
M  V30 22613 C 2140.53 1.04214 3.28989 0
M  V30 22614 C 2139.64 2.25716 3.68343 0
M  V30 22615 C 2138.78 1.95932 4.93745 0
M  V30 22616 C 2137.82 3.13531 5.25704 0
M  V30 22617 N 2136.95 2.83574 6.42285 0
M  V30 22618 H 2141.79 2.22255 1.98511 0
M  V30 22619 H 2139.33 1.10491 0.97109 0
M  V30 22620 H 2141.29 0.889147 4.07615 0
M  V30 22621 H 2139.92 0.128343 3.22545 0
M  V30 22622 H 2138.97 2.51906 2.85039 0
M  V30 22623 H 2140.28 3.13553 3.87925 0
M  V30 22624 H 2139.44 1.77419 5.80179 0
M  V30 22625 H 2138.18 1.05369 4.76181 0
M  V30 22626 H 2137.18 3.32631 4.37763 0
M  V30 22627 H 2138.41 4.04885 5.45202 0
M  V30 22628 H 2136.35 1.95596 6.26161 0
M  V30 22629 H 2136.27 3.64944 6.62081 0
M  V30 22630 H 2137.54 2.68584 7.31767 0
M  V30 22631 N 2141.77 -1.0356 1.18799 0
M  V30 22632 C 2143.01 -1.77235 0.997965 0
M  V30 22633 C 2143.37 -1.86646 -0.467003 0
M  V30 22634 O 2142.66 -1.36726 -1.34226 0
M  V30 22635 C 2142.85 -3.19959 1.59252 0
M  V30 22636 C 2142.68 -3.2446 3.11377 0
M  V30 22637 C 2141.45 -3.32796 3.8023 0
M  V30 22638 C 2143.65 -3.12053 4.08812 0
M  V30 22639 N 2141.63 -3.266 5.19813 0
M  V30 22640 C 2143 -3.13415 5.3495 0
M  V30 22641 C 2145.06 -2.96132 4.00263 0
M  V30 22642 C 2143.76 -3.00489 6.53528 0
M  V30 22643 C 2145.79 -2.84554 5.18443 0
M  V30 22644 C 2145.15 -2.86564 6.43475 0
M  V30 22645 H 2141.25 -0.660122 0.419241 0
M  V30 22646 H 2143.83 -1.23328 1.5066 0
M  V30 22647 H 2142 -3.72201 1.10999 0
M  V30 22648 H 2143.74 -3.81959 1.33751 0
M  V30 22649 H 2140.49 -3.38739 3.30988 0
M  V30 22650 H 2140.92 -3.26927 5.9283 0
M  V30 22651 H 2145.56 -2.93405 3.04423 0
M  V30 22652 H 2143.28 -3.01968 7.4956 0
M  V30 22653 H 2146.86 -2.73281 5.13623 0
M  V30 22654 H 2145.74 -2.77699 7.33385 0
M  V30 22655 N 2143.25 -0.990834 -1.22557 0
M  V30 22656 C 2144.49 -0.666519 -1.91534 0
M  V30 22657 C 2144.82 0.799165 -1.76994 0
M  V30 22658 O 2144.1 1.57769 -1.13751 0
M  V30 22659 C 2144.38 -1.07064 -3.43816 0
M  V30 22660 C 2144.24 -2.59473 -3.67415 0
M  V30 22661 C 2145.55 -0.622332 -4.35678 0
M  V30 22662 H 2142.67 -0.243613 -0.695573 0
M  V30 22663 H 2145.32 -1.23399 -1.44474 0
M  V30 22664 H 2143.47 -0.587797 -3.84028 0
M  V30 22665 H 2145.14 -3.15412 -3.3662 0
M  V30 22666 H 2143.38 -3.01635 -3.11767 0
M  V30 22667 H 2144.05 -2.828 -4.74055 0
M  V30 22668 H 2146.53 -1.03704 -4.0297 0
M  V30 22669 H 2145.4 -0.933416 -5.40905 0
M  V30 22670 H 2145.66 0.477057 -4.39519 0
M  V30 22671 N 2144.72 1.37856 -0.763775 0
M  V30 22672 C 2145.97 1.99126 -0.321223 0
M  V30 22673 C 2146.29 1.61318 1.10615 0
M  V30 22674 O 2147.49 2.15633 1.64969 0
M  V30 22675 C 2145.95 3.56074 -0.523371 0
M  V30 22676 C 2145.56 4.02826 -1.96049 0
M  V30 22677 C 2147.3 4.24256 -0.144043 0
M  V30 22678 C 2145.21 5.52454 -2.11066 0
M  V30 22679 H 2144.14 0.744968 -0.116357 0
M  V30 22680 H 2146.79 1.5749 -0.941769 0
M  V30 22681 H 2145.17 3.9565 0.166513 0
M  V30 22682 H 2146.34 3.74515 -2.68468 0
M  V30 22683 H 2144.66 3.47402 -2.29567 0
M  V30 22684 H 2147.26 5.34184 -0.234865 0
M  V30 22685 H 2147.6 4.06351 0.904676 0
M  V30 22686 H 2148.13 3.89954 -0.786169 0
M  V30 22687 H 2144.87 5.75275 -3.14228 0
M  V30 22688 H 2144.39 5.82474 -1.43121 0
M  V30 22689 H 2146.07 6.18305 -1.90546 0
M  V30 22690 N 2146.2 0.513665 1.48994 0
M  V30 22691 C 2147.61 0.0690541 1.86572 0
M  V30 22692 C 2147.96 -1.34882 1.42482 0
M  V30 22693 O 2147.09 -2.00738 0.808279 0
M  V30 22694 C 2147.68 0.118539 3.38593 0
M  V30 22695 C 2146.24 -0.270792 3.75425 0
M  V30 22696 C 2145.39 0.485519 2.73016 0
M  V30 22697 H 2148.34 0.725789 1.41131 0
M  V30 22698 H 2148.36 -0.673737 3.74488 0
M  V30 22699 H 2147.87 1.1506 3.70652 0
M  V30 22700 H 2145.97 -1.30561 3.48976 0
M  V30 22701 H 2146.09 0.0574672 4.79066 0
M  V30 22702 H 2144.45 -0.066227 2.54614 0
M  V30 22703 H 2145.23 1.5179 3.0792 0
M  V30 22704 N 2147.68 -1.55636 0.248053 0
M  V30 22705 C 2148.64 -2.2015 -0.637698 0
M  V30 22706 C 2149.64 -1.17112 -1.10188 0
M  V30 22707 O 2150.83 -1.42187 -1.00641 0
M  V30 22708 C 2147.96 -2.84598 -1.87661 0
M  V30 22709 H 2149.16 -2.99807 -0.0748129 0
M  V30 22710 H 2146.71 -1.563 -0.00148259 0
M  V30 22711 H 2147.45 -2.08882 -2.4807 0
M  V30 22712 H 2147.23 -3.60078 -1.55197 0
M  V30 22713 H 2148.72 -3.33968 -2.50709 0
M  V30 22714 N 2149.16 0.0250451 -1.5758 0
M  V30 22715 C 2150.07 1.04128 -2.10225 0
M  V30 22716 C 2151.08 1.39367 -1.04178 0
M  V30 22717 O 2152.26 1.48605 -1.35936 0
M  V30 22718 C 2149.32 2.32208 -2.5745 0
M  V30 22719 C 2148.39 2.03512 -3.77996 0
M  V30 22720 C 2147.62 3.25486 -4.22959 0
M  V30 22721 O 2147.84 4.36301 -3.6742 0
M  V30 22722 O 2146.78 3.1095 -5.15358 0
M  V30 22723 H 2150.6 0.623859 -2.97223 0
M  V30 22724 H 2148.19 0.242286 -1.47422 0
M  V30 22725 H 2150.07 3.07498 -2.88137 0
M  V30 22726 H 2148.74 2.73237 -1.73561 0
M  V30 22727 H 2147.65 1.25777 -3.52322 0
M  V30 22728 H 2148.98 1.67337 -4.62882 0
M  V30 22729 N 2150.64 1.54769 0.297388 0
M  V30 22730 C 2151.88 1.7596 1.04007 0
M  V30 22731 C 2152.24 0.536063 1.84365 0
M  V30 22732 O 2153.44 0.625778 2.61414 0
M  V30 22733 C 2151.71 3.01504 1.91911 0
M  V30 22734 S 2153.27 3.43713 2.72776 0
M  V30 22735 H 2150.09 0.618485 0.350709 0
M  V30 22736 H 2152.69 1.92977 0.31308 0
M  V30 22737 H 2151.39 3.88675 1.31758 0
M  V30 22738 H 2150.93 2.87085 2.68972 0
M  V30 22739 H 2152.94 3.01067 3.94427 0
M  V30 22740 N 2152.11 -0.560755 1.47286 0
M  V30 22741 C 2153.05 -1.68324 1.55562 0
M  V30 22742 C 2154.06 -1.56682 0.442105 0
M  V30 22743 O 2155.25 -1.63705 0.711545 0
M  V30 22744 C 2152.35 -3.06762 1.44049 0
M  V30 22745 C 2151.52 -3.44193 2.69907 0
M  V30 22746 C 2150.58 -4.6178 2.52281 0
M  V30 22747 O 2149.61 -4.66538 3.26084 0
M  V30 22748 N 2150.81 -5.5805 1.59876 0
M  V30 22749 H 2153.57 -1.61672 2.52353 0
M  V30 22750 H 2151.13 -0.747304 1.43621 0
M  V30 22751 H 2153.13 -3.83253 1.29997 0
M  V30 22752 H 2151.7 -3.0766 0.553546 0
M  V30 22753 H 2150.92 -2.57186 2.98746 0
M  V30 22754 H 2152.2 -3.65975 3.53468 0
M  V30 22755 H 2151.6 -5.56959 0.990593 0
M  V30 22756 H 2150.16 -6.33882 1.51778 0
M  V30 22757 N 2153.59 -1.35359 -0.807199 0
M  V30 22758 C 2154.84 -1.28788 -1.56657 0
M  V30 22759 C 2155.17 0.137625 -1.93712 0
M  V30 22760 O 2154.45 1.08685 -1.61301 0
M  V30 22761 C 2154.73 -2.19379 -2.85561 0
M  V30 22762 C 2154.58 -3.70543 -2.54986 0
M  V30 22763 C 2155.9 -2.0909 -3.87259 0
M  V30 22764 H 2153.02 -0.469169 -0.568374 0
M  V30 22765 H 2155.66 -1.65754 -0.928736 0
M  V30 22766 H 2153.81 -1.87984 -3.39992 0
M  V30 22767 H 2155.48 -4.12377 -2.06743 0
M  V30 22768 H 2153.73 -3.90855 -1.88189 0
M  V30 22769 H 2154.4 -4.29316 -3.46975 0
M  V30 22770 H 2156.87 -2.36687 -3.42226 0
M  V30 22771 H 2155.75 -2.74675 -4.75231 0
M  V30 22772 H 2156.01 -1.07265 -4.2889 0
M  V30 22773 N 2155.07 1.02928 -1.19346 0
M  V30 22774 C 2155.98 2.14674 -0.946161 0
M  V30 22775 C 2157 1.73748 0.0936895 0
M  V30 22776 O 2158.17 2.01195 -0.0908598 0
M  V30 22777 C 2155.24 3.43253 -0.487673 0
M  V30 22778 C 2154.3 3.98496 -1.59686 0
M  V30 22779 C 2153.53 5.20938 -1.16016 0
M  V30 22780 O 2153.75 5.70395 -0.0235541 0
M  V30 22781 O 2152.69 5.69006 -1.96254 0
M  V30 22782 H 2156.51 2.38399 -1.88148 0
M  V30 22783 H 2154.1 1.13092 -0.97625 0
M  V30 22784 H 2155.98 4.20713 -0.240612 0
M  V30 22785 H 2154.66 3.20974 0.41921 0
M  V30 22786 H 2153.56 3.22373 -1.89807 0
M  V30 22787 H 2154.9 4.25138 -2.48029 0
M  V30 22788 N 2156.55 0.997319 1.2203 0
M  V30 22789 C 2157.96 0.708807 1.42997 0
M  V30 22790 C 2158.16 -0.718903 1.88239 0
M  V30 22791 O 2157.22 -1.48925 2.03906 0
M  V30 22792 C 2158.53 1.71814 2.4678 0
M  V30 22793 C 2160.08 1.73408 2.60573 0
M  V30 22794 C 2160.56 2.73216 3.67582 0
M  V30 22795 N 2162.05 2.71837 3.75045 0
M  V30 22796 C 2162.78 3.45728 4.57449 0
M  V30 22797 N 2162.28 4.29233 5.43811 0
M  V30 22798 N 2164.07 3.34413 4.51801 0
M  V30 22799 H 2156.22 1.91932 0.909709 0
M  V30 22800 H 2158.48 0.828004 0.461642 0
M  V30 22801 H 2158.19 2.74 2.20492 0
M  V30 22802 H 2158.06 1.51457 3.45457 0
M  V30 22803 H 2160.45 0.719178 2.86202 0
M  V30 22804 H 2160.53 1.97835 1.62157 0
M  V30 22805 H 2160.18 3.74859 3.427 0
M  V30 22806 H 2160.11 2.46058 4.65578 0
M  V30 22807 H 2162.6 2.11248 3.13341 0
M  V30 22808 H 2162.91 4.82429 6.03723 0
M  V30 22809 H 2161.26 4.33319 5.43378 0
M  V30 22810 H 2164.45 2.68614 3.83359 0
M  V30 22811 H 2164.62 3.92257 5.15789 0
M  V30 22812 N 2158.03 -1.37449 0.771075 0
M  V30 22813 C 2159.3 -1.93866 0.259851 0
M  V30 22814 C 2159.68 -1.7048 -1.24498 0
M  V30 22815 O 2159.03 -1.05322 -2.0278 0
M  V30 22816 C 2159.24 -3.4322 0.63251 0
M  V30 22817 C 2160.59 -4.20312 0.601925 0
M  V30 22818 O 2161.61 -3.5158 0.571859 0
M  V30 22819 O 2160.47 -5.42875 0.628405 0
M  V30 22820 H 2157.57 -0.824843 0.0596922 0
M  V30 22821 H 2160.11 -1.4674 0.852382 0
M  V30 22822 H 2158.88 -3.53822 1.6711 0
M  V30 22823 H 2158.51 -3.97598 0.0128904 0
M  V30 22824 N 2159.5 -0.52156 -1.4872 0
M  V30 22825 C 2160.43 0.234741 -2.32317 0
M  V30 22826 C 2161.42 0.943119 -1.4156 0
M  V30 22827 O 2162.6 0.930536 -1.70454 0
M  V30 22828 C 2159.73 1.28724 -3.22564 0
M  V30 22829 C 2158.68 0.697518 -4.22278 0
M  V30 22830 C 2158.01 1.85205 -5.016 0
M  V30 22831 C 2159.31 -0.325174 -5.21287 0
M  V30 22832 H 2161 -0.463097 -2.95797 0
M  V30 22833 H 2158.55 -0.224154 -1.42245 0
M  V30 22834 H 2160.5 1.82422 -3.79869 0
M  V30 22835 H 2159.23 2.01455 -2.57067 0
M  V30 22836 H 2157.89 0.182131 -3.66147 0
M  V30 22837 H 2157.53 2.56754 -4.32535 0
M  V30 22838 H 2157.23 1.46343 -5.69085 0
M  V30 22839 H 2158.76 2.39297 -5.61755 0
M  V30 22840 H 2160.17 0.124406 -5.73165 0
M  V30 22841 H 2158.57 -0.630729 -5.96776 0
M  V30 22842 H 2159.64 -1.23392 -4.68938 0
M  V30 22843 N 2160.98 1.55502 -0.256304 0
M  V30 22844 C 2161.93 2.23175 0.655412 0
M  V30 22845 C 2162.92 1.22244 1.17272 0
M  V30 22846 O 2164.13 1.40229 1.12853 0
M  V30 22847 H 2160.51 0.716007 0.229866 0
M  V30 22848 H 2162.48 2.98336 0.0616012 0
M  V30 22849 C 2161.23 2.95209 1.83704 0
M  V30 22850 H 2160.55 3.72651 1.44814 0
M  V30 22851 H 2161.99 3.45909 2.452 0
M  V30 22852 C 2160.45 1.99611 2.71398 0
M  V30 22853 O 2160.98 1.53521 3.71207 0
M  V30 22854 N 2159.18 1.66511 2.38165 0
M  V30 22855 H 2158.73 2.04188 1.57051 0
M  V30 22856 H 2158.69 1.02816 2.97113 0
M  V30 22857 N 2162.46 -0.0166879 1.57591 0
M  V30 22858 C 2163.71 -0.704094 1.89012 0
M  V30 22859 C 2164.02 -1.75854 0.856437 0
M  V30 22860 O 2165.23 -2.4994 1.06029 0
M  V30 22861 C 2163.68 -1.30343 3.35468 0
M  V30 22862 C 2163.29 -0.284687 4.47095 0
M  V30 22863 C 2165.04 -1.96999 3.76021 0
M  V30 22864 C 2162.94 -0.893068 5.84618 0
M  V30 22865 H 2161.87 -0.266736 0.705243 0
M  V30 22866 H 2164.52 0.0411208 1.83454 0
M  V30 22867 H 2162.91 -2.09876 3.3581 0
M  V30 22868 H 2164.08 0.484835 4.58242 0
M  V30 22869 H 2162.4 0.280487 4.15454 0
M  V30 22870 H 2164.99 -2.43392 4.76093 0
M  V30 22871 H 2165.34 -2.79347 3.0866 0
M  V30 22872 H 2165.87 -1.24224 3.77906 0
M  V30 22873 H 2162.61 -0.108736 6.5541 0
M  V30 22874 H 2162.13 -1.63214 5.77167 0
M  V30 22875 H 2163.81 -1.39672 6.31744 0
M  V30 22876 N 2163.94 -1.54924 -0.289176 0
M  V30 22877 C 2164.9 -1.85935 -1.34017 0
M  V30 22878 C 2165.9 -0.732916 -1.43126 0
M  V30 22879 O 2167.09 -1.00116 -1.42556 0
M  V30 22880 C 2164.22 -2.0502 -2.72359 0
M  V30 22881 H 2165.42 -2.79872 -1.07758 0
M  V30 22882 H 2162.97 -1.47168 -0.526442 0
M  V30 22883 H 2163.7 -1.13412 -3.03823 0
M  V30 22884 H 2163.49 -2.8702 -2.67136 0
M  V30 22885 H 2164.98 -2.30342 -3.48328 0
M  V30 22886 N 2165.42 0.552936 -1.47582 0
M  V30 22887 C 2166.36 1.68064 -1.60802 0
M  V30 22888 C 2167.36 1.62599 -0.475175 0
M  V30 22889 O 2168.56 1.67733 -0.653122 0
M  V30 22890 H 2164.94 0.556179 -0.506131 0
M  V30 22891 H 2166.91 1.54051 -2.5556 0
M  V30 22892 C 2165.66 3.06407 -1.64348 0
M  V30 22893 H 2164.98 3.11295 -2.50869 0
M  V30 22894 H 2166.42 3.8499 -1.77647 0
M  V30 22895 C 2164.88 3.34777 -0.377611 0
M  V30 22896 O 2165.41 3.98327 0.519466 0
M  V30 22897 N 2163.62 2.89467 -0.256324 0
M  V30 22898 H 2163.16 2.3793 -0.98727 0
M  V30 22899 H 2163.12 3.0882 0.589696 0
M  V30 22900 N 2166.89 1.35785 0.800009 0
M  V30 22901 C 2168.12 1.32717 1.59377 0
M  V30 22902 C 2168.54 -0.0914251 1.87878 0
M  V30 22903 O 2167.9 -1.06023 1.47068 0
M  V30 22904 C 2167.95 2.14589 2.898 0
M  V30 22905 O 2167.05 1.53112 3.82924 0
M  V30 22906 H 2166.4 0.45473 0.483856 0
M  V30 22907 H 2168.93 1.7892 0.992412 0
M  V30 22908 H 2168.94 2.26784 3.39165 0
M  V30 22909 H 2167.61 3.17717 2.68382 0
M  V30 22910 H 2166.19 1.49795 3.41491 0
M  V30 22911 N 2168.37 -1.02294 1.19891 0
M  V30 22912 C 2169.62 -1.75196 0.999463 0
M  V30 22913 C 2169.93 -1.89874 -0.469823 0
M  V30 22914 O 2171.14 -2.59806 -0.788235 0
M  V30 22915 C 2169.6 -3.15074 1.73944 0
M  V30 22916 C 2169.2 -3.0843 3.24923 0
M  V30 22917 C 2170.95 -3.9223 1.62345 0
M  V30 22918 C 2168.86 -4.43277 3.91484 0
M  V30 22919 H 2167.79 -0.656782 0.370342 0
M  V30 22920 H 2170.44 -1.14434 1.43447 0
M  V30 22921 H 2168.82 -3.76339 1.23227 0
M  V30 22922 H 2169.99 -2.5651 3.82804 0
M  V30 22923 H 2168.31 -2.44769 3.36864 0
M  V30 22924 H 2170.9 -4.91983 2.09419 0
M  V30 22925 H 2171.25 -4.1226 0.578579 0
M  V30 22926 H 2171.78 -3.37579 2.1044 0
M  V30 22927 H 2168.52 -4.28451 4.96095 0
M  V30 22928 H 2168.04 -4.95228 3.38392 0
M  V30 22929 H 2169.72 -5.12142 3.95373 0
M  V30 22930 N 2169.85 -1.00378 -1.21499 0
M  V30 22931 C 2171.1 -0.681173 -1.8985 0
M  V30 22932 C 2171.41 0.791343 -1.78877 0
M  V30 22933 O 2172.62 1.22598 -2.42244 0
M  V30 22934 C 2171.07 -1.1679 -3.40424 0
M  V30 22935 C 2170.68 -2.6664 -3.6001 0
M  V30 22936 C 2172.43 -0.920124 -4.14408 0
M  V30 22937 C 2170.33 -3.0886 -5.04341 0
M  V30 22938 H 2169.26 -0.251086 -0.710965 0
M  V30 22939 H 2171.91 -1.21478 -1.37533 0
M  V30 22940 H 2170.3 -0.562349 -3.91987 0
M  V30 22941 H 2171.47 -3.32634 -3.18891 0
M  V30 22942 H 2169.79 -2.89419 -2.99376 0
M  V30 22943 H 2172.38 -1.21113 -5.20803 0
M  V30 22944 H 2172.73 0.143641 -4.16052 0
M  V30 22945 H 2173.26 -1.4884 -3.68906 0
M  V30 22946 H 2170 -4.14458 -5.07844 0
M  V30 22947 H 2169.52 -2.47577 -5.4632 0
M  V30 22948 H 2171.2 -3.00772 -5.7284 0
M  V30 22949 N 2171.33 1.37038 -0.778354 0
M  V30 22950 C 2172.29 2.28529 -0.175271 0
M  V30 22951 C 2173.29 1.48328 0.62093 0
M  V30 22952 O 2174.48 1.68459 0.443548 0
M  V30 22953 C 2171.61 3.32349 0.758757 0
M  V30 22954 H 2172.81 2.83372 -0.981858 0
M  V30 22955 H 2170.36 1.46415 -0.547012 0
M  V30 22956 H 2171.09 2.82642 1.5901 0
M  V30 22957 H 2170.88 3.9164 0.189916 0
M  V30 22958 H 2172.37 4.00701 1.17594 0
M  V30 22959 N 2172.81 0.529439 1.48441 0
M  V30 22960 C 2174.06 -0.00685445 2.01699 0
M  V30 22961 C 2174.37 -1.35375 1.41184 0
M  V30 22962 O 2175.58 -1.97838 1.85937 0
M  V30 22963 C 2174.03 -0.0626135 3.59846 0
M  V30 22964 C 2173.64 1.27936 4.29344 0
M  V30 22965 C 2175.38 -0.547764 4.20951 0
M  V30 22966 C 2173.29 1.18421 5.79422 0
M  V30 22967 H 2172.22 -0.00633228 0.753973 0
M  V30 22968 H 2174.87 0.673137 1.70708 0
M  V30 22969 H 2173.25 -0.80767 3.87676 0
M  V30 22970 H 2174.43 2.03994 4.13187 0
M  V30 22971 H 2172.74 1.7002 3.80108 0
M  V30 22972 H 2175.34 -0.636907 5.30893 0
M  V30 22973 H 2175.68 -1.55341 3.86232 0
M  V30 22974 H 2176.22 0.141593 3.97548 0
M  V30 22975 H 2172.95 2.16499 6.18715 0
M  V30 22976 H 2172.47 0.464988 5.97995 0
M  V30 22977 H 2174.15 0.874656 6.41061 0
M  V30 22978 N 2174.29 -1.55364 0.264547 0
M  V30 22979 C 2175.53 -1.98537 -0.355827 0
M  V30 22980 C 2175.85 -1.15624 -1.57767 0
M  V30 22981 O 2177.05 -1.48892 -2.27032 0
M  V30 22982 C 2175.51 -3.53332 -0.684446 0
M  V30 22983 C 2175.12 -4.45007 0.516993 0
M  V30 22984 C 2176.86 -4.05119 -1.26803 0
M  V30 22985 C 2174.77 -5.91174 0.163548 0
M  V30 22986 H 2173.7 -0.7415 -0.136725 0
M  V30 22987 H 2176.35 -1.79782 0.367539 0
M  V30 22988 H 2174.73 -3.67848 -1.46643 0
M  V30 22989 H 2175.91 -4.42256 1.29406 0
M  V30 22990 H 2174.22 -4.03797 1.0167 0
M  V30 22991 H 2176.82 -5.11859 -1.5461 0
M  V30 22992 H 2177.16 -3.53519 -2.19841 0
M  V30 22993 H 2177.69 -3.93999 -0.548571 0
M  V30 22994 H 2174.43 -6.46848 1.06153 0
M  V30 22995 H 2173.95 -5.97019 -0.576966 0
M  V30 22996 H 2175.63 -6.46524 -0.248012 0
M  V30 22997 N 2175.76 0.00833021 -1.57598 0
M  V30 22998 C 2176.73 0.9872 -2.0685 0
M  V30 22999 C 2177.73 1.27766 -0.976351 0
M  V30 23000 O 2178.92 1.22423 -1.23929 0
M  V30 23001 C 2176.05 2.31443 -2.50294 0
M  V30 23002 H 2177.24 0.561338 -2.946 0
M  V30 23003 H 2174.79 0.255625 -1.54195 0
M  V30 23004 H 2175.53 2.78735 -1.65763 0
M  V30 23005 H 2175.31 2.11684 -3.30049 0
M  V30 23006 H 2176.8 3.0168 -2.88754 0
M  V30 23007 N 2177.24 1.55075 0.280956 0
M  V30 23008 C 2178.19 1.8819 1.36702 0
M  V30 23009 C 2179.18 0.757458 1.51522 0
M  V30 23010 O 2180.39 0.941707 1.53401 0
M  V30 23011 H 2176.76 0.597182 0.457031 0
M  V30 23012 H 2178.74 2.78931 1.0602 0
M  V30 23013 C 2177.48 2.16344 2.72196 0
M  V30 23014 H 2176.81 3.0235 2.61581 0
M  V30 23015 H 2178.25 2.4344 3.4715 0
M  V30 23016 C 2176.71 0.968431 3.22681 0
M  V30 23017 O 2177.24 0.199029 4.01207 0
M  V30 23018 N 2175.44 0.768305 2.8026 0
M  V30 23019 H 2174.99 1.39565 2.16516 0
M  V30 23020 H 2174.95 -0.029657 3.14386 0
M  V30 23021 N 2178.72 -0.545102 1.47873 0
M  V30 23022 C 2179.97 -1.29811 1.54376 0
M  V30 23023 C 2180.28 -1.94404 0.215938 0
M  V30 23024 O 2181.49 -2.71034 0.159071 0
M  V30 23025 C 2179.94 -2.3546 2.72189 0
M  V30 23026 C 2179.55 -1.77003 4.11551 0
M  V30 23027 C 2181.3 -3.11865 2.87993 0
M  V30 23028 C 2179.2 -2.80503 5.20646 0
M  V30 23029 H 2178.13 -0.488142 0.574659 0
M  V30 23030 H 2180.78 -0.577531 1.74175 0
M  V30 23031 H 2179.17 -3.10486 2.45794 0
M  V30 23032 H 2180.34 -1.08268 4.479 0
M  V30 23033 H 2178.65 -1.13141 4.00734 0
M  V30 23034 H 2181.25 -3.89178 3.66666 0
M  V30 23035 H 2181.59 -3.668 1.96884 0
M  V30 23036 H 2182.13 -2.43952 3.14217 0
M  V30 23037 H 2178.87 -2.30408 6.13671 0
M  V30 23038 H 2178.39 -3.47612 4.888 0
M  V30 23039 H 2180.07 -3.43772 5.48115 0
M  V30 23040 N 2180.2 -1.36208 -0.792797 0
M  V30 23041 C 2181.45 -1.2958 -1.5457 0
M  V30 23042 C 2181.76 0.123772 -1.95208 0
M  V30 23043 O 2182.97 0.312401 -2.69697 0
M  V30 23044 C 2181.42 -2.27331 -2.79014 0
M  V30 23045 C 2181.03 -3.74707 -2.45558 0
M  V30 23046 C 2182.77 -2.29674 -3.57002 0
M  V30 23047 C 2180.68 -4.64243 -3.66377 0
M  V30 23048 H 2179.61 -0.481506 -0.580231 0
M  V30 23049 H 2182.26 -1.61551 -0.870256 0
M  V30 23050 H 2180.64 -1.88349 -3.4834 0
M  V30 23051 H 2181.82 -4.22404 -1.84151 0
M  V30 23052 H 2180.13 -3.75106 -1.80788 0
M  V30 23053 H 2182.73 -2.93779 -4.46764 0
M  V30 23054 H 2183.07 -1.30432 -3.95339 0
M  V30 23055 H 2183.61 -2.67255 -2.94652 0
M  V30 23056 H 2180.34 -5.64534 -3.33138 0
M  V30 23057 H 2179.86 -4.21264 -4.26963 0
M  V30 23058 H 2181.54 -4.80348 -4.33446 0
M  V30 23059 N 2181.68 1.01656 -1.20431 0
M  V30 23060 C 2182.9 1.79392 -1.04084 0
M  V30 23061 C 2183.33 1.83678 0.405466 0
M  V30 23062 O 2182.68 1.27186 1.29203 0
M  V30 23063 C 2182.73 3.21706 -1.62904 0
M  V30 23064 O 2181.84 4.0319 -0.866689 0
M  V30 23065 H 2181.18 0.553315 -0.367068 0
M  V30 23066 H 2183.71 1.27864 -1.59725 0
M  V30 23067 H 2183.72 3.72418 -1.6664 0
M  V30 23068 H 2182.39 3.17901 -2.68164 0
M  V30 23069 H 2180.97 3.61788 -0.903537 0
M  V30 23070 N 2183.15 1.01021 1.20965 0
M  V30 23071 C 2184.4 0.691231 1.89486 0
M  V30 23072 C 2184.72 -0.781846 1.79295 0
M  V30 23073 O 2185.92 -1.21312 2.4289 0
M  V30 23074 C 2184.38 1.18593 3.39799 0
M  V30 23075 C 2183.99 2.68546 3.5859 0
M  V30 23076 C 2185.73 0.942088 4.13914 0
M  V30 23077 C 2183.64 3.1153 5.02696 0
M  V30 23078 H 2182.57 0.254853 0.709624 0
M  V30 23079 H 2185.22 1.22205 1.36887 0
M  V30 23080 H 2183.6 0.583129 3.91683 0
M  V30 23081 H 2184.77 3.3432 3.17122 0
M  V30 23082 H 2183.09 2.91002 2.97837 0
M  V30 23083 H 2185.69 1.23873 5.20153 0
M  V30 23084 H 2186.03 -0.121574 4.16122 0
M  V30 23085 H 2186.56 1.50794 3.68111 0
M  V30 23086 H 2183.3 4.17145 5.05638 0
M  V30 23087 H 2182.82 2.50471 5.44999 0
M  V30 23088 H 2184.5 3.03805 5.71237 0
M  V30 23089 N 2184.63 -1.36623 0.78561 0
M  V30 23090 C 2185.59 -2.28433 0.187388 0
M  V30 23091 C 2186.59 -1.48655 -0.613055 0
M  V30 23092 O 2187.78 -1.68691 -0.434608 0
M  V30 23093 C 2184.92 -3.32746 -0.741121 0
M  V30 23094 H 2186.11 -2.82847 0.996872 0
M  V30 23095 H 2183.66 -1.46123 0.554769 0
M  V30 23096 H 2184.4 -2.83481 -1.57509 0
M  V30 23097 H 2184.18 -3.91735 -0.169144 0
M  V30 23098 H 2185.67 -4.01319 -1.15467 0
M  V30 23099 N 2186.11 -0.537304 -1.48158 0
M  V30 23100 C 2187.36 -0.00587084 -2.02099 0
M  V30 23101 C 2187.68 1.3407 -1.41599 0
M  V30 23102 O 2186.95 1.86993 -0.583977 0
M  V30 23103 H 2185.53 0.000818022 -0.747 0
M  V30 23104 H 2188.19 -0.702798 -1.81788 0
M  V30 23105 H 2187.29 0.0970321 -3.11949 0
M  V30 23106 N 2187.59 1.55221 -0.272782 0
M  V30 23107 C 2188.84 1.98722 0.345293 0
M  V30 23108 C 2189.15 1.16459 1.57151 0
M  V30 23109 O 2190.36 1.50094 2.26239 0
M  V30 23110 C 2188.81 3.5369 0.665698 0
M  V30 23111 C 2188.42 4.44727 -0.540586 0
M  V30 23112 C 2190.16 4.05786 1.24653 0
M  V30 23113 C 2188.07 5.91079 -0.194898 0
M  V30 23114 H 2187 0.742215 0.132791 0
M  V30 23115 H 2189.65 1.79584 -0.377069 0
M  V30 23116 H 2188.03 3.6862 1.4469 0
M  V30 23117 H 2189.21 4.41564 -1.3175 0
M  V30 23118 H 2187.52 4.03252 -1.0381 0
M  V30 23119 H 2190.12 5.12672 1.51893 0
M  V30 23120 H 2190.46 3.5468 2.17963 0
M  V30 23121 H 2191 3.94285 0.527668 0
M  V30 23122 H 2187.74 6.46276 -1.09582 0
M  V30 23123 H 2187.26 5.97316 0.545296 0
M  V30 23124 H 2188.93 6.46647 0.213722 0
M  V30 23125 N 2189.07 2.77022e-05 1.576 0
M  V30 23126 C 2190.32 -0.684007 1.89748 0
M  V30 23127 C 2190.63 -1.74935 0.875041 0
M  V30 23128 O 2191.83 -2.48802 1.08674 0
M  V30 23129 C 2190.29 -1.26778 3.36831 0
M  V30 23130 C 2189.9 -0.23725 4.47371 0
M  V30 23131 C 2191.64 -1.93 3.78089 0
M  V30 23132 C 2189.55 -0.831011 5.85532 0
M  V30 23133 H 2188.48 -0.259241 0.708033 0
M  V30 23134 H 2191.13 0.0605762 1.834 0
M  V30 23135 H 2189.51 -2.06303 3.38017 0
M  V30 23136 H 2190.69 0.53341 4.57702 0
M  V30 23137 H 2189 0.324536 4.15133 0
M  V30 23138 H 2191.6 -2.38328 4.78648 0
M  V30 23139 H 2191.94 -2.76058 3.11605 0
M  V30 23140 H 2192.47 -1.20209 3.79203 0
M  V30 23141 H 2189.21 -0.0392145 6.55488 0
M  V30 23142 H 2188.73 -1.57083 5.78865 0
M  V30 23143 H 2190.41 -1.32963 6.3319 0
M  V30 23144 N 2190.54 -1.55222 -0.272728 0
M  V30 23145 C 2191.79 -1.75841 -1.00429 0
M  V30 23146 C 2192.12 -0.559662 -1.86274 0
M  V30 23147 O 2191.37 0.457824 -1.90269 0
M  V30 23148 C 2191.67 -3.01679 -1.91637 0
M  V30 23149 C 2191.34 -4.34211 -1.2154 0
M  V30 23150 C 2190 -4.70231 -1.02158 0
M  V30 23151 C 2192.35 -5.1625 -0.716594 0
M  V30 23152 C 2189.68 -5.85847 -0.316231 0
M  V30 23153 C 2192.03 -6.32595 -0.0248364 0
M  V30 23154 C 2190.7 -6.67255 0.180696 0
M  V30 23155 H 2189.97 -0.643449 -0.367497 0
M  V30 23156 H 2192.61 -1.89492 -0.276563 0
M  V30 23157 H 2190.92 -2.82929 -2.71032 0
M  V30 23158 H 2192.62 -3.14828 -2.48363 0
M  V30 23159 H 2189.21 -4.05899 -1.37638 0
M  V30 23160 H 2193.39 -4.88898 -0.853961 0
M  V30 23161 H 2188.65 -6.11225 -0.14627 0
M  V30 23162 H 2192.82 -6.95419 0.369433 0
M  V30 23163 H 2190.45 -7.56694 0.729231 0
M  V30 23164 N 2192.02 0.537252 -1.4816 0
M  V30 23165 C 2193.27 1.29538 -1.56038 0
M  V30 23166 C 2193.6 1.92828 -0.230411 0
M  V30 23167 O 2192.88 1.78913 0.762921 0
M  V30 23168 C 2193.16 2.39029 -2.69327 0
M  V30 23169 C 2193.01 1.80478 -4.12005 0
M  V30 23170 C 2194.33 3.40842 -2.78414 0
M  V30 23171 H 2191.45 0.469622 -0.568 0
M  V30 23172 H 2194.09 0.599245 -1.80303 0
M  V30 23173 H 2192.24 2.98407 -2.48768 0
M  V30 23174 H 2193.91 1.25207 -4.43983 0
M  V30 23175 H 2192.16 1.11048 -4.19346 0
M  V30 23176 H 2192.83 2.59722 -4.87082 0
M  V30 23177 H 2195.3 2.9141 -2.97017 0
M  V30 23178 H 2194.18 4.14857 -3.59423 0
M  V30 23179 H 2194.44 4.00941 -1.86276 0
M  V30 23180 N 2193.5 1.36626 0.785562 0
M  V30 23181 C 2194.75 1.30398 1.5388 0
M  V30 23182 C 2195.06 -0.113418 1.95271 0
M  V30 23183 O 2196.27 -0.298094 2.69859 0
M  V30 23184 C 2194.72 2.28807 2.77804 0
M  V30 23185 C 2194.33 3.76004 2.43568 0
M  V30 23186 C 2196.08 2.31564 3.55779 0
M  V30 23187 C 2193.98 4.66179 3.6391 0
M  V30 23188 H 2192.91 0.484576 0.57767 0
M  V30 23189 H 2195.56 1.6201 0.861677 0
M  V30 23190 H 2193.95 1.90194 3.47336 0
M  V30 23191 H 2195.12 4.23375 1.81908 0
M  V30 23192 H 2193.44 3.76059 1.78797 0
M  V30 23193 H 2196.03 2.96144 4.452 0
M  V30 23194 H 2196.38 1.32527 3.94642 0
M  V30 23195 H 2196.91 2.68814 2.9323 0
M  V30 23196 H 2193.65 5.66293 3.3014 0
M  V30 23197 H 2193.17 4.23522 4.24722 0
M  V30 23198 H 2194.85 4.82639 4.30892 0
M  V30 23199 N 2194.98 -1.01016 1.20969 0
M  V30 23200 C 2196.21 -1.78043 1.04806 0
M  V30 23201 C 2196.62 -1.84805 -0.405429 0
M  V30 23202 O 2195.96 -1.30471 -1.29318 0
M  V30 23203 C 2196.02 -3.23705 1.56383 0
M  V30 23204 C 2195.69 -3.40533 3.04773 0
M  V30 23205 C 2196.68 -3.29231 4.02371 0
M  V30 23206 C 2194.37 -3.66141 3.43869 0
M  V30 23207 C 2196.36 -3.43294 5.37055 0
M  V30 23208 C 2194.05 -3.79847 4.78706 0
M  V30 23209 C 2195.05 -3.68429 5.75108 0
M  V30 23210 O 2194.73 -3.81706 7.075 0
M  V30 23211 H 2194.47 -0.566543 0.368788 0
M  V30 23212 H 2197.02 -1.27994 1.60645 0
M  V30 23213 H 2195.25 -3.74865 0.949363 0
M  V30 23214 H 2196.94 -3.82387 1.36142 0
M  V30 23215 H 2197.71 -3.09377 3.73511 0
M  V30 23216 H 2193.58 -3.74113 2.69371 0
M  V30 23217 H 2197.13 -3.34299 6.12283 0
M  V30 23218 H 2193.03 -3.99204 5.07254 0
M  V30 23219 H 2193.79 -3.98685 7.14837 0
M  V30 23220 N 2196.46 -1.01661 -1.20428 0
M  V30 23221 C 2197.4 -0.586861 -2.23214 0
M  V30 23222 C 2198.37 0.393056 -1.61382 0
M  V30 23223 O 2199.56 0.292492 -1.88545 0
M  V30 23224 C 2196.7 0.0686858 -3.45032 0
M  V30 23225 C 2195.81 -0.955798 -4.21294 0
M  V30 23226 C 2194.95 -0.271301 -5.30507 0
M  V30 23227 C 2193.99 -1.28254 -5.98513 0
M  V30 23228 N 2193.12 -0.624713 -6.99315 0
M  V30 23229 H 2197.96 -1.468 -2.59333 0
M  V30 23230 H 2195.5 -0.734859 -1.27429 0
M  V30 23231 H 2197.46 0.465892 -4.14591 0
M  V30 23232 H 2196.09 0.913474 -3.09605 0
M  V30 23233 H 2195.14 -1.47116 -3.508 0
M  V30 23234 H 2196.45 -1.72487 -4.68027 0
M  V30 23235 H 2195.61 0.181403 -6.06429 0
M  V30 23236 H 2194.34 0.530078 -4.84811 0
M  V30 23237 H 2193.35 -1.74563 -5.21352 0
M  V30 23238 H 2194.57 -2.0852 -6.46294 0
M  V30 23239 H 2192.52 0.156798 -6.55813 0
M  V30 23240 H 2192.44 -1.33185 -7.44176 0
M  V30 23241 H 2193.71 -0.195599 -7.79255 0
M  V30 23242 N 2197.93 1.36205 -0.792844 0
M  V30 23243 C 2198.86 2.32573 -0.207894 0
M  V30 23244 C 2199.85 1.56815 0.659028 0
M  V30 23245 O 2201.03 1.84952 0.592143 0
M  V30 23246 C 2198.16 3.4106 0.655389 0
M  V30 23247 C 2197.11 4.27854 -0.111917 0
M  V30 23248 C 2196.44 5.27539 0.872181 0
M  V30 23249 C 2197.74 5.05784 -1.30308 0
M  V30 23250 H 2199.43 2.81743 -1.01299 0
M  V30 23251 H 2196.98 1.35459 -0.488564 0
M  V30 23252 H 2198.93 4.07469 1.07457 0
M  V30 23253 H 2197.66 2.90466 1.49323 0
M  V30 23254 H 2196.32 3.63005 -0.512116 0
M  V30 23255 H 2195.96 4.73217 1.70514 0
M  V30 23256 H 2195.66 5.86477 0.363188 0
M  V30 23257 H 2197.19 5.96821 1.28986 0
M  V30 23258 H 2198.6 5.65214 -0.959478 0
M  V30 23259 H 2197 5.7415 -1.7456 0
M  V30 23260 H 2198.07 4.37226 -2.0967 0
M  V30 23261 N 2199.41 0.545154 1.47871 0
M  V30 23262 C 2200.66 0.0166214 2.02493 0
M  V30 23263 C 2200.99 -1.32834 1.42076 0
M  V30 23264 O 2200.24 -1.87472 0.561492 0
M  V30 23265 C 2200.54 -0.138607 3.57131 0
M  V30 23266 C 2200.21 1.13392 4.36409 0
M  V30 23267 C 2198.87 1.48264 4.5779 0
M  V30 23268 C 2201.22 1.97772 4.82219 0
M  V30 23269 C 2198.55 2.67385 5.22228 0
M  V30 23270 C 2200.9 3.16086 5.47971 0
M  V30 23271 C 2199.57 3.51285 5.67587 0
M  V30 23272 H 2198.84 0.0060822 0.740975 0
M  V30 23273 H 2201.48 0.714238 1.77682 0
M  V30 23274 H 2199.79 -0.919105 3.80867 0
M  V30 23275 H 2201.48 -0.562712 3.97032 0
M  V30 23276 H 2198.07 0.852371 4.20039 0
M  V30 23277 H 2202.26 1.72141 4.6549 0
M  V30 23278 H 2197.51 2.94841 5.35611 0
M  V30 23279 H 2201.69 3.81765 5.82433 0
M  V30 23280 H 2199.32 4.43686 6.1729 0
M  V30 23281 N 2200.89 -1.55074 0.28101 0
M  V30 23282 C 2202.13 -2.01633 -0.335198 0
M  V30 23283 C 2202.49 -1.16511 -1.52608 0
M  V30 23284 O 2203.7 -1.52676 -2.21232 0
M  V30 23285 C 2201.97 -3.50436 -0.70211 0
M  V30 23286 S 2203.53 -4.18976 -1.30402 0
M  V30 23287 H 2200.34 -0.703359 -0.103955 0
M  V30 23288 H 2202.95 -1.91275 0.40422 0
M  V30 23289 H 2201.65 -4.10034 0.173402 0
M  V30 23290 H 2201.18 -3.64789 -1.47284 0
M  V30 23291 H 2203.2 -4.23091 -2.59245 0
M  V30 23292 N 2202.37 -0.00838561 -1.57598 0
M  V30 23293 C 2203.59 0.689069 -1.95619 0
M  V30 23294 C 2204.02 1.66045 -0.883782 0
M  V30 23295 O 2203.38 1.80616 0.15732 0
M  V30 23296 C 2203.43 1.38988 -3.32738 0
M  V30 23297 O 2202.53 2.50458 -3.27635 0
M  V30 23298 H 2201.87 0.182657 -0.638383 0
M  V30 23299 H 2204.4 -0.064072 -2.045 0
M  V30 23300 H 2204.41 1.7514 -3.68497 0
M  V30 23301 H 2203.09 0.677706 -4.10341 0
M  V30 23302 H 2201.66 2.16571 -3.03565 0
M  V30 23303 N 2203.85 1.55365 0.264492 0
M  V30 23304 C 2204.78 1.91838 1.33117 0
M  V30 23305 C 2205.76 0.781219 1.51099 0
M  V30 23306 O 2206.94 1.04006 1.64001 0
M  V30 23307 C 2204.07 2.19774 2.68918 0
M  V30 23308 C 2203.03 3.35576 2.65655 0
M  V30 23309 C 2202.35 3.49011 4.05087 0
M  V30 23310 C 2203.65 4.71743 2.24179 0
M  V30 23311 H 2205.35 2.81184 1.02839 0
M  V30 23312 H 2202.89 1.35288 0.493263 0
M  V30 23313 H 2204.85 2.43878 3.43659 0
M  V30 23314 H 2203.57 1.27236 3.00796 0
M  V30 23315 H 2202.23 3.11453 1.93371 0
M  V30 23316 H 2201.88 2.53924 4.34202 0
M  V30 23317 H 2201.58 4.26875 4.03797 0
M  V30 23318 H 2203.1 3.75417 4.81554 0
M  V30 23319 H 2204.52 4.95335 2.88646 0
M  V30 23320 H 2202.91 5.52583 2.34034 0
M  V30 23321 H 2203.98 4.6999 1.19319 0
M  V30 23322 N 2205.33 -0.529387 1.48443 0
M  V30 23323 C 2206.26 -1.64986 1.59098 0
M  V30 23324 C 2207.27 -1.55709 0.47524 0
M  V30 23325 O 2208.46 -1.62159 0.746109 0
M  V30 23326 C 2205.56 -3.03638 1.50524 0
M  V30 23327 C 2204.73 -3.3839 2.77148 0
M  V30 23328 C 2203.79 -4.56325 2.6202 0
M  V30 23329 O 2202.82 -4.59516 3.35907 0
M  V30 23330 N 2204.02 -5.54533 1.71677 0
M  V30 23331 H 2206.78 -1.56283 2.55726 0
M  V30 23332 H 2204.35 -0.716672 1.45174 0
M  V30 23333 H 2206.34 -3.80409 1.38098 0
M  V30 23334 H 2204.91 -3.06417 0.618681 0
M  V30 23335 H 2204.13 -2.50791 3.04134 0
M  V30 23336 H 2205.42 -3.58395 3.61152 0
M  V30 23337 H 2204.81 -5.54733 1.10851 0
M  V30 23338 H 2203.37 -6.3052 1.65189 0
M  V30 23339 N 2206.8 -1.37041 -0.778305 0
M  V30 23340 C 2208.05 -1.31626 -1.53359 0
M  V30 23341 C 2208.37 0.100797 -1.94739 0
M  V30 23342 O 2207.64 1.04344 -1.65799 0
M  V30 23343 H 2206.22 -0.484244 -0.568785 0
M  V30 23344 H 2208.88 -1.71459 -0.926712 0
M  V30 23345 H 2207.98 -1.951 -2.43603 0
M  V30 23346 N 2208.28 1.00373 -1.21503 0
M  V30 23347 C 2209.69 1.55619 -1.03149 0
M  V30 23348 C 2210.04 1.91904 0.408341 0
M  V30 23349 O 2209.17 1.73618 1.29174 0
M  V30 23350 C 2209.76 2.82771 -1.86617 0
M  V30 23351 C 2208.32 3.34498 -1.72591 0
M  V30 23352 C 2207.47 2.0768 -1.83751 0
M  V30 23353 H 2210.42 0.826057 -1.35506 0
M  V30 23354 H 2210.44 3.54703 -1.37716 0
M  V30 23355 H 2209.95 2.56331 -2.91403 0
M  V30 23356 H 2208.05 3.65871 -0.704941 0
M  V30 23357 H 2208.17 4.05833 -2.5463 0
M  V30 23358 H 2206.53 2.20736 -1.27073 0
M  V30 23359 H 2207.31 1.8365 -2.90048 0
M  V30 23360 N 2209.76 1.02298 1.19887 0
M  V30 23361 C 2210.99 0.734366 1.93108 0
M  V30 23362 C 2211.4 -0.709859 1.75379 0
M  V30 23363 O 2210.74 -1.49382 1.06915 0
M  V30 23364 C 2210.8 0.99833 3.4536 0
M  V30 23365 C 2210.47 2.43293 3.86856 0
M  V30 23366 C 2211.46 3.41404 3.92096 0
M  V30 23367 C 2209.15 2.77537 4.18663 0
M  V30 23368 C 2211.14 4.71817 4.28565 0
M  V30 23369 C 2208.83 4.08161 4.54806 0
M  V30 23370 C 2209.83 5.05111 4.5973 0
M  V30 23371 O 2209.52 6.33397 4.95039 0
M  V30 23372 H 2209.25 0.268467 0.620404 0
M  V30 23373 H 2211.8 1.36883 1.53141 0
M  V30 23374 H 2210.03 0.306713 3.85482 0
M  V30 23375 H 2211.72 0.700304 3.99813 0
M  V30 23376 H 2212.49 3.16286 3.67679 0
M  V30 23377 H 2208.37 2.02757 4.14018 0
M  V30 23378 H 2211.91 5.47487 4.32323 0
M  V30 23379 H 2207.81 4.33055 4.78679 0
M  V30 23380 H 2208.57 6.37781 5.13009 0
M  V30 23381 N 2211.24 -1.35782 0.800057 0
M  V30 23382 C 2212.46 -2.03728 0.388546 0
M  V30 23383 C 2212.89 -1.59911 -0.990453 0
M  V30 23384 O 2212.25 -0.772641 -1.64012 0
M  V30 23385 C 2212.29 -3.57489 0.472663 0
M  V30 23386 O 2211.4 -4.09154 -0.516388 0
M  V30 23387 H 2210.74 -0.643611 0.163282 0
M  V30 23388 H 2213.27 -1.73516 1.08413 0
M  V30 23389 H 2213.28 -4.0658 0.340102 0
M  V30 23390 H 2211.95 -3.88731 1.47855 0
M  V30 23391 H 2210.53 -3.71304 -0.344607 0
M  V30 23392 N 2212.72 -0.552988 -1.4758 0
M  V30 23393 C 2213.96 -0.0273058 -2.02082 0
M  V30 23394 C 2214.28 1.32561 -1.43013 0
M  V30 23395 O 2213.55 1.86363 -0.603778 0
M  V30 23396 H 2212.13 -0.00710495 -0.746966 0
M  V30 23397 H 2214.8 -0.72204 -1.81032 0
M  V30 23398 H 2213.89 0.0639403 -3.12034 0
M  V30 23399 N 2214.19 1.54923 -0.28923 0
M  V30 23400 C 2215.1 2.26749 0.601824 0
M  V30 23401 C 2216.12 1.29842 1.15832 0
M  V30 23402 O 2217.3 1.62804 1.18561 0
M  V30 23403 C 2214.36 2.98532 1.76294 0
M  V30 23404 C 2213.42 4.1095 1.2417 0
M  V30 23405 C 2212.65 4.793 2.34748 0
M  V30 23406 O 2212.88 4.46939 3.54404 0
M  V30 23407 O 2211.81 5.66954 2.02105 0
M  V30 23408 H 2215.64 3.03694 0.0195345 0
M  V30 23409 H 2213.22 1.49295 -0.0561131 0
M  V30 23410 H 2215.1 3.43596 2.43967 0
M  V30 23411 H 2213.78 2.24493 2.33205 0
M  V30 23412 H 2212.69 3.70312 0.531039 0
M  V30 23413 H 2214.02 4.86932 0.718166 0
M  V30 23414 N 2215.67 0.0167433 1.57591 0
M  V30 23415 C 2217.08 -0.523803 1.79202 0
M  V30 23416 C 2217.43 -1.72982 0.925826 0
M  V30 23417 O 2216.56 -2.15992 0.13283 0
M  V30 23418 C 2217.15 -0.957034 3.25002 0
M  V30 23419 C 2215.71 -1.44277 3.47651 0
M  V30 23420 C 2214.86 -0.401709 2.74375 0
M  V30 23421 H 2217.81 0.242844 1.56831 0
M  V30 23422 H 2217.83 -1.82213 3.34034 0
M  V30 23423 H 2217.34 -0.0790733 3.88019 0
M  V30 23424 H 2215.44 -2.34107 2.8987 0
M  V30 23425 H 2215.56 -1.45869 4.56354 0
M  V30 23426 H 2213.92 -0.867079 2.39487 0
M  V30 23427 H 2214.7 0.467573 3.40101 0
M  V30 23428 N 2217.15 -1.55503 -0.256249 0
M  V30 23429 C 2218.1 -1.89528 -1.3171 0
M  V30 23430 C 2219.07 -0.748505 -1.48279 0
M  V30 23431 O 2220.25 -1.00131 -1.62414 0
M  V30 23432 C 2217.39 -2.1873 -2.66929 0
M  V30 23433 C 2216.51 -3.46165 -2.58445 0
M  V30 23434 C 2215.64 -3.64982 -3.85955 0
M  V30 23435 C 2214.68 -4.86051 -3.7205 0
M  V30 23436 N 2213.82 -5.01438 -4.91431 0
M  V30 23437 H 2218.66 -2.80003 -1.01993 0
M  V30 23438 H 2216.19 -1.38614 -0.492389 0
M  V30 23439 H 2218.15 -2.33663 -3.45626 0
M  V30 23440 H 2216.78 -1.31471 -2.94814 0
M  V30 23441 H 2215.83 -3.39613 -1.71368 0
M  V30 23442 H 2217.15 -4.35003 -2.44077 0
M  V30 23443 H 2216.3 -3.79824 -4.73095 0
M  V30 23444 H 2215.04 -2.7436 -4.0321 0
M  V30 23445 H 2214.04 -4.71195 -2.83294 0
M  V30 23446 H 2215.27 -5.78125 -3.56299 0
M  V30 23447 H 2213.21 -4.1375 -5.09065 0
M  V30 23448 H 2213.13 -5.8435 -4.79658 0
M  V30 23449 H 2214.4 -5.20682 -5.80095 0
M  V30 23450 N 2218.63 0.521507 -1.48721 0
M  V30 23451 C 2220.04 1.10334 -1.50609 0
M  V30 23452 C 2220.39 1.94182 -0.280646 0
M  V30 23453 O 2219.52 2.07581 0.61147 0
M  V30 23454 C 2220.11 2.00768 -2.72906 0
M  V30 23455 C 2218.67 2.54153 -2.77639 0
M  V30 23456 C 2217.82 1.31302 -2.44244 0
M  V30 23457 H 2220.77 0.30636 -1.55715 0
M  V30 23458 H 2220.79 2.85174 -2.51905 0
M  V30 23459 H 2220.3 1.39714 -3.62079 0
M  V30 23460 H 2218.4 3.18903 -1.92695 0
M  V30 23461 H 2218.51 2.92707 -3.79288 0
M  V30 23462 H 2216.88 1.63158 -1.9558 0
M  V30 23463 H 2217.66 0.719884 -3.35667 0
M  V30 23464 N 2220.11 1.37452 0.771027 0
M  V30 23465 C 2221.05 1.33273 1.88433 0
M  V30 23466 C 2222.02 0.198165 1.64914 0
M  V30 23467 O 2223.21 0.387639 1.86821 0
M  V30 23468 C 2220.35 1.14627 3.25507 0
M  V30 23469 C 2219.46 2.3732 3.60975 0
M  V30 23470 C 2218.6 2.11541 4.87261 0
M  V30 23471 C 2217.64 3.30097 5.15463 0
M  V30 23472 N 2216.77 3.03864 6.32938 0
M  V30 23473 H 2221.61 2.28458 1.9134 0
M  V30 23474 H 2219.15 1.13525 0.935446 0
M  V30 23475 H 2221.11 1.01838 4.0458 0
M  V30 23476 H 2219.74 0.230893 3.21973 0
M  V30 23477 H 2218.79 2.60847 2.76881 0
M  V30 23478 H 2220.1 3.25736 3.77754 0
M  V30 23479 H 2219.26 1.95787 5.74241 0
M  V30 23480 H 2217.99 1.20465 4.72588 0
M  V30 23481 H 2217 3.46389 4.26959 0
M  V30 23482 H 2218.22 4.22025 5.32045 0
M  V30 23483 H 2216.17 2.15418 6.19622 0
M  V30 23484 H 2216.09 3.85823 6.50136 0
M  V30 23485 H 2217.36 2.91729 7.22852 0
M  V30 23486 N 2221.58 -0.997276 1.22033 0
M  V30 23487 C 2222.81 -1.77178 1.06844 0
M  V30 23488 C 2223.23 -1.8491 -0.381292 0
M  V30 23489 O 2222.58 -1.31607 -1.26435 0
M  V30 23490 C 2222.64 -3.20708 1.6682 0
M  V30 23491 O 2222.36 -3.13403 3.06121 0
M  V30 23492 C 2223.86 -4.14625 1.56846 0
M  V30 23493 H 2221.08 -0.556572 0.374792 0
M  V30 23494 H 2223.62 -1.25407 1.61535 0
M  V30 23495 H 2221.78 -3.69561 1.16203 0
M  V30 23496 H 2222.19 -4.03634 3.34933 0
M  V30 23497 H 2223.66 -5.13103 2.03541 0
M  V30 23498 H 2224.14 -4.3606 0.524231 0
M  V30 23499 H 2224.75 -3.71666 2.06747 0
M  V30 23500 N 2223.06 -1.02932 -1.19343 0
M  V30 23501 C 2224.01 -0.610503 -2.22579 0
M  V30 23502 C 2224.98 0.375917 -1.6179 0
M  V30 23503 O 2226.16 0.272478 -1.88844 0
M  V30 23504 C 2223.3 0.0320867 -3.45085 0
M  V30 23505 C 2222.42 -1.00043 -4.20256 0
M  V30 23506 C 2221.55 -0.327553 -5.30189 0
M  V30 23507 C 2220.59 -1.34595 -5.97119 0
M  V30 23508 N 2219.73 -0.698849 -6.98613 0
M  V30 23509 H 2224.57 -1.49542 -2.57762 0
M  V30 23510 H 2222.11 -0.748333 -1.26643 0
M  V30 23511 H 2224.06 0.421893 -4.15061 0
M  V30 23512 H 2222.69 0.880585 -3.10557 0
M  V30 23513 H 2221.75 -1.50829 -3.4922 0
M  V30 23514 H 2223.06 -1.77441 -4.66172 0
M  V30 23515 H 2222.21 0.117073 -6.06587 0
M  V30 23516 H 2220.95 0.478627 -4.85346 0
M  V30 23517 H 2219.96 -1.80083 -5.19471 0
M  V30 23518 H 2221.18 -2.15363 -6.44046 0
M  V30 23519 H 2219.13 0.0872318 -6.55942 0
M  V30 23520 H 2219.04 -1.41071 -7.42721 0
M  V30 23521 H 2220.31 -0.278239 -7.79003 0
M  V30 23522 N 2224.54 1.35356 -0.807246 0
M  V30 23523 C 2225.79 1.99044 -0.388498 0
M  V30 23524 C 2226.12 1.6389 1.04181 0
M  V30 23525 O 2225.39 0.902565 1.7229 0
M  V30 23526 C 2225.68 3.55514 -0.572846 0
M  V30 23527 C 2225.53 4.00464 -2.04814 0
M  V30 23528 C 2226.85 4.401 0.00106328 0
M  V30 23529 H 2223.97 0.723067 -0.142631 0
M  V30 23530 H 2226.61 1.60496 -1.0169 0
M  V30 23531 H 2224.76 3.88482 -0.0379108 0
M  V30 23532 H 2226.43 3.77903 -2.6455 0
M  V30 23533 H 2224.68 3.51349 -2.54433 0
M  V30 23534 H 2225.35 5.09333 -2.128 0
M  V30 23535 H 2227.82 4.13596 -0.455788 0
M  V30 23536 H 2226.7 5.48673 -0.157833 0
M  V30 23537 H 2226.96 4.2833 1.09481 0
M  V30 23538 N 2226.02 0.560807 1.47284 0
M  V30 23539 C 2227.43 0.128376 1.86258 0
M  V30 23540 C 2227.78 -1.30281 1.46701 0
M  V30 23541 O 2226.91 -1.98065 0.871733 0
M  V30 23542 C 2227.5 0.2262 3.38044 0
M  V30 23543 C 2226.06 -0.151217 3.76096 0
M  V30 23544 C 2225.21 0.572131 2.71334 0
M  V30 23545 H 2228.16 0.770322 1.38751 0
M  V30 23546 H 2228.18 -0.554256 3.76442 0
M  V30 23547 H 2227.69 1.26794 3.66804 0
M  V30 23548 H 2225.79 -1.19393 3.52953 0
M  V30 23549 H 2225.9 0.209849 4.7864 0
M  V30 23550 H 2224.27 0.01481 2.54696 0
M  V30 23551 H 2225.05 1.6151 3.02935 0
M  V30 23552 N 2227.5 -1.54768 0.297442 0
M  V30 23553 C 2228.41 -2.27065 -0.58979 0
M  V30 23554 C 2229.42 -1.30455 -1.15142 0
M  V30 23555 O 2230.6 -1.63431 -1.17696 0
M  V30 23556 C 2227.66 -2.99463 -1.74708 0
M  V30 23557 C 2226.72 -4.11603 -1.21989 0
M  V30 23558 C 2225.96 -4.80539 -2.32203 0
M  V30 23559 O 2226.18 -4.48812 -3.52028 0
M  V30 23560 O 2225.11 -5.68018 -1.99096 0
M  V30 23561 H 2228.94 -3.037 -0.00342861 0
M  V30 23562 H 2226.53 -1.49263 0.0640297 0
M  V30 23563 H 2228.41 -3.44885 -2.42141 0
M  V30 23564 H 2227.08 -2.25726 -2.32012 0
M  V30 23565 H 2225.99 -3.70588 -0.511393 0
M  V30 23566 H 2227.32 -4.87306 -0.692333 0
M  V30 23567 N 2228.97 -0.0251005 -1.5758 0
M  V30 23568 C 2230.39 0.331254 -1.56125 0
M  V30 23569 C 2230.59 1.73167 -1.03032 0
M  V30 23570 O 2229.65 2.43303 -0.675258 0
M  V30 23571 C 2230.96 0.183531 -3.00139 0
M  V30 23572 C 2232.51 0.256599 -3.11946 0
M  V30 23573 C 2232.98 0.137712 -4.57793 0
M  V30 23574 N 2234.47 0.194823 -4.6279 0
M  V30 23575 C 2235.21 0.126554 -5.7326 0
M  V30 23576 N 2234.7 0.0074311 -6.928 0
M  V30 23577 N 2236.5 0.180249 -5.61811 0
M  V30 23578 H 2228.65 -0.940904 -1.90423 0
M  V30 23579 H 2230.91 -0.362984 -0.875755 0
M  V30 23580 H 2230.62 -0.780987 -3.42919 0
M  V30 23581 H 2230.49 0.955384 -3.649 0
M  V30 23582 H 2232.88 1.21157 -2.69082 0
M  V30 23583 H 2232.96 -0.545561 -2.49915 0
M  V30 23584 H 2232.6 -0.813827 -5.01337 0
M  V30 23585 H 2232.53 0.958684 -5.178 0
M  V30 23586 H 2235.02 0.287201 -3.76807 0
M  V30 23587 H 2235.34 -0.0380786 -7.72791 0
M  V30 23588 H 2233.68 -0.0272952 -6.94995 0
M  V30 23589 H 2236.87 0.271685 -4.67311 0
M  V30 23590 H 2237.05 0.123583 -6.47882 0
M  V30 23591 N 2230.45 1.55637 0.247999 0
M  V30 23592 C 2231.87 1.48036 0.596457 0
M  V30 23593 C 2232.07 0.715073 1.88385 0
M  V30 23594 O 2231.12 0.243988 2.51318 0
M  V30 23595 C 2232.44 2.92434 0.700207 0
M  V30 23596 C 2233.99 3.02798 0.792606 0
M  V30 23597 C 2234.46 4.48501 0.927926 0
M  V30 23598 N 2235.95 4.52435 0.992824 0
M  V30 23599 C 2236.69 5.6242 1.11677 0
M  V30 23600 N 2236.18 6.82217 1.20633 0
M  V30 23601 N 2237.98 5.50214 1.14984 0
M  V30 23602 H 2230.13 2.03833 -0.597145 0
M  V30 23603 H 2232.39 0.925361 -0.205941 0
M  V30 23604 H 2232.1 3.51261 -0.17572 0
M  V30 23605 H 2231.97 3.42859 1.57249 0
M  V30 23606 H 2234.36 2.44053 1.65899 0
M  V30 23607 H 2234.44 2.55585 -0.104807 0
M  V30 23608 H 2234.08 5.07857 0.0661079 0
M  V30 23609 H 2234.01 4.93395 1.84036 0
M  V30 23610 H 2236.5 3.6615 0.934999 0
M  V30 23611 H 2236.82 7.61788 1.29995 0
M  V30 23612 H 2235.16 6.84979 1.17593 0
M  V30 23613 H 2238.35 4.55557 1.07635 0
M  V30 23614 H 2238.52 6.35967 1.24299 0
M  V30 23615 N 2231.93 -0.513613 1.48996 0
M  V30 23616 C 2233.18 -1.27039 1.58079 0
M  V30 23617 C 2233.51 -1.92437 0.261059 0
M  V30 23618 O 2232.79 -1.80104 -0.734361 0
M  V30 23619 C 2233.07 -2.34714 2.73096 0
M  V30 23620 C 2232.92 -1.739 4.14824 0
M  V30 23621 C 2234.24 -3.3637 2.83802 0
M  V30 23622 H 2231.36 -0.460526 0.575399 0
M  V30 23623 H 2234 -0.570484 1.81233 0
M  V30 23624 H 2232.15 -2.94412 2.53484 0
M  V30 23625 H 2233.82 -1.18128 4.45919 0
M  V30 23626 H 2232.07 -1.04362 4.21059 0
M  V30 23627 H 2232.74 -2.5194 4.91152 0
M  V30 23628 H 2235.21 -2.86648 3.01616 0
M  V30 23629 H 2234.09 -4.09086 3.65978 0
M  V30 23630 H 2234.35 -3.97927 1.92631 0
M  V30 23631 N 2233.41 -1.37859 -0.763727 0
M  V30 23632 C 2234.66 -1.33707 -1.52481 0
M  V30 23633 C 2234.99 0.075927 -1.94052 0
M  V30 23634 O 2234.26 1.03498 -1.64677 0
M  V30 23635 C 2234.55 -2.28353 -2.78437 0
M  V30 23636 C 2234.4 -3.78468 -2.43069 0
M  V30 23637 C 2235.72 -2.21304 -3.80411 0
M  V30 23638 H 2232.84 -0.487014 -0.55316 0
M  V30 23639 H 2235.48 -1.68625 -0.875532 0
M  V30 23640 H 2233.63 -1.98705 -3.33839 0
M  V30 23641 H 2235.3 -4.18746 -1.93519 0
M  V30 23642 H 2233.54 -3.96644 -1.75659 0
M  V30 23643 H 2234.22 -4.40138 -3.33141 0
M  V30 23644 H 2236.69 -2.47455 -3.34523 0
M  V30 23645 H 2235.57 -2.89656 -4.66252 0
M  V30 23646 H 2235.83 -1.20856 -4.2526 0
M  V30 23647 N 2234.89 0.990791 -1.22561 0
M  V30 23648 C 2235.85 2.06288 -0.998899 0
M  V30 23649 C 2236.85 1.60761 0.0354551 0
M  V30 23650 O 2238.04 1.7301 -0.203261 0
M  V30 23651 C 2235.17 3.37075 -0.509263 0
M  V30 23652 H 2236.37 2.27833 -1.95018 0
M  V30 23653 H 2233.92 1.16267 -1.04459 0
M  V30 23654 H 2234.65 3.21215 0.446279 0
M  V30 23655 H 2234.44 3.71455 -1.25554 0
M  V30 23656 H 2235.93 4.15949 -0.370961 0
M  V30 23657 N 2236.37 1.03564 1.18795 0
M  V30 23658 C 2237.3 0.580376 2.2173 0
M  V30 23659 C 2238.31 -0.347321 1.59052 0
M  V30 23660 O 2239.5 -0.142638 1.77929 0
M  V30 23661 C 2236.6 -0.172746 3.38459 0
M  V30 23662 C 2235.77 0.761572 4.30719 0
M  V30 23663 C 2234.83 0.0526472 5.26174 0
M  V30 23664 O 2233.86 0.681432 5.65106 0
M  V30 23665 N 2235.06 -1.21576 5.67626 0
M  V30 23666 H 2237.82 1.4657 2.61414 0
M  V30 23667 H 2235.39 0.915499 1.3353 0
M  V30 23668 H 2237.38 -0.656722 3.99336 0
M  V30 23669 H 2235.95 -0.959549 2.97509 0
M  V30 23670 H 2235.17 1.42551 3.67523 0
M  V30 23671 H 2236.46 1.39634 4.89265 0
M  V30 23672 H 2235.85 -1.74722 5.38041 0
M  V30 23673 H 2234.41 -1.6441 6.30724 0
M  V30 23674 N 2237.84 -1.34926 0.814413 0
M  V30 23675 C 2239.09 -1.98149 0.397671 0
M  V30 23676 C 2239.41 -1.6491 -1.04066 0
M  V30 23677 O 2238.68 -0.93551 -1.72119 0
M  V30 23678 H 2237.26 -0.732978 0.144056 0
M  V30 23679 H 2239.92 -1.64708 1.04198 0
M  V30 23680 H 2239.02 -3.07909 0.509743 0
M  V30 23681 N 2239.32 -0.56861 -1.46985 0
M  V30 23682 C 2240.73 -0.138252 -1.86187 0
M  V30 23683 C 2241.08 1.29501 -1.4739 0
M  V30 23684 O 2240.21 1.976 -0.882224 0
M  V30 23685 C 2240.8 -0.244124 -3.37919 0
M  V30 23686 C 2239.36 0.131269 -3.76171 0
M  V30 23687 C 2238.51 -0.586513 -2.71026 0
M  V30 23688 H 2241.46 -0.777669 -1.3834 0
M  V30 23689 H 2241.48 0.534285 -3.7673 0
M  V30 23690 H 2240.99 -1.28738 -3.66126 0
M  V30 23691 H 2239.09 1.17519 -3.53582 0
M  V30 23692 H 2239.21 -0.23523 -4.78522 0
M  V30 23693 H 2237.57 -0.028317 -2.54684 0
M  V30 23694 H 2238.35 -1.63114 -3.02074 0
M  V30 23695 N 2240.8 1.54608 -0.305646 0
M  V30 23696 C 2241.71 2.27375 0.57774 0
M  V30 23697 C 2242.73 1.31063 1.14448 0
M  V30 23698 O 2243.9 1.64052 1.16828 0
M  V30 23699 C 2240.97 3.00385 1.73118 0
M  V30 23700 C 2240.03 4.12244 1.19805 0
M  V30 23701 C 2239.26 4.81763 2.29651 0
M  V30 23702 O 2239.48 4.50673 3.49643 0
M  V30 23703 O 2238.42 5.69066 1.96081 0
M  V30 23704 H 2242.24 3.03697 -0.0126774 0
M  V30 23705 H 2239.83 1.49227 -0.0719446 0
M  V30 23706 H 2241.71 3.46164 2.40309 0
M  V30 23707 H 2240.39 2.26953 2.30811 0
M  V30 23708 H 2239.29 3.70854 0.491733 0
M  V30 23709 H 2240.63 4.87667 0.66648 0
M  V30 23710 N 2242.28 0.033457 1.57564 0
M  V30 23711 C 2243.19 -0.962535 2.13945 0
M  V30 23712 C 2244.2 -1.35404 1.09278 0
M  V30 23713 O 2245.38 -1.43457 1.41358 0
M  V30 23714 C 2242.44 -2.22492 2.65891 0
M  V30 23715 C 2241.51 -1.89343 3.85289 0
M  V30 23716 C 2240.74 -3.09564 4.34748 0
M  V30 23717 O 2240.96 -4.22364 3.8336 0
M  V30 23718 O 2239.9 -2.91609 5.26543 0
M  V30 23719 H 2243.72 -0.513116 2.99334 0
M  V30 23720 H 2241.31 -0.187404 1.4822 0
M  V30 23721 H 2243.19 -2.96592 2.99351 0
M  V30 23722 H 2241.86 -2.66607 1.83583 0
M  V30 23723 H 2240.77 -1.12614 3.56748 0
M  V30 23724 H 2242.1 -1.50042 4.68773 0
M  V30 23725 N 2243.76 -1.55766 -0.239741 0
M  V30 23726 C 2244.67 -1.94058 -1.31828 0
M  V30 23727 C 2245.68 -0.841952 -1.52273 0
M  V30 23728 O 2246.86 -1.14397 -1.65757 0
M  V30 23729 C 2243.92 -2.23372 -2.65152 0
M  V30 23730 C 2242.98 -3.46706 -2.53167 0
M  V30 23731 C 2242.22 -3.74612 -3.80133 0
M  V30 23732 O 2242.44 -3.04477 -4.82338 0
M  V30 23733 O 2241.37 -4.6813 -3.78336 0
M  V30 23734 H 2245.2 -2.85937 -1.02342 0
M  V30 23735 H 2242.78 -1.4274 -0.441098 0
M  V30 23736 H 2244.67 -2.43503 -3.43925 0
M  V30 23737 H 2243.34 -1.34671 -2.94356 0
M  V30 23738 H 2242.25 -3.31874 -1.72656 0
M  V30 23739 H 2243.58 -4.35732 -2.28907 0
M  V30 23740 N 2245.23 0.505704 -1.49266 0
M  V30 23741 C 2246.48 1.26012 -1.58515 0
M  V30 23742 C 2246.81 1.9262 -0.269754 0
M  V30 23743 O 2246.06 1.81089 0.741965 0
M  V30 23744 C 2246.36 2.35303 -2.69012 0
M  V30 23745 C 2246.03 1.86185 -4.10665 0
M  V30 23746 C 2244.69 1.72508 -4.49215 0
M  V30 23747 C 2247.04 1.49366 -4.99339 0
M  V30 23748 C 2244.37 1.20384 -5.74216 0
M  V30 23749 C 2246.72 0.986962 -6.24853 0
M  V30 23750 C 2245.39 0.836553 -6.62237 0
M  V30 23751 H 2244.66 0.461112 -0.580049 0
M  V30 23752 H 2247.3 0.561633 -1.83079 0
M  V30 23753 H 2245.61 3.10921 -2.38401 0
M  V30 23754 H 2247.31 2.93369 -2.73378 0
M  V30 23755 H 2243.9 1.97788 -3.80234 0
M  V30 23756 H 2248.08 1.58782 -4.70215 0
M  V30 23757 H 2243.34 1.07447 -6.01885 0
M  V30 23758 H 2247.51 0.692861 -6.92945 0
M  V30 23759 H 2245.14 0.430474 -7.5898 0
M  V30 23760 N 2246.71 1.38262 0.756405 0
M  V30 23761 C 2247.96 1.34049 1.51245 0
M  V30 23762 C 2248.28 -0.069803 1.94875 0
M  V30 23763 O 2247.55 -1.01693 1.67438 0
M  V30 23764 H 2246.13 0.493232 0.561009 0
M  V30 23765 H 2248.79 1.72911 0.899317 0
M  V30 23766 H 2247.89 1.98951 2.40468 0
M  V30 23767 N 2248.19 -0.984277 1.23084 0
M  V30 23768 C 2249.61 -1.24974 0.992659 0
M  V30 23769 C 2249.81 -1.99123 -0.308583 0
M  V30 23770 O 2248.86 -2.30581 -1.02901 0
M  V30 23771 C 2250.18 -2.05308 2.19702 0
M  V30 23772 C 2251.72 -2.18461 2.24151 0
M  V30 23773 C 2252.2 -3.02185 3.44163 0
M  V30 23774 N 2253.69 -3.09771 3.44378 0
M  V30 23775 C 2254.42 -3.74867 4.33892 0
M  V30 23776 N 2253.92 -4.41817 5.33638 0
M  V30 23777 N 2255.71 -3.71714 4.21646 0
M  V30 23778 H 2247.86 -0.487417 2.06732 0
M  V30 23779 H 2250.13 -0.277928 0.906344 0
M  V30 23780 H 2249.83 -1.58195 3.14113 0
M  V30 23781 H 2249.71 -3.0606 2.2047 0
M  V30 23782 H 2252.09 -2.64784 1.30282 0
M  V30 23783 H 2252.18 -1.17111 2.27417 0
M  V30 23784 H 2251.82 -2.56561 4.38337 0
M  V30 23785 H 2251.75 -4.03697 3.38137 0
M  V30 23786 H 2254.24 -2.6213 2.72206 0
M  V30 23787 H 2254.55 -4.89255 5.98205 0
M  V30 23788 H 2252.9 -4.40538 5.37542 0
M  V30 23789 H 2256.09 -3.18576 3.42968 0
M  V30 23790 H 2256.26 -4.22164 4.91611 0
M  V30 23791 N 2249.67 -1.04192 -1.18244 0
M  V30 23792 C 2250.89 -0.76603 -1.92735 0
M  V30 23793 C 2251.32 0.670879 -1.75729 0
M  V30 23794 O 2250.68 1.46484 -1.06827 0
M  V30 23795 C 2250.72 -1.13881 -3.42146 0
M  V30 23796 O 2249.83 -0.265026 -4.11548 0
M  V30 23797 H 2249.17 -0.281807 -0.601233 0
M  V30 23798 H 2251.7 -1.3921 -1.49939 0
M  V30 23799 H 2251.71 -1.10127 -3.92856 0
M  V30 23800 H 2250.38 -2.18558 -3.53844 0
M  V30 23801 H 2248.96 -0.362291 -3.71136 0
M  V30 23802 N 2251.15 1.34492 -0.821557 0
M  V30 23803 C 2252.4 1.97584 -0.40539 0
M  V30 23804 C 2252.71 1.65865 1.03674 0
M  V30 23805 O 2253.91 2.22436 1.55675 0
M  V30 23806 C 2252.37 3.53534 -0.673924 0
M  V30 23807 C 2251.98 3.94148 -2.12958 0
M  V30 23808 C 2253.72 4.23263 -0.323854 0
M  V30 23809 C 2251.63 5.43005 -2.34308 0
M  V30 23810 H 2250.56 0.739362 -0.147849 0
M  V30 23811 H 2253.21 1.53353 -1.00772 0
M  V30 23812 H 2251.59 3.96 -0.00144515 0
M  V30 23813 H 2252.77 3.62792 -2.84111 0
M  V30 23814 H 2251.08 3.37352 -2.44095 0
M  V30 23815 H 2253.68 5.32707 -0.461219 0
M  V30 23816 H 2254.02 4.09823 0.731514 0
M  V30 23817 H 2254.55 3.86269 -0.950854 0
M  V30 23818 H 2251.29 5.61429 -3.38345 0
M  V30 23819 H 2250.81 5.7588 -1.67697 0
M  V30 23820 H 2252.49 6.09667 -2.16599 0
M  V30 23821 N 2252.62 0.576397 1.46681 0
M  V30 23822 C 2253.55 -0.148356 2.33028 0
M  V30 23823 C 2254.54 -0.88993 1.44963 0
M  V30 23824 O 2255.72 -0.866632 1.7379 0
M  V30 23825 C 2252.85 -1.16664 3.27119 0
M  V30 23826 C 2251.8 -0.540311 4.24576 0
M  V30 23827 C 2251.13 -1.66461 5.08129 0
M  V30 23828 C 2252.43 0.518422 5.19721 0
M  V30 23829 H 2254.12 0.572561 2.93874 0
M  V30 23830 H 2251.67 0.276793 1.41315 0
M  V30 23831 H 2253.62 -1.68198 3.86377 0
M  V30 23832 H 2252.35 -1.91775 2.64367 0
M  V30 23833 H 2251.01 -0.0461124 3.66571 0
M  V30 23834 H 2250.65 -2.40523 4.41766 0
M  V30 23835 H 2250.35 -1.25121 5.74124 0
M  V30 23836 H 2251.88 -2.18283 5.7025 0
M  V30 23837 H 2253.29 0.0884066 5.73232 0
M  V30 23838 H 2251.69 0.851784 5.94024 0
M  V30 23839 H 2252.76 1.40711 4.64035 0
M  V30 23840 N 2254.1 -1.54444 0.313841 0
M  V30 23841 C 2255.05 -2.2399 -0.556511 0
M  V30 23842 C 2256.02 -1.22713 -1.11941 0
M  V30 23843 O 2257.2 -1.51369 -1.16155 0
M  V30 23844 C 2254.34 -2.99395 -1.7163 0
M  V30 23845 C 2253.46 -4.1547 -1.18357 0
M  V30 23846 C 2252.59 -4.78428 -2.30825 0
M  V30 23847 C 2251.63 -5.86625 -1.74751 0
M  V30 23848 N 2250.77 -6.43484 -2.80844 0
M  V30 23849 H 2255.61 -2.97969 0.0431417 0
M  V30 23850 H 2253.15 -1.47063 0.0330618 0
M  V30 23851 H 2255.1 -3.41353 -2.39862 0
M  V30 23852 H 2253.73 -2.27769 -2.28738 0
M  V30 23853 H 2252.79 -3.78363 -0.393096 0
M  V30 23854 H 2254.1 -4.93382 -0.733176 0
M  V30 23855 H 2253.25 -5.23305 -3.0698 0
M  V30 23856 H 2251.99 -3.99876 -2.79197 0
M  V30 23857 H 2251 -5.41159 -0.9709 0
M  V30 23858 H 2252.22 -6.67068 -1.27269 0
M  V30 23859 H 2250.17 -5.67809 -3.28525 0
M  V30 23860 H 2250.08 -7.1678 -2.40339 0
M  V30 23861 H 2251.35 -6.93017 -3.56857 0
M  V30 23862 N 2255.58 -0.0418125 -1.57545 0
M  V30 23863 C 2256.53 0.953686 -2.1215 0
M  V30 23864 C 2257.52 1.3285 -1.05106 0
M  V30 23865 O 2258.73 1.30925 -1.23526 0
M  V30 23866 H 2255.1 0.325377 -0.677963 0
M  V30 23867 H 2257.07 0.467939 -2.94708 0
M  V30 23868 C 2255.82 2.22252 -2.67394 0
M  V30 23869 H 2255.15 1.94288 -3.49417 0
M  V30 23870 H 2256.59 2.90088 -3.09232 0
M  V30 23871 C 2255.05 2.96088 -1.60729 0
M  V30 23872 O 2255.58 3.88677 -1.01455 0
M  V30 23873 N 2253.78 2.5865 -1.32471 0
M  V30 23874 H 2253.33 1.83434 -1.80859 0
M  V30 23875 H 2253.29 3.0836 -0.613304 0
M  V30 23876 N 2257.06 1.55891 0.231477 0
M  V30 23877 C 2258.01 1.92443 1.30646 0
M  V30 23878 C 2259 0.80528 1.49036 0
M  V30 23879 O 2260.21 0.990034 1.50327 0
M  V30 23880 H 2256.58 0.61142 0.437801 0
M  V30 23881 H 2258.55 2.82162 0.970923 0
M  V30 23882 C 2257.3 2.24894 2.65176 0
M  V30 23883 H 2256.62 3.10519 2.51829 0
M  V30 23884 H 2258.06 2.54361 3.39229 0
M  V30 23885 C 2256.52 1.0706 3.19437 0
M  V30 23886 O 2257.05 0.326569 4.0037 0
M  V30 23887 N 2255.26 0.857079 2.77673 0
M  V30 23888 H 2254.81 1.46383 2.11966 0
M  V30 23889 H 2254.76 0.0703775 3.14321 0
M  V30 23890 N 2258.54 -0.497781 1.49532 0
M  V30 23891 C 2259.76 -1.27564 1.62896 0
M  V30 23892 C 2260.18 -1.86375 0.301618 0
M  V30 23893 O 2259.54 -1.67983 -0.713305 0
M  V30 23894 C 2259.59 -2.4036 2.70018 0
M  V30 23895 O 2259.31 -1.83965 3.97603 0
M  V30 23896 C 2260.81 -3.3168 2.94115 0
M  V30 23897 H 2258.03 -0.386785 0.548305 0
M  V30 23898 H 2260.57 -0.597211 1.95585 0
M  V30 23899 H 2258.73 -3.04027 2.40097 0
M  V30 23900 H 2259.14 -2.58039 4.56635 0
M  V30 23901 H 2260.62 -4.07097 3.72795 0
M  V30 23902 H 2261.09 -3.88868 2.04153 0
M  V30 23903 H 2261.7 -2.73775 3.25464 0
M  V30 23904 N 2260.01 -1.38661 -0.749062 0
M  V30 23905 C 2261.25 -1.36536 -1.52109 0
M  V30 23906 C 2261.62 0.0431978 -1.91951 0
M  V30 23907 O 2262.82 0.189349 -2.68132 0
M  V30 23908 C 2261.09 -2.29833 -2.737 0
M  V30 23909 S 2262.65 -2.45769 -3.63515 0
M  V30 23910 H 2259.47 -0.484385 -0.520473 0
M  V30 23911 H 2262.07 -1.74628 -0.878932 0
M  V30 23912 H 2260.77 -3.31058 -2.42546 0
M  V30 23913 H 2260.3 -1.92906 -3.42857 0
M  V30 23914 H 2262.32 -1.68513 -4.6671 0
M  V30 23915 N 2261.49 0.977736 -1.23605 0
M  V30 23916 C 2262.74 1.72193 -1.07132 0
M  V30 23917 C 2263.07 1.90234 0.390467 0
M  V30 23918 O 2262.35 1.45655 1.28899 0
M  V30 23919 C 2262.63 3.11864 -1.80037 0
M  V30 23920 C 2262.48 3.01377 -3.33904 0
M  V30 23921 C 2263.8 4.11334 -1.56499 0
M  V30 23922 H 2260.92 0.624992 -0.390582 0
M  V30 23923 H 2263.56 1.13808 -1.52144 0
M  V30 23924 H 2261.71 3.61707 -1.41775 0
M  V30 23925 H 2263.39 2.59036 -3.81704 0
M  V30 23926 H 2261.63 2.3782 -3.628 0
M  V30 23927 H 2262.3 4.00278 -3.80107 0
M  V30 23928 H 2264.78 3.70309 -1.89764 0
M  V30 23929 H 2263.65 5.07148 -2.09982 0
M  V30 23930 H 2263.91 4.39253 -0.500951 0
M  V30 23931 N 2262.97 1.04818 1.1769 0
M  V30 23932 C 2264.22 0.751165 1.87191 0
M  V30 23933 C 2264.53 -0.724409 1.81691 0
M  V30 23934 O 2265.74 -1.13523 2.46627 0
M  V30 23935 C 2264.2 1.29344 3.35854 0
M  V30 23936 C 2263.8 2.79818 3.49865 0
M  V30 23937 C 2265.55 1.07329 4.10707 0
M  V30 23938 C 2263.45 3.27365 4.9253 0
M  V30 23939 H 2262.38 0.2773 0.701157 0
M  V30 23940 H 2265.04 1.26498 1.3293 0
M  V30 23941 H 2263.42 0.707445 3.8963 0
M  V30 23942 H 2264.59 3.4424 3.06326 0
M  V30 23943 H 2262.91 3.0033 2.88428 0
M  V30 23944 H 2265.5 1.40359 5.15949 0
M  V30 23945 H 2265.85 0.0108732 4.16299 0
M  V30 23946 H 2266.38 1.62429 3.63127 0
M  V30 23947 H 2263.12 4.3302 4.92111 0
M  V30 23948 H 2262.64 2.67683 5.36755 0
M  V30 23949 H 2264.32 3.21825 5.61282 0
M  V30 23950 N 2264.45 -1.34055 0.828678 0
M  V30 23951 C 2265.68 -2.02326 0.432656 0
M  V30 23952 C 2266.09 -1.62387 -0.963119 0
M  V30 23953 O 2265.45 -0.83215 -1.62424 0
M  V30 23954 C 2265.5 -3.57566 0.531883 0
M  V30 23955 O 2265.22 -3.9606 1.87265 0
M  V30 23956 C 2266.72 -4.43105 0.1315 0
M  V30 23957 H 2263.94 -0.648332 0.172934 0
M  V30 23958 H 2266.49 -1.71206 1.11843 0
M  V30 23959 H 2264.64 -3.87255 -0.10587 0
M  V30 23960 H 2265.06 -4.90754 1.85096 0
M  V30 23961 H 2266.53 -5.51424 0.252001 0
M  V30 23962 H 2267.01 -4.29337 -0.92557 0
M  V30 23963 H 2267.61 -4.18755 0.74328 0
M  V30 23964 N 2265.93 -0.584167 -1.46374 0
M  V30 23965 C 2267.16 -0.075966 -2.0676 0
M  V30 23966 C 2267.57 1.22962 -1.43268 0
M  V30 23967 O 2266.93 1.74375 -0.538489 0
M  V30 23968 C 2266.98 0.0949749 -3.61375 0
M  V30 23969 O 2266.7 -1.15894 -4.22493 0
M  V30 23970 C 2268.2 0.637357 -4.38694 0
M  V30 23971 H 2265.42 -0.0581192 -0.668478 0
M  V30 23972 H 2267.96 -0.805251 -1.87979 0
M  V30 23973 H 2266.12 0.774487 -3.79579 0
M  V30 23974 H 2266.53 -0.973689 -5.15383 0
M  V30 23975 H 2268.01 0.70614 -5.47465 0
M  V30 23976 H 2268.48 1.65465 -4.06839 0
M  V30 23977 H 2269.09 -0.00733443 -4.25299 0
M  V30 23978 N 2267.41 1.54275 -0.322027 0
M  V30 23979 C 2268.65 2.00145 0.280454 0
M  V30 23980 C 2268.97 1.2118 1.52775 0
M  V30 23981 O 2268.24 0.313221 1.9338 0
M  V30 23982 H 2266.82 0.739352 0.106619 0
M  V30 23983 H 2269.49 1.8991 -0.438217 0
M  V30 23984 H 2268.58 3.07429 0.537917 0
M  V30 23985 N 2268.88 0.0501669 1.5752 0
M  V30 23986 C 2269.83 -0.942421 2.12653 0
M  V30 23987 C 2270.83 -1.32291 1.05809 0
M  V30 23988 O 2272.03 -1.30268 1.24219 0
M  V30 23989 H 2268.41 -0.321777 0.679679 0
M  V30 23990 H 2270.38 -0.452304 2.94952 0
M  V30 23991 C 2269.13 -2.20831 2.68568 0
M  V30 23992 H 2268.45 -1.92433 3.50442 0
M  V30 23993 H 2269.89 -2.88444 3.10767 0
M  V30 23994 C 2268.35 -2.95231 1.62297 0
M  V30 23995 O 2268.88 -3.88133 1.03515 0
M  V30 23996 N 2267.08 -2.57944 1.33841 0
M  V30 23997 H 2266.63 -1.82472 1.81829 0
M  V30 23998 H 2266.59 -3.0803 0.629649 0
M  V30 23999 N 2270.36 -1.56011 -0.223207 0
M  V30 24000 C 2271.61 -1.78594 -0.945971 0
M  V30 24001 C 2271.93 -0.618381 -1.84935 0
M  V30 24002 O 2271.2 0.364799 -1.92473 0
M  V30 24003 H 2269.78 -0.658713 -0.352287 0
M  V30 24004 H 2272.44 -1.93472 -0.23546 0
M  V30 24005 H 2271.54 -2.70675 -1.55376 0
M  V30 24006 N 2271.84 0.489844 -1.49794 0
M  V30 24007 C 2272.79 1.59011 -1.67284 0
M  V30 24008 C 2273.76 1.5794 -0.514204 0
M  V30 24009 O 2274.94 1.75757 -0.742564 0
M  V30 24010 C 2272.08 2.97099 -1.75574 0
M  V30 24011 C 2271.19 3.08102 -3.02816 0
M  V30 24012 C 2270.33 4.3699 -3.02016 0
M  V30 24013 C 2269.37 4.41666 -4.2379 0
M  V30 24014 N 2268.51 5.61998 -4.20836 0
M  V30 24015 H 2273.35 1.43405 -2.61226 0
M  V30 24016 H 2270.88 0.697542 -1.2951 0
M  V30 24017 H 2272.84 3.77152 -1.78361 0
M  V30 24018 H 2271.47 3.11384 -0.850882 0
M  V30 24019 H 2270.52 2.21041 -3.09588 0
M  V30 24020 H 2271.83 3.07416 -3.92806 0
M  V30 24021 H 2270.99 5.25373 -3.03427 0
M  V30 24022 H 2269.73 4.40256 -2.09823 0
M  V30 24023 H 2268.73 3.51683 -4.2261 0
M  V30 24024 H 2269.96 4.40106 -5.17188 0
M  V30 24025 H 2267.9 5.66086 -3.31486 0
M  V30 24026 H 2267.82 5.62976 -5.04574 0
M  V30 24027 H 2269.09 6.52558 -4.26367 0
M  V30 24028 N 2273.32 1.39056 0.741698 0
M  V30 24029 C 2274.56 1.35914 1.50112 0
M  V30 24030 C 2274.89 -0.0470596 1.94443 0
M  V30 24031 O 2274.15 -1.02656 1.66614 0
M  V30 24032 C 2274.45 2.27168 2.75916 0
M  V30 24033 C 2274.11 3.74923 2.50486 0
M  V30 24034 C 2272.77 4.15184 2.4326 0
M  V30 24035 C 2275.13 4.68404 2.28577 0
M  V30 24036 C 2272.45 5.46998 2.12156 0
M  V30 24037 C 2274.81 6.00488 1.98991 0
M  V30 24038 C 2273.47 6.3982 1.90229 0
M  V30 24039 H 2272.74 0.497346 0.549298 0
M  V30 24040 H 2275.39 1.71509 0.851866 0
M  V30 24041 H 2273.69 1.84669 3.4555 0
M  V30 24042 H 2275.39 2.22034 3.33919 0
M  V30 24043 H 2271.98 3.4301 2.56986 0
M  V30 24044 H 2276.16 4.38137 2.33131 0
M  V30 24045 H 2271.42 5.76401 2.0389 0
M  V30 24046 H 2275.59 6.72455 1.81045 0
M  V30 24047 H 2273.22 7.41878 1.65894 0
M  V30 24048 N 2274.8 -0.971167 1.24121 0
M  V30 24049 C 2276.02 -1.74872 1.10578 0
M  V30 24050 C 2276.44 -1.85677 -0.341984 0
M  V30 24051 O 2275.8 -1.3426 -1.23615 0
M  V30 24052 C 2275.85 -3.17097 1.73585 0
M  V30 24053 O 2275.57 -3.06839 3.127 0
M  V30 24054 C 2277.07 -4.11205 1.65605 0
M  V30 24055 H 2274.29 -0.548496 0.386513 0
M  V30 24056 H 2276.83 -1.21952 1.64158 0
M  V30 24057 H 2274.99 -3.67014 1.24015 0
M  V30 24058 H 2275.4 -3.96439 3.43419 0
M  V30 24059 H 2276.88 -5.08671 2.14379 0
M  V30 24060 H 2277.35 -4.3485 0.616608 0
M  V30 24061 H 2277.96 -3.67197 2.14584 0
M  V30 24062 N 2276.27 -1.05441 -1.17133 0
M  V30 24063 C 2277.52 -0.764462 -1.87084 0
M  V30 24064 C 2277.84 0.710755 -1.81585 0
M  V30 24065 O 2277.11 1.51372 -1.24352 0
M  V30 24066 H 2275.69 -0.279791 -0.692622 0
M  V30 24067 H 2278.36 -1.33409 -1.42085 0
M  V30 24068 H 2277.45 -1.08165 -2.92757 0
M  V30 24069 N 2277.75 1.33613 -0.835776 0
M  V30 24070 C 2278.68 2.31794 -0.28178 0
M  V30 24071 C 2279.66 1.58832 0.608805 0
M  V30 24072 O 2280.85 1.86742 0.533002 0
M  V30 24073 C 2277.98 3.42972 0.546552 0
M  V30 24074 C 2276.93 4.27281 -0.247979 0
M  V30 24075 C 2276.26 5.30046 0.703907 0
M  V30 24076 C 2277.56 5.01382 -1.46333 0
M  V30 24077 H 2279.25 2.78377 -1.10211 0
M  V30 24078 H 2276.8 1.33836 -0.531412 0
M  V30 24079 H 2278.75 4.10681 0.944395 0
M  V30 24080 H 2277.48 2.95069 1.40006 0
M  V30 24081 H 2276.13 3.61192 -0.627345 0
M  V30 24082 H 2275.78 4.78402 1.55373 0
M  V30 24083 H 2275.48 5.87335 0.176421 0
M  V30 24084 H 2277.01 6.00622 1.09933 0
M  V30 24085 H 2278.42 5.61875 -1.13881 0
M  V30 24086 H 2276.82 5.68306 -1.92738 0
M  V30 24087 H 2277.89 4.30334 -2.23474 0
M  V30 24088 N 2279.23 0.591922 1.46062 0
M  V30 24089 C 2280.48 0.0808746 2.01938 0
M  V30 24090 C 2280.8 -1.28722 1.46477 0
M  V30 24091 O 2280.07 -1.84697 0.652976 0
M  V30 24092 H 2278.65 0.0269069 0.746515 0
M  V30 24093 H 2281.31 0.769783 1.79054 0
M  V30 24094 H 2280.41 0.0188126 3.12094 0
M  V30 24095 N 2280.71 -1.54102 0.330204 0
M  V30 24096 C 2281.96 -1.99867 -0.271301 0
M  V30 24097 C 2282.27 -1.22212 -1.52721 0
M  V30 24098 O 2283.48 -1.58387 -2.20513 0
M  V30 24099 C 2281.93 -3.55917 -0.53397 0
M  V30 24100 C 2281.54 -4.42414 0.705271 0
M  V30 24101 C 2283.28 -4.10132 -1.09506 0
M  V30 24102 C 2281.19 -5.89948 0.414138 0
M  V30 24103 H 2280.12 -0.746632 -0.105153 0
M  V30 24104 H 2282.77 -1.78061 0.44346 0
M  V30 24105 H 2281.15 -3.73736 -1.30909 0
M  V30 24106 H 2282.33 -4.3637 1.48047 0
M  V30 24107 H 2280.64 -3.99122 1.18705 0
M  V30 24108 H 2283.24 -5.17956 -1.32761 0
M  V30 24109 H 2283.58 -3.62525 -2.04649 0
M  V30 24110 H 2284.12 -3.95972 -0.380969 0
M  V30 24111 H 2280.86 -6.41763 1.33492 0
M  V30 24112 H 2280.38 -5.98928 -0.323231 0
M  V30 24113 H 2282.05 -6.46995 0.0264242 0
M  V30 24114 N 2282.19 -0.0585199 -1.57491 0
M  V30 24115 C 2283.14 0.923151 -2.08475 0
M  V30 24116 C 2284.12 1.2672 -0.991501 0
M  V30 24117 O 2285.31 1.2484 -1.25475 0
M  V30 24118 C 2282.44 2.19543 -2.63923 0
M  V30 24119 C 2281.53 1.87845 -3.8023 0
M  V30 24120 N 2281.92 1.26538 -4.89716 0
M  V30 24121 C 2280.22 2.17672 -3.89275 0
M  V30 24122 C 2280.92 1.12634 -5.70691 0
M  V30 24123 N 2279.89 1.63167 -5.18534 0
M  V30 24124 H 2283.7 0.444602 -2.90518 0
M  V30 24125 H 2281.21 0.145736 -1.61745 0
M  V30 24126 H 2283.21 2.90775 -2.98757 0
M  V30 24127 H 2281.87 2.67998 -1.83322 0
M  V30 24128 H 2282.88 0.936668 -5.09359 0
M  V30 24129 H 2279.55 2.68597 -3.19628 0
M  V30 24130 H 2280.94 0.649782 -6.68751 0
M  V30 24131 N 2283.66 1.56128 0.21493 0
M  V30 24132 C 2284.94 1.70248 0.963063 0
M  V30 24133 C 2285.32 0.607676 2.02165 0
M  V30 24134 O 2284.67 -0.384345 2.25244 0
M  V30 24135 C 2284.88 3.11818 1.5675 0
M  V30 24136 C 2286.23 3.71434 2.05723 0
M  V30 24137 O 2287.25 3.14821 1.66631 0
M  V30 24138 O 2286.11 4.70748 2.77595 0
M  V30 24139 H 2283.2 0.693651 0.450309 0
M  V30 24140 H 2285.75 1.68443 0.206189 0
M  V30 24141 H 2284.52 3.82962 0.803465 0
M  V30 24142 H 2284.15 3.17769 2.38974 0
M  V30 24143 N 2285.14 -0.481893 1.50052 0
M  V30 24144 C 2286.56 -0.814732 1.37238 0
M  V30 24145 C 2286.76 -1.97071 0.420144 0
M  V30 24146 O 2285.81 -2.52105 -0.141201 0
M  V30 24147 C 2287.13 -1.13696 2.78377 0
M  V30 24148 C 2288.68 -1.24405 2.87215 0
M  V30 24149 C 2289.15 -1.59946 4.29163 0
M  V30 24150 N 2290.64 -1.66959 4.32064 0
M  V30 24151 C 2291.38 -1.95942 5.38882 0
M  V30 24152 N 2290.87 -2.2302 6.55922 0
M  V30 24153 N 2292.67 -1.97354 5.26315 0
M  V30 24154 H 2284.82 0.280087 2.10545 0
M  V30 24155 H 2287.08 0.062762 0.94592 0
M  V30 24156 H 2286.79 -0.360725 3.49845 0
M  V30 24157 H 2286.66 -2.07581 3.14945 0
M  V30 24158 H 2289.05 -2.01097 2.15972 0
M  V30 24159 H 2289.13 -0.285254 2.54205 0
M  V30 24160 H 2288.77 -0.837979 5.00939 0
M  V30 24161 H 2288.7 -2.56958 4.59652 0
M  V30 24162 H 2291.19 -1.48117 3.47663 0
M  V30 24163 H 2291.51 -2.44378 7.33143 0
M  V30 24164 H 2289.85 -2.20435 6.59116 0
M  V30 24165 H 2293.04 -1.75689 4.33879 0
M  V30 24166 H 2293.21 -2.19607 6.09653 0
M  V30 24167 N 2286.62 -1.39448 -0.734313 0
M  V30 24168 C 2287.87 -1.3602 -1.48935 0
M  V30 24169 C 2288.18 0.0408662 -1.95557 0
M  V30 24170 O 2289.39 0.197733 -2.70779 0
M  V30 24171 C 2287.84 -2.3896 -2.69121 0
M  V30 24172 C 2287.45 -3.84784 -2.29445 0
M  V30 24173 C 2289.2 -2.44609 -3.46939 0
M  V30 24174 C 2287.1 -4.79365 -3.46358 0
M  V30 24175 H 2286.03 -0.505682 -0.559287 0
M  V30 24176 H 2288.68 -1.65097 -0.800954 0
M  V30 24177 H 2287.07 -2.02954 -3.40038 0
M  V30 24178 H 2288.24 -4.29834 -1.6607 0
M  V30 24179 H 2286.56 -3.82436 -1.64716 0
M  V30 24180 H 2289.15 -3.12464 -4.33902 0
M  V30 24181 H 2289.5 -1.47082 -3.89451 0
M  V30 24182 H 2290.03 -2.79512 -2.83051 0
M  V30 24183 H 2286.77 -5.78156 -3.08895 0
M  V30 24184 H 2286.29 -4.38993 -4.08711 0
M  V30 24185 H 2287.97 -4.98299 -4.12683 0
M  V30 24186 N 2288.1 0.964571 -1.24635 0
M  V30 24187 C 2289.03 2.07739 -1.06614 0
M  V30 24188 C 2290.01 1.70086 0.0218367 0
M  V30 24189 O 2291.19 1.93652 -0.145827 0
M  V30 24190 C 2288.32 3.40707 -0.673503 0
M  V30 24191 C 2287.28 3.92329 -1.71061 0
M  V30 24192 C 2286.6 5.21676 -1.17294 0
M  V30 24193 C 2287.9 4.19818 -3.10725 0
M  V30 24194 H 2289.6 2.23073 -1.99697 0
M  V30 24195 H 2287.14 1.07193 -0.961539 0
M  V30 24196 H 2289.1 4.17998 -0.534418 0
M  V30 24197 H 2287.82 3.25283 0.293016 0
M  V30 24198 H 2286.48 3.17198 -1.83796 0
M  V30 24199 H 2286.13 5.02614 -0.196935 0
M  V30 24200 H 2285.83 5.57183 -1.86602 0
M  V30 24201 H 2287.35 6.01573 -1.04604 0
M  V30 24202 H 2288.77 4.87802 -3.01201 0
M  V30 24203 H 2287.16 4.6656 -3.77414 0
M  V30 24204 H 2288.23 3.26473 -3.5853 0
M  V30 24205 N 2289.58 1.0606 1.16572 0
M  V30 24206 C 2290.83 0.770977 1.86384 0
M  V30 24207 C 2291.14 -0.705097 1.82449 0
M  V30 24208 O 2292.34 -1.10901 2.47817 0
M  V30 24209 C 2290.8 1.32899 3.34464 0
M  V30 24210 C 2290.41 2.83513 3.46878 0
M  V30 24211 C 2292.15 1.1168 4.09546 0
M  V30 24212 C 2290.06 3.32571 4.8903 0
M  V30 24213 H 2288.99 0.284721 0.698176 0
M  V30 24214 H 2291.64 1.27901 1.31581 0
M  V30 24215 H 2290.02 0.748731 3.88857 0
M  V30 24216 H 2291.2 3.4747 3.02657 0
M  V30 24217 H 2289.51 3.03373 2.85226 0
M  V30 24218 H 2292.11 1.45823 5.14431 0
M  V30 24219 H 2292.45 0.0550267 4.16264 0
M  V30 24220 H 2292.98 1.66272 3.61384 0
M  V30 24221 H 2289.72 4.38216 4.87491 0
M  V30 24222 H 2289.24 2.73361 5.33886 0
M  V30 24223 H 2290.92 3.2776 5.57837 0
M  V30 24224 N 2291.06 -1.33168 0.84285 0
M  V30 24225 C 2292.3 -1.96914 0.436773 0
M  V30 24226 C 2292.62 -1.67493 -1.01022 0
M  V30 24227 O 2293.82 -2.24884 -1.52116 0
M  V30 24228 C 2292.28 -3.52417 0.730082 0
M  V30 24229 C 2291.89 -3.9071 2.19202 0
M  V30 24230 C 2293.63 -4.22694 0.391151 0
M  V30 24231 C 2291.54 -5.39208 2.42917 0
M  V30 24232 H 2290.47 -0.736917 0.159593 0
M  V30 24233 H 2293.12 -1.51731 1.03199 0
M  V30 24234 H 2291.5 -3.95948 0.0644451 0
M  V30 24235 H 2292.68 -3.58226 2.89846 0
M  V30 24236 H 2290.99 -3.33426 2.49431 0
M  V30 24237 H 2293.59 -5.31906 0.54591 0
M  V30 24238 H 2293.93 -4.10935 -0.666222 0
M  V30 24239 H 2294.46 -3.84707 1.01219 0
M  V30 24240 H 2291.2 -5.55976 3.47234 0
M  V30 24241 H 2290.72 -5.73139 1.76837 0
M  V30 24242 H 2292.4 -6.06144 2.2627 0
M  V30 24243 N 2292.53 -0.599659 -1.45746 0
M  V30 24244 C 2293.94 -0.177714 -1.85852 0
M  V30 24245 C 2294.3 1.26346 -1.50104 0
M  V30 24246 O 2293.42 1.95684 -0.92394 0
M  V30 24247 C 2294.02 -0.315747 -3.37325 0
M  V30 24248 C 2292.57 0.0514483 -3.76365 0
M  V30 24249 C 2291.72 -0.643869 -2.69721 0
M  V30 24250 H 2294.67 -0.806838 -1.36659 0
M  V30 24251 H 2294.69 0.454254 -3.77779 0
M  V30 24252 H 2294.21 -1.36475 -3.63313 0
M  V30 24253 H 2292.31 1.09993 -3.55995 0
M  V30 24254 H 2292.42 -0.336678 -4.77916 0
M  V30 24255 H 2290.78 -0.0823329 -2.54567 0
M  V30 24256 H 2291.57 -1.69485 -2.98546 0
M  V30 24257 N 2294.01 1.53925 -0.338371 0
M  V30 24258 C 2295.24 2.05244 0.261262 0
M  V30 24259 C 2295.65 1.21366 1.44623 0
M  V30 24260 O 2295.01 0.247768 1.8081 0
M  V30 24261 C 2295.06 3.55021 0.68135 0
M  V30 24262 O 2294.78 4.35715 -0.456491 0
M  V30 24263 C 2296.28 4.22491 1.34224 0
M  V30 24264 H 2293.5 0.669032 0.0513568 0
M  V30 24265 H 2296.05 1.98571 -0.488857 0
M  V30 24266 H 2294.2 3.61933 1.38142 0
M  V30 24267 H 2294.62 5.24357 -0.122656 0
M  V30 24268 H 2296.09 5.28695 1.58698 0
M  V30 24269 H 2296.57 3.74518 2.29419 0
M  V30 24270 H 2297.17 4.19758 0.68435 0
M  V30 24271 N 2295.49 0.0668712 1.57458 0
M  V30 24272 C 2296.44 -0.912082 2.08962 0
M  V30 24273 C 2297.42 -1.26193 0.998208 0
M  V30 24274 O 2298.62 -1.24173 1.26136 0
M  V30 24275 C 2295.74 -2.18141 2.65084 0
M  V30 24276 C 2294.83 -1.85826 3.81221 0
M  V30 24277 N 2295.22 -1.23939 4.9038 0
M  V30 24278 C 2293.52 -2.15605 3.90424 0
M  V30 24279 C 2294.22 -1.09606 5.71281 0
M  V30 24280 N 2293.2 -1.60414 5.19392 0
M  V30 24281 H 2297 -0.429189 2.90749 0
M  V30 24282 H 2294.51 -0.137156 1.6182 0
M  V30 24283 H 2296.51 -2.89186 3.00295 0
M  V30 24284 H 2295.17 -2.67022 1.84741 0
M  V30 24285 H 2296.18 -0.909642 5.09849 0
M  V30 24286 H 2292.86 -2.66898 3.21048 0
M  V30 24287 H 2294.25 -0.614308 6.69086 0
M  V30 24288 N 2296.97 -1.56239 -0.206647 0
M  V30 24289 C 2297.93 -1.92778 -1.23973 0
M  V30 24290 C 2298.93 -0.807754 -1.39039 0
M  V30 24291 O 2300.12 -1.07532 -1.37049 0
M  V30 24292 C 2297.25 -2.19169 -2.61108 0
M  V30 24293 H 2298.45 -2.8519 -0.927714 0
M  V30 24294 H 2296 -1.49751 -0.447692 0
M  V30 24295 H 2296.73 -1.29357 -2.97384 0
M  V30 24296 H 2296.52 -3.00777 -2.51547 0
M  V30 24297 H 2298.01 -2.48482 -3.35628 0
M  V30 24298 N 2298.45 0.473929 -1.50305 0
M  V30 24299 C 2299.72 1.23515 -1.51669 0
M  V30 24300 C 2300.1 2.09496 -0.259738 0
M  V30 24301 O 2299.45 2.15598 0.756948 0
M  V30 24302 C 2299.66 2.06863 -2.81085 0
M  V30 24303 C 2301.01 2.65147 -3.31636 0
M  V30 24304 O 2302.03 2.17108 -2.82387 0
M  V30 24305 O 2300.89 3.52668 -4.17478 0
M  V30 24306 H 2297.99 0.560344 -0.60823 0
M  V30 24307 H 2300.53 0.485982 -1.62592 0
M  V30 24308 H 2299.3 1.43484 -3.64044 0
M  V30 24309 H 2298.93 2.88919 -2.73151 0
M  V30 24310 N 2299.92 1.39835 0.726907 0
M  V30 24311 C 2301.33 1.33462 1.30555 0
M  V30 24312 C 2301.69 0.00276451 1.962 0
M  V30 24313 O 2300.81 -0.899336 1.96827 0
M  V30 24314 C 2301.41 2.41717 2.37399 0
M  V30 24315 C 2299.96 2.3884 2.90917 0
M  V30 24316 C 2299.11 2.23183 1.64575 0
M  V30 24317 H 2302.06 1.49805 0.523835 0
M  V30 24318 H 2302.08 2.08971 3.1798 0
M  V30 24319 H 2301.6 3.38639 1.89593 0
M  V30 24320 H 2299.7 1.45581 3.42983 0
M  V30 24321 H 2299.81 3.34003 3.43481 0
M  V30 24322 H 2298.17 1.70498 1.89216 0
M  V30 24323 H 2298.96 3.22086 1.18808 0
M  V30 24324 N 2301.4 -0.957948 1.25144 0
M  V30 24325 C 2302.65 -1.69879 1.09479 0
M  V30 24326 C 2302.97 -1.91545 -0.365468 0
M  V30 24327 O 2302.24 -1.50017 -1.25983 0
M  V30 24328 H 2300.82 -0.629518 0.40214 0
M  V30 24329 H 2303.48 -1.15191 1.57216 0
M  V30 24330 H 2302.58 -2.67937 1.60051 0
M  V30 24331 N 2302.88 -1.06677 -1.16008 0
M  V30 24332 C 2304.3 -0.790972 -1.38621 0
M  V30 24333 C 2304.5 0.607931 -1.9211 0
M  V30 24334 O 2303.55 1.36784 -2.12242 0
M  V30 24335 C 2304.86 -1.8591 -2.36343 0
M  V30 24336 C 2306.41 -1.88306 -2.5002 0
M  V30 24337 C 2306.89 -2.94183 -3.51028 0
M  V30 24338 N 2308.38 -2.93241 -3.58558 0
M  V30 24339 C 2309.11 -3.7181 -4.36514 0
M  V30 24340 N 2308.61 -4.60209 -5.17861 0
M  V30 24341 N 2310.4 -3.60186 -4.31535 0
M  V30 24342 H 2302.55 -1.9691 -0.79626 0
M  V30 24343 H 2304.82 -0.853511 -0.412582 0
M  V30 24344 H 2304.52 -2.86389 -2.04142 0
M  V30 24345 H 2304.4 -1.7134 -3.36039 0
M  V30 24346 H 2306.78 -0.884819 -2.81523 0
M  V30 24347 H 2306.86 -2.06953 -1.50346 0
M  V30 24348 H 2306.51 -3.94202 -3.20261 0
M  V30 24349 H 2306.44 -2.72784 -4.50441 0
M  V30 24350 H 2308.93 -2.29157 -3.00492 0
M  V30 24351 H 2309.24 -5.16807 -5.74569 0
M  V30 24352 H 2307.59 -4.64262 -5.1719 0
M  V30 24353 H 2310.78 -2.90508 -3.67046 0
M  V30 24354 H 2310.95 -4.21661 -4.92042 0
M  V30 24355 N 2304.36 1.32719 -0.8499 0
M  V30 24356 C 2305.27 2.32753 -0.293832 0
M  V30 24357 C 2306.28 1.6384 0.585878 0
M  V30 24358 O 2307.46 1.95414 0.487379 0
M  V30 24359 C 2304.52 3.42888 0.512692 0
M  V30 24360 C 2303.59 4.27501 -0.392595 0
M  V30 24361 C 2302.82 5.32377 0.375532 0
M  V30 24362 O 2303.04 5.47323 1.60603 0
M  V30 24363 O 2301.98 6.01354 -0.2562 0
M  V30 24364 H 2305.8 2.82195 -1.12247 0
M  V30 24365 H 2303.39 1.36258 -0.612709 0
M  V30 24366 H 2305.27 4.10069 0.970632 0
M  V30 24367 H 2303.94 2.95643 1.31821 0
M  V30 24368 H 2302.85 3.63147 -0.89861 0
M  V30 24369 H 2304.18 4.78258 -1.16317 0
M  V30 24370 N 2305.84 0.60738 1.45426 0
M  V30 24371 C 2307.08 0.102643 2.0254 0
M  V30 24372 C 2307.42 -1.26345 1.47481 0
M  V30 24373 O 2306.69 -1.83338 0.649422 0
M  V30 24374 C 2306.97 0.063498 3.60044 0
M  V30 24375 C 2306.83 1.46024 4.25437 0
M  V30 24376 C 2308.15 -0.624437 4.35648 0
M  V30 24377 H 2305.26 0.0387736 0.735979 0
M  V30 24378 H 2307.91 0.779312 1.73282 0
M  V30 24379 H 2306.06 -0.51274 3.85102 0
M  V30 24380 H 2307.73 2.08355 4.11565 0
M  V30 24381 H 2305.97 2.02101 3.83846 0
M  V30 24382 H 2306.64 1.3851 5.3434 0
M  V30 24383 H 2309.12 -0.13465 4.15882 0
M  V30 24384 H 2307.99 -0.620932 5.45377 0
M  V30 24385 H 2308.26 -1.69048 4.08504 0
M  V30 24386 N 2307.31 -1.53743 0.34653 0
M  V30 24387 C 2308.25 -2.22668 -0.543277 0
M  V30 24388 C 2309.26 -1.23428 -1.06157 0
M  V30 24389 O 2310.45 -1.49766 -0.971208 0
M  V30 24390 C 2307.55 -2.89572 -1.76071 0
M  V30 24391 C 2306.72 -4.15153 -1.3772 0
M  V30 24392 C 2305.78 -4.6544 -2.45463 0
M  V30 24393 O 2304.81 -5.2958 -2.08646 0
M  V30 24394 N 2306.01 -4.41623 -3.76762 0
M  V30 24395 H 2308.77 -2.99663 0.047023 0
M  V30 24396 H 2306.33 -1.60997 0.170795 0
M  V30 24397 H 2308.33 -3.20129 -2.47588 0
M  V30 24398 H 2306.9 -2.16146 -2.25831 0
M  V30 24399 H 2306.12 -3.91109 -0.492678 0
M  V30 24400 H 2307.4 -4.96834 -1.09699 0
M  V30 24401 H 2306.8 -3.90332 -4.0946 0
M  V30 24402 H 2305.36 -4.76777 -4.4444 0
M  V30 24403 N 2308.79 -0.0752207 -1.5742 0
M  V30 24404 C 2310.04 0.593991 -1.93906 0
M  V30 24405 C 2310.37 1.69055 -0.955731 0
M  V30 24406 O 2309.65 1.94495 0.0145031 0
M  V30 24407 C 2309.93 1.16774 -3.4064 0
M  V30 24408 C 2309.78 0.0776002 -4.49733 0
M  V30 24409 C 2311.1 2.07221 -3.88262 0
M  V30 24410 H 2308.22 0.214454 -0.705109 0
M  V30 24411 H 2310.86 -0.141887 -1.89469 0
M  V30 24412 H 2309.01 1.79488 -3.44552 0
M  V30 24413 H 2310.68 -0.555653 -4.57941 0
M  V30 24414 H 2308.93 -0.591361 -4.2975 0
M  V30 24415 H 2309.6 0.519507 -5.4955 0
M  V30 24416 H 2312.07 1.54438 -3.86378 0
M  V30 24417 H 2310.95 2.44299 -4.91537 0
M  V30 24418 H 2311.21 2.98185 -3.26402 0
M  V30 24419 N 2310.27 1.56347 0.198358 0
M  V30 24420 C 2311.22 1.95171 1.26534 0
M  V30 24421 C 2312.21 0.836711 1.47294 0
M  V30 24422 O 2313.42 1.0217 1.48194 0
M  V30 24423 H 2309.79 0.620569 0.424733 0
M  V30 24424 H 2311.76 2.84158 0.910854 0
M  V30 24425 C 2310.51 2.30468 2.60346 0
M  V30 24426 H 2309.84 3.15791 2.45186 0
M  V30 24427 H 2311.28 2.61499 3.33757 0
M  V30 24428 C 2309.74 1.13812 3.17094 0
M  V30 24429 O 2310.27 0.41142 3.99588 0
M  V30 24430 N 2308.47 0.915784 2.75793 0
M  V30 24431 H 2308.02 1.50846 2.08814 0
M  V30 24432 H 2307.98 0.137034 3.14101 0
M  V30 24433 N 2311.75 -0.465951 1.50554 0
M  V30 24434 C 2313 -1.21525 1.61481 0
M  V30 24435 C 2313.32 -1.92363 0.31963 0
M  V30 24436 O 2312.59 -1.84334 -0.663161 0
M  V30 24437 H 2311.17 -0.451563 0.595063 0
M  V30 24438 H 2313.83 -0.537007 1.87356 0
M  V30 24439 H 2312.93 -1.96038 2.42849 0
M  V30 24440 N 2313.23 -1.40218 -0.719481 0
M  V30 24441 C 2314.47 -1.3849 -1.4815 0
M  V30 24442 C 2314.81 0.0141526 -1.94195 0
M  V30 24443 O 2314.08 0.982067 -1.67886 0
M  V30 24444 C 2314.36 -2.37096 -2.71031 0
M  V30 24445 C 2314.22 -3.86009 -2.30905 0
M  V30 24446 C 2315.54 -2.33295 -3.73178 0
M  V30 24447 H 2312.65 -0.504366 -0.537386 0
M  V30 24448 H 2315.3 -1.71325 -0.821442 0
M  V30 24449 H 2313.45 -2.09226 -3.27348 0
M  V30 24450 H 2315.12 -4.2469 -1.80099 0
M  V30 24451 H 2313.36 -4.02031 -1.62951 0
M  V30 24452 H 2314.03 -4.50513 -3.1897 0
M  V30 24453 H 2316.51 -2.57972 -3.26481 0
M  V30 24454 H 2315.38 -3.04342 -4.56801 0
M  V30 24455 H 2315.65 -1.34324 -4.212 0
M  V30 24456 N 2314.7 0.951297 -1.25651 0
M  V30 24457 C 2315.65 2.03405 -1.03008 0
M  V30 24458 C 2316.64 1.60864 0.0341587 0
M  V30 24459 O 2317.83 1.76066 -0.18158 0
M  V30 24460 C 2314.96 3.37007 -0.654314 0
M  V30 24461 C 2314.05 3.86062 -1.75548 0
M  V30 24462 N 2314.44 4.07874 -2.9912 0
M  V30 24463 C 2312.73 4.14881 -1.63676 0
M  V30 24464 C 2313.44 4.48349 -3.70618 0
M  V30 24465 N 2312.41 4.54472 -2.98255 0
M  V30 24466 H 2316.21 2.18267 -1.96817 0
M  V30 24467 H 2313.73 1.13637 -1.16019 0
M  V30 24468 H 2315.72 4.14205 -0.473279 0
M  V30 24469 H 2314.38 3.23521 0.276411 0
M  V30 24470 H 2315.4 3.94852 -3.35131 0
M  V30 24471 H 2312.07 4.10239 -0.775234 0
M  V30 24472 H 2313.46 4.73501 -4.76704 0
M  V30 24473 N 2316.18 1.07291 1.1544 0
M  V30 24474 C 2317.41 0.816793 1.90095 0
M  V30 24475 C 2317.83 -0.629935 1.77981 0
M  V30 24476 O 2317.18 -1.43204 1.13133 0
M  V30 24477 C 2317.23 1.21518 3.40464 0
M  V30 24478 O 2316.95 2.60514 3.52227 0
M  V30 24479 C 2318.46 0.988274 4.32144 0
M  V30 24480 H 2315.68 0.295376 0.60249 0
M  V30 24481 H 2318.22 1.4292 1.46267 0
M  V30 24482 H 2316.37 0.647106 3.81957 0
M  V30 24483 H 2316.79 2.76749 4.45545 0
M  V30 24484 H 2318.26 1.31654 5.3607 0
M  V30 24485 H 2318.74 -0.0754291 4.39135 0
M  V30 24486 H 2319.35 1.54122 3.96392 0
M  V30 24487 N 2317.66 -1.32267 0.856927 0
M  V30 24488 C 2318.61 -2.28826 0.301212 0
M  V30 24489 C 2319.58 -1.55151 -0.593077 0
M  V30 24490 O 2320.76 -1.83363 -0.527504 0
M  V30 24491 C 2317.9 -3.41422 -0.502463 0
M  V30 24492 C 2317.02 -4.29974 0.417873 0
M  V30 24493 C 2316.15 -5.29702 -0.398655 0
M  V30 24494 C 2315.19 -6.09896 0.518935 0
M  V30 24495 N 2314.33 -7.01616 -0.260551 0
M  V30 24496 H 2319.17 -2.75749 1.12988 0
M  V30 24497 H 2316.7 -1.35666 0.568606 0
M  V30 24498 H 2318.66 -4.05428 -0.98407 0
M  V30 24499 H 2317.29 -2.95644 -1.29594 0
M  V30 24500 H 2316.34 -3.66529 1.01788 0
M  V30 24501 H 2317.66 -4.86017 1.122 0
M  V30 24502 H 2316.81 -5.99321 -0.943329 0
M  V30 24503 H 2315.55 -4.74282 -1.13614 0
M  V30 24504 H 2314.55 -5.39179 1.07547 0
M  V30 24505 H 2315.78 -6.67402 1.25506 0
M  V30 24506 H 2313.72 -6.48622 -0.981084 0
M  V30 24507 H 2313.64 -7.55022 0.384496 0
M  V30 24508 H 2314.91 -7.75518 -0.786878 0
M  V30 24509 N 2319.14 -0.615084 -1.45102 0
M  V30 24510 C 2320.38 -0.113382 -2.02483 0
M  V30 24511 C 2320.72 1.25561 -1.48149 0
M  V30 24512 O 2319.99 1.82991 -0.659136 0
M  V30 24513 C 2320.28 -0.0825911 -3.60005 0
M  V30 24514 C 2320.13 -1.48279 -4.24657 0
M  V30 24515 C 2321.45 0.601325 -4.35973 0
M  V30 24516 H 2318.57 -0.0426761 -0.735763 0
M  V30 24517 H 2321.21 -0.788491 -1.72866 0
M  V30 24518 H 2319.36 0.49231 -3.85368 0
M  V30 24519 H 2321.03 -2.10534 -4.10455 0
M  V30 24520 H 2319.27 -2.04134 -3.82769 0
M  V30 24521 H 2319.94 -1.41342 -5.33598 0
M  V30 24522 H 2322.42 0.112593 -4.15948 0
M  V30 24523 H 2321.3 0.592001 -5.45698 0
M  V30 24524 H 2321.56 1.66879 -4.09394 0
M  V30 24525 N 2320.62 1.53557 -0.354678 0
M  V30 24526 C 2321.55 2.28321 0.489051 0
M  V30 24527 C 2322.53 1.30318 1.09322 0
M  V30 24528 O 2323.71 1.59175 1.11252 0
M  V30 24529 C 2320.84 3.06433 1.6345 0
M  V30 24530 C 2319.8 4.12033 1.15813 0
M  V30 24531 C 2319.12 4.78164 2.39297 0
M  V30 24532 C 2320.42 5.21698 0.250639 0
M  V30 24533 H 2322.12 2.99097 -0.134666 0
M  V30 24534 H 2319.66 1.43848 -0.0662079 0
M  V30 24535 H 2321.62 3.57479 2.2313 0
M  V30 24536 H 2320.34 2.33329 2.28529 0
M  V30 24537 H 2319 3.61917 0.584083 0
M  V30 24538 H 2318.65 4.01643 3.02807 0
M  V30 24539 H 2318.35 5.49517 2.08099 0
M  V30 24540 H 2319.87 5.31999 2.99682 0
M  V30 24541 H 2321.29 5.68312 0.754595 0
M  V30 24542 H 2319.68 6.00092 0.0300413 0
M  V30 24543 H 2320.75 4.79671 -0.710209 0
M  V30 24544 N 2322.1 0.083568 1.57378 0
M  V30 24545 C 2323.37 -0.624475 1.85364 0
M  V30 24546 C 2323.75 -1.87064 0.978272 0
M  V30 24547 O 2323.1 -2.2845 0.047631 0
M  V30 24548 C 2323.31 -0.950888 3.35796 0
M  V30 24549 C 2324.66 -1.31931 4.03583 0
M  V30 24550 O 2325.68 -1.04226 3.4061 0
M  V30 24551 O 2324.54 -1.8377 5.14676 0
M  V30 24552 H 2321.64 -0.311315 0.766167 0
M  V30 24553 H 2324.18 0.115392 1.69307 0
M  V30 24554 H 2322.95 -0.0663212 3.91244 0
M  V30 24555 H 2322.58 -1.74712 3.57157 0
M  V30 24556 N 2323.57 -1.5645 -0.190064 0
M  V30 24557 C 2324.8 -1.85389 -0.929831 0
M  V30 24558 C 2325.22 -0.667735 -1.75849 0
M  V30 24559 O 2324.58 0.383428 -1.77199 0
M  V30 24560 C 2324.63 -3.12596 -1.79767 0
M  V30 24561 O 2323.73 -2.93502 -2.89708 0
M  V30 24562 H 2323.07 -0.610312 -0.261563 0
M  V30 24563 H 2325.6 -2.0368 -0.193861 0
M  V30 24564 H 2325.61 -3.43519 -2.20133 0
M  V30 24565 H 2324.29 -3.98546 -1.18885 0
M  V30 24566 H 2322.87 -2.73888 -2.5306 0
M  V30 24567 N 2325.05 0.45796 -1.50799 0
M  V30 24568 C 2326.28 1.23022 -1.65979 0
M  V30 24569 C 2326.69 1.85973 -0.347951 0
M  V30 24570 O 2326.03 1.70593 0.68145 0
M  V30 24571 C 2326.09 2.37005 -2.70313 0
M  V30 24572 C 2325.76 1.94587 -4.13503 0
M  V30 24573 C 2326.76 1.46092 -4.98952 0
M  V30 24574 C 2324.44 2.02907 -4.59493 0
M  V30 24575 C 2326.43 1.06478 -6.28444 0
M  V30 24576 C 2324.12 1.62904 -5.88987 0
M  V30 24577 C 2325.12 1.14769 -6.73288 0
M  V30 24578 O 2324.81 0.75325 -8.00363 0
M  V30 24579 H 2324.54 0.377692 -0.560647 0
M  V30 24580 H 2327.09 0.551502 -1.97858 0
M  V30 24581 H 2325.32 3.08089 -2.33705 0
M  V30 24582 H 2327.01 2.98933 -2.74579 0
M  V30 24583 H 2327.78 1.39076 -4.64632 0
M  V30 24584 H 2323.66 2.39321 -3.94013 0
M  V30 24585 H 2327.2 0.688366 -6.94195 0
M  V30 24586 H 2323.1 1.69584 -6.22825 0
M  V30 24587 H 2323.87 0.880937 -8.13746 0
M  V30 24588 N 2326.53 1.40598 0.712035 0
M  V30 24589 C 2327.81 1.29565 1.46534 0
M  V30 24590 C 2328.19 -0.0843847 2.10931 0
M  V30 24591 O 2327.53 -1.09746 2.0042 0
M  V30 24592 C 2327.74 2.43706 2.49817 0
M  V30 24593 C 2329.09 2.84106 3.15546 0
M  V30 24594 O 2330.12 2.43325 2.60138 0
M  V30 24595 O 2328.98 3.54573 4.15861 0
M  V30 24596 H 2326.07 0.509015 0.651792 0
M  V30 24597 H 2328.62 1.52526 0.743908 0
M  V30 24598 H 2327.39 3.35866 2.00772 0
M  V30 24599 H 2327.01 2.22534 3.29491 0
M  V30 24600 N 2328.01 -0.94462 1.26153 0
M  V30 24601 C 2328.94 -2.06017 1.09906 0
M  V30 24602 C 2329.92 -1.70099 0.00522528 0
M  V30 24603 O 2331.1 -1.93395 0.176617 0
M  V30 24604 C 2328.23 -3.39592 0.727622 0
M  V30 24605 C 2327.19 -3.89558 1.77281 0
M  V30 24606 C 2326.51 -5.19744 1.25578 0
M  V30 24607 C 2327.81 -4.14822 3.17365 0
M  V30 24608 H 2329.51 -2.19868 2.03221 0
M  V30 24609 H 2327.05 -1.0565 0.97847 0
M  V30 24610 H 2329.01 -4.17094 0.60085 0
M  V30 24611 H 2327.73 -3.25708 -0.241229 0
M  V30 24612 H 2326.39 -3.14234 1.88819 0
M  V30 24613 H 2326.04 -5.02237 0.276872 0
M  V30 24614 H 2325.74 -5.54144 1.95443 0
M  V30 24615 H 2327.26 -5.99833 1.14161 0
M  V30 24616 H 2328.68 -4.82949 3.08923 0
M  V30 24617 H 2327.07 -4.60497 3.84789 0
M  V30 24618 H 2328.14 -3.20728 3.63678 0
M  V30 24619 N 2329.49 -1.07901 -1.1487 0
M  V30 24620 C 2330.72 -0.825664 -1.89384 0
M  V30 24621 C 2331.12 0.625375 -1.78566 0
M  V30 24622 O 2330.47 1.44111 -1.1392 0
M  V30 24623 C 2330.53 -1.16197 -3.40204 0
M  V30 24624 C 2330.19 -2.61474 -3.74807 0
M  V30 24625 C 2331.19 -3.59723 -3.7536 0
M  V30 24626 C 2328.87 -2.97196 -4.04945 0
M  V30 24627 C 2330.87 -4.91727 -4.05566 0
M  V30 24628 C 2328.56 -4.29395 -4.34814 0
M  V30 24629 C 2329.55 -5.2647 -4.35107 0
M  V30 24630 O 2329.24 -6.56294 -4.64256 0
M  V30 24631 H 2328.97 -0.297761 -0.606889 0
M  V30 24632 H 2331.53 -1.44034 -1.46436 0
M  V30 24633 H 2329.76 -0.490282 -3.83579 0
M  V30 24634 H 2331.45 -0.890263 -3.96017 0
M  V30 24635 H 2332.21 -3.33468 -3.5217 0
M  V30 24636 H 2328.09 -2.2228 -4.03872 0
M  V30 24637 H 2331.64 -5.67491 -4.05709 0
M  V30 24638 H 2327.53 -4.554 -4.57472 0
M  V30 24639 H 2328.3 -6.61531 -4.81995 0
M  V30 24640 N 2330.96 1.31811 -0.863929 0
M  V30 24641 C 2331.91 2.30601 -0.304261 0
M  V30 24642 C 2332.91 1.59256 0.577391 0
M  V30 24643 O 2334.11 1.73912 0.464163 0
M  V30 24644 H 2330.49 0.747765 -0.0797008 0
M  V30 24645 H 2332.46 2.75286 -1.15153 0
M  V30 24646 C 2331.21 3.44307 0.484556 0
M  V30 24647 H 2330.53 3.99374 -0.18458 0
M  V30 24648 H 2331.97 4.15564 0.841591 0
M  V30 24649 C 2330.43 2.92399 1.67345 0
M  V30 24650 O 2330.96 2.90664 2.77268 0
M  V30 24651 N 2329.16 2.48678 1.50358 0
M  V30 24652 H 2328.71 2.50289 0.609358 0
M  V30 24653 H 2328.67 2.14303 2.30047 0
M  V30 24654 N 2332.44 0.62277 1.44773 0
M  V30 24655 C 2333.86 0.287679 1.56986 0
M  V30 24656 C 2334.06 -1.20942 1.61169 0
M  V30 24657 O 2333.11 -1.99312 1.55019 0
M  V30 24658 C 2334.43 0.972238 2.84549 0
M  V30 24659 C 2335.97 0.949588 2.98248 0
M  V30 24660 C 2336.45 1.61445 4.28602 0
M  V30 24661 N 2337.94 1.58065 4.35396 0
M  V30 24662 C 2338.68 2.0641 5.3496 0
M  V30 24663 N 2338.17 2.62908 6.40977 0
M  V30 24664 N 2339.96 1.97088 5.26415 0
M  V30 24665 H 2332.12 1.59465 1.40302 0
M  V30 24666 H 2334.38 0.66889 0.671782 0
M  V30 24667 H 2334.08 2.02698 2.87413 0
M  V30 24668 H 2333.96 0.504837 3.73806 0
M  V30 24669 H 2336.35 -0.0966549 2.94942 0
M  V30 24670 H 2336.43 1.4554 2.10361 0
M  V30 24671 H 2336.07 2.6601 4.32667 0
M  V30 24672 H 2336 1.08354 5.15332 0
M  V30 24673 H 2338.49 1.16807 3.59395 0
M  V30 24674 H 2338.8 2.97552 7.1322 0
M  V30 24675 H 2337.15 2.66955 6.41685 0
M  V30 24676 H 2340.34 1.52677 4.42501 0
M  V30 24677 H 2340.51 2.35076 6.03857 0
M  V30 24678 N 2333.92 -1.53367 0.362817 0
M  V30 24679 C 2335.2 -1.93527 -0.283987 0
M  V30 24680 C 2335.58 -1.29611 -1.66626 0
M  V30 24681 O 2334.92 -0.454169 -2.23941 0
M  V30 24682 C 2335.13 -3.47369 -0.336967 0
M  V30 24683 C 2336.48 -4.20639 -0.578634 0
M  V30 24684 O 2337.51 -3.53735 -0.41829 0
M  V30 24685 O 2336.37 -5.39194 -0.890645 0
M  V30 24686 H 2333.46 -0.809396 -0.169729 0
M  V30 24687 H 2336.01 -1.64537 0.415399 0
M  V30 24688 H 2334.78 -3.86158 0.632285 0
M  V30 24689 H 2334.4 -3.82584 -1.08236 0
M  V30 24690 N 2335.4 -0.091913 -1.57332 0
M  V30 24691 C 2336.65 0.571412 -1.93854 0
M  V30 24692 C 2336.97 1.68919 -0.974242 0
M  V30 24693 O 2336.24 1.95883 -0.0257598 0
M  V30 24694 H 2334.82 0.214069 -0.71567 0
M  V30 24695 H 2337.48 -0.154498 -1.94287 0
M  V30 24696 H 2336.58 0.983677 -2.96193 0
M  V30 24697 N 2336.88 1.56548 0.181765 0
M  V30 24698 C 2338.12 1.81666 0.901399 0
M  V30 24699 C 2338.46 0.668107 1.82346 0
M  V30 24700 O 2337.73 -0.330581 1.9167 0
M  V30 24701 C 2338.01 3.17118 1.70612 0
M  V30 24702 C 2337.87 4.42485 0.807886 0
M  V30 24703 C 2339.19 3.49398 2.67599 0
M  V30 24704 H 2336.3 0.660851 0.326258 0
M  V30 24705 H 2338.95 1.89255 0.168101 0
M  V30 24706 H 2337.1 3.10779 2.33128 0
M  V30 24707 H 2338.77 4.60882 0.196409 0
M  V30 24708 H 2337.01 4.33647 0.115334 0
M  V30 24709 H 2337.68 5.33788 1.40623 0
M  V30 24710 H 2340.16 3.56122 2.15212 0
M  V30 24711 H 2339.03 4.45269 3.20977 0
M  V30 24712 H 2339.3 2.73569 3.47293 0
M  V30 24713 N 2338.35 -0.449957 1.5104 0
M  V30 24714 C 2339.3 -1.5452 1.71441 0
M  V30 24715 C 2340.27 -1.56521 0.555899 0
M  V30 24716 O 2341.46 -1.73727 0.788902 0
M  V30 24717 C 2338.6 -2.9234 1.83389 0
M  V30 24718 C 2337.71 -2.99965 3.10878 0
M  V30 24719 C 2336.84 -4.28829 3.13495 0
M  V30 24720 C 2335.88 -4.30274 4.35351 0
M  V30 24721 N 2335.02 -5.50643 4.35588 0
M  V30 24722 H 2339.86 -1.36428 2.64936 0
M  V30 24723 H 2337.4 -0.662959 1.31314 0
M  V30 24724 H 2339.36 -3.7229 1.88298 0
M  V30 24725 H 2337.99 -3.09018 0.93314 0
M  V30 24726 H 2337.04 -2.12755 3.1534 0
M  V30 24727 H 2338.35 -2.96893 4.00819 0
M  V30 24728 H 2337.5 -5.17143 3.1725 0
M  V30 24729 H 2336.24 -4.34539 2.21421 0
M  V30 24730 H 2335.25 -3.40354 4.31786 0
M  V30 24731 H 2336.47 -4.26239 5.28675 0
M  V30 24732 H 2334.42 -5.57098 3.46378 0
M  V30 24733 H 2334.34 -5.494 5.19323 0
M  V30 24734 H 2335.6 -6.41024 4.43518 0
M  V30 24735 N 2339.83 -1.40974 -0.704569 0
M  V30 24736 C 2340.76 -1.44876 -1.83121 0
M  V30 24737 C 2341.74 -0.308409 -1.67281 0
M  V30 24738 O 2342.93 -0.518589 -1.87148 0
M  V30 24739 C 2340.06 -1.32142 -3.21179 0
M  V30 24740 C 2339.01 -2.43894 -3.5171 0
M  V30 24741 C 2338.34 -2.16231 -4.89028 0
M  V30 24742 C 2339.64 -3.86238 -3.51593 0
M  V30 24743 H 2341.33 -2.39164 -1.80113 0
M  V30 24744 H 2338.88 -1.15116 -0.865124 0
M  V30 24745 H 2340.83 -1.33486 -3.99699 0
M  V30 24746 H 2339.56 -0.343336 -3.2479 0
M  V30 24747 H 2338.21 -2.41818 -2.75535 0
M  V30 24748 H 2337.86 -1.16787 -4.89254 0
M  V30 24749 H 2337.56 -2.91109 -5.10421 0
M  V30 24750 H 2339.09 -2.19275 -5.69869 0
M  V30 24751 H 2340.5 -3.90078 -4.20134 0
M  V30 24752 H 2338.9 -4.60725 -3.84515 0
M  V30 24753 H 2339.97 -4.15033 -2.50749 0
M  V30 24754 N 2341.31 0.937917 -1.26653 0
M  V30 24755 C 2342.22 2.07064 -1.10279 0
M  V30 24756 C 2343.24 1.73964 -0.0354503 0
M  V30 24757 O 2344.41 1.99967 -0.239851 0
M  V30 24758 C 2341.48 3.3869 -0.740946 0
M  V30 24759 C 2340.54 3.85553 -1.88806 0
M  V30 24760 C 2339.77 5.10897 -1.54338 0
M  V30 24761 O 2339.99 5.68649 -0.446594 0
M  V30 24762 O 2338.93 5.52881 -2.3792 0
M  V30 24763 H 2342.75 2.23786 -2.05313 0
M  V30 24764 H 2340.34 1.05538 -1.05745 0
M  V30 24765 H 2342.22 4.17769 -0.552024 0
M  V30 24766 H 2340.9 3.23199 0.179965 0
M  V30 24767 H 2339.8 3.07405 -2.13197 0
M  V30 24768 H 2341.14 4.05569 -2.78881 0
M  V30 24769 N 2342.79 1.08509 1.14296 0
M  V30 24770 C 2344.04 0.810338 1.84706 0
M  V30 24771 C 2344.35 -0.666238 1.83904 0
M  V30 24772 O 2345.56 -1.05619 2.50114 0
M  V30 24773 C 2344.01 1.39963 3.31569 0
M  V30 24774 C 2343.62 2.90807 3.40786 0
M  V30 24775 C 2345.36 1.20342 4.07085 0
M  V30 24776 C 2343.27 3.42869 4.81866 0
M  V30 24777 H 2342.2 0.299466 0.69198 0
M  V30 24778 H 2344.85 1.30663 1.28838 0
M  V30 24779 H 2343.23 0.831045 3.87182 0
M  V30 24780 H 2344.41 3.53811 2.95219 0
M  V30 24781 H 2342.72 3.09355 2.78727 0
M  V30 24782 H 2345.32 1.56702 5.11223 0
M  V30 24783 H 2345.66 0.14331 4.16053 0
M  V30 24784 H 2346.2 1.739 3.57776 0
M  V30 24785 H 2342.94 4.48457 4.78086 0
M  V30 24786 H 2342.46 2.84624 5.27967 0
M  V30 24787 H 2344.13 3.39519 5.50759 0
M  V30 24788 N 2344.27 -1.31351 0.870907 0
M  V30 24789 C 2345.49 -2.00847 0.496805 0
M  V30 24790 C 2345.91 -1.65369 -0.910969 0
M  V30 24791 O 2345.27 -0.883402 -1.59694 0
M  V30 24792 C 2345.32 -3.55693 0.64537 0
M  V30 24793 O 2345.04 -3.89902 1.99771 0
M  V30 24794 C 2346.54 -4.42462 0.272404 0
M  V30 24795 H 2343.76 -0.642502 0.193473 0
M  V30 24796 H 2346.3 -1.67561 1.17233 0
M  V30 24797 H 2344.46 -3.87396 0.0173857 0
M  V30 24798 H 2344.87 -4.84617 2.00615 0
M  V30 24799 H 2346.35 -5.50344 0.427305 0
M  V30 24800 H 2346.82 -4.32064 -0.788511 0
M  V30 24801 H 2347.43 -4.16178 0.876128 0
M  V30 24802 N 2345.74 -0.630439 -1.44441 0
M  V30 24803 C 2346.99 -0.134852 -2.02351 0
M  V30 24804 C 2347.32 1.23983 -1.49472 0
M  V30 24805 O 2346.6 1.82281 -0.678507 0
M  V30 24806 C 2346.88 -0.12077 -3.59897 0
M  V30 24807 C 2346.73 -1.52774 -4.2306 0
M  V30 24808 C 2348.05 0.55505 -4.36586 0
M  V30 24809 H 2345.17 -0.0504775 -0.735269 0
M  V30 24810 H 2347.81 -0.806781 -1.7202 0
M  V30 24811 H 2345.96 0.451409 -3.85869 0
M  V30 24812 H 2347.64 -2.14876 -4.08199 0
M  V30 24813 H 2345.88 -2.08182 -3.80582 0
M  V30 24814 H 2346.55 -1.46993 -5.32069 0
M  V30 24815 H 2349.03 0.0684697 -4.16044 0
M  V30 24816 H 2347.9 0.534089 -5.46295 0
M  V30 24817 H 2348.16 1.62528 -4.11141 0
M  V30 24818 N 2347.22 1.53172 -0.370945 0
M  V30 24819 C 2348.47 2.00516 0.218214 0
M  V30 24820 C 2348.78 1.26218 1.49427 0
M  V30 24821 O 2349.99 1.64178 2.16236 0
M  V30 24822 C 2348.45 3.57207 0.439417 0
M  V30 24823 C 2348.05 4.40388 -0.822321 0
M  V30 24824 C 2349.8 4.12892 0.985939 0
M  V30 24825 C 2347.71 5.88643 -0.570407 0
M  V30 24826 H 2346.64 0.749157 0.0853201 0
M  V30 24827 H 2349.29 1.76823 -0.490514 0
M  V30 24828 H 2347.67 3.77076 1.20954 0
M  V30 24829 H 2348.84 4.32291 -1.59565 0
M  V30 24830 H 2347.16 3.95834 -1.29245 0
M  V30 24831 H 2349.75 5.21294 1.18982 0
M  V30 24832 H 2350.1 3.67823 1.94966 0
M  V30 24833 H 2350.63 3.96842 0.27585 0
M  V30 24834 H 2347.37 6.37998 -1.50461 0
M  V30 24835 H 2346.89 5.99575 0.164322 0
M  V30 24836 H 2348.57 6.46697 -0.197954 0
M  V30 24837 N 2348.7 0.100255 1.57281 0
M  V30 24838 C 2349.63 -0.886935 2.11344 0
M  V30 24839 C 2350.65 -1.24259 1.05184 0
M  V30 24840 O 2351.83 -1.1948 1.32615 0
M  V30 24841 C 2348.93 -2.19449 2.58254 0
M  V30 24842 C 2348.11 -2.01339 3.88306 0
M  V30 24843 C 2347.17 -3.15654 4.2101 0
M  V30 24844 O 2346.19 -2.8939 4.90145 0
M  V30 24845 N 2347.39 -4.41568 3.76826 0
M  V30 24846 H 2350.16 -0.425163 2.96669 0
M  V30 24847 H 2347.72 -0.084705 1.61678 0
M  V30 24848 H 2349.71 -2.94883 2.77175 0
M  V30 24849 H 2348.28 -2.57034 1.77912 0
M  V30 24850 H 2347.5 -1.10205 3.78482 0
M  V30 24851 H 2348.79 -1.86522 4.73378 0
M  V30 24852 H 2348.19 -4.65787 3.21029 0
M  V30 24853 H 2346.75 -5.13935 4.00892 0
M  V30 24854 N 2350.18 -1.56643 -0.17346 0
M  V30 24855 C 2351.11 -1.99273 -1.21706 0
M  V30 24856 C 2352.09 -0.867985 -1.46287 0
M  V30 24857 O 2353.28 -1.13391 -1.57658 0
M  V30 24858 C 2350.41 -2.35079 -2.55647 0
M  V30 24859 C 2349.36 -3.50494 -2.45639 0
M  V30 24860 C 2348.69 -3.72035 -3.84049 0
M  V30 24861 C 2349.99 -4.84011 -1.96293 0
M  V30 24862 H 2351.68 -2.86702 -0.8627 0
M  V30 24863 H 2349.23 -1.37934 -0.413547 0
M  V30 24864 H 2351.18 -2.63499 -3.28856 0
M  V30 24865 H 2349.9 -1.44557 -2.92867 0
M  V30 24866 H 2348.56 -3.22197 -1.74884 0
M  V30 24867 H 2348.21 -2.78808 -4.18659 0
M  V30 24868 H 2347.91 -4.49691 -3.78222 0
M  V30 24869 H 2349.43 -4.02854 -4.58847 0
M  V30 24870 H 2350.85 -5.11321 -2.59275 0
M  V30 24871 H 2349.24 -5.65288 -2.01419 0
M  V30 24872 H 2350.31 -4.76148 -0.917143 0
M  V30 24873 N 2351.66 0.44194 -1.51277 0
M  V30 24874 C 2352.93 1.2027 -1.54255 0
M  V30 24875 C 2353.31 2.08898 -0.304116 0
M  V30 24876 O 2352.66 2.17155 0.711046 0
M  V30 24877 C 2352.87 2.00854 -2.8541 0
M  V30 24878 C 2354.22 2.58053 -3.37185 0
M  V30 24879 O 2355.24 2.11069 -2.86929 0
M  V30 24880 O 2354.1 3.43733 -4.24864 0
M  V30 24881 H 2351.2 0.547317 -0.619978 0
M  V30 24882 H 2353.74 0.451385 -1.63587 0
M  V30 24883 H 2352.52 1.3573 -3.67006 0
M  V30 24884 H 2352.14 2.8306 -2.79218 0
M  V30 24885 N 2353.14 1.41345 0.697083 0
M  V30 24886 C 2354.55 1.23781 1.00749 0
M  V30 24887 C 2354.75 0.126101 2.01105 0
M  V30 24888 O 2353.81 -0.509996 2.47296 0
M  V30 24889 C 2355.12 2.58656 1.53354 0
M  V30 24890 C 2356.67 2.65825 1.65246 0
M  V30 24891 C 2357.14 4.01013 2.21253 0
M  V30 24892 N 2358.63 4.02851 2.28615 0
M  V30 24893 C 2359.37 5.04254 2.72975 0
M  V30 24894 N 2358.87 6.16047 3.16951 0
M  V30 24895 N 2360.66 4.91616 2.72526 0
M  V30 24896 H 2352.81 2.12376 0.0322288 0
M  V30 24897 H 2355.07 0.944878 0.0768687 0
M  V30 24898 H 2354.78 3.40751 0.870713 0
M  V30 24899 H 2354.65 2.81036 2.51592 0
M  V30 24900 H 2357.04 1.8409 2.3064 0
M  V30 24901 H 2357.12 2.47257 0.65557 0
M  V30 24902 H 2356.76 4.83196 1.56474 0
M  V30 24903 H 2356.69 4.16921 3.2169 0
M  V30 24904 H 2359.19 3.22135 1.9758 0
M  V30 24905 H 2359.5 6.89293 3.49421 0
M  V30 24906 H 2357.84 6.19585 3.14864 0
M  V30 24907 H 2361.03 4.03365 2.37518 0
M  V30 24908 H 2361.21 5.70781 3.06779 0
M  V30 24909 N 2354.61 -0.931187 1.27148 0
M  V30 24910 C 2355.56 -2.05266 1.09402 0
M  V30 24911 C 2356.56 -1.6939 0.0180889 0
M  V30 24912 O 2357.76 -1.79142 0.175542 0
M  V30 24913 H 2354.14 -0.672262 0.336998 0
M  V30 24914 H 2356.11 -2.17382 2.0442 0
M  V30 24915 C 2354.86 -3.3942 0.754299 0
M  V30 24916 H 2354.18 -3.67508 1.57411 0
M  V30 24917 H 2355.62 -4.18673 0.669977 0
M  V30 24918 C 2354.08 -3.32526 -0.541138 0
M  V30 24919 O 2354.61 -3.69469 -1.57657 0
M  V30 24920 N 2352.81 -2.85624 -0.535467 0
M  V30 24921 H 2352.36 -2.55757 0.307556 0
M  V30 24922 H 2352.32 -2.81394 -1.40231 0
M  V30 24923 N 2356.09 -1.09114 -1.13719 0
M  V30 24924 C 2357 -0.739609 -2.22636 0
M  V30 24925 C 2358.02 0.257037 -1.72091 0
M  V30 24926 O 2359.19 0.0991801 -2.01156 0
M  V30 24927 C 2356.26 -0.16197 -3.46321 0
M  V30 24928 C 2355.32 -1.21415 -4.11773 0
M  V30 24929 C 2354.55 -0.663984 -5.29554 0
M  V30 24930 O 2354.78 0.514174 -5.68078 0
M  V30 24931 O 2353.71 -1.41748 -5.84971 0
M  V30 24932 H 2357.54 -1.6484 -2.55071 0
M  V30 24933 H 2355.12 -0.86531 -1.2179 0
M  V30 24934 H 2357 0.156999 -4.21107 0
M  V30 24935 H 2355.68 0.719877 -3.15594 0
M  V30 24936 H 2354.58 -1.58577 -3.38828 0
M  V30 24937 H 2355.92 -2.06853 -4.46624 0
M  V30 24938 N 2357.57 1.30887 -0.877861 0
M  V30 24939 C 2358.52 2.28318 -0.337578 0
M  V30 24940 C 2359.49 1.56075 0.568319 0
M  V30 24941 O 2360.67 1.84179 0.498266 0
M  V30 24942 C 2357.81 3.42179 0.448082 0
M  V30 24943 C 2356.92 4.29255 -0.486225 0
M  V30 24944 C 2356.06 5.30269 0.314334 0
M  V30 24945 C 2355.1 6.08994 -0.615898 0
M  V30 24946 N 2354.24 7.01942 0.148897 0
M  V30 24947 H 2359.08 2.73917 -1.1736 0
M  V30 24948 H 2356.61 1.34744 -0.590117 0
M  V30 24949 H 2358.57 4.06942 0.919445 0
M  V30 24950 H 2357.2 2.97668 1.24874 0
M  V30 24951 H 2356.25 3.64863 -1.07606 0
M  V30 24952 H 2357.56 4.84171 -1.19918 0
M  V30 24953 H 2356.72 6.00746 0.847863 0
M  V30 24954 H 2355.46 4.76029 1.06054 0
M  V30 24955 H 2354.46 5.37399 -1.16112 0
M  V30 24956 H 2355.69 6.6532 -1.36108 0
M  V30 24957 H 2353.63 6.50101 0.87777 0
M  V30 24958 H 2353.55 7.54314 -0.504565 0
M  V30 24959 H 2354.82 7.76672 0.6634 0
M  V30 24960 N 2359.05 0.638091 1.44105 0
M  V30 24961 C 2360.29 0.145366 2.01978 0
M  V30 24962 C 2360.62 -1.23529 1.50236 0
M  V30 24963 O 2359.88 -1.83522 0.679581 0
M  V30 24964 C 2360.18 0.0887955 3.5729 0
M  V30 24965 C 2359.84 1.40916 4.28315 0
M  V30 24966 C 2358.5 1.77077 4.47434 0
M  V30 24967 C 2360.86 2.28039 4.68666 0
M  V30 24968 C 2358.18 3.00056 5.04166 0
M  V30 24969 C 2360.54 3.50295 5.2676 0
M  V30 24970 C 2359.2 3.86671 5.44097 0
M  V30 24971 H 2358.47 0.0531931 0.739088 0
M  V30 24972 H 2361.12 0.825791 1.7278 0
M  V30 24973 H 2359.42 -0.675027 3.85941 0
M  V30 24974 H 2361.12 -0.309075 3.99807 0
M  V30 24975 H 2357.71 1.11777 4.13768 0
M  V30 24976 H 2361.89 2.01396 4.53601 0
M  V30 24977 H 2357.15 3.28307 5.15776 0
M  V30 24978 H 2361.32 4.18033 5.56975 0
M  V30 24979 H 2358.95 4.82045 5.87824 0
M  V30 24980 N 2360.53 -1.52973 0.379063 0
M  V30 24981 C 2361.94 -1.59574 0.0285728 0
M  V30 24982 C 2362.14 -1.39357 -1.4554 0
M  V30 24983 O 2361.2 -1.20545 -2.21867 0
M  V30 24984 C 2362.51 -2.96571 0.496587 0
M  V30 24985 C 2364.06 -3.0972 0.451963 0
M  V30 24986 C 2364.53 -4.4915 0.896003 0
M  V30 24987 N 2366.02 -4.55304 0.851602 0
M  V30 24988 C 2366.76 -5.61405 1.16671 0
M  V30 24989 N 2366.26 -6.75197 1.55178 0
M  V30 24990 N 2368.05 -5.51457 1.08863 0
M  V30 24991 H 2360.2 -1.64365 1.34528 0
M  V30 24992 H 2362.46 -0.77161 0.550747 0
M  V30 24993 H 2362.17 -3.16549 1.53264 0
M  V30 24994 H 2362.04 -3.7704 -0.109736 0
M  V30 24995 H 2364.43 -2.89444 -0.574978 0
M  V30 24996 H 2364.51 -2.31228 1.09396 0
M  V30 24997 H 2364.15 -4.70165 1.92113 0
M  V30 24998 H 2364.08 -5.26093 0.231123 0
M  V30 24999 H 2366.58 -3.73605 0.568103 0
M  V30 25000 H 2366.89 -7.52113 1.77613 0
M  V30 25001 H 2365.23 -6.76555 1.59056 0
M  V30 25002 H 2368.42 -4.61439 0.786884 0
M  V30 25003 H 2368.6 -6.34046 1.33753 0
M  V30 25004 N 2362 -0.108595 -1.57225 0
M  V30 25005 C 2363.28 0.594906 -1.86334 0
M  V30 25006 C 2363.66 1.85484 -1.00791 0
M  V30 25007 O 2363.01 2.28346 -0.0839694 0
M  V30 25008 C 2363.22 0.897346 -3.37267 0
M  V30 25009 C 2364.57 1.25494 -4.05631 0
M  V30 25010 O 2365.59 0.987938 -3.42225 0
M  V30 25011 O 2364.45 1.75558 -5.17534 0
M  V30 25012 H 2361.54 0.299087 -0.771023 0
M  V30 25013 H 2364.09 -0.142313 -1.69102 0
M  V30 25014 H 2362.86 0.00406928 -3.913 0
M  V30 25015 H 2362.48 1.69008 -3.59892 0
M  V30 25016 N 2363.48 1.56732 0.16515 0
M  V30 25017 C 2364.73 1.81534 0.879111 0
M  V30 25018 C 2365.04 0.686874 1.83143 0
M  V30 25019 O 2366.25 0.819989 2.58821 0
M  V30 25020 C 2364.71 3.21689 1.61382 0
M  V30 25021 C 2364.31 4.42421 0.704826 0
M  V30 25022 C 2366.06 3.55778 2.31564 0
M  V30 25023 C 2363.96 5.73598 1.44012 0
M  V30 25024 H 2362.89 0.676963 0.332021 0
M  V30 25025 H 2365.55 1.83025 0.131976 0
M  V30 25026 H 2363.93 3.14533 2.40593 0
M  V30 25027 H 2365.1 4.60772 -0.0507625 0
M  V30 25028 H 2363.42 4.16248 0.112346 0
M  V30 25029 H 2366.01 4.51033 2.87182 0
M  V30 25030 H 2366.36 2.80956 3.07196 0
M  V30 25031 H 2366.89 3.64515 1.5929 0
M  V30 25032 H 2363.63 6.51467 0.726005 0
M  V30 25033 H 2363.15 5.59213 2.16888 0
M  V30 25034 H 2364.83 6.15767 1.98595 0
M  V30 25035 N 2364.96 -0.433911 1.51509 0
M  V30 25036 C 2366.38 -0.770658 1.39761 0
M  V30 25037 C 2366.58 -1.95635 0.482628 0
M  V30 25038 O 2365.63 -2.52426 -0.0609248 0
M  V30 25039 C 2366.95 -1.04782 2.81853 0
M  V30 25040 C 2368.49 -1.15204 2.91027 0
M  V30 25041 C 2368.97 -1.46212 4.34035 0
M  V30 25042 N 2370.46 -1.53129 4.37157 0
M  V30 25043 C 2371.19 -1.78699 5.44843 0
M  V30 25044 N 2370.69 -2.02039 6.62685 0
M  V30 25045 N 2372.48 -1.8051 5.32328 0
M  V30 25046 H 2364.63 0.346929 2.09548 0
M  V30 25047 H 2366.9 0.092824 0.943445 0
M  V30 25048 H 2366.6 -0.249242 3.50816 0
M  V30 25049 H 2366.48 -1.97456 3.21389 0
M  V30 25050 H 2368.86 -1.94124 2.22261 0
M  V30 25051 H 2368.95 -0.204236 2.54983 0
M  V30 25052 H 2368.59 -0.678185 5.03352 0
M  V30 25053 H 2368.52 -2.42204 4.67595 0
M  V30 25054 H 2371.01 -1.36981 3.522 0
M  V30 25055 H 2371.32 -2.2093 7.40547 0
M  V30 25056 H 2369.67 -1.99354 6.65795 0
M  V30 25057 H 2372.86 -1.61797 4.39249 0
M  V30 25058 H 2373.03 -2.001 6.16331 0
M  V30 25059 N 2366.44 -1.41713 -0.689577 0
M  V30 25060 C 2367.39 -1.44033 -1.80342 0
M  V30 25061 C 2368.36 -0.293977 -1.63478 0
M  V30 25062 O 2369.54 -0.495902 -1.84243 0
M  V30 25063 C 2366.68 -1.3341 -3.1827 0
M  V30 25064 C 2365.79 -2.57963 -3.46525 0
M  V30 25065 C 2364.93 -2.3959 -4.74099 0
M  V30 25066 C 2363.97 -3.59589 -4.95341 0
M  V30 25067 N 2363.1 -3.4025 -6.14145 0
M  V30 25068 H 2367.94 -2.39225 -1.77694 0
M  V30 25069 H 2365.48 -1.18785 -0.867667 0
M  V30 25070 H 2367.44 -1.25253 -3.97954 0
M  V30 25071 H 2366.07 -0.41822 -3.20079 0
M  V30 25072 H 2365.12 -2.76546 -2.61202 0
M  V30 25073 H 2366.43 -3.47206 -3.5812 0
M  V30 25074 H 2365.59 -2.28934 -5.61849 0
M  V30 25075 H 2364.33 -1.47813 -4.64761 0
M  V30 25076 H 2363.33 -3.70693 -4.06038 0
M  V30 25077 H 2364.56 -4.52327 -5.06534 0
M  V30 25078 H 2362.5 -2.51177 -6.06008 0
M  V30 25079 H 2362.42 -4.23072 -6.26535 0
M  V30 25080 H 2363.69 -3.33377 -7.04613 0
M  V30 25081 N 2367.92 0.924431 -1.2764 0
M  V30 25082 C 2369.15 1.704 -1.16822 0
M  V30 25083 C 2369.55 1.87159 0.277158 0
M  V30 25084 O 2368.9 1.39069 1.20023 0
M  V30 25085 C 2368.96 3.12163 -1.78311 0
M  V30 25086 C 2368.62 3.18729 -3.27507 0
M  V30 25087 C 2369.62 3.00731 -4.24095 0
M  V30 25088 C 2367.31 3.41583 -3.68275 0
M  V30 25089 C 2369.3 3.05482 -5.59428 0
M  V30 25090 C 2366.99 3.45968 -5.03736 0
M  V30 25091 C 2367.98 3.27936 -5.99122 0
M  V30 25092 O 2367.67 3.32061 -7.32114 0
M  V30 25093 H 2367.4 0.539792 -0.40694 0
M  V30 25094 H 2369.96 1.16623 -1.6908 0
M  V30 25095 H 2368.19 3.67435 -1.20534 0
M  V30 25096 H 2369.88 3.721 -1.62161 0
M  V30 25097 H 2370.64 2.82912 -3.93936 0
M  V30 25098 H 2366.52 3.54668 -2.94502 0
M  V30 25099 H 2370.07 2.91326 -6.33857 0
M  V30 25100 H 2365.96 3.63312 -5.33549 0
M  V30 25101 H 2366.73 3.48494 -7.40604 0
M  V30 25102 N 2369.39 1.09715 1.13139 0
M  V30 25103 C 2370.64 0.829883 1.83836 0
M  V30 25104 C 2370.96 -0.646696 1.846 0
M  V30 25105 O 2372.16 -1.0296 2.5122 0
M  V30 25106 C 2370.62 1.43472 3.30066 0
M  V30 25107 C 2370.23 2.94405 3.37682 0
M  V30 25108 C 2371.97 1.24652 4.05786 0
M  V30 25109 C 2369.88 3.4796 4.78202 0
M  V30 25110 H 2368.81 0.306789 0.688765 0
M  V30 25111 H 2371.46 1.32023 1.27445 0
M  V30 25112 H 2369.84 0.872064 3.86278 0
M  V30 25113 H 2371.01 3.56923 2.91449 0
M  V30 25114 H 2369.33 3.12293 2.7543 0
M  V30 25115 H 2371.93 1.62115 5.09532 0
M  V30 25116 H 2372.27 0.18743 4.15878 0
M  V30 25117 H 2372.8 1.77685 3.55912 0
M  V30 25118 H 2369.54 4.53503 4.73303 0
M  V30 25119 H 2369.06 2.90208 5.24919 0
M  V30 25120 H 2370.74 3.45341 5.47127 0
M  V30 25121 N 2370.87 -1.30419 0.88479 0
M  V30 25122 C 2372.28 -1.78301 0.553688 0
M  V30 25123 C 2372.63 -1.72752 -0.930122 0
M  V30 25124 O 2371.76 -1.30426 -1.72679 0
M  V30 25125 C 2372.35 -3.23759 0.998291 0
M  V30 25126 C 2370.91 -3.69477 0.718605 0
M  V30 25127 C 2370.06 -2.50876 1.18137 0
M  V30 25128 H 2373.01 -1.17292 1.06903 0
M  V30 25129 H 2373.03 -3.79091 0.327184 0
M  V30 25130 H 2372.54 -3.27765 2.07826 0
M  V30 25131 H 2370.65 -3.70958 -0.349378 0
M  V30 25132 H 2370.76 -4.60955 1.30603 0
M  V30 25133 H 2369.12 -2.47515 0.600713 0
M  V30 25134 H 2369.91 -2.5762 2.26907 0
M  V30 25135 N 2372.35 -0.645724 -1.43764 0
M  V30 25136 C 2373.26 0.0512544 -2.34544 0
M  V30 25137 C 2374.28 0.820193 -1.53456 0
M  V30 25138 O 2375.45 0.769143 -1.86135 0
M  V30 25139 C 2372.52 1.01081 -3.31638 0
M  V30 25140 C 2371.58 0.239637 -4.28631 0
M  V30 25141 C 2370.81 1.15349 -5.21086 0
M  V30 25142 O 2371.03 2.39259 -5.17794 0
M  V30 25143 O 2369.97 0.629932 -5.98595 0
M  V30 25144 H 2373.79 -0.69577 -2.95623 0
M  V30 25145 H 2371.38 -0.405908 -1.4378 0
M  V30 25146 H 2373.26 1.56247 -3.91363 0
M  V30 25147 H 2371.94 1.73819 -2.73072 0
M  V30 25148 H 2370.84 -0.355422 -3.72408 0
M  V30 25149 H 2372.18 -0.448023 -4.90157 0
M  V30 25150 N 2373.83 1.5277 -0.38717 0
M  V30 25151 C 2375.06 2.05971 0.195833 0
M  V30 25152 C 2375.47 1.25905 1.40689 0
M  V30 25153 O 2374.83 0.305166 1.79931 0
M  V30 25154 C 2374.88 3.57009 0.568058 0
M  V30 25155 O 2374.6 4.34042 -0.594879 0
M  V30 25156 C 2376.1 4.26547 1.20715 0
M  V30 25157 H 2373.32 0.670327 0.0300461 0
M  V30 25158 H 2375.87 1.96915 -0.551784 0
M  V30 25159 H 2374.02 3.66145 1.26557 0
M  V30 25160 H 2374.43 5.23701 -0.289414 0
M  V30 25161 H 2375.91 5.33477 1.41798 0
M  V30 25162 H 2376.39 3.81627 2.17388 0
M  V30 25163 H 2376.99 4.21723 0.550461 0
M  V30 25164 N 2375.31 0.116931 1.57166 0
M  V30 25165 C 2376.22 -0.847774 2.18746 0
M  V30 25166 C 2377.23 -1.29421 1.16302 0
M  V30 25167 O 2378.41 -1.35762 1.48763 0
M  V30 25168 C 2375.47 -2.08085 2.77311 0
M  V30 25169 C 2374.53 -1.68654 3.94784 0
M  V30 25170 C 2373.77 -2.86083 4.50546 0
M  V30 25171 O 2373.99 -4.01449 4.05209 0
M  V30 25172 O 2372.92 -2.63288 5.41261 0
M  V30 25173 H 2376.75 -0.353725 3.01633 0
M  V30 25174 H 2374.34 -0.108573 1.49005 0
M  V30 25175 H 2376.22 -2.80307 3.14652 0
M  V30 25176 H 2374.89 -2.56501 1.97457 0
M  V30 25177 H 2373.8 -0.935454 3.62215 0
M  V30 25178 H 2375.13 -1.24982 4.76068 0
M  V30 25179 N 2376.78 -1.56818 -0.156836 0
M  V30 25180 C 2378.06 -1.73705 -0.899213 0
M  V30 25181 C 2378.44 -0.682289 -1.9977 0
M  V30 25182 O 2377.79 0.300482 -2.26516 0
M  V30 25183 C 2378 -3.17421 -1.45069 0
M  V30 25184 C 2379.35 -3.78813 -1.91796 0
M  V30 25185 O 2380.37 -3.20789 -1.54832 0
M  V30 25186 O 2379.23 -4.80726 -2.59932 0
M  V30 25187 H 2376.32 -0.709886 -0.424254 0
M  V30 25188 H 2378.87 -1.69092 -0.143531 0
M  V30 25189 H 2377.64 -3.8568 -0.660778 0
M  V30 25190 H 2377.27 -3.2642 -2.27016 0
M  V30 25191 N 2378.26 0.425871 -1.51737 0
M  V30 25192 C 2379.54 1.18627 -1.55522 0
M  V30 25193 C 2379.92 2.08564 -0.326256 0
M  V30 25194 O 2379.27 2.17897 0.687974 0
M  V30 25195 C 2379.48 1.97815 -2.87524 0
M  V30 25196 C 2380.83 2.54462 -3.39903 0
M  V30 25197 O 2381.85 2.08014 -2.89152 0
M  V30 25198 O 2380.71 3.39208 -4.28486 0
M  V30 25199 H 2377.8 0.54071 -0.625749 0
M  V30 25200 H 2380.35 0.434009 -1.64056 0
M  V30 25201 H 2379.12 1.3183 -3.68425 0
M  V30 25202 H 2378.74 2.80083 -2.82205 0
M  V30 25203 N 2379.74 1.42077 0.682052 0
M  V30 25204 C 2380.97 1.45331 1.46842 0
M  V30 25205 C 2381.38 0.060966 1.89102 0
M  V30 25206 O 2380.72 -0.933054 1.5824 0
M  V30 25207 C 2380.78 2.31109 2.75371 0
M  V30 25208 C 2380.45 3.79086 2.55231 0
M  V30 25209 C 2381.44 4.70918 2.20301 0
M  V30 25210 C 2379.13 4.23275 2.70451 0
M  V30 25211 C 2381.12 6.04929 2.00848 0
M  V30 25212 C 2378.81 5.57347 2.50614 0
M  V30 25213 C 2379.81 6.4799 2.15865 0
M  V30 25214 O 2379.5 7.79587 1.96213 0
M  V30 25215 H 2379.23 0.496659 0.458591 0
M  V30 25216 H 2381.78 1.87164 0.846098 0
M  V30 25217 H 2380.01 1.84113 3.40058 0
M  V30 25218 H 2381.7 2.25904 3.37227 0
M  V30 25219 H 2382.47 4.38065 2.08145 0
M  V30 25220 H 2378.35 3.53017 2.96479 0
M  V30 25221 H 2381.89 6.75642 1.73648 0
M  V30 25222 H 2377.79 5.89775 2.62365 0
M  V30 25223 H 2378.56 7.90871 2.10869 0
M  V30 25224 N 2381.22 -0.917649 1.28129 0
M  V30 25225 C 2382.63 -1.48143 1.13624 0
M  V30 25226 C 2382.98 -1.94261 -0.275173 0
M  V30 25227 O 2382.11 -1.82104 -1.16907 0
M  V30 25228 C 2382.7 -2.69244 2.05653 0
M  V30 25229 C 2381.26 -3.21814 1.95224 0
M  V30 25230 C 2380.41 -1.94528 1.97621 0
M  V30 25231 H 2383.36 -0.730747 1.40875 0
M  V30 25232 H 2383.38 -3.44374 1.61824 0
M  V30 25233 H 2382.89 -2.35648 3.08369 0
M  V30 25234 H 2380.99 -3.60145 0.955307 0
M  V30 25235 H 2381.11 -3.87328 2.81982 0
M  V30 25236 H 2379.47 -2.11458 1.41977 0
M  V30 25237 H 2380.25 -1.63233 3.0201 0
M  V30 25238 N 2382.7 -1.10314 -1.12555 0
M  V30 25239 C 2383.61 -0.763181 -2.21839 0
M  V30 25240 C 2384.62 0.23877 -1.72354 0
M  V30 25241 O 2385.8 0.0778393 -2.0125 0
M  V30 25242 C 2382.86 -0.198693 -3.4613 0
M  V30 25243 C 2381.93 -1.25776 -4.10462 0
M  V30 25244 C 2381.16 -0.720113 -5.28819 0
M  V30 25245 O 2381.38 0.453893 -5.68591 0
M  V30 25246 O 2380.32 -1.47945 -5.83435 0
M  V30 25247 H 2384.14 -1.67536 -2.53309 0
M  V30 25248 H 2381.73 -0.878179 -1.20865 0
M  V30 25249 H 2383.61 0.112326 -4.2125 0
M  V30 25250 H 2382.28 0.686363 -3.1634 0
M  V30 25251 H 2381.19 -1.62162 -3.37127 0
M  V30 25252 H 2382.52 -2.11579 -4.44404 0
M  V30 25253 N 2384.18 1.29948 -0.891694 0
M  V30 25254 C 2385.42 1.97666 -0.52033 0
M  V30 25255 C 2385.78 1.68808 0.914767 0
M  V30 25256 O 2386.98 2.29914 1.39259 0
M  V30 25257 C 2385.25 3.48439 -0.795283 0
M  V30 25258 S 2386.81 4.35624 -0.527029 0
M  V30 25259 H 2383.63 0.684207 -0.193342 0
M  V30 25260 H 2386.23 1.57924 -1.15241 0
M  V30 25261 H 2384.93 3.66935 -1.83812 0
M  V30 25262 H 2384.47 3.9311 -0.151019 0
M  V30 25263 H 2386.48 4.92166 0.631446 0
M  V30 25264 N 2385.65 0.653339 1.4342 0
M  V30 25265 C 2386.6 -0.0501123 2.32546 0
M  V30 25266 C 2387.6 -0.812959 1.48618 0
M  V30 25267 O 2388.8 -0.723346 1.64826 0
M  V30 25268 H 2385.18 -0.03499 0.751186 0
M  V30 25269 H 2387.15 0.719312 2.89601 0
M  V30 25270 C 2385.9 -1.00274 3.32927 0
M  V30 25271 H 2385.22 -0.425166 3.97533 0
M  V30 25272 H 2386.66 -1.46402 3.97923 0
M  V30 25273 C 2385.12 -2.09882 2.63536 0
M  V30 25274 O 2385.65 -3.18261 2.45097 0
M  V30 25275 N 2383.85 -1.86441 2.22908 0
M  V30 25276 H 2383.4 -0.983048 2.38105 0
M  V30 25277 H 2383.36 -2.59973 1.76809 0
M  V30 25278 N 2387.13 -1.52563 0.395266 0
M  V30 25279 C 2388.06 -2.29538 -0.428344 0
M  V30 25280 C 2389.04 -1.33171 -1.05828 0
M  V30 25281 O 2390.23 -1.62069 -1.06992 0
M  V30 25282 C 2387.36 -3.10659 -1.55268 0
M  V30 25283 C 2386.31 -4.14959 -1.04848 0
M  V30 25284 C 2385.64 -4.84341 -2.26535 0
M  V30 25285 C 2386.94 -5.22179 -0.112232 0
M  V30 25286 H 2388.63 -2.98635 0.213919 0
M  V30 25287 H 2386.18 -1.43622 0.104323 0
M  V30 25288 H 2388.13 -3.63269 -2.13573 0
M  V30 25289 H 2386.85 -2.39306 -2.22262 0
M  V30 25290 H 2385.51 -3.63339 -0.487921 0
M  V30 25291 H 2385.16 -4.0953 -2.92052 0
M  V30 25292 H 2384.86 -5.54841 -1.93457 0
M  V30 25293 H 2386.39 -5.39758 -2.85471 0
M  V30 25294 H 2387.8 -5.70113 -0.603652 0
M  V30 25295 H 2386.2 -5.99961 0.129073 0
M  V30 25296 H 2387.27 -4.77619 0.837136 0
M  V30 25297 N 2388.61 -0.125265 -1.57101 0
M  V30 25298 C 2389.57 0.808342 -2.14473 0
M  V30 25299 C 2390.57 1.19031 -1.08112 0
M  V30 25300 O 2391.76 1.11479 -1.33858 0
M  V30 25301 C 2388.89 2.09397 -2.69008 0
M  V30 25302 H 2390.09 0.309644 -2.98297 0
M  V30 25303 H 2387.64 0.124024 -1.55807 0
M  V30 25304 H 2388.38 2.63684 -1.88789 0
M  V30 25305 H 2388.16 1.82951 -3.46802 0
M  V30 25306 H 2389.65 2.76122 -3.13283 0
M  V30 25307 N 2390.09 1.56899 0.148518 0
M  V30 25308 C 2391.02 2.01184 1.18521 0
M  V30 25309 C 2392 0.891148 1.44888 0
M  V30 25310 O 2393.18 1.15885 1.55834 0
M  V30 25311 C 2390.31 2.39116 2.51874 0
M  V30 25312 C 2389.27 3.54357 2.40031 0
M  V30 25313 C 2388.59 3.78098 3.78082 0
M  V30 25314 C 2389.89 4.87072 1.88568 0
M  V30 25315 H 2391.59 2.88038 0.816979 0
M  V30 25316 H 2389.13 1.38574 0.39155 0
M  V30 25317 H 2391.09 2.68698 3.24622 0
M  V30 25318 H 2389.81 1.49198 2.9053 0
M  V30 25319 H 2388.47 3.24939 1.69736 0
M  V30 25320 H 2388.12 2.85433 4.1417 0
M  V30 25321 H 2387.82 4.55651 3.7102 0
M  V30 25322 H 2389.34 4.10103 4.5238 0
M  V30 25323 H 2390.76 5.15381 2.51108 0
M  V30 25324 H 2389.15 5.68421 1.924 0
M  V30 25325 H 2390.22 4.77546 0.841276 0
M  V30 25326 N 2391.57 -0.417818 1.51961 0
M  V30 25327 C 2392.79 -1.19207 1.69719 0
M  V30 25328 C 2393.22 -1.8375 0.40218 0
M  V30 25329 O 2392.57 -1.69645 -0.639563 0
M  V30 25330 C 2392.62 -2.23736 2.82798 0
M  V30 25331 O 2391.73 -3.29679 2.47761 0
M  V30 25332 H 2391.07 -0.348377 0.565269 0
M  V30 25333 H 2393.6 -0.49095 1.98622 0
M  V30 25334 H 2393.61 -2.68206 3.07456 0
M  V30 25335 H 2392.28 -1.76139 3.76759 0
M  V30 25336 H 2390.86 -2.90548 2.33744 0
M  V30 25337 N 2393.04 -1.42436 -0.674508 0
M  V30 25338 C 2394.01 -1.45635 -1.76984 0
M  V30 25339 C 2395.01 -0.343898 -1.5708 0
M  V30 25340 O 2396.2 -0.604738 -1.63366 0
M  V30 25341 C 2393.33 -1.28828 -3.1562 0
M  V30 25342 H 2394.52 -2.43161 -1.75535 0
M  V30 25343 H 2392.07 -1.28888 -0.884167 0
M  V30 25344 H 2392.81 -0.322249 -3.22695 0
M  V30 25345 H 2392.59 -2.0945 -3.31471 0
M  V30 25346 H 2394.08 -1.33949 -3.95534 0
M  V30 25347 N 2394.52 0.910841 -1.28614 0
M  V30 25348 C 2395.47 2.03499 -1.12653 0
M  V30 25349 C 2396.46 1.6934 -0.0450352 0
M  V30 25350 O 2397.67 1.7884 -0.204019 0
M  V30 25351 H 2394.04 0.666816 -0.34765 0
M  V30 25352 H 2396.02 2.14102 -2.07853 0
M  V30 25353 C 2394.76 3.38177 -0.808203 0
M  V30 25354 H 2394.09 3.64957 -1.63237 0
M  V30 25355 H 2395.53 4.17554 -0.736499 0
M  V30 25356 C 2393.99 3.33344 0.488168 0
M  V30 25357 O 2394.52 3.7193 1.5176 0
M  V30 25358 N 2392.72 2.8644 0.489959 0
M  V30 25359 H 2392.27 2.55236 -0.348206 0
M  V30 25360 H 2392.23 2.83589 1.35736 0
M  V30 25361 N 2396 1.10909 1.11969 0
M  V30 25362 C 2396.93 0.720213 2.1759 0
M  V30 25363 C 2397.95 -0.245467 1.60939 0
M  V30 25364 O 2399.13 -0.0291932 1.78476 0
M  V30 25365 C 2396.23 0.0428513 3.38873 0
M  V30 25366 C 2395.41 1.03395 4.25004 0
M  V30 25367 C 2394.47 0.387167 5.24774 0
M  V30 25368 O 2393.49 1.03944 5.59629 0
M  V30 25369 N 2394.69 -0.852306 5.74209 0
M  V30 25370 H 2397.46 1.62898 2.51564 0
M  V30 25371 H 2395.02 0.998566 1.27437 0
M  V30 25372 H 2397.01 -0.40143 4.02704 0
M  V30 25373 H 2395.58 -0.768403 3.03009 0
M  V30 25374 H 2394.8 1.65635 3.57713 0
M  V30 25375 H 2396.09 1.70467 4.79394 0
M  V30 25376 H 2395.49 -1.40151 5.48064 0
M  V30 25377 H 2394.05 -1.23966 6.39903 0
M  V30 25378 N 2397.48 -1.29474 0.898573 0
M  V30 25379 C 2398.76 -1.90507 0.44345 0
M  V30 25380 C 2399.14 -1.81571 -1.07682 0
M  V30 25381 O 2398.48 -1.2417 -1.91818 0
M  V30 25382 C 2398.69 -3.35629 0.956767 0
M  V30 25383 C 2400.04 -4.12661 0.9998 0
M  V30 25384 O 2401.07 -3.44528 0.904359 0
M  V30 25385 O 2399.92 -5.34414 1.14298 0
M  V30 25386 H 2397.02 -0.815398 0.138039 0
M  V30 25387 H 2399.56 -1.37947 0.988364 0
M  V30 25388 H 2398.34 -3.36283 2.00073 0
M  V30 25389 H 2397.96 -3.95665 0.391798 0
M  V30 25390 N 2398.96 -0.660936 -1.43071 0
M  V30 25391 C 2399.87 0.026375 -2.34585 0
M  V30 25392 C 2400.88 0.80387 -1.54318 0
M  V30 25393 O 2402.06 0.749358 -1.8694 0
M  V30 25394 C 2399.12 0.975581 -3.32691 0
M  V30 25395 C 2398.18 0.194161 -4.28861 0
M  V30 25396 C 2397.42 1.09815 -5.2228 0
M  V30 25397 O 2397.64 2.33754 -5.20303 0
M  V30 25398 O 2396.57 0.566408 -5.99229 0
M  V30 25399 H 2400.4 -0.727085 -2.94868 0
M  V30 25400 H 2397.99 -0.421135 -1.43342 0
M  V30 25401 H 2399.87 1.52087 -3.92998 0
M  V30 25402 H 2398.54 1.70913 -2.74901 0
M  V30 25403 H 2397.45 -0.394901 -3.7201 0
M  V30 25404 H 2398.78 -0.499985 -4.89654 0
M  V30 25405 N 2400.43 1.52351 -0.403352 0
M  V30 25406 C 2401.85 1.86578 0.0675454 0
M  V30 25407 C 2402.2 1.32239 1.44939 0
M  V30 25408 O 2401.32 0.659343 2.06111 0
M  V30 25409 C 2401.92 3.38553 0.129344 0
M  V30 25410 C 2400.48 3.7244 0.544564 0
M  V30 25411 C 2399.62 2.75836 -0.2846 0
M  V30 25412 H 2402.57 1.4606 -0.620657 0
M  V30 25413 H 2402.59 3.68559 0.945746 0
M  V30 25414 H 2402.11 3.78072 -0.876516 0
M  V30 25415 H 2400.21 3.38496 1.55728 0
M  V30 25416 H 2400.32 4.78203 0.292961 0
M  V30 25417 H 2398.68 2.53448 0.252214 0
M  V30 25418 H 2399.47 3.18194 -1.2887 0
M  V30 25419 N 2401.91 0.133594 1.57033 0
M  V30 25420 C 2403.14 -0.52816 2.00045 0
M  V30 25421 C 2403.56 -1.5929 1.01352 0
M  V30 25422 O 2402.91 -1.82498 0.00851577 0
M  V30 25423 C 2402.96 -1.14104 3.4302 0
M  V30 25424 O 2402.68 -0.118843 4.37939 0
M  V30 25425 C 2404.19 -1.8847 4.01241 0
M  V30 25426 H 2401.41 -0.138649 0.656519 0
M  V30 25427 H 2403.95 0.224232 2.03267 0
M  V30 25428 H 2402.1 -1.84412 3.40692 0
M  V30 25429 H 2402.52 -0.566038 5.21437 0
M  V30 25430 H 2403.99 -2.2666 5.03318 0
M  V30 25431 H 2404.47 -2.76552 3.41198 0
M  V30 25432 H 2405.08 -1.22891 4.07158 0
M  V30 25433 N 2403.39 -1.56975 -0.140195 0
M  V30 25434 C 2404.64 -1.82909 -0.85012 0
M  V30 25435 C 2404.95 -0.715924 -1.82027 0
M  V30 25436 O 2406.16 -0.861061 -2.57484 0
M  V30 25437 C 2404.61 -3.24216 -1.56244 0
M  V30 25438 C 2404.22 -4.43486 -0.634352 0
M  V30 25439 C 2405.97 -3.59417 -2.25875 0
M  V30 25440 C 2403.87 -5.75816 -1.34868 0
M  V30 25441 H 2402.8 -0.682159 -0.321209 0
M  V30 25442 H 2405.45 -1.83212 -0.102842 0
M  V30 25443 H 2403.84 -3.18321 -2.35559 0
M  V30 25444 H 2405.01 -4.60633 0.124061 0
M  V30 25445 H 2403.33 -4.16374 -0.0461104 0
M  V30 25446 H 2405.92 -4.55544 -2.7997 0
M  V30 25447 H 2406.27 -2.85807 -3.02688 0
M  V30 25448 H 2406.8 -3.67003 -1.53471 0
M  V30 25449 H 2403.54 -6.5254 -0.62227 0
M  V30 25450 H 2403.06 -5.62593 -2.07964 0
M  V30 25451 H 2404.74 -6.18849 -1.88773 0
M  V30 25452 N 2404.87 0.409753 -1.5218 0
M  V30 25453 C 2406.12 1.15385 -1.65436 0
M  V30 25454 C 2406.43 1.91671 -0.39009 0
M  V30 25455 O 2407.64 2.68501 -0.402446 0
M  V30 25456 C 2406.09 2.09997 -2.92283 0
M  V30 25457 C 2405.7 1.39231 -4.25815 0
M  V30 25458 C 2407.44 2.8467 -3.14902 0
M  V30 25459 C 2405.35 2.32489 -5.43786 0
M  V30 25460 H 2404.28 0.434421 -0.616274 0
M  V30 25461 H 2406.93 0.41837 -1.78667 0
M  V30 25462 H 2405.31 2.87095 -2.72749 0
M  V30 25463 H 2406.49 0.675019 -4.55829 0
M  V30 25464 H 2404.8 0.766025 -4.09293 0
M  V30 25465 H 2407.4 3.54586 -4.00216 0
M  V30 25466 H 2407.74 3.47584 -2.29109 0
M  V30 25467 H 2408.28 2.14671 -3.34904 0
M  V30 25468 H 2405.02 1.74222 -6.31923 0
M  V30 25469 H 2404.54 3.02192 -5.18112 0
M  V30 25470 H 2406.21 2.93028 -5.7684 0
M  V30 25471 N 2406.35 1.42792 0.666944 0
M  V30 25472 C 2407.29 1.46883 1.78028 0
M  V30 25473 C 2408.26 0.319948 1.62989 0
M  V30 25474 O 2409.45 0.52515 1.83431 0
M  V30 25475 C 2406.59 1.38457 3.16107 0
M  V30 25476 C 2405.7 2.63443 3.42377 0
M  V30 25477 C 2404.84 2.47102 4.70227 0
M  V30 25478 C 2403.88 3.67424 4.89557 0
M  V30 25479 N 2403.01 3.49977 6.08655 0
M  V30 25480 H 2407.85 2.42022 1.73866 0
M  V30 25481 H 2405.39 1.20151 0.848659 0
M  V30 25482 H 2407.35 1.31568 3.95911 0
M  V30 25483 H 2405.98 0.469089 3.19373 0
M  V30 25484 H 2405.03 2.80667 2.56769 0
M  V30 25485 H 2406.34 3.52859 3.52551 0
M  V30 25486 H 2405.5 2.37843 5.58136 0
M  V30 25487 H 2404.23 1.55188 4.6235 0
M  V30 25488 H 2403.24 3.77106 4.00089 0
M  V30 25489 H 2404.46 4.60328 4.99274 0
M  V30 25490 H 2402.41 2.60787 6.01935 0
M  V30 25491 H 2402.33 4.32986 6.19725 0
M  V30 25492 H 2403.6 3.44545 6.9922 0
M  V30 25493 N 2407.82 -0.904008 1.29095 0
M  V30 25494 C 2409.07 -1.65654 1.16989 0
M  V30 25495 C 2409.4 -1.92187 -0.278891 0
M  V30 25496 O 2408.68 -1.52922 -1.20188 0
M  V30 25497 C 2408.96 -3.00836 1.97913 0
M  V30 25498 C 2408.81 -2.81396 3.50908 0
M  V30 25499 C 2410.13 -4.0151 1.80215 0
M  V30 25500 H 2407.25 -0.601157 0.426356 0
M  V30 25501 H 2409.89 -1.04744 1.5852 0
M  V30 25502 H 2408.04 -3.52826 1.62622 0
M  V30 25503 H 2409.72 -2.36341 3.96157 0
M  V30 25504 H 2407.96 -2.16263 3.76049 0
M  V30 25505 H 2408.63 -3.77436 4.02798 0
M  V30 25506 H 2411.11 -3.58615 2.11031 0
M  V30 25507 H 2409.98 -4.94042 2.39193 0
M  V30 25508 H 2410.24 -4.35585 0.756196 0
M  V30 25509 N 2409.3 -1.11501 -1.11379 0
M  V30 25510 C 2410.55 -0.862556 -1.82769 0
M  V30 25511 C 2410.87 0.613501 -1.85098 0
M  V30 25512 O 2410.14 1.44568 -1.32201 0
M  V30 25513 H 2408.72 -0.316112 -0.676817 0
M  V30 25514 H 2411.38 -1.40753 -1.34813 0
M  V30 25515 H 2410.48 -1.23532 -2.86612 0
M  V30 25516 N 2410.78 1.28995 -0.905426 0
M  V30 25517 C 2412.06 1.90269 -0.453546 0
M  V30 25518 C 2412.44 1.82139 1.06717 0
M  V30 25519 O 2411.79 1.25185 1.91157 0
M  V30 25520 C 2412 3.35117 -0.974553 0
M  V30 25521 C 2413.34 4.12125 -1.02167 0
M  V30 25522 O 2414.37 3.44044 -0.922618 0
M  V30 25523 O 2413.23 5.338 -1.1713 0
M  V30 25524 H 2410.32 0.814655 -0.142362 0
M  V30 25525 H 2412.87 1.37421 -0.995666 0
M  V30 25526 H 2411.64 3.35218 -2.01854 0
M  V30 25527 H 2411.26 3.95452 -0.412775 0
M  V30 25528 N 2412.26 0.668514 1.42719 0
M  V30 25529 C 2413.51 0.188454 2.01922 0
M  V30 25530 C 2413.84 -1.19976 1.52707 0
M  V30 25531 O 2413.11 -1.80418 0.726597 0
M  V30 25532 C 2413.4 0.216148 3.59451 0
M  V30 25533 C 2413.25 1.63937 4.18861 0
M  V30 25534 C 2414.57 -0.439102 4.37904 0
M  V30 25535 H 2411.69 0.0699541 0.733673 0
M  V30 25536 H 2414.33 0.852106 1.69821 0
M  V30 25537 H 2412.48 -0.348944 3.8693 0
M  V30 25538 H 2414.15 2.25623 4.02358 0
M  V30 25539 H 2412.39 2.18199 3.74929 0
M  V30 25540 H 2413.07 1.61048 5.27984 0
M  V30 25541 H 2415.54 0.0418609 4.16079 0
M  V30 25542 H 2414.42 -0.389061 5.47519 0
M  V30 25543 H 2414.68 -1.5157 4.15306 0
M  V30 25544 N 2413.74 -1.52135 0.411426 0
M  V30 25545 C 2414.98 -2.02137 -0.163852 0
M  V30 25546 C 2415.32 -1.29638 -1.44595 0
M  V30 25547 O 2414.59 -0.403387 -1.90271 0
M  V30 25548 C 2414.87 -3.57767 -0.409208 0
M  V30 25549 C 2414.73 -4.40913 0.889721 0
M  V30 25550 C 2416.05 -4.23697 -1.19035 0
M  V30 25551 H 2413.17 -0.734708 -0.0580766 0
M  V30 25552 H 2415.81 -1.82006 0.545342 0
M  V30 25553 H 2413.96 -3.75052 -1.01333 0
M  V30 25554 H 2415.63 -4.35334 1.52583 0
M  V30 25555 H 2413.87 -4.07034 1.50018 0
M  V30 25556 H 2414.54 -5.47889 0.672411 0
M  V30 25557 H 2417.02 -4.10525 -0.67887 0
M  V30 25558 H 2415.9 -5.32524 -1.33077 0
M  V30 25559 H 2416.16 -3.82807 -2.21159 0
M  V30 25560 N 2415.22 -0.14192 -1.5696 0
M  V30 25561 C 2416.44 0.520802 -2.00755 0
M  V30 25562 C 2416.87 1.57957 -1.02133 0
M  V30 25563 O 2416.22 1.813 0.00368137 0
M  V30 25564 C 2416.27 1.10288 -3.4332 0
M  V30 25565 O 2415.38 2.21789 -3.47683 0
M  V30 25566 H 2414.72 0.127897 -0.651566 0
M  V30 25567 H 2417.25 -0.237156 -2.03221 0
M  V30 25568 H 2417.26 1.4328 -3.82014 0
M  V30 25569 H 2415.93 0.327502 -4.14609 0
M  V30 25570 H 2414.51 1.90064 -3.20827 0
M  V30 25571 N 2416.69 1.57047 0.131868 0
M  V30 25572 C 2417.92 1.88069 0.855186 0
M  V30 25573 C 2418.33 0.729848 1.74556 0
M  V30 25574 O 2417.67 -0.308931 1.81084 0
M  V30 25575 C 2417.74 3.13967 1.75114 0
M  V30 25576 C 2417.4 4.45093 1.03639 0
M  V30 25577 C 2418.4 5.18486 0.383185 0
M  V30 25578 C 2416.08 4.91806 1.02139 0
M  V30 25579 C 2418.08 6.36805 -0.275459 0
M  V30 25580 C 2415.76 6.10045 0.35894 0
M  V30 25581 C 2416.76 6.82391 -0.288341 0
M  V30 25582 O 2416.45 7.98382 -0.940251 0
M  V30 25583 H 2416.18 0.627332 0.251853 0
M  V30 25584 H 2418.74 2.05021 0.124746 0
M  V30 25585 H 2416.97 2.93064 2.5229 0
M  V30 25586 H 2418.65 3.31113 2.34774 0
M  V30 25587 H 2419.42 4.83458 0.386477 0
M  V30 25588 H 2415.3 4.35408 1.51463 0
M  V30 25589 H 2418.84 6.93211 -0.78127 0
M  V30 25590 H 2414.74 6.44532 0.353367 0
M  V30 25591 H 2415.51 8.14143 -0.843433 0
M  V30 25592 N 2418.17 -0.401677 1.52395 0
M  V30 25593 C 2419.42 -1.14567 1.6649 0
M  V30 25594 C 2419.74 -1.90834 0.40093 0
M  V30 25595 O 2419.01 -1.86981 -0.584382 0
M  V30 25596 H 2417.59 -0.425918 0.61368 0
M  V30 25597 H 2420.25 -0.457059 1.89465 0
M  V30 25598 H 2419.35 -1.85561 2.50945 0
M  V30 25599 N 2419.65 -1.43144 -0.659362 0
M  V30 25600 C 2420.6 -1.48083 -1.79371 0
M  V30 25601 C 2421.59 -0.355017 -1.65638 0
M  V30 25602 O 2422.8 -0.528734 -1.72059 0
M  V30 25603 H 2419.17 -0.46411 -0.591697 0
M  V30 25604 H 2421.14 -2.43612 -1.72325 0
M  V30 25605 C 2419.89 -1.41505 -3.17603 0
M  V30 25606 H 2419.22 -2.27437 -3.28805 0
M  V30 25607 H 2420.66 -1.49022 -3.96949 0
M  V30 25608 C 2419.11 -0.131824 -3.36642 0
M  V30 25609 O 2419.64 0.809317 -3.93463 0
M  V30 25610 N 2417.85 -0.0439906 -2.90567 0
M  V30 25611 H 2417.4 -0.810662 -2.44512 0
M  V30 25612 H 2417.36 0.813916 -3.03682 0
M  V30 25613 N 2421.13 0.897149 -1.29572 0
M  V30 25614 C 2422.38 1.64254 -1.17063 0
M  V30 25615 C 2422.69 1.93637 0.276442 0
M  V30 25616 O 2423.9 2.66417 0.522893 0
M  V30 25617 C 2422.35 2.95979 -2.04755 0
M  V30 25618 C 2421.96 2.74181 -3.543 0
M  V30 25619 C 2423.7 3.7391 -2.00976 0
M  V30 25620 C 2421.61 4.01648 -4.34088 0
M  V30 25621 H 2420.54 0.616197 -0.434531 0
M  V30 25622 H 2423.19 0.994241 -1.54231 0
M  V30 25623 H 2421.57 3.62035 -1.60458 0
M  V30 25624 H 2422.75 2.16702 -4.06665 0
M  V30 25625 H 2421.06 2.09642 -3.59777 0
M  V30 25626 H 2423.66 4.68422 -2.57847 0
M  V30 25627 H 2424 4.04349 -0.990344 0
M  V30 25628 H 2424.54 3.14699 -2.4333 0
M  V30 25629 H 2421.27 3.76375 -5.36677 0
M  V30 25630 H 2420.79 4.58677 -3.86491 0
M  V30 25631 H 2422.47 4.69773 -4.44885 0
M  V30 25632 N 2422.61 1.1209 1.10786 0
M  V30 25633 C 2423.54 0.807793 2.19082 0
M  V30 25634 C 2424.52 -0.226829 1.68581 0
M  V30 25635 O 2425.7 -0.0888134 1.93997 0
M  V30 25636 C 2422.83 0.257637 3.46343 0
M  V30 25637 C 2421.79 1.22491 4.10098 0
M  V30 25638 C 2421.11 0.535145 5.32015 0
M  V30 25639 C 2422.41 2.57819 4.54232 0
M  V30 25640 H 2424.11 1.71333 2.45531 0
M  V30 25641 H 2421.65 0.825225 1.18009 0
M  V30 25642 H 2423.6 0.0263419 4.21392 0
M  V30 25643 H 2422.33 -0.683222 3.19374 0
M  V30 25644 H 2420.99 1.44195 3.37051 0
M  V30 25645 H 2420.64 -0.410739 5.0132 0
M  V30 25646 H 2420.34 1.18034 5.75623 0
M  V30 25647 H 2421.86 0.312802 6.09798 0
M  V30 25648 H 2423.27 2.40164 5.20571 0
M  V30 25649 H 2421.67 3.18384 5.08676 0
M  V30 25650 H 2422.74 3.16534 3.67334 0
M  V30 25651 N 2424.08 -1.28513 0.912254 0
M  V30 25652 C 2425.01 -2.29756 0.416443 0
M  V30 25653 C 2425.99 -1.62111 -0.515166 0
M  V30 25654 O 2427.18 -1.89532 -0.423219 0
M  V30 25655 C 2424.31 -3.45576 -0.345659 0
M  V30 25656 C 2423.26 -4.25108 0.496674 0
M  V30 25657 C 2422.59 -5.33249 -0.393678 0
M  V30 25658 C 2423.89 -4.91998 1.75316 0
M  V30 25659 H 2425.58 -2.71478 1.26254 0
M  V30 25660 H 2423.13 -1.3051 0.608538 0
M  V30 25661 H 2425.08 -4.15489 -0.703349 0
M  V30 25662 H 2423.81 -3.0273 -1.22565 0
M  V30 25663 H 2422.47 -3.5692 0.836863 0
M  V30 25664 H 2422.11 -4.86647 -1.27217 0
M  V30 25665 H 2421.81 -5.87365 0.166312 0
M  V30 25666 H 2423.34 -6.0601 -0.747283 0
M  V30 25667 H 2424.75 -5.5428 1.46446 0
M  V30 25668 H 2423.15 -5.56102 2.25544 0
M  V30 25669 H 2424.22 -4.16573 2.48184 0
M  V30 25670 N 2425.56 -0.676073 -1.42362 0
M  V30 25671 C 2426.79 -0.205741 -2.06377 0
M  V30 25672 C 2427.21 1.1288 -1.50465 0
M  V30 25673 O 2426.57 1.70236 -0.623649 0
M  V30 25674 C 2426.62 -0.152718 -3.60276 0
M  V30 25675 O 2425.72 0.878379 -4.02937 0
M  V30 25676 H 2425.06 -0.10537 -0.655586 0
M  V30 25677 H 2427.59 -0.925445 -1.82474 0
M  V30 25678 H 2427.6 0.0229958 -4.07994 0
M  V30 25679 H 2426.28 -1.12682 -4.00344 0
M  V30 25680 H 2424.86 0.673603 -3.66766 0
M  V30 25681 N 2427.04 1.51915 -0.419488 0
M  V30 25682 C 2428.29 2.01523 0.152602 0
M  V30 25683 C 2428.61 1.30651 1.44759 0
M  V30 25684 O 2427.88 0.435569 1.90996 0
M  V30 25685 H 2426.46 0.744636 0.0593835 0
M  V30 25686 H 2429.12 1.86738 -0.558105 0
M  V30 25687 H 2428.22 3.10228 0.341315 0
M  V30 25688 N 2428.52 0.150242 1.56882 0
M  V30 25689 C 2429.47 -0.805274 2.18216 0
M  V30 25690 C 2430.46 -1.25294 1.14008 0
M  V30 25691 O 2431.67 -1.22104 1.32252 0
M  V30 25692 H 2428.04 -0.277901 0.698767 0
M  V30 25693 H 2430.01 -0.26381 2.97232 0
M  V30 25694 C 2428.76 -2.03304 2.82069 0
M  V30 25695 H 2428.08 -1.69756 3.61971 0
M  V30 25696 H 2429.52 -2.68097 3.28481 0
M  V30 25697 C 2427.98 -2.84312 1.80744 0
M  V30 25698 O 2428.51 -3.80764 1.27989 0
M  V30 25699 N 2426.72 -2.4891 1.49974 0
M  V30 25700 H 2426.27 -1.70539 1.93065 0
M  V30 25701 H 2426.22 -3.03403 0.82427 0
M  V30 25702 N 2430 -1.57115 -0.123538 0
M  V30 25703 C 2430.93 -1.9665 -1.17735 0
M  V30 25704 C 2431.94 -0.865225 -1.37905 0
M  V30 25705 O 2433.13 -1.14354 -1.3706 0
M  V30 25706 C 2430.23 -2.24566 -2.53817 0
M  V30 25707 C 2429.4 -3.55872 -2.54311 0
M  V30 25708 C 2428.46 -3.72054 -3.72105 0
M  V30 25709 O 2427.49 -4.44212 -3.55899 0
M  V30 25710 N 2428.69 -3.1048 -4.90492 0
M  V30 25711 H 2431.46 -2.87655 -0.841097 0
M  V30 25712 H 2429.02 -1.58848 -0.312862 0
M  V30 25713 H 2431.01 -2.32611 -3.31171 0
M  V30 25714 H 2429.58 -1.3971 -2.79642 0
M  V30 25715 H 2428.8 -3.59055 -1.62705 0
M  V30 25716 H 2430.09 -4.42185 -2.51693 0
M  V30 25717 H 2429.48 -2.51815 -5.06563 0
M  V30 25718 H 2428.04 -3.24053 -5.65538 0
M  V30 25719 N 2431.47 0.393589 -1.52606 0
M  V30 25720 C 2432.7 1.1604 -1.71296 0
M  V30 25721 C 2433.12 1.83855 -0.429292 0
M  V30 25722 O 2432.47 1.72498 0.595891 0
M  V30 25723 C 2432.53 2.21188 -2.85934 0
M  V30 25724 O 2432.25 1.56138 -4.09332 0
M  V30 25725 C 2433.75 3.10631 -3.16265 0
M  V30 25726 H 2430.97 0.348094 -0.573647 0
M  V30 25727 H 2433.51 0.461057 -1.99235 0
M  V30 25728 H 2431.67 2.86765 -2.6047 0
M  V30 25729 H 2432.08 2.2597 -4.73326 0
M  V30 25730 H 2433.55 3.80449 -3.99953 0
M  V30 25731 H 2434.03 3.7388 -2.30457 0
M  V30 25732 H 2434.64 2.50704 -3.43551 0
M  V30 25733 N 2432.95 1.43492 0.651762 0
M  V30 25734 C 2433.92 1.48432 1.74644 0
M  V30 25735 C 2434.92 0.368845 1.56513 0
M  V30 25736 O 2436.11 0.630651 1.62384 0
M  V30 25737 C 2433.24 1.33833 3.13531 0
M  V30 25738 H 2434.43 2.45923 1.71644 0
M  V30 25739 H 2431.98 1.30279 0.86355 0
M  V30 25740 H 2432.72 0.373546 3.22141 0
M  V30 25741 H 2432.5 2.14697 3.28097 0
M  V30 25742 H 2433.99 1.40225 3.93353 0
M  V30 25743 N 2434.43 -0.890264 1.30046 0
M  V30 25744 C 2435.85 -1.17266 1.08263 0
M  V30 25745 C 2436.05 -2.00864 -0.160028 0
M  V30 25746 O 2435.1 -2.37579 -0.855139 0
M  V30 25747 C 2436.42 -1.88446 2.34326 0
M  V30 25748 C 2437.96 -2.01232 2.39738 0
M  V30 25749 C 2438.44 -2.75824 3.6563 0
M  V30 25750 N 2439.93 -2.83373 3.66407 0
M  V30 25751 C 2440.66 -3.41649 4.60504 0
M  V30 25752 N 2440.16 -4.01016 5.6494 0
M  V30 25753 N 2441.95 -3.39413 4.48057 0
M  V30 25754 H 2434.1 -0.332726 2.09778 0
M  V30 25755 H 2436.37 -0.209932 0.924463 0
M  V30 25756 H 2436.07 -1.3446 3.24982 0
M  V30 25757 H 2435.95 -2.88863 2.42565 0
M  V30 25758 H 2438.33 -2.54391 1.49564 0
M  V30 25759 H 2438.42 -0.99919 2.35478 0
M  V30 25760 H 2438.06 -2.23339 4.5616 0
M  V30 25761 H 2437.99 -3.77502 3.67151 0
M  V30 25762 H 2440.48 -2.41217 2.909 0
M  V30 25763 H 2440.79 -4.43534 6.32849 0
M  V30 25764 H 2439.14 -3.99451 5.68739 0
M  V30 25765 H 2442.33 -2.92258 3.65654 0
M  V30 25766 H 2442.5 -3.84535 5.21572 0
M  V30 25767 N 2435.91 -1.12676 -1.1019 0
M  V30 25768 C 2436.84 -0.740663 -2.15846 0
M  V30 25769 C 2437.82 0.269393 -1.60353 0
M  V30 25770 O 2439 0.162747 -1.87796 0
M  V30 25771 C 2436.13 -0.0967005 -3.38562 0
M  V30 25772 C 2435.18 -1.07399 -4.12756 0
M  V30 25773 S 2436.01 -2.60275 -4.67993 0
M  V30 25774 C 2437.17 -1.97217 -5.94017 0
M  V30 25775 H 2437.4 -1.63562 -2.48263 0
M  V30 25776 H 2434.93 -0.946109 -1.22017 0
M  V30 25777 H 2436.89 0.268463 -4.09621 0
M  V30 25778 H 2435.55 0.775409 -3.04378 0
M  V30 25779 H 2434.74 -0.571085 -5.00754 0
M  V30 25780 H 2434.35 -1.38222 -3.47521 0
M  V30 25781 H 2436.64 -1.31645 -6.64587 0
M  V30 25782 H 2437.58 -2.83264 -6.48974 0
M  V30 25783 H 2437.99 -1.42695 -5.46167 0
M  V30 25784 N 2437.39 1.28028 -0.919057 0
M  V30 25785 C 2438.32 2.29532 -0.428622 0
M  V30 25786 C 2439.3 1.62382 0.506561 0
M  V30 25787 O 2440.48 1.89754 0.413162 0
M  V30 25788 C 2437.61 3.45754 0.327328 0
M  V30 25789 C 2436.57 4.24839 -0.519212 0
M  V30 25790 C 2435.89 5.3345 0.365393 0
M  V30 25791 C 2437.19 4.91061 -1.77923 0
M  V30 25792 H 2438.89 2.70805 -1.27692 0
M  V30 25793 H 2436.43 1.30185 -0.615451 0
M  V30 25794 H 2438.39 4.15856 0.681305 0
M  V30 25795 H 2437.11 3.03376 1.20957 0
M  V30 25796 H 2435.77 3.56472 -0.855779 0
M  V30 25797 H 2435.42 4.87314 1.24634 0
M  V30 25798 H 2435.12 5.87268 -0.197459 0
M  V30 25799 H 2436.64 6.06398 0.715134 0
M  V30 25800 H 2438.05 5.53496 -1.49384 0
M  V30 25801 H 2436.45 5.54898 -2.2849 0
M  V30 25802 H 2437.52 4.15251 -2.50389 0
M  V30 25803 N 2438.86 0.683613 1.42002 0
M  V30 25804 C 2439.81 0.0107714 2.30797 0
M  V30 25805 C 2440.78 -0.783662 1.46451 0
M  V30 25806 O 2441.97 -0.754125 1.75264 0
M  V30 25807 C 2439.11 -0.928247 3.32382 0
M  V30 25808 C 2438.22 -0.1267 4.31814 0
M  V30 25809 C 2437.35 -1.06227 5.2047 0
M  V30 25810 C 2436.39 -0.252927 6.11577 0
M  V30 25811 N 2435.53 -1.14167 6.92756 0
M  V30 25812 H 2440.37 0.773778 2.87779 0
M  V30 25813 H 2437.91 0.393307 1.41744 0
M  V30 25814 H 2439.87 -1.48659 3.89816 0
M  V30 25815 H 2438.5 -1.65778 2.76979 0
M  V30 25816 H 2437.55 0.548396 3.76426 0
M  V30 25817 H 2438.86 0.501279 4.96275 0
M  V30 25818 H 2438.01 -1.69025 5.8268 0
M  V30 25819 H 2436.75 -1.72412 4.56207 0
M  V30 25820 H 2435.76 0.388204 5.48428 0
M  V30 25821 H 2436.98 0.404958 6.77892 0
M  V30 25822 H 2434.93 -1.78976 6.31113 0
M  V30 25823 H 2434.85 -0.568979 7.53856 0
M  V30 25824 H 2436.11 -1.75684 7.59444 0
M  V30 25825 N 2440.34 -1.5169 0.427538 0
M  V30 25826 C 2441.57 -2.06119 -0.14095 0
M  V30 25827 C 2441.98 -1.2959 -1.37851 0
M  V30 25828 O 2441.32 -0.346067 -1.80411 0
M  V30 25829 C 2441.39 -3.55448 -0.538213 0
M  V30 25830 C 2441.05 -4.5316 0.591174 0
M  V30 25831 C 2442.05 -4.98969 1.46036 0
M  V30 25832 C 2439.73 -4.96377 0.769115 0
M  V30 25833 C 2441.73 -5.86656 2.49227 0
M  V30 25834 C 2439.41 -5.83856 1.80431 0
M  V30 25835 C 2440.41 -6.28892 2.66428 0
M  V30 25836 O 2440.1 -7.14636 3.68171 0
M  V30 25837 H 2439.83 -0.675817 -0.0157336 0
M  V30 25838 H 2442.39 -1.96364 0.60253 0
M  V30 25839 H 2440.62 -3.62953 -1.33425 0
M  V30 25840 H 2442.3 -3.92437 -1.03673 0
M  V30 25841 H 2443.07 -4.66283 1.33437 0
M  V30 25842 H 2438.95 -4.6087 0.109354 0
M  V30 25843 H 2442.49 -6.21729 3.16383 0
M  V30 25844 H 2438.39 -6.15955 1.93053 0
M  V30 25845 H 2439.16 -7.32792 3.64635 0
M  V30 25846 N 2441.82 -0.15856 -1.568 0
M  V30 25847 C 2442.77 0.79369 -2.1864 0
M  V30 25848 C 2443.76 1.24687 -1.14671 0
M  V30 25849 O 2444.97 1.21401 -1.32898 0
M  V30 25850 H 2441.34 0.274191 -0.700231 0
M  V30 25851 H 2443.32 0.248043 -2.97367 0
M  V30 25852 C 2442.06 2.01805 -2.83143 0
M  V30 25853 H 2441.39 1.67834 -3.62866 0
M  V30 25854 H 2442.83 2.66351 -3.29899 0
M  V30 25855 C 2441.29 2.8335 -1.82249 0
M  V30 25856 O 2441.82 3.8008 -1.30007 0
M  V30 25857 N 2440.02 2.48111 -1.51292 0
M  V30 25858 H 2439.57 1.69513 -1.93967 0
M  V30 25859 H 2439.53 3.02961 -0.840349 0
M  V30 25860 N 2443.3 1.57178 0.115204 0
M  V30 25861 C 2444.53 1.88966 0.835191 0
M  V30 25862 C 2444.94 0.748321 1.73772 0
M  V30 25863 O 2444.28 -0.289707 1.81401 0
M  V30 25864 C 2444.34 3.15807 1.71774 0
M  V30 25865 C 2444.01 4.46167 0.989119 0
M  V30 25866 C 2445 5.18863 0.328171 0
M  V30 25867 C 2442.69 4.92861 0.969169 0
M  V30 25868 C 2444.68 6.36477 -0.342985 0
M  V30 25869 C 2442.37 6.10391 0.294216 0
M  V30 25870 C 2443.37 6.82047 -0.360702 0
M  V30 25871 O 2443.06 7.9734 -1.02488 0
M  V30 25872 H 2442.79 0.629968 0.245185 0
M  V30 25873 H 2445.34 2.05142 0.102994 0
M  V30 25874 H 2443.57 2.95724 2.49167 0
M  V30 25875 H 2445.26 3.33585 2.31249 0
M  V30 25876 H 2446.03 4.8384 0.335178 0
M  V30 25877 H 2441.91 4.3699 1.46836 0
M  V30 25878 H 2445.45 6.92344 -0.854751 0
M  V30 25879 H 2441.35 6.44871 0.284986 0
M  V30 25880 H 2442.11 8.13202 -0.929737 0
M  V30 25881 N 2444.78 -0.38549 1.52813 0
M  V30 25882 C 2446.19 -0.963265 1.59932 0
M  V30 25883 C 2446.54 -1.90867 0.454335 0
M  V30 25884 O 2445.66 -2.12244 -0.422094 0
M  V30 25885 C 2446.26 -1.75381 2.89874 0
M  V30 25886 C 2444.82 -2.28124 2.99393 0
M  V30 25887 C 2443.97 -1.08779 2.55073 0
M  V30 25888 H 2446.92 -0.164921 1.57841 0
M  V30 25889 H 2446.94 -2.61336 2.76557 0
M  V30 25890 H 2446.45 -1.06548 3.73188 0
M  V30 25891 H 2444.55 -3.00259 2.20624 0
M  V30 25892 H 2444.66 -2.5737 4.04101 0
M  V30 25893 H 2443.03 -1.44886 2.09476 0
M  V30 25894 H 2443.81 -0.414747 3.40785 0
M  V30 25895 N 2446.26 -1.43835 -0.644143 0
M  V30 25896 C 2447.48 -1.4939 -1.43144 0
M  V30 25897 C 2447.9 -0.114616 -1.88452 0
M  V30 25898 O 2447.26 0.876961 -1.60049 0
M  V30 25899 C 2447.31 -2.44753 -2.66042 0
M  V30 25900 O 2447.03 -3.77318 -2.22627 0
M  V30 25901 C 2448.53 -2.59641 -3.59307 0
M  V30 25902 H 2445.75 -0.507085 -0.439438 0
M  V30 25903 H 2448.29 -1.8867 -0.788917 0
M  V30 25904 H 2446.45 -2.08644 -3.26415 0
M  V30 25905 H 2446.86 -4.28685 -3.02208 0
M  V30 25906 H 2448.34 -3.30424 -4.42181 0
M  V30 25907 H 2448.81 -1.64435 -4.07257 0
M  V30 25908 H 2449.42 -2.96599 -3.0481 0
M  V30 25909 N 2447.73 0.883355 -1.30517 0
M  V30 25910 C 2448.68 1.98925 -1.17036 0
M  V30 25911 C 2449.65 1.65994 -0.0594533 0
M  V30 25912 O 2450.84 1.8941 -0.229929 0
M  V30 25913 C 2447.98 3.33958 -0.869835 0
M  V30 25914 C 2447.09 3.7957 -2.06278 0
M  V30 25915 C 2446.22 5.03256 -1.7002 0
M  V30 25916 C 2445.26 5.41281 -2.858 0
M  V30 25917 N 2444.4 6.56148 -2.49828 0
M  V30 25918 H 2449.24 2.09788 -2.11644 0
M  V30 25919 H 2446.78 1.02717 -1.05297 0
M  V30 25920 H 2448.73 4.11683 -0.676211 0
M  V30 25921 H 2447.36 3.22776 0.0393764 0
M  V30 25922 H 2446.42 2.9774 -2.3676 0
M  V30 25923 H 2447.73 4.03689 -2.92979 0
M  V30 25924 H 2446.88 5.88612 -1.47042 0
M  V30 25925 H 2445.62 4.81012 -0.804913 0
M  V30 25926 H 2444.63 4.54451 -3.09442 0
M  V30 25927 H 2445.85 5.65497 -3.76018 0
M  V30 25928 H 2443.8 6.35476 -1.62806 0
M  V30 25929 H 2443.71 6.80145 -3.3006 0
M  V30 25930 H 2444.98 7.44731 -2.3021 0
M  V30 25931 N 2449.21 1.13259 1.09591 0
M  V30 25932 C 2450.44 0.916765 1.86038 0
M  V30 25933 C 2450.86 -0.529114 1.80505 0
M  V30 25934 O 2450.22 -1.37532 1.1813 0
M  V30 25935 C 2450.27 1.40709 3.32014 0
M  V30 25936 O 2449.37 0.591225 4.0814 0
M  V30 25937 H 2448.71 0.328693 0.576937 0
M  V30 25938 H 2451.24 1.50685 1.38403 0
M  V30 25939 H 2451.25 1.40997 3.82863 0
M  V30 25940 H 2449.93 2.45985 3.35357 0
M  V30 25941 H 2448.5 0.656069 3.67083 0
M  V30 25942 N 2450.69 -1.27539 0.925834 0
M  V30 25943 C 2451.94 -1.94066 0.564172 0
M  V30 25944 C 2452.26 -1.73136 -0.897157 0
M  V30 25945 O 2451.53 -1.07802 -1.63571 0
M  V30 25946 H 2450.11 -0.718132 0.205658 0
M  V30 25947 H 2452.77 -1.55285 1.17782 0
M  V30 25948 H 2451.87 -3.02481 0.768863 0
M  V30 25949 N 2452.17 -0.691135 -1.41637 0
M  V30 25950 C 2453.4 -0.228794 -2.05329 0
M  V30 25951 C 2453.81 1.12538 -1.52091 0
M  V30 25952 O 2453.15 1.7135 -0.662175 0
M  V30 25953 C 2453.21 -0.104134 -3.59349 0
M  V30 25954 C 2452.87 -1.38964 -4.3536 0
M  V30 25955 C 2453.87 -2.32656 -4.64938 0
M  V30 25956 C 2451.56 -1.64178 -4.74712 0
M  V30 25957 C 2453.55 -3.49828 -5.32822 0
M  V30 25958 C 2451.24 -2.81635 -5.42333 0
M  V30 25959 C 2452.24 -3.74283 -5.71315 0
M  V30 25960 O 2451.92 -4.89684 -6.37546 0
M  V30 25961 H 2451.66 -0.105009 -0.667794 0
M  V30 25962 H 2454.21 -0.94297 -1.82475 0
M  V30 25963 H 2452.44 0.665772 -3.80926 0
M  V30 25964 H 2454.13 0.320448 -4.04633 0
M  V30 25965 H 2454.89 -2.14432 -4.35022 0
M  V30 25966 H 2450.77 -0.929282 -4.51537 0
M  V30 25967 H 2454.32 -4.22162 -5.55361 0
M  V30 25968 H 2450.21 -2.99778 -5.71667 0
M  V30 25969 H 2450.98 -4.89441 -6.56041 0
M  V30 25970 N 2453.65 1.51461 -0.435577 0
M  V30 25971 C 2454.89 2.03982 0.130672 0
M  V30 25972 C 2455.25 1.31271 1.40114 0
M  V30 25973 O 2456.45 1.74155 2.04752 0
M  V30 25974 C 2454.72 3.55721 0.34604 0
M  V30 25975 S 2456.28 4.29968 0.875947 0
M  V30 25976 H 2453.1 0.710249 0.0326756 0
M  V30 25977 H 2455.7 1.86239 -0.594577 0
M  V30 25978 H 2454.4 4.06209 -0.584982 0
M  V30 25979 H 2453.94 3.77754 1.09842 0
M  V30 25980 H 2455.95 4.47023 2.15371 0
M  V30 25981 N 2455.12 0.166873 1.56714 0
M  V30 25982 C 2456.37 -0.478271 1.96359 0
M  V30 25983 C 2456.69 -1.64078 1.05373 0
M  V30 25984 O 2455.96 -1.95537 0.119189 0
M  V30 25985 H 2454.54 -0.17968 0.725068 0
M  V30 25986 H 2457.21 0.247018 1.93328 0
M  V30 25987 H 2456.3 -0.84124 3.00549 0
M  V30 25988 N 2456.6 -1.57237 -0.106866 0
M  V30 25989 C 2457.85 -1.85119 -0.810889 0
M  V30 25990 C 2458.17 -0.753858 -1.79839 0
M  V30 25991 O 2457.44 0.221022 -1.94649 0
M  V30 25992 H 2456.02 -0.68303 -0.302454 0
M  V30 25993 H 2458.68 -1.94686 -0.0912982 0
M  V30 25994 H 2457.78 -2.81454 -1.3487 0
M  V30 25995 N 2458.08 0.377381 -1.53015 0
M  V30 25996 C 2459.33 1.12291 -1.68874 0
M  V30 25997 C 2459.66 1.89305 -0.433257 0
M  V30 25998 O 2458.93 1.85984 0.569225 0
M  V30 25999 C 2459.22 2.09173 -2.93119 0
M  V30 26000 C 2459.07 1.35846 -4.28796 0
M  V30 26001 C 2460.39 3.09452 -3.12934 0
M  V30 26002 H 2457.51 0.406851 -0.614525 0
M  V30 26003 H 2460.15 0.404997 -1.85633 0
M  V30 26004 H 2458.3 2.70394 -2.78961 0
M  V30 26005 H 2459.97 0.775002 -4.54743 0
M  V30 26006 H 2458.22 0.660289 -4.28745 0
M  V30 26007 H 2458.89 2.06697 -5.1184 0
M  V30 26008 H 2461.36 2.58328 -3.26199 0
M  V30 26009 H 2460.24 3.74474 -4.01323 0
M  V30 26010 H 2460.5 3.78967 -2.27676 0
M  V30 26011 N 2459.56 1.44175 0.636506 0
M  V30 26012 C 2460.49 1.53447 1.76 0
M  V30 26013 C 2461.47 0.38787 1.65619 0
M  V30 26014 O 2462.65 0.607289 1.8446 0
M  V30 26015 C 2459.78 1.47315 3.14508 0
M  V30 26016 C 2458.74 2.60397 3.39673 0
M  V30 26017 C 2458.06 2.39317 4.78154 0
M  V30 26018 C 2459.36 4.02573 3.32765 0
M  V30 26019 H 2461.06 2.47486 1.68497 0
M  V30 26020 H 2458.6 1.19112 0.809216 0
M  V30 26021 H 2460.56 1.52404 3.92875 0
M  V30 26022 H 2459.28 0.497906 3.22782 0
M  V30 26023 H 2457.94 2.54689 2.63684 0
M  V30 26024 H 2457.59 1.39997 4.83125 0
M  V30 26025 H 2457.29 3.1513 4.9595 0
M  V30 26026 H 2458.81 2.46215 5.58758 0
M  V30 26027 H 2460.23 4.09679 4.01044 0
M  V30 26028 H 2458.62 4.78547 3.62096 0
M  V30 26029 H 2459.69 4.26524 2.30662 0
M  V30 26030 N 2461.04 -0.876421 1.30983 0
M  V30 26031 C 2462.27 -1.65947 1.23066 0
M  V30 26032 C 2462.67 -1.88059 -0.207504 0
M  V30 26033 O 2462.02 -1.43428 -1.14779 0
M  V30 26034 C 2462.08 -3.0533 1.89773 0
M  V30 26035 C 2461.74 -3.06354 3.39111 0
M  V30 26036 C 2462.74 -2.84784 4.34965 0
M  V30 26037 C 2460.43 -3.2768 3.80699 0
M  V30 26038 C 2462.42 -2.84509 5.7038 0
M  V30 26039 C 2460.11 -3.27033 5.16229 0
M  V30 26040 C 2461.1 -3.05474 6.1088 0
M  V30 26041 O 2460.79 -3.0466 7.43934 0
M  V30 26042 H 2460.52 -0.524317 0.426694 0
M  V30 26043 H 2463.08 -1.10268 1.73292 0
M  V30 26044 H 2461.31 -3.62708 1.34088 0
M  V30 26045 H 2463 -3.65825 1.75859 0
M  V30 26046 H 2463.76 -2.68096 4.04165 0
M  V30 26047 H 2459.64 -3.43493 3.07463 0
M  V30 26048 H 2463.19 -2.676 6.44233 0
M  V30 26049 H 2459.08 -3.43259 5.46666 0
M  V30 26050 H 2459.85 -3.20767 7.53028 0
M  V30 26051 N 2462.51 -1.13839 -1.08989 0
M  V30 26052 C 2463.46 -0.819873 -2.15747 0
M  V30 26053 C 2464.43 0.219997 -1.64637 0
M  V30 26054 O 2465.62 0.0912422 -1.90582 0
M  V30 26055 C 2462.76 -0.296973 -3.4382 0
M  V30 26056 C 2461.87 -1.39644 -4.08808 0
M  V30 26057 C 2461 -0.831406 -5.24653 0
M  V30 26058 C 2460.04 -1.90896 -5.81571 0
M  V30 26059 N 2459.18 -1.36154 -6.88772 0
M  V30 26060 H 2464.02 -1.7343 -2.42335 0
M  V30 26061 H 2461.56 -0.865634 -1.18934 0
M  V30 26062 H 2463.52 0.0243606 -4.17193 0
M  V30 26063 H 2462.15 0.580572 -3.17536 0
M  V30 26064 H 2461.2 -1.83428 -3.33254 0
M  V30 26065 H 2462.51 -2.21066 -4.47137 0
M  V30 26066 H 2461.66 -0.461622 -6.04941 0
M  V30 26067 H 2460.4 0.0138463 -4.87698 0
M  V30 26068 H 2459.41 -2.28776 -4.99942 0
M  V30 26069 H 2460.63 -2.75769 -6.20587 0
M  V30 26070 H 2458.58 -0.538369 -6.53787 0
M  V30 26071 H 2458.5 -2.1122 -7.25894 0
M  V30 26072 H 2459.76 -1.01947 -7.72805 0
M  V30 26073 N 2463.99 1.27046 -0.932584 0
M  V30 26074 C 2465.24 1.93438 -0.571385 0
M  V30 26075 C 2465.55 1.74054 0.892436 0
M  V30 26076 O 2466.76 2.34829 1.36263 0
M  V30 26077 C 2465.22 3.46551 -0.971121 0
M  V30 26078 C 2464.82 3.74682 -2.45596 0
M  V30 26079 C 2466.57 4.18995 -0.681406 0
M  V30 26080 C 2464.48 5.21193 -2.79484 0
M  V30 26081 H 2463.41 0.724172 -0.209978 0
M  V30 26082 H 2466.06 1.44261 -1.13406 0
M  V30 26083 H 2464.44 3.94563 -0.337052 0
M  V30 26084 H 2465.61 3.37408 -3.13835 0
M  V30 26085 H 2463.93 3.15451 -2.71808 0
M  V30 26086 H 2466.52 5.26882 -0.911032 0
M  V30 26087 H 2466.87 4.14548 0.381555 0
M  V30 26088 H 2467.4 3.76821 -1.2748 0
M  V30 26089 H 2464.14 5.30735 -3.84709 0
M  V30 26090 H 2463.66 5.59596 -2.159 0
M  V30 26091 H 2465.34 5.89117 -2.67489 0
M  V30 26092 N 2465.47 0.698636 1.41269 0
M  V30 26093 C 2466.72 0.230445 2.00782 0
M  V30 26094 C 2467.04 -1.17503 1.55622 0
M  V30 26095 O 2466.31 -1.79345 0.788181 0
M  V30 26096 H 2464.89 0.0822075 0.742463 0
M  V30 26097 H 2467.55 0.90048 1.72851 0
M  V30 26098 H 2466.65 0.250265 3.11095 0
M  V30 26099 N 2466.95 -1.51228 0.443603 0
M  V30 26100 C 2467.88 -2.25673 -0.400568 0
M  V30 26101 C 2468.89 -1.2993 -0.980922 0
M  V30 26102 O 2470.08 -1.55639 -0.873997 0
M  V30 26103 C 2467.18 -3.00184 -1.57299 0
M  V30 26104 C 2466.36 -4.23071 -1.11039 0
M  V30 26105 C 2465.41 -4.80108 -2.15366 0
M  V30 26106 O 2464.44 -5.41778 -1.74544 0
M  V30 26107 N 2465.64 -4.64689 -3.47914 0
M  V30 26108 H 2468.41 -2.98757 0.237502 0
M  V30 26109 H 2465.97 -1.59584 0.272837 0
M  V30 26110 H 2467.96 -3.35227 -2.26727 0
M  V30 26111 H 2466.53 -2.3007 -2.11628 0
M  V30 26112 H 2465.75 -3.93451 -0.24295 0
M  V30 26113 H 2467.04 -5.02804 -0.7788 0
M  V30 26114 H 2466.44 -4.15582 -3.83807 0
M  V30 26115 H 2464.99 -5.04077 -4.13219 0
M  V30 26116 N 2468.43 -0.175182 -1.56623 0
M  V30 26117 C 2469.68 0.468887 -1.96174 0
M  V30 26118 C 2469.99 1.64127 -1.06404 0
M  V30 26119 O 2471.19 2.35182 -1.35652 0
M  V30 26120 C 2469.65 0.885572 -3.48835 0
M  V30 26121 C 2469.26 -0.261422 -4.47237 0
M  V30 26122 C 2471 1.49784 -3.97196 0
M  V30 26123 C 2468.91 0.17511 -5.91141 0
M  V30 26124 H 2467.84 0.178945 -0.732458 0
M  V30 26125 H 2470.49 -0.264029 -1.81591 0
M  V30 26126 H 2468.87 1.67458 -3.58851 0
M  V30 26127 H 2470.05 -1.03879 -4.48939 0
M  V30 26128 H 2468.36 -0.783898 -4.08955 0
M  V30 26129 H 2470.96 1.83656 -5.0217 0
M  V30 26130 H 2471.3 2.39716 -3.40355 0
M  V30 26131 H 2471.83 0.773199 -3.90213 0
M  V30 26132 H 2468.57 -0.689529 -6.51863 0
M  V30 26133 H 2468.09 0.917756 -5.92737 0
M  V30 26134 H 2469.77 0.617679 -6.44045 0
M  V30 26135 N 2469.91 1.57292 0.0985263 0
M  V30 26136 C 2470.84 2.04853 1.1206 0
M  V30 26137 C 2471.82 0.936792 1.4198 0
M  V30 26138 O 2473 1.20784 1.52069 0
M  V30 26139 C 2470.13 2.47008 2.4414 0
M  V30 26140 C 2469.09 3.61814 2.28636 0
M  V30 26141 C 2468.41 3.89935 3.65862 0
M  V30 26142 C 2469.71 4.92825 1.72977 0
M  V30 26143 H 2471.41 2.90491 0.724928 0
M  V30 26144 H 2468.95 1.3975 0.347266 0
M  V30 26145 H 2470.9 2.78889 3.15909 0
M  V30 26146 H 2469.63 1.58365 2.85636 0
M  V30 26147 H 2468.29 3.30174 1.59312 0
M  V30 26148 H 2467.94 2.98465 4.0488 0
M  V30 26149 H 2467.64 4.67224 3.56336 0
M  V30 26150 H 2469.16 4.24288 4.39104 0
M  V30 26151 H 2470.57 5.23109 2.34584 0
M  V30 26152 H 2468.97 5.74254 1.74219 0
M  V30 26153 H 2470.04 4.79981 0.688922 0
M  V30 26154 N 2471.38 -0.369261 1.53213 0
M  V30 26155 C 2472.63 -1.11009 1.68883 0
M  V30 26156 C 2472.95 -1.8994 0.441319 0
M  V30 26157 O 2472.22 -1.88178 -0.54459 0
M  V30 26158 H 2470.8 -0.412805 0.622576 0
M  V30 26159 H 2473.46 -0.416768 1.90392 0
M  V30 26160 H 2472.56 -1.80196 2.54825 0
M  V30 26161 N 2472.86 -1.4451 -0.628851 0
M  V30 26162 C 2474.11 -1.46693 -1.38435 0
M  V30 26163 C 2474.42 -0.104306 -1.95322 0
M  V30 26164 O 2475.63 -0.00366935 -2.715 0
M  V30 26165 C 2474.09 -2.58265 -2.50654 0
M  V30 26166 C 2473.69 -4.00744 -2.0027 0
M  V30 26167 C 2475.44 -2.6967 -3.27839 0
M  V30 26168 C 2473.34 -5.03736 -3.09845 0
M  V30 26169 H 2472.27 -0.545775 -0.520236 0
M  V30 26170 H 2474.93 -1.70583 -0.676283 0
M  V30 26171 H 2473.31 -2.27618 -3.24046 0
M  V30 26172 H 2474.48 -4.40969 -1.33728 0
M  V30 26173 H 2472.8 -3.93601 -1.35894 0
M  V30 26174 H 2475.39 -3.43789 -4.09528 0
M  V30 26175 H 2475.74 -1.75566 -3.77468 0
M  V30 26176 H 2476.27 -2.99738 -2.61538 0
M  V30 26177 H 2473.01 -5.99476 -2.65157 0
M  V30 26178 H 2472.53 -4.68101 -3.75022 0
M  V30 26179 H 2474.21 -5.27538 -3.74583 0
M  V30 26180 N 2474.34 0.869463 -1.31446 0
M  V30 26181 C 2475.29 1.96442 -1.15735 0
M  V30 26182 C 2476.27 1.60755 -0.0682138 0
M  V30 26183 O 2477.47 1.74555 -0.293184 0
M  V30 26184 C 2474.59 3.32163 -0.867313 0
M  V30 26185 C 2473.68 3.74116 -1.99745 0
M  V30 26186 N 2474.07 3.88025 -3.24454 0
M  V30 26187 C 2472.37 4.03632 -1.8973 0
M  V30 26188 C 2473.07 4.23872 -3.98381 0
M  V30 26189 N 2472.05 4.34584 -3.26554 0
M  V30 26190 H 2475.85 2.05308 -2.10299 0
M  V30 26191 H 2473.36 1.06029 -1.23011 0
M  V30 26192 H 2475.36 4.10357 -0.73574 0
M  V30 26193 H 2474.02 3.24624 0.0701043 0
M  V30 26194 H 2475.03 3.72739 -3.59563 0
M  V30 26195 H 2471.71 4.04479 -1.03456 0
M  V30 26196 H 2473.1 4.42226 -5.05852 0
M  V30 26197 N 2475.82 1.14415 1.08383 0
M  V30 26198 C 2477.06 0.913865 1.81042 0
M  V30 26199 C 2477.4 -0.558177 1.86005 0
M  V30 26200 O 2476.67 -1.41347 1.33609 0
M  V30 26201 C 2476.95 1.51575 3.26645 0
M  V30 26202 C 2476.81 3.05766 3.2989 0
M  V30 26203 C 2478.13 1.19281 4.23627 0
M  V30 26204 H 2475.25 0.333425 0.657265 0
M  V30 26205 H 2477.89 1.41414 1.26894 0
M  V30 26206 H 2476.04 1.0903 3.72887 0
M  V30 26207 H 2477.71 3.57143 2.91971 0
M  V30 26208 H 2475.95 3.40202 2.69157 0
M  V30 26209 H 2476.62 3.42985 4.3251 0
M  V30 26210 H 2479.1 1.56063 3.85725 0
M  V30 26211 H 2477.98 1.64027 5.23819 0
M  V30 26212 H 2478.24 0.108145 4.41968 0
M  V30 26213 N 2477.3 -1.26549 0.939309 0
M  V30 26214 C 2478.54 -1.93456 0.584724 0
M  V30 26215 C 2478.86 -1.74078 -0.878743 0
M  V30 26216 O 2478.13 -1.0953 -1.62419 0
M  V30 26217 H 2476.71 -0.715911 0.213263 0
M  V30 26218 H 2479.38 -1.54027 1.19423 0
M  V30 26219 H 2478.47 -3.01649 0.800902 0
M  V30 26220 N 2478.77 -0.706118 -1.40896 0
M  V30 26221 C 2480.02 -0.241089 -2.00657 0
M  V30 26222 C 2480.34 1.16676 -1.56243 0
M  V30 26223 O 2479.61 1.78924 -0.797681 0
M  V30 26224 H 2478.19 -0.0861438 -0.742016 0
M  V30 26225 H 2480.85 -0.909635 -1.72371 0
M  V30 26226 H 2479.95 -0.266759 -3.10958 0
M  V30 26227 N 2480.25 1.50991 -0.451617 0
M  V30 26228 C 2481.2 2.29689 0.366823 0
M  V30 26229 C 2482.19 1.36141 1.00807 0
M  V30 26230 O 2483.4 1.5342 0.9414 0
M  V30 26231 H 2479.77 0.739393 0.13712 0
M  V30 26232 H 2481.75 2.96705 -0.317591 0
M  V30 26233 C 2480.49 3.16139 1.44746 0
M  V30 26234 H 2479.82 3.88019 0.963405 0
M  V30 26235 H 2481.26 3.74235 1.99308 0
M  V30 26236 C 2479.72 2.32446 2.43865 0
M  V30 26237 O 2480.25 1.99398 3.48717 0
M  V30 26238 N 2478.45 1.95396 2.15102 0
M  V30 26239 H 2478 2.22471 1.29862 0
M  V30 26240 H 2477.96 1.39698 2.81659 0
M  V30 26241 N 2481.73 0.183486 1.56528 0
M  V30 26242 C 2482.98 -0.457417 1.96856 0
M  V30 26243 C 2483.3 -1.62951 1.07107 0
M  V30 26244 O 2482.57 -1.954 0.139921 0
M  V30 26245 H 2481.15 -0.171979 0.726933 0
M  V30 26246 H 2483.81 0.26751 1.93055 0
M  V30 26247 H 2482.91 -0.809315 3.01424 0
M  V30 26248 N 2483.21 -1.57342 -0.0901833 0
M  V30 26249 C 2484.62 -1.53285 -0.44452 0
M  V30 26250 C 2484.82 -0.900945 -1.80237 0
M  V30 26251 O 2483.88 -0.495556 -2.47589 0
M  V30 26252 C 2485.19 -2.97994 -0.402491 0
M  V30 26253 C 2486.74 -3.09235 -0.483996 0
M  V30 26254 C 2487.22 -4.55561 -0.472064 0
M  V30 26255 N 2488.71 -4.60127 -0.532676 0
M  V30 26256 C 2489.44 -5.70801 -0.545362 0
M  V30 26257 N 2488.94 -6.90891 -0.51396 0
M  V30 26258 N 2490.73 -5.58989 -0.590542 0
M  V30 26259 H 2482.88 -1.96792 0.799156 0
M  V30 26260 H 2485.14 -0.899951 0.29798 0
M  V30 26261 H 2484.85 -3.47711 0.528167 0
M  V30 26262 H 2484.72 -3.56938 -1.21963 0
M  V30 26263 H 2487.11 -2.59503 -1.40507 0
M  V30 26264 H 2487.19 -2.53235 0.361373 0
M  V30 26265 H 2486.84 -5.05946 0.445089 0
M  V30 26266 H 2486.77 -5.09404 -1.33471 0
M  V30 26267 H 2489.26 -3.73699 -0.56194 0
M  V30 26268 H 2489.57 -7.71001 -0.527059 0
M  V30 26269 H 2487.92 -6.93334 -0.480932 0
M  V30 26270 H 2491.11 -4.64074 -0.612638 0
M  V30 26271 H 2491.28 -6.45244 -0.59696 0
M  V30 26272 N 2484.69 0.36113 -1.53407 0
M  V30 26273 C 2485.96 1.11924 -1.60413 0
M  V30 26274 C 2486.34 2.06992 -0.414421 0
M  V30 26275 O 2485.69 2.20619 0.594937 0
M  V30 26276 C 2485.9 1.85442 -2.95655 0
M  V30 26277 C 2487.25 2.39817 -3.5039 0
M  V30 26278 O 2488.27 1.95563 -2.97714 0
M  V30 26279 O 2487.13 3.20729 -4.42487 0
M  V30 26280 H 2484.23 0.513684 -0.648119 0
M  V30 26281 H 2486.77 0.364036 -1.65749 0
M  V30 26282 H 2485.54 1.16085 -3.73684 0
M  V30 26283 H 2485.17 2.67861 -2.9383 0
M  V30 26284 N 2486.16 1.44842 0.621179 0
M  V30 26285 C 2487.41 1.47855 1.3778 0
M  V30 26286 C 2487.73 0.116258 1.94653 0
M  V30 26287 O 2487 -0.852706 1.76368 0
M  V30 26288 H 2485.58 0.544458 0.511443 0
M  V30 26289 H 2488.25 1.80696 0.730414 0
M  V30 26290 H 2487.34 2.20965 2.20411 0
M  V30 26291 N 2487.64 -0.862479 1.31905 0
M  V30 26292 C 2488.89 -1.61609 1.22019 0
M  V30 26293 C 2489.22 -1.93253 -0.219876 0
M  V30 26294 O 2488.47 -1.56819 -1.17073 0
M  V30 26295 C 2488.77 -2.95033 2.01718 0
M  V30 26296 C 2488.44 -2.82851 3.5115 0
M  V30 26297 C 2487.1 -2.79236 3.91894 0
M  V30 26298 C 2489.45 -2.69346 4.46209 0
M  V30 26299 C 2486.78 -2.59983 5.25952 0
M  V30 26300 C 2489.13 -2.51629 5.80401 0
M  V30 26301 C 2487.8 -2.46402 6.20357 0
M  V30 26302 H 2487.07 -0.59137 0.446501 0
M  V30 26303 H 2489.71 -1.00109 1.6325 0
M  V30 26304 H 2488.02 -3.6061 1.53191 0
M  V30 26305 H 2489.71 -3.5235 1.91444 0
M  V30 26306 H 2486.3 -2.86486 3.18785 0
M  V30 26307 H 2490.49 -2.71189 4.15656 0
M  V30 26308 H 2485.74 -2.54366 5.55975 0
M  V30 26309 H 2489.92 -2.40158 6.5368 0
M  V30 26310 H 2487.55 -2.31243 7.24176 0
M  V30 26311 N 2489.12 -1.14988 -1.07775 0
M  V30 26312 C 2490.35 -0.946246 -1.84556 0
M  V30 26313 C 2490.77 0.50033 -1.81324 0
M  V30 26314 O 2490.13 1.35635 -1.20303 0
M  V30 26315 C 2490.18 -1.45973 -3.29733 0
M  V30 26316 O 2489.28 -0.656081 -4.07148 0
M  V30 26317 H 2488.62 -0.33783 -0.571635 0
M  V30 26318 H 2491.15 -1.52867 -1.35988 0
M  V30 26319 H 2491.16 -1.4707 -3.80571 0
M  V30 26320 H 2489.84 -2.51289 -3.31401 0
M  V30 26321 H 2488.41 -0.714386 -3.65993 0
M  V30 26322 N 2490.6 1.26049 -0.946007 0
M  V30 26323 C 2491.56 2.24456 -0.463936 0
M  V30 26324 C 2492.56 1.5501 0.427627 0
M  V30 26325 O 2493.75 1.72726 0.226127 0
M  V30 26326 C 2490.88 3.39292 0.330753 0
M  V30 26327 H 2492.08 2.68616 -1.33361 0
M  V30 26328 H 2489.63 1.38288 -0.72844 0
M  V30 26329 H 2490.36 3.00539 1.21847 0
M  V30 26330 H 2490.15 3.90883 -0.308748 0
M  V30 26331 H 2491.64 4.12387 0.657793 0
M  V30 26332 N 2492.08 0.71358 1.4052 0
M  V30 26333 C 2493.01 0.00885434 2.28198 0
M  V30 26334 C 2493.99 -0.76971 1.43228 0
M  V30 26335 O 2495.17 -0.756769 1.72642 0
M  V30 26336 C 2492.3 -0.994842 3.2376 0
M  V30 26337 C 2491.34 -0.307325 4.25391 0
M  V30 26338 S 2492.18 0.96334 5.26764 0
M  V30 26339 C 2493.33 -0.0383043 6.25888 0
M  V30 26340 H 2493.57 0.752457 2.8762 0
M  V30 26341 H 2491.1 0.504527 1.45924 0
M  V30 26342 H 2493.06 -1.56872 3.79343 0
M  V30 26343 H 2491.72 -1.71114 2.63399 0
M  V30 26344 H 2490.91 -1.06601 4.92597 0
M  V30 26345 H 2490.51 0.193944 3.73497 0
M  V30 26346 H 2492.81 -0.885794 6.71684 0
M  V30 26347 H 2493.75 0.600314 7.05551 0
M  V30 26348 H 2494.16 -0.401134 5.63073 0
M  V30 26349 N 2493.55 -1.50749 0.459618 0
M  V30 26350 C 2494.48 -2.31148 -0.330604 0
M  V30 26351 C 2495.47 -1.37539 -1.00085 0
M  V30 26352 O 2496.65 -1.66461 -1.00022 0
M  V30 26353 C 2493.78 -3.16965 -1.41952 0
M  V30 26354 C 2492.73 -4.19033 -0.871534 0
M  V30 26355 C 2492.06 -4.93513 -2.05788 0
M  V30 26356 C 2493.36 -5.22186 0.109343 0
M  V30 26357 H 2495.05 -2.97459 0.340388 0
M  V30 26358 H 2492.6 -1.4305 0.165144 0
M  V30 26359 H 2494.55 -3.72001 -1.97973 0
M  V30 26360 H 2493.28 -2.48517 -2.11912 0
M  V30 26361 H 2491.94 -3.65081 -0.333378 0
M  V30 26362 H 2491.58 -4.21548 -2.74419 0
M  V30 26363 H 2491.28 -5.62547 -1.6975 0
M  V30 26364 H 2492.81 -5.5138 -2.62321 0
M  V30 26365 H 2494.22 -5.7216 -0.361304 0
M  V30 26366 H 2492.62 -5.98874 0.383421 0
M  V30 26367 H 2493.69 -4.73639 1.03896 0
M  V30 26368 N 2495.03 -0.191784 -1.56429 0
M  V30 26369 C 2495.96 0.725657 -2.21938 0
M  V30 26370 C 2496.94 1.22378 -1.18142 0
M  V30 26371 O 2498.13 1.27322 -1.46638 0
M  V30 26372 C 2495.26 1.94667 -2.87615 0
M  V30 26373 C 2494.21 1.58359 -3.97626 0
M  V30 26374 C 2493.54 2.88094 -4.50451 0
M  V30 26375 C 2494.84 0.796042 -5.16198 0
M  V30 26376 H 2496.53 0.179554 -2.98861 0
M  V30 26377 H 2494.08 0.0849212 -1.43749 0
M  V30 26378 H 2496.03 2.59367 -3.32124 0
M  V30 26379 H 2494.76 2.51725 -2.08092 0
M  V30 26380 H 2493.41 0.960185 -3.53802 0
M  V30 26381 H 2493.06 3.43235 -3.67694 0
M  V30 26382 H 2492.76 2.64547 -5.2468 0
M  V30 26383 H 2494.29 3.53789 -4.9766 0
M  V30 26384 H 2495.7 1.34608 -5.57273 0
M  V30 26385 H 2494.1 0.658823 -5.96473 0
M  V30 26386 H 2495.17 -0.203563 -4.84473 0
M  V30 26387 N 2496.51 1.57387 0.0818378 0
M  V30 26388 C 2497.93 1.53518 0.436385 0
M  V30 26389 C 2498.13 0.910491 1.79756 0
M  V30 26390 O 2497.18 0.508679 2.47323 0
M  V30 26391 C 2498.5 2.98203 0.386682 0
M  V30 26392 C 2500.04 3.09488 0.467589 0
M  V30 26393 C 2500.52 4.55805 0.447898 0
M  V30 26394 N 2502.01 4.60403 0.508267 0
M  V30 26395 C 2502.74 5.71082 0.515083 0
M  V30 26396 N 2502.24 6.91154 0.477314 0
M  V30 26397 N 2504.03 5.59295 0.560889 0
M  V30 26398 H 2496.18 1.96366 -0.809581 0
M  V30 26399 H 2498.45 0.898358 -0.302749 0
M  V30 26400 H 2498.15 3.47427 -0.5466 0
M  V30 26401 H 2498.03 3.5758 1.20068 0
M  V30 26402 H 2500.41 2.60244 1.39129 0
M  V30 26403 H 2500.5 2.53039 -0.374797 0
M  V30 26404 H 2500.14 5.05703 -0.471915 0
M  V30 26405 H 2500.07 5.10105 1.30768 0
M  V30 26406 H 2502.56 3.73991 0.542114 0
M  V30 26407 H 2502.87 7.71269 0.486164 0
M  V30 26408 H 2501.22 6.93579 0.444156 0
M  V30 26409 H 2504.41 4.64392 0.588019 0
M  V30 26410 H 2504.58 6.45552 0.562732 0
M  V30 26411 N 2497.99 -0.35299 1.53596 0
M  V30 26412 C 2499.21 -1.11901 1.74622 0
M  V30 26413 C 2499.64 -1.81879 0.479753 0
M  V30 26414 O 2499 -1.72205 -0.567035 0
M  V30 26415 C 2499.04 -2.1154 2.92033 0
M  V30 26416 O 2498.15 -3.18874 2.61521 0
M  V30 26417 H 2497.49 -0.324089 0.579537 0
M  V30 26418 H 2500.02 -0.406266 2.00526 0
M  V30 26419 H 2500.03 -2.54925 3.18555 0
M  V30 26420 H 2498.7 -1.60001 3.83891 0
M  V30 26421 H 2497.28 -2.80373 2.45857 0
M  V30 26422 N 2499.47 -1.45169 -0.613489 0
M  V30 26423 C 2500.7 -1.52172 -1.3974 0
M  V30 26424 C 2501.11 -0.151119 -1.88596 0
M  V30 26425 O 2500.45 0.856493 -1.62511 0
M  V30 26426 C 2500.51 -2.43984 -2.6403 0
M  V30 26427 C 2500.17 -3.90831 -2.36854 0
M  V30 26428 C 2501.17 -4.80892 -1.97582 0
M  V30 26429 C 2498.86 -4.35696 -2.49948 0
M  V30 26430 C 2500.85 -6.13823 -1.71758 0
M  V30 26431 C 2498.54 -5.68669 -2.23737 0
M  V30 26432 C 2499.54 -6.57551 -1.84703 0
M  V30 26433 O 2499.22 -7.88061 -1.58795 0
M  V30 26434 H 2498.96 -0.517974 -0.434372 0
M  V30 26435 H 2501.51 -1.90988 -0.755836 0
M  V30 26436 H 2499.74 -2.00128 -3.30886 0
M  V30 26437 H 2501.43 -2.41736 -3.26065 0
M  V30 26438 H 2502.19 -4.47497 -1.87007 0
M  V30 26439 H 2498.07 -3.66761 -2.79298 0
M  V30 26440 H 2501.62 -6.83157 -1.41215 0
M  V30 26441 H 2497.51 -6.01621 -2.33927 0
M  V30 26442 H 2498.28 -8.00031 -1.72896 0
M  V30 26443 N 2500.95 0.855472 -1.32361 0
M  V30 26444 C 2502.19 1.6096 -1.22875 0
M  V30 26445 C 2502.52 1.93367 0.209624 0
M  V30 26446 O 2501.78 1.57438 1.1624 0
M  V30 26447 C 2502.07 2.93959 -2.0328 0
M  V30 26448 C 2501.74 2.80985 -3.52645 0
M  V30 26449 C 2500.4 2.77154 -3.93369 0
M  V30 26450 C 2502.75 2.66975 -4.47631 0
M  V30 26451 C 2500.08 2.5719 -5.27323 0
M  V30 26452 C 2502.43 2.48548 -5.81727 0
M  V30 26453 C 2501.1 2.43109 -6.21655 0
M  V30 26454 H 2500.37 0.588994 -0.44963 0
M  V30 26455 H 2503.02 0.992414 -1.63779 0
M  V30 26456 H 2501.32 3.59793 -1.55102 0
M  V30 26457 H 2503.02 3.51329 -1.9331 0
M  V30 26458 H 2499.61 2.84791 -3.203 0
M  V30 26459 H 2503.79 2.68981 -4.17089 0
M  V30 26460 H 2499.05 2.51414 -5.57316 0
M  V30 26461 H 2503.22 2.36688 -6.54944 0
M  V30 26462 H 2500.85 2.27399 -7.25392 0
M  V30 26463 N 2502.42 1.15558 1.07164 0
M  V30 26464 C 2503.65 0.955551 1.83512 0
M  V30 26465 C 2504.07 -0.496178 1.82163 0
M  V30 26466 O 2503.42 -1.34417 1.23443 0
M  V30 26467 C 2503.47 1.46438 3.30512 0
M  V30 26468 O 2503.2 2.85924 3.31932 0
M  V30 26469 C 2504.7 1.3061 4.23622 0
M  V30 26470 H 2501.92 0.339254 0.57892 0
M  V30 26471 H 2504.46 1.53376 1.35263 0
M  V30 26472 H 2502.62 0.92865 3.76105 0
M  V30 26473 H 2503.03 3.09036 4.23789 0
M  V30 26474 H 2504.5 1.71056 5.24828 0
M  V30 26475 H 2504.98 0.250518 4.38485 0
M  V30 26476 H 2505.59 1.83101 3.83867 0
M  V30 26477 N 2503.9 -1.25546 0.952678 0
M  V30 26478 C 2505.18 -1.88455 0.523851 0
M  V30 26479 C 2505.56 -1.85974 -0.998838 0
M  V30 26480 O 2504.91 -1.32194 -1.86379 0
M  V30 26481 C 2505.12 -3.31269 1.09826 0
M  V30 26482 C 2506.46 -4.08049 1.17392 0
M  V30 26483 O 2507.49 -3.40383 1.04967 0
M  V30 26484 O 2506.35 -5.29085 1.36861 0
M  V30 26485 H 2503.44 -0.80881 0.172499 0
M  V30 26486 H 2505.99 -1.33631 1.04598 0
M  V30 26487 H 2504.76 -3.27495 2.14156 0
M  V30 26488 H 2504.38 -3.93647 0.55926 0
M  V30 26489 N 2505.38 -0.721022 -1.40139 0
M  V30 26490 C 2506.61 -0.272692 -2.05095 0
M  V30 26491 C 2507.02 1.08747 -1.54336 0
M  V30 26492 O 2506.38 1.68448 -0.702241 0
M  V30 26493 C 2506.43 -0.249898 -3.60635 0
M  V30 26494 O 2506.15 -1.55636 -4.09523 0
M  V30 26495 C 2507.65 0.216318 -4.42772 0
M  V30 26496 H 2504.87 -0.12157 -0.659895 0
M  V30 26497 H 2507.42 -0.980754 -1.79448 0
M  V30 26498 H 2505.57 0.409169 -3.85233 0
M  V30 26499 H 2505.99 -1.46049 -5.03756 0
M  V30 26500 H 2507.46 0.181115 -5.51703 0
M  V30 26501 H 2507.94 1.25934 -4.20758 0
M  V30 26502 H 2508.54 -0.412671 -4.23293 0
M  V30 26503 N 2506.86 1.50503 -0.467606 0
M  V30 26504 C 2507.79 2.26281 0.364615 0
M  V30 26505 C 2508.8 1.31474 0.960128 0
M  V30 26506 O 2509.99 1.5701 0.849126 0
M  V30 26507 C 2507.09 3.02648 1.52503 0
M  V30 26508 C 2506.26 4.24784 1.04294 0
M  V30 26509 C 2505.32 4.83474 2.077 0
M  V30 26510 O 2504.35 5.44486 1.65903 0
M  V30 26511 N 2505.55 4.70165 3.40477 0
M  V30 26512 H 2508.32 2.98342 -0.285002 0
M  V30 26513 H 2505.88 1.5913 -0.298191 0
M  V30 26514 H 2507.87 3.38791 2.21365 0
M  V30 26515 H 2506.44 2.33408 2.07941 0
M  V30 26516 H 2505.66 3.93787 0.180324 0
M  V30 26517 H 2506.95 5.0398 0.69871 0
M  V30 26518 H 2506.35 4.21636 3.77147 0
M  V30 26519 H 2504.9 5.10587 4.05147 0
M  V30 26520 N 2508.34 0.200077 1.56325 0
M  V30 26521 C 2509.58 -0.436513 1.9733 0
M  V30 26522 C 2509.9 -1.61806 1.08829 0
M  V30 26523 O 2509.17 -1.9524 0.160638 0
M  V30 26524 H 2507.75 -0.164259 0.728717 0
M  V30 26525 H 2510.42 0.287971 1.92761 0
M  V30 26526 H 2509.51 -0.777299 3.02266 0
M  V30 26527 N 2509.81 -1.57429 -0.0734901 0
M  V30 26528 C 2510.75 -2.00296 -1.11419 0
M  V30 26529 C 2511.76 -0.90866 -1.35082 0
M  V30 26530 O 2512.95 -1.18656 -1.33353 0
M  V30 26531 C 2510.05 -2.32528 -2.46544 0
M  V30 26532 C 2509.22 -3.63782 -2.42861 0
M  V30 26533 C 2508.28 -3.83704 -3.6008 0
M  V30 26534 O 2507.31 -4.5531 -3.41587 0
M  V30 26535 N 2508.51 -3.25927 -4.80366 0
M  V30 26536 H 2511.27 -2.90186 -0.749155 0
M  V30 26537 H 2508.83 -1.59763 -0.262167 0
M  V30 26538 H 2510.83 -2.4303 -3.23603 0
M  V30 26539 H 2509.4 -1.48536 -2.75056 0
M  V30 26540 H 2508.62 -3.6405 -1.51199 0
M  V30 26541 H 2509.9 -4.49969 -2.37498 0
M  V30 26542 H 2509.3 -2.67803 -4.98295 0
M  V30 26543 H 2507.86 -3.41881 -5.54942 0
M  V30 26544 N 2511.29 0.344839 -1.53781 0
M  V30 26545 C 2512.54 1.08264 -1.70181 0
M  V30 26546 C 2512.85 1.89844 -0.471033 0
M  V30 26547 O 2514.06 2.66552 -0.515964 0
M  V30 26548 C 2512.52 1.97412 -3.00926 0
M  V30 26549 C 2512.12 1.21046 -4.31337 0
M  V30 26550 C 2513.87 2.71058 -3.26693 0
M  V30 26551 C 2511.77 2.09216 -5.53157 0
M  V30 26552 H 2510.7 0.407892 -0.634145 0
M  V30 26553 H 2513.36 0.342215 -1.80281 0
M  V30 26554 H 2511.74 2.75269 -2.84681 0
M  V30 26555 H 2512.91 0.481079 -4.58282 0
M  V30 26556 H 2511.23 0.59174 -4.12174 0
M  V30 26557 H 2513.82 3.37292 -4.14895 0
M  V30 26558 H 2514.17 3.37554 -2.43645 0
M  V30 26559 H 2514.7 2.00274 -3.43708 0
M  V30 26560 H 2511.44 1.47263 -6.38744 0
M  V30 26561 H 2510.96 2.79946 -5.30463 0
M  V30 26562 H 2512.64 2.68298 -5.88749 0
M  V30 26563 N 2512.77 1.45492 0.605781 0
M  V30 26564 C 2513.72 1.54302 1.71638 0
M  V30 26565 C 2514.69 0.388789 1.61486 0
M  V30 26566 O 2515.87 0.602477 1.81038 0
M  V30 26567 C 2513.01 1.51739 3.0995 0
M  V30 26568 C 2512.12 2.77727 3.30895 0
M  V30 26569 C 2511.26 2.66824 4.59324 0
M  V30 26570 C 2510.3 3.87857 4.73533 0
M  V30 26571 N 2509.44 3.75477 5.93263 0
M  V30 26572 H 2514.28 2.49178 1.63444 0
M  V30 26573 H 2511.81 1.23642 0.796936 0
M  V30 26574 H 2513.77 1.48241 3.89975 0
M  V30 26575 H 2512.4 0.604124 3.17096 0
M  V30 26576 H 2511.45 2.91305 2.44634 0
M  V30 26577 H 2512.76 3.67494 3.37267 0
M  V30 26578 H 2511.92 2.61302 5.47546 0
M  V30 26579 H 2510.66 1.74659 4.55352 0
M  V30 26580 H 2509.66 3.93736 3.83735 0
M  V30 26581 H 2510.89 4.8109 4.79301 0
M  V30 26582 H 2508.83 2.86082 5.90333 0
M  V30 26583 H 2508.75 4.58881 6.00803 0
M  V30 26584 H 2510.02 3.73891 6.83978 0
M  V30 26585 N 2514.25 -0.848441 1.32813 0
M  V30 26586 C 2515.49 -1.60543 1.2391 0
M  V30 26587 C 2515.83 -1.93197 -0.197127 0
M  V30 26588 O 2515.1 -1.57882 -1.13593 0
M  V30 26589 C 2515.39 -2.92172 2.10494 0
M  V30 26590 C 2515.24 -2.6626 3.62527 0
M  V30 26591 C 2516.56 -3.93505 1.97082 0
M  V30 26592 H 2513.68 -0.582532 0.45147 0
M  V30 26593 H 2516.32 -0.979267 1.6282 0
M  V30 26594 H 2514.47 -3.45611 1.7744 0
M  V30 26595 H 2516.14 -2.19326 4.05825 0
M  V30 26596 H 2514.38 -2.00119 3.84883 0
M  V30 26597 H 2515.05 -3.60013 4.18443 0
M  V30 26598 H 2517.53 -3.49342 2.26051 0
M  V30 26599 H 2516.41 -4.83453 2.59932 0
M  V30 26600 H 2516.67 -4.31986 0.940262 0
M  V30 26601 N 2515.73 -1.16125 -1.06549 0
M  V30 26602 C 2516.67 -0.861409 -2.16061 0
M  V30 26603 C 2517.67 0.168487 -1.6856 0
M  V30 26604 O 2518.87 0.0227263 -1.79986 0
M  V30 26605 H 2515.25 -0.260946 -0.705274 0
M  V30 26606 H 2517.22 -1.79248 -2.38564 0
M  V30 26607 C 2515.97 -0.376079 -3.4566 0
M  V30 26608 H 2515.29 -1.15998 -3.82602 0
M  V30 26609 H 2516.73 -0.205026 -4.23504 0
M  V30 26610 C 2515.19 0.903897 -3.24548 0
M  V30 26611 O 2515.72 1.97371 -3.49868 0
M  V30 26612 N 2513.93 0.84663 -2.77994 0
M  V30 26613 H 2513.47 -0.024147 -2.57589 0
M  V30 26614 H 2513.43 1.70355 -2.64247 0
M  V30 26615 N 2517.2 1.25039 -0.959323 0
M  V30 26616 C 2518.15 2.25709 -0.482097 0
M  V30 26617 C 2519.12 1.59373 0.467911 0
M  V30 26618 O 2520.31 1.86975 0.380126 0
M  V30 26619 C 2517.45 3.44336 0.229562 0
M  V30 26620 C 2516.56 4.25294 -0.758231 0
M  V30 26621 C 2515.69 5.31195 -0.0235337 0
M  V30 26622 C 2514.73 6.03844 -1.00195 0
M  V30 26623 N 2513.87 7.01468 -0.297814 0
M  V30 26624 H 2518.71 2.65899 -1.34543 0
M  V30 26625 H 2516.25 1.30719 -0.674615 0
M  V30 26626 H 2518.21 4.11966 0.658784 0
M  V30 26627 H 2516.84 3.05007 1.05691 0
M  V30 26628 H 2515.89 3.57281 -1.30592 0
M  V30 26629 H 2517.2 4.75564 -1.50467 0
M  V30 26630 H 2516.35 6.04922 0.464095 0
M  V30 26631 H 2515.09 4.8181 0.755657 0
M  V30 26632 H 2514.1 5.28927 -1.50053 0
M  V30 26633 H 2515.32 6.55318 -1.78145 0
M  V30 26634 H 2513.27 6.54367 0.462553 0
M  V30 26635 H 2513.19 7.49579 -0.98326 0
M  V30 26636 H 2514.45 7.79319 0.168123 0
M  V30 26637 N 2518.68 0.728444 1.39755 0
M  V30 26638 C 2519.63 0.0603824 2.2792 0
M  V30 26639 C 2520.62 -0.719373 1.43923 0
M  V30 26640 O 2521.81 -0.58946 1.66896 0
M  V30 26641 C 2518.94 -0.851045 3.32584 0
M  V30 26642 C 2518.02 -0.0657896 4.24049 0
M  V30 26643 N 2518.41 0.957665 4.96651 0
M  V30 26644 C 2516.71 -0.296431 4.45014 0
M  V30 26645 C 2517.41 1.43062 5.63834 0
M  V30 26646 N 2516.39 0.750409 5.38396 0
M  V30 26647 H 2520.19 0.844599 2.81503 0
M  V30 26648 H 2517.71 0.562182 1.52359 0
M  V30 26649 H 2519.7 -1.34507 3.94605 0
M  V30 26650 H 2518.36 -1.6345 2.80561 0
M  V30 26651 H 2519.37 1.33886 5.00295 0
M  V30 26652 H 2516.05 -1.0552 4.03945 0
M  V30 26653 H 2517.44 2.28174 6.3197 0
M  V30 26654 N 2520.16 -1.50253 0.475581 0
M  V30 26655 C 2521.12 -2.27162 -0.304976 0
M  V30 26656 C 2522.12 -1.32125 -0.916496 0
M  V30 26657 O 2523.31 -1.55511 -0.784976 0
M  V30 26658 C 2520.45 -3.0923 -1.43491 0
M  V30 26659 H 2521.64 -2.97614 0.369564 0
M  V30 26660 H 2519.19 -1.54602 0.229774 0
M  V30 26661 H 2519.93 -2.43284 -2.14437 0
M  V30 26662 H 2519.71 -3.79077 -1.00217 0
M  V30 26663 H 2521.2 -3.67384 -1.98541 0
M  V30 26664 N 2521.64 -0.208365 -1.56217 0
M  V30 26665 C 2522.87 0.432114 -2.02337 0
M  V30 26666 C 2523.28 1.54273 -1.08837 0
M  V30 26667 O 2522.64 1.8225 -0.0955782 0
M  V30 26668 C 2522.69 0.976077 -3.48073 0
M  V30 26669 O 2522.41 -0.090239 -4.38007 0
M  V30 26670 C 2523.91 1.69112 -4.09776 0
M  V30 26671 H 2521.13 0.107168 -0.662387 0
M  V30 26672 H 2523.68 -0.320958 -2.01966 0
M  V30 26673 H 2521.83 1.67948 -3.49102 0
M  V30 26674 H 2522.24 0.316609 -5.23544 0
M  V30 26675 H 2523.72 2.02388 -5.13559 0
M  V30 26676 H 2524.2 2.59958 -3.54004 0
M  V30 26677 H 2524.8 1.03325 -4.12558 0
M  V30 26678 N 2523.12 1.57465 0.0651402 0
M  V30 26679 C 2524.03 2.07507 1.09444 0
M  V30 26680 C 2525.04 1.00597 1.41973 0
M  V30 26681 O 2526.22 1.3211 1.52016 0
M  V30 26682 C 2523.28 2.51457 2.38684 0
M  V30 26683 C 2522.34 3.72695 2.13066 0
M  V30 26684 C 2521.58 4.14539 3.36144 0
M  V30 26685 O 2521.8 3.56197 4.45511 0
M  V30 26686 O 2520.73 5.07277 3.23965 0
M  V30 26687 H 2524.56 2.95539 0.699298 0
M  V30 26688 H 2522.15 1.46758 0.279726 0
M  V30 26689 H 2524.03 2.80218 3.14732 0
M  V30 26690 H 2522.7 1.66551 2.77565 0
M  V30 26691 H 2521.61 3.49007 1.34703 0
M  V30 26692 H 2522.94 4.58473 1.79062 0
M  V30 26693 N 2524.59 -0.336679 1.53962 0
M  V30 26694 C 2525.83 -1.08451 1.73256 0
M  V30 26695 C 2526.2 -1.85669 0.48897 0
M  V30 26696 O 2527.4 -2.62922 0.559047 0
M  V30 26697 C 2525.67 -1.99522 2.96522 0
M  V30 26698 S 2527.23 -2.81435 3.3666 0
M  V30 26699 H 2524.05 -0.366336 0.60936 0
M  V30 26700 H 2526.65 -0.36209 1.92118 0
M  V30 26701 H 2525.35 -1.41607 3.85196 0
M  V30 26702 H 2524.88 -2.76191 2.80147 0
M  V30 26703 H 2526.9 -4.01962 2.90932 0
M  V30 26704 N 2526.07 -1.45812 -0.598057 0
M  V30 26705 C 2527.32 -1.50028 -1.3541 0
M  V30 26706 C 2527.64 -0.147211 -1.94444 0
M  V30 26707 O 2526.91 0.82454 -1.77702 0
M  V30 26708 H 2525.49 -0.552526 -0.502717 0
M  V30 26709 H 2528.15 -1.81835 -0.701574 0
M  V30 26710 H 2527.25 -2.24444 -2.16867 0
M  V30 26711 N 2527.55 0.841385 -1.33261 0
M  V30 26712 C 2528.48 1.96632 -1.2593 0
M  V30 26713 C 2529.46 1.6952 -0.140378 0
M  V30 26714 O 2530.65 1.9138 -0.32974 0
M  V30 26715 C 2527.78 3.32736 -0.995178 0
M  V30 26716 C 2526.73 3.74239 -2.07676 0
M  V30 26717 C 2526.06 5.08122 -1.66483 0
M  V30 26718 C 2527.36 3.8829 -3.49325 0
M  V30 26719 H 2529.05 2.03023 -2.2005 0
M  V30 26720 H 2526.6 0.975406 -1.05933 0
M  V30 26721 H 2528.55 4.11001 -0.930395 0
M  V30 26722 H 2527.27 3.26595 -0.0183578 0
M  V30 26723 H 2525.93 2.98236 -2.13193 0
M  V30 26724 H 2525.58 4.98449 -0.6751 0
M  V30 26725 H 2525.28 5.36861 -2.3886 0
M  V30 26726 H 2526.8 5.88864 -1.61466 0
M  V30 26727 H 2528.22 4.56873 -3.46324 0
M  V30 26728 H 2526.62 4.28463 -4.20166 0
M  V30 26729 H 2527.69 2.90814 -3.88015 0
M  V30 26730 N 2529.03 1.16688 1.05932 0
M  V30 26731 C 2530.44 0.957773 1.60261 0
M  V30 26732 C 2530.79 -0.497416 1.8979 0
M  V30 26733 O 2529.92 -1.37132 1.67403 0
M  V30 26734 C 2530.51 1.73223 2.91169 0
M  V30 26735 C 2529.07 1.568 3.42185 0
M  V30 26736 C 2528.22 1.73863 2.16025 0
M  V30 26737 H 2531.17 1.31505 0.888369 0
M  V30 26738 H 2531.19 1.2102 3.60741 0
M  V30 26739 H 2530.7 2.79129 2.69646 0
M  V30 26740 H 2528.8 0.533501 3.68761 0
M  V30 26741 H 2528.92 2.35422 4.17269 0
M  V30 26742 H 2527.28 1.16637 2.26424 0
M  V30 26743 H 2528.06 2.81165 1.9698 0
M  V30 26744 N 2530.51 -1.24529 0.96594 0
M  V30 26745 C 2531.74 -1.96608 0.64442 0
M  V30 26746 C 2532.15 -1.7167 -0.785793 0
M  V30 26747 O 2531.51 -0.999426 -1.52701 0
M  V30 26748 C 2531.56 -3.49925 0.907436 0
M  V30 26749 O 2531.28 -3.74009 2.28142 0
M  V30 26750 C 2532.78 -4.39223 0.599861 0
M  V30 26751 H 2530 -0.626381 0.240599 0
M  V30 26752 H 2532.54 -1.58403 1.29339 0
M  V30 26753 H 2530.7 -3.862 0.304699 0
M  V30 26754 H 2531.11 -4.68401 2.3601 0
M  V30 26755 H 2532.59 -5.45658 0.834359 0
M  V30 26756 H 2533.06 -4.36722 -0.465844 0
M  V30 26757 H 2533.67 -4.08533 1.18242 0
M  V30 26758 N 2531.99 -0.735845 -1.39367 0
M  V30 26759 C 2533.23 -0.281039 -1.99732 0
M  V30 26760 C 2533.55 1.13843 -1.59057 0
M  V30 26761 O 2534.75 1.6928 -2.12265 0
M  V30 26762 C 2533.21 -0.451525 -3.57056 0
M  V30 26763 C 2532.82 -1.87893 -4.06694 0
M  V30 26764 C 2534.56 -0.0585362 -4.2446 0
M  V30 26765 C 2532.47 -1.99893 -5.56594 0
M  V30 26766 H 2531.4 -0.101324 -0.747161 0
M  V30 26767 H 2534.05 -0.909847 -1.59355 0
M  V30 26768 H 2532.43 0.246193 -3.95234 0
M  V30 26769 H 2533.61 -2.60868 -3.79848 0
M  V30 26770 H 2531.92 -2.22521 -3.51956 0
M  V30 26771 H 2534.52 -0.127193 -5.34549 0
M  V30 26772 H 2534.86 0.986362 -4.04446 0
M  V30 26773 H 2535.39 -0.707443 -3.91459 0
M  V30 26774 H 2532.13 -3.02574 -5.81489 0
M  V30 26775 H 2531.65 -1.31356 -5.8524 0
M  V30 26776 H 2533.33 -1.7805 -6.22019 0
M  V30 26777 N 2533.46 1.49999 -0.483543 0
M  V30 26778 C 2534.41 2.257 0.32302 0
M  V30 26779 C 2535.4 1.29807 0.950732 0
M  V30 26780 O 2536.59 1.54635 0.86122 0
M  V30 26781 C 2533.72 3.13582 1.39719 0
M  V30 26782 C 2532.8 4.16929 0.776589 0
M  V30 26783 N 2533.2 5.05679 -0.110489 0
M  V30 26784 C 2531.49 4.33725 1.03915 0
M  V30 26785 C 2532.19 5.79847 -0.463972 0
M  V30 26786 N 2531.17 5.43353 0.163891 0
M  V30 26787 H 2534.97 2.91685 -0.360138 0
M  V30 26788 H 2532.49 1.59633 -0.298484 0
M  V30 26789 H 2534.48 3.66432 1.9883 0
M  V30 26790 H 2533.14 2.49147 2.08221 0
M  V30 26791 H 2534.15 5.15669 -0.48016 0
M  V30 26792 H 2530.83 3.80504 1.71822 0
M  V30 26793 H 2532.22 6.61302 -1.18866 0
M  V30 26794 N 2534.94 0.216646 1.56104 0
M  V30 26795 C 2536.17 -0.421378 2.02564 0
M  V30 26796 C 2536.58 -1.53693 1.09653 0
M  V30 26797 O 2535.94 -1.82196 0.105242 0
M  V30 26798 C 2535.99 -0.957604 3.48586 0
M  V30 26799 O 2535.71 0.113466 4.37953 0
M  V30 26800 C 2537.21 -1.66936 4.10667 0
M  V30 26801 H 2534.43 -0.103654 0.662946 0
M  V30 26802 H 2536.98 0.331664 2.01793 0
M  V30 26803 H 2535.13 -1.66094 3.49988 0
M  V30 26804 H 2535.55 -0.28884 5.23704 0
M  V30 26805 H 2537.02 -1.99662 5.14625 0
M  V30 26806 H 2537.5 -2.58077 3.55377 0
M  V30 26807 H 2538.1 -1.01135 4.131 0
M  V30 26808 N 2536.42 -1.57498 -0.0567885 0
M  V30 26809 C 2537.83 -1.76563 -0.606827 0
M  V30 26810 C 2538.18 -0.844125 -1.77113 0
M  V30 26811 O 2537.31 -0.0319291 -2.16376 0
M  V30 26812 C 2537.9 -3.20184 -1.1076 0
M  V30 26813 C 2536.46 -3.40542 -1.60338 0
M  V30 26814 C 2535.61 -2.72202 -0.529263 0
M  V30 26815 H 2538.56 -1.57793 0.16942 0
M  V30 26816 H 2538.58 -3.2517 -1.97597 0
M  V30 26817 H 2538.09 -3.87228 -0.259992 0
M  V30 26818 H 2536.19 -2.78633 -2.47374 0
M  V30 26819 H 2536.31 -4.49053 -1.66998 0
M  V30 26820 H 2534.67 -2.35181 -0.977852 0
M  V30 26821 H 2535.45 -3.41912 0.308412 0
M  V30 26822 N 2537.9 0.328509 -1.54138 0
M  V30 26823 C 2539.12 1.09109 -1.7638 0
M  V30 26824 C 2539.55 1.81093 -0.508628 0
M  V30 26825 O 2538.91 1.73085 0.539567 0
M  V30 26826 C 2538.95 2.06867 -2.95361 0
M  V30 26827 O 2538.06 3.14673 -2.66561 0
M  V30 26828 H 2537.4 0.314828 -0.584619 0
M  V30 26829 H 2539.93 0.374313 -2.01147 0
M  V30 26830 H 2539.94 2.49824 -3.22571 0
M  V30 26831 H 2538.61 1.53874 -3.86388 0
M  V30 26832 H 2537.19 2.76426 -2.50286 0
M  V30 26833 N 2539.38 1.46127 0.590316 0
M  V30 26834 C 2540.32 1.56114 1.69992 0
M  V30 26835 C 2541.29 0.405895 1.61064 0
M  V30 26836 O 2542.48 0.621645 1.80389 0
M  V30 26837 C 2539.62 1.55018 3.08323 0
M  V30 26838 C 2538.73 2.81221 3.27931 0
M  V30 26839 C 2537.87 2.71681 4.56468 0
M  V30 26840 C 2536.9 3.92857 4.69393 0
M  V30 26841 N 2536.04 3.81749 5.89247 0
M  V30 26842 H 2540.88 2.50898 1.60792 0
M  V30 26843 H 2538.42 1.2448 0.783777 0
M  V30 26844 H 2540.38 1.52369 3.88381 0
M  V30 26845 H 2539.01 0.637722 3.16438 0
M  V30 26846 H 2538.06 2.93883 2.4153 0
M  V30 26847 H 2539.37 3.71051 3.33351 0
M  V30 26848 H 2538.52 2.67095 5.44743 0
M  V30 26849 H 2537.26 1.79478 4.53474 0
M  V30 26850 H 2536.27 3.97784 3.79537 0
M  V30 26851 H 2537.49 4.86147 4.74171 0
M  V30 26852 H 2535.44 2.92327 5.87265 0
M  V30 26853 H 2535.36 4.65227 5.95902 0
M  V30 26854 H 2536.62 3.81124 6.79974 0
M  V30 26855 N 2540.85 -0.834306 1.33705 0
M  V30 26856 C 2542.08 -1.62182 1.2847 0
M  V30 26857 C 2542.5 -1.88254 -0.143493 0
M  V30 26858 O 2541.85 -1.46592 -1.08706 0
M  V30 26859 C 2541.9 -2.96938 2.06179 0
M  V30 26860 O 2541.63 -2.7201 3.43427 0
M  V30 26861 C 2543.13 -3.91362 2.08208 0
M  V30 26862 H 2540.35 -0.504495 0.442409 0
M  V30 26863 H 2542.89 -1.03888 1.76146 0
M  V30 26864 H 2541.05 -3.51822 1.62173 0
M  V30 26865 H 2541.46 -3.57854 3.83459 0
M  V30 26866 H 2542.93 -4.83117 2.67025 0
M  V30 26867 H 2543.41 -4.25879 1.0735 0
M  V30 26868 H 2544.02 -3.42416 2.52252 0
M  V30 26869 N 2542.33 -1.17248 -1.05312 0
M  V30 26870 C 2543.28 -0.888096 -2.13029 0
M  V30 26871 C 2544.25 0.167508 -1.65253 0
M  V30 26872 O 2545.43 0.0305639 -1.90776 0
M  V30 26873 C 2542.57 -0.406207 -3.42701 0
M  V30 26874 C 2541.69 -1.52579 -4.04158 0
M  V30 26875 C 2540.82 -0.9979 -5.21743 0
M  V30 26876 C 2539.86 -2.09301 -5.75204 0
M  V30 26877 N 2539 -1.57998 -6.84091 0
M  V30 26878 H 2543.84 -1.81052 -2.36694 0
M  V30 26879 H 2541.37 -0.903034 -1.16119 0
M  V30 26880 H 2543.33 -0.108378 -4.17059 0
M  V30 26881 H 2541.96 0.479257 -3.19222 0
M  V30 26882 H 2541.01 -1.93937 -3.2725 0
M  V30 26883 H 2542.33 -2.3518 -4.39877 0
M  V30 26884 H 2541.48 -0.653845 -6.03166 0
M  V30 26885 H 2540.22 -0.141318 -4.87495 0
M  V30 26886 H 2539.22 -2.44566 -4.9241 0
M  V30 26887 H 2540.45 -2.95373 -6.11499 0
M  V30 26888 H 2538.4 -0.746094 -6.51743 0
M  V30 26889 H 2538.31 -2.34207 -7.18807 0
M  V30 26890 H 2539.58 -1.26482 -7.6917 0
M  V30 26891 N 2543.81 1.24015 -0.972531 0
M  V30 26892 C 2544.74 2.27508 -0.525588 0
M  V30 26893 C 2545.72 1.64385 0.437233 0
M  V30 26894 O 2546.91 1.91336 0.332309 0
M  V30 26895 C 2544.04 3.46831 0.180387 0
M  V30 26896 C 2542.99 4.22255 -0.698933 0
M  V30 26897 C 2542.32 5.3452 0.138809 0
M  V30 26898 C 2543.62 4.83073 -1.9859 0
M  V30 26899 H 2545.31 2.65145 -1.39063 0
M  V30 26900 H 2542.86 1.27458 -0.670113 0
M  V30 26901 H 2544.81 4.18371 0.504313 0
M  V30 26902 H 2543.53 3.08233 1.07981 0
M  V30 26903 H 2542.19 3.52521 -1.0062 0
M  V30 26904 H 2541.84 4.92162 1.03853 0
M  V30 26905 H 2541.54 5.85902 -0.446362 0
M  V30 26906 H 2543.06 6.08885 0.457297 0
M  V30 26907 H 2544.48 5.46662 -1.72725 0
M  V30 26908 H 2542.88 5.44708 -2.5182 0
M  V30 26909 H 2543.95 4.04257 -2.67776 0
M  V30 26910 N 2545.29 0.743226 1.38974 0
M  V30 26911 C 2546.22 0.0689631 2.29096 0
M  V30 26912 C 2547.23 -0.694765 1.47231 0
M  V30 26913 O 2548.42 -0.537567 1.70213 0
M  V30 26914 C 2545.52 -0.92649 3.2599 0
M  V30 26915 C 2544.7 -0.22257 4.36833 0
M  V30 26916 C 2543.75 -1.1273 5.13983 0
M  V30 26917 O 2542.78 -0.601695 5.66011 0
M  V30 26918 N 2543.98 -2.45632 5.25971 0
M  V30 26919 H 2546.75 0.842897 2.87603 0
M  V30 26920 H 2544.31 0.593136 1.50644 0
M  V30 26921 H 2546.3 -1.53453 3.74479 0
M  V30 26922 H 2544.87 -1.60157 2.68456 0
M  V30 26923 H 2544.09 0.566052 3.90115 0
M  V30 26924 H 2545.38 0.26493 5.0811 0
M  V30 26925 H 2544.78 -2.90802 4.85233 0
M  V30 26926 H 2543.33 -3.01512 5.7787 0
M  V30 26927 N 2546.77 -1.4974 0.491491 0
M  V30 26928 C 2548.18 -1.86654 0.0413497 0
M  V30 26929 C 2548.53 -1.40464 -1.36983 0
M  V30 26930 O 2547.65 -0.77839 -2.01916 0
M  V30 26931 C 2548.25 -3.38731 0.0682618 0
M  V30 26932 C 2546.81 -3.74981 -0.326495 0
M  V30 26933 C 2545.95 -2.73707 0.444936 0
M  V30 26934 H 2548.91 -1.42193 0.704758 0
M  V30 26935 H 2548.93 -3.73446 -0.729256 0
M  V30 26936 H 2548.44 -3.72319 1.09545 0
M  V30 26937 H 2546.54 -3.47 -1.35728 0
M  V30 26938 H 2546.65 -4.79098 -0.0136568 0
M  V30 26939 H 2545.02 -2.54488 -0.104017 0
M  V30 26940 H 2545.8 -3.10139 1.47203 0
M  V30 26941 N 2548.24 -0.224922 -1.55987 0
M  V30 26942 C 2549.47 0.413654 -2.03233 0
M  V30 26943 C 2549.89 1.52322 -1.10362 0
M  V30 26944 O 2549.25 1.81064 -0.0924268 0
M  V30 26945 C 2549.3 0.919343 -3.48684 0
M  V30 26946 O 2548.4 2.03047 -3.58951 0
M  V30 26947 H 2547.75 0.0931788 -0.65743 0
M  V30 26948 H 2550.28 -0.344545 -2.01678 0
M  V30 26949 H 2550.29 1.22829 -3.89072 0
M  V30 26950 H 2548.96 0.107266 -4.15762 0
M  V30 26951 H 2547.54 1.72791 -3.30451 0
M  V30 26952 N 2549.72 1.57526 0.0484352 0
M  V30 26953 C 2550.97 1.88652 0.744193 0
M  V30 26954 C 2551.3 0.820243 1.76027 0
M  V30 26955 O 2550.58 -0.166951 1.93782 0
M  V30 26956 C 2550.86 3.30436 1.43122 0
M  V30 26957 C 2550.71 4.4774 0.429971 0
M  V30 26958 C 2552.03 3.7082 2.37024 0
M  V30 26959 H 2549.15 0.686124 0.269077 0
M  V30 26960 H 2551.79 1.89999 0.00710192 0
M  V30 26961 H 2549.94 3.29419 2.0595 0
M  V30 26962 H 2551.61 4.60888 -0.194897 0
M  V30 26963 H 2549.86 4.33064 -0.252598 0
M  V30 26964 H 2550.53 5.43785 0.948778 0
M  V30 26965 H 2553 3.7308 1.84256 0
M  V30 26966 H 2551.88 4.7087 2.82086 0
M  V30 26967 H 2552.14 3.02018 3.22859 0
M  V30 26968 N 2551.2 -0.32033 1.5431 0
M  V30 26969 C 2552.45 -1.05789 1.7267 0
M  V30 26970 C 2552.78 -1.87907 0.502117 0
M  V30 26971 O 2552.03 -1.88772 -0.516116 0
M  V30 26972 C 2552.33 -2.00823 2.95643 0
M  V30 26973 C 2552 -1.34835 4.30268 0
M  V30 26974 C 2550.66 -1.16569 4.66867 0
M  V30 26975 C 2553.01 -0.875005 5.13803 0
M  V30 26976 C 2550.34 -0.496233 5.84598 0
M  V30 26977 C 2552.69 -0.219351 6.3222 0
M  V30 26978 C 2551.35 -0.0245742 6.67495 0
M  V30 26979 H 2550.62 -0.38711 0.631844 0
M  V30 26980 H 2553.27 -0.334702 1.88552 0
M  V30 26981 H 2551.58 -2.79604 2.74461 0
M  V30 26982 H 2553.27 -2.57927 3.07042 0
M  V30 26983 H 2549.86 -1.50054 4.01474 0
M  V30 26984 H 2554.05 -1.0039 4.86041 0
M  V30 26985 H 2549.3 -0.334156 6.10486 0
M  V30 26986 H 2553.48 0.155413 6.96227 0
M  V30 26987 H 2551.1 0.496198 7.58579 0
M  V30 26988 N 2552.68 -1.46438 -0.582558 0
M  V30 26989 C 2553.91 -1.55101 -1.36481 0
M  V30 26990 C 2554.32 -0.191089 -1.88233 0
M  V30 26991 O 2553.66 0.821829 -1.64291 0
M  V30 26992 C 2553.72 -2.4953 -2.58796 0
M  V30 26993 C 2553.39 -3.95768 -2.2851 0
M  V30 26994 C 2554.38 -4.84975 -1.87337 0
M  V30 26995 C 2552.07 -4.409 -2.4065 0
M  V30 26996 C 2554.06 -6.17328 -1.58699 0
M  V30 26997 C 2551.75 -5.73287 -2.11625 0
M  V30 26998 C 2552.75 -6.61321 -1.70714 0
M  V30 26999 O 2552.43 -7.91251 -1.42043 0
M  V30 27000 H 2552.17 -0.527071 -0.423288 0
M  V30 27001 H 2554.72 -1.92548 -0.715155 0
M  V30 27002 H 2552.95 -2.07101 -3.26567 0
M  V30 27003 H 2554.64 -2.48598 -3.20864 0
M  V30 27004 H 2555.41 -4.51363 -1.77473 0
M  V30 27005 H 2551.28 -3.72602 -2.71456 0
M  V30 27006 H 2554.83 -6.85999 -1.26692 0
M  V30 27007 H 2550.73 -6.06448 -2.21113 0
M  V30 27008 H 2551.49 -8.03518 -1.55887 0
M  V30 27009 N 2554.16 0.827204 -1.34146 0
M  V30 27010 C 2555.43 1.56863 -1.16847 0
M  V30 27011 C 2555.81 2.09485 0.260617 0
M  V30 27012 O 2555.16 1.90532 1.26134 0
M  V30 27013 C 2555.37 2.69336 -2.21943 0
M  V30 27014 C 2556.72 3.38216 -2.56701 0
M  V30 27015 O 2557.74 2.79589 -2.207 0
M  V30 27016 O 2556.6 4.44076 -3.18526 0
M  V30 27017 H 2553.7 0.692105 -0.452681 0
M  V30 27018 H 2556.24 0.868948 -1.45765 0
M  V30 27019 H 2555.01 2.28176 -3.17886 0
M  V30 27020 H 2554.64 3.46959 -1.94178 0
M  V30 27021 N 2555.63 1.17805 1.04688 0
M  V30 27022 C 2556.88 0.971 1.78043 0
M  V30 27023 C 2557.21 -0.498718 1.87687 0
M  V30 27024 O 2556.49 -1.37025 1.38038 0
M  V30 27025 C 2556.77 1.6189 3.21658 0
M  V30 27026 C 2556.62 3.16106 3.19995 0
M  V30 27027 C 2557.94 1.32698 4.19618 0
M  V30 27028 H 2555.06 0.354167 0.646324 0
M  V30 27029 H 2557.7 1.4538 1.22331 0
M  V30 27030 H 2555.85 1.20838 3.6923 0
M  V30 27031 H 2557.53 3.66251 2.80461 0
M  V30 27032 H 2555.77 3.48592 2.58197 0
M  V30 27033 H 2556.44 3.56571 4.2138 0
M  V30 27034 H 2558.92 1.68256 3.80564 0
M  V30 27035 H 2557.79 1.80608 5.18336 0
M  V30 27036 H 2558.05 0.248699 4.414 0
M  V30 27037 N 2557.11 -1.23497 0.979094 0
M  V30 27038 C 2558.36 -1.91877 0.647253 0
M  V30 27039 C 2558.69 -1.76414 -0.819043 0
M  V30 27040 O 2557.94 -1.11811 -1.60614 0
M  V30 27041 C 2558.24 -3.43645 0.981992 0
M  V30 27042 C 2557.91 -3.79287 2.43829 0
M  V30 27043 C 2556.57 -3.88726 2.83629 0
M  V30 27044 C 2558.92 -3.96499 3.38287 0
M  V30 27045 C 2556.25 -4.12804 4.16905 0
M  V30 27046 C 2558.6 -4.22077 4.71205 0
M  V30 27047 C 2557.27 -4.29738 5.10766 0
M  V30 27048 H 2556.54 -0.702129 0.236847 0
M  V30 27049 H 2559.18 -1.46549 1.23271 0
M  V30 27050 H 2557.49 -3.90536 0.314434 0
M  V30 27051 H 2559.18 -3.94781 0.703465 0
M  V30 27052 H 2555.77 -3.72512 2.11973 0
M  V30 27053 H 2559.96 -3.88597 3.08716 0
M  V30 27054 H 2555.21 -4.16958 4.47164 0
M  V30 27055 H 2559.39 -4.34339 5.44355 0
M  V30 27056 H 2557.02 -4.48148 6.14058 0
M  V30 27057 N 2558.59 -0.750586 -1.38578 0
M  V30 27058 C 2560 -0.37347 -1.82926 0
M  V30 27059 C 2560.35 1.09745 -1.62636 0
M  V30 27060 O 2559.48 1.84803 -1.12591 0
M  V30 27061 C 2560.07 -0.671087 -3.32087 0
M  V30 27062 C 2558.63 -0.347286 -3.74794 0
M  V30 27063 C 2557.78 -0.925796 -2.61389 0
M  V30 27064 H 2560.73 -0.946981 -1.2735 0
M  V30 27065 H 2560.75 0.05176 -3.80465 0
M  V30 27066 H 2560.26 -1.7417 -3.46823 0
M  V30 27067 H 2558.36 0.716869 -3.65639 0
M  V30 27068 H 2558.48 -0.840739 -4.71666 0
M  V30 27069 H 2556.84 -0.351372 -2.52265 0
M  V30 27070 H 2557.62 -2.00138 -2.78926 0
M  V30 27071 N 2560.07 1.49477 -0.499425 0
M  V30 27072 C 2561.32 2.02049 0.0455641 0
M  V30 27073 C 2561.64 1.38141 1.3763 0
M  V30 27074 O 2560.91 0.536199 1.88419 0
M  V30 27075 H 2559.49 0.746737 0.0198285 0
M  V30 27076 H 2562.15 1.83517 -0.656307 0
M  V30 27077 H 2561.25 3.11601 0.17639 0
M  V30 27078 N 2561.55 0.233191 1.55865 0
M  V30 27079 C 2562.77 -0.402871 2.0345 0
M  V30 27080 C 2563.2 -1.51734 1.11168 0
M  V30 27081 O 2562.56 -1.81013 0.102028 0
M  V30 27082 C 2562.6 -0.900839 3.49167 0
M  V30 27083 O 2561.71 -2.01141 3.60022 0
M  V30 27084 H 2561.05 -0.089691 0.657915 0
M  V30 27085 H 2563.58 0.355236 2.01493 0
M  V30 27086 H 2563.59 -1.20764 3.89718 0
M  V30 27087 H 2562.26 -0.0852158 4.15813 0
M  V30 27088 H 2560.84 -1.71036 3.31363 0
M  V30 27089 N 2563.03 -1.57549 -0.0400806 0
M  V30 27090 C 2563.97 -2.05833 -1.0441 0
M  V30 27091 C 2564.94 -0.945208 -1.36583 0
M  V30 27092 O 2566.13 -1.21505 -1.4711 0
M  V30 27093 C 2563.27 -2.53343 -2.34332 0
M  V30 27094 C 2562.38 -3.78402 -2.08413 0
M  V30 27095 C 2561.52 -4.14567 -3.32126 0
M  V30 27096 C 2560.55 -5.32575 -3.01712 0
M  V30 27097 N 2559.69 -5.64225 -4.17845 0
M  V30 27098 H 2564.53 -2.91364 -0.625391 0
M  V30 27099 H 2562.07 -1.44067 -0.297192 0
M  V30 27100 H 2564.03 -2.78951 -3.10229 0
M  V30 27101 H 2562.66 -1.70745 -2.73945 0
M  V30 27102 H 2561.71 -3.59944 -1.23062 0
M  V30 27103 H 2563.02 -4.64423 -1.8197 0
M  V30 27104 H 2562.17 -4.41245 -4.16398 0
M  V30 27105 H 2560.91 -3.27176 -3.61673 0
M  V30 27106 H 2559.92 -5.05661 -2.1584 0
M  V30 27107 H 2561.14 -6.2161 -2.73455 0
M  V30 27108 H 2559.09 -4.79794 -4.47364 0
M  V30 27109 H 2559.01 -6.44732 -3.94787 0
M  V30 27110 H 2560.27 -5.95473 -5.03022 0
M  V30 27111 N 2564.5 0.312142 -1.54478 0
M  V30 27112 C 2565.41 1.40737 -1.87697 0
M  V30 27113 C 2566.43 1.56035 -0.770002 0
M  V30 27114 O 2567.61 1.70913 -1.0654 0
M  V30 27115 C 2564.67 2.75283 -2.1076 0
M  V30 27116 C 2563.73 2.69065 -3.34519 0
M  V30 27117 C 2562.96 3.97194 -3.56472 0
M  V30 27118 O 2563.19 4.96016 -2.81646 0
M  V30 27119 O 2562.12 3.99762 -4.49971 0
M  V30 27120 H 2565.95 1.15569 -2.80851 0
M  V30 27121 H 2563.53 0.507203 -1.40527 0
M  V30 27122 H 2565.41 3.54909 -2.27194 0
M  V30 27123 H 2564.09 3.00318 -1.20793 0
M  V30 27124 H 2563 1.8795 -3.23459 0
M  V30 27125 H 2564.33 2.48984 -4.24579 0
M  V30 27126 N 2565.98 1.46745 0.574784 0
M  V30 27127 C 2567.39 1.46534 1.15692 0
M  V30 27128 C 2567.74 0.210459 1.95068 0
M  V30 27129 O 2566.87 -0.685908 2.05242 0
M  V30 27130 C 2567.46 2.65491 2.10476 0
M  V30 27131 C 2566.02 2.68296 2.63997 0
M  V30 27132 C 2565.17 2.39351 1.40022 0
M  V30 27133 H 2568.12 1.54509 0.362298 0
M  V30 27134 H 2568.14 2.4146 2.9407 0
M  V30 27135 H 2567.65 3.56807 1.52677 0
M  V30 27136 H 2565.75 1.81073 3.25643 0
M  V30 27137 H 2565.87 3.68489 3.06191 0
M  V30 27138 H 2564.23 1.89571 1.70102 0
M  V30 27139 H 2565.01 3.32854 0.840427 0
M  V30 27140 N 2567.46 -0.820078 1.34583 0
M  V30 27141 C 2568.42 -1.91273 1.26283 0
M  V30 27142 C 2569.42 -1.59819 0.177372 0
M  V30 27143 O 2570.61 -1.68805 0.430186 0
M  V30 27144 C 2567.74 -3.27384 0.950385 0
M  V30 27145 H 2568.94 -2.00054 2.23425 0
M  V30 27146 H 2566.49 -1.01438 1.18912 0
M  V30 27147 H 2567.23 -3.24295 -0.0177368 0
M  V30 27148 H 2567.01 -3.51598 1.73556 0
M  V30 27149 H 2568.5 -4.07395 0.917564 0
M  V30 27150 N 2568.94 -1.18359 -1.04062 0
M  V30 27151 C 2570.18 -0.980428 -1.77526 0
M  V30 27152 C 2570.52 0.488757 -1.87949 0
M  V30 27153 O 2569.79 1.36291 -1.38762 0
M  V30 27154 C 2570.07 -1.63594 -3.20795 0
M  V30 27155 C 2569.93 -3.17799 -3.18315 0
M  V30 27156 C 2571.25 -1.34921 -4.18908 0
M  V30 27157 H 2568.37 -0.357589 -0.644437 0
M  V30 27158 H 2571.01 -1.46026 -1.21558 0
M  V30 27159 H 2569.16 -1.22794 -3.68584 0
M  V30 27160 H 2570.83 -3.67733 -2.78514 0
M  V30 27161 H 2569.07 -3.49957 -2.56345 0
M  V30 27162 H 2569.74 -3.58801 -4.19483 0
M  V30 27163 H 2572.22 -1.70272 -3.79667 0
M  V30 27164 H 2571.1 -1.83355 -5.1737 0
M  V30 27165 H 2571.36 -0.272104 -4.41262 0
M  V30 27166 N 2570.42 1.22976 -0.98563 0
M  V30 27167 C 2571.35 2.26938 -0.549689 0
M  V30 27168 C 2572.33 1.64839 0.419774 0
M  V30 27169 O 2573.51 1.91677 0.311997 0
M  V30 27170 C 2570.64 3.47003 0.143591 0
M  V30 27171 C 2569.6 4.2149 -0.74368 0
M  V30 27172 C 2568.92 5.34637 0.0821087 0
M  V30 27173 C 2570.22 4.80939 -2.03703 0
M  V30 27174 H 2571.92 2.63655 -1.41867 0
M  V30 27175 H 2569.46 1.2674 -0.683594 0
M  V30 27176 H 2571.41 4.18883 0.459911 0
M  V30 27177 H 2570.14 3.09361 1.04706 0
M  V30 27178 H 2568.8 3.51434 -1.04353 0
M  V30 27179 H 2568.45 4.93236 0.986272 0
M  V30 27180 H 2568.15 5.85396 -0.50848 0
M  V30 27181 H 2569.67 6.09336 0.39269 0
M  V30 27182 H 2571.08 5.44799 -1.78513 0
M  V30 27183 H 2569.48 5.42007 -2.57583 0
M  V30 27184 H 2570.55 4.01394 -2.72049 0
M  V30 27185 N 2571.89 0.757924 1.38178 0
M  V30 27186 C 2573.12 0.326973 2.043 0
M  V30 27187 C 2573.54 -1.04617 1.57165 0
M  V30 27188 O 2572.89 -1.66527 0.746655 0
M  V30 27189 C 2572.94 0.345427 3.59846 0
M  V30 27190 O 2572.67 1.66439 4.05253 0
M  V30 27191 C 2574.17 -0.0988491 4.4319 0
M  V30 27192 H 2571.39 0.139023 0.65644 0
M  V30 27193 H 2573.93 1.02799 1.76784 0
M  V30 27194 H 2572.09 -0.306888 3.86183 0
M  V30 27195 H 2572.5 1.59354 4.99707 0
M  V30 27196 H 2573.97 -0.0347775 5.51989 0
M  V30 27197 H 2574.45 -1.14734 4.23949 0
M  V30 27198 H 2575.06 0.524754 4.2205 0
M  V30 27199 N 2573.37 -1.4921 0.507345 0
M  V30 27200 C 2574.65 -1.95353 -0.0982359 0
M  V30 27201 C 2575.03 -1.44903 -1.53513 0
M  V30 27202 O 2574.38 -0.665548 -2.18593 0
M  V30 27203 C 2574.59 -3.49 -0.00434148 0
M  V30 27204 C 2575.94 -4.24239 -0.175072 0
M  V30 27205 O 2576.96 -3.56112 -0.0792265 0
M  V30 27206 O 2575.82 -5.45228 -0.372664 0
M  V30 27207 H 2572.91 -0.821888 -0.0918091 0
M  V30 27208 H 2575.46 -1.59829 0.570335 0
M  V30 27209 H 2574.23 -3.78373 0.997468 0
M  V30 27210 H 2573.85 -3.91159 -0.712776 0
M  V30 27211 N 2574.85 -0.241454 -1.55739 0
M  V30 27212 C 2575.8 0.676679 -2.22539 0
M  V30 27213 C 2576.79 1.18434 -1.21119 0
M  V30 27214 O 2578 1.14186 -1.39146 0
M  V30 27215 H 2574.37 0.236688 -0.713781 0
M  V30 27216 H 2576.34 0.0900663 -2.98264 0
M  V30 27217 C 2575.09 1.86513 -2.93442 0
M  V30 27218 H 2574.42 1.48364 -3.71252 0
M  V30 27219 H 2575.86 2.48489 -3.43553 0
M  V30 27220 C 2574.32 2.73291 -1.97012 0
M  V30 27221 O 2574.85 3.72655 -1.49971 0
M  V30 27222 N 2573.05 2.39743 -1.64231 0
M  V30 27223 H 2572.6 1.58992 -2.0268 0
M  V30 27224 H 2572.56 2.98081 -0.999761 0
M  V30 27225 N 2576.33 1.57568 0.0317248 0
M  V30 27226 C 2577.61 1.80302 0.758334 0
M  V30 27227 C 2577.99 0.838879 1.93716 0
M  V30 27228 O 2577.33 -0.119531 2.28187 0
M  V30 27229 C 2577.54 3.27945 1.19387 0
M  V30 27230 C 2578.89 3.92856 1.61087 0
M  V30 27231 O 2579.92 3.32078 1.28851 0
M  V30 27232 O 2578.77 4.99861 2.20909 0
M  V30 27233 H 2575.87 0.741354 0.366501 0
M  V30 27234 H 2578.41 1.69698 0.00870782 0
M  V30 27235 H 2577.19 3.89712 0.352207 0
M  V30 27236 H 2576.81 3.43427 2.00359 0
M  V30 27237 N 2577.81 -0.303946 1.54641 0
M  V30 27238 C 2579.22 -0.877134 1.64813 0
M  V30 27239 C 2579.57 -1.8819 0.554871 0
M  V30 27240 O 2578.69 -2.14183 -0.308995 0
M  V30 27241 C 2579.29 -1.59769 2.98763 0
M  V30 27242 C 2577.85 -2.11933 3.11065 0
M  V30 27243 C 2576.99 -0.951051 2.60481 0
M  V30 27244 H 2579.95 -0.0810208 1.58493 0
M  V30 27245 H 2579.97 -2.46309 2.90021 0
M  V30 27246 H 2579.48 -0.86616 3.78311 0
M  V30 27247 H 2577.58 -2.88142 2.3623 0
M  V30 27248 H 2577.69 -2.35588 4.17175 0
M  V30 27249 H 2576.06 -1.33579 2.16861 0
M  V30 27250 H 2576.84 -0.233521 3.42505 0
M  V30 27251 N 2579.28 -1.47047 -0.566994 0
M  V30 27252 C 2580.7 -1.32349 -0.891951 0
M  V30 27253 C 2580.9 -0.306651 -1.99153 0
M  V30 27254 O 2579.96 0.285276 -2.50883 0
M  V30 27255 C 2581.27 -2.71413 -1.29444 0
M  V30 27256 C 2582.82 -2.79623 -1.40641 0
M  V30 27257 C 2583.29 -4.19304 -1.8425 0
M  V30 27258 N 2584.78 -4.21798 -1.91417 0
M  V30 27259 C 2585.52 -5.26783 -2.26467 0
M  V30 27260 N 2585.01 -6.42081 -2.60199 0
M  V30 27261 N 2586.81 -5.14156 -2.27157 0
M  V30 27262 H 2578.96 -2.11803 0.159111 0
M  V30 27263 H 2581.22 -0.947962 0.00851418 0
M  V30 27264 H 2580.93 -3.47207 -0.560387 0
M  V30 27265 H 2580.8 -3.02546 -2.25268 0
M  V30 27266 H 2583.19 -2.04107 -2.1313 0
M  V30 27267 H 2583.27 -2.52155 -0.430294 0
M  V30 27268 H 2582.91 -4.95321 -1.12335 0
M  V30 27269 H 2582.84 -4.4419 -2.82847 0
M  V30 27270 H 2585.33 -3.38615 -1.67774 0
M  V30 27271 H 2585.65 -7.17953 -2.85943 0
M  V30 27272 H 2583.99 -6.45417 -2.57802 0
M  V30 27273 H 2587.18 -4.23111 -2.00237 0
M  V30 27274 H 2587.36 -5.96083 -2.54144 0
M  V30 27275 N 2580.76 0.812929 -1.35016 0
M  V30 27276 C 2581.69 1.93916 -1.30072 0
M  V30 27277 C 2582.67 1.69184 -0.176304 0
M  V30 27278 O 2583.86 1.90638 -0.370261 0
M  V30 27279 C 2580.99 3.30551 -1.06553 0
M  V30 27280 C 2579.94 3.69749 -2.15568 0
M  V30 27281 C 2579.27 5.04476 -1.77223 0
M  V30 27282 C 2580.57 3.80793 -3.57483 0
M  V30 27283 H 2582.26 1.9831 -2.24307 0
M  V30 27284 H 2579.81 0.952717 -1.07978 0
M  V30 27285 H 2581.76 4.08935 -1.01736 0
M  V30 27286 H 2580.49 3.26482 -0.0876293 0
M  V30 27287 H 2579.14 2.93646 -2.19471 0
M  V30 27288 H 2578.79 4.96905 -0.780676 0
M  V30 27289 H 2578.49 5.31674 -2.50194 0
M  V30 27290 H 2580.02 5.85307 -1.7392 0
M  V30 27291 H 2581.43 4.49424 -3.55937 0
M  V30 27292 H 2579.83 4.19455 -4.2916 0
M  V30 27293 H 2580.9 2.82518 -3.94096 0
M  V30 27294 N 2582.24 1.18909 1.03433 0
M  V30 27295 C 2583.15 0.937053 2.15073 0
M  V30 27296 C 2584.17 -0.101054 1.73706 0
M  V30 27297 O 2585.34 0.0823301 2.01232 0
M  V30 27298 C 2582.41 0.473118 3.43457 0
M  V30 27299 C 2581.47 1.57996 3.99169 0
M  V30 27300 C 2580.7 1.13806 5.21425 0
M  V30 27301 O 2580.92 -0.000625679 5.704 0
M  V30 27302 O 2579.86 1.9384 5.69833 0
M  V30 27303 H 2583.68 1.87136 2.39194 0
M  V30 27304 H 2581.27 0.971447 1.13504 0
M  V30 27305 H 2583.15 0.222776 4.20811 0
M  V30 27306 H 2581.83 -0.432813 3.20793 0
M  V30 27307 H 2580.73 1.88439 3.23174 0
M  V30 27308 H 2582.07 2.46224 4.26186 0
M  V30 27309 N 2583.72 -1.22452 0.992137 0
M  V30 27310 C 2584.96 -1.91463 0.668557 0
M  V30 27311 C 2585.3 -1.77079 -0.797281 0
M  V30 27312 O 2584.57 -1.13919 -1.57648 0
M  V30 27313 C 2584.86 -3.43702 1.0743 0
M  V30 27314 C 2584.71 -3.67139 2.59864 0
M  V30 27315 C 2586.03 -4.35611 0.626968 0
M  V30 27316 H 2583.15 -0.695313 0.244353 0
M  V30 27317 H 2585.79 -1.44343 1.23552 0
M  V30 27318 H 2583.94 -3.83965 0.591884 0
M  V30 27319 H 2585.61 -3.36284 3.1577 0
M  V30 27320 H 2583.85 -3.11446 3.01967 0
M  V30 27321 H 2584.52 -4.73754 2.83304 0
M  V30 27322 H 2587 -4.02859 1.04132 0
M  V30 27323 H 2585.88 -5.40806 0.939171 0
M  V30 27324 H 2586.14 -4.39569 -0.472379 0
M  V30 27325 N 2585.2 -0.765242 -1.37774 0
M  V30 27326 C 2586.14 -0.134839 -2.32209 0
M  V30 27327 C 2587.14 0.692288 -1.54608 0
M  V30 27328 O 2588.34 0.590079 -1.70053 0
M  V30 27329 H 2584.72 -0.0248137 -0.75159 0
M  V30 27330 H 2586.69 -0.947168 -2.82969 0
M  V30 27331 C 2585.44 0.735004 -3.39843 0
M  V30 27332 H 2584.76 0.107921 -3.99654 0
M  V30 27333 H 2586.2 1.14318 -4.08298 0
M  V30 27334 C 2584.66 1.88276 -2.79381 0
M  V30 27335 O 2585.19 2.97778 -2.69613 0
M  V30 27336 N 2583.4 1.68138 -2.37019 0
M  V30 27337 H 2582.94 0.790729 -2.45164 0
M  V30 27338 H 2582.9 2.451 -1.96909 0
M  V30 27339 N 2586.67 1.48939 -0.515251 0
M  V30 27340 C 2587.92 2.02486 0.0241794 0
M  V30 27341 C 2588.25 1.39371 1.35669 0
M  V30 27342 O 2587.5 0.523607 1.88565 0
M  V30 27343 C 2587.8 3.56779 0.210532 0
M  V30 27344 C 2587.47 4.38605 -1.04576 0
M  V30 27345 C 2586.13 4.60684 -1.3901 0
M  V30 27346 C 2588.48 4.86106 -1.88017 0
M  V30 27347 C 2585.81 5.27509 -2.56809 0
M  V30 27348 C 2588.16 5.54228 -3.04982 0
M  V30 27349 C 2586.83 5.74549 -3.39779 0
M  V30 27350 H 2586.1 0.740947 0.00884786 0
M  V30 27351 H 2588.74 1.79085 -0.678294 0
M  V30 27352 H 2587.05 3.78938 0.995653 0
M  V30 27353 H 2588.75 3.95818 0.64259 0
M  V30 27354 H 2585.34 4.21671 -0.767571 0
M  V30 27355 H 2589.52 4.68864 -1.62727 0
M  V30 27356 H 2584.78 5.41442 -2.8399 0
M  V30 27357 H 2588.95 5.90007 -3.69953 0
M  V30 27358 H 2586.58 6.26104 -4.31159 0
M  V30 27359 N 2588.15 0.249709 1.55609 0
M  V30 27360 C 2589.1 -0.648655 2.21497 0
M  V30 27361 C 2590.07 -1.16919 1.17979 0
M  V30 27362 O 2591.26 -1.22315 1.46437 0
M  V30 27363 C 2588.4 -1.83863 2.92042 0
M  V30 27364 C 2587.51 -1.35435 4.10221 0
M  V30 27365 C 2586.64 -2.50411 4.68474 0
M  V30 27366 C 2585.68 -1.98859 5.78897 0
M  V30 27367 N 2584.82 -3.07212 6.3132 0
M  V30 27368 H 2589.66 -0.0801058 2.97892 0
M  V30 27369 H 2587.2 -0.0277773 1.47074 0
M  V30 27370 H 2589.15 -2.53772 3.31143 0
M  V30 27371 H 2587.78 -2.37961 2.18116 0
M  V30 27372 H 2586.84 -0.549214 3.76414 0
M  V30 27373 H 2588.15 -0.936563 4.89929 0
M  V30 27374 H 2587.3 -3.28357 5.10163 0
M  V30 27375 H 2586.04 -2.95493 3.87989 0
M  V30 27376 H 2585.05 -1.19384 5.36682 0
M  V30 27377 H 2586.27 -1.54743 6.61235 0
M  V30 27378 H 2584.22 -3.51723 5.53739 0
M  V30 27379 H 2584.13 -2.69772 7.06229 0
M  V30 27380 H 2585.4 -3.85209 6.77668 0
M  V30 27381 N 2589.63 -1.57583 -0.0233682 0
M  V30 27382 C 2590.54 -2.10336 -1.03904 0
M  V30 27383 C 2591.56 -1.04326 -1.39256 0
M  V30 27384 O 2592.73 -1.36094 -1.4846 0
M  V30 27385 C 2589.8 -2.57697 -2.31933 0
M  V30 27386 C 2588.86 -3.78213 -2.0311 0
M  V30 27387 C 2588.09 -4.23306 -3.25036 0
M  V30 27388 O 2588.32 -3.67884 -4.3591 0
M  V30 27389 O 2587.25 -5.15688 -3.10402 0
M  V30 27390 H 2591.08 -2.9729 -0.620695 0
M  V30 27391 H 2588.66 -1.47448 -0.240717 0
M  V30 27392 H 2590.54 -2.88464 -3.07191 0
M  V30 27393 H 2589.22 -1.73852 -2.73052 0
M  V30 27394 H 2588.12 -3.52456 -1.25402 0
M  V30 27395 H 2589.46 -4.63059 -1.66844 0
M  V30 27396 N 2591.11 0.29574 -1.548 0
M  V30 27397 C 2592.07 1.34804 -1.85366 0
M  V30 27398 C 2593.07 1.43435 -0.726842 0
M  V30 27399 O 2594.26 1.4298 -0.995113 0
M  V30 27400 C 2591.39 2.73226 -2.03864 0
M  V30 27401 H 2592.59 1.08944 -2.79412 0
M  V30 27402 H 2590.14 0.532676 -1.46943 0
M  V30 27403 H 2590.88 3.04301 -1.12123 0
M  V30 27404 H 2590.66 2.68351 -2.85885 0
M  V30 27405 H 2592.15 3.49301 -2.28863 0
M  V30 27406 N 2592.59 1.47346 0.559187 0
M  V30 27407 C 2593.52 1.62561 1.67619 0
M  V30 27408 C 2594.5 0.475115 1.6333 0
M  V30 27409 O 2595.68 0.704214 1.80982 0
M  V30 27410 C 2592.81 1.6378 3.06257 0
M  V30 27411 C 2591.77 2.78036 3.25392 0
M  V30 27412 C 2591.09 2.64326 4.64796 0
M  V30 27413 C 2592.39 4.19646 3.10957 0
M  V30 27414 H 2594.09 2.56069 1.55142 0
M  V30 27415 H 2591.63 1.23234 0.74494 0
M  V30 27416 H 2593.59 1.73015 3.84244 0
M  V30 27417 H 2592.31 0.668306 3.19689 0
M  V30 27418 H 2590.97 2.68308 2.49812 0
M  V30 27419 H 2590.62 1.65409 4.75025 0
M  V30 27420 H 2590.32 3.40977 4.78549 0
M  V30 27421 H 2591.84 2.75487 5.44921 0
M  V30 27422 H 2593.26 4.30361 3.78764 0
M  V30 27423 H 2591.65 4.97068 3.3622 0
M  V30 27424 H 2592.72 4.38152 2.07729 0
M  V30 27425 N 2594.07 -0.805758 1.35445 0
M  V30 27426 C 2595.31 -1.56288 1.28764 0
M  V30 27427 C 2595.64 -1.94012 -0.137713 0
M  V30 27428 O 2594.9 -1.61644 -1.10317 0
M  V30 27429 C 2595.19 -2.86212 2.1405 0
M  V30 27430 C 2594.86 -2.67703 3.6283 0
M  V30 27431 C 2593.52 -2.62363 4.03385 0
M  V30 27432 C 2595.87 -2.50178 4.57231 0
M  V30 27433 C 2593.2 -2.37442 5.36506 0
M  V30 27434 C 2595.55 -2.26786 5.90551 0
M  V30 27435 C 2594.22 -2.19869 6.30249 0
M  V30 27436 H 2593.49 -0.5719 0.471181 0
M  V30 27437 H 2596.14 -0.930944 1.67349 0
M  V30 27438 H 2594.44 -3.53788 1.68348 0
M  V30 27439 H 2596.14 -3.43913 2.06216 0
M  V30 27440 H 2592.73 -2.72707 3.30649 0
M  V30 27441 H 2596.91 -2.53315 4.26784 0
M  V30 27442 H 2592.17 -2.30557 5.66263 0
M  V30 27443 H 2596.34 -2.12217 6.63277 0
M  V30 27444 H 2593.97 -2.0032 7.33332 0
M  V30 27445 N 2595.54 -1.19456 -1.02801 0
M  V30 27446 C 2596.77 -1.02367 -1.80377 0
M  V30 27447 C 2597.19 0.422975 -1.83283 0
M  V30 27448 O 2596.55 1.30411 -1.25947 0
M  V30 27449 C 2596.6 -1.59827 -3.23246 0
M  V30 27450 O 2595.7 -0.828176 -4.03999 0
M  V30 27451 H 2595.04 -0.361771 -0.556792 0
M  V30 27452 H 2597.57 -1.58498 -1.29382 0
M  V30 27453 H 2597.58 -1.63079 -3.73991 0
M  V30 27454 H 2596.26 -2.65118 -3.20445 0
M  V30 27455 H 2594.84 -0.868973 -3.62634 0
M  V30 27456 N 2597.02 1.21924 -0.998617 0
M  V30 27457 C 2597.97 2.24061 -0.55366 0
M  V30 27458 C 2598.94 1.60781 0.41697 0
M  V30 27459 O 2600.12 1.8809 0.320449 0
M  V30 27460 C 2597.26 3.44892 0.119898 0
M  V30 27461 C 2596.38 4.22666 -0.893151 0
M  V30 27462 C 2595.51 5.30851 -0.192517 0
M  V30 27463 C 2594.55 6.00351 -1.19355 0
M  V30 27464 N 2593.69 7.00166 -0.52083 0
M  V30 27465 H 2598.53 2.61484 -1.42934 0
M  V30 27466 H 2596.06 1.28506 -0.715861 0
M  V30 27467 H 2598.02 4.13853 0.527387 0
M  V30 27468 H 2596.65 3.08215 0.959335 0
M  V30 27469 H 2595.7 3.52946 -1.41893 0
M  V30 27470 H 2597.02 4.70536 -1.6552 0
M  V30 27471 H 2596.17 6.06093 0.271408 0
M  V30 27472 H 2594.91 4.8397 0.60199 0
M  V30 27473 H 2593.91 5.23886 -1.66805 0
M  V30 27474 H 2595.14 6.49318 -1.98903 0
M  V30 27475 H 2593.09 6.55508 0.254137 0
M  V30 27476 H 2593 7.46071 -1.22123 0
M  V30 27477 H 2594.27 7.79459 -0.0798966 0
M  V30 27478 N 2598.5 0.772537 1.37367 0
M  V30 27479 C 2599.73 0.348118 2.03646 0
M  V30 27480 C 2600.14 -1.03479 1.58394 0
M  V30 27481 O 2599.48 -1.67198 0.76095 0
M  V30 27482 C 2599.54 0.313467 3.58131 0
M  V30 27483 C 2599.21 1.6411 4.26517 0
M  V30 27484 C 2600.2 2.59368 4.50582 0
M  V30 27485 C 2597.89 1.91575 4.64332 0
M  V30 27486 C 2599.88 3.80298 5.1152 0
M  V30 27487 C 2597.57 3.12775 5.2499 0
M  V30 27488 C 2598.57 4.06956 5.48521 0
M  V30 27489 O 2598.26 5.26022 6.07911 0
M  V30 27490 H 2597.99 0.143765 0.660536 0
M  V30 27491 H 2600.54 1.04775 1.76667 0
M  V30 27492 H 2598.77 -0.442549 3.84159 0
M  V30 27493 H 2600.46 -0.08399 4.05813 0
M  V30 27494 H 2601.23 2.39431 4.2178 0
M  V30 27495 H 2597.11 1.19096 4.45351 0
M  V30 27496 H 2600.65 4.53823 5.29803 0
M  V30 27497 H 2596.55 3.32598 5.53217 0
M  V30 27498 H 2597.31 5.26858 6.26389 0
M  V30 27499 N 2599.98 -1.48664 0.523142 0
M  V30 27500 C 2600.92 -2.29513 -0.243358 0
M  V30 27501 C 2601.89 -1.36934 -0.940115 0
M  V30 27502 O 2603.08 -1.65898 -0.942474 0
M  V30 27503 C 2600.22 -3.20143 -1.28849 0
M  V30 27504 C 2599.33 -4.27795 -0.601275 0
M  V30 27505 C 2598.47 -5.05614 -1.62875 0
M  V30 27506 C 2597.51 -6.05076 -0.92462 0
M  V30 27507 N 2596.64 -6.75978 -1.89732 0
M  V30 27508 H 2601.48 -2.94548 0.452286 0
M  V30 27509 H 2599.02 -1.45213 0.234884 0
M  V30 27510 H 2600.98 -3.71082 -1.90667 0
M  V30 27511 H 2599.61 -2.57047 -1.95261 0
M  V30 27512 H 2598.66 -3.80175 0.130689 0
M  V30 27513 H 2599.97 -4.98777 -0.0480708 0
M  V30 27514 H 2599.13 -5.60532 -2.32139 0
M  V30 27515 H 2597.87 -4.34456 -2.21584 0
M  V30 27516 H 2596.87 -5.49368 -0.21787 0
M  V30 27517 H 2598.1 -6.7823 -0.343732 0
M  V30 27518 H 2596.04 -6.07576 -2.47362 0
M  V30 27519 H 2595.96 -7.43011 -1.39537 0
M  V30 27520 H 2597.23 -7.35489 -2.58216 0
M  V30 27521 N 2601.46 -0.257958 -1.55475 0
M  V30 27522 C 2602.7 0.362974 -1.98814 0
M  V30 27523 C 2603.02 1.57655 -1.1476 0
M  V30 27524 O 2602.29 1.9451 -0.23299 0
M  V30 27525 H 2600.87 0.1371 -0.734311 0
M  V30 27526 H 2603.54 -0.359314 -1.91559 0
M  V30 27527 H 2602.63 0.66458 -3.04942 0
M  V30 27528 N 2602.93 1.57593 0.0150108 0
M  V30 27529 C 2603.88 2.08574 1.02955 0
M  V30 27530 C 2604.88 1.00248 1.36553 0
M  V30 27531 O 2606.08 1.18726 1.35293 0
M  V30 27532 H 2602.46 0.665792 0.349607 0
M  V30 27533 H 2604.43 2.9283 0.57388 0
M  V30 27534 C 2603.18 2.59207 2.31747 0
M  V30 27535 H 2602.5 3.42185 2.06759 0
M  V30 27536 H 2603.94 2.98574 3.01048 0
M  V30 27537 C 2602.4 1.4995 3.0169 0
M  V30 27538 O 2602.93 0.873772 3.92082 0
M  V30 27539 N 2601.14 1.2306 2.63258 0
M  V30 27540 H 2600.68 1.74128 1.89834 0
M  V30 27541 H 2600.64 0.501739 3.10371 0
M  V30 27542 N 2604.41 -0.287527 1.54955 0
M  V30 27543 C 2605.66 -1.02254 1.75134 0
M  V30 27544 C 2605.99 -1.86457 0.542891 0
M  V30 27545 O 2605.27 -1.88986 -0.459823 0
M  V30 27546 C 2605.55 -1.91728 3.04815 0
M  V30 27547 C 2605.4 -1.10615 4.35987 0
M  V30 27548 C 2606.72 -2.90681 3.30443 0
M  V30 27549 H 2603.84 -0.37033 0.637201 0
M  V30 27550 H 2606.48 -0.296079 1.87679 0
M  V30 27551 H 2604.63 -2.5367 2.94251 0
M  V30 27552 H 2606.3 -0.508555 4.58488 0
M  V30 27553 H 2604.55 -0.409195 4.31866 0
M  V30 27554 H 2605.22 -1.76503 5.23021 0
M  V30 27555 H 2607.69 -2.38871 3.40705 0
M  V30 27556 H 2606.57 -3.50439 4.22473 0
M  V30 27557 H 2606.83 -3.65049 2.49383 0
M  V30 27558 N 2605.89 -1.47641 -0.551365 0
M  V30 27559 C 2606.8 -1.6321 -1.68522 0
M  V30 27560 C 2607.82 -0.514844 -1.66209 0
M  V30 27561 O 2608.99 -0.783146 -1.8555 0
M  V30 27562 C 2606.06 -1.64811 -3.05022 0
M  V30 27563 C 2605.12 -2.88005 -3.18357 0
M  V30 27564 C 2604.35 -2.89521 -4.48345 0
M  V30 27565 O 2604.57 -2.00074 -5.3416 0
M  V30 27566 O 2603.51 -3.81451 -4.65595 0
M  V30 27567 H 2607.33 -2.59163 -1.58329 0
M  V30 27568 H 2604.92 -1.30794 -0.72204 0
M  V30 27569 H 2606.8 -1.68509 -3.86242 0
M  V30 27570 H 2605.48 -0.720252 -3.15585 0
M  V30 27571 H 2604.38 -2.89849 -2.36513 0
M  V30 27572 H 2605.72 -3.80104 -3.127 0
M  V30 27573 N 2607.37 0.798563 -1.3587 0
M  V30 27574 C 2608.61 1.56932 -1.30964 0
M  V30 27575 C 2608.97 1.91671 0.11237 0
M  V30 27576 O 2610.17 2.67275 0.28589 0
M  V30 27577 C 2608.44 2.81808 -2.19816 0
M  V30 27578 S 2610 3.72139 -2.32504 0
M  V30 27579 H 2606.82 0.537598 -0.465306 0
M  V30 27580 H 2609.42 0.941316 -1.71346 0
M  V30 27581 H 2608.13 2.54323 -3.22099 0
M  V30 27582 H 2607.66 3.49588 -1.80421 0
M  V30 27583 H 2609.67 4.72481 -1.51578 0
M  V30 27584 N 2608.85 1.19999 1.02166 0
M  V30 27585 C 2609.79 0.941005 2.12715 0
M  V30 27586 C 2610.79 -0.105811 1.69069 0
M  V30 27587 O 2611.99 0.0440899 1.79946 0
M  V30 27588 H 2608.37 0.286942 0.695103 0
M  V30 27589 H 2610.34 1.87979 2.31747 0
M  V30 27590 C 2609.09 0.50411 3.44026 0
M  V30 27591 H 2608.41 1.30118 3.78033 0
M  V30 27592 H 2609.85 0.362065 4.22451 0
M  V30 27593 C 2608.31 -0.78282 3.27679 0
M  V30 27594 O 2608.84 -1.8425 3.56952 0
M  V30 27595 N 2607.05 -0.742872 2.80944 0
M  V30 27596 H 2606.59 0.119733 2.57322 0
M  V30 27597 H 2606.55 -1.6043 2.70388 0
M  V30 27598 N 2610.32 -1.21392 1.00507 0
M  V30 27599 C 2611.25 -2.26034 0.585723 0
M  V30 27600 C 2612.24 -1.65486 -0.393496 0
M  V30 27601 O 2613.42 -1.92149 -0.281463 0
M  V30 27602 C 2610.55 -3.47188 -0.0883673 0
M  V30 27603 C 2609.5 -4.20253 0.810641 0
M  V30 27604 C 2608.83 -5.347 0.00295781 0
M  V30 27605 C 2610.13 -4.77638 2.11328 0
M  V30 27606 H 2611.82 -2.61365 1.46043 0
M  V30 27607 H 2609.37 -1.25636 0.70367 0
M  V30 27608 H 2611.32 -4.19561 -0.393212 0
M  V30 27609 H 2610.05 -3.10988 -0.997711 0
M  V30 27610 H 2608.71 -3.49729 1.09931 0
M  V30 27611 H 2608.35 -4.94743 -0.907678 0
M  V30 27612 H 2608.05 -5.84513 0.601547 0
M  V30 27613 H 2609.58 -6.09884 -0.295701 0
M  V30 27614 H 2610.99 -5.4189 1.87158 0
M  V30 27615 H 2609.39 -5.3784 2.66173 0
M  V30 27616 H 2610.46 -3.97015 2.784 0
M  V30 27617 N 2611.8 -0.779811 -1.36955 0
M  V30 27618 C 2612.75 -0.159461 -2.32053 0
M  V30 27619 C 2613.74 0.675851 -1.55334 0
M  V30 27620 O 2614.95 0.57201 -1.70669 0
M  V30 27621 H 2611.33 -0.0327839 -0.751285 0
M  V30 27622 H 2613.3 -0.977128 -2.81948 0
M  V30 27623 C 2612.05 0.698917 -3.40603 0
M  V30 27624 H 2611.37 0.0655263 -3.99746 0
M  V30 27625 H 2612.81 1.09981 -4.09488 0
M  V30 27626 C 2611.27 1.85302 -2.81362 0
M  V30 27627 O 2611.8 2.94902 -2.72756 0
M  V30 27628 N 2610 1.65614 -2.38789 0
M  V30 27629 H 2609.55 0.764681 -2.45989 0
M  V30 27630 H 2609.51 2.42998 -1.99498 0
M  V30 27631 N 2613.28 1.48384 -0.531019 0
M  V30 27632 C 2614.19 2.3342 0.234989 0
M  V30 27633 C 2615.21 1.46553 0.937984 0
M  V30 27634 O 2616.38 1.79531 0.912713 0
M  V30 27635 C 2613.45 3.22691 1.26772 0
M  V30 27636 C 2612.51 4.25432 0.574964 0
M  V30 27637 C 2611.74 5.10438 1.55849 0
M  V30 27638 O 2611.96 4.97442 2.7912 0
M  V30 27639 O 2610.9 5.91813 1.09732 0
M  V30 27640 H 2614.72 3.00168 -0.461847 0
M  V30 27641 H 2612.31 1.4652 -0.291928 0
M  V30 27642 H 2614.19 3.77908 1.8645 0
M  V30 27643 H 2612.87 2.58604 1.94694 0
M  V30 27644 H 2611.77 3.74048 -0.062344 0
M  V30 27645 H 2613.11 4.92161 -0.0623395 0
M  V30 27646 N 2614.76 0.2662 1.55336 0
M  V30 27647 C 2615.71 -0.639459 2.18849 0
M  V30 27648 C 2616.69 -1.12501 1.15032 0
M  V30 27649 O 2617.88 -1.07157 1.40877 0
M  V30 27650 C 2615.01 -1.82728 2.90629 0
M  V30 27651 C 2614.1 -1.35932 4.01725 0
M  V30 27652 N 2614.49 -0.6069 5.02146 0
M  V30 27653 C 2612.79 -1.64302 4.14633 0
M  V30 27654 C 2613.49 -0.362036 5.80572 0
M  V30 27655 N 2612.47 -0.931877 5.35553 0
M  V30 27656 H 2616.27 -0.0566541 2.93845 0
M  V30 27657 H 2613.78 0.0693597 1.62252 0
M  V30 27658 H 2615.78 -2.48729 3.34573 0
M  V30 27659 H 2614.44 -2.41412 2.17141 0
M  V30 27660 H 2615.45 -0.255107 5.17271 0
M  V30 27661 H 2612.13 -2.23987 3.5233 0
M  V30 27662 H 2613.52 0.239966 6.71471 0
M  V30 27663 N 2616.24 -1.57599 -0.0066531 0
M  V30 27664 C 2617.17 -2.03433 -1.03394 0
M  V30 27665 C 2618.15 -0.9229 -1.33871 0
M  V30 27666 O 2619.33 -1.19051 -1.46148 0
M  V30 27667 C 2616.46 -2.42632 -2.36321 0
M  V30 27668 C 2615.5 -3.64441 -2.21551 0
M  V30 27669 S 2616.34 -5.12644 -1.5478 0
M  V30 27670 C 2617.49 -5.55106 -2.89151 0
M  V30 27671 H 2617.73 -2.90249 -0.643636 0
M  V30 27672 H 2615.26 -1.52863 -0.217322 0
M  V30 27673 H 2617.22 -2.65885 -3.12755 0
M  V30 27674 H 2615.88 -1.56227 -2.72492 0
M  V30 27675 H 2615.07 -3.89598 -3.19733 0
M  V30 27676 H 2614.67 -3.41156 -1.53261 0
M  V30 27677 H 2616.97 -5.5716 -3.8546 0
M  V30 27678 H 2617.91 -6.55137 -2.68701 0
M  V30 27679 H 2618.32 -4.82655 -2.92754 0
M  V30 27680 N 2617.72 0.279305 -1.55105 0
M  V30 27681 C 2618.63 1.36724 -1.9064 0
M  V30 27682 C 2619.64 1.54367 -0.802926 0
M  V30 27683 O 2620.82 1.68615 -1.10141 0
M  V30 27684 C 2617.88 2.70751 -2.16552 0
M  V30 27685 C 2616.94 2.61909 -3.40151 0
M  V30 27686 C 2616.18 3.89544 -3.64817 0
M  V30 27687 O 2616.4 4.8993 -2.92103 0
M  V30 27688 O 2615.33 3.90127 -4.5835 0
M  V30 27689 H 2619.16 1.09586 -2.83239 0
M  V30 27690 H 2616.74 0.477281 -1.41571 0
M  V30 27691 H 2618.63 3.5001 -2.34671 0
M  V30 27692 H 2617.3 2.97688 -1.27136 0
M  V30 27693 H 2616.21 1.81046 -3.27373 0
M  V30 27694 H 2617.54 2.39922 -4.29765 0
M  V30 27695 N 2619.19 1.47931 0.543528 0
M  V30 27696 C 2620.44 1.54514 1.29647 0
M  V30 27697 C 2620.76 0.218007 1.94381 0
M  V30 27698 O 2621.96 0.161955 2.71017 0
M  V30 27699 C 2620.42 2.72439 2.3517 0
M  V30 27700 C 2620.03 4.11739 1.76565 0
M  V30 27701 C 2621.77 2.88325 3.11559 0
M  V30 27702 C 2619.68 5.20944 2.79949 0
M  V30 27703 H 2618.61 0.575178 0.487531 0
M  V30 27704 H 2621.26 1.74236 0.575677 0
M  V30 27705 H 2619.64 2.46124 3.10224 0
M  V30 27706 H 2620.81 4.48015 1.07791 0
M  V30 27707 H 2619.13 4.00854 1.12715 0
M  V30 27708 H 2621.73 3.6708 3.88788 0
M  V30 27709 H 2622.07 1.97275 3.6659 0
M  V30 27710 H 2622.6 3.14476 2.43618 0
M  V30 27711 H 2619.34 6.13916 2.29755 0
M  V30 27712 H 2618.86 4.8917 3.47092 0
M  V30 27713 H 2620.54 5.4848 3.43189 0
M  V30 27714 N 2620.67 -0.791347 1.36292 0
M  V30 27715 C 2621.63 -1.88551 1.30312 0
M  V30 27716 C 2622.63 -1.59407 0.211232 0
M  V30 27717 O 2623.82 -1.67854 0.465895 0
M  V30 27718 C 2620.96 -3.25295 1.01961 0
M  V30 27719 H 2622.15 -1.95269 2.27618 0
M  V30 27720 H 2619.7 -0.988932 1.21037 0
M  V30 27721 H 2620.44 -3.2426 0.051055 0
M  V30 27722 H 2620.22 -3.47837 1.80974 0
M  V30 27723 H 2621.71 -4.05357 1.00377 0
M  V30 27724 N 2622.15 -1.2054 -1.01528 0
M  V30 27725 C 2623.4 -1.0106 -1.74556 0
M  V30 27726 C 2623.71 0.457723 -1.90169 0
M  V30 27727 O 2624.92 0.771676 -2.60303 0
M  V30 27728 C 2623.37 -1.75946 -3.1396 0
M  V30 27729 C 2622.98 -3.2688 -3.06355 0
M  V30 27730 C 2624.73 -1.64839 -3.91188 0
M  V30 27731 C 2622.63 -3.94299 -4.40775 0
M  V30 27732 H 2621.56 -0.374517 -0.654411 0
M  V30 27733 H 2624.21 -1.44173 -1.13518 0
M  V30 27734 H 2622.6 -1.2562 -3.75547 0
M  V30 27735 H 2623.77 -3.8443 -2.54068 0
M  V30 27736 H 2622.08 -3.38415 -2.42619 0
M  V30 27737 H 2624.68 -2.12548 -4.9064 0
M  V30 27738 H 2625.02 -0.604818 -4.11883 0
M  V30 27739 H 2625.56 -2.12585 -3.36233 0
M  V30 27740 H 2622.3 -4.98813 -4.25283 0
M  V30 27741 H 2621.82 -3.41538 -4.93064 0
M  V30 27742 H 2623.5 -3.98626 -5.09614 0
M  V30 27743 N 2623.63 1.20858 -1.01149 0
M  V30 27744 C 2624.59 2.21681 -0.582263 0
M  V30 27745 C 2625.59 1.57058 0.344859 0
M  V30 27746 O 2626.78 1.73682 0.134251 0
M  V30 27747 C 2623.91 3.40568 0.150437 0
M  V30 27748 H 2625.11 2.6117 -1.47413 0
M  V30 27749 H 2622.66 1.34232 -0.800719 0
M  V30 27750 H 2623.39 3.06576 1.05745 0
M  V30 27751 H 2623.18 3.88696 -0.515512 0
M  V30 27752 H 2624.67 4.15294 0.438271 0
M  V30 27753 N 2625.11 0.787064 1.3654 0
M  V30 27754 C 2626.06 0.156997 2.27459 0
M  V30 27755 C 2627.04 -0.657684 1.46845 0
M  V30 27756 O 2628.23 -0.518143 1.69246 0
M  V30 27757 C 2625.36 -0.709219 3.35894 0
M  V30 27758 C 2624.45 0.114123 4.23946 0
M  V30 27759 N 2624.84 1.16745 4.92142 0
M  V30 27760 C 2623.14 -0.107419 4.45871 0
M  V30 27761 C 2623.84 1.66847 5.57258 0
M  V30 27762 N 2622.81 0.978086 5.34728 0
M  V30 27763 H 2626.61 0.963234 2.77667 0
M  V30 27764 H 2624.13 0.626296 1.49838 0
M  V30 27765 H 2626.13 -1.17649 3.99955 0
M  V30 27766 H 2624.79 -1.51403 2.87241 0
M  V30 27767 H 2625.8 1.54985 4.94166 0
M  V30 27768 H 2622.47 -0.882922 4.08057 0
M  V30 27769 H 2623.86 2.54773 6.21724 0
M  V30 27770 N 2626.58 -1.48101 0.53888 0
M  V30 27771 C 2627.81 -2.06596 0.0123321 0
M  V30 27772 C 2628.22 -1.39459 -1.27859 0
M  V30 27773 O 2627.56 -0.478938 -1.77347 0
M  V30 27774 C 2627.63 -3.58461 -0.273068 0
M  V30 27775 C 2627.29 -4.47527 0.925689 0
M  V30 27776 C 2628.29 -4.86761 1.82646 0
M  V30 27777 C 2625.97 -4.89304 1.1352 0
M  V30 27778 C 2627.97 -5.66552 2.92057 0
M  V30 27779 C 2625.65 -5.68864 2.23243 0
M  V30 27780 C 2626.65 -6.07397 3.12343 0
M  V30 27781 O 2626.34 -6.85357 4.20167 0
M  V30 27782 H 2626.07 -0.675122 0.0344402 0
M  V30 27783 H 2628.63 -1.91353 0.746527 0
M  V30 27784 H 2626.86 -3.7185 -1.06135 0
M  V30 27785 H 2628.54 -3.99046 -0.742772 0
M  V30 27786 H 2629.31 -4.551 1.67657 0
M  V30 27787 H 2625.19 -4.58789 0.450915 0
M  V30 27788 H 2628.73 -5.96548 3.6163 0
M  V30 27789 H 2624.63 -5.99938 2.38211 0
M  V30 27790 H 2625.4 -7.03725 4.17987 0
M  V30 27791 N 2628.06 -0.274434 -1.55192 0
M  V30 27792 C 2629.29 0.348788 -2.04446 0
M  V30 27793 C 2629.71 1.48733 -1.15152 0
M  V30 27794 O 2629.07 1.80679 -0.149984 0
M  V30 27795 C 2629.12 0.807947 -3.51432 0
M  V30 27796 O 2628.22 1.91525 -3.65229 0
M  V30 27797 H 2627.56 0.072216 -0.660061 0
M  V30 27798 H 2630.09 -0.408533 -2.0048 0
M  V30 27799 H 2630.1 1.10388 -3.92783 0
M  V30 27800 H 2628.78 -0.0250596 -4.15892 0
M  V30 27801 H 2627.35 1.6219 -3.35781 0
M  V30 27802 N 2629.54 1.576 -0.00170483 0
M  V30 27803 C 2630.5 2.07475 0.974009 0
M  V30 27804 C 2631.5 0.984466 1.27141 0
M  V30 27805 O 2632.69 1.24706 1.21631 0
M  V30 27806 C 2629.82 2.51763 2.29844 0
M  V30 27807 H 2631.02 2.94951 0.542569 0
M  V30 27808 H 2628.57 1.54355 0.245802 0
M  V30 27809 H 2629.31 1.67534 2.77674 0
M  V30 27810 H 2629.09 3.3139 2.09578 0
M  V30 27811 H 2630.58 2.9067 2.99835 0
M  V30 27812 N 2631.02 -0.271076 1.55251 0
M  V30 27813 C 2631.95 -1.35746 1.84677 0
M  V30 27814 C 2632.96 -1.45446 0.731392 0
M  V30 27815 O 2634.15 -1.47228 1.00926 0
M  V30 27816 C 2631.25 -2.73854 1.99643 0
M  V30 27817 C 2630.42 -2.86721 3.30317 0
M  V30 27818 C 2629.48 -4.05517 3.35325 0
M  V30 27819 O 2628.51 -3.96184 4.08689 0
M  V30 27820 N 2629.71 -5.17573 2.62867 0
M  V30 27821 H 2632.48 -1.10848 2.78447 0
M  V30 27822 H 2630.04 -0.461191 1.55192 0
M  V30 27823 H 2632.03 -3.51621 2.00362 0
M  V30 27824 H 2630.6 -2.91566 1.1273 0
M  V30 27825 H 2629.82 -1.95823 3.42121 0
M  V30 27826 H 2631.11 -2.92251 4.16493 0
M  V30 27827 H 2630.51 -5.28042 2.02948 0
M  V30 27828 H 2629.06 -5.93564 2.69305 0
M  V30 27829 N 2632.5 -1.48217 -0.535675 0
M  V30 27830 C 2633.43 -1.65207 -1.65012 0
M  V30 27831 C 2634.41 -0.50104 -1.62553 0
M  V30 27832 O 2635.59 -0.732917 -1.79839 0
M  V30 27833 C 2632.72 -1.68631 -3.03613 0
M  V30 27834 C 2631.68 -2.83178 -3.20927 0
M  V30 27835 C 2631 -2.71687 -4.60532 0
M  V30 27836 C 2632.3 -4.2454 -3.04242 0
M  V30 27837 H 2634 -2.58505 -1.51048 0
M  V30 27838 H 2631.54 -1.24404 -0.72524 0
M  V30 27839 H 2633.5 -1.79106 -3.81443 0
M  V30 27840 H 2632.22 -0.719082 -3.18586 0
M  V30 27841 H 2630.88 -2.72249 -2.45512 0
M  V30 27842 H 2630.53 -1.72946 -4.72333 0
M  V30 27843 H 2630.23 -3.48547 -4.73063 0
M  V30 27844 H 2631.75 -2.84121 -5.4047 0
M  V30 27845 H 2633.16 -4.36332 -3.71869 0
M  V30 27846 H 2631.56 -5.02354 -3.28269 0
M  V30 27847 H 2632.63 -4.41401 -2.00732 0
M  V30 27848 N 2633.97 0.784108 -1.3671 0
M  V30 27849 C 2634.91 1.90373 -1.25831 0
M  V30 27850 C 2635.89 1.61984 -0.14136 0
M  V30 27851 O 2637.07 1.85876 -0.313421 0
M  V30 27852 C 2634.2 3.25317 -0.942678 0
M  V30 27853 C 2633.24 3.72631 -2.0748 0
M  V30 27854 S 2634.08 3.87763 -3.69324 0
M  V30 27855 C 2635.23 5.25575 -3.39886 0
M  V30 27856 H 2635.46 1.9931 -2.20596 0
M  V30 27857 H 2633 0.943905 -1.22188 0
M  V30 27858 H 2634.96 4.03263 -0.767392 0
M  V30 27859 H 2633.62 3.14097 -0.0127118 0
M  V30 27860 H 2632.81 4.70429 -1.80866 0
M  V30 27861 H 2632.41 3.01751 -2.20958 0
M  V30 27862 H 2634.7 6.10333 -2.94108 0
M  V30 27863 H 2635.65 5.57195 -4.36966 0
M  V30 27864 H 2636.05 4.92927 -2.75106 0
M  V30 27865 N 2635.45 1.21076 1.00888 0
M  V30 27866 C 2636.68 1.05148 1.78189 0
M  V30 27867 C 2637.1 -0.398919 1.84537 0
M  V30 27868 O 2636.45 -1.27685 1.30395 0
M  V30 27869 C 2636.5 1.63752 3.22285 0
M  V30 27870 O 2636.22 3.03117 3.1631 0
M  V30 27871 C 2637.73 1.52882 4.16103 0
M  V30 27872 H 2634.95 0.369464 0.560123 0
M  V30 27873 H 2637.49 1.60331 1.26942 0
M  V30 27874 H 2635.64 1.12671 3.70654 0
M  V30 27875 H 2636.06 3.31066 4.06811 0
M  V30 27876 H 2637.53 1.98635 5.15022 0
M  V30 27877 H 2638.01 0.482598 4.36541 0
M  V30 27878 H 2638.62 2.03191 3.73622 0
M  V30 27879 N 2636.93 -1.2032 1.01789 0
M  V30 27880 C 2637.86 -2.254 0.609664 0
M  V30 27881 C 2638.84 -1.65894 -0.375922 0
M  V30 27882 O 2640.03 -1.92437 -0.261067 0
M  V30 27883 C 2637.16 -3.47262 -0.0515384 0
M  V30 27884 C 2636.11 -4.1937 0.855169 0
M  V30 27885 C 2635.44 -5.34667 0.0596697 0
M  V30 27886 C 2636.74 -4.75369 2.16382 0
M  V30 27887 H 2638.43 -2.59801 1.48807 0
M  V30 27888 H 2635.98 -1.24883 0.716956 0
M  V30 27889 H 2637.93 -4.19955 -0.34869 0
M  V30 27890 H 2636.65 -3.12028 -0.964671 0
M  V30 27891 H 2635.31 -3.48544 1.13634 0
M  V30 27892 H 2634.96 -4.95677 -0.855153 0
M  V30 27893 H 2634.66 -5.83842 0.663508 0
M  V30 27894 H 2636.18 -6.10163 -0.230998 0
M  V30 27895 H 2637.6 -5.39874 1.92895 0
M  V30 27896 H 2636 -5.34987 2.71863 0
M  V30 27897 H 2637.07 -3.9404 2.82596 0
M  V30 27898 N 2638.41 -0.794293 -1.3612 0
M  V30 27899 C 2639.69 -0.292719 -1.93397 0
M  V30 27900 C 2640.07 1.21586 -1.72569 0
M  V30 27901 O 2639.41 2.00963 -1.08748 0
M  V30 27902 C 2639.62 -0.690674 -3.42097 0
M  V30 27903 C 2640.97 -0.673179 -4.1923 0
M  V30 27904 O 2642 -0.631451 -3.50558 0
M  V30 27905 O 2640.85 -0.720457 -5.4173 0
M  V30 27906 H 2637.95 -0.0736838 -0.823711 0
M  V30 27907 H 2640.49 -0.877165 -1.45272 0
M  V30 27908 H 2639.27 -1.73091 -3.50935 0
M  V30 27909 H 2638.89 -0.0803735 -3.97519 0
M  V30 27910 N 2639.89 1.47813 -0.546727 0
M  V30 27911 C 2641.14 2.01693 -0.0166852 0
M  V30 27912 C 2641.45 1.42754 1.33718 0
M  V30 27913 O 2642.65 1.88233 1.95654 0
M  V30 27914 C 2641.11 3.59894 0.0206137 0
M  V30 27915 C 2640.72 4.27822 -1.32938 0
M  V30 27916 C 2642.46 4.21562 0.4986 0
M  V30 27917 C 2640.37 5.78001 -1.25175 0
M  V30 27918 H 2639.3 0.753996 -0.00246736 0
M  V30 27919 H 2641.95 1.6991 -0.693014 0
M  V30 27920 H 2640.33 3.88592 0.762372 0
M  V30 27921 H 2641.51 4.10778 -2.08802 0
M  V30 27922 H 2639.82 3.78098 -1.74445 0
M  V30 27923 H 2642.42 5.316 0.574906 0
M  V30 27924 H 2642.76 3.88018 1.50823 0
M  V30 27925 H 2643.29 3.97356 -0.187979 0
M  V30 27926 H 2640.03 6.16146 -2.23705 0
M  V30 27927 H 2639.55 5.97412 -0.534745 0
M  V30 27928 H 2641.23 6.39996 -0.949411 0
M  V30 27929 N 2641.36 0.28266 1.55044 0
M  V30 27930 C 2642.64 -0.384132 1.91791 0
M  V30 27931 C 2643.02 -1.73133 1.20781 0
M  V30 27932 O 2642.37 -2.25998 0.337229 0
M  V30 27933 C 2642.58 -0.516954 3.4515 0
M  V30 27934 C 2643.93 -0.796354 4.17065 0
M  V30 27935 O 2644.95 -0.601474 3.51085 0
M  V30 27936 O 2643.81 -1.16953 5.33839 0
M  V30 27937 H 2640.9 -0.211544 0.799486 0
M  V30 27938 H 2643.45 0.329369 1.66473 0
M  V30 27939 H 2642.22 0.430841 3.88921 0
M  V30 27940 H 2641.85 -1.27963 3.76445 0
M  V30 27941 N 2642.84 -1.57597 0.0100627 0
M  V30 27942 C 2644.07 -1.95692 -0.686987 0
M  V30 27943 C 2644.49 -0.885548 -1.65951 0
M  V30 27944 O 2643.85 0.155398 -1.80633 0
M  V30 27945 C 2643.9 -3.32886 -1.38634 0
M  V30 27946 O 2643 -3.27901 -2.50109 0
M  V30 27947 H 2642.34 -0.638577 -0.181978 0
M  V30 27948 H 2644.87 -2.04493 0.0662482 0
M  V30 27949 H 2644.88 -3.68683 -1.74748 0
M  V30 27950 H 2643.56 -4.10413 -0.673339 0
M  V30 27951 H 2642.14 -3.03795 -2.16247 0
M  V30 27952 N 2644.32 0.262839 -1.55393 0
M  V30 27953 C 2645.74 0.610556 -1.4746 0
M  V30 27954 C 2645.94 1.89059 -0.697064 0
M  V30 27955 O 2644.99 2.5154 -0.219996 0
M  V30 27956 C 2646.31 0.728079 -2.91752 0
M  V30 27957 C 2647.85 0.821463 -3.02028 0
M  V30 27958 C 2648.33 0.970681 -4.47596 0
M  V30 27959 N 2649.82 1.03595 -4.51467 0
M  V30 27960 C 2650.55 1.17039 -5.61328 0
M  V30 27961 N 2650.05 1.27138 -6.81034 0
M  V30 27962 N 2651.84 1.20229 -5.49091 0
M  V30 27963 H 2643.99 -0.577668 -2.04394 0
M  V30 27964 H 2646.26 -0.197102 -0.927284 0
M  V30 27965 H 2645.96 -0.142193 -3.51412 0
M  V30 27966 H 2645.84 1.60514 -3.41343 0
M  V30 27967 H 2648.22 1.6822 -2.42458 0
M  V30 27968 H 2648.31 -0.0804137 -2.55674 0
M  V30 27969 H 2647.95 0.114566 -5.07771 0
M  V30 27970 H 2647.88 1.88736 -4.91616 0
M  V30 27971 H 2650.37 0.969896 -3.65242 0
M  V30 27972 H 2650.68 1.37258 -7.60513 0
M  V30 27973 H 2649.03 1.24124 -6.83826 0
M  V30 27974 H 2652.22 1.11977 -4.54509 0
M  V30 27975 H 2652.39 1.30362 -6.34752 0
M  V30 27976 N 2645.8 1.48499 0.527807 0
M  V30 27977 C 2647.21 1.5014 1.10972 0
M  V30 27978 C 2647.56 0.272412 1.943 0
M  V30 27979 O 2646.69 -0.620264 2.0732 0
M  V30 27980 C 2647.28 2.72053 2.01923 0
M  V30 27981 C 2645.84 2.76559 2.55328 0
M  V30 27982 C 2644.99 2.43685 1.32336 0
M  V30 27983 H 2647.94 1.55584 0.312958 0
M  V30 27984 H 2647.96 2.50694 2.86239 0
M  V30 27985 H 2647.47 3.61484 1.41248 0
M  V30 27986 H 2645.57 1.91341 3.19717 0
M  V30 27987 H 2645.68 3.78044 2.94313 0
M  V30 27988 H 2644.05 1.94887 1.63985 0
M  V30 27989 H 2644.83 3.35359 0.734106 0
M  V30 27990 N 2647.28 -0.776847 1.37123 0
M  V30 27991 C 2648.53 -1.53047 1.31375 0
M  V30 27992 C 2648.84 -1.95339 -0.100982 0
M  V30 27993 O 2650.05 -2.70043 -0.280905 0
M  V30 27994 C 2648.5 -2.76342 2.30572 0
M  V30 27995 C 2648.11 -2.41169 3.77547 0
M  V30 27996 C 2649.85 -3.54297 2.33824 0
M  V30 27997 C 2647.76 -3.60935 4.68487 0
M  V30 27998 H 2646.69 -0.574572 0.488244 0
M  V30 27999 H 2649.34 -0.851343 1.62556 0
M  V30 28000 H 2647.72 -3.46118 1.92402 0
M  V30 28001 H 2648.9 -1.79209 4.24524 0
M  V30 28002 H 2647.21 -1.76398 3.7719 0
M  V30 28003 H 2649.81 -4.43305 2.98973 0
M  V30 28004 H 2650.15 -3.9379 1.35037 0
M  V30 28005 H 2650.69 -2.91513 2.70675 0
M  V30 28006 H 2647.42 -3.26527 5.68384 0
M  V30 28007 H 2646.94 -4.22017 4.26218 0
M  V30 28008 H 2648.62 -4.2781 4.85373 0
M  V30 28009 N 2648.76 -1.2161 -1.00244 0
M  V30 28010 C 2649.72 -0.979169 -2.07232 0
M  V30 28011 C 2650.72 0.0507937 -1.6072 0
M  V30 28012 O 2651.91 -0.186743 -1.73196 0
M  V30 28013 C 2649.04 -0.477075 -3.37545 0
M  V30 28014 H 2650.23 -1.92835 -2.29684 0
M  V30 28015 H 2647.79 -1.03344 -1.17259 0
M  V30 28016 H 2648.52 0.476909 -3.20774 0
M  V30 28017 H 2648.31 -1.22003 -3.72636 0
M  V30 28018 H 2649.8 -0.331254 -4.16284 0
M  V30 28019 N 2650.23 1.19778 -1.02425 0
M  V30 28020 C 2651.16 2.25074 -0.621609 0
M  V30 28021 C 2652.14 1.66091 0.367119 0
M  V30 28022 O 2653.33 1.92573 0.250858 0
M  V30 28023 C 2650.46 3.47284 0.0331216 0
M  V30 28024 C 2649.41 4.1891 -0.877397 0
M  V30 28025 C 2648.74 5.34628 -0.0880236 0
M  V30 28026 C 2650.04 4.74215 -2.189 0
M  V30 28027 H 2651.73 2.59008 -1.50183 0
M  V30 28028 H 2649.28 1.24501 -0.723569 0
M  V30 28029 H 2651.23 4.20134 0.326414 0
M  V30 28030 H 2649.96 3.12536 0.948109 0
M  V30 28031 H 2648.62 3.47936 -1.15481 0
M  V30 28032 H 2648.26 4.96124 0.828854 0
M  V30 28033 H 2647.96 5.83482 -0.694461 0
M  V30 28034 H 2649.49 6.10277 0.198636 0
M  V30 28035 H 2650.9 5.38844 -1.95755 0
M  V30 28036 H 2649.3 5.33537 -2.74696 0
M  V30 28037 H 2650.37 3.92536 -2.84681 0
M  V30 28038 N 2651.71 0.801501 1.35697 0
M  V30 28039 C 2652.62 0.209732 2.33661 0
M  V30 28040 C 2653.64 -0.644562 1.61621 0
M  V30 28041 O 2654.81 -0.557511 1.9353 0
M  V30 28042 C 2651.88 -0.635973 3.40817 0
M  V30 28043 C 2650.94 0.238222 4.28639 0
M  V30 28044 C 2650.17 -0.567214 5.30677 0
M  V30 28045 O 2650.4 -1.8023 5.41178 0
M  V30 28046 O 2649.33 0.0392394 6.01887 0
M  V30 28047 H 2653.16 1.02001 2.86059 0
M  V30 28048 H 2650.74 0.563188 1.38378 0
M  V30 28049 H 2652.62 -1.11783 4.06303 0
M  V30 28050 H 2651.3 -1.42394 2.90699 0
M  V30 28051 H 2650.2 0.767109 3.66151 0
M  V30 28052 H 2651.54 0.99 4.82141 0
M  V30 28053 N 2653.19 -1.47521 0.554558 0
M  V30 28054 C 2654.47 -1.95567 -0.036036 0
M  V30 28055 C 2654.85 -1.49713 -1.48826 0
M  V30 28056 O 2654.19 -0.734755 -2.16365 0
M  V30 28057 C 2654.4 -3.48837 0.106692 0
M  V30 28058 C 2655.75 -4.24581 -0.0400153 0
M  V30 28059 O 2656.78 -3.56184 0.0341079 0
M  V30 28060 O 2655.64 -5.46138 -0.199015 0
M  V30 28061 H 2652.73 -0.824393 -0.0656149 0
M  V30 28062 H 2655.28 -1.57934 0.620894 0
M  V30 28063 H 2654.05 -3.75008 1.11734 0
M  V30 28064 H 2653.67 -3.93229 -0.587971 0
M  V30 28065 N 2654.67 -0.290879 -1.54892 0
M  V30 28066 C 2655.89 0.327084 -2.04805 0
M  V30 28067 C 2656.32 1.47504 -1.16723 0
M  V30 28068 O 2655.68 1.80509 -0.169139 0
M  V30 28069 C 2655.72 0.770627 -3.52269 0
M  V30 28070 O 2654.83 1.8764 -3.67239 0
M  V30 28071 H 2654.17 0.0652111 -0.66079 0
M  V30 28072 H 2656.7 -0.429774 -2.00035 0
M  V30 28073 H 2656.71 1.06216 -3.93932 0
M  V30 28074 H 2655.38 -0.0691691 -4.15842 0
M  V30 28075 H 2653.96 1.5862 -3.37482 0
M  V30 28076 N 2656.15 1.57589 -0.0184203 0
M  V30 28077 C 2657.39 1.91639 0.663509 0
M  V30 28078 C 2657.72 0.894164 1.7239 0
M  V30 28079 O 2657 -0.0846107 1.94316 0
M  V30 28080 C 2657.28 3.36209 1.28979 0
M  V30 28081 C 2657.14 4.49161 0.239683 0
M  V30 28082 C 2658.45 3.80539 2.21083 0
M  V30 28083 H 2655.57 0.696919 0.239734 0
M  V30 28084 H 2658.22 1.89858 -0.0734894 0
M  V30 28085 H 2656.37 3.37857 1.91793 0
M  V30 28086 H 2658.04 4.59647 -0.3902 0
M  V30 28087 H 2656.28 4.31603 -0.436048 0
M  V30 28088 H 2656.95 5.4732 0.717287 0
M  V30 28089 H 2659.43 3.8056 1.68267 0
M  V30 28090 H 2658.3 4.82411 2.61861 0
M  V30 28091 H 2658.56 3.15439 3.09759 0
M  V30 28092 N 2657.62 -0.254594 1.5553 0
M  V30 28093 C 2658.87 -0.983705 1.77001 0
M  V30 28094 C 2659.2 -1.85608 0.581363 0
M  V30 28095 O 2658.45 -1.90791 -0.435587 0
M  V30 28096 C 2658.75 -1.88103 3.03895 0
M  V30 28097 C 2658.42 -1.16465 4.35599 0
M  V30 28098 C 2657.08 -0.966631 4.71391 0
M  V30 28099 C 2659.43 -0.656296 5.17051 0
M  V30 28100 C 2656.76 -0.247839 5.86176 0
M  V30 28101 C 2659.11 0.0489919 6.32581 0
M  V30 28102 C 2657.78 0.258556 6.66999 0
M  V30 28103 H 2657.05 -0.359963 0.647694 0
M  V30 28104 H 2659.69 -0.25443 1.89802 0
M  V30 28105 H 2658 -2.67712 2.86073 0
M  V30 28106 H 2659.7 -2.44672 3.17705 0
M  V30 28107 H 2656.29 -1.32891 4.07477 0
M  V30 28108 H 2660.47 -0.796847 4.89861 0
M  V30 28109 H 2655.73 -0.0749276 6.11354 0
M  V30 28110 H 2659.9 0.450567 6.94941 0
M  V30 28111 H 2657.53 0.817491 7.55792 0
M  V30 28112 N 2659.1 -1.48777 -0.519925 0
M  V30 28113 C 2660.35 -1.56995 -1.27267 0
M  V30 28114 C 2660.67 -0.250074 -1.9339 0
M  V30 28115 O 2659.94 0.729184 -1.81823 0
M  V30 28116 H 2658.52 -0.578397 -0.472722 0
M  V30 28117 H 2661.18 -1.85298 -0.604201 0
M  V30 28118 H 2660.28 -2.35624 -2.04665 0
M  V30 28119 N 2660.58 0.769564 -1.37534 0
M  V30 28120 C 2661.83 1.52348 -1.32185 0
M  V30 28121 C 2662.14 1.9539 0.0906211 0
M  V30 28122 O 2663.35 2.70188 0.26658 0
M  V30 28123 C 2661.8 2.75115 -2.32034 0
M  V30 28124 C 2661.41 2.39163 -3.78821 0
M  V30 28125 C 2663.16 3.53052 -2.357 0
M  V30 28126 C 2661.06 3.58445 -4.70395 0
M  V30 28127 H 2659.99 0.571975 -0.491285 0
M  V30 28128 H 2662.64 0.842711 -1.63005 0
M  V30 28129 H 2661.03 3.45093 -1.94235 0
M  V30 28130 H 2662.2 1.76955 -4.25469 0
M  V30 28131 H 2660.51 1.74396 -3.78121 0
M  V30 28132 H 2663.11 4.41713 -3.0132 0
M  V30 28133 H 2663.45 3.93068 -1.37124 0
M  V30 28134 H 2663.99 2.90073 -2.72218 0
M  V30 28135 H 2660.73 3.23508 -5.70108 0
M  V30 28136 H 2660.25 4.19751 -4.2845 0
M  V30 28137 H 2661.93 4.2523 -4.87635 0
M  V30 28138 N 2662.06 1.22139 0.995977 0
M  V30 28139 C 2662.97 1.005 2.11983 0
M  V30 28140 C 2663.98 -0.0457395 1.7394 0
M  V30 28141 O 2665.16 0.146309 2.00868 0
M  V30 28142 C 2662.23 0.582146 3.41778 0
M  V30 28143 C 2661.29 1.70615 3.9394 0
M  V30 28144 C 2660.52 1.30337 5.1754 0
M  V30 28145 O 2660.74 0.180843 5.70113 0
M  V30 28146 O 2659.68 2.1187 5.63378 0
M  V30 28147 H 2663.5 1.94651 2.3312 0
M  V30 28148 H 2661.09 1.00707 1.10356 0
M  V30 28149 H 2662.97 0.356541 4.19889 0
M  V30 28150 H 2661.64 -0.330536 3.22008 0
M  V30 28151 H 2660.55 1.98625 3.17016 0
M  V30 28152 H 2661.88 2.59658 4.18137 0
M  V30 28153 N 2663.54 -1.19233 1.03059 0
M  V30 28154 C 2664.78 -1.88586 0.726614 0
M  V30 28155 C 2665.11 -1.80117 -0.747196 0
M  V30 28156 O 2664.38 -1.21277 -1.53847 0
M  V30 28157 H 2662.96 -0.698119 0.26578 0
M  V30 28158 H 2665.62 -1.44744 1.30519 0
M  V30 28159 H 2664.71 -2.94877 1.02245 0
M  V30 28160 N 2665.01 -0.808686 -1.3527 0
M  V30 28161 C 2665.94 -0.235022 -2.32314 0
M  V30 28162 C 2666.93 0.640682 -1.57573 0
M  V30 28163 O 2668.11 0.570518 -1.85631 0
M  V30 28164 C 2665.24 0.615541 -3.41802 0
M  V30 28165 C 2664.19 -0.161842 -4.27694 0
M  V30 28166 C 2663.52 0.810556 -5.28521 0
M  V30 28167 C 2664.82 -1.36202 -5.04229 0
M  V30 28168 H 2666.51 -1.0458 -2.80541 0
M  V30 28169 H 2664.06 -0.504339 -1.34879 0
M  V30 28170 H 2666.01 1.02695 -4.08695 0
M  V30 28171 H 2664.74 1.45923 -2.92189 0
M  V30 28172 H 2663.4 -0.554446 -3.62383 0
M  V30 28173 H 2663.04 1.6498 -4.75174 0
M  V30 28174 H 2662.74 0.294719 -5.8686 0
M  V30 28175 H 2664.27 1.22012 -5.98285 0
M  V30 28176 H 2665.68 -1.02538 -5.64056 0
M  V30 28177 H 2664.08 -1.81249 -5.72074 0
M  V30 28178 H 2665.15 -2.14759 -4.34749 0
M  V30 28179 N 2666.49 1.47225 -0.562374 0
M  V30 28180 C 2667.4 2.33866 0.185425 0
M  V30 28181 C 2668.42 1.4851 0.906687 0
M  V30 28182 O 2669.59 1.81427 0.874426 0
M  V30 28183 C 2666.66 3.25308 1.19899 0
M  V30 28184 C 2665.72 4.26556 0.484594 0
M  V30 28185 C 2664.95 5.13629 1.44987 0
M  V30 28186 O 2665.18 5.0325 2.68506 0
M  V30 28187 O 2664.11 5.94007 0.971538 0
M  V30 28188 H 2667.94 2.99121 -0.525413 0
M  V30 28189 H 2665.52 1.45868 -0.322942 0
M  V30 28190 H 2667.4 3.81778 1.78393 0
M  V30 28191 H 2666.08 2.62675 1.89165 0
M  V30 28192 H 2664.99 3.73832 -0.141671 0
M  V30 28193 H 2666.32 4.91918 -0.16672 0
M  V30 28194 N 2667.97 0.299089 1.54736 0
M  V30 28195 C 2668.93 -0.564973 2.22128 0
M  V30 28196 C 2669.93 -1.06278 1.20671 0
M  V30 28197 O 2671.12 -0.959119 1.45419 0
M  V30 28198 C 2668.26 -1.78203 2.90614 0
M  V30 28199 H 2669.45 0.0237975 2.99891 0
M  V30 28200 H 2667 0.0499063 1.5622 0
M  V30 28201 H 2667.74 -2.41068 2.16925 0
M  V30 28202 H 2667.52 -1.43274 3.64986 0
M  V30 28203 H 2669.01 -2.39594 3.4203 0
M  V30 28204 N 2669.45 -1.57577 0.0267774 0
M  V30 28205 C 2670.38 -2.1311 -0.95427 0
M  V30 28206 C 2671.36 -1.04665 -1.34086 0
M  V30 28207 O 2672.54 -1.32486 -1.4199 0
M  V30 28208 C 2669.67 -2.65628 -2.23739 0
M  V30 28209 C 2668.63 -3.78839 -1.99162 0
M  V30 28210 C 2667.95 -4.17775 -3.33719 0
M  V30 28211 C 2669.25 -5.05012 -1.33268 0
M  V30 28212 H 2670.95 -2.95333 -0.491796 0
M  V30 28213 H 2668.49 -1.42068 -0.235115 0
M  V30 28214 H 2670.45 -3.03111 -2.92748 0
M  V30 28215 H 2669.17 -1.80563 -2.72148 0
M  V30 28216 H 2667.83 -3.4179 -1.32571 0
M  V30 28217 H 2667.48 -3.29695 -3.79882 0
M  V30 28218 H 2667.18 -4.94063 -3.18081 0
M  V30 28219 H 2668.7 -4.57839 -4.03999 0
M  V30 28220 H 2670.12 -5.40096 -1.92273 0
M  V30 28221 H 2668.51 -5.86282 -1.28035 0
M  V30 28222 H 2669.58 -4.83938 -0.305326 0
M  V30 28223 N 2670.93 0.246342 -1.55663 0
M  V30 28224 C 2672.2 0.997169 -1.68273 0
M  V30 28225 C 2672.58 2.03348 -0.566821 0
M  V30 28226 O 2671.93 2.24424 0.429648 0
M  V30 28227 C 2672.14 1.63001 -3.08597 0
M  V30 28228 C 2673.49 2.13165 -3.67214 0
M  V30 28229 O 2674.51 1.7294 -3.114 0
M  V30 28230 O 2673.37 2.87023 -4.65059 0
M  V30 28231 H 2670.47 0.464193 -0.684437 0
M  V30 28232 H 2673.01 0.240085 -1.67993 0
M  V30 28233 H 2671.78 0.88046 -3.81266 0
M  V30 28234 H 2671.41 2.45328 -3.1289 0
M  V30 28235 N 2672.4 1.4905 0.512027 0
M  V30 28236 C 2673.33 1.67812 1.62362 0
M  V30 28237 C 2674.32 0.526837 1.61736 0
M  V30 28238 O 2675.5 0.761435 1.7865 0
M  V30 28239 C 2672.63 1.7344 3.00892 0
M  V30 28240 C 2671.58 2.88248 3.16382 0
M  V30 28241 C 2670.91 2.7898 4.56152 0
M  V30 28242 C 2672.21 4.29327 2.97449 0
M  V30 28243 H 2673.9 2.60875 1.46916 0
M  V30 28244 H 2671.45 1.25542 0.705357 0
M  V30 28245 H 2673.4 1.85152 3.78546 0
M  V30 28246 H 2672.13 0.769675 3.17401 0
M  V30 28247 H 2670.79 2.7612 2.4115 0
M  V30 28248 H 2670.43 1.80438 4.69522 0
M  V30 28249 H 2670.13 3.56029 4.67458 0
M  V30 28250 H 2671.66 2.92684 5.35881 0
M  V30 28251 H 2673.07 4.42193 3.64881 0
M  V30 28252 H 2671.47 5.07513 3.20236 0
M  V30 28253 H 2672.54 4.44539 1.93684 0
M  V30 28254 N 2673.88 -0.762259 1.3794 0
M  V30 28255 C 2674.83 -1.89719 1.34572 0
M  V30 28256 C 2675.82 -1.67791 0.232958 0
M  V30 28257 O 2677.03 -1.75465 0.401516 0
M  V30 28258 H 2673.41 -0.624047 0.419605 0
M  V30 28259 H 2675.38 -1.89675 2.3036 0
M  V30 28260 C 2674.13 -3.27099 1.17904 0
M  V30 28261 H 2673.45 -3.44554 2.02787 0
M  V30 28262 H 2674.89 -4.06782 1.196 0
M  V30 28263 C 2673.35 -3.36705 -0.114669 0
M  V30 28264 O 2673.88 -3.86492 -1.09484 0
M  V30 28265 N 2672.08 -2.90111 -0.168579 0
M  V30 28266 H 2671.63 -2.49785 0.629714 0
M  V30 28267 H 2671.59 -2.96918 -1.03378 0
M  V30 28268 N 2675.36 -1.22666 -0.989486 0
M  V30 28269 C 2676.59 -1.0797 -1.76494 0
M  V30 28270 C 2677 0.369511 -1.85149 0
M  V30 28271 O 2676.36 1.25594 -1.3241 0
M  V30 28272 C 2676.41 -1.68858 -3.19639 0
M  V30 28273 O 2676.13 -3.08111 -3.11447 0
M  V30 28274 C 2677.63 -1.59483 -4.13618 0
M  V30 28275 H 2674.85 -0.378328 -0.554174 0
M  V30 28276 H 2677.4 -1.6233 -1.24376 0
M  V30 28277 H 2675.55 -1.18553 -3.68814 0
M  V30 28278 H 2675.97 -3.37496 -4.01493 0
M  V30 28279 H 2677.44 -2.06804 -5.11797 0
M  V30 28280 H 2677.92 -0.551986 -4.35718 0
M  V30 28281 H 2678.52 -2.0911 -3.70342 0
M  V30 28282 N 2676.84 1.18685 -1.0369 0
M  V30 28283 C 2678.06 1.93058 -0.757853 0
M  V30 28284 C 2678.49 1.75443 0.678323 0
M  V30 28285 O 2677.85 1.06205 1.46936 0
M  V30 28286 C 2677.9 3.42625 -1.12429 0
M  V30 28287 O 2677 4.11656 -0.247578 0
M  V30 28288 H 2676.34 0.602422 -0.279256 0
M  V30 28289 H 2678.87 1.50528 -1.38573 0
M  V30 28290 H 2678.88 3.9332 -1.0846 0
M  V30 28291 H 2677.56 3.54767 -2.17056 0
M  V30 28292 H 2676.13 3.71286 -0.346555 0
M  V30 28293 N 2678.32 0.815849 1.34839 0
M  V30 28294 C 2679.28 0.238225 2.27959 0
M  V30 28295 C 2680.28 -0.579789 1.49984 0
M  V30 28296 O 2681.47 -0.396923 1.69618 0
M  V30 28297 C 2678.6 -0.666817 3.34315 0
M  V30 28298 H 2679.8 1.05963 2.80556 0
M  V30 28299 H 2677.35 0.587181 1.44851 0
M  V30 28300 H 2678.08 -1.51155 2.86919 0
M  V30 28301 H 2677.87 -0.0818416 3.92015 0
M  V30 28302 H 2679.36 -1.06499 4.03792 0
M  V30 28303 N 2679.8 -1.46924 0.570174 0
M  V30 28304 C 2681.04 -2.02036 0.0508878 0
M  V30 28305 C 2681.36 -1.4455 -1.30883 0
M  V30 28306 O 2680.63 -0.625486 -1.85646 0
M  V30 28307 H 2679.21 -0.746832 0.0158219 0
M  V30 28308 H 2681.88 -1.80177 0.743118 0
M  V30 28309 H 2680.97 -3.12088 -0.0275201 0
M  V30 28310 N 2681.27 -0.307291 -1.54575 0
M  V30 28311 C 2682.52 0.300132 -2.00263 0
M  V30 28312 C 2682.85 1.53411 -1.19564 0
M  V30 28313 O 2682.1 1.93945 -0.261521 0
M  V30 28314 C 2682.4 0.695191 -3.50574 0
M  V30 28315 C 2682.07 -0.437758 -4.4877 0
M  V30 28316 C 2680.73 -0.748765 -4.75339 0
M  V30 28317 C 2683.08 -1.19958 -5.07208 0
M  V30 28318 C 2680.41 -1.8246 -5.57607 0
M  V30 28319 C 2682.76 -2.26538 -5.90647 0
M  V30 28320 C 2681.43 -2.58238 -6.15524 0
M  V30 28321 H 2680.7 0.109826 -0.732816 0
M  V30 28322 H 2683.34 -0.427694 -1.86663 0
M  V30 28323 H 2681.65 1.5032 -3.61817 0
M  V30 28324 H 2683.35 1.17646 -3.83354 0
M  V30 28325 H 2679.94 -0.185262 -4.28199 0
M  V30 28326 H 2684.12 -0.97256 -4.86677 0
M  V30 28327 H 2679.38 -2.07486 -5.75117 0
M  V30 28328 H 2683.55 -2.86022 -6.34952 0
M  V30 28329 H 2681.18 -3.41732 -6.7906 0
M  V30 28330 N 2682.75 1.57561 -0.0351337 0
M  V30 28331 C 2684.16 1.79801 0.502853 0
M  V30 28332 C 2684.51 0.945951 1.7189 0
M  V30 28333 O 2683.64 0.158028 2.15822 0
M  V30 28334 C 2684.23 3.26097 0.91904 0
M  V30 28335 C 2682.79 3.49311 1.4021 0
M  V30 28336 C 2681.94 2.74825 0.369661 0
M  V30 28337 H 2684.89 1.56537 -0.26113 0
M  V30 28338 H 2684.91 3.36138 1.78302 0
M  V30 28339 H 2684.42 3.88085 0.0337844 0
M  V30 28340 H 2682.52 2.92582 2.30709 0
M  V30 28341 H 2682.64 4.58025 1.40533 0
M  V30 28342 H 2681 2.40482 0.839071 0
M  V30 28343 H 2681.78 3.39532 -0.507232 0
M  V30 28344 N 2684.23 -0.238084 1.55791 0
M  V30 28345 C 2685.46 -0.980777 1.81836 0
M  V30 28346 C 2685.87 -1.79104 0.609772 0
M  V30 28347 O 2685.21 -1.78571 -0.431041 0
M  V30 28348 C 2685.27 -1.96006 3.01367 0
M  V30 28349 C 2684.94 -1.33589 4.37039 0
M  V30 28350 C 2685.93 -0.733972 5.14693 0
M  V30 28351 C 2683.62 -1.35261 4.83746 0
M  V30 28352 C 2685.61 -0.157096 6.37206 0
M  V30 28353 C 2683.3 -0.771884 6.06206 0
M  V30 28354 C 2684.3 -0.175162 6.82775 0
M  V30 28355 O 2683.99 0.396573 8.02921 0
M  V30 28356 H 2683.72 -0.293823 0.608805 0
M  V30 28357 H 2686.27 -0.263516 2.03703 0
M  V30 28358 H 2684.5 -2.71586 2.75277 0
M  V30 28359 H 2686.19 -2.56692 3.14427 0
M  V30 28360 H 2686.96 -0.713498 4.79723 0
M  V30 28361 H 2682.84 -1.80646 4.24132 0
M  V30 28362 H 2686.38 0.309292 6.96914 0
M  V30 28363 H 2682.28 -0.789715 6.40651 0
M  V30 28364 H 2683.04 0.289289 8.17989 0
M  V30 28365 N 2685.71 -1.4932 -0.504115 0
M  V30 28366 C 2686.95 -1.58884 -1.2603 0
M  V30 28367 C 2687.29 -0.273307 -1.92267 0
M  V30 28368 O 2686.56 0.722878 -1.80568 0
M  V30 28369 C 2686.84 -2.74584 -2.32971 0
M  V30 28370 C 2686.7 -4.15923 -1.71255 0
M  V30 28371 C 2688.02 -2.85938 -3.34556 0
M  V30 28372 H 2685.14 -0.57832 -0.456853 0
M  V30 28373 H 2687.78 -1.81593 -0.558933 0
M  V30 28374 H 2685.93 -2.55353 -2.92792 0
M  V30 28375 H 2687.6 -4.46662 -1.15286 0
M  V30 28376 H 2685.84 -4.21715 -1.01679 0
M  V30 28377 H 2686.51 -4.92746 -2.48808 0
M  V30 28378 H 2688.99 -3.03435 -2.84722 0
M  V30 28379 H 2687.87 -3.68575 -4.06748 0
M  V30 28380 H 2688.13 -1.95161 -3.96692 0
M  V30 28381 N 2687.19 0.754933 -1.38342 0
M  V30 28382 C 2688.41 1.54416 -1.37707 0
M  V30 28383 C 2688.83 1.8877 0.0334911 0
M  V30 28384 O 2688.19 1.5268 0.999747 0
M  V30 28385 C 2688.24 2.84412 -2.23141 0
M  V30 28386 O 2687.96 2.51525 -3.58702 0
M  V30 28387 C 2689.46 3.78558 -2.30671 0
M  V30 28388 H 2686.68 0.477843 -0.47107 0
M  V30 28389 H 2689.22 0.934414 -1.81904 0
M  V30 28390 H 2687.38 3.41768 -1.82409 0
M  V30 28391 H 2687.79 3.34889 -4.0367 0
M  V30 28392 H 2689.27 4.66726 -2.94738 0
M  V30 28393 H 2689.74 4.18895 -1.31998 0
M  V30 28394 H 2690.35 3.27127 -2.71787 0
M  V30 28395 N 2688.66 1.23189 0.982967 0
M  V30 28396 C 2689.6 0.954029 2.07301 0
M  V30 28397 C 2690.57 -0.106725 1.62249 0
M  V30 28398 O 2691.76 0.0269856 1.88481 0
M  V30 28399 C 2688.89 0.436775 3.35872 0
M  V30 28400 C 2687.93 1.48374 3.99859 0
M  V30 28401 S 2688.76 3.06031 4.39437 0
M  V30 28402 C 2689.92 2.55969 5.71166 0
M  V30 28403 H 2690.15 1.87706 2.30551 0
M  V30 28404 H 2687.69 1.06405 1.11881 0
M  V30 28405 H 2689.64 0.144944 4.10244 0
M  V30 28406 H 2688.31 -0.465296 3.10635 0
M  V30 28407 H 2687.5 1.07191 4.92469 0
M  V30 28408 H 2687.1 1.72479 3.31854 0
M  V30 28409 H 2689.39 1.97829 6.47974 0
M  V30 28410 H 2690.34 3.47109 6.17188 0
M  V30 28411 H 2690.74 1.96911 5.29043 0
M  V30 28412 N 2690.14 -1.18133 1.04318 0
M  V30 28413 C 2691.39 -1.87805 0.746575 0
M  V30 28414 C 2691.71 -1.80899 -0.72805 0
M  V30 28415 O 2690.98 -1.22901 -1.52552 0
M  V30 28416 H 2689.56 -0.695261 0.27317 0
M  V30 28417 H 2692.22 -1.43351 1.32047 0
M  V30 28418 H 2691.32 -2.93776 1.05367 0
M  V30 28419 N 2691.62 -0.822988 -1.34405 0
M  V30 28420 C 2692.87 -0.407492 -1.97541 0
M  V30 28421 C 2693.18 1.03497 -1.65975 0
M  V30 28422 O 2694.39 1.55438 -2.22601 0
M  V30 28423 C 2692.84 -0.677685 -3.53462 0
M  V30 28424 C 2692.45 -2.13377 -3.93921 0
M  V30 28425 C 2694.2 -0.328358 -4.23228 0
M  V30 28426 C 2692.1 -2.34885 -5.42755 0
M  V30 28427 H 2691.03 -0.148636 -0.739205 0
M  V30 28428 H 2693.68 -1.00935 -1.53246 0
M  V30 28429 H 2692.07 -0.00565926 -3.96 0
M  V30 28430 H 2693.24 -2.84496 -3.62489 0
M  V30 28431 H 2691.56 -2.44454 -3.37092 0
M  V30 28432 H 2694.15 -0.466888 -5.32658 0
M  V30 28433 H 2694.5 0.727152 -4.099 0
M  V30 28434 H 2695.03 -0.954964 -3.86167 0
M  V30 28435 H 2691.77 -3.38942 -5.61069 0
M  V30 28436 H 2691.29 -1.6831 -5.75701 0
M  V30 28437 H 2692.97 -2.17247 -6.09436 0
M  V30 28438 N 2693.1 1.4662 -0.577957 0
M  V30 28439 C 2694.05 2.30258 0.158008 0
M  V30 28440 C 2695.02 1.40329 0.888645 0
M  V30 28441 O 2696.2 1.69281 0.880253 0
M  V30 28442 C 2693.34 3.24705 1.16879 0
M  V30 28443 C 2692.45 4.29732 0.442088 0
M  V30 28444 C 2691.59 5.1131 1.43998 0
M  V30 28445 C 2690.63 6.08091 0.699413 0
M  V30 28446 N 2689.76 6.82554 1.64513 0
M  V30 28447 H 2694.6 2.92666 -0.561294 0
M  V30 28448 H 2692.14 1.44241 -0.288616 0
M  V30 28449 H 2694.1 3.77903 1.76763 0
M  V30 28450 H 2692.73 2.64117 1.85586 0
M  V30 28451 H 2691.78 3.79428 -0.271699 0
M  V30 28452 H 2693.09 4.98612 -0.13708 0
M  V30 28453 H 2692.25 5.68762 2.11176 0
M  V30 28454 H 2690.99 4.4238 2.05307 0
M  V30 28455 H 2689.99 5.49798 0.0138251 0
M  V30 28456 H 2691.22 6.79038 0.0917746 0
M  V30 28457 H 2689.16 6.16338 2.24642 0
M  V30 28458 H 2689.08 7.47678 1.11865 0
M  V30 28459 H 2690.35 7.44566 2.30741 0
M  V30 28460 N 2694.58 0.315484 1.5441 0
M  V30 28461 C 2695.52 -0.554127 2.24049 0
M  V30 28462 C 2696.49 -1.1181 1.22832 0
M  V30 28463 O 2697.68 -1.15994 1.51493 0
M  V30 28464 C 2694.82 -1.71311 2.99577 0
M  V30 28465 C 2693.93 -1.17914 4.15596 0
M  V30 28466 C 2693.07 -2.30316 4.78673 0
M  V30 28467 C 2692.11 -1.74127 5.8681 0
M  V30 28468 N 2691.24 -2.80159 6.43782 0
M  V30 28469 H 2696.08 0.0463126 2.97964 0
M  V30 28470 H 2693.62 0.0346267 1.47059 0
M  V30 28471 H 2695.58 -2.39499 3.41608 0
M  V30 28472 H 2694.21 -2.28496 2.28012 0
M  V30 28473 H 2693.26 -0.38907 3.78405 0
M  V30 28474 H 2694.57 -0.727925 4.9346 0
M  V30 28475 H 2693.73 -3.06423 5.23631 0
M  V30 28476 H 2692.46 -2.78771 4.00173 0
M  V30 28477 H 2691.47 -0.96514 5.41262 0
M  V30 28478 H 2692.69 -1.26559 6.67203 0
M  V30 28479 H 2690.64 -3.2792 5.68159 0
M  V30 28480 H 2690.56 -2.39576 7.17035 0
M  V30 28481 H 2691.83 -3.5612 6.93397 0
M  V30 28482 N 2696.05 -1.5754 0.0434891 0
M  V30 28483 C 2697.47 -1.565 -0.313011 0
M  V30 28484 C 2697.67 -1.05046 -1.71953 0
M  V30 28485 O 2696.73 -0.703606 -2.42499 0
M  V30 28486 C 2698.04 -3.00333 -0.148491 0
M  V30 28487 C 2699.59 -3.12225 -0.220176 0
M  V30 28488 C 2700.06 -4.57922 -0.084276 0
M  V30 28489 N 2701.55 -4.62986 -0.1408 0
M  V30 28490 C 2702.29 -5.73369 -0.0596435 0
M  V30 28491 N 2701.78 -6.92761 0.0734222 0
M  V30 28492 N 2703.58 -5.61983 -0.114671 0
M  V30 28493 H 2695.73 -1.89312 0.963063 0
M  V30 28494 H 2697.99 -0.871459 0.37318 0
M  V30 28495 H 2697.7 -3.41984 0.820954 0
M  V30 28496 H 2697.57 -3.6599 -0.912734 0
M  V30 28497 H 2699.96 -2.70477 -1.18009 0
M  V30 28498 H 2700.04 -2.49261 0.57469 0
M  V30 28499 H 2699.68 -5.00354 0.87228 0
M  V30 28500 H 2699.61 -5.18884 -0.898189 0
M  V30 28501 H 2702.1 -3.77117 -0.243207 0
M  V30 28502 H 2702.42 -7.72694 0.128264 0
M  V30 28503 H 2700.76 -6.94915 0.108402 0
M  V30 28504 H 2703.95 -4.67596 -0.217129 0
M  V30 28505 H 2704.13 -6.47982 -0.047964 0
M  V30 28506 N 2697.53 0.229818 -1.55915 0
M  V30 28507 C 2698.81 0.979265 -1.69321 0
M  V30 28508 C 2699.19 2.02735 -0.588357 0
M  V30 28509 O 2698.54 2.24867 0.405821 0
M  V30 28510 C 2698.75 1.59718 -3.10308 0
M  V30 28511 C 2700.1 2.09258 -3.69454 0
M  V30 28512 O 2701.12 1.69628 -3.13217 0
M  V30 28513 O 2699.98 2.82074 -4.68077 0
M  V30 28514 H 2697.07 0.456907 -0.689322 0
M  V30 28515 H 2699.62 0.222253 -1.68238 0
M  V30 28516 H 2698.39 0.839972 -3.82178 0
M  V30 28517 H 2698.01 2.41995 -3.15474 0
M  V30 28518 N 2699.01 1.49585 0.49619 0
M  V30 28519 C 2699.94 1.69524 1.60573 0
M  V30 28520 C 2700.92 0.543962 1.61168 0
M  V30 28521 O 2702.11 0.780341 1.77832 0
M  V30 28522 C 2699.24 1.76622 2.99035 0
M  V30 28523 C 2698.19 2.91587 3.13307 0
M  V30 28524 C 2697.52 2.83802 4.53167 0
M  V30 28525 C 2698.82 4.32457 2.92879 0
M  V30 28526 H 2700.51 2.62419 1.44141 0
M  V30 28527 H 2698.06 1.26283 0.692001 0
M  V30 28528 H 2700.01 1.89156 3.76561 0
M  V30 28529 H 2698.73 0.803296 3.16567 0
M  V30 28530 H 2697.39 2.78662 2.38208 0
M  V30 28531 H 2697.04 1.85408 4.67582 0
M  V30 28532 H 2696.74 3.60967 4.63656 0
M  V30 28533 H 2698.26 2.98351 5.32747 0
M  V30 28534 H 2699.68 4.46039 3.6017 0
M  V30 28535 H 2698.08 5.10881 3.14835 0
M  V30 28536 H 2699.15 4.46568 1.88958 0
M  V30 28537 N 2700.49 -0.747586 1.3874 0
M  V30 28538 C 2701.74 -1.50226 1.34592 0
M  V30 28539 C 2702.05 -1.95509 -0.0595248 0
M  V30 28540 O 2703.26 -2.70578 -0.223562 0
M  V30 28541 C 2701.71 -2.71389 2.36381 0
M  V30 28542 C 2701.32 -2.33106 3.82577 0
M  V30 28543 C 2703.06 -3.49258 2.41287 0
M  V30 28544 C 2700.97 -3.50916 4.76038 0
M  V30 28545 H 2699.9 -0.564087 0.500322 0
M  V30 28546 H 2702.55 -0.816671 1.64325 0
M  V30 28547 H 2700.93 -3.41959 1.997 0
M  V30 28548 H 2702.11 -1.70164 4.2823 0
M  V30 28549 H 2700.42 -1.68358 3.80847 0
M  V30 28550 H 2703.02 -4.36863 3.08309 0
M  V30 28551 H 2703.36 -3.90837 1.4336 0
M  V30 28552 H 2703.9 -2.85706 2.76798 0
M  V30 28553 H 2700.64 -3.14397 5.75182 0
M  V30 28554 H 2700.16 -4.12881 4.35073 0
M  V30 28555 H 2701.83 -4.17419 4.94339 0
M  V30 28556 N 2701.97 -1.23709 -0.97642 0
M  V30 28557 C 2702.91 -1.0193 -2.09076 0
M  V30 28558 C 2703.91 0.0429896 -1.69345 0
M  V30 28559 O 2705.11 -0.110845 -1.79658 0
M  V30 28560 H 2701.49 -0.312543 -0.683974 0
M  V30 28561 H 2703.46 -1.96451 -2.2461 0
M  V30 28562 C 2702.21 -0.631445 -3.41918 0
M  V30 28563 H 2701.53 -1.44059 -3.72944 0
M  V30 28564 H 2702.97 -0.518606 -4.20816 0
M  V30 28565 C 2701.43 0.660665 -3.30359 0
M  V30 28566 O 2701.96 1.70875 -3.63545 0
M  V30 28567 N 2700.17 0.638089 -2.83508 0
M  V30 28568 H 2699.71 -0.215153 -2.567 0
M  V30 28569 H 2699.67 1.50284 -2.76156 0
M  V30 28570 N 2703.44 1.17579 -1.04943 0
M  V30 28571 C 2704.39 2.23562 -0.642079 0
M  V30 28572 C 2705.39 1.66046 0.335423 0
M  V30 28573 O 2706.59 1.78866 0.201758 0
M  V30 28574 H 2702.97 0.727744 -0.189453 0
M  V30 28575 H 2704.94 2.5522 -1.54613 0
M  V30 28576 C 2703.69 3.47687 -0.0301662 0
M  V30 28577 H 2703.01 3.92248 -0.773408 0
M  V30 28578 H 2704.45 4.23442 0.217518 0
M  V30 28579 C 2702.91 3.1394 1.22244 0
M  V30 28580 O 2703.44 3.28486 2.31214 0
M  V30 28581 N 2701.65 2.68187 1.11912 0
M  V30 28582 H 2701.19 2.5655 0.232358 0
M  V30 28583 H 2701.15 2.45979 1.9581 0
M  V30 28584 N 2704.92 0.830104 1.33967 0
M  V30 28585 C 2705.87 0.255048 2.29386 0
M  V30 28586 C 2706.84 -0.624216 1.53925 0
M  V30 28587 O 2708.02 -0.56434 1.82263 0
M  V30 28588 C 2705.16 -0.57115 3.40341 0
M  V30 28589 C 2704.28 0.331159 4.30729 0
M  V30 28590 C 2703.41 -0.505296 5.28791 0
M  V30 28591 C 2702.45 0.39595 6.10818 0
M  V30 28592 N 2701.59 -0.401856 7.00949 0
M  V30 28593 H 2706.43 1.07409 2.7797 0
M  V30 28594 H 2703.97 0.541157 1.36784 0
M  V30 28595 H 2705.92 -1.06555 4.03363 0
M  V30 28596 H 2704.55 -1.35524 2.92973 0
M  V30 28597 H 2703.61 0.943824 3.68505 0
M  V30 28598 H 2704.92 1.02385 4.88179 0
M  V30 28599 H 2704.07 -1.06389 5.97299 0
M  V30 28600 H 2702.81 -1.23146 4.71896 0
M  V30 28601 H 2701.82 0.966624 5.41236 0
M  V30 28602 H 2703.04 1.12034 6.69795 0
M  V30 28603 H 2700.99 -1.11157 6.46514 0
M  V30 28604 H 2700.9 0.2323 7.55643 0
M  V30 28605 H 2702.17 -0.942966 7.73775 0
M  V30 28606 N 2706.4 -1.46311 0.585725 0
M  V30 28607 C 2707.63 -2.06752 0.0781662 0
M  V30 28608 C 2708.04 -1.43399 -1.2281 0
M  V30 28609 O 2707.4 -0.540344 -1.74317 0
M  V30 28610 C 2707.45 -3.61385 -0.0911292 0
M  V30 28611 O 2707.17 -4.22369 1.16344 0
M  V30 28612 C 2708.67 -4.38762 -0.632688 0
M  V30 28613 H 2705.89 -0.668416 0.0588306 0
M  V30 28614 H 2708.44 -1.87893 0.807251 0
M  V30 28615 H 2706.59 -3.79662 -0.770447 0
M  V30 28616 H 2707.01 -5.15279 0.979173 0
M  V30 28617 H 2708.48 -5.4754 -0.700314 0
M  V30 28618 H 2708.96 -4.07015 -1.65032 0
M  V30 28619 H 2709.56 -4.25298 0.0118603 0
M  V30 28620 N 2707.88 -0.323668 -1.54241 0
M  V30 28621 C 2708.83 0.542237 -2.2434 0
M  V30 28622 C 2709.8 1.11157 -1.23423 0
M  V30 28623 O 2710.98 1.15189 -1.52106 0
M  V30 28624 C 2708.12 1.6972 -3.00482 0
M  V30 28625 C 2707.23 1.15709 -4.16216 0
M  V30 28626 C 2706.37 2.27774 -4.79888 0
M  V30 28627 C 2705.41 1.71012 -5.87725 0
M  V30 28628 N 2704.55 2.76741 -6.45259 0
M  V30 28629 H 2709.39 -0.0621137 -2.97935 0
M  V30 28630 H 2706.92 -0.0424252 -1.47039 0
M  V30 28631 H 2708.88 2.37684 -3.42874 0
M  V30 28632 H 2707.51 2.27283 -2.29221 0
M  V30 28633 H 2706.56 0.368996 -3.78606 0
M  V30 28634 H 2707.87 0.701745 -4.93839 0
M  V30 28635 H 2707.03 3.03642 -5.25249 0
M  V30 28636 H 2705.77 2.76645 -4.01645 0
M  V30 28637 H 2704.77 0.936422 -5.41767 0
M  V30 28638 H 2706 1.23018 -6.67865 0
M  V30 28639 H 2703.94 3.24902 -5.6989 0
M  V30 28640 H 2703.86 2.3577 -7.18296 0
M  V30 28641 H 2705.13 3.52437 -6.95276 0
M  V30 28642 N 2709.36 1.57515 -0.0518432 0
M  V30 28643 C 2710.63 1.84068 0.661694 0
M  V30 28644 C 2711.01 0.940384 1.88997 0
M  V30 28645 O 2710.36 0.0015942 2.285 0
M  V30 28646 C 2710.57 3.33812 1.01835 0
M  V30 28647 C 2711.92 4.00843 1.40036 0
M  V30 28648 O 2712.94 3.38441 1.11067 0
M  V30 28649 O 2711.8 5.10869 1.94102 0
M  V30 28650 H 2708.9 0.759739 0.326688 0
M  V30 28651 H 2711.44 1.69505 -0.0812575 0
M  V30 28652 H 2710.22 3.91031 0.145134 0
M  V30 28653 H 2709.84 3.53565 1.81873 0
M  V30 28654 N 2710.84 -0.221546 1.56035 0
M  V30 28655 C 2712.08 -0.943985 1.78247 0
M  V30 28656 C 2712.4 -1.855 0.620403 0
M  V30 28657 O 2713.6 -2.61609 0.726149 0
M  V30 28658 C 2712.06 -1.72874 3.15662 0
M  V30 28659 C 2711.67 -0.863865 4.39592 0
M  V30 28660 C 2713.41 -2.4424 3.47199 0
M  V30 28661 C 2711.32 -1.64597 5.68033 0
M  V30 28662 H 2710.25 -0.35621 0.664553 0
M  V30 28663 H 2712.9 -0.197872 1.8243 0
M  V30 28664 H 2711.28 -2.51776 3.05655 0
M  V30 28665 H 2712.46 -0.115383 4.60656 0
M  V30 28666 H 2710.77 -0.262334 4.15573 0
M  V30 28667 H 2713.37 -3.03256 4.40386 0
M  V30 28668 H 2713.71 -3.17125 2.69698 0
M  V30 28669 H 2714.24 -1.72328 3.58536 0
M  V30 28670 H 2710.98 -0.960393 6.48426 0
M  V30 28671 H 2710.5 -2.36907 5.51031 0
M  V30 28672 H 2712.18 -2.20665 6.08207 0
M  V30 28673 N 2712.31 -1.49846 -0.48825 0
M  V30 28674 C 2713.54 -1.63973 -1.26994 0
M  V30 28675 C 2713.96 -0.316026 -1.85426 0
M  V30 28676 O 2713.32 0.718003 -1.66476 0
M  V30 28677 C 2713.37 -2.72053 -2.36684 0
M  V30 28678 O 2712.47 -2.32113 -3.40877 0
M  V30 28679 H 2711.81 -0.548403 -0.374367 0
M  V30 28680 H 2714.34 -1.96116 -0.58307 0
M  V30 28681 H 2714.35 -2.9461 -2.82257 0
M  V30 28682 H 2713.03 -3.68133 -1.93523 0
M  V30 28683 H 2711.61 -2.19936 -3.01135 0
M  V30 28684 N 2713.79 0.740218 -1.39135 0
M  V30 28685 C 2715.21 1.04507 -1.20625 0
M  V30 28686 C 2715.41 2.01398 -0.0642005 0
M  V30 28687 O 2714.46 2.45611 0.5858 0
M  V30 28688 C 2715.78 1.61236 -2.53818 0
M  V30 28689 C 2717.32 1.73342 -2.60618 0
M  V30 28690 C 2717.8 2.33479 -3.94019 0
M  V30 28691 N 2719.29 2.40895 -3.95631 0
M  V30 28692 C 2720.03 2.88352 -4.95621 0
M  V30 28693 N 2719.52 3.35745 -6.06009 0
M  V30 28694 N 2721.31 2.87514 -4.83003 0
M  V30 28695 H 2713.47 0.0975203 -2.12176 0
M  V30 28696 H 2715.73 0.105888 -0.942068 0
M  V30 28697 H 2715.43 0.975085 -3.37913 0
M  V30 28698 H 2715.31 2.60115 -2.73166 0
M  V30 28699 H 2717.7 2.36192 -1.7691 0
M  V30 28700 H 2717.78 0.731293 -2.45124 0
M  V30 28701 H 2717.42 1.71258 -4.78156 0
M  V30 28702 H 2717.35 3.34359 -4.06831 0
M  V30 28703 H 2719.84 2.07392 -3.15907 0
M  V30 28704 H 2720.15 3.70452 -6.78222 0
M  V30 28705 H 2718.5 3.33768 -6.0961 0
M  V30 28706 H 2721.69 2.49809 -3.9587 0
M  V30 28707 H 2721.86 3.24186 -5.61077 0
M  V30 28708 N 2715.27 1.24225 0.969846 0
M  V30 28709 C 2716.2 1.05733 2.08189 0
M  V30 28710 C 2717.18 -0.0290466 1.70075 0
M  V30 28711 O 2718.37 0.137617 1.93712 0
M  V30 28712 C 2715.5 0.659055 3.40989 0
M  V30 28713 C 2714.45 1.69396 3.93051 0
M  V30 28714 C 2713.78 1.15081 5.22169 0
M  V30 28715 C 2715.08 3.08943 4.21132 0
M  V30 28716 H 2716.77 1.9875 2.23917 0
M  V30 28717 H 2714.32 0.956986 1.076 0
M  V30 28718 H 2716.27 0.516694 4.1822 0
M  V30 28719 H 2714.99 -0.306802 3.25156 0
M  V30 28720 H 2713.65 1.8245 3.17974 0
M  V30 28721 H 2713.3 0.175627 5.02693 0
M  V30 28722 H 2713 1.84238 5.57969 0
M  V30 28723 H 2714.52 1.02053 6.02011 0
M  V30 28724 H 2715.94 2.9913 4.89075 0
M  V30 28725 H 2714.33 3.75433 4.68156 0
M  V30 28726 H 2715.4 3.57142 3.2799 0
M  V30 28727 N 2716.75 -1.1702 1.05565 0
M  V30 28728 C 2717.69 -2.21164 0.659932 0
M  V30 28729 C 2718.66 -1.62587 -0.339785 0
M  V30 28730 O 2719.85 -1.89404 -0.230344 0
M  V30 28731 C 2716.99 -3.45071 0.0447904 0
M  V30 28732 C 2716.1 -4.17924 1.09379 0
M  V30 28733 C 2715.24 -5.29328 0.445574 0
M  V30 28734 C 2714.28 -5.93972 1.47863 0
M  V30 28735 N 2713.41 -6.96883 0.854295 0
M  V30 28736 H 2718.25 -2.54367 1.55247 0
M  V30 28737 H 2715.79 -1.24944 0.776358 0
M  V30 28738 H 2717.75 -4.15898 -0.329331 0
M  V30 28739 H 2716.38 -3.12441 -0.811189 0
M  V30 28740 H 2715.43 -3.45774 1.58571 0
M  V30 28741 H 2716.74 -4.62103 1.87782 0
M  V30 28742 H 2715.9 -6.06697 0.0180755 0
M  V30 28743 H 2714.64 -4.86291 -0.370396 0
M  V30 28744 H 2713.64 -5.15331 1.9161 0
M  V30 28745 H 2714.87 -6.39089 2.29656 0
M  V30 28746 H 2712.81 -6.55974 0.0589035 0
M  V30 28747 H 2712.73 -7.39395 1.5758 0
M  V30 28748 H 2714 -7.7819 0.451696 0
M  V30 28749 N 2718.23 -0.837197 -1.33524 0
M  V30 28750 C 2719.14 -0.271609 -2.33022 0
M  V30 28751 C 2720.15 0.601485 -1.63273 0
M  V30 28752 O 2721.33 0.506004 -1.9494 0
M  V30 28753 C 2718.39 0.545388 -3.42383 0
M  V30 28754 C 2717.45 -0.351784 -4.27856 0
M  V30 28755 C 2716.69 0.426315 -5.31995 0
M  V30 28756 O 2716.91 1.65819 -5.45766 0
M  V30 28757 O 2715.84 -0.198805 -6.01572 0
M  V30 28758 H 2719.67 -1.09549 -2.83254 0
M  V30 28759 H 2717.25 -0.599679 -1.36836 0
M  V30 28760 H 2719.14 1.00972 -4.09124 0
M  V30 28761 H 2717.81 1.34636 -2.94372 0
M  V30 28762 H 2716.72 -0.863917 -3.63988 0
M  V30 28763 H 2718.05 -1.11748 -4.79347 0
M  V30 28764 N 2719.7 1.45999 -0.593476 0
M  V30 28765 C 2720.67 2.28867 0.123497 0
M  V30 28766 C 2721.67 1.3899 0.808604 0
M  V30 28767 O 2722.86 1.61257 0.658916 0
M  V30 28768 C 2719.99 3.19655 1.18464 0
M  V30 28769 H 2721.18 2.93736 -0.604894 0
M  V30 28770 H 2718.73 1.52287 -0.351902 0
M  V30 28771 H 2719.47 2.59555 1.94426 0
M  V30 28772 H 2719.25 3.85842 0.697762 0
M  V30 28773 H 2720.74 3.82 1.68719 0
M  V30 28774 N 2721.18 0.331843 1.54067 0
M  V30 28775 C 2722.11 -0.522892 2.2757 0
M  V30 28776 C 2723.09 -1.11244 1.28681 0
M  V30 28777 O 2724.28 -1.13603 1.57506 0
M  V30 28778 C 2721.41 -1.67981 3.03973 0
M  V30 28779 C 2720.36 -1.21917 4.10269 0
M  V30 28780 C 2719.69 -2.46369 4.74559 0
M  V30 28781 C 2720.99 -0.328058 5.21269 0
M  V30 28782 H 2722.68 0.0902503 2.99264 0
M  V30 28783 H 2720.23 0.0448463 1.4393 0
M  V30 28784 H 2722.18 -2.28412 3.54127 0
M  V30 28785 H 2720.91 -2.31967 2.2991 0
M  V30 28786 H 2719.56 -0.637745 3.6101 0
M  V30 28787 H 2719.21 -3.08736 3.97103 0
M  V30 28788 H 2718.91 -2.16234 5.46367 0
M  V30 28789 H 2720.44 -3.07546 5.27492 0
M  V30 28790 H 2721.85 -0.838878 5.67129 0
M  V30 28791 H 2720.25 -0.119122 5.99982 0
M  V30 28792 H 2721.32 0.638924 4.80672 0
M  V30 28793 N 2722.66 -1.57485 0.0601958 0
M  V30 28794 C 2723.94 -1.84416 -0.651923 0
M  V30 28795 C 2724.32 -0.950394 -1.88496 0
M  V30 28796 O 2723.67 -0.0137121 -2.28496 0
M  V30 28797 C 2723.88 -3.34348 -1.00063 0
M  V30 28798 C 2725.22 -4.0158 -1.37908 0
M  V30 28799 O 2726.25 -3.39026 -1.09271 0
M  V30 28800 O 2725.11 -5.11891 -1.9139 0
M  V30 28801 H 2722.2 -0.761461 -0.322655 0
M  V30 28802 H 2724.75 -1.6946 0.0902457 0
M  V30 28803 H 2723.52 -3.91102 -0.124394 0
M  V30 28804 H 2723.14 -3.54524 -1.79995 0
M  V30 28805 N 2724.14 0.213268 -1.5615 0
M  V30 28806 C 2725.09 1.26434 -1.93089 0
M  V30 28807 C 2726.06 1.46158 -0.789111 0
M  V30 28808 O 2727.24 1.59591 -1.04572 0
M  V30 28809 C 2724.38 2.60796 -2.26008 0
M  V30 28810 C 2723.49 2.48801 -3.5316 0
M  V30 28811 C 2722.63 3.75743 -3.75487 0
M  V30 28812 C 2721.67 3.58505 -4.96126 0
M  V30 28813 N 2720.8 4.77416 -5.14799 0
M  V30 28814 H 2725.64 0.942326 -2.82709 0
M  V30 28815 H 2723.18 0.453976 -1.3992 0
M  V30 28816 H 2725.14 3.39051 -2.43106 0
M  V30 28817 H 2723.77 2.91076 -1.39551 0
M  V30 28818 H 2722.82 1.61938 -3.4421 0
M  V30 28819 H 2724.13 2.31988 -4.41569 0
M  V30 28820 H 2723.29 4.6244 -3.92726 0
M  V30 28821 H 2722.03 3.9549 -2.85375 0
M  V30 28822 H 2721.03 2.70192 -4.78828 0
M  V30 28823 H 2722.26 3.4022 -5.8773 0
M  V30 28824 H 2720.2 4.97461 -4.27631 0
M  V30 28825 H 2720.12 4.6336 -5.97355 0
M  V30 28826 H 2721.39 5.65516 -5.36481 0
M  V30 28827 N 2725.62 1.50103 0.480296 0
M  V30 28828 C 2726.85 1.64135 1.25472 0
M  V30 28829 C 2727.25 0.320305 1.86469 0
M  V30 28830 O 2726.6 -0.7067 1.69562 0
M  V30 28831 C 2726.66 2.66765 2.40991 0
M  V30 28832 C 2726.32 4.10569 2.00704 0
M  V30 28833 C 2727.32 4.96728 1.53483 0
M  V30 28834 C 2725.01 4.5643 2.09706 0
M  V30 28835 C 2727 6.26794 1.15795 0
M  V30 28836 C 2724.69 5.86504 1.71629 0
M  V30 28837 C 2725.68 6.7151 1.24751 0
M  V30 28838 O 2725.37 7.99157 0.871981 0
M  V30 28839 H 2725.1 0.554978 0.385973 0
M  V30 28840 H 2727.66 1.97017 0.580813 0
M  V30 28841 H 2725.89 2.29106 3.11524 0
M  V30 28842 H 2727.58 2.70111 3.02976 0
M  V30 28843 H 2728.34 4.62516 1.45958 0
M  V30 28844 H 2724.22 3.90417 2.45143 0
M  V30 28845 H 2727.77 6.93097 0.791344 0
M  V30 28846 H 2723.66 6.20239 1.78811 0
M  V30 28847 H 2724.43 8.12348 1.00164 0
M  V30 28848 N 2727.09 -0.732829 1.39526 0
M  V30 28849 C 2728.34 -1.48948 1.36597 0
M  V30 28850 C 2728.66 -1.94965 -0.0367165 0
M  V30 28851 O 2727.93 -1.6914 -0.988362 0
M  V30 28852 H 2726.51 -0.552557 0.502683 0
M  V30 28853 H 2729.18 -0.869839 1.74413 0
M  V30 28854 H 2728.27 -2.37057 2.03004 0
M  V30 28855 N 2728.57 -1.24737 -0.963244 0
M  V30 28856 C 2729.82 -1.09134 -1.70931 0
M  V30 28857 C 2730.15 0.368239 -1.90677 0
M  V30 28858 O 2729.43 1.2719 -1.47149 0
M  V30 28859 C 2729.71 -1.83664 -3.09741 0
M  V30 28860 C 2729.56 -3.37399 -2.97459 0
M  V30 28861 C 2730.88 -1.61289 -4.0948 0
M  V30 28862 H 2728 -0.397849 -0.620391 0
M  V30 28863 H 2730.64 -1.53461 -1.12025 0
M  V30 28864 H 2728.79 -1.45986 -3.60028 0
M  V30 28865 H 2730.46 -3.84701 -2.54564 0
M  V30 28866 H 2728.71 -3.65551 -2.3357 0
M  V30 28867 H 2729.38 -3.84752 -3.95815 0
M  V30 28868 H 2731.85 -1.94073 -3.68069 0
M  V30 28869 H 2730.73 -2.15886 -5.04662 0
M  V30 28870 H 2730.99 -0.552179 -4.38638 0
M  V30 28871 N 2730.05 1.16459 -1.06184 0
M  V30 28872 C 2731.33 1.82973 -0.691396 0
M  V30 28873 C 2731.71 1.94212 0.827343 0
M  V30 28874 O 2731.06 1.48437 1.7372 0
M  V30 28875 C 2731.27 3.20036 -1.39205 0
M  V30 28876 C 2732.61 3.95823 -1.53654 0
M  V30 28877 O 2733.64 3.2955 -1.35187 0
M  V30 28878 O 2732.5 5.14614 -1.83941 0
M  V30 28879 H 2729.59 0.789994 -0.244618 0
M  V30 28880 H 2732.14 1.23671 -1.16205 0
M  V30 28881 H 2730.91 3.06884 -2.42772 0
M  V30 28882 H 2730.53 3.87013 -0.911403 0
M  V30 28883 N 2731.53 0.844266 1.33079 0
M  V30 28884 C 2732.46 0.296533 2.31609 0
M  V30 28885 C 2733.44 -0.598679 1.59216 0
M  V30 28886 O 2734.62 -0.521101 1.87078 0
M  V30 28887 C 2731.75 -0.524702 3.43314 0
M  V30 28888 C 2730.71 0.275181 4.27114 0
M  V30 28889 C 2730.03 -0.670143 5.30484 0
M  V30 28890 C 2731.33 1.49522 5.0044 0
M  V30 28891 H 2733.03 1.11981 2.7767 0
M  V30 28892 H 2730.57 0.539923 1.33495 0
M  V30 28893 H 2732.53 -0.918226 4.11274 0
M  V30 28894 H 2731.25 -1.38124 2.95955 0
M  V30 28895 H 2729.91 0.65033 3.60786 0
M  V30 28896 H 2729.56 -1.52324 4.79381 0
M  V30 28897 H 2729.26 -0.13902 5.87436 0
M  V30 28898 H 2730.78 -1.06107 6.0131 0
M  V30 28899 H 2732.2 1.17456 5.61139 0
M  V30 28900 H 2730.59 1.96353 5.67068 0
M  V30 28901 H 2731.66 2.2621 4.28902 0
M  V30 28902 N 2733.01 -1.45682 0.60121 0
M  V30 28903 C 2734.42 -1.85833 0.179691 0
M  V30 28904 C 2734.77 -1.50238 -1.26186 0
M  V30 28905 O 2733.89 -0.926022 -1.95586 0
M  V30 28906 C 2734.49 -3.37292 0.319336 0
M  V30 28907 C 2733.05 -3.7637 -0.0474431 0
M  V30 28908 C 2732.19 -2.69653 0.646739 0
M  V30 28909 H 2735.15 -1.36574 0.808292 0
M  V30 28910 H 2735.17 -3.77827 -0.450234 0
M  V30 28911 H 2734.68 -3.63167 1.36861 0
M  V30 28912 H 2732.78 -3.56112 -1.09614 0
M  V30 28913 H 2732.89 -4.77879 0.341764 0
M  V30 28914 H 2731.26 -2.54558 0.0850419 0
M  V30 28915 H 2732.04 -2.98366 1.69802 0
M  V30 28916 N 2734.48 -0.340009 -1.53889 0
M  V30 28917 C 2735.42 0.561366 -2.21188 0
M  V30 28918 C 2736.4 1.10304 -1.19465 0
M  V30 28919 O 2737.58 1.16397 -1.4827 0
M  V30 28920 C 2734.71 1.77192 -2.88653 0
M  V30 28921 C 2733.75 1.36003 -4.04234 0
M  V30 28922 S 2734.59 0.382815 -5.3413 0
M  V30 28923 C 2735.74 1.60029 -6.05096 0
M  V30 28924 H 2735.97 -0.0102615 -2.97298 0
M  V30 28925 H 2733.51 -0.124083 -1.53901 0
M  V30 28926 H 2735.47 2.46644 -3.28142 0
M  V30 28927 H 2734.13 2.31476 -2.12315 0
M  V30 28928 H 2733.32 2.26252 -4.50362 0
M  V30 28929 H 2732.92 0.745033 -3.66504 0
M  V30 28930 H 2735.21 2.5353 -6.28275 0
M  V30 28931 H 2736.16 1.18087 -6.98184 0
M  V30 28932 H 2736.56 1.79473 -5.3521 0
M  V30 28933 N 2735.96 1.57451 -0.0685468 0
M  V30 28934 C 2737.21 1.92542 0.600864 0
M  V30 28935 C 2737.53 0.950269 1.70966 0
M  V30 28936 O 2738.73 1.19388 2.43842 0
M  V30 28937 C 2737.19 3.42025 1.12013 0
M  V30 28938 C 2736.8 4.4798 0.042524 0
M  V30 28939 C 2738.54 3.86122 1.7638 0
M  V30 28940 C 2736.45 5.88592 0.575655 0
M  V30 28941 H 2735.38 0.718634 0.228213 0
M  V30 28942 H 2738.03 1.82963 -0.140255 0
M  V30 28943 H 2736.41 3.46666 1.91412 0
M  V30 28944 H 2737.58 4.5495 -0.7319 0
M  V30 28945 H 2735.9 4.1333 -0.504715 0
M  V30 28946 H 2738.5 4.88557 2.17293 0
M  V30 28947 H 2738.84 3.23313 2.62249 0
M  V30 28948 H 2739.37 3.8407 1.03608 0
M  V30 28949 H 2736.11 6.55039 -0.245807 0
M  V30 28950 H 2735.63 5.85147 1.31767 0
M  V30 28951 H 2737.31 6.38372 1.05309 0
M  V30 28952 N 2737.44 -0.204984 1.56261 0
M  V30 28953 C 2738.67 -0.943354 1.84142 0
M  V30 28954 C 2739.08 -1.77265 0.649803 0
M  V30 28955 O 2738.44 -1.78466 -0.381581 0
M  V30 28956 C 2738.49 -1.84754 3.10722 0
M  V30 28957 O 2738.21 -1.05174 4.25288 0
M  V30 28958 C 2739.71 -2.69842 3.5171 0
M  V30 28959 H 2736.93 -0.275711 0.611739 0
M  V30 28960 H 2739.48 -0.215217 2.03364 0
M  V30 28961 H 2737.63 -2.52942 2.93427 0
M  V30 28962 H 2738.05 -1.667 4.97304 0
M  V30 28963 H 2739.52 -3.28959 4.43272 0
M  V30 28964 H 2740 -3.43062 2.74236 0
M  V30 28965 H 2740.6 -2.07041 3.71503 0
M  V30 28966 N 2738.92 -1.50356 -0.472329 0
M  V30 28967 C 2740.17 -1.61283 -1.2245 0
M  V30 28968 C 2740.49 -0.312594 -1.91972 0
M  V30 28969 O 2739.75 0.701443 -1.82697 0
M  V30 28970 C 2740.05 -2.74186 -2.29252 0
M  V30 28971 C 2739.71 -4.14711 -1.76991 0
M  V30 28972 C 2738.38 -4.52946 -1.62459 0
M  V30 28973 C 2740.73 -5.02542 -1.38206 0
M  V30 28974 C 2738.06 -5.76756 -1.07564 0
M  V30 28975 C 2740.41 -6.26897 -0.847528 0
M  V30 28976 C 2739.07 -6.63936 -0.688829 0
M  V30 28977 H 2738.34 -0.590176 -0.448077 0
M  V30 28978 H 2740.99 -1.84285 -0.520712 0
M  V30 28979 H 2739.29 -2.45268 -3.05534 0
M  V30 28980 H 2740.99 -2.79845 -2.87207 0
M  V30 28981 H 2737.58 -3.84545 -1.89269 0
M  V30 28982 H 2741.77 -4.73635 -1.48268 0
M  V30 28983 H 2737.02 -6.04129 -0.940131 0
M  V30 28984 H 2741.2 -6.94316 -0.538333 0
M  V30 28985 H 2738.82 -7.59751 -0.261301 0
M  V30 28986 N 2740.4 0.725419 -1.39912 0
M  V30 28987 C 2741.33 1.85252 -1.42141 0
M  V30 28988 C 2742.31 1.6772 -0.283542 0
M  V30 28989 O 2743.49 1.87897 -0.49075 0
M  V30 28990 C 2740.62 3.23105 -1.27359 0
M  V30 28991 C 2739.58 3.55291 -2.38646 0
M  V30 28992 C 2738.9 4.92184 -2.08947 0
M  V30 28993 C 2740.2 3.57288 -3.80976 0
M  V30 28994 H 2741.9 1.83644 -2.36464 0
M  V30 28995 H 2739.44 0.882118 -1.13819 0
M  V30 28996 H 2741.4 4.01637 -1.27537 0
M  V30 28997 H 2740.12 3.25264 -0.295083 0
M  V30 28998 H 2738.78 2.79094 -2.37701 0
M  V30 28999 H 2738.43 4.90934 -1.09511 0
M  V30 29000 H 2738.13 5.14686 -2.835 0
M  V30 29001 H 2739.65 5.73061 -2.10791 0
M  V30 29002 H 2741.07 4.25878 -3.83798 0
M  V30 29003 H 2739.46 3.91312 -4.54967 0
M  V30 29004 H 2740.53 2.56883 -4.11265 0
M  V30 29005 N 2741.88 1.25246 0.956615 0
M  V30 29006 C 2742.82 1.05457 2.05298 0
M  V30 29007 C 2743.79 -0.0356597 1.66062 0
M  V30 29008 O 2744.98 0.121133 1.90415 0
M  V30 29009 C 2742.12 0.67725 3.38389 0
M  V30 29010 C 2741.23 1.84213 3.90755 0
M  V30 29011 C 2740.37 1.40935 5.12163 0
M  V30 29012 C 2739.4 2.54348 5.56753 0
M  V30 29013 N 2738.54 2.1186 6.69373 0
M  V30 29014 H 2743.38 1.99288 2.21559 0
M  V30 29015 H 2740.92 0.992453 1.08576 0
M  V30 29016 H 2742.88 0.439452 4.14879 0
M  V30 29017 H 2741.51 -0.22407 3.22021 0
M  V30 29018 H 2740.56 2.19329 3.10804 0
M  V30 29019 H 2741.87 2.69391 4.19798 0
M  V30 29020 H 2741.02 1.13108 5.96063 0
M  V30 29021 H 2739.76 0.52826 4.84831 0
M  V30 29022 H 2738.77 2.82922 4.71418 0
M  V30 29023 H 2739.99 3.43032 5.86094 0
M  V30 29024 H 2737.94 1.26164 6.43753 0
M  V30 29025 H 2737.86 2.90587 6.97922 0
M  V30 29026 H 2739.12 1.87204 7.56687 0
M  V30 29027 N 2743.35 -1.15894 1.068 0
M  V30 29028 C 2744.63 -1.82604 0.70109 0
M  V30 29029 C 2745.01 -1.94648 -0.817032 0
M  V30 29030 O 2744.36 -1.49356 -1.7293 0
M  V30 29031 C 2744.57 -3.19293 1.409 0
M  V30 29032 C 2745.92 -3.95002 1.55751 0
M  V30 29033 O 2746.94 -3.28828 1.36933 0
M  V30 29034 O 2745.8 -5.13632 1.86667 0
M  V30 29035 H 2742.89 -0.788686 0.248805 0
M  V30 29036 H 2745.44 -1.23053 1.16859 0
M  V30 29037 H 2744.21 -3.05592 2.44396 0
M  V30 29038 H 2743.83 -3.86524 0.931915 0
M  V30 29039 N 2744.83 -0.851312 -1.32629 0
M  V30 29040 C 2745.74 -0.296309 -2.32721 0
M  V30 29041 C 2746.76 0.584134 -1.63902 0
M  V30 29042 O 2747.93 0.485299 -1.95466 0
M  V30 29043 C 2745 0.509043 -3.42943 0
M  V30 29044 C 2744.06 -0.397144 -4.27459 0
M  V30 29045 C 2743.29 0.369866 -5.32417 0
M  V30 29046 O 2743.52 1.60021 -5.47494 0
M  V30 29047 O 2742.45 -0.262599 -6.01327 0
M  V30 29048 H 2746.28 -1.12548 -2.82076 0
M  V30 29049 H 2743.86 -0.614159 -1.36193 0
M  V30 29050 H 2745.74 0.966268 -4.10172 0
M  V30 29051 H 2744.42 1.31507 -2.95783 0
M  V30 29052 H 2743.32 -0.902474 -3.63051 0
M  V30 29053 H 2744.66 -1.16826 -4.78134 0
M  V30 29054 N 2746.31 1.45361 -0.608928 0
M  V30 29055 C 2747.24 2.33301 0.0964116 0
M  V30 29056 C 2748.22 1.46909 0.857418 0
M  V30 29057 O 2749.41 1.75678 0.827704 0
M  V30 29058 C 2746.54 3.29637 1.09348 0
M  V30 29059 C 2745.49 4.25674 0.445601 0
M  V30 29060 C 2744.82 5.11711 1.55101 0
M  V30 29061 C 2746.12 5.18437 -0.634063 0
M  V30 29062 H 2747.81 2.92526 -0.63788 0
M  V30 29063 H 2745.36 1.40663 -0.308203 0
M  V30 29064 H 2747.31 3.90028 1.59549 0
M  V30 29065 H 2746.03 2.68573 1.85839 0
M  V30 29066 H 2744.69 3.66583 -0.0355542 0
M  V30 29067 H 2744.34 4.47014 2.30623 0
M  V30 29068 H 2744.04 5.76769 1.12301 0
M  V30 29069 H 2745.56 5.74971 2.05527 0
M  V30 29070 H 2746.98 5.72893 -0.216074 0
M  V30 29071 H 2745.37 5.91979 -0.983893 0
M  V30 29072 H 2746.44 4.60785 -1.51013 0
M  V30 29073 N 2747.79 0.348166 1.53706 0
M  V30 29074 C 2749.2 -0.00358329 1.596 0
M  V30 29075 C 2749.4 -1.48318 1.36397 0
M  V30 29076 O 2748.46 -2.24251 1.1605 0
M  V30 29077 C 2749.77 0.436735 2.97512 0
M  V30 29078 C 2751.32 0.389471 3.10567 0
M  V30 29079 C 2751.8 0.805328 4.50864 0
M  V30 29080 N 2753.29 0.759697 4.56928 0
M  V30 29081 C 2754.02 1.05337 5.63641 0
M  V30 29082 N 2753.52 1.41543 6.78187 0
M  V30 29083 N 2755.31 0.977305 5.53539 0
M  V30 29084 H 2747.46 1.31189 1.67042 0
M  V30 29085 H 2749.72 0.535089 0.782549 0
M  V30 29086 H 2749.43 1.46855 3.19572 0
M  V30 29087 H 2749.3 -0.185678 3.76743 0
M  V30 29088 H 2751.69 -0.633178 2.88227 0
M  V30 29089 H 2751.77 1.04715 2.33385 0
M  V30 29090 H 2751.42 1.82601 4.7394 0
M  V30 29091 H 2751.35 0.125081 5.26451 0
M  V30 29092 H 2753.84 0.492716 3.74674 0
M  V30 29093 H 2754.15 1.62424 7.55538 0
M  V30 29094 H 2752.5 1.45393 6.79622 0
M  V30 29095 H 2755.69 0.693756 4.6293 0
M  V30 29096 H 2755.86 1.20952 6.36612 0
M  V30 29097 N 2749.27 -1.57412 0.0768958 0
M  V30 29098 C 2750.21 -2.13011 -0.88854 0
M  V30 29099 C 2751.18 -1.04392 -1.29196 0
M  V30 29100 O 2752.37 -1.32082 -1.37692 0
M  V30 29101 C 2749.51 -2.70027 -2.14894 0
M  V30 29102 C 2748.62 -3.92819 -1.7977 0
M  V30 29103 C 2747.76 -4.38061 -3.00459 0
M  V30 29104 C 2746.79 -5.53488 -2.61376 0
M  V30 29105 N 2745.93 -5.93666 -3.74841 0
M  V30 29106 H 2750.77 -2.952 -0.407542 0
M  V30 29107 H 2748.31 -1.45874 -0.189509 0
M  V30 29108 H 2750.27 -3.01195 -2.88682 0
M  V30 29109 H 2748.9 -1.90595 -2.60525 0
M  V30 29110 H 2747.95 -3.68081 -0.960237 0
M  V30 29111 H 2749.26 -4.76641 -1.47019 0
M  V30 29112 H 2748.41 -4.70917 -3.8252 0
M  V30 29113 H 2747.15 -3.53103 -3.36407 0
M  V30 29114 H 2746.16 -5.20278 -1.77737 0
M  V30 29115 H 2747.38 -6.40182 -2.26592 0
M  V30 29116 H 2745.33 -5.11656 -4.10541 0
M  V30 29117 H 2745.25 -6.7224 -3.45875 0
M  V30 29118 H 2746.51 -6.31146 -4.57466 0
M  V30 29119 N 2750.74 0.196695 -1.56368 0
M  V30 29120 C 2751.69 1.24378 -1.94419 0
M  V30 29121 C 2752.66 1.45313 -0.804569 0
M  V30 29122 O 2753.85 1.58473 -1.06259 0
M  V30 29123 C 2750.99 2.58384 -2.28761 0
M  V30 29124 C 2750.1 2.45041 -3.55779 0
M  V30 29125 C 2749.23 3.71739 -3.79451 0
M  V30 29126 C 2748.27 3.53223 -4.999 0
M  V30 29127 N 2747.41 4.71929 -5.19834 0
M  V30 29128 H 2752.25 0.912288 -2.83692 0
M  V30 29129 H 2749.79 0.43911 -1.40393 0
M  V30 29130 H 2751.75 3.36453 -2.46688 0
M  V30 29131 H 2750.38 2.8958 -1.4263 0
M  V30 29132 H 2749.43 1.58278 -3.45908 0
M  V30 29133 H 2750.74 2.27292 -4.44004 0
M  V30 29134 H 2749.89 4.58249 -3.97609 0
M  V30 29135 H 2748.63 3.92441 -2.89553 0
M  V30 29136 H 2747.64 2.65098 -4.81667 0
M  V30 29137 H 2748.86 3.33968 -5.91306 0
M  V30 29138 H 2746.81 4.92897 -4.32884 0
M  V30 29139 H 2746.73 4.56999 -6.02236 0
M  V30 29140 H 2747.99 5.59794 -5.42449 0
M  V30 29141 N 2752.22 1.50604 0.464349 0
M  V30 29142 C 2753.13 1.72757 1.5872 0
M  V30 29143 C 2754.15 0.610872 1.62924 0
M  V30 29144 O 2755.32 0.889995 1.80668 0
M  V30 29145 C 2752.39 1.82314 2.94894 0
M  V30 29146 C 2751.45 3.06077 3.01024 0
M  V30 29147 C 2750.68 3.15168 4.30703 0
M  V30 29148 O 2750.91 2.30877 5.21586 0
M  V30 29149 O 2749.84 4.07947 4.42564 0
M  V30 29150 H 2753.67 2.67954 1.42949 0
M  V30 29151 H 2751.25 1.34781 0.644555 0
M  V30 29152 H 2753.13 1.90741 3.7576 0
M  V30 29153 H 2751.81 0.903022 3.10849 0
M  V30 29154 H 2750.72 3.03146 2.19211 0
M  V30 29155 H 2752.05 3.97689 2.90007 0
M  V30 29156 N 2753.7 -0.717989 1.40295 0
M  V30 29157 C 2754.65 -1.83207 1.4037 0
M  V30 29158 C 2755.62 -1.64037 0.260981 0
M  V30 29159 O 2756.8 -1.85205 0.458681 0
M  V30 29160 C 2753.94 -3.20893 1.26971 0
M  V30 29161 C 2753.06 -3.51652 2.50929 0
M  V30 29162 C 2752.19 -4.7883 2.2999 0
M  V30 29163 C 2751.23 -5.02485 3.49536 0
M  V30 29164 N 2750.37 -6.20876 3.27807 0
M  V30 29165 H 2755.21 -1.82478 2.35597 0
M  V30 29166 H 2752.74 -0.891423 1.17013 0
M  V30 29167 H 2754.7 -4.00397 1.17209 0
M  V30 29168 H 2753.33 -3.20857 0.353647 0
M  V30 29169 H 2752.38 -2.6672 2.71228 0
M  V30 29170 H 2753.7 -3.65042 3.3992 0
M  V30 29171 H 2752.85 -5.66347 2.17568 0
M  V30 29172 H 2751.59 -4.67644 1.38419 0
M  V30 29173 H 2750.59 -4.13424 3.62437 0
M  V30 29174 H 2751.82 -5.15545 4.4203 0
M  V30 29175 H 2749.76 -6.10946 2.38917 0
M  V30 29176 H 2749.68 -6.34932 4.10363 0
M  V30 29177 H 2750.95 -7.11187 3.19113 0
M  V30 29178 N 2755.18 -1.25752 -0.94996 0
M  V30 29179 C 2756.43 -1.10171 -1.68954 0
M  V30 29180 C 2756.74 0.356275 -1.92328 0
M  V30 29181 O 2757.95 0.63261 -2.64027 0
M  V30 29182 C 2756.4 -1.92341 -3.04192 0
M  V30 29183 C 2756.01 -3.4266 -2.88597 0
M  V30 29184 C 2757.75 -1.85343 -3.81901 0
M  V30 29185 C 2755.66 -4.17109 -4.19254 0
M  V30 29186 H 2754.59 -0.408679 -0.633638 0
M  V30 29187 H 2757.24 -1.49988 -1.05716 0
M  V30 29188 H 2755.62 -1.45351 -3.6836 0
M  V30 29189 H 2756.8 -3.97357 -2.33333 0
M  V30 29190 H 2755.11 -3.508 -2.24339 0
M  V30 29191 H 2757.71 -2.38257 -4.78683 0
M  V30 29192 H 2758.05 -0.822298 -4.08098 0
M  V30 29193 H 2758.59 -2.30109 -3.24491 0
M  V30 29194 H 2755.33 -5.20655 -3.98244 0
M  V30 29195 H 2754.85 -3.67194 -4.74266 0
M  V30 29196 H 2756.52 -4.25079 -4.87767 0
M  V30 29197 N 2756.66 1.15326 -1.07413 0
M  V30 29198 C 2757.88 1.90549 -0.818889 0
M  V30 29199 C 2758.31 1.77513 0.622163 0
M  V30 29200 O 2757.66 1.10826 1.43482 0
M  V30 29201 C 2757.71 3.38875 -1.23273 0
M  V30 29202 O 2756.82 4.1066 -0.378418 0
M  V30 29203 H 2756.16 0.593233 -0.29828 0
M  V30 29204 H 2758.69 1.46043 -1.43292 0
M  V30 29205 H 2758.7 3.8967 -1.20919 0
M  V30 29206 H 2757.37 3.47682 -2.28232 0
M  V30 29207 H 2755.95 3.69996 -0.464502 0
M  V30 29208 N 2758.13 0.858334 1.32176 0
M  V30 29209 C 2759.36 0.477617 2.01312 0
M  V30 29210 C 2759.78 -0.926707 1.64492 0
M  V30 29211 O 2759.13 -1.6053 0.868124 0
M  V30 29212 C 2759.19 0.6114 3.56292 0
M  V30 29213 O 2758.91 1.96041 3.9179 0
M  V30 29214 C 2760.41 0.230171 4.42702 0
M  V30 29215 H 2757.63 0.187333 0.644319 0
M  V30 29216 H 2760.17 1.15629 1.68672 0
M  V30 29217 H 2758.33 -0.0195813 3.87395 0
M  V30 29218 H 2758.74 1.95982 4.86509 0
M  V30 29219 H 2760.21 0.37477 5.50726 0
M  V30 29220 H 2760.69 -0.829704 4.31292 0
M  V30 29221 H 2761.3 0.836375 4.16995 0
M  V30 29222 N 2759.61 -1.45036 0.616628 0
M  V30 29223 C 2760.86 -2.01772 0.115138 0
M  V30 29224 C 2761.18 -1.48641 -1.26218 0
M  V30 29225 O 2760.45 -0.684231 -1.83562 0
M  V30 29226 H 2759.03 -0.745951 0.0395738 0
M  V30 29227 H 2761.69 -1.77722 0.800064 0
M  V30 29228 H 2760.79 -3.12017 0.0717822 0
M  V30 29229 N 2761.09 -0.356312 -1.53519 0
M  V30 29230 C 2762.04 0.49453 -2.2544 0
M  V30 29231 C 2763.01 1.08514 -1.25753 0
M  V30 29232 O 2764.19 1.11937 -1.54515 0
M  V30 29233 C 2761.33 1.63308 -3.04014 0
M  V30 29234 C 2760.45 1.06854 -4.18576 0
M  V30 29235 C 2759.58 2.17544 -4.84611 0
M  V30 29236 C 2758.62 1.58507 -5.91221 0
M  V30 29237 N 2757.76 2.62991 -6.50984 0
M  V30 29238 H 2762.6 -0.125296 -2.97736 0
M  V30 29239 H 2760.13 -0.0736047 -1.46916 0
M  V30 29240 H 2762.09 2.30357 -3.47838 0
M  V30 29241 H 2760.72 2.2237 -2.3399 0
M  V30 29242 H 2759.77 0.288605 -3.79304 0
M  V30 29243 H 2761.09 0.596837 -4.95216 0
M  V30 29244 H 2760.24 2.92433 -5.31571 0
M  V30 29245 H 2758.98 2.68063 -4.07423 0
M  V30 29246 H 2757.98 0.821295 -5.43631 0
M  V30 29247 H 2759.21 1.08824 -6.70324 0
M  V30 29248 H 2757.15 3.12741 -5.76653 0
M  V30 29249 H 2757.07 2.20481 -7.23135 0
M  V30 29250 H 2758.34 3.3761 -7.02595 0
M  V30 29251 N 2762.57 1.57369 -0.0852427 0
M  V30 29252 C 2763.8 1.98326 0.589425 0
M  V30 29253 C 2764.21 0.964059 1.62331 0
M  V30 29254 O 2763.57 -0.0476075 1.82438 0
M  V30 29255 C 2763.62 3.39349 1.24598 0
M  V30 29256 O 2763.34 4.37366 0.253455 0
M  V30 29257 C 2764.84 3.95255 2.00719 0
M  V30 29258 H 2762.06 0.651945 0.158772 0
M  V30 29259 H 2764.61 2.0386 -0.16162 0
M  V30 29260 H 2762.76 3.3486 1.94802 0
M  V30 29261 H 2763.17 5.1945 0.726115 0
M  V30 29262 H 2764.65 4.9611 2.4203 0
M  V30 29263 H 2765.13 3.32532 2.86913 0
M  V30 29264 H 2765.73 4.03187 1.35353 0
M  V30 29265 N 2764.05 -0.188399 1.5647 0
M  V30 29266 C 2765.46 -0.539505 1.50205 0
M  V30 29267 C 2765.66 -1.85518 0.786472 0
M  V30 29268 O 2764.72 -2.50204 0.339758 0
M  V30 29269 C 2766.03 -0.588051 2.94894 0
M  V30 29270 C 2767.58 -0.676426 3.05603 0
M  V30 29271 C 2768.05 -0.756022 4.51717 0
M  V30 29272 N 2769.55 -0.819371 4.55895 0
M  V30 29273 C 2770.28 -0.90124 5.66273 0
M  V30 29274 N 2769.78 -0.944998 6.86325 0
M  V30 29275 N 2771.57 -0.938946 5.54202 0
M  V30 29276 H 2763.72 0.674529 2.01405 0
M  V30 29277 H 2765.98 0.241119 0.916824 0
M  V30 29278 H 2765.69 0.309695 3.50334 0
M  V30 29279 H 2765.56 -1.44045 3.48613 0
M  V30 29280 H 2767.95 -1.5646 2.50208 0
M  V30 29281 H 2768.03 0.202307 2.54999 0
M  V30 29282 H 2767.68 0.127829 5.07739 0
M  V30 29283 H 2767.61 -1.65065 5.00061 0
M  V30 29284 H 2770.1 -0.794529 3.69453 0
M  V30 29285 H 2770.41 -1.00817 7.66196 0
M  V30 29286 H 2768.75 -0.913562 6.8897 0
M  V30 29287 H 2771.95 -0.901644 4.59334 0
M  V30 29288 H 2772.12 -0.99929 6.40249 0
M  V30 29289 N 2765.53 -1.50848 -0.456355 0
M  V30 29290 C 2766.77 -1.62814 -1.20912 0
M  V30 29291 C 2767.1 -0.334337 -1.913 0
M  V30 29292 O 2766.38 0.665066 -1.82776 0
M  V30 29293 C 2766.66 -2.81857 -2.24117 0
M  V30 29294 C 2766.52 -4.21161 -1.57936 0
M  V30 29295 C 2767.83 -2.96437 -3.2529 0
M  V30 29296 H 2764.95 -0.592562 -0.438223 0
M  V30 29297 H 2767.6 -1.83279 -0.500878 0
M  V30 29298 H 2765.75 -2.64539 -2.8452 0
M  V30 29299 H 2767.42 -4.50104 -1.01017 0
M  V30 29300 H 2765.66 -4.24737 -0.88211 0
M  V30 29301 H 2766.33 -5.00412 -2.33005 0
M  V30 29302 H 2768.81 -3.12339 -2.74924 0
M  V30 29303 H 2767.68 -3.81329 -3.94816 0
M  V30 29304 H 2767.94 -2.07683 -3.90282 0
M  V30 29305 N 2767 0.710538 -1.40674 0
M  V30 29306 C 2768.25 1.46605 -1.38528 0
M  V30 29307 C 2768.57 1.95598 0.00766802 0
M  V30 29308 O 2769.77 2.71076 0.151744 0
M  V30 29309 C 2768.23 2.65026 -2.43494 0
M  V30 29310 C 2767.84 2.22881 -3.88623 0
M  V30 29311 C 2769.58 3.42737 -2.50462 0
M  V30 29312 C 2767.49 3.38171 -4.85174 0
M  V30 29313 H 2766.42 0.550623 -0.515102 0
M  V30 29314 H 2769.07 0.772816 -1.66433 0
M  V30 29315 H 2767.45 3.36544 -2.08696 0
M  V30 29316 H 2768.62 1.5875 -4.32591 0
M  V30 29317 H 2766.94 1.58201 -3.85177 0
M  V30 29318 H 2769.54 4.28536 -3.19783 0
M  V30 29319 H 2769.88 3.86899 -1.53672 0
M  V30 29320 H 2770.41 2.78267 -2.84276 0
M  V30 29321 H 2767.15 2.99037 -5.83316 0
M  V30 29322 H 2766.67 4.01201 -4.45867 0
M  V30 29323 H 2768.35 4.04165 -5.05232 0
M  V30 29324 N 2768.48 1.26254 0.943277 0
M  V30 29325 C 2769.39 1.09401 2.0753 0
M  V30 29326 C 2770.41 0.0280755 1.73977 0
M  V30 29327 O 2771.58 0.231372 2.00067 0
M  V30 29328 C 2768.65 0.726582 3.39001 0
M  V30 29329 C 2767.71 1.8717 3.8635 0
M  V30 29330 C 2766.94 1.52171 5.11546 0
M  V30 29331 O 2767.17 0.422485 5.68833 0
M  V30 29332 O 2766.1 2.35575 5.53885 0
M  V30 29333 H 2769.93 2.04363 2.24654 0
M  V30 29334 H 2767.51 1.05297 1.05986 0
M  V30 29335 H 2769.39 0.534309 4.17999 0
M  V30 29336 H 2768.07 -0.193664 3.2312 0
M  V30 29337 H 2766.97 2.11892 3.08306 0
M  V30 29338 H 2768.31 2.77159 4.06748 0
M  V30 29339 N 2769.96 -1.14755 1.08024 0
M  V30 29340 C 2770.92 -2.17909 0.710519 0
M  V30 29341 C 2771.92 -1.58802 -0.252703 0
M  V30 29342 O 2773.11 -1.74169 -0.0327609 0
M  V30 29343 C 2770.24 -3.40866 0.0483802 0
M  V30 29344 H 2771.44 -2.52131 1.62389 0
M  V30 29345 H 2768.99 -1.29335 0.877618 0
M  V30 29346 H 2769.73 -3.12219 -0.876904 0
M  V30 29347 H 2769.51 -3.8503 0.741256 0
M  V30 29348 H 2771 -4.17143 -0.195397 0
M  V30 29349 N 2771.44 -0.865331 -1.31719 0
M  V30 29350 C 2772.66 -0.487451 -2.0159 0
M  V30 29351 C 2773.09 0.911278 -1.64552 0
M  V30 29352 O 2772.45 1.60048 -0.851717 0
M  V30 29353 C 2772.49 -0.646463 -3.54758 0
M  V30 29354 O 2771.6 0.316212 -4.11186 0
M  V30 29355 H 2770.94 -0.194479 -0.634881 0
M  V30 29356 H 2773.47 -1.16747 -1.68022 0
M  V30 29357 H 2773.48 -0.538003 -4.04437 0
M  V30 29358 H 2772.15 -1.66639 -3.81057 0
M  V30 29359 H 2770.73 0.163097 -3.72543 0
M  V30 29360 N 2772.92 1.44707 -0.624311 0
M  V30 29361 C 2774.14 2.06985 -0.131207 0
M  V30 29362 C 2774.57 1.46298 1.18231 0
M  V30 29363 O 2773.92 0.561872 1.72374 0
M  V30 29364 C 2773.97 3.60593 -0.0227358 0
M  V30 29365 O 2773.08 3.99508 1.02307 0
M  V30 29366 H 2772.42 0.658959 -0.0816672 0
M  V30 29367 H 2774.95 1.85691 -0.85906 0
M  V30 29368 H 2774.96 4.07645 0.170066 0
M  V30 29369 H 2773.63 4.04146 -0.981757 0
M  V30 29370 H 2772.21 3.64099 0.805388 0
M  V30 29371 N 2774.39 0.364449 1.53328 0
M  V30 29372 C 2775.64 -0.226712 2.00422 0
M  V30 29373 C 2775.96 -1.49961 1.25583 0
M  V30 29374 O 2777.16 -2.1693 1.6326 0
M  V30 29375 C 2775.62 -0.454555 3.57018 0
M  V30 29376 C 2775.23 0.803645 4.40733 0
M  V30 29377 C 2776.97 -1.00343 4.1247 0
M  V30 29378 C 2774.88 0.545449 5.88879 0
M  V30 29379 H 2773.81 -0.0884951 0.748789 0
M  V30 29380 H 2776.46 0.483014 1.77029 0
M  V30 29381 H 2774.84 -1.22551 3.7656 0
M  V30 29382 H 2776.01 1.57731 4.32964 0
M  V30 29383 H 2774.33 1.27566 3.96378 0
M  V30 29384 H 2776.93 -1.21191 5.20785 0
M  V30 29385 H 2777.27 -1.96523 3.66994 0
M  V30 29386 H 2777.8 -0.29267 3.96722 0
M  V30 29387 H 2774.54 1.47755 6.3863 0
M  V30 29388 H 2774.06 -0.189737 5.995 0
M  V30 29389 H 2775.74 0.170538 6.46775 0
M  V30 29390 N 2775.87 -1.57322 0.0935872 0
M  V30 29391 C 2776.82 -2.15171 -0.88342 0
M  V30 29392 C 2777.81 -1.09417 -1.29322 0
M  V30 29393 O 2779.02 -1.27764 -1.26793 0
M  V30 29394 H 2775.39 -0.688294 -0.302911 0
M  V30 29395 H 2777.37 -2.96087 -0.370793 0
M  V30 29396 C 2776.11 -2.74556 -2.13341 0
M  V30 29397 H 2775.44 -3.55616 -1.82695 0
M  V30 29398 H 2776.88 -3.18603 -2.79765 0
M  V30 29399 C 2775.34 -1.70376 -2.90643 0
M  V30 29400 O 2775.87 -1.14179 -3.85131 0
M  V30 29401 N 2774.07 -1.40903 -2.54155 0
M  V30 29402 H 2773.62 -1.86792 -1.77388 0
M  V30 29403 H 2773.58 -0.714355 -3.06177 0
M  V30 29404 N 2777.35 0.180099 -1.56568 0
M  V30 29405 C 2778.63 0.924901 -1.72351 0
M  V30 29406 C 2779.01 2.00761 -0.652558 0
M  V30 29407 O 2778.35 2.26045 0.334075 0
M  V30 29408 C 2778.56 1.49765 -3.15232 0
M  V30 29409 C 2779.91 1.97398 -3.75924 0
M  V30 29410 O 2780.94 1.59577 -3.18455 0
M  V30 29411 O 2779.8 2.6704 -4.76814 0
M  V30 29412 H 2776.89 0.434746 -0.703509 0
M  V30 29413 H 2779.44 0.168617 -1.6886 0
M  V30 29414 H 2778.21 0.71796 -3.84657 0
M  V30 29415 H 2777.83 2.31836 -3.23013 0
M  V30 29416 N 2778.83 1.51088 0.448349 0
M  V30 29417 C 2780.06 1.67002 1.2214 0
M  V30 29418 C 2780.47 0.362731 1.85283 0
M  V30 29419 O 2779.83 -0.65769 1.70237 0
M  V30 29420 C 2779.88 2.77774 2.31352 0
M  V30 29421 O 2779.6 4.03437 1.70794 0
M  V30 29422 C 2781.1 3.04861 3.2183 0
M  V30 29423 H 2778.32 0.560725 0.368549 0
M  V30 29424 H 2780.86 1.97443 0.532584 0
M  V30 29425 H 2779.02 2.49963 2.95969 0
M  V30 29426 H 2779.43 4.64872 2.42887 0
M  V30 29427 H 2780.91 3.85978 3.9462 0
M  V30 29428 H 2781.38 2.16828 3.81945 0
M  V30 29429 H 2781.99 3.3429 2.62927 0
M  V30 29430 N 2780.31 -0.703068 1.41049 0
M  V30 29431 C 2781.56 -1.45868 1.39303 0
M  V30 29432 C 2781.87 -1.956 0.00270515 0
M  V30 29433 O 2783.07 -2.71152 -0.137366 0
M  V30 29434 C 2781.53 -2.63731 2.44896 0
M  V30 29435 C 2781.14 -2.20817 3.898 0
M  V30 29436 C 2782.88 -3.41404 2.52276 0
M  V30 29437 C 2780.79 -3.35594 4.86961 0
M  V30 29438 H 2779.72 -0.547884 0.518015 0
M  V30 29439 H 2782.37 -0.763979 1.6684 0
M  V30 29440 H 2780.75 -3.35432 2.10478 0
M  V30 29441 H 2781.93 -1.56454 4.33427 0
M  V30 29442 H 2780.24 -1.56156 3.86011 0
M  V30 29443 H 2782.84 -4.26834 3.22051 0
M  V30 29444 H 2783.18 -3.86078 1.55721 0
M  V30 29445 H 2783.71 -2.76755 2.85747 0
M  V30 29446 H 2780.45 -2.95939 5.84893 0
M  V30 29447 H 2779.97 -3.98831 4.47989 0
M  V30 29448 H 2781.65 -4.0148 5.07368 0
M  V30 29449 N 2781.78 -1.26752 -0.936569 0
M  V30 29450 C 2782.71 -1.11216 -2.05313 0
M  V30 29451 C 2783.7 -0.0160561 -1.70092 0
M  V30 29452 O 2784.88 -0.188928 -1.93279 0
M  V30 29453 C 2782.01 -0.74923 -3.39122 0
M  V30 29454 C 2780.96 -1.79758 -3.88421 0
M  V30 29455 C 2780.29 -1.28885 -5.18934 0
M  V30 29456 C 2781.59 -3.2 -4.12792 0
M  V30 29457 H 2783.28 -2.04616 -2.18569 0
M  V30 29458 H 2780.83 -0.985178 -1.05025 0
M  V30 29459 H 2782.78 -0.627396 -4.16703 0
M  V30 29460 H 2781.51 0.220485 -3.25855 0
M  V30 29461 H 2780.17 -1.90816 -3.13025 0
M  V30 29462 H 2779.81 -0.308845 -5.02051 0
M  V30 29463 H 2779.51 -1.98967 -5.52889 0
M  V30 29464 H 2781.04 -1.17978 -5.99094 0
M  V30 29465 H 2782.45 -3.11992 -4.80972 0
M  V30 29466 H 2780.85 -3.87713 -4.58037 0
M  V30 29467 H 2781.92 -3.65713 -3.18405 0
M  V30 29468 N 2783.26 1.1418 -1.08631 0
M  V30 29469 C 2784.51 1.85271 -0.817378 0
M  V30 29470 C 2784.84 1.83072 0.656885 0
M  V30 29471 O 2784.09 1.25818 1.49895 0
M  V30 29472 C 2784.39 3.33408 -1.2874 0
M  V30 29473 C 2784.06 3.55794 -2.76987 0
M  V30 29474 C 2782.72 3.61612 -3.17475 0
M  V30 29475 C 2785.07 3.64432 -3.72611 0
M  V30 29476 C 2782.4 3.73592 -4.52378 0
M  V30 29477 C 2784.75 3.77938 -5.07292 0
M  V30 29478 C 2783.42 3.82006 -5.47382 0
M  V30 29479 H 2782.69 0.677953 -0.2991 0
M  V30 29480 H 2785.33 1.34855 -1.35965 0
M  V30 29481 H 2783.64 3.86119 -0.66477 0
M  V30 29482 H 2785.33 3.86845 -1.05604 0
M  V30 29483 H 2781.92 3.51915 -2.4465 0
M  V30 29484 H 2786.11 3.59224 -3.42449 0
M  V30 29485 H 2781.36 3.75005 -4.82889 0
M  V30 29486 H 2785.54 3.83564 -5.8125 0
M  V30 29487 H 2783.17 3.91042 -6.51913 0
M  V30 29488 N 2784.74 0.872304 1.31258 0
M  V30 29489 C 2786.16 0.564547 1.49282 0
M  V30 29490 C 2786.36 -0.900776 1.80245 0
M  V30 29491 O 2785.41 -1.68281 1.88249 0
M  V30 29492 C 2786.73 1.46677 2.625 0
M  V30 29493 C 2788.27 1.46906 2.76383 0
M  V30 29494 C 2788.75 2.35691 3.92701 0
M  V30 29495 N 2790.24 2.33584 3.99991 0
M  V30 29496 C 2790.97 2.99001 4.89271 0
M  V30 29497 N 2790.47 3.73596 5.83436 0
M  V30 29498 N 2792.26 2.88297 4.82536 0
M  V30 29499 H 2784.41 1.82041 1.09429 0
M  V30 29500 H 2786.68 0.77852 0.540935 0
M  V30 29501 H 2786.38 2.50955 2.46403 0
M  V30 29502 H 2786.26 1.16702 3.58693 0
M  V30 29503 H 2788.64 0.433848 2.91893 0
M  V30 29504 H 2788.73 1.80906 1.8085 0
M  V30 29505 H 2788.37 3.3929 3.77948 0
M  V30 29506 H 2788.3 1.99014 4.87546 0
M  V30 29507 H 2790.79 1.79365 3.32621 0
M  V30 29508 H 2791.1 4.20633 6.48296 0
M  V30 29509 H 2789.45 3.77704 5.83408 0
M  V30 29510 H 2792.64 2.29558 4.07947 0
M  V30 29511 H 2792.81 3.39558 5.5191 0
M  V30 29512 N 2786.22 -1.44374 0.631976 0
M  V30 29513 C 2787.45 -2.06399 0.143903 0
M  V30 29514 C 2787.86 -1.47233 -1.18186 0
M  V30 29515 O 2787.22 -0.595528 -1.7251 0
M  V30 29516 C 2787.27 -3.61492 0.0238889 0
M  V30 29517 O 2786.99 -4.18454 1.29722 0
M  V30 29518 C 2788.49 -4.40553 -0.492779 0
M  V30 29519 H 2785.71 -0.666206 0.0800659 0
M  V30 29520 H 2788.26 -1.8523 0.866619 0
M  V30 29521 H 2786.41 -3.8192 -0.649271 0
M  V30 29522 H 2786.82 -5.11903 1.14261 0
M  V30 29523 H 2788.3 -5.4949 -0.525764 0
M  V30 29524 H 2788.78 -4.12059 -1.51999 0
M  V30 29525 H 2789.38 -4.25045 0.14716 0
M  V30 29526 N 2787.7 -0.372575 -1.53133 0
M  V30 29527 C 2788.92 0.215478 -2.05775 0
M  V30 29528 C 2789.34 1.41884 -1.24557 0
M  V30 29529 O 2788.7 1.80214 -0.287983 0
M  V30 29530 C 2788.75 0.602098 -3.56451 0
M  V30 29531 O 2788.47 -0.553435 -4.3459 0
M  V30 29532 C 2789.97 1.2478 -4.25376 0
M  V30 29533 H 2787.19 0.0364411 -0.67001 0
M  V30 29534 H 2789.73 -0.532968 -1.97433 0
M  V30 29535 H 2787.89 1.30045 -3.6492 0
M  V30 29536 H 2788.3 -0.239428 -5.23953 0
M  V30 29537 H 2789.78 1.46882 -5.32099 0
M  V30 29538 H 2790.25 2.2102 -3.79535 0
M  V30 29539 H 2790.86 0.590678 -4.21178 0
M  V30 29540 N 2789.17 1.5727 -0.101929 0
M  V30 29541 C 2790.42 1.94598 0.560163 0
M  V30 29542 C 2790.75 0.98413 1.67765 0
M  V30 29543 O 2790 0.00492633 1.95699 0
M  V30 29544 C 2790.3 3.38429 1.14893 0
M  V30 29545 C 2789.97 4.50635 0.154534 0
M  V30 29546 C 2788.63 4.81053 -0.118945 0
M  V30 29547 C 2790.98 5.18559 -0.524071 0
M  V30 29548 C 2788.31 5.76719 -1.07761 0
M  V30 29549 C 2790.66 6.15254 -1.47125 0
M  V30 29550 C 2789.33 6.44073 -1.75289 0
M  V30 29551 H 2788.6 0.712085 0.204978 0
M  V30 29552 H 2791.24 1.9066 -0.179213 0
M  V30 29553 H 2789.55 3.38979 1.9647 0
M  V30 29554 H 2791.25 3.64616 1.66902 0
M  V30 29555 H 2787.84 4.26931 0.377873 0
M  V30 29556 H 2792.02 4.95229 -0.325938 0
M  V30 29557 H 2787.28 5.9736 -1.30274 0
M  V30 29558 H 2791.45 6.66977 -2.00285 0
M  V30 29559 H 2789.08 7.1801 -2.4973 0
M  V30 29560 N 2790.65 -0.171793 1.56661 0
M  V30 29561 C 2791.9 -0.886742 1.81608 0
M  V30 29562 C 2792.22 -1.82802 0.67885 0
M  V30 29563 O 2791.49 -1.93569 -0.30132 0
M  V30 29564 H 2790.07 -0.330439 0.66994 0
M  V30 29565 H 2792.73 -0.171723 1.94142 0
M  V30 29566 H 2791.83 -1.46393 2.75637 0
M  V30 29567 N 2792.13 -1.51324 -0.44033 0
M  V30 29568 C 2793.08 -1.72991 -1.55489 0
M  V30 29569 C 2794.07 -0.596166 -1.58563 0
M  V30 29570 O 2795.28 -0.777471 -1.62343 0
M  V30 29571 H 2791.65 -0.546542 -0.516522 0
M  V30 29572 H 2793.62 -2.66426 -1.34387 0
M  V30 29573 C 2792.37 -1.86936 -2.93173 0
M  V30 29574 H 2791.7 -2.73579 -2.91538 0
M  V30 29575 H 2793.14 -2.0611 -3.70533 0
M  V30 29576 C 2791.6 -0.628423 -3.30987 0
M  V30 29577 O 2792.13 0.218297 -4.01106 0
M  V30 29578 N 2790.33 -0.47339 -2.86718 0
M  V30 29579 H 2789.88 -1.16349 -2.29828 0
M  V30 29580 H 2789.84 0.355672 -3.12382 0
M  V30 29581 N 2793.61 0.695578 -1.41419 0
M  V30 29582 C 2794.54 1.82195 -1.46039 0
M  V30 29583 C 2795.52 1.67081 -0.319054 0
M  V30 29584 O 2796.7 1.86814 -0.530495 0
M  V30 29585 C 2793.83 3.20331 -1.34184 0
M  V30 29586 C 2792.79 3.50149 -2.46129 0
M  V30 29587 C 2792.11 4.87641 -2.1934 0
M  V30 29588 C 2793.41 3.49126 -3.88469 0
M  V30 29589 H 2795.11 1.78587 -2.40306 0
M  V30 29590 H 2792.65 0.857777 -1.15664 0
M  V30 29591 H 2794.61 3.98841 -1.36028 0
M  V30 29592 H 2793.33 3.24565 -0.364009 0
M  V30 29593 H 2791.99 2.7399 -2.43568 0
M  V30 29594 H 2791.64 4.88501 -1.199 0
M  V30 29595 H 2791.34 5.08557 -2.94353 0
M  V30 29596 H 2792.86 5.68461 -2.22899 0
M  V30 29597 H 2794.28 4.17641 -3.92745 0
M  V30 29598 H 2792.67 3.81574 -4.63164 0
M  V30 29599 H 2793.74 2.48102 -4.16622 0
M  V30 29600 N 2795.09 1.27247 0.929833 0
M  V30 29601 C 2796.33 1.1346 1.67729 0
M  V30 29602 C 2796.66 -0.319965 1.9185 0
M  V30 29603 O 2795.92 -1.25061 1.50526 0
M  V30 29604 C 2796.22 1.8612 3.05113 0
M  V30 29605 C 2795.88 3.35983 3.0071 0
M  V30 29606 C 2794.54 3.7686 2.99216 0
M  V30 29607 C 2796.9 4.31615 2.9216 0
M  V30 29608 C 2794.22 5.11737 2.86953 0
M  V30 29609 C 2796.58 5.66547 2.81439 0
M  V30 29610 C 2795.24 6.0672 2.78294 0
M  V30 29611 H 2794.51 0.415179 0.613765 0
M  V30 29612 H 2797.16 1.57829 1.08453 0
M  V30 29613 H 2795.46 1.34253 3.68081 0
M  V30 29614 H 2797.16 1.72882 3.61819 0
M  V30 29615 H 2793.75 3.03473 3.02658 0
M  V30 29616 H 2797.93 4.01008 2.92414 0
M  V30 29617 H 2793.19 5.42011 2.82903 0
M  V30 29618 H 2797.36 6.40322 2.73789 0
M  V30 29619 H 2794.99 7.11186 2.68548 0
M  V30 29620 N 2796.57 -1.13603 1.09235 0
M  V30 29621 C 2797.79 -1.89222 0.849101 0
M  V30 29622 C 2798.22 -1.7848 -0.593844 0
M  V30 29623 O 2797.57 -1.13095 -1.41701 0
M  V30 29624 C 2797.62 -3.36871 1.28648 0
M  V30 29625 O 2796.73 -4.10006 0.443702 0
M  V30 29626 H 2796.07 -0.588412 0.30768 0
M  V30 29627 H 2798.6 -1.43745 1.45597 0
M  V30 29628 H 2798.61 -3.87697 1.27103 0
M  V30 29629 H 2797.28 -3.44007 2.33735 0
M  V30 29630 H 2795.86 -3.6921 0.523306 0
M  V30 29631 N 2798.04 -0.879253 -1.30793 0
M  V30 29632 C 2798.99 -0.340008 -2.28282 0
M  V30 29633 C 2799.96 0.566658 -1.56135 0
M  V30 29634 O 2801.15 0.496306 -1.84232 0
M  V30 29635 C 2798.29 0.444441 -3.42226 0
M  V30 29636 C 2797.4 -0.490793 -4.29203 0
M  V30 29637 C 2796.53 0.308691 -5.30302 0
M  V30 29638 C 2795.57 -0.622379 -6.08928 0
M  V30 29639 N 2794.71 0.141427 -7.01958 0
M  V30 29640 H 2799.55 -1.17652 -2.73792 0
M  V30 29641 H 2797.09 -0.591551 -1.34681 0
M  V30 29642 H 2799.04 0.915114 -4.0704 0
M  V30 29643 H 2797.67 1.24557 -2.97801 0
M  V30 29644 H 2796.73 -1.07994 -3.64748 0
M  V30 29645 H 2798.04 -1.20433 -4.84043 0
M  V30 29646 H 2797.19 0.84147 -6.00836 0
M  V30 29647 H 2795.93 1.05547 -4.76142 0
M  V30 29648 H 2794.94 -1.16683 -5.37276 0
M  V30 29649 H 2796.16 -1.36816 -6.65175 0
M  V30 29650 H 2794.11 0.870851 -6.50194 0
M  V30 29651 H 2794.02 -0.512592 -7.5426 0
M  V30 29652 H 2795.29 0.655135 -7.76742 0
M  V30 29653 N 2799.52 1.44037 -0.639624 0
M  V30 29654 C 2800.77 2.01962 -0.147515 0
M  V30 29655 C 2801.1 1.50367 1.23369 0
M  V30 29656 O 2800.35 0.681533 1.83449 0
M  V30 29657 C 2800.65 3.5728 -0.0925976 0
M  V30 29658 C 2800.32 4.28164 -1.41372 0
M  V30 29659 C 2798.98 4.47245 -1.77553 0
M  V30 29660 C 2801.33 4.68423 -2.28538 0
M  V30 29661 C 2798.66 5.03847 -3.00592 0
M  V30 29662 C 2801.01 5.26387 -3.50855 0
M  V30 29663 C 2799.67 5.43686 -3.87249 0
M  V30 29664 H 2798.94 0.739031 -0.0539796 0
M  V30 29665 H 2801.59 1.72692 -0.827629 0
M  V30 29666 H 2799.9 3.86013 0.670919 0
M  V30 29667 H 2801.59 3.9984 0.30482 0
M  V30 29668 H 2798.18 4.13649 -1.12218 0
M  V30 29669 H 2802.37 4.53386 -2.01878 0
M  V30 29670 H 2797.62 5.15426 -3.28855 0
M  V30 29671 H 2801.8 5.5653 -4.18625 0
M  V30 29672 H 2799.42 5.87311 -4.8267 0
M  V30 29673 N 2801 0.380691 1.52933 0
M  V30 29674 C 2801.95 -0.47536 2.2299 0
M  V30 29675 C 2802.93 -1.03659 1.2306 0
M  V30 29676 O 2804.13 -0.96412 1.48438 0
M  V30 29677 C 2801.25 -1.60666 3.03383 0
M  V30 29678 C 2800.34 -1.05759 4.10702 0
M  V30 29679 N 2800.73 -0.232748 5.05264 0
M  V30 29680 C 2799.03 -1.33093 4.25678 0
M  V30 29681 C 2799.73 0.0696156 5.81658 0
M  V30 29682 N 2798.71 -0.532049 5.4099 0
M  V30 29683 H 2802.51 0.161469 2.93456 0
M  V30 29684 H 2800.02 0.189523 1.6129 0
M  V30 29685 H 2802.02 -2.23226 3.52102 0
M  V30 29686 H 2800.68 -2.2464 2.3445 0
M  V30 29687 H 2801.69 0.129295 5.17739 0
M  V30 29688 H 2798.37 -1.97234 3.67974 0
M  V30 29689 H 2799.76 0.737386 6.67841 0
M  V30 29690 N 2802.48 -1.57214 0.110268 0
M  V30 29691 C 2803.41 -2.17869 -0.839964 0
M  V30 29692 C 2804.39 -1.11626 -1.2835 0
M  V30 29693 O 2805.57 -1.39826 -1.34767 0
M  V30 29694 C 2802.7 -2.77114 -2.09344 0
M  V30 29695 C 2801.66 -3.88863 -1.788 0
M  V30 29696 C 2800.98 -4.34877 -3.11104 0
M  V30 29697 C 2802.28 -5.11366 -1.06311 0
M  V30 29698 H 2803.98 -2.97525 -0.334555 0
M  V30 29699 H 2801.52 -1.43114 -0.159477 0
M  V30 29700 H 2803.48 -3.18203 -2.76269 0
M  V30 29701 H 2802.2 -1.94735 -2.62194 0
M  V30 29702 H 2800.86 -3.48337 -1.14267 0
M  V30 29703 H 2800.51 -3.49368 -3.61871 0
M  V30 29704 H 2800.21 -5.10229 -2.91444 0
M  V30 29705 H 2801.73 -4.78611 -3.79162 0
M  V30 29706 H 2803.15 -5.49529 -1.63374 0
M  V30 29707 H 2801.54 -5.92245 -0.967772 0
M  V30 29708 H 2802.61 -4.84876 -0.0483717 0
M  V30 29709 N 2803.96 0.163482 -1.5675 0
M  V30 29710 C 2804.9 1.22155 -1.97941 0
M  V30 29711 C 2805.9 1.45394 -0.869314 0
M  V30 29712 O 2807.1 1.45881 -1.05445 0
M  V30 29713 H 2803.48 0.410804 -0.629876 0
M  V30 29714 H 2805.45 0.84733 -2.86117 0
M  V30 29715 C 2804.2 2.55147 -2.3621 0
M  V30 29716 H 2803.52 2.38091 -3.21174 0
M  V30 29717 H 2804.96 3.2785 -2.68869 0
M  V30 29718 C 2803.42 3.1448 -1.20847 0
M  V30 29719 O 2803.95 3.98572 -0.500328 0
M  V30 29720 N 2802.16 2.73685 -0.976991 0
M  V30 29721 H 2801.7 2.05402 -1.5546 0
M  V30 29722 H 2801.66 3.13718 -0.206967 0
M  V30 29723 N 2805.43 1.51555 0.432299 0
M  V30 29724 C 2806.84 1.56894 1.01199 0
M  V30 29725 C 2807.2 0.395428 1.92174 0
M  V30 29726 O 2806.32 -0.487161 2.10845 0
M  V30 29727 C 2806.92 2.84344 1.84212 0
M  V30 29728 C 2805.47 2.92237 2.37223 0
M  V30 29729 C 2804.62 2.51608 1.16571 0
M  V30 29730 H 2807.57 1.57259 0.21338 0
M  V30 29731 H 2807.59 2.6839 2.69717 0
M  V30 29732 H 2807.11 3.69735 1.17973 0
M  V30 29733 H 2805.21 2.11287 3.06902 0
M  V30 29734 H 2805.32 3.95995 2.69675 0
M  V30 29735 H 2803.68 2.04921 1.51259 0
M  V30 29736 H 2804.47 3.39349 0.519344 0
M  V30 29737 N 2806.91 -0.688069 1.41786 0
M  V30 29738 C 2808.16 -1.44527 1.41267 0
M  V30 29739 C 2808.48 -1.94984 0.0253289 0
M  V30 29740 O 2807.75 -1.72198 -0.934051 0
M  V30 29741 H 2806.33 -0.536285 0.520007 0
M  V30 29742 H 2808.99 -0.81391 1.77092 0
M  V30 29743 H 2808.09 -2.30478 2.10443 0
M  V30 29744 N 2808.39 -1.27739 -0.923072 0
M  V30 29745 C 2809.64 -1.14517 -1.67373 0
M  V30 29746 C 2809.97 0.307391 -1.91752 0
M  V30 29747 O 2809.24 1.22444 -1.51121 0
M  V30 29748 C 2809.53 -1.93425 -3.03741 0
M  V30 29749 C 2809.38 -3.46691 -2.86575 0
M  V30 29750 C 2810.7 -1.74235 -4.04141 0
M  V30 29751 H 2807.82 -0.417385 -0.60742 0
M  V30 29752 H 2810.46 -1.56948 -1.07086 0
M  V30 29753 H 2808.61 -1.57366 -3.55201 0
M  V30 29754 H 2810.28 -3.92605 -2.42196 0
M  V30 29755 H 2808.52 -3.72797 -2.21822 0
M  V30 29756 H 2809.2 -3.9715 -3.83374 0
M  V30 29757 H 2811.67 -2.05684 -3.61709 0
M  V30 29758 H 2810.55 -2.31833 -4.97539 0
M  V30 29759 H 2810.81 -0.691449 -4.36659 0
M  V30 29760 N 2809.87 1.13022 -1.09836 0
M  V30 29761 C 2811.11 1.84666 -0.838222 0
M  V30 29762 C 2811.45 1.83538 0.634613 0
M  V30 29763 O 2810.72 1.27649 1.46751 0
M  V30 29764 C 2811.01 3.32633 -1.37938 0
M  V30 29765 C 2810.86 3.42251 -2.91863 0
M  V30 29766 C 2812.18 4.28197 -1.01662 0
M  V30 29767 H 2809.3 0.67049 -0.305962 0
M  V30 29768 H 2811.94 1.32633 -1.36046 0
M  V30 29769 H 2810.09 3.77077 -0.935177 0
M  V30 29770 H 2811.76 3.06489 -3.44764 0
M  V30 29771 H 2810 2.82994 -3.28781 0
M  V30 29772 H 2810.67 4.46323 -3.24807 0
M  V30 29773 H 2813.15 3.91848 -1.3998 0
M  V30 29774 H 2812.03 5.30154 -1.42226 0
M  V30 29775 H 2812.29 4.42037 0.0747017 0
M  V30 29776 N 2811.35 0.886177 1.30325 0
M  V30 29777 C 2812.57 0.520211 2.00253 0
M  V30 29778 C 2812.99 -0.891608 1.66421 0
M  V30 29779 O 2812.35 -1.58652 0.901979 0
M  V30 29780 C 2812.4 0.686837 3.54915 0
M  V30 29781 O 2812.12 2.04307 3.87544 0
M  V30 29782 C 2813.62 0.324022 4.42114 0
M  V30 29783 H 2810.84 0.200958 0.640201 0
M  V30 29784 H 2813.38 1.19181 1.66181 0
M  V30 29785 H 2811.54 0.0625954 3.87349 0
M  V30 29786 H 2811.95 2.06257 4.82243 0
M  V30 29787 H 2813.43 0.491503 5.49807 0
M  V30 29788 H 2813.9 -0.738034 4.32955 0
M  V30 29789 H 2814.51 0.924638 4.15127 0
M  V30 29790 N 2812.82 -1.43695 0.647253 0
M  V30 29791 C 2814.07 -2.01482 0.157911 0
M  V30 29792 C 2814.39 -1.51285 -1.23036 0
M  V30 29793 O 2813.66 -0.723014 -1.8207 0
M  V30 29794 H 2812.24 -0.744944 0.0553876 0
M  V30 29795 H 2814.91 -1.75985 0.837581 0
M  V30 29796 H 2814 -3.11795 0.13795 0
M  V30 29797 N 2814.3 -0.388796 -1.52729 0
M  V30 29798 C 2815.53 0.196174 -2.0647 0
M  V30 29799 C 2815.95 1.39782 -1.25868 0
M  V30 29800 O 2815.31 1.79068 -0.283594 0
M  V30 29801 C 2815.36 0.545037 -3.56457 0
M  V30 29802 O 2814.46 1.63906 -3.78429 0
M  V30 29803 H 2813.8 0.0230553 -0.6636 0
M  V30 29804 H 2816.33 -0.556119 -1.96897 0
M  V30 29805 H 2816.34 0.809487 -3.99889 0
M  V30 29806 H 2815.02 -0.333489 -4.14561 0
M  V30 29807 H 2813.6 1.36836 -3.46887 0
M  V30 29808 N 2815.78 1.57153 -0.118604 0
M  V30 29809 C 2816.74 2.14128 0.817427 0
M  V30 29810 C 2817.74 1.07606 1.19488 0
M  V30 29811 O 2818.93 1.33384 1.12046 0
M  V30 29812 C 2816.07 2.68118 2.10536 0
M  V30 29813 H 2817.26 2.98163 0.322286 0
M  V30 29814 H 2814.81 1.55753 0.130628 0
M  V30 29815 H 2815.55 1.8767 2.64482 0
M  V30 29816 H 2815.33 3.46023 1.84419 0
M  V30 29817 H 2816.82 3.1211 2.77448 0
M  V30 29818 N 2817.26 -0.155167 1.56834 0
M  V30 29819 C 2818.5 -0.870435 1.8317 0
M  V30 29820 C 2818.84 -1.81185 0.698961 0
M  V30 29821 O 2818.11 -1.92204 -0.298001 0
M  V30 29822 C 2818.4 -1.65205 3.19968 0
M  V30 29823 C 2818.25 -0.732666 4.43793 0
M  V30 29824 C 2819.57 -2.6163 3.5389 0
M  V30 29825 H 2816.69 -0.314995 0.666294 0
M  V30 29826 H 2819.33 -0.135954 1.89513 0
M  V30 29827 H 2817.48 -2.27819 3.14691 0
M  V30 29828 H 2819.15 -0.118154 4.61149 0
M  V30 29829 H 2817.39 -0.0417143 4.3378 0
M  V30 29830 H 2818.06 -1.31542 5.36098 0
M  V30 29831 H 2820.54 -2.09136 3.59724 0
M  V30 29832 H 2819.42 -3.13374 4.50653 0
M  V30 29833 H 2819.68 -3.426 2.79424 0
M  V30 29834 N 2818.74 -1.51782 -0.424256 0
M  V30 29835 C 2819.98 -1.64771 -1.17025 0
M  V30 29836 C 2820.31 -0.372557 -1.91408 0
M  V30 29837 O 2819.58 0.612076 -1.86093 0
M  V30 29838 H 2818.16 -0.607289 -0.434981 0
M  V30 29839 H 2820.82 -1.88766 -0.485135 0
M  V30 29840 H 2819.91 -2.48163 -1.89266 0
M  V30 29841 N 2820.21 0.68054 -1.42149 0
M  V30 29842 C 2821.45 1.45269 -1.43793 0
M  V30 29843 C 2821.82 1.91934 -0.0504764 0
M  V30 29844 O 2823.02 2.68737 0.0583444 0
M  V30 29845 C 2821.29 2.62164 -2.42909 0
M  V30 29846 S 2822.85 3.51095 -2.63207 0
M  V30 29847 H 2819.67 0.496228 -0.509194 0
M  V30 29848 H 2822.27 0.792713 -1.78707 0
M  V30 29849 H 2820.97 2.2611 -3.42494 0
M  V30 29850 H 2820.5 3.3304 -2.09399 0
M  V30 29851 H 2822.52 4.57935 -1.91076 0
M  V30 29852 N 2821.69 1.28226 0.916285 0
M  V30 29853 C 2822.97 1.05939 1.64427 0
M  V30 29854 C 2823.35 -0.402103 2.07235 0
M  V30 29855 O 2822.7 -1.38767 1.81538 0
M  V30 29856 C 2822.91 2.03164 2.8377 0
M  V30 29857 C 2824.26 2.3317 3.54848 0
M  V30 29858 O 2825.28 2.01228 2.93914 0
M  V30 29859 O 2824.14 2.87672 4.64658 0
M  V30 29860 H 2821.23 0.404696 0.721214 0
M  V30 29861 H 2823.78 1.39535 0.965813 0
M  V30 29862 H 2822.55 3.01677 2.49212 0
M  V30 29863 H 2822.17 1.70198 3.5933 0
M  V30 29864 N 2823.17 -1.12438 1.10433 0
M  V30 29865 C 2824.58 -1.65481 0.864468 0
M  V30 29866 C 2824.93 -1.86631 -0.605237 0
M  V30 29867 O 2824.06 -1.59279 -1.46489 0
M  V30 29868 C 2824.65 -3.00607 1.56272 0
M  V30 29869 C 2823.21 -3.506 1.36956 0
M  V30 29870 C 2822.36 -2.25623 1.61213 0
M  V30 29871 H 2825.31 -0.962187 1.26205 0
M  V30 29872 H 2825.33 -3.67077 1.00172 0
M  V30 29873 H 2824.84 -2.85181 2.63237 0
M  V30 29874 H 2822.94 -3.7121 0.321546 0
M  V30 29875 H 2823.06 -4.30061 2.11151 0
M  V30 29876 H 2821.42 -2.32729 1.03486 0
M  V30 29877 H 2822.2 -2.12751 2.69429 0
M  V30 29878 N 2824.65 -0.893076 -1.29853 0
M  V30 29879 C 2825.56 -0.370198 -2.31661 0
M  V30 29880 C 2826.58 0.531694 -1.65677 0
M  V30 29881 O 2827.75 0.422868 -1.96911 0
M  V30 29882 C 2824.82 0.39968 -3.44389 0
M  V30 29883 C 2823.88 -0.532936 -4.25979 0
M  V30 29884 C 2823.11 0.200294 -5.33324 0
M  V30 29885 O 2823.33 1.42522 -5.52308 0
M  V30 29886 O 2822.27 -0.453774 -6.00187 0
M  V30 29887 H 2826.09 -1.21465 -2.78352 0
M  V30 29888 H 2823.68 -0.657176 -1.3417 0
M  V30 29889 H 2825.56 0.835285 -4.13039 0
M  V30 29890 H 2824.24 1.2203 -2.99817 0
M  V30 29891 H 2823.14 -1.01752 -3.59996 0
M  V30 29892 H 2824.48 -1.31978 -4.74176 0
M  V30 29893 N 2826.13 1.4335 -0.654865 0
M  V30 29894 C 2827.36 2.06144 -0.176721 0
M  V30 29895 C 2827.77 1.49095 1.15828 0
M  V30 29896 O 2827.13 0.622898 1.71541 0
M  V30 29897 C 2827.18 3.61408 -0.0813961 0
M  V30 29898 O 2826.9 4.16337 -1.36363 0
M  V30 29899 C 2828.4 4.41281 0.422628 0
M  V30 29900 H 2825.62 0.664848 -0.0906546 0
M  V30 29901 H 2828.16 1.83827 -0.895977 0
M  V30 29902 H 2826.32 3.82905 0.588428 0
M  V30 29903 H 2826.73 5.1002 -1.2239 0
M  V30 29904 H 2828.21 5.50257 0.438278 0
M  V30 29905 H 2828.68 4.14425 1.45424 0
M  V30 29906 H 2829.29 4.24757 -0.214762 0
M  V30 29907 N 2827.61 0.39689 1.52521 0
M  V30 29908 C 2828.85 -0.182862 2.01673 0
M  V30 29909 C 2829.18 -1.46179 1.28305 0
M  V30 29910 O 2828.44 -1.9209 0.374152 0
M  V30 29911 C 2828.73 -0.489614 3.5403 0
M  V30 29912 C 2828.4 0.698659 4.45454 0
M  V30 29913 C 2827.06 1.02463 4.70165 0
M  V30 29914 C 2829.41 1.49325 4.99351 0
M  V30 29915 C 2826.74 2.1466 5.4602 0
M  V30 29916 C 2829.09 2.60589 5.76434 0
M  V30 29917 C 2827.76 2.93685 5.99421 0
M  V30 29918 H 2827.03 -0.0669141 0.737973 0
M  V30 29919 H 2829.68 0.535796 1.83852 0
M  V30 29920 H 2827.98 -1.28969 3.69965 0
M  V30 29921 H 2829.68 -0.95095 3.89561 0
M  V30 29922 H 2826.27 0.4346 4.26391 0
M  V30 29923 H 2830.45 1.25465 4.80179 0
M  V30 29924 H 2825.71 2.40664 5.62042 0
M  V30 29925 H 2829.88 3.22555 6.17196 0
M  V30 29926 H 2827.51 3.80742 6.57981 0
M  V30 29927 N 2829.08 -1.57088 0.126936 0
M  V30 29928 C 2830.33 -1.96544 -0.523628 0
M  V30 29929 C 2830.68 -1.00963 -1.63781 0
M  V30 29930 O 2829.98 -0.0410512 -1.91556 0
M  V30 29931 C 2830.17 -3.40214 -1.09494 0
M  V30 29932 C 2830 -4.49684 -0.037636 0
M  V30 29933 C 2828.77 -5.03739 0.396912 0
M  V30 29934 C 2830.97 -5.08856 0.746334 0
M  V30 29935 N 2828.95 -5.96793 1.43916 0
M  V30 29936 C 2830.32 -5.97928 1.63957 0
M  V30 29937 C 2832.38 -4.9149 0.796346 0
M  V30 29938 C 2831.08 -6.71496 2.57849 0
M  V30 29939 C 2833.11 -5.65744 1.723 0
M  V30 29940 C 2832.47 -6.54509 2.6038 0
M  V30 29941 H 2828.57 -0.765246 -0.161003 0
M  V30 29942 H 2831.15 -1.93488 0.216894 0
M  V30 29943 H 2829.32 -3.43903 -1.80515 0
M  V30 29944 H 2831.05 -3.66776 -1.71047 0
M  V30 29945 H 2827.81 -4.736 0.00298731 0
M  V30 29946 H 2828.23 -6.48024 1.95944 0
M  V30 29947 H 2832.87 -4.22602 0.129487 0
M  V30 29948 H 2830.59 -7.39626 3.25545 0
M  V30 29949 H 2834.18 -5.5431 1.76724 0
M  V30 29950 H 2833.06 -7.10959 3.30919 0
M  V30 29951 N 2830.56 0.146848 -1.56914 0
M  V30 29952 C 2831.79 0.878353 -1.87882 0
M  V30 29953 C 2832.21 1.73941 -0.715975 0
M  V30 29954 O 2831.57 1.78189 0.334416 0
M  V30 29955 C 2831.62 1.71078 -3.17434 0
M  V30 29956 O 2830.72 2.81504 -3.01379 0
M  V30 29957 H 2830.06 0.244633 -0.617293 0
M  V30 29958 H 2832.59 0.137618 -2.04137 0
M  V30 29959 H 2832.6 2.10576 -3.49459 0
M  V30 29960 H 2831.28 1.07849 -4.01673 0
M  V30 29961 H 2829.85 2.45411 -2.80763 0
M  V30 29962 N 2832.04 1.52005 0.4162 0
M  V30 29963 C 2832.99 1.74841 1.50663 0
M  V30 29964 C 2833.96 0.590626 1.55244 0
M  V30 29965 O 2835.14 0.827405 1.71926 0
M  V30 29966 C 2832.28 1.89856 2.88182 0
M  V30 29967 C 2831.39 3.17483 2.92965 0
M  V30 29968 C 2830.53 3.2297 4.21739 0
M  V30 29969 C 2829.57 4.44827 4.2047 0
M  V30 29970 N 2828.71 4.47746 5.40803 0
M  V30 29971 H 2833.55 2.6791 1.30493 0
M  V30 29972 H 2831.08 1.32758 0.633544 0
M  V30 29973 H 2833.04 1.96544 3.68003 0
M  V30 29974 H 2831.67 1.00174 3.06863 0
M  V30 29975 H 2830.72 3.20001 2.05678 0
M  V30 29976 H 2832.03 4.07333 2.87891 0
M  V30 29977 H 2831.19 3.28691 5.09948 0
M  V30 29978 H 2829.93 2.31046 4.29499 0
M  V30 29979 H 2828.93 4.3926 3.30652 0
M  V30 29980 H 2830.16 5.38039 4.14356 0
M  V30 29981 H 2828.1 3.58702 5.49244 0
M  V30 29982 H 2828.02 5.31432 5.37695 0
M  V30 29983 H 2829.29 4.57687 6.30985 0
M  V30 29984 N 2833.52 -0.672992 1.42508 0
M  V30 29985 C 2834.77 -1.4288 1.42366 0
M  V30 29986 C 2835.08 -1.9555 0.0441942 0
M  V30 29987 O 2836.29 -2.71383 -0.0798202 0
M  V30 29988 C 2834.74 -2.58477 2.50435 0
M  V30 29989 C 2834.35 -2.12499 3.94396 0
M  V30 29990 C 2836.09 -3.35976 2.59461 0
M  V30 29991 C 2834 -3.25189 4.9397 0
M  V30 29992 H 2832.93 -0.536773 0.52952 0
M  V30 29993 H 2835.58 -0.728418 1.68423 0
M  V30 29994 H 2833.96 -3.30892 2.17546 0
M  V30 29995 H 2835.14 -1.47225 4.36648 0
M  V30 29996 H 2833.45 -1.47933 3.89236 0
M  V30 29997 H 2836.05 -4.19906 3.31033 0
M  V30 29998 H 2836.39 -3.82689 1.63875 0
M  V30 29999 H 2836.93 -2.70632 2.91553 0
M  V30 30000 H 2833.66 -2.83466 5.91039 0
M  V30 30001 H 2833.18 -3.89239 4.56348 0
M  V30 30002 H 2834.86 -3.90628 5.1577 0
M  V30 30003 N 2835 -1.2871 -0.909472 0
M  V30 30004 C 2836.41 -1.14565 -1.47417 0
M  V30 30005 C 2836.76 0.262798 -1.94432 0
M  V30 30006 O 2835.88 1.15745 -1.82845 0
M  V30 30007 C 2836.48 -2.07363 -2.67929 0
M  V30 30008 C 2835.04 -1.97269 -3.20565 0
M  V30 30009 C 2834.18 -1.98856 -1.93266 0
M  V30 30010 H 2837.13 -1.41337 -0.721762 0
M  V30 30011 H 2837.16 -1.64013 -3.43336 0
M  V30 30012 H 2836.67 -3.09864 -2.3368 0
M  V30 30013 H 2834.77 -0.97822 -3.5953 0
M  V30 30014 H 2834.88 -2.84443 -3.85524 0
M  V30 30015 H 2833.25 -1.43321 -2.1055 0
M  V30 30016 H 2834.03 -3.03043 -1.61306 0
M  V30 30017 N 2836.47 1.1185 -1.11028 0
M  V30 30018 C 2837.72 1.83767 -0.857762 0
M  V30 30019 C 2838.05 1.84201 0.61511 0
M  V30 30020 O 2837.33 1.29199 1.45389 0
M  V30 30021 C 2837.61 3.31152 -1.41459 0
M  V30 30022 C 2837.46 3.39137 -2.95477 0
M  V30 30023 C 2838.78 4.27095 -1.06198 0
M  V30 30024 H 2835.9 0.667207 -0.313056 0
M  V30 30025 H 2838.54 1.31182 -1.37445 0
M  V30 30026 H 2836.69 3.76063 -0.975118 0
M  V30 30027 H 2838.37 3.02815 -3.47995 0
M  V30 30028 H 2836.61 2.79491 -3.31764 0
M  V30 30029 H 2837.28 4.42853 -3.29523 0
M  V30 30030 H 2839.76 3.90341 -1.44128 0
M  V30 30031 H 2838.63 5.28615 -1.47841 0
M  V30 30032 H 2838.89 4.42091 0.0278135 0
M  V30 30033 N 2837.95 0.89995 1.29378 0
M  V30 30034 C 2838.88 0.322425 2.25911 0
M  V30 30035 C 2839.86 -0.56554 1.52448 0
M  V30 30036 O 2841.05 -0.512292 1.81405 0
M  V30 30037 C 2838.17 -0.540396 3.34361 0
M  V30 30038 C 2837.22 0.280286 4.25578 0
M  V30 30039 S 2838.05 1.67823 5.08523 0
M  V30 30040 C 2839.21 0.822333 6.20474 0
M  V30 30041 H 2839.44 1.14065 2.74548 0
M  V30 30042 H 2836.97 0.700309 1.37605 0
M  V30 30043 H 2838.93 -1.03243 3.97305 0
M  V30 30044 H 2837.59 -1.33286 2.84418 0
M  V30 30045 H 2836.79 -0.378827 5.02574 0
M  V30 30046 H 2836.39 0.705469 3.67286 0
M  V30 30047 H 2838.68 0.0458329 6.77484 0
M  V30 30048 H 2839.62 1.56439 6.90603 0
M  V30 30049 H 2840.03 0.376609 5.63242 0
M  V30 30050 N 2839.43 -1.43001 0.662458 0
M  V30 30051 C 2840.36 -2.33498 -0.00975705 0
M  V30 30052 C 2841.34 -1.4999 -0.802303 0
M  V30 30053 O 2842.53 -1.78629 -0.761932 0
M  V30 30054 C 2839.66 -3.33468 -0.970388 0
M  V30 30055 C 2838.61 -4.27035 -0.287308 0
M  V30 30056 C 2837.94 -5.17114 -1.36003 0
M  V30 30057 C 2839.24 -5.15727 0.826041 0
M  V30 30058 H 2840.93 -2.89957 0.74601 0
M  V30 30059 H 2838.48 -1.39422 0.360197 0
M  V30 30060 H 2840.43 -3.95681 -1.44964 0
M  V30 30061 H 2839.15 -2.75285 -1.75743 0
M  V30 30062 H 2837.81 -3.66198 0.171584 0
M  V30 30063 H 2837.46 -4.55266 -2.13874 0
M  V30 30064 H 2837.16 -5.80539 -0.908174 0
M  V30 30065 H 2838.68 -5.82202 -1.84045 0
M  V30 30066 H 2840.1 -5.71696 0.428551 0
M  V30 30067 H 2838.5 -5.8792 1.20292 0
M  V30 30068 H 2839.57 -4.54863 1.68011 0
M  V30 30069 N 2840.91 -0.404973 -1.52308 0
M  V30 30070 C 2842.19 0.23051 -1.94237 0
M  V30 30071 C 2842.57 1.62988 -1.34157 0
M  V30 30072 O 2841.91 2.22603 -0.515752 0
M  V30 30073 C 2842.12 0.241045 -3.48167 0
M  V30 30074 C 2843.47 0.462414 -4.22075 0
M  V30 30075 O 2844.5 0.320581 -3.54754 0
M  V30 30076 O 2843.35 0.741613 -5.41445 0
M  V30 30077 H 2840.45 0.147343 -0.813768 0
M  V30 30078 H 2842.99 -0.460615 -1.63329 0
M  V30 30079 H 2841.77 -0.738535 -3.84267 0
M  V30 30080 H 2841.39 0.976443 -3.85424 0
M  V30 30081 N 2842.39 1.57018 -0.135265 0
M  V30 30082 C 2843.63 1.95356 0.517735 0
M  V30 30083 C 2843.96 1.02045 1.66168 0
M  V30 30084 O 2843.23 0.0797687 1.95738 0
M  V30 30085 H 2841.81 0.721301 0.194252 0
M  V30 30086 H 2844.47 1.93787 -0.208017 0
M  V30 30087 H 2843.56 2.98793 0.901622 0
M  V30 30088 N 2843.86 -0.138524 1.5699 0
M  V30 30089 C 2845.14 -0.87888 1.74743 0
M  V30 30090 C 2845.52 -1.9896 0.705557 0
M  V30 30091 O 2844.87 -2.26851 -0.274026 0
M  V30 30092 C 2845.08 -1.41355 3.19092 0
M  V30 30093 C 2846.43 -1.87362 3.81026 0
M  V30 30094 O 2847.45 -1.51078 3.22574 0
M  V30 30095 O 2846.31 -2.54304 4.83727 0
M  V30 30096 H 2843.4 -0.41594 0.714788 0
M  V30 30097 H 2845.95 -0.123787 1.69248 0
M  V30 30098 H 2844.72 -0.615722 3.86425 0
M  V30 30099 H 2844.35 -2.23191 3.29047 0
M  V30 30100 N 2845.34 -1.52224 -0.408133 0
M  V30 30101 C 2846.58 -1.68009 -1.16415 0
M  V30 30102 C 2846.95 -0.401826 -1.87748 0
M  V30 30103 O 2848.15 -0.43579 -2.65244 0
M  V30 30104 C 2846.42 -2.86892 -2.13137 0
M  V30 30105 S 2847.98 -3.23165 -2.96833 0
M  V30 30106 H 2844.8 -0.591607 -0.394363 0
M  V30 30107 H 2847.4 -1.90219 -0.451316 0
M  V30 30108 H 2846.1 -3.78171 -1.59422 0
M  V30 30109 H 2845.63 -2.66958 -2.88959 0
M  V30 30110 H 2847.65 -2.71864 -4.15095 0
M  V30 30111 N 2846.82 0.665425 -1.42863 0
M  V30 30112 C 2848.07 1.42123 -1.43122 0
M  V30 30113 C 2848.38 1.95524 -0.054564 0
M  V30 30114 O 2849.59 2.71421 0.065427 0
M  V30 30115 C 2848.04 2.57145 -2.51802 0
M  V30 30116 C 2847.65 2.10404 -3.95517 0
M  V30 30117 C 2849.4 3.34596 -2.61239 0
M  V30 30118 C 2847.3 3.22565 -4.95687 0
M  V30 30119 H 2846.23 0.533957 -0.532359 0
M  V30 30120 H 2848.88 0.719476 -1.68807 0
M  V30 30121 H 2847.27 3.29734 -2.19298 0
M  V30 30122 H 2848.44 1.44907 -4.37423 0
M  V30 30123 H 2846.76 1.45867 -3.90015 0
M  V30 30124 H 2849.35 4.18145 -3.33255 0
M  V30 30125 H 2849.7 3.81814 -1.65903 0
M  V30 30126 H 2850.23 2.69082 -2.92984 0
M  V30 30127 H 2846.97 2.80328 -5.92534 0
M  V30 30128 H 2846.49 3.86813 -4.58406 0
M  V30 30129 H 2848.17 3.87887 -5.17834 0
M  V30 30130 N 2848.3 1.29191 0.902633 0
M  V30 30131 C 2849.23 1.08393 2.00814 0
M  V30 30132 C 2850.21 -0.00332408 1.626 0
M  V30 30133 O 2851.39 0.146798 1.87928 0
M  V30 30134 C 2848.52 0.649493 3.32414 0
M  V30 30135 C 2847.57 1.73503 3.89614 0
M  V30 30136 S 2848.4 3.33358 4.19085 0
M  V30 30137 C 2849.56 2.91775 5.53731 0
M  V30 30138 H 2849.79 2.01988 2.18147 0
M  V30 30139 H 2847.32 1.13305 1.04888 0
M  V30 30140 H 2849.28 0.40555 4.08492 0
M  V30 30141 H 2847.94 -0.266802 3.12965 0
M  V30 30142 H 2847.13 1.38293 4.84656 0
M  V30 30143 H 2846.74 1.93234 3.20213 0
M  V30 30144 H 2849.03 2.38638 6.34081 0
M  V30 30145 H 2849.97 3.85657 5.93864 0
M  V30 30146 H 2850.38 2.30158 5.15449 0
M  V30 30147 N 2849.78 -1.1126 1.1162 0
M  V30 30148 C 2850.74 -2.15538 0.779485 0
M  V30 30149 C 2851.74 -1.59525 -0.202053 0
M  V30 30150 O 2852.93 -1.74185 0.0226663 0
M  V30 30151 C 2850.06 -3.40539 0.1568 0
M  V30 30152 H 2851.25 -2.46837 1.70328 0
M  V30 30153 H 2848.81 -1.26478 0.918321 0
M  V30 30154 H 2849.54 -3.14851 -0.77713 0
M  V30 30155 H 2849.33 -3.82476 0.863375 0
M  V30 30156 H 2850.82 -4.17553 -0.0625876 0
M  V30 30157 N 2851.25 -0.906798 -1.28899 0
M  V30 30158 C 2852.5 -0.53636 -1.95268 0
M  V30 30159 C 2852.83 0.918681 -1.71437 0
M  V30 30160 O 2852.08 1.66751 -1.02434 0
M  V30 30161 C 2852.38 -0.783678 -3.48702 0
M  V30 30162 C 2852.05 -2.21718 -3.92622 0
M  V30 30163 C 2850.71 -2.60913 -4.04324 0
M  V30 30164 C 2853.06 -3.15036 -4.15213 0
M  V30 30165 C 2850.39 -3.92592 -4.35991 0
M  V30 30166 C 2852.74 -4.46272 -4.48357 0
M  V30 30167 C 2851.41 -4.8533 -4.5827 0
M  V30 30168 H 2850.68 -0.196268 -0.714535 0
M  V30 30169 H 2853.32 -1.1468 -1.53364 0
M  V30 30170 H 2851.63 -0.0903737 -3.91696 0
M  V30 30171 H 2853.33 -0.476337 -3.98161 0
M  V30 30172 H 2849.92 -1.90302 -3.84035 0
M  V30 30173 H 2854.1 -2.85967 -4.05631 0
M  V30 30174 H 2849.36 -4.22564 -4.4187 0
M  V30 30175 H 2853.53 -5.18601 -4.64786 0
M  V30 30176 H 2851.16 -5.87399 -4.82562 0
M  V30 30177 N 2852.73 1.42648 -0.670032 0
M  V30 30178 C 2854.01 1.95235 -0.119485 0
M  V30 30179 C 2854.39 1.61066 1.36458 0
M  V30 30180 O 2853.74 0.904366 2.09842 0
M  V30 30181 C 2853.95 3.46886 -0.383559 0
M  V30 30182 C 2855.3 4.23556 -0.297505 0
M  V30 30183 O 2856.32 3.54786 -0.317042 0
M  V30 30184 O 2855.18 5.45992 -0.235603 0
M  V30 30185 H 2852.27 0.827 -0.000103084 0
M  V30 30186 H 2854.82 1.525 -0.744433 0
M  V30 30187 H 2853.59 3.64943 -1.41181 0
M  V30 30188 H 2853.21 3.96657 0.273632 0
M  V30 30189 N 2854.21 0.413044 1.52091 0
M  V30 30190 C 2855.44 -0.160612 2.05975 0
M  V30 30191 C 2855.85 -1.39082 1.28269 0
M  V30 30192 O 2855.19 -1.80733 0.328836 0
M  V30 30193 C 2855.25 -0.572107 3.54919 0
M  V30 30194 C 2854.92 0.547906 4.53704 0
M  V30 30195 C 2855.92 1.41268 5.00339 0
M  V30 30196 C 2853.6 0.721714 4.97088 0
M  V30 30197 C 2855.59 2.43617 5.89007 0
M  V30 30198 C 2853.28 1.74851 5.85551 0
M  V30 30199 C 2854.28 2.60415 6.31406 0
M  V30 30200 O 2853.97 3.61335 7.18117 0
M  V30 30201 H 2853.7 -0.0221817 0.675636 0
M  V30 30202 H 2856.25 0.583765 1.9693 0
M  V30 30203 H 2854.48 -1.36883 3.61663 0
M  V30 30204 H 2856.17 -1.07413 3.9143 0
M  V30 30205 H 2856.94 1.28982 4.67535 0
M  V30 30206 H 2852.82 0.0653721 4.60954 0
M  V30 30207 H 2856.36 3.10436 6.2472 0
M  V30 30208 H 2852.26 1.87167 6.17769 0
M  V30 30209 H 2853.03 3.57626 7.36238 0
M  V30 30210 N 2855.69 -1.56945 0.143591 0
M  V30 30211 C 2856.92 -2.00377 -0.515412 0
M  V30 30212 C 2857.33 -1.02364 -1.58641 0
M  V30 30213 O 2856.69 -0.020136 -1.82489 0
M  V30 30214 C 2856.74 -3.43739 -1.11917 0
M  V30 30215 O 2856.46 -4.38006 -0.0909548 0
M  V30 30216 C 2857.96 -4.02432 -1.85911 0
M  V30 30217 H 2855.18 -0.657389 -0.134466 0
M  V30 30218 H 2857.73 -2.0312 0.23717 0
M  V30 30219 H 2855.88 -3.41859 -1.82239 0
M  V30 30220 H 2856.3 -5.21787 -0.532825 0
M  V30 30221 H 2857.77 -5.04751 -2.23451 0
M  V30 30222 H 2858.25 -3.42952 -2.74374 0
M  V30 30223 H 2858.85 -4.07933 -1.20296 0
M  V30 30224 N 2857.17 0.130197 -1.57061 0
M  V30 30225 C 2858.12 1.17929 -2.00488 0
M  V30 30226 C 2859.11 1.43517 -0.899959 0
M  V30 30227 O 2860.32 1.43611 -1.08516 0
M  V30 30228 H 2856.69 0.397351 -0.638448 0
M  V30 30229 H 2858.66 0.78645 -2.8785 0
M  V30 30230 C 2857.41 2.50079 -2.41569 0
M  V30 30231 H 2856.73 2.31225 -3.26152 0
M  V30 30232 H 2858.17 3.22073 -2.75763 0
M  V30 30233 C 2856.63 3.11846 -1.2749 0
M  V30 30234 O 2857.16 3.97421 -0.584758 0
M  V30 30235 N 2855.37 2.71551 -1.03482 0
M  V30 30236 H 2854.92 2.02058 -1.59782 0
M  V30 30237 H 2854.87 3.13208 -0.273465 0
M  V30 30238 N 2858.65 1.52438 0.400055 0
M  V30 30239 C 2859.88 1.70555 1.16595 0
M  V30 30240 C 2860.28 0.418698 1.84509 0
M  V30 30241 O 2859.63 -0.615825 1.7307 0
M  V30 30242 C 2859.69 2.79164 2.26512 0
M  V30 30243 C 2859.35 4.20631 1.78658 0
M  V30 30244 C 2860.35 5.04166 1.26937 0
M  V30 30245 C 2858.03 4.66905 1.85217 0
M  V30 30246 C 2860.03 6.3205 0.824076 0
M  V30 30247 C 2857.72 5.94777 1.40299 0
M  V30 30248 C 2858.71 6.77179 0.889803 0
M  V30 30249 O 2858.4 8.02656 0.44714 0
M  V30 30250 H 2858.13 0.574657 0.356013 0
M  V30 30251 H 2860.69 1.99819 0.475562 0
M  V30 30252 H 2858.92 2.45297 2.98942 0
M  V30 30253 H 2860.61 2.85792 2.88232 0
M  V30 30254 H 2861.37 4.69603 1.21236 0
M  V30 30255 H 2857.25 4.02863 2.24104 0
M  V30 30256 H 2860.8 6.96317 0.422835 0
M  V30 30257 H 2856.69 6.28846 1.45682 0
M  V30 30258 H 2857.46 8.16515 0.569625 0
M  V30 30259 N 2860.12 -0.657839 1.43214 0
M  V30 30260 C 2861.4 -1.41481 1.35065 0
M  V30 30261 C 2861.78 -2.111 -0.00379429 0
M  V30 30262 O 2861.13 -2.04463 -1.02015 0
M  V30 30263 C 2861.34 -2.40331 2.53065 0
M  V30 30264 C 2862.69 -3.04469 2.95945 0
M  V30 30265 O 2863.71 -2.50658 2.53079 0
M  V30 30266 O 2862.57 -4.02021 3.70191 0
M  V30 30267 H 2859.66 -0.631883 0.533528 0
M  V30 30268 H 2862.21 -0.685135 1.55255 0
M  V30 30269 H 2860.98 -1.87803 3.43287 0
M  V30 30270 H 2860.6 -3.20755 2.34951 0
M  V30 30271 N 2861.6 -1.29668 -0.895769 0
M  V30 30272 C 2862.85 -1.17634 -1.64337 0
M  V30 30273 C 2863.17 0.271609 -1.93099 0
M  V30 30274 O 2862.44 1.18516 -1.55984 0
M  V30 30275 H 2861.02 -0.432365 -0.609155 0
M  V30 30276 H 2863.68 -1.62648 -1.07386 0
M  V30 30277 H 2862.78 -1.72929 -2.59812 0
M  V30 30278 N 2863.08 1.10667 -1.12208 0
M  V30 30279 C 2864.3 1.86904 -0.898971 0
M  V30 30280 C 2864.73 1.79992 0.546314 0
M  V30 30281 O 2864.09 1.16812 1.38653 0
M  V30 30282 C 2864.14 3.33342 -1.37534 0
M  V30 30283 O 2863.24 4.08686 -0.552252 0
M  V30 30284 H 2862.58 0.580048 -0.323173 0
M  V30 30285 H 2865.11 1.39834 -1.49357 0
M  V30 30286 H 2865.12 3.84191 -1.37337 0
M  V30 30287 H 2863.8 3.37689 -2.42773 0
M  V30 30288 H 2862.37 3.67693 -0.621012 0
M  V30 30289 N 2864.56 0.913621 1.28416 0
M  V30 30290 C 2865.81 0.542606 1.94264 0
M  V30 30291 C 2866.12 -0.918176 1.7271 0
M  V30 30292 O 2867.33 -1.39734 2.3278 0
M  V30 30293 C 2865.78 0.919568 3.47954 0
M  V30 30294 C 2865.39 2.40007 3.78287 0
M  V30 30295 C 2867.13 0.619131 4.19961 0
M  V30 30296 C 2865.04 2.71716 5.25285 0
M  V30 30297 H 2863.97 0.199205 0.727209 0
M  V30 30298 H 2866.62 1.11252 1.45929 0
M  V30 30299 H 2865 0.278442 3.9502 0
M  V30 30300 H 2866.18 3.08792 3.4203 0
M  V30 30301 H 2864.49 2.67095 3.19452 0
M  V30 30302 H 2867.09 0.832716 5.28176 0
M  V30 30303 H 2867.43 -0.443053 4.13936 0
M  V30 30304 H 2867.97 1.21872 3.78671 0
M  V30 30305 H 2864.7 3.76788 5.36387 0
M  V30 30306 H 2864.22 2.07569 5.62739 0
M  V30 30307 H 2865.9 2.58714 5.93023 0
M  V30 30308 N 2866.04 -1.4229 0.677588 0
M  V30 30309 C 2866.99 -2.2799 -0.021824 0
M  V30 30310 C 2867.97 -1.41236 -0.770791 0
M  V30 30311 O 2869.16 -1.64663 -0.649244 0
M  V30 30312 C 2866.29 -3.293 -0.970392 0
M  V30 30313 C 2865.38 -4.23536 -0.21862 0
M  V30 30314 N 2865.77 -4.99781 0.777996 0
M  V30 30315 C 2864.07 -4.43656 -0.45667 0
M  V30 30316 C 2864.77 -5.68624 1.22642 0
M  V30 30317 N 2863.74 -5.40751 0.555825 0
M  V30 30318 H 2867.54 -2.84364 0.742566 0
M  V30 30319 H 2865.06 -1.54287 0.506889 0
M  V30 30320 H 2867.06 -3.895 -1.48646 0
M  V30 30321 H 2865.72 -2.74486 -1.73458 0
M  V30 30322 H 2866.73 -5.04796 1.15763 0
M  V30 30323 H 2863.4 -3.99879 -1.20014 0
M  V30 30324 H 2864.79 -6.39785 2.05243 0
M  V30 30325 N 2867.51 -0.421104 -1.5187 0
M  V30 30326 C 2868.92 0.0457663 -1.86644 0
M  V30 30327 C 2869.28 1.43386 -1.33921 0
M  V30 30328 O 2868.4 2.05327 -0.683352 0
M  V30 30329 C 2869 0.0898249 -3.38681 0
M  V30 30330 C 2867.55 0.501062 -3.7305 0
M  V30 30331 C 2866.7 -0.316772 -2.75485 0
M  V30 30332 H 2869.65 -0.63766 -1.45326 0
M  V30 30333 H 2869.67 0.902669 -3.69638 0
M  V30 30334 H 2869.19 -0.920579 -3.77024 0
M  V30 30335 H 2867.29 1.51767 -3.4029 0
M  V30 30336 H 2867.4 0.237133 -4.78513 0
M  V30 30337 H 2865.76 0.222618 -2.53725 0
M  V30 30338 H 2866.55 -1.32575 -3.16668 0
M  V30 30339 N 2868.99 1.56866 -0.151912 0
M  V30 30340 C 2870.24 1.96573 0.498707 0
M  V30 30341 C 2870.57 1.03705 1.64192 0
M  V30 30342 O 2869.85 0.0803774 1.94334 0
M  V30 30343 C 2870.13 3.4593 1.00021 0
M  V30 30344 C 2869.98 4.49576 -0.141846 0
M  V30 30345 C 2871.3 3.97907 1.88037 0
M  V30 30346 H 2868.42 0.71473 0.179807 0
M  V30 30347 H 2871.06 1.88552 -0.23413 0
M  V30 30348 H 2869.21 3.52896 1.6247 0
M  V30 30349 H 2870.88 4.54686 -0.778349 0
M  V30 30350 H 2869.13 4.26355 -0.800265 0
M  V30 30351 H 2869.8 5.5143 0.25085 0
M  V30 30352 H 2872.27 3.93451 1.35409 0
M  V30 30353 H 2871.15 5.02868 2.20034 0
M  V30 30354 H 2871.41 3.40557 2.8191 0
M  V30 30355 N 2870.47 -0.121866 1.57128 0
M  V30 30356 C 2871.72 -0.826418 1.85854 0
M  V30 30357 C 2872.07 -1.77629 0.739293 0
M  V30 30358 O 2871.36 -1.89815 -0.260925 0
M  V30 30359 C 2871.56 -1.61671 3.18743 0
M  V30 30360 C 2871.39 -0.744866 4.43488 0
M  V30 30361 C 2870.16 -0.400802 5.03708 0
M  V30 30362 C 2872.36 -0.0637875 5.1426 0
M  V30 30363 N 2870.34 0.48201 6.12005 0
M  V30 30364 C 2871.71 0.678141 6.1628 0
M  V30 30365 C 2873.76 0.0129299 4.97898 0
M  V30 30366 C 2872.47 1.48958 7.03707 0
M  V30 30367 C 2874.49 0.811183 5.8581 0
M  V30 30368 C 2873.85 1.54131 6.8733 0
M  V30 30369 H 2869.95 -0.279429 0.730372 0
M  V30 30370 H 2872.54 -0.0903144 1.9449 0
M  V30 30371 H 2870.71 -2.32388 3.11208 0
M  V30 30372 H 2872.44 -2.26638 3.35287 0
M  V30 30373 H 2869.2 -0.742387 4.67745 0
M  V30 30374 H 2869.62 0.91518 6.70786 0
M  V30 30375 H 2874.26 -0.537204 4.19373 0
M  V30 30376 H 2871.98 2.05088 7.81642 0
M  V30 30377 H 2875.57 0.872865 5.75215 0
M  V30 30378 H 2874.45 2.14906 7.54178 0
M  V30 30379 N 2871.95 -1.52648 -0.391965 0
M  V30 30380 C 2873.2 -1.67547 -1.13729 0
M  V30 30381 C 2873.52 -0.413915 -1.90045 0
M  V30 30382 O 2872.78 0.603613 -1.86159 0
M  V30 30383 C 2873.08 -2.85953 -2.14396 0
M  V30 30384 C 2872.74 -4.2351 -1.54759 0
M  V30 30385 C 2871.41 -4.60921 -1.38221 0
M  V30 30386 C 2873.76 -5.09162 -1.11373 0
M  V30 30387 C 2871.09 -5.81646 -0.768398 0
M  V30 30388 C 2873.44 -6.30508 -0.514032 0
M  V30 30389 C 2872.1 -6.66654 -0.335923 0
M  V30 30390 H 2871.37 -0.613098 -0.416163 0
M  V30 30391 H 2874.02 -1.86786 -0.422294 0
M  V30 30392 H 2872.32 -2.61119 -2.92103 0
M  V30 30393 H 2874.02 -2.94676 -2.71969 0
M  V30 30394 H 2870.61 -3.94038 -1.68619 0
M  V30 30395 H 2874.79 -4.80829 -1.22953 0
M  V30 30396 H 2870.05 -6.08263 -0.618574 0
M  V30 30397 H 2874.22 -6.96194 -0.169534 0
M  V30 30398 H 2871.85 -7.60068 0.141794 0
M  V30 30399 N 2873.43 0.650235 -1.43561 0
M  V30 30400 C 2874.36 1.77568 -1.44921 0
M  V30 30401 C 2875.37 1.59103 -0.344953 0
M  V30 30402 O 2876.56 1.67769 -0.609567 0
M  V30 30403 C 2873.66 3.15037 -1.2492 0
M  V30 30404 C 2872.83 3.60134 -2.48239 0
M  V30 30405 C 2871.89 4.76415 -2.23418 0
M  V30 30406 O 2870.92 4.85701 -2.96788 0
M  V30 30407 N 2872.12 5.66823 -1.25269 0
M  V30 30408 H 2874.89 1.76879 -2.41938 0
M  V30 30409 H 2872.45 0.834177 -1.38756 0
M  V30 30410 H 2874.44 3.90519 -1.06192 0
M  V30 30411 H 2873.01 3.10481 -0.363374 0
M  V30 30412 H 2872.23 2.75064 -2.82371 0
M  V30 30413 H 2873.52 3.87011 -3.30303 0
M  V30 30414 H 2872.91 5.61995 -0.646345 0
M  V30 30415 H 2871.47 6.42014 -1.12525 0
M  V30 30416 N 2874.9 1.30141 0.88888 0
M  V30 30417 C 2875.87 1.16177 1.97574 0
M  V30 30418 C 2876.87 0.0941142 1.60524 0
M  V30 30419 O 2878.06 0.341919 1.70811 0
M  V30 30420 C 2875.19 0.779041 3.31879 0
M  V30 30421 H 2876.38 2.12731 2.11389 0
M  V30 30422 H 2873.94 1.13482 1.07478 0
M  V30 30423 H 2874.67 -0.186168 3.23765 0
M  V30 30424 H 2874.46 1.55058 3.60138 0
M  V30 30425 H 2875.95 0.704704 4.11611 0
M  V30 30426 N 2876.38 -1.1007 1.12794 0
M  V30 30427 C 2877.31 -2.18563 0.821727 0
M  V30 30428 C 2878.29 -1.68722 -0.21609 0
M  V30 30429 O 2879.48 -1.94049 -0.076459 0
M  V30 30430 C 2876.61 -3.46172 0.279685 0
M  V30 30431 C 2875.56 -4.09309 1.25099 0
M  V30 30432 C 2874.89 -5.31664 0.56901 0
M  V30 30433 C 2876.19 -4.52581 2.60706 0
M  V30 30434 H 2877.88 -2.44435 1.72893 0
M  V30 30435 H 2875.43 -1.17481 0.832723 0
M  V30 30436 H 2877.38 -4.21366 0.0531731 0
M  V30 30437 H 2876.11 -3.19802 -0.662872 0
M  V30 30438 H 2874.76 -3.36126 1.46338 0
M  V30 30439 H 2874.41 -5.01572 -0.37881 0
M  V30 30440 H 2874.11 -5.7486 1.21697 0
M  V30 30441 H 2875.64 -6.09587 0.351624 0
M  V30 30442 H 2877.05 -5.19031 2.43474 0
M  V30 30443 H 2875.45 -5.06639 3.21616 0
M  V30 30444 H 2876.52 -3.65311 3.18867 0
M  V30 30445 N 2877.86 -0.920419 -1.2793 0
M  V30 30446 C 2878.81 -0.412462 -2.27085 0
M  V30 30447 C 2879.78 0.516697 -1.57859 0
M  V30 30448 O 2880.96 0.437443 -1.85718 0
M  V30 30449 C 2878.1 0.335339 -3.43467 0
M  V30 30450 C 2877.22 -0.627092 -4.27424 0
M  V30 30451 C 2876.35 0.139823 -5.31016 0
M  V30 30452 C 2875.39 -0.815789 -6.06639 0
M  V30 30453 N 2874.53 -0.0819673 -7.02052 0
M  V30 30454 H 2879.37 -1.26303 -2.6991 0
M  V30 30455 H 2876.9 -0.634099 -1.32731 0
M  V30 30456 H 2878.86 0.785154 -4.09745 0
M  V30 30457 H 2877.49 1.1502 -3.01613 0
M  V30 30458 H 2876.54 -1.19544 -3.61128 0
M  V30 30459 H 2877.86 -1.35772 -4.79966 0
M  V30 30460 H 2877.01 0.649892 -6.03209 0
M  V30 30461 H 2875.75 0.903459 -4.79259 0
M  V30 30462 H 2874.75 -1.33717 -5.33291 0
M  V30 30463 H 2875.98 -1.57909 -6.60486 0
M  V30 30464 H 2873.92 0.663556 -6.52635 0
M  V30 30465 H 2873.84 -0.752295 -7.52248 0
M  V30 30466 H 2875.11 0.407688 -7.78433 0
M  V30 30467 N 2879.34 1.41929 -0.685124 0
M  V30 30468 C 2880.29 2.30796 -0.0132275 0
M  V30 30469 C 2881.26 1.46534 0.782104 0
M  V30 30470 O 2882.44 1.75345 0.752259 0
M  V30 30471 C 2879.58 3.3248 0.924709 0
M  V30 30472 C 2878.69 4.31827 0.122105 0
M  V30 30473 C 2877.83 5.20583 1.05673 0
M  V30 30474 C 2876.87 6.11604 0.246419 0
M  V30 30475 N 2876 6.92877 1.1343 0
M  V30 30476 H 2880.84 2.87696 -0.77684 0
M  V30 30477 H 2878.38 1.41703 -0.394816 0
M  V30 30478 H 2880.34 3.89974 1.48244 0
M  V30 30479 H 2878.97 2.77155 1.65484 0
M  V30 30480 H 2878.02 3.76368 -0.552401 0
M  V30 30481 H 2879.33 4.96221 -0.50656 0
M  V30 30482 H 2878.49 5.82859 1.68405 0
M  V30 30483 H 2877.23 4.56391 1.71927 0
M  V30 30484 H 2876.23 5.48386 -0.39404 0
M  V30 30485 H 2877.46 6.77848 -0.412172 0
M  V30 30486 H 2875.4 6.31303 1.78305 0
M  V30 30487 H 2875.32 7.53916 0.560956 0
M  V30 30488 H 2876.59 7.59631 1.74875 0
M  V30 30489 N 2880.82 0.429152 1.51644 0
M  V30 30490 C 2882.06 -0.140251 2.02314 0
M  V30 30491 C 2882.4 -1.43072 1.31317 0
M  V30 30492 O 2881.67 -1.89787 0.425565 0
M  V30 30493 C 2881.95 -0.367427 3.58221 0
M  V30 30494 C 2881.81 0.941117 4.39844 0
M  V30 30495 C 2883.13 -1.14082 4.25057 0
M  V30 30496 H 2880.24 -0.0494983 0.735336 0
M  V30 30497 H 2882.89 0.566546 1.81357 0
M  V30 30498 H 2881.04 -0.96949 3.76209 0
M  V30 30499 H 2882.71 1.57653 4.33524 0
M  V30 30500 H 2880.95 1.54758 4.05256 0
M  V30 30501 H 2881.62 0.736306 5.47067 0
M  V30 30502 H 2884.1 -0.630913 4.11289 0
M  V30 30503 H 2882.97 -1.26853 5.34041 0
M  V30 30504 H 2883.24 -2.16676 3.85362 0
M  V30 30505 N 2882.29 -1.56783 0.160229 0
M  V30 30506 C 2883.22 -2.20431 -0.770225 0
M  V30 30507 C 2884.21 -1.15653 -1.24734 0
M  V30 30508 O 2885.39 -1.44043 -1.30251 0
M  V30 30509 C 2882.52 -2.83634 -2.00422 0
M  V30 30510 C 2881.47 -3.94355 -1.66338 0
M  V30 30511 C 2880.8 -4.44555 -2.97111 0
M  V30 30512 C 2882.1 -5.14489 -0.899882 0
M  V30 30513 H 2883.79 -2.98439 -0.239731 0
M  V30 30514 H 2881.34 -1.43549 -0.113866 0
M  V30 30515 H 2883.29 -3.26831 -2.66006 0
M  V30 30516 H 2882.02 -2.02978 -2.55866 0
M  V30 30517 H 2880.68 -3.51796 -1.03127 0
M  V30 30518 H 2880.32 -3.60704 -3.50573 0
M  V30 30519 H 2880.02 -5.19243 -2.75064 0
M  V30 30520 H 2881.55 -4.90431 -3.63744 0
M  V30 30521 H 2882.96 -5.54448 -1.45808 0
M  V30 30522 H 2881.36 -5.95024 -0.778864 0
M  V30 30523 H 2882.43 -4.84784 0.105912 0
M  V30 30524 N 2883.77 0.113531 -1.57191 0
M  V30 30525 C 2884.68 1.15773 -2.04043 0
M  V30 30526 C 2885.7 1.44999 -0.961837 0
M  V30 30527 O 2886.88 1.56007 -1.27373 0
M  V30 30528 C 2883.94 2.46304 -2.43999 0
M  V30 30529 C 2883 2.24426 -3.65966 0
M  V30 30530 C 2882.23 3.48733 -4.04006 0
M  V30 30531 O 2882.46 4.56253 -3.42329 0
M  V30 30532 O 2881.39 3.39411 -4.97075 0
M  V30 30533 H 2885.22 0.789848 -2.93249 0
M  V30 30534 H 2882.8 0.324722 -1.45828 0
M  V30 30535 H 2884.68 3.232 -2.70407 0
M  V30 30536 H 2883.36 2.82555 -1.57937 0
M  V30 30537 H 2882.27 1.45371 -3.447 0
M  V30 30538 H 2883.6 1.93076 -4.5275 0
M  V30 30539 N 2885.25 1.52854 0.383864 0
M  V30 30540 C 2886.2 1.78643 1.48961 0
M  V30 30541 C 2887.19 0.654605 1.56241 0
M  V30 30542 O 2888.4 0.837188 1.59346 0
M  V30 30543 H 2884.77 0.565336 0.495882 0
M  V30 30544 H 2886.75 2.7123 1.24406 0
M  V30 30545 C 2885.49 1.97688 2.86033 0
M  V30 30546 H 2884.82 2.84211 2.81183 0
M  V30 30547 H 2886.26 2.1972 3.62628 0
M  V30 30548 C 2884.72 0.750834 3.28427 0
M  V30 30549 O 2885.25 -0.0692785 4.0164 0
M  V30 30550 N 2883.45 0.579477 2.84764 0
M  V30 30551 H 2883 1.24798 2.25351 0
M  V30 30552 H 2882.96 -0.239489 3.13487 0
M  V30 30553 N 2886.73 -0.642612 1.43904 0
M  V30 30554 C 2887.66 -1.76649 1.527 0
M  V30 30555 C 2888.64 -1.65782 0.380845 0
M  V30 30556 O 2889.83 -1.84716 0.599464 0
M  V30 30557 C 2886.96 -3.1513 1.45981 0
M  V30 30558 C 2885.91 -3.40773 2.58955 0
M  V30 30559 C 2885.24 -4.79165 2.37288 0
M  V30 30560 C 2886.54 -3.34468 4.01159 0
M  V30 30561 H 2888.23 -1.69545 2.46769 0
M  V30 30562 H 2885.78 -0.814258 1.18768 0
M  V30 30563 H 2887.73 -3.93518 1.50737 0
M  V30 30564 H 2886.45 -3.22991 0.484219 0
M  V30 30565 H 2885.11 -2.64761 2.53569 0
M  V30 30566 H 2884.76 -4.83714 1.37947 0
M  V30 30567 H 2884.46 -4.97282 3.13025 0
M  V30 30568 H 2885.98 -5.59797 2.43844 0
M  V30 30569 H 2887.4 -4.02777 4.07975 0
M  V30 30570 H 2885.79 -3.64121 4.77007 0
M  V30 30571 H 2886.86 -2.32468 4.25543 0
M  V30 30572 N 2888.21 -1.30611 -0.881966 0
M  V30 30573 C 2889.43 -1.22668 -1.67234 0
M  V30 30574 C 2889.86 0.206745 -1.8696 0
M  V30 30575 O 2889.22 1.14863 -1.40272 0
M  V30 30576 C 2889.26 -1.96369 -3.02443 0
M  V30 30577 O 2888.37 -1.29283 -3.91612 0
M  V30 30578 H 2887.71 -0.424126 -0.510894 0
M  V30 30579 H 2890.24 -1.72481 -1.10052 0
M  V30 30580 H 2890.25 -2.05506 -3.52465 0
M  V30 30581 H 2888.92 -3.00618 -2.87405 0
M  V30 30582 H 2887.5 -1.2852 -3.50053 0
M  V30 30583 N 2889.69 1.0947 -1.13376 0
M  V30 30584 C 2890.93 1.81637 -0.895222 0
M  V30 30585 C 2891.26 1.85693 0.578647 0
M  V30 30586 O 2890.52 1.32062 1.44423 0
M  V30 30587 C 2890.81 3.27648 -1.42765 0
M  V30 30588 C 2890.48 3.43725 -2.91828 0
M  V30 30589 C 2889.14 3.47821 -3.32527 0
M  V30 30590 C 2891.49 3.483 -3.87733 0
M  V30 30591 C 2888.82 3.54069 -4.67816 0
M  V30 30592 C 2891.17 3.56082 -5.22865 0
M  V30 30593 C 2889.84 3.58446 -5.63092 0
M  V30 30594 H 2889.11 0.664657 -0.327585 0
M  V30 30595 H 2891.76 1.28967 -1.41562 0
M  V30 30596 H 2890.06 3.82952 -0.827938 0
M  V30 30597 H 2891.76 3.82017 -1.21917 0
M  V30 30598 H 2888.35 3.41222 -2.59356 0
M  V30 30599 H 2892.53 3.44377 -3.57377 0
M  V30 30600 H 2887.79 3.54186 -4.98359 0
M  V30 30601 H 2891.96 3.58567 -5.96995 0
M  V30 30602 H 2889.59 3.6304 -6.67911 0
M  V30 30603 N 2891.16 0.92719 1.2744 0
M  V30 30604 C 2892.1 0.383198 2.25974 0
M  V30 30605 C 2893.11 -0.485805 1.55383 0
M  V30 30606 O 2894.3 -0.29851 1.75986 0
M  V30 30607 C 2891.4 -0.469629 3.3563 0
M  V30 30608 C 2890.57 0.379963 4.35747 0
M  V30 30609 C 2889.63 -0.410135 5.24599 0
M  V30 30610 O 2888.66 0.181988 5.68909 0
M  V30 30611 N 2889.86 -1.71007 5.5474 0
M  V30 30612 H 2892.62 1.2302 2.73288 0
M  V30 30613 H 2890.18 0.794563 1.41061 0
M  V30 30614 H 2892.18 -1.00525 3.92016 0
M  V30 30615 H 2890.75 -1.21738 2.87921 0
M  V30 30616 H 2889.97 1.09689 3.78632 0
M  V30 30617 H 2891.25 0.960805 4.99646 0
M  V30 30618 H 2890.65 -2.21347 5.20598 0
M  V30 30619 H 2889.21 -2.19223 6.13828 0
M  V30 30620 N 2892.64 -1.41564 0.692641 0
M  V30 30621 C 2893.87 -2.06123 0.229813 0
M  V30 30622 C 2894.29 -1.51772 -1.11117 0
M  V30 30623 O 2893.65 -0.643474 -1.69497 0
M  V30 30624 C 2893.7 -3.60074 0.194753 0
M  V30 30625 O 2892.8 -4.03935 -0.831295 0
M  V30 30626 H 2892.14 -0.654312 0.113014 0
M  V30 30627 H 2894.67 -1.81381 0.946677 0
M  V30 30628 H 2894.68 -4.07993 0.0246204 0
M  V30 30629 H 2893.36 -3.99002 1.17346 0
M  V30 30630 H 2891.93 -3.67527 -0.630754 0
M  V30 30631 N 2894.12 -0.437188 -1.51415 0
M  V30 30632 C 2895.07 0.388724 -2.29329 0
M  V30 30633 C 2896.06 1.02101 -1.35173 0
M  V30 30634 O 2897.27 0.955997 -1.52515 0
M  V30 30635 H 2893.64 0.14417 -0.738051 0
M  V30 30636 H 2895.61 -0.289264 -2.96995 0
M  V30 30637 C 2894.36 1.47756 -3.14744 0
M  V30 30638 H 2893.69 1.00039 -3.87082 0
M  V30 30639 H 2895.13 2.0287 -3.72317 0
M  V30 30640 C 2893.58 2.46072 -2.30109 0
M  V30 30641 O 2894.11 3.50604 -1.96061 0
M  V30 30642 N 2892.32 2.16957 -1.93334 0
M  V30 30643 H 2891.87 1.31979 -2.21222 0
M  V30 30644 H 2891.83 2.82979 -1.37004 0
M  V30 30645 N 2895.6 1.56696 -0.168541 0
M  V30 30646 C 2896.53 2.20836 0.758524 0
M  V30 30647 C 2897.51 1.16313 1.24118 0
M  V30 30648 O 2898.69 1.44732 1.29485 0
M  V30 30649 C 2895.82 2.84693 1.98915 0
M  V30 30650 C 2894.78 3.95231 1.64245 0
M  V30 30651 C 2894.1 4.46124 2.94749 0
M  V30 30652 C 2895.4 5.14959 0.872585 0
M  V30 30653 H 2897.1 2.98562 0.2239 0
M  V30 30654 H 2894.64 1.43607 0.106252 0
M  V30 30655 H 2896.6 3.28237 2.64269 0
M  V30 30656 H 2895.32 2.04332 2.54786 0
M  V30 30657 H 2893.98 3.52338 1.0126 0
M  V30 30658 H 2893.63 3.62558 3.48655 0
M  V30 30659 H 2893.33 5.20695 2.72307 0
M  V30 30660 H 2894.85 4.92353 3.61138 0
M  V30 30661 H 2896.27 5.55214 1.42866 0
M  V30 30662 H 2894.66 5.95429 0.747297 0
M  V30 30663 H 2895.73 4.84721 -0.13162 0
M  V30 30664 N 2897.08 -0.105193 1.57249 0
M  V30 30665 C 2898.32 -0.809165 1.84758 0
M  V30 30666 C 2898.64 -1.80387 0.756294 0
M  V30 30667 O 2899.84 -2.55502 0.918203 0
M  V30 30668 C 2898.3 -1.48983 3.27616 0
M  V30 30669 C 2897.91 -0.535406 4.44789 0
M  V30 30670 C 2899.65 -2.17812 3.6436 0
M  V30 30671 C 2897.56 -1.22008 5.78678 0
M  V30 30672 H 2896.49 -0.305934 0.689145 0
M  V30 30673 H 2899.14 -0.0620049 1.83395 0
M  V30 30674 H 2897.52 -2.2841 3.23489 0
M  V30 30675 H 2898.7 0.226638 4.60242 0
M  V30 30676 H 2897.01 0.0466501 4.16374 0
M  V30 30677 H 2899.61 -2.69753 4.61668 0
M  V30 30678 H 2899.95 -2.96246 2.92479 0
M  V30 30679 H 2900.48 -1.45258 3.70331 0
M  V30 30680 H 2897.22 -0.47676 6.53764 0
M  V30 30681 H 2896.74 -1.9538 5.67086 0
M  V30 30682 H 2898.42 -1.74941 6.229 0
M  V30 30683 N 2898.55 -1.53055 -0.375752 0
M  V30 30684 C 2899.83 -1.59338 -1.1345 0
M  V30 30685 C 2900.21 -0.394651 -2.07378 0
M  V30 30686 O 2899.56 0.615962 -2.20041 0
M  V30 30687 C 2899.77 -2.93872 -1.88255 0
M  V30 30688 C 2901.12 -3.48086 -2.43149 0
M  V30 30689 O 2902.14 -2.95834 -1.98395 0
M  V30 30690 O 2901 -4.39407 -3.24937 0
M  V30 30691 H 2898.09 -0.643188 -0.519845 0
M  V30 30692 H 2900.64 -1.65394 -0.379836 0
M  V30 30693 H 2899.41 -3.7256 -1.19645 0
M  V30 30694 H 2899.04 -2.91261 -2.70653 0
M  V30 30695 N 2900.03 0.634971 -1.44242 0
M  V30 30696 C 2901.45 0.952719 -1.28045 0
M  V30 30697 C 2901.65 2.00367 -0.213415 0
M  V30 30698 O 2900.7 2.49279 0.401998 0
M  V30 30699 C 2902.02 1.41964 -2.65079 0
M  V30 30700 C 2903.57 1.53532 -2.72758 0
M  V30 30701 C 2904.04 2.03609 -4.10253 0
M  V30 30702 N 2905.53 2.10885 -4.1241 0
M  V30 30703 C 2906.27 2.50794 -5.15645 0
M  V30 30704 N 2905.76 2.89868 -6.29244 0
M  V30 30705 N 2907.56 2.50894 -5.03 0
M  V30 30706 H 2899.71 -0.0601353 -2.12315 0
M  V30 30707 H 2901.97 0.0357159 -0.947327 0
M  V30 30708 H 2901.68 0.721743 -3.44215 0
M  V30 30709 H 2901.55 2.39136 -2.91709 0
M  V30 30710 H 2903.94 2.22419 -1.93943 0
M  V30 30711 H 2904.02 0.547452 -2.49873 0
M  V30 30712 H 2903.66 1.35318 -4.89542 0
M  V30 30713 H 2903.59 3.0326 -4.30512 0
M  V30 30714 H 2906.08 1.83387 -3.3042 0
M  V30 30715 H 2906.4 3.19123 -7.03833 0
M  V30 30716 H 2904.74 2.87629 -6.32688 0
M  V30 30717 H 2907.93 2.19756 -4.1331 0
M  V30 30718 H 2908.1 2.81673 -5.83579 0
M  V30 30719 N 2901.51 1.31076 0.875027 0
M  V30 30720 C 2902.44 1.20885 1.99773 0
M  V30 30721 C 2903.42 0.0971911 1.69822 0
M  V30 30722 O 2904.61 0.280929 1.92157 0
M  V30 30723 C 2901.74 0.910176 3.35161 0
M  V30 30724 C 2900.69 1.98085 3.79403 0
M  V30 30725 C 2900.02 1.53497 5.12194 0
M  V30 30726 C 2901.32 3.3933 3.97055 0
M  V30 30727 H 2903.01 2.14812 2.08558 0
M  V30 30728 H 2900.56 1.03416 1.00205 0
M  V30 30729 H 2902.51 0.825496 4.13235 0
M  V30 30730 H 2901.23 -0.0647647 3.26536 0
M  V30 30731 H 2899.89 2.05534 3.03565 0
M  V30 30732 H 2899.54 0.548029 5.00006 0
M  V30 30733 H 2899.24 2.2512 5.42766 0
M  V30 30734 H 2900.76 1.46427 5.92783 0
M  V30 30735 H 2902.18 3.34584 4.65539 0
M  V30 30736 H 2900.58 4.09126 4.39017 0
M  V30 30737 H 2901.65 3.80488 3.00594 0
M  V30 30738 N 2902.99 -1.08867 1.13955 0
M  V30 30739 C 2904.23 -1.82768 0.91516 0
M  V30 30740 C 2904.59 -1.83995 -0.548614 0
M  V30 30741 O 2905.79 -2.53611 -0.890772 0
M  V30 30742 C 2904.06 -3.24682 1.49387 0
M  V30 30743 S 2905.62 -4.15516 1.41038 0
M  V30 30744 H 2902.44 -0.629921 0.329727 0
M  V30 30745 H 2905.04 -1.30892 1.45215 0
M  V30 30746 H 2903.75 -3.21368 2.55247 0
M  V30 30747 H 2903.28 -3.81631 0.955076 0
M  V30 30748 H 2905.29 -4.94644 0.392704 0
M  V30 30749 N 2904.47 -0.933936 -1.26946 0
M  V30 30750 C 2905.7 -0.593314 -1.97897 0
M  V30 30751 C 2906.1 0.834382 -1.69808 0
M  V30 30752 O 2905.45 1.56697 -0.958732 0
M  V30 30753 C 2905.51 -0.746887 -3.51656 0
M  V30 30754 C 2905.17 -2.14786 -4.03381 0
M  V30 30755 C 2906.17 -3.12264 -4.15676 0
M  V30 30756 C 2903.86 -2.46649 -4.37573 0
M  V30 30757 C 2905.85 -4.3971 -4.61447 0
M  V30 30758 C 2903.54 -3.74329 -4.83033 0
M  V30 30759 C 2904.53 -4.70673 -4.94931 0
M  V30 30760 O 2904.22 -5.9608 -5.39392 0
M  V30 30761 H 2903.95 -0.223066 -0.638136 0
M  V30 30762 H 2906.51 -1.25493 -1.62606 0
M  V30 30763 H 2904.74 -0.0281569 -3.8669 0
M  V30 30764 H 2906.43 -0.410399 -4.0382 0
M  V30 30765 H 2907.19 -2.88971 -3.89514 0
M  V30 30766 H 2903.07 -1.72398 -4.27551 0
M  V30 30767 H 2906.62 -5.14913 -4.70648 0
M  V30 30768 H 2902.51 -3.97438 -5.08639 0
M  V30 30769 H 2903.28 -5.99158 -5.57631 0
M  V30 30770 N 2905.94 1.41194 -0.700139 0
M  V30 30771 C 2907.17 2.05998 -0.240741 0
M  V30 30772 C 2907.59 1.52359 1.1031 0
M  V30 30773 O 2906.95 0.652454 1.69153 0
M  V30 30774 C 2907 3.59965 -0.213846 0
M  V30 30775 O 2906.1 4.0437 0.809862 0
M  V30 30776 H 2905.45 0.653703 -0.116482 0
M  V30 30777 H 2907.98 1.80877 -0.956283 0
M  V30 30778 H 2907.99 4.07974 -0.0462569 0
M  V30 30779 H 2906.66 3.98374 -1.19461 0
M  V30 30780 H 2905.24 3.67856 0.611255 0
M  V30 30781 N 2907.42 0.445212 1.51181 0
M  V30 30782 C 2908.37 -0.36225 2.27939 0
M  V30 30783 C 2909.34 -1.00998 1.31866 0
M  V30 30784 O 2910.52 -1.02738 1.60778 0
M  V30 30785 C 2907.66 -1.45305 3.13018 0
M  V30 30786 C 2906.78 -0.822682 4.24094 0
M  V30 30787 C 2905.91 -1.8892 4.9647 0
M  V30 30788 C 2904.95 -1.23768 5.99456 0
M  V30 30789 N 2904.09 -2.2459 6.6521 0
M  V30 30790 H 2908.93 0.298672 2.96499 0
M  V30 30791 H 2906.47 0.159136 1.46237 0
M  V30 30792 H 2908.42 -2.09686 3.60677 0
M  V30 30793 H 2907.05 -2.0835 2.46557 0
M  V30 30794 H 2906.11 -0.0669696 3.80341 0
M  V30 30795 H 2907.42 -0.307096 4.97854 0
M  V30 30796 H 2906.57 -2.60943 5.47717 0
M  V30 30797 H 2905.31 -2.43853 4.22359 0
M  V30 30798 H 2904.32 -0.502945 5.47495 0
M  V30 30799 H 2905.54 -0.695575 6.75528 0
M  V30 30800 H 2903.49 -2.78589 5.93906 0
M  V30 30801 H 2903.4 -1.77945 7.3476 0
M  V30 30802 H 2904.67 -2.96073 7.21083 0
M  V30 30803 N 2908.9 -1.56605 0.176849 0
M  V30 30804 C 2909.85 -2.1483 -0.763681 0
M  V30 30805 C 2910.83 -1.08403 -1.18901 0
M  V30 30806 O 2912.03 -1.34512 -1.15045 0
M  V30 30807 C 2909.16 -2.79693 -1.99064 0
M  V30 30808 C 2908.24 -3.93286 -1.58704 0
M  V30 30809 N 2908.63 -4.97849 -0.893335 0
M  V30 30810 C 2906.93 -4.04549 -1.87767 0
M  V30 30811 C 2907.63 -5.77548 -0.693765 0
M  V30 30812 N 2906.61 -5.29341 -1.2369 0
M  V30 30813 H 2910.41 -2.93039 -0.22476 0
M  V30 30814 H 2907.92 -1.62383 -0.0236278 0
M  V30 30815 H 2909.92 -3.19787 -2.67473 0
M  V30 30816 H 2908.58 -2.02967 -2.53445 0
M  V30 30817 H 2909.59 -5.14963 -0.550777 0
M  V30 30818 H 2906.27 -3.38931 -2.43787 0
M  V30 30819 H 2907.66 -6.71744 -0.144781 0
M  V30 30820 N 2910.38 0.0968524 -1.57302 0
M  V30 30821 C 2911.31 1.11842 -2.04972 0
M  V30 30822 C 2912.29 1.4188 -0.938303 0
M  V30 30823 O 2913.47 1.5194 -1.20946 0
M  V30 30824 C 2910.6 2.43877 -2.47268 0
M  V30 30825 C 2909.56 2.28251 -3.62057 0
M  V30 30826 C 2908.88 3.65447 -3.90324 0
M  V30 30827 C 2910.18 1.72453 -4.93009 0
M  V30 30828 H 2911.88 0.721836 -2.90568 0
M  V30 30829 H 2909.42 0.345778 -1.39787 0
M  V30 30830 H 2911.38 3.15612 -2.79225 0
M  V30 30831 H 2910.1 2.85467 -1.58669 0
M  V30 30832 H 2908.76 1.58961 -3.30344 0
M  V30 30833 H 2908.41 4.04562 -2.98896 0
M  V30 30834 H 2908.11 3.55838 -4.67603 0
M  V30 30835 H 2909.63 4.38652 -4.24755 0
M  V30 30836 H 2911.05 2.34027 -5.23359 0
M  V30 30837 H 2909.44 1.73608 -5.74439 0
M  V30 30838 H 2910.51 0.683814 -4.80054 0
M  V30 30839 N 2911.86 1.53252 0.36763 0
M  V30 30840 C 2913.1 1.69335 1.11049 0
M  V30 30841 C 2913.43 0.444097 1.89362 0
M  V30 30842 O 2912.69 -0.57392 1.87095 0
M  V30 30843 C 2912.99 2.89328 2.09819 0
M  V30 30844 C 2912.65 4.25918 1.48002 0
M  V30 30845 C 2911.31 4.63062 1.30871 0
M  V30 30846 C 2913.67 5.10869 1.03259 0
M  V30 30847 C 2910.99 5.82795 0.675766 0
M  V30 30848 C 2913.35 6.31246 0.413659 0
M  V30 30849 C 2912.01 6.67104 0.229821 0
M  V30 30850 H 2911.28 0.619641 0.406357 0
M  V30 30851 H 2913.93 1.87434 0.392525 0
M  V30 30852 H 2912.23 2.65733 2.87912 0
M  V30 30853 H 2913.93 2.98965 2.67246 0
M  V30 30854 H 2910.52 3.9667 1.62329 0
M  V30 30855 H 2914.7 4.82724 1.15288 0
M  V30 30856 H 2909.96 6.0917 0.521726 0
M  V30 30857 H 2914.13 6.96375 0.0587544 0
M  V30 30858 H 2911.76 7.59746 -0.262696 0
M  V30 30859 N 2913.34 -0.627313 1.44577 0
M  V30 30860 C 2914.28 -1.73909 1.51737 0
M  V30 30861 C 2915.25 -1.62045 0.364774 0
M  V30 30862 O 2916.44 -1.81913 0.575535 0
M  V30 30863 C 2913.58 -3.12169 1.47121 0
M  V30 30864 C 2912.69 -3.34982 2.72784 0
M  V30 30865 C 2911.83 -4.63234 2.59976 0
M  V30 30866 C 2910.86 -4.79239 3.80784 0
M  V30 30867 N 2910 -5.98772 3.66629 0
M  V30 30868 H 2914.84 -1.67126 2.46725 0
M  V30 30869 H 2912.38 -0.815203 1.22445 0
M  V30 30870 H 2914.34 -3.92132 1.42436 0
M  V30 30871 H 2912.97 -3.17958 0.556984 0
M  V30 30872 H 2912.02 -2.48931 2.87641 0
M  V30 30873 H 2913.33 -3.42686 3.62447 0
M  V30 30874 H 2912.48 -5.51364 2.53145 0
M  V30 30875 H 2911.22 -4.57895 1.6788 0
M  V30 30876 H 2910.23 -3.89537 3.87996 0
M  V30 30877 H 2911.45 -4.8639 4.73922 0
M  V30 30878 H 2909.4 -5.94515 2.77287 0
M  V30 30879 H 2909.32 -6.07549 4.49911 0
M  V30 30880 H 2910.58 -6.89453 3.63696 0
M  V30 30881 N 2914.81 -1.31539 -0.868063 0
M  V30 30882 C 2916.04 -1.24435 -1.65924 0
M  V30 30883 C 2916.46 0.186903 -1.87169 0
M  V30 30884 O 2915.82 1.13369 -1.41482 0
M  V30 30885 C 2915.87 -1.99565 -3.00343 0
M  V30 30886 O 2914.97 -1.33429 -3.90218 0
M  V30 30887 H 2914.31 -0.429521 -0.506367 0
M  V30 30888 H 2916.84 -1.73639 -1.08216 0
M  V30 30889 H 2916.85 -2.09233 -3.50265 0
M  V30 30890 H 2915.53 -3.0365 -2.842 0
M  V30 30891 H 2914.11 -1.32225 -3.4867 0
M  V30 30892 N 2916.29 1.08262 -1.1453 0
M  V30 30893 C 2917.52 1.84416 -0.937996 0
M  V30 30894 C 2917.93 1.81682 0.513538 0
M  V30 30895 O 2917.29 1.22155 1.35589 0
M  V30 30896 C 2917.34 3.31894 -1.43277 0
M  V30 30897 O 2917.06 3.34646 -2.82744 0
M  V30 30898 C 2918.56 4.24849 -1.26562 0
M  V30 30899 H 2915.78 0.58213 -0.333714 0
M  V30 30900 H 2918.33 1.3672 -1.52078 0
M  V30 30901 H 2916.48 3.76974 -0.892719 0
M  V30 30902 H 2916.9 4.26718 -3.04978 0
M  V30 30903 H 2918.37 5.26436 -1.6604 0
M  V30 30904 H 2918.85 4.38704 -0.208666 0
M  V30 30905 H 2919.45 3.85597 -1.7943 0
M  V30 30906 N 2917.77 0.940655 1.26449 0
M  V30 30907 C 2919 0.6038 1.9758 0
M  V30 30908 C 2919.41 -0.825365 1.70248 0
M  V30 30909 O 2918.75 -1.56187 0.967028 0
M  V30 30910 C 2918.81 0.765525 3.51255 0
M  V30 30911 C 2918.48 2.16922 4.02236 0
M  V30 30912 C 2919.47 3.14464 4.14015 0
M  V30 30913 C 2917.16 2.48966 4.36258 0
M  V30 30914 C 2919.15 4.42151 4.59109 0
M  V30 30915 C 2916.84 3.76885 4.81041 0
M  V30 30916 C 2917.84 4.73291 4.92428 0
M  V30 30917 O 2917.53 5.98932 5.36223 0
M  V30 30918 H 2917.26 0.226447 0.636944 0
M  V30 30919 H 2919.81 1.26353 1.61938 0
M  V30 30920 H 2918.04 0.0486636 3.86669 0
M  V30 30921 H 2919.73 0.431808 4.03597 0
M  V30 30922 H 2920.5 2.91032 3.87976 0
M  V30 30923 H 2916.38 1.74663 4.26631 0
M  V30 30924 H 2919.92 5.17402 4.67911 0
M  V30 30925 H 2915.82 4.0013 5.06524 0
M  V30 30926 H 2916.58 6.02107 5.54445 0
M  V30 30927 N 2919.25 -1.40821 0.707617 0
M  V30 30928 C 2920.48 -2.05048 0.252742 0
M  V30 30929 C 2920.89 -1.53394 -1.10755 0
M  V30 30930 O 2920.23 -0.682127 -1.70566 0
M  V30 30931 C 2920.29 -3.59203 0.146064 0
M  V30 30932 C 2919.95 -4.33708 1.44035 0
M  V30 30933 C 2920.95 -4.62191 2.38067 0
M  V30 30934 C 2918.64 -4.72763 1.69706 0
M  V30 30935 C 2920.63 -5.28703 3.56022 0
M  V30 30936 C 2918.32 -5.39009 2.87945 0
M  V30 30937 C 2919.32 -5.66908 3.80925 0
M  V30 30938 O 2919 -6.31788 4.97091 0
M  V30 30939 H 2918.74 -0.666523 0.112795 0
M  V30 30940 H 2921.29 -1.81362 0.964202 0
M  V30 30941 H 2919.52 -3.81677 -0.621271 0
M  V30 30942 H 2921.21 -4.0498 -0.273204 0
M  V30 30943 H 2921.97 -4.32489 2.19495 0
M  V30 30944 H 2917.85 -4.50421 0.981915 0
M  V30 30945 H 2921.4 -5.50396 4.28614 0
M  V30 30946 H 2917.29 -5.6813 3.06429 0
M  V30 30947 H 2918.06 -6.50284 4.97064 0
M  V30 30948 N 2920.73 -0.453223 -1.50943 0
M  V30 30949 C 2921.64 0.355922 -2.31884 0
M  V30 30950 C 2922.65 1.01285 -1.41483 0
M  V30 30951 O 2923.83 1.00474 -1.74548 0
M  V30 30952 C 2920.89 1.43363 -3.15671 0
M  V30 30953 C 2919.95 0.795179 -4.21871 0
M  V30 30954 C 2919.19 1.82153 -5.01653 0
M  V30 30955 O 2919.41 3.04583 -4.82271 0
M  V30 30956 O 2918.34 1.40325 -5.85314 0
M  V30 30957 H 2922.17 -0.305301 -3.02162 0
M  V30 30958 H 2919.75 -0.215424 -1.47839 0
M  V30 30959 H 2921.64 2.05829 -3.67712 0
M  V30 30960 H 2920.31 2.07865 -2.48141 0
M  V30 30961 H 2919.22 0.13204 -3.73867 0
M  V30 30962 H 2920.55 0.193398 -4.9182 0
M  V30 30963 N 2922.2 1.56509 -0.185151 0
M  V30 30964 C 2923.45 1.97586 0.456899 0
M  V30 30965 C 2923.78 1.07164 1.61955 0
M  V30 30966 O 2923.06 0.12158 1.9412 0
M  V30 30967 C 2923.34 3.47974 0.926604 0
M  V30 30968 C 2923.19 4.49174 -0.237176 0
M  V30 30969 C 2924.51 4.01806 1.79554 0
M  V30 30970 H 2921.63 0.718383 0.164606 0
M  V30 30971 H 2924.27 1.88013 -0.274072 0
M  V30 30972 H 2922.42 3.56263 1.54947 0
M  V30 30973 H 2924.1 4.52933 -0.87462 0
M  V30 30974 H 2922.34 4.24561 -0.890521 0
M  V30 30975 H 2923.01 5.51838 0.133827 0
M  V30 30976 H 2925.49 3.96235 1.27033 0
M  V30 30977 H 2924.36 5.07422 2.09318 0
M  V30 30978 H 2924.62 3.4646 2.74623 0
M  V30 30979 N 2923.68 -0.0885089 1.57351 0
M  V30 30980 C 2924.64 -1.09117 2.01559 0
M  V30 30981 C 2925.64 -1.32568 0.910076 0
M  V30 30982 O 2926.83 -1.2857 1.17539 0
M  V30 30983 C 2923.97 -2.43878 2.38194 0
M  V30 30984 H 2925.16 -0.71051 2.91362 0
M  V30 30985 H 2922.71 -0.333752 1.52695 0
M  V30 30986 H 2923.45 -2.86808 1.51365 0
M  V30 30987 H 2923.23 -2.28203 3.1885 0
M  V30 30988 H 2924.72 -3.15981 2.7303 0
M  V30 30989 N 2925.16 -1.53445 -0.359498 0
M  V30 30990 C 2926.41 -1.69586 -1.09932 0
M  V30 30991 C 2926.73 -0.453404 -1.89656 0
M  V30 30992 O 2926 0.532597 -1.88521 0
M  V30 30993 H 2924.58 -0.625192 -0.408832 0
M  V30 30994 H 2927.24 -1.90653 -0.404637 0
M  V30 30995 H 2926.34 -2.55967 -1.7857 0
M  V30 30996 N 2926.64 0.619637 -1.44908 0
M  V30 30997 C 2927.89 1.37623 -1.48001 0
M  V30 30998 C 2928.21 1.94641 -0.118329 0
M  V30 30999 O 2927.48 1.76459 0.850829 0
M  V30 31000 H 2926.06 0.510864 -0.545002 0
M  V30 31001 H 2928.72 0.728491 -1.80773 0
M  V30 31002 H 2927.81 2.20175 -2.212 0
M  V30 31003 N 2928.12 1.31997 0.861075 0
M  V30 31004 C 2929.36 1.22372 1.61718 0
M  V30 31005 C 2929.7 -0.215553 1.93 0
M  V30 31006 O 2928.97 -1.15095 1.56791 0
M  V30 31007 C 2929.25 2.07697 2.94167 0
M  V30 31008 C 2929.11 3.5997 2.69707 0
M  V30 31009 C 2930.43 1.93319 3.95368 0
M  V30 31010 H 2927.54 0.445891 0.586814 0
M  V30 31011 H 2930.19 1.61878 0.994759 0
M  V30 31012 H 2928.34 1.74134 3.47289 0
M  V30 31013 H 2930.01 4.03713 2.23189 0
M  V30 31014 H 2928.25 3.82956 2.03783 0
M  V30 31015 H 2928.92 4.14989 3.63989 0
M  V30 31016 H 2931.4 2.22708 3.51483 0
M  V30 31017 H 2930.27 2.55307 4.85911 0
M  V30 31018 H 2930.54 0.898998 4.32863 0
M  V30 31019 N 2929.59 -1.07653 1.15103 0
M  V30 31020 C 2931.01 -1.61665 0.933876 0
M  V30 31021 C 2931.36 -1.89031 -0.525536 0
M  V30 31022 O 2930.48 -1.65349 -1.39602 0
M  V30 31023 C 2931.08 -2.93708 1.68881 0
M  V30 31024 C 2929.64 -3.44475 1.51703 0
M  V30 31025 C 2928.78 -2.18583 1.70637 0
M  V30 31026 H 2931.73 -0.907794 1.30172 0
M  V30 31027 H 2931.75 -3.62498 1.15651 0
M  V30 31028 H 2931.27 -2.7376 2.75095 0
M  V30 31029 H 2929.37 -3.69512 0.4787 0
M  V30 31030 H 2929.48 -4.20718 2.29201 0
M  V30 31031 H 2927.84 -2.2813 1.13263 0
M  V30 31032 H 2928.63 -2.01132 2.7821 0
M  V30 31033 N 2931.07 -0.947348 -1.25949 0
M  V30 31034 C 2932.3 -0.614668 -1.98082 0
M  V30 31035 C 2932.72 0.804785 -1.70014 0
M  V30 31036 O 2932.08 1.54308 -0.951777 0
M  V30 31037 C 2932.13 -0.870767 -3.49929 0
M  V30 31038 O 2931.23 0.0540726 -4.12365 0
M  V30 31039 H 2930.57 -0.234462 -0.621228 0
M  V30 31040 H 2933.1 -1.27196 -1.60257 0
M  V30 31041 H 2933.11 -0.794121 -4.00197 0
M  V30 31042 H 2931.79 -1.90535 -3.69688 0
M  V30 31043 H 2930.37 -0.0741572 -3.72826 0
M  V30 31044 N 2932.55 1.40444 -0.715075 0
M  V30 31045 C 2933.8 2.00499 -0.253861 0
M  V30 31046 C 2934.12 1.56983 1.15678 0
M  V30 31047 O 2933.39 0.809058 1.78413 0
M  V30 31048 H 2931.97 0.741453 -0.0908668 0
M  V30 31049 H 2934.63 1.71788 -0.920592 0
M  V30 31050 H 2933.73 3.10782 -0.286554 0
M  V30 31051 N 2934.03 0.461222 1.507 0
M  V30 31052 C 2935.27 -0.0960314 2.04174 0
M  V30 31053 C 2935.63 -1.37866 1.3363 0
M  V30 31054 O 2936.83 -2.01767 1.77605 0
M  V30 31055 C 2935.1 -0.285613 3.56257 0
M  V30 31056 S 2936.66 -0.802841 4.31393 0
M  V30 31057 H 2933.48 -0.0206157 0.710701 0
M  V30 31058 H 2936.08 0.626102 1.85203 0
M  V30 31059 H 2934.79 0.653844 4.05158 0
M  V30 31060 H 2934.32 -1.03415 3.79564 0
M  V30 31061 H 2936.33 -2.07753 4.50614 0
M  V30 31062 N 2935.51 -1.56408 0.193449 0
M  V30 31063 C 2936.73 -2.02358 -0.454517 0
M  V30 31064 C 2937.16 -1.07271 -1.54514 0
M  V30 31065 O 2936.51 -0.055928 -1.81214 0
M  V30 31066 C 2936.56 -3.46761 -0.989408 0
M  V30 31067 O 2935.67 -3.54787 -2.10238 0
M  V30 31068 H 2935.01 -0.655419 -0.106405 0
M  V30 31069 H 2937.54 -2.02331 0.303842 0
M  V30 31070 H 2937.55 -3.86518 -1.30643 0
M  V30 31071 H 2936.22 -4.15461 -0.19101 0
M  V30 31072 H 2934.8 -3.26903 -1.79413 0
M  V30 31073 N 2936.98 0.0801629 -1.57396 0
M  V30 31074 C 2938.23 0.779351 -1.86469 0
M  V30 31075 C 2938.55 1.78533 -0.784274 0
M  V30 31076 O 2937.82 1.94996 0.187952 0
M  V30 31077 H 2936.4 0.290818 -0.688065 0
M  V30 31078 H 2939.07 0.0582406 -1.94813 0
M  V30 31079 H 2938.16 1.30073 -2.83703 0
M  V30 31080 N 2938.46 1.53634 0.351355 0
M  V30 31081 C 2939.69 1.74431 1.11272 0
M  V30 31082 C 2940.11 0.47983 1.82601 0
M  V30 31083 O 2939.46 -0.548094 1.74075 0
M  V30 31084 C 2939.51 2.91925 2.13218 0
M  V30 31085 O 2939.23 4.13482 1.44791 0
M  V30 31086 C 2940.74 3.24711 3.01791 0
M  V30 31087 H 2937.96 0.583029 0.332142 0
M  V30 31088 H 2940.5 2.00431 0.405939 0
M  V30 31089 H 2938.65 2.68279 2.79473 0
M  V30 31090 H 2939.07 4.79378 2.12831 0
M  V30 31091 H 2940.54 4.10293 3.69275 0
M  V30 31092 H 2941.02 2.4068 3.67383 0
M  V30 31093 H 2941.63 3.50334 2.41135 0
M  V30 31094 N 2939.94 -0.611943 1.45234 0
M  V30 31095 C 2941.17 -1.40272 1.5277 0
M  V30 31096 C 2941.59 -1.87421 0.159734 0
M  V30 31097 O 2940.95 -1.59883 -0.854808 0
M  V30 31098 C 2941 -2.58622 2.51291 0
M  V30 31099 O 2940.1 -3.59107 2.0277 0
M  V30 31100 H 2939.44 -0.418949 0.515148 0
M  V30 31101 H 2941.97 -0.745154 1.90548 0
M  V30 31102 H 2941.98 -3.05922 2.69955 0
M  V30 31103 H 2940.66 -2.23653 3.50645 0
M  V30 31104 H 2939.23 -3.18485 1.93963 0
M  V30 31105 N 2941.42 -1.32452 -0.854063 0
M  V30 31106 C 2942.67 -1.224 -1.60316 0
M  V30 31107 C 2942.98 0.212629 -1.94441 0
M  V30 31108 O 2944.19 0.435019 -2.67992 0
M  V30 31109 C 2942.64 -2.14376 -2.89087 0
M  V30 31110 C 2942.25 -3.63123 -2.62384 0
M  V30 31111 C 2943.99 -2.13161 -3.671 0
M  V30 31112 C 2941.9 -4.47059 -3.87159 0
M  V30 31113 H 2940.83 -0.454555 -0.601578 0
M  V30 31114 H 2943.48 -1.57416 -0.942995 0
M  V30 31115 H 2941.86 -1.72274 -3.56564 0
M  V30 31116 H 2943.04 -4.1357 -2.03215 0
M  V30 31117 H 2941.35 -3.66475 -1.977 0
M  V30 31118 H 2943.95 -2.73108 -4.59691 0
M  V30 31119 H 2944.29 -1.12275 -4.00874 0
M  V30 31120 H 2944.83 -2.53545 -3.06528 0
M  V30 31121 H 2941.57 -5.48761 -3.58526 0
M  V30 31122 H 2941.09 -4.01362 -4.45722 0
M  V30 31123 H 2942.76 -4.60089 -4.54892 0
M  V30 31124 N 2942.9 1.07041 -1.15672 0
M  V30 31125 C 2944.14 1.79697 -0.933549 0
M  V30 31126 C 2944.47 1.86879 0.539129 0
M  V30 31127 O 2943.73 1.35096 1.4159 0
M  V30 31128 C 2944.03 3.24546 -1.49683 0
M  V30 31129 C 2943.69 3.37458 -2.99053 0
M  V30 31130 C 2942.35 3.40689 -3.3983 0
M  V30 31131 C 2944.71 3.39997 -3.95033 0
M  V30 31132 C 2942.03 3.44067 -4.75221 0
M  V30 31133 C 2944.39 3.44911 -5.30301 0
M  V30 31134 C 2943.05 3.46422 -5.70568 0
M  V30 31135 H 2942.32 0.657559 -0.34161 0
M  V30 31136 H 2944.97 1.25935 -1.44266 0
M  V30 31137 H 2943.27 3.8111 -0.908982 0
M  V30 31138 H 2944.97 3.79345 -1.29992 0
M  V30 31139 H 2941.56 3.35644 -2.66536 0
M  V30 31140 H 2945.74 3.36719 -3.64601 0
M  V30 31141 H 2941 3.43536 -5.0576 0
M  V30 31142 H 2945.17 3.45823 -6.04466 0
M  V30 31143 H 2942.8 3.48791 -6.75462 0
M  V30 31144 N 2944.38 0.954014 1.25445 0
M  V30 31145 C 2945.32 0.46482 2.27908 0
M  V30 31146 C 2946.32 -0.464578 1.62905 0
M  V30 31147 O 2947.52 -0.341376 1.76733 0
M  V30 31148 H 2943.9 0.131811 0.740358 0
M  V30 31149 H 2945.87 1.34127 2.66557 0
M  V30 31150 C 2944.62 -0.242528 3.46853 0
M  V30 31151 H 2943.94 0.463488 3.97104 0
M  V30 31152 H 2945.38 -0.548845 4.20433 0
M  V30 31153 C 2943.84 -1.46482 3.03389 0
M  V30 31154 O 2944.37 -2.56257 3.09347 0
M  V30 31155 N 2942.58 -1.32595 2.58587 0
M  V30 31156 H 2942.12 -0.432789 2.53938 0
M  V30 31157 H 2942.08 -2.14493 2.2987 0
M  V30 31158 N 2945.85 -1.40063 0.722513 0
M  V30 31159 C 2947.08 -2.05066 0.274874 0
M  V30 31160 C 2947.5 -1.54451 -1.08583 0
M  V30 31161 O 2946.85 -0.704033 -1.68373 0
M  V30 31162 C 2946.9 -3.60608 0.253736 0
M  V30 31163 O 2946.63 -4.09357 1.56071 0
M  V30 31164 C 2948.13 -4.42795 -0.211606 0
M  V30 31165 H 2945.35 -0.659766 0.122272 0
M  V30 31166 H 2947.89 -1.79343 0.982663 0
M  V30 31167 H 2946.05 -3.85276 -0.405069 0
M  V30 31168 H 2946.46 -5.036 1.46585 0
M  V30 31169 H 2947.93 -5.51722 -0.175244 0
M  V30 31170 H 2948.41 -4.20892 -1.25486 0
M  V30 31171 H 2949.02 -4.23249 0.417175 0
M  V30 31172 N 2947.33 -0.469207 -1.50453 0
M  V30 31173 C 2948.26 0.371889 -2.25149 0
M  V30 31174 C 2949.24 0.997822 -1.28383 0
M  V30 31175 O 2950.43 1.03412 -1.57601 0
M  V30 31176 C 2947.55 1.52092 -3.02632 0
M  V30 31177 C 2946.6 1.01254 -4.14306 0
M  V30 31178 S 2947.43 -0.07124 -5.35453 0
M  V30 31179 C 2948.59 1.08171 -6.16482 0
M  V30 31180 H 2948.82 -0.262186 -2.96142 0
M  V30 31181 H 2946.35 -0.254068 -1.52295 0
M  V30 31182 H 2948.31 2.17946 -3.47864 0
M  V30 31183 H 2946.97 2.1265 -2.31169 0
M  V30 31184 H 2946.17 1.8727 -4.67917 0
M  V30 31185 H 2945.77 0.431739 -3.715 0
M  V30 31186 H 2948.06 1.99371 -6.47501 0
M  V30 31187 H 2949 0.584904 -7.0568 0
M  V30 31188 H 2949.41 1.33468 -5.48495 0
M  V30 31189 N 2948.81 1.56303 -0.201741 0
M  V30 31190 C 2950.06 1.96942 0.435522 0
M  V30 31191 C 2950.37 1.09174 1.62297 0
M  V30 31192 O 2951.58 1.39624 2.32846 0
M  V30 31193 C 2950.03 3.50288 0.826236 0
M  V30 31194 C 2949.64 4.46728 -0.337294 0
M  V30 31195 C 2951.39 3.99681 1.43021 0
M  V30 31196 C 2949.29 5.91353 0.0747499 0
M  V30 31197 H 2948.22 0.73539 0.166487 0
M  V30 31198 H 2950.87 1.81116 -0.294813 0
M  V30 31199 H 2949.26 3.61641 1.61343 0
M  V30 31200 H 2950.43 4.47111 -1.11484 0
M  V30 31201 H 2948.74 4.07565 -0.853198 0
M  V30 31202 H 2951.34 5.05215 1.75106 0
M  V30 31203 H 2951.68 3.44375 2.33905 0
M  V30 31204 H 2952.22 3.9147 0.706856 0
M  V30 31205 H 2948.96 6.50599 -0.800071 0
M  V30 31206 H 2948.48 5.94209 0.817018 0
M  V30 31207 H 2950.16 6.45 0.508275 0
M  V30 31208 N 2950.29 -0.0718147 1.57436 0
M  V30 31209 C 2951.24 -1.10407 2.04727 0
M  V30 31210 C 2952.23 -1.40078 0.952604 0
M  V30 31211 O 2953.44 -1.39485 1.13771 0
M  V30 31212 H 2949.81 -0.373382 0.652756 0
M  V30 31213 H 2951.78 -0.679075 2.9057 0
M  V30 31214 C 2950.53 -2.40941 2.50684 0
M  V30 31215 H 2949.85 -2.18961 3.34509 0
M  V30 31216 H 2951.29 -3.11616 2.87526 0
M  V30 31217 C 2949.75 -3.06899 1.38976 0
M  V30 31218 O 2950.28 -3.94977 0.731855 0
M  V30 31219 N 2948.49 -2.67523 1.1349 0
M  V30 31220 H 2948.04 -1.95989 1.67171 0
M  V30 31221 H 2947.99 -3.11978 0.389522 0
M  V30 31222 N 2951.77 -1.53818 -0.343203 0
M  V30 31223 C 2952.71 -1.82529 -1.44173 0
M  V30 31224 C 2953.71 -0.695799 -1.54451 0
M  V30 31225 O 2954.91 -0.879142 -1.5707 0
M  V30 31226 H 2951.29 -0.578285 -0.480719 0
M  V30 31227 H 2953.26 -2.74433 -1.17171 0
M  V30 31228 C 2952.01 -2.05202 -2.80691 0
M  V30 31229 H 2951.33 -2.91566 -2.73549 0
M  V30 31230 H 2952.77 -2.29257 -3.56675 0
M  V30 31231 C 2951.23 -0.837646 -3.26321 0
M  V30 31232 O 2951.76 -0.0372337 -4.01683 0
M  V30 31233 N 2949.97 -0.654773 -2.83127 0
M  V30 31234 H 2949.51 -1.30729 -2.21963 0
M  V30 31235 H 2949.47 0.156289 -3.14011 0
M  V30 31236 N 2953.24 0.604233 -1.45557 0
M  V30 31237 C 2954.49 1.35925 -1.49021 0
M  V30 31238 C 2954.81 1.95117 -0.137443 0
M  V30 31239 O 2956.01 2.71454 -0.0497509 0
M  V30 31240 C 2954.47 2.46234 -2.62482 0
M  V30 31241 C 2954.08 1.9344 -4.04085 0
M  V30 31242 C 2955.82 3.23215 -2.75196 0
M  V30 31243 C 2953.73 3.01251 -5.08922 0
M  V30 31244 H 2952.66 0.510897 -0.554527 0
M  V30 31245 H 2955.31 0.647232 -1.71707 0
M  V30 31246 H 2953.69 3.20136 -2.33085 0
M  V30 31247 H 2954.86 1.26224 -4.43175 0
M  V30 31248 H 2953.18 1.29194 -3.95851 0
M  V30 31249 H 2955.78 4.03634 -3.5069 0
M  V30 31250 H 2956.12 3.74434 -1.81947 0
M  V30 31251 H 2956.65 2.56413 -3.04134 0
M  V30 31252 H 2953.39 2.54944 -6.0389 0
M  V30 31253 H 2952.91 3.67022 -4.74399 0
M  V30 31254 H 2954.59 3.65575 -5.3382 0
M  V30 31255 N 2954.72 1.32903 0.847027 0
M  V30 31256 C 2955.97 1.23248 1.59665 0
M  V30 31257 C 2956.28 -0.202315 1.94551 0
M  V30 31258 O 2957.49 -0.4208 2.68219 0
M  V30 31259 C 2955.95 2.15906 2.87946 0
M  V30 31260 C 2955.55 3.6451 2.60455 0
M  V30 31261 C 2957.3 2.15105 3.65965 0
M  V30 31262 C 2955.2 4.49106 3.84783 0
M  V30 31263 H 2954.13 0.457739 0.599159 0
M  V30 31264 H 2956.79 1.57914 0.934634 0
M  V30 31265 H 2955.17 1.74163 3.55645 0
M  V30 31266 H 2956.34 4.14642 2.01019 0
M  V30 31267 H 2954.66 3.67518 1.95753 0
M  V30 31268 H 2957.25 2.75542 4.58237 0
M  V30 31269 H 2957.6 1.14399 4.00273 0
M  V30 31270 H 2958.13 2.55167 3.05179 0
M  V30 31271 H 2954.87 5.50655 3.55611 0
M  V30 31272 H 2954.39 4.03721 4.43587 0
M  V30 31273 H 2956.07 4.62495 4.52446 0
M  V30 31274 N 2956.2 -1.06426 1.16238 0
M  V30 31275 C 2957.45 -1.78586 0.937554 0
M  V30 31276 C 2957.76 -1.88114 -0.535967 0
M  V30 31277 O 2958.97 -2.56889 -0.878651 0
M  V30 31278 C 2957.42 -3.20967 1.62813 0
M  V30 31279 C 2957.03 -3.19609 3.13933 0
M  V30 31280 C 2958.78 -3.9767 1.48522 0
M  V30 31281 C 2956.68 -4.56702 3.75735 0
M  V30 31282 H 2955.61 -0.669337 0.347137 0
M  V30 31283 H 2958.26 -1.19383 1.39356 0
M  V30 31284 H 2956.65 -3.8042 1.09984 0
M  V30 31285 H 2957.82 -2.69747 3.73595 0
M  V30 31286 H 2956.13 -2.56405 3.28094 0
M  V30 31287 H 2958.73 -4.99009 1.92078 0
M  V30 31288 H 2959.07 -4.14032 0.433986 0
M  V30 31289 H 2959.61 -3.44736 1.985 0
M  V30 31290 H 2956.35 -4.45546 4.80801 0
M  V30 31291 H 2955.87 -5.06765 3.20858 0
M  V30 31292 H 2957.55 -5.25661 3.77213 0
M  V30 31293 N 2957.68 -0.960653 -1.24937 0
M  V30 31294 C 2959.09 -0.666043 -1.45038 0
M  V30 31295 C 2959.29 0.774469 -1.86022 0
M  V30 31296 O 2958.35 1.54913 -1.99395 0
M  V30 31297 C 2959.66 -1.64412 -2.51772 0
M  V30 31298 C 2961.21 -1.65596 -2.65607 0
M  V30 31299 C 2961.69 -2.62183 -3.75531 0
M  V30 31300 N 2963.18 -2.60584 -3.8295 0
M  V30 31301 C 2963.91 -3.31995 -4.67511 0
M  V30 31302 N 2963.41 -4.129 -5.56314 0
M  V30 31303 N 2965.2 -3.20853 -4.6153 0
M  V30 31304 H 2957.35 -1.89147 -0.966287 0
M  V30 31305 H 2959.62 -0.813934 -0.486019 0
M  V30 31306 H 2959.32 -2.67333 -2.28529 0
M  V30 31307 H 2959.2 -1.41134 -3.49801 0
M  V30 31308 H 2961.58 -0.633896 -2.88211 0
M  V30 31309 H 2961.66 -1.92934 -1.67958 0
M  V30 31310 H 2961.31 -3.6452 -3.53677 0
M  V30 31311 H 2961.24 -2.32128 -4.72678 0
M  V30 31312 H 2963.73 -2.01853 -3.19474 0
M  V30 31313 H 2964.04 -4.64294 -6.17779 0
M  V30 31314 H 2962.39 -4.16996 -5.56003 0
M  V30 31315 H 2965.58 -2.57115 -3.91164 0
M  V30 31316 H 2965.75 -3.76772 -5.27207 0
M  V30 31317 N 2959.16 1.39677 -0.729931 0
M  V30 31318 C 2960.38 2.04917 -0.285745 0
M  V30 31319 C 2960.8 1.55025 1.07762 0
M  V30 31320 O 2960.16 0.712952 1.67998 0
M  V30 31321 C 2960.21 3.60469 -0.272856 0
M  V30 31322 O 2959.93 4.08524 -1.5824 0
M  V30 31323 C 2961.43 4.42901 0.188121 0
M  V30 31324 H 2958.65 0.659108 -0.125769 0
M  V30 31325 H 2961.19 1.7882 -0.992161 0
M  V30 31326 H 2959.35 3.85486 0.384631 0
M  V30 31327 H 2959.76 5.02816 -1.49253 0
M  V30 31328 H 2961.24 5.51807 0.145983 0
M  V30 31329 H 2961.71 4.21551 1.23252 0
M  V30 31330 H 2962.32 4.23022 -0.439615 0
M  V30 31331 N 2960.63 0.47718 1.50202 0
M  V30 31332 C 2961.56 -0.303605 2.31518 0
M  V30 31333 C 2962.55 -0.984728 1.38698 0
M  V30 31334 O 2963.73 -0.980728 1.67617 0
M  V30 31335 C 2960.86 -1.38244 3.186 0
M  V30 31336 C 2959.81 -0.822572 4.20021 0
M  V30 31337 C 2959.14 -2.00015 4.95881 0
M  V30 31338 C 2960.44 0.170277 5.22022 0
M  V30 31339 H 2962.13 0.37508 2.97041 0
M  V30 31340 H 2959.68 0.181828 1.42847 0
M  V30 31341 H 2961.63 -1.93619 3.74286 0
M  V30 31342 H 2960.36 -2.08998 2.50973 0
M  V30 31343 H 2959.02 -0.290749 3.65445 0
M  V30 31344 H 2958.66 -2.69481 4.24722 0
M  V30 31345 H 2958.36 -1.63173 5.64489 0
M  V30 31346 H 2959.89 -2.55869 5.54404 0
M  V30 31347 H 2961.3 -0.294506 5.72543 0
M  V30 31348 H 2959.7 0.453286 5.98386 0
M  V30 31349 H 2960.77 1.09416 4.72394 0
M  V30 31350 N 2962.11 -1.56194 0.210027 0
M  V30 31351 C 2963.36 -1.98288 -0.425407 0
M  V30 31352 C 2963.69 -1.09727 -1.6023 0
M  V30 31353 O 2962.97 -0.152448 -1.93902 0
M  V30 31354 C 2963.25 -3.49404 -0.871127 0
M  V30 31355 C 2963.1 -4.4874 0.308606 0
M  V30 31356 C 2964.42 -4.04612 -1.73139 0
M  V30 31357 H 2961.54 -0.720911 -0.153157 0
M  V30 31358 H 2964.18 -1.87553 0.303949 0
M  V30 31359 H 2962.33 -3.58683 -1.4926 0
M  V30 31360 H 2964 -4.51484 0.946567 0
M  V30 31361 H 2962.25 -4.23091 0.957952 0
M  V30 31362 H 2962.92 -5.51981 -0.0460172 0
M  V30 31363 H 2965.39 -3.98206 -1.20713 0
M  V30 31364 H 2964.27 -5.10688 -2.01219 0
M  V30 31365 H 2964.53 -3.50785 -2.69077 0
M  V30 31366 N 2963.59 0.0634645 -1.57472 0
M  V30 31367 C 2964.52 1.07469 -2.07298 0
M  V30 31368 C 2965.5 1.39858 -0.968186 0
M  V30 31369 O 2966.69 1.4934 -1.24141 0
M  V30 31370 C 2963.82 2.38577 -2.52385 0
M  V30 31371 C 2962.77 2.2052 -3.66817 0
M  V30 31372 C 2962.1 3.57085 -3.97988 0
M  V30 31373 C 2963.4 1.61956 -4.96556 0
M  V30 31374 H 2965.09 0.66004 -2.92034 0
M  V30 31375 H 2962.64 0.316049 -1.40489 0
M  V30 31376 H 2964.59 3.09619 -2.85857 0
M  V30 31377 H 2963.31 2.82037 -1.64689 0
M  V30 31378 H 2961.97 1.51918 -3.33641 0
M  V30 31379 H 2961.62 3.98131 -3.0741 0
M  V30 31380 H 2961.32 3.4584 -4.75046 0
M  V30 31381 H 2962.84 4.29544 -4.33963 0
M  V30 31382 H 2964.26 2.22873 -5.28205 0
M  V30 31383 H 2962.66 1.61384 -5.77992 0
M  V30 31384 H 2963.73 0.581834 -4.81397 0
M  V30 31385 N 2965.07 1.53998 0.33504 0
M  V30 31386 C 2966.35 1.6229 1.09185 0
M  V30 31387 C 2966.73 0.449495 2.06259 0
M  V30 31388 O 2966.07 -0.557405 2.21597 0
M  V30 31389 C 2966.28 2.9876 1.80398 0
M  V30 31390 C 2967.63 3.5441 2.33835 0
M  V30 31391 O 2968.66 3.0099 1.90482 0
M  V30 31392 O 2967.51 4.47868 3.13172 0
M  V30 31393 H 2964.61 0.656744 0.502609 0
M  V30 31394 H 2967.15 1.66343 0.335851 0
M  V30 31395 H 2965.93 3.75601 1.09725 0
M  V30 31396 H 2965.55 2.98334 2.62835 0
M  V30 31397 N 2966.55 -0.596505 1.45875 0
M  V30 31398 C 2967.51 -1.6885 1.54991 0
M  V30 31399 C 2968.51 -1.5499 0.428329 0
M  V30 31400 O 2969.7 -1.59858 0.692186 0
M  V30 31401 C 2966.83 -3.08193 1.45705 0
M  V30 31402 H 2968.02 -1.6213 2.52297 0
M  V30 31403 H 2965.58 -0.813183 1.3348 0
M  V30 31404 H 2966.31 -3.2048 0.496261 0
M  V30 31405 H 2966.1 -3.19661 2.27067 0
M  V30 31406 H 2967.59 -3.87713 1.5514 0
M  V30 31407 N 2968.02 -1.3335 -0.839967 0
M  V30 31408 C 2969.25 -1.27596 -1.6249 0
M  V30 31409 C 2969.66 0.155564 -1.88559 0
M  V30 31410 O 2969.01 1.1078 -1.46539 0
M  V30 31411 C 2969.07 -1.98121 -2.9998 0
M  V30 31412 C 2968.73 -3.4743 -2.96886 0
M  V30 31413 C 2969.73 -4.42653 -2.7268 0
M  V30 31414 C 2967.41 -3.8959 -3.17056 0
M  V30 31415 C 2969.41 -5.78009 -2.68671 0
M  V30 31416 C 2967.09 -5.25051 -3.12673 0
M  V30 31417 C 2968.09 -6.19072 -2.88511 0
M  V30 31418 O 2967.78 -7.52052 -2.84029 0
M  V30 31419 H 2967.51 -0.440991 -0.512351 0
M  V30 31420 H 2970.07 -1.76267 -1.05447 0
M  V30 31421 H 2968.3 -1.4404 -3.58872 0
M  V30 31422 H 2969.99 -1.85881 -3.60837 0
M  V30 31423 H 2970.75 -4.11405 -2.56849 0
M  V30 31424 H 2966.63 -3.16818 -3.34884 0
M  V30 31425 H 2970.17 -6.51368 -2.49732 0
M  V30 31426 H 2966.07 -5.55924 -3.28053 0
M  V30 31427 H 2966.84 -7.61587 -2.99879 0
M  V30 31428 N 2969.5 1.05808 -1.16801 0
M  V30 31429 C 2970.45 2.13404 -0.879057 0
M  V30 31430 C 2971.42 1.65181 0.174512 0
M  V30 31431 O 2972.6 1.90761 0.0386508 0
M  V30 31432 C 2969.74 3.4287 -0.391676 0
M  V30 31433 C 2968.86 4.04801 -1.50864 0
M  V30 31434 C 2967.99 5.22161 -0.975774 0
M  V30 31435 C 2967.03 5.76086 -2.06861 0
M  V30 31436 N 2966.17 6.84755 -1.55097 0
M  V30 31437 H 2971.01 2.3746 -1.80047 0
M  V30 31438 H 2968.55 1.16501 -0.898103 0
M  V30 31439 H 2970.5 4.17101 -0.090698 0
M  V30 31440 H 2969.13 3.19016 0.492784 0
M  V30 31441 H 2968.19 3.28069 -1.92548 0
M  V30 31442 H 2969.5 4.4087 -2.33313 0
M  V30 31443 H 2968.65 6.03438 -0.628271 0
M  V30 31444 H 2967.39 4.87551 -0.120652 0
M  V30 31445 H 2966.4 4.93442 -2.42476 0
M  V30 31446 H 2967.62 6.12746 -2.92778 0
M  V30 31447 H 2965.57 6.52054 -0.71846 0
M  V30 31448 H 2965.48 7.19793 -2.31158 0
M  V30 31449 H 2966.75 7.69699 -1.2322 0
M  V30 31450 N 2970.98 0.967265 1.24426 0
M  V30 31451 C 2971.93 0.488967 2.27402 0
M  V30 31452 C 2972.92 -0.447274 1.63389 0
M  V30 31453 O 2974.13 -0.322611 1.77085 0
M  V30 31454 H 2970.5 0.139656 0.738918 0
M  V30 31455 H 2972.47 1.36947 2.65119 0
M  V30 31456 C 2971.22 -0.205726 3.47091 0
M  V30 31457 H 2970.55 0.50558 3.9659 0
M  V30 31458 H 2971.99 -0.504222 4.20991 0
M  V30 31459 C 2970.45 -1.43256 3.04925 0
M  V30 31460 O 2970.98 -2.52962 3.12047 0
M  V30 31461 N 2969.18 -1.29845 2.59978 0
M  V30 31462 H 2968.73 -0.405831 2.54383 0
M  V30 31463 H 2968.69 -2.12043 2.32132 0
M  V30 31464 N 2972.46 -1.39288 0.737328 0
M  V30 31465 C 2973.71 -1.99702 0.283164 0
M  V30 31466 C 2974.02 -1.59178 -1.13674 0
M  V30 31467 O 2975.23 -2.12445 -1.69054 0
M  V30 31468 C 2973.68 -3.57008 0.455324 0
M  V30 31469 C 2973.29 -4.06494 1.88326 0
M  V30 31470 C 2975.04 -4.24453 0.0630532 0
M  V30 31471 C 2972.94 -5.56381 2.00485 0
M  V30 31472 H 2971.87 -0.747053 0.102119 0
M  V30 31473 H 2974.52 -1.59258 0.911543 0
M  V30 31474 H 2972.91 -3.9526 -0.241987 0
M  V30 31475 H 2974.08 -3.79571 2.61272 0
M  V30 31476 H 2972.39 -3.51719 2.22896 0
M  V30 31477 H 2974.99 -5.34535 0.132881 0
M  V30 31478 H 2975.33 -4.04551 -0.982057 0
M  V30 31479 H 2975.87 -3.91383 0.711608 0
M  V30 31480 H 2972.61 -5.81166 3.03193 0
M  V30 31481 H 2972.13 -5.851 1.31979 0
M  V30 31482 H 2973.81 -6.21829 1.78711 0
M  V30 31483 N 2973.94 -0.485139 -1.49947 0
M  V30 31484 C 2975.21 0.127225 -1.95186 0
M  V30 31485 C 2975.59 1.55648 -1.42608 0
M  V30 31486 O 2974.94 2.19556 -0.633024 0
M  V30 31487 C 2975.15 0.0561503 -3.48955 0
M  V30 31488 C 2976.5 0.238032 -4.23932 0
M  V30 31489 O 2977.52 0.132083 -3.55955 0
M  V30 31490 O 2976.38 0.453562 -5.44615 0
M  V30 31491 H 2973.48 0.104 -0.820435 0
M  V30 31492 H 2976.02 -0.546545 -1.60658 0
M  V30 31493 H 2974.8 -0.941188 -3.79812 0
M  V30 31494 H 2974.42 0.770765 -3.90058 0
M  V30 31495 N 2975.42 1.56081 -0.218307 0
M  V30 31496 C 2976.35 2.23138 0.687883 0
M  V30 31497 C 2977.33 1.20202 1.20355 0
M  V30 31498 O 2978.51 1.48778 1.24815 0
M  V30 31499 C 2975.64 2.90877 1.89757 0
M  V30 31500 C 2974.6 4.00256 1.51588 0
M  V30 31501 C 2973.92 4.55276 2.80407 0
M  V30 31502 C 2975.22 5.17475 0.708313 0
M  V30 31503 H 2976.92 2.99123 0.128802 0
M  V30 31504 H 2974.46 1.43873 0.0605101 0
M  V30 31505 H 2976.41 3.36479 2.53693 0
M  V30 31506 H 2975.14 2.12334 2.48157 0
M  V30 31507 H 2973.8 3.55381 0.899995 0
M  V30 31508 H 2973.45 3.73467 3.36944 0
M  V30 31509 H 2973.15 5.29094 2.55603 0
M  V30 31510 H 2974.67 5.03593 3.45291 0
M  V30 31511 H 2976.08 5.59478 1.2513 0
M  V30 31512 H 2974.48 5.97505 0.557488 0
M  V30 31513 H 2975.55 4.84057 -0.285764 0
M  V30 31514 N 2976.89 -0.0551124 1.57504 0
M  V30 31515 C 2978.17 -0.785017 1.79156 0
M  V30 31516 C 2978.55 -1.9494 0.810029 0
M  V30 31517 O 2977.9 -2.27985 -0.153392 0
M  V30 31518 C 2978.11 -1.24242 3.26136 0
M  V30 31519 C 2979.46 -1.66901 3.90422 0
M  V30 31520 O 2980.48 -1.33767 3.30129 0
M  V30 31521 O 2979.34 -2.28305 4.96527 0
M  V30 31522 H 2976.43 -0.377466 0.735832 0
M  V30 31523 H 2978.98 -0.0338986 1.69666 0
M  V30 31524 H 2977.75 -0.410021 3.89146 0
M  V30 31525 H 2977.37 -2.05435 3.40415 0
M  V30 31526 N 2978.37 -1.54173 -0.326869 0
M  V30 31527 C 2979.32 -1.83327 -1.40213 0
M  V30 31528 C 2980.29 -0.680134 -1.51537 0
M  V30 31529 O 2981.47 -0.926235 -1.6681 0
M  V30 31530 C 2978.61 -2.06334 -2.76623 0
M  V30 31531 C 2977.73 -3.34023 -2.73957 0
M  V30 31532 C 2976.86 -3.47009 -4.02192 0
M  V30 31533 C 2975.9 -4.68585 -3.9382 0
M  V30 31534 N 2975.04 -4.78515 -5.13778 0
M  V30 31535 H 2979.88 -2.75062 -1.14651 0
M  V30 31536 H 2977.41 -1.36226 -0.555065 0
M  V30 31537 H 2979.37 -2.17665 -3.55918 0
M  V30 31538 H 2978 -1.17895 -3.00501 0
M  V30 31539 H 2977.05 -3.31448 -1.86671 0
M  V30 31540 H 2978.37 -4.23425 -2.63653 0
M  V30 31541 H 2977.52 -3.57863 -4.89917 0
M  V30 31542 H 2976.26 -2.55694 -4.15297 0
M  V30 31543 H 2975.26 -4.57791 -3.04479 0
M  V30 31544 H 2976.49 -5.61282 -3.82282 0
M  V30 31545 H 2974.44 -3.90114 -5.27396 0
M  V30 31546 H 2974.35 -5.61877 -5.05797 0
M  V30 31547 H 2975.62 -4.93697 -6.03228 0
M  V30 31548 N 2979.85 0.58876 -1.4619 0
M  V30 31549 C 2980.78 1.7086 -1.59151 0
M  V30 31550 C 2981.76 1.64254 -0.442112 0
M  V30 31551 O 2982.95 1.82364 -0.667608 0
M  V30 31552 C 2980.08 3.09495 -1.57576 0
M  V30 31553 C 2979.03 3.30928 -2.71424 0
M  V30 31554 C 2978.36 4.70028 -2.54908 0
M  V30 31555 C 2979.66 3.19349 -4.13296 0
M  V30 31556 H 2981.35 1.60269 -2.52892 0
M  V30 31557 H 2978.9 0.769617 -1.21708 0
M  V30 31558 H 2980.85 3.87652 -1.65238 0
M  V30 31559 H 2979.57 3.20971 -0.603761 0
M  V30 31560 H 2978.23 2.55167 -2.63221 0
M  V30 31561 H 2977.88 4.78261 -1.55805 0
M  V30 31562 H 2977.58 4.85321 -3.31266 0
M  V30 31563 H 2979.1 5.50361 -2.64452 0
M  V30 31564 H 2980.52 3.87358 -4.22643 0
M  V30 31565 H 2978.91 3.46166 -4.90193 0
M  V30 31566 H 2979.98 2.16514 -4.33877 0
M  V30 31567 N 2981.33 1.33794 0.832883 0
M  V30 31568 C 2982.27 1.24545 1.94312 0
M  V30 31569 C 2983.24 0.122783 1.65646 0
M  V30 31570 O 2984.43 0.302073 1.88394 0
M  V30 31571 C 2981.57 0.996699 3.30394 0
M  V30 31572 C 2980.68 2.20619 3.71418 0
M  V30 31573 C 2979.82 1.89109 4.96398 0
M  V30 31574 C 2978.86 3.06256 5.29975 0
M  V30 31575 N 2977.99 2.74696 6.46132 0
M  V30 31576 H 2982.83 2.19499 2.01555 0
M  V30 31577 H 2980.37 1.09142 0.986224 0
M  V30 31578 H 2982.33 0.832889 4.08802 0
M  V30 31579 H 2980.96 0.0838809 3.22691 0
M  V30 31580 H 2980.01 2.47954 2.88484 0
M  V30 31581 H 2981.32 3.08177 3.9221 0
M  V30 31582 H 2980.48 1.69407 5.82569 0
M  V30 31583 H 2979.22 0.987966 4.77588 0
M  V30 31584 H 2978.22 3.26566 4.42306 0
M  V30 31585 H 2979.45 3.97333 5.5073 0
M  V30 31586 H 2977.39 1.86949 6.28797 0
M  V30 31587 H 2977.31 3.55785 6.67048 0
M  V30 31588 H 2978.58 2.58474 7.35399 0
M  V30 31589 N 2982.81 -1.05187 1.1736 0
M  V30 31590 C 2984.05 -1.77581 0.956443 0
M  V30 31591 C 2984.37 -1.88672 -0.515985 0
M  V30 31592 O 2985.57 -2.57806 -0.851355 0
M  V30 31593 C 2984.03 -3.19222 1.66209 0
M  V30 31594 C 2983.64 -3.16262 3.17305 0
M  V30 31595 C 2985.38 -3.96072 1.52732 0
M  V30 31596 C 2983.29 -4.52691 3.80558 0
M  V30 31597 H 2982.22 -0.665618 0.354216 0
M  V30 31598 H 2984.87 -1.17898 1.40614 0
M  V30 31599 H 2983.25 -3.79232 1.14013 0
M  V30 31600 H 2984.43 -2.65769 3.76435 0
M  V30 31601 H 2982.74 -2.52911 3.30795 0
M  V30 31602 H 2985.34 -4.96944 1.9736 0
M  V30 31603 H 2985.68 -4.13548 0.477875 0
M  V30 31604 H 2986.21 -3.42611 2.02145 0
M  V30 31605 H 2982.95 -4.40421 4.85499 0
M  V30 31606 H 2982.47 -5.03333 3.26215 0
M  V30 31607 H 2984.15 -5.21631 3.82767 0
M  V30 31608 N 2984.28 -0.97385 -1.23911 0
M  V30 31609 C 2985.53 -0.634674 -1.91454 0
M  V30 31610 C 2985.85 0.834728 -1.76894 0
M  V30 31611 O 2987.05 1.28469 -2.39182 0
M  V30 31612 C 2985.51 -1.08453 -3.4317 0
M  V30 31613 C 2985.12 -2.57782 -3.66405 0
M  V30 31614 C 2986.86 -0.818795 -4.16529 0
M  V30 31615 C 2984.77 -2.96469 -5.11723 0
M  V30 31616 H 2983.7 -0.233674 -0.716877 0
M  V30 31617 H 2986.35 -1.18088 -1.40455 0
M  V30 31618 H 2984.73 -0.466594 -3.93242 0
M  V30 31619 H 2985.9 -3.24759 -3.26907 0
M  V30 31620 H 2984.22 -2.82032 -3.06344 0
M  V30 31621 H 2986.82 -1.08377 -5.23602 0
M  V30 31622 H 2987.16 0.245055 -4.15578 0
M  V30 31623 H 2987.69 -1.398 -3.72426 0
M  V30 31624 H 2984.43 -4.0195 -5.17799 0
M  V30 31625 H 2983.95 -2.34181 -5.52195 0
M  V30 31626 H 2985.63 -2.86713 -5.80004 0
M  V30 31627 N 2985.76 1.38895 -0.744705 0
M  V30 31628 C 2986.72 2.28888 -0.11949 0
M  V30 31629 C 2987.72 1.46769 0.656916 0
M  V30 31630 O 2988.91 1.67327 0.484496 0
M  V30 31631 C 2986.05 3.304 0.839577 0
M  V30 31632 H 2987.24 2.85682 -0.912464 0
M  V30 31633 H 2984.79 1.47706 -0.511145 0
M  V30 31634 H 2985.53 2.7868 1.65855 0
M  V30 31635 H 2985.31 3.9106 0.285364 0
M  V30 31636 H 2986.8 3.97715 1.2733 0
M  V30 31637 N 2987.24 0.493084 1.49688 0
M  V30 31638 C 2988.47 -0.0512033 2.06537 0
M  V30 31639 C 2988.88 -1.32087 1.35461 0
M  V30 31640 O 2988.22 -1.78736 0.424177 0
M  V30 31641 C 2988.28 -0.383168 3.57452 0
M  V30 31642 C 2987.95 0.787634 4.50161 0
M  V30 31643 C 2988.94 1.67591 4.92148 0
M  V30 31644 C 2986.63 0.984195 4.92564 0
M  V30 31645 C 2988.62 2.74497 5.75265 0
M  V30 31646 C 2986.31 2.05644 5.75459 0
M  V30 31647 C 2987.31 2.93518 6.16714 0
M  V30 31648 O 2987 3.98893 6.97954 0
M  V30 31649 H 2986.73 0.0136635 0.675862 0
M  V30 31650 H 2989.28 0.687332 1.93559 0
M  V30 31651 H 2987.51 -1.17519 3.6841 0
M  V30 31652 H 2989.2 -0.86513 3.96573 0
M  V30 31653 H 2989.97 1.53584 4.6004 0
M  V30 31654 H 2985.85 0.309622 4.59959 0
M  V30 31655 H 2989.39 3.43115 6.07386 0
M  V30 31656 H 2985.29 2.1965 6.06979 0
M  V30 31657 H 2986.06 3.96149 7.16246 0
M  V30 31658 N 2988.72 -1.55963 0.226582 0
M  V30 31659 C 2989.97 -1.98042 -0.402957 0
M  V30 31660 C 2990.29 -1.1156 -1.59936 0
M  V30 31661 O 2989.56 -0.193754 -1.94939 0
M  V30 31662 H 2988.14 -0.7314 -0.151867 0
M  V30 31663 H 2990.8 -1.92244 0.320647 0
M  V30 31664 H 2989.9 -3.03541 -0.725883 0
M  V30 31665 N 2990.2 0.0467589 -1.57531 0
M  V30 31666 C 2991.47 0.775505 -1.7957 0
M  V30 31667 C 2991.85 1.94508 -0.820356 0
M  V30 31668 O 2991.2 2.28063 0.1413 0
M  V30 31669 C 2991.41 1.2251 -3.26791 0
M  V30 31670 C 2992.76 1.64828 -3.91301 0
M  V30 31671 O 2993.78 1.32014 -3.30833 0
M  V30 31672 O 2992.64 2.25669 -4.97731 0
M  V30 31673 H 2989.74 0.373559 -0.737823 0
M  V30 31674 H 2992.28 0.0249004 -1.69682 0
M  V30 31675 H 2991.05 0.389378 -3.89358 0
M  V30 31676 H 2990.68 2.03627 -3.415 0
M  V30 31677 N 2991.67 1.54344 0.318688 0
M  V30 31678 C 2992.95 1.63439 1.07458 0
M  V30 31679 C 2993.33 0.471346 2.05771 0
M  V30 31680 O 2992.68 -0.533871 2.22176 0
M  V30 31681 C 2992.89 3.00657 1.77219 0
M  V30 31682 C 2994.24 3.5687 2.30063 0
M  V30 31683 O 2995.26 3.02994 1.87278 0
M  V30 31684 O 2994.12 4.51164 3.08405 0
M  V30 31685 H 2991.21 0.662038 0.495615 0
M  V30 31686 H 2993.76 1.6669 0.318189 0
M  V30 31687 H 2992.53 3.76744 1.05736 0
M  V30 31688 H 2992.16 3.01105 2.59656 0
M  V30 31689 N 2993.15 -0.580999 1.465 0
M  V30 31690 C 2994.4 -1.34113 1.52123 0
M  V30 31691 C 2994.73 -1.93427 0.173065 0
M  V30 31692 O 2994.01 -1.76569 -0.815698 0
M  V30 31693 C 2994.29 -2.4692 2.62112 0
M  V30 31694 C 2994.14 -1.92629 4.06465 0
M  V30 31695 C 2995.46 -3.48957 2.68173 0
M  V30 31696 H 2992.58 -0.486277 0.553808 0
M  V30 31697 H 2995.22 -0.652507 1.78444 0
M  V30 31698 H 2993.37 -3.05661 2.39799 0
M  V30 31699 H 2995.04 -1.38332 4.4007 0
M  V30 31700 H 2993.29 -1.23448 4.15864 0
M  V30 31701 H 2993.96 -2.74068 4.79157 0
M  V30 31702 H 2996.43 -3.00099 2.88235 0
M  V30 31703 H 2995.31 -4.25344 3.46949 0
M  V30 31704 H 2995.57 -4.06294 1.74291 0
M  V30 31705 N 2994.63 -1.34234 -0.825776 0
M  V30 31706 C 2995.88 -1.25773 -1.57684 0
M  V30 31707 C 2996.19 0.171338 -1.94848 0
M  V30 31708 O 2997.4 0.378076 -2.68855 0
M  V30 31709 C 2995.85 -2.20459 -2.84474 0
M  V30 31710 C 2995.46 -3.68607 -2.54623 0
M  V30 31711 C 2997.21 -2.209 -3.62496 0
M  V30 31712 C 2995.11 -4.55171 -3.77589 0
M  V30 31713 H 2994.04 -0.467213 -0.591801 0
M  V30 31714 H 2996.69 -1.59381 -0.909393 0
M  V30 31715 H 2995.08 -1.79799 -3.52829 0
M  V30 31716 H 2996.25 -4.17788 -1.94397 0
M  V30 31717 H 2994.57 -3.70586 -1.89882 0
M  V30 31718 H 2997.16 -2.82797 -4.53795 0
M  V30 31719 H 2997.51 -1.20753 -3.98402 0
M  V30 31720 H 2998.04 -2.5999 -3.01081 0
M  V30 31721 H 2994.78 -5.56243 -3.46806 0
M  V30 31722 H 2994.3 -4.10727 -4.37108 0
M  V30 31723 H 2995.98 -4.69635 -4.4503 0
M  V30 31724 N 2996.11 1.04563 -1.17917 0
M  V30 31725 C 2997.36 1.77677 -0.971455 0
M  V30 31726 C 2997.68 1.8798 0.499368 0
M  V30 31727 O 2996.94 1.38069 1.38692 0
M  V30 31728 C 2997.24 3.21298 -1.56533 0
M  V30 31729 C 2996.9 3.31039 -3.06144 0
M  V30 31730 C 2995.57 3.33404 -3.4698 0
M  V30 31731 C 2997.92 3.31541 -4.02156 0
M  V30 31732 C 2995.25 3.33909 -4.82412 0
M  V30 31733 C 2997.6 3.33585 -5.37497 0
M  V30 31734 C 2996.26 3.34241 -5.77788 0
M  V30 31735 H 2995.53 0.650165 -0.355481 0
M  V30 31736 H 2998.18 1.22847 -1.46905 0
M  V30 31737 H 2996.48 3.79096 -0.989617 0
M  V30 31738 H 2998.18 3.76503 -1.3801 0
M  V30 31739 H 2994.77 3.29915 -2.73595 0
M  V30 31740 H 2998.95 3.28909 -3.71662 0
M  V30 31741 H 2994.21 3.32731 -5.12933 0
M  V30 31742 H 2998.38 3.32923 -6.11666 0
M  V30 31743 H 2996.01 3.34385 -6.82708 0
M  V30 31744 N 2997.59 0.980408 1.23393 0
M  V30 31745 C 2998.81 0.66697 1.96383 0
M  V30 31746 C 2999.24 -0.759426 1.72088 0
M  V30 31747 O 2998.59 -1.5173 0.992355 0
M  V30 31748 C 2998.64 0.963238 3.47497 0
M  V30 31749 O 2997.75 0.0552775 4.12363 0
M  V30 31750 H 2997.09 0.25085 0.614793 0
M  V30 31751 H 2999.62 1.314 1.56828 0
M  V30 31752 H 2999.63 0.899947 3.97951 0
M  V30 31753 H 2998.3 2.0027 3.64506 0
M  V30 31754 H 2996.88 0.172979 3.72499 0
M  V30 31755 N 2999.06 -1.38498 0.75206 0
M  V30 31756 C 3000.29 -2.0414 0.317848 0
M  V30 31757 C 3000.7 -1.5684 -1.05819 0
M  V30 31758 O 3000.05 -0.736046 -1.68309 0
M  V30 31759 C 3000.11 -3.58557 0.260268 0
M  V30 31760 C 2999.77 -4.28906 1.5776 0
M  V30 31761 C 3000.77 -4.54383 2.5265 0
M  V30 31762 C 2998.45 -4.67125 1.84661 0
M  V30 31763 C 3000.45 -5.17109 3.72662 0
M  V30 31764 C 2998.13 -5.29576 3.04947 0
M  V30 31765 C 2999.13 -5.54502 3.98768 0
M  V30 31766 O 2998.82 -6.15653 5.16939 0
M  V30 31767 H 2998.55 -0.662597 0.133943 0
M  V30 31768 H 3001.11 -1.78203 1.02141 0
M  V30 31769 H 2999.34 -3.8346 -0.499529 0
M  V30 31770 H 3001.03 -4.05644 -0.144224 0
M  V30 31771 H 3001.79 -4.25287 2.33143 0
M  V30 31772 H 2997.67 -4.4707 1.12472 0
M  V30 31773 H 3001.21 -5.36481 4.45908 0
M  V30 31774 H 2997.11 -5.58093 3.24348 0
M  V30 31775 H 2997.88 -6.34141 5.17501 0
M  V30 31776 N 3000.54 -0.501015 -1.49424 0
M  V30 31777 C 3001.49 0.277403 -2.29127 0
M  V30 31778 C 3002.46 0.960339 -1.35524 0
M  V30 31779 O 3003.64 0.966998 -1.6448 0
M  V30 31780 C 3000.78 1.33588 -3.18195 0
M  V30 31781 C 2999.9 0.664716 -4.26855 0
M  V30 31782 C 2999.03 1.70363 -5.0314 0
M  V30 31783 C 2998.07 1.01434 -6.03637 0
M  V30 31784 N 2997.21 1.99746 -6.73087 0
M  V30 31785 H 3002.05 -0.40851 -2.95187 0
M  V30 31786 H 2999.59 -0.213301 -1.45545 0
M  V30 31787 H 3001.54 1.96155 -3.68211 0
M  V30 31788 H 3000.17 1.99055 -2.5412 0
M  V30 31789 H 2999.23 -0.0742377 -3.80328 0
M  V30 31790 H 3000.54 0.122109 -4.98651 0
M  V30 31791 H 2999.69 2.40435 -5.57024 0
M  V30 31792 H 2998.43 2.28009 -4.31118 0
M  V30 31793 H 2997.44 0.2994 -5.48984 0
M  V30 31794 H 2998.66 0.444378 -6.77645 0
M  V30 31795 H 2996.61 2.56354 -6.03836 0
M  V30 31796 H 2996.52 1.50552 -7.40858 0
M  V30 31797 H 2997.79 2.69106 -7.31575 0
M  V30 31798 N 3002.02 1.5584 -0.234849 0
M  V30 31799 C 3003.25 2.02747 0.397132 0
M  V30 31800 C 3003.66 1.1137 1.52949 0
M  V30 31801 O 3003 0.118165 1.8332 0
M  V30 31802 C 3003.06 3.4595 0.977688 0
M  V30 31803 C 3002.73 4.56995 -0.0208997 0
M  V30 31804 C 3003.73 5.13295 -0.826105 0
M  V30 31805 C 3001.41 5.02095 -0.143504 0
M  V30 31806 C 3003.4 6.13177 -1.74049 0
M  V30 31807 C 3001.09 6.01812 -1.06141 0
M  V30 31808 C 3002.09 6.5723 -1.85843 0
M  V30 31809 O 3001.78 7.55004 -2.76088 0
M  V30 31810 H 3001.51 0.668567 0.0999685 0
M  V30 31811 H 3004.06 2.02349 -0.352709 0
M  V30 31812 H 3002.29 3.43459 1.77687 0
M  V30 31813 H 3003.98 3.76427 1.51847 0
M  V30 31814 H 3004.75 4.79292 -0.741906 0
M  V30 31815 H 3000.63 4.58631 0.466776 0
M  V30 31816 H 3004.17 6.56359 -2.36302 0
M  V30 31817 H 3000.07 6.35235 -1.14657 0
M  V30 31818 H 3000.84 7.72576 -2.70313 0
M  V30 31819 N 3003.5 -0.038404 1.57553 0
M  V30 31820 C 3004.73 -0.743107 1.93095 0
M  V30 31821 C 3005.14 -1.6939 0.833817 0
M  V30 31822 O 3004.5 -1.81503 -0.1905 0
M  V30 31823 C 3004.55 -1.50821 3.28535 0
M  V30 31824 O 3004.27 -0.595589 4.34033 0
M  V30 31825 C 3005.77 -2.31091 3.78301 0
M  V30 31826 H 3002.99 -0.209399 0.63749 0
M  V30 31827 H 3005.54 0.00128748 2.045 0
M  V30 31828 H 3003.69 -2.20456 3.18556 0
M  V30 31829 H 3004.11 -1.13115 5.12157 0
M  V30 31830 H 3005.58 -2.80183 4.75607 0
M  V30 31831 H 3006.06 -3.12102 3.09013 0
M  V30 31832 H 3006.66 -1.66548 3.91334 0
M  V30 31833 N 3004.98 -1.54511 -0.310498 0
M  V30 31834 C 3005.91 -1.87802 -1.38754 0
M  V30 31835 C 3006.89 -0.736018 -1.53352 0
M  V30 31836 O 3008.07 -0.990917 -1.67016 0
M  V30 31837 C 3005.2 -2.11694 -2.75323 0
M  V30 31838 C 3004.16 -3.27541 -2.75501 0
M  V30 31839 C 3003.48 -3.36832 -4.15269 0
M  V30 31840 C 3004.78 -4.6488 -2.38084 0
M  V30 31841 H 3006.48 -2.78007 -1.11141 0
M  V30 31842 H 3004.02 -1.33764 -0.533208 0
M  V30 31843 H 3005.98 -2.33568 -3.50748 0
M  V30 31844 H 3004.7 -1.1825 -3.04441 0
M  V30 31845 H 3003.36 -3.05575 -2.02532 0
M  V30 31846 H 3003.01 -2.40922 -4.41549 0
M  V30 31847 H 3002.71 -4.14699 -4.16291 0
M  V30 31848 H 3004.23 -3.60955 -4.92487 0
M  V30 31849 H 3005.65 -4.86548 -3.03223 0
M  V30 31850 H 3004.04 -5.45392 -2.50335 0
M  V30 31851 H 3005.11 -4.66241 -1.33219 0
M  V30 31852 N 3006.46 0.573222 -1.46806 0
M  V30 31853 C 3007.73 1.33365 -1.43084 0
M  V30 31854 C 3008.11 2.10763 -0.119289 0
M  V30 31855 O 3007.46 2.10063 0.899202 0
M  V30 31856 C 3007.67 2.25168 -2.66647 0
M  V30 31857 C 3009.02 2.86697 -3.13193 0
M  V30 31858 O 3010.04 2.35477 -2.67262 0
M  V30 31859 O 3008.9 3.79754 -3.93 0
M  V30 31860 H 3006 0.599702 -0.569461 0
M  V30 31861 H 3008.54 0.593452 -1.58985 0
M  V30 31862 H 3007.31 1.67469 -3.53652 0
M  V30 31863 H 3006.94 3.06511 -2.53252 0
M  V30 31864 N 3007.93 1.3467 0.818645 0
M  V30 31865 C 3008.87 1.20945 1.93514 0
M  V30 31866 C 3009.84 0.10009 1.62292 0
M  V30 31867 O 3011.03 0.266015 1.86614 0
M  V30 31868 C 3008.16 0.859581 3.27611 0
M  V30 31869 C 3007.2 1.9793 3.77791 0
M  V30 31870 S 3008.03 3.59336 3.97037 0
M  V30 31871 C 3009.19 3.264 5.34054 0
M  V30 31872 H 3009.42 2.15452 2.0486 0
M  V30 31873 H 3006.96 1.19746 0.974695 0
M  V30 31874 H 3008.91 0.664515 4.05086 0
M  V30 31875 H 3007.58 -0.0672283 3.14028 0
M  V30 31876 H 3006.77 1.68835 4.7488 0
M  V30 31877 H 3006.37 2.13207 3.07276 0
M  V30 31878 H 3008.66 2.7848 6.17621 0
M  V30 31879 H 3009.61 4.22644 5.68135 0
M  V30 31880 H 3010.01 2.62473 4.99768 0
M  V30 31881 N 3009.41 -1.03936 1.1847 0
M  V30 31882 C 3010.32 -2.15468 0.927927 0
M  V30 31883 C 3011.34 -1.73662 -0.108417 0
M  V30 31884 O 3012.51 -2.01265 0.073799 0
M  V30 31885 C 3009.58 -3.43654 0.458554 0
M  V30 31886 C 3008.64 -3.99835 1.56302 0
M  V30 31887 C 3007.87 -5.21903 1.11595 0
M  V30 31888 O 3008.1 -5.70395 -0.0248054 0
M  V30 31889 O 3007.03 -5.7065 1.91422 0
M  V30 31890 H 3010.86 -2.39986 1.8612 0
M  V30 31891 H 3008.44 -1.13915 0.966627 0
M  V30 31892 H 3010.32 -4.20901 0.204935 0
M  V30 31893 H 3009 -3.20607 -0.446408 0
M  V30 31894 H 3007.9 -3.2397 1.87067 0
M  V30 31895 H 3009.24 -4.27226 2.44415 0
M  V30 31896 N 3010.89 -0.986938 -1.22871 0
M  V30 31897 C 3011.85 -0.537481 -2.22809 0
M  V30 31898 C 3012.85 0.376432 -1.56332 0
M  V30 31899 O 3014.04 0.169216 -1.73376 0
M  V30 31900 C 3011.17 0.219022 -3.40196 0
M  V30 31901 H 3012.37 -1.42121 -2.64087 0
M  V30 31902 H 3009.92 -0.773512 -1.35818 0
M  V30 31903 H 3010.66 1.119 -3.04383 0
M  V30 31904 H 3010.44 -0.437095 -3.89656 0
M  V30 31905 H 3011.93 0.521853 -4.14327 0
M  V30 31906 N 3012.37 1.38098 -0.759394 0
M  V30 31907 C 3013.62 1.99227 -0.314899 0
M  V30 31908 C 3013.93 1.60966 1.11127 0
M  V30 31909 O 3015.14 2.15108 1.65653 0
M  V30 31910 C 3013.59 3.56239 -0.512064 0
M  V30 31911 C 3013.2 4.03446 -1.94769 0
M  V30 31912 C 3014.94 4.24299 -0.130572 0
M  V30 31913 C 3012.85 5.53121 -2.09311 0
M  V30 31914 H 3011.78 0.745333 -0.113991 0
M  V30 31915 H 3014.43 1.57788 -0.936764 0
M  V30 31916 H 3012.81 3.95595 0.179074 0
M  V30 31917 H 3013.99 3.75366 -2.67277 0
M  V30 31918 H 3012.3 3.48129 -2.28463 0
M  V30 31919 H 3014.9 5.34256 -0.217904 0
M  V30 31920 H 3015.24 4.06062 0.917572 0
M  V30 31921 H 3015.78 3.90202 -0.773784 0
M  V30 31922 H 3012.51 5.76269 -3.124 0
M  V30 31923 H 3012.03 5.82926 -1.41271 0
M  V30 31924 H 3013.71 6.18907 -1.88581 0
M  V30 31925 N 3013.85 0.508932 1.49156 0
M  V30 31926 C 3014.81 -0.254299 2.27785 0
M  V30 31927 C 3015.81 -0.886837 1.34134 0
M  V30 31928 O 3017 -0.75014 1.57221 0
M  V30 31929 C 3014.13 -1.36567 3.1235 0
M  V30 31930 H 3015.32 0.435767 2.96717 0
M  V30 31931 H 3012.88 0.264155 1.54052 0
M  V30 31932 H 3013.61 -2.08964 2.48001 0
M  V30 31933 H 3013.4 -0.917476 3.81215 0
M  V30 31934 H 3014.89 -1.90308 3.71716 0
M  V30 31935 N 3015.32 -1.55714 0.243111 0
M  V30 31936 C 3016.27 -2.22611 -0.67431 0
M  V30 31937 C 3017.27 -1.21245 -1.18305 0
M  V30 31938 O 3018.47 -1.39267 -1.14038 0
M  V30 31939 H 3014.85 -0.714032 -0.235928 0
M  V30 31940 H 3016.82 -2.98273 -0.0868922 0
M  V30 31941 C 3015.57 -2.9364 -1.862 0
M  V30 31942 H 3014.89 -3.7141 -1.47969 0
M  V30 31943 H 3016.33 -3.43818 -2.48124 0
M  V30 31944 C 3014.79 -1.97303 -2.73081 0
M  V30 31945 O 3015.32 -1.50368 -3.72495 0
M  V30 31946 N 3013.52 -1.64486 -2.39568 0
M  V30 31947 H 3013.07 -2.02849 -1.58777 0
M  V30 31948 H 3013.03 -1.00293 -2.97974 0
M  V30 31949 N 3016.8 0.030048 -1.57571 0
M  V30 31950 C 3017.71 1.04794 -2.09893 0
M  V30 31951 C 3018.73 1.39697 -1.03735 0
M  V30 31952 O 3019.9 1.49036 -1.35464 0
M  V30 31953 C 3016.97 2.33024 -2.56712 0
M  V30 31954 C 3016.03 2.04712 -3.77348 0
M  V30 31955 C 3015.26 3.26827 -4.21924 0
M  V30 31956 O 3015.49 4.37466 -3.66033 0
M  V30 31957 O 3014.42 3.12585 -5.14368 0
M  V30 31958 H 3018.25 0.633292 -2.97024 0
M  V30 31959 H 3015.83 0.246966 -1.47345 0
M  V30 31960 H 3017.71 3.08411 -2.87159 0
M  V30 31961 H 3016.39 2.73786 -1.72693 0
M  V30 31962 H 3015.3 1.26895 -3.51921 0
M  V30 31963 H 3016.63 1.68805 -4.62348 0
M  V30 31964 N 3018.28 1.54674 0.3023 0
M  V30 31965 C 3019.53 1.73549 1.03562 0
M  V30 31966 C 3019.85 0.523481 1.87842 0
M  V30 31967 O 3019.12 -0.462261 1.90368 0
M  V30 31968 H 3017.7 0.639935 0.385347 0
M  V30 31969 H 3020.36 1.92024 0.333598 0
M  V30 31970 H 3019.46 2.62418 1.68947 0
M  V30 31971 N 3019.76 -0.565428 1.47108 0
M  V30 31972 C 3020.71 -1.67317 1.58977 0
M  V30 31973 C 3021.68 -1.60352 0.433174 0
M  V30 31974 O 3022.86 -1.79308 0.652173 0
M  V30 31975 C 3020 -3.05648 1.60229 0
M  V30 31976 C 3019.11 -3.2311 2.86747 0
M  V30 31977 C 3018.25 -4.51791 2.79389 0
M  V30 31978 C 3017.29 -4.62657 4.00768 0
M  V30 31979 N 3016.42 -5.82683 3.91695 0
M  V30 31980 H 3021.26 -1.56511 2.53591 0
M  V30 31981 H 3018.8 -0.762536 1.25793 0
M  V30 31982 H 3020.76 -3.85738 1.58939 0
M  V30 31983 H 3019.39 -3.1531 0.69134 0
M  V30 31984 H 3018.44 -2.36508 2.9794 0
M  V30 31985 H 3019.75 -3.27005 3.76655 0
M  V30 31986 H 3018.91 -5.40131 2.76302 0
M  V30 31987 H 3017.65 -4.50362 1.87149 0
M  V30 31988 H 3016.65 -3.72731 4.04168 0
M  V30 31989 H 3017.88 -4.65851 4.94125 0
M  V30 31990 H 3015.82 -5.82219 3.02253 0
M  V30 31991 H 3015.74 -5.8792 4.75275 0
M  V30 31992 H 3017.01 -6.73407 3.92611 0
M  V30 31993 N 3021.24 -1.35102 -0.811492 0
M  V30 31994 C 3022.18 -1.2762 -1.92306 0
M  V30 31995 C 3023.15 -0.14912 -1.65429 0
M  V30 31996 O 3024.34 -0.332007 -1.87889 0
M  V30 31997 C 3021.48 -1.04914 -3.28766 0
M  V30 31998 C 3020.59 -2.265 -3.67861 0
M  V30 31999 C 3019.73 -1.96983 -4.93327 0
M  V30 32000 C 3018.77 -3.14649 -5.25036 0
M  V30 32001 N 3017.9 -2.84941 -6.4168 0
M  V30 32002 H 3022.74 -2.22677 -1.98037 0
M  V30 32003 H 3020.28 -1.10697 -0.968736 0
M  V30 32004 H 3022.24 -0.897821 -4.07425 0
M  V30 32005 H 3020.87 -0.135208 -3.22517 0
M  V30 32006 H 3019.92 -2.52512 -2.84503 0
M  V30 32007 H 3021.23 -3.14378 -3.87257 0
M  V30 32008 H 3020.39 -1.78653 -5.798 0
M  V30 32009 H 3019.12 -1.06382 -4.75956 0
M  V30 32010 H 3018.13 -3.33562 -4.37055 0
M  V30 32011 H 3019.35 -4.06044 -5.44339 0
M  V30 32012 H 3017.3 -1.96929 -6.25744 0
M  V30 32013 H 3017.22 -3.66353 -6.61303 0
M  V30 32014 H 3018.49 -2.70141 -7.31194 0
M  V30 32015 N 3022.71 1.03306 -1.19019 0
M  V30 32016 C 3023.94 1.8001 -1.0139 0
M  V30 32017 C 3024.35 1.83998 0.440623 0
M  V30 32018 O 3023.7 1.27979 1.31784 0
M  V30 32019 C 3023.76 3.2663 -1.50177 0
M  V30 32020 C 3023.42 3.46287 -2.98219 0
M  V30 32021 C 3024.42 3.3685 -3.96015 0
M  V30 32022 C 3022.1 3.72637 -3.36819 0
M  V30 32023 C 3024.1 3.53481 -5.30406 0
M  V30 32024 C 3021.78 3.88913 -4.7137 0
M  V30 32025 C 3022.78 3.79337 -5.67972 0
M  V30 32026 O 3022.47 3.95138 -7.00086 0
M  V30 32027 H 3022.2 0.573478 -0.35791 0
M  V30 32028 H 3024.76 1.31036 -1.58173 0
M  V30 32029 H 3022.99 3.76609 -0.877652 0
M  V30 32030 H 3024.68 3.84916 -1.2882 0
M  V30 32031 H 3025.44 3.16449 -3.67539 0
M  V30 32032 H 3021.32 3.79185 -2.62182 0
M  V30 32033 H 3024.86 3.45922 -6.05792 0
M  V30 32034 H 3020.76 4.08811 -4.99544 0
M  V30 32035 H 3021.53 4.12254 -7.07099 0
M  V30 32036 N 3024.19 0.99344 1.22346 0
M  V30 32037 C 3025.44 0.668279 1.90731 0
M  V30 32038 C 3025.76 -0.802229 1.77734 0
M  V30 32039 O 3025.03 -1.57503 1.16488 0
M  V30 32040 H 3023.61 0.244187 0.705962 0
M  V30 32041 H 3026.27 1.26006 1.48689 0
M  V30 32042 H 3025.37 0.931291 2.97881 0
M  V30 32043 N 3025.67 -1.37693 0.766707 0
M  V30 32044 C 3026.6 -2.32927 0.163473 0
M  V30 32045 C 3027.58 -1.55528 -0.688834 0
M  V30 32046 O 3028.77 -1.83788 -0.627331 0
M  V30 32047 C 3025.9 -3.39747 -0.720356 0
M  V30 32048 C 3024.85 -4.27989 0.0302471 0
M  V30 32049 C 3024.18 -5.25778 -0.972696 0
M  V30 32050 C 3025.48 -5.08178 1.20632 0
M  V30 32051 H 3027.17 -2.83624 0.959038 0
M  V30 32052 H 3024.72 -1.36366 0.462625 0
M  V30 32053 H 3026.67 -4.05344 -1.15214 0
M  V30 32054 H 3025.39 -2.87563 -1.54839 0
M  V30 32055 H 3024.05 -3.63917 0.442749 0
M  V30 32056 H 3023.7 -4.69876 -1.79514 0
M  V30 32057 H 3023.4 -5.85677 -0.475043 0
M  V30 32058 H 3024.92 -5.94251 -1.40352 0
M  V30 32059 H 3026.34 -5.66942 0.85144 0
M  V30 32060 H 3024.74 -5.77377 1.63572 0
M  V30 32061 H 3025.81 -4.41147 2.01288 0
M  V30 32062 N 3027.15 -0.516835 -1.48884 0
M  V30 32063 C 3028.38 0.0183653 -2.06892 0
M  V30 32064 C 3028.79 1.29366 -1.37514 0
M  V30 32065 O 3028.15 1.76648 -0.45844 0
M  V30 32066 C 3028.2 0.25961 -3.60567 0
M  V30 32067 O 3027.92 -0.96514 -4.27337 0
M  V30 32068 C 3029.42 0.836674 -4.35333 0
M  V30 32069 H 3026.64 -0.0275861 -0.670433 0
M  V30 32070 H 3029.19 -0.718723 -1.91454 0
M  V30 32071 H 3027.34 0.946714 -3.75654 0
M  V30 32072 H 3027.75 -0.737738 -5.19286 0
M  V30 32073 H 3029.23 0.95497 -5.43677 0
M  V30 32074 H 3029.71 1.83838 -3.98873 0
M  V30 32075 H 3030.31 0.186547 -4.24891 0
M  V30 32076 N 3028.63 1.55583 -0.251365 0
M  V30 32077 C 3029.88 1.98228 0.372646 0
M  V30 32078 C 3030.19 1.14283 1.58741 0
M  V30 32079 O 3031.39 1.46962 2.28286 0
M  V30 32080 C 3029.85 3.52739 0.714377 0
M  V30 32081 C 3029.46 4.45429 -0.479247 0
M  V30 32082 C 3031.2 4.04029 1.30233 0
M  V30 32083 C 3029.11 5.91291 -0.113422 0
M  V30 32084 H 3028.04 0.740314 0.143007 0
M  V30 32085 H 3030.69 1.80087 -0.352284 0
M  V30 32086 H 3029.07 3.66591 1.49756 0
M  V30 32087 H 3030.25 4.43338 -1.25652 0
M  V30 32088 H 3028.56 4.04645 -0.98243 0
M  V30 32089 H 3031.16 5.1053 1.58944 0
M  V30 32090 H 3031.5 3.51642 2.2283 0
M  V30 32091 H 3032.03 3.9352 0.581955 0
M  V30 32092 H 3028.77 6.47724 -1.00665 0
M  V30 32093 H 3028.29 5.96508 0.627561 0
M  V30 32094 H 3029.97 6.46291 0.302816 0
M  V30 32095 N 3030.1 -0.0216912 1.57585 0
M  V30 32096 C 3031.33 -0.722585 1.93872 0
M  V30 32097 C 3031.75 -1.68496 0.851736 0
M  V30 32098 O 3031.1 -1.81695 -0.171239 0
M  V30 32099 C 3031.16 -1.47327 3.30116 0
M  V30 32100 O 3030.88 -0.54952 4.3464 0
M  V30 32101 C 3032.38 -2.27066 3.80731 0
M  V30 32102 H 3029.6 -0.202625 0.639675 0
M  V30 32103 H 3032.14 0.0229774 2.04487 0
M  V30 32104 H 3030.3 -2.17065 3.20876 0
M  V30 32105 H 3030.71 -1.07677 5.13328 0
M  V30 32106 H 3032.18 -2.75122 4.78552 0
M  V30 32107 H 3032.66 -3.08807 3.12306 0
M  V30 32108 H 3033.27 -1.62388 3.93078 0
M  V30 32109 N 3031.58 -1.54832 -0.294093 0
M  V30 32110 C 3032.99 -1.65368 -0.866622 0
M  V30 32111 C 3033.35 -0.566843 -1.87833 0
M  V30 32112 O 3032.47 0.295351 -2.14375 0
M  V30 32113 C 3033.07 -2.99774 -1.57864 0
M  V30 32114 C 3031.62 -3.12408 -2.09948 0
M  V30 32115 C 3030.77 -2.61081 -0.934446 0
M  V30 32116 H 3033.72 -1.58541 -0.0709273 0
M  V30 32117 H 3033.74 -2.91584 -2.44457 0
M  V30 32118 H 3033.26 -3.78855 -0.842053 0
M  V30 32119 H 3031.36 -2.3806 -2.86632 0
M  V30 32120 H 3031.47 -4.18667 -2.32927 0
M  V30 32121 H 3029.83 -2.17707 -1.32195 0
M  V30 32122 H 3030.62 -3.42647 -0.211708 0
M  V30 32123 N 3033.06 0.557619 -1.47405 0
M  V30 32124 C 3034.02 1.64681 -1.59413 0
M  V30 32125 C 3035.02 1.538 -0.469271 0
M  V30 32126 O 3036.21 1.57966 -0.734326 0
M  V30 32127 C 3033.35 3.04221 -1.53825 0
M  V30 32128 H 3034.54 1.55384 -2.56507 0
M  V30 32129 H 3032.09 0.777507 -1.3559 0
M  V30 32130 H 3032.83 3.19052 -0.581056 0
M  V30 32131 H 3032.61 3.13528 -2.35462 0
M  V30 32132 H 3034.1 3.83463 -1.65365 0
M  V30 32133 N 3034.54 1.35531 0.804316 0
M  V30 32134 C 3035.82 1.19493 1.54857 0
M  V30 32135 C 3036.2 -0.225023 2.09897 0
M  V30 32136 O 3035.54 -1.22882 1.92645 0
M  V30 32137 C 3035.75 2.26483 2.65531 0
M  V30 32138 C 3037.1 2.62405 3.3381 0
M  V30 32139 O 3038.13 2.25414 2.75803 0
M  V30 32140 O 3036.99 3.26017 4.38606 0
M  V30 32141 H 3034.08 0.464363 0.684321 0
M  V30 32142 H 3036.63 1.47219 0.844082 0
M  V30 32143 H 3035.4 3.21713 2.22748 0
M  V30 32144 H 3035.02 2.00039 3.43613 0
M  V30 32145 N 3036.02 -1.02674 1.19565 0
M  V30 32146 C 3036.96 -2.10998 0.935329 0
M  V30 32147 C 3037.93 -1.65585 -0.130656 0
M  V30 32148 O 3039.12 -1.90796 0.0119397 0
M  V30 32149 C 3036.26 -3.41711 0.482444 0
M  V30 32150 C 3035.37 -4.00659 1.61544 0
M  V30 32151 C 3034.51 -5.1939 1.11387 0
M  V30 32152 C 3033.55 -5.70399 2.22062 0
M  V30 32153 N 3032.68 -6.80402 1.73197 0
M  V30 32154 H 3037.52 -2.32603 1.86279 0
M  V30 32155 H 3035.06 -1.14079 0.928676 0
M  V30 32156 H 3037.02 -4.16714 0.201253 0
M  V30 32157 H 3035.65 -3.20211 -0.40803 0
M  V30 32158 H 3034.7 -3.22849 2.01179 0
M  V30 32159 H 3036.01 -4.34529 2.4492 0
M  V30 32160 H 3035.17 -6.0156 0.788041 0
M  V30 32161 H 3033.91 -4.87059 0.249875 0
M  V30 32162 H 3032.91 -4.8684 2.55474 0
M  V30 32163 H 3034.14 -6.04768 3.08921 0
M  V30 32164 H 3032.08 -6.4992 0.891087 0
M  V30 32165 H 3032 -7.13411 2.50161 0
M  V30 32166 H 3033.27 -7.66162 1.43584 0
M  V30 32167 N 3037.5 -0.999914 -1.21817 0
M  V30 32168 C 3038.72 -0.698128 -1.95297 0
M  V30 32169 C 3039.15 0.731952 -1.73275 0
M  V30 32170 O 3038.5 1.50132 -1.01637 0
M  V30 32171 C 3038.55 -1.0184 -3.4592 0
M  V30 32172 O 3037.66 -0.120874 -4.12223 0
M  V30 32173 H 3037 -0.260599 -0.610724 0
M  V30 32174 H 3039.53 -1.33879 -1.54718 0
M  V30 32175 H 3039.54 -0.963144 -3.96469 0
M  V30 32176 H 3038.21 -2.06044 -3.61274 0
M  V30 32177 H 3036.79 -0.232219 -3.72176 0
M  V30 32178 N 3038.97 1.37284 -0.773999 0
M  V30 32179 C 3039.92 2.32118 -0.149622 0
M  V30 32180 C 3040.92 1.55046 0.682429 0
M  V30 32181 O 3042.12 1.70425 0.579239 0
M  V30 32182 H 3038.5 0.751417 -0.0295989 0
M  V30 32183 H 3040.47 2.8236 -0.965167 0
M  V30 32184 C 3039.22 3.40304 0.71335 0
M  V30 32185 H 3038.54 3.99715 0.0824713 0
M  V30 32186 H 3039.98 4.09018 1.11716 0
M  V30 32187 C 3038.44 2.80574 1.86493 0
M  V30 32188 O 3038.97 2.71504 2.96055 0
M  V30 32189 N 3037.17 2.38085 1.66625 0
M  V30 32190 H 3036.72 2.45662 0.775102 0
M  V30 32191 H 3036.68 1.98466 2.43842 0
M  V30 32192 N 3040.45 0.524724 1.48608 0
M  V30 32193 C 3041.36 -0.244882 2.33318 0
M  V30 32194 C 3042.38 -0.944188 1.46154 0
M  V30 32195 O 3043.55 -0.920315 1.79143 0
M  V30 32196 C 3040.62 -1.28139 3.22151 0
M  V30 32197 C 3039.68 -0.592993 4.25185 0
M  V30 32198 C 3038.91 -1.58011 5.09773 0
M  V30 32199 O 3039.14 -2.81226 4.96254 0
M  V30 32200 O 3038.07 -1.12239 5.91342 0
M  V30 32201 H 3041.9 0.449119 3.00361 0
M  V30 32202 H 3039.48 0.285715 1.46643 0
M  V30 32203 H 3041.36 -1.88051 3.77114 0
M  V30 32204 H 3040.04 -1.95789 2.57776 0
M  V30 32205 H 3038.94 0.0464872 3.74071 0
M  V30 32206 H 3040.28 0.0414759 4.92183 0
M  V30 32207 N 3041.93 -1.55447 0.259613 0
M  V30 32208 C 3043.18 -1.99246 -0.361572 0
M  V30 32209 C 3043.5 -1.1479 -1.57015 0
M  V30 32210 O 3042.76 -0.201759 -1.94657 0
M  V30 32211 C 3043.06 -3.4827 -0.802666 0
M  V30 32212 C 3042.72 -4.49904 0.299551 0
M  V30 32213 C 3041.39 -4.77416 0.602241 0
M  V30 32214 C 3043.74 -5.10657 1.04304 0
M  V30 32215 C 3041.07 -5.62954 1.65227 0
M  V30 32216 C 3043.42 -5.97333 2.08268 0
M  V30 32217 C 3042.08 -6.23174 2.39188 0
M  V30 32218 H 3041.35 -0.729092 -0.132309 0
M  V30 32219 H 3044 -1.8789 0.370092 0
M  V30 32220 H 3042.3 -3.57023 -1.61375 0
M  V30 32221 H 3044 -3.79555 -1.29378 0
M  V30 32222 H 3040.59 -4.28567 0.053501 0
M  V30 32223 H 3044.78 -4.89438 0.822444 0
M  V30 32224 H 3040.03 -5.81225 1.89703 0
M  V30 32225 H 3044.21 -6.43447 2.66362 0
M  V30 32226 H 3041.83 -6.89248 3.20689 0
M  V30 32227 N 3043.41 0.0133338 -1.57594 0
M  V30 32228 C 3044.35 1.00901 -2.07576 0
M  V30 32229 C 3045.32 1.34959 -0.968254 0
M  V30 32230 O 3046.51 1.45026 -1.23984 0
M  V30 32231 C 3043.65 2.29998 -2.57284 0
M  V30 32232 C 3042.76 2.0196 -3.81885 0
M  V30 32233 C 3041.9 3.25041 -4.20145 0
M  V30 32234 C 3040.94 2.92629 -5.37619 0
M  V30 32235 N 3040.07 4.08208 -5.71236 0
M  V30 32236 H 3044.91 0.575847 -2.92383 0
M  V30 32237 H 3042.45 0.272697 -1.4455 0
M  V30 32238 H 3044.41 3.05449 -2.84177 0
M  V30 32239 H 3043.04 2.71008 -1.7537 0
M  V30 32240 H 3042.09 1.16935 -3.61981 0
M  V30 32241 H 3043.4 1.74061 -4.67444 0
M  V30 32242 H 3042.56 4.08849 -4.48249 0
M  V30 32243 H 3041.3 3.56067 -3.33268 0
M  V30 32244 H 3040.3 2.07226 -5.09252 0
M  V30 32245 H 3041.53 2.62865 -6.26162 0
M  V30 32246 H 3039.47 4.39156 -4.87318 0
M  V30 32247 H 3039.39 3.83787 -6.5134 0
M  V30 32248 H 3040.66 4.92843 -6.03926 0
M  V30 32249 N 3044.89 1.54985 0.285878 0
M  V30 32250 C 3045.83 1.8698 1.35303 0
M  V30 32251 C 3046.8 0.720072 1.4968 0
M  V30 32252 O 3047.99 0.970136 1.64295 0
M  V30 32253 C 3045.13 2.13596 2.71055 0
M  V30 32254 C 3044.24 3.4117 2.65004 0
M  V30 32255 C 3043.38 3.57551 3.9285 0
M  V30 32256 C 3042.41 4.78862 3.81258 0
M  V30 32257 N 3041.55 4.91968 5.00911 0
M  V30 32258 H 3046.39 2.78005 1.07318 0
M  V30 32259 H 3043.93 1.37649 0.518752 0
M  V30 32260 H 3045.89 2.27025 3.50022 0
M  V30 32261 H 3044.52 1.25821 2.97269 0
M  V30 32262 H 3043.57 3.36281 1.77818 0
M  V30 32263 H 3044.88 4.30266 2.52334 0
M  V30 32264 H 3044.03 3.70727 4.80257 0
M  V30 32265 H 3042.77 2.66615 4.08372 0
M  V30 32266 H 3041.78 4.65703 2.92234 0
M  V30 32267 H 3043 5.7122 3.67267 0
M  V30 32268 H 3040.95 4.0396 5.16868 0
M  V30 32269 H 3040.87 5.7509 4.90722 0
M  V30 32270 H 3042.13 5.09517 5.89926 0
M  V30 32271 N 3046.36 -0.549794 1.47699 0
M  V30 32272 C 3047.29 -1.6658 1.63625 0
M  V30 32273 C 3048.28 -1.63024 0.485506 0
M  V30 32274 O 3049.46 -1.8053 0.715723 0
M  V30 32275 C 3046.59 -3.05208 1.65726 0
M  V30 32276 C 3045.54 -3.23615 2.80102 0
M  V30 32277 C 3044.87 -4.63104 2.6728 0
M  V30 32278 C 3046.17 -3.08279 4.21618 0
M  V30 32279 H 3047.86 -1.53508 2.57052 0
M  V30 32280 H 3045.41 -0.737078 1.23706 0
M  V30 32281 H 3047.36 -3.83135 1.75458 0
M  V30 32282 H 3046.09 -3.19257 0.688649 0
M  V30 32283 H 3044.75 -2.48099 2.69893 0
M  V30 32284 H 3044.39 -4.73962 1.68431 0
M  V30 32285 H 3044.09 -4.76368 3.44017 0
M  V30 32286 H 3045.62 -5.43156 2.78951 0
M  V30 32287 H 3047.03 -3.76016 4.32764 0
M  V30 32288 H 3045.43 -3.33048 4.99198 0
M  V30 32289 H 3046.5 -2.04934 4.39465 0
M  V30 32290 N 3047.84 -1.35955 -0.797117 0
M  V30 32291 C 3049.12 -1.20312 -1.54222 0
M  V30 32292 C 3049.5 0.213889 -2.10014 0
M  V30 32293 O 3048.85 1.21859 -1.93294 0
M  V30 32294 C 3049.06 -2.27888 -2.64326 0
M  V30 32295 C 3050.41 -2.64171 -3.32414 0
M  V30 32296 O 3051.43 -2.26873 -2.74603 0
M  V30 32297 O 3050.29 -3.28339 -4.36871 0
M  V30 32298 H 3047.38 -0.467986 -0.681849 0
M  V30 32299 H 3049.93 -1.47664 -0.836262 0
M  V30 32300 H 3048.7 -3.22889 -2.21039 0
M  V30 32301 H 3048.32 -2.01859 -3.42548 0
M  V30 32302 N 3049.32 1.02038 -1.20108 0
M  V30 32303 C 3050.55 1.78925 -1.03293 0
M  V30 32304 C 3050.96 1.84455 0.421082 0
M  V30 32305 O 3050.3 1.2937 1.30419 0
M  V30 32306 C 3050.36 3.25019 -1.53633 0
M  V30 32307 C 3050.03 3.43104 -3.01875 0
M  V30 32308 C 3051.02 3.32631 -3.99566 0
M  V30 32309 C 3048.71 3.69044 -3.40752 0
M  V30 32310 C 3050.7 3.47835 -5.34125 0
M  V30 32311 C 3048.39 3.83892 -4.75468 0
M  V30 32312 C 3049.39 3.73292 -5.71964 0
M  V30 32313 O 3049.08 3.87691 -7.04238 0
M  V30 32314 H 3048.81 0.569649 -0.363972 0
M  V30 32315 H 3051.36 1.29351 -1.59554 0
M  V30 32316 H 3049.59 3.75657 -0.917547 0
M  V30 32317 H 3051.28 3.83528 -1.32896 0
M  V30 32318 H 3052.05 3.12533 -3.70875 0
M  V30 32319 H 3047.93 3.76383 -2.66189 0
M  V30 32320 H 3051.47 3.39478 -6.09427 0
M  V30 32321 H 3047.37 4.0349 -5.03851 0
M  V30 32322 H 3048.14 4.04731 -7.11432 0
M  V30 32323 N 3050.8 1.00636 1.21285 0
M  V30 32324 C 3052.02 0.708476 1.94924 0
M  V30 32325 C 3052.45 -0.722752 1.7366 0
M  V30 32326 O 3051.81 -1.49591 1.02432 0
M  V30 32327 C 3051.85 1.03673 3.45376 0
M  V30 32328 O 3050.96 0.142733 4.12153 0
M  V30 32329 H 3050.3 0.263834 0.609334 0
M  V30 32330 H 3052.83 1.34697 1.54006 0
M  V30 32331 H 3052.84 0.984156 3.95952 0
M  V30 32332 H 3051.51 2.07957 3.60176 0
M  V30 32333 H 3050.09 0.251953 3.72048 0
M  V30 32334 N 3052.28 -1.36872 0.781268 0
M  V30 32335 C 3053.22 -2.32036 0.16193 0
M  V30 32336 C 3054.22 -1.55406 -0.674197 0
M  V30 32337 O 3055.42 -1.7073 -0.570193 0
M  V30 32338 H 3051.8 -0.75125 0.0335834 0
M  V30 32339 H 3053.77 -2.81844 0.980128 0
M  V30 32340 C 3052.52 -3.40677 -0.695292 0
M  V30 32341 H 3051.84 -3.99753 -0.0612723 0
M  V30 32342 H 3053.28 -4.09604 -1.09546 0
M  V30 32343 C 3051.74 -2.81559 -1.85003 0
M  V30 32344 O 3052.27 -2.7307 -2.94611 0
M  V30 32345 N 3050.48 -2.38965 -1.6536 0
M  V30 32346 H 3050.02 -2.4607 -0.762063 0
M  V30 32347 H 3049.98 -1.99756 -2.42786 0
M  V30 32348 N 3053.75 -0.532597 -1.48328 0
M  V30 32349 C 3055 0.000547572 -2.028 0
M  V30 32350 C 3055.33 1.33686 -1.40861 0
M  V30 32351 O 3054.61 1.86405 -0.555294 0
M  V30 32352 C 3054.89 0.119783 -3.59901 0
M  V30 32353 C 3054.74 -1.24188 -4.32316 0
M  V30 32354 C 3056.06 0.845296 -4.31906 0
M  V30 32355 H 3053.18 -0.00127501 -0.736999 0
M  V30 32356 H 3055.82 -0.690133 -1.77023 0
M  V30 32357 H 3053.97 0.708025 -3.81994 0
M  V30 32358 H 3055.65 -1.87143 -4.21634 0
M  V30 32359 H 3053.89 -1.82308 -3.93632 0
M  V30 32360 H 3054.56 -1.11142 -5.40695 0
M  V30 32361 H 3057.04 0.346086 -4.14658 0
M  V30 32362 H 3055.91 0.897628 -5.41511 0
M  V30 32363 H 3056.17 1.89615 -3.99373 0
M  V30 32364 N 3055.23 1.55307 -0.267853 0
M  V30 32365 C 3056.46 2.0384 0.354551 0
M  V30 32366 C 3056.88 1.14647 1.50005 0
M  V30 32367 O 3056.23 0.165087 1.81752 0
M  V30 32368 C 3056.28 3.51546 0.842479 0
M  V30 32369 O 3056 4.37343 -0.257395 0
M  V30 32370 C 3057.51 4.15933 1.53344 0
M  V30 32371 H 3054.73 0.665995 0.0818014 0
M  V30 32372 H 3057.27 2.00593 -0.39783 0
M  V30 32373 H 3055.42 3.5526 1.54497 0
M  V30 32374 H 3055.84 5.24371 0.116501 0
M  V30 32375 H 3057.31 5.20911 1.82634 0
M  V30 32376 H 3057.79 3.6367 2.46253 0
M  V30 32377 H 3058.4 4.16202 0.874987 0
M  V30 32378 N 3056.71 -0.00497598 1.57599 0
M  V30 32379 C 3057.96 -0.690862 1.90351 0
M  V30 32380 C 3058.29 -1.74054 0.868075 0
M  V30 32381 O 3057.54 -1.95282 -0.12782 0
M  V30 32382 C 3057.84 -1.37582 3.29857 0
M  V30 32383 C 3057.51 -0.459827 4.48549 0
M  V30 32384 C 3056.17 -0.207609 4.80752 0
M  V30 32385 C 3058.52 0.171145 5.20919 0
M  V30 32386 C 3055.85 0.683957 5.827 0
M  V30 32387 C 3058.2 1.05056 6.23816 0
M  V30 32388 C 3056.86 1.312 6.54479 0
M  V30 32389 H 3056.13 -0.252804 0.696542 0
M  V30 32390 H 3058.78 0.0494832 1.91436 0
M  V30 32391 H 3057.09 -2.19009 3.24873 0
M  V30 32392 H 3058.78 -1.91249 3.52456 0
M  V30 32393 H 3055.37 -0.666574 4.23385 0
M  V30 32394 H 3059.56 -0.0107069 4.96299 0
M  V30 32395 H 3054.81 0.894573 6.0482 0
M  V30 32396 H 3058.99 1.54586 6.79026 0
M  V30 32397 H 3056.61 2.00455 7.33295 0
M  V30 32398 N 3058.19 -1.55135 -0.277654 0
M  V30 32399 C 3059.12 -1.90703 -1.34739 0
M  V30 32400 C 3060.1 -0.76838 -1.51756 0
M  V30 32401 O 3061.28 -1.02612 -1.64877 0
M  V30 32402 C 3058.41 -2.17486 -2.70771 0
M  V30 32403 C 3057.37 -3.33312 -2.68491 0
M  V30 32404 C 3056.69 -3.45564 -4.08031 0
M  V30 32405 C 3057.99 -4.69825 -2.2817 0
M  V30 32406 H 3059.69 -2.80302 -1.05219 0
M  V30 32407 H 3057.23 -1.34865 -0.504715 0
M  V30 32408 H 3059.19 -2.40955 -3.45714 0
M  V30 32409 H 3057.91 -1.24681 -3.01864 0
M  V30 32410 H 3056.57 -3.09803 -1.96005 0
M  V30 32411 H 3056.22 -2.50234 -4.36339 0
M  V30 32412 H 3055.92 -4.23436 -4.07401 0
M  V30 32413 H 3057.44 -3.71321 -4.8472 0
M  V30 32414 H 3058.86 -4.9287 -2.92835 0
M  V30 32415 H 3057.25 -5.50579 -2.38711 0
M  V30 32416 H 3058.32 -4.68962 -1.23299 0
M  V30 32417 N 3059.67 0.541953 -1.47989 0
M  V30 32418 C 3060.61 1.64767 -1.61618 0
M  V30 32419 C 3061.58 1.59643 -0.45863 0
M  V30 32420 O 3062.77 1.78248 -0.680617 0
M  V30 32421 C 3059.91 3.0306 -1.65072 0
M  V30 32422 C 3059.02 3.18508 -2.91851 0
M  V30 32423 C 3058.16 4.47289 -2.86541 0
M  V30 32424 C 3057.2 4.56223 -4.08078 0
M  V30 32425 N 3056.33 5.76378 -4.00915 0
M  V30 32426 H 3061.17 1.52456 -2.56049 0
M  V30 32427 H 3058.71 0.742427 -1.2699 0
M  V30 32428 H 3060.67 3.83161 -1.65056 0
M  V30 32429 H 3059.3 3.1417 -0.741416 0
M  V30 32430 H 3058.35 2.31738 -3.01665 0
M  V30 32431 H 3059.66 3.20971 -3.8181 0
M  V30 32432 H 3058.82 5.35667 -2.8486 0
M  V30 32433 H 3057.55 4.47328 -1.94291 0
M  V30 32434 H 3056.56 3.66253 -4.10047 0
M  V30 32435 H 3057.78 4.57931 -5.01474 0
M  V30 32436 H 3055.73 5.77337 -3.11477 0
M  V30 32437 H 3055.65 5.80285 -4.84568 0
M  V30 32438 H 3056.92 6.67076 -4.03274 0
M  V30 32439 N 3061.15 1.36376 0.789896 0
M  V30 32440 C 3062.56 1.16779 1.08788 0
M  V30 32441 C 3062.76 -0.00844695 2.01498 0
M  V30 32442 O 3061.82 -0.673964 2.43339 0
M  V30 32443 C 3063.13 2.4784 1.70281 0
M  V30 32444 C 3064.68 2.54199 1.82624 0
M  V30 32445 C 3065.15 3.85346 2.47532 0
M  V30 32446 N 3066.64 3.86689 2.55001 0
M  V30 32447 C 3067.38 4.84904 3.06033 0
M  V30 32448 N 3066.88 5.93511 3.57374 0
M  V30 32449 N 3068.67 4.72324 3.0474 0
M  V30 32450 H 3060.82 2.11687 0.173948 0
M  V30 32451 H 3063.08 0.937638 0.139781 0
M  V30 32452 H 3062.79 3.34178 1.09627 0
M  V30 32453 H 3062.66 2.63611 2.69794 0
M  V30 32454 H 3065.05 1.6828 2.42417 0
M  V30 32455 H 3065.13 2.42328 0.819187 0
M  V30 32456 H 3064.77 4.71671 1.88385 0
M  V30 32457 H 3064.7 3.94513 3.48808 0
M  V30 32458 H 3067.2 3.08225 2.18646 0
M  V30 32459 H 3067.51 6.64426 3.94662 0
M  V30 32460 H 3065.85 5.97181 3.55528 0
M  V30 32461 H 3069.04 3.86607 2.63918 0
M  V30 32462 H 3069.22 5.49025 3.44202 0
M  V30 32463 N 3062.62 -1.014 1.20647 0
M  V30 32464 C 3063.87 -1.74693 1.01621 0
M  V30 32465 C 3064.19 -1.89679 -0.452405 0
M  V30 32466 O 3063.46 -1.44118 -1.3269 0
M  V30 32467 H 3062.04 -0.647195 0.373025 0
M  V30 32468 H 3064.7 -1.22238 1.51802 0
M  V30 32469 H 3063.8 -2.74954 1.4767 0
M  V30 32470 N 3064.1 -1.01278 -1.2075 0
M  V30 32471 C 3065.35 -0.699921 -1.90019 0
M  V30 32472 C 3065.68 0.770082 -1.78606 0
M  V30 32473 O 3064.93 1.57469 -1.16198 0
M  V30 32474 C 3065.23 -1.07639 -3.40806 0
M  V30 32475 C 3064.9 -2.54195 -3.72418 0
M  V30 32476 C 3063.56 -2.94241 -3.80757 0
M  V30 32477 C 3065.91 -3.49092 -3.87019 0
M  V30 32478 C 3063.24 -4.2813 -4.0115 0
M  V30 32479 C 3065.59 -4.82665 -4.08922 0
M  V30 32480 C 3064.25 -5.22423 -4.15489 0
M  V30 32481 H 3063.52 -0.256119 -0.69533 0
M  V30 32482 H 3066.17 -1.27265 -1.43093 0
M  V30 32483 H 3064.48 -0.422013 -3.89521 0
M  V30 32484 H 3066.17 -0.812066 -3.92691 0
M  V30 32485 H 3062.76 -2.22165 -3.66525 0
M  V30 32486 H 3066.95 -3.19315 -3.79936 0
M  V30 32487 H 3062.2 -4.58493 -4.04468 0
M  V30 32488 H 3066.38 -5.56126 -4.19162 0
M  V30 32489 H 3064 -6.26183 -4.31044 0
M  V30 32490 N 3065.58 1.36456 -0.788516 0
M  V30 32491 C 3066.53 2.30062 -0.18439 0
M  V30 32492 C 3067.5 1.51932 0.671253 0
M  V30 32493 O 3068.68 1.80442 0.62012 0
M  V30 32494 C 3065.82 3.38424 0.675536 0
M  V30 32495 C 3064.93 4.31543 -0.19855 0
M  V30 32496 C 3064.07 5.26987 0.667664 0
M  V30 32497 C 3063.11 6.11747 -0.207933 0
M  V30 32498 N 3062.25 6.99382 0.617212 0
M  V30 32499 H 3067.09 2.81141 -0.988106 0
M  V30 32500 H 3064.62 1.38384 -0.498839 0
M  V30 32501 H 3066.58 3.99896 1.18909 0
M  V30 32502 H 3065.21 2.88667 1.44469 0
M  V30 32503 H 3064.26 3.71233 -0.83006 0
M  V30 32504 H 3065.57 4.91097 -0.87325 0
M  V30 32505 H 3064.73 5.93745 1.24706 0
M  V30 32506 H 3063.47 4.67886 1.37599 0
M  V30 32507 H 3062.47 5.43952 -0.799734 0
M  V30 32508 H 3063.7 6.72923 -0.913848 0
M  V30 32509 H 3061.64 6.4279 1.30985 0
M  V30 32510 H 3061.56 7.56 0.000174369 0
M  V30 32511 H 3062.83 7.7051 1.18046 0
M  V30 32512 N 3067.06 0.540456 1.48043 0
M  V30 32513 C 3067.99 -0.253814 2.2779 0
M  V30 32514 C 3069 -0.894859 1.36 0
M  V30 32515 O 3070.19 -0.771535 1.60965 0
M  V30 32516 C 3067.29 -1.37561 3.09726 0
M  V30 32517 C 3066.46 -0.834515 4.29365 0
M  V30 32518 C 3065.52 -1.83872 4.93029 0
M  V30 32519 O 3064.55 -1.39149 5.5193 0
M  V30 32520 N 3065.75 -3.1714 4.86212 0
M  V30 32521 H 3068.52 0.430177 2.96597 0
M  V30 32522 H 3066.08 0.37545 1.57486 0
M  V30 32523 H 3068.07 -2.04578 3.49185 0
M  V30 32524 H 3066.64 -1.96309 2.43272 0
M  V30 32525 H 3065.86 0.0119571 3.94198 0
M  V30 32526 H 3067.15 -0.452066 5.06788 0
M  V30 32527 H 3066.55 -3.56133 4.39529 0
M  V30 32528 H 3065.1 -3.79761 5.2974 0
M  V30 32529 N 3068.54 -1.55163 0.276085 0
M  V30 32530 C 3069.81 -1.91626 -0.392259 0
M  V30 32531 C 3070.19 -1.20046 -1.73644 0
M  V30 32532 O 3069.54 -0.327646 -2.26139 0
M  V30 32533 C 3069.75 -3.44928 -0.53158 0
M  V30 32534 C 3071.1 -4.16724 -0.814027 0
M  V30 32535 O 3072.12 -3.50827 -0.616351 0
M  V30 32536 O 3070.98 -5.33339 -1.19215 0
M  V30 32537 H 3068.08 -0.798582 -0.214931 0
M  V30 32538 H 3070.62 -1.66611 0.322309 0
M  V30 32539 H 3069.39 -3.891 0.41435 0
M  V30 32540 H 3069.02 -3.759 -1.29558 0
M  V30 32541 N 3070.01 -0.00338196 -1.576 0
M  V30 32542 C 3070.92 1.00319 -2.12069 0
M  V30 32543 C 3071.94 1.37465 -1.06674 0
M  V30 32544 O 3073.12 1.46129 -1.38594 0
M  V30 32545 C 3070.18 2.27526 -2.61597 0
M  V30 32546 C 3069.24 1.96661 -3.81606 0
M  V30 32547 C 3068.47 3.17804 -4.28761 0
M  V30 32548 O 3068.7 4.29603 -3.7523 0
M  V30 32549 O 3067.63 3.01604 -5.20882 0
M  V30 32550 H 3071.46 0.570147 -2.983 0
M  V30 32551 H 3069.04 0.215656 -1.47835 0
M  V30 32552 H 3070.92 3.02251 -2.93636 0
M  V30 32553 H 3069.6 2.70062 -1.78461 0
M  V30 32554 H 3068.51 1.19402 -3.54534 0
M  V30 32555 H 3069.84 1.5896 -4.65825 0
M  V30 32556 N 3071.49 1.5528 0.269423 0
M  V30 32557 C 3072.91 1.472 0.616801 0
M  V30 32558 C 3073.11 0.689043 1.89353 0
M  V30 32559 O 3072.16 0.209331 2.51631 0
M  V30 32560 C 3073.48 2.91441 0.74044 0
M  V30 32561 C 3075.02 3.01677 0.834259 0
M  V30 32562 C 3075.5 4.4718 0.989646 0
M  V30 32563 N 3076.99 4.51024 1.05508 0
M  V30 32564 C 3077.73 5.60827 1.19417 0
M  V30 32565 N 3077.22 6.80489 1.30023 0
M  V30 32566 N 3079.01 5.48577 1.22556 0
M  V30 32567 H 3071.17 2.04637 -0.568998 0
M  V30 32568 H 3073.43 0.928111 -0.193169 0
M  V30 32569 H 3073.13 3.5147 -0.127295 0
M  V30 32570 H 3073.01 3.4066 1.61959 0
M  V30 32571 H 3075.4 2.41743 1.69246 0
M  V30 32572 H 3075.48 2.55705 -0.0695748 0
M  V30 32573 H 3075.12 5.07718 0.13609 0
M  V30 32574 H 3075.05 4.90812 1.90818 0
M  V30 32575 H 3077.54 3.64827 0.98537 0
M  V30 32576 H 3077.85 7.59924 1.40481 0
M  V30 32577 H 3076.2 6.83294 1.27021 0
M  V30 32578 H 3079.39 4.54031 1.13903 0
M  V30 32579 H 3079.56 6.34193 1.33052 0
M  V30 32580 N 3072.97 -0.534097 1.48274 0
M  V30 32581 C 3073.92 -1.63516 1.58891 0
M  V30 32582 C 3074.9 -1.54587 0.446287 0
M  V30 32583 O 3076.1 -1.62677 0.697503 0
M  V30 32584 C 3073.22 -3.02247 1.62793 0
M  V30 32585 C 3072.31 -3.16296 2.82521 0
M  V30 32586 N 3072.7 -3.00331 4.06983 0
M  V30 32587 C 3071 -3.47342 2.79767 0
M  V30 32588 C 3071.7 -3.17686 4.87289 0
M  V30 32589 N 3070.68 -3.45074 4.2003 0
M  V30 32590 H 3074.48 -1.49777 2.52872 0
M  V30 32591 H 3071.99 -0.739454 1.44589 0
M  V30 32592 H 3073.99 -3.81334 1.68492 0
M  V30 32593 H 3072.65 -3.17081 0.699256 0
M  V30 32594 H 3073.66 -2.77179 4.37484 0
M  V30 32595 H 3070.34 -3.6856 1.96138 0
M  V30 32596 H 3071.73 -3.10115 5.96052 0
M  V30 32597 N 3074.45 -1.36793 -0.782652 0
M  V30 32598 C 3075.68 -1.34568 -1.5716 0
M  V30 32599 C 3076.09 0.0715169 -1.88664 0
M  V30 32600 O 3075.45 1.0303 -1.50635 0
M  V30 32601 C 3075.5 -2.17365 -2.8885 0
M  V30 32602 O 3075.22 -3.53561 -2.587 0
M  V30 32603 C 3076.72 -2.22997 -3.83128 0
M  V30 32604 H 3073.94 -0.461347 -0.487237 0
M  V30 32605 H 3076.48 -1.79984 -0.970873 0
M  V30 32606 H 3074.64 -1.75487 -3.45374 0
M  V30 32607 H 3075.05 -3.96841 -3.42954 0
M  V30 32608 H 3076.53 -2.85275 -4.7257 0
M  V30 32609 H 3077 -1.23531 -4.2147 0
M  V30 32610 H 3077.61 -2.65141 -3.32536 0
M  V30 32611 N 3075.93 1.00759 -1.21184 0
M  V30 32612 C 3077.17 1.74496 -1.02749 0
M  V30 32613 C 3077.5 1.89474 0.43931 0
M  V30 32614 O 3076.76 1.42411 1.3423 0
M  V30 32615 C 3077.06 3.16155 -1.66676 0
M  V30 32616 C 3076.72 3.21131 -3.16521 0
M  V30 32617 C 3075.38 3.22197 -3.57411 0
M  V30 32618 C 3077.74 3.18579 -4.12501 0
M  V30 32619 C 3075.06 3.18392 -4.92791 0
M  V30 32620 C 3077.42 3.16316 -5.47838 0
M  V30 32621 C 3076.08 3.1569 -5.88129 0
M  V30 32622 H 3075.35 0.638527 -0.375985 0
M  V30 32623 H 3078 1.18111 -1.50738 0
M  V30 32624 H 3076.3 3.75756 -1.10972 0
M  V30 32625 H 3078 3.71922 -1.49918 0
M  V30 32626 H 3074.59 3.21043 -2.83953 0
M  V30 32627 H 3078.77 3.16919 -3.81938 0
M  V30 32628 H 3074.03 3.16244 -5.23259 0
M  V30 32629 H 3078.2 3.13295 -6.21948 0
M  V30 32630 H 3075.83 3.12496 -6.93001 0
M  V30 32631 N 3077.4 1.01917 1.20211 0
M  V30 32632 C 3078.33 0.612063 2.25335 0
M  V30 32633 C 3079.32 -0.374156 1.65934 0
M  V30 32634 O 3080.5 -0.259019 1.92465 0
M  V30 32635 C 3077.63 -0.047843 3.47267 0
M  V30 32636 C 3076.58 0.859631 4.19278 0
M  V30 32637 C 3075.91 0.0653594 5.3466 0
M  V30 32638 C 3077.21 2.16888 4.75139 0
M  V30 32639 H 3078.9 1.49084 2.59643 0
M  V30 32640 H 3076.45 0.718285 1.24807 0
M  V30 32641 H 3078.4 -0.344221 4.19992 0
M  V30 32642 H 3077.13 -0.96135 3.12131 0
M  V30 32643 H 3075.79 1.14005 3.48423 0
M  V30 32644 H 3075.43 -0.849877 4.95768 0
M  V30 32645 H 3075.13 0.669721 5.83771 0
M  V30 32646 H 3076.66 -0.224504 6.10187 0
M  V30 32647 H 3078.07 1.93469 5.39669 0
M  V30 32648 H 3076.47 2.72432 5.34697 0
M  V30 32649 H 3077.54 2.83015 3.93739 0
M  V30 32650 N 3078.88 -1.36036 0.795742 0
M  V30 32651 C 3080.13 -1.98322 0.36761 0
M  V30 32652 C 3080.44 -1.63856 -1.0682 0
M  V30 32653 O 3081.65 -2.19424 -1.59891 0
M  V30 32654 C 3080.11 -3.54756 0.606334 0
M  V30 32655 C 3079.71 -3.98141 2.05397 0
M  V30 32656 C 3081.46 -4.23804 0.243022 0
M  V30 32657 C 3079.37 -5.47377 2.23902 0
M  V30 32658 H 3078.3 -0.742049 0.133712 0
M  V30 32659 H 3080.95 -1.55249 0.978269 0
M  V30 32660 H 3079.33 -3.95931 -0.0741261 0
M  V30 32661 H 3080.5 -3.68148 2.77135 0
M  V30 32662 H 3078.82 -3.41949 2.37613 0
M  V30 32663 H 3081.41 -5.3349 0.359476 0
M  V30 32664 H 3081.76 -4.08352 -0.80959 0
M  V30 32665 H 3082.29 -3.88013 0.876967 0
M  V30 32666 H 3079.03 -5.67784 3.27569 0
M  V30 32667 H 3078.55 -5.78975 1.56676 0
M  V30 32668 H 3080.23 -6.1369 2.04924 0
M  V30 32669 N 3080.36 -0.5483 -1.47755 0
M  V30 32670 C 3081.31 0.224588 -2.26891 0
M  V30 32671 C 3082.29 0.893397 -1.33818 0
M  V30 32672 O 3083.49 0.793176 -1.58233 0
M  V30 32673 C 3080.62 1.25953 -3.1936 0
M  V30 32674 C 3079.7 0.594588 -4.19911 0
M  V30 32675 N 3080.09 -0.330237 -5.04721 0
M  V30 32676 C 3078.39 0.849595 -4.37833 0
M  V30 32677 C 3079.09 -0.715631 -5.77281 0
M  V30 32678 N 3078.07 -0.0724952 -5.43552 0
M  V30 32679 H 3081.87 -0.486612 -2.89844 0
M  V30 32680 H 3079.38 -0.367605 -1.58185 0
M  V30 32681 H 3081.38 1.82711 -3.7473 0
M  V30 32682 H 3080.04 1.97192 -2.57964 0
M  V30 32683 H 3081.05 -0.703902 -5.13094 0
M  V30 32684 H 3077.73 1.55117 -3.87615 0
M  V30 32685 H 3079.12 -1.47505 -6.55509 0
M  V30 32686 N 3081.84 1.55014 -0.28431 0
M  V30 32687 C 3083.25 1.85496 0.211649 0
M  V30 32688 C 3083.6 1.20633 1.54733 0
M  V30 32689 O 3082.73 0.497955 2.10593 0
M  V30 32690 C 3083.32 3.36538 0.390805 0
M  V30 32691 C 3081.88 3.67112 0.83099 0
M  V30 32692 C 3081.03 2.77211 -0.0704068 0
M  V30 32693 H 3083.98 1.50423 -0.50583 0
M  V30 32694 H 3084 3.6014 1.22797 0
M  V30 32695 H 3083.51 3.83719 -0.581477 0
M  V30 32696 H 3081.61 3.25438 1.81442 0
M  V30 32697 H 3081.72 4.74505 0.661943 0
M  V30 32698 H 3080.09 2.50738 0.447484 0
M  V30 32699 H 3080.87 3.27208 -1.03874 0
M  V30 32700 N 3083.32 0.0117398 1.57596 0
M  V30 32701 C 3084.54 -0.6813 1.95361 0
M  V30 32702 C 3084.96 -1.66651 0.887285 0
M  V30 32703 O 3084.32 -1.82017 -0.13266 0
M  V30 32704 C 3084.37 -1.40292 3.33167 0
M  V30 32705 O 3084.09 -0.457203 4.35708 0
M  V30 32706 C 3085.59 -2.18939 3.85462 0
M  V30 32707 H 3082.81 -0.189011 0.643829 0
M  V30 32708 H 3085.35 0.0663469 2.04392 0
M  V30 32709 H 3083.51 -2.1021 3.25408 0
M  V30 32710 H 3083.92 -0.967639 5.15497 0
M  V30 32711 H 3085.4 -2.6491 4.8428 0
M  V30 32712 H 3085.87 -3.02113 3.18786 0
M  V30 32713 H 3086.48 -1.54013 3.96434 0
M  V30 32714 N 3084.79 -1.55421 -0.261185 0
M  V30 32715 C 3086.04 -1.76583 -0.991199 0
M  V30 32716 C 3086.37 -0.573489 -1.85853 0
M  V30 32717 O 3085.62 0.443671 -1.90604 0
M  V30 32718 C 3085.92 -3.03094 -1.8939 0
M  V30 32719 C 3085.59 -4.35102 -1.1831 0
M  V30 32720 C 3084.25 -4.70977 -0.986605 0
M  V30 32721 C 3086.6 -5.16769 -0.678209 0
M  V30 32722 C 3083.93 -5.86066 -0.272685 0
M  V30 32723 C 3086.28 -6.32596 0.0221758 0
M  V30 32724 C 3084.95 -6.67103 0.230279 0
M  V30 32725 H 3084.22 -0.646162 -0.362705 0
M  V30 32726 H 3086.86 -1.89693 -0.262473 0
M  V30 32727 H 3085.17 -2.84935 -2.68922 0
M  V30 32728 H 3086.87 -3.16665 -2.46016 0
M  V30 32729 H 3083.46 -4.0691 -1.34618 0
M  V30 32730 H 3087.64 -4.89519 -0.817605 0
M  V30 32731 H 3082.9 -6.11317 -0.100843 0
M  V30 32732 H 3087.07 -6.95126 0.421103 0
M  V30 32733 H 3084.7 -7.56131 0.785445 0
M  V30 32734 N 3086.27 0.526227 -1.48555 0
M  V30 32735 C 3087.68 1.10812 -1.50258 0
M  V30 32736 C 3088.03 1.94271 -0.274479 0
M  V30 32737 O 3087.16 2.07386 0.618058 0
M  V30 32738 C 3087.75 2.01633 -2.72267 0
M  V30 32739 C 3086.31 2.55033 -2.7683 0
M  V30 32740 C 3085.46 1.32077 -2.43826 0
M  V30 32741 H 3088.41 0.311303 -1.55617 0
M  V30 32742 H 3088.43 2.85972 -2.50998 0
M  V30 32743 H 3087.94 1.40863 -3.61634 0
M  V30 32744 H 3086.05 3.19514 -1.91682 0
M  V30 32745 H 3086.16 2.9391 -3.78357 0
M  V30 32746 H 3084.52 1.63778 -1.95061 0
M  V30 32747 H 3085.31 0.730537 -3.35437 0
M  V30 32748 N 3087.75 1.37206 0.775387 0
M  V30 32749 C 3089 1.32409 1.53609 0
M  V30 32750 C 3089.33 -0.0923762 1.9398 0
M  V30 32751 O 3088.6 -1.04891 1.63793 0
M  V30 32752 C 3088.89 2.25984 2.80363 0
M  V30 32753 C 3088.74 3.76393 2.46269 0
M  V30 32754 C 3090.06 2.18071 3.82273 0
M  V30 32755 H 3087.18 0.482307 0.557269 0
M  V30 32756 H 3089.82 1.67877 0.889797 0
M  V30 32757 H 3087.97 1.95868 3.35512 0
M  V30 32758 H 3089.64 4.1709 1.97062 0
M  V30 32759 H 3087.89 3.9514 1.79016 0
M  V30 32760 H 3088.56 4.37297 3.3686 0
M  V30 32761 H 3091.03 2.4461 3.36609 0
M  V30 32762 H 3089.91 2.85692 4.68691 0
M  V30 32763 H 3090.17 1.17246 4.2627 0
M  V30 32764 N 3089.23 -1.00115 1.21716 0
M  V30 32765 C 3090.14 -2.12407 0.996007 0
M  V30 32766 C 3091.15 -1.73919 -0.0531125 0
M  V30 32767 O 3092.33 -2.00928 0.137793 0
M  V30 32768 C 3089.4 -3.42021 0.567653 0
M  V30 32769 C 3088.46 -3.9466 1.68943 0
M  V30 32770 C 3087.69 -5.18088 1.28142 0
M  V30 32771 O 3087.91 -5.70185 0.156674 0
M  V30 32772 O 3086.85 -5.64271 2.0948 0
M  V30 32773 H 3090.67 -2.33943 1.93661 0
M  V30 32774 H 3088.26 -1.10782 1.00238 0
M  V30 32775 H 3090.14 -4.20036 0.338738 0
M  V30 32776 H 3088.81 -3.21865 -0.344183 0
M  V30 32777 H 3087.72 -3.17855 1.97279 0
M  V30 32778 H 3089.05 -4.19234 2.57884 0
M  V30 32779 N 3090.71 -1.02553 -1.19669 0
M  V30 32780 C 3091.62 -0.613368 -2.2644 0
M  V30 32781 C 3092.63 0.353309 -1.70375 0
M  V30 32782 O 3093.81 0.212029 -2.00281 0
M  V30 32783 C 3090.87 0.0328419 -3.46684 0
M  V30 32784 C 3089.94 -0.980911 -4.17943 0
M  V30 32785 C 3089.17 -0.365443 -5.32447 0
M  V30 32786 O 3089.39 0.832497 -5.64292 0
M  V30 32787 O 3088.33 -1.08662 -5.9201 0
M  V30 32788 H 3092.15 -1.5025 -2.63929 0
M  V30 32789 H 3089.74 -0.795524 -1.26459 0
M  V30 32790 H 3091.62 0.393321 -4.1956 0
M  V30 32791 H 3090.29 0.896034 -3.11051 0
M  V30 32792 H 3089.2 -1.39292 -3.47201 0
M  V30 32793 H 3090.53 -1.81436 -4.57539 0
M  V30 32794 N 3092.19 1.35612 -0.802945 0
M  V30 32795 C 3093.43 1.98124 -0.378122 0
M  V30 32796 C 3093.75 1.6442 1.0595 0
M  V30 32797 O 3094.95 2.20269 1.58725 0
M  V30 32798 C 3093.41 3.54429 -0.625139 0
M  V30 32799 C 3093.02 3.97046 -2.07506 0
M  V30 32800 C 3094.76 4.23669 -0.265493 0
M  V30 32801 C 3092.67 5.46182 -2.26802 0
M  V30 32802 H 3091.6 0.74133 -0.137646 0
M  V30 32803 H 3094.25 1.54728 -0.986489 0
M  V30 32804 H 3092.63 3.95964 0.0531279 0
M  V30 32805 H 3093.81 3.66673 -2.79084 0
M  V30 32806 H 3092.12 3.40684 -2.39423 0
M  V30 32807 H 3094.72 5.33292 -0.387763 0
M  V30 32808 H 3095.06 4.08776 0.787922 0
M  V30 32809 H 3095.59 3.87543 -0.897532 0
M  V30 32810 H 3092.33 5.66039 -3.30576 0
M  V30 32811 H 3091.85 5.78136 -1.59745 0
M  V30 32812 H 3093.53 6.12594 -2.08176 0
M  V30 32813 N 3093.66 0.556128 1.47462 0
M  V30 32814 C 3094.61 -0.212552 2.27007 0
M  V30 32815 C 3095.6 -0.886288 1.3429 0
M  V30 32816 O 3096.79 -0.784773 1.58652 0
M  V30 32817 C 3093.92 -1.24258 3.20023 0
M  V30 32818 C 3093 -0.572311 4.20221 0
M  V30 32819 N 3093.4 0.356999 5.04539 0
M  V30 32820 C 3091.69 -0.826364 4.38278 0
M  V30 32821 C 3092.39 0.746236 5.76894 0
M  V30 32822 N 3091.37 0.10132 5.43506 0
M  V30 32823 H 3095.17 0.501976 2.89581 0
M  V30 32824 H 3092.69 0.375988 1.57988 0
M  V30 32825 H 3094.68 -1.80721 3.75693 0
M  V30 32826 H 3093.34 -1.95821 2.59006 0
M  V30 32827 H 3094.35 0.731102 5.12714 0
M  V30 32828 H 3091.03 -1.53059 3.88432 0
M  V30 32829 H 3092.42 1.50979 6.54717 0
M  V30 32830 N 3095.14 -1.54861 0.292527 0
M  V30 32831 C 3096.05 -2.26877 -0.596996 0
M  V30 32832 C 3097.07 -1.30088 -1.15555 0
M  V30 32833 O 3098.24 -1.63056 -1.18215 0
M  V30 32834 C 3095.31 -2.98906 -1.75658 0
M  V30 32835 C 3094.37 -4.11214 -1.23296 0
M  V30 32836 C 3093.6 -4.79799 -2.33728 0
M  V30 32837 O 3093.83 -4.47692 -3.53452 0
M  V30 32838 O 3092.76 -5.67383 -2.00898 0
M  V30 32839 H 3096.59 -3.03697 -0.0130708 0
M  V30 32840 H 3094.17 -1.49282 0.0592904 0
M  V30 32841 H 3096.05 -3.44114 -2.43235 0
M  V30 32842 H 3094.73 -2.24988 -2.32727 0
M  V30 32843 H 3093.63 -3.70424 -0.523156 0
M  V30 32844 H 3094.97 -4.87084 -0.707801 0
M  V30 32845 N 3096.62 -0.0200973 -1.57587 0
M  V30 32846 C 3097.84 0.674513 -1.96125 0
M  V30 32847 C 3098.27 1.65384 -0.896097 0
M  V30 32848 O 3097.63 1.80728 0.143894 0
M  V30 32849 C 3097.68 1.36511 -3.33762 0
M  V30 32850 O 3096.78 2.48016 -3.29487 0
M  V30 32851 H 3096.12 0.177908 -0.639722 0
M  V30 32852 H 3098.65 -0.0792677 -2.04446 0
M  V30 32853 H 3098.66 1.72397 -3.69788 0
M  V30 32854 H 3097.34 0.647193 -4.10834 0
M  V30 32855 H 3095.91 2.14309 -3.05166 0
M  V30 32856 N 3098.1 1.55557 0.252939 0
M  V30 32857 C 3099.35 1.76308 0.979705 0
M  V30 32858 C 3099.66 0.582904 1.86713 0
M  V30 32859 O 3100.87 0.673293 2.63019 0
M  V30 32860 C 3099.32 3.12115 1.79199 0
M  V30 32861 C 3098.93 4.37763 0.952256 0
M  V30 32862 C 3100.67 3.42208 2.51185 0
M  V30 32863 C 3098.58 5.64602 1.76008 0
M  V30 32864 H 3097.51 0.657241 0.369527 0
M  V30 32865 H 3100.16 1.81994 0.234587 0
M  V30 32866 H 3098.54 3.0052 2.57883 0
M  V30 32867 H 3099.72 4.6033 0.20817 0
M  V30 32868 H 3098.03 4.1496 0.346009 0
M  V30 32869 H 3100.63 4.34187 3.12067 0
M  V30 32870 H 3100.97 2.63254 3.22495 0
M  V30 32871 H 3101.51 3.54991 1.79516 0
M  V30 32872 H 3098.24 6.4636 1.09084 0
M  V30 32873 H 3097.76 5.46146 2.47961 0
M  V30 32874 H 3099.44 6.03638 2.32874 0
M  V30 32875 N 3099.58 -0.518341 1.48832 0
M  V30 32876 C 3100.99 -0.847956 1.3521 0
M  V30 32877 C 3101.19 -1.98037 0.371962 0
M  V30 32878 O 3100.25 -2.51686 -0.202637 0
M  V30 32879 C 3101.56 -1.2045 2.75522 0
M  V30 32880 C 3103.11 -1.31372 2.84096 0
M  V30 32881 C 3103.58 -1.70364 4.25135 0
M  V30 32882 N 3105.07 -1.77445 4.27864 0
M  V30 32883 C 3105.81 -2.09025 5.33944 0
M  V30 32884 N 3105.31 -2.38948 6.50289 0
M  V30 32885 N 3107.1 -2.1013 5.21346 0
M  V30 32886 H 3099.25 0.228661 2.11166 0
M  V30 32887 H 3101.51 0.0396765 0.947169 0
M  V30 32888 H 3101.22 -0.44593 3.48862 0
M  V30 32889 H 3101.09 -2.15199 3.09789 0
M  V30 32890 H 3103.48 -2.06304 2.11004 0
M  V30 32891 H 3103.56 -0.347158 2.53433 0
M  V30 32892 H 3103.2 -0.959887 4.98747 0
M  V30 32893 H 3103.13 -2.6809 4.5325 0
M  V30 32894 H 3105.63 -1.56551 3.43948 0
M  V30 32895 H 3105.94 -2.62184 7.26966 0
M  V30 32896 H 3104.28 -2.36442 6.53544 0
M  V30 32897 H 3107.47 -1.86218 4.29466 0
M  V30 32898 H 3107.65 -2.34408 6.04117 0
M  V30 32899 N 3101.05 -1.37615 -0.7681 0
M  V30 32900 C 3102.3 -1.34229 -1.52821 0
M  V30 32901 C 3102.65 0.0717144 -1.92266 0
M  V30 32902 O 3101.95 1.03116 -1.61486 0
M  V30 32903 C 3102.14 -2.21861 -2.802 0
M  V30 32904 C 3101.97 -3.71641 -2.53206 0
M  V30 32905 C 3100.74 -4.40731 -2.47151 0
M  V30 32906 C 3102.94 -4.64416 -2.20957 0
M  V30 32907 N 3100.92 -5.7603 -2.12279 0
M  V30 32908 C 3102.29 -5.88119 -1.96254 0
M  V30 32909 C 3104.35 -4.52765 -2.07143 0
M  V30 32910 C 3103.05 -7.01476 -1.59133 0
M  V30 32911 C 3105.08 -5.66011 -1.71422 0
M  V30 32912 C 3104.44 -6.88766 -1.47582 0
M  V30 32913 H 3100.54 -0.546461 -0.559378 0
M  V30 32914 H 3103.12 -1.7287 -0.895764 0
M  V30 32915 H 3101.29 -1.8543 -3.41277 0
M  V30 32916 H 3103.02 -2.09706 -3.46129 0
M  V30 32917 H 3099.78 -3.93776 -2.6313 0
M  V30 32918 H 3100.2 -6.47542 -1.97529 0
M  V30 32919 H 3104.84 -3.58426 -2.24255 0
M  V30 32920 H 3102.56 -7.95746 -1.40759 0
M  V30 32921 H 3106.15 -5.58968 -1.61387 0
M  V30 32922 H 3105.03 -7.7491 -1.20351 0
M  V30 32923 N 3102.53 0.994677 -1.22245 0
M  V30 32924 C 3103.76 1.7695 -1.07221 0
M  V30 32925 C 3104.17 1.8499 0.377356 0
M  V30 32926 O 3103.53 1.31876 1.26154 0
M  V30 32927 C 3103.58 3.20352 -1.67502 0
M  V30 32928 O 3103.3 3.1275 -3.06788 0
M  V30 32929 C 3104.8 4.14291 -1.57728 0
M  V30 32930 H 3102.02 0.555773 -0.375976 0
M  V30 32931 H 3104.57 1.25063 -1.61801 0
M  V30 32932 H 3102.72 3.69313 -1.16989 0
M  V30 32933 H 3103.14 4.0292 -3.35791 0
M  V30 32934 H 3104.61 5.12669 -2.04632 0
M  V30 32935 H 3105.09 4.35948 -0.533511 0
M  V30 32936 H 3105.69 3.71225 -2.07538 0
M  V30 32937 N 3104.01 1.03186 1.19123 0
M  V30 32938 C 3104.96 0.615239 2.22449 0
M  V30 32939 C 3105.93 -0.372473 1.6187 0
M  V30 32940 O 3107.11 -0.268458 1.88902 0
M  V30 32941 C 3104.25 -0.024742 3.45091 0
M  V30 32942 C 3103.36 1.00937 4.20043 0
M  V30 32943 C 3102.5 0.338837 5.30118 0
M  V30 32944 C 3101.54 1.35865 5.96831 0
M  V30 32945 N 3100.68 0.713716 6.98463 0
M  V30 32946 H 3105.52 1.50091 2.57443 0
M  V30 32947 H 3103.05 0.751027 1.26483 0
M  V30 32948 H 3105.01 -0.413058 4.1515 0
M  V30 32949 H 3103.64 -0.873973 3.10744 0
M  V30 32950 H 3102.69 1.51572 3.48898 0
M  V30 32951 H 3104 1.78433 4.65793 0
M  V30 32952 H 3103.16 -0.104163 6.06611 0
M  V30 32953 H 3101.9 -0.468296 4.85446 0
M  V30 32954 H 3100.9 1.81188 5.19087 0
M  V30 32955 H 3102.13 2.16733 6.43586 0
M  V30 32956 H 3100.07 -0.073271 6.55959 0
M  V30 32957 H 3099.99 1.42651 7.42419 0
M  V30 32958 H 3101.26 0.294818 7.78942 0
M  V30 32959 N 3105.49 -1.35184 0.810125 0
M  V30 32960 C 3106.44 -2.2974 0.220968 0
M  V30 32961 C 3107.41 -1.52981 -0.646997 0
M  V30 32962 O 3108.59 -1.81405 -0.591335 0
M  V30 32963 C 3105.73 -3.39455 -0.62161 0
M  V30 32964 C 3104.84 -4.31173 0.26718 0
M  V30 32965 C 3103.98 -5.27983 -0.58374 0
M  V30 32966 C 3103.02 -6.11338 0.30523 0
M  V30 32967 N 3102.15 -7.00275 -0.505868 0
M  V30 32968 H 3106.99 -2.79534 1.03271 0
M  V30 32969 H 3104.53 -1.37572 0.520792 0
M  V30 32970 H 3106.49 -4.01737 -1.12532 0
M  V30 32971 H 3105.12 -2.90929 -1.39858 0
M  V30 32972 H 3104.17 -3.69866 0.889015 0
M  V30 32973 H 3105.48 -4.89645 0.951268 0
M  V30 32974 H 3104.64 -5.95654 -1.15244 0
M  V30 32975 H 3103.38 -4.70016 -1.30138 0
M  V30 32976 H 3102.38 -5.42611 0.886171 0
M  V30 32977 H 3103.61 -6.71384 1.02079 0
M  V30 32978 H 3101.55 -6.44793 -1.20742 0
M  V30 32979 H 3101.47 -7.55905 0.120099 0
M  V30 32980 H 3102.74 -7.7229 -1.05773 0
M  V30 32981 N 3106.97 -0.56394 -1.47165 0
M  V30 32982 C 3108.38 -0.13234 -1.8623 0
M  V30 32983 C 3108.73 1.29969 -1.46978 0
M  V30 32984 O 3107.85 1.97879 -0.875946 0
M  V30 32985 C 3108.45 -0.233394 -3.37995 0
M  V30 32986 C 3107.01 0.143212 -3.76127 0
M  V30 32987 C 3106.15 -0.577905 -2.71211 0
M  V30 32988 H 3109.11 -0.773273 -1.38586 0
M  V30 32989 H 3109.13 0.546243 -3.76559 0
M  V30 32990 H 3108.64 -1.27574 -3.66533 0
M  V30 32991 H 3106.74 1.18641 -3.53207 0
M  V30 32992 H 3106.85 -0.220036 -4.78594 0
M  V30 32993 H 3105.22 -0.0202308 -2.54692 0
M  V30 32994 H 3106 -1.62154 -3.0259 0
M  V30 32995 N 3108.44 1.54704 -0.300735 0
M  V30 32996 C 3109.67 2.05009 0.314037 0
M  V30 32997 C 3110.09 1.1766 1.46757 0
M  V30 32998 O 3109.45 0.180629 1.80398 0
M  V30 32999 C 3109.5 3.52753 0.748181 0
M  V30 33000 O 3108.6 3.68427 1.85298 0
M  V30 33001 H 3107.95 0.661192 0.0610023 0
M  V30 33002 H 3110.48 1.99758 -0.442502 0
M  V30 33003 H 3110.49 3.946 1.03706 0
M  V30 33004 H 3109.16 4.1579 -0.095646 0
M  V30 33005 H 3107.74 3.38485 1.56467 0
M  V30 33006 N 3109.92 0.0284543 1.57574 0
M  V30 33007 C 3110.85 -0.982355 2.07081 0
M  V30 33008 C 3111.87 -1.28924 0.994101 0
M  V30 33009 O 3113.06 -1.25401 1.27031 0
M  V30 33010 C 3110.16 -2.30994 2.47982 0
M  V30 33011 C 3109.33 -2.18831 3.78724 0
M  V30 33012 C 3108.39 -3.34517 4.06183 0
M  V30 33013 O 3107.41 -3.11432 4.76444 0
M  V30 33014 N 3108.62 -4.58287 3.56305 0
M  V30 33015 H 3111.38 -0.559959 2.94422 0
M  V30 33016 H 3108.94 -0.158318 1.61124 0
M  V30 33017 H 3110.93 -3.07212 2.63445 0
M  V30 33018 H 3109.5 -2.64877 1.6601 0
M  V30 33019 H 3108.72 -1.27344 3.73065 0
M  V30 33020 H 3110.01 -2.07907 4.64384 0
M  V30 33021 H 3109.41 -4.79937 2.99462 0
M  V30 33022 H 3107.97 -5.31676 3.77047 0
M  V30 33023 N 3111.4 -1.55689 -0.244686 0
M  V30 33024 C 3112.33 -1.85476 -1.32943 0
M  V30 33025 C 3113.31 -0.710047 -1.46277 0
M  V30 33026 O 3114.5 -0.956032 -1.62457 0
M  V30 33027 C 3111.62 -2.04142 -2.70266 0
M  V30 33028 C 3110.67 -3.26785 -2.74069 0
M  V30 33029 S 3111.5 -4.83374 -2.30456 0
M  V30 33030 C 3112.66 -5.05047 -3.697 0
M  V30 33031 H 3112.89 -2.77193 -1.07477 0
M  V30 33032 H 3110.42 -1.47825 -0.445781 0
M  V30 33033 H 3112.38 -2.1558 -3.49336 0
M  V30 33034 H 3111.04 -1.13264 -2.92968 0
M  V30 33035 H 3110.24 -3.36818 -3.74926 0
M  V30 33036 H 3109.84 -3.14084 -2.03045 0
M  V30 33037 H 3112.13 -4.92527 -4.65214 0
M  V30 33038 H 3113.07 -6.0702 -3.64599 0
M  V30 33039 H 3113.48 -4.32883 -3.62315 0
M  V30 33040 N 3112.88 0.510441 -1.49105 0
M  V30 33041 C 3113.81 1.62947 -1.61186 0
M  V30 33042 C 3114.82 1.55091 -0.49503 0
M  V30 33043 O 3116.01 1.61195 -0.766699 0
M  V30 33044 C 3113.11 3.01696 -1.54378 0
M  V30 33045 C 3112.29 3.34834 -2.81434 0
M  V30 33046 C 3111.34 4.52951 -2.6781 0
M  V30 33047 O 3110.37 4.55202 -3.41731 0
M  V30 33048 N 3111.57 5.52302 -1.78725 0
M  V30 33049 H 3114.34 1.53014 -2.57695 0
M  V30 33050 H 3111.9 0.698126 -1.46075 0
M  V30 33051 H 3113.89 3.7862 -1.42931 0
M  V30 33052 H 3112.46 3.05604 -0.657651 0
M  V30 33053 H 3111.68 2.46898 -3.07303 0
M  V30 33054 H 3112.97 3.53767 -3.65687 0
M  V30 33055 H 3112.37 5.53276 -1.17906 0
M  V30 33056 H 3110.92 6.28366 -1.73205 0
M  V30 33057 N 3114.36 1.38021 0.760791 0
M  V30 33058 C 3115.27 1.36887 1.90523 0
M  V30 33059 C 3116.28 0.266938 1.7194 0
M  V30 33060 O 3117.46 0.504164 1.94988 0
M  V30 33061 C 3114.52 1.18564 3.25797 0
M  V30 33062 C 3113.58 2.38496 3.56956 0
M  V30 33063 C 3112.82 2.21038 4.85776 0
M  V30 33064 O 3113.04 1.20033 5.57627 0
M  V30 33065 O 3111.97 3.09469 5.16248 0
M  V30 33066 H 3115.8 2.33302 1.94433 0
M  V30 33067 H 3113.39 1.18865 0.90507 0
M  V30 33068 H 3115.27 1.10377 4.06688 0
M  V30 33069 H 3113.94 0.252298 3.22715 0
M  V30 33070 H 3112.85 2.52257 2.76256 0
M  V30 33071 H 3114.18 3.30436 3.64792 0
M  V30 33072 N 3115.83 -0.98818 1.22771 0
M  V30 33073 C 3116.78 -2.06373 0.969238 0
M  V30 33074 C 3117.77 -1.60691 -0.0818991 0
M  V30 33075 O 3118.96 -1.76528 0.129232 0
M  V30 33076 C 3116.09 -3.38801 0.553979 0
M  V30 33077 C 3115.18 -3.91103 1.6401 0
M  V30 33078 N 3115.57 -4.16574 2.86879 0
M  V30 33079 C 3113.86 -4.19557 1.51288 0
M  V30 33080 C 3114.57 -4.59154 3.57145 0
M  V30 33081 N 3113.54 -4.63126 2.84632 0
M  V30 33082 H 3117.34 -2.24013 1.90251 0
M  V30 33083 H 3114.86 -1.17031 1.12594 0
M  V30 33084 H 3116.85 -4.15427 0.350106 0
M  V30 33085 H 3115.51 -3.22558 -0.372333 0
M  V30 33086 H 3116.53 -4.04627 3.23261 0
M  V30 33087 H 3113.2 -4.1236 0.653104 0
M  V30 33088 H 3114.59 -4.87444 4.62437 0
M  V30 33089 N 3117.31 -1.03816 -1.18575 0
M  V30 33090 C 3118.56 -0.741166 -1.88771 0
M  V30 33091 C 3118.89 0.729095 -1.79994 0
M  V30 33092 O 3118.17 1.53184 -1.19854 0
M  V30 33093 C 3118.45 -1.20473 -3.3935 0
M  V30 33094 C 3118.3 -2.73691 -3.5695 0
M  V30 33095 C 3119.62 -0.792817 -4.329 0
M  V30 33096 H 3116.74 -0.27072 -0.685478 0
M  V30 33097 H 3119.38 -1.28973 -1.39521 0
M  V30 33098 H 3117.53 -0.738041 -3.81425 0
M  V30 33099 H 3119.2 -3.28378 -3.23984 0
M  V30 33100 H 3117.45 -3.13637 -2.9969 0
M  V30 33101 H 3118.12 -3.01185 -4.62593 0
M  V30 33102 H 3120.59 -1.19437 -3.9859 0
M  V30 33103 H 3119.47 -1.14495 -5.36826 0
M  V30 33104 H 3119.73 0.304217 -4.41052 0
M  V30 33105 N 3118.79 1.34753 -0.817283 0
M  V30 33106 C 3119.72 2.3216 -0.24981 0
M  V30 33107 C 3120.7 1.57978 0.630636 0
M  V30 33108 O 3121.89 1.8599 0.558687 0
M  V30 33109 C 3119.02 3.42187 0.593765 0
M  V30 33110 C 3117.97 4.27582 -0.189072 0
M  V30 33111 C 3117.3 5.29026 0.776886 0
M  V30 33112 C 3118.6 5.03351 -1.39409 0
M  V30 33113 H 3120.29 2.7987 -1.06364 0
M  V30 33114 H 3117.84 1.34555 -0.512917 0
M  V30 33115 H 3119.79 4.09341 1.0009 0
M  V30 33116 H 3118.51 2.93112 1.44059 0
M  V30 33117 H 3117.17 3.62023 -0.577509 0
M  V30 33118 H 3116.82 4.76215 1.61951 0
M  V30 33119 H 3116.52 5.87036 0.257345 0
M  V30 33120 H 3118.04 5.9905 1.182 0
M  V30 33121 H 3119.46 5.63391 -1.06127 0
M  V30 33122 H 3117.86 5.70908 -1.84888 0
M  V30 33123 H 3118.93 4.33373 -2.17523 0
M  V30 33124 N 3120.27 0.571737 1.46864 0
M  V30 33125 C 3121.49 0.0565019 2.07323 0
M  V30 33126 C 3121.92 -1.23429 1.4194 0
M  V30 33127 O 3121.28 -1.74287 0.499364 0
M  V30 33128 C 3121.33 -0.107276 3.6044 0
M  V30 33129 O 3120.43 -1.16643 3.95561 0
M  V30 33130 H 3119.77 0.0578581 0.661474 0
M  V30 33131 H 3122.3 0.791558 1.88668 0
M  V30 33132 H 3122.31 -0.316915 4.06767 0
M  V30 33133 H 3120.99 0.83542 4.07423 0
M  V30 33134 H 3119.56 -0.936125 3.60959 0
M  V30 33135 N 3121.75 -1.54542 0.308935 0
M  V30 33136 C 3122.68 -2.26769 -0.556617 0
M  V30 33137 C 3123.66 -1.27015 -1.13142 0
M  V30 33138 O 3124.84 -1.55802 -1.15928 0
M  V30 33139 C 3121.97 -3.01446 -1.72475 0
M  V30 33140 C 3120.93 -4.08414 -1.27994 0
M  V30 33141 C 3120.25 -4.7085 -2.53386 0
M  V30 33142 C 3121.55 -5.20724 -0.405405 0
M  V30 33143 H 3123.25 -2.99365 0.0458144 0
M  V30 33144 H 3120.79 -1.43981 0.0234748 0
M  V30 33145 H 3122.75 -3.50697 -2.33644 0
M  V30 33146 H 3121.47 -2.26441 -2.35355 0
M  V30 33147 H 3120.13 -3.60024 -0.691267 0
M  V30 33148 H 3119.78 -3.92476 -3.14597 0
M  V30 33149 H 3119.48 -5.43097 -2.24321 0
M  V30 33150 H 3121 -5.22868 -3.15343 0
M  V30 33151 H 3122.42 -5.65822 -0.922977 0
M  V30 33152 H 3120.81 -5.99739 -0.208177 0
M  V30 33153 H 3121.88 -4.81568 0.567497 0
M  V30 33154 N 3123.23 -0.0368104 -1.57557 0
M  V30 33155 C 3124.47 0.644218 -1.93982 0
M  V30 33156 C 3124.83 1.68849 -0.914012 0
M  V30 33157 O 3126.03 2.42255 -1.16472 0
M  V30 33158 C 3124.3 1.23773 -3.35283 0
M  V30 33159 S 3125.86 1.93876 -3.93646 0
M  V30 33160 H 3122.68 0.211908 -0.678687 0
M  V30 33161 H 3125.28 -0.102315 -1.95232 0
M  V30 33162 H 3123.98 0.46538 -4.07753 0
M  V30 33163 H 3123.52 2.0214 -3.37495 0
M  V30 33164 H 3125.53 3.21797 -3.77705 0
M  V30 33165 N 3124.7 1.55817 0.236426 0
M  V30 33166 C 3125.65 1.87584 1.296 0
M  V30 33167 C 3126.64 0.737591 1.42998 0
M  V30 33168 O 3127.83 0.999726 1.46063 0
M  V30 33169 C 3124.96 2.18314 2.64941 0
M  V30 33170 C 3124.04 3.38494 2.55505 0
M  V30 33171 N 3124.44 4.57497 2.15708 0
M  V30 33172 C 3122.73 3.41813 2.86496 0
M  V30 33173 C 3123.43 5.39645 2.1716 0
M  V30 33174 N 3122.41 4.78973 2.57071 0
M  V30 33175 H 3126.21 2.77116 0.978968 0
M  V30 33176 H 3123.73 1.56183 0.445031 0
M  V30 33177 H 3125.72 2.39242 3.41422 0
M  V30 33178 H 3124.38 1.30087 2.97502 0
M  V30 33179 H 3125.39 4.8293 1.8708 0
M  V30 33180 H 3122.07 2.63886 3.23528 0
M  V30 33181 H 3123.46 6.44875 1.88642 0
M  V30 33182 N 3126.18 -0.502526 1.49373 0
M  V30 33183 C 3127.11 -1.61291 1.68842 0
M  V30 33184 C 3128.09 -1.61397 0.537125 0
M  V30 33185 O 3129.28 -1.78161 0.772795 0
M  V30 33186 C 3126.41 -2.99781 1.75352 0
M  V30 33187 C 3125.36 -3.1454 2.90256 0
M  V30 33188 C 3124.69 -4.54366 2.81878 0
M  V30 33189 C 3125.99 -2.94709 4.31212 0
M  V30 33190 H 3127.68 -1.45252 2.61806 0
M  V30 33191 H 3125.23 -0.697348 1.25988 0
M  V30 33192 H 3127.18 -3.77359 1.87558 0
M  V30 33193 H 3125.9 -3.16905 0.789869 0
M  V30 33194 H 3124.56 -2.39387 2.7765 0
M  V30 33195 H 3124.21 -4.68364 1.83424 0
M  V30 33196 H 3123.91 -4.65182 3.58998 0
M  V30 33197 H 3125.44 -5.34007 2.9609 0
M  V30 33198 H 3126.85 -3.62058 4.44508 0
M  V30 33199 H 3125.25 -3.16998 5.09541 0
M  V30 33200 H 3126.32 -1.90849 4.45763 0
M  V30 33201 N 3127.66 -1.38422 -0.75346 0
M  V30 33202 C 3128.59 -1.3004 -1.87523 0
M  V30 33203 C 3129.57 -0.177407 -1.61629 0
M  V30 33204 O 3130.75 -0.354748 -1.85132 0
M  V30 33205 C 3127.88 -1.01491 -3.23137 0
M  V30 33206 C 3126.93 -2.15729 -3.67917 0
M  V30 33207 S 3127.76 -3.7787 -3.7944 0
M  V30 33208 C 3128.92 -3.51509 -5.17873 0
M  V30 33209 H 3129.15 -2.24981 -1.94347 0
M  V30 33210 H 3126.68 -1.2426 -0.916453 0
M  V30 33211 H 3128.64 -0.85703 -4.01454 0
M  V30 33212 H 3127.3 -0.0826751 -3.13991 0
M  V30 33213 H 3126.49 -1.913 -4.66284 0
M  V30 33214 H 3126.1 -2.27625 -2.96754 0
M  V30 33215 H 3128.39 -3.0763 -6.03631 0
M  V30 33216 H 3129.33 -4.49269 -5.47323 0
M  V30 33217 H 3129.74 -2.86018 -4.86676 0
M  V30 33218 N 3129.14 0.981655 -1.23294 0
M  V30 33219 C 3130.38 1.72614 -1.07592 0
M  V30 33220 C 3130.74 1.88541 0.383408 0
M  V30 33221 O 3130.03 1.42568 1.28003 0
M  V30 33222 C 3130.23 3.12548 -1.73344 0
M  V30 33223 C 3130.05 3.10269 -3.2552 0
M  V30 33224 C 3128.82 3.1553 -3.94676 0
M  V30 33225 C 3131.02 2.93535 -4.22305 0
M  V30 33226 N 3129 3.03123 -5.33844 0
M  V30 33227 C 3130.38 2.89277 -5.48378 0
M  V30 33228 C 3132.43 2.78011 -4.13055 0
M  V30 33229 C 3131.13 2.71083 -6.66263 0
M  V30 33230 C 3133.16 2.61181 -5.30602 0
M  V30 33231 C 3132.52 2.57619 -6.556 0
M  V30 33232 H 3128.62 0.640794 -0.448226 0
M  V30 33233 H 3131.2 1.16495 -1.56003 0
M  V30 33234 H 3129.38 3.66888 -1.27467 0
M  V30 33235 H 3131.11 3.75623 -1.5063 0
M  V30 33236 H 3127.86 3.2366 -3.45747 0
M  V30 33237 H 3128.29 3.00198 -6.06803 0
M  V30 33238 H 3132.93 2.79555 -3.17189 0
M  V30 33239 H 3130.65 2.68284 -7.62266 0
M  V30 33240 H 3134.23 2.50134 -5.25285 0
M  V30 33241 H 3133.11 2.44759 -7.45025 0
M  V30 33242 N 3130.62 1.04444 1.18022 0
M  V30 33243 C 3131.57 0.609108 2.19713 0
M  V30 33244 C 3132.55 -0.350445 1.57037 0
M  V30 33245 O 3133.74 -0.168889 1.76192 0
M  V30 33246 C 3130.87 -0.0225308 3.43293 0
M  V30 33247 C 3129.96 0.960397 4.13083 0
M  V30 33248 N 3130.35 2.12891 4.58815 0
M  V30 33249 C 3128.65 0.787223 4.38997 0
M  V30 33250 C 3129.35 2.75013 5.12584 0
M  V30 33251 N 3128.32 2.02862 5.04329 0
M  V30 33252 H 3132.12 1.49953 2.52767 0
M  V30 33253 H 3129.64 0.913541 1.34269 0
M  V30 33254 H 3131.64 -0.352123 4.1541 0
M  V30 33255 H 3130.3 -0.90844 3.11733 0
M  V30 33256 H 3131.31 2.50762 4.53143 0
M  V30 33257 H 3127.98 -0.0482747 4.17472 0
M  V30 33258 H 3129.37 3.74063 5.58146 0
M  V30 33259 N 3132.09 -1.34317 0.824418 0
M  V30 33260 C 3133.04 -2.31403 0.235668 0
M  V30 33261 C 3134.04 -1.57472 -0.624415 0
M  V30 33262 O 3135.24 -1.72458 -0.515588 0
M  V30 33263 H 3131.62 -0.749801 0.0574669 0
M  V30 33264 H 3133.59 -2.78583 1.0693 0
M  V30 33265 C 3132.34 -3.42717 -0.586557 0
M  V30 33266 H 3131.66 -3.99746 0.0659371 0
M  V30 33267 H 3133.1 -4.12882 -0.964588 0
M  V30 33268 C 3131.56 -2.87302 -1.75952 0
M  V30 33269 O 3132.09 -2.82304 -2.85775 0
M  V30 33270 N 3130.29 -2.44105 -1.57674 0
M  V30 33271 H 3129.84 -2.4837 -0.683392 0
M  V30 33272 H 3129.8 -2.07379 -2.36308 0
M  V30 33273 N 3133.57 -0.579517 -1.46558 0
M  V30 33274 C 3134.82 -0.0637512 -2.01999 0
M  V30 33275 C 3135.14 1.2996 -1.4538 0
M  V30 33276 O 3134.41 1.85244 -0.637294 0
M  V30 33277 H 3132.99 -0.0205769 -0.746717 0
M  V30 33278 H 3135.65 -0.754575 -1.797 0
M  V30 33279 H 3134.75 0.00764768 -3.12099 0
M  V30 33280 N 3135.05 1.54376 -0.317127 0
M  V30 33281 C 3136.47 1.5956 0.035738 0
M  V30 33282 C 3136.67 1.33381 1.51036 0
M  V30 33283 O 3135.72 1.11509 2.26544 0
M  V30 33284 C 3137.04 2.98331 -0.376705 0
M  V30 33285 C 3138.58 3.11289 -0.32682 0
M  V30 33286 C 3139.06 4.52395 -0.714327 0
M  V30 33287 N 3140.55 4.58365 -0.667483 0
M  V30 33288 C 3141.28 5.65649 -0.939594 0
M  V30 33289 N 3140.78 6.80901 -1.27851 0
M  V30 33290 N 3142.57 5.55395 -0.865582 0
M  V30 33291 H 3134.72 1.69651 -1.27797 0
M  V30 33292 H 3136.99 0.793171 -0.519214 0
M  V30 33293 H 3136.69 3.22466 -1.40386 0
M  V30 33294 H 3136.57 3.76292 0.261544 0
M  V30 33295 H 3138.95 2.86893 0.69112 0
M  V30 33296 H 3139.04 2.35447 -0.999915 0
M  V30 33297 H 3138.68 4.77523 -1.73015 0
M  V30 33298 H 3138.61 5.26597 -0.0189888 0
M  V30 33299 H 3141.1 3.75591 -0.417128 0
M  V30 33300 H 3141.41 7.58658 -1.47169 0
M  V30 33301 H 3139.76 6.82413 -1.3167 0
M  V30 33302 H 3142.95 4.64234 -0.600346 0
M  V30 33303 H 3143.12 6.3892 -1.08101 0
M  V30 33304 N 3136.53 0.0451655 1.57535 0
M  V30 33305 C 3137.48 -0.931276 2.11177 0
M  V30 33306 C 3138.45 -1.31273 1.01768 0
M  V30 33307 O 3139.63 -1.40325 1.29281 0
M  V30 33308 C 3136.77 -2.20291 2.65643 0
M  V30 33309 C 3135.88 -1.87647 3.89118 0
M  V30 33310 C 3135.02 -3.09224 4.31919 0
M  V30 33311 C 3134.06 -2.72474 5.4811 0
M  V30 33312 N 3133.19 -3.86726 5.85993 0
M  V30 33313 H 3138.03 -0.466934 2.94319 0
M  V30 33314 H 3135.57 -0.21886 1.45463 0
M  V30 33315 H 3137.53 -2.94692 2.95318 0
M  V30 33316 H 3136.16 -2.64312 1.85307 0
M  V30 33317 H 3135.21 -1.0342 3.66072 0
M  V30 33318 H 3136.52 -1.56592 4.73582 0
M  V30 33319 H 3135.68 -3.91931 4.63115 0
M  V30 33320 H 3134.42 -3.43453 3.46253 0
M  V30 33321 H 3133.42 -1.88183 5.16592 0
M  V30 33322 H 3134.65 -2.39444 6.35487 0
M  V30 33323 H 3132.59 -4.20766 5.03281 0
M  V30 33324 H 3132.51 -3.59349 6.65135 0
M  V30 33325 H 3133.78 -4.70089 6.21801 0
M  V30 33326 N 3138.01 -1.5594 -0.228159 0
M  V30 33327 C 3139.25 -1.7891 -0.954933 0
M  V30 33328 C 3139.59 -0.61368 -1.84249 0
M  V30 33329 O 3138.86 0.387336 -1.90604 0
M  V30 33330 C 3139.14 -3.11913 -1.79951 0
M  V30 33331 C 3139 -4.39892 -0.938891 0
M  V30 33332 C 3140.32 -3.413 -2.77853 0
M  V30 33333 H 3137.43 -0.650874 -0.345733 0
M  V30 33334 H 3140.08 -1.88672 -0.224211 0
M  V30 33335 H 3138.23 -3.03721 -2.42251 0
M  V30 33336 H 3139.9 -4.60095 -0.333144 0
M  V30 33337 H 3138.14 -4.33113 -0.24402 0
M  V30 33338 H 3138.81 -5.29378 -1.56407 0
M  V30 33339 H 3141.29 -3.49576 -2.25689 0
M  V30 33340 H 3140.16 -4.35544 -3.34055 0
M  V30 33341 H 3140.43 -2.63138 -3.55262 0
M  V30 33342 N 3139.48 0.494597 -1.49638 0
M  V30 33343 C 3140.71 1.27033 -1.6293 0
M  V30 33344 C 3141.12 1.86766 -0.302497 0
M  V30 33345 O 3140.47 1.6888 0.722848 0
M  V30 33346 C 3140.53 2.43526 -2.64453 0
M  V30 33347 C 3140.19 2.04613 -4.08635 0
M  V30 33348 C 3141.19 1.58216 -4.95241 0
M  V30 33349 C 3138.87 2.14052 -4.54409 0
M  V30 33350 C 3140.87 1.21771 -6.2566 0
M  V30 33351 C 3138.55 1.77218 -5.84839 0
M  V30 33352 C 3139.55 1.31153 -6.70289 0
M  V30 33353 O 3139.24 0.948199 -7.98288 0
M  V30 33354 H 3138.97 0.391252 -0.55127 0
M  V30 33355 H 3141.53 0.599587 -1.96454 0
M  V30 33356 H 3139.76 3.13696 -2.26123 0
M  V30 33357 H 3141.45 3.0554 -2.67208 0
M  V30 33358 H 3142.21 1.50365 -4.61102 0
M  V30 33359 H 3138.09 2.48858 -3.8806 0
M  V30 33360 H 3141.63 0.857444 -6.9231 0
M  V30 33361 H 3137.53 1.84721 -6.18505 0
M  V30 33362 H 3138.3 1.07911 -8.11355 0
M  V30 33363 N 3140.96 1.3882 0.746109 0
M  V30 33364 C 3141.87 1.389 1.89061 0
M  V30 33365 C 3142.89 0.28516 1.71647 0
M  V30 33366 O 3144.06 0.524817 1.94442 0
M  V30 33367 C 3141.13 1.22013 3.24521 0
M  V30 33368 C 3140.19 2.42269 3.54407 0
M  V30 33369 C 3139.42 2.26178 4.83404 0
M  V30 33370 O 3139.65 1.2594 5.56323 0
M  V30 33371 O 3138.58 3.14927 5.12937 0
M  V30 33372 H 3142.41 2.35351 1.91947 0
M  V30 33373 H 3139.99 1.19818 0.892412 0
M  V30 33374 H 3141.87 1.14684 4.05494 0
M  V30 33375 H 3140.55 0.286512 3.2243 0
M  V30 33376 H 3139.46 2.55173 2.73565 0
M  V30 33377 H 3140.79 3.34286 3.61267 0
M  V30 33378 N 3142.44 -0.975103 1.23812 0
M  V30 33379 C 3143.72 -1.6919 0.98153 0
M  V30 33380 C 3144.1 -2.05134 -0.498337 0
M  V30 33381 O 3143.45 -1.74867 -1.47084 0
M  V30 33382 C 3143.66 -2.92938 1.89706 0
M  V30 33383 C 3145 -3.65338 2.16363 0
M  V30 33384 O 3146.03 -3.02981 1.87299 0
M  V30 33385 O 3144.89 -4.77572 2.65683 0
M  V30 33386 H 3141.98 -0.739308 0.370612 0
M  V30 33387 H 3144.53 -1.02985 1.34878 0
M  V30 33388 H 3143.3 -2.63013 2.89723 0
M  V30 33389 H 3142.92 -3.66879 1.53251 0
M  V30 33390 N 3143.92 -1.05068 -1.17467 0
M  V30 33391 C 3145.17 -0.76002 -1.87696 0
M  V30 33392 C 3145.49 0.71287 -1.80965 0
M  V30 33393 O 3144.75 1.53693 -1.21149 0
M  V30 33394 C 3145.05 -1.18427 -3.37209 0
M  V30 33395 C 3144.71 -2.65915 -3.64143 0
M  V30 33396 C 3143.38 -3.06205 -3.71203 0
M  V30 33397 C 3145.73 -3.61228 -3.75717 0
M  V30 33398 C 3143.06 -4.40676 -3.87327 0
M  V30 33399 C 3145.41 -4.9543 -3.93359 0
M  V30 33400 C 3144.07 -5.35377 -3.98658 0
M  V30 33401 H 3143.34 -0.278111 -0.68683 0
M  V30 33402 H 3145.99 -1.31753 -1.38972 0
M  V30 33403 H 3144.29 -0.545722 -3.87981 0
M  V30 33404 H 3145.99 -0.936587 -3.89909 0
M  V30 33405 H 3142.58 -2.33713 -3.59272 0
M  V30 33406 H 3146.76 -3.31241 -3.69585 0
M  V30 33407 H 3142.02 -4.71129 -3.89677 0
M  V30 33408 H 3146.19 -5.6918 -4.01257 0
M  V30 33409 H 3143.82 -6.3958 -4.10904 0
M  V30 33410 N 3145.4 1.33878 -0.831529 0
M  V30 33411 C 3146.62 2.02766 -0.435989 0
M  V30 33412 C 3147.05 1.62179 0.952861 0
M  V30 33413 O 3146.4 0.810709 1.62164 0
M  V30 33414 C 3146.45 3.56288 -0.55597 0
M  V30 33415 O 3145.56 4.10248 0.420754 0
M  V30 33416 H 3144.9 0.639625 -0.178259 0
M  V30 33417 H 3147.43 1.70939 -1.12433 0
M  V30 33418 H 3147.44 4.05675 -0.434902 0
M  V30 33419 H 3146.11 3.85174 -1.56887 0
M  V30 33420 H 3144.69 3.72007 0.257854 0
M  V30 33421 N 3146.87 0.587281 1.46249 0
M  V30 33422 C 3148.1 0.0784881 2.07251 0
M  V30 33423 C 3148.52 -1.21916 1.43241 0
M  V30 33424 O 3147.88 -1.73748 0.517822 0
M  V30 33425 C 3147.93 -0.0690403 3.60534 0
M  V30 33426 O 3147.03 -1.12441 3.96775 0
M  V30 33427 H 3146.38 0.0648707 0.660824 0
M  V30 33428 H 3148.91 0.811524 1.87818 0
M  V30 33429 H 3148.92 -0.273754 4.07081 0
M  V30 33430 H 3147.59 0.878586 4.06514 0
M  V30 33431 H 3146.17 -0.897788 3.61931 0
M  V30 33432 N 3148.35 -1.54206 0.325309 0
M  V30 33433 C 3149.3 -2.24398 -0.53985 0
M  V30 33434 C 3150.27 -1.23542 -1.11026 0
M  V30 33435 O 3151.45 -1.52228 -1.15027 0
M  V30 33436 C 3148.59 -3.00662 -1.694 0
M  V30 33437 C 3147.71 -4.16339 -1.15266 0
M  V30 33438 C 3146.84 -4.8013 -2.27263 0
M  V30 33439 C 3145.88 -5.87907 -1.70387 0
M  V30 33440 N 3145.02 -6.45553 -2.76054 0
M  V30 33441 H 3149.86 -2.97928 0.0652842 0
M  V30 33442 H 3147.4 -1.47034 0.0439899 0
M  V30 33443 H 3149.35 -3.43126 -2.37319 0
M  V30 33444 H 3147.98 -2.29462 -2.27039 0
M  V30 33445 H 3147.04 -3.78645 -0.364967 0
M  V30 33446 H 3148.35 -4.93913 -0.69649 0
M  V30 33447 H 3147.5 -5.25572 -3.03083 0
M  V30 33448 H 3146.24 -4.0194 -2.76217 0
M  V30 33449 H 3145.25 -5.41866 -0.930657 0
M  V30 33450 H 3146.47 -6.67995 -1.22308 0
M  V30 33451 H 3144.42 -5.70235 -3.24296 0
M  V30 33452 H 3144.33 -7.18546 -2.35005 0
M  V30 33453 H 3145.6 -6.9565 -3.51697 0
M  V30 33454 N 3149.83 -0.0535194 -1.57509 0
M  V30 33455 C 3151.08 0.61921 -1.9196 0
M  V30 33456 C 3151.39 1.71865 -0.933912 0
M  V30 33457 O 3152.6 2.4497 -1.17056 0
M  V30 33458 C 3151.06 1.15272 -3.4094 0
M  V30 33459 C 3150.66 0.0852693 -4.47919 0
M  V30 33460 C 3152.41 1.80056 -3.84422 0
M  V30 33461 C 3150.31 0.631794 -5.88016 0
M  V30 33462 H 3149.24 0.23506 -0.716424 0
M  V30 33463 H 3151.9 -0.12279 -1.83089 0
M  V30 33464 H 3150.28 1.94711 -3.44824 0
M  V30 33465 H 3151.45 -0.688454 -4.55628 0
M  V30 33466 H 3149.77 -0.465251 -4.13793 0
M  V30 33467 H 3152.36 2.21945 -4.86461 0
M  V30 33468 H 3152.71 2.65322 -3.20795 0
M  V30 33469 H 3153.24 1.07269 -3.83064 0
M  V30 33470 H 3149.98 -0.18329 -6.55244 0
M  V30 33471 H 3149.5 1.37345 -5.83863 0
M  V30 33472 H 3151.18 1.11395 -6.37338 0
M  V30 33473 N 3151.31 1.56059 0.219886 0
M  V30 33474 C 3152.73 1.49087 0.569658 0
M  V30 33475 C 3152.93 0.748936 1.87065 0
M  V30 33476 O 3151.98 0.289279 2.50837 0
M  V30 33477 C 3153.29 2.93649 0.647346 0
M  V30 33478 C 3154.84 3.04179 0.737861 0
M  V30 33479 C 3155.32 4.50102 0.846878 0
M  V30 33480 N 3156.81 4.54152 0.911056 0
M  V30 33481 C 3157.54 5.64342 1.01515 0
M  V30 33482 N 3157.04 6.84281 1.08308 0
M  V30 33483 N 3158.83 5.52198 1.05041 0
M  V30 33484 H 3150.98 2.02723 -0.633814 0
M  V30 33485 H 3153.25 0.921495 -0.222599 0
M  V30 33486 H 3152.95 3.50887 -0.239048 0
M  V30 33487 H 3152.83 3.4564 1.51039 0
M  V30 33488 H 3155.21 2.47005 1.6147 0
M  V30 33489 H 3155.29 2.55355 -0.15089 0
M  V30 33490 H 3154.94 5.07894 -0.0255059 0
M  V30 33491 H 3154.87 4.96634 1.75107 0
M  V30 33492 H 3157.36 3.67777 0.868804 0
M  V30 33493 H 3157.67 7.64009 1.16233 0
M  V30 33494 H 3156.02 6.86989 1.05219 0
M  V30 33495 H 3159.21 4.57424 0.994006 0
M  V30 33496 H 3159.38 6.38105 1.12808 0
M  V30 33497 N 3152.79 -0.486655 1.49898 0
M  V30 33498 C 3154.01 -1.2682 1.64108 0
M  V30 33499 C 3154.44 -1.85392 0.317999 0
M  V30 33500 O 3153.8 -1.66553 -0.716231 0
M  V30 33501 C 3153.84 -2.36394 2.72305 0
M  V30 33502 O 3152.95 -3.4063 2.32475 0
M  V30 33503 H 3152.29 -0.373783 0.548801 0
M  V30 33504 H 3154.82 -0.580983 1.96178 0
M  V30 33505 H 3154.83 -2.81943 2.94911 0
M  V30 33506 H 3153.5 -1.93131 3.68338 0
M  V30 33507 H 3152.08 -3.00901 2.20257 0
M  V30 33508 N 3154.27 -1.39214 -0.738737 0
M  V30 33509 C 3155.51 -1.36435 -1.50044 0
M  V30 33510 C 3155.84 0.0409133 -1.94157 0
M  V30 33511 O 3155.12 1.00511 -1.66517 0
M  V30 33512 C 3155.4 -2.33338 -2.74272 0
M  V30 33513 C 3155.26 -3.8279 -2.36203 0
M  V30 33514 C 3156.57 -2.2813 -3.76357 0
M  V30 33515 H 3153.69 -0.496913 -0.544286 0
M  V30 33516 H 3156.34 -1.70177 -0.844975 0
M  V30 33517 H 3154.49 -2.04695 -3.302 0
M  V30 33518 H 3156.16 -4.22168 -1.85935 0
M  V30 33519 H 3154.4 -3.99748 -1.68476 0
M  V30 33520 H 3155.07 -4.46075 -3.25148 0
M  V30 33521 H 3157.55 -2.53448 -3.30005 0
M  V30 33522 H 3156.42 -2.98018 -4.60952 0
M  V30 33523 H 3156.68 -1.28507 -4.23011 0
M  V30 33524 N 3155.74 0.968523 -1.24328 0
M  V30 33525 C 3156.97 1.75169 -1.11043 0
M  V30 33526 C 3157.39 1.85128 0.333077 0
M  V30 33527 O 3156.75 1.32158 1.24112 0
M  V30 33528 C 3156.8 3.15065 -1.75403 0
M  V30 33529 O 3155.9 3.99479 -1.02424 0
M  V30 33530 H 3155.24 0.538485 -0.388498 0
M  V30 33531 H 3157.77 1.21497 -1.64619 0
M  V30 33532 H 3157.78 3.65592 -1.81126 0
M  V30 33533 H 3156.46 3.07133 -2.80432 0
M  V30 33534 H 3155.04 3.57964 -1.04481 0
M  V30 33535 N 3157.22 1.0569 1.16908 0
M  V30 33536 C 3158.18 0.666471 2.19296 0
M  V30 33537 C 3159.18 -0.284646 1.58261 0
M  V30 33538 O 3160.37 -0.0678451 1.74068 0
M  V30 33539 C 3157.51 -0.0203056 3.40894 0
M  V30 33540 H 3158.7 1.57276 2.55351 0
M  V30 33541 H 3156.25 0.851382 1.31077 0
M  V30 33542 H 3156.99 -0.939631 3.10389 0
M  V30 33543 H 3156.77 0.663532 3.86445 0
M  V30 33544 H 3158.26 -0.279402 4.16664 0
M  V30 33545 N 3158.7 -1.33435 0.838617 0
M  V30 33546 C 3159.95 -1.97399 0.433346 0
M  V30 33547 C 3160.27 -1.6676 -1.01075 0
M  V30 33548 O 3159.54 -0.966403 -1.70404 0
M  V30 33549 H 3158.12 -0.730261 0.157253 0
M  V30 33550 H 3160.78 -1.62802 1.07152 0
M  V30 33551 H 3159.88 -3.0694 0.565198 0
M  V30 33552 N 3160.18 -0.595029 -1.45935 0
M  V30 33553 C 3161.59 -0.257669 -1.57506 0
M  V30 33554 C 3161.79 1.23995 -1.58831 0
M  V30 33555 O 3160.85 2.02234 -1.51187 0
M  V30 33556 C 3162.16 -0.917758 -2.86352 0
M  V30 33557 C 3163.71 -0.892499 -3.00006 0
M  V30 33558 C 3164.19 -1.53236 -4.31605 0
M  V30 33559 N 3165.68 -1.49727 -4.38333 0
M  V30 33560 C 3166.41 -1.96163 -5.38802 0
M  V30 33561 N 3165.91 -2.50628 -6.45877 0
M  V30 33562 N 3167.7 -1.87006 -5.3008 0
M  V30 33563 H 3159.85 -1.56759 -1.43319 0
M  V30 33564 H 3162.11 -0.655948 -0.684424 0
M  V30 33565 H 3161.82 -1.97176 -2.91229 0
M  V30 33566 H 3161.69 -0.43341 -3.74702 0
M  V30 33567 H 3164.08 0.152923 -2.94704 0
M  V30 33568 H 3164.16 -1.41499 -2.131 0
M  V30 33569 H 3163.81 -2.57705 -4.37665 0
M  V30 33570 H 3163.74 -0.984994 -5.17306 0
M  V30 33571 H 3166.23 -1.09927 -3.61558 0
M  V30 33572 H 3166.54 -2.83887 -7.18769 0
M  V30 33573 H 3164.89 -2.5466 -6.46663 0
M  V30 33574 H 3168.08 -1.44204 -4.45334 0
M  V30 33575 H 3168.25 -2.2351 -6.08233 0
M  V30 33576 N 3161.66 1.54031 -0.333483 0
M  V30 33577 C 3162.62 2.23331 0.515353 0
M  V30 33578 C 3163.62 1.23009 1.03564 0
M  V30 33579 O 3164.81 1.47519 0.926488 0
M  V30 33580 C 3161.94 2.94511 1.71685 0
M  V30 33581 H 3163.13 2.99763 -0.0905934 0
M  V30 33582 H 3160.69 1.5607 -0.0846926 0
M  V30 33583 H 3161.42 2.22241 2.36177 0
M  V30 33584 H 3161.21 3.68087 1.35108 0
M  V30 33585 H 3162.7 3.47282 2.31915 0
M  V30 33586 N 3163.13 0.0618717 1.57479 0
M  V30 33587 C 3164.06 -0.906562 2.15183 0
M  V30 33588 C 3165.04 -1.31722 1.07626 0
M  V30 33589 O 3166.23 -1.39003 1.35616 0
M  V30 33590 C 3163.36 -2.17767 2.70546 0
M  V30 33591 C 3162.31 -1.90673 3.83181 0
M  V30 33592 C 3161.64 -3.2433 4.25105 0
M  V30 33593 C 3162.94 -1.21985 5.07855 0
M  V30 33594 H 3164.63 -0.425888 2.96355 0
M  V30 33595 H 3162.18 -0.20341 1.42556 0
M  V30 33596 H 3164.13 -2.85924 3.09557 0
M  V30 33597 H 3162.86 -2.68059 1.8658 0
M  V30 33598 H 3161.52 -1.24925 3.44658 0
M  V30 33599 H 3161.16 -3.72443 3.38075 0
M  V30 33600 H 3160.86 -3.06996 5.01026 0
M  V30 33601 H 3162.39 -3.93701 4.66725 0
M  V30 33602 H 3163.8 -1.80195 5.44245 0
M  V30 33603 H 3162.2 -1.14943 5.88989 0
M  V30 33604 H 3163.27 -0.197451 4.84498 0
M  V30 33605 N 3164.61 -1.56173 -0.211607 0
M  V30 33606 C 3165.84 -1.83474 -0.949772 0
M  V30 33607 C 3166.25 -0.640084 -1.78044 0
M  V30 33608 O 3165.59 0.40067 -1.79277 0
M  V30 33609 C 3165.66 -3.0465 -1.90862 0
M  V30 33610 C 3165.32 -4.39243 -1.26152 0
M  V30 33611 C 3166.32 -5.15865 -0.646507 0
M  V30 33612 C 3164 -4.85972 -1.27031 0
M  V30 33613 C 3166 -6.37381 -0.0489192 0
M  V30 33614 C 3163.68 -6.07428 -0.66888 0
M  V30 33615 C 3164.68 -6.82974 -0.0592487 0
M  V30 33616 O 3164.37 -8.02132 0.532797 0
M  V30 33617 H 3164.1 -0.613705 -0.283447 0
M  V30 33618 H 3166.65 -2.04121 -0.228904 0
M  V30 33619 H 3164.88 -2.79847 -2.66875 0
M  V30 33620 H 3166.57 -3.18738 -2.51318 0
M  V30 33621 H 3167.34 -4.80865 -0.631971 0
M  V30 33622 H 3163.22 -4.27137 -1.73421 0
M  V30 33623 H 3166.76 -6.96289 0.427536 0
M  V30 33624 H 3162.66 -6.41899 -0.680862 0
M  V30 33625 H 3163.43 -8.1738 0.428086 0
M  V30 33626 N 3166.09 0.478699 -1.50154 0
M  V30 33627 C 3167.34 1.22806 -1.60005 0
M  V30 33628 C 3167.65 1.9325 -0.302311 0
M  V30 33629 O 3168.86 2.70056 -0.279631 0
M  V30 33630 C 3167.31 2.23103 -2.82406 0
M  V30 33631 C 3166.92 1.58497 -4.19026 0
M  V30 33632 C 3168.67 2.98729 -3.01598 0
M  V30 33633 C 3166.57 2.57035 -5.32622 0
M  V30 33634 H 3165.5 0.462063 -0.59583 0
M  V30 33635 H 3168.15 0.499381 -1.76574 0
M  V30 33636 H 3166.54 2.9923 -2.59379 0
M  V30 33637 H 3167.71 0.882108 -4.52278 0
M  V30 33638 H 3166.03 0.951806 -4.05376 0
M  V30 33639 H 3168.62 3.72461 -3.83637 0
M  V30 33640 H 3168.97 3.57667 -2.13026 0
M  V30 33641 H 3169.5 2.29715 -3.2477 0
M  V30 33642 H 3166.24 2.02847 -6.23324 0
M  V30 33643 H 3165.76 3.25496 -5.03798 0
M  V30 33644 H 3167.44 3.19018 -5.62882 0
M  V30 33645 N 3167.57 1.39603 0.731343 0
M  V30 33646 C 3168.98 1.33047 1.30978 0
M  V30 33647 C 3169.33 -0.0034647 1.962 0
M  V30 33648 O 3168.46 -0.905581 1.96541 0
M  V30 33649 C 3169.05 2.40962 2.38166 0
M  V30 33650 C 3167.61 2.37915 2.91674 0
M  V30 33651 C 3166.76 2.22659 1.65282 0
M  V30 33652 H 3169.71 1.49638 0.528589 0
M  V30 33653 H 3169.73 2.07961 3.18642 0
M  V30 33654 H 3169.24 3.38035 1.90667 0
M  V30 33655 H 3167.34 1.44491 3.43443 0
M  V30 33656 H 3167.45 3.3291 3.44539 0
M  V30 33657 H 3165.82 1.69896 1.89756 0
M  V30 33658 H 3166.6 3.21707 1.1983 0
M  V30 33659 N 3169.05 -0.961916 1.2484 0
M  V30 33660 C 3170.46 -1.52028 1.08371 0
M  V30 33661 C 3170.81 -1.93179 -0.342971 0
M  V30 33662 O 3169.93 -1.77902 -1.23206 0
M  V30 33663 C 3170.53 -2.76274 1.96107 0
M  V30 33664 C 3169.09 -3.28448 1.83845 0
M  V30 33665 C 3168.23 -2.01323 1.90694 0
M  V30 33666 H 3171.19 -0.779588 1.38232 0
M  V30 33667 H 3171.21 -3.49825 1.49676 0
M  V30 33668 H 3170.72 -2.46293 2.99936 0
M  V30 33669 H 3168.82 -3.63267 0.828717 0
M  V30 33670 H 3168.93 -3.96956 2.68258 0
M  V30 33671 H 3167.3 -2.16296 1.34492 0
M  V30 33672 H 3168.08 -1.73699 2.96114 0
M  V30 33673 N 3170.52 -1.06308 -1.16346 0
M  V30 33674 C 3171.75 -0.799487 -1.90504 0
M  V30 33675 C 3172.16 0.649924 -1.77687 0
M  V30 33676 O 3171.51 1.45667 -1.11923 0
M  V30 33677 C 3171.57 -1.11498 -3.41773 0
M  V30 33678 C 3171.23 -2.56284 -3.78375 0
M  V30 33679 C 3172.23 -3.54516 -3.80282 0
M  V30 33680 C 3169.91 -2.91587 -4.09002 0
M  V30 33681 C 3171.91 -4.86091 -4.12304 0
M  V30 33682 C 3169.59 -4.23362 -4.4069 0
M  V30 33683 C 3170.59 -5.20424 -4.42321 0
M  V30 33684 O 3170.28 -6.49834 -4.73256 0
M  V30 33685 H 3170.01 -0.28937 -0.610935 0
M  V30 33686 H 3172.57 -1.42002 -1.48407 0
M  V30 33687 H 3170.8 -0.437374 -3.84219 0
M  V30 33688 H 3172.49 -0.835603 -3.97206 0
M  V30 33689 H 3173.25 -3.28583 -3.56732 0
M  V30 33690 H 3169.13 -2.16693 -4.06897 0
M  V30 33691 H 3172.67 -5.61846 -4.13491 0
M  V30 33692 H 3168.57 -4.49052 -4.63705 0
M  V30 33693 H 3169.34 -6.54825 -4.91066 0
M  V30 33694 N 3172 1.32989 -0.845682 0
M  V30 33695 C 3173.28 1.92139 -0.36634 0
M  V30 33696 C 3173.66 1.77085 1.14909 0
M  V30 33697 O 3173.01 1.16341 1.96665 0
M  V30 33698 C 3173.22 3.39211 -0.820776 0
M  V30 33699 C 3174.57 4.16354 -0.83274 0
M  V30 33700 O 3175.59 3.47892 -0.764825 0
M  V30 33701 O 3174.45 5.38585 -0.926753 0
M  V30 33702 H 3171.54 0.820297 -0.105078 0
M  V30 33703 H 3174.09 1.41817 -0.931987 0
M  V30 33704 H 3172.86 3.44071 -1.86363 0
M  V30 33705 H 3172.48 3.96922 -0.232079 0
M  V30 33706 N 3173.48 0.60276 1.45618 0
M  V30 33707 C 3174.41 -0.106301 2.33258 0
M  V30 33708 C 3175.39 -0.863638 1.46545 0
M  V30 33709 O 3176.58 -0.835144 1.75325 0
M  V30 33710 C 3173.71 -1.10745 3.2917 0
M  V30 33711 C 3172.66 -0.463642 4.25481 0
M  V30 33712 C 3171.99 -1.57269 5.11048 0
M  V30 33713 C 3173.29 0.612081 5.18701 0
M  V30 33714 H 3174.98 0.625474 2.92794 0
M  V30 33715 H 3172.53 0.302237 1.40792 0
M  V30 33716 H 3174.48 -1.61201 3.89348 0
M  V30 33717 H 3173.2 -1.86976 2.67783 0
M  V30 33718 H 3171.86 0.0200141 3.66595 0
M  V30 33719 H 3171.51 -2.32516 4.46033 0
M  V30 33720 H 3171.21 -1.14745 5.76288 0
M  V30 33721 H 3172.73 -2.07962 5.74094 0
M  V30 33722 H 3174.15 0.191787 5.72979 0
M  V30 33723 H 3172.55 0.95879 5.92391 0
M  V30 33724 H 3173.62 1.49058 4.61421 0
M  V30 33725 N 3174.96 -1.53852 0.341647 0
M  V30 33726 C 3175.89 -2.27898 -0.508391 0
M  V30 33727 C 3176.87 -1.29386 -1.10423 0
M  V30 33728 O 3178.05 -1.58226 -1.12597 0
M  V30 33729 C 3175.18 -3.05036 -1.66042 0
M  V30 33730 C 3174.14 -4.11037 -1.19302 0
M  V30 33731 C 3173.46 -4.76119 -2.43342 0
M  V30 33732 C 3174.76 -5.21467 -0.29486 0
M  V30 33733 H 3176.46 -2.992 0.109304 0
M  V30 33734 H 3174 -1.43899 0.05401 0
M  V30 33735 H 3175.96 -3.55574 -2.26152 0
M  V30 33736 H 3174.68 -2.31383 -2.30499 0
M  V30 33737 H 3173.34 -3.61409 -0.614745 0
M  V30 33738 H 3172.99 -3.99061 -3.06201 0
M  V30 33739 H 3172.69 -5.47733 -2.12751 0
M  V30 33740 H 3174.21 -5.29439 -3.04181 0
M  V30 33741 H 3175.63 -5.67652 -0.80275 0
M  V30 33742 H 3174.02 -6.00045 -0.0809166 0
M  V30 33743 H 3175.09 -4.80256 0.669517 0
M  V30 33744 N 3176.44 -0.0702223 -1.57443 0
M  V30 33745 C 3177.38 0.897561 -2.12632 0
M  V30 33746 C 3178.35 1.29637 -1.03843 0
M  V30 33747 O 3179.54 1.3825 -1.31497 0
M  V30 33748 C 3176.68 2.16037 -2.69114 0
M  V30 33749 C 3175.79 1.81433 -3.92054 0
M  V30 33750 C 3174.93 3.02313 -4.36784 0
M  V30 33751 C 3173.97 2.6372 -5.52375 0
M  V30 33752 N 3173.1 3.77354 -5.92071 0
M  V30 33753 H 3177.94 0.420052 -2.95025 0
M  V30 33754 H 3175.48 0.195691 -1.45793 0
M  V30 33755 H 3177.44 2.89956 -2.99969 0
M  V30 33756 H 3176.07 2.61331 -1.89489 0
M  V30 33757 H 3175.12 0.975831 -3.67671 0
M  V30 33758 H 3176.43 1.49038 -4.76014 0
M  V30 33759 H 3175.59 3.84513 -4.69291 0
M  V30 33760 H 3174.32 3.37901 -3.51674 0
M  V30 33761 H 3173.33 1.79941 -5.1952 0
M  V30 33762 H 3174.55 2.29304 -6.39216 0
M  V30 33763 H 3172.5 4.12706 -5.09911 0
M  V30 33764 H 3172.42 3.48721 -6.70768 0
M  V30 33765 H 3173.69 4.60137 -6.29201 0
M  V30 33766 N 3177.91 1.56283 0.203321 0
M  V30 33767 C 3178.86 1.90291 1.25592 0
M  V30 33768 C 3179.85 0.767757 1.41401 0
M  V30 33769 O 3181.04 1.03048 1.4391 0
M  V30 33770 C 3178.17 2.23885 2.60251 0
M  V30 33771 C 3177.26 3.43837 2.48268 0
M  V30 33772 N 3177.65 4.6197 2.05955 0
M  V30 33773 C 3175.94 3.47813 2.79182 0
M  V30 33774 C 3176.65 5.4413 2.05664 0
M  V30 33775 N 3175.62 4.84318 2.46854 0
M  V30 33776 H 3179.42 2.7913 0.919967 0
M  V30 33777 H 3176.94 1.57092 0.411802 0
M  V30 33778 H 3178.93 2.46431 3.3627 0
M  V30 33779 H 3177.59 1.36368 2.94676 0
M  V30 33780 H 3178.61 4.8679 1.76794 0
M  V30 33781 H 3175.28 2.70689 3.17858 0
M  V30 33782 H 3176.67 6.48731 1.74921 0
M  V30 33783 N 3179.39 -0.470729 1.50406 0
M  V30 33784 C 3180.3 -1.59451 1.72083 0
M  V30 33785 C 3181.32 -1.63182 0.60396 0
M  V30 33786 O 3182.5 -1.81044 0.882328 0
M  V30 33787 C 3179.56 -2.95664 1.81062 0
M  V30 33788 C 3178.62 -3.02319 3.04798 0
M  V30 33789 C 3177.85 -4.32035 3.13339 0
M  V30 33790 O 3178.08 -5.2256 2.28664 0
M  V30 33791 O 3177.01 -4.44289 4.06068 0
M  V30 33792 H 3180.84 -1.44084 2.67345 0
M  V30 33793 H 3178.42 -0.650263 1.34506 0
M  V30 33794 H 3180.3 -3.76565 1.89147 0
M  V30 33795 H 3178.98 -3.11229 0.889837 0
M  V30 33796 H 3177.89 -2.20494 3.02214 0
M  V30 33797 H 3179.22 -2.91691 3.96456 0
M  V30 33798 N 3180.87 -1.39989 -0.72393 0
M  V30 33799 C 3182.12 -1.39023 -1.48473 0
M  V30 33800 C 3182.47 0.0105101 -1.92397 0
M  V30 33801 O 3181.77 0.979265 -1.64684 0
M  V30 33802 C 3181.96 -2.30663 -2.73 0
M  V30 33803 C 3181.79 -3.79508 -2.41254 0
M  V30 33804 C 3180.56 -4.48371 -2.33005 0
M  V30 33805 C 3182.76 -4.71211 -2.0607 0
M  V30 33806 N 3180.74 -5.82492 -1.93846 0
M  V30 33807 C 3182.11 -5.94065 -1.77444 0
M  V30 33808 C 3184.16 -4.59126 -1.92634 0
M  V30 33809 C 3182.87 -7.06184 -1.36735 0
M  V30 33810 C 3184.89 -5.71178 -1.53328 0
M  V30 33811 C 3184.26 -6.93113 -1.25595 0
M  V30 33812 H 3180.35 -0.563981 -0.54171 0
M  V30 33813 H 3182.94 -1.75633 -0.840313 0
M  V30 33814 H 3181.11 -1.96194 -3.35205 0
M  V30 33815 H 3182.84 -2.20612 -3.39282 0
M  V30 33816 H 3179.6 -4.01948 -2.50469 0
M  V30 33817 H 3180.02 -6.53499 -1.76828 0
M  V30 33818 H 3184.66 -3.65379 -2.12739 0
M  V30 33819 H 3182.38 -7.99822 -1.15372 0
M  V30 33820 H 3185.97 -5.6382 -1.43522 0
M  V30 33821 H 3184.85 -7.78346 -0.956368 0
M  V30 33822 N 3182.35 0.955282 -1.25348 0
M  V30 33823 C 3183.58 1.73198 -1.12632 0
M  V30 33824 C 3183.99 1.86427 0.322715 0
M  V30 33825 O 3183.33 1.36101 1.23378 0
M  V30 33826 C 3183.39 3.16418 -1.70645 0
M  V30 33827 C 3183.06 3.2662 -3.19638 0
M  V30 33828 C 3184.05 3.10983 -4.16636 0
M  V30 33829 C 3181.74 3.50462 -3.59835 0
M  V30 33830 C 3183.73 3.19033 -5.51812 0
M  V30 33831 C 3181.42 3.58149 -4.95149 0
M  V30 33832 C 3182.42 3.42448 -5.90947 0
M  V30 33833 O 3182.11 3.49815 -7.23799 0
M  V30 33834 H 3181.84 0.549555 -0.393656 0
M  V30 33835 H 3184.39 1.20712 -1.66186 0
M  V30 33836 H 3182.62 3.70265 -1.11538 0
M  V30 33837 H 3184.31 3.75944 -1.53039 0
M  V30 33838 H 3185.08 2.92434 -3.8692 0
M  V30 33839 H 3180.96 3.61744 -2.85766 0
M  V30 33840 H 3184.5 3.06696 -6.26565 0
M  V30 33841 H 3180.4 3.76214 -5.24531 0
M  V30 33842 H 3181.16 3.66451 -7.31885 0
M  V30 33843 N 3183.83 1.06924 1.1578 0
M  V30 33844 C 3184.74 0.696988 2.24007 0
M  V30 33845 C 3185.75 -0.289832 1.71569 0
M  V30 33846 O 3186.93 -0.13755 2.0093 0
M  V30 33847 C 3183.99 0.0958504 3.46567 0
M  V30 33848 C 3183.06 1.13535 4.14015 0
M  V30 33849 C 3182.29 0.562806 5.30724 0
M  V30 33850 O 3182.51 -0.62249 5.66993 0
M  V30 33851 O 3181.45 1.30559 5.87569 0
M  V30 33852 H 3185.27 1.59942 2.58171 0
M  V30 33853 H 3182.86 0.84191 1.23419 0
M  V30 33854 H 3184.74 -0.237333 4.20731 0
M  V30 33855 H 3183.41 -0.779972 3.14163 0
M  V30 33856 H 3182.32 1.52082 3.41792 0
M  V30 33857 H 3183.65 1.98292 4.5049 0
M  V30 33858 N 3185.31 -1.32538 0.852723 0
M  V30 33859 C 3186.25 -2.28921 0.293946 0
M  V30 33860 C 3187.22 -1.54962 -0.598 0
M  V30 33861 O 3188.41 -1.83195 -0.533323 0
M  V30 33862 C 3185.55 -3.41261 -0.513301 0
M  V30 33863 C 3184.66 -4.30105 0.404219 0
M  V30 33864 C 3183.8 -5.29573 -0.415471 0
M  V30 33865 C 3182.83 -6.10058 0.499568 0
M  V30 33866 N 3181.97 -7.0153 -0.282825 0
M  V30 33867 H 3186.81 -2.76107 1.12112 0
M  V30 33868 H 3184.35 -1.35846 0.564296 0
M  V30 33869 H 3186.31 -4.05114 -0.996937 0
M  V30 33870 H 3184.94 -2.95231 -1.30532 0
M  V30 33871 H 3183.99 -3.6685 1.00623 0
M  V30 33872 H 3185.3 -4.86371 1.10656 0
M  V30 33873 H 3184.45 -5.99019 -0.962353 0
M  V30 33874 H 3183.19 -4.73919 -1.15119 0
M  V30 33875 H 3182.2 -5.39517 1.05835 0
M  V30 33876 H 3183.42 -6.67797 1.23387 0
M  V30 33877 H 3181.37 -6.48307 -1.00167 0
M  V30 33878 H 3181.29 -7.5514 0.360523 0
M  V30 33879 H 3182.55 -7.75264 -0.811496 0
M  V30 33880 N 3186.78 -0.610474 -1.45296 0
M  V30 33881 C 3188.03 -0.106795 -2.02218 0
M  V30 33882 C 3188.36 1.26374 -1.47851 0
M  V30 33883 O 3187.61 1.84785 -0.644434 0
M  V30 33884 C 3187.91 -0.0205957 -3.57394 0
M  V30 33885 C 3187.58 -1.32717 -4.30926 0
M  V30 33886 C 3186.24 -1.68506 -4.50732 0
M  V30 33887 C 3188.59 -2.19054 -4.72932 0
M  V30 33888 C 3185.92 -2.9038 -5.098 0
M  V30 33889 C 3188.27 -3.40179 -5.33349 0
M  V30 33890 C 3186.94 -3.76217 -5.51377 0
M  V30 33891 H 3186.21 -0.039079 -0.739969 0
M  V30 33892 H 3188.85 -0.792668 -1.74324 0
M  V30 33893 H 3187.16 0.748555 -3.84583 0
M  V30 33894 H 3188.86 0.385316 -3.99144 0
M  V30 33895 H 3185.45 -1.03861 -4.15826 0
M  V30 33896 H 3189.63 -1.92703 -4.57361 0
M  V30 33897 H 3184.89 -3.18404 -5.21947 0
M  V30 33898 H 3189.06 -4.07328 -5.64851 0
M  V30 33899 H 3186.69 -4.70739 -5.96916 0
M  V30 33900 O 3188.3 1.53824 -0.491991 0
M  V30 33901 H 3188.99 1.9368 0.0279712 0
M  V30 END ATOM
M  V30 BEGIN BOND
M  V30 END BOND
M  V30 END CTAB
M  END
$$$$
