drugbank_target|Q06830 Peroxiredoxin-1 (DB01593; DB09130; DB11638; DB14487; DB14533; DB14548)
 OpenBabel12092121033D

  0  0  0     0  0            999 V3000
M  V30 BEGIN CTAB
M  V30 COUNTS 3113 3153 0 0 0
M  V30 BEGIN ATOM
M  V30 1 H -0.908 1.98254 -0.117106 0
M  V30 2 N 0 1.576 0 0
M  V30 3 C 0.933 2.03868 1.02534 0
M  V30 4 C 1.911 0.928543 1.3348 0
M  V30 5 O 3.095 1.19667 1.45644 0
M  V30 6 C 0.222 2.43627 2.35294 0
M  V30 7 C -0.732 3.65373 2.2001 0
M  V30 8 S 0.101 5.13292 1.52614 0
M  V30 9 C 1.257 5.56322 2.86805 0
M  V30 10 H 1.49 2.90518 0.631377 0
M  V30 11 H -0.977 1.52953 0.210867 0
M  V30 12 H 0.981 2.67203 3.11629 0
M  V30 13 H -0.358 1.57376 2.7183 0
M  V30 14 H -1.165 3.90944 3.18086 0
M  V30 15 H -1.563 3.418 1.51819 0
M  V30 16 H 0.729 5.58782 3.83104 0
M  V30 17 H 1.672 6.56266 2.65933 0
M  V30 18 H 2.08 4.83886 2.90714 0
M  V30 19 N 1.4781 -0.272755 1.55222 0
M  V30 20 C 2.7031 -1.02683 1.80197 0
M  V30 21 C 3.1281 -1.79142 0.573551 0
M  V30 22 O 2.4861 -1.74917 -0.476849 0
M  V30 23 C 2.5341 -1.9609 3.02624 0
M  V30 24 O 1.6381 -3.04863 2.77727 0
M  V30 25 H 0.9791 -0.293557 0.595584 0
M  V30 26 H 3.5091 -0.30159 2.02365 0
M  V30 27 H 3.5191 -2.38039 3.31363 0
M  V30 28 H 2.1941 -1.39851 3.91682 0
M  V30 29 H 0.7711 -2.67228 2.60084 0
M  V30 30 N 2.9562 -1.48159 -0.537278 0
M  V30 31 C 4.1812 -1.59707 -1.32319 0
M  V30 32 C 4.6062 -0.254859 -1.86365 0
M  V30 33 O 3.9642 0.772378 -1.64024 0
M  V30 34 C 4.0122 -2.6412 -2.45505 0
M  V30 35 O 3.1162 -2.20774 -3.48328 0
M  V30 36 H 2.4572 -0.535791 -0.392204 0
M  V30 37 H 4.9872 -1.94092 -0.647268 0
M  V30 38 H 4.9972 -2.85166 -2.91795 0
M  V30 39 H 3.6722 -3.61567 -2.05528 0
M  V30 40 H 2.2492 -2.09911 -3.08207 0
M  V30 41 N 4.4343 0.785586 -1.36625 0
M  V30 42 C 5.6823 1.54057 -1.30808 0
M  V30 43 C 6.0033 1.94683 0.111157 0
M  V30 44 O 5.2733 1.65241 1.05224 0
M  V30 45 H 3.8533 0.571354 -0.481211 0
M  V30 46 H 6.5153 0.935821 -1.70963 0
M  V30 47 H 5.6113 2.44637 -1.93801 0
M  V30 48 N 5.9124 1.20967 1.01018 0
M  V30 49 C 6.8604 0.961223 2.1181 0
M  V30 50 C 7.8544 -0.0897034 1.69162 0
M  V30 51 O 9.0604 0.0612271 1.79896 0
M  V30 52 H 5.4354 0.29355 0.692338 0
M  V30 53 H 7.4064 1.90178 2.29946 0
M  V30 54 C 6.1554 0.536854 3.4353 0
M  V30 55 H 5.4784 1.33713 3.76777 0
M  V30 56 H 6.9184 0.402286 4.22087 0
M  V30 57 C 5.3774 -0.751574 3.2841 0
M  V30 58 O 5.9074 -1.80841 3.58691 0
M  V30 59 N 4.1134 -0.716079 2.81639 0
M  V30 60 H 3.6604 0.144236 2.57196 0
M  V30 61 H 3.6184 -1.57847 2.71904 0
M  V30 62 N 7.3905 -1.2043 1.01659 0
M  V30 63 C 8.3535 -2.21433 0.591616 0
M  V30 64 C 9.3535 -1.57203 -0.338226 0
M  V30 65 O 10.5435 -1.73737 -0.126918 0
M  V30 66 C 7.6755 -3.40628 -0.136058 0
M  V30 67 H 8.8685 -2.60545 1.48514 0
M  V30 68 H 6.4215 -1.33893 0.806379 0
M  V30 69 H 7.1565 -3.07019 -1.04449 0
M  V30 70 H 6.9415 -3.88475 0.531917 0
M  V30 71 H 8.4315 -4.15475 -0.420735 0
M  V30 72 N 8.8686 -0.792821 -1.36206 0
M  V30 73 C 9.8156 -0.191653 -2.30003 0
M  V30 74 C 10.7856 0.666453 -1.52143 0
M  V30 75 O 11.9706 0.61442 -1.80636 0
M  V30 76 C 9.1106 0.664848 -3.38635 0
M  V30 77 C 8.2236 -0.212175 -4.31479 0
M  V30 78 C 7.3586 0.651022 -5.27196 0
M  V30 79 C 6.3976 -0.227247 -6.11678 0
M  V30 80 N 5.5346 0.595127 -6.99573 0
M  V30 81 H 10.3746 -0.996978 -2.80828 0
M  V30 82 H 7.9116 -0.503206 -1.38225 0
M  V30 83 H 9.8696 1.17645 -4.00269 0
M  V30 84 H 8.4996 1.43557 -2.89122 0
M  V30 85 H 7.5516 -0.841777 -3.70969 0
M  V30 86 H 8.8636 -0.888751 -4.90818 0
M  V30 87 H 8.0176 1.2283 -5.94136 0
M  V30 88 H 6.7566 1.36121 -4.68319 0
M  V30 89 H 5.7616 -0.816904 -5.43697 0
M  V30 90 H 6.9866 -0.93509 -6.72631 0
M  V30 91 H 4.9326 1.28955 -6.432 0
M  V30 92 H 4.8496 -0.0236952 -7.55996 0
M  V30 93 H 6.1176 1.15613 -7.70879 0
M  V30 94 N 10.3467 1.47872 -0.545128 0
M  V30 95 C 11.5957 2.01695 -0.0145033 0
M  V30 96 C 11.9087 1.42609 1.33873 0
M  V30 97 O 13.1147 1.88021 1.95858 0
M  V30 98 C 11.5707 3.59892 0.0245068 0
M  V30 99 C 11.1787 4.27966 -1.32475 0
M  V30 100 C 12.9227 4.21507 0.50316 0
M  V30 101 C 10.8297 5.78136 -1.2455 0
M  V30 102 H 9.7597 0.753998 -0.00165172 0
M  V30 103 H 12.4107 1.69985 -0.691175 0
M  V30 104 H 10.7927 3.88509 0.766575 0
M  V30 105 H 11.9667 4.11003 -2.08357 0
M  V30 106 H 10.2817 3.78286 -1.74036 0
M  V30 107 H 12.8787 5.31538 0.580656 0
M  V30 108 H 13.2217 3.87855 1.51243 0
M  V30 109 H 13.7547 3.97376 -0.183681 0
M  V30 110 H 10.4937 6.16388 -2.23039 0
M  V30 111 H 10.0137 5.97469 -0.528282 0
M  V30 112 H 11.6927 6.40099 -0.942488 0
M  V30 113 N 11.8248 0.280983 1.55075 0
M  V30 114 C 13.0728 -0.333455 1.9933 0
M  V30 115 C 13.3938 -1.55937 1.17085 0
M  V30 116 O 12.6638 -1.94143 0.261805 0
M  V30 117 H 11.2438 -0.126197 0.736263 0
M  V30 118 H 13.9058 0.387678 1.91005 0
M  V30 119 H 13.0018 -0.619292 3.05894 0
M  V30 120 N 13.3029 -1.57598 0.00835791 0
M  V30 121 C 14.2529 -2.05431 -0.989045 0
M  V30 122 C 15.2369 -0.950662 -1.29812 0
M  V30 123 O 16.4289 -1.21438 -1.28771 0
M  V30 124 C 13.5579 -2.56801 -2.27833 0
M  V30 125 C 12.6439 -3.74058 -1.99853 0
M  V30 126 N 13.0349 -4.8544 -1.42062 0
M  V30 127 C 11.3329 -3.82148 -2.29953 0
M  V30 128 C 12.0339 -5.66817 -1.30743 0
M  V30 129 N 11.0099 -5.13077 -1.7959 0
M  V30 130 H 14.8119 -2.88955 -0.536853 0
M  V30 131 H 12.3259 -1.61199 -0.197148 0
M  V30 132 H 14.3229 -2.89349 -3.00137 0
M  V30 133 H 12.9829 -1.74699 -2.73698 0
M  V30 134 H 13.9939 -5.0612 -1.09833 0
M  V30 135 H 10.6709 -3.10916 -2.78635 0
M  V30 136 H 12.0609 -6.66343 -0.862328 0
M  V30 137 N 14.781 0.264519 -1.55364 0
M  V30 138 C 16.192 0.834936 -1.6699 0
M  V30 139 C 16.543 1.86718 -0.602552 0
M  V30 140 O 15.668 2.14899 0.254425 0
M  V30 141 C 16.263 1.5212 -3.02729 0
M  V30 142 C 14.822 2.03954 -3.16354 0
M  V30 143 C 13.969 0.884498 -2.62815 0
M  V30 144 H 16.92 0.0406869 -1.58648 0
M  V30 145 H 16.941 2.38853 -2.96191 0
M  V30 146 H 16.453 0.769668 -3.80392 0
M  V30 147 H 14.554 2.82041 -2.43482 0
M  V30 148 H 14.667 2.24902 -4.23032 0
M  V30 149 H 13.031 1.2802 -2.20188 0
M  V30 150 H 13.814 0.14634 -3.42988 0
M  V30 151 N 16.2591 1.48442 0.529413 0
M  V30 152 C 17.2221 1.62524 1.61612 0
M  V30 153 C 18.2221 0.498509 1.52877 0
M  V30 154 O 19.4121 0.76431 1.56537 0
M  V30 155 C 16.5441 1.59597 3.01233 0
M  V30 156 H 17.7371 2.59423 1.50465 0
M  V30 157 H 15.2901 1.37047 0.751514 0
M  V30 158 H 16.0251 0.641781 3.17886 0
M  V30 159 H 15.8101 2.41397 3.08982 0
M  V30 160 H 17.3001 1.72646 3.80241 0
M  V30 161 N 17.7372 -0.778329 1.37039 0
M  V30 162 C 19.1482 -1.35421 1.28523 0
M  V30 163 C 19.4992 -1.96075 -0.0700901 0
M  V30 164 O 18.6242 -1.93352 -0.971801 0
M  V30 165 C 19.2192 -2.46211 2.32735 0
M  V30 166 C 17.7782 -2.99585 2.27873 0
M  V30 167 C 16.9252 -1.72748 2.16918 0
M  V30 168 H 19.8762 -0.5791 1.47757 0
M  V30 169 H 19.8972 -3.2552 1.9702 0
M  V30 170 H 19.4092 -2.02036 3.31365 0
M  V30 171 H 17.5102 -3.48152 1.32745 0
M  V30 172 H 17.6232 -3.55646 3.21018 0
M  V30 173 H 15.9872 -1.95416 1.63354 0
M  V30 174 H 16.7702 -1.30686 3.17452 0
M  V30 175 N 19.2153 -1.21501 -1.00376 0
M  V30 176 C 20.1633 -0.972442 -2.11297 0
M  V30 177 C 21.1573 0.080731 -1.69208 0
M  V30 178 O 22.3633 -0.0707666 -1.79861 0
M  V30 179 H 18.7383 -0.297218 -0.690772 0
M  V30 180 H 20.7093 -1.91394 -2.28934 0
M  V30 181 C 19.4583 -0.555065 -3.43241 0
M  V30 182 H 18.7813 -1.35709 -3.76062 0
M  V30 183 H 20.2213 -0.424664 -4.21868 0
M  V30 184 C 18.6803 0.734147 -3.28804 0
M  V30 185 O 19.2103 1.78937 -3.59645 0
M  V30 186 N 17.4163 0.701133 -2.82015 0
M  V30 187 H 16.9633 -0.157874 -2.57116 0
M  V30 188 H 16.9213 1.56403 -2.72737 0
M  V30 189 N 20.6934 1.19889 -1.02296 0
M  V30 190 C 21.9404 1.8942 -0.715972 0
M  V30 191 C 22.2684 1.79251 0.754944 0
M  V30 192 O 21.5234 1.17526 1.56481 0
M  V30 193 C 21.8224 3.39883 -1.10518 0
M  V30 194 C 21.4884 3.70254 -2.57337 0
M  V30 195 C 20.1504 3.78254 -2.97452 0
M  V30 196 C 22.5024 3.84052 -3.52354 0
M  V30 197 C 19.8304 3.97514 -4.31509 0
M  V30 198 C 22.1824 4.04824 -4.86108 0
M  V30 199 C 20.8464 4.11054 -5.25919 0
M  V30 200 H 20.1164 0.693138 -0.261993 0
M  V30 201 H 22.7634 1.42012 -1.28472 0
M  V30 202 H 21.0684 3.8915 -0.454953 0
M  V30 203 H 22.7654 3.9199 -0.845261 0
M  V30 204 H 19.3554 3.64632 -2.25258 0
M  V30 205 H 23.5394 3.77221 -3.22518 0
M  V30 206 H 18.7954 4.00574 -4.61898 0
M  V30 207 H 22.9694 4.14442 -5.59653 0
M  V30 208 H 20.5964 4.2573 -6.29808 0
M  V30 209 N 22.1715 0.800033 1.35784 0
M  V30 210 C 23.1185 0.203848 2.29898 0
M  V30 211 C 24.0885 -0.658375 1.52495 0
M  V30 212 O 25.2735 -0.604832 1.8096 0
M  V30 213 C 22.4135 -0.64688 3.38983 0
M  V30 214 C 21.5265 0.235054 4.3136 0
M  V30 215 C 20.6615 -0.623054 5.27533 0
M  V30 216 C 19.7005 0.259682 6.11549 0
M  V30 217 N 18.8375 -0.558019 6.99879 0
M  V30 218 H 23.6775 1.01186 2.80295 0
M  V30 219 H 21.2145 0.51053 1.37957 0
M  V30 220 H 23.1725 -1.15521 4.00887 0
M  V30 221 H 21.8025 -1.42021 2.89879 0
M  V30 222 H 20.8545 0.861438 3.70518 0
M  V30 223 H 22.1665 0.914768 4.9034 0
M  V30 224 H 21.3205 -1.19678 5.94779 0
M  V30 225 H 20.0595 -1.33636 4.69034 0
M  V30 226 H 19.0645 0.845726 5.43256 0
M  V30 227 H 20.2895 0.970748 6.72126 0
M  V30 228 H 18.2355 -1.25542 6.43875 0
M  V30 229 H 18.1525 0.0637872 7.55973 0
M  V30 230 H 19.4205 -1.11523 7.71481 0
M  V30 231 N 23.6496 -1.47581 0.552962 0
M  V30 232 C 24.6126 -2.28439 -0.186605 0
M  V30 233 C 25.6126 -1.36706 -0.84665 0
M  V30 234 O 26.8026 -1.59378 -0.703164 0
M  V30 235 C 23.9346 -3.16264 -1.2724 0
M  V30 236 H 25.1276 -2.95294 0.523609 0
M  V30 237 H 22.6806 -1.532 0.309745 0
M  V30 238 H 23.4156 -2.54091 -2.01514 0
M  V30 239 H 23.2006 -3.83769 -0.803968 0
M  V30 240 H 24.6906 -3.77198 -1.79196 0
M  V30 241 N 25.1277 -0.289203 -1.54924 0
M  V30 242 C 26.3557 0.326463 -2.04308 0
M  V30 243 C 26.7707 1.48413 -1.16701 0
M  V30 244 O 26.1277 1.81507 -0.190087 0
M  V30 245 C 26.1787 0.794014 -3.52672 0
M  V30 246 O 25.8997 -0.317564 -4.36948 0
M  V30 247 C 27.4007 1.47605 -4.18004 0
M  V30 248 H 24.6207 0.0726272 -0.667058 0
M  V30 249 H 27.1647 -0.425401 -2.00026 0
M  V30 250 H 25.3197 1.49593 -3.57352 0
M  V30 251 H 25.7337 0.0443186 -5.24481 0
M  V30 252 H 27.2077 1.75447 -5.23376 0
M  V30 253 H 27.6847 2.41224 -3.67025 0
M  V30 254 H 28.2907 0.81762 -4.17367 0
M  V30 255 N 26.6058 1.57591 -0.0167156 0
M  V30 256 C 27.5688 2.08393 0.954204 0
M  V30 257 C 28.5688 0.996531 1.26198 0
M  V30 258 O 29.7588 1.25858 1.20438 0
M  V30 259 C 26.8908 2.5394 2.27436 0
M  V30 260 H 28.0838 2.95455 0.514451 0
M  V30 261 H 25.6368 1.54582 0.231089 0
M  V30 262 H 26.3718 1.70171 2.76066 0
M  V30 263 H 26.1568 3.33371 2.06412 0
M  V30 264 H 27.6468 2.93512 2.97053 0
M  V30 265 N 28.0839 -0.256276 1.55502 0
M  V30 266 C 29.3299 -0.987079 1.77157 0
M  V30 267 C 29.6629 -1.85327 0.580315 0
M  V30 268 O 28.9379 -1.89874 -0.421686 0
M  V30 269 C 29.2209 -1.85553 3.08613 0
M  V30 270 C 29.0739 -1.01816 4.38125 0
M  V30 271 C 30.3929 -2.8397 3.36228 0
M  V30 272 H 27.5119 -0.357428 0.644526 0
M  V30 273 H 30.1539 -0.258239 1.88237 0
M  V30 274 H 28.3039 -2.47695 2.99298 0
M  V30 275 H 29.9759 -0.416159 4.59419 0
M  V30 276 H 28.2189 -0.322178 4.32602 0
M  V30 277 H 28.8899 -1.65939 5.26468 0
M  V30 278 H 31.3659 -2.31964 3.45445 0
M  V30 279 H 30.2419 -3.41864 4.29442 0
M  V30 280 H 30.5029 -3.59955 2.56681 0
M  V30 281 N 29.562 -1.4872 -0.521534 0
M  V30 282 C 30.495 -1.58451 -1.64221 0
M  V30 283 C 31.473 -0.434513 -1.56687 0
M  V30 284 O 32.657 -0.647275 -1.77038 0
M  V30 285 C 29.784 -1.52037 -3.02659 0
M  V30 286 C 28.83 -2.71981 -3.28525 0
M  V30 287 S 29.663 -4.33869 -3.13876 0
M  V30 288 C 30.819 -4.30067 -4.54745 0
M  V30 289 H 31.052 -2.53256 -1.55719 0
M  V30 290 H 28.585 -1.37358 -0.705143 0
M  V30 291 H 30.543 -1.49023 -3.82495 0
M  V30 292 H 29.204 -0.585541 -3.08594 0
M  V30 293 H 28.397 -2.63656 -4.29536 0
M  V30 294 H 27.999 -2.72302 -2.56374 0
M  V30 295 H 30.291 -4.00521 -5.46433 0
M  V30 296 H 31.234 -5.31287 -4.68123 0
M  V30 297 H 31.642 -3.60419 -4.34463 0
M  V30 298 N 31.0401 0.771051 -1.3745 0
M  V30 299 C 32.4511 1.34737 -1.29239 0
M  V30 300 C 32.8021 1.96109 0.0596908 0
M  V30 301 O 31.9271 1.93865 0.961534 0
M  V30 302 C 32.5221 2.44973 -2.34037 0
M  V30 303 C 31.0811 2.98372 -2.29458 0
M  V30 304 C 30.2281 1.71595 -2.17831 0
M  V30 305 H 33.1791 0.571256 -1.48062 0
M  V30 306 H 33.2001 3.24471 -1.98744 0
M  V30 307 H 32.7121 2.00276 -3.32432 0
M  V30 308 H 30.8131 3.47443 -1.34589 0
M  V30 309 H 30.9261 3.53939 -3.229 0
M  V30 310 H 29.2901 1.94547 -1.64388 0
M  V30 311 H 30.0731 1.29001 -3.18141 0
M  V30 312 N 32.5182 1.22032 0.997298 0
M  V30 313 C 33.7952 0.950823 1.70935 0
M  V30 314 C 34.1752 -0.535292 2.042 0
M  V30 315 O 33.5232 -1.50217 1.72183 0
M  V30 316 C 33.7332 1.84386 2.96315 0
M  V30 317 C 35.0812 2.09732 3.69185 0
M  V30 318 O 36.1052 1.81798 3.06314 0
M  V30 319 O 34.9642 2.57018 4.82291 0
M  V30 320 H 32.0582 0.357204 0.745878 0
M  V30 321 H 34.6042 1.32997 1.05404 0
M  V30 322 H 33.3762 2.84928 2.68201 0
M  V30 323 H 32.9992 1.46602 3.69586 0
M  V30 324 N 33.9963 -1.19345 1.0293 0
M  V30 325 C 35.2443 -1.88665 0.724574 0
M  V30 326 C 35.5653 -1.80036 -0.749144 0
M  V30 327 O 34.8353 -1.2111 -1.53978 0
M  V30 328 H 33.4153 -0.698406 0.265025 0
M  V30 329 H 36.0773 -1.44885 1.30362 0
M  V30 330 H 35.1733 -2.94987 1.01926 0
M  V30 331 N 35.4744 -0.807222 -1.35358 0
M  V30 332 C 36.4064 -0.175717 -2.28525 0
M  V30 333 C 37.4194 0.625354 -1.5031 0
M  V30 334 O 38.6084 0.457611 -1.72535 0
M  V30 335 C 35.7084 0.773471 -3.29956 0
M  V30 336 C 34.8814 0.0186296 -4.37396 0
M  V30 337 C 33.9404 0.886395 -5.18681 0
M  V30 338 O 32.9664 0.337106 -5.68201 0
M  V30 339 N 34.1684 2.20839 -5.36852 0
M  V30 340 H 36.9334 -0.976091 -2.83359 0
M  V30 341 H 34.4944 -0.662737 -1.47714 0
M  V30 342 H 36.4864 1.35824 -3.81227 0
M  V30 343 H 35.0564 1.47465 -2.75632 0
M  V30 344 H 34.2764 -0.747349 -3.87051 0
M  V30 345 H 35.5644 -0.501577 -5.06322 0
M  V30 346 H 34.9624 2.67858 -4.98265 0
M  V30 347 H 33.5194 2.74237 -5.91301 0
M  V30 348 N 36.9525 1.47285 -0.560781 0
M  V30 349 C 38.1995 2.02464 -0.038062 0
M  V30 350 C 38.5275 1.43474 1.31322 0
M  V30 351 O 37.7825 0.581311 1.86867 0
M  V30 352 C 38.0815 3.57258 0.100784 0
M  V30 353 C 37.7475 4.35184 -1.18007 0
M  V30 354 C 36.4095 4.56194 -1.53103 0
M  V30 355 C 38.7615 4.80098 -2.02867 0
M  V30 356 C 36.0895 5.19367 -2.729 0
M  V30 357 C 38.4415 5.44593 -3.21871 0
M  V30 358 C 37.1055 5.63835 -3.57276 0
M  V30 359 H 36.3755 0.740869 -0.0139279 0
M  V30 360 H 39.0225 1.76916 -0.733012 0
M  V30 361 H 37.3275 3.81819 0.878724 0
M  V30 362 H 39.0245 3.97606 0.520639 0
M  V30 363 H 35.6145 4.19113 -0.8968 0
M  V30 364 H 39.7985 4.63642 -1.7706 0
M  V30 365 H 35.0545 5.32459 -3.00496 0
M  V30 366 H 39.2285 5.78358 -3.87911 0
M  V30 367 H 36.8555 6.12557 -4.50197 0
M  V30 368 N 38.4306 0.297415 1.54768 0
M  V30 369 C 39.3776 -0.580276 2.23386 0
M  V30 370 C 40.3476 -1.13238 1.21517 0
M  V30 371 O 41.5326 -1.17757 1.50126 0
M  V30 372 C 38.6726 -1.74801 2.97555 0
M  V30 373 C 37.7856 -1.22764 4.1419 0
M  V30 374 C 36.9206 -2.35895 4.75949 0
M  V30 375 C 35.9596 -1.80974 5.84735 0
M  V30 376 N 35.0966 -2.87664 6.40464 0
M  V30 377 H 39.9366 0.0114833 2.97998 0
M  V30 378 H 37.4736 0.0174361 1.4709 0
M  V30 379 H 39.4316 -2.43475 3.38786 0
M  V30 380 H 38.0616 -2.31145 2.25326 0
M  V30 381 H 37.1136 -0.433271 3.77924 0
M  V30 382 H 38.4256 -0.785551 4.92575 0
M  V30 383 H 37.5796 -3.12523 5.20014 0
M  V30 384 H 36.3186 -2.83429 3.96887 0
M  V30 385 H 35.3236 -1.02834 5.40097 0
M  V30 386 H 36.5486 -1.34348 6.65678 0
M  V30 387 H 34.4946 -3.34538 5.64287 0
M  V30 388 H 34.4116 -2.4794 7.14186 0
M  V30 389 H 35.6796 -3.642 6.89187 0
M  V30 390 N 39.9087 -1.5758 0.0250728 0
M  V30 391 C 41.1857 -1.82917 -0.692873 0
M  V30 392 C 41.5657 -0.908137 -1.90568 0
M  V30 393 O 40.9137 0.0372298 -2.2847 0
M  V30 394 C 41.1237 -3.32034 -1.07492 0
M  V30 395 C 42.4717 -3.98406 -1.46826 0
M  V30 396 O 43.4957 -3.36505 -1.16801 0
M  V30 397 O 42.3547 -5.07497 -2.02754 0
M  V30 398 H 39.4487 -0.754079 -0.33955 0
M  V30 399 H 41.9947 -1.69619 0.0524456 0
M  V30 400 H 40.7667 -3.90728 -0.211552 0
M  V30 401 H 40.3897 -3.50424 -1.87854 0
M  V30 402 N 41.3868 0.248026 -1.55636 0
M  V30 403 C 42.6358 0.974134 -1.76617 0
M  V30 404 C 42.9488 1.86528 -0.588796 0
M  V30 405 O 44.1548 2.62805 -0.681594 0
M  V30 406 C 42.6108 1.78213 -3.12679 0
M  V30 407 C 42.2188 0.93843 -4.38061 0
M  V30 408 C 43.9628 2.50104 -3.42999 0
M  V30 409 C 41.8698 1.74225 -5.65155 0
M  V30 410 H 40.7998 0.36745 -0.658405 0
M  V30 411 H 43.4508 0.22884 -1.82067 0
M  V30 412 H 41.8328 2.56933 -3.01333 0
M  V30 413 H 43.0068 0.193635 -4.60393 0
M  V30 414 H 41.3218 0.332905 -4.15067 0
M  V30 415 H 43.9188 3.10694 -4.3517 0
M  V30 416 H 44.2618 3.21662 -2.64271 0
M  V30 417 H 44.7948 1.78395 -3.55556 0
M  V30 418 H 41.5338 1.07043 -6.46701 0
M  V30 419 H 41.0538 2.46235 -5.46926 0
M  V30 420 H 42.7328 2.30967 -6.0437 0
M  V30 421 N 42.8649 1.48995 0.513639 0
M  V30 422 C 44.0899 1.61792 1.29762 0
M  V30 423 C 44.5149 0.284475 1.85936 0
M  V30 424 O 43.8729 -0.746185 1.65232 0
M  V30 425 C 43.9209 2.67993 2.41272 0
M  V30 426 O 43.0249 2.26287 3.44772 0
M  V30 427 H 42.3659 0.541963 0.38363 0
M  V30 428 H 44.8959 1.95097 0.616307 0
M  V30 429 H 44.9059 2.89772 2.87221 0
M  V30 430 H 43.5809 3.64791 1.9975 0
M  V30 431 H 42.1579 2.14788 3.04829 0
M  V30 432 N 44.343 -0.763751 1.37857 0
M  V30 433 C 45.273 -1.89103 1.36975 0
M  V30 434 C 46.254 -1.68439 0.237152 0
M  V30 435 O 47.439 -1.8918 0.438713 0
M  V30 436 C 44.569 -3.26496 1.18395 0
M  V30 437 C 43.523 -3.61741 2.28751 0
M  V30 438 C 42.849 -4.97762 1.95286 0
M  V30 439 C 44.149 -3.67665 3.70972 0
M  V30 440 H 45.843 -1.90099 2.31307 0
M  V30 441 H 43.389 -0.91319 1.11341 0
M  V30 442 H 45.342 -4.05003 1.16406 0
M  V30 443 H 44.066 -3.25955 0.205215 0
M  V30 444 H 42.725 -2.85547 2.29909 0
M  V30 445 H 42.373 -4.93769 0.959221 0
M  V30 446 H 42.073 -5.22313 2.69189 0
M  V30 447 H 43.597 -5.7866 1.94898 0
M  V30 448 H 45.011 -4.36307 3.719 0
M  V30 449 H 43.408 -4.03718 4.43995 0
M  V30 450 H 44.478 -2.68134 4.0402 0
M  V30 451 N 45.8211 -1.22559 -0.990812 0
M  V30 452 C 47.0461 -1.07862 -1.77145 0
M  V30 453 C 47.4711 0.366447 -1.84496 0
M  V30 454 O 46.8291 1.26478 -1.29896 0
M  V30 455 C 46.8771 -1.69686 -3.18181 0
M  V30 456 O 45.9811 -0.951946 -4.01263 0
M  V30 457 H 45.3221 -0.378712 -0.545411 0
M  V30 458 H 47.8521 -1.62399 -1.2445 0
M  V30 459 H 47.8621 -1.74496 -3.68802 0
M  V30 460 H 46.5371 -2.74841 -3.12146 0
M  V30 461 H 45.1141 -0.980011 -3.59792 0
M  V30 462 N 47.2992 1.18797 -1.03562 0
M  V30 463 C 48.5762 1.84469 -0.650434 0
M  V30 464 C 48.9562 1.92319 0.870433 0
M  V30 465 O 48.3042 1.44528 1.76986 0
M  V30 466 C 48.5142 3.2306 -1.32036 0
M  V30 467 C 49.8622 3.9915 -1.44792 0
M  V30 468 O 50.8862 3.32481 -1.27806 0
M  V30 469 O 49.7452 5.18587 -1.72423 0
M  V30 470 H 46.8392 0.795251 -0.226946 0
M  V30 471 H 49.3852 1.26231 -1.13419 0
M  V30 472 H 48.1572 3.1222 -2.3587 0
M  V30 473 H 47.7802 3.88949 -0.8249 0
M  V30 474 N 48.7773 0.814389 1.34928 0
M  V30 475 C 50.0073 0.41054 2.0248 0
M  V30 476 C 50.4153 -0.985625 1.61499 0
M  V30 477 O 49.7583 -1.64781 0.811976 0
M  V30 478 C 49.8203 0.423384 3.56998 0
M  V30 479 C 49.4843 1.77141 4.21272 0
M  V30 480 C 50.4813 2.73093 4.42398 0
M  V30 481 C 48.1663 2.05755 4.58225 0
M  V30 482 C 50.1603 3.95838 4.9959 0
M  V30 483 C 47.8473 3.28762 5.1513 0
M  V30 484 C 48.8453 4.23621 5.35755 0
M  V30 485 O 48.5333 5.44456 5.91458 0
M  V30 486 H 48.2653 0.163997 0.655806 0
M  V30 487 H 50.8193 1.10155 1.73364 0
M  V30 488 H 49.0493 -0.324276 3.85338 0
M  V30 489 H 50.7383 0.0407683 4.0588 0
M  V30 490 H 51.5043 2.5228 4.14222 0
M  V30 491 H 47.3833 1.32727 4.4148 0
M  V30 492 H 50.9273 4.69891 5.15605 0
M  V30 493 H 46.8243 3.49443 5.42734 0
M  V30 494 H 47.5923 5.4586 6.09901 0
M  V30 495 N 50.2554 -1.46986 0.568584 0
M  V30 496 C 51.2024 -2.30153 -0.172707 0
M  V30 497 C 52.1724 -1.39759 -0.897586 0
M  V30 498 O 53.3574 -1.68716 -0.891044 0
M  V30 499 C 50.4974 -3.23952 -1.1895 0
M  V30 500 C 49.6104 -4.29441 -0.469517 0
M  V30 501 C 48.7454 -5.1038 -1.47259 0
M  V30 502 C 47.7844 -6.07632 -0.738225 0
M  V30 503 N 46.9214 -6.8149 -1.68868 0
M  V30 504 H 51.7614 -2.93019 0.542596 0
M  V30 505 H 49.2984 -1.44422 0.279401 0
M  V30 506 H 51.2564 -3.76767 -1.79173 0
M  V30 507 H 49.8864 -2.62926 -1.87269 0
M  V30 508 H 48.9384 -3.79594 0.247467 0
M  V30 509 H 50.2504 -4.98689 0.105241 0
M  V30 510 H 49.4044 -5.67402 -2.14803 0
M  V30 511 H 48.1434 -4.4106 -2.08128 0
M  V30 512 H 47.1484 -5.49778 -0.0489293 0
M  V30 513 H 48.3734 -6.78966 -0.135129 0
M  V30 514 H 46.3194 -6.14891 -2.28573 0
M  V30 515 H 46.2364 -7.46948 -1.16636 0
M  V30 516 H 47.5044 -7.43078 -2.3549 0
M  V30 517 N 51.7335 -0.305618 -1.54608 0
M  V30 518 C 52.9815 0.301701 -1.99835 0
M  V30 519 C 53.3025 1.54054 -1.19551 0
M  V30 520 O 52.5725 1.93702 -0.292658 0
M  V30 521 H 51.1525 0.114468 -0.738178 0
M  V30 522 H 53.8145 -0.418016 -1.90364 0
M  V30 523 H 52.9105 0.570548 -3.06841 0
M  V30 524 N 53.2116 1.57565 -0.0334293 0
M  V30 525 C 54.1586 2.10478 0.946981 0
M  V30 526 C 55.1286 1.00787 1.32027 0
M  V30 527 O 56.3136 1.28232 1.41284 0
M  V30 528 C 53.4536 2.63994 2.22263 0
M  V30 529 C 52.5666 3.87709 1.90541 0
M  V30 530 C 51.7016 4.29604 3.12433 0
M  V30 531 C 50.7406 5.46065 2.76549 0
M  V30 532 N 49.8776 5.83096 3.9108 0
M  V30 533 H 54.7176 2.93963 0.488846 0
M  V30 534 H 52.2546 1.45296 0.22969 0
M  V30 535 H 54.2126 2.93114 2.96884 0
M  V30 536 H 52.8426 1.83333 2.65685 0
M  V30 537 H 51.8946 3.65291 1.06144 0
M  V30 538 H 53.2066 4.72403 1.60116 0
M  V30 539 H 52.3606 4.60182 3.9537 0
M  V30 540 H 51.0996 3.43685 3.46023 0
M  V30 541 H 50.1046 5.15176 1.92026 0
M  V30 542 H 51.3296 6.33685 2.44171 0
M  V30 543 H 49.2756 5.00132 4.24504 0
M  V30 544 H 49.1926 6.6244 3.64293 0
M  V30 545 H 50.4606 6.18282 4.74708 0
M  V30 546 N 54.6897 -0.239769 1.55765 0
M  V30 547 C 55.9197 -0.982743 1.8173 0
M  V30 548 C 56.3277 -1.7917 0.607835 0
M  V30 549 O 55.6707 -1.78525 -0.432973 0
M  V30 550 C 55.7327 -1.96332 3.01155 0
M  V30 551 C 55.3967 -1.34062 4.36894 0
M  V30 552 C 56.3937 -0.739539 5.14613 0
M  V30 553 C 54.0787 -1.35784 4.83599 0
M  V30 554 C 56.0727 -0.163989 6.37189 0
M  V30 555 C 53.7597 -0.778441 6.06122 0
M  V30 556 C 54.7577 -0.182548 6.82756 0
M  V30 557 O 54.4457 0.387887 8.02964 0
M  V30 558 H 54.1777 -0.294481 0.608487 0
M  V30 559 H 56.7317 -0.26572 2.03674 0
M  V30 560 H 54.9617 -2.71884 2.74984 0
M  V30 561 H 56.6507 -2.57032 3.14149 0
M  V30 562 H 57.4167 -0.718687 4.79646 0
M  V30 563 H 53.2957 -1.81105 4.23936 0
M  V30 564 H 56.8397 0.301753 6.96947 0
M  V30 565 H 52.7367 -0.796645 6.40565 0
M  V30 566 H 53.5047 0.28044 8.18019 0
M  V30 567 N 56.1678 -1.49265 -0.50573 0
M  V30 568 C 57.4138 -1.58748 -1.26202 0
M  V30 569 C 57.7468 -0.271227 -1.92297 0
M  V30 570 O 57.0218 0.724831 -1.80489 0
M  V30 571 C 57.3048 -2.74332 -2.33268 0
M  V30 572 C 57.1578 -4.15737 -1.71705 0
M  V30 573 C 58.4768 -2.85576 -3.34865 0
M  V30 574 H 55.5958 -0.577826 -0.457478 0
M  V30 575 H 58.2378 -1.81532 -0.560897 0
M  V30 576 H 56.3878 -2.55036 -2.93068 0
M  V30 577 H 58.0598 -4.46537 -1.15769 0
M  V30 578 H 56.3028 -4.21605 -1.02135 0
M  V30 579 H 56.9738 -4.92477 -2.49341 0
M  V30 580 H 59.4498 -3.03127 -2.8505 0
M  V30 581 H 58.3258 -3.68135 -4.07146 0
M  V30 582 H 58.5868 -1.94732 -3.96903 0
M  V30 583 N 57.6459 0.756429 -1.3826 0
M  V30 584 C 58.8919 1.51772 -1.34511 0
M  V30 585 C 59.2249 1.94089 0.0656691 0
M  V30 586 O 58.4999 1.65221 1.02626 0
M  V30 587 C 58.7829 2.77226 -2.29821 0
M  V30 588 C 58.6359 2.41065 -3.79747 0
M  V30 589 C 59.9549 3.79236 -2.23312 0
M  V30 590 H 57.0739 0.550578 -0.489931 0
M  V30 591 H 59.7159 0.866607 -1.69086 0
M  V30 592 H 57.8659 3.32784 -2.00467 0
M  V30 593 H 59.5379 1.91303 -4.19763 0
M  V30 594 H 57.7809 1.7356 -3.97567 0
M  V30 595 H 58.4519 3.3081 -4.41892 0
M  V30 596 H 60.9279 3.3321 -2.49219 0
M  V30 597 H 59.8039 4.64714 -2.92116 0
M  V30 598 H 60.0649 4.24615 -1.23102 0
M  V30 599 N 59.124 1.23083 0.984299 0
M  V30 600 C 60.371 1.06057 1.72505 0
M  V30 601 C 60.699 -0.403105 1.90277 0
M  V30 602 O 59.954 -1.3149 1.44944 0
M  V30 603 C 60.253 1.72673 3.1292 0
M  V30 604 C 59.919 3.22586 3.15038 0
M  V30 605 C 58.581 3.63489 3.15324 0
M  V30 606 C 60.933 4.185 3.10657 0
M  V30 607 C 58.261 4.98772 3.08939 0
M  V30 608 C 60.613 5.53769 3.05814 0
M  V30 609 C 59.277 5.94041 3.04419 0
M  V30 610 H 58.547 0.388091 0.631242 0
M  V30 611 H 61.194 1.52963 1.15215 0
M  V30 612 H 59.499 1.18116 3.73572 0
M  V30 613 H 61.196 1.56982 3.68996 0
M  V30 614 H 57.786 2.90022 3.15571 0
M  V30 615 H 61.97 3.87911 3.09579 0
M  V30 616 H 57.226 5.29193 3.0621 0
M  V30 617 H 61.4 6.27808 3.0138 0
M  V30 618 H 59.027 6.98833 2.99227 0
M  V30 619 N 60.6021 -1.18246 1.0419 0
M  V30 620 C 61.8491 -1.88257 0.746017 0
M  V30 621 C 62.1771 -1.80429 -0.726331 0
M  V30 622 O 61.4321 -1.2 -1.54591 0
M  V30 623 C 61.7311 -3.38082 1.15911 0
M  V30 624 C 61.3971 -3.66114 2.63195 0
M  V30 625 C 60.0591 -3.73474 3.03432 0
M  V30 626 C 62.4111 -3.78398 3.5842 0
M  V30 627 C 59.7391 -3.90599 4.37778 0
M  V30 628 C 62.0911 -3.97039 4.92487 0
M  V30 629 C 60.7551 -4.02635 5.32392 0
M  V30 630 H 60.0251 -0.688883 0.272987 0
M  V30 631 H 62.6721 -1.3995 1.30715 0
M  V30 632 H 60.9771 -3.88377 0.516806 0
M  V30 633 H 62.6741 -3.90596 0.907516 0
M  V30 634 H 59.2641 -3.61003 2.3103 0
M  V30 635 H 63.4481 -3.72042 3.28479 0
M  V30 636 H 58.7041 -3.93175 4.68213 0
M  V30 637 H 62.8781 -4.05486 5.66175 0
M  V30 638 H 60.5051 -4.15657 6.36501 0
M  V30 639 N 62.0802 -0.821533 -1.34494 0
M  V30 640 C 63.3272 -0.408946 -1.98328 0
M  V30 641 C 63.6552 1.02764 -1.65136 0
M  V30 642 O 62.9102 1.73026 -0.914349 0
M  V30 643 C 63.2092 -0.556512 -3.53041 0
M  V30 644 C 62.8752 -1.95861 -4.0614 0
M  V30 645 C 61.5372 -2.34217 -4.20352 0
M  V30 646 C 63.8892 -2.87523 -4.34718 0
M  V30 647 C 61.2172 -3.63572 -4.6047 0
M  V30 648 C 63.5692 -4.1634 -4.76281 0
M  V30 649 C 62.2332 -4.54675 -4.88699 0
M  V30 650 H 61.5032 -0.149644 -0.725732 0
M  V30 651 H 64.1502 -1.04521 -1.6046 0
M  V30 652 H 62.4552 0.163148 -3.9146 0
M  V30 653 H 64.1522 -0.217826 -4.00408 0
M  V30 654 H 60.7422 -1.65066 -3.95539 0
M  V30 655 H 64.9262 -2.59133 -4.23277 0
M  V30 656 H 60.1822 -3.93101 -4.68275 0
M  V30 657 H 64.3562 -4.87455 -4.97354 0
M  V30 658 H 61.9832 -5.54959 -5.19542 0
M  V30 659 N 63.5583 1.46682 -0.576371 0
M  V30 660 C 64.7883 2.06498 -0.0648694 0
M  V30 661 C 65.1963 1.42665 1.24271 0
M  V30 662 O 64.5393 0.523886 1.76071 0
M  V30 663 C 64.6013 3.5904 0.181816 0
M  V30 664 C 64.2653 4.45028 -1.0392 0
M  V30 665 C 65.2623 4.81959 -1.94966 0
M  V30 666 C 62.9473 4.86259 -1.25927 0
M  V30 667 C 64.9413 5.58942 -3.06371 0
M  V30 668 C 62.6283 5.63002 -2.37638 0
M  V30 669 C 63.6263 5.99257 -3.2769 0
M  V30 670 O 63.3143 6.7445 -4.37461 0
M  V30 671 H 63.0463 0.674028 -0.0515987 0
M  V30 672 H 65.6003 1.89393 -0.794951 0
M  V30 673 H 63.8303 3.74429 0.966436 0
M  V30 674 H 65.5193 4.00806 0.641047 0
M  V30 675 H 66.2853 4.50689 -1.79177 0
M  V30 676 H 62.1643 4.57494 -0.567448 0
M  V30 677 H 65.7083 5.87158 -3.76684 0
M  V30 678 H 61.6053 5.93686 -2.53392 0
M  V30 679 H 62.3733 6.92867 -4.35749 0
M  V30 680 N 65.0364 0.313813 1.54444 0
M  V30 681 C 66.4474 -0.176243 1.85866 0
M  V30 682 C 66.7984 -1.52405 1.23561 0
M  V30 683 O 65.9234 -2.09605 0.538016 0
M  V30 684 C 66.5184 -0.32657 3.37222 0
M  V30 685 C 65.0774 -0.760846 3.6863 0
M  V30 686 C 64.2244 0.123247 2.77026 0
M  V30 687 H 67.1754 0.534418 1.49431 0
M  V30 688 H 67.1964 -1.15908 3.62416 0
M  V30 689 H 66.7084 0.654531 3.82541 0
M  V30 690 H 64.8094 -1.75204 3.28838 0
M  V30 691 H 64.9224 -0.571353 4.75681 0
M  V30 692 H 63.2864 -0.399597 2.51546 0
M  V30 693 H 64.0694 1.10094 3.25168 0
M  V30 694 N 66.5145 -1.57545 0.0417849 0
M  V30 695 C 67.4445 -2.14009 -0.933929 0
M  V30 696 C 68.4255 -1.05938 -1.33083 0
M  V30 697 O 69.6105 -1.33833 -1.40721 0
M  V30 698 C 66.7405 -2.67747 -2.21199 0
M  V30 699 C 65.6945 -3.80718 -1.95544 0
M  V30 700 C 65.0205 -4.20935 -3.29724 0
M  V30 701 C 66.3205 -5.06258 -1.28452 0
M  V30 702 H 68.0145 -2.95788 -0.463645 0
M  V30 703 H 65.5605 -1.42285 -0.221573 0
M  V30 704 H 67.5135 -3.05886 -2.89848 0
M  V30 705 H 66.2375 -1.83147 -2.70416 0
M  V30 706 H 64.8965 -3.43037 -1.2931 0
M  V30 707 H 64.5445 -3.33298 -3.76724 0
M  V30 708 H 64.2445 -4.9707 -3.13361 0
M  V30 709 H 65.7685 -4.61666 -3.9962 0
M  V30 710 H 67.1825 -5.41903 -1.8712 0
M  V30 711 H 65.5795 -5.87475 -1.22445 0
M  V30 712 H 66.6495 -4.84207 -0.259219 0
M  V30 713 N 67.9926 0.231505 -1.5589 0
M  V30 714 C 69.2696 0.981096 -1.69215 0
M  V30 715 C 69.6496 2.02799 -0.586164 0
M  V30 716 O 68.9976 2.24823 0.408253 0
M  V30 717 C 69.2076 1.60054 -3.10135 0
M  V30 718 C 70.5556 2.09658 -3.69227 0
M  V30 719 O 71.5796 1.69967 -3.13033 0
M  V30 720 O 70.4386 2.8258 -4.67772 0
M  V30 721 H 67.5326 0.457653 -0.688827 0
M  V30 722 H 70.0786 0.224073 -1.68214 0
M  V30 723 H 68.8506 0.844105 -3.82087 0
M  V30 724 H 68.4736 2.42336 -3.15212 0
M  V30 725 N 69.4707 1.49531 0.497807 0
M  V30 726 C 70.7177 1.59179 1.25173 0
M  V30 727 C 71.0457 0.279932 1.92475 0
M  V30 728 O 70.3007 -0.732383 1.81479 0
M  V30 729 C 70.5997 2.70252 2.33878 0
M  V30 730 C 70.2657 4.11644 1.84012 0
M  V30 731 C 68.9277 4.50121 1.70132 0
M  V30 732 C 71.2797 5.00121 1.46725 0
M  V30 733 C 68.6077 5.74845 1.17348 0
M  V30 734 C 70.9597 6.25366 0.95392 0
M  V30 735 C 69.6237 6.6267 0.801538 0
M  V30 736 H 68.8937 0.582478 0.45804 0
M  V30 737 H 71.5407 1.83373 0.551948 0
M  V30 738 H 69.8457 2.40041 3.09657 0
M  V30 739 H 71.5427 2.74925 2.9192 0
M  V30 740 H 68.1327 3.81274 1.95775 0
M  V30 741 H 72.3167 4.71048 1.56294 0
M  V30 742 H 67.5727 6.02444 1.04264 0
M  V30 743 H 71.7467 6.93301 0.656225 0
M  V30 744 H 69.3737 7.59197 0.390351 0
M  V30 745 N 70.9488 -0.749086 1.3866 0
M  V30 746 C 72.1768 -1.53834 1.38358 0
M  V30 747 C 72.5918 -1.88783 -0.0255219 0
M  V30 748 O 71.9488 -1.53101 -0.993292 0
M  V30 749 C 71.9998 -2.83468 2.2434 0
M  V30 750 O 71.7208 -2.50008 3.5976 0
M  V30 751 C 73.2218 -3.7758 2.32267 0
M  V30 752 H 70.4418 -0.47585 0.473083 0
M  V30 753 H 72.9858 -0.926726 1.82297 0
M  V30 754 H 71.1408 -3.40995 1.83851 0
M  V30 755 H 71.5548 -3.33182 4.05081 0
M  V30 756 H 73.0288 -4.65478 2.96706 0
M  V30 757 H 73.5058 -4.18334 1.33765 0
M  V30 758 H 74.1118 -3.25976 2.73166 0
M  V30 759 N 72.4269 -1.23603 -0.977757 0
M  V30 760 C 73.6739 -1.06971 -1.71941 0
M  V30 761 C 74.0019 0.393009 -1.90488 0
M  V30 762 O 73.2569 1.30719 -1.4564 0
M  V30 763 C 73.5559 -1.7433 -3.11999 0
M  V30 764 C 73.2219 -3.24252 -3.13323 0
M  V30 765 C 71.8839 -3.65156 -3.13392 0
M  V30 766 C 74.2359 -4.20141 -3.08433 0
M  V30 767 C 71.5639 -5.00403 -3.0629 0
M  V30 768 C 73.9159 -5.55384 -3.02873 0
M  V30 769 C 72.5799 -5.95647 -3.01265 0
M  V30 770 H 71.8499 -0.391433 -0.629175 0
M  V30 771 H 74.4969 -1.53572 -1.14403 0
M  V30 772 H 72.8019 -1.20096 -3.7294 0
M  V30 773 H 74.4989 -1.58936 -3.68158 0
M  V30 774 H 71.0889 -2.91692 -3.14029 0
M  V30 775 H 75.2729 -3.89547 -3.07517 0
M  V30 776 H 70.5289 -5.3081 -3.03399 0
M  V30 777 H 74.7029 -6.29398 -2.98046 0
M  V30 778 H 72.3299 -7.0041 -2.95516 0
M  V30 779 N 73.905 1.17692 -1.04816 0
M  V30 780 C 75.151 1.88137 -0.75711 0
M  V30 781 C 75.484 1.80604 0.713841 0
M  V30 782 O 74.759 1.21146 1.52164 0
M  V30 783 C 75.042 3.38318 -1.2334 0
M  V30 784 C 74.895 3.54622 -2.76701 0
M  V30 785 C 76.214 4.32214 -0.829415 0
M  V30 786 H 73.333 0.683163 -0.27651 0
M  V30 787 H 75.975 1.38424 -1.30149 0
M  V30 788 H 74.125 3.80787 -0.770286 0
M  V30 789 H 75.797 3.21194 -3.31107 0
M  V30 790 H 74.04 2.97026 -3.16161 0
M  V30 791 H 74.711 4.60028 -3.05088 0
M  V30 792 H 77.187 3.97565 -1.22805 0
M  V30 793 H 76.063 5.35838 -1.19033 0
M  V30 794 H 76.324 4.41294 0.266891 0
M  V30 795 N 75.3831 0.828654 1.34056 0
M  V30 796 C 76.6231 0.425394 1.99924 0
M  V30 797 C 76.9871 -0.994294 1.64249 0
M  V30 798 O 78.1881 -1.50074 2.23005 0
M  V30 799 C 76.4591 0.628071 3.51838 0
M  V30 800 S 78.0181 0.318511 4.37642 0
M  V30 801 H 74.8361 0.160465 0.692656 0
M  V30 802 H 77.4381 1.07572 1.63244 0
M  V30 803 H 76.1421 1.66089 3.7529 0
M  V30 804 H 75.6731 -0.0367799 3.93383 0
M  V30 805 H 77.6881 -0.865632 4.88591 0
M  V30 806 N 76.8612 -1.46375 0.584142 0
M  V30 807 C 78.2722 -1.86031 0.157959 0
M  V30 808 C 78.6232 -1.48753 -1.27933 0
M  V30 809 O 77.7482 -0.903098 -1.96655 0
M  V30 810 C 78.3432 -3.37642 0.279892 0
M  V30 811 C 76.9022 -3.76289 -0.09143 0
M  V30 812 C 76.0492 -2.7039 0.615178 0
M  V30 813 H 79.0002 -1.37509 0.792274 0
M  V30 814 H 79.0212 -3.77275 -0.494364 0
M  V30 815 H 78.5332 -3.64742 1.32607 0
M  V30 816 H 76.6342 -3.54806 -1.13769 0
M  V30 817 H 76.7472 -4.78246 0.285886 0
M  V30 818 H 75.1112 -2.5464 0.0552833 0
M  V30 819 H 75.8942 -3.0033 1.66303 0
M  V30 820 N 78.3393 -0.321999 -1.54275 0
M  V30 821 C 79.5673 0.283052 -2.04955 0
M  V30 822 C 79.9823 1.45904 -1.19823 0
M  V30 823 O 79.3393 1.81063 -0.228545 0
M  V30 824 C 79.3903 0.719028 -3.54277 0
M  V30 825 O 79.1113 -0.410175 -4.36176 0
M  V30 826 C 80.6123 1.38705 -4.21041 0
M  V30 827 H 77.8323 0.0584616 -0.668448 0
M  V30 828 H 80.3763 -0.467734 -1.99079 0
M  V30 829 H 78.5313 1.41979 -3.60445 0
M  V30 830 H 78.9453 -0.0669416 -5.24457 0
M  V30 831 H 80.4193 1.64306 -5.2698 0
M  V30 832 H 80.8963 2.33385 -3.72059 0
M  V30 833 H 81.5023 0.728906 -4.19007 0
M  V30 834 N 79.8174 1.5752 -0.0501392 0
M  V30 835 C 80.7274 2.14952 0.939827 0
M  V30 836 C 81.7434 1.10706 1.34239 0
M  V30 837 O 82.9194 1.42869 1.41952 0
M  V30 838 C 79.9844 2.68232 2.19665 0
M  V30 839 C 79.0454 3.87272 1.85253 0
M  V30 840 C 78.2784 4.38002 3.04943 0
M  V30 841 O 78.5014 3.87811 4.18281 0
M  V30 842 O 77.4354 5.29602 2.86017 0
M  V30 843 H 81.2614 2.9986 0.481392 0
M  V30 844 H 78.8464 1.4841 0.171699 0
M  V30 845 H 80.7284 3.02475 2.93406 0
M  V30 846 H 79.4034 1.86395 2.64648 0
M  V30 847 H 78.3104 3.5792 1.0883 0
M  V30 848 H 79.6434 4.70336 1.4507 0
M  V30 849 N 81.2955 -0.223234 1.56011 0
M  V30 850 C 82.5445 -0.945912 1.78144 0
M  V30 851 C 82.8575 -1.85567 0.618396 0
M  V30 852 O 84.0635 -2.61688 0.723318 0
M  V30 853 C 82.5195 -1.73216 3.15475 0
M  V30 854 C 82.1275 -0.868619 4.39499 0
M  V30 855 C 83.8715 -2.44615 3.46935 0
M  V30 856 C 81.7785 -1.65212 5.67855 0
M  V30 857 H 80.7085 -0.356929 0.664167 0
M  V30 858 H 83.3595 -0.199845 1.82409 0
M  V30 859 H 81.7415 -2.52107 3.05382 0
M  V30 860 H 82.9155 -0.120366 4.60643 0
M  V30 861 H 81.2305 -0.26683 4.15544 0
M  V30 862 H 83.8275 -3.03732 4.40058 0
M  V30 863 H 84.1705 -3.17417 2.69355 0
M  V30 864 H 84.7035 -1.72715 3.58349 0
M  V30 865 H 81.4425 -0.967407 6.48322 0
M  V30 866 H 80.9625 -2.37503 5.50774 0
M  V30 867 H 82.6415 -2.21322 6.07968 0
M  V30 868 N 82.7736 -1.49793 -0.48987 0
M  V30 869 C 84.0226 -1.59085 -1.23995 0
M  V30 870 C 84.3356 -0.287907 -1.9347 0
M  V30 871 O 85.5416 -0.259506 -2.70257 0
M  V30 872 C 83.9976 -2.80736 -2.252 0
M  V30 873 C 83.6056 -4.17833 -1.61614 0
M  V30 874 C 85.3496 -2.99364 -3.00967 0
M  V30 875 C 83.2566 -5.30693 -2.60996 0
M  V30 876 H 82.1866 -0.592372 -0.466488 0
M  V30 877 H 84.8376 -1.76197 -0.51252 0
M  V30 878 H 83.2196 -2.57142 -3.01154 0
M  V30 879 H 84.3936 -4.51608 -0.915774 0
M  V30 880 H 82.7086 -4.04656 -0.981977 0
M  V30 881 H 85.3056 -3.80851 -3.75308 0
M  V30 882 H 85.6486 -2.10356 -3.59244 0
M  V30 883 H 86.1816 -3.2305 -2.32128 0
M  V30 884 H 82.9206 -6.21796 -2.07485 0
M  V30 885 H 82.4406 -5.01359 -3.2924 0
M  V30 886 H 84.1196 -5.6049 -3.23202 0
M  V30 887 N 84.2517 0.741722 -1.39055 0
M  V30 888 C 85.2147 1.83733 -1.37021 0
M  V30 889 C 86.2147 1.58542 -0.268534 0
M  V30 890 O 87.4047 1.66067 -0.526076 0
M  V30 891 C 84.5367 3.2141 -1.13617 0
M  V30 892 H 85.7297 1.86941 -2.34506 0
M  V30 893 H 83.2827 0.944676 -1.24521 0
M  V30 894 H 84.0177 3.23865 -0.167863 0
M  V30 895 H 83.8027 3.4109 -1.93391 0
M  V30 896 H 85.2927 4.01477 -1.14918 0
M  V30 897 N 85.7298 1.2412 0.971189 0
M  V30 898 C 86.9768 1.07881 1.71371 0
M  V30 899 C 87.3048 -0.382901 1.90694 0
M  V30 900 O 86.5598 -1.29945 1.46331 0
M  V30 901 C 86.8588 1.75983 3.11071 0
M  V30 902 C 86.5248 3.25909 3.11599 0
M  V30 903 C 85.1868 3.66813 3.11451 0
M  V30 904 C 87.5388 4.21771 3.062 0
M  V30 905 C 84.8668 5.02021 3.03631 0
M  V30 906 C 87.2188 5.56982 2.99923 0
M  V30 907 C 85.8828 5.97237 2.98102 0
M  V30 908 H 85.1528 0.394764 0.62709 0
M  V30 909 H 87.7998 1.54176 1.13587 0
M  V30 910 H 86.1048 1.22072 3.72298 0
M  V30 911 H 87.8018 1.60887 3.6731 0
M  V30 912 H 84.3918 2.93353 3.12477 0
M  V30 913 H 88.5758 3.91172 3.05447 0
M  V30 914 H 83.8318 5.32411 3.0058 0
M  V30 915 H 88.0058 6.30969 2.94704 0
M  V30 916 H 85.6328 7.01967 2.91798 0
M  V30 917 N 87.2079 -1.17134 1.05439 0
M  V30 918 C 88.4329 -1.91913 0.786396 0
M  V30 919 C 88.8579 -1.7643 -0.652234 0
M  V30 920 O 88.2159 -1.08372 -1.45345 0
M  V30 921 C 88.2639 -3.40921 1.17497 0
M  V30 922 O 87.3679 -4.11244 0.308589 0
M  V30 923 H 86.7089 -0.598215 0.288158 0
M  V30 924 H 89.2389 -1.48457 1.4079 0
M  V30 925 H 89.2489 -3.91668 1.14281 0
M  V30 926 H 87.9239 -3.5151 2.22292 0
M  V30 927 H 86.5009 -3.70731 0.40157 0
M  V30 928 N 88.686 -0.835752 -1.33615 0
M  V30 929 C 89.963 -0.352017 -1.92406 0
M  V30 930 C 90.343 1.16225 -1.76224 0
M  V30 931 O 89.691 1.97526 -1.14873 0
M  V30 932 C 89.901 -0.795485 -3.39813 0
M  V30 933 C 91.249 -0.801703 -4.16963 0
M  V30 934 O 92.273 -0.738889 -3.48452 0
M  V30 935 O 91.132 -0.886607 -5.3926 0
M  V30 936 H 88.226 -0.0989641 -0.821057 0
M  V30 937 H 90.772 -0.921397 -1.42507 0
M  V30 938 H 89.544 -1.83795 -3.45449 0
M  V30 939 H 89.167 -0.202505 -3.97084 0
M  V30 940 N 90.1641 1.46063 -0.591896 0
M  V30 941 C 91.5801 1.57561 -0.254288 0
M  V30 942 C 91.7801 1.58565 1.24336 0
M  V30 943 O 90.8361 1.50753 2.02558 0
M  V30 944 C 92.1491 2.86549 -0.911611 0
M  V30 945 C 93.6971 3.00197 -0.886059 0
M  V30 946 C 94.1721 4.31933 -1.5231 0
M  V30 947 N 95.6631 4.38654 -1.48786 0
M  V30 948 C 96.3981 5.39222 -1.95006 0
M  V30 949 N 95.8941 6.46414 -2.49241 0
M  V30 950 N 97.6871 5.3048 -1.85868 0
M  V30 951 H 89.8381 1.43655 -1.56451 0
M  V30 952 H 92.1011 0.68583 -0.654478 0
M  V30 953 H 91.8071 2.91651 -1.96551 0
M  V30 954 H 91.6811 3.74794 -0.425368 0
M  V30 955 H 94.0681 2.9467 0.159246 0
M  V30 956 H 94.1491 2.13403 -1.41041 0
M  V30 957 H 93.7931 4.38217 -2.56765 0
M  V30 958 H 93.7231 5.17516 -0.973891 0
M  V30 959 H 96.2141 3.61793 -1.09151 0
M  V30 960 H 96.5271 7.19376 -2.82344 0
M  V30 961 H 94.8721 6.47208 -2.53272 0
M  V30 962 H 98.0631 4.45643 -1.43248 0
M  V30 963 H 98.2361 6.08711 -2.22204 0
M  V30 964 N 91.6422 0.330177 1.54103 0
M  V30 965 C 92.6052 -0.520144 2.2322 0
M  V30 966 C 93.6052 -1.03828 1.22786 0
M  V30 967 O 94.7952 -0.929652 1.4732 0
M  V30 968 C 91.9272 -1.72317 2.94142 0
M  V30 969 H 93.1202 0.0841605 2.99782 0
M  V30 970 H 90.6732 0.0813433 1.56088 0
M  V30 971 H 91.4082 -2.36653 2.21734 0
M  V30 972 H 91.1932 -1.35898 3.67796 0
M  V30 973 H 92.6832 -2.3266 3.46784 0
M  V30 974 N 93.1203 -1.57491 0.0584922 0
M  V30 975 C 94.0303 -2.15448 -0.928414 0
M  V30 976 C 95.0463 -1.11416 -1.3365 0
M  V30 977 O 96.2223 -1.4362 -1.41193 0
M  V30 978 C 93.2873 -2.69393 -2.18239 0
M  V30 979 C 92.3483 -3.88249 -1.83196 0
M  V30 980 C 91.5813 -4.39613 -3.02616 0
M  V30 981 O 91.8043 -3.90023 -4.16219 0
M  V30 982 O 90.7383 -5.31111 -2.83204 0
M  V30 983 H 94.5643 -3.00112 -0.465483 0
M  V30 984 H 92.1493 -1.48499 -0.163826 0
M  V30 985 H 94.0313 -3.04026 -2.91798 0
M  V30 986 H 92.7063 -1.87796 -2.63656 0
M  V30 987 H 91.6133 -3.58492 -1.06931 0
M  V30 988 H 92.9463 -4.71098 -1.42573 0
M  V30 989 N 94.5984 0.214957 -1.56127 0
M  V30 990 C 95.5084 1.28727 -1.96129 0
M  V30 991 C 96.5244 1.50916 -0.866044 0
M  V30 992 O 97.7004 1.63918 -1.17016 0
M  V30 993 C 94.7654 2.61569 -2.27558 0
M  V30 994 C 93.8264 2.47625 -3.50685 0
M  V30 995 C 93.0594 3.74132 -3.80606 0
M  V30 996 O 93.2824 4.77438 -3.12104 0
M  V30 997 O 92.2164 3.70849 -4.74083 0
M  V30 998 H 96.0424 0.977855 -2.87527 0
M  V30 999 H 93.6274 0.418358 -1.43423 0
M  V30 1000 H 95.5094 3.40012 -2.48938 0
M  V30 1001 H 94.1844 2.92178 -1.39332 0
M  V30 1002 H 93.0914 1.67361 -3.34576 0
M  V30 1003 H 94.4244 2.21954 -4.39315 0
M  V30 1004 N 96.0765 1.50051 0.48192 0
M  V30 1005 C 97.3235 1.60498 1.23477 0
M  V30 1006 C 97.6515 0.300331 1.92167 0
M  V30 1007 O 96.9065 -0.713094 1.82246 0
M  V30 1008 C 97.2055 2.72717 2.30998 0
M  V30 1009 C 96.8715 4.13572 1.79636 0
M  V30 1010 C 95.5335 4.519 1.65348 0
M  V30 1011 C 97.8855 5.01649 1.41412 0
M  V30 1012 C 95.2135 5.76057 1.11244 0
M  V30 1013 C 97.5655 6.26343 0.887538 0
M  V30 1014 C 96.2295 6.63483 0.731207 0
M  V30 1015 H 95.4995 0.587303 0.451836 0
M  V30 1016 H 98.1465 1.83948 0.532468 0
M  V30 1017 H 96.4515 2.43312 3.07094 0
M  V30 1018 H 98.1485 2.78006 2.88988 0
M  V30 1019 H 94.7385 3.83329 1.91721 0
M  V30 1020 H 98.9225 4.72679 1.51289 0
M  V30 1021 H 94.1785 6.03516 0.978686 0
M  V30 1022 H 98.3525 6.93958 0.582654 0
M  V30 1023 H 95.9795 7.59568 0.309806 0
M  V30 1024 N 97.5546 -0.734337 1.39446 0
M  V30 1025 C 98.5016 -1.84835 1.38219 0
M  V30 1026 C 99.4716 -1.64331 0.24179 0
M  V30 1027 O 100.657 -1.85728 0.437002 0
M  V30 1028 C 97.7966 -3.22355 1.23212 0
M  V30 1029 C 96.9096 -3.5456 2.46801 0
M  V30 1030 C 96.0446 -4.81485 2.24377 0
M  V30 1031 C 95.0836 -5.06536 3.43639 0
M  V30 1032 N 94.2206 -6.24665 3.20528 0
M  V30 1033 H 99.0606 -1.85219 2.33448 0
M  V30 1034 H 96.5976 -0.905039 1.15963 0
M  V30 1035 H 98.5556 -4.0174 1.12522 0
M  V30 1036 H 97.1856 -3.21248 0.316121 0
M  V30 1037 H 96.2376 -2.69872 2.68092 0
M  V30 1038 H 97.5496 -3.6899 3.3563 0
M  V30 1039 H 96.7036 -5.68852 2.10933 0
M  V30 1040 H 95.4426 -4.6923 1.32944 0
M  V30 1041 H 94.4476 -4.17632 3.5758 0
M  V30 1042 H 95.6726 -5.20676 4.35974 0
M  V30 1043 H 93.6186 -6.13696 2.3176 0
M  V30 1044 H 93.5356 -6.39685 4.02913 0
M  V30 1045 H 94.8036 -7.14868 3.10779 0
M  V30 1046 N 99.0327 -1.24633 -0.964593 0
M  V30 1047 C 99.9797 -1.04144 -2.05968 0
M  V30 1048 C 100.95 0.046262 -1.66036 0
M  V30 1049 O 102.135 -0.108972 -1.90489 0
M  V30 1050 C 99.2747 -0.65563 -3.38815 0
M  V30 1051 C 98.3877 -1.81714 -3.91923 0
M  V30 1052 C 97.5227 -1.37662 -5.13052 0
M  V30 1053 C 96.5617 -2.50788 -5.58365 0
M  V30 1054 N 95.6987 -2.07582 -6.70712 0
M  V30 1055 H 100.539 -1.9787 -2.22827 0
M  V30 1056 H 98.0757 -0.9855 -1.09208 0
M  V30 1057 H 100.034 -0.412954 -4.15151 0
M  V30 1058 H 98.6637 0.244627 -3.21872 0
M  V30 1059 H 97.7157 -2.1734 -3.12198 0
M  V30 1060 H 99.0277 -2.66705 -4.21509 0
M  V30 1061 H 98.1817 -1.093 -5.96773 0
M  V30 1062 H 96.9207 -0.497293 -4.85158 0
M  V30 1063 H 95.9257 -2.79906 -4.73215 0
M  V30 1064 H 97.1507 -3.39283 -5.88272 0
M  V30 1065 H 95.0967 -1.22051 -6.44546 0
M  V30 1066 H 95.0137 -2.86125 -6.99763 0
M  V30 1067 H 96.2817 -1.82369 -7.57867 0
M  V30 1068 N 100.511 1.16574 -1.06058 0
M  V30 1069 C 101.441 2.23057 -0.690488 0
M  V30 1070 C 102.422 1.67141 0.315901 0
M  V30 1071 O 103.607 1.93253 0.191556 0
M  V30 1072 C 100.737 3.47222 -0.073625 0
M  V30 1073 C 99.6908 4.16016 -1.00573 0
M  V30 1074 C 99.0168 5.34104 -0.252289 0
M  V30 1075 C 100.317 4.67264 -2.33371 0
M  V30 1076 H 102.011 2.54271 -1.58072 0
M  V30 1077 H 99.5568 1.22218 -0.76149 0
M  V30 1078 H 101.51 4.20939 0.19714 0
M  V30 1079 H 100.234 3.15302 0.85161 0
M  V30 1080 H 98.8928 3.44223 -1.2612 0
M  V30 1081 H 98.5408 4.98437 0.675988 0
M  V30 1082 H 98.2408 5.81072 -0.873455 0
M  V30 1083 H 99.7648 6.10599 0.0109857 0
M  V30 1084 H 101.179 5.32573 -2.12223 0
M  V30 1085 H 99.5758 5.24843 -2.90963 0
M  V30 1086 H 100.646 3.83602 -2.96611 0
M  V30 1087 N 101.989 0.842826 1.3317 0
M  V30 1088 C 102.937 0.267495 2.31057 0
M  V30 1089 C 103.931 -0.602682 1.58316 0
M  V30 1090 O 105.137 -0.491803 1.73151 0
M  V30 1091 H 101.512 0.0677813 0.748939 0
M  V30 1092 H 103.483 1.10754 2.77085 0
M  V30 1093 C 102.232 -0.539331 3.43492 0
M  V30 1094 H 101.555 0.12095 3.99617 0
M  V30 1095 H 102.995 -0.90767 4.14171 0
M  V30 1096 C 101.454 -1.71981 2.89697 0
M  V30 1097 O 101.984 -2.81862 2.86211 0
M  V30 1098 N 100.19 -1.54299 2.46252 0
M  V30 1099 H 99.7369 -0.649143 2.49287 0
M  V30 1100 H 99.6949 -2.33431 2.10612 0
M  V30 1101 N 103.467 -1.45747 0.599634 0
M  V30 1102 C 104.707 -2.04181 0.0946309 0
M  V30 1103 C 105.071 -1.45895 -1.24815 0
M  V30 1104 O 106.272 -1.95633 -1.8434 0
M  V30 1105 C 104.543 -3.57368 0.047581 0
M  V30 1106 S 106.102 -4.36997 -0.397387 0
M  V30 1107 H 102.92 -0.70953 0.0456954 0
M  V30 1108 H 105.522 -1.78564 0.795946 0
M  V30 1109 H 104.226 -3.97303 1.02852 0
M  V30 1110 H 103.757 -3.87549 -0.675977 0
M  V30 1111 H 105.772 -4.68012 -1.64862 0
M  V30 1112 N 104.945 -0.338344 -1.53925 0
M  V30 1113 C 105.877 0.555117 -2.22376 0
M  V30 1114 C 106.89 1.06812 -1.22862 0
M  V30 1115 O 108.079 0.979163 -1.49247 0
M  V30 1116 C 105.179 1.77609 -2.88631 0
M  V30 1117 C 104.352 1.39927 -4.14414 0
M  V30 1118 C 103.411 2.47936 -4.64127 0
M  V30 1119 O 102.437 2.11461 -5.28463 0
M  V30 1120 N 103.639 3.79107 -4.39612 0
M  V30 1121 H 106.404 -0.0310778 -2.99684 0
M  V30 1122 H 103.965 -0.162226 -1.61085 0
M  V30 1123 H 105.957 2.49287 -3.18807 0
M  V30 1124 H 104.527 2.26978 -2.14941 0
M  V30 1125 H 103.747 0.513481 -3.90841 0
M  V30 1126 H 105.035 1.12341 -4.96243 0
M  V30 1127 H 104.433 4.11531 -3.88148 0
M  V30 1128 H 102.99 4.4697 -4.74406 0
M  V30 1129 N 106.423 1.57458 -0.0668435 0
M  V30 1130 C 107.669 1.93587 0.6043 0
M  V30 1131 C 108.002 0.946722 1.69561 0
M  V30 1132 O 107.277 -0.0248516 1.94484 0
M  V30 1133 C 107.56 3.40014 1.18585 0
M  V30 1134 C 107.413 4.49685 0.101529 0
M  V30 1135 C 108.732 3.87154 2.09284 0
M  V30 1136 H 105.851 0.703958 0.218202 0
M  V30 1137 H 108.493 1.89542 -0.131804 0
M  V30 1138 H 106.643 3.43592 1.81319 0
M  V30 1139 H 108.315 4.5823 -0.531279 0
M  V30 1140 H 106.558 4.30059 -0.568487 0
M  V30 1141 H 107.229 5.49266 0.54874 0
M  V30 1142 H 109.705 3.85551 1.56491 0
M  V30 1143 H 108.581 4.90231 2.46911 0
M  V30 1144 H 108.842 3.2481 2.99918 0
M  V30 1145 N 107.901 -0.206675 1.56239 0
M  V30 1146 C 109.15 -0.926964 1.79138 0
M  V30 1147 C 109.463 -1.84901 0.638043 0
M  V30 1148 O 110.669 -2.60906 0.751033 0
M  V30 1149 C 109.125 -1.6986 3.17294 0
M  V30 1150 C 108.733 -0.821956 4.40395 0
M  V30 1151 C 110.477 -2.40922 3.4951 0
M  V30 1152 C 108.384 -1.59179 5.69575 0
M  V30 1153 H 107.314 -0.349864 0.667915 0
M  V30 1154 H 109.965 -0.180487 1.8261 0
M  V30 1155 H 108.347 -2.48853 3.08039 0
M  V30 1156 H 109.521 -0.0715019 4.60745 0
M  V30 1157 H 107.836 -0.222741 4.15804 0
M  V30 1158 H 110.433 -2.99047 4.43255 0
M  V30 1159 H 110.776 -3.14542 2.72707 0
M  V30 1160 H 111.309 -1.68905 3.60161 0
M  V30 1161 H 108.048 -0.898589 6.49312 0
M  V30 1162 H 107.568 -2.31648 5.53262 0
M  V30 1163 H 109.247 -2.14862 6.10281 0
M  V30 1164 N 109.379 -1.50304 -0.473955 0
M  V30 1165 C 110.627 -1.60832 -1.22382 0
M  V30 1166 C 110.948 -0.30939 -1.9253 0
M  V30 1167 O 110.218 0.67296 -1.83978 0
M  V30 1168 H 108.798 -0.592652 -0.454723 0
M  V30 1169 H 111.46 -1.87068 -0.546968 0
M  V30 1170 H 110.556 -2.41803 -1.97327 0
M  V30 1171 N 110.857 0.726932 -1.39834 0
M  V30 1172 C 111.82 1.82269 -1.38962 0
M  V30 1173 C 112.82 1.58248 -0.285334 0
M  V30 1174 O 114.01 1.65499 -0.54366 0
M  V30 1175 C 111.142 3.20186 -1.17019 0
M  V30 1176 H 112.335 1.84443 -2.36476 0
M  V30 1177 H 109.888 0.931416 -1.25516 0
M  V30 1178 H 110.623 3.23669 -0.202204 0
M  V30 1179 H 110.408 3.3902 -1.96998 0
M  V30 1180 H 111.898 4.00235 -1.1917 0
M  V30 1181 N 112.336 1.25143 0.95797 0
M  V30 1182 C 113.561 1.12521 1.74223 0
M  V30 1183 C 113.986 -0.317402 1.85403 0
M  V30 1184 O 113.344 -1.2299 1.33204 0
M  V30 1185 C 113.392 1.78062 3.1357 0
M  V30 1186 O 112.496 1.058 3.98598 0
M  V30 1187 H 111.837 0.39304 0.535178 0
M  V30 1188 H 114.367 1.65641 1.201 0
M  V30 1189 H 114.377 1.84213 3.64046 0
M  V30 1190 H 113.052 2.83021 3.04749 0
M  V30 1191 H 111.629 1.07506 3.57067 0
M  V30 1192 N 113.814 -1.1601 1.06675 0
M  V30 1193 C 115.06 -1.86909 0.786945 0
M  V30 1194 C 115.393 -1.81717 -0.685018 0
M  V30 1195 O 114.668 -1.23551 -1.50218 0
M  V30 1196 C 114.951 -3.36313 1.28707 0
M  V30 1197 C 114.804 -3.50175 2.82308 0
M  V30 1198 C 116.123 -4.3084 0.898071 0
M  V30 1199 H 113.242 -0.678677 0.287343 0
M  V30 1200 H 115.884 -1.36336 1.32334 0
M  V30 1201 H 114.034 -3.79513 0.830768 0
M  V30 1202 H 115.706 -3.15886 3.36175 0
M  V30 1203 H 113.949 -2.91959 3.20847 0
M  V30 1204 H 114.62 -4.55116 3.12368 0
M  V30 1205 H 117.096 -3.95561 1.29114 0
M  V30 1206 H 115.972 -5.33876 1.27543 0
M  V30 1207 H 116.233 -4.41662 -0.196651 0
M  V30 1208 N 115.292 -0.849877 -1.32721 0
M  V30 1209 C 116.569 -0.372405 -1.92022 0
M  V30 1210 C 116.949 1.1435 -1.77447 0
M  V30 1211 O 116.297 1.96296 -1.16962 0
M  V30 1212 C 116.507 -0.831482 -3.3895 0
M  V30 1213 C 117.855 -0.845882 -4.16089 0
M  V30 1214 O 118.879 -0.775806 -3.47649 0
M  V30 1215 O 117.738 -0.943753 -5.38289 0
M  V30 1216 H 114.832 -0.107667 -0.819961 0
M  V30 1217 H 117.378 -0.93646 -1.41522 0
M  V30 1218 H 116.15 -1.87448 -3.4348 0
M  V30 1219 H 115.773 -0.24461 -3.96847 0
M  V30 1220 N 116.77 1.45427 -0.607355 0
M  V30 1221 C 117.995 2.07124 -0.107006 0
M  V30 1222 C 118.42 1.44906 1.19933 0
M  V30 1223 O 117.778 0.541687 1.73019 0
M  V30 1224 C 117.826 3.60595 0.0194119 0
M  V30 1225 O 116.93 3.98285 1.0697 0
M  V30 1226 H 116.271 0.659868 -0.0739597 0
M  V30 1227 H 118.801 1.86683 -0.837297 0
M  V30 1228 H 118.811 4.07419 0.2177 0
M  V30 1229 H 117.486 4.05266 -0.934453 0
M  V30 1230 H 116.063 3.63133 0.847889 0
M  V30 1231 N 118.248 0.346503 1.53744 0
M  V30 1232 C 119.198 -0.524953 2.21874 0
M  V30 1233 C 120.182 -1.06376 1.20718 0
M  V30 1234 O 121.374 -0.996972 1.46251 0
M  V30 1235 C 118.503 -1.6739 2.99726 0
M  V30 1236 C 117.589 -1.14888 4.08242 0
M  V30 1237 N 117.98 -0.345329 5.0462 0
M  V30 1238 C 116.278 -1.4255 4.22606 0
M  V30 1239 C 116.979 -0.0600706 5.81669 0
M  V30 1240 N 115.955 -0.65252 5.39669 0
M  V30 1241 H 119.757 0.0960091 2.93743 0
M  V30 1242 H 117.271 0.15352 1.61673 0
M  V30 1243 H 119.268 -2.3102 3.47038 0
M  V30 1244 H 117.928 -2.29811 2.29384 0
M  V30 1245 H 118.939 0.0138439 5.17898 0
M  V30 1246 H 115.616 -2.05389 3.63486 0
M  V30 1247 H 117.006 0.588321 6.69319 0
M  V30 1248 N 119.726 -1.57421 0.075193 0
M  V30 1249 C 120.973 -1.93618 -0.593146 0
M  V30 1250 C 121.301 -0.955484 -1.69413 0
M  V30 1251 O 120.556 0.0283251 -1.9568 0
M  V30 1252 C 120.855 -3.36428 -1.20626 0
M  V30 1253 C 120.521 -4.50307 -0.231078 0
M  V30 1254 C 119.183 -4.81186 0.0371936 0
M  V30 1255 C 121.535 -5.19374 0.435888 0
M  V30 1256 C 118.863 -5.78466 0.979461 0
M  V30 1257 C 121.215 -6.17665 1.3665 0
M  V30 1258 C 119.879 -6.46958 1.6432 0
M  V30 1259 H 119.149 -0.708499 -0.217047 0
M  V30 1260 H 121.796 -1.90937 0.146793 0
M  V30 1261 H 120.101 -3.35592 -2.02201 0
M  V30 1262 H 121.798 -3.61727 -1.73073 0
M  V30 1263 H 118.388 -4.26227 -0.450357 0
M  V30 1264 H 122.572 -4.95711 0.241748 0
M  V30 1265 H 117.828 -5.99487 1.20106 0
M  V30 1266 H 122.002 -6.70284 1.88924 0
M  V30 1267 H 119.629 -7.2215 2.37494 0
M  V30 1268 N 121.204 0.198386 -1.56346 0
M  V30 1269 C 122.444 0.92609 -1.82217 0
M  V30 1270 C 122.808 1.80584 -0.652195 0
M  V30 1271 O 124.009 2.56907 -0.790716 0
M  V30 1272 C 122.28 1.72354 -3.13096 0
M  V30 1273 S 123.839 2.50371 -3.6036 0
M  V30 1274 H 120.657 0.310677 -0.639532 0
M  V30 1275 H 123.259 0.189755 -1.94577 0
M  V30 1276 H 121.963 1.0678 -3.96265 0
M  V30 1277 H 121.494 2.50175 -3.03605 0
M  V30 1278 H 123.509 3.74488 -3.25535 0
M  V30 1279 N 122.682 1.50554 0.465978 0
M  V30 1280 C 123.632 1.66177 1.56106 0
M  V30 1281 C 124.616 0.516265 1.52393 0
M  V30 1282 O 125.808 0.770906 1.5933 0
M  V30 1283 C 122.937 1.76396 2.94515 0
M  V30 1284 C 122.023 2.9664 3.03093 0
M  V30 1285 N 122.414 4.20245 2.81474 0
M  V30 1286 C 120.712 2.95304 3.34233 0
M  V30 1287 C 121.413 5.01259 2.95151 0
M  V30 1288 N 120.389 4.35318 3.25576 0
M  V30 1289 H 124.191 2.59434 1.38099 0
M  V30 1290 H 121.705 1.47808 0.6728 0
M  V30 1291 H 123.702 1.85694 3.73261 0
M  V30 1292 H 122.362 0.843017 3.13565 0
M  V30 1293 H 123.373 4.4966 2.56956 0
M  V30 1294 H 120.05 2.12729 3.59239 0
M  V30 1295 H 121.44 6.09564 2.82632 0
M  V30 1296 N 124.16 -0.719506 1.40217 0
M  V30 1297 C 125.09 -1.8465 1.42922 0
M  V30 1298 C 126.071 -1.67599 0.29062 0
M  V30 1299 O 127.256 -1.87688 0.498677 0
M  V30 1300 C 124.386 -3.22565 1.28722 0
M  V30 1301 C 123.34 -3.54281 2.40144 0
M  V30 1302 C 122.666 -4.91298 2.11023 0
M  V30 1303 C 123.966 -3.55676 3.82481 0
M  V30 1304 H 125.66 -1.82644 2.37237 0
M  V30 1305 H 123.206 -0.877305 1.1419 0
M  V30 1306 H 125.159 -4.01095 1.29232 0
M  V30 1307 H 123.883 -3.25137 0.308811 0
M  V30 1308 H 122.542 -2.78088 2.38877 0
M  V30 1309 H 122.19 -4.90468 1.11582 0
M  V30 1310 H 121.89 -5.13485 2.8567 0
M  V30 1311 H 123.414 -5.72166 2.13209 0
M  V30 1312 H 124.828 -4.24254 3.85592 0
M  V30 1313 H 123.225 -3.89388 4.56614 0
M  V30 1314 H 124.295 -2.55144 4.12346 0
M  V30 1315 N 125.638 -1.25649 -0.95132 0
M  V30 1316 C 126.601 -1.06399 -2.03007 0
M  V30 1317 C 127.601 -0.0156794 -1.60792 0
M  V30 1318 O 128.791 -0.25817 -1.72276 0
M  V30 1319 C 125.923 -0.616184 -3.35285 0
M  V30 1320 H 127.116 -2.02164 -2.21517 0
M  V30 1321 H 124.669 -1.08103 -1.12887 0
M  V30 1322 H 125.404 0.343917 -3.22471 0
M  V30 1323 H 125.189 -1.37301 -3.67275 0
M  V30 1324 H 126.679 -0.503032 -4.14559 0
M  V30 1325 N 127.117 1.15442 -1.07289 0
M  V30 1326 C 128.363 1.8672 -0.806679 0
M  V30 1327 C 128.718 1.80723 0.660084 0
M  V30 1328 O 128.011 1.21902 1.47819 0
M  V30 1329 C 128.205 3.3489 -1.24834 0
M  V30 1330 C 128.034 3.55313 -2.7565 0
M  V30 1331 C 126.804 3.7082 -3.4325 0
M  V30 1332 C 129.002 3.53188 -3.73848 0
M  V30 1333 N 126.984 3.7929 -4.82713 0
M  V30 1334 C 128.355 3.67765 -4.99149 0
M  V30 1335 C 130.41 3.36459 -3.67015 0
M  V30 1336 C 129.113 3.6734 -6.18428 0
M  V30 1337 C 131.139 3.37333 -4.85758 0
M  V30 1338 C 130.501 3.52438 -6.09891 0
M  V30 1339 H 126.6 0.700433 -0.347733 0
M  V30 1340 H 129.184 1.38441 -1.36902 0
M  V30 1341 H 127.355 3.81786 -0.713713 0
M  V30 1342 H 129.087 3.93875 -0.929745 0
M  V30 1343 H 125.842 3.71568 -2.93656 0
M  V30 1344 H 126.266 3.8727 -5.55294 0
M  V30 1345 H 130.908 3.237 -2.71989 0
M  V30 1346 H 128.626 3.78878 -7.13777 0
M  V30 1347 H 132.212 3.25617 -4.82146 0
M  V30 1348 H 131.092 3.53047 -7.00234 0
M  V30 1349 N 128.595 0.856903 1.32268 0
M  V30 1350 C 129.841 0.462069 1.97466 0
M  V30 1351 C 130.174 -0.980298 1.67642 0
M  V30 1352 O 129.449 -1.68824 0.965858 0
M  V30 1353 C 129.732 0.704336 3.53145 0
M  V30 1354 C 129.585 2.19529 3.9259 0
M  V30 1355 C 130.904 0.1622 4.39801 0
M  V30 1356 H 128.023 0.169357 0.717278 0
M  V30 1357 H 130.665 1.07574 1.56614 0
M  V30 1358 H 128.815 0.181999 3.88073 0
M  V30 1359 H 130.487 2.78387 3.67829 0
M  V30 1360 H 128.73 2.67292 3.41668 0
M  V30 1361 H 129.401 2.31549 5.01088 0
M  V30 1362 H 131.877 0.608905 4.11621 0
M  V30 1363 H 130.753 0.361265 5.4771 0
M  V30 1364 H 131.014 -0.935158 4.32096 0
M  V30 1365 N 130.073 -1.45103 0.615059 0
M  V30 1366 C 131.021 -2.32331 -0.111791 0
M  V30 1367 C 132.015 -1.46409 -0.852102 0
M  V30 1368 O 133.221 -1.62849 -0.766821 0
M  V30 1369 H 129.596 -0.749993 -0.0549072 0
M  V30 1370 H 131.567 -2.91407 0.642225 0
M  V30 1371 C 130.316 -3.3015 -1.09071 0
M  V30 1372 H 129.639 -3.96265 -0.530485 0
M  V30 1373 H 131.079 -3.93898 -1.56908 0
M  V30 1374 C 129.538 -2.57875 -2.168 0
M  V30 1375 O 130.068 -2.36567 -3.24652 0
M  V30 1376 N 128.274 -2.17884 -1.92289 0
M  V30 1377 H 127.821 -2.35413 -1.04587 0
M  V30 1378 H 127.779 -1.6985 -2.64572 0
M  V30 1379 N 131.551 -0.354651 -1.53558 0
M  V30 1380 C 132.779 0.239515 -2.05509 0
M  V30 1381 C 133.194 1.4333 -1.2289 0
M  V30 1382 O 132.551 1.80538 -0.266899 0
M  V30 1383 C 132.602 0.643719 -3.55723 0
M  V30 1384 O 132.323 -0.502602 -4.35207 0
M  V30 1385 C 133.824 1.29743 -4.23889 0
M  V30 1386 H 131.044 0.0442697 -0.669538 0
M  V30 1387 H 133.588 -0.509856 -1.98042 0
M  V30 1388 H 131.743 1.34302 -3.63376 0
M  V30 1389 H 132.157 -0.178172 -5.24197 0
M  V30 1390 H 133.631 1.53091 -5.30346 0
M  V30 1391 H 134.108 2.25441 -3.76926 0
M  V30 1392 H 134.714 0.639865 -4.20459 0
M  V30 1393 N 133.029 1.57378 -0.0835403 0
M  V30 1394 C 134.44 1.81261 0.447358 0
M  V30 1395 C 134.791 0.998331 1.68902 0
M  V30 1396 O 133.916 0.224282 2.15235 0
M  V30 1397 C 134.511 3.28767 0.818386 0
M  V30 1398 C 133.07 3.53455 1.29409 0
M  V30 1399 C 132.217 2.75831 0.285024 0
M  V30 1400 H 135.168 1.5566 -0.309115 0
M  V30 1401 H 135.189 3.41459 1.67887 0
M  V30 1402 H 134.701 3.88006 -0.0855019 0
M  V30 1403 H 132.802 2.99534 2.21608 0
M  V30 1404 H 132.915 4.62128 1.2639 0
M  V30 1405 H 131.279 2.42947 0.764767 0
M  V30 1406 H 132.062 3.37813 -0.611341 0
M  V30 1407 N 134.507 -0.190092 1.56449 0
M  V30 1408 C 135.454 -1.23557 1.94942 0
M  V30 1409 C 136.424 -1.44972 0.810696 0
M  V30 1410 O 137.609 -1.58023 1.06927 0
M  V30 1411 C 134.749 -2.57416 2.2985 0
M  V30 1412 C 133.862 -2.43537 3.5681 0
M  V30 1413 C 132.997 -3.70134 3.81017 0
M  V30 1414 C 132.036 -3.51109 5.01387 0
M  V30 1415 N 131.173 -4.6973 5.21822 0
M  V30 1416 H 136.013 -0.900304 2.84075 0
M  V30 1417 H 133.55 -0.43318 1.40577 0
M  V30 1418 H 135.508 -3.35409 2.48106 0
M  V30 1419 H 134.138 -2.88975 1.43852 0
M  V30 1420 H 133.19 -1.56816 3.46573 0
M  V30 1421 H 134.502 -2.25415 4.4496 0
M  V30 1422 H 133.656 -4.56566 3.9954 0
M  V30 1423 H 132.395 -3.91215 2.91207 0
M  V30 1424 H 131.4 -2.63063 4.82782 0
M  V30 1425 H 132.625 -3.31468 5.9271 0
M  V30 1426 H 130.571 -4.91065 4.34961 0
M  V30 1427 H 130.488 -4.54452 6.0416 0
M  V30 1428 H 131.756 -5.57499 5.44808 0
M  V30 1429 N 135.985 -1.50799 -0.457987 0
M  V30 1430 C 136.932 -1.70617 -1.5543 0
M  V30 1431 C 137.902 -0.547562 -1.56815 0
M  V30 1432 O 139.087 -0.779647 -1.74144 0
M  V30 1433 C 136.227 -1.81831 -2.93311 0
M  V30 1434 C 135.34 -3.09278 -3.01615 0
M  V30 1435 C 134.475 -3.11209 -4.30491 0
M  V30 1436 C 133.514 -4.33055 -4.32585 0
M  V30 1437 N 132.651 -4.32652 -5.52952 0
M  V30 1438 H 137.491 -2.64207 -1.37836 0
M  V30 1439 H 135.028 -1.30959 -0.669937 0
M  V30 1440 H 136.986 -1.86314 -3.73287 0
M  V30 1441 H 135.616 -0.916685 -3.0951 0
M  V30 1442 H 134.668 -3.14203 -2.1443 0
M  V30 1443 H 135.98 -3.99233 -2.99022 0
M  V30 1444 H 135.134 -3.14494 -5.18824 0
M  V30 1445 H 133.873 -2.19106 -4.35711 0
M  V30 1446 H 132.878 -4.29969 -3.42647 0
M  V30 1447 H 134.103 -5.264 -4.29046 0
M  V30 1448 H 132.049 -3.43409 -5.58933 0
M  V30 1449 H 131.966 -5.16392 -5.52155 0
M  V30 1450 H 133.234 -4.40101 -6.43375 0
M  V30 1451 N 137.463 0.71206 -1.40597 0
M  V30 1452 C 138.395 1.83704 -1.37061 0
M  V30 1453 C 139.408 1.60453 -0.275426 0
M  V30 1454 O 140.597 1.70262 -0.53602 0
M  V30 1455 C 137.697 3.20172 -1.11099 0
M  V30 1456 C 136.87 3.7059 -2.3234 0
M  V30 1457 C 135.929 4.85681 -2.02485 0
M  V30 1458 O 134.955 4.9815 -2.75382 0
M  V30 1459 N 136.157 5.71735 -1.00497 0
M  V30 1460 H 138.922 1.87235 -2.34016 0
M  V30 1461 H 136.483 0.893739 -1.34996 0
M  V30 1462 H 138.475 3.94768 -0.891064 0
M  V30 1463 H 137.045 3.11767 -0.227989 0
M  V30 1464 H 136.265 2.87085 -2.7014 0
M  V30 1465 H 137.553 4.01011 -3.13157 0
M  V30 1466 H 136.951 5.64275 -0.401298 0
M  V30 1467 H 135.508 6.463 -0.844942 0
M  V30 1468 N 138.941 1.26152 0.944643 0
M  V30 1469 C 140.189 1.11271 1.6871 0
M  V30 1470 C 140.51 -0.345166 1.91921 0
M  V30 1471 O 139.78 -1.24387 1.51343 0
M  V30 1472 H 138.36 0.408783 0.625224 0
M  V30 1473 H 141.022 1.58427 1.1352 0
M  V30 1474 H 140.118 1.62879 2.66227 0
M  V30 1475 N 140.419 -1.14872 1.07899 0
M  V30 1476 C 141.667 -1.85422 0.803941 0
M  V30 1477 C 141.988 -1.83051 -0.67211 0
M  V30 1478 O 141.258 -1.27532 -1.48703 0
M  V30 1479 H 139.838 -0.686537 0.294408 0
M  V30 1480 H 142.5 -1.39226 1.3639 0
M  V30 1481 H 141.596 -2.90399 1.14346 0
M  V30 1482 N 141.898 -0.863906 -1.31812 0
M  V30 1483 C 142.828 -0.330843 -2.31144 0
M  V30 1484 C 143.809 0.575005 -1.60087 0
M  V30 1485 O 144.994 0.493304 -1.8783 0
M  V30 1486 C 142.124 0.47374 -3.44054 0
M  V30 1487 C 141.078 -0.338481 -4.26659 0
M  V30 1488 C 140.404 0.591412 -5.31419 0
M  V30 1489 C 141.704 -1.56926 -4.98168 0
M  V30 1490 H 143.398 -1.16086 -2.75979 0
M  V30 1491 H 140.944 -0.559657 -1.32679 0
M  V30 1492 H 142.897 0.857143 -4.12591 0
M  V30 1493 H 141.621 1.33721 -2.9797 0
M  V30 1494 H 140.28 -0.703754 -3.59782 0
M  V30 1495 H 139.928 1.45199 -4.81587 0
M  V30 1496 H 139.628 0.0519022 -5.87577 0
M  V30 1497 H 141.152 0.97179 -6.02817 0
M  V30 1498 H 142.566 -1.25764 -5.59336 0
M  V30 1499 H 140.963 -2.04739 -5.64094 0
M  V30 1500 H 142.033 -2.32544 -4.25501 0
M  V30 1501 N 143.376 1.44774 -0.622745 0
M  V30 1502 C 144.624 2.01721 -0.123655 0
M  V30 1503 C 144.945 1.49172 1.25589 0
M  V30 1504 O 144.215 0.691974 1.83272 0
M  V30 1505 H 142.795 0.745777 -0.0427225 0
M  V30 1506 H 145.457 1.77382 -0.807559 0
M  V30 1507 H 144.553 3.11984 -0.0849534 0
M  V30 1508 N 144.854 0.36279 1.53368 0
M  V30 1509 C 146.265 -0.117022 1.86333 0
M  V30 1510 C 146.616 -1.48397 1.28347 0
M  V30 1511 O 145.741 -2.07787 0.604428 0
M  V30 1512 C 146.336 -0.21912 3.38091 0
M  V30 1513 C 144.895 -0.643184 3.70864 0
M  V30 1514 C 144.042 0.211318 2.76494 0
M  V30 1515 H 146.993 0.581687 1.47655 0
M  V30 1516 H 147.014 -1.04319 3.6592 0
M  V30 1517 H 146.526 0.775902 3.80265 0
M  V30 1518 H 144.627 -1.64654 3.34245 0
M  V30 1519 H 144.74 -0.41973 4.77258 0
M  V30 1520 H 143.104 -0.319367 2.5269 0
M  V30 1521 H 143.887 1.20383 3.21501 0
M  V30 1522 N 146.332 -1.57332 0.0918853 0
M  V30 1523 C 147.265 -2.09499 -0.904735 0
M  V30 1524 C 148.243 -1.00479 -1.27839 0
M  V30 1525 O 149.427 -1.27954 -1.38419 0
M  V30 1526 C 146.554 -2.56931 -2.2069 0
M  V30 1527 C 145.6 -3.77579 -1.98334 0
M  V30 1528 S 146.433 -5.21317 -1.22428 0
M  V30 1529 C 147.589 -5.72097 -2.53882 0
M  V30 1530 H 147.822 -2.93705 -0.460922 0
M  V30 1531 H 145.355 -1.53923 -0.121332 0
M  V30 1532 H 147.313 -2.84917 -2.95521 0
M  V30 1533 H 145.974 -1.72956 -2.62192 0
M  V30 1534 H 145.167 -4.08824 -2.94752 0
M  V30 1535 H 144.769 -3.5007 -1.31633 0
M  V30 1536 H 147.061 -5.80168 -3.49874 0
M  V30 1537 H 148.004 -6.70654 -2.27219 0
M  V30 1538 H 148.412 -5.00012 -2.62007 0
M  V30 1539 N 147.81 0.181792 -1.56548 0
M  V30 1540 C 148.758 1.24461 -1.965 0
M  V30 1541 C 149.752 1.464 -0.852261 0
M  V30 1542 O 150.958 1.47103 -1.03733 0
M  V30 1543 H 147.333 0.418138 -0.625031 0
M  V30 1544 H 149.304 0.880714 -2.85107 0
M  V30 1545 C 148.053 2.57891 -2.33212 0
M  V30 1546 H 147.376 2.41829 -3.18369 0
M  V30 1547 H 148.816 3.3097 -2.65019 0
M  V30 1548 C 147.275 3.15871 -1.17163 0
M  V30 1549 O 147.805 3.9913 -0.453708 0
M  V30 1550 N 146.011 2.74808 -0.944936 0
M  V30 1551 H 145.558 2.07205 -1.53049 0
M  V30 1552 H 145.516 3.13939 -0.170286 0
M  V30 1553 N 149.288 1.51039 0.449983 0
M  V30 1554 C 150.537 1.62317 1.19733 0
M  V30 1555 C 150.85 0.339101 1.92638 0
M  V30 1556 O 152.056 0.331069 2.69474 0
M  V30 1557 C 150.512 2.86608 2.17678 0
M  V30 1558 C 150.12 4.21972 1.50479 0
M  V30 1559 C 151.864 3.07239 2.92924 0
M  V30 1560 C 149.771 5.37426 2.46834 0
M  V30 1561 H 148.701 0.604532 0.450619 0
M  V30 1562 H 151.352 1.77494 0.465625 0
M  V30 1563 H 149.734 2.65037 2.94231 0
M  V30 1564 H 150.908 4.53878 0.795716 0
M  V30 1565 H 149.223 4.07117 0.874344 0
M  V30 1566 H 151.82 3.90668 3.65079 0
M  V30 1567 H 152.163 2.19807 3.5354 0
M  V30 1568 H 152.696 3.29091 2.23481 0
M  V30 1569 H 149.435 6.27079 1.90926 0
M  V30 1570 H 148.955 5.09912 3.15832 0
M  V30 1571 H 150.634 5.68862 3.08228 0
M  V30 1572 N 150.766 -0.704594 1.40972 0
M  V30 1573 C 152.177 -1.28418 1.3552 0
M  V30 1574 C 152.528 -1.96171 0.0339434 0
M  V30 1575 O 151.653 -1.98231 -0.867944 0
M  V30 1576 C 152.248 -2.33528 2.45459 0
M  V30 1577 C 150.807 -2.87085 2.43433 0
M  V30 1578 C 149.954 -1.61007 2.2577 0
M  V30 1579 H 152.905 -0.499963 1.50619 0
M  V30 1580 H 152.926 -3.14619 2.13998 0
M  V30 1581 H 152.438 -1.84187 3.41609 0
M  V30 1582 H 150.539 -3.40626 1.51013 0
M  V30 1583 H 150.652 -3.3813 3.39419 0
M  V30 1584 H 149.016 -1.86482 1.73483 0
M  V30 1585 H 149.799 -1.13675 3.23933 0
M  V30 1586 N 152.244 -1.26651 -0.937939 0
M  V30 1587 C 153.174 -1.10993 -2.05433 0
M  V30 1588 C 154.155 -0.0142161 -1.70094 0
M  V30 1589 O 155.34 -0.186837 -1.93299 0
M  V30 1590 C 152.47 -0.745561 -3.39203 0
M  V30 1591 C 151.424 -1.79337 -3.88616 0
M  V30 1592 C 150.75 -1.28324 -5.19073 0
M  V30 1593 C 152.05 -3.19553 -4.13138 0
M  V30 1594 H 153.744 -2.0438 -2.1879 0
M  V30 1595 H 151.29 -0.984041 -1.05131 0
M  V30 1596 H 153.243 -0.622888 -4.16771 0
M  V30 1597 H 151.967 0.22401 -3.25831 0
M  V30 1598 H 150.626 -1.90477 -3.13231 0
M  V30 1599 H 150.274 -0.303414 -5.02084 0
M  V30 1600 H 149.974 -1.98369 -5.53103 0
M  V30 1601 H 151.498 -1.1733 -5.99221 0
M  V30 1602 H 152.912 -3.11471 -4.81309 0
M  V30 1603 H 151.309 -3.87218 -4.58457 0
M  V30 1604 H 152.379 -3.65368 -3.18801 0
M  V30 1605 N 153.722 1.14298 -1.08507 0
M  V30 1606 C 154.968 1.85633 -0.816581 0
M  V30 1607 C 155.301 1.82784 0.656021 0
M  V30 1608 O 154.576 1.25926 1.48233 0
M  V30 1609 C 154.859 3.34223 -1.34041 0
M  V30 1610 C 154.712 3.45639 -2.87843 0
M  V30 1611 C 156.031 4.29356 -0.9665 0
M  V30 1612 H 153.15 0.67402 -0.298104 0
M  V30 1613 H 155.792 1.34214 -1.34487 0
M  V30 1614 H 153.942 3.78144 -0.89104 0
M  V30 1615 H 155.614 3.10498 -3.41158 0
M  V30 1616 H 153.857 2.86817 -3.25451 0
M  V30 1617 H 154.528 4.50089 -3.19569 0
M  V30 1618 H 157.004 3.93457 -1.35391 0
M  V30 1619 H 155.88 5.3178 -1.3602 0
M  V30 1620 H 156.141 4.41919 0.126362 0
M  V30 1621 N 155.201 0.870884 1.31352 0
M  V30 1622 C 156.426 0.495957 2.01383 0
M  V30 1623 C 156.851 -0.904324 1.64935 0
M  V30 1624 O 156.209 -1.59687 0.858466 0
M  V30 1625 C 156.257 0.661433 3.54482 0
M  V30 1626 O 155.361 -0.298851 4.11316 0
M  V30 1627 H 154.702 0.197158 0.634054 0
M  V30 1628 H 157.232 1.17455 1.67527 0
M  V30 1629 H 157.242 0.555072 4.04207 0
M  V30 1630 H 155.917 1.68246 3.8035 0
M  V30 1631 H 154.494 -0.147368 3.72609 0
M  V30 1632 N 156.679 -1.44442 0.630414 0
M  V30 1633 C 157.956 -1.9549 0.0655657 0
M  V30 1634 C 158.336 -1.5724 -1.40851 0
M  V30 1635 O 157.684 -0.846116 -2.12257 0
M  V30 1636 C 157.894 -3.47812 0.287691 0
M  V30 1637 C 159.242 -4.24216 0.180513 0
M  V30 1638 O 160.266 -3.55526 0.219019 0
M  V30 1639 O 159.125 -5.46434 0.0848493 0
M  V30 1640 H 156.219 -0.826688 -0.0227177 0
M  V30 1641 H 158.765 -1.54496 0.702068 0
M  V30 1642 H 157.537 -3.687 1.31056 0
M  V30 1643 H 157.16 -3.95751 -0.382984 0
M  V30 1644 N 158.157 -0.370918 -1.53173 0
M  V30 1645 C 159.568 0.107139 -1.86392 0
M  V30 1646 C 159.919 1.47714 -1.29132 0
M  V30 1647 O 159.044 2.07464 -0.615439 0
M  V30 1648 C 159.639 0.201187 -3.38202 0
M  V30 1649 C 158.198 0.623507 -3.712 0
M  V30 1650 C 157.345 -0.225978 -2.76378 0
M  V30 1651 H 160.296 -0.58951 -1.47345 0
M  V30 1652 H 160.317 1.02377 -3.66468 0
M  V30 1653 H 159.829 -0.796058 -3.79848 0
M  V30 1654 H 157.93 1.62879 -3.35114 0
M  V30 1655 H 158.043 0.394414 -4.77474 0
M  V30 1656 H 156.407 0.305962 -2.52856 0
M  V30 1657 H 157.19 -1.22086 -3.20858 0
M  V30 1658 N 159.635 1.57281 -0.100228 0
M  V30 1659 C 160.582 2.14305 0.856858 0
M  V30 1660 C 161.552 1.06296 1.27634 0
M  V30 1661 O 162.737 1.34109 1.35718 0
M  V30 1662 C 159.877 2.73184 2.10866 0
M  V30 1663 C 158.99 3.95442 1.73925 0
M  V30 1664 C 158.125 4.42468 2.93931 0
M  V30 1665 C 157.164 5.57303 2.5314 0
M  V30 1666 N 156.301 5.99158 3.65997 0
M  V30 1667 H 161.141 2.95772 0.363726 0
M  V30 1668 H 158.678 1.46139 0.167858 0
M  V30 1669 H 160.636 3.05442 2.84185 0
M  V30 1670 H 159.266 1.94437 2.57671 0
M  V30 1671 H 158.318 3.69464 0.905554 0
M  V30 1672 H 159.63 4.78769 1.39935 0
M  V30 1673 H 158.784 4.76537 3.75496 0
M  V30 1674 H 157.523 3.58052 3.31134 0
M  V30 1675 H 156.528 5.22857 1.70003 0
M  V30 1676 H 157.753 6.43471 2.17075 0
M  V30 1677 H 155.699 5.17687 4.02909 0
M  V30 1678 H 155.616 6.77295 3.35869 0
M  V30 1679 H 156.884 6.3786 4.48057 0
M  V30 1680 N 161.113 -0.173488 1.56642 0
M  V30 1681 C 162.529 -0.525174 1.50712 0
M  V30 1682 C 162.729 -1.8476 0.804107 0
M  V30 1683 O 161.785 -2.49869 0.363574 0
M  V30 1684 C 163.098 -0.559937 2.95441 0
M  V30 1685 C 164.646 -0.647288 3.06234 0
M  V30 1686 C 165.121 -0.712963 4.52417 0
M  V30 1687 N 166.612 -0.775911 4.56655 0
M  V30 1688 C 167.347 -0.847264 5.67106 0
M  V30 1689 N 166.843 -0.879585 6.87194 0
M  V30 1690 N 168.636 -0.886117 5.55071 0
M  V30 1691 H 160.787 0.693681 2.00753 0
M  V30 1692 H 163.05 0.249841 0.914485 0
M  V30 1693 H 162.756 0.343049 3.50023 0
M  V30 1694 H 162.63 -1.40718 3.49969 0
M  V30 1695 H 165.017 -1.5407 2.51687 0
M  V30 1696 H 165.098 0.226586 2.54794 0
M  V30 1697 H 164.742 0.176183 5.07594 0
M  V30 1698 H 164.672 -1.60295 5.0161 0
M  V30 1699 H 167.163 -0.759304 3.70193 0
M  V30 1700 H 167.476 -0.935144 7.67121 0
M  V30 1701 H 165.821 -0.847898 6.89808 0
M  V30 1702 H 169.012 -0.857853 4.60172 0
M  V30 1703 H 169.185 -0.938263 6.41171 0
M  V30 1704 N 162.591 -1.51276 -0.441967 0
M  V30 1705 C 163.819 -1.67516 -1.21434 0
M  V30 1706 C 164.234 -0.37055 -1.85128 0
M  V30 1707 O 163.591 0.650498 -1.70513 0
M  V30 1708 C 163.642 -2.78748 -2.30177 0
M  V30 1709 O 163.363 -4.04154 -1.69089 0
M  V30 1710 C 164.864 -3.06217 -3.20541 0
M  V30 1711 H 162.084 -0.562276 -0.366178 0
M  V30 1712 H 164.628 -1.97666 -0.524244 0
M  V30 1713 H 162.783 -2.5121 -2.94911 0
M  V30 1714 H 163.197 -4.65894 -2.40922 0
M  V30 1715 H 164.671 -3.8764 -3.92987 0
M  V30 1716 H 165.148 -2.18439 -3.81026 0
M  V30 1717 H 165.754 -3.35397 -2.61513 0
M  V30 1718 N 164.069 0.697108 -1.41344 0
M  V30 1719 C 165.318 1.45279 -1.39918 0
M  V30 1720 C 165.631 1.95597 -0.0109624 0
M  V30 1721 O 166.837 2.71208 0.125919 0
M  V30 1722 C 165.293 2.62695 -2.46007 0
M  V30 1723 C 164.901 2.19169 -3.90729 0
M  V30 1724 C 166.645 3.40336 -2.53715 0
M  V30 1725 C 164.552 3.33535 -4.88373 0
M  V30 1726 H 163.482 0.545692 -0.520323 0
M  V30 1727 H 166.133 0.756929 -1.67161 0
M  V30 1728 H 164.515 3.34541 -2.11892 0
M  V30 1729 H 165.689 1.54623 -4.34083 0
M  V30 1730 H 164.004 1.54525 -3.86666 0
M  V30 1731 H 166.601 4.2547 -3.2385 0
M  V30 1732 H 166.944 3.85418 -1.5735 0
M  V30 1733 H 167.477 2.75546 -2.86913 0
M  V30 1734 H 164.216 2.93468 -5.86137 0
M  V30 1735 H 163.736 3.96936 -4.49668 0
M  V30 1736 H 165.415 3.99335 -5.09059 0
M  V30 1737 N 165.547 1.27147 0.931209 0
M  V30 1738 C 166.51 1.09615 2.01289 0
M  V30 1739 C 167.51 0.0412581 1.60747 0
M  V30 1740 O 168.7 0.285545 1.71844 0
M  V30 1741 C 165.832 0.669447 3.34262 0
M  V30 1742 H 167.025 2.05662 2.18273 0
M  V30 1743 H 164.578 1.09885 1.11153 0
M  V30 1744 H 165.313 -0.292572 3.22978 0
M  V30 1745 H 165.098 1.43127 3.65044 0
M  V30 1746 H 166.588 0.568921 4.13706 0
M  V30 1747 N 167.025 -1.13721 1.09112 0
M  V30 1748 C 167.957 -2.1871 0.685467 0
M  V30 1749 C 168.97 -1.60527 -0.271068 0
M  V30 1750 O 170.159 -1.78407 -0.0576148 0
M  V30 1751 C 167.259 -3.38898 -0.0111255 0
M  V30 1752 C 166.432 -4.26597 0.966131 0
M  V30 1753 C 165.491 -5.25324 0.303539 0
M  V30 1754 O 164.517 -5.61213 0.950177 0
M  V30 1755 N 165.719 -5.72779 -0.943651 0
M  V30 1756 H 168.484 -2.54126 1.58871 0
M  V30 1757 H 166.045 -1.29012 0.978143 0
M  V30 1758 H 168.037 -4.02014 -0.465517 0
M  V30 1759 H 166.607 -3.01747 -0.816565 0
M  V30 1760 H 165.827 -3.60306 1.59917 0
M  V30 1761 H 167.115 -4.82048 1.6281 0
M  V30 1762 H 166.513 -5.45762 -1.48862 0
M  V30 1763 H 165.07 -6.37847 -1.34142 0
M  V30 1764 N 168.503 -0.877838 -1.30888 0
M  V30 1765 C 169.78 -0.413052 -1.91189 0
M  V30 1766 C 170.16 1.1056 -1.79832 0
M  V30 1767 O 169.508 1.93771 -1.21099 0
M  V30 1768 C 169.718 -0.903191 -3.3711 0
M  V30 1769 C 171.066 -0.93395 -4.14201 0
M  V30 1770 O 172.09 -0.849373 -3.45925 0
M  V30 1771 O 170.949 -1.05772 -5.36167 0
M  V30 1772 H 168.043 -0.125035 -0.817493 0
M  V30 1773 H 170.589 -0.966269 -1.39504 0
M  V30 1774 H 169.361 -1.94692 -3.39427 0
M  V30 1775 H 168.984 -0.328732 -3.96239 0
M  V30 1776 N 169.982 1.44106 -0.638065 0
M  V30 1777 C 171.212 2.06037 -0.152394 0
M  V30 1778 C 171.62 1.47808 1.18108 0
M  V30 1779 O 170.963 0.598092 1.73691 0
M  V30 1780 C 171.025 3.59488 0.0293714 0
M  V30 1781 C 170.689 4.4022 -1.22702 0
M  V30 1782 C 171.686 4.73256 -2.15232 0
M  V30 1783 C 169.371 4.8048 -1.46437 0
M  V30 1784 C 171.365 5.45444 -3.29802 0
M  V30 1785 C 169.052 5.52417 -2.61303 0
M  V30 1786 C 170.05 5.84819 -3.52811 0
M  V30 1787 O 169.738 6.55289 -4.65673 0
M  V30 1788 H 169.47 0.671233 -0.0801401 0
M  V30 1789 H 172.024 1.85851 -0.874563 0
M  V30 1790 H 170.254 3.78191 0.806758 0
M  V30 1791 H 171.943 4.03164 0.470475 0
M  V30 1792 H 172.709 4.42684 -1.98131 0
M  V30 1793 H 168.588 4.54676 -0.760977 0
M  V30 1794 H 172.132 5.70653 -4.01249 0
M  V30 1795 H 168.029 5.82404 -2.78344 0
M  V30 1796 H 168.797 6.73762 -4.64744 0
M  V30 1797 N 171.46 0.379036 1.52974 0
M  V30 1798 C 172.708 -0.206014 2.01047 0
M  V30 1799 C 173.029 -1.48175 1.26765 0
M  V30 1800 O 172.299 -1.92085 0.384743 0
M  V30 1801 H 170.879 -0.0791184 0.742798 0
M  V30 1802 H 173.541 0.508366 1.88153 0
M  V30 1803 H 172.637 -0.423501 3.09213 0
M  V30 1804 N 172.938 -1.57226 0.108567 0
M  V30 1805 C 174.184 -1.95121 -0.552761 0
M  V30 1806 C 174.517 -0.991345 -1.66991 0
M  V30 1807 O 173.792 -0.0267211 -1.94482 0
M  V30 1808 C 174.075 -3.43039 -1.09528 0
M  V30 1809 C 173.928 -4.49797 0.0177332 0
M  V30 1810 C 175.247 -3.92567 -1.98945 0
M  V30 1811 H 172.366 -0.709496 -0.199461 0
M  V30 1812 H 175.008 -1.89126 0.182011 0
M  V30 1813 H 173.158 -3.48279 -1.72146 0
M  V30 1814 H 174.83 -4.56661 0.652584 0
M  V30 1815 H 173.073 -4.284 0.682309 0
M  V30 1816 H 173.744 -5.50528 -0.402919 0
M  V30 1817 H 176.22 -3.89565 -1.46214 0
M  V30 1818 H 175.096 -4.96605 -2.33827 0
M  V30 1819 H 175.357 -3.32648 -2.91201 0
M  V30 1820 N 174.416 0.165178 -1.56732 0
M  V30 1821 C 175.346 1.20651 -1.99914 0
M  V30 1822 C 176.327 1.45827 -0.875705 0
M  V30 1823 O 177.512 1.57057 -1.14223 0
M  V30 1824 C 174.642 2.54401 -2.36427 0
M  V30 1825 C 173.596 2.43782 -3.51787 0
M  V30 1826 C 172.922 3.82078 -3.7406 0
M  V30 1827 C 174.222 1.93732 -4.85041 0
M  V30 1828 H 175.916 0.847534 -2.87154 0
M  V30 1829 H 173.462 0.40625 -1.38151 0
M  V30 1830 H 175.415 3.27458 -2.65234 0
M  V30 1831 H 174.139 2.92098 -1.46103 0
M  V30 1832 H 172.798 1.73178 -3.23117 0
M  V30 1833 H 172.446 4.17179 -2.81017 0
M  V30 1834 H 172.146 3.7584 -4.51684 0
M  V30 1835 H 173.67 4.56712 -4.05274 0
M  V30 1836 H 175.084 2.56569 -5.12684 0
M  V30 1837 H 173.481 1.98428 -5.66345 0
M  V30 1838 H 174.551 0.891962 -4.76626 0
M  V30 1839 N 175.894 1.51508 0.433938 0
M  V30 1840 C 176.841 1.73068 1.52696 0
M  V30 1841 C 177.811 0.572441 1.55924 0
M  V30 1842 O 178.996 0.807253 1.72882 0
M  V30 1843 C 176.136 1.86474 2.90381 0
M  V30 1844 C 175.249 3.14037 2.96656 0
M  V30 1845 C 174.384 3.18019 4.25485 0
M  V30 1846 C 173.423 4.39882 4.2564 0
M  V30 1847 N 172.56 4.41394 5.45999 0
M  V30 1848 H 177.4 2.66366 1.33615 0
M  V30 1849 H 174.937 1.32008 0.649018 0
M  V30 1850 H 176.895 1.92229 3.70275 0
M  V30 1851 H 175.525 0.965809 3.08013 0
M  V30 1852 H 174.577 3.17575 2.09404 0
M  V30 1853 H 175.889 4.0394 2.92633 0
M  V30 1854 H 175.043 3.22708 5.13755 0
M  V30 1855 H 173.782 2.2601 4.3217 0
M  V30 1856 H 172.787 4.35366 3.35763 0
M  V30 1857 H 174.012 5.33159 4.20617 0
M  V30 1858 H 171.958 3.52258 5.53399 0
M  V30 1859 H 171.875 5.25111 5.4387 0
M  V30 1860 H 173.143 4.50281 6.36292 0
M  V30 1861 N 177.372 -0.689602 1.41712 0
M  V30 1862 C 178.335 -1.78521 1.43746 0
M  V30 1863 C 179.335 -1.57436 0.327191 0
M  V30 1864 O 180.525 -1.64 0.587348 0
M  V30 1865 C 177.657 -3.16971 1.25467 0
M  V30 1866 H 178.85 -1.78108 2.41283 0
M  V30 1867 H 176.403 -0.89781 1.27942 0
M  V30 1868 H 177.138 -3.23019 0.287948 0
M  V30 1869 H 176.923 -3.33678 2.05917 0
M  V30 1870 H 178.413 -3.96935 1.2974 0
M  V30 1871 N 178.85 -1.27639 -0.924453 0
M  V30 1872 C 180.127 -1.04887 -1.651 0
M  V30 1873 C 180.507 0.415327 -2.06974 0
M  V30 1874 O 179.855 1.39923 -1.80648 0
M  V30 1875 C 180.065 -2.01348 -2.85061 0
M  V30 1876 C 181.413 -2.30899 -3.56329 0
M  V30 1877 O 182.437 -1.99348 -2.95193 0
M  V30 1878 O 181.296 -2.84699 -4.66485 0
M  V30 1879 H 178.39 -0.400083 -0.723784 0
M  V30 1880 H 180.936 -1.38916 -0.974703 0
M  V30 1881 H 179.708 -3.0008 -2.51133 0
M  V30 1882 H 179.331 -1.679 -3.6041 0
M  V30 1883 N 180.328 1.1314 -1.09713 0
M  V30 1884 C 181.238 2.22242 -0.751367 0
M  V30 1885 C 182.254 1.72224 0.247938 0
M  V30 1886 O 183.43 2.01205 0.0885463 0
M  V30 1887 C 180.495 3.46231 -0.180274 0
M  V30 1888 C 179.556 4.11125 -1.2359 0
M  V30 1889 C 178.789 5.29195 -0.691966 0
M  V30 1890 O 179.012 5.68342 0.48414 0
M  V30 1891 O 177.946 5.84214 -1.44838 0
M  V30 1892 H 181.772 2.54197 -1.66186 0
M  V30 1893 H 179.357 1.21331 -0.871735 0
M  V30 1894 H 181.239 4.21185 0.134739 0
M  V30 1895 H 179.914 3.1597 0.703185 0
M  V30 1896 H 178.821 3.37985 -1.60366 0
M  V30 1897 H 180.154 4.45524 -2.09211 0
M  V30 1898 N 181.806 0.884767 1.30421 0
M  V30 1899 C 183.054 0.502112 1.95763 0
M  V30 1900 C 183.375 -0.951815 1.70192 0
M  V30 1901 O 182.645 -1.6692 1.0254 0
M  V30 1902 H 181.225 0.182694 0.724315 0
M  V30 1903 H 183.887 1.1278 1.58955 0
M  V30 1904 H 182.983 0.672188 3.04775 0
M  V30 1905 N 183.284 -1.43765 0.645699 0
M  V30 1906 C 184.533 -2.01116 0.153412 0
M  V30 1907 C 184.846 -1.51493 -1.23731 0
M  V30 1908 O 186.052 -2.01067 -1.8244 0
M  V30 1909 C 184.508 -3.59206 0.223473 0
M  V30 1910 C 184.116 -4.17823 1.61642 0
M  V30 1911 C 185.86 -4.23972 -0.211597 0
M  V30 1912 C 183.767 -5.68183 1.64081 0
M  V30 1913 H 182.697 -0.752093 0.0535891 0
M  V30 1914 H 185.348 -1.6482 0.806633 0
M  V30 1915 H 183.73 -3.92867 -0.497118 0
M  V30 1916 H 184.904 -3.95674 2.36176 0
M  V30 1917 H 183.219 -3.65399 1.99681 0
M  V30 1918 H 185.816 -5.34275 -0.213112 0
M  V30 1919 H 186.159 -3.97352 -1.24165 0
M  V30 1920 H 186.692 -3.95166 0.456988 0
M  V30 1921 H 183.431 -5.99559 2.64971 0
M  V30 1922 H 182.951 -5.9241 0.938611 0
M  V30 1923 H 184.63 -6.32085 1.3812 0
M  V30 1924 N 184.763 -0.387143 -1.52771 0
M  V30 1925 C 185.988 0.198407 -2.06449 0
M  V30 1926 C 186.413 1.39918 -1.25716 0
M  V30 1927 O 185.771 1.79099 -0.281657 0
M  V30 1928 C 185.819 0.548893 -3.56398 0
M  V30 1929 O 184.923 1.64315 -3.78252 0
M  V30 1930 H 184.264 0.0237731 -0.663574 0
M  V30 1931 H 186.794 -0.553989 -1.96957 0
M  V30 1932 H 186.804 0.813812 -3.99801 0
M  V30 1933 H 185.479 -0.329005 -4.14597 0
M  V30 1934 H 184.056 1.37211 -3.46738 0
M  V30 1935 N 186.241 1.57166 -0.116904 0
M  V30 1936 C 187.488 1.95123 0.541603 0
M  V30 1937 C 187.816 1.00006 1.6682 0
M  V30 1938 O 187.071 0.0235658 1.95686 0
M  V30 1939 C 187.37 3.39508 1.11664 0
M  V30 1940 C 187.036 4.50762 0.111606 0
M  V30 1941 C 185.698 4.80918 -0.164758 0
M  V30 1942 C 188.05 5.18036 -0.573438 0
M  V30 1943 C 185.378 5.75666 -1.13249 0
M  V30 1944 C 187.73 6.13824 -1.52978 0
M  V30 1945 C 186.394 6.42374 -1.81415 0
M  V30 1946 H 185.664 0.714005 0.198187 0
M  V30 1947 H 188.311 1.9048 -0.197365 0
M  V30 1948 H 186.616 3.40835 1.93232 0
M  V30 1949 H 188.313 3.66189 1.63422 0
M  V30 1950 H 184.903 4.27272 0.337192 0
M  V30 1951 H 189.087 4.94896 -0.373092 0
M  V30 1952 H 184.343 5.96092 -1.35958 0
M  V30 1953 H 188.517 6.65039 -2.06629 0
M  V30 1954 H 186.144 7.15599 -2.56557 0
M  V30 1955 N 187.719 -0.156864 1.56817 0
M  V30 1956 C 189.135 -0.50916 1.5126 0
M  V30 1957 C 189.335 -1.83897 0.823658 0
M  V30 1958 O 188.391 -2.49469 0.390055 0
M  V30 1959 C 189.704 -0.52857 2.96018 0
M  V30 1960 C 191.252 -0.614771 3.06903 0
M  V30 1961 C 191.727 -0.664938 4.53147 0
M  V30 1962 N 193.218 -0.727433 4.57452 0
M  V30 1963 C 193.953 -0.787067 5.67973 0
M  V30 1964 N 193.449 -0.806649 6.88088 0
M  V30 1965 N 195.242 -0.827195 5.5598 0
M  V30 1966 H 187.393 0.714935 2.00006 0
M  V30 1967 H 189.656 0.259526 0.911784 0
M  V30 1968 H 189.362 0.380154 3.49639 0
M  V30 1969 H 189.236 -1.36998 3.51442 0
M  V30 1970 H 191.623 -1.51392 2.53307 0
M  V30 1971 H 191.704 0.253597 2.5454 0
M  V30 1972 H 191.348 0.230011 5.07379 0
M  V30 1973 H 191.278 -1.54966 5.03282 0
M  V30 1974 H 193.769 -0.719998 3.70978 0
M  V30 1975 H 194.082 -0.853727 7.6807 0
M  V30 1976 H 192.427 -0.774687 6.90669 0
M  V30 1977 H 195.618 -0.808998 4.61056 0
M  V30 1978 H 195.791 -0.870206 6.4213 0
M  V30 1979 N 189.197 -1.51736 -0.425897 0
M  V30 1980 C 190.445 -1.64644 -1.17204 0
M  V30 1981 C 190.766 -0.370486 -1.91448 0
M  V30 1982 O 190.036 0.614088 -1.86026 0
M  V30 1983 H 188.616 -0.606819 -0.435638 0
M  V30 1984 H 191.278 -1.88713 -0.487177 0
M  V30 1985 H 190.374 -2.47958 -1.89534 0
M  V30 1986 N 190.675 0.682077 -1.42076 0
M  V30 1987 C 191.605 1.80796 -1.47767 0
M  V30 1988 C 192.586 1.6677 -0.334954 0
M  V30 1989 O 193.771 1.863 -0.548264 0
M  V30 1990 C 190.901 3.19038 -1.37229 0
M  V30 1991 C 189.855 3.47789 -2.49453 0
M  V30 1992 C 189.181 4.8553 -2.23975 0
M  V30 1993 C 190.481 3.45411 -3.91776 0
M  V30 1994 H 192.175 1.7629 -2.41997 0
M  V30 1995 H 189.721 0.846721 -1.16476 0
M  V30 1996 H 191.674 3.97528 -1.39821 0
M  V30 1997 H 190.398 3.24204 -0.394907 0
M  V30 1998 H 189.057 2.71657 -2.46166 0
M  V30 1999 H 188.705 4.87337 -1.24547 0
M  V30 2000 H 188.405 5.0573 -2.99184 0
M  V30 2001 H 189.929 5.66312 -2.28304 0
M  V30 2002 H 191.343 4.13882 -3.96705 0
M  V30 2003 H 189.74 3.77145 -4.66778 0
M  V30 2004 H 190.81 2.44122 -4.18966 0
M  V30 2005 N 192.153 1.28127 0.917671 0
M  V30 2006 C 193.4 1.15052 1.66641 0
M  V30 2007 C 193.728 -0.301677 1.92146 0
M  V30 2008 O 192.983 -1.23622 1.51711 0
M  V30 2009 C 193.282 1.89018 3.03327 0
M  V30 2010 C 192.948 3.38832 2.97496 0
M  V30 2011 C 191.61 3.79693 2.95613 0
M  V30 2012 C 193.962 4.34378 2.88036 0
M  V30 2013 C 191.29 5.14447 2.82066 0
M  V30 2014 C 193.642 5.69201 2.7603 0
M  V30 2015 C 192.306 6.09343 2.72502 0
M  V30 2016 H 191.576 0.421006 0.609783 0
M  V30 2017 H 194.223 1.58855 1.06945 0
M  V30 2018 H 192.528 1.37752 3.66785 0
M  V30 2019 H 194.225 1.76321 3.60156 0
M  V30 2020 H 190.815 3.06342 2.99754 0
M  V30 2021 H 194.999 4.03775 2.88581 0
M  V30 2022 H 190.255 5.44681 2.77728 0
M  V30 2023 H 194.429 6.42901 2.67678 0
M  V30 2024 H 192.056 7.13712 2.61762 0
M  V30 2025 N 193.631 -1.12557 1.10312 0
M  V30 2026 C 194.88 -1.83395 0.839588 0
M  V30 2027 C 195.193 -1.84939 -0.636929 0
M  V30 2028 O 196.399 -2.51761 -1.01631 0
M  V30 2029 C 194.855 -3.29303 1.45215 0
M  V30 2030 C 194.463 -3.36122 2.96186 0
M  V30 2031 C 196.207 -4.05121 1.26796 0
M  V30 2032 C 194.114 -4.76357 3.50483 0
M  V30 2033 H 193.044 -0.687133 0.310425 0
M  V30 2034 H 195.695 -1.26746 1.32694 0
M  V30 2035 H 194.077 -3.85812 0.892469 0
M  V30 2036 H 195.251 -2.89559 3.58458 0
M  V30 2037 H 193.566 -2.73776 3.13745 0
M  V30 2038 H 196.163 -5.08668 1.64806 0
M  V30 2039 H 196.506 -4.15773 0.209409 0
M  V30 2040 H 197.039 -3.54967 1.79563 0
M  V30 2041 H 193.778 -4.70899 4.55998 0
M  V30 2042 H 193.298 -5.23377 2.92978 0
M  V30 2043 H 194.977 -5.45294 3.48228 0
M  V30 2044 N 195.109 -0.891671 -1.2995 0
M  V30 2045 C 196.358 -0.509521 -1.95158 0
M  V30 2046 C 196.671 0.947388 -1.71125 0
M  V30 2047 O 197.877 1.43669 -2.30372 0
M  V30 2048 C 196.333 -0.860315 -3.49466 0
M  V30 2049 C 195.941 -2.33545 -3.8231 0
M  V30 2050 C 197.685 -0.547687 -4.20952 0
M  V30 2051 C 195.592 -2.62752 -5.29826 0
M  V30 2052 H 194.522 -0.18682 -0.730489 0
M  V30 2053 H 197.173 -1.08756 -1.47798 0
M  V30 2054 H 195.555 -0.211285 -3.95436 0
M  V30 2055 H 196.729 -3.02936 -3.47227 0
M  V30 2056 H 195.044 -2.61629 -3.23944 0
M  V30 2057 H 197.641 -0.742854 -5.29515 0
M  V30 2058 H 197.984 0.51332 -4.13123 0
M  V30 2059 H 198.517 -1.1542 -3.80688 0
M  V30 2060 H 195.256 -3.6762 -5.42712 0
M  V30 2061 H 194.776 -1.97977 -5.66185 0
M  V30 2062 H 196.455 -2.48601 -5.97333 0
M  V30 2063 N 196.587 1.43421 -0.653314 0
M  V30 2064 C 197.864 1.95361 -0.0966581 0
M  V30 2065 C 198.244 1.59461 1.38331 0
M  V30 2066 O 197.592 0.879777 2.10884 0
M  V30 2067 C 197.802 3.47311 -0.342988 0
M  V30 2068 C 199.15 4.23875 -0.24798 0
M  V30 2069 O 200.174 3.55133 -0.275553 0
M  V30 2070 O 199.033 5.4623 -0.171771 0
M  V30 2071 H 196.127 0.826945 0.00956291 0
M  V30 2072 H 198.673 1.5336 -0.726558 0
M  V30 2073 H 197.445 3.66569 -1.36906 0
M  V30 2074 H 197.068 3.9631 0.319975 0
M  V30 2075 N 198.065 0.39524 1.52563 0
M  V30 2076 C 199.342 -0.242908 1.94086 0
M  V30 2077 C 199.722 -1.63841 1.33114 0
M  V30 2078 O 199.07 -2.22928 0.501529 0
M  V30 2079 C 199.28 -0.26327 3.48006 0
M  V30 2080 C 200.628 -0.489354 4.21771 0
M  V30 2081 O 201.652 -0.343226 3.54543 0
M  V30 2082 O 200.511 -0.776169 5.4096 0
M  V30 2083 H 197.605 -0.152536 0.812811 0
M  V30 2084 H 200.151 0.450178 1.6362 0
M  V30 2085 H 198.923 0.713985 3.84731 0
M  V30 2086 H 198.546 -1.00103 3.84792 0
M  V30 2087 N 199.544 -1.57102 0.125237 0
M  V30 2088 C 200.491 -2.15641 -0.822655 0
M  V30 2089 C 201.461 -1.08313 -1.25927 0
M  V30 2090 O 202.646 -1.36251 -1.33567 0
M  V30 2091 C 199.786 -2.76504 -2.06494 0
M  V30 2092 C 198.899 -3.98158 -1.67612 0
M  V30 2093 C 198.034 -4.47088 -2.86854 0
M  V30 2094 C 197.073 -5.6126 -2.44242 0
M  V30 2095 N 196.21 -6.04905 -3.56419 0
M  V30 2096 H 201.05 -2.96313 -0.316625 0
M  V30 2097 H 198.587 -1.46388 -0.144588 0
M  V30 2098 H 200.545 -3.09925 -2.79289 0
M  V30 2099 H 199.175 -1.98512 -2.54545 0
M  V30 2100 H 198.227 -3.70858 -0.846661 0
M  V30 2101 H 199.539 -4.80934 -1.32301 0
M  V30 2102 H 198.693 -4.82451 -3.67867 0
M  V30 2103 H 197.432 -3.63275 -3.25396 0
M  V30 2104 H 196.437 -5.25495 -1.61663 0
M  V30 2105 H 197.662 -6.46843 -2.0681 0
M  V30 2106 H 195.608 -5.24032 -3.94623 0
M  V30 2107 H 195.525 -6.82552 -3.25051 0
M  V30 2108 H 196.793 -6.44907 -4.37853 0
M  V30 2109 N 201.022 0.148545 -1.56898 0
M  V30 2110 C 202.27 0.859717 -1.82902 0
M  V30 2111 C 202.591 1.81775 -0.70588 0
M  V30 2112 O 201.861 1.93994 0.272586 0
M  V30 2113 H 200.441 0.320469 -0.674766 0
M  V30 2114 H 203.103 0.142918 -1.94375 0
M  V30 2115 H 202.199 1.4229 -2.77777 0
M  V30 2116 N 202.5 1.5196 0.417844 0
M  V30 2117 C 203.749 1.6482 1.16264 0
M  V30 2118 C 204.062 0.379886 1.91876 0
M  V30 2119 O 205.268 0.388154 2.68711 0
M  V30 2120 C 203.724 2.91161 2.1155 0
M  V30 2121 C 203.332 4.25068 1.41495 0
M  V30 2122 C 205.076 3.13383 2.86341 0
M  V30 2123 C 202.983 5.42541 2.35379 0
M  V30 2124 H 201.913 0.613954 0.437694 0
M  V30 2125 H 204.564 1.78442 0.427871 0
M  V30 2126 H 202.946 2.71218 2.88543 0
M  V30 2127 H 204.12 4.55463 0.699263 0
M  V30 2128 H 202.435 4.0888 0.787792 0
M  V30 2129 H 205.032 3.98324 3.5671 0
M  V30 2130 H 205.375 2.27256 3.48798 0
M  V30 2131 H 205.908 3.33757 2.1645 0
M  V30 2132 H 202.647 6.30987 1.77582 0
M  V30 2133 H 202.167 5.16497 3.04945 0
M  V30 2134 H 203.846 5.75272 2.96093 0
M  V30 2135 N 203.978 -0.674533 1.42435 0
M  V30 2136 C 204.908 -1.80009 1.48724 0
M  V30 2137 C 205.889 -1.6659 0.343793 0
M  V30 2138 O 207.074 -1.86007 0.558137 0
M  V30 2139 C 204.204 -3.18306 1.38919 0
M  V30 2140 C 203.158 -3.46461 2.51294 0
M  V30 2141 C 202.484 -4.84335 2.26547 0
M  V30 2142 C 203.784 -3.43328 3.93603 0
M  V30 2143 H 205.478 -1.75004 2.42928 0
M  V30 2144 H 203.024 -0.840533 1.16923 0
M  V30 2145 H 204.977 -3.9678 1.41927 0
M  V30 2146 H 203.701 -3.2399 0.412094 0
M  V30 2147 H 202.36 -2.70348 2.47604 0
M  V30 2148 H 202.008 -4.86669 1.2713 0
M  V30 2149 H 201.708 -5.04136 3.01861 0
M  V30 2150 H 203.232 -5.65094 2.31304 0
M  V30 2151 H 204.646 -4.11772 3.98894 0
M  V30 2152 H 203.043 -3.74664 4.68771 0
M  V30 2153 H 204.113 -2.41897 4.20255 0
M  V30 2154 N 205.456 -1.28612 -0.910864 0
M  V30 2155 C 206.872 -1.06381 -1.18976 0
M  V30 2156 C 207.072 0.191998 -2.00583 0
M  V30 2157 O 206.128 0.892869 -2.36187 0
M  V30 2158 C 207.441 -2.31295 -1.92154 0
M  V30 2159 C 208.989 -2.36503 -2.05025 0
M  V30 2160 C 209.464 -3.61191 -2.81612 0
M  V30 2161 N 210.955 -3.61847 -2.89172 0
M  V30 2162 C 211.69 -4.55004 -3.4894 0
M  V30 2163 N 211.186 -5.58482 -4.09963 0
M  V30 2164 N 212.979 -4.42594 -3.46506 0
M  V30 2165 H 205.13 -2.09221 -0.366094 0
M  V30 2166 H 207.393 -0.921003 -0.224629 0
M  V30 2167 H 207.099 -3.228 -1.39618 0
M  V30 2168 H 206.973 -2.37934 -2.9269 0
M  V30 2169 H 209.36 -1.45494 -2.5674 0
M  V30 2170 H 209.441 -2.33857 -1.03657 0
M  V30 2171 H 209.085 -4.52545 -2.30576 0
M  V30 2172 H 209.015 -3.61092 -3.83302 0
M  V30 2173 H 211.506 -2.87022 -2.45819 0
M  V30 2174 H 211.819 -6.25704 -4.53557 0
M  V30 2175 H 210.164 -5.62305 -4.08459 0
M  V30 2176 H 213.355 -3.60953 -2.98045 0
M  V30 2177 H 213.528 -5.15381 -3.92793 0
M  V30 2178 N 206.934 1.1197 -1.10907 0
M  V30 2179 C 207.866 2.17592 -0.720175 0
M  V30 2180 C 208.879 1.60938 0.245495 0
M  V30 2181 O 210.068 1.78476 0.0292245 0
M  V30 2182 C 207.168 3.38873 -0.0427917 0
M  V30 2183 C 206.341 4.25006 -1.03388 0
M  V30 2184 C 205.4 5.24774 -0.387075 0
M  V30 2185 O 204.426 5.59631 -1.03934 0
M  V30 2186 N 205.628 5.74208 0.852407 0
M  V30 2187 H 208.393 2.51567 -1.62893 0
M  V30 2188 H 205.954 1.27439 -0.998543 0
M  V30 2189 H 207.946 4.02703 0.401501 0
M  V30 2190 H 206.516 3.03007 0.768456 0
M  V30 2191 H 205.736 3.57716 -1.65629 0
M  V30 2192 H 207.024 4.79397 -1.70458 0
M  V30 2193 H 206.422 5.48062 1.40161 0
M  V30 2194 H 204.979 6.39901 1.23977 0
M  V30 2195 N 208.412 0.89855 1.29475 0
M  V30 2196 C 209.661 0.519863 1.94885 0
M  V30 2197 C 209.974 -0.9383 1.71625 0
M  V30 2198 O 211.18 -1.42445 2.31131 0
M  V30 2199 C 209.636 0.878836 3.49005 0
M  V30 2200 C 209.244 2.35569 3.81066 0
M  V30 2201 C 210.988 0.570004 4.20656 0
M  V30 2202 C 208.895 2.65558 5.28425 0
M  V30 2203 H 207.825 0.190692 0.729488 0
M  V30 2204 H 210.476 1.09539 1.47219 0
M  V30 2205 H 208.858 0.232253 3.95318 0
M  V30 2206 H 210.032 3.04773 3.45616 0
M  V30 2207 H 208.347 2.63343 3.22552 0
M  V30 2208 H 210.944 0.770925 5.29113 0
M  V30 2209 H 211.287 -0.491404 4.1339 0
M  V30 2210 H 211.82 1.17438 3.8007 0
M  V30 2211 H 208.559 3.70493 5.40754 0
M  V30 2212 H 208.079 2.00977 5.65127 0
M  V30 2213 H 209.758 2.51765 5.96006 0
M  V30 2214 N 209.89 -1.43072 0.660911 0
M  V30 2215 C 211.118 -2.06067 0.185422 0
M  V30 2216 C 211.533 -1.49582 -1.15198 0
M  V30 2217 O 210.89 -0.630134 -1.71276 0
M  V30 2218 C 210.941 -3.61371 0.0966523 0
M  V30 2219 O 210.662 -4.15758 1.38119 0
M  V30 2220 C 212.163 -4.41455 -0.403996 0
M  V30 2221 H 209.383 -0.664459 0.0934604 0
M  V30 2222 H 211.927 -1.83447 0.90373 0
M  V30 2223 H 210.082 -3.8315 -0.572259 0
M  V30 2224 H 210.496 -5.09499 1.24542 0
M  V30 2225 H 211.97 -5.50437 -0.415045 0
M  V30 2226 H 212.447 -4.15036 -1.43674 0
M  V30 2227 H 213.053 -4.24663 0.232691 0
M  V30 2228 N 211.368 -0.403325 -1.52352 0
M  V30 2229 C 212.614 0.174605 -2.02047 0
M  V30 2230 C 212.947 1.45282 -1.28867 0
M  V30 2231 O 212.222 1.90483 -0.393257 0
M  V30 2232 C 212.505 0.428238 -3.57545 0
M  V30 2233 C 212.358 -0.866248 -4.4138 0
M  V30 2234 C 213.677 1.21287 -4.23057 0
M  V30 2235 H 210.796 0.0619851 -0.734389 0
M  V30 2236 H 213.438 -0.53565 -1.82293 0
M  V30 2237 H 211.588 1.03327 -3.74507 0
M  V30 2238 H 213.26 -1.50265 -4.3614 0
M  V30 2239 H 211.503 -1.47851 -4.07827 0
M  V30 2240 H 212.174 -0.643249 -5.48239 0
M  V30 2241 H 214.65 0.700703 -4.10158 0
M  V30 2242 H 213.526 1.35909 -5.31808 0
M  V30 2243 H 213.787 2.23193 -3.81625 0
M  V30 2244 N 212.846 1.57033 -0.133567 0
M  V30 2245 C 213.794 2.17348 0.828412 0
M  V30 2246 C 214.788 1.12671 1.26498 0
M  V30 2247 O 215.994 1.30947 1.23502 0
M  V30 2248 H 212.369 0.695775 0.285309 0
M  V30 2249 H 214.34 2.96935 0.295372 0
M  V30 2250 C 213.089 2.79893 2.06289 0
M  V30 2251 H 212.412 3.60147 1.73592 0
M  V30 2252 H 213.852 3.25615 2.71572 0
M  V30 2253 C 212.311 1.77713 2.86216 0
M  V30 2254 O 212.841 1.23937 3.82103 0
M  V30 2255 N 211.047 1.47321 2.50489 0
M  V30 2256 H 210.594 1.91243 1.7258 0
M  V30 2257 H 210.552 0.79199 3.04261 0
M  V30 2258 N 214.325 -0.140222 1.56975 0
M  V30 2259 C 215.602 -0.880769 1.74648 0
M  V30 2260 C 215.982 -1.99036 0.703404 0
M  V30 2261 O 215.33 -2.26821 -0.27648 0
M  V30 2262 C 215.54 -1.417 3.18939 0
M  V30 2263 C 216.888 -1.87774 3.80823 0
M  V30 2264 O 217.912 -1.51427 3.2241 0
M  V30 2265 O 216.771 -2.54827 4.83452 0
M  V30 2266 H 213.865 -0.416713 0.714338 0
M  V30 2267 H 216.411 -0.125618 1.69234 0
M  V30 2268 H 215.183 -0.619902 3.86359 0
M  V30 2269 H 214.806 -2.23546 3.28805 0
M  V30 2270 N 215.803 -1.52179 -0.40978 0
M  V30 2271 C 216.733 -1.78435 -1.5061 0
M  V30 2272 C 217.714 -0.635295 -1.57791 0
M  V30 2273 O 218.899 -0.880823 -1.73076 0
M  V30 2274 C 216.029 -1.93444 -2.88439 0
M  V30 2275 C 214.983 -3.09038 -2.96108 0
M  V30 2276 C 214.309 -3.09268 -4.36185 0
M  V30 2277 C 215.609 -4.48508 -2.67652 0
M  V30 2278 H 217.303 -2.70237 -1.28889 0
M  V30 2279 H 214.849 -1.30036 -0.618605 0
M  V30 2280 H 216.802 -2.10394 -3.65119 0
M  V30 2281 H 215.526 -0.983129 -3.11452 0
M  V30 2282 H 214.185 -2.91837 -2.21872 0
M  V30 2283 H 213.833 -2.11861 -4.56206 0
M  V30 2284 H 213.533 -3.86907 -4.42241 0
M  V30 2285 H 215.057 -3.28348 -5.14801 0
M  V30 2286 H 216.471 -4.65918 -3.34056 0
M  V30 2287 H 214.868 -5.28059 -2.85085 0
M  V30 2288 H 215.938 -4.56649 -1.63095 0
M  V30 2289 N 217.281 0.66697 -1.42791 0
M  V30 2290 C 218.692 1.2478 -1.38877 0
M  V30 2291 C 219.043 1.96012 -0.0859426 0
M  V30 2292 O 218.168 2.00463 0.815081 0
M  V30 2293 C 218.763 2.26938 -2.51564 0
M  V30 2294 C 217.322 2.80529 -2.50959 0
M  V30 2295 C 216.469 1.54965 -2.29959 0
M  V30 2296 H 219.42 0.459853 -1.51892 0
M  V30 2297 H 219.441 3.08834 -2.22265 0
M  V30 2298 H 218.953 1.75065 -3.46372 0
M  V30 2299 H 217.054 3.36502 -1.59991 0
M  V30 2300 H 217.167 3.29012 -3.48265 0
M  V30 2301 H 215.531 1.81817 -1.78366 0
M  V30 2302 H 216.314 1.05047 -3.26833 0
M  V30 2303 N 218.759 1.29093 0.90403 0
M  V30 2304 C 220.005 1.16986 1.65656 0
M  V30 2305 C 220.338 -0.278925 1.92186 0
M  V30 2306 O 219.613 -1.2019 1.5292 0
M  V30 2307 C 219.896 1.97908 3.0084 0
M  V30 2308 C 219.749 3.50903 2.81403 0
M  V30 2309 C 221.068 1.80208 4.01513 0
M  V30 2310 H 218.187 0.426346 0.601164 0
M  V30 2311 H 220.829 1.58518 1.04747 0
M  V30 2312 H 218.979 1.62616 3.52829 0
M  V30 2313 H 220.651 3.96153 2.36348 0
M  V30 2314 H 218.894 3.76045 2.1627 0
M  V30 2315 H 219.565 4.02791 3.77443 0
M  V30 2316 H 222.041 2.11025 3.58619 0
M  V30 2317 H 220.917 2.39184 4.94047 0
M  V30 2318 H 221.178 0.756119 4.35586 0
M  V30 2319 N 220.237 -1.11381 1.11499 0
M  V30 2320 C 221.485 -1.8277 0.862524 0
M  V30 2321 C 221.806 -1.85097 -0.613534 0
M  V30 2322 O 221.076 -1.32198 -1.4457 0
M  V30 2323 H 219.656 -0.676823 0.316101 0
M  V30 2324 H 222.318 -1.34816 1.4075 0
M  V30 2325 H 221.414 -2.86614 1.23527 0
M  V30 2326 N 221.715 -0.905404 -1.28997 0
M  V30 2327 C 223.131 -0.60233 -1.47798 0
M  V30 2328 C 223.331 0.854645 -1.82478 0
M  V30 2329 O 222.387 1.63439 -1.92468 0
M  V30 2330 C 223.7 -1.53306 -2.58685 0
M  V30 2331 C 225.248 -1.53887 -2.72558 0
M  V30 2332 C 225.723 -2.45602 -3.86579 0
M  V30 2333 N 227.214 -2.43681 -3.93921 0
M  V30 2334 C 227.949 -3.11347 -4.81509 0
M  V30 2335 N 227.445 -3.88313 -5.73746 0
M  V30 2336 N 229.238 -3.00476 -4.75048 0
M  V30 2337 H 221.389 -1.84765 -1.04764 0
M  V30 2338 H 223.652 -0.792025 -0.520961 0
M  V30 2339 H 223.358 -2.57141 -2.39941 0
M  V30 2340 H 223.232 -1.25787 -3.55609 0
M  V30 2341 H 225.619 -0.507941 -2.90696 0
M  V30 2342 H 225.7 -1.85447 -1.76191 0
M  V30 2343 H 225.344 -3.48792 -3.69197 0
M  V30 2344 H 225.274 -2.11349 -4.82327 0
M  V30 2345 H 227.765 -1.87767 -3.27951 0
M  V30 2346 H 228.078 -4.36985 -6.37389 0
M  V30 2347 H 226.423 -3.92419 -5.73614 0
M  V30 2348 H 229.614 -2.39858 -4.01977 0
M  V30 2349 H 229.787 -3.53485 -5.43095 0
M  V30 2350 N 223.193 1.4272 -0.668489 0
M  V30 2351 C 224.418 2.06484 -0.194758 0
M  V30 2352 C 224.843 1.49862 1.13679 0
M  V30 2353 O 224.201 0.614582 1.70565 0
M  V30 2354 C 224.249 3.60353 -0.133546 0
M  V30 2355 O 223.353 4.02464 0.899806 0
M  V30 2356 H 222.694 0.656137 -0.10188 0
M  V30 2357 H 225.224 1.82964 -0.915722 0
M  V30 2358 H 225.234 4.07976 0.0447041 0
M  V30 2359 H 223.909 4.00938 -1.1055 0
M  V30 2360 H 222.486 3.66402 0.693109 0
M  V30 2361 N 224.671 0.411399 1.52136 0
M  V30 2362 C 225.917 -0.163888 2.02137 0
M  V30 2363 C 226.25 -1.44597 1.29636 0
M  V30 2364 O 225.525 -1.90272 0.403353 0
M  V30 2365 C 225.808 -0.40927 3.57767 0
M  V30 2366 C 225.661 0.889643 4.40914 0
M  V30 2367 C 226.98 -1.19042 4.23694 0
M  V30 2368 H 224.099 -0.0580896 0.734707 0
M  V30 2369 H 226.741 0.54531 1.82007 0
M  V30 2370 H 224.891 -1.0134 3.7505 0
M  V30 2371 H 226.563 1.52575 4.35337 0
M  V30 2372 H 224.806 1.50011 4.07037 0
M  V30 2373 H 225.477 0.672314 5.4789 0
M  V30 2374 H 227.953 -0.678942 4.10524 0
M  V30 2375 H 226.829 -1.33086 5.32522 0
M  V30 2376 H 227.09 -2.21166 3.82803 0
M  V30 2377 N 226.149 -1.5696 0.141893 0
M  V30 2378 C 227.426 -1.87553 -0.555281 0
M  V30 2379 C 227.806 -1.04699 -1.83306 0
M  V30 2380 O 227.154 -0.132346 -2.28116 0
M  V30 2381 C 227.364 -3.39093 -0.825664 0
M  V30 2382 C 228.712 -4.08199 -1.16869 0
M  V30 2383 O 229.736 -3.44242 -0.915185 0
M  V30 2384 O 228.595 -5.21139 -1.6455 0
M  V30 2385 H 225.689 -0.777188 -0.282679 0
M  V30 2386 H 228.235 -1.68763 0.17812 0
M  V30 2387 H 227.007 -3.91221 0.0788633 0
M  V30 2388 H 226.63 -3.63393 -1.61343 0
M  V30 2389 N 227.627 0.131896 -1.57047 0
M  V30 2390 C 228.537 1.1815 -2.02676 0
M  V30 2391 C 229.553 1.46113 -0.944824 0
M  V30 2392 O 230.729 1.57485 -1.25541 0
M  V30 2393 C 227.794 2.49139 -2.41103 0
M  V30 2394 C 226.855 2.28688 -3.63318 0
M  V30 2395 C 226.088 3.53431 -3.99903 0
M  V30 2396 O 226.311 4.60223 -3.36973 0
M  V30 2397 O 225.245 3.45198 -4.93074 0
M  V30 2398 H 229.071 0.824069 -2.92306 0
M  V30 2399 H 226.656 0.341745 -1.45439 0
M  V30 2400 H 228.538 3.26338 -2.66611 0
M  V30 2401 H 227.213 2.84382 -1.54624 0
M  V30 2402 H 226.12 1.4939 -3.42977 0
M  V30 2403 H 227.453 1.98355 -4.50462 0
M  V30 2404 N 229.106 1.52395 0.401703 0
M  V30 2405 C 230.334 1.70676 1.16949 0
M  V30 2406 C 230.749 0.419503 1.8408 0
M  V30 2407 O 230.106 -0.605061 1.72178 0
M  V30 2408 C 230.157 2.84753 2.22706 0
M  V30 2409 O 229.878 4.08495 1.58314 0
M  V30 2410 C 231.379 3.14608 3.12309 0
M  V30 2411 H 228.599 0.571787 0.351142 0
M  V30 2412 H 231.143 1.98987 0.471652 0
M  V30 2413 H 229.298 2.58941 2.88147 0
M  V30 2414 H 229.712 4.72117 2.28485 0
M  V30 2415 H 231.186 3.97923 3.82572 0
M  V30 2416 H 231.663 2.28464 3.75101 0
M  V30 2417 H 232.269 3.42212 2.52529 0
M  V30 2418 N 230.584 -0.659388 1.43143 0
M  V30 2419 C 231.514 -1.78422 1.50625 0
M  V30 2420 C 232.495 -1.66216 0.361443 0
M  V30 2421 O 233.68 -1.85404 0.577834 0
M  V30 2422 C 230.81 -3.16815 1.42287 0
M  V30 2423 C 229.764 -3.43777 2.54954 0
M  V30 2424 C 229.09 -4.81905 2.31671 0
M  V30 2425 C 230.39 -3.39134 3.97222 0
M  V30 2426 H 232.084 -1.72417 2.44771 0
M  V30 2427 H 229.63 -0.828084 1.17808 0
M  V30 2428 H 231.583 -3.95253 1.46127 0
M  V30 2429 H 230.307 -3.23534 0.446435 0
M  V30 2430 H 228.966 -2.67707 2.50457 0
M  V30 2431 H 228.614 -4.85294 1.32284 0
M  V30 2432 H 228.314 -5.00906 3.07192 0
M  V30 2433 H 229.838 -5.62609 2.37284 0
M  V30 2434 H 231.252 -4.07518 4.03239 0
M  V30 2435 H 229.649 -3.69671 4.72719 0
M  V30 2436 H 230.719 -2.37426 4.22797 0
M  V30 2437 N 232.062 -1.29571 -0.897171 0
M  V30 2438 C 233.478 -1.07637 -1.17841 0
M  V30 2439 C 233.678 0.170713 -2.00776 0
M  V30 2440 O 232.734 0.867768 -2.3712 0
M  V30 2441 C 234.047 -2.3332 -1.8969 0
M  V30 2442 C 235.595 -2.38664 -2.02505 0
M  V30 2443 C 236.07 -3.64157 -2.77765 0
M  V30 2444 N 237.561 -3.64894 -2.85318 0
M  V30 2445 C 238.296 -4.58679 -3.44094 0
M  V30 2446 N 237.792 -5.62799 -4.04017 0
M  V30 2447 N 239.585 -4.46245 -3.41793 0
M  V30 2448 H 231.736 -2.09598 -0.343883 0
M  V30 2449 H 233.999 -0.923333 -0.214848 0
M  V30 2450 H 233.705 -3.24262 -1.36187 0
M  V30 2451 H 233.579 -2.41025 -2.9015 0
M  V30 2452 H 235.966 -1.48208 -2.55183 0
M  V30 2453 H 236.047 -2.34943 -1.01171 0
M  V30 2454 H 235.691 -4.54965 -2.25763 0
M  V30 2455 H 235.621 -3.65137 -3.7945 0
M  V30 2456 H 238.112 -2.89613 -2.42761 0
M  V30 2457 H 238.425 -6.3048 -4.46895 0
M  V30 2458 H 236.77 -5.66605 -4.02472 0
M  V30 2459 H 239.961 -3.64094 -2.94199 0
M  V30 2460 H 240.134 -5.19518 -3.87304 0
M  V30 2461 N 233.54 1.10788 -1.12088 0
M  V30 2462 C 234.47 2.19083 -0.807755 0
M  V30 2463 C 235.451 1.6858 0.226859 0
M  V30 2464 O 236.636 1.93997 0.0888475 0
M  V30 2465 C 233.766 3.46344 -0.257576 0
M  V30 2466 C 232.72 4.101 -1.22483 0
M  V30 2467 C 232.046 5.32016 -0.535052 0
M  V30 2468 C 233.346 4.54236 -2.57811 0
M  V30 2469 H 235.04 2.45534 -1.71328 0
M  V30 2470 H 232.586 1.1801 -0.825205 0
M  V30 2471 H 234.539 4.21392 -0.0262679 0
M  V30 2472 H 233.263 3.19373 0.683278 0
M  V30 2473 H 231.922 3.37054 -1.44189 0
M  V30 2474 H 231.57 5.01319 0.410827 0
M  V30 2475 H 231.27 5.75625 -1.18024 0
M  V30 2476 H 232.794 6.09799 -0.312695 0
M  V30 2477 H 234.208 5.20575 -2.40155 0
M  V30 2478 H 232.605 5.08682 -3.18375 0
M  V30 2479 H 233.675 3.6734 -3.16528 0
M  V30 2480 N 235.018 0.912232 1.28515 0
M  V30 2481 C 236.264 0.545405 1.95328 0
M  V30 2482 C 236.597 -0.908313 1.71649 0
M  V30 2483 O 235.872 -1.64575 1.03659 0
M  V30 2484 C 236.155 0.853483 3.4984 0
M  V30 2485 C 236.008 2.35982 3.82926 0
M  V30 2486 C 237.327 0.348589 4.38717 0
M  V30 2487 H 234.446 0.199626 0.709449 0
M  V30 2488 H 237.088 1.1412 1.5191 0
M  V30 2489 H 235.238 0.34643 3.86952 0
M  V30 2490 H 236.91 2.93738 3.55691 0
M  V30 2491 H 235.153 2.81543 3.30024 0
M  V30 2492 H 235.824 2.52593 4.90816 0
M  V30 2493 H 238.3 0.78294 4.08668 0
M  V30 2494 H 237.176 0.593242 5.45685 0
M  V30 2495 H 237.437 -0.751049 4.35674 0
M  V30 2496 N 236.496 -1.42363 0.676048 0
M  V30 2497 C 237.428 -2.29164 -0.0404605 0
M  V30 2498 C 238.441 -1.43747 -0.764245 0
M  V30 2499 O 239.63 -1.67453 -0.618195 0
M  V30 2500 C 236.73 -3.21196 -1.08103 0
M  V30 2501 C 235.903 -4.35273 -0.430812 0
M  V30 2502 C 234.962 -5.08017 -1.37133 0
M  V30 2503 O 233.988 -5.62494 -0.87116 0
M  V30 2504 N 235.19 -5.13647 -2.70456 0
M  V30 2505 H 237.955 -2.91298 0.704667 0
M  V30 2506 H 235.516 -1.53303 0.520559 0
M  V30 2507 H 237.508 -3.66728 -1.71152 0
M  V30 2508 H 236.078 -2.60505 -1.72788 0
M  V30 2509 H 235.298 -3.92372 0.379209 0
M  V30 2510 H 236.586 -5.08795 0.0221132 0
M  V30 2511 H 235.984 -4.708 -3.1363 0
M  V30 2512 H 234.541 -5.62821 -3.28749 0
M  V30 2513 N 237.974 -0.419461 -1.51915 0
M  V30 2514 C 238.937 0.389116 -2.25873 0
M  V30 2515 C 239.937 0.964924 -1.28631 0
M  V30 2516 O 241.127 0.842179 -1.52489 0
M  V30 2517 C 238.259 1.54874 -3.03689 0
M  V30 2518 H 239.452 -0.258799 -2.98781 0
M  V30 2519 H 237.005 -0.172209 -1.55348 0
M  V30 2520 H 237.74 2.23323 -2.35154 0
M  V30 2521 H 237.525 1.14223 -3.75094 0
M  V30 2522 H 239.015 2.12046 -3.59759 0
M  V30 2523 N 239.452 1.56882 -0.150215 0
M  V30 2524 C 240.699 1.96228 0.500093 0
M  V30 2525 C 241.027 1.03522 1.64661 0
M  V30 2526 O 240.282 0.0650683 1.95592 0
M  V30 2527 C 240.581 3.41801 1.04437 0
M  V30 2528 C 240.247 4.50897 0.0159671 0
M  V30 2529 C 238.909 4.8046 -0.266731 0
M  V30 2530 C 241.261 5.16703 -0.683192 0
M  V30 2531 C 238.589 5.73135 -1.25434 0
M  V30 2532 C 240.941 6.10441 -1.65964 0
M  V30 2533 C 239.605 6.38382 -1.95 0
M  V30 2534 H 238.875 0.718048 0.182997 0
M  V30 2535 H 241.522 1.90019 -0.237724 0
M  V30 2536 H 239.827 3.44857 1.85959 0
M  V30 2537 H 241.524 3.69573 1.55618 0
M  V30 2538 H 238.114 4.27891 0.246485 0
M  V30 2539 H 242.298 4.93993 -0.477983 0
M  V30 2540 H 237.554 5.93074 -1.48571 0
M  V30 2541 H 241.728 6.60507 -2.20689 0
M  V30 2542 H 239.355 7.09996 -2.71679 0
M  V30 2543 N 240.93 -0.123565 1.57115 0
M  V30 2544 C 241.862 -1.17739 1.96648 0
M  V30 2545 C 242.875 -1.37906 0.865201 0
M  V30 2546 O 244.064 -1.37062 1.14351 0
M  V30 2547 C 241.164 -2.53821 2.24562 0
M  V30 2548 C 240.337 -2.54317 3.55867 0
M  V30 2549 C 239.396 -3.72112 3.72047 0
M  V30 2550 O 238.422 -3.55907 4.44206 0
M  V30 2551 N 239.624 -4.90498 3.10471 0
M  V30 2552 H 242.389 -0.841147 2.87654 0
M  V30 2553 H 239.95 -0.31289 1.58848 0
M  V30 2554 H 241.942 -3.31175 2.32606 0
M  V30 2555 H 240.512 -2.79645 1.39705 0
M  V30 2556 H 239.732 -1.62711 3.59053 0
M  V30 2557 H 241.02 -2.51701 4.42181 0
M  V30 2558 H 240.418 -5.06567 2.51806 0
M  V30 2559 H 238.975 -5.65544 3.24043 0
M  V30 2560 N 242.408 -1.52605 -0.393616 0
M  V30 2561 C 243.655 -1.67424 -1.1391 0
M  V30 2562 C 243.983 -0.411859 -1.90089 0
M  V30 2563 O 243.238 0.605626 -1.86093 0
M  V30 2564 C 243.537 -2.85721 -2.14705 0
M  V30 2565 C 243.203 -4.23342 -1.55218 0
M  V30 2566 C 241.865 -4.60771 -1.3872 0
M  V30 2567 C 244.217 -5.09041 -1.11924 0
M  V30 2568 C 241.545 -5.81563 -0.774689 0
M  V30 2569 C 243.897 -6.30452 -0.520853 0
M  V30 2570 C 242.561 -6.66617 -0.343134 0
M  V30 2571 H 241.831 -0.612648 -0.416826 0
M  V30 2572 H 244.478 -1.8674 -0.424315 0
M  V30 2573 H 242.783 -2.60803 -2.92385 0
M  V30 2574 H 244.48 -2.94382 -2.72288 0
M  V30 2575 H 241.07 -3.93855 -1.69045 0
M  V30 2576 H 245.254 -4.80695 -1.23473 0
M  V30 2577 H 240.51 -6.08196 -0.625154 0
M  V30 2578 H 244.684 -6.96175 -0.177065 0
M  V30 2579 H 242.311 -7.60083 0.133571 0
M  V30 2580 N 243.887 0.651787 -1.4349 0
M  V30 2581 C 245.115 1.43937 -1.48626 0
M  V30 2582 C 245.53 1.8851 -0.104587 0
M  V30 2583 O 244.887 1.5958 0.885464 0
M  V30 2584 C 244.938 2.6734 -2.43334 0
M  V30 2585 O 244.659 2.24631 -3.76128 0
M  V30 2586 C 246.16 3.60683 -2.57726 0
M  V30 2587 H 243.38 0.44213 -0.504739 0
M  V30 2588 H 245.924 0.798944 -1.88248 0
M  V30 2589 H 244.079 3.2752 -2.06904 0
M  V30 2590 H 244.493 3.04485 -4.2707 0
M  V30 2591 H 245.967 4.43933 -3.28067 0
M  V30 2592 H 246.444 4.08126 -1.62265 0
M  V30 2593 H 247.05 3.06384 -2.94973 0
M  V30 2594 N 245.365 1.30045 0.890287 0
M  V30 2595 C 246.642 1.09227 1.62262 0
M  V30 2596 C 247.022 -0.360305 2.08002 0
M  V30 2597 O 246.37 -1.35084 1.84295 0
M  V30 2598 C 246.58 2.08835 2.79623 0
M  V30 2599 C 247.928 2.40266 3.50082 0
M  V30 2600 O 248.952 2.07104 2.89804 0
M  V30 2601 O 247.811 2.96967 4.58773 0
M  V30 2602 H 244.905 0.419132 0.712922 0
M  V30 2603 H 247.451 1.41451 0.937529 0
M  V30 2604 H 246.223 3.06633 2.43089 0
M  V30 2605 H 245.846 1.77397 3.55832 0
M  V30 2606 N 246.843 -1.10192 1.12674 0
M  V30 2607 C 247.79 -2.16606 0.796906 0
M  V30 2608 C 248.76 -1.64394 -0.237476 0
M  V30 2609 O 249.945 -1.90474 -0.111484 0
M  V30 2610 C 247.085 -3.44116 0.26043 0
M  V30 2611 C 246.198 -4.10268 1.35293 0
M  V30 2612 C 245.333 -5.25507 0.775621 0
M  V30 2613 C 244.372 -5.83567 1.84706 0
M  V30 2614 N 243.509 -6.90179 1.28829 0
M  V30 2615 H 248.349 -2.44163 1.70846 0
M  V30 2616 H 245.886 -1.19846 0.85295 0
M  V30 2617 H 247.844 -4.17143 -0.0686814 0
M  V30 2618 H 246.474 -3.16901 -0.614274 0
M  V30 2619 H 245.526 -3.35184 1.79877 0
M  V30 2620 H 246.838 -4.4946 2.16303 0
M  V30 2621 H 245.992 -6.05398 0.397327 0
M  V30 2622 H 244.731 -4.87656 -0.0656581 0
M  V30 2623 H 243.736 -5.02344 2.23452 0
M  V30 2624 H 244.961 -6.23482 2.69161 0
M  V30 2625 H 242.907 -6.54322 0.468881 0
M  V30 2626 H 242.824 -7.28097 2.03497 0
M  V30 2627 H 244.092 -7.73844 0.937311 0
M  V30 2628 N 248.321 -0.919034 -1.28029 0
M  V30 2629 C 249.271 -0.382574 -2.24767 0
M  V30 2630 C 250.255 0.508286 -1.52661 0
M  V30 2631 O 251.447 0.347145 -1.73562 0
M  V30 2632 C 248.576 0.371432 -3.41285 0
M  V30 2633 C 247.662 -0.535449 -4.20706 0
M  V30 2634 N 248.053 -1.65141 -4.78082 0
M  V30 2635 C 246.351 -0.336824 -4.44726 0
M  V30 2636 C 247.052 -2.21475 -5.37888 0
M  V30 2637 N 246.028 -1.50537 -5.22341 0
M  V30 2638 H 249.83 -1.23477 -2.66703 0
M  V30 2639 H 247.344 -0.772299 -1.42861 0
M  V30 2640 H 249.341 0.772638 -4.09678 0
M  V30 2641 H 248.001 1.22066 -3.00882 0
M  V30 2642 H 249.012 -2.03392 -4.7629 0
M  V30 2643 H 245.689 0.47246 -4.14818 0
M  V30 2644 H 247.079 -3.15379 -5.93284 0
M  V30 2645 N 249.799 1.42003 -0.683588 0
M  V30 2646 C 251.047 2.01015 -0.209101 0
M  V30 2647 C 251.368 1.54365 1.19149 0
M  V30 2648 O 250.638 0.769083 1.80172 0
M  V30 2649 H 249.218 0.743294 -0.074315 0
M  V30 2650 H 251.88 1.73798 -0.882066 0
M  V30 2651 H 250.976 3.11343 -0.2172 0
M  V30 2652 N 251.277 0.427512 1.51691 0
M  V30 2653 C 252.187 -0.39527 2.31246 0
M  V30 2654 C 253.203 -1.03674 1.39742 0
M  V30 2655 O 254.379 -1.03425 1.72816 0
M  V30 2656 C 251.444 -1.48706 3.13189 0
M  V30 2657 C 250.505 -0.866743 4.20459 0
M  V30 2658 C 249.738 -1.90651 4.98486 0
M  V30 2659 O 249.961 -3.12733 4.77026 0
M  V30 2660 O 248.895 -1.5025 5.82845 0
M  V30 2661 H 252.721 0.253918 3.02637 0
M  V30 2662 H 250.306 0.190274 1.48183 0
M  V30 2663 H 252.188 -2.12047 3.64162 0
M  V30 2664 H 250.863 -2.12051 2.44573 0
M  V30 2665 H 249.77 -0.195544 3.73589 0
M  V30 2666 H 251.103 -0.276934 4.9142 0
M  V30 2667 N 252.755 -1.56801 0.158532 0
M  V30 2668 C 254.001 -1.96781 -0.490405 0
M  V30 2669 C 254.334 -1.04397 -1.63753 0
M  V30 2670 O 253.609 -0.0885805 -1.94298 0
M  V30 2671 C 253.892 -3.4635 -0.985594 0
M  V30 2672 C 253.745 -4.49512 0.160824 0
M  V30 2673 C 255.064 -3.98697 -1.86355 0
M  V30 2674 H 252.183 -0.715482 -0.176788 0
M  V30 2675 H 254.825 -1.88451 0.242088 0
M  V30 2676 H 252.975 -3.53579 -1.60978 0
M  V30 2677 H 254.647 -4.54353 0.797537 0
M  V30 2678 H 252.89 -4.26013 0.818256 0
M  V30 2679 H 253.561 -5.51531 -0.227569 0
M  V30 2680 H 256.037 -3.94019 -1.33746 0
M  V30 2681 H 254.913 -5.03792 -2.17909 0
M  V30 2682 H 255.174 -3.41744 -2.8047 0
M  V30 2683 N 254.233 0.115231 -1.57178 0
M  V30 2684 C 255.473 0.828199 -1.8687 0
M  V30 2685 C 255.837 1.76873 -0.747002 0
M  V30 2686 O 257.038 2.52354 -0.925785 0
M  V30 2687 C 255.309 1.55515 -3.21792 0
M  V30 2688 S 256.868 2.30917 -3.73125 0
M  V30 2689 H 253.686 0.27634 -0.655101 0
M  V30 2690 H 256.288 0.0863469 -1.95309 0
M  V30 2691 H 254.992 0.856248 -4.01368 0
M  V30 2692 H 254.523 2.3373 -3.16439 0
M  V30 2693 H 256.538 3.56705 -3.44929 0
M  V30 2694 N 255.711 1.52812 0.385517 0
M  V30 2695 C 257.122 1.5993 0.963293 0
M  V30 2696 C 257.473 0.454302 1.90868 0
M  V30 2697 O 256.598 -0.422132 2.12243 0
M  V30 2698 C 257.193 2.89871 1.75387 0
M  V30 2699 C 255.752 2.99389 2.28129 0
M  V30 2700 C 254.899 2.55071 1.08783 0
M  V30 2701 H 257.85 1.5784 0.164948 0
M  V30 2702 H 257.871 2.76553 2.61341 0
M  V30 2703 H 257.383 3.73186 1.06554 0
M  V30 2704 H 255.484 2.20619 3.00263 0
M  V30 2705 H 255.597 4.04096 2.57377 0
M  V30 2706 H 253.961 2.09473 1.4489 0
M  V30 2707 H 254.744 3.40785 0.414807 0
M  V30 2708 N 257.189 -0.644168 1.43834 0
M  V30 2709 C 258.152 -1.73857 1.49353 0
M  V30 2710 C 259.152 -1.56315 0.377112 0
M  V30 2711 O 260.342 -1.62048 0.639226 0
M  V30 2712 C 257.474 -3.12819 1.35488 0
M  V30 2713 H 258.667 -1.70342 2.46827 0
M  V30 2714 H 256.22 -0.856652 1.30733 0
M  V30 2715 H 256.955 -3.2194 0.390569 0
M  V30 2716 H 256.74 -3.26958 2.16428 0
M  V30 2717 H 258.23 -3.92606 1.42302 0
M  V30 2718 N 258.668 -1.30515 -0.883378 0
M  V30 2719 C 259.916 -1.19194 -1.63209 0
M  V30 2720 C 260.237 0.253205 -1.93349 0
M  V30 2721 O 259.507 1.17025 -1.57105 0
M  V30 2722 H 258.087 -0.438148 -0.605009 0
M  V30 2723 H 260.749 -1.63663 -1.05832 0
M  V30 2724 H 259.845 -1.75396 -2.58153 0
M  V30 2725 N 260.146 1.09593 -1.13257 0
M  V30 2726 C 261.392 1.82181 -0.904521 0
M  V30 2727 C 261.747 1.83967 0.563358 0
M  V30 2728 O 261.04 1.29566 1.41149 0
M  V30 2729 C 261.234 3.27802 -1.42411 0
M  V30 2730 C 261.063 3.40201 -2.94097 0
M  V30 2731 C 259.833 3.52104 -3.62424 0
M  V30 2732 C 262.031 3.32875 -3.92044 0
M  V30 2733 N 260.013 3.53169 -5.0214 0
M  V30 2734 C 261.384 3.40789 -5.17941 0
M  V30 2735 C 263.439 3.16531 -3.84334 0
M  V30 2736 C 262.142 3.34042 -6.37031 0
M  V30 2737 C 264.168 3.11109 -5.02956 0
M  V30 2738 C 263.53 3.19614 -6.27715 0
M  V30 2739 H 259.629 0.681015 -0.384373 0
M  V30 2740 H 262.213 1.3099 -1.44048 0
M  V30 2741 H 260.384 3.77466 -0.915086 0
M  V30 2742 H 262.116 3.88393 -1.13722 0
M  V30 2743 H 258.871 3.5548 -3.12939 0
M  V30 2744 H 259.295 3.57291 -5.75041 0
M  V30 2745 H 263.937 3.08827 -2.88766 0
M  V30 2746 H 261.655 3.4051 -7.32857 0
M  V30 2747 H 265.241 2.99601 -4.98729 0
M  V30 2748 H 264.121 3.15432 -7.17964 0
M  V30 2749 N 261.624 0.925811 1.2754 0
M  V30 2750 C 262.571 0.422045 2.26908 0
M  V30 2751 C 263.541 -0.510029 1.58076 0
M  V30 2752 O 264.726 -0.429599 1.85901 0
M  V30 2753 C 261.866 -0.320837 3.43605 0
M  V30 2754 C 260.979 0.64513 4.27156 0
M  V30 2755 C 260.114 -0.117405 5.3107 0
M  V30 2756 C 259.153 0.841391 6.0629 0
M  V30 2757 N 258.29 0.111604 7.02011 0
M  V30 2758 H 263.13 1.27441 2.69375 0
M  V30 2759 H 260.667 0.639697 1.32462 0
M  V30 2760 H 262.625 -0.76785 4.10073 0
M  V30 2761 H 261.255 -1.13745 3.02096 0
M  V30 2762 H 260.307 1.21067 3.6062 0
M  V30 2763 H 261.619 1.37797 4.79389 0
M  V30 2764 H 260.773 -0.624422 6.03478 0
M  V30 2765 H 259.512 -0.883219 4.79636 0
M  V30 2766 H 258.517 1.35967 5.32722 0
M  V30 2767 H 259.742 1.60696 6.59813 0
M  V30 2768 H 257.688 -0.635999 6.5291 0
M  V30 2769 H 257.605 0.784044 7.51923 0
M  V30 2770 H 258.873 -0.374823 7.78598 0
M  V30 2771 N 263.102 -1.41638 0.69111 0
M  V30 2772 C 264.513 -1.84346 0.295517 0
M  V30 2773 C 264.864 -1.57833 -1.16547 0
M  V30 2774 O 263.989 -1.04648 -1.89414 0
M  V30 2775 C 264.584 -3.34636 0.529575 0
M  V30 2776 C 263.143 -3.7593 0.187944 0
M  V30 2777 C 262.29 -2.65082 0.814052 0
M  V30 2778 H 265.241 -1.31253 0.892092 0
M  V30 2779 H 265.262 -3.79903 -0.213148 0
M  V30 2780 H 264.774 -3.53901 1.59297 0
M  V30 2781 H 262.875 -3.62268 -0.871367 0
M  V30 2782 H 262.988 -4.74808 0.63985 0
M  V30 2783 H 261.352 -2.53528 0.244017 0
M  V30 2784 H 262.135 -2.87167 1.88123 0
M  V30 2785 N 264.58 -0.43555 -1.51462 0
M  V30 2786 C 265.828 0.131254 -2.01673 0
M  V30 2787 C 266.149 1.43368 -1.32177 0
M  V30 2788 O 265.419 1.90524 -0.455769 0
M  V30 2789 H 263.999 0.0514954 -0.745223 0
M  V30 2790 H 266.661 -0.577847 -1.86137 0
M  V30 2791 H 265.757 0.308446 -3.10572 0
M  V30 2792 N 266.058 1.56714 -0.166846 0
M  V30 2793 C 267.283 2.01557 0.488833 0
M  V30 2794 C 267.708 1.0463 1.56314 0
M  V30 2795 O 267.066 0.0251304 1.81283 0
M  V30 2796 C 267.114 3.4503 1.04818 0
M  V30 2797 O 266.218 3.51163 2.16236 0
M  V30 2798 H 265.559 0.653516 0.117526 0
M  V30 2799 H 268.089 2.02818 -0.269421 0
M  V30 2800 H 268.099 3.84243 1.37191 0
M  V30 2801 H 266.774 4.15077 0.261572 0
M  V30 2802 H 265.351 3.23807 1.84942 0
M  V30 2803 N 267.536 -0.106894 1.57237 0
M  V30 2804 C 268.813 -0.843526 1.76477 0
M  V30 2805 C 269.193 -1.97499 0.745464 0
M  V30 2806 O 268.541 -2.27357 -0.228306 0
M  V30 2807 C 268.751 -1.34903 3.21873 0
M  V30 2808 C 270.099 -1.79654 3.8472 0
M  V30 2809 O 271.123 -1.44554 3.2555 0
M  V30 2810 O 269.982 -2.44515 4.88748 0
M  V30 2811 H 267.076 -0.401468 0.723016 0
M  V30 2812 H 269.622 -0.0896927 1.69463 0
M  V30 2813 H 268.394 -0.53781 3.87586 0
M  V30 2814 H 268.017 -2.16522 3.33473 0
M  V30 2815 N 269.014 -1.53014 -0.377408 0
M  V30 2816 C 270.242 -1.72515 -1.14219 0
M  V30 2817 C 270.657 -0.448735 -1.8339 0
M  V30 2818 O 270.014 0.577592 -1.73119 0
M  V30 2819 C 270.065 -2.8826 -2.18148 0
M  V30 2820 O 269.786 -4.10962 -1.51795 0
M  V30 2821 C 271.287 -3.19536 -3.07264 0
M  V30 2822 H 268.507 -0.577301 -0.342001 0
M  V30 2823 H 271.051 -1.99712 -0.439935 0
M  V30 2824 H 269.206 -2.63492 -2.83991 0
M  V30 2825 H 269.62 -4.75693 -2.20945 0
M  V30 2826 H 271.094 -4.03959 -3.76193 0
M  V30 2827 H 271.571 -2.34403 -3.71419 0
M  V30 2828 H 272.177 -3.46186 -2.47053 0
M  V30 2829 N 270.492 0.636531 -1.44174 0
M  V30 2830 C 271.741 1.39213 -1.45954 0
M  V30 2831 C 272.054 1.95374 -0.0939119 0
M  V30 2832 O 273.26 2.71498 0.0107767 0
M  V30 2833 C 271.716 2.52025 -2.56927 0
M  V30 2834 C 271.324 2.024 -3.99673 0
M  V30 2835 C 273.068 3.29269 -2.67922 0
M  V30 2836 C 270.975 3.12521 -5.0208 0
M  V30 2837 H 269.905 0.523132 -0.542999 0
M  V30 2838 H 272.556 0.685349 -1.70221 0
M  V30 2839 H 270.938 3.25253 -2.25891 0
M  V30 2840 H 272.112 1.36073 -4.40251 0
M  V30 2841 H 270.427 1.37987 -3.92872 0
M  V30 2842 H 273.024 4.11352 -3.41605 0
M  V30 2843 H 273.367 3.78397 -1.73555 0
M  V30 2844 H 273.9 2.63129 -2.98342 0
M  V30 2845 H 270.639 2.68343 -5.98057 0
M  V30 2846 H 270.159 3.77507 -4.66099 0
M  V30 2847 H 271.838 3.77385 -5.25538 0
M  V30 2848 N 271.97 1.30982 0.876444 0
M  V30 2849 C 272.917 1.18085 1.98304 0
M  V30 2850 C 273.887 0.0682263 1.6596 0
M  V30 2851 O 275.072 0.239937 1.89285 0
M  V30 2852 C 272.212 0.887475 3.33493 0
M  V30 2853 C 271.325 2.08281 3.78475 0
M  V30 2854 C 270.46 1.72678 5.0235 0
M  V30 2855 C 269.499 2.88657 5.39762 0
M  V30 2856 N 268.636 2.53292 6.54819 0
M  V30 2857 H 273.476 2.1275 2.08666 0
M  V30 2858 H 271.013 1.05839 1.02159 0
M  V30 2859 H 272.971 0.697961 4.1132 0
M  V30 2860 H 271.601 -0.022315 3.22792 0
M  V30 2861 H 270.653 2.3833 2.96484 0
M  V30 2862 H 271.965 2.95108 4.02135 0
M  V30 2863 H 271.119 1.50151 5.87826 0
M  V30 2864 H 269.858 0.830327 4.8058 0
M  V30 2865 H 268.863 3.1184 4.52809 0
M  V30 2866 H 270.088 3.79002 5.63502 0
M  V30 2867 H 268.034 1.66163 6.34607 0
M  V30 2868 H 267.951 3.3365 6.7839 0
M  V30 2869 H 269.219 2.34143 7.43503 0
M  V30 2870 N 273.449 -1.08991 1.13837 0
M  V30 2871 C 274.86 -1.62746 0.914917 0
M  V30 2872 C 275.211 -1.88403 -0.547594 0
M  V30 2873 O 274.336 -1.63706 -1.41525 0
M  V30 2874 C 274.931 -2.95662 1.65437 0
M  V30 2875 C 273.49 -3.46225 1.47666 0
M  V30 2876 C 272.637 -2.20562 1.6807 0
M  V30 2877 H 275.588 -0.922946 1.29102 0
M  V30 2878 H 275.609 -3.63825 1.11407 0
M  V30 2879 H 275.121 -2.76956 2.71877 0
M  V30 2880 H 273.222 -3.70046 0.435478 0
M  V30 2881 H 273.335 -4.23368 2.24268 0
M  V30 2882 H 271.699 -2.29439 1.10589 0
M  V30 2883 H 272.482 -2.0437 2.7584 0
M  V30 2884 N 274.927 -0.932562 -1.27047 0
M  V30 2885 C 276.204 -0.49377 -1.89265 0
M  V30 2886 C 276.584 1.02833 -1.8436 0
M  V30 2887 O 275.932 1.88461 -1.29209 0
M  V30 2888 C 276.142 -1.04536 -3.32976 0
M  V30 2889 C 277.49 -1.10879 -4.09867 0
M  V30 2890 O 278.514 -0.995327 -3.42011 0
M  V30 2891 O 277.373 -1.28417 -5.31198 0
M  V30 2892 H 274.467 -0.159596 -0.811454 0
M  V30 2893 H 277.013 -1.02457 -1.3528 0
M  V30 2894 H 275.785 -2.08913 -3.30864 0
M  V30 2895 H 275.408 -0.496494 -3.94488 0
M  V30 2896 N 276.405 1.4127 -0.698611 0
M  V30 2897 C 277.651 2.01478 -0.231207 0
M  V30 2898 C 277.984 1.55215 1.16713 0
M  V30 2899 O 277.259 0.764672 1.78838 0
M  V30 2900 C 277.542 3.58912 -0.292281 0
M  V30 2901 C 277.395 4.15293 -1.72778 0
M  V30 2902 C 278.714 4.38736 0.346194 0
M  V30 2903 H 275.833 0.732025 -0.0854878 0
M  V30 2904 H 278.475 1.67977 -0.887906 0
M  V30 2905 H 276.625 3.87582 0.26686 0
M  V30 2906 H 278.297 3.97486 -2.341 0
M  V30 2907 H 276.54 3.7022 -2.26096 0
M  V30 2908 H 277.211 5.24452 -1.72202 0
M  V30 2909 H 279.687 4.15897 -0.130035 0
M  V30 2910 H 278.563 5.48221 0.272932 0
M  V30 2911 H 278.824 4.18425 1.42734 0
M  V30 2912 N 277.883 0.443576 1.51229 0
M  V30 2913 C 278.815 -0.400608 2.25672 0
M  V30 2914 C 279.828 -0.980945 1.29928 0
M  V30 2915 O 281.017 -0.874024 1.55638 0
M  V30 2916 C 278.117 -1.57304 3.00181 0
M  V30 2917 C 277.29 -1.11046 4.23069 0
M  V30 2918 C 276.349 -2.15374 4.80105 0
M  V30 2919 O 275.375 -1.74554 5.41774 0
M  V30 2920 N 276.577 -3.47922 4.64683 0
M  V30 2921 H 279.342 0.23745 2.98758 0
M  V30 2922 H 276.903 0.272809 1.59585 0
M  V30 2923 H 278.895 -2.26733 3.35223 0
M  V30 2924 H 277.465 -2.11632 2.30066 0
M  V30 2925 H 276.685 -0.243019 3.9345 0
M  V30 2926 H 277.973 -0.778888 5.02803 0
M  V30 2927 H 277.371 -3.83815 4.15575 0
M  V30 2928 H 275.928 -4.13228 5.0407 0
M  V30 2929 N 279.361 -1.56624 0.175154 0
M  V30 2930 C 280.308 -2.18149 -0.753634 0
M  V30 2931 C 281.278 -1.12265 -1.22417 0
M  V30 2932 O 282.463 -1.40432 -1.29165 0
M  V30 2933 C 279.603 -2.82933 -1.97592 0
M  V30 2934 C 278.716 -4.03289 -1.5486 0
M  V30 2935 C 277.851 -4.55988 -2.72485 0
M  V30 2936 C 276.89 -5.68746 -2.26262 0
M  V30 2937 N 276.027 -6.15938 -3.36994 0
M  V30 2938 H 280.867 -2.9717 -0.222195 0
M  V30 2939 H 278.404 -1.46774 -0.0979422 0
M  V30 2940 H 280.362 -3.18653 -2.69288 0
M  V30 2941 H 278.992 -2.06509 -2.481 0
M  V30 2942 H 278.044 -3.73364 -0.728246 0
M  V30 2943 H 279.356 -4.849 -1.16933 0
M  V30 2944 H 278.51 -4.9391 -3.52332 0
M  V30 2945 H 277.249 -3.73443 -3.13674 0
M  V30 2946 H 276.254 -5.30372 -1.44863 0
M  V30 2947 H 277.479 -6.53095 -1.86127 0
M  V30 2948 H 275.425 -5.36321 -3.77751 0
M  V30 2949 H 275.342 -6.92548 -3.03172 0
M  V30 2950 H 276.61 -6.58511 -4.17114 0
M  V30 2951 N 280.839 0.0985539 -1.57292 0
M  V30 2952 C 282.064 0.820196 -1.90493 0
M  V30 2953 C 282.489 1.71658 -0.769094 0
M  V30 2954 O 281.847 1.79133 0.279495 0
M  V30 2955 C 281.895 1.61242 -3.22542 0
M  V30 2956 O 280.999 2.72108 -3.09888 0
M  V30 2957 H 280.34 0.225547 -0.62452 0
M  V30 2958 H 282.87 0.0748159 -2.04463 0
M  V30 2959 H 282.88 1.99737 -3.55766 0
M  V30 2960 H 281.555 0.954535 -4.04798 0
M  V30 2961 H 280.132 2.36667 -2.88172 0
M  V30 2962 N 282.317 1.53212 0.369288 0
M  V30 2963 C 283.264 1.79388 1.45219 0
M  V30 2964 C 284.234 0.638059 1.53356 0
M  V30 2965 O 285.419 0.879852 1.69302 0
M  V30 2966 C 282.559 1.98623 2.82211 0
M  V30 2967 C 281.672 3.26337 2.8307 0
M  V30 2968 C 280.807 3.35779 4.11614 0
M  V30 2969 C 279.846 4.5754 4.06601 0
M  V30 2970 N 278.983 4.64155 5.26787 0
M  V30 2971 H 283.823 2.71794 1.22198 0
M  V30 2972 H 281.36 1.34642 0.592444 0
M  V30 2973 H 283.318 2.07761 3.61789 0
M  V30 2974 H 281.948 1.09558 3.03639 0
M  V30 2975 H 281 3.26171 1.95747 0
M  V30 2976 H 282.312 4.15988 2.75237 0
M  V30 2977 H 281.466 3.44208 4.99606 0
M  V30 2978 H 280.205 2.44137 4.22195 0
M  V30 2979 H 279.21 4.49215 3.16996 0
M  V30 2980 H 280.435 5.50519 3.97625 0
M  V30 2981 H 278.381 3.75413 5.3796 0
M  V30 2982 H 278.298 5.47706 5.21109 0
M  V30 2983 H 279.566 4.76863 6.16621 0
M  V30 2984 N 283.795 -0.628877 1.44509 0
M  V30 2985 C 284.705 -1.7694 1.54044 0
M  V30 2986 C 285.721 -1.68705 0.425987 0
M  V30 2987 O 286.897 -1.89442 0.683656 0
M  V30 2988 C 283.962 -3.13332 1.48405 0
M  V30 2989 C 283.023 -3.33181 2.70719 0
M  V30 2990 C 282.256 -4.63067 2.6534 0
M  V30 2991 O 282.479 -5.44017 1.71469 0
M  V30 2992 O 281.413 -4.85167 3.56226 0
M  V30 2993 H 285.239 -1.71848 2.50403 0
M  V30 2994 H 282.824 -0.790378 1.26781 0
M  V30 2995 H 284.706 -3.94634 1.47791 0
M  V30 2996 H 283.381 -3.1896 0.551898 0
M  V30 2997 H 282.288 -2.51549 2.769 0
M  V30 2998 H 283.621 -3.32416 3.62988 0
M  V30 2999 N 285.273 -1.31445 -0.869486 0
M  V30 3000 C 286.503 -1.23942 -1.65294 0
M  V30 3001 C 286.911 0.197561 -1.88166 0
M  V30 3002 O 286.254 1.14019 -1.44033 0
M  V30 3003 C 286.316 -1.91385 -3.04322 0
M  V30 3004 C 285.98 -3.40726 -3.04557 0
M  V30 3005 C 286.977 -4.36464 -2.82481 0
M  V30 3006 C 284.662 -3.82425 -3.25663 0
M  V30 3007 C 286.656 -5.71876 -2.8149 0
M  V30 3008 C 284.343 -5.1795 -3.243 0
M  V30 3009 C 285.341 -6.12486 -3.02241 0
M  V30 3010 O 285.029 -7.45534 -3.00724 0
M  V30 3011 H 284.761 -0.429459 -0.522054 0
M  V30 3012 H 287.315 -1.73873 -1.0935 0
M  V30 3013 H 285.545 -1.36004 -3.61994 0
M  V30 3014 H 287.234 -1.77791 -3.64891 0
M  V30 3015 H 288 -4.05576 -2.65956 0
M  V30 3016 H 283.879 -3.09274 -3.41863 0
M  V30 3017 H 287.423 -6.45638 -2.64191 0
M  V30 3018 H 283.32 -5.48473 -3.40365 0
M  V30 3019 H 284.088 -7.54713 -3.16782 0
M  V30 3020 N 286.751 1.08385 -1.14413 0
M  V30 3021 C 287.998 1.80776 -0.912482 0
M  V30 3022 C 288.326 1.86236 0.560934 0
M  V30 3023 O 287.581 1.33431 1.43159 0
M  V30 3024 C 287.88 3.26273 -1.45879 0
M  V30 3025 C 287.546 3.4093 -2.95089 0
M  V30 3026 C 286.208 3.44638 -3.35824 0
M  V30 3027 C 288.56 3.44591 -3.91033 0
M  V30 3028 C 285.888 3.49597 -4.71167 0
M  V30 3029 C 288.24 3.51086 -5.26233 0
M  V30 3030 C 286.904 3.53067 -5.6648 0
M  V30 3031 H 286.174 0.661507 -0.333901 0
M  V30 3032 H 288.821 1.27613 -1.42784 0
M  V30 3033 H 287.126 3.82146 -0.864376 0
M  V30 3034 H 288.823 3.80839 -1.2555 0
M  V30 3035 H 285.413 3.38736 -2.62594 0
M  V30 3036 H 289.597 3.40957 -3.60641 0
M  V30 3037 H 284.853 3.49424 -5.0171 0
M  V30 3038 H 289.027 3.52864 -6.00383 0
M  V30 3039 H 286.654 3.56662 -6.71339 0
M  V30 3040 N 288.23 0.939286 1.26551 0
M  V30 3041 C 289.455 0.602008 1.98471 0
M  V30 3042 C 289.88 -0.815624 1.69497 0
M  V30 3043 O 289.238 -1.54912 0.941905 0
M  V30 3044 C 289.286 0.848407 3.50477 0
M  V30 3045 O 288.39 -0.0804009 4.12322 0
M  V30 3046 H 287.731 0.23049 0.622712 0
M  V30 3047 H 290.261 1.2617 1.61066 0
M  V30 3048 H 290.271 0.768553 4.00696 0
M  V30 3049 H 288.946 1.88171 3.70897 0
M  V30 3050 H 287.523 0.0503508 3.72866 0
M  V30 3051 N 289.708 -1.40897 0.706093 0
M  V30 3052 C 290.655 -2.30751 0.0474474 0
M  V30 3053 C 291.625 -1.47678 -0.76029 0
M  V30 3054 O 292.81 -1.76441 -0.726177 0
M  V30 3055 C 289.95 -3.33815 -0.875309 0
M  V30 3056 C 289.063 -4.31961 -0.0580623 0
M  V30 3057 C 288.198 -5.22093 -0.979425 0
M  V30 3058 C 287.237 -6.11902 -0.155706 0
M  V30 3059 N 286.374 -6.94482 -1.03144 0
M  V30 3060 H 291.214 -2.86513 0.819413 0
M  V30 3061 H 288.751 -1.41102 0.415783 0
M  V30 3062 H 290.709 -3.92129 -1.42446 0
M  V30 3063 H 289.339 -2.79579 -1.61356 0
M  V30 3064 H 288.391 -3.75507 0.608147 0
M  V30 3065 H 289.703 -4.95415 0.580082 0
M  V30 3066 H 288.857 -5.85292 -1.59744 0
M  V30 3067 H 287.596 -4.5889 -1.65141 0
M  V30 3068 H 286.601 -5.47742 0.475309 0
M  V30 3069 H 287.826 -6.77162 0.512635 0
M  V30 3070 H 285.772 -6.33877 -1.68924 0
M  V30 3071 H 285.689 -7.54665 -0.449108 0
M  V30 3072 H 286.957 -7.6214 -1.63593 0
M  V30 3073 N 291.186 -0.45159 -1.50991 0
M  V30 3074 C 292.118 0.388634 -2.25881 0
M  V30 3075 C 293.131 0.974041 -1.30446 0
M  V30 3076 O 294.32 0.865758 -1.56099 0
M  V30 3077 C 291.42 1.5571 -3.01011 0
M  V30 3078 C 290.593 1.08801 -4.23652 0
M  V30 3079 C 289.652 2.12825 -4.8124 0
M  V30 3080 O 288.678 1.71678 -5.42693 0
M  V30 3081 N 289.88 3.45453 -4.66522 0
M  V30 3082 H 292.645 -0.25329 -2.98628 0
M  V30 3083 H 290.206 -0.281268 -1.59438 0
M  V30 3084 H 292.198 2.24952 -3.3642 0
M  V30 3085 H 290.768 2.10409 -2.31186 0
M  V30 3086 H 289.988 0.22215 -3.93574 0
M  V30 3087 H 291.276 0.752213 -5.03209 0
M  V30 3088 H 290.674 3.81605 -4.17605 0
M  V30 3089 H 289.231 4.10549 -5.06254 0
M  V30 3090 N 292.664 1.56529 -0.183458 0
M  V30 3091 C 293.611 2.18546 0.742055 0
M  V30 3092 C 294.581 1.12912 1.2182 0
M  V30 3093 O 295.766 1.41115 1.28418 0
M  V30 3094 C 292.906 2.83977 1.96089 0
M  V30 3095 C 292.019 4.04105 1.52719 0
M  V30 3096 C 291.154 4.57427 2.70063 0
M  V30 3097 C 290.193 5.69938 2.23243 0
M  V30 3098 N 289.33 6.17717 3.33722 0
M  V30 3099 H 294.17 2.97284 0.206432 0
M  V30 3100 H 291.707 1.46823 0.0901571 0
M  V30 3101 H 293.665 3.20077 2.67594 0
M  V30 3102 H 292.295 2.07822 2.47002 0
M  V30 3103 H 291.347 3.73745 0.708436 0
M  V30 3104 H 292.659 4.85513 1.1436 0
M  V30 3105 H 291.813 4.95772 3.49708 0
M  V30 3106 H 290.552 3.75101 3.11689 0
M  V30 3107 H 289.557 5.31133 1.42048 0
M  V30 3108 H 290.782 6.54073 1.82661 0
M  V30 3109 H 288.728 5.38317 3.74902 0
M  V30 3110 H 288.645 6.94146 2.99495 0
M  V30 3111 H 289.913 6.60713 4.13616 0
M  V30 3112 O 294.181 0.04597 1.61435 0
M  V30 3113 H 294.872 -0.564149 1.85303 0
M  V30 END ATOM
M  V30 BEGIN BOND
M  V30 END BOND
M  V30 END CTAB
M  END
$$$$
