drugbank_target|Q82EE4 Uncharacterized protein (DB02580)
 OpenBabel12092120503D

  0  0  0     0  0            999 V3000
M  V30 BEGIN CTAB
M  V30 COUNTS 2472 2506 0 0 0
M  V30 BEGIN ATOM
M  V30 1 H -0.908 1.98254 -0.117106 0
M  V30 2 N 0 1.576 0 0
M  V30 3 C 0.933 2.03868 1.02534 0
M  V30 4 C 1.911 0.928543 1.3348 0
M  V30 5 O 3.095 1.19667 1.45644 0
M  V30 6 C 0.222 2.43627 2.35294 0
M  V30 7 C -0.732 3.65373 2.2001 0
M  V30 8 S 0.101 5.13292 1.52614 0
M  V30 9 C 1.257 5.56322 2.86805 0
M  V30 10 H 1.49 2.90518 0.631377 0
M  V30 11 H -0.977 1.52953 0.210867 0
M  V30 12 H 0.981 2.67203 3.11629 0
M  V30 13 H -0.358 1.57376 2.7183 0
M  V30 14 H -1.165 3.90944 3.18086 0
M  V30 15 H -1.563 3.418 1.51819 0
M  V30 16 H 0.729 5.58782 3.83104 0
M  V30 17 H 1.672 6.56266 2.65933 0
M  V30 18 H 2.08 4.83886 2.90714 0
M  V30 19 N 1.4781 -0.272755 1.55222 0
M  V30 20 C 2.7031 -1.02683 1.80197 0
M  V30 21 C 3.1281 -1.79142 0.573551 0
M  V30 22 O 2.4861 -1.74917 -0.476849 0
M  V30 23 C 2.5341 -1.9609 3.02624 0
M  V30 24 O 1.6381 -3.04863 2.77727 0
M  V30 25 H 0.9791 -0.293557 0.595584 0
M  V30 26 H 3.5091 -0.30159 2.02365 0
M  V30 27 H 3.5191 -2.38039 3.31363 0
M  V30 28 H 2.1941 -1.39851 3.91682 0
M  V30 29 H 0.7711 -2.67228 2.60084 0
M  V30 30 N 2.9562 -1.48159 -0.537278 0
M  V30 31 C 4.1842 -1.59454 -1.31841 0
M  V30 32 C 4.5992 -0.252065 -1.8711 0
M  V30 33 O 3.9562 0.757621 -1.66031 0
M  V30 34 C 4.0072 -2.63546 -2.47439 0
M  V30 35 O 3.7282 -3.92583 -1.94449 0
M  V30 36 C 5.2292 -2.85212 -3.39366 0
M  V30 37 H 2.4492 -0.53785 -0.401196 0
M  V30 38 H 4.9932 -1.93932 -0.648891 0
M  V30 39 H 3.1482 -2.31946 -3.1029 0
M  V30 40 H 3.5622 -4.49629 -2.70063 0
M  V30 41 H 5.0362 -3.61863 -4.16844 0
M  V30 42 H 5.5132 -1.93765 -3.94147 0
M  V30 43 H 6.1192 -3.18086 -2.82314 0
M  V30 44 N 4.4343 0.785586 -1.36625 0
M  V30 45 C 5.8453 1.36101 -1.27803 0
M  V30 46 C 6.1963 1.96035 0.0804875 0
M  V30 47 O 5.3213 1.92834 0.982042 0
M  V30 48 C 5.9163 2.47442 -2.31426 0
M  V30 49 C 4.4753 3.00789 -2.26281 0
M  V30 50 C 3.6223 1.73896 -2.15999 0
M  V30 51 H 6.5733 0.586928 -1.47448 0
M  V30 52 H 6.5943 3.2656 -1.95291 0
M  V30 53 H 6.1063 2.03791 -3.30289 0
M  V30 54 H 4.2073 3.48851 -1.30896 0
M  V30 55 H 4.3203 3.57343 -3.19128 0
M  V30 56 H 2.6843 1.9628 -1.62316 0
M  V30 57 H 3.4673 1.32368 -3.16755 0
M  V30 58 N 5.9124 1.20967 1.01018 0
M  V30 59 C 7.1404 1.04956 1.78303 0
M  V30 60 C 7.5554 -0.400915 1.84494 0
M  V30 61 O 6.9124 -1.27826 1.30257 0
M  V30 62 C 6.9634 1.63403 3.22462 0
M  V30 63 O 6.6844 3.02775 3.16637 0
M  V30 64 C 8.1854 1.52432 4.16268 0
M  V30 65 H 5.4054 0.368858 0.560522 0
M  V30 66 H 7.9494 1.60193 1.27116 0
M  V30 67 H 6.1044 1.1227 3.70775 0
M  V30 68 H 6.5184 3.30626 4.07169 0
M  V30 69 H 7.9924 1.98078 5.15237 0
M  V30 70 H 8.4694 0.477875 4.36592 0
M  V30 71 H 9.0754 2.02787 3.73841 0
M  V30 72 N 7.3905 -1.2043 1.01659 0
M  V30 73 C 8.8015 -1.71517 0.737482 0
M  V30 74 C 9.1525 -1.81547 -0.743973 0
M  V30 75 O 8.2775 -1.47803 -1.58061 0
M  V30 76 C 8.8725 -3.11515 1.33206 0
M  V30 77 C 7.4315 -3.59912 1.10183 0
M  V30 78 C 6.5785 -2.37116 1.43776 0
M  V30 79 H 9.5295 -1.05444 1.18606 0
M  V30 80 H 9.5505 -3.73575 0.722636 0
M  V30 81 H 9.0625 -3.04182 2.41028 0
M  V30 82 H 7.1635 -3.72577 0.0412756 0
M  V30 83 H 7.2765 -4.44731 1.78188 0
M  V30 84 H 5.6405 -2.39857 0.856778 0
M  V30 85 H 6.4235 -2.32424 2.52654 0
M  V30 86 N 8.8686 -0.792821 -1.36206 0
M  V30 87 C 10.1456 -0.290627 -1.93429 0
M  V30 88 C 10.5256 1.21773 -1.72437 0
M  V30 89 O 9.8736 2.0108 -1.08531 0
M  V30 90 C 10.0836 -0.686973 -3.42172 0
M  V30 91 C 11.4316 -0.668643 -4.19302 0
M  V30 92 O 12.4556 -0.627658 -3.50626 0
M  V30 93 O 11.3146 -0.714597 -5.41808 0
M  V30 94 H 8.4086 -0.0727927 -0.82379 0
M  V30 95 H 10.9546 -0.875593 -1.45367 0
M  V30 96 H 9.7266 -1.72711 -3.51122 0
M  V30 97 H 9.3496 -0.0760733 -3.97527 0
M  V30 98 N 10.3467 1.47872 -0.545128 0
M  V30 99 C 11.5747 2.06889 -0.021084 0
M  V30 100 C 11.9897 1.39955 1.2672 0
M  V30 101 O 11.3467 0.492036 1.75742 0
M  V30 102 C 11.3977 3.60996 0.190817 0
M  V30 103 O 11.1187 4.25419 -1.04644 0
M  V30 104 C 12.6197 4.36849 0.753521 0
M  V30 105 H 9.8397 0.669785 -0.0403635 0
M  V30 106 H 12.3837 1.90049 -0.755095 0
M  V30 107 H 10.5387 3.77391 0.87492 0
M  V30 108 H 10.9527 5.17785 -0.836611 0
M  V30 109 H 12.4267 5.45399 0.851139 0
M  V30 110 H 12.9037 4.02306 1.762 0
M  V30 111 H 13.5097 4.25169 0.105503 0
M  V30 112 N 11.8248 0.280983 1.55075 0
M  V30 113 C 13.1018 -0.386207 1.91749 0
M  V30 114 C 13.4818 -1.73264 1.20594 0
M  V30 115 O 12.8298 -2.26034 0.334784 0
M  V30 116 C 13.0398 -0.520687 3.45094 0
M  V30 117 C 14.3878 -0.800865 4.16979 0
M  V30 118 O 15.4118 -0.605271 3.5102 0
M  V30 119 O 14.2708 -1.1753 5.33712 0
M  V30 120 H 11.3648 -0.212408 0.799257 0
M  V30 121 H 13.9108 0.327568 1.66509 0
M  V30 122 H 12.6828 0.426633 3.88967 0
M  V30 123 H 12.3058 -1.2837 3.76307 0
M  V30 124 N 13.3029 -1.57598 0.00835791 0
M  V30 125 C 14.5489 -1.91211 -0.675732 0
M  V30 126 C 14.8819 -0.883139 -1.72958 0
M  V30 127 O 14.1569 0.097016 -1.94258 0
M  V30 128 C 14.4399 -3.35379 -1.31123 0
M  V30 129 C 14.2929 -4.48999 -0.268356 0
M  V30 130 C 15.6119 -3.7912 -2.23508 0
M  V30 131 H 12.7309 -0.695374 -0.244179 0
M  V30 132 H 15.3729 -1.89901 0.0613655 0
M  V30 133 H 13.5229 -3.36626 -1.93946 0
M  V30 134 H 15.1949 -4.59887 0.360844 0
M  V30 135 H 13.4379 -4.31873 0.408482 0
M  V30 136 H 14.1089 -5.46851 -0.752218 0
M  V30 137 H 16.5849 -3.79477 -1.70693 0
M  V30 138 H 15.4609 -4.80729 -2.64936 0
M  V30 139 H 15.7219 -3.13455 -3.11766 0
M  V30 140 N 14.781 0.264519 -1.55364 0
M  V30 141 C 15.691 1.34902 -1.91934 0
M  V30 142 C 16.707 1.53595 -0.817593 0
M  V30 143 O 17.883 1.67558 -1.11742 0
M  V30 144 C 14.948 2.68676 -2.19121 0
M  V30 145 C 14.009 2.58657 -3.4263 0
M  V30 146 C 13.242 3.86051 -3.68511 0
M  V30 147 O 13.465 4.87126 -2.96757 0
M  V30 148 O 12.399 3.85744 -4.62045 0
M  V30 149 H 16.225 1.06883 -2.8427 0
M  V30 150 H 13.81 0.463775 -1.42019 0
M  V30 151 H 15.692 3.47759 -2.37995 0
M  V30 152 H 14.367 2.96463 -1.29966 0
M  V30 153 H 13.274 1.7792 -3.29082 0
M  V30 154 H 14.607 2.35818 -4.32031 0
M  V30 155 N 16.2591 1.48442 0.529413 0
M  V30 156 C 17.1911 1.59095 1.64989 0
M  V30 157 C 18.2041 0.475212 1.5571 0
M  V30 158 O 19.3931 0.746081 1.6216 0
M  V30 159 C 16.4931 1.50518 3.0364 0
M  V30 160 C 15.6661 2.77142 3.38395 0
M  V30 161 C 14.7251 2.62012 4.56329 0
M  V30 162 O 13.7511 3.35898 4.59522 0
M  V30 163 N 14.9531 1.71667 5.54536 0
M  V30 164 H 17.7181 2.55723 1.56287 0
M  V30 165 H 15.2791 1.45173 0.716697 0
M  V30 166 H 17.2711 1.38091 3.80412 0
M  V30 167 H 15.8411 0.618627 3.06418 0
M  V30 168 H 15.0611 3.0413 2.50796 0
M  V30 169 H 16.3491 3.61146 3.58401 0
M  V30 170 H 15.7471 1.10841 5.54735 0
M  V30 171 H 14.3041 1.65178 6.30523 0
M  V30 172 N 17.7372 -0.778329 1.37039 0
M  V30 173 C 18.9832 -1.53892 1.32079 0
M  V30 174 C 19.3162 -1.9396 -0.0965386 0
M  V30 175 O 18.5912 -1.63568 -1.05242 0
M  V30 176 C 18.8742 -2.80847 2.25382 0
M  V30 177 C 18.7272 -2.47076 3.75864 0
M  V30 178 C 20.0462 -3.82741 2.1725 0
M  V30 179 H 17.1652 -0.558303 0.48111 0
M  V30 180 H 19.8072 -0.893397 1.67685 0
M  V30 181 H 17.9572 -3.35931 1.95148 0
M  V30 182 H 19.6292 -1.97957 4.16666 0
M  V30 183 H 17.8722 -1.79863 3.94755 0
M  V30 184 H 18.5432 -3.37798 4.36574 0
M  V30 185 H 21.0192 -3.37133 2.43887 0
M  V30 186 H 19.8952 -4.69303 2.84686 0
M  V30 187 H 20.1562 -4.2652 1.16331 0
M  V30 188 N 19.2153 -1.21501 -1.00376 0
M  V30 189 C 20.4633 -1.03095 -1.73827 0
M  V30 190 C 20.7843 0.436341 -1.90055 0
M  V30 191 O 20.0543 1.31466 -1.45236 0
M  V30 192 H 18.6343 -0.378487 -0.644016 0
M  V30 193 H 21.2963 -1.52831 -1.20949 0
M  V30 194 H 20.3923 -1.49991 -2.73695 0
M  V30 195 N 20.6934 1.19889 -1.02296 0
M  V30 196 C 21.6234 2.25141 -0.619174 0
M  V30 197 C 22.6044 1.66051 0.368915 0
M  V30 198 O 23.7894 1.92546 0.252941 0
M  V30 199 C 20.9194 3.4728 0.0368783 0
M  V30 200 C 19.8734 4.19005 -0.872865 0
M  V30 201 C 19.1994 5.34637 -0.0822402 0
M  V30 202 C 20.4994 4.74452 -2.18387 0
M  V30 203 H 22.1934 2.59171 -1.49903 0
M  V30 204 H 19.7394 1.24579 -0.722222 0
M  V30 205 H 21.6924 4.20098 0.330958 0
M  V30 206 H 20.4164 3.12433 0.95149 0
M  V30 207 H 19.0754 3.48061 -1.15105 0
M  V30 208 H 18.7234 4.96034 0.83422 0
M  V30 209 H 18.4234 5.83557 -0.688149 0
M  V30 210 H 19.9474 6.10255 0.205238 0
M  V30 211 H 21.3614 5.39055 -1.95172 0
M  V30 212 H 19.7584 5.33834 -2.74119 0
M  V30 213 H 20.8284 3.92844 -2.84257 0
M  V30 214 N 22.1715 0.800033 1.35784 0
M  V30 215 C 23.1345 0.211565 2.28221 0
M  V30 216 C 24.1345 -0.59728 1.49296 0
M  V30 217 O 25.3245 -0.416721 1.69142 0
M  V30 218 C 22.4565 -0.705846 3.33513 0
M  V30 219 H 23.6495 1.02677 2.81776 0
M  V30 220 H 21.2025 0.570211 1.45528 0
M  V30 221 H 21.9375 -1.54498 2.85133 0
M  V30 222 H 21.7225 -0.127655 3.91892 0
M  V30 223 H 23.2125 -1.11211 4.02519 0
M  V30 224 N 23.6496 -1.47581 0.552962 0
M  V30 225 C 24.5976 -2.31648 -0.21023 0
M  V30 226 C 25.5916 -1.42663 -0.913432 0
M  V30 227 O 26.7976 -1.5945 -0.835201 0
M  V30 228 H 23.1726 -0.746989 -0.0866676 0
M  V30 229 H 25.1436 -2.93869 0.518051 0
M  V30 230 C 23.8926 -3.25226 -1.22976 0
M  V30 231 H 23.2156 -3.93658 -0.698077 0
M  V30 232 H 24.6556 -3.86889 -1.73473 0
M  V30 233 C 23.1146 -2.48448 -2.27542 0
M  V30 234 O 23.6446 -2.22585 -3.34393 0
M  V30 235 N 21.8506 -2.09532 -2.01357 0
M  V30 236 H 21.3976 -2.30765 -1.14478 0
M  V30 237 H 21.3556 -1.58476 -2.71538 0
M  V30 238 N 25.1277 -0.289203 -1.54924 0
M  V30 239 C 26.3557 0.326463 -2.04308 0
M  V30 240 C 26.7707 1.48413 -1.16701 0
M  V30 241 O 26.1277 1.81507 -0.190087 0
M  V30 242 C 26.1787 0.794014 -3.52672 0
M  V30 243 O 25.8997 -0.317564 -4.36948 0
M  V30 244 C 27.4007 1.47605 -4.18004 0
M  V30 245 H 24.6207 0.0726272 -0.667058 0
M  V30 246 H 27.1647 -0.425401 -2.00026 0
M  V30 247 H 25.3197 1.49593 -3.57352 0
M  V30 248 H 25.7337 0.0443186 -5.24481 0
M  V30 249 H 27.2077 1.75447 -5.23376 0
M  V30 250 H 27.6847 2.41224 -3.67025 0
M  V30 251 H 28.2907 0.81762 -4.17367 0
M  V30 252 N 26.6058 1.57591 -0.0167156 0
M  V30 253 C 27.5688 2.08393 0.954204 0
M  V30 254 C 28.5688 0.996531 1.26198 0
M  V30 255 O 29.7588 1.25858 1.20438 0
M  V30 256 C 26.8908 2.5394 2.27436 0
M  V30 257 H 28.0838 2.95455 0.514451 0
M  V30 258 H 25.6368 1.54582 0.231089 0
M  V30 259 H 26.3718 1.70171 2.76066 0
M  V30 260 H 26.1568 3.33371 2.06412 0
M  V30 261 H 27.6468 2.93512 2.97053 0
M  V30 262 N 28.0839 -0.256276 1.55502 0
M  V30 263 C 29.3309 -0.985619 1.76895 0
M  V30 264 C 29.6589 -1.85671 0.579355 0
M  V30 265 O 28.9139 -1.90744 -0.437651 0
M  V30 266 C 29.2129 -1.88432 3.03691 0
M  V30 267 C 28.8789 -1.16936 4.35473 0
M  V30 268 C 27.5409 -0.97173 4.71286 0
M  V30 269 C 29.8929 -0.661889 5.1698 0
M  V30 270 C 27.2209 -0.254179 5.86149 0
M  V30 271 C 29.5729 0.042149 6.32586 0
M  V30 272 C 28.2369 0.25134 6.67027 0
M  V30 273 H 27.5069 -0.360663 0.647304 0
M  V30 274 H 30.1539 -0.256483 1.89775 0
M  V30 275 H 28.4589 -2.68021 2.85783 0
M  V30 276 H 30.1559 -2.45015 3.1744 0
M  V30 277 H 26.7459 -1.33332 4.07333 0
M  V30 278 H 30.9299 -0.802145 4.89775 0
M  V30 279 H 26.1859 -0.0815408 6.11346 0
M  V30 280 H 30.3599 0.443049 6.94989 0
M  V30 281 H 27.9869 0.809314 7.5588 0
M  V30 282 N 29.562 -1.4872 -0.521534 0
M  V30 283 C 30.792 -1.6061 -1.29954 0
M  V30 284 C 31.2 -0.268728 -1.87282 0
M  V30 285 O 30.543 0.753221 -1.67548 0
M  V30 286 C 30.605 -2.60013 -2.48261 0
M  V30 287 C 30.269 -4.04874 -2.11957 0
M  V30 288 C 31.266 -4.92304 -1.67132 0
M  V30 289 C 28.951 -4.5047 -2.22221 0
M  V30 290 C 30.945 -6.2336 -1.33047 0
M  V30 291 C 28.632 -5.81544 -1.87748 0
M  V30 292 C 29.63 -6.67812 -1.43234 0
M  V30 293 O 29.318 -7.96446 -1.09217 0
M  V30 294 H 29.05 -0.544116 -0.401141 0
M  V30 295 H 31.604 -1.95339 -0.634958 0
M  V30 296 H 29.834 -2.20422 -3.17728 0
M  V30 297 H 31.523 -2.61648 -3.10315 0
M  V30 298 H 32.289 -4.58312 -1.58665 0
M  V30 299 H 28.168 -3.83504 -2.55823 0
M  V30 300 H 31.712 -6.90649 -0.982299 0
M  V30 301 H 27.609 -6.15069 -1.95858 0
M  V30 302 H 28.377 -8.09275 -1.22542 0
M  V30 303 N 31.0401 0.771051 -1.3745 0
M  V30 304 C 31.9501 1.91538 -1.35464 0
M  V30 305 C 32.9661 1.72134 -0.254123 0
M  V30 306 O 34.1421 1.95358 -0.489626 0
M  V30 307 C 31.2071 3.26671 -1.16134 0
M  V30 308 C 30.2681 3.58723 -2.35831 0
M  V30 309 C 29.5011 4.87409 -2.17413 0
M  V30 310 O 29.7241 5.58506 -1.15876 0
M  V30 311 O 28.6581 5.18539 -3.05615 0
M  V30 312 H 32.4841 1.96165 -2.31847 0
M  V30 313 H 30.0691 0.9139 -1.18187 0
M  V30 314 H 31.9511 4.07499 -1.07345 0
M  V30 315 H 30.6261 3.22894 -0.228251 0
M  V30 316 H 29.5331 2.78127 -2.50192 0
M  V30 317 H 30.8661 3.67243 -3.27709 0
M  V30 318 N 32.5182 1.22032 0.997298 0
M  V30 319 C 33.4812 0.987909 2.06816 0
M  V30 320 C 34.4812 -0.0440084 1.6074 0
M  V30 321 O 35.6712 0.194053 1.73116 0
M  V30 322 C 32.8032 0.49132 3.37341 0
M  V30 323 H 33.9962 1.93803 2.28868 0
M  V30 324 H 31.5492 1.03838 1.16822 0
M  V30 325 H 32.2842 -0.463364 3.20973 0
M  V30 326 H 32.0692 1.23575 3.72118 0
M  V30 327 H 33.5592 0.348824 4.16141 0
M  V30 328 N 33.9963 -1.19345 1.0293 0
M  V30 329 C 34.9293 -2.21347 0.555029 0
M  V30 330 C 35.9073 -1.57492 -0.404351 0
M  V30 331 O 37.0913 -1.85741 -0.321352 0
M  V30 332 C 34.2183 -3.38163 -0.19064 0
M  V30 333 C 33.2643 -4.20375 0.720236 0
M  V30 334 S 34.0973 -4.88371 2.19668 0
M  V30 335 C 35.2533 -6.08597 1.46153 0
M  V30 336 H 35.4863 -2.61235 1.41929 0
M  V30 337 H 33.0193 -1.29598 0.839272 0
M  V30 338 H 34.9773 -4.05871 -0.614724 0
M  V30 339 H 33.6383 -2.9671 -1.03063 0
M  V30 340 H 32.8313 -5.03793 0.14455 0
M  V30 341 H 32.4333 -3.57987 1.08266 0
M  V30 342 H 34.7253 -6.73354 0.748357 0
M  V30 343 H 35.6683 -6.7065 2.27233 0
M  V30 344 H 36.0763 -5.56297 0.958842 0
M  V30 345 N 35.4744 -0.807222 -1.35358 0
M  V30 346 C 36.3844 -0.219594 -2.3357 0
M  V30 347 C 37.4004 0.637734 -1.61892 0
M  V30 348 O 38.5764 0.549336 -1.93763 0
M  V30 349 C 35.6414 0.62158 -3.41083 0
M  V30 350 C 34.7024 -0.256315 -4.28534 0
M  V30 351 C 33.9354 0.544807 -5.30912 0
M  V30 352 O 34.1584 1.77944 -5.41934 0
M  V30 353 O 33.0924 -0.0646478 -6.01865 0
M  V30 354 H 36.9184 -1.03208 -2.85625 0
M  V30 355 H 34.5034 -0.569025 -1.38139 0
M  V30 356 H 36.3854 1.10067 -4.06772 0
M  V30 357 H 35.0604 1.41165 -2.91297 0
M  V30 358 H 33.9674 -0.782559 -3.65823 0
M  V30 359 H 35.3004 -1.01034 -4.81719 0
M  V30 360 N 36.9525 1.47285 -0.560781 0
M  V30 361 C 38.3685 1.58065 -0.22081 0
M  V30 362 C 38.5685 1.55892 1.27671 0
M  V30 363 O 37.6245 1.46422 2.0571 0
M  V30 364 C 38.9375 2.88418 -0.850625 0
M  V30 365 C 40.4855 3.02009 -0.822184 0
M  V30 366 C 40.9605 4.35066 -1.43113 0
M  V30 367 N 42.4515 4.41711 -1.39448 0
M  V30 368 C 43.1865 5.43237 -1.83525 0
M  V30 369 N 42.6825 6.51555 -2.35474 0
M  V30 370 N 44.4755 5.34304 -1.74574 0
M  V30 371 H 36.6265 1.46941 -1.53369 0
M  V30 372 H 38.8895 0.699558 -0.639783 0
M  V30 373 H 38.5955 2.95755 -1.9032 0
M  V30 374 H 38.4695 3.75612 -0.345773 0
M  V30 375 H 40.8565 2.94266 0.221714 0
M  V30 376 H 40.9375 2.16347 -1.36483 0
M  V30 377 H 40.5815 4.43565 -2.47412 0
M  V30 378 H 40.5115 5.19465 -0.863899 0
M  V30 379 H 43.0025 3.64027 -1.01452 0
M  V30 380 H 43.3155 7.25203 -2.67021 0
M  V30 381 H 41.6605 6.52435 -2.39487 0
M  V30 382 H 44.8515 4.48581 -1.33763 0
M  V30 383 H 45.0245 6.13288 -2.09242 0
M  V30 384 N 38.4306 0.297415 1.54768 0
M  V30 385 C 39.6786 -0.312295 1.99673 0
M  V30 386 C 39.9996 -1.54686 1.18732 0
M  V30 387 O 39.2696 -1.93854 0.282382 0
M  V30 388 H 37.8496 -0.118381 0.73756 0
M  V30 389 H 40.5116 0.407915 1.90583 0
M  V30 390 H 39.6076 -0.586813 3.06534 0
M  V30 391 N 39.9087 -1.5758 0.0250728 0
M  V30 392 C 41.1857 -1.82917 -0.692873 0
M  V30 393 C 41.5657 -0.908137 -1.90568 0
M  V30 394 O 40.9137 0.0372298 -2.2847 0
M  V30 395 C 41.1237 -3.32034 -1.07492 0
M  V30 396 C 42.4717 -3.98406 -1.46826 0
M  V30 397 O 43.4957 -3.36505 -1.16801 0
M  V30 398 O 42.3547 -5.07497 -2.02754 0
M  V30 399 H 39.4487 -0.754079 -0.33955 0
M  V30 400 H 41.9947 -1.69619 0.0524456 0
M  V30 401 H 40.7667 -3.90728 -0.211552 0
M  V30 402 H 40.3897 -3.50424 -1.87854 0
M  V30 403 N 41.3868 0.248026 -1.55636 0
M  V30 404 C 42.6338 0.976224 -1.77415 0
M  V30 405 C 42.9618 1.85361 -0.589193 0
M  V30 406 O 42.2168 1.90973 0.427529 0
M  V30 407 C 42.5158 1.86819 -3.04686 0
M  V30 408 C 42.1818 1.14625 -4.36087 0
M  V30 409 C 40.8438 0.946723 -4.71795 0
M  V30 410 C 43.1958 0.634463 -5.17324 0
M  V30 411 C 40.5238 0.223091 -5.86276 0
M  V30 412 C 42.8758 -0.0756959 -6.32555 0
M  V30 413 C 41.5398 -0.286711 -6.66884 0
M  V30 414 H 40.8098 0.357226 -0.649208 0
M  V30 415 H 43.4568 0.246415 -1.89908 0
M  V30 416 H 41.7618 2.66502 -2.872 0
M  V30 417 H 43.4588 2.43329 -3.18735 0
M  V30 418 H 40.0488 1.3117 -4.08035 0
M  V30 419 H 44.2328 0.77616 -4.90193 0
M  V30 420 H 39.4888 0.0491185 -6.1138 0
M  V30 421 H 43.6628 -0.479899 -6.94745 0
M  V30 422 H 41.2898 -0.849389 -7.5544 0
M  V30 423 N 42.8649 1.48995 0.513639 0
M  V30 424 C 43.7749 1.67443 1.64317 0
M  V30 425 C 44.7909 0.556947 1.64846 0
M  V30 426 O 45.9669 0.830082 1.83498 0
M  V30 427 C 43.0319 1.72515 3.00732 0
M  V30 428 C 42.0929 2.96009 3.1093 0
M  V30 429 C 41.3259 3.00829 4.40837 0
M  V30 430 O 41.5489 2.13594 5.28898 0
M  V30 431 O 40.4829 3.93168 4.55744 0
M  V30 432 H 44.3089 2.63106 1.51687 0
M  V30 433 H 41.8939 1.32588 0.688543 0
M  V30 434 H 43.7759 1.78277 3.81831 0
M  V30 435 H 42.4509 0.800278 3.13651 0
M  V30 436 H 41.3579 2.9577 2.29065 0
M  V30 437 H 42.6909 3.87934 3.02933 0
M  V30 438 N 44.343 -0.763751 1.37857 0
M  V30 439 C 45.571 -1.55293 1.36718 0
M  V30 440 C 45.986 -1.88745 -0.0455434 0
M  V30 441 O 45.343 -1.52039 -1.00947 0
M  V30 442 C 45.394 -2.85831 2.2132 0
M  V30 443 O 45.115 -2.5381 3.57089 0
M  V30 444 C 46.616 -3.80023 2.28249 0
M  V30 445 H 43.836 -0.480841 0.468009 0
M  V30 446 H 46.38 -0.946009 1.81303 0
M  V30 447 H 44.535 -3.42926 1.80223 0
M  V30 448 H 44.949 -3.37459 4.01524 0
M  V30 449 H 46.423 -4.68599 2.91752 0
M  V30 450 H 46.9 -4.1973 1.2932 0
M  V30 451 H 47.506 -3.28855 2.69693 0
M  V30 452 N 45.8211 -1.22559 -0.990812 0
M  V30 453 C 46.7511 -1.0218 -2.09956 0
M  V30 454 C 47.7321 0.0579394 -1.70001 0
M  V30 455 O 48.9171 -0.104684 -1.93918 0
M  V30 456 C 46.0471 -0.601023 -3.4206 0
M  V30 457 C 45.0011 -1.62694 -3.95872 0
M  V30 458 C 44.3271 -1.06193 -5.24049 0
M  V30 459 C 45.6271 -3.01743 -4.2632 0
M  V30 460 H 47.3211 -1.94916 -2.27262 0
M  V30 461 H 44.8671 -0.938566 -1.09211 0
M  V30 462 H 46.8201 -0.445561 -4.19038 0
M  V30 463 H 45.5441 0.362005 -3.24588 0
M  V30 464 H 44.2031 -1.77021 -3.21028 0
M  V30 465 H 43.8511 -0.0901903 -5.02919 0
M  V30 466 H 43.5511 -1.74732 -5.61019 0
M  V30 467 H 45.0751 -0.918092 -6.03658 0
M  V30 468 H 46.4891 -2.90777 -4.94087 0
M  V30 469 H 44.8861 -3.67425 -4.74467 0
M  V30 470 H 45.9561 -3.51518 -3.34011 0
M  V30 471 N 47.2992 1.18797 -1.03562 0
M  V30 472 C 48.5242 1.9314 -0.755764 0
M  V30 473 C 48.9492 1.7537 0.68022 0
M  V30 474 O 48.3072 1.06046 1.47051 0
M  V30 475 C 48.3552 3.42747 -1.12058 0
M  V30 476 O 47.4592 4.11683 -0.243124 0
M  V30 477 H 46.8002 0.602724 -0.278604 0
M  V30 478 H 49.3302 1.50678 -1.3841 0
M  V30 479 H 49.3402 3.93437 -1.08035 0
M  V30 480 H 48.0152 3.55002 -2.16672 0
M  V30 481 H 46.5922 3.71323 -0.342539 0
M  V30 482 N 48.7773 0.814389 1.34928 0
M  V30 483 C 50.0023 0.410097 2.03305 0
M  V30 484 C 50.4273 -0.973464 1.60951 0
M  V30 485 O 49.7853 -1.63185 0.789964 0
M  V30 486 C 49.8333 0.51049 3.56968 0
M  V30 487 O 48.9373 -0.473035 4.09678 0
M  V30 488 H 48.2783 0.170088 0.641846 0
M  V30 489 H 50.8083 1.10244 1.72358 0
M  V30 490 H 50.8183 0.383135 4.06197 0
M  V30 491 H 49.4933 1.51963 3.87144 0
M  V30 492 H 48.0703 -0.305272 3.71648 0
M  V30 493 N 50.2554 -1.46986 0.568584 0
M  V30 494 C 51.1854 -2.32946 -0.160753 0
M  V30 495 C 52.1664 -1.44487 -0.897631 0
M  V30 496 O 53.3514 -1.73327 -0.875867 0
M  V30 497 C 50.4814 -3.26494 -1.18403 0
M  V30 498 C 49.4354 -4.24282 -0.562895 0
M  V30 499 C 48.7614 -5.07236 -1.69163 0
M  V30 500 C 50.0614 -5.19989 0.490761 0
M  V30 501 H 51.7554 -2.94175 0.556916 0
M  V30 502 H 49.3014 -1.4146 0.26927 0
M  V30 503 H 51.2544 -3.85477 -1.70251 0
M  V30 504 H 49.9784 -2.63343 -1.93179 0
M  V30 505 H 48.6374 -3.66541 -0.0656164 0
M  V30 506 H 48.2854 -4.4048 -2.42871 0
M  V30 507 H 47.9854 -5.7345 -1.28174 0
M  V30 508 H 49.5094 -5.6908 -2.21314 0
M  V30 509 H 50.9234 -5.73271 0.0579047 0
M  V30 510 H 49.3204 -5.94469 0.820165 0
M  V30 511 H 50.3904 -4.64777 1.3824 0
M  V30 512 N 51.7335 -0.305618 -1.54608 0
M  V30 513 C 52.9795 0.295595 -2.01241 0
M  V30 514 C 53.3345 1.51171 -1.19018 0
M  V30 515 O 52.6275 1.89832 -0.259684 0
M  V30 516 C 52.8215 0.698983 -3.50498 0
M  V30 517 C 52.6505 -0.476491 -4.47168 0
M  V30 518 C 51.4205 -0.969963 -4.95903 0
M  V30 519 C 53.6185 -1.32294 -4.96994 0
M  V30 520 N 51.6005 -2.11172 -5.76437 0
M  V30 521 C 52.9715 -2.31212 -5.75275 0
M  V30 522 C 55.0265 -1.35278 -4.7917 0
M  V30 523 C 53.7295 -3.32896 -6.37631 0
M  V30 524 C 55.7555 -2.35823 -5.42348 0
M  V30 525 C 55.1175 -3.33469 -6.20466 0
M  V30 526 H 51.2165 0.0724992 -0.778632 0
M  V30 527 H 53.8005 -0.436583 -1.89742 0
M  V30 528 H 51.9715 1.40032 -3.62278 0
M  V30 529 H 53.7035 1.28013 -3.8392 0
M  V30 530 H 50.4585 -0.544178 -4.70463 0
M  V30 531 H 50.8825 -2.68714 -6.21387 0
M  V30 532 H 55.5245 -0.61157 -4.18354 0
M  V30 533 H 53.2425 -4.07933 -6.97579 0
M  V30 534 H 56.8285 -2.38911 -5.30484 0
M  V30 535 H 55.7085 -4.09996 -6.68485 0
M  V30 536 N 53.2116 1.57565 -0.0334293 0
M  V30 537 C 54.1416 2.13511 0.945265 0
M  V30 538 C 55.1226 1.05231 1.33643 0
M  V30 539 O 56.3076 1.33084 1.41429 0
M  V30 540 C 53.4376 2.6657 2.22616 0
M  V30 541 C 52.3916 3.79676 1.97561 0
M  V30 542 C 51.7176 4.1918 3.31952 0
M  V30 543 C 53.0176 5.0557 1.31135 0
M  V30 544 H 54.7116 2.95538 0.479325 0
M  V30 545 H 52.2576 1.42166 0.229115 0
M  V30 546 H 54.2106 3.04344 2.91466 0
M  V30 547 H 52.9346 1.8171 2.71384 0
M  V30 548 H 51.5936 3.42347 1.31127 0
M  V30 549 H 51.2416 3.31296 3.78487 0
M  V30 550 H 50.9416 4.95402 3.15992 0
M  V30 551 H 52.4656 4.59541 4.02063 0
M  V30 552 H 53.8796 5.40903 1.89992 0
M  V30 553 H 52.2766 5.86818 1.25559 0
M  V30 554 H 53.3466 4.84062 0.284894 0
M  V30 555 N 54.6897 -0.239769 1.55765 0
M  V30 556 C 55.9177 -0.98417 1.81994 0
M  V30 557 C 56.3327 -1.7867 0.610124 0
M  V30 558 O 55.6897 -1.77571 -0.421271 0
M  V30 559 C 55.7407 -1.91635 3.06526 0
M  V30 560 O 55.4617 -1.14629 4.22838 0
M  V30 561 C 56.9627 -2.77616 3.45607 0
M  V30 562 H 54.1827 -0.28928 0.605441 0
M  V30 563 H 56.7267 -0.260499 2.02834 0
M  V30 564 H 54.8817 -2.5942 2.87715 0
M  V30 565 H 55.2957 -1.77745 4.93464 0
M  V30 566 H 56.7697 -3.38759 4.35828 0
M  V30 567 H 57.2467 -3.4909 2.6652 0
M  V30 568 H 57.8527 -2.15271 3.66795 0
M  V30 569 N 56.1678 -1.49265 -0.50573 0
M  V30 570 C 57.5788 -1.51769 -1.08734 0
M  V30 571 C 57.9298 -0.301192 -1.93874 0
M  V30 572 O 57.0548 0.589456 -2.08217 0
M  V30 573 C 57.6498 -2.75017 -1.97867 0
M  V30 574 C 56.2088 -2.80314 -2.51199 0
M  V30 575 C 55.3558 -2.4562 -1.28709 0
M  V30 576 H 58.3068 -1.56031 -0.289855 0
M  V30 577 H 58.3278 -2.5491 -2.82491 0
M  V30 578 H 57.8398 -3.63539 -1.35873 0
M  V30 579 H 55.9408 -1.96061 -3.16845 0
M  V30 580 H 56.0538 -3.82366 -2.88675 0
M  V30 581 H 54.4178 -1.97297 -1.61078 0
M  V30 582 H 55.2008 -3.36411 -0.6843 0
M  V30 583 N 57.6459 0.756429 -1.3826 0
M  V30 584 C 58.6089 1.85176 -1.35065 0
M  V30 585 C 59.6089 1.58818 -0.251703 0
M  V30 586 O 60.7989 1.66615 -0.508433 0
M  V30 587 C 57.9309 3.22596 -1.10201 0
M  V30 588 H 59.1239 1.89417 -2.3251 0
M  V30 589 H 56.6769 0.95783 -1.23512 0
M  V30 590 H 57.4119 3.24025 -0.133504 0
M  V30 591 H 57.1969 3.43122 -1.89762 0
M  V30 592 H 58.6869 4.02673 -1.10654 0
M  V30 593 N 59.124 1.23083 0.984299 0
M  V30 594 C 60.401 0.9689 1.69917 0
M  V30 595 C 60.781 -0.513604 2.04757 0
M  V30 596 O 60.129 -1.48383 1.73767 0
M  V30 597 C 60.339 1.87518 2.94343 0
M  V30 598 C 61.687 2.13636 3.6694 0
M  V30 599 O 62.711 1.85036 3.04368 0
M  V30 600 O 61.57 2.62119 4.79537 0
M  V30 601 H 58.664 0.365095 0.742048 0
M  V30 602 H 61.21 1.34107 1.03987 0
M  V30 603 H 59.982 2.87756 2.65164 0
M  V30 604 H 59.605 1.50514 3.6801 0
M  V30 605 N 60.6021 -1.18246 1.0419 0
M  V30 606 C 61.5321 -2.24127 0.654914 0
M  V30 607 C 62.5131 -1.66617 -0.342451 0
M  V30 608 O 63.6981 -1.92924 -0.222277 0
M  V30 609 C 60.8281 -3.47295 0.0183757 0
M  V30 610 C 59.7821 -4.17563 0.939414 0
M  V30 611 C 59.1081 -5.34438 0.167286 0
M  V30 612 C 60.4081 -4.70917 2.25908 0
M  V30 613 H 62.1021 -2.56753 1.54007 0
M  V30 614 H 59.6481 -1.23414 0.74195 0
M  V30 615 H 61.6011 -4.20572 -0.264082 0
M  V30 616 H 60.3251 -3.13907 -0.901664 0
M  V30 617 H 58.9841 -3.46186 1.20628 0
M  V30 618 H 58.6321 -4.97298 -0.7552 0
M  V30 619 H 58.3321 -5.82388 0.780901 0
M  V30 620 H 59.8561 -6.10504 -0.108125 0
M  V30 621 H 61.2701 -5.35882 2.03724 0
M  V30 622 H 59.6671 -5.29406 2.82577 0
M  V30 623 H 60.7371 -3.88272 2.9047 0
M  V30 624 N 62.0802 -0.821533 -1.34494 0
M  V30 625 C 63.3282 -0.408139 -1.97936 0
M  V30 626 C 63.6492 1.03193 -1.65457 0
M  V30 627 O 62.9192 1.71622 -0.944595 0
M  V30 628 H 61.4992 -0.147928 -0.732206 0
M  V30 629 H 64.1612 -1.05067 -1.64155 0
M  V30 630 H 63.2572 -0.52601 -3.07635 0
M  V30 631 N 63.5583 1.46682 -0.576371 0
M  V30 632 C 64.8043 2.02712 -0.0596221 0
M  V30 633 C 65.1373 1.44765 1.29448 0
M  V30 634 O 64.4123 0.610355 1.84675 0
M  V30 635 C 64.6953 3.60098 0.0129503 0
M  V30 636 C 64.5483 4.28441 -1.3696 0
M  V30 637 C 65.8673 4.34224 0.71678 0
M  V30 638 H 62.9863 0.736637 -0.0231407 0
M  V30 639 H 65.6283 1.74898 -0.742351 0
M  V30 640 H 63.7783 3.83926 0.594378 0
M  V30 641 H 65.4503 4.15896 -1.9957 0
M  V30 642 H 63.6933 3.8805 -1.93907 0
M  V30 643 H 64.3643 5.3716 -1.27135 0
M  V30 644 H 66.8403 4.15503 0.222908 0
M  V30 645 H 65.7163 5.43936 0.73657 0
M  V30 646 H 65.9773 4.04823 1.77682 0
M  V30 647 N 65.0364 0.313813 1.54444 0
M  V30 648 C 66.3134 -0.345447 1.92525 0
M  V30 649 C 66.6934 -1.70667 1.24242 0
M  V30 650 O 66.0414 -2.25273 0.382654 0
M  V30 651 C 66.2514 -0.44737 3.46121 0
M  V30 652 C 67.5994 -0.712238 4.18584 0
M  V30 653 O 68.6234 -0.530678 3.52225 0
M  V30 654 O 67.4824 -1.06183 5.36085 0
M  V30 655 H 64.5764 -0.195407 0.803583 0
M  V30 656 H 67.1224 0.362813 1.65776 0
M  V30 657 H 65.8944 0.509043 3.87975 0
M  V30 658 H 65.5174 -1.20359 3.78945 0
M  V30 659 N 66.5145 -1.57545 0.0417849 0
M  V30 660 C 67.4245 -2.14451 -0.951213 0
M  V30 661 C 68.4405 -1.09992 -1.34825 0
M  V30 662 O 69.6165 -1.42114 -1.42708 0
M  V30 663 C 66.6815 -2.67063 -2.21084 0
M  V30 664 C 65.7425 -3.86284 -1.87304 0
M  V30 665 C 64.9755 -4.36378 -3.07261 0
M  V30 666 O 65.1985 -3.85587 -4.20332 0
M  V30 667 O 64.1325 -5.28077 -2.88822 0
M  V30 668 H 67.9585 -2.99601 -0.497287 0
M  V30 669 H 65.5435 -1.48317 -0.179567 0
M  V30 670 H 67.4255 -3.00914 -2.95006 0
M  V30 671 H 66.1005 -1.84989 -2.65633 0
M  V30 672 H 65.0075 -3.57338 -1.10727 0
M  V30 673 H 66.3405 -4.6956 -1.47562 0
M  V30 674 N 67.9926 0.231505 -1.5589 0
M  V30 675 C 68.9026 1.308 -1.94752 0
M  V30 676 C 69.9186 1.51826 -0.849989 0
M  V30 677 O 71.0946 1.6515 -1.15271 0
M  V30 678 C 68.1596 2.63968 -2.24771 0
M  V30 679 C 67.2206 2.51331 -3.48039 0
M  V30 680 C 66.4536 3.78148 -3.76616 0
M  V30 681 O 66.6766 4.80722 -3.07022 0
M  V30 682 O 65.6106 3.75857 -4.70123 0
M  V30 683 H 69.4366 1.0083 -2.86474 0
M  V30 684 H 67.0216 0.433547 -1.42971 0
M  V30 685 H 68.9036 3.42633 -2.45318 0
M  V30 686 H 67.5786 2.9364 -1.36225 0
M  V30 687 H 66.4856 1.709 -3.32782 0
M  V30 688 H 67.8186 2.26601 -4.36936 0
M  V30 689 N 69.4707 1.49531 0.497807 0
M  V30 690 C 70.7007 1.62657 1.27382 0
M  V30 691 C 71.1087 0.298488 1.86831 0
M  V30 692 O 70.4517 -0.72647 1.68725 0
M  V30 693 C 70.5137 2.6393 2.44093 0
M  V30 694 C 70.1777 4.08195 2.05489 0
M  V30 695 C 71.1747 4.949 1.59279 0
M  V30 696 C 68.8597 4.53948 2.15026 0
M  V30 697 C 70.8537 6.25397 1.23113 0
M  V30 698 C 68.5407 5.84458 1.78473 0
M  V30 699 C 69.5387 6.70006 1.32591 0
M  V30 700 O 69.2267 7.98083 0.965327 0
M  V30 701 H 68.9587 0.550429 0.392434 0
M  V30 702 H 71.5127 1.96325 0.603801 0
M  V30 703 H 69.7427 2.25449 3.14181 0
M  V30 704 H 71.4317 2.66552 3.06113 0
M  V30 705 H 72.1977 4.60779 1.51354 0
M  V30 706 H 68.0767 3.87525 2.4969 0
M  V30 707 H 71.6207 6.92125 0.872299 0
M  V30 708 H 67.5177 6.18107 1.86048 0
M  V30 709 H 68.2857 8.11122 1.09652 0
M  V30 710 N 70.9488 -0.749086 1.3866 0
M  V30 711 C 71.8988 -1.85368 1.32751 0
M  V30 712 C 72.8828 -1.59511 0.210945 0
M  V30 713 O 74.0748 -1.71255 0.447299 0
M  V30 714 C 71.2038 -3.23131 1.15935 0
M  V30 715 C 70.2898 -3.54864 2.32233 0
M  V30 716 N 70.6808 -3.57625 3.57684 0
M  V30 717 C 68.9788 -3.85154 2.24883 0
M  V30 718 C 69.6798 -3.86753 4.34508 0
M  V30 719 N 68.6558 -4.03812 3.63918 0
M  V30 720 H 72.4578 -1.85787 2.27729 0
M  V30 721 H 69.9718 -0.946658 1.31955 0
M  V30 722 H 71.9688 -4.02185 1.09786 0
M  V30 723 H 70.6288 -3.23961 0.218947 0
M  V30 724 H 71.6398 -3.39276 3.91295 0
M  V30 725 H 68.3168 -3.93672 1.39027 0
M  V30 726 H 69.7068 -3.95474 5.43185 0
M  V30 727 N 72.4269 -1.23603 -0.977757 0
M  V30 728 C 73.7039 -0.977897 -1.69401 0
M  V30 729 C 74.0839 0.502738 -2.05026 0
M  V30 730 O 73.4319 1.47459 -1.74551 0
M  V30 731 C 73.6419 -1.89077 -2.93345 0
M  V30 732 C 74.9899 -2.15579 -3.65802 0
M  V30 733 O 76.0139 -1.86648 -3.03383 0
M  V30 734 O 74.8729 -2.64658 -4.78141 0
M  V30 735 H 71.9669 -0.369025 -0.740101 0
M  V30 736 H 74.5129 -1.34657 -1.03274 0
M  V30 737 H 73.2849 -2.89158 -2.63634 0
M  V30 738 H 72.9079 -1.52463 -3.67207 0
M  V30 739 N 73.905 1.17692 -1.04816 0
M  V30 740 C 75.316 1.69501 -0.782698 0
M  V30 741 C 75.667 1.83456 0.695577 0
M  V30 742 O 74.792 1.51942 1.54086 0
M  V30 743 C 75.387 3.07874 -1.41419 0
M  V30 744 C 73.946 3.56864 -1.19686 0
M  V30 745 C 73.093 2.3322 -1.50012 0
M  V30 746 H 76.044 1.02262 -1.2136 0
M  V30 747 H 76.065 3.71528 -0.821428 0
M  V30 748 H 75.577 2.97685 -2.49009 0
M  V30 749 H 73.678 3.72337 -0.140043 0
M  V30 750 H 73.791 4.39851 -1.89916 0
M  V30 751 H 72.155 2.37501 -0.920071 0
M  V30 752 H 72.938 2.25644 -2.58727 0
M  V30 753 N 75.3831 0.828654 1.34056 0
M  V30 754 C 76.3461 0.259927 2.27721 0
M  V30 755 C 77.3461 -0.565478 1.50529 0
M  V30 756 O 78.5361 -0.38075 1.69988 0
M  V30 757 C 75.6681 -0.634944 3.34935 0
M  V30 758 H 76.8611 1.0863 2.79534 0
M  V30 759 H 74.4141 0.600951 1.44285 0
M  V30 760 H 75.1491 -1.48416 2.88346 0
M  V30 761 H 74.9341 -0.0444999 3.92075 0
M  V30 762 H 76.4241 -1.02648 4.04788 0
M  V30 763 N 76.8612 -1.46375 0.584142 0
M  V30 764 C 78.1382 -1.956 0.0033388 0
M  V30 765 C 78.5182 -1.52679 -1.45782 0
M  V30 766 O 77.8662 -0.77816 -2.14842 0
M  V30 767 C 78.0762 -3.48551 0.176891 0
M  V30 768 C 79.4242 -4.24576 0.0454609 0
M  V30 769 O 80.4482 -3.56043 0.105801 0
M  V30 770 O 79.3072 -5.46427 -0.0890376 0
M  V30 771 H 76.4012 -0.825547 -0.0490066 0
M  V30 772 H 78.9472 -1.56652 0.65256 0
M  V30 773 H 77.7192 -3.72683 1.1926 0
M  V30 774 H 77.3422 -3.94332 -0.508695 0
M  V30 775 N 78.3393 -0.321999 -1.54275 0
M  V30 776 C 79.3023 0.531975 -2.22941 0
M  V30 777 C 80.3023 1.04478 -1.22234 0
M  V30 778 O 81.4923 0.937452 -1.46825 0
M  V30 779 C 78.6243 1.73874 -2.93224 0
M  V30 780 H 79.8173 -0.0682612 -2.99822 0
M  V30 781 H 77.3703 -0.0730644 -1.56129 0
M  V30 782 H 78.1053 2.37825 -2.20476 0
M  V30 783 H 77.8903 1.37847 -3.6707 0
M  V30 784 H 79.3803 2.34496 -3.45545 0
M  V30 785 N 79.8174 1.5752 -0.0501392 0
M  V30 786 C 81.0654 1.9227 0.622642 0
M  V30 787 C 81.3864 0.929083 1.71444 0
M  V30 788 O 80.6564 -0.0262186 1.95882 0
M  V30 789 H 79.2364 0.709739 0.232981 0
M  V30 790 H 81.8984 1.94628 -0.102898 0
M  V30 791 H 80.9944 2.93479 1.06191 0
M  V30 792 N 81.2955 -0.223234 1.56011 0
M  V30 793 C 82.5415 -0.949279 1.79211 0
M  V30 794 C 82.8745 -1.84054 0.619494 0
M  V30 795 O 82.1495 -1.90726 -0.381317 0
M  V30 796 C 82.4325 -1.78965 3.12479 0
M  V30 797 C 82.2855 -0.924997 4.40186 0
M  V30 798 C 83.6045 -2.76774 3.42175 0
M  V30 799 H 80.7235 -0.343676 0.651963 0
M  V30 800 H 83.3655 -0.218253 1.88742 0
M  V30 801 H 81.5155 -2.41291 3.04485 0
M  V30 802 H 83.1875 -0.318615 4.60198 0
M  V30 803 H 81.4305 -0.230344 4.33188 0
M  V30 804 H 82.1015 -1.54735 5.29869 0
M  V30 805 H 84.5775 -2.24584 3.50287 0
M  V30 806 H 83.4535 -3.32678 4.36597 0
M  V30 807 H 83.7145 -3.54429 2.64258 0
M  V30 808 N 82.7736 -1.49793 -0.48987 0
M  V30 809 C 84.0196 -1.60078 -1.24511 0
M  V30 810 C 84.3526 -0.291608 -1.91998 0
M  V30 811 O 83.6276 0.705647 -1.81248 0
M  V30 812 C 83.9106 -2.76791 -2.30345 0
M  V30 813 C 83.7636 -4.17535 -1.67286 0
M  V30 814 C 85.0826 -2.89111 -3.31817 0
M  V30 815 H 82.2016 -0.582645 -0.451324 0
M  V30 816 H 84.8436 -1.82117 -0.541612 0
M  V30 817 H 82.9936 -2.5813 -2.90346 0
M  V30 818 H 84.6656 -4.4774 -1.11026 0
M  V30 819 H 82.9086 -4.22665 -0.976577 0
M  V30 820 H 83.5796 -4.95094 -2.44103 0
M  V30 821 H 86.0556 -3.06133 -2.81819 0
M  V30 822 H 84.9316 -3.72433 -4.03219 0
M  V30 823 H 85.1926 -1.9893 -3.94815 0
M  V30 824 N 84.2517 0.741722 -1.39055 0
M  V30 825 C 85.4767 1.53607 -1.39354 0
M  V30 826 C 85.9017 1.88096 0.0116905 0
M  V30 827 O 85.2597 1.5143 0.996924 0
M  V30 828 C 85.3077 2.80441 -2.26682 0
M  V30 829 O 84.4117 3.76088 -1.69208 0
M  V30 830 H 83.7527 0.464142 -0.474835 0
M  V30 831 H 86.2827 0.915665 -1.82967 0
M  V30 832 H 86.2927 3.29246 -2.40959 0
M  V30 833 H 84.9677 2.5467 -3.2881 0
M  V30 834 H 83.5447 3.34833 -1.64138 0
M  V30 835 N 85.7298 1.2412 0.971189 0
M  V30 836 C 86.9698 1.09066 1.7287 0
M  V30 837 C 87.3338 -0.364794 1.88503 0
M  V30 838 O 88.5348 -0.636748 2.61149 0
M  V30 839 C 86.8058 1.80629 3.08396 0
M  V30 840 S 88.3648 1.81263 3.99611 0
M  V30 841 H 85.1828 0.390145 0.594397 0
M  V30 842 H 87.7848 1.57397 1.15959 0
M  V30 843 H 86.4888 2.85647 2.94676 0
M  V30 844 H 86.0198 1.32617 3.70373 0
M  V30 845 H 88.0348 0.877804 4.88374 0
M  V30 846 N 87.2079 -1.17134 1.05439 0
M  V30 847 C 88.4539 -1.87733 0.767077 0
M  V30 848 C 88.7869 -1.8098 -0.704253 0
M  V30 849 O 88.0619 -1.21951 -1.5152 0
M  V30 850 C 88.3449 -3.37659 1.25133 0
M  V30 851 C 88.1979 -3.53149 2.78578 0
M  V30 852 C 89.5169 -4.31768 0.852324 0
M  V30 853 H 86.6359 -0.681687 0.280129 0
M  V30 854 H 89.2779 -1.37732 1.30881 0
M  V30 855 H 87.4279 -3.80373 0.790469 0
M  V30 856 H 89.0999 -3.19434 3.32806 0
M  V30 857 H 87.3429 -2.95345 3.17732 0
M  V30 858 H 88.0139 -4.58403 3.07523 0
M  V30 859 H 90.4899 -3.96909 1.24911 0
M  V30 860 H 89.3659 -5.35199 1.21873 0
M  V30 861 H 89.6269 -4.41429 -0.243485 0
M  V30 862 N 88.686 -0.835752 -1.33615 0
M  V30 863 C 89.636 -0.238856 -2.26745 0
M  V30 864 C 90.62 0.604343 -1.49119 0
M  V30 865 O 91.812 0.456822 -1.71003 0
M  V30 866 C 88.941 0.587725 -3.38232 0
M  V30 867 C 88.027 -0.266811 -4.2326 0
M  V30 868 N 88.418 -1.34403 -4.87616 0
M  V30 869 C 86.716 -0.0533131 -4.45968 0
M  V30 870 C 87.417 -1.86819 -5.50884 0
M  V30 871 N 86.393 -1.17013 -5.30857 0
M  V30 872 H 90.195 -1.06266 -2.74016 0
M  V30 873 H 87.709 -0.679881 -1.47483 0
M  V30 874 H 89.706 1.03161 -4.03935 0
M  V30 875 H 88.366 1.40954 -2.9251 0
M  V30 876 H 89.377 -1.7269 -4.88261 0
M  V30 877 H 86.054 0.735312 -4.10974 0
M  V30 878 H 87.444 -2.7701 -6.1214 0
M  V30 879 N 90.1641 1.46063 -0.591896 0
M  V30 880 C 91.5751 1.85944 -0.167822 0
M  V30 881 C 91.9261 1.49429 1.27143 0
M  V30 882 O 91.0511 0.913515 1.96173 0
M  V30 883 C 91.6461 3.37489 -0.297794 0
M  V30 884 C 90.2051 3.76332 0.0714732 0
M  V30 885 C 89.3521 2.7006 -0.629509 0
M  V30 886 H 92.3031 1.37087 -0.799555 0
M  V30 887 H 92.3241 3.77532 0.474349 0
M  V30 888 H 91.8361 3.64034 -1.3454 0
M  V30 889 H 89.9371 3.55405 1.11886 0
M  V30 890 H 90.0501 4.78088 -0.311245 0
M  V30 891 H 88.4141 2.54607 -0.0687867 0
M  V30 892 H 89.1971 2.99444 -1.67894 0
M  V30 893 N 91.6422 0.330177 1.54103 0
M  V30 894 C 92.8902 -0.269871 2.0029 0
M  V30 895 C 93.2112 -1.52133 1.21986 0
M  V30 896 O 92.4812 -1.93212 0.323438 0
M  V30 897 H 91.0612 -0.10271 0.739905 0
M  V30 898 H 93.7232 0.448249 1.89675 0
M  V30 899 H 92.8192 -0.52166 3.07709 0
M  V30 900 N 93.1203 -1.57491 0.0584922 0
M  V30 901 C 94.3663 -1.94081 -0.608617 0
M  V30 902 C 94.7213 -0.937438 -1.68017 0
M  V30 903 O 94.0143 0.0423034 -1.91553 0
M  V30 904 C 94.2083 -3.3513 -1.24188 0
M  V30 905 C 94.0373 -4.49095 -0.233187 0
M  V30 906 C 92.8073 -5.04988 0.177439 0
M  V30 907 C 95.0053 -5.1162 0.524306 0
M  V30 908 N 92.9873 -6.02487 1.17823 0
M  V30 909 C 94.3583 -6.04493 1.37796 0
M  V30 910 C 96.4133 -4.94489 0.581822 0
M  V30 911 C 95.1163 -6.82075 2.28399 0
M  V30 912 C 97.1423 -5.72703 1.47531 0
M  V30 913 C 96.5043 -6.65214 2.31667 0
M  V30 914 H 92.6033 -0.75752 -0.194134 0
M  V30 915 H 95.1873 -1.94248 0.132533 0
M  V30 916 H 93.3583 -3.35726 -1.95302 0
M  V30 917 H 95.0903 -3.5899 -1.86838 0
M  V30 918 H 91.8453 -4.73165 -0.203004 0
M  V30 919 H 92.2693 -6.55933 1.67573 0
M  V30 920 H 96.9113 -4.22765 -0.054443 0
M  V30 921 H 94.6293 -7.53085 2.93067 0
M  V30 922 H 98.2153 -5.61472 1.52448 0
M  V30 923 H 97.0953 -7.24679 2.99683 0
M  V30 924 N 94.5984 0.214957 -1.56127 0
M  V30 925 C 96.0094 0.781386 -1.69562 0
M  V30 926 C 96.3604 1.84707 -0.66165 0
M  V30 927 O 95.4854 2.156 0.185927 0
M  V30 928 C 96.0804 1.42411 -3.07416 0
M  V30 929 C 94.6394 1.93786 -3.22683 0
M  V30 930 C 93.7864 0.800438 -2.65496 0
M  V30 931 H 96.7374 -0.00980633 -1.58697 0
M  V30 932 H 96.7584 2.29309 -3.0364 0
M  V30 933 H 96.2704 0.64826 -3.82648 0
M  V30 934 H 94.3714 2.74152 -2.52332 0
M  V30 935 H 94.4844 2.1133 -4.29973 0
M  V30 936 H 92.8484 1.2095 -2.2415 0
M  V30 937 H 93.6314 0.0371471 -3.4328 0
M  V30 938 N 96.0765 1.50051 0.48192 0
M  V30 939 C 97.3225 1.60736 1.2366 0
M  V30 940 C 97.6555 0.301786 1.91841 0
M  V30 941 O 96.9305 -0.696025 1.8162 0
M  V30 942 C 97.2135 2.78009 2.28874 0
M  V30 943 C 97.0665 4.18416 1.65069 0
M  V30 944 C 98.3855 2.90867 3.30279 0
M  V30 945 H 95.5045 0.585031 0.448228 0
M  V30 946 H 98.1465 1.82402 0.531946 0
M  V30 947 H 96.2965 2.59667 2.88973 0
M  V30 948 H 97.9685 4.48322 1.0865 0
M  V30 949 H 96.2115 4.23177 0.954148 0
M  V30 950 H 96.8825 4.96381 2.41474 0
M  V30 951 H 99.3585 3.07623 2.80191 0
M  V30 952 H 98.2345 3.74566 4.01238 0
M  V30 953 H 98.4955 2.01021 3.93755 0
M  V30 954 N 97.5546 -0.734337 1.39446 0
M  V30 955 C 98.4846 -1.86155 1.40955 0
M  V30 956 C 99.4656 -1.67898 0.272827 0
M  V30 957 O 100.651 -1.88207 0.478743 0
M  V30 958 C 97.7806 -3.23912 1.25294 0
M  V30 959 C 96.7346 -3.56808 2.36373 0
M  V30 960 C 96.0606 -4.93508 2.058 0
M  V30 961 C 97.3606 -3.59713 3.78687 0
M  V30 962 H 99.0546 -1.8515 2.35287 0
M  V30 963 H 96.6006 -0.889367 1.13253 0
M  V30 964 H 98.5536 -4.02443 1.2497 0
M  V30 965 H 97.2776 -3.25446 0.274308 0
M  V30 966 H 95.9366 -2.80606 2.35914 0
M  V30 967 H 95.5846 -4.91623 1.06374 0
M  V30 968 H 95.2846 -5.16486 2.80208 0
M  V30 969 H 96.8086 -5.74396 2.07128 0
M  V30 970 H 98.2226 -4.2832 3.81071 0
M  V30 971 H 96.6196 -3.94209 4.52459 0
M  V30 972 H 97.6896 -2.59504 4.09617 0
M  V30 973 N 99.0327 -1.24633 -0.964593 0
M  V30 974 C 100.258 -1.11596 -1.74818 0
M  V30 975 C 100.683 0.32723 -1.85232 0
M  V30 976 O 100.041 1.23695 -1.32549 0
M  V30 977 C 100.089 -1.76397 -3.1451 0
M  V30 978 O 99.1927 -1.03685 -3.99153 0
M  V30 979 H 98.5337 -0.390196 -0.537255 0
M  V30 980 H 101.064 -1.65002 -1.20977 0
M  V30 981 H 101.074 -1.8228 -3.65018 0
M  V30 982 H 99.7487 -2.81401 -3.06246 0
M  V30 983 H 98.3257 -1.05611 -3.57632 0
M  V30 984 N 100.511 1.16574 -1.06058 0
M  V30 985 C 101.759 1.86677 -0.77434 0
M  V30 986 C 102.08 1.81959 0.701147 0
M  V30 987 O 101.35 1.2515 1.50713 0
M  V30 988 H 99.9298 0.691134 -0.283449 0
M  V30 989 H 102.592 1.41378 -1.34158 0
M  V30 990 H 101.688 2.92181 -1.09711 0
M  V30 991 N 101.989 0.842826 1.3317 0
M  V30 992 C 103.405 0.531128 1.50503 0
M  V30 993 C 103.605 -0.940734 1.78192 0
M  V30 994 O 102.661 -1.72436 1.84451 0
M  V30 995 C 103.974 1.40789 2.65705 0
M  V30 996 C 105.522 1.40708 2.79589 0
M  V30 997 C 105.997 2.26878 3.97857 0
M  V30 998 N 107.488 2.24609 4.05099 0
M  V30 999 C 108.223 2.88019 4.95815 0
M  V30 1000 N 107.719 3.60496 5.9162 0
M  V30 1001 N 109.512 2.77469 4.88843 0
M  V30 1002 H 101.663 1.79557 1.1346 0
M  V30 1003 H 103.926 0.766267 0.558156 0
M  V30 1004 H 103.632 2.454 2.51936 0
M  V30 1005 H 103.506 1.08677 3.61205 0
M  V30 1006 H 105.893 0.368668 2.92788 0
M  V30 1007 H 105.974 1.76829 1.84838 0
M  V30 1008 H 105.618 3.3078 3.85418 0
M  V30 1009 H 105.548 1.88096 4.91861 0
M  V30 1010 H 108.039 1.71906 3.36536 0
M  V30 1011 H 108.352 4.06076 6.57512 0
M  V30 1012 H 106.697 3.64604 5.91683 0
M  V30 1013 H 109.888 2.20406 4.12963 0
M  V30 1014 H 110.061 3.2717 5.59342 0
M  V30 1015 N 103.467 -1.45747 0.599634 0
M  V30 1016 C 104.715 -2.01893 0.0915472 0
M  V30 1017 C 105.036 -1.47155 -1.27946 0
M  V30 1018 O 104.306 -0.66273 -1.84349 0
M  V30 1019 H 102.886 -0.746363 0.0308524 0
M  V30 1020 H 105.548 -1.78645 0.779237 0
M  V30 1021 H 104.644 -3.1208 0.0353086 0
M  V30 1022 N 104.945 -0.338344 -1.53925 0
M  V30 1023 C 105.855 0.529421 -2.28548 0
M  V30 1024 C 106.871 1.11645 -1.3346 0
M  V30 1025 O 108.047 1.13325 -1.66492 0
M  V30 1026 C 105.112 1.66713 -3.03987 0
M  V30 1027 C 104.173 1.11041 -4.14691 0
M  V30 1028 C 103.406 2.19389 -4.86522 0
M  V30 1029 O 103.629 3.40013 -4.57982 0
M  V30 1030 O 102.563 1.83976 -5.73094 0
M  V30 1031 H 106.389 -0.0770399 -3.03602 0
M  V30 1032 H 103.974 -0.103555 -1.49041 0
M  V30 1033 H 105.856 2.32918 -3.5118 0
M  V30 1034 H 104.531 2.25949 -2.31794 0
M  V30 1035 H 103.438 0.413024 -3.71813 0
M  V30 1036 H 104.771 0.562975 -4.8897 0
M  V30 1037 N 106.423 1.57458 -0.0668435 0
M  V30 1038 C 107.669 1.93587 0.6043 0
M  V30 1039 C 108.002 0.946722 1.69561 0
M  V30 1040 O 107.277 -0.0248516 1.94484 0
M  V30 1041 C 107.56 3.40014 1.18585 0
M  V30 1042 C 107.413 4.49685 0.101529 0
M  V30 1043 C 108.732 3.87154 2.09284 0
M  V30 1044 H 105.851 0.703958 0.218202 0
M  V30 1045 H 108.493 1.89542 -0.131804 0
M  V30 1046 H 106.643 3.43592 1.81319 0
M  V30 1047 H 108.315 4.5823 -0.531279 0
M  V30 1048 H 106.558 4.30059 -0.568487 0
M  V30 1049 H 107.229 5.49266 0.54874 0
M  V30 1050 H 109.705 3.85551 1.56491 0
M  V30 1051 H 108.581 4.90231 2.46911 0
M  V30 1052 H 108.842 3.2481 2.99918 0
M  V30 1053 N 107.901 -0.206675 1.56239 0
M  V30 1054 C 108.831 -1.25909 1.96645 0
M  V30 1055 C 109.812 -1.48097 0.836734 0
M  V30 1056 O 110.997 -1.6003 1.10019 0
M  V30 1057 C 108.127 -2.6058 2.29599 0
M  V30 1058 C 107.081 -2.53024 3.452 0
M  V30 1059 C 106.407 -3.91861 3.63798 0
M  V30 1060 C 107.707 -2.06524 4.79734 0
M  V30 1061 H 109.401 -0.923369 2.84806 0
M  V30 1062 H 106.947 -0.442735 1.37025 0
M  V30 1063 H 108.9 -3.34375 2.56459 0
M  V30 1064 H 107.624 -2.95869 1.38307 0
M  V30 1065 H 106.283 -1.81684 3.18412 0
M  V30 1066 H 105.931 -4.24483 2.69857 0
M  V30 1067 H 105.631 -3.87683 4.4156 0
M  V30 1068 H 107.155 -4.67296 3.93022 0
M  V30 1069 H 108.569 -2.70072 5.05702 0
M  V30 1070 H 106.966 -2.13374 5.60885 0
M  V30 1071 H 108.036 -1.01802 4.74093 0
M  V30 1072 N 109.379 -1.50304 -0.473955 0
M  V30 1073 C 110.795 -1.37667 -0.807466 0
M  V30 1074 C 110.995 -0.430555 -1.96846 0
M  V30 1075 O 110.051 0.127874 -2.52176 0
M  V30 1076 C 111.364 -2.78974 -1.12223 0
M  V30 1077 C 112.912 -2.87868 -1.22885 0
M  V30 1078 C 113.387 -4.30003 -1.57676 0
M  V30 1079 N 114.878 -4.3294 -1.64673 0
M  V30 1080 C 115.613 -5.3991 -1.93091 0
M  V30 1081 N 115.109 -6.57092 -2.1955 0
M  V30 1082 N 116.902 -5.27351 -1.94569 0
M  V30 1083 H 109.053 -2.10394 0.291212 0
M  V30 1084 H 111.316 -0.945575 0.0677609 0
M  V30 1085 H 111.022 -3.50031 -0.342229 0
M  V30 1086 H 110.896 -3.16038 -2.05913 0
M  V30 1087 H 113.283 -2.17032 -1.99953 0
M  V30 1088 H 113.364 -2.54352 -0.271814 0
M  V30 1089 H 113.008 -5.01375 -0.81149 0
M  V30 1090 H 112.938 -4.61004 -2.54525 0
M  V30 1091 H 115.429 -3.48441 -1.46277 0
M  V30 1092 H 115.742 -7.34425 -2.405 0
M  V30 1093 H 114.087 -6.60272 -2.16948 0
M  V30 1094 H 117.278 -4.34801 -1.73394 0
M  V30 1095 H 117.451 -6.10805 -2.16381 0
M  V30 1096 N 110.857 0.726932 -1.39834 0
M  V30 1097 C 112.082 1.52121 -1.40976 0
M  V30 1098 C 112.507 1.88098 -0.00826029 0
M  V30 1099 O 111.865 1.52479 0.980807 0
M  V30 1100 C 111.913 2.78021 -2.29644 0
M  V30 1101 O 111.017 3.74272 -1.73188 0
M  V30 1102 H 110.358 0.45908 -0.479731 0
M  V30 1103 H 112.888 0.896207 -1.83927 0
M  V30 1104 H 112.898 3.26671 -2.44438 0
M  V30 1105 H 111.573 2.51169 -3.31492 0
M  V30 1106 H 110.15 3.33073 -1.6768 0
M  V30 1107 N 112.336 1.25143 0.95797 0
M  V30 1108 C 113.566 1.12261 1.73439 0
M  V30 1109 C 113.974 -0.326715 1.86358 0
M  V30 1110 O 113.317 -1.2367 1.35836 0
M  V30 1111 C 113.379 1.69966 3.16784 0
M  V30 1112 C 113.043 3.18936 3.27305 0
M  V30 1113 C 114.04 4.15968 3.11877 0
M  V30 1114 C 111.725 3.59083 3.51234 0
M  V30 1115 C 113.719 5.51126 3.20217 0
M  V30 1116 C 111.406 4.9438 3.5921 0
M  V30 1117 C 112.404 5.90211 3.43716 0
M  V30 1118 O 112.092 7.23046 3.51368 0
M  V30 1119 H 111.824 0.392476 0.550399 0
M  V30 1120 H 114.378 1.65927 1.21068 0
M  V30 1121 H 112.608 1.10744 3.70503 0
M  V30 1122 H 114.297 1.52232 3.76272 0
M  V30 1123 H 115.063 3.86292 2.93264 0
M  V30 1124 H 110.942 2.84989 3.62356 0
M  V30 1125 H 114.486 6.25905 3.0804 0
M  V30 1126 H 110.383 5.23723 3.77339 0
M  V30 1127 H 111.151 7.31097 3.6802 0
M  V30 1128 N 113.814 -1.1601 1.06675 0
M  V30 1129 C 114.777 -2.18724 0.685001 0
M  V30 1130 C 115.777 -1.58496 -0.271246 0
M  V30 1131 O 116.967 -1.74119 -0.0531156 0
M  V30 1132 C 114.099 -3.40899 0.00853648 0
M  V30 1133 H 115.292 -2.54011 1.59431 0
M  V30 1134 H 112.845 -1.30352 0.862441 0
M  V30 1135 H 113.58 -3.11173 -0.913337 0
M  V30 1136 H 113.365 -3.8587 0.696204 0
M  V30 1137 H 114.855 -4.16886 -0.24414 0
M  V30 1138 N 115.292 -0.849877 -1.32721 0
M  V30 1139 C 116.222 -0.306308 -2.31482 0
M  V30 1140 C 117.203 0.591952 -1.59468 0
M  V30 1141 O 118.388 0.513199 -1.87296 0
M  V30 1142 C 115.518 0.510204 -3.43532 0
M  V30 1143 C 114.472 -0.293209 -4.26994 0
M  V30 1144 C 113.798 0.647743 -5.30762 0
M  V30 1145 C 115.098 -1.51634 -4.99804 0
M  V30 1146 H 116.792 -1.13153 -2.77195 0
M  V30 1147 H 114.338 -0.545553 -1.33266 0
M  V30 1148 H 116.291 0.900856 -4.11658 0
M  V30 1149 H 115.015 1.36874 -2.96535 0
M  V30 1150 H 113.674 -0.665555 -3.60508 0
M  V30 1151 H 113.322 1.50299 -4.8002 0
M  V30 1152 H 113.022 0.11422 -5.87489 0
M  V30 1153 H 114.546 1.03567 -6.01753 0
M  V30 1154 H 115.96 -1.19824 -5.60638 0
M  V30 1155 H 114.357 -1.98745 -5.66234 0
M  V30 1156 H 115.427 -2.28018 -4.27943 0
M  V30 1157 N 116.77 1.45427 -0.607355 0
M  V30 1158 C 118.019 2.01452 -0.100036 0
M  V30 1159 C 118.332 1.48159 1.27704 0
M  V30 1160 O 119.538 1.96159 1.87707 0
M  V30 1161 C 117.994 3.59672 -0.128158 0
M  V30 1162 C 117.602 4.21962 -1.50507 0
M  V30 1163 C 119.346 4.23262 0.323932 0
M  V30 1164 C 117.253 5.72333 -1.48959 0
M  V30 1165 H 116.183 0.75325 -0.0336299 0
M  V30 1166 H 118.834 1.66901 -0.76265 0
M  V30 1167 H 117.216 3.91411 0.601105 0
M  V30 1168 H 118.39 4.01796 -2.25602 0
M  V30 1169 H 116.705 3.70565 -1.89923 0
M  V30 1170 H 119.302 5.33522 0.354691 0
M  V30 1171 H 119.645 3.93921 1.34656 0
M  V30 1172 H 120.178 3.96239 -0.352056 0
M  V30 1173 H 116.917 6.06373 -2.48981 0
M  V30 1174 H 116.437 5.94691 -0.781214 0
M  V30 1175 H 118.116 6.35525 -1.21313 0
M  V30 1176 N 118.248 0.346503 1.53744 0
M  V30 1177 C 119.181 -0.552023 2.21423 0
M  V30 1178 C 120.159 -1.09798 1.19929 0
M  V30 1179 O 121.343 -1.1577 1.4876 0
M  V30 1180 C 118.47 -1.75972 2.89398 0
M  V30 1181 C 117.516 -1.34295 4.04805 0
M  V30 1182 S 118.349 -0.360263 5.34287 0
M  V30 1183 C 119.505 -1.57473 6.05767 0
M  V30 1184 H 119.738 0.0228119 2.97291 0
M  V30 1185 H 117.271 0.130579 1.53847 0
M  V30 1186 H 119.229 -2.45256 3.2918 0
M  V30 1187 H 117.89 -2.30578 2.1329 0
M  V30 1188 H 117.083 -2.24349 4.51313 0
M  V30 1189 H 116.685 -0.729555 3.66815 0
M  V30 1190 H 118.977 -2.50875 6.29339 0
M  V30 1191 H 119.92 -1.15138 6.98676 0
M  V30 1192 H 120.328 -1.77212 5.35963 0
M  V30 1193 N 119.726 -1.57421 0.075193 0
M  V30 1194 C 120.689 -2.11791 -0.876203 0
M  V30 1195 C 121.689 -1.04268 -1.22412 0
M  V30 1196 O 122.879 -1.30242 -1.15684 0
M  V30 1197 C 120.011 -2.62207 -2.17854 0
M  V30 1198 H 121.204 -2.9716 -0.40444 0
M  V30 1199 H 118.757 -1.55333 -0.173557 0
M  V30 1200 H 119.492 -1.803 -2.6956 0
M  V30 1201 H 119.277 -3.40802 -1.93897 0
M  V30 1202 H 120.767 -3.04335 -2.85955 0
M  V30 1203 N 121.204 0.198386 -1.56346 0
M  V30 1204 C 122.152 1.26538 -1.95169 0
M  V30 1205 C 123.146 1.47295 -0.836685 0
M  V30 1206 O 124.352 1.48195 -1.02167 0
M  V30 1207 H 120.727 0.424744 -0.620561 0
M  V30 1208 H 122.698 0.910904 -2.84157 0
M  V30 1209 C 121.447 2.6035 -2.30463 0
M  V30 1210 H 120.77 2.45192 -3.15786 0
M  V30 1211 H 122.21 3.33762 -2.61494 0
M  V30 1212 C 120.669 3.17096 -1.13806 0
M  V30 1213 O 121.199 3.99588 -0.41135 0
M  V30 1214 N 119.405 2.75795 -0.915736 0
M  V30 1215 H 118.952 2.08816 -1.50843 0
M  V30 1216 H 118.91 3.14101 -0.136979 0
M  V30 1217 N 122.682 1.50554 0.465978 0
M  V30 1218 C 123.91 1.65563 1.24083 0
M  V30 1219 C 124.325 0.341051 1.85694 0
M  V30 1220 O 123.682 -0.677543 1.69457 0
M  V30 1221 C 123.733 2.75051 2.34583 0
M  V30 1222 O 123.454 4.01413 1.75497 0
M  V30 1223 C 124.955 3.01078 3.25372 0
M  V30 1224 H 122.175 0.55638 0.375077 0
M  V30 1225 H 124.719 1.96807 0.555624 0
M  V30 1226 H 122.874 2.46486 2.9887 0
M  V30 1227 H 123.288 4.62002 2.48303 0
M  V30 1228 H 124.762 3.81339 3.99105 0
M  V30 1229 H 125.239 2.12349 3.84453 0
M  V30 1230 H 125.845 3.31194 2.66816 0
M  V30 1231 N 124.16 -0.719506 1.40217 0
M  V30 1232 C 125.07 -1.86378 1.42479 0
M  V30 1233 C 126.086 -1.71073 0.317834 0
M  V30 1234 O 127.262 -1.93406 0.561794 0
M  V30 1235 C 124.327 -3.22136 1.28178 0
M  V30 1236 C 123.388 -3.49723 2.48982 0
M  V30 1237 C 122.621 -4.79004 2.35353 0
M  V30 1238 O 122.844 -5.53821 1.36524 0
M  V30 1239 O 121.778 -5.06839 3.2465 0
M  V30 1240 H 125.604 -1.87425 2.38968 0
M  V30 1241 H 123.189 -0.869405 1.21498 0
M  V30 1242 H 125.071 -4.03234 1.22395 0
M  V30 1243 H 123.746 -3.21825 0.347934 0
M  V30 1244 H 122.653 -2.6865 2.60342 0
M  V30 1245 H 123.986 -3.54828 3.41113 0
M  V30 1246 N 125.638 -1.25649 -0.95132 0
M  V30 1247 C 126.868 -1.13179 -1.72841 0
M  V30 1248 C 127.276 0.316827 -1.86528 0
M  V30 1249 O 126.619 1.22948 -1.3649 0
M  V30 1250 C 126.681 -1.71644 -3.15878 0
M  V30 1251 C 126.345 -3.20667 -3.25609 0
M  V30 1252 C 127.342 -4.17616 -3.09666 0
M  V30 1253 C 125.027 -3.6094 -3.49324 0
M  V30 1254 C 127.021 -5.52817 -3.17289 0
M  V30 1255 C 124.708 -4.96278 -3.56584 0
M  V30 1256 C 125.706 -5.92025 -3.40581 0
M  V30 1257 O 125.394 -7.24899 -3.47528 0
M  V30 1258 H 125.126 -0.395389 -0.54831 0
M  V30 1259 H 127.68 -1.66566 -1.20187 0
M  V30 1260 H 125.91 -1.12707 -3.69911 0
M  V30 1261 H 127.599 -1.54225 -3.75459 0
M  V30 1262 H 128.365 -3.87842 -2.91211 0
M  V30 1263 H 124.244 -2.86907 -3.6084 0
M  V30 1264 H 127.788 -6.2753 -3.04716 0
M  V30 1265 H 123.685 -5.25716 -3.74556 0
M  V30 1266 H 124.453 -7.33039 -3.64138 0
M  V30 1267 N 127.117 1.15442 -1.07289 0
M  V30 1268 C 128.366 1.85557 -0.790669 0
M  V30 1269 C 128.679 1.83186 0.685739 0
M  V30 1270 O 129.885 2.48977 1.0827 0
M  V30 1271 C 128.341 3.33038 -1.36433 0
M  V30 1272 C 127.949 3.43856 -2.8717 0
M  V30 1273 C 129.693 4.0834 -1.1601 0
M  V30 1274 C 127.6 4.85482 -3.3773 0
M  V30 1275 H 126.53 0.695122 -0.292098 0
M  V30 1276 H 129.181 1.30219 -1.29287 0
M  V30 1277 H 127.563 3.88043 -0.789864 0
M  V30 1278 H 128.737 2.98961 -3.50655 0
M  V30 1279 H 127.052 2.81998 -3.06376 0
M  V30 1280 H 129.649 5.12859 -1.51262 0
M  V30 1281 H 129.992 4.16182 -0.0991007 0
M  V30 1282 H 130.525 3.59603 -1.70089 0
M  V30 1283 H 127.264 4.82823 -4.43353 0
M  V30 1284 H 126.784 5.30961 -2.78999 0
M  V30 1285 H 128.463 5.54335 -3.33648 0
M  V30 1286 N 128.595 0.856903 1.32268 0
M  V30 1287 C 129.527 0.260412 2.27716 0
M  V30 1288 C 130.54 -0.569137 1.52528 0
M  V30 1289 O 131.729 -0.39326 1.74114 0
M  V30 1290 C 128.829 -0.650477 3.32599 0
M  V30 1291 C 128.002 0.14372 4.37164 0
M  V30 1292 C 127.061 -0.69328 5.21613 0
M  V30 1293 O 126.087 -0.12599 5.69061 0
M  V30 1294 N 127.289 -2.00761 5.44679 0
M  V30 1295 H 130.054 1.08059 2.79541 0
M  V30 1296 H 127.615 0.717103 1.45152 0
M  V30 1297 H 129.607 -1.21581 3.86005 0
M  V30 1298 H 128.177 -1.37133 2.80915 0
M  V30 1299 H 127.397 0.890486 3.8401 0
M  V30 1300 H 128.685 0.68915 5.04111 0
M  V30 1301 H 128.083 -2.49181 5.07863 0
M  V30 1302 H 126.64 -2.52103 6.01072 0
M  V30 1303 N 130.073 -1.45103 0.615059 0
M  V30 1304 C 131.32 -2.02183 0.113179 0
M  V30 1305 C 131.648 -1.48249 -1.25906 0
M  V30 1306 O 130.903 -0.650265 -1.84581 0
M  V30 1307 C 131.202 -3.57386 0.0318797 0
M  V30 1308 C 130.868 -4.30505 1.34077 0
M  V30 1309 C 129.53 -4.50197 1.69929 0
M  V30 1310 C 131.882 -4.72238 2.20546 0
M  V30 1311 C 129.21 -5.08881 2.91988 0
M  V30 1312 C 131.562 -5.32272 3.41861 0
M  V30 1313 C 130.226 -5.50187 3.77956 0
M  V30 1314 H 129.496 -0.739842 0.0414151 0
M  V30 1315 H 132.143 -1.74073 0.798168 0
M  V30 1316 H 130.448 -3.84817 -0.736409 0
M  V30 1317 H 132.145 -3.99264 -0.372712 0
M  V30 1318 H 128.735 -4.15496 1.05173 0
M  V30 1319 H 132.919 -4.56751 1.94146 0
M  V30 1320 H 128.175 -5.20939 3.2005 0
M  V30 1321 H 132.349 -5.63563 4.09109 0
M  V30 1322 H 129.976 -5.95427 4.72622 0
M  V30 1323 N 131.551 -0.354651 -1.53558 0
M  V30 1324 C 132.798 0.238443 -2.01091 0
M  V30 1325 C 133.126 1.49663 -1.24222 0
M  V30 1326 O 132.381 1.93049 -0.321003 0
M  V30 1327 C 132.68 0.587121 -3.52545 0
M  V30 1328 C 132.346 -0.575472 -4.47213 0
M  V30 1329 C 131.008 -0.894497 -4.72813 0
M  V30 1330 C 133.36 -1.35489 -5.03281 0
M  V30 1331 C 130.688 -1.99511 -5.51736 0
M  V30 1332 C 133.04 -2.44583 -5.83405 0
M  V30 1333 C 131.704 -2.77033 -6.07296 0
M  V30 1334 H 130.974 0.0872526 -0.735845 0
M  V30 1335 H 133.621 -0.484859 -1.8526 0
M  V30 1336 H 131.926 1.39129 -3.66265 0
M  V30 1337 H 133.623 1.05809 -3.86789 0
M  V30 1338 H 130.213 -0.316774 -4.27428 0
M  V30 1339 H 134.397 -1.12167 -4.83459 0
M  V30 1340 H 129.653 -2.25063 -5.68469 0
M  V30 1341 H 133.827 -3.05401 -6.25862 0
M  V30 1342 H 131.454 -3.6244 -6.68237 0
M  V30 1343 N 133.029 1.57378 -0.0835403 0
M  V30 1344 C 133.959 2.1641 0.87686 0
M  V30 1345 C 134.94 1.09429 1.30228 0
M  V30 1346 O 136.125 1.37516 1.37124 0
M  V30 1347 C 133.255 2.73517 2.14022 0
M  V30 1348 C 132.209 3.85769 1.85381 0
M  V30 1349 C 131.535 4.29529 3.18448 0
M  V30 1350 C 132.835 5.09486 1.14984 0
M  V30 1351 H 134.529 2.96914 0.385059 0
M  V30 1352 H 132.075 1.42823 0.18377 0
M  V30 1353 H 134.028 3.13463 2.81636 0
M  V30 1354 H 132.752 1.90252 2.65465 0
M  V30 1355 H 131.411 3.46345 1.20169 0
M  V30 1356 H 131.059 3.43169 3.67755 0
M  V30 1357 H 130.759 5.05204 3.00071 0
M  V30 1358 H 132.283 4.72099 3.8724 0
M  V30 1359 H 133.697 5.46674 1.72687 0
M  V30 1360 H 132.094 5.90515 1.06826 0
M  V30 1361 H 133.164 4.84724 0.130749 0
M  V30 1362 N 134.507 -0.190092 1.56449 0
M  V30 1363 C 135.735 -0.925772 1.85033 0
M  V30 1364 C 136.15 -1.76638 0.666658 0
M  V30 1365 O 135.507 -1.78822 -0.364565 0
M  V30 1366 C 135.558 -1.81786 3.12468 0
M  V30 1367 O 135.279 -1.01118 4.26271 0
M  V30 1368 C 136.78 -2.6648 3.54265 0
M  V30 1369 H 134 -0.269872 0.614337 0
M  V30 1370 H 136.544 -0.195837 2.0356 0
M  V30 1371 H 134.699 -2.50136 2.95822 0
M  V30 1372 H 135.113 -1.61956 4.98869 0
M  V30 1373 H 136.587 -3.24722 4.46385 0
M  V30 1374 H 137.064 -3.40434 2.77491 0
M  V30 1375 H 137.67 -2.03493 3.73458 0
M  V30 1376 N 135.985 -1.50799 -0.457987 0
M  V30 1377 C 137.262 -1.52968 -1.21902 0
M  V30 1378 C 137.642 -0.281906 -2.09209 0
M  V30 1379 O 136.99 0.734076 -2.16388 0
M  V30 1380 C 137.2 -2.8326 -2.03875 0
M  V30 1381 C 138.548 -3.34425 -2.6162 0
M  V30 1382 O 139.572 -2.8467 -2.14106 0
M  V30 1383 O 138.431 -4.21188 -3.48228 0
M  V30 1384 H 135.525 -0.614129 -0.553873 0
M  V30 1385 H 138.071 -1.63098 -0.468739 0
M  V30 1386 H 136.843 -3.65543 -1.39621 0
M  V30 1387 H 136.466 -2.76195 -2.8601 0
M  V30 1388 N 137.463 0.71206 -1.40597 0
M  V30 1389 C 138.709 1.47416 -1.39271 0
M  V30 1390 C 139.042 1.942 0.00388791 0
M  V30 1391 O 138.317 1.68403 0.973179 0
M  V30 1392 C 138.6 2.69774 -2.38525 0
M  V30 1393 C 138.453 2.28861 -3.87224 0
M  V30 1394 C 139.772 3.71939 -2.35264 0
M  V30 1395 H 136.891 0.534713 -0.5072 0
M  V30 1396 H 139.533 0.812375 -1.71757 0
M  V30 1397 H 137.683 3.26238 -2.10953 0
M  V30 1398 H 139.355 1.77852 -4.25636 0
M  V30 1399 H 137.598 1.60824 -4.02887 0
M  V30 1400 H 138.269 3.16584 -4.52193 0
M  V30 1401 H 140.745 3.25113 -2.59694 0
M  V30 1402 H 139.621 4.55186 -3.06753 0
M  V30 1403 H 139.882 4.20484 -1.36549 0
M  V30 1404 N 138.941 1.26152 0.944643 0
M  V30 1405 C 139.891 1.04081 2.02857 0
M  V30 1406 C 140.875 -0.0256555 1.6088 0
M  V30 1407 O 142.067 0.190884 1.75968 0
M  V30 1408 C 139.196 0.672118 3.36656 0
M  V30 1409 C 138.282 1.77586 3.85128 0
M  V30 1410 N 138.673 3.01272 4.06287 0
M  V30 1411 C 136.971 1.65867 4.1401 0
M  V30 1412 C 137.672 3.72983 4.46384 0
M  V30 1413 N 136.648 3.00653 4.52889 0
M  V30 1414 H 140.45 1.97968 2.17223 0
M  V30 1415 H 137.964 1.16618 1.13022 0
M  V30 1416 H 139.961 0.495166 4.13949 0
M  V30 1417 H 138.621 -0.259307 3.23663 0
M  V30 1418 H 139.632 3.37213 3.93075 0
M  V30 1419 H 136.309 0.796907 4.09824 0
M  V30 1420 H 137.699 4.792 4.70975 0
M  V30 1421 N 140.419 -1.14872 1.07899 0
M  V30 1422 C 141.665 -1.86064 0.806725 0
M  V30 1423 C 141.998 -1.82434 -0.665706 0
M  V30 1424 O 141.273 -1.25138 -1.48899 0
M  V30 1425 C 141.556 -3.34929 1.32267 0
M  V30 1426 C 141.409 -3.47161 2.86006 0
M  V30 1427 C 142.728 -4.29863 0.943717 0
M  V30 1428 H 139.847 -0.675591 0.294526 0
M  V30 1429 H 142.489 -1.34925 1.33773 0
M  V30 1430 H 140.639 -3.78611 0.870974 0
M  V30 1431 H 142.311 -3.12302 3.39507 0
M  V30 1432 H 140.554 -2.88539 3.23925 0
M  V30 1433 H 141.225 -4.51777 3.17177 0
M  V30 1434 H 143.701 -3.9417 1.33302 0
M  V30 1435 H 142.577 -5.32494 1.33198 0
M  V30 1436 H 142.838 -4.41846 -0.149796 0
M  V30 1437 N 141.898 -0.863906 -1.31812 0
M  V30 1438 C 143.123 -0.48527 -2.01643 0
M  V30 1439 C 143.548 0.913058 -1.64453 0
M  V30 1440 O 142.906 1.6014 -0.849985 0
M  V30 1441 C 142.954 -0.642625 -3.54828 0
M  V30 1442 O 142.058 0.320659 -4.11151 0
M  V30 1443 H 141.399 -0.193793 -0.635091 0
M  V30 1444 H 143.929 -1.16565 -1.68148 0
M  V30 1445 H 143.939 -0.533628 -4.04495 0
M  V30 1446 H 142.614 -1.66227 -3.81237 0
M  V30 1447 H 141.191 0.167126 -3.72525 0
M  V30 1448 N 143.376 1.44774 -0.622745 0
M  V30 1449 C 144.622 2.0242 -0.124083 0
M  V30 1450 C 144.955 1.4881 1.24777 0
M  V30 1451 O 144.23 0.668799 1.8264 0
M  V30 1452 C 144.513 3.59957 -0.101619 0
M  V30 1453 C 144.366 4.23867 -1.50521 0
M  V30 1454 C 145.685 4.36284 0.578272 0
M  V30 1455 H 142.804 0.735528 -0.0465645 0
M  V30 1456 H 145.446 1.72447 -0.797617 0
M  V30 1457 H 143.596 3.85623 0.471934 0
M  V30 1458 H 145.268 4.09336 -2.12701 0
M  V30 1459 H 143.511 3.81684 -2.06154 0
M  V30 1460 H 144.182 5.32843 -1.4416 0
M  V30 1461 H 146.658 4.16001 0.0906057 0
M  V30 1462 H 145.534 5.46004 0.563149 0
M  V30 1463 H 145.795 4.10271 1.64713 0
M  V30 1464 N 144.854 0.36279 1.53368 0
M  V30 1465 C 146.082 -0.228613 2.05633 0
M  V30 1466 C 146.497 -1.42676 1.23649 0
M  V30 1467 O 145.854 -1.80394 0.27647 0
M  V30 1468 C 145.905 -0.624845 3.56059 0
M  V30 1469 O 145.626 0.525675 4.34935 0
M  V30 1470 C 147.127 -1.27493 4.24571 0
M  V30 1471 H 144.347 -0.0407183 0.669763 0
M  V30 1472 H 146.891 0.520352 1.97769 0
M  V30 1473 H 145.046 -1.32373 3.64083 0
M  V30 1474 H 145.46 0.205969 5.24095 0
M  V30 1475 H 146.934 -1.50277 5.31151 0
M  V30 1476 H 147.411 -2.23439 3.78116 0
M  V30 1477 H 148.017 -0.617558 4.20792 0
M  V30 1478 N 146.332 -1.57332 0.0918853 0
M  V30 1479 C 147.58 -1.93853 -0.571446 0
M  V30 1480 C 147.901 -0.974212 -1.6892 0
M  V30 1481 O 147.171 -0.0257254 -1.95883 0
M  V30 1482 H 145.751 -0.715666 -0.214082 0
M  V30 1483 H 148.413 -1.94287 0.154464 0
M  V30 1484 H 147.509 -2.96191 -0.983729 0
M  V30 1485 N 147.81 0.181792 -1.56548 0
M  V30 1486 C 149.087 0.926765 -1.72251 0
M  V30 1487 C 149.467 2.00831 -0.650386 0
M  V30 1488 O 148.815 2.26008 0.336521 0
M  V30 1489 C 149.025 1.50106 -3.1507 0
M  V30 1490 C 150.373 1.97805 -3.75711 0
M  V30 1491 O 151.397 1.59922 -3.18282 0
M  V30 1492 O 150.256 2.67555 -4.76525 0
M  V30 1493 H 147.35 0.435506 -0.703039 0
M  V30 1494 H 149.896 0.170443 -1.68842 0
M  V30 1495 H 148.668 0.72212 -3.84579 0
M  V30 1496 H 148.291 2.32186 -3.22763 0
M  V30 1497 N 149.288 1.51039 0.449983 0
M  V30 1498 C 150.516 1.66869 1.2232 0
M  V30 1499 C 150.931 0.360727 1.85322 0
M  V30 1500 O 150.288 -0.659531 1.70166 0
M  V30 1501 C 150.339 2.77524 2.31652 0
M  V30 1502 O 150.06 4.03252 1.7123 0
M  V30 1503 C 151.561 3.04512 3.2216 0
M  V30 1504 H 148.781 0.560326 0.369155 0
M  V30 1505 H 151.325 1.97385 0.534719 0
M  V30 1506 H 149.48 2.49642 2.96239 0
M  V30 1507 H 149.894 4.64609 2.43389 0
M  V30 1508 H 151.368 3.85551 3.95038 0
M  V30 1509 H 151.845 2.16415 3.8218 0
M  V30 1510 H 152.451 3.34005 2.63288 0
M  V30 1511 N 150.766 -0.704594 1.40972 0
M  V30 1512 C 151.729 -1.80035 1.41845 0
M  V30 1513 C 152.729 -1.57774 0.310474 0
M  V30 1514 O 153.919 -1.64613 0.56992 0
M  V30 1515 C 151.051 -3.18284 1.22098 0
M  V30 1516 H 152.244 -1.80658 2.3938 0
M  V30 1517 H 149.797 -0.911329 1.26982 0
M  V30 1518 H 150.532 -3.23306 0.253672 0
M  V30 1519 H 150.317 -3.35843 2.02366 0
M  V30 1520 H 151.807 -3.98289 1.25522 0
M  V30 1521 N 152.244 -1.26651 -0.937939 0
M  V30 1522 C 153.174 -1.10993 -2.05433 0
M  V30 1523 C 154.155 -0.0142161 -1.70094 0
M  V30 1524 O 155.34 -0.186837 -1.93299 0
M  V30 1525 C 152.47 -0.745561 -3.39203 0
M  V30 1526 C 151.424 -1.79337 -3.88616 0
M  V30 1527 C 150.75 -1.28324 -5.19073 0
M  V30 1528 C 152.05 -3.19553 -4.13138 0
M  V30 1529 H 153.744 -2.0438 -2.1879 0
M  V30 1530 H 151.29 -0.984041 -1.05131 0
M  V30 1531 H 153.243 -0.622888 -4.16771 0
M  V30 1532 H 151.967 0.22401 -3.25831 0
M  V30 1533 H 150.626 -1.90477 -3.13231 0
M  V30 1534 H 150.274 -0.303414 -5.02084 0
M  V30 1535 H 149.974 -1.98369 -5.53103 0
M  V30 1536 H 151.498 -1.1733 -5.99221 0
M  V30 1537 H 152.912 -3.11471 -4.81309 0
M  V30 1538 H 151.309 -3.87218 -4.58457 0
M  V30 1539 H 152.379 -3.65368 -3.18801 0
M  V30 1540 N 153.722 1.14298 -1.08507 0
M  V30 1541 C 154.968 1.85633 -0.816581 0
M  V30 1542 C 155.301 1.82784 0.656021 0
M  V30 1543 O 154.576 1.25926 1.48233 0
M  V30 1544 C 154.859 3.34223 -1.34041 0
M  V30 1545 C 154.712 3.45639 -2.87843 0
M  V30 1546 C 156.031 4.29356 -0.9665 0
M  V30 1547 H 153.15 0.67402 -0.298104 0
M  V30 1548 H 155.792 1.34214 -1.34487 0
M  V30 1549 H 153.942 3.78144 -0.89104 0
M  V30 1550 H 155.614 3.10498 -3.41158 0
M  V30 1551 H 153.857 2.86817 -3.25451 0
M  V30 1552 H 154.528 4.50089 -3.19569 0
M  V30 1553 H 157.004 3.93457 -1.35391 0
M  V30 1554 H 155.88 5.3178 -1.3602 0
M  V30 1555 H 156.141 4.41919 0.126362 0
M  V30 1556 N 155.201 0.870884 1.31352 0
M  V30 1557 C 156.429 0.49677 2.00848 0
M  V30 1558 C 156.844 -0.910998 1.65367 0
M  V30 1559 O 156.201 -1.59696 0.883374 0
M  V30 1560 C 156.252 0.645308 3.55694 0
M  V30 1561 O 155.973 1.99764 3.89905 0
M  V30 1562 C 157.474 0.272326 4.42463 0
M  V30 1563 H 154.694 0.193462 0.642506 0
M  V30 1564 H 157.238 1.1723 1.67563 0
M  V30 1565 H 155.393 0.0173176 3.87396 0
M  V30 1566 H 155.807 2.00607 4.84621 0
M  V30 1567 H 157.281 0.427208 5.50344 0
M  V30 1568 H 157.758 -0.788587 4.32062 0
M  V30 1569 H 158.364 0.876054 4.1618 0
M  V30 1570 N 156.679 -1.44442 0.630414 0
M  V30 1571 C 157.919 -2.03934 0.137919 0
M  V30 1572 C 158.283 -1.48509 -1.21692 0
M  V30 1573 O 159.484 -1.99499 -1.80149 0
M  V30 1574 C 157.755 -3.57187 0.123373 0
M  V30 1575 S 159.314 -4.37741 -0.304604 0
M  V30 1576 H 156.132 -0.708401 0.0607353 0
M  V30 1577 H 158.734 -1.76835 0.833643 0
M  V30 1578 H 157.438 -3.95032 1.11256 0
M  V30 1579 H 156.969 -3.88895 -0.59362 0
M  V30 1580 H 158.984 -4.71403 -1.54897 0
M  V30 1581 N 158.157 -0.370918 -1.53173 0
M  V30 1582 C 159.385 0.217704 -2.05751 0
M  V30 1583 C 159.8 1.42018 -1.24404 0
M  V30 1584 O 159.157 1.80245 -0.286033 0
M  V30 1585 C 159.208 0.605954 -3.56385 0
M  V30 1586 O 158.929 -0.548734 -4.3465 0
M  V30 1587 C 160.43 1.2524 -4.25241 0
M  V30 1588 H 157.65 0.0371659 -0.66997 0
M  V30 1589 H 160.194 -0.530832 -1.9749 0
M  V30 1590 H 158.349 1.3044 -3.6478 0
M  V30 1591 H 158.763 -0.23376 -5.23979 0
M  V30 1592 H 160.237 1.47458 -5.3194 0
M  V30 1593 H 160.714 2.2143 -3.79296 0
M  V30 1594 H 161.32 0.595233 -4.21114 0
M  V30 1595 N 159.635 1.57281 -0.100228 0
M  V30 1596 C 160.545 2.17833 0.870965 0
M  V30 1597 C 161.561 1.14921 1.30649 0
M  V30 1598 O 162.737 1.47313 1.37335 0
M  V30 1599 C 159.802 2.75085 2.1102 0
M  V30 1600 C 158.863 3.9297 1.72838 0
M  V30 1601 C 158.096 4.47482 2.90854 0
M  V30 1602 O 158.319 4.00922 4.05731 0
M  V30 1603 O 157.253 5.38433 2.69023 0
M  V30 1604 H 161.079 3.0124 0.38575 0
M  V30 1605 H 158.664 1.48881 0.124397 0
M  V30 1606 H 160.546 3.11656 2.83634 0
M  V30 1607 H 159.221 1.94721 2.58584 0
M  V30 1608 H 158.128 3.61201 0.973883 0
M  V30 1609 H 159.461 4.74713 1.30033 0
M  V30 1610 N 161.113 -0.173488 1.56642 0
M  V30 1611 C 162.061 -1.23417 1.97157 0
M  V30 1612 C 163.055 -1.45946 0.860013 0
M  V30 1613 O 164.261 -1.46551 1.04512 0
M  V30 1614 H 160.636 -0.414818 0.62724 0
M  V30 1615 H 162.607 -0.865582 2.8557 0
M  V30 1616 C 161.356 -2.5665 2.34576 0
M  V30 1617 H 160.679 -2.40137 3.19647 0
M  V30 1618 H 162.119 -3.2956 2.6677 0
M  V30 1619 C 160.578 -3.15245 1.18836 0
M  V30 1620 O 161.108 -3.98883 0.474869 0
M  V30 1621 N 159.314 -2.74303 0.959497 0
M  V30 1622 H 158.861 -2.0639 1.54146 0
M  V30 1623 H 158.819 -3.13844 0.186932 0
M  V30 1624 N 162.591 -1.51276 -0.441967 0
M  V30 1625 C 163.84 -1.6295 -1.18871 0
M  V30 1626 C 164.153 -0.349312 -1.92456 0
M  V30 1627 O 165.359 -0.345355 -2.69295 0
M  V30 1628 C 163.815 -2.87759 -2.16155 0
M  V30 1629 C 163.423 -4.22764 -1.48239 0
M  V30 1630 C 165.167 -3.08788 -2.91291 0
M  V30 1631 C 163.074 -5.38728 -2.4398 0
M  V30 1632 H 162.004 -0.606913 -0.447406 0
M  V30 1633 H 164.655 -1.77739 -0.456205 0
M  V30 1634 H 163.037 -2.66593 -2.92821 0
M  V30 1635 H 164.211 -4.54293 -0.771635 0
M  V30 1636 H 162.526 -4.07575 -0.852741 0
M  V30 1637 H 165.123 -3.92599 -3.63002 0
M  V30 1638 H 165.466 -2.21679 -3.5237 0
M  V30 1639 H 165.999 -3.30272 -2.21733 0
M  V30 1640 H 162.738 -6.28082 -1.87598 0
M  V30 1641 H 162.258 -5.1158 -3.13123 0
M  V30 1642 H 163.937 -5.70489 -3.05207 0
M  V30 1643 N 164.069 0.697108 -1.41344 0
M  V30 1644 C 164.999 1.82353 -1.45841 0
M  V30 1645 C 165.98 1.67115 -0.317247 0
M  V30 1646 O 167.165 1.86871 -0.528474 0
M  V30 1647 C 164.295 3.20476 -1.33838 0
M  V30 1648 C 163.249 3.50415 -2.4575 0
M  V30 1649 C 162.575 4.87878 -2.18813 0
M  V30 1650 C 163.875 3.49546 -3.88091 0
M  V30 1651 H 165.569 1.78846 -2.40113 0
M  V30 1652 H 163.115 0.859028 -1.15571 0
M  V30 1653 H 165.068 3.98988 -1.35596 0
M  V30 1654 H 163.792 3.24604 -0.360498 0
M  V30 1655 H 162.451 2.74253 -2.43271 0
M  V30 1656 H 162.099 4.8863 -1.19371 0
M  V30 1657 H 161.799 5.08875 -2.93803 0
M  V30 1658 H 163.323 5.68702 -2.22284 0
M  V30 1659 H 164.737 4.18066 -3.92293 0
M  V30 1660 H 163.134 3.82075 -4.62751 0
M  V30 1661 H 164.204 2.48552 -4.16353 0
M  V30 1662 N 165.547 1.27147 0.931209 0
M  V30 1663 C 166.772 1.16191 1.71797 0
M  V30 1664 C 167.197 -0.278004 1.86034 0
M  V30 1665 O 166.555 -1.20137 1.35782 0
M  V30 1666 C 166.603 1.84673 3.09723 0
M  V30 1667 O 165.707 1.14231 3.96264 0
M  V30 1668 H 165.048 0.404303 0.526721 0
M  V30 1669 H 167.578 1.68152 1.1656 0
M  V30 1670 H 167.588 1.91893 3.60057 0
M  V30 1671 H 166.263 2.89421 2.98677 0
M  V30 1672 H 164.84 1.15056 3.54706 0
M  V30 1673 N 167.025 -1.13721 1.09112 0
M  V30 1674 C 168.273 -1.84559 0.823562 0
M  V30 1675 C 168.594 -1.83754 -0.652658 0
M  V30 1676 O 167.864 -1.29102 -1.47342 0
M  V30 1677 H 166.444 -0.683376 0.301673 0
M  V30 1678 H 169.106 -1.37771 1.37859 0
M  V30 1679 H 168.202 -2.8917 1.17419 0
M  V30 1680 N 168.503 -0.877838 -1.30888 0
M  V30 1681 C 169.751 -0.491723 -1.96027 0
M  V30 1682 C 170.072 0.960827 -1.69685 0
M  V30 1683 O 169.342 1.67462 -1.01654 0
M  V30 1684 H 167.922 -0.17885 -0.725273 0
M  V30 1685 H 170.584 -1.11935 -1.59551 0
M  V30 1686 H 169.68 -0.656016 -3.05128 0
M  V30 1687 N 169.982 1.44106 -0.638065 0
M  V30 1688 C 171.393 1.85316 -0.226894 0
M  V30 1689 C 171.744 1.53399 1.22324 0
M  V30 1690 O 170.869 0.975463 1.93167 0
M  V30 1691 C 171.464 3.3637 -0.405013 0
M  V30 1692 C 170.023 3.76369 -0.0482902 0
M  V30 1693 C 169.17 2.67921 -0.715108 0
M  V30 1694 H 172.121 1.34474 -0.842764 0
M  V30 1695 H 172.142 3.7885 0.354 0
M  V30 1696 H 171.654 3.59569 -1.46053 0
M  V30 1697 H 169.755 3.58784 1.00522 0
M  V30 1698 H 169.868 4.76856 -0.463187 0
M  V30 1699 H 168.232 2.54259 -0.149753 0
M  V30 1700 H 169.015 2.93951 -1.77335 0
M  V30 1701 N 171.46 0.379036 1.52974 0
M  V30 1702 C 172.871 -0.0972525 1.86447 0
M  V30 1703 C 173.222 -1.47027 1.29914 0
M  V30 1704 O 172.347 -2.07135 0.626433 0
M  V30 1705 C 172.942 -0.183248 3.38304 0
M  V30 1706 C 171.501 -0.603812 3.71525 0
M  V30 1707 C 170.648 0.240632 2.76254 0
M  V30 1708 H 173.599 0.597316 1.4703 0
M  V30 1709 H 173.62 -1.00432 3.67006 0
M  V30 1710 H 173.132 0.816191 3.79421 0
M  V30 1711 H 171.233 -1.61099 3.35973 0
M  V30 1712 H 171.346 -0.369086 4.77676 0
M  V30 1713 H 169.71 -0.292548 2.53014 0
M  V30 1714 H 170.493 1.23786 3.20206 0
M  V30 1715 N 172.938 -1.57226 0.108567 0
M  V30 1716 C 174.349 -1.8195 -0.418464 0
M  V30 1717 C 174.7 -1.02508 -1.67292 0
M  V30 1718 O 173.825 -0.258496 -2.14851 0
M  V30 1719 C 174.42 -3.30028 -0.765979 0
M  V30 1720 C 172.979 -3.55469 -1.23769 0
M  V30 1721 C 172.126 -2.7625 -0.241106 0
M  V30 1722 H 175.077 -1.55149 0.33384 0
M  V30 1723 H 175.098 -3.44086 -1.62434 0
M  V30 1724 H 174.61 -3.87821 0.147219 0
M  V30 1725 H 172.711 -3.03022 -2.16814 0
M  V30 1726 H 172.824 -4.6408 -1.19022 0
M  V30 1727 H 171.188 -2.44133 -0.72602 0
M  V30 1728 H 171.971 -3.36797 0.665007 0
M  V30 1729 N 174.416 0.165178 -1.56732 0
M  V30 1730 C 175.693 0.908443 -1.73224 0
M  V30 1731 C 176.073 2.0013 -0.67165 0
M  V30 1732 O 175.421 2.26353 0.31253 0
M  V30 1733 C 175.631 1.46756 -3.16644 0
M  V30 1734 C 176.979 1.93809 -3.77787 0
M  V30 1735 O 178.003 1.56537 -3.1996 0
M  V30 1736 O 176.862 2.62486 -4.79336 0
M  V30 1737 H 173.956 0.428025 -0.707618 0
M  V30 1738 H 176.502 0.152526 -1.69013 0
M  V30 1739 H 175.274 0.68129 -3.85323 0
M  V30 1740 H 174.897 2.28749 -3.25207 0
M  V30 1741 N 175.894 1.51508 0.433938 0
M  V30 1742 C 177.171 1.54888 1.19453 0
M  V30 1743 C 177.551 0.315154 2.08734 0
M  V30 1744 O 176.899 -0.699558 2.17528 0
M  V30 1745 C 177.109 2.86467 1.99342 0
M  V30 1746 C 178.457 3.38545 2.56267 0
M  V30 1747 O 179.481 2.88041 2.0955 0
M  V30 1748 O 178.34 4.26675 3.41483 0
M  V30 1749 H 175.434 0.622863 0.544032 0
M  V30 1750 H 177.98 1.63823 0.442732 0
M  V30 1751 H 176.752 3.67718 1.33788 0
M  V30 1752 H 176.375 2.8071 2.8158 0
M  V30 1753 N 177.372 -0.689602 1.41712 0
M  V30 1754 C 178.597 -1.48329 1.44959 0
M  V30 1755 C 179.022 -1.8801 0.0581283 0
M  V30 1756 O 178.38 -1.55026 -0.940035 0
M  V30 1757 C 178.428 -2.71835 2.36935 0
M  V30 1758 O 177.532 -3.69549 1.8305 0
M  V30 1759 H 176.873 -0.446199 0.491734 0
M  V30 1760 H 179.403 -0.847127 1.86239 0
M  V30 1761 H 179.413 -3.20076 2.53013 0
M  V30 1762 H 178.088 -2.42291 3.38035 0
M  V30 1763 H 176.665 -3.2851 1.76452 0
M  V30 1764 N 178.85 -1.27639 -0.924453 0
M  V30 1765 C 180.127 -1.04887 -1.651 0
M  V30 1766 C 180.507 0.415327 -2.06974 0
M  V30 1767 O 179.855 1.39923 -1.80648 0
M  V30 1768 C 180.065 -2.01348 -2.85061 0
M  V30 1769 C 181.413 -2.30899 -3.56329 0
M  V30 1770 O 182.437 -1.99348 -2.95193 0
M  V30 1771 O 181.296 -2.84699 -4.66485 0
M  V30 1772 H 178.39 -0.400083 -0.723784 0
M  V30 1773 H 180.936 -1.38916 -0.974703 0
M  V30 1774 H 179.708 -3.0008 -2.51133 0
M  V30 1775 H 179.331 -1.679 -3.6041 0
M  V30 1776 N 180.328 1.1314 -1.09713 0
M  V30 1777 C 181.238 2.22242 -0.751367 0
M  V30 1778 C 182.254 1.72224 0.247938 0
M  V30 1779 O 183.43 2.01205 0.0885463 0
M  V30 1780 C 180.495 3.46231 -0.180274 0
M  V30 1781 C 179.556 4.11125 -1.2359 0
M  V30 1782 C 178.789 5.29195 -0.691966 0
M  V30 1783 O 179.012 5.68342 0.48414 0
M  V30 1784 O 177.946 5.84214 -1.44838 0
M  V30 1785 H 181.772 2.54197 -1.66186 0
M  V30 1786 H 179.357 1.21331 -0.871735 0
M  V30 1787 H 181.239 4.21185 0.134739 0
M  V30 1788 H 179.914 3.1597 0.703185 0
M  V30 1789 H 178.821 3.37985 -1.60366 0
M  V30 1790 H 180.154 4.45524 -2.09211 0
M  V30 1791 N 181.806 0.884767 1.30421 0
M  V30 1792 C 182.736 0.367574 2.30589 0
M  V30 1793 C 183.717 -0.549464 1.60981 0
M  V30 1794 O 184.902 -0.46336 1.88591 0
M  V30 1795 C 182.032 -0.418944 3.44764 0
M  V30 1796 C 180.986 0.406316 4.26067 0
M  V30 1797 C 180.312 -0.506793 5.32293 0
M  V30 1798 C 181.612 1.64832 4.95608 0
M  V30 1799 H 183.306 1.20462 2.74097 0
M  V30 1800 H 180.852 0.580695 1.31772 0
M  V30 1801 H 182.805 -0.791395 4.13902 0
M  V30 1802 H 181.529 -1.28964 3.0006 0
M  V30 1803 H 180.188 0.760903 3.58617 0
M  V30 1804 H 179.836 -1.37519 4.83836 0
M  V30 1805 H 179.536 0.0415828 5.87585 0
M  V30 1806 H 181.06 -0.875764 6.04287 0
M  V30 1807 H 182.474 1.34646 5.57264 0
M  V30 1808 H 180.871 2.13688 5.60765 0
M  V30 1809 H 181.941 2.39284 4.21748 0
M  V30 1810 N 183.284 -1.43765 0.645699 0
M  V30 1811 C 184.532 -2.01499 0.155731 0
M  V30 1812 C 184.853 -1.51151 -1.232 0
M  V30 1813 O 184.123 -0.721044 -1.82148 0
M  V30 1814 H 182.703 -0.745003 0.0545817 0
M  V30 1815 H 185.365 -1.76075 0.835677 0
M  V30 1816 H 184.461 -3.1181 0.134577 0
M  V30 1817 N 184.763 -0.387143 -1.52771 0
M  V30 1818 C 186.174 0.0873634 -1.86495 0
M  V30 1819 C 186.525 1.46336 -1.30691 0
M  V30 1820 O 185.65 2.068 -0.637409 0
M  V30 1821 C 186.245 0.165305 -3.38396 0
M  V30 1822 C 184.804 0.584101 -3.7184 0
M  V30 1823 C 183.951 -0.255279 -2.76122 0
M  V30 1824 H 186.902 -0.605104 -1.46711 0
M  V30 1825 H 186.923 0.984848 -3.67534 0
M  V30 1826 H 186.435 -0.836301 -3.78982 0
M  V30 1827 H 184.536 1.59315 -3.36823 0
M  V30 1828 H 184.649 0.343749 -4.77865 0
M  V30 1829 H 183.013 0.279126 -2.53166 0
M  V30 1830 H 183.796 -1.25482 -3.19545 0
M  V30 1831 N 186.241 1.57166 -0.116904 0
M  V30 1832 C 187.171 2.18222 0.830759 0
M  V30 1833 C 188.152 1.12167 1.27877 0
M  V30 1834 O 189.337 1.40394 1.34176 0
M  V30 1835 C 186.467 2.77996 2.08172 0
M  V30 1836 C 185.421 3.89614 1.77157 0
M  V30 1837 C 184.747 4.36187 3.09265 0
M  V30 1838 C 186.047 5.1181 1.04151 0
M  V30 1839 H 187.741 2.97664 0.321992 0
M  V30 1840 H 185.287 1.4318 0.153434 0
M  V30 1841 H 187.24 3.19366 2.74924 0
M  V30 1842 H 185.964 1.9584 2.6137 0
M  V30 1843 H 184.623 3.48816 1.12796 0
M  V30 1844 H 184.271 3.50893 3.60393 0
M  V30 1845 H 183.971 5.11455 2.89288 0
M  V30 1846 H 185.495 4.80207 3.77139 0
M  V30 1847 H 186.909 5.50214 1.61052 0
M  V30 1848 H 185.306 5.92648 0.942762 0
M  V30 1849 H 186.376 4.84892 0.0279022 0
M  V30 1850 N 187.719 -0.156864 1.56817 0
M  V30 1851 C 188.965 -0.872416 1.83076 0
M  V30 1852 C 189.298 -1.81261 0.697001 0
M  V30 1853 O 188.573 -1.92171 -0.30008 0
M  V30 1854 C 188.856 -1.65551 3.19789 0
M  V30 1855 C 188.709 -0.737467 4.43713 0
M  V30 1856 C 190.028 -2.62012 3.53606 0
M  V30 1857 H 187.147 -0.315715 0.665953 0
M  V30 1858 H 189.789 -0.138004 1.89498 0
M  V30 1859 H 187.939 -2.28159 3.14445 0
M  V30 1860 H 189.611 -0.123143 4.61136 0
M  V30 1861 H 187.854 -0.0464067 4.33775 0
M  V30 1862 H 188.525 -1.32122 5.35955 0
M  V30 1863 H 191.001 -2.09525 3.59497 0
M  V30 1864 H 189.877 -3.13861 4.50314 0
M  V30 1865 H 190.138 -3.42902 2.79053 0
M  V30 1866 N 189.197 -1.51736 -0.425897 0
M  V30 1867 C 190.445 -1.64644 -1.17204 0
M  V30 1868 C 190.766 -0.370486 -1.91448 0
M  V30 1869 O 190.036 0.614088 -1.86026 0
M  V30 1870 H 188.616 -0.606819 -0.435638 0
M  V30 1871 H 191.278 -1.88713 -0.487177 0
M  V30 1872 H 190.374 -2.47958 -1.89534 0
M  V30 1873 N 190.675 0.682077 -1.42076 0
M  V30 1874 C 191.607 1.80755 -1.40926 0
M  V30 1875 C 192.62 1.59833 -0.309398 0
M  V30 1876 O 193.809 1.69087 -0.572014 0
M  V30 1877 C 190.909 3.17744 -1.17865 0
M  V30 1878 C 190.082 3.65578 -2.40149 0
M  V30 1879 C 189.141 4.81277 -2.12742 0
M  V30 1880 O 188.167 4.92197 -2.85887 0
M  V30 1881 N 189.369 5.69474 -1.12602 0
M  V30 1882 H 192.134 1.82229 -2.37935 0
M  V30 1883 H 189.695 0.864903 -1.36861 0
M  V30 1884 H 191.687 3.9279 -0.9746 0
M  V30 1885 H 190.257 3.11214 -0.294068 0
M  V30 1886 H 189.477 2.81291 -2.76169 0
M  V30 1887 H 190.765 3.94278 -3.21593 0
M  V30 1888 H 190.163 5.63297 -0.520899 0
M  V30 1889 H 188.72 6.44363 -0.981842 0
M  V30 1890 N 192.153 1.28127 0.917671 0
M  V30 1891 C 193.083 1.14248 2.03641 0
M  V30 1892 C 194.064 0.0412748 1.7005 0
M  V30 1893 O 195.249 0.217566 1.92977 0
M  V30 1894 C 192.379 0.799431 3.37974 0
M  V30 1895 C 191.333 1.85497 3.85713 0
M  V30 1896 C 190.659 1.36565 5.16966 0
M  V30 1897 C 191.959 3.26085 4.08002 0
M  V30 1898 H 193.653 2.07835 2.15511 0
M  V30 1899 H 191.199 1.00064 1.03553 0
M  V30 1900 H 193.152 0.689114 4.15727 0
M  V30 1901 H 191.876 -0.172145 3.26146 0
M  V30 1902 H 190.535 1.95437 3.10161 0
M  V30 1903 H 190.183 0.383253 5.01538 0
M  V30 1904 H 189.883 2.07143 5.49878 0
M  V30 1905 H 191.407 1.26848 5.97279 0
M  V30 1906 H 192.821 3.19089 4.76293 0
M  V30 1907 H 191.218 3.94462 4.52238 0
M  V30 1908 H 192.288 3.70394 3.12948 0
M  V30 1909 N 193.631 -1.12557 1.10312 0
M  V30 1910 C 194.877 -1.84311 0.846011 0
M  V30 1911 C 195.21 -1.83805 -0.626859 0
M  V30 1912 O 194.485 -1.28268 -1.46211 0
M  V30 1913 C 194.768 -3.32048 1.39341 0
M  V30 1914 C 194.621 -3.41016 2.93305 0
M  V30 1915 C 195.94 -4.27764 1.03468 0
M  V30 1916 H 193.059 -0.669192 0.30879 0
M  V30 1917 H 195.701 -1.32057 1.36605 0
M  V30 1918 H 193.851 -3.76678 0.951087 0
M  V30 1919 H 195.523 -3.05031 3.46055 0
M  V30 1920 H 193.766 -2.81603 3.29973 0
M  V30 1921 H 194.437 -4.44948 3.26689 0
M  V30 1922 H 196.913 -3.91253 1.41633 0
M  V30 1923 H 195.789 -5.29549 1.44463 0
M  V30 1924 H 196.05 -4.42064 -0.0560404 0
M  V30 1925 N 195.109 -0.891671 -1.2995 0
M  V30 1926 C 196.355 -0.514261 -1.96171 0
M  V30 1927 C 196.688 0.935506 -1.70182 0
M  V30 1928 O 195.963 1.66204 -1.01028 0
M  V30 1929 C 196.246 -0.797719 -3.51153 0
M  V30 1930 C 196.099 -2.2986 -3.86632 0
M  V30 1931 C 197.418 -0.278749 -4.39216 0
M  V30 1932 H 194.537 -0.188314 -0.712535 0
M  V30 1933 H 197.179 -1.11689 -1.53706 0
M  V30 1934 H 195.329 -0.284826 -3.87455 0
M  V30 1935 H 197.001 -2.88042 -3.60319 0
M  V30 1936 H 195.244 -2.76257 -3.34462 0
M  V30 1937 H 195.915 -2.44753 -4.94773 0
M  V30 1938 H 198.391 -0.717825 -4.09862 0
M  V30 1939 H 197.267 -0.506353 -5.46559 0
M  V30 1940 H 197.528 0.820266 -4.34424 0
M  V30 1941 N 196.587 1.43421 -0.653314 0
M  V30 1942 C 197.55 2.29182 0.0287951 0
M  V30 1943 C 198.55 1.42213 0.750465 0
M  V30 1944 O 199.74 1.63843 0.591701 0
M  V30 1945 C 196.872 3.24278 1.05151 0
M  V30 1946 H 198.065 2.90985 -0.725786 0
M  V30 1947 H 195.618 1.50702 -0.414545 0
M  V30 1948 H 196.353 2.6737 1.83532 0
M  V30 1949 H 196.138 3.88396 0.537687 0
M  V30 1950 H 197.628 3.88647 1.52786 0
M  V30 1951 N 198.065 0.39524 1.52563 0
M  V30 1952 C 199.293 -0.184943 2.06072 0
M  V30 1953 C 199.708 -1.40021 1.26647 0
M  V30 1954 O 199.065 -1.79767 0.314672 0
M  V30 1955 C 199.116 -0.549179 3.57304 0
M  V30 1956 O 198.837 0.617813 4.33722 0
M  V30 1957 C 200.338 -1.18459 4.2718 0
M  V30 1958 H 197.558 -0.0265025 0.670476 0
M  V30 1959 H 200.102 0.562184 1.96621 0
M  V30 1960 H 198.257 -1.2462 3.66809 0
M  V30 1961 H 198.671 0.317091 5.23541 0
M  V30 1962 H 200.145 -1.38976 5.34219 0
M  V30 1963 H 200.622 -2.15368 3.82771 0
M  V30 1964 H 201.228 -0.528163 4.22008 0
M  V30 1965 N 199.544 -1.57102 0.125237 0
M  V30 1966 C 200.492 -2.16905 -0.839927 0
M  V30 1967 C 201.486 -1.11998 -1.27094 0
M  V30 1968 O 202.692 -1.3029 -1.24195 0
M  V30 1969 H 199.067 -0.694252 -0.288995 0
M  V30 1970 H 201.038 -2.96774 -0.311115 0
M  V30 1971 C 199.787 -2.78795 -2.07771 0
M  V30 1972 H 199.11 -3.59221 -1.755 0
M  V30 1973 H 200.55 -3.2417 -2.73295 0
M  V30 1974 C 199.009 -1.76193 -2.87155 0
M  V30 1975 O 199.539 -1.21909 -3.82755 0
M  V30 1976 N 197.745 -1.45991 -2.51267 0
M  V30 1977 H 197.292 -1.90325 -1.73592 0
M  V30 1978 H 197.25 -0.775844 -3.04677 0
M  V30 1979 N 201.022 0.148545 -1.56898 0
M  V30 1980 C 202.268 0.862694 -1.83536 0
M  V30 1981 C 202.601 1.80889 -0.706604 0
M  V30 1982 O 201.876 1.92328 0.289885 0
M  V30 1983 C 202.159 1.63853 -3.20662 0
M  V30 1984 C 202.012 0.713925 -4.44098 0
M  V30 1985 C 203.331 2.60133 -3.54991 0
M  V30 1986 H 200.45 0.312179 -0.667618 0
M  V30 1987 H 203.092 0.127953 -1.89569 0
M  V30 1988 H 201.242 2.26489 -3.1565 0
M  V30 1989 H 202.914 0.098686 -4.61194 0
M  V30 1990 H 201.157 0.0234019 -4.33794 0
M  V30 1991 H 201.828 1.29278 -5.36648 0
M  V30 1992 H 204.304 2.07616 -3.60603 0
M  V30 1993 H 203.18 3.11468 -4.51972 0
M  V30 1994 H 203.441 3.41417 -2.80868 0
M  V30 1995 N 202.5 1.5196 0.417844 0
M  V30 1996 C 203.747 1.65591 1.16559 0
M  V30 1997 C 204.075 0.381565 1.90721 0
M  V30 1998 O 203.33 -0.635156 1.85106 0
M  V30 1999 C 203.629 2.82269 2.19223 0
M  V30 2000 C 203.295 4.20819 1.61933 0
M  V30 2001 C 201.957 4.58506 1.46033 0
M  V30 2002 C 204.309 5.07196 1.20008 0
M  V30 2003 C 201.637 5.80257 0.867113 0
M  V30 2004 C 203.989 6.29544 0.621086 0
M  V30 2005 C 202.653 6.65987 0.449144 0
M  V30 2006 H 201.923 0.605939 0.42652 0
M  V30 2007 H 204.57 1.86041 0.45397 0
M  V30 2008 H 202.875 2.56118 2.96498 0
M  V30 2009 H 204.572 2.90012 2.76936 0
M  V30 2010 H 201.162 3.91116 1.7529 0
M  V30 2011 H 205.346 4.7867 1.31105 0
M  V30 2012 H 200.602 6.07124 0.721833 0
M  V30 2013 H 204.776 6.95805 0.287798 0
M  V30 2014 H 202.403 7.60199 -0.012632 0
M  V30 2015 N 203.978 -0.674533 1.42435 0
M  V30 2016 C 205.394 -0.98769 1.25367 0
M  V30 2017 C 205.594 -2.00879 0.158044 0
M  V30 2018 O 204.65 -2.48075 -0.470633 0
M  V30 2019 C 205.963 -1.49224 2.6106 0
M  V30 2020 C 207.511 -1.61 2.68417 0
M  V30 2021 C 207.986 -2.14852 4.04478 0
M  V30 2022 N 209.477 -2.22185 4.06434 0
M  V30 2023 C 210.212 -2.64928 5.08528 0
M  V30 2024 N 209.708 -3.07121 6.21006 0
M  V30 2025 N 211.501 -2.64679 4.95885 0
M  V30 2026 H 203.652 0.00152503 2.124 0
M  V30 2027 H 205.915 -0.0618434 0.945981 0
M  V30 2028 H 205.621 -0.816453 3.42092 0
M  V30 2029 H 205.495 -2.47094 2.84999 0
M  V30 2030 H 207.882 -2.27686 1.87732 0
M  V30 2031 H 207.963 -0.616195 2.48267 0
M  V30 2032 H 207.607 -1.48775 4.85622 0
M  V30 2033 H 207.537 -3.15024 4.2198 0
M  V30 2034 H 210.028 -1.92435 3.25234 0
M  V30 2035 H 210.341 -3.38423 6.94759 0
M  V30 2036 H 208.686 -3.04978 6.24511 0
M  V30 2037 H 211.877 -2.31078 4.07088 0
M  V30 2038 H 212.05 -2.9767 5.75584 0
M  V30 2039 N 205.456 -1.28612 -0.910864 0
M  V30 2040 C 206.872 -1.06381 -1.18976 0
M  V30 2041 C 207.072 0.191998 -2.00583 0
M  V30 2042 O 206.128 0.892869 -2.36187 0
M  V30 2043 C 207.441 -2.31295 -1.92154 0
M  V30 2044 C 208.989 -2.36503 -2.05025 0
M  V30 2045 C 209.464 -3.61191 -2.81612 0
M  V30 2046 N 210.955 -3.61847 -2.89172 0
M  V30 2047 C 211.69 -4.55004 -3.4894 0
M  V30 2048 N 211.186 -5.58482 -4.09963 0
M  V30 2049 N 212.979 -4.42594 -3.46506 0
M  V30 2050 H 205.13 -2.09221 -0.366094 0
M  V30 2051 H 207.393 -0.921003 -0.224629 0
M  V30 2052 H 207.099 -3.228 -1.39618 0
M  V30 2053 H 206.973 -2.37934 -2.9269 0
M  V30 2054 H 209.36 -1.45494 -2.5674 0
M  V30 2055 H 209.441 -2.33857 -1.03657 0
M  V30 2056 H 209.085 -4.52545 -2.30576 0
M  V30 2057 H 209.015 -3.61092 -3.83302 0
M  V30 2058 H 211.506 -2.87022 -2.45819 0
M  V30 2059 H 211.819 -6.25704 -4.53557 0
M  V30 2060 H 210.164 -5.62305 -4.08459 0
M  V30 2061 H 213.355 -3.60953 -2.98045 0
M  V30 2062 H 213.528 -5.15381 -3.92793 0
M  V30 2063 N 206.934 1.1197 -1.10907 0
M  V30 2064 C 208.162 1.87402 -0.876824 0
M  V30 2065 C 208.577 1.79894 0.573025 0
M  V30 2066 O 207.934 1.17629 1.39534 0
M  V30 2067 C 207.985 3.36428 -1.32282 0
M  V30 2068 O 207.706 3.43765 -2.71582 0
M  V30 2069 C 209.207 4.28783 -1.12518 0
M  V30 2070 H 206.427 0.592793 -0.314384 0
M  V30 2071 H 208.971 1.41649 -1.47499 0
M  V30 2072 H 207.126 3.79706 -0.768229 0
M  V30 2073 H 207.54 4.3652 -2.90776 0
M  V30 2074 H 209.014 5.31613 -1.48633 0
M  V30 2075 H 209.491 4.39153 -0.0642394 0
M  V30 2076 H 210.097 3.91291 -1.66648 0
M  V30 2077 N 208.412 0.89855 1.29475 0
M  V30 2078 C 209.823 0.572537 1.77705 0
M  V30 2079 C 210.174 -0.911778 1.73727 0
M  V30 2080 O 209.299 -1.71288 1.32247 0
M  V30 2081 C 209.894 1.03252 3.22683 0
M  V30 2082 C 208.453 0.757687 3.68695 0
M  V30 2083 C 207.6 1.20787 2.49612 0
M  V30 2084 H 210.551 1.08139 1.16153 0
M  V30 2085 H 210.572 0.367307 3.78723 0
M  V30 2086 H 210.084 2.11285 3.25546 0
M  V30 2087 H 208.185 -0.310079 3.71308 0
M  V30 2088 H 208.298 1.35476 4.59547 0
M  V30 2089 H 206.662 0.626888 2.46865 0
M  V30 2090 H 207.445 2.29622 2.55203 0
M  V30 2091 N 209.89 -1.43072 0.660911 0
M  V30 2092 C 211.167 -1.95307 0.107017 0
M  V30 2093 C 211.547 -1.60192 -1.37484 0
M  V30 2094 O 210.895 -0.890949 -2.10415 0
M  V30 2095 C 211.105 -3.47124 0.361402 0
M  V30 2096 C 212.453 -4.23738 0.270455 0
M  V30 2097 O 213.477 -3.54981 0.294382 0
M  V30 2098 O 212.336 -5.46131 0.200737 0
M  V30 2099 H 209.43 -0.826984 -0.00517729 0
M  V30 2100 H 211.976 -1.52972 0.734681 0
M  V30 2101 H 210.748 -3.65837 1.38848 0
M  V30 2102 H 210.371 -3.96475 -0.298953 0
M  V30 2103 N 211.368 -0.403325 -1.52352 0
M  V30 2104 C 212.616 0.174003 -2.0135 0
M  V30 2105 C 212.937 1.46139 -1.29106 0
M  V30 2106 O 212.207 1.91448 -0.415253 0
M  V30 2107 H 210.787 0.0672911 -0.743963 0
M  V30 2108 H 213.449 -0.538235 -1.87321 0
M  V30 2109 H 212.545 0.374254 -3.09848 0
M  V30 2110 N 212.846 1.57033 -0.133567 0
M  V30 2111 C 214.092 1.96764 0.515326 0
M  V30 2112 C 214.447 1.01653 1.63353 0
M  V30 2113 O 213.74 0.0491374 1.91537 0
M  V30 2114 C 213.934 3.40674 1.08057 0
M  V30 2115 C 213.763 4.49696 0.0186522 0
M  V30 2116 C 212.533 5.03567 -0.418174 0
M  V30 2117 C 214.731 5.08536 -0.767809 0
M  V30 2118 N 212.713 5.9618 -1.46434 0
M  V30 2119 C 214.084 5.97231 -1.6648 0
M  V30 2120 C 216.139 4.9115 -0.817087 0
M  V30 2121 C 214.842 6.70401 -2.60681 0
M  V30 2122 C 216.868 5.65012 -1.74687 0
M  V30 2123 C 216.23 6.53403 -2.63141 0
M  V30 2124 H 212.329 0.765919 0.157771 0
M  V30 2125 H 214.913 1.93395 -0.22506 0
M  V30 2126 H 213.084 3.44662 1.79061 0
M  V30 2127 H 214.816 3.67495 1.69497 0
M  V30 2128 H 211.571 4.73594 -0.0229803 0
M  V30 2129 H 211.995 6.47191 -1.98678 0
M  V30 2130 H 216.637 4.22543 -0.147326 0
M  V30 2131 H 214.355 7.38245 -3.28664 0
M  V30 2132 H 217.941 5.53559 -1.79063 0
M  V30 2133 H 216.821 7.09556 -3.33917 0
M  V30 2134 N 214.325 -0.140222 1.56975 0
M  V30 2135 C 215.272 -1.17292 1.98774 0
M  V30 2136 C 216.242 -1.4232 0.856408 0
M  V30 2137 O 217.427 -1.54541 1.119 0
M  V30 2138 C 214.567 -2.49973 2.37923 0
M  V30 2139 C 213.68 -2.32062 3.64378 0
M  V30 2140 C 212.815 -3.57825 3.926 0
M  V30 2141 C 211.854 -3.3498 5.12303 0
M  V30 2142 N 210.991 -4.52891 5.36502 0
M  V30 2143 H 215.831 -0.809472 2.86795 0
M  V30 2144 H 213.368 -0.388237 1.41884 0
M  V30 2145 H 215.326 -3.27346 2.58652 0
M  V30 2146 H 213.956 -2.84252 1.52972 0
M  V30 2147 H 213.008 -1.45711 3.51387 0
M  V30 2148 H 214.32 -2.11145 4.51906 0
M  V30 2149 H 213.474 -4.43624 4.13863 0
M  V30 2150 H 212.213 -3.81753 3.03506 0
M  V30 2151 H 211.218 -2.4757 4.90906 0
M  V30 2152 H 212.443 -3.12444 6.02956 0
M  V30 2153 H 210.389 -4.76979 4.50363 0
M  V30 2154 H 210.306 -4.35001 6.18312 0
M  V30 2155 H 211.574 -5.39884 5.62268 0
M  V30 2156 N 215.803 -1.52179 -0.40978 0
M  V30 2157 C 216.733 -1.78435 -1.5061 0
M  V30 2158 C 217.714 -0.635295 -1.57791 0
M  V30 2159 O 218.899 -0.880823 -1.73076 0
M  V30 2160 C 216.029 -1.93444 -2.88439 0
M  V30 2161 C 214.983 -3.09038 -2.96108 0
M  V30 2162 C 214.309 -3.09268 -4.36185 0
M  V30 2163 C 215.609 -4.48508 -2.67652 0
M  V30 2164 H 217.303 -2.70237 -1.28889 0
M  V30 2165 H 214.849 -1.30036 -0.618605 0
M  V30 2166 H 216.802 -2.10394 -3.65119 0
M  V30 2167 H 215.526 -0.983129 -3.11452 0
M  V30 2168 H 214.185 -2.91837 -2.21872 0
M  V30 2169 H 213.833 -2.11861 -4.56206 0
M  V30 2170 H 213.533 -3.86907 -4.42241 0
M  V30 2171 H 215.057 -3.28348 -5.14801 0
M  V30 2172 H 216.471 -4.65918 -3.34056 0
M  V30 2173 H 214.868 -5.28059 -2.85085 0
M  V30 2174 H 215.938 -4.56649 -1.63095 0
M  V30 2175 N 217.281 0.66697 -1.42791 0
M  V30 2176 C 218.527 1.42754 -1.44889 0
M  V30 2177 C 218.882 1.92283 -0.0669755 0
M  V30 2178 O 218.175 1.68494 0.912154 0
M  V30 2179 C 218.369 2.6349 -2.4147 0
M  V30 2180 C 218.198 2.25776 -3.88915 0
M  V30 2181 C 216.968 2.1476 -4.57391 0
M  V30 2182 C 219.166 1.86927 -4.79127 0
M  V30 2183 N 217.148 1.70232 -5.89826 0
M  V30 2184 C 218.519 1.53378 -6.00729 0
M  V30 2185 C 220.574 1.73989 -4.66511 0
M  V30 2186 C 219.277 1.08187 -7.11117 0
M  V30 2187 C 221.303 1.30203 -5.76889 0
M  V30 2188 C 220.665 0.975818 -6.97608 0
M  V30 2189 H 216.764 0.518559 -0.585338 0
M  V30 2190 H 219.348 0.768906 -1.78874 0
M  V30 2191 H 217.519 3.27033 -2.09533 0
M  V30 2192 H 219.251 3.30123 -2.34096 0
M  V30 2193 H 216.006 2.3408 -4.11708 0
M  V30 2194 H 216.43 1.50369 -6.6009 0
M  V30 2195 H 221.072 1.97853 -3.7365 0
M  V30 2196 H 218.79 0.830701 -8.03819 0
M  V30 2197 H 222.376 1.20701 -5.69142 0
M  V30 2198 H 221.256 0.642157 -7.81566 0
M  V30 2199 N 218.759 1.29093 0.90403 0
M  V30 2200 C 219.984 1.19809 1.69294 0
M  V30 2201 C 220.409 -0.238481 1.86582 0
M  V30 2202 O 219.767 -1.1723 1.383 0
M  V30 2203 C 219.815 1.91202 3.05736 0
M  V30 2204 O 218.919 1.22611 3.93752 0
M  V30 2205 H 218.26 0.415385 0.518027 0
M  V30 2206 H 220.79 1.70586 1.12967 0
M  V30 2207 H 220.8 1.99487 3.55906 0
M  V30 2208 H 219.475 2.95692 2.92471 0
M  V30 2209 H 218.052 1.22554 3.52186 0
M  V30 2210 N 220.237 -1.11381 1.11499 0
M  V30 2211 C 221.187 -2.15555 0.74298 0
M  V30 2212 C 222.171 -1.58894 -0.253276 0
M  V30 2213 O 223.363 -1.76897 -0.0602918 0
M  V30 2214 C 220.492 -3.42782 0.188481 0
M  V30 2215 C 219.578 -4.064 1.21244 0
M  V30 2216 N 219.969 -4.44864 2.40685 0
M  V30 2217 C 218.267 -4.3333 1.05552 0
M  V30 2218 C 218.968 -4.94715 3.05994 0
M  V30 2219 N 217.944 -4.90909 2.33472 0
M  V30 2220 H 221.746 -2.43074 1.65203 0
M  V30 2221 H 219.26 -1.28401 0.994329 0
M  V30 2222 H 221.257 -4.16789 -0.0961693 0
M  V30 2223 H 219.917 -3.16727 -0.715149 0
M  V30 2224 H 220.928 -4.36876 2.78136 0
M  V30 2225 H 217.605 -4.1698 0.208372 0
M  V30 2226 H 218.995 -5.34103 4.07656 0
M  V30 2227 N 221.715 -0.905404 -1.28997 0
M  V30 2228 C 222.665 -0.358713 -2.25161 0
M  V30 2229 C 223.649 0.524449 -1.52113 0
M  V30 2230 O 224.841 0.365534 -1.73184 0
M  V30 2231 C 221.97 0.407609 -3.40872 0
M  V30 2232 C 221.056 -0.490797 -4.21251 0
M  V30 2233 N 221.447 -1.60061 -4.79806 0
M  V30 2234 C 219.745 -0.289636 -4.45059 0
M  V30 2235 C 220.446 -2.15757 -5.40207 0
M  V30 2236 N 219.422 -1.44988 -5.23908 0
M  V30 2237 H 223.224 -1.20642 -2.67998 0
M  V30 2238 H 220.738 -0.757103 -1.43672 0
M  V30 2239 H 222.735 0.816046 -4.08835 0
M  V30 2240 H 221.395 1.25251 -2.9957 0
M  V30 2241 H 222.406 -1.98329 -4.7842 0
M  V30 2242 H 219.083 0.51643 -4.14294 0
M  V30 2243 H 220.473 -3.09069 -5.96595 0
M  V30 2244 N 223.193 1.4272 -0.668489 0
M  V30 2245 C 224.156 2.292 0.00448567 0
M  V30 2246 C 225.156 1.43001 0.735339 0
M  V30 2247 O 226.346 1.64461 0.57429 0
M  V30 2248 C 223.478 3.25375 1.01705 0
M  V30 2249 H 224.671 2.90199 -0.756608 0
M  V30 2250 H 222.224 1.50254 -0.430506 0
M  V30 2251 H 222.959 2.69301 1.80686 0
M  V30 2252 H 222.744 3.88944 0.496463 0
M  V30 2253 H 224.234 3.90245 1.48655 0
M  V30 2254 N 224.671 0.411399 1.52136 0
M  V30 2255 C 225.896 -0.165538 2.06738 0
M  V30 2256 C 226.321 -1.379 1.27926 0
M  V30 2257 O 225.679 -1.78628 0.310114 0
M  V30 2258 C 225.727 -0.492124 3.57226 0
M  V30 2259 O 224.831 -1.58276 3.80818 0
M  V30 2260 H 224.172 -0.0132132 0.663869 0
M  V30 2261 H 226.702 0.585253 1.96051 0
M  V30 2262 H 226.712 -0.750104 4.01045 0
M  V30 2263 H 225.387 0.394922 4.14021 0
M  V30 2264 H 223.964 -1.31677 3.48877 0
M  V30 2265 N 226.149 -1.5696 0.141893 0
M  V30 2266 C 227.56 -1.82797 -0.379776 0
M  V30 2267 C 227.911 -1.06033 -1.6508 0
M  V30 2268 O 227.036 -0.304011 -2.14254 0
M  V30 2269 C 227.631 -3.31578 -0.695802 0
M  V30 2270 C 226.19 -3.58014 -1.16201 0
M  V30 2271 C 225.337 -2.76699 -0.182455 0
M  V30 2272 H 228.288 -1.54406 0.366675 0
M  V30 2273 H 228.309 -3.47454 -1.55099 0
M  V30 2274 H 227.821 -3.87421 0.229449 0
M  V30 2275 H 225.922 -3.07553 -2.10338 0
M  V30 2276 H 226.035 -4.66501 -1.09151 0
M  V30 2277 H 224.399 -2.45618 -0.674072 0
M  V30 2278 H 225.182 -3.35311 0.736297 0
M  V30 2279 N 227.627 0.131896 -1.57047 0
M  V30 2280 C 228.873 0.843179 -1.84441 0
M  V30 2281 C 229.206 1.80129 -0.725749 0
M  V30 2282 O 228.481 1.92624 0.269469 0
M  V30 2283 C 228.764 1.60442 -3.22382 0
M  V30 2284 C 228.617 0.666782 -4.4483 0
M  V30 2285 C 229.936 2.56354 -3.5773 0
M  V30 2286 H 227.055 0.305081 -0.670891 0
M  V30 2287 H 229.697 0.107839 -1.89694 0
M  V30 2288 H 227.847 2.23128 -3.18035 0
M  V30 2289 H 229.519 0.0497646 -4.61273 0
M  V30 2290 H 227.762 -0.022609 -4.33794 0
M  V30 2291 H 228.433 1.23579 -5.37989 0
M  V30 2292 H 230.909 2.0378 -3.62785 0
M  V30 2293 H 229.785 3.06657 -4.5525 0
M  V30 2294 H 230.046 3.38419 -2.84473 0
M  V30 2295 N 229.106 1.52395 0.401703 0
M  V30 2296 C 230.036 1.79231 1.49661 0
M  V30 2297 C 231.017 0.643654 1.57452 0
M  V30 2298 O 232.202 0.889989 1.72606 0
M  V30 2299 C 229.332 1.94971 2.87409 0
M  V30 2300 C 228.286 3.10604 2.94465 0
M  V30 2301 C 227.612 3.11577 4.34538 0
M  V30 2302 C 228.912 4.49921 2.6527 0
M  V30 2303 H 230.606 2.70917 1.27454 0
M  V30 2304 H 228.152 1.30362 0.6117 0
M  V30 2305 H 230.105 2.12328 3.63999 0
M  V30 2306 H 228.829 0.999632 3.10926 0
M  V30 2307 H 227.488 2.93009 2.20321 0
M  V30 2308 H 227.136 2.14277 4.55076 0
M  V30 2309 H 226.836 3.89247 4.40183 0
M  V30 2310 H 228.36 3.31073 5.13053 0
M  V30 2311 H 229.774 4.67683 3.31581 0
M  V30 2312 H 228.171 5.29564 2.82281 0
M  V30 2313 H 229.241 4.57507 1.60671 0
M  V30 2314 N 230.584 -0.659388 1.43143 0
M  V30 2315 C 231.547 -1.75432 1.47501 0
M  V30 2316 C 232.547 -1.56707 0.360512 0
M  V30 2317 O 233.737 -1.62717 0.622002 0
M  V30 2318 C 230.869 -3.14239 1.32162 0
M  V30 2319 H 232.062 -1.7295 2.45006 0
M  V30 2320 H 229.615 -0.870469 1.29817 0
M  V30 2321 H 230.35 -3.22336 0.356401 0
M  V30 2322 H 230.135 -3.29235 2.12948 0
M  V30 2323 H 231.625 -3.94094 1.3813 0
M  V30 2324 N 232.062 -1.29571 -0.897171 0
M  V30 2325 C 232.972 -1.16808 -2.03453 0
M  V30 2326 C 233.988 -0.0907471 -1.73763 0
M  V30 2327 O 235.164 -0.303312 -1.99103 0
M  V30 2328 C 232.229 -0.848264 -3.36163 0
M  V30 2329 C 231.29 -2.0097 -3.79354 0
M  V30 2330 C 230.523 -1.70505 -5.05731 0
M  V30 2331 O 230.746 -0.62718 -5.66941 0
M  V30 2332 O 229.68 -2.5538 -5.45036 0
M  V30 2333 H 233.506 -2.12325 -2.17144 0
M  V30 2334 H 231.091 -1.09047 -1.02123 0
M  V30 2335 H 232.973 -0.684581 -4.15802 0
M  V30 2336 H 231.648 0.0771071 -3.23608 0
M  V30 2337 H 230.555 -2.22863 -3.00471 0
M  V30 2338 H 231.888 -2.91636 -3.96496 0
M  V30 2339 N 233.54 1.10788 -1.12088 0
M  V30 2340 C 234.768 1.86461 -0.896651 0
M  V30 2341 C 235.183 1.80492 0.553912 0
M  V30 2342 O 234.54 1.19102 1.38278 0
M  V30 2343 C 234.591 3.35006 -1.35843 0
M  V30 2344 O 234.312 3.40866 -2.75213 0
M  V30 2345 C 235.813 4.27565 -1.1706 0
M  V30 2346 H 233.033 0.589425 -0.320654 0
M  V30 2347 H 235.577 1.40076 -1.48993 0
M  V30 2348 H 233.732 3.7887 -0.808458 0
M  V30 2349 H 234.146 4.33411 -2.9539 0
M  V30 2350 H 235.62 5.30007 -1.54263 0
M  V30 2351 H 236.097 4.3906 -0.110814 0
M  V30 2352 H 236.703 3.89501 -1.70789 0
M  V30 2353 N 235.018 0.912232 1.28515 0
M  V30 2354 C 236.266 0.543523 1.94654 0
M  V30 2355 C 236.587 -0.9155 1.72173 0
M  V30 2356 O 235.857 -1.64708 1.06058 0
M  V30 2357 H 234.437 0.198017 0.720277 0
M  V30 2358 H 237.099 1.16126 1.56527 0
M  V30 2359 H 236.195 0.736684 3.03281 0
M  V30 2360 N 236.496 -1.42363 0.676048 0
M  V30 2361 C 237.459 -2.29199 0.00766941 0
M  V30 2362 C 238.459 -1.43389 -0.727745 0
M  V30 2363 O 239.649 -1.64764 -0.56556 0
M  V30 2364 C 236.781 -3.2591 -0.999785 0
M  V30 2365 H 237.974 -2.89794 0.771988 0
M  V30 2366 H 235.527 -1.50024 0.438468 0
M  V30 2367 H 236.262 -2.70256 -1.79255 0
M  V30 2368 H 236.047 -3.89202 -0.475829 0
M  V30 2369 H 237.537 -3.91028 -1.46583 0
M  V30 2370 N 237.974 -0.419461 -1.51915 0
M  V30 2371 C 238.884 0.407528 -2.31033 0
M  V30 2372 C 239.9 1.04413 -1.3919 0
M  V30 2373 O 241.076 1.0434 -1.72265 0
M  V30 2374 C 238.141 1.50365 -3.12396 0
M  V30 2375 C 237.202 0.889029 -4.19994 0
M  V30 2376 C 236.435 1.93291 -4.97468 0
M  V30 2377 O 236.658 3.15259 -4.75361 0
M  V30 2378 O 235.592 1.53339 -5.8204 0
M  V30 2379 H 239.418 -0.237865 -3.02767 0
M  V30 2380 H 237.003 -0.182413 -1.48282 0
M  V30 2381 H 238.885 2.13975 -3.63032 0
M  V30 2382 H 237.56 2.13345 -2.43445 0
M  V30 2383 H 236.467 0.215353 -3.7348 0
M  V30 2384 H 237.8 0.302991 -4.91267 0
M  V30 2385 N 239.452 1.56882 -0.150215 0
M  V30 2386 C 240.362 2.20494 0.801222 0
M  V30 2387 C 241.378 1.19019 1.26927 0
M  V30 2388 O 242.554 1.51607 1.32579 0
M  V30 2389 C 239.619 2.81659 2.02161 0
M  V30 2390 C 238.68 3.9827 1.60249 0
M  V30 2391 C 237.913 4.56508 2.7647 0
M  V30 2392 O 238.136 4.13627 3.92771 0
M  V30 2393 O 237.07 5.46719 2.51757 0
M  V30 2394 H 240.896 3.02315 0.289717 0
M  V30 2395 H 238.481 1.49202 0.0769684 0
M  V30 2396 H 240.363 3.20522 2.73576 0
M  V30 2397 H 239.038 2.02849 2.52258 0
M  V30 2398 H 237.945 3.64117 0.858477 0
M  V30 2399 H 239.278 4.78609 1.14864 0
M  V30 2400 N 240.93 -0.123565 1.57115 0
M  V30 2401 C 242.178 -0.83051 1.84247 0
M  V30 2402 C 242.499 -1.80629 0.73471 0
M  V30 2403 O 241.769 -1.94403 -0.241688 0
M  V30 2404 H 240.349 -0.309694 0.679778 0
M  V30 2405 H 243.011 -0.111976 1.94578 0
M  V30 2406 H 242.107 -1.37852 2.80006 0
M  V30 2407 N 242.408 -1.52605 -0.393616 0
M  V30 2408 C 243.685 -1.58001 -1.15304 0
M  V30 2409 C 244.065 -0.370385 -2.07825 0
M  V30 2410 O 243.413 0.641638 -2.19306 0
M  V30 2411 C 243.623 -2.91652 -1.91677 0
M  V30 2412 C 244.971 -3.4522 -2.47201 0
M  V30 2413 O 245.995 -2.93495 -2.01839 0
M  V30 2414 O 244.854 -4.35579 -3.3005 0
M  V30 2415 H 241.948 -0.637068 -0.527327 0
M  V30 2416 H 244.494 -1.64939 -0.399141 0
M  V30 2417 H 243.266 -3.71136 -1.23992 0
M  V30 2418 H 242.889 -2.88077 -2.74039 0
M  V30 2419 N 243.887 0.651787 -1.4349 0
M  V30 2420 C 244.797 1.79368 -1.5121 0
M  V30 2421 C 245.813 1.69361 -0.399093 0
M  V30 2422 O 246.989 1.90505 -0.653431 0
M  V30 2423 C 244.054 3.15653 -1.43401 0
M  V30 2424 C 243.115 3.37446 -2.65384 0
M  V30 2425 C 242.348 4.67229 -2.57939 0
M  V30 2426 O 242.571 5.46676 -1.62792 0
M  V30 2427 O 241.505 4.90773 -3.48462 0
M  V30 2428 H 245.331 1.7581 -2.47638 0
M  V30 2429 H 242.916 0.810447 -1.25507 0
M  V30 2430 H 244.798 3.96935 -1.41494 0
M  V30 2431 H 243.473 3.19798 -0.501085 0
M  V30 2432 H 242.38 2.55923 -2.72863 0
M  V30 2433 H 243.713 3.38148 -3.57654 0
M  V30 2434 N 245.365 1.30045 0.890287 0
M  V30 2435 C 246.59 1.21598 1.68014 0
M  V30 2436 C 247.015 -0.218678 1.86825 0
M  V30 2437 O 246.373 -1.15756 1.39536 0
M  V30 2438 C 246.421 1.94434 3.03691 0
M  V30 2439 O 245.525 1.2678 3.92429 0
M  V30 2440 H 244.866 0.420856 0.513592 0
M  V30 2441 H 247.396 1.71775 1.11151 0
M  V30 2442 H 247.406 2.03251 3.5377 0
M  V30 2443 H 246.081 2.98777 2.89318 0
M  V30 2444 H 244.658 1.26282 3.50866 0
M  V30 2445 N 246.843 -1.10192 1.12674 0
M  V30 2446 C 248.254 -1.63707 0.897604 0
M  V30 2447 C 248.605 -1.87812 -0.567546 0
M  V30 2448 O 247.73 -1.62196 -1.43253 0
M  V30 2449 C 248.325 -2.974 1.62292 0
M  V30 2450 C 246.884 -3.47772 1.43986 0
M  V30 2451 C 246.031 -2.22332 1.65722 0
M  V30 2452 H 248.982 -0.936587 1.28116 0
M  V30 2453 H 249.003 -3.64986 1.07541 0
M  V30 2454 H 248.515 -2.79824 2.68924 0
M  V30 2455 H 246.616 -3.70487 0.396206 0
M  V30 2456 H 246.729 -4.25723 2.19765 0
M  V30 2457 H 245.093 -2.30599 1.08149 0
M  V30 2458 H 245.876 -2.07285 2.73657 0
M  V30 2459 N 248.321 -0.919034 -1.28029 0
M  V30 2460 C 249.598 -0.473668 -1.89778 0
M  V30 2461 C 249.978 1.04783 -1.83259 0
M  V30 2462 O 249.326 1.8982 -1.27202 0
M  V30 2463 C 249.536 -1.00998 -3.34066 0
M  V30 2464 C 250.884 -1.06525 -4.1102 0
M  V30 2465 O 251.908 -0.958996 -3.43048 0
M  V30 2466 O 250.767 -1.22776 -5.3253 0
M  V30 2467 H 247.861 -0.15098 -0.813101 0
M  V30 2468 H 250.407 -1.01016 -1.36359 0
M  V30 2469 H 249.179 -2.05392 -3.33061 0
M  V30 2470 H 248.802 -0.454626 -3.94992 0
M  V30 2471 O 249.838 1.38984 -0.822545 0
M  V30 2472 H 250.529 1.89429 -0.404525 0
M  V30 END ATOM
M  V30 BEGIN BOND
M  V30 END BOND
M  V30 END CTAB
M  END
$$$$
