drugbank_target|P04629 High affinity nerve growth factor receptor (DB00321; DB00619; DB08896; DB11986; DB12010; DB13926; DB14723; DB15822)
 OpenBabel12092119463D

  0  0  0     0  0            999 V3000
M  V30 BEGIN CTAB
M  V30 COUNTS 12230 12382 0 0 0
M  V30 BEGIN ATOM
M  V30 1 H -0.908 1.98254 -0.117106 0
M  V30 2 N 0 1.576 0 0
M  V30 3 C 0.933 2.03868 1.02534 0
M  V30 4 C 1.911 0.928543 1.3348 0
M  V30 5 O 3.095 1.19667 1.45644 0
M  V30 6 C 0.222 2.43627 2.35294 0
M  V30 7 C -0.732 3.65373 2.2001 0
M  V30 8 S 0.101 5.13292 1.52614 0
M  V30 9 C 1.257 5.56322 2.86805 0
M  V30 10 H 1.49 2.90518 0.631377 0
M  V30 11 H -0.977 1.52953 0.210867 0
M  V30 12 H 0.981 2.67203 3.11629 0
M  V30 13 H -0.358 1.57376 2.7183 0
M  V30 14 H -1.165 3.90944 3.18086 0
M  V30 15 H -1.563 3.418 1.51819 0
M  V30 16 H 0.729 5.58782 3.83104 0
M  V30 17 H 1.672 6.56266 2.65933 0
M  V30 18 H 2.08 4.83886 2.90714 0
M  V30 19 N 1.4781 -0.272755 1.55222 0
M  V30 20 C 2.4081 -1.34136 1.91127 0
M  V30 21 C 3.3891 -1.51513 0.773168 0
M  V30 22 O 4.5741 -1.64552 1.03132 0
M  V30 23 C 1.7041 -2.70083 2.1834 0
M  V30 24 C 0.6581 -2.67437 3.34158 0
M  V30 25 C -0.0159 -4.06938 3.46851 0
M  V30 26 C 1.2841 -2.26686 4.70543 0
M  V30 27 H 2.9781 -1.04333 2.80633 0
M  V30 28 H 0.5241 -0.500454 1.35024 0
M  V30 29 H 2.4771 -3.44952 2.42046 0
M  V30 30 H 1.2011 -3.01469 1.25634 0
M  V30 31 H -0.1399 -1.95026 3.1042 0
M  V30 32 H -0.4919 -4.35547 2.51611 0
M  V30 33 H -0.7919 -4.06062 4.2472 0
M  V30 34 H 0.7321 -4.83545 3.72849 0
M  V30 35 H 2.1461 -2.91277 4.93792 0
M  V30 36 H 0.5431 -2.36971 5.5133 0
M  V30 37 H 1.6131 -1.21818 4.69349 0
M  V30 38 N 2.9562 -1.48159 -0.537278 0
M  V30 39 C 4.3722 -1.34118 -0.865129 0
M  V30 40 C 4.5722 -0.346678 -1.98495 0
M  V30 41 O 3.6282 0.234715 -2.51407 0
M  V30 42 C 4.9412 -2.73963 -1.23954 0
M  V30 43 C 6.4892 -2.82397 -1.34984 0
M  V30 44 C 6.9642 -4.22928 -1.75772 0
M  V30 45 N 8.4552 -4.25566 -1.82887 0
M  V30 46 C 9.1902 -5.31235 -2.15817 0
M  V30 47 N 8.6862 -6.47189 -2.47222 0
M  V30 48 N 10.4792 -5.18624 -2.16761 0
M  V30 49 H 2.6302 -2.1144 0.201715 0
M  V30 50 H 4.8932 -0.947598 0.0275949 0
M  V30 51 H 4.5992 -3.48264 -0.490381 0
M  V30 52 H 4.4732 -3.0702 -2.19132 0
M  V30 53 H 6.8602 -2.08356 -2.08978 0
M  V30 54 H 6.9412 -2.5297 -0.379448 0
M  V30 55 H 6.5852 -4.97482 -1.02341 0
M  V30 56 H 6.5152 -4.49794 -2.73848 0
M  V30 57 H 9.0062 -3.41924 -1.60924 0
M  V30 58 H 9.3192 -7.23564 -2.71433 0
M  V30 59 H 7.6642 -6.50476 -2.44757 0
M  V30 60 H 10.8552 -4.27056 -1.91679 0
M  V30 61 H 11.0282 -6.01078 -2.42093 0
M  V30 62 N 4.4343 0.785586 -1.36625 0
M  V30 63 C 5.6823 1.54057 -1.30808 0
M  V30 64 C 6.0033 1.94683 0.111157 0
M  V30 65 O 5.2733 1.65241 1.05224 0
M  V30 66 H 3.8533 0.571354 -0.481211 0
M  V30 67 H 6.5153 0.935821 -1.70963 0
M  V30 68 H 5.6113 2.44637 -1.93801 0
M  V30 69 N 5.9124 1.20967 1.01018 0
M  V30 70 C 7.1604 1.02172 1.74371 0
M  V30 71 C 7.4814 -0.446414 1.89821 0
M  V30 72 O 6.7514 -1.32234 1.44537 0
M  V30 73 H 5.3314 0.375066 0.646014 0
M  V30 74 H 7.9934 1.52187 1.21758 0
M  V30 75 H 7.0894 1.48538 2.74487 0
M  V30 76 N 7.3905 -1.2043 1.01659 0
M  V30 77 C 8.8065 -1.41852 0.731442 0
M  V30 78 C 9.0065 -1.89358 -0.688898 0
M  V30 79 O 8.0625 -2.06247 -1.45666 0
M  V30 80 C 9.3755 -2.44019 1.75714 0
M  V30 81 C 10.9235 -2.57785 1.77527 0
M  V30 82 C 11.3985 -3.63194 2.79023 0
M  V30 83 N 12.8895 -3.70678 2.77763 0
M  V30 84 C 13.6245 -4.51897 3.52954 0
M  V30 85 N 13.1205 -5.36921 4.37821 0
M  V30 86 N 14.9135 -4.4643 3.41551 0
M  V30 87 H 7.0645 -0.879093 1.93354 0
M  V30 88 H 9.3275 -0.448425 0.835236 0
M  V30 89 H 9.0335 -2.1611 2.77469 0
M  V30 90 H 8.9075 -3.43007 1.56927 0
M  V30 91 H 11.2945 -2.85023 0.764569 0
M  V30 92 H 11.3755 -1.58992 2.00387 0
M  V30 93 H 11.0195 -3.36699 3.80258 0
M  V30 94 H 10.9495 -4.61609 2.53425 0
M  V30 95 H 13.4405 -3.09944 2.16201 0
M  V30 96 H 13.7535 -5.95981 4.91962 0
M  V30 97 H 12.0985 -5.36424 4.41899 0
M  V30 98 H 15.2895 -3.79042 2.74672 0
M  V30 99 H 15.4625 -5.09491 4.00404 0
M  V30 100 N 8.8686 -0.792821 -1.36206 0
M  V30 101 C 10.2846 -0.474903 -1.52371 0
M  V30 102 C 10.4846 1.00622 -1.74578 0
M  V30 103 O 9.5406 1.79162 -1.77924 0
M  V30 104 C 10.8536 -1.3083 -2.70747 0
M  V30 105 C 12.4016 -1.30234 -2.84619 0
M  V30 106 C 12.8766 -2.11956 -4.06004 0
M  V30 107 N 14.3676 -2.09419 -4.13156 0
M  V30 108 C 15.1026 -2.69419 -5.06163 0
M  V30 109 N 14.5986 -3.3829 -6.04592 0
M  V30 110 N 16.3916 -2.59134 -4.98804 0
M  V30 111 H 8.5426 -1.75222 -1.20046 0
M  V30 112 H 10.8056 -0.745024 -0.586211 0
M  V30 113 H 10.5116 -2.35881 -2.6087 0
M  V30 114 H 10.3856 -0.95196 -3.6499 0
M  V30 115 H 12.7726 -0.259748 -2.93955 0
M  V30 116 H 12.8536 -1.69847 -1.91274 0
M  V30 117 H 12.4976 -3.16248 -3.97429 0
M  V30 118 H 12.4276 -1.69711 -4.98503 0
M  V30 119 H 14.9186 -1.59297 -3.42685 0
M  V30 120 H 15.2316 -3.81394 -6.7213 0
M  V30 121 H 13.5766 -3.42393 -6.04807 0
M  V30 122 H 16.7676 -2.04927 -4.20859 0
M  V30 123 H 16.9406 -3.06185 -5.711 0
M  V30 124 N 10.3467 1.47872 -0.545128 0
M  V30 125 C 11.5947 2.02093 -0.016553 0
M  V30 126 C 11.9157 1.42305 1.3332 0
M  V30 127 O 11.1857 0.593853 1.86682 0
M  V30 128 H 9.7657 0.746993 -0.00313038 0
M  V30 129 H 12.4277 1.81414 -0.712397 0
M  V30 130 H 11.5237 3.11996 0.0805422 0
M  V30 131 N 11.8248 0.280983 1.55075 0
M  V30 132 C 12.7568 -0.637268 2.20163 0
M  V30 133 C 13.7698 -1.11298 1.18813 0
M  V30 134 O 14.9588 -1.03388 1.4551 0
M  V30 135 C 12.0588 -1.88199 2.81841 0
M  V30 136 C 11.2318 -1.55211 4.08936 0
M  V30 137 C 10.2908 -2.64991 4.54606 0
M  V30 138 O 9.3168 -2.30929 5.2025 0
M  V30 139 N 10.5188 -3.95161 4.25238 0
M  V30 140 H 13.2838 -0.0801694 2.99593 0
M  V30 141 H 10.8448 0.102329 1.61576 0
M  V30 142 H 12.8368 -2.60948 3.09335 0
M  V30 143 H 11.4068 -2.34799 2.06369 0
M  V30 144 H 10.6268 -0.658185 3.88666 0
M  V30 145 H 11.9148 -1.30681 4.91732 0
M  V30 146 H 11.3128 -4.25653 3.72607 0
M  V30 147 H 9.8698 -4.6427 4.5749 0
M  V30 148 N 13.3029 -1.57598 0.00835791 0
M  V30 149 C 14.2329 -2.1198 -0.979113 0
M  V30 150 C 15.2139 -1.03091 -1.35301 0
M  V30 151 O 16.3989 -1.30818 -1.43528 0
M  V30 152 C 13.5289 -2.62995 -2.26828 0
M  V30 153 C 12.4829 -3.76485 -2.03576 0
M  V30 154 C 11.8089 -4.13846 -3.38579 0
M  V30 155 C 13.1089 -5.0342 -1.39161 0
M  V30 156 H 14.8029 -2.94738 -0.526281 0
M  V30 157 H 12.3489 -1.41783 -0.251704 0
M  V30 158 H 14.3019 -2.99669 -2.96271 0
M  V30 159 H 13.0259 -1.7737 -2.7424 0
M  V30 160 H 11.6849 -3.40217 -1.36557 0
M  V30 161 H 11.3329 -3.25232 -3.83709 0
M  V30 162 H 11.0329 -4.90312 -3.23834 0
M  V30 163 H 12.5569 -4.53086 -4.09323 0
M  V30 164 H 13.9709 -5.37812 -1.98573 0
M  V30 165 H 12.3679 -5.84746 -1.34878 0
M  V30 166 H 13.4379 -4.83548 -0.361868 0
M  V30 167 N 14.781 0.264519 -1.55364 0
M  V30 168 C 16.029 0.993021 -1.76021 0
M  V30 169 C 16.35 1.86511 -0.569099 0
M  V30 170 O 15.62 1.91438 0.415735 0
M  V30 171 H 14.2 0.369639 -0.649135 0
M  V30 172 H 16.862 0.286707 -1.9278 0
M  V30 173 H 15.958 1.62502 -2.66457 0
M  V30 174 N 16.2591 1.48442 0.529413 0
M  V30 175 C 17.5051 1.57699 1.28463 0
M  V30 176 C 17.8601 0.247913 1.90796 0
M  V30 177 O 17.1531 -0.749279 1.76342 0
M  V30 178 C 17.3471 2.6523 2.39558 0
M  V30 179 C 17.1761 4.08464 1.88114 0
M  V30 180 C 15.9461 4.75596 1.70693 0
M  V30 181 C 18.1441 4.94613 1.40935 0
M  V30 182 N 16.1261 6.03245 1.13881 0
M  V30 183 C 17.4971 6.12511 0.960734 0
M  V30 184 C 19.5521 4.80833 1.29243 0
M  V30 185 C 18.2551 7.18149 0.406792 0
M  V30 186 C 20.2811 5.86593 0.752487 0
M  V30 187 C 19.6431 7.037 0.313946 0
M  V30 188 H 15.7421 0.631608 0.46108 0
M  V30 189 H 18.3261 1.85325 0.596886 0
M  V30 190 H 16.4971 2.39425 3.05827 0
M  V30 191 H 18.2291 2.64169 3.06589 0
M  V30 192 H 14.9841 4.31938 1.94232 0
M  V30 193 H 15.4081 6.71324 0.874831 0
M  V30 194 H 20.0501 3.90635 1.61754 0
M  V30 195 H 17.7681 8.0807 0.0693671 0
M  V30 196 H 21.3541 5.77985 0.665192 0
M  V30 197 H 20.2341 7.8414 -0.0973632 0
M  V30 198 N 17.7372 -0.778329 1.37039 0
M  V30 199 C 18.6872 -1.88142 1.28789 0
M  V30 200 C 19.6712 -1.59923 0.177063 0
M  V30 201 O 20.8632 -1.72165 0.410873 0
M  V30 202 C 17.9922 -3.25518 1.09055 0
M  V30 203 C 17.0782 -3.5971 2.24654 0
M  V30 204 N 17.4692 -3.65131 3.50018 0
M  V30 205 C 15.7672 -3.89837 2.16663 0
M  V30 206 C 16.4682 -3.95882 4.26207 0
M  V30 207 N 15.4442 -4.11441 3.55271 0
M  V30 208 H 19.2462 -1.90575 2.23737 0
M  V30 209 H 16.7602 -0.974435 1.29917 0
M  V30 210 H 18.7572 -4.04423 1.0123 0
M  V30 211 H 17.4172 -3.24353 0.15018 0
M  V30 212 H 18.4282 -3.475 3.84011 0
M  V30 213 H 15.1052 -3.96533 1.30645 0
M  V30 214 H 16.4952 -4.06907 5.34674 0
M  V30 215 N 19.2153 -1.21501 -1.00376 0
M  V30 216 C 20.4403 -1.05977 -1.78279 0
M  V30 217 C 20.8653 0.385994 -1.84097 0
M  V30 218 O 20.2233 1.27849 -1.28547 0
M  V30 219 C 20.2713 -1.66302 -3.19963 0
M  V30 220 O 19.3753 -0.909333 -4.0225 0
M  V30 221 H 18.7163 -0.372906 -0.549397 0
M  V30 222 H 21.2463 -1.6107 -1.26165 0
M  V30 223 H 21.2563 -1.70574 -3.70632 0
M  V30 224 H 19.9313 -2.71515 -3.15043 0
M  V30 225 H 18.5083 -0.941795 -3.60811 0
M  V30 226 N 20.6934 1.19889 -1.02296 0
M  V30 227 C 21.9394 1.89973 -0.726759 0
M  V30 228 C 22.2944 1.7776 0.73614 0
M  V30 229 O 21.5874 1.15523 1.52856 0
M  V30 230 C 21.7814 3.39883 -1.10518 0
M  V30 231 C 21.6104 3.66684 -2.60332 0
M  V30 232 C 20.3804 3.85045 -3.27213 0
M  V30 233 C 22.5784 3.68727 -3.58532 0
M  V30 234 N 20.5604 3.99422 -4.66192 0
M  V30 235 C 21.9314 3.88604 -4.83101 0
M  V30 236 C 23.9864 3.51722 -3.52414 0
M  V30 237 C 22.6894 3.9324 -6.02292 0
M  V30 238 C 24.7154 3.57632 -4.71013 0
M  V30 239 C 24.0774 3.77988 -5.94394 0
M  V30 240 H 20.1764 0.714551 -0.317712 0
M  V30 241 H 22.7604 1.44123 -1.30907 0
M  V30 242 H 20.9314 3.8447 -0.551142 0
M  V30 243 H 22.6634 3.97464 -0.761853 0
M  V30 244 H 19.4184 3.83689 -2.77632 0
M  V30 245 H 19.8424 4.10473 -5.38368 0
M  V30 246 H 24.4844 3.34945 -2.58015 0
M  V30 247 H 22.2024 4.08811 -6.97065 0
M  V30 248 H 25.7884 3.45773 -4.67902 0
M  V30 249 H 24.6684 3.82428 -6.8463 0
M  V30 250 N 22.1715 0.800033 1.35784 0
M  V30 251 C 23.1345 0.211565 2.28221 0
M  V30 252 C 24.1345 -0.59728 1.49296 0
M  V30 253 O 25.3245 -0.416721 1.69142 0
M  V30 254 C 22.4565 -0.705846 3.33513 0
M  V30 255 H 23.6495 1.02677 2.81776 0
M  V30 256 H 21.2025 0.570211 1.45528 0
M  V30 257 H 21.9375 -1.54498 2.85133 0
M  V30 258 H 21.7225 -0.127655 3.91892 0
M  V30 259 H 23.2125 -1.11211 4.02519 0
M  V30 260 N 23.6496 -1.47581 0.552962 0
M  V30 261 C 24.6126 -2.28439 -0.186605 0
M  V30 262 C 25.6126 -1.36706 -0.84665 0
M  V30 263 O 26.8026 -1.59378 -0.703164 0
M  V30 264 C 23.9346 -3.16264 -1.2724 0
M  V30 265 H 25.1276 -2.95294 0.523609 0
M  V30 266 H 22.6806 -1.532 0.309745 0
M  V30 267 H 23.4156 -2.54091 -2.01514 0
M  V30 268 H 23.2006 -3.83769 -0.803968 0
M  V30 269 H 24.6906 -3.77198 -1.79196 0
M  V30 270 N 25.1277 -0.289203 -1.54924 0
M  V30 271 C 26.3757 0.322879 -1.99504 0
M  V30 272 C 26.6967 1.55313 -1.1791 0
M  V30 273 O 25.9667 1.94001 -0.272097 0
M  V30 274 H 24.5467 0.122291 -0.736922 0
M  V30 275 H 27.2087 -0.397802 -1.90797 0
M  V30 276 H 26.3047 0.603061 -3.06218 0
M  V30 277 N 26.6058 1.57591 -0.0167156 0
M  V30 278 C 28.0168 1.79201 0.523834 0
M  V30 279 C 28.3678 0.925796 1.72984 0
M  V30 280 O 27.4928 0.132792 2.15992 0
M  V30 281 C 28.0878 3.25 0.957091 0
M  V30 282 C 26.6468 3.47648 1.44283 0
M  V30 283 C 25.7938 2.74374 0.401757 0
M  V30 284 H 28.7448 1.56831 -0.242816 0
M  V30 285 H 28.7658 3.34031 1.82219 0
M  V30 286 H 28.2778 3.88019 0.0791415 0
M  V30 287 H 26.3788 2.89866 2.34113 0
M  V30 288 H 26.4918 4.56352 1.45877 0
M  V30 289 H 24.8558 2.39485 0.867121 0
M  V30 290 H 25.6388 3.40102 -0.467513 0
M  V30 291 N 28.0839 -0.256276 1.55502 0
M  V30 292 C 29.3319 -0.983672 1.76545 0
M  V30 293 C 29.6529 -1.86206 0.578982 0
M  V30 294 O 28.9229 -1.91656 -0.405577 0
M  V30 295 H 27.5029 -0.366191 0.651086 0
M  V30 296 H 30.1649 -0.276479 1.92929 0
M  V30 297 H 29.2609 -1.61087 2.67315 0
M  V30 298 N 29.562 -1.4872 -0.521534 0
M  V30 299 C 30.787 -1.61101 -1.30618 0
M  V30 300 C 31.212 -0.274611 -1.86085 0
M  V30 301 O 30.57 0.754937 -1.64834 0
M  V30 302 C 30.618 -2.66709 -2.4269 0
M  V30 303 O 29.722 -2.24456 -3.45967 0
M  V30 304 H 29.063 -0.539921 -0.386499 0
M  V30 305 H 31.593 -1.94767 -0.626645 0
M  V30 306 H 31.603 -2.88245 -2.88754 0
M  V30 307 H 30.278 -3.63727 -2.01682 0
M  V30 308 H 28.855 -2.13168 -3.05964 0
M  V30 309 N 31.0401 0.771051 -1.3745 0
M  V30 310 C 31.9701 1.89827 -1.3597 0
M  V30 311 C 32.9511 1.68562 -0.228216 0
M  V30 312 O 34.1361 1.8941 -0.428675 0
M  V30 313 C 31.2661 3.2712 -1.16662 0
M  V30 314 C 30.2201 3.6295 -2.2683 0
M  V30 315 C 29.5461 4.98791 -1.92644 0
M  V30 316 C 30.8461 3.69627 -3.69017 0
M  V30 317 H 32.5401 1.91323 -2.30295 0
M  V30 318 H 30.0861 0.919082 -1.10855 0
M  V30 319 H 32.0391 4.05615 -1.14256 0
M  V30 320 H 30.7631 3.26059 -0.187926 0
M  V30 321 H 29.4221 2.86763 -2.28392 0
M  V30 322 H 29.0701 4.94271 -0.933021 0
M  V30 323 H 28.7701 5.23733 -2.66416 0
M  V30 324 H 30.2941 5.79685 -1.91826 0
M  V30 325 H 31.7081 4.38273 -3.69581 0
M  V30 326 H 30.1051 4.06067 -4.41848 0
M  V30 327 H 31.1751 2.70273 -4.02592 0
M  V30 328 N 32.5182 1.22032 0.997298 0
M  V30 329 C 33.4482 1.01065 2.10495 0
M  V30 330 C 34.4292 -0.0669542 1.69968 0
M  V30 331 O 35.6142 0.0943987 1.9397 0
M  V30 332 C 32.7442 0.582874 3.42374 0
M  V30 333 C 31.6982 1.60592 3.96729 0
M  V30 334 C 31.0242 1.03412 5.24605 0
M  V30 335 C 32.3242 2.99478 4.27914 0
M  V30 336 H 34.0182 1.93708 2.28292 0
M  V30 337 H 31.5642 0.932761 1.09707 0
M  V30 338 H 33.5172 0.423332 4.19268 0
M  V30 339 H 32.2412 -0.379213 3.24391 0
M  V30 340 H 30.9002 1.75316 3.21963 0
M  V30 341 H 30.5482 0.063518 5.0296 0
M  V30 342 H 30.2482 1.71754 5.61938 0
M  V30 343 H 31.7722 0.886066 6.04137 0
M  V30 344 H 33.1862 2.88153 4.95622 0
M  V30 345 H 31.5832 3.64903 4.76409 0
M  V30 346 H 32.6532 3.49742 3.3587 0
M  V30 347 N 33.9963 -1.19345 1.0293 0
M  V30 348 C 34.9593 -2.20793 0.615069 0
M  V30 349 C 35.9593 -1.57553 -0.321533 0
M  V30 350 O 37.1493 -1.73862 -0.108483 0
M  V30 351 C 34.2813 -3.40754 -0.0999222 0
M  V30 352 H 35.4743 -2.58955 1.51269 0
M  V30 353 H 33.0273 -1.3303 0.820534 0
M  V30 354 H 33.7623 -3.0811 -1.01187 0
M  V30 355 H 33.5473 -3.87889 0.57309 0
M  V30 356 H 35.0373 -4.15898 -0.376645 0
M  V30 357 N 35.4744 -0.807222 -1.35358 0
M  V30 358 C 36.7204 -0.397594 -1.99476 0
M  V30 359 C 37.0754 1.02405 -1.62883 0
M  V30 360 O 36.3684 1.70077 -0.882282 0
M  V30 361 C 36.5624 -0.519036 -3.53611 0
M  V30 362 C 36.3914 -1.95094 -4.05177 0
M  V30 363 C 35.1614 -2.57945 -4.34503 0
M  V30 364 C 37.3594 -2.91558 -4.23673 0
M  V30 365 N 35.3414 -3.92539 -4.72003 0
M  V30 366 C 36.7124 -4.11024 -4.64176 0
M  V30 367 C 38.7674 -2.88381 -4.05883 0
M  V30 368 C 37.4704 -5.27745 -4.88751 0
M  V30 369 C 39.4964 -4.04306 -4.31614 0
M  V30 370 C 38.8584 -5.22519 -4.72391 0
M  V30 371 H 34.9574 -0.193274 -0.75774 0
M  V30 372 H 37.5414 -1.0486 -1.6405 0
M  V30 373 H 35.7124 0.101979 -3.88266 0
M  V30 374 H 37.4444 -0.0839321 -4.04613 0
M  V30 375 H 34.1994 -2.09295 -4.24844 0
M  V30 376 H 34.6234 -4.61836 -4.95011 0
M  V30 377 H 39.2654 -1.98137 -3.73499 0
M  V30 378 H 36.9834 -6.1856 -5.20008 0
M  V30 379 H 40.5694 -4.03229 -4.19402 0
M  V30 380 H 39.4494 -6.1073 -4.91913 0
M  V30 381 N 36.9525 1.47285 -0.560781 0
M  V30 382 C 37.8825 2.32857 0.173105 0
M  V30 383 C 38.8635 1.44009 0.905281 0
M  V30 384 O 40.0485 1.7286 0.885046 0
M  V30 385 C 37.1785 3.25861 1.20133 0
M  V30 386 C 36.1325 4.23978 0.585388 0
M  V30 387 C 35.4585 5.06332 1.7185 0
M  V30 388 C 36.7585 5.20242 -0.463178 0
M  V30 389 H 38.4525 2.94466 -0.541307 0
M  V30 390 H 35.9985 1.41601 -0.261764 0
M  V30 391 H 37.9515 3.84569 1.72293 0
M  V30 392 H 36.6755 2.62315 1.94573 0
M  V30 393 H 35.3345 3.66501 0.085054 0
M  V30 394 H 34.9825 4.39186 2.45203 0
M  V30 395 H 34.6825 5.72762 1.31213 0
M  V30 396 H 36.2065 5.67899 2.24329 0
M  V30 397 H 37.6205 5.73293 -0.027502 0
M  V30 398 H 36.0175 5.94896 -0.788627 0
M  V30 399 H 37.0875 4.65504 -1.35773 0
M  V30 400 N 38.4306 0.297415 1.54768 0
M  V30 401 C 39.6796 -0.313669 1.99246 0
M  V30 402 C 39.9926 -1.55281 1.18942 0
M  V30 403 O 41.1986 -2.23825 1.5367 0
M  V30 404 C 39.6546 -0.609407 3.54703 0
M  V30 405 C 39.2626 0.611192 4.43811 0
M  V30 406 C 41.0066 -1.18188 4.07715 0
M  V30 407 C 38.9136 0.288805 5.90694 0
M  V30 408 H 37.8436 -0.120979 0.744231 0
M  V30 409 H 40.4946 0.40556 1.78962 0
M  V30 410 H 38.8766 -1.38813 3.70873 0
M  V30 411 H 40.0506 1.3875 4.39414 0
M  V30 412 H 38.3656 1.10205 4.01552 0
M  V30 413 H 40.9626 -1.43727 5.15021 0
M  V30 414 H 41.3056 -2.12299 3.58099 0
M  V30 415 H 41.8386 -0.464944 3.95074 0
M  V30 416 H 38.5776 1.19838 6.44453 0
M  V30 417 H 38.0976 -0.450305 5.98107 0
M  V30 418 H 39.7766 -0.110933 6.46905 0
M  V30 419 N 39.9087 -1.5758 0.0250728 0
M  V30 420 C 40.8387 -2.13007 -0.956575 0
M  V30 421 C 41.8197 -1.0452 -1.342 0
M  V30 422 O 43.0047 -1.32332 -1.42133 0
M  V30 423 C 40.1347 -2.65386 -2.24026 0
M  V30 424 C 39.0887 -3.78623 -1.99571 0
M  V30 425 C 38.4147 -4.17414 -3.3417 0
M  V30 426 C 39.7147 -5.04867 -1.33814 0
M  V30 427 H 41.4087 -2.9528 -0.494991 0
M  V30 428 H 38.9547 -1.42042 -0.236651 0
M  V30 429 H 40.9077 -3.02794 -2.93076 0
M  V30 430 H 39.6317 -1.80268 -2.72343 0
M  V30 431 H 38.2907 -3.41646 -1.32941 0
M  V30 432 H 37.9387 -3.29284 -3.80238 0
M  V30 433 H 37.6387 -4.93719 -3.18615 0
M  V30 434 H 39.1627 -4.57402 -4.04495 0
M  V30 435 H 40.5767 -5.39888 -1.92857 0
M  V30 436 H 38.9737 -5.86144 -1.28669 0
M  V30 437 H 40.0437 -4.83904 -0.310561 0
M  V30 438 N 41.3868 0.248026 -1.55636 0
M  V30 439 C 42.3498 1.29044 -1.89421 0
M  V30 440 C 43.3498 1.41134 -0.770581 0
M  V30 441 O 44.5398 1.39854 -1.03858 0
M  V30 442 C 41.6718 2.66831 -2.12165 0
M  V30 443 H 42.8648 1.00305 -2.82629 0
M  V30 444 H 40.4178 0.487265 -1.48511 0
M  V30 445 H 41.1528 3.00711 -1.21422 0
M  V30 446 H 40.9378 2.59438 -2.93997 0
M  V30 447 H 42.4278 3.42103 -2.3949 0
M  V30 448 N 42.8649 1.48995 0.513639 0
M  V30 449 C 44.0899 1.61792 1.29762 0
M  V30 450 C 44.5149 0.284475 1.85936 0
M  V30 451 O 43.8729 -0.746185 1.65232 0
M  V30 452 C 43.9209 2.67993 2.41272 0
M  V30 453 O 43.0249 2.26287 3.44772 0
M  V30 454 H 42.3659 0.541963 0.38363 0
M  V30 455 H 44.8959 1.95097 0.616307 0
M  V30 456 H 44.9059 2.89772 2.87221 0
M  V30 457 H 43.5809 3.64791 1.9975 0
M  V30 458 H 42.1579 2.14788 3.04829 0
M  V30 459 N 44.343 -0.763751 1.37857 0
M  V30 460 C 45.306 -1.85889 1.34081 0
M  V30 461 C 46.306 -1.58949 0.243277 0
M  V30 462 O 47.496 -1.66882 0.499589 0
M  V30 463 C 44.628 -3.23176 1.08489 0
M  V30 464 H 45.821 -1.90648 2.31502 0
M  V30 465 H 43.374 -0.964367 1.23003 0
M  V30 466 H 44.109 -3.24091 0.116318 0
M  V30 467 H 43.894 -3.44124 1.8794 0
M  V30 468 H 45.384 -4.03254 1.08517 0
M  V30 469 N 45.8211 -1.22559 -0.990812 0
M  V30 470 C 47.0691 -1.04933 -1.72724 0
M  V30 471 C 47.3901 0.416158 -1.90508 0
M  V30 472 O 46.6601 1.29918 -1.46622 0
M  V30 473 H 45.2401 -0.385296 -0.639965 0
M  V30 474 H 47.9021 -1.54105 -1.19322 0
M  V30 475 H 46.9981 -1.52886 -2.72089 0
M  V30 476 N 47.2992 1.18797 -1.03562 0
M  V30 477 C 48.2622 2.20464 -0.626769 0
M  V30 478 C 49.2622 1.57721 0.313173 0
M  V30 479 O 50.4522 1.73917 0.0992615 0
M  V30 480 C 47.5842 3.40802 0.0818498 0
M  V30 481 H 48.7772 2.58149 -1.5264 0
M  V30 482 H 46.3302 1.32593 -0.827578 0
M  V30 483 H 47.0652 3.08642 0.995518 0
M  V30 484 H 46.8502 3.8758 -0.593652 0
M  V30 485 H 48.3402 4.16092 0.354584 0
M  V30 486 N 48.7773 0.814389 1.34928 0
M  V30 487 C 49.7403 0.235759 2.27984 0
M  V30 488 C 50.7403 -0.581412 1.49921 0
M  V30 489 O 51.9303 -0.398758 1.69575 0
M  V30 490 C 49.0623 -0.670433 3.34242 0
M  V30 491 H 50.2553 1.05659 2.80671 0
M  V30 492 H 47.8083 0.585614 1.44915 0
M  V30 493 H 48.5433 -1.51466 2.86755 0
M  V30 494 H 48.3283 -0.0860822 3.92005 0
M  V30 495 H 49.8183 -1.06935 4.03676 0
M  V30 496 N 50.2554 -1.46986 0.568584 0
M  V30 497 C 51.6664 -1.86188 0.138219 0
M  V30 498 C 52.0174 -1.47388 -1.29504 0
M  V30 499 O 51.1424 -0.88219 -1.97602 0
M  V30 500 C 51.7374 -3.3792 0.244065 0
M  V30 501 C 50.2964 -3.76171 -0.131335 0
M  V30 502 C 49.4434 -2.71027 0.586465 0
M  V30 503 H 52.3944 -1.38342 0.777645 0
M  V30 504 H 52.4154 -3.76729 -0.534351 0
M  V30 505 H 51.9274 -3.66128 1.28731 0
M  V30 506 H 50.0284 -3.5358 -1.17526 0
M  V30 507 H 50.1414 -4.78523 0.235146 0
M  V30 508 H 48.5054 -2.54684 0.0282722 0
M  V30 509 H 49.2884 -3.02077 1.63109 0
M  V30 510 N 51.7335 -0.305618 -1.54608 0
M  V30 511 C 52.9735 0.303114 -2.0214 0
M  V30 512 C 53.3375 1.50737 -1.18921 0
M  V30 513 O 54.5385 2.18778 -1.56172 0
M  V30 514 C 52.8095 0.646332 -3.51507 0
M  V30 515 S 54.3685 1.23727 -4.20995 0
M  V30 516 H 51.1865 0.0927643 -0.704923 0
M  V30 517 H 53.7885 -0.434566 -1.90609 0
M  V30 518 H 52.4925 -0.238541 -4.09706 0
M  V30 519 H 52.0235 1.41468 -3.67084 0
M  V30 520 H 54.0385 2.52489 -4.27158 0
M  V30 521 N 53.2116 1.57565 -0.0334293 0
M  V30 522 C 54.6226 1.79746 0.504798 0
M  V30 523 C 54.9736 0.944091 1.71992 0
M  V30 524 O 54.0986 0.155694 2.15839 0
M  V30 525 C 54.6936 3.25997 0.922567 0
M  V30 526 C 53.2526 3.49159 1.40588 0
M  V30 527 C 52.3996 2.74785 0.372633 0
M  V30 528 H 55.3506 1.56565 -0.259436 0
M  V30 529 H 55.3716 3.35945 1.78666 0
M  V30 530 H 54.8836 3.88081 0.0379825 0
M  V30 531 H 52.9846 2.92332 2.31025 0
M  V30 532 H 53.0976 4.57873 1.41028 0
M  V30 533 H 51.4616 2.40391 0.841672 0
M  V30 534 H 52.2446 3.39587 -0.503559 0
M  V30 535 N 54.6897 -0.239769 1.55765 0
M  V30 536 C 55.9667 -0.990056 1.68693 0
M  V30 537 C 56.3467 -2.03107 0.5754 0
M  V30 538 O 55.6947 -2.24604 -0.42017 0
M  V30 539 C 55.9047 -1.61696 3.09282 0
M  V30 540 C 57.2527 -2.11613 3.6811 0
M  V30 541 O 58.2767 -1.71624 3.12127 0
M  V30 542 O 57.1357 -2.85057 4.66267 0
M  V30 543 H 54.2297 -0.461299 0.686391 0
M  V30 544 H 56.7757 -0.232991 1.68093 0
M  V30 545 H 55.5477 -0.864357 3.81634 0
M  V30 546 H 55.1707 -2.44005 3.13923 0
M  V30 547 N 56.1678 -1.49265 -0.50573 0
M  V30 548 C 57.1308 -1.65075 -1.59006 0
M  V30 549 C 58.1308 -0.522768 -1.52065 0
M  V30 550 O 59.3208 -0.789117 -1.55302 0
M  V30 551 C 56.4528 -1.64369 -2.98656 0
M  V30 552 H 57.6458 -2.61784 -1.46319 0
M  V30 553 H 55.1988 -1.38226 -0.729616 0
M  V30 554 H 55.9338 -0.692272 -3.16825 0
M  V30 555 H 55.7188 -2.46282 -3.05103 0
M  V30 556 H 57.2088 -1.78674 -3.77446 0
M  V30 557 N 57.6459 0.756429 -1.3826 0
M  V30 558 C 58.8859 1.52833 -1.35725 0
M  V30 559 C 59.2499 1.91926 0.0534106 0
M  V30 560 O 60.4509 2.68028 0.203613 0
M  V30 561 C 58.7219 2.74919 -2.28373 0
M  V30 562 S 60.2809 3.64817 -2.43832 0
M  V30 563 H 57.0989 0.523043 -0.481608 0
M  V30 564 H 59.7009 0.888212 -1.74158 0
M  V30 565 H 58.4049 2.44304 -3.29763 0
M  V30 566 H 57.9359 3.43878 -1.91079 0
M  V30 567 H 59.9509 4.676 -1.66027 0
M  V30 568 N 59.124 1.23083 0.984299 0
M  V30 569 C 60.364 1.07226 1.74017 0
M  V30 570 C 60.728 -0.384766 1.88105 0
M  V30 571 O 61.929 -0.664411 2.60459 0
M  V30 572 C 60.2 1.77348 3.10294 0
M  V30 573 S 61.759 1.77014 4.01512 0
M  V30 574 H 58.577 0.383819 0.598502 0
M  V30 575 H 61.179 1.56158 1.17622 0
M  V30 576 H 59.883 2.82506 2.97689 0
M  V30 577 H 59.414 1.28682 3.71759 0
M  V30 578 H 61.429 0.825956 4.89277 0
M  V30 579 N 60.6021 -1.18246 1.0419 0
M  V30 580 C 62.0131 -1.69914 0.773698 0
M  V30 581 C 62.3641 -1.83085 -0.705297 0
M  V30 582 O 61.4891 -1.51123 -1.5489 0
M  V30 583 C 62.0841 -3.08619 1.39784 0
M  V30 584 C 60.6431 -3.57494 1.17792 0
M  V30 585 C 59.7901 -2.34013 1.48773 0
M  V30 586 H 62.7411 -1.02904 1.20816 0
M  V30 587 H 62.7621 -3.71958 0.801714 0
M  V30 588 H 62.2741 -2.99001 2.47426 0
M  V30 589 H 60.3751 -3.72406 0.120295 0
M  V30 590 H 60.4881 -4.40852 1.87581 0
M  V30 591 H 58.8521 -2.37986 0.907463 0
M  V30 592 H 59.6351 -2.27013 2.57527 0
M  V30 593 N 62.0802 -0.821533 -1.34494 0
M  V30 594 C 63.0302 -0.214793 -2.26986 0
M  V30 595 C 64.0142 0.620125 -1.4847 0
M  V30 596 O 65.2062 0.474933 -1.70509 0
M  V30 597 C 62.3352 0.623566 -3.37589 0
M  V30 598 C 61.4212 -0.221904 -4.23519 0
M  V30 599 N 61.8122 -1.29223 -4.89014 0
M  V30 600 C 60.1102 -0.00600922 -4.46 0
M  V30 601 C 60.8112 -1.80965 -5.52835 0
M  V30 602 N 59.7872 -1.11376 -5.32068 0
M  V30 603 H 63.5892 -1.03354 -2.75128 0
M  V30 604 H 61.1032 -0.6642 -1.48196 0
M  V30 605 H 63.1002 1.0744 -4.02818 0
M  V30 606 H 61.7602 1.44049 -2.90998 0
M  V30 607 H 62.7712 -1.67502 -4.90065 0
M  V30 608 H 59.4482 0.77886 -4.10171 0
M  V30 609 H 60.8382 -2.70502 -6.15043 0
M  V30 610 N 63.5583 1.46682 -0.576371 0
M  V30 611 C 64.8063 2.02013 -0.0594163 0
M  V30 612 C 65.1273 1.45101 1.30271 0
M  V30 613 O 64.3973 0.633317 1.8538 0
M  V30 614 H 62.9773 0.746759 -0.0189745 0
M  V30 615 H 65.6393 1.79862 -0.750717 0
M  V30 616 H 64.7353 3.12097 0.014345 0
M  V30 617 N 65.0364 0.313813 1.54444 0
M  V30 618 C 66.2614 -0.296681 2.05267 0
M  V30 619 C 66.6864 -1.45757 1.18897 0
M  V30 620 O 66.0444 -1.80239 0.195886 0
M  V30 621 C 66.0924 -0.71831 3.53373 0
M  V30 622 O 65.1964 -1.82175 3.69981 0
M  V30 623 H 64.5374 -0.0554061 0.661684 0
M  V30 624 H 67.0674 0.459387 1.99376 0
M  V30 625 H 67.0774 -1.00364 3.95463 0
M  V30 626 H 65.7524 0.130821 4.15694 0
M  V30 627 H 64.3294 -1.53598 3.39797 0
M  V30 628 N 66.5145 -1.57545 0.0417849 0
M  V30 629 C 67.7395 -1.97035 -0.647455 0
M  V30 630 C 68.1645 -0.918775 -1.64135 0
M  V30 631 O 67.5225 0.119006 -1.80909 0
M  V30 632 C 67.5705 -3.35609 -1.31905 0
M  V30 633 O 66.6745 -3.3287 -2.43457 0
M  V30 634 H 66.0155 -0.64211 -0.169086 0
M  V30 635 H 68.5455 -2.04318 0.107399 0
M  V30 636 H 68.5555 -3.72126 -1.67291 0
M  V30 637 H 67.2305 -4.11685 -0.590586 0
M  V30 638 H 65.8075 -3.08087 -2.10088 0
M  V30 639 N 67.9926 0.231505 -1.5589 0
M  V30 640 C 69.2406 0.955461 -1.78088 0
M  V30 641 C 69.5616 1.85262 -0.608533 0
M  V30 642 O 68.8316 1.92277 0.375035 0
M  V30 643 H 67.4116 0.355787 -0.656829 0
M  V30 644 H 70.0736 0.245751 -1.93344 0
M  V30 645 H 69.1696 1.56814 -2.69844 0
M  V30 646 N 69.4707 1.49531 0.497807 0
M  V30 647 C 70.4007 1.6935 1.60757 0
M  V30 648 C 71.3817 0.542218 1.61227 0
M  V30 649 O 72.5667 0.778417 1.77917 0
M  V30 650 C 69.6967 1.76298 2.99226 0
M  V30 651 C 68.6507 2.91248 3.13622 0
M  V30 652 C 67.9767 2.83312 4.53474 0
M  V30 653 C 69.2767 4.3214 2.93346 0
M  V30 654 H 70.9707 2.62263 1.44425 0
M  V30 655 H 68.5167 1.26208 0.693367 0
M  V30 656 H 70.4697 1.88749 3.76765 0
M  V30 657 H 69.1937 0.799871 3.16654 0
M  V30 658 H 67.8527 2.78404 2.38509 0
M  V30 659 H 67.5007 1.84902 4.67782 0
M  V30 660 H 67.2007 3.60465 4.64046 0
M  V30 661 H 68.7247 2.97775 5.33069 0
M  V30 662 H 70.1387 4.45649 3.60652 0
M  V30 663 H 68.5357 5.1054 3.15387 0
M  V30 664 H 69.6057 4.46363 1.89441 0
M  V30 665 N 70.9488 -0.749086 1.3866 0
M  V30 666 C 72.3648 -1.05276 1.19955 0
M  V30 667 C 72.5648 -2.01435 0.05134 0
M  V30 668 O 71.6208 -2.45232 -0.60147 0
M  V30 669 C 72.9338 -1.62853 2.52783 0
M  V30 670 C 74.4818 -1.75002 2.59506 0
M  V30 671 C 74.9568 -2.35991 3.92521 0
M  V30 672 N 76.4478 -2.43416 3.94085 0
M  V30 673 C 77.1828 -2.91511 4.9377 0
M  V30 674 N 76.6788 -3.39608 6.03853 0
M  V30 675 N 78.4718 -2.90592 4.81157 0
M  V30 676 H 70.6228 -0.111066 2.12109 0
M  V30 677 H 72.8858 -0.111901 0.941373 0
M  V30 678 H 72.5918 -0.99664 3.37283 0
M  V30 679 H 72.4658 -2.61854 2.715 0
M  V30 680 H 74.8528 -2.37317 1.75398 0
M  V30 681 H 74.9338 -0.74693 2.44652 0
M  V30 682 H 74.5778 -1.74308 4.77053 0
M  V30 683 H 74.5078 -3.3695 4.04688 0
M  V30 684 H 76.9988 -2.09405 3.14576 0
M  V30 685 H 77.3118 -3.74775 6.75843 0
M  V30 686 H 75.6568 -3.37653 6.07466 0
M  V30 687 H 78.8478 -2.52332 3.94267 0
M  V30 688 H 79.0208 -3.27762 5.58996 0
M  V30 689 N 72.4269 -1.23603 -0.977757 0
M  V30 690 C 73.6669 -1.08148 -1.73446 0
M  V30 691 C 74.0309 0.374785 -1.88307 0
M  V30 692 O 75.2319 0.650588 -2.60808 0
M  V30 693 C 73.5029 -1.78991 -3.0935 0
M  V30 694 S 75.0619 -1.79141 -4.00567 0
M  V30 695 H 71.8799 -0.386987 -0.596458 0
M  V30 696 H 74.4819 -1.5678 -1.16792 0
M  V30 697 H 73.1859 -2.8408 -2.96187 0
M  V30 698 H 72.7169 -1.30651 -3.71071 0
M  V30 699 H 74.7319 -0.851892 -4.88833 0
M  V30 700 N 73.905 1.17692 -1.04816 0
M  V30 701 C 75.133 1.91786 -0.776254 0
M  V30 702 C 75.548 1.76604 0.667577 0
M  V30 703 O 74.905 1.10067 1.45573 0
M  V30 704 C 74.956 3.42967 -1.14263 0
M  V30 705 O 74.677 3.57678 -2.52978 0
M  V30 706 C 76.178 4.34144 -0.896311 0
M  V30 707 H 73.398 0.608624 -0.282519 0
M  V30 708 H 75.942 1.49268 -1.39783 0
M  V30 709 H 74.097 3.83245 -0.565874 0
M  V30 710 H 74.511 4.51319 -2.67229 0
M  V30 711 H 75.985 5.38744 -1.20244 0
M  V30 712 H 76.462 4.38876 0.168636 0
M  V30 713 H 77.068 3.99574 -1.45672 0
M  V30 714 N 75.3831 0.828654 1.34056 0
M  V30 715 C 76.7991 0.515135 1.51058 0
M  V30 716 C 76.9991 -0.959581 1.77184 0
M  V30 717 O 76.0551 -1.74382 1.82612 0
M  V30 718 C 77.3681 1.37963 2.67183 0
M  V30 719 C 78.9161 1.37735 2.81066 0
M  V30 720 C 79.3911 2.22645 4.00241 0
M  V30 721 N 80.8821 2.203 4.07458 0
M  V30 722 C 81.6171 2.82744 4.98842 0
M  V30 723 N 81.1131 3.54201 5.9541 0
M  V30 724 N 82.9061 2.72268 4.91759 0
M  V30 725 H 75.0571 1.78343 1.15358 0
M  V30 726 H 77.3201 0.760304 0.566252 0
M  V30 727 H 77.0261 2.42714 2.54525 0
M  V30 728 H 76.9001 1.0484 3.62338 0
M  V30 729 H 79.2871 0.337593 2.93163 0
M  V30 730 H 79.3681 1.74859 1.86703 0
M  V30 731 H 79.0121 3.26674 3.88905 0
M  V30 732 H 78.9421 1.82869 4.93829 0
M  V30 733 H 81.4331 1.68327 3.38341 0
M  V30 734 H 81.7461 3.9908 6.61782 0
M  V30 735 H 80.0911 3.58308 5.95517 0
M  V30 736 H 83.2821 2.16014 4.15278 0
M  V30 737 H 83.4551 3.21219 5.62781 0
M  V30 738 N 76.8612 -1.46375 0.584142 0
M  V30 739 C 78.1382 -1.956 0.0033388 0
M  V30 740 C 78.5182 -1.52679 -1.45782 0
M  V30 741 O 77.8662 -0.77816 -2.14842 0
M  V30 742 C 78.0762 -3.48551 0.176891 0
M  V30 743 C 79.4242 -4.24576 0.0454609 0
M  V30 744 O 80.4482 -3.56043 0.105801 0
M  V30 745 O 79.3072 -5.46427 -0.0890376 0
M  V30 746 H 76.4012 -0.825547 -0.0490066 0
M  V30 747 H 78.9472 -1.56652 0.65256 0
M  V30 748 H 77.7192 -3.72683 1.1926 0
M  V30 749 H 77.3422 -3.94332 -0.508695 0
M  V30 750 N 78.3393 -0.321999 -1.54275 0
M  V30 751 C 79.5873 0.280489 -2.00144 0
M  V30 752 C 79.9083 1.52777 -1.21178 0
M  V30 753 O 79.1783 1.9338 -0.313187 0
M  V30 754 H 77.7583 0.106632 -0.73935 0
M  V30 755 H 80.4203 -0.438184 -1.8991 0
M  V30 756 H 79.5163 0.537972 -3.07428 0
M  V30 757 N 79.8174 1.5752 -0.0501392 0
M  V30 758 C 80.7804 2.1037 0.909786 0
M  V30 759 C 81.7804 1.02308 1.24056 0
M  V30 760 O 82.9704 1.28385 1.17741 0
M  V30 761 C 80.1024 2.58708 2.21998 0
M  V30 762 H 81.2954 2.96479 0.451665 0
M  V30 763 H 78.8484 1.55038 0.198248 0
M  V30 764 H 79.5834 1.75989 2.72394 0
M  V30 765 H 79.3684 3.37675 1.99295 0
M  V30 766 H 80.8584 2.99747 2.9076 0
M  V30 767 N 81.2955 -0.223234 1.56011 0
M  V30 768 C 82.2255 -1.27988 1.95298 0
M  V30 769 C 83.2065 -1.48976 0.820979 0
M  V30 770 O 84.3915 -1.61188 1.08315 0
M  V30 771 C 81.5215 -2.63 2.26822 0
M  V30 772 C 80.4755 -2.56671 3.42497 0
M  V30 773 C 79.8015 -3.95697 3.59622 0
M  V30 774 C 81.1015 -2.11601 4.77517 0
M  V30 775 H 82.7955 -0.953525 2.8381 0
M  V30 776 H 80.3415 -0.457244 1.36548 0
M  V30 777 H 82.2945 -3.37077 2.52898 0
M  V30 778 H 81.0185 -2.9732 1.35161 0
M  V30 779 H 79.6775 -1.85051 3.16467 0
M  V30 780 H 79.3255 -4.27322 2.6534 0
M  V30 781 H 79.0255 -3.92345 4.37424 0
M  V30 782 H 80.5495 -4.71438 3.88044 0
M  V30 783 H 81.9635 -2.7542 5.02809 0
M  V30 784 H 80.3605 -2.19311 5.5859 0
M  V30 785 H 81.4305 -1.06824 4.72987 0
M  V30 786 N 82.7736 -1.49793 -0.48987 0
M  V30 787 C 84.0506 -1.50348 -1.25119 0
M  V30 788 C 84.4306 -0.237466 -2.0976 0
M  V30 789 O 83.7786 0.77981 -2.14782 0
M  V30 790 C 83.9886 -2.78872 -2.09837 0
M  V30 791 C 85.3366 -3.288 -2.68655 0
M  V30 792 O 86.3606 -2.80065 -2.20096 0
M  V30 793 O 85.2196 -4.13707 -3.57083 0
M  V30 794 H 82.3136 -0.602242 -0.566775 0
M  V30 795 H 84.8596 -1.62067 -0.503229 0
M  V30 796 H 83.6316 -3.62499 -1.47343 0
M  V30 797 H 83.2546 -2.70066 -2.91805 0
M  V30 798 N 84.2517 0.741722 -1.39055 0
M  V30 799 C 85.4767 1.53607 -1.39354 0
M  V30 800 C 85.9017 1.88096 0.0116905 0
M  V30 801 O 85.2597 1.5143 0.996924 0
M  V30 802 C 85.3077 2.80441 -2.26682 0
M  V30 803 O 84.4117 3.76088 -1.69208 0
M  V30 804 H 83.7527 0.464142 -0.474835 0
M  V30 805 H 86.2827 0.915665 -1.82967 0
M  V30 806 H 86.2927 3.29246 -2.40959 0
M  V30 807 H 84.9677 2.5467 -3.2881 0
M  V30 808 H 83.5447 3.34833 -1.64138 0
M  V30 809 N 85.7298 1.2412 0.971189 0
M  V30 810 C 86.6598 1.05508 2.08304 0
M  V30 811 C 87.6408 -0.0308864 1.70072 0
M  V30 812 O 88.8258 0.135521 1.93727 0
M  V30 813 C 85.9558 0.655365 3.4106 0
M  V30 814 C 84.9098 1.68971 3.93234 0
M  V30 815 C 84.2358 1.14516 5.22293 0
M  V30 816 C 85.5358 3.08487 4.21465 0
M  V30 817 H 87.2298 1.98507 2.24132 0
M  V30 818 H 84.7758 0.955821 1.07704 0
M  V30 819 H 86.7288 0.51217 4.18276 0
M  V30 820 H 85.4528 -0.31032 3.25122 0
M  V30 821 H 84.1118 1.82106 3.18171 0
M  V30 822 H 83.7598 0.170189 5.02712 0
M  V30 823 H 83.4598 1.83635 5.58168 0
M  V30 824 H 84.9838 1.01401 6.02121 0
M  V30 825 H 86.3978 2.98601 4.89398 0
M  V30 826 H 84.7948 3.74926 4.68562 0
M  V30 827 H 85.8648 3.56787 3.28376 0
M  V30 828 N 87.2079 -1.17134 1.05439 0
M  V30 829 C 88.1579 -2.1919 0.627675 0
M  V30 830 C 89.1419 -1.57328 -0.337147 0
M  V30 831 O 90.3339 -1.76329 -0.153976 0
M  V30 832 C 87.4629 -3.43299 0.00651435 0
M  V30 833 C 86.5489 -4.12255 0.995312 0
M  V30 834 N 86.9399 -4.56997 2.16765 0
M  V30 835 C 85.2379 -4.38316 0.824336 0
M  V30 836 C 85.9389 -5.10239 2.7934 0
M  V30 837 N 84.9149 -5.02595 2.07122 0
M  V30 838 H 88.7169 -2.5149 1.52086 0
M  V30 839 H 86.2309 -1.33491 0.924868 0
M  V30 840 H 88.2279 -4.15693 -0.316965 0
M  V30 841 H 86.8879 -3.1249 -0.882033 0
M  V30 842 H 87.8989 -4.51006 2.54587 0
M  V30 843 H 84.5759 -4.17498 -0.0129526 0
M  V30 844 H 85.9659 -5.54961 3.78772 0
M  V30 845 N 88.686 -0.835752 -1.33615 0
M  V30 846 C 89.636 -0.238856 -2.26745 0
M  V30 847 C 90.62 0.604343 -1.49119 0
M  V30 848 O 91.812 0.456822 -1.71003 0
M  V30 849 C 88.941 0.587725 -3.38232 0
M  V30 850 C 88.027 -0.266811 -4.2326 0
M  V30 851 N 88.418 -1.34403 -4.87616 0
M  V30 852 C 86.716 -0.0533131 -4.45968 0
M  V30 853 C 87.417 -1.86819 -5.50884 0
M  V30 854 N 86.393 -1.17013 -5.30857 0
M  V30 855 H 90.195 -1.06266 -2.74016 0
M  V30 856 H 87.709 -0.679881 -1.47483 0
M  V30 857 H 89.706 1.03161 -4.03935 0
M  V30 858 H 88.366 1.40954 -2.9251 0
M  V30 859 H 89.377 -1.7269 -4.88261 0
M  V30 860 H 86.054 0.735312 -4.10974 0
M  V30 861 H 87.444 -2.7701 -6.1214 0
M  V30 862 N 90.1641 1.46063 -0.591896 0
M  V30 863 C 91.0941 2.33172 0.123673 0
M  V30 864 C 92.0751 1.45897 0.87453 0
M  V30 865 O 93.2601 1.74698 0.848181 0
M  V30 866 C 90.3901 3.28336 1.13194 0
M  V30 867 C 89.3441 4.25124 0.495324 0
M  V30 868 C 88.6701 5.09863 1.61071 0
M  V30 869 C 89.9701 5.19143 -0.573425 0
M  V30 870 H 91.6641 2.93252 -0.603646 0
M  V30 871 H 89.2101 1.41014 -0.291741 0
M  V30 872 H 91.1631 3.88137 1.64097 0
M  V30 873 H 89.8871 2.66383 1.88965 0
M  V30 874 H 88.5461 3.66599 0.00729452 0
M  V30 875 H 88.1941 4.44288 2.35832 0
M  V30 876 H 87.8941 5.75417 1.19035 0
M  V30 877 H 89.4181 5.72529 2.12233 0
M  V30 878 H 90.8321 5.73106 -0.1491 0
M  V30 879 H 89.2291 5.93089 -0.914636 0
M  V30 880 H 90.2991 4.62519 -1.45617 0
M  V30 881 N 91.6422 0.330177 1.54103 0
M  V30 882 C 93.0532 -0.15652 1.86043 0
M  V30 883 C 93.4042 -1.51086 1.2517 0
M  V30 884 O 92.5292 -2.09023 0.560217 0
M  V30 885 C 93.1242 -0.290784 3.3755 0
M  V30 886 C 91.6832 -0.721705 3.69416 0
M  V30 887 C 90.8302 0.152622 2.7688 0
M  V30 888 H 93.7812 0.550237 1.48856 0
M  V30 889 H 93.8022 -1.12058 3.63625 0
M  V30 890 H 93.3142 0.695068 3.81825 0
M  V30 891 H 91.4152 -1.71706 3.30678 0
M  V30 892 H 91.5282 -0.520869 4.7626 0
M  V30 893 H 89.8922 -0.372894 2.51956 0
M  V30 894 H 90.6752 1.13536 3.23982 0
M  V30 895 N 93.1203 -1.57491 0.0584922 0
M  V30 896 C 94.3683 -1.92597 -0.612436 0
M  V30 897 C 94.6893 -0.938162 -1.70949 0
M  V30 898 O 93.9593 0.0158301 -1.95894 0
M  V30 899 H 92.5393 -0.710964 -0.229214 0
M  V30 900 H 95.2013 -1.94571 0.113218 0
M  V30 901 H 94.2973 -2.94038 -1.04633 0
M  V30 902 N 94.5984 0.214957 -1.56127 0
M  V30 903 C 95.5614 1.24997 -1.92116 0
M  V30 904 C 96.5614 1.39467 -0.800344 0
M  V30 905 O 97.7514 1.37619 -1.06802 0
M  V30 906 C 94.8834 2.62271 -2.17777 0
M  V30 907 H 96.0764 0.942875 -2.84693 0
M  V30 908 H 93.6294 0.455654 -1.49511 0
M  V30 909 H 94.3644 2.98068 -1.27773 0
M  V30 910 H 94.1494 2.53143 -2.99434 0
M  V30 911 H 95.6394 3.36946 -2.46693 0
M  V30 912 N 96.0765 1.50051 0.48192 0
M  V30 913 C 96.9865 1.7089 1.60728 0
M  V30 914 C 98.0025 0.591788 1.63627 0
M  V30 915 O 99.1785 0.868817 1.81696 0
M  V30 916 C 96.2435 1.78855 2.97005 0
M  V30 917 C 95.3045 3.02537 3.04581 0
M  V30 918 C 94.5375 3.10112 4.34357 0
M  V30 919 O 94.7605 2.24765 5.24249 0
M  V30 920 O 93.6945 4.02747 4.47301 0
M  V30 921 H 97.5205 2.66264 1.46072 0
M  V30 922 H 95.1055 1.34018 0.660264 0
M  V30 923 H 96.9875 1.86336 3.77964 0
M  V30 924 H 95.6625 0.866628 3.11883 0
M  V30 925 H 94.5695 3.00563 2.22739 0
M  V30 926 H 95.9025 3.94272 2.94636 0
M  V30 927 N 97.5546 -0.734337 1.39446 0
M  V30 928 C 98.5026 -1.86971 1.38364 0
M  V30 929 C 99.4966 -1.67288 0.266687 0
M  V30 930 O 100.703 -1.74621 0.436755 0
M  V30 931 H 97.0776 -0.615474 0.432082 0
M  V30 932 H 99.0486 -1.85 2.34132 0
M  V30 933 C 97.7976 -3.2466 1.24465 0
M  V30 934 H 97.1206 -3.40402 2.09682 0
M  V30 935 H 98.5606 -4.04292 1.27764 0
M  V30 936 C 97.0196 -3.36867 -0.0468674 0
M  V30 937 O 97.5496 -3.88618 -1.01681 0
M  V30 938 N 95.7556 -2.90391 -0.110145 0
M  V30 939 H 95.3026 -2.48466 0.679868 0
M  V30 940 H 95.2606 -2.98939 -0.973799 0
M  V30 941 N 99.0327 -1.24633 -0.964593 0
M  V30 942 C 99.9627 -1.06611 -2.07741 0
M  V30 943 C 100.944 0.0218666 -1.70086 0
M  V30 944 O 102.129 -0.145793 -1.93652 0
M  V30 945 C 99.2587 -0.673444 -3.40708 0
M  V30 946 C 98.2127 -1.71054 -3.92332 0
M  V30 947 C 97.5387 -1.17285 -5.21678 0
M  V30 948 C 98.8387 -3.10718 -4.19824 0
M  V30 949 H 100.533 -1.99693 -2.23076 0
M  V30 950 H 98.0787 -0.96152 -1.07195 0
M  V30 951 H 100.032 -0.534345 -4.17998 0
M  V30 952 H 98.7557 0.293073 -3.25282 0
M  V30 953 H 97.4147 -1.83791 -3.17201 0
M  V30 954 H 97.0627 -0.196847 -5.02615 0
M  V30 955 H 96.7627 -1.86592 -5.57187 0
M  V30 956 H 98.2867 -1.04593 -6.01575 0
M  V30 957 H 99.7007 -3.01192 -4.87808 0
M  V30 958 H 98.0977 -3.77406 -4.66567 0
M  V30 959 H 99.1677 -3.58524 -3.26479 0
M  V30 960 N 100.511 1.16574 -1.06058 0
M  V30 961 C 101.739 1.90952 -0.796552 0
M  V30 962 C 102.154 1.77302 0.648808 0
M  V30 963 O 101.511 1.11605 1.44397 0
M  V30 964 C 101.562 3.41736 -1.17894 0
M  V30 965 O 101.283 3.54975 -2.56758 0
M  V30 966 C 102.784 4.33169 -0.942308 0
M  V30 967 H 100.004 0.605594 -0.288959 0
M  V30 968 H 102.548 1.47777 -1.41358 0
M  V30 969 H 100.703 3.82623 -0.606491 0
M  V30 970 H 101.117 4.4846 -2.72 0
M  V30 971 H 102.591 5.37439 -1.25952 0
M  V30 972 H 103.068 4.3903 0.122078 0
M  V30 973 H 103.674 3.98007 -1.49902 0
M  V30 974 N 101.989 0.842826 1.3317 0
M  V30 975 C 102.899 0.281444 2.32906 0
M  V30 976 C 103.915 -0.594587 1.63526 0
M  V30 977 O 105.091 -0.49777 1.95152 0
M  V30 978 C 102.156 -0.530929 3.42611 0
M  V30 979 C 101.217 0.369843 4.27704 0
M  V30 980 C 100.45 -0.403853 5.3217 0
M  V30 981 O 100.673 -1.63513 5.46461 0
M  V30 982 O 99.6069 0.224199 6.01482 0
M  V30 983 H 103.433 1.10744 2.82789 0
M  V30 984 H 101.018 0.60545 1.36582 0
M  V30 985 H 102.9 -0.992437 4.09547 0
M  V30 986 H 101.575 -1.33392 2.94938 0
M  V30 987 H 100.482 0.879275 3.6362 0
M  V30 988 H 101.815 1.13771 4.78871 0
M  V30 989 N 103.467 -1.45747 0.599634 0
M  V30 990 C 104.397 -2.33235 -0.111306 0
M  V30 991 C 105.378 -1.46359 -0.866781 0
M  V30 992 O 106.563 -1.75146 -0.838904 0
M  V30 993 C 103.693 -3.28932 -1.11451 0
M  V30 994 C 102.647 -4.25381 -0.472772 0
M  V30 995 C 101.973 -5.1071 -1.58365 0
M  V30 996 C 103.273 -5.18831 0.600948 0
M  V30 997 H 104.967 -2.92927 0.61919 0
M  V30 998 H 102.513 -1.40857 0.299215 0
M  V30 999 H 104.466 -3.89002 -1.62036 0
M  V30 1000 H 103.19 -2.67381 -1.8755 0
M  V30 1001 H 101.849 -3.66598 0.0121472 0
M  V30 1002 H 101.497 -4.45533 -2.33473 0
M  V30 1003 H 101.197 -5.7604 -1.15982 0
M  V30 1004 H 102.721 -5.73647 -2.09194 0
M  V30 1005 H 104.135 -5.73019 0.179491 0
M  V30 1006 H 102.532 -5.92595 0.946076 0
M  V30 1007 H 103.602 -4.6174 1.48068 0
M  V30 1008 N 104.945 -0.338344 -1.53925 0
M  V30 1009 C 106.175 0.260919 -2.04946 0
M  V30 1010 C 106.583 1.45174 -1.2133 0
M  V30 1011 O 105.926 1.82122 -0.240262 0
M  V30 1012 C 105.988 0.744596 -3.51704 0
M  V30 1013 C 105.652 -0.325883 -4.55837 0
M  V30 1014 C 106.649 -1.16687 -5.06636 0
M  V30 1015 C 104.334 -0.478317 -5.00017 0
M  V30 1016 C 106.328 -2.14588 -6.00192 0
M  V30 1017 C 104.015 -1.46073 -5.93385 0
M  V30 1018 C 105.013 -2.29297 -6.4336 0
M  V30 1019 O 104.701 -3.25867 -7.34892 0
M  V30 1020 H 104.433 0.0551207 -0.673749 0
M  V30 1021 H 106.987 -0.486984 -1.99544 0
M  V30 1022 H 105.217 1.54366 -3.54553 0
M  V30 1023 H 106.906 1.26383 -3.85723 0
M  V30 1024 H 107.672 -1.06016 -4.73271 0
M  V30 1025 H 103.551 0.159613 -4.60724 0
M  V30 1026 H 107.095 -2.79585 -6.39123 0
M  V30 1027 H 102.992 -1.56802 -6.26166 0
M  V30 1028 H 103.76 -3.21278 -7.5281 0
M  V30 1029 N 106.423 1.57458 -0.0668435 0
M  V30 1030 C 107.672 1.92477 0.602947 0
M  V30 1031 C 107.985 0.948419 1.71068 0
M  V30 1032 O 109.191 1.19124 2.43971 0
M  V30 1033 C 107.647 3.41903 1.12383 0
M  V30 1034 C 107.255 4.47975 0.04737 0
M  V30 1035 C 108.999 3.85931 1.76797 0
M  V30 1036 C 106.906 5.88529 0.582022 0
M  V30 1037 H 105.836 0.718387 0.22899 0
M  V30 1038 H 108.487 1.82978 -0.138276 0
M  V30 1039 H 106.869 3.46459 1.91787 0
M  V30 1040 H 108.043 4.55029 -0.726978 0
M  V30 1041 H 106.358 4.13384 -0.500243 0
M  V30 1042 H 108.955 4.88322 2.17821 0
M  V30 1043 H 109.298 3.23029 2.62599 0
M  V30 1044 H 109.831 3.83958 1.04024 0
M  V30 1045 H 106.57 6.55065 -0.238721 0
M  V30 1046 H 106.09 5.85004 1.324 0
M  V30 1047 H 107.769 6.38258 1.05999 0
M  V30 1048 N 107.901 -0.206675 1.56239 0
M  V30 1049 C 108.811 -1.27686 1.96808 0
M  V30 1050 C 109.827 -1.50455 0.874035 0
M  V30 1051 O 111.003 -1.63295 1.17884 0
M  V30 1052 C 108.068 -2.60358 2.28942 0
M  V30 1053 C 107.129 -2.45762 3.51994 0
M  V30 1054 C 106.362 -3.72108 3.82585 0
M  V30 1055 O 106.585 -4.75776 3.14631 0
M  V30 1056 O 105.519 -3.6833 4.76043 0
M  V30 1057 H 109.345 -0.962593 2.88041 0
M  V30 1058 H 106.93 -0.410746 1.43643 0
M  V30 1059 H 108.812 -3.38687 2.50737 0
M  V30 1060 H 107.487 -2.91435 1.4088 0
M  V30 1061 H 106.394 -1.65584 3.35459 0
M  V30 1062 H 107.727 -2.19621 4.40486 0
M  V30 1063 N 109.379 -1.50304 -0.473955 0
M  V30 1064 C 110.327 -1.69482 -1.59307 0
M  V30 1065 C 111.321 -0.560669 -1.59853 0
M  V30 1066 O 112.527 -0.741087 -1.64036 0
M  V30 1067 H 108.902 -0.534892 -0.528578 0
M  V30 1068 H 110.873 -2.63364 -1.40293 0
M  V30 1069 C 109.622 -1.80354 -2.97267 0
M  V30 1070 H 108.945 -2.67012 -2.97564 0
M  V30 1071 H 110.385 -1.97798 -3.75036 0
M  V30 1072 C 108.844 -0.55448 -3.32306 0
M  V30 1073 O 109.374 0.307661 -4.0052 0
M  V30 1074 N 107.58 -0.409354 -2.87702 0
M  V30 1075 H 107.127 -1.11196 -2.32364 0
M  V30 1076 H 107.085 0.425223 -3.11511 0
M  V30 1077 N 110.857 0.726932 -1.39834 0
M  V30 1078 C 111.789 1.85147 -1.35104 0
M  V30 1079 C 112.802 1.60736 -0.258392 0
M  V30 1080 O 113.991 1.70821 -0.517931 0
M  V30 1081 C 111.091 3.21332 -1.07697 0
M  V30 1082 C 110.264 3.73033 -2.28396 0
M  V30 1083 C 109.323 4.87802 -1.97322 0
M  V30 1084 O 108.349 5.01043 -2.70083 0
M  V30 1085 N 109.551 5.72768 -0.944273 0
M  V30 1086 H 112.316 1.89706 -2.32017 0
M  V30 1087 H 109.877 0.908006 -1.3404 0
M  V30 1088 H 111.869 3.95691 -0.849144 0
M  V30 1089 H 110.439 3.11992 -0.194909 0
M  V30 1090 H 109.659 2.89934 -2.6708 0
M  V30 1091 H 110.947 4.0431 -3.08887 0
M  V30 1092 H 110.345 5.64669 -0.341427 0
M  V30 1093 H 108.902 6.4716 -0.776346 0
M  V30 1094 N 112.336 1.25143 0.95797 0
M  V30 1095 C 113.268 1.01023 2.05735 0
M  V30 1096 C 114.281 -0.0236902 1.62783 0
M  V30 1097 O 115.47 0.21448 1.77207 0
M  V30 1098 C 112.57 0.504595 3.35122 0
M  V30 1099 C 111.743 1.6039 4.06932 0
M  V30 1100 C 110.802 1.09922 5.14591 0
M  V30 1101 O 109.828 1.79293 5.40225 0
M  V30 1102 N 111.03 -0.0612545 5.80468 0
M  V30 1103 H 113.795 1.95683 2.26998 0
M  V30 1104 H 111.356 1.16303 1.12629 0
M  V30 1105 H 113.348 0.151516 4.04416 0
M  V30 1106 H 111.918 -0.347989 3.10657 0
M  V30 1107 H 111.138 2.12872 3.31782 0
M  V30 1108 H 112.426 2.34252 4.51667 0
M  V30 1109 H 111.824 -0.640985 5.62057 0
M  V30 1110 H 110.381 -0.355395 6.5083 0
M  V30 1111 N 113.814 -1.1601 1.06675 0
M  V30 1112 C 114.764 -2.18512 0.650888 0
M  V30 1113 C 115.748 -1.57677 -0.320441 0
M  V30 1114 O 116.94 -1.76482 -0.135266 0
M  V30 1115 C 114.069 -3.43273 0.0429255 0
M  V30 1116 C 113.155 -4.11176 1.03898 0
M  V30 1117 N 113.546 -4.54672 2.216 0
M  V30 1118 C 111.844 -4.37417 0.870779 0
M  V30 1119 C 112.545 -5.07248 2.84736 0
M  V30 1120 N 111.521 -5.0037 2.12441 0
M  V30 1121 H 115.323 -2.49863 1.54745 0
M  V30 1122 H 112.837 -1.32503 0.938975 0
M  V30 1123 H 114.834 -4.16006 -0.272857 0
M  V30 1124 H 113.494 -3.13408 -0.84884 0
M  V30 1125 H 114.505 -4.4828 2.59356 0
M  V30 1126 H 111.182 -4.17488 0.0313293 0
M  V30 1127 H 112.572 -5.50912 3.84636 0
M  V30 1128 N 115.292 -0.849877 -1.32721 0
M  V30 1129 C 116.222 -0.306308 -2.31482 0
M  V30 1130 C 117.203 0.591952 -1.59468 0
M  V30 1131 O 118.388 0.513199 -1.87296 0
M  V30 1132 C 115.518 0.510204 -3.43532 0
M  V30 1133 C 114.472 -0.293209 -4.26994 0
M  V30 1134 C 113.798 0.647743 -5.30762 0
M  V30 1135 C 115.098 -1.51634 -4.99804 0
M  V30 1136 H 116.792 -1.13153 -2.77195 0
M  V30 1137 H 114.338 -0.545553 -1.33266 0
M  V30 1138 H 116.291 0.900856 -4.11658 0
M  V30 1139 H 115.015 1.36874 -2.96535 0
M  V30 1140 H 113.674 -0.665555 -3.60508 0
M  V30 1141 H 113.322 1.50299 -4.8002 0
M  V30 1142 H 113.022 0.11422 -5.87489 0
M  V30 1143 H 114.546 1.03567 -6.01753 0
M  V30 1144 H 115.96 -1.19824 -5.60638 0
M  V30 1145 H 114.357 -1.98745 -5.66234 0
M  V30 1146 H 115.427 -2.28018 -4.27943 0
M  V30 1147 N 116.77 1.45427 -0.607355 0
M  V30 1148 C 117.702 2.2871 0.149752 0
M  V30 1149 C 118.715 1.39937 0.831958 0
M  V30 1150 O 119.904 1.64313 0.697385 0
M  V30 1151 C 117.004 3.15673 1.23304 0
M  V30 1152 C 116.177 4.32722 0.637996 0
M  V30 1153 C 115.236 5.00895 1.61215 0
M  V30 1154 O 114.262 5.57697 1.13854 0
M  V30 1155 N 115.464 5.00159 2.94655 0
M  V30 1156 H 118.229 2.94328 -0.564882 0
M  V30 1157 H 115.79 1.55612 -0.446823 0
M  V30 1158 H 117.782 3.58144 1.88454 0
M  V30 1159 H 116.352 2.51965 1.8502 0
M  V30 1160 H 115.572 3.93734 -0.191572 0
M  V30 1161 H 116.86 5.08321 0.220665 0
M  V30 1162 H 116.258 4.553 3.35735 0
M  V30 1163 H 114.815 5.46495 3.55228 0
M  V30 1164 N 118.248 0.346503 1.53744 0
M  V30 1165 C 119.198 -0.524953 2.21874 0
M  V30 1166 C 120.182 -1.06376 1.20718 0
M  V30 1167 O 121.374 -0.996972 1.46251 0
M  V30 1168 C 118.503 -1.6739 2.99726 0
M  V30 1169 C 117.589 -1.14888 4.08242 0
M  V30 1170 N 117.98 -0.345329 5.0462 0
M  V30 1171 C 116.278 -1.4255 4.22606 0
M  V30 1172 C 116.979 -0.0600706 5.81669 0
M  V30 1173 N 115.955 -0.65252 5.39669 0
M  V30 1174 H 119.757 0.0960091 2.93743 0
M  V30 1175 H 117.271 0.15352 1.61673 0
M  V30 1176 H 119.268 -2.3102 3.47038 0
M  V30 1177 H 117.928 -2.29811 2.29384 0
M  V30 1178 H 118.939 0.0138439 5.17898 0
M  V30 1179 H 115.616 -2.05389 3.63486 0
M  V30 1180 H 117.006 0.588321 6.69319 0
M  V30 1181 N 119.726 -1.57421 0.075193 0
M  V30 1182 C 120.656 -2.15942 -0.888324 0
M  V30 1183 C 121.637 -1.08737 -1.30806 0
M  V30 1184 O 122.822 -1.36787 -1.37851 0
M  V30 1185 C 119.952 -2.72379 -2.1547 0
M  V30 1186 C 118.906 -3.8478 -1.87425 0
M  V30 1187 C 118.232 -4.27834 -3.20721 0
M  V30 1188 C 119.532 -5.08869 -1.17684 0
M  V30 1189 H 121.226 -2.96705 -0.400799 0
M  V30 1190 H 118.772 -1.42723 -0.191342 0
M  V30 1191 H 120.725 -3.11965 -2.83295 0
M  V30 1192 H 119.449 -1.88841 -2.6647 0
M  V30 1193 H 118.108 -3.45703 -1.22004 0
M  V30 1194 H 117.756 -3.41214 -3.6957 0
M  V30 1195 H 117.456 -5.03605 -3.02746 0
M  V30 1196 H 118.98 -4.70039 -3.89738 0
M  V30 1197 H 120.394 -5.4575 -1.75584 0
M  V30 1198 H 118.791 -5.8994 -1.09956 0
M  V30 1199 H 119.861 -4.84648 -0.156453 0
M  V30 1200 N 121.204 0.198386 -1.56346 0
M  V30 1201 C 122.114 1.2664 -1.97483 0
M  V30 1202 C 123.13 1.49989 -0.882002 0
M  V30 1203 O 124.306 1.62668 -1.18748 0
M  V30 1204 C 121.371 2.59141 -2.30319 0
M  V30 1205 C 120.432 2.43892 -3.53292 0
M  V30 1206 C 119.665 3.70074 -3.84553 0
M  V30 1207 O 119.888 4.74101 -3.1715 0
M  V30 1208 O 118.822 3.658 -4.7799 0
M  V30 1209 H 122.648 0.947304 -2.88548 0
M  V30 1210 H 120.233 0.403123 -1.43859 0
M  V30 1211 H 122.115 3.37352 -2.5253 0
M  V30 1212 H 120.79 2.90684 -1.42423 0
M  V30 1213 H 119.697 1.63803 -3.36332 0
M  V30 1214 H 121.03 2.17282 -4.41644 0
M  V30 1215 N 122.682 1.50554 0.465978 0
M  V30 1216 C 123.612 1.72722 1.57128 0
M  V30 1217 C 124.593 0.576294 1.6004 0
M  V30 1218 O 125.778 0.81598 1.76225 0
M  V30 1219 C 122.908 1.82605 2.95419 0
M  V30 1220 C 121.862 2.97835 3.07373 0
M  V30 1221 C 121.188 2.92867 4.47363 0
M  V30 1222 C 122.488 4.38265 2.84114 0
M  V30 1223 H 124.182 2.65267 1.38829 0
M  V30 1224 H 121.728 1.2765 0.666441 0
M  V30 1225 H 123.681 1.96698 3.72677 0
M  V30 1226 H 122.405 0.866858 3.14886 0
M  V30 1227 H 121.064 2.83401 2.3255 0
M  V30 1228 H 120.712 1.94783 4.63755 0
M  V30 1229 H 120.412 3.70227 4.56296 0
M  V30 1230 H 121.936 3.09015 5.26633 0
M  V30 1231 H 123.35 4.53198 3.51118 0
M  V30 1232 H 121.747 5.17115 3.04487 0
M  V30 1233 H 122.817 4.50281 1.7993 0
M  V30 1234 N 124.16 -0.719506 1.40217 0
M  V30 1235 C 125.576 -1.02707 1.22161 0
M  V30 1236 C 125.776 -2.0128 0.0940557 0
M  V30 1237 O 124.832 -2.46452 -0.549318 0
M  V30 1238 C 126.145 -1.57454 2.56181 0
M  V30 1239 C 127.693 -1.69458 2.63159 0
M  V30 1240 C 128.168 -2.27611 3.97438 0
M  V30 1241 N 129.659 -2.35002 3.99159 0
M  V30 1242 C 130.394 -2.80972 4.99842 0
M  V30 1243 N 129.89 -3.26723 6.10921 0
M  V30 1244 N 131.683 -2.80321 4.87213 0
M  V30 1245 H 123.834 -0.0660492 2.12297 0
M  V30 1246 H 126.097 -0.0919077 0.943534 0
M  V30 1247 H 125.803 -0.924873 3.39321 0
M  V30 1248 H 125.677 -2.56036 2.76993 0
M  V30 1249 H 128.064 -2.33543 1.80393 0
M  V30 1250 H 128.145 -0.694867 2.46181 0
M  V30 1251 H 127.789 -1.6415 4.80643 0
M  V30 1252 H 127.719 -3.2829 4.11744 0
M  V30 1253 H 130.21 -2.02685 3.18947 0
M  V30 1254 H 130.523 -3.60355 6.8364 0
M  V30 1255 H 128.868 -3.24692 6.14492 0
M  V30 1256 H 132.059 -2.43912 3.9953 0
M  V30 1257 H 132.232 -3.15831 5.65822 0
M  V30 1258 N 125.638 -1.25649 -0.95132 0
M  V30 1259 C 126.915 -1.01361 -1.67288 0
M  V30 1260 C 127.295 0.459135 -2.06046 0
M  V30 1261 O 126.643 1.43723 -1.7764 0
M  V30 1262 C 126.853 -1.95256 -2.89268 0
M  V30 1263 C 128.201 -2.23289 -3.61147 0
M  V30 1264 O 129.225 -1.93041 -2.99355 0
M  V30 1265 O 128.084 -2.74741 -4.72419 0
M  V30 1266 H 125.178 -0.38464 -0.732107 0
M  V30 1267 H 127.724 -1.36817 -1.00395 0
M  V30 1268 H 126.496 -2.94685 -2.57442 0
M  V30 1269 H 126.119 -1.60218 -3.6389 0
M  V30 1270 N 127.117 1.15442 -1.07289 0
M  V30 1271 C 128.047 2.22312 -0.714107 0
M  V30 1272 C 129.028 1.67467 0.298155 0
M  V30 1273 O 130.213 1.93445 0.171048 0
M  V30 1274 C 127.343 3.47124 -0.110448 0
M  V30 1275 C 126.297 4.14926 -1.04979 0
M  V30 1276 C 125.623 5.33807 -0.308924 0
M  V30 1277 C 126.923 4.64762 -2.38314 0
M  V30 1278 H 128.617 2.5258 -1.6076 0
M  V30 1279 H 126.163 1.21404 -0.77441 0
M  V30 1280 H 128.116 4.21124 0.152482 0
M  V30 1281 H 126.84 3.16187 0.81812 0
M  V30 1282 H 125.499 3.42866 -1.29764 0
M  V30 1283 H 125.147 4.99126 0.623084 0
M  V30 1284 H 124.847 5.80113 -0.935036 0
M  V30 1285 H 126.371 6.10576 -0.0537771 0
M  V30 1286 H 127.785 5.30292 -2.1786 0
M  V30 1287 H 126.182 5.21728 -2.96514 0
M  V30 1288 H 127.252 3.80434 -3.00663 0
M  V30 1289 N 128.595 0.856903 1.32268 0
M  V30 1290 C 130.011 0.547061 1.49931 0
M  V30 1291 C 130.211 -0.921781 1.7918 0
M  V30 1292 O 129.267 -1.70469 1.8627 0
M  V30 1293 C 130.58 1.43599 2.64196 0
M  V30 1294 C 132.128 1.43665 2.78081 0
M  V30 1295 C 132.603 2.31085 3.95428 0
M  V30 1296 N 134.094 2.28893 4.02694 0
M  V30 1297 C 134.829 2.93262 4.92732 0
M  V30 1298 N 134.325 3.66751 5.87763 0
M  V30 1299 N 136.118 2.82638 4.85873 0
M  V30 1300 H 128.269 1.8075 1.11549 0
M  V30 1301 H 130.532 0.772144 0.549997 0
M  V30 1302 H 130.238 2.48058 2.49319 0
M  V30 1303 H 130.112 1.12502 3.60032 0
M  V30 1304 H 132.499 0.399701 2.92381 0
M  V30 1305 H 132.58 1.7878 1.82952 0
M  V30 1306 H 132.224 3.34849 3.81888 0
M  V30 1307 H 132.154 1.93302 4.89839 0
M  V30 1308 H 134.645 1.75466 3.34694 0
M  V30 1309 H 134.958 4.13027 6.53168 0
M  V30 1310 H 133.303 3.70859 5.87783 0
M  V30 1311 H 136.494 2.24774 4.10602 0
M  V30 1312 H 136.667 3.33084 5.55841 0
M  V30 1313 N 130.073 -1.45103 0.615059 0
M  V30 1314 C 131.321 -2.01784 0.112955 0
M  V30 1315 C 131.642 -1.48504 -1.26378 0
M  V30 1316 O 130.912 -0.682245 -1.83636 0
M  V30 1317 H 129.492 -0.745993 0.0387668 0
M  V30 1318 H 132.154 -1.77808 0.798141 0
M  V30 1319 H 131.25 -3.12025 0.0684069 0
M  V30 1320 N 131.551 -0.354651 -1.53558 0
M  V30 1321 C 132.481 0.489091 -2.2832 0
M  V30 1322 C 133.462 1.09324 -1.30316 0
M  V30 1323 O 134.647 1.11255 -1.59173 0
M  V30 1324 C 131.777 1.63456 -3.0643 0
M  V30 1325 C 130.731 1.1582 -4.12031 0
M  V30 1326 C 130.057 2.39305 -4.7816 0
M  V30 1327 C 131.357 0.250731 -5.21698 0
M  V30 1328 H 133.051 -0.134614 -2.99097 0
M  V30 1329 H 130.597 -0.0661826 -1.43848 0
M  V30 1330 H 132.55 2.23136 -3.57475 0
M  V30 1331 H 131.274 2.28533 -2.33325 0
M  V30 1332 H 129.933 0.584146 -3.61916 0
M  V30 1333 H 129.581 3.02814 -4.01637 0
M  V30 1334 H 129.281 2.08109 -5.49513 0
M  V30 1335 H 130.805 2.99691 -5.31994 0
M  V30 1336 H 132.219 0.754695 -5.68311 0
M  V30 1337 H 130.616 0.0301468 -6.00092 0
M  V30 1338 H 131.686 -0.710125 -4.79672 0
M  V30 1339 N 133.029 1.57378 -0.0835403 0
M  V30 1340 C 134.277 1.93547 0.581718 0
M  V30 1341 C 134.598 0.96524 1.69435 0
M  V30 1342 O 133.868 0.0153369 1.95894 0
M  V30 1343 H 132.448 0.714521 0.217874 0
M  V30 1344 H 135.11 1.94366 -0.144158 0
M  V30 1345 H 134.206 2.95665 0.999423 0
M  V30 1346 N 134.507 -0.190092 1.56449 0
M  V30 1347 C 135.417 -1.25591 1.98152 0
M  V30 1348 C 136.433 -1.49519 0.889944 0
M  V30 1349 O 137.609 -1.62036 1.19609 0
M  V30 1350 C 134.674 -2.57916 2.3169 0
M  V30 1351 C 133.735 -2.42015 3.5458 0
M  V30 1352 C 132.968 -3.6803 3.8651 0
M  V30 1353 O 133.191 -4.72413 3.1966 0
M  V30 1354 O 132.125 -3.6326 4.79923 0
M  V30 1355 H 135.951 -0.931988 2.89046 0
M  V30 1356 H 133.536 -0.395488 1.4407 0
M  V30 1357 H 135.418 -3.36008 2.54316 0
M  V30 1358 H 134.093 -2.89925 1.43963 0
M  V30 1359 H 133 -1.62017 3.37196 0
M  V30 1360 H 134.333 -2.14937 4.4279 0
M  V30 1361 N 135.985 -1.50799 -0.457987 0
M  V30 1362 C 136.915 -1.73553 -1.5621 0
M  V30 1363 C 137.896 -0.584774 -1.59732 0
M  V30 1364 O 139.081 -0.825314 -1.7579 0
M  V30 1365 C 136.211 -1.84169 -2.94447 0
M  V30 1366 C 135.165 -2.99461 -3.0579 0
M  V30 1367 C 134.491 -2.95235 -4.45803 0
M  V30 1368 C 135.791 -4.39766 -2.81786 0
M  V30 1369 H 137.485 -2.66 -1.37421 0
M  V30 1370 H 135.031 -1.28002 -0.659662 0
M  V30 1371 H 136.984 -1.98672 -3.71628 0
M  V30 1372 H 135.708 -0.883545 -3.14422 0
M  V30 1373 H 134.367 -2.8463 -2.31044 0
M  V30 1374 H 134.015 -1.97239 -4.62715 0
M  V30 1375 H 133.715 -3.72642 -4.54326 0
M  V30 1376 H 135.239 -3.11803 -5.24987 0
M  V30 1377 H 136.653 -4.55054 -3.4871 0
M  V30 1378 H 135.05 -5.18722 -3.0174 0
M  V30 1379 H 136.12 -4.51229 -1.7754 0
M  V30 1380 N 137.463 0.71206 -1.40597 0
M  V30 1381 C 138.879 1.02058 -1.22704 0
M  V30 1382 C 139.079 2.01228 -0.104729 0
M  V30 1383 O 138.135 2.4674 0.53624 0
M  V30 1384 C 139.448 1.56094 -2.57012 0
M  V30 1385 C 140.996 1.6806 -2.64054 0
M  V30 1386 C 141.471 2.25501 -3.9864 0
M  V30 1387 N 142.962 2.32882 -4.004 0
M  V30 1388 C 143.697 2.78317 -5.01325 0
M  V30 1389 N 143.193 3.23478 -6.12645 0
M  V30 1390 N 144.986 2.77733 -4.88693 0
M  V30 1391 H 137.137 0.0547896 -2.12329 0
M  V30 1392 H 139.4 0.0869027 -0.944008 0
M  V30 1393 H 139.106 0.906865 -3.39807 0
M  V30 1394 H 138.98 2.54564 -2.78347 0
M  V30 1395 H 141.367 2.32583 -1.81629 0
M  V30 1396 H 141.448 0.681802 -2.46546 0
M  V30 1397 H 141.092 1.61598 -4.81506 0
M  V30 1398 H 141.022 3.26102 -4.13479 0
M  V30 1399 H 143.513 2.00991 -3.20017 0
M  V30 1400 H 143.826 3.56725 -6.85542 0
M  V30 1401 H 142.171 3.21429 -6.16205 0
M  V30 1402 H 145.362 2.4179 -4.00818 0
M  V30 1403 H 145.535 3.12826 -5.67489 0
M  V30 1404 N 138.941 1.26152 0.944643 0
M  V30 1405 C 139.889 1.07215 2.06417 0
M  V30 1406 C 140.883 9.2007e-05 1.694 0
M  V30 1407 O 142.089 0.1565 1.79318 0
M  V30 1408 H 138.464 0.329837 0.675805 0
M  V30 1409 H 140.435 2.02099 2.19541 0
M  V30 1410 C 139.184 0.718197 3.40202 0
M  V30 1411 H 138.507 1.53497 3.69159 0
M  V30 1412 H 139.947 0.625459 4.19361 0
M  V30 1413 C 138.406 -0.576435 3.31932 0
M  V30 1414 O 138.936 -1.61574 3.67773 0
M  V30 1415 N 137.142 -0.565781 2.85039 0
M  V30 1416 H 136.689 0.280367 2.5607 0
M  V30 1417 H 136.647 -1.43213 2.79888 0
M  V30 1418 N 140.419 -1.14872 1.07899 0
M  V30 1419 C 141.349 -2.2193 0.725887 0
M  V30 1420 C 142.33 -1.67622 -0.28927 0
M  V30 1421 O 143.515 -1.93533 -0.160787 0
M  V30 1422 C 140.645 -3.47061 0.128856 0
M  V30 1423 C 139.599 -4.14363 1.07178 0
M  V30 1424 C 138.925 -5.33636 0.337229 0
M  V30 1425 C 140.225 -4.63492 2.40775 0
M  V30 1426 H 141.919 -2.51724 1.62097 0
M  V30 1427 H 139.465 -1.20991 0.780838 0
M  V30 1428 H 141.418 -4.21199 -0.130147 0
M  V30 1429 H 140.142 -3.16617 -0.80134 0
M  V30 1430 H 138.801 -3.42173 1.3158 0
M  V30 1431 H 138.449 -4.99449 -0.596606 0
M  V30 1432 H 138.149 -5.79609 0.965788 0
M  V30 1433 H 139.673 -6.10539 0.0861567 0
M  V30 1434 H 141.087 -5.2913 2.20669 0
M  V30 1435 H 139.484 -5.20148 2.99276 0
M  V30 1436 H 140.554 -3.78834 3.02676 0
M  V30 1437 N 141.898 -0.863906 -1.31812 0
M  V30 1438 C 143.126 -0.486111 -2.01108 0
M  V30 1439 C 143.541 0.919755 -1.64882 0
M  V30 1440 O 142.898 1.60162 -0.874893 0
M  V30 1441 C 142.949 -0.626435 -3.56031 0
M  V30 1442 O 142.67 -1.97693 -3.90959 0
M  V30 1443 C 144.171 -0.248857 -4.42601 0
M  V30 1444 H 141.391 -0.190052 -0.643523 0
M  V30 1445 H 143.935 -1.1634 -1.68182 0
M  V30 1446 H 142.09 0.00322717 -3.874 0
M  V30 1447 H 142.504 -1.98034 -4.85678 0
M  V30 1448 H 143.978 -0.398016 -5.50563 0
M  V30 1449 H 144.455 0.811489 -4.31638 0
M  V30 1450 H 145.061 -0.853971 -4.16638 0
M  V30 1451 N 143.376 1.44774 -0.622745 0
M  V30 1452 C 144.625 2.01334 -0.121397 0
M  V30 1453 C 144.938 1.49505 1.26125 0
M  V30 1454 O 146.144 1.98139 1.85616 0
M  V30 1455 C 144.6 3.59516 -0.166298 0
M  V30 1456 C 144.208 4.20342 -1.54974 0
M  V30 1457 C 145.952 4.23582 0.279021 0
M  V30 1458 C 143.859 5.70721 -1.55021 0
M  V30 1459 H 142.789 0.752851 -0.0416172 0
M  V30 1460 H 145.44 1.66083 -0.780309 0
M  V30 1461 H 143.822 3.92027 0.559557 0
M  V30 1462 H 144.996 3.99381 -2.29851 0
M  V30 1463 H 143.311 3.68529 -1.93843 0
M  V30 1464 H 145.908 5.33868 0.298083 0
M  V30 1465 H 146.251 3.95327 1.30471 0
M  V30 1466 H 146.784 3.95843 -0.394063 0
M  V30 1467 H 143.523 6.03698 -2.55399 0
M  V30 1468 H 143.043 5.93829 -0.844245 0
M  V30 1469 H 144.722 6.34203 -1.28047 0
M  V30 1470 N 144.854 0.36279 1.53368 0
M  V30 1471 C 146.1 -0.228113 2.01513 0
M  V30 1472 C 146.433 -1.48648 1.2497 0
M  V30 1473 O 145.708 -1.91459 0.342616 0
M  V30 1474 C 145.991 -0.522884 3.56284 0
M  V30 1475 C 145.844 0.74892 4.43521 0
M  V30 1476 C 147.163 -1.32461 4.19693 0
M  V30 1477 H 144.282 -0.0814343 0.732487 0
M  V30 1478 H 146.924 0.48713 1.83649 0
M  V30 1479 H 145.074 -1.1322 3.71636 0
M  V30 1480 H 146.746 1.38648 4.39971 0
M  V30 1481 H 144.989 1.36986 4.11603 0
M  V30 1482 H 145.66 0.497667 5.49752 0
M  V30 1483 H 148.136 -0.809203 4.08156 0
M  V30 1484 H 147.012 -1.49961 5.28018 0
M  V30 1485 H 147.273 -2.33232 3.75573 0
M  V30 1486 N 146.332 -1.57332 0.0918853 0
M  V30 1487 C 147.279 -2.13847 -0.868211 0
M  V30 1488 C 148.249 -1.05618 -1.28196 0
M  V30 1489 O 149.434 -1.33387 -1.36427 0
M  V30 1490 C 146.574 -2.72062 -2.12312 0
M  V30 1491 C 145.687 -3.94514 -1.7602 0
M  V30 1492 C 144.822 -4.40903 -2.96273 0
M  V30 1493 C 143.861 -5.55953 -2.56092 0
M  V30 1494 N 142.998 -5.97209 -3.69169 0
M  V30 1495 H 147.838 -2.95575 -0.379406 0
M  V30 1496 H 145.375 -1.46048 -0.175606 0
M  V30 1497 H 147.333 -3.03931 -2.858 0
M  V30 1498 H 145.963 -1.93068 -2.58698 0
M  V30 1499 H 145.015 -3.68979 -0.925135 0
M  V30 1500 H 146.327 -4.7802 -1.42472 0
M  V30 1501 H 145.481 -4.74539 -3.78018 0
M  V30 1502 H 144.22 -3.56291 -3.33029 0
M  V30 1503 H 143.225 -5.21948 -1.72773 0
M  V30 1504 H 144.45 -6.42311 -2.20484 0
M  V30 1505 H 142.396 -5.15543 -4.05649 0
M  V30 1506 H 142.313 -6.75504 -3.39456 0
M  V30 1507 H 143.581 -6.35475 -4.51434 0
M  V30 1508 N 147.81 0.181792 -1.56548 0
M  V30 1509 C 149.035 0.920019 -1.85877 0
M  V30 1510 C 149.46 1.75494 -0.677021 0
M  V30 1511 O 148.818 1.77399 0.374056 0
M  V30 1512 C 148.866 1.78112 -3.13542 0
M  V30 1513 O 147.97 2.88152 -2.95029 0
M  V30 1514 H 147.311 0.258334 -0.611686 0
M  V30 1515 H 149.841 0.183092 -2.03779 0
M  V30 1516 H 149.851 2.18314 -3.44678 0
M  V30 1517 H 148.526 1.16777 -3.99169 0
M  V30 1518 H 147.103 2.51609 -2.75222 0
M  V30 1519 N 149.288 1.51039 0.449983 0
M  V30 1520 C 150.536 1.62759 1.19808 0
M  V30 1521 C 150.857 0.339981 1.92013 0
M  V30 1522 O 150.127 -0.643606 1.85026 0
M  V30 1523 H 148.707 0.599811 0.445237 0
M  V30 1524 H 151.369 1.87914 0.517138 0
M  V30 1525 H 150.465 2.44911 1.93455 0
M  V30 1526 N 150.766 -0.704594 1.40972 0
M  V30 1527 C 151.696 -1.83124 1.44872 0
M  V30 1528 C 152.677 -1.67281 0.30838 0
M  V30 1529 O 153.862 -1.87149 0.518556 0
M  V30 1530 C 150.992 -3.21181 1.32136 0
M  V30 1531 C 149.946 -3.51714 2.43888 0
M  V30 1532 C 149.272 -4.89032 2.16222 0
M  V30 1533 C 150.572 -3.516 3.86232 0
M  V30 1534 H 152.266 -1.80117 2.39161 0
M  V30 1535 H 149.812 -0.865145 1.15114 0
M  V30 1536 H 151.765 -3.99702 1.33479 0
M  V30 1537 H 150.489 -3.24791 0.343279 0
M  V30 1538 H 149.148 -2.75539 2.41813 0
M  V30 1539 H 148.796 -4.89256 1.16778 0
M  V30 1540 H 148.496 -5.10426 2.911 0
M  V30 1541 H 150.02 -5.69873 2.19265 0
M  V30 1542 H 151.434 -4.2014 3.9007 0
M  V30 1543 H 149.831 -3.84523 4.60719 0
M  V30 1544 H 150.901 -2.50757 4.15029 0
M  V30 1545 N 152.244 -1.26651 -0.937939 0
M  V30 1546 C 153.66 -1.03834 -1.21205 0
M  V30 1547 C 153.86 0.234502 -2.00131 0
M  V30 1548 O 152.916 0.942767 -2.3424 0
M  V30 1549 C 154.229 -2.27167 -1.97017 0
M  V30 1550 C 155.777 -2.32101 -2.09996 0
M  V30 1551 C 156.252 -3.55136 -2.8921 0
M  V30 1552 N 157.743 -3.55632 -2.96783 0
M  V30 1553 C 158.478 -4.475 -3.58512 0
M  V30 1554 N 157.974 -5.4966 -4.21717 0
M  V30 1555 N 159.767 -4.35145 -3.55816 0
M  V30 1556 H 151.918 -2.08398 -0.410391 0
M  V30 1557 H 154.181 -0.916031 -0.244114 0
M  V30 1558 H 153.887 -3.19765 -1.46434 0
M  V30 1559 H 153.761 -2.31672 -2.97671 0
M  V30 1560 H 156.148 -1.40015 -2.59769 0
M  V30 1561 H 156.229 -2.31605 -1.08594 0
M  V30 1562 H 155.873 -4.47553 -2.40123 0
M  V30 1563 H 155.803 -3.5288 -3.90875 0
M  V30 1564 H 158.294 -2.81743 -2.51852 0
M  V30 1565 H 158.607 -6.15943 -4.66727 0
M  V30 1566 H 156.952 -5.53514 -4.20294 0
M  V30 1567 H 160.143 -3.5455 -3.05634 0
M  V30 1568 H 160.316 -5.06934 -4.03636 0
M  V30 1569 N 153.722 1.14298 -1.08507 0
M  V30 1570 C 154.969 1.85359 -0.815373 0
M  V30 1571 C 155.297 1.83001 0.658865 0
M  V30 1572 O 154.552 1.25655 1.50031 0
M  V30 1573 C 154.851 3.33547 -1.28379 0
M  V30 1574 C 154.517 3.56093 -2.76602 0
M  V30 1575 C 153.179 3.61955 -3.17084 0
M  V30 1576 C 155.531 3.64834 -3.72217 0
M  V30 1577 C 152.859 3.74082 -4.51973 0
M  V30 1578 C 155.211 3.78487 -5.06883 0
M  V30 1579 C 153.875 3.82598 -5.46969 0
M  V30 1580 H 153.145 0.678276 -0.298366 0
M  V30 1581 H 155.792 1.35002 -1.35819 0
M  V30 1582 H 154.097 3.86191 -0.660593 0
M  V30 1583 H 155.794 3.86959 -1.05186 0
M  V30 1584 H 152.384 3.52179 -2.4427 0
M  V30 1585 H 156.568 3.59595 -3.42061 0
M  V30 1586 H 151.824 3.75527 -4.82483 0
M  V30 1587 H 155.998 3.84193 -5.80834 0
M  V30 1588 H 153.625 3.91747 -6.51489 0
M  V30 1589 N 155.201 0.870884 1.31352 0
M  V30 1590 C 156.447 0.482987 1.96965 0
M  V30 1591 C 156.78 -0.962462 1.68672 0
M  V30 1592 O 156.055 -1.6779 0.98371 0
M  V30 1593 C 156.338 0.741752 3.52378 0
M  V30 1594 C 156.191 2.2368 3.9024 0
M  V30 1595 C 157.51 0.208838 4.39604 0
M  V30 1596 H 154.629 0.176955 0.715441 0
M  V30 1597 H 157.271 1.09229 1.55464 0
M  V30 1598 H 155.421 0.223149 3.87859 0
M  V30 1599 H 157.093 2.82273 3.64856 0
M  V30 1600 H 155.336 2.70901 3.38814 0
M  V30 1601 H 156.007 2.3685 4.98604 0
M  V30 1602 H 158.483 0.652529 4.10952 0
M  V30 1603 H 157.359 0.419336 5.47296 0
M  V30 1604 H 157.62 -0.889275 4.33064 0
M  V30 1605 N 156.679 -1.44442 0.630414 0
M  V30 1606 C 157.642 -2.29107 -0.0652523 0
M  V30 1607 C 158.642 -1.41002 -0.772995 0
M  V30 1608 O 159.832 -1.62881 -0.617692 0
M  V30 1609 C 156.964 -3.22564 -1.10296 0
M  V30 1610 H 158.157 -2.92103 0.679401 0
M  V30 1611 H 155.71 -1.51343 0.390517 0
M  V30 1612 H 156.445 -2.64416 -1.87762 0
M  V30 1613 H 156.23 -3.87491 -0.59941 0
M  V30 1614 H 157.72 -3.86167 -1.5895 0
M  V30 1615 N 158.157 -0.370918 -1.53173 0
M  V30 1616 C 159.568 0.107139 -1.86392 0
M  V30 1617 C 159.919 1.47714 -1.29132 0
M  V30 1618 O 159.044 2.07464 -0.615439 0
M  V30 1619 C 159.639 0.201187 -3.38202 0
M  V30 1620 C 158.198 0.623507 -3.712 0
M  V30 1621 C 157.345 -0.225978 -2.76378 0
M  V30 1622 H 160.296 -0.58951 -1.47345 0
M  V30 1623 H 160.317 1.02377 -3.66468 0
M  V30 1624 H 159.829 -0.796058 -3.79848 0
M  V30 1625 H 157.93 1.62879 -3.35114 0
M  V30 1626 H 158.043 0.394414 -4.77474 0
M  V30 1627 H 156.407 0.305962 -2.52856 0
M  V30 1628 H 157.19 -1.22086 -3.20858 0
M  V30 1629 N 159.635 1.57281 -0.100228 0
M  V30 1630 C 160.912 1.86014 0.604812 0
M  V30 1631 C 161.292 0.998025 1.86018 0
M  V30 1632 O 160.64 0.0718184 2.28387 0
M  V30 1633 C 160.85 3.36784 0.915278 0
M  V30 1634 C 162.198 4.04957 1.27651 0
M  V30 1635 O 163.222 3.41695 1.00613 0
M  V30 1636 O 162.081 5.16593 1.7831 0
M  V30 1637 H 159.175 0.76942 0.303185 0
M  V30 1638 H 161.721 1.69176 -0.133313 0
M  V30 1639 H 160.493 3.91292 0.0248896 0
M  V30 1640 H 160.116 3.58987 1.70921 0
M  V30 1641 N 161.113 -0.173488 1.56642 0
M  V30 1642 C 162.076 -1.19859 1.95362 0
M  V30 1643 C 163.076 -1.37296 0.83704 0
M  V30 1644 O 164.266 -1.34739 1.10413 0
M  V30 1645 C 161.398 -2.56405 2.24654 0
M  V30 1646 H 162.591 -0.867062 2.87092 0
M  V30 1647 H 160.144 -0.415853 1.50666 0
M  V30 1648 H 160.879 -2.94576 1.35631 0
M  V30 1649 H 160.664 -2.45115 3.06041 0
M  V30 1650 H 162.154 -3.30287 2.5554 0
M  V30 1651 N 162.591 -1.51276 -0.441967 0
M  V30 1652 C 163.838 -1.63715 -1.19179 0
M  V30 1653 C 164.166 -0.351175 -1.91303 0
M  V30 1654 O 163.421 0.664524 -1.84072 0
M  V30 1655 C 163.72 -2.78746 -2.23686 0
M  V30 1656 C 163.386 -4.18189 -1.68607 0
M  V30 1657 C 162.048 -4.56125 -1.53308 0
M  V30 1658 C 164.4 -5.05222 -1.28062 0
M  V30 1659 C 161.728 -5.78804 -0.959317 0
M  V30 1660 C 164.08 -6.28476 -0.721162 0
M  V30 1661 C 162.744 -6.65188 -0.55504 0
M  V30 1662 H 162.014 -0.599076 -0.436106 0
M  V30 1663 H 164.661 -1.85296 -0.48351 0
M  V30 1664 H 162.966 -2.51369 -3.00535 0
M  V30 1665 H 164.663 -2.8557 -2.81515 0
M  V30 1666 H 161.253 -3.88277 -1.8149 0
M  V30 1667 H 165.437 -4.76524 -1.38704 0
M  V30 1668 H 160.693 -6.05899 -0.81833 0
M  V30 1669 H 164.867 -6.95259 -0.398458 0
M  V30 1670 H 162.494 -7.60123 -0.108311 0
M  V30 1671 N 164.069 0.697108 -1.41344 0
M  V30 1672 C 165.019 1.80313 -1.39539 0
M  V30 1673 C 166.003 1.58618 -0.270001 0
M  V30 1674 O 167.195 1.69477 -0.510551 0
M  V30 1675 C 164.324 3.18606 -1.27848 0
M  V30 1676 C 163.41 3.46001 -2.45244 0
M  V30 1677 N 163.801 3.44103 -3.70711 0
M  V30 1678 C 162.099 3.76542 -2.39023 0
M  V30 1679 C 162.8 3.7036 -4.48563 0
M  V30 1680 N 161.776 3.90027 -3.78655 0
M  V30 1681 H 165.578 1.77207 -2.34468 0
M  V30 1682 H 163.092 0.897031 -1.35378 0
M  V30 1683 H 165.089 3.97833 -1.24637 0
M  V30 1684 H 163.749 3.22925 -0.339032 0
M  V30 1685 H 164.76 3.2452 -4.03618 0
M  V30 1686 H 161.437 3.88241 -1.53542 0
M  V30 1687 H 162.827 3.75042 -5.57488 0
M  V30 1688 N 165.547 1.27147 0.931209 0
M  V30 1689 C 166.794 1.13278 1.67852 0
M  V30 1690 C 167.122 -0.32204 1.91815 0
M  V30 1691 O 166.377 -1.25224 1.50391 0
M  V30 1692 C 166.676 1.8579 3.05314 0
M  V30 1693 C 166.342 3.35657 3.01073 0
M  V30 1694 C 165.004 3.76536 2.99623 0
M  V30 1695 C 167.356 4.31299 2.92627 0
M  V30 1696 C 164.684 5.11426 2.87506 0
M  V30 1697 C 167.036 5.66242 2.82051 0
M  V30 1698 C 165.7 6.06418 2.7895 0
M  V30 1699 H 164.97 0.414515 0.614214 0
M  V30 1700 H 167.617 1.57712 1.08624 0
M  V30 1701 H 165.922 1.33854 3.68226 0
M  V30 1702 H 167.619 1.72491 3.62005 0
M  V30 1703 H 164.209 3.03146 3.02986 0
M  V30 1704 H 168.393 4.00692 2.92848 0
M  V30 1705 H 163.649 5.41705 2.83489 0
M  V30 1706 H 167.823 6.40026 2.74481 0
M  V30 1707 H 165.45 7.10895 2.69318 0
M  V30 1708 N 167.025 -1.13721 1.09112 0
M  V30 1709 C 168.253 -1.88773 0.846899 0
M  V30 1710 C 168.668 -1.7896 -0.601572 0
M  V30 1711 O 168.025 -1.15394 -1.41388 0
M  V30 1712 C 168.076 -3.3849 1.26913 0
M  V30 1713 O 167.797 -3.48043 2.66079 0
M  V30 1714 C 169.298 -4.30518 1.05682 0
M  V30 1715 H 166.518 -0.59772 0.304914 0
M  V30 1716 H 169.062 -1.43977 1.45227 0
M  V30 1717 H 167.217 -3.80881 0.707723 0
M  V30 1718 H 167.631 -4.4109 2.83795 0
M  V30 1719 H 169.105 -5.3391 1.40156 0
M  V30 1720 H 169.582 -4.392 -0.00563416 0
M  V30 1721 H 170.188 -3.93893 1.60402 0
M  V30 1722 N 168.503 -0.877838 -1.30888 0
M  V30 1723 C 169.914 -0.544193 -1.78593 0
M  V30 1724 C 170.265 0.939301 -1.72254 0
M  V30 1725 O 169.39 1.7337 -1.29505 0
M  V30 1726 C 169.985 -0.98105 -3.24285 0
M  V30 1727 C 168.544 -0.698935 -3.69854 0
M  V30 1728 C 167.691 -1.168 -2.51502 0
M  V30 1729 H 170.642 -1.06278 -1.17859 0
M  V30 1730 H 170.663 -0.307009 -3.79259 0
M  V30 1731 H 170.175 -2.06079 -3.28866 0
M  V30 1732 H 168.276 0.369112 -3.70767 0
M  V30 1733 H 168.389 -1.28148 -4.61644 0
M  V30 1734 H 166.753 -0.587535 -2.47831 0
M  V30 1735 H 167.536 -2.25533 -2.58824 0
M  V30 1736 N 169.982 1.44106 -0.638065 0
M  V30 1737 C 171.398 1.56672 -0.304286 0
M  V30 1738 C 171.598 1.6244 1.19228 0
M  V30 1739 O 170.654 1.57121 1.9766 0
M  V30 1740 C 171.967 2.83503 -1.00231 0
M  V30 1741 C 173.515 2.97226 -0.981116 0
M  V30 1742 C 173.99 4.26868 -1.65974 0
M  V30 1743 N 175.481 4.33698 -1.62666 0
M  V30 1744 C 176.216 5.32745 -2.12063 0
M  V30 1745 N 175.712 6.38157 -2.6968 0
M  V30 1746 N 177.505 5.24299 -2.02651 0
M  V30 1747 H 169.656 1.38605 -1.60942 0
M  V30 1748 H 171.919 0.664661 -0.675965 0
M  V30 1749 H 171.625 2.85251 -2.0573 0
M  V30 1750 H 171.499 3.73251 -0.54439 0
M  V30 1751 H 173.886 2.95027 0.0654188 0
M  V30 1752 H 173.967 2.08808 -1.47759 0
M  V30 1753 H 173.611 4.29826 -2.70576 0
M  V30 1754 H 173.541 5.14156 -1.13804 0
M  V30 1755 H 176.032 3.58138 -1.20606 0
M  V30 1756 H 176.345 7.10029 -3.05087 0
M  V30 1757 H 174.69 6.38823 -2.73734 0
M  V30 1758 H 177.881 4.4086 -1.57353 0
M  V30 1759 H 178.054 6.01334 -2.41457 0
M  V30 1760 N 171.46 0.379036 1.52974 0
M  V30 1761 C 172.39 -0.452706 2.29069 0
M  V30 1762 C 173.371 -1.07237 1.32039 0
M  V30 1763 O 174.556 -1.08708 1.60923 0
M  V30 1764 C 171.686 -1.5856 3.08992 0
M  V30 1765 C 170.64 -1.0925 4.13822 0
M  V30 1766 C 169.966 -2.31668 4.81907 0
M  V30 1767 C 171.266 -0.167702 5.22031 0
M  V30 1768 H 172.96 0.182181 2.98845 0
M  V30 1769 H 170.506 0.0890592 1.43724 0
M  V30 1770 H 172.459 -2.1742 3.6098 0
M  V30 1771 H 171.183 -2.24792 2.36931 0
M  V30 1772 H 169.842 -0.526494 3.628 0
M  V30 1773 H 169.49 -2.96386 4.06404 0
M  V30 1774 H 169.19 -1.9934 5.52754 0
M  V30 1775 H 170.714 -2.91189 5.36695 0
M  V30 1776 H 172.128 -0.664186 5.6944 0
M  V30 1777 H 170.525 0.0653265 6.00064 0
M  V30 1778 H 171.595 0.786347 4.78482 0
M  V30 1779 N 172.938 -1.57226 0.108567 0
M  V30 1780 C 174.163 -1.99604 -0.563303 0
M  V30 1781 C 174.588 -0.987563 -1.6009 0
M  V30 1782 O 173.946 0.0421687 -1.81251 0
M  V30 1783 C 173.994 -3.40902 -1.17552 0
M  V30 1784 O 173.098 -3.42896 -2.2912 0
M  V30 1785 H 172.439 -0.648704 -0.1417 0
M  V30 1786 H 174.969 -2.03679 0.193961 0
M  V30 1787 H 174.979 -3.78886 -1.51357 0
M  V30 1788 H 173.654 -4.1382 -0.415445 0
M  V30 1789 H 172.231 -3.1672 -1.96832 0
M  V30 1790 N 174.416 0.165178 -1.56732 0
M  V30 1791 C 175.832 0.517174 -1.50988 0
M  V30 1792 C 176.032 1.84331 -0.813894 0
M  V30 1793 O 175.088 2.49672 -0.37682 0
M  V30 1794 C 176.401 0.544261 -2.95733 0
M  V30 1795 C 177.949 0.631039 -3.06573 0
M  V30 1796 C 178.424 0.68896 -4.52788 0
M  V30 1797 N 179.915 0.751683 -4.5706 0
M  V30 1798 C 180.65 0.817177 -5.67547 0
M  V30 1799 N 180.146 0.843129 -6.8765 0
M  V30 1800 N 181.939 0.856668 -5.55534 0
M  V30 1801 H 174.09 -0.704318 -2.00382 0
M  V30 1802 H 176.353 -0.254687 -0.913148 0
M  V30 1803 H 176.059 -0.361607 -3.49836 0
M  V30 1804 H 175.933 1.3886 -3.5071 0
M  V30 1805 H 178.32 1.52733 -2.52501 0
M  V30 1806 H 178.401 -0.240095 -2.54671 0
M  V30 1807 H 178.045 -0.2031 -5.07494 0
M  V30 1808 H 177.975 1.57633 -5.02454 0
M  V30 1809 H 180.466 0.739661 -3.70591 0
M  V30 1810 H 180.779 0.894448 -7.67606 0
M  V30 1811 H 179.124 0.811304 -6.90248 0
M  V30 1812 H 182.315 0.833437 -4.60621 0
M  V30 1813 H 182.488 0.904247 -6.4166 0
M  V30 1814 N 175.894 1.51508 0.433938 0
M  V30 1815 C 176.824 1.76016 1.53429 0
M  V30 1816 C 177.805 0.610112 1.58782 0
M  V30 1817 O 178.99 0.853177 1.74455 0
M  V30 1818 C 176.12 1.88831 2.9148 0
M  V30 1819 C 175.074 3.04288 3.00987 0
M  V30 1820 C 174.4 3.0229 4.4105 0
M  V30 1821 C 175.7 4.44193 2.74754 0
M  V30 1822 H 177.394 2.68152 1.33171 0
M  V30 1823 H 174.94 1.29035 0.639214 0
M  V30 1824 H 176.893 2.04559 3.6842 0
M  V30 1825 H 175.617 0.933455 3.12976 0
M  V30 1826 H 174.276 2.8827 2.26486 0
M  V30 1827 H 173.924 2.04576 4.59519 0
M  V30 1828 H 173.624 3.79822 4.4834 0
M  V30 1829 H 175.148 3.20116 5.1996 0
M  V30 1830 H 176.562 4.60544 3.41426 0
M  V30 1831 H 174.959 5.23457 2.9345 0
M  V30 1832 H 176.029 4.53996 1.70339 0
M  V30 1833 N 177.372 -0.689602 1.41712 0
M  V30 1834 C 178.32 -1.82475 1.44242 0
M  V30 1835 C 179.314 -1.66354 0.319774 0
M  V30 1836 O 180.52 -1.73143 0.492089 0
M  V30 1837 H 176.895 -0.601416 0.451445 0
M  V30 1838 H 178.866 -1.77458 2.39899 0
M  V30 1839 C 177.615 -3.20535 1.3473 0
M  V30 1840 H 176.938 -3.33559 2.20405 0
M  V30 1841 H 178.378 -4.00023 1.40562 0
M  V30 1842 C 176.837 -3.36846 0.0603281 0
M  V30 1843 O 177.367 -3.91656 -0.892663 0
M  V30 1844 N 175.573 -2.90595 -0.0177039 0
M  V30 1845 H 175.12 -2.46178 0.758572 0
M  V30 1846 H 175.078 -3.01886 -0.878201 0
M  V30 1847 N 178.85 -1.27639 -0.924453 0
M  V30 1848 C 179.78 -1.13166 -2.04244 0
M  V30 1849 C 180.761 -0.032256 -1.70069 0
M  V30 1850 O 181.946 -0.207328 -1.9309 0
M  V30 1851 C 179.076 -0.781496 -3.38393 0
M  V30 1852 C 178.03 -1.83449 -3.86692 0
M  V30 1853 C 177.356 -1.33822 -5.17683 0
M  V30 1854 C 178.656 -3.23917 -4.09726 0
M  V30 1855 H 180.35 -2.06689 -2.1661 0
M  V30 1856 H 177.896 -0.995136 -1.04082 0
M  V30 1857 H 179.849 -0.667057 -4.16087 0
M  V30 1858 H 178.573 0.189439 -3.2605 0
M  V30 1859 H 177.232 -1.93789 -3.11193 0
M  V30 1860 H 176.88 -0.35665 -5.01734 0
M  V30 1861 H 176.58 -2.04224 -5.50968 0
M  V30 1862 H 178.104 -1.23679 -5.97943 0
M  V30 1863 H 179.518 -3.16559 -4.77978 0
M  V30 1864 H 177.915 -3.92059 -4.54324 0
M  V30 1865 H 178.985 -3.68729 -3.14908 0
M  V30 1866 N 180.328 1.1314 -1.09713 0
M  V30 1867 C 181.553 1.88862 -0.857081 0
M  V30 1868 C 181.978 1.78729 0.586304 0
M  V30 1869 O 181.336 1.13692 1.41222 0
M  V30 1870 C 181.384 3.36325 -1.30069 0
M  V30 1871 O 180.488 4.09815 -0.461007 0
M  V30 1872 H 179.829 0.587108 -0.310162 0
M  V30 1873 H 182.359 1.43129 -1.46203 0
M  V30 1874 H 182.369 3.87157 -1.28738 0
M  V30 1875 H 181.044 3.43017 -2.35185 0
M  V30 1876 H 179.621 3.68986 -0.538888 0
M  V30 1877 N 181.806 0.884767 1.30421 0
M  V30 1878 C 183.053 0.503105 1.96151 0
M  V30 1879 C 183.381 -0.947676 1.69851 0
M  V30 1880 O 182.636 -1.68467 0.995861 0
M  V30 1881 C 182.935 0.724318 3.49983 0
M  V30 1882 C 182.601 2.15015 3.96332 0
M  V30 1883 C 181.263 2.54005 4.08699 0
M  V30 1884 C 183.615 3.07936 4.20505 0
M  V30 1885 C 180.943 3.85128 4.42599 0
M  V30 1886 C 183.295 4.3859 4.55874 0
M  V30 1887 C 181.959 4.77474 4.66449 0
M  V30 1888 H 181.229 0.184099 0.717766 0
M  V30 1889 H 183.876 1.12058 1.55291 0
M  V30 1890 H 182.181 0.0238086 3.91793 0
M  V30 1891 H 183.878 0.408617 3.98913 0
M  V30 1892 H 180.468 1.8375 3.87213 0
M  V30 1893 H 184.652 2.79033 4.10431 0
M  V30 1894 H 179.908 4.14996 4.48986 0
M  V30 1895 H 184.082 5.10629 4.7353 0
M  V30 1896 H 181.709 5.79115 4.92473 0
M  V30 1897 N 183.284 -1.43765 0.645699 0
M  V30 1898 C 184.232 -2.32516 -0.0624849 0
M  V30 1899 C 185.226 -1.48183 -0.820855 0
M  V30 1900 O 186.432 -1.64439 -0.732106 0
M  V30 1901 H 182.807 -0.750989 -0.0389864 0
M  V30 1902 H 184.778 -2.89979 0.703892 0
M  V30 1903 C 183.527 -3.32389 -1.02044 0
M  V30 1904 H 182.85 -3.97301 -0.446312 0
M  V30 1905 H 184.29 -3.97138 -1.48517 0
M  V30 1906 C 182.749 -2.62416 -2.11281 0
M  V30 1907 O 183.279 -2.434 -3.19561 0
M  V30 1908 N 181.485 -2.21913 -1.87624 0
M  V30 1909 H 181.032 -2.37578 -0.995703 0
M  V30 1910 H 180.99 -1.75424 -2.6091 0
M  V30 1911 N 184.763 -0.387143 -1.52771 0
M  V30 1912 C 185.726 0.436939 -2.24997 0
M  V30 1913 C 186.726 0.991991 -1.26555 0
M  V30 1914 O 187.916 0.874335 -1.50669 0
M  V30 1915 C 185.048 1.61281 -3.00335 0
M  V30 1916 H 186.241 -0.195365 -2.99263 0
M  V30 1917 H 183.794 -0.139218 -1.55679 0
M  V30 1918 H 184.529 2.2826 -2.30364 0
M  V30 1919 H 184.314 1.22154 -3.72587 0
M  V30 1920 H 185.804 2.19629 -3.5518 0
M  V30 1921 N 186.241 1.57166 -0.116904 0
M  V30 1922 C 187.171 2.18222 0.830759 0
M  V30 1923 C 188.152 1.12167 1.27877 0
M  V30 1924 O 189.337 1.40394 1.34176 0
M  V30 1925 C 186.467 2.77996 2.08172 0
M  V30 1926 C 185.421 3.89614 1.77157 0
M  V30 1927 C 184.747 4.36187 3.09265 0
M  V30 1928 C 186.047 5.1181 1.04151 0
M  V30 1929 H 187.741 2.97664 0.321992 0
M  V30 1930 H 185.287 1.4318 0.153434 0
M  V30 1931 H 187.24 3.19366 2.74924 0
M  V30 1932 H 185.964 1.9584 2.6137 0
M  V30 1933 H 184.623 3.48816 1.12796 0
M  V30 1934 H 184.271 3.50893 3.60393 0
M  V30 1935 H 183.971 5.11455 2.89288 0
M  V30 1936 H 185.495 4.80207 3.77139 0
M  V30 1937 H 186.909 5.50214 1.61052 0
M  V30 1938 H 185.306 5.92648 0.942762 0
M  V30 1939 H 186.376 4.84892 0.0279022 0
M  V30 1940 N 187.719 -0.156864 1.56817 0
M  V30 1941 C 188.629 -1.2136 2.00771 0
M  V30 1942 C 189.645 -1.47598 0.921459 0
M  V30 1943 O 190.821 -1.59462 1.2302 0
M  V30 1944 C 187.886 -2.52943 2.37109 0
M  V30 1945 C 186.947 -2.34439 3.59634 0
M  V30 1946 C 186.18 -3.59748 3.94229 0
M  V30 1947 O 186.403 -4.65526 3.29609 0
M  V30 1948 O 185.337 -3.52998 4.8752 0
M  V30 1949 H 189.163 -0.870468 2.90958 0
M  V30 1950 H 186.748 -0.36484 1.44877 0
M  V30 1951 H 188.63 -3.30538 2.61386 0
M  V30 1952 H 187.305 -2.86806 1.5008 0
M  V30 1953 H 186.212 -1.54828 3.40557 0
M  V30 1954 H 187.545 -2.05496 4.4725 0
M  V30 1955 N 189.197 -1.51736 -0.425897 0
M  V30 1956 C 190.422 -1.69082 -1.20108 0
M  V30 1957 C 190.847 -0.392398 -1.83962 0
M  V30 1958 O 190.205 0.64858 -1.69302 0
M  V30 1959 C 190.253 -2.81604 -2.25237 0
M  V30 1960 O 189.357 -2.46004 -3.30992 0
M  V30 1961 H 188.698 -0.563408 -0.35138 0
M  V30 1962 H 191.228 -1.98358 -0.501512 0
M  V30 1963 H 191.238 -3.06025 -2.69838 0
M  V30 1964 H 189.913 -3.75817 -1.78142 0
M  V30 1965 H 188.49 -2.32195 -2.91787 0
M  V30 1966 N 190.675 0.682077 -1.42076 0
M  V30 1967 C 191.605 1.80796 -1.47767 0
M  V30 1968 C 192.586 1.6677 -0.334954 0
M  V30 1969 O 193.771 1.863 -0.548264 0
M  V30 1970 C 190.901 3.19038 -1.37229 0
M  V30 1971 C 189.855 3.47789 -2.49453 0
M  V30 1972 C 189.181 4.8553 -2.23975 0
M  V30 1973 C 190.481 3.45411 -3.91776 0
M  V30 1974 H 192.175 1.7629 -2.41997 0
M  V30 1975 H 189.721 0.846721 -1.16476 0
M  V30 1976 H 191.674 3.97528 -1.39821 0
M  V30 1977 H 190.398 3.24204 -0.394907 0
M  V30 1978 H 189.057 2.71657 -2.46166 0
M  V30 1979 H 188.705 4.87337 -1.24547 0
M  V30 1980 H 188.405 5.0573 -2.99184 0
M  V30 1981 H 189.929 5.66312 -2.28304 0
M  V30 1982 H 191.343 4.13882 -3.96705 0
M  V30 1983 H 189.74 3.77145 -4.66778 0
M  V30 1984 H 190.81 2.44122 -4.18966 0
M  V30 1985 N 192.153 1.28127 0.917671 0
M  V30 1986 C 193.378 1.18007 1.70555 0
M  V30 1987 C 193.803 -0.258257 1.86319 0
M  V30 1988 O 193.161 -1.1869 1.37049 0
M  V30 1989 C 193.209 1.87948 3.07746 0
M  V30 1990 O 192.313 1.18427 3.9503 0
M  V30 1991 H 191.654 0.409867 0.522403 0
M  V30 1992 H 194.184 1.69379 1.1477 0
M  V30 1993 H 194.194 1.95701 3.58001 0
M  V30 1994 H 192.869 2.92573 2.95591 0
M  V30 1995 H 191.446 1.18811 3.53466 0
M  V30 1996 N 193.631 -1.12557 1.10312 0
M  V30 1997 C 194.877 -1.84515 0.855901 0
M  V30 1998 C 195.232 -1.82409 -0.611936 0
M  V30 1999 O 194.525 -1.25778 -1.44535 0
M  V30 2000 C 194.719 -3.31462 1.33669 0
M  V30 2001 C 194.548 -3.47879 2.84974 0
M  V30 2002 C 193.318 -3.61589 3.52961 0
M  V30 2003 C 195.516 -3.43152 3.83081 0
M  V30 2004 N 193.498 -3.66359 4.926 0
M  V30 2005 C 194.869 -3.54401 5.08724 0
M  V30 2006 C 196.924 -3.2661 3.75807 0
M  V30 2007 C 195.627 -3.50815 6.2795 0
M  V30 2008 C 197.653 -3.24335 4.94531 0
M  V30 2009 C 197.015 -3.36144 6.19021 0
M  V30 2010 H 193.114 -0.690967 0.366182 0
M  V30 2011 H 195.698 -1.34763 1.40524 0
M  V30 2012 H 193.869 -3.7976 0.814686 0
M  V30 2013 H 195.601 -3.91272 1.03385 0
M  V30 2014 H 192.356 -3.63652 3.03404 0
M  V30 2015 H 192.78 -3.72411 5.65366 0
M  V30 2016 H 197.422 -3.16375 2.80476 0
M  V30 2017 H 195.14 -3.5982 7.23571 0
M  V30 2018 H 198.726 -3.12719 4.9061 0
M  V30 2019 H 197.606 -3.34357 7.09348 0
M  V30 2020 N 195.109 -0.891671 -1.2995 0
M  V30 2021 C 196.056 -0.361736 -2.27948 0
M  V30 2022 C 197.026 0.551761 -1.56668 0
M  V30 2023 O 198.211 0.478736 -1.84696 0
M  V30 2024 C 195.351 0.411825 -3.42634 0
M  V30 2025 C 194.464 -0.531651 -4.28716 0
M  V30 2026 C 193.599 0.258167 -5.30572 0
M  V30 2027 C 192.638 -0.680349 -6.08307 0
M  V30 2028 N 191.775 0.0745613 -7.0206 0
M  V30 2029 H 196.615 -1.20254 -2.72659 0
M  V30 2030 H 194.152 -0.604352 -1.34112 0
M  V30 2031 H 196.11 0.876304 -4.07893 0
M  V30 2032 H 194.74 1.21715 -2.98974 0
M  V30 2033 H 193.792 -1.11463 -3.63703 0
M  V30 2034 H 195.104 -1.25038 -4.82874 0
M  V30 2035 H 194.258 0.784204 -6.0161 0
M  V30 2036 H 192.997 1.01008 -4.77126 0
M  V30 2037 H 192.002 -1.21796 -5.3614 0
M  V30 2038 H 193.227 -1.43145 -6.63842 0
M  V30 2039 H 191.173 0.808883 -6.50994 0
M  V30 2040 H 191.09 -0.584409 -7.53738 0
M  V30 2041 H 192.358 0.581123 -7.77331 0
M  V30 2042 N 196.587 1.43421 -0.653314 0
M  V30 2043 C 197.815 2.06163 -0.174491 0
M  V30 2044 C 198.23 1.48969 1.1599 0
M  V30 2045 O 197.587 0.621042 1.71608 0
M  V30 2046 C 197.638 3.61417 -0.0774865 0
M  V30 2047 O 197.359 4.16485 -1.35912 0
M  V30 2048 C 198.86 4.41235 0.427402 0
M  V30 2049 H 196.08 0.664946 -0.0899353 0
M  V30 2050 H 198.624 1.83924 -0.893988 0
M  V30 2051 H 196.779 3.82841 0.59257 0
M  V30 2052 H 197.193 5.10153 -1.21839 0
M  V30 2053 H 198.667 5.5021 0.44423 0
M  V30 2054 H 199.144 4.14268 1.45873 0
M  V30 2055 H 199.75 4.2478 -0.210167 0
M  V30 2056 N 198.065 0.39524 1.52563 0
M  V30 2057 C 199.311 -0.185318 2.01952 0
M  V30 2058 C 199.644 -1.45964 1.28095 0
M  V30 2059 O 198.919 -1.90689 0.38315 0
M  V30 2060 C 199.202 -0.447193 3.57312 0
M  V30 2061 C 199.055 0.842828 4.41833 0
M  V30 2062 C 200.374 -1.23529 4.22408 0
M  V30 2063 H 197.493 -0.0658788 0.73405 0
M  V30 2064 H 200.135 0.525975 1.82575 0
M  V30 2065 H 198.285 -1.05312 3.73954 0
M  V30 2066 H 199.957 1.4795 4.36931 0
M  V30 2067 H 198.2 1.45686 4.08605 0
M  V30 2068 H 198.871 0.614165 5.48573 0
M  V30 2069 H 201.347 -0.722445 4.0978 0
M  V30 2070 H 200.223 -1.38727 5.3108 0
M  V30 2071 H 200.484 -2.25213 3.80436 0
M  V30 2072 N 199.544 -1.57102 0.125237 0
M  V30 2073 C 200.476 -2.12726 -0.853237 0
M  V30 2074 C 201.489 -1.07145 -1.22571 0
M  V30 2075 O 202.678 -1.34497 -1.17358 0
M  V30 2076 C 199.778 -2.61709 -2.15317 0
M  V30 2077 C 198.951 -3.91456 -1.95143 0
M  V30 2078 C 198.01 -4.25973 -3.08923 0
M  V30 2079 O 197.036 -4.94682 -2.81564 0
M  V30 2080 N 198.238 -3.83795 -4.35524 0
M  V30 2081 H 201.003 -2.97307 -0.377964 0
M  V30 2082 H 198.564 -1.61792 -0.0590011 0
M  V30 2083 H 200.556 -2.81826 -2.90441 0
M  V30 2084 H 199.126 -1.81974 -2.54174 0
M  V30 2085 H 198.346 -3.80185 -1.04177 0
M  V30 2086 H 199.634 -4.76283 -1.78976 0
M  V30 2087 H 199.032 -3.2839 -4.60626 0
M  V30 2088 H 197.589 -4.09008 -5.07499 0
M  V30 2089 N 201.022 0.148545 -1.56898 0
M  V30 2090 C 202.27 0.859717 -1.82902 0
M  V30 2091 C 202.591 1.81775 -0.70588 0
M  V30 2092 O 201.861 1.93994 0.272586 0
M  V30 2093 H 200.441 0.320469 -0.674766 0
M  V30 2094 H 203.103 0.142918 -1.94375 0
M  V30 2095 H 202.199 1.4229 -2.77777 0
M  V30 2096 N 202.5 1.5196 0.417844 0
M  V30 2097 C 203.43 1.77634 1.51554 0
M  V30 2098 C 204.411 0.626918 1.58126 0
M  V30 2099 O 205.596 0.871632 1.7354 0
M  V30 2100 C 202.726 1.91911 2.8946 0
M  V30 2101 C 201.68 3.07463 2.97743 0
M  V30 2102 C 201.006 3.06951 4.37819 0
M  V30 2103 C 202.306 4.47082 2.70027 0
M  V30 2104 H 204 2.6955 1.3032 0
M  V30 2105 H 201.546 1.29706 0.625492 0
M  V30 2106 H 203.499 2.08455 3.6623 0
M  V30 2107 H 202.223 0.966598 3.11969 0
M  V30 2108 H 200.882 2.90656 2.23416 0
M  V30 2109 H 200.53 2.09438 4.57323 0
M  V30 2110 H 200.23 3.84556 4.44286 0
M  V30 2111 H 201.754 3.25613 5.16535 0
M  V30 2112 H 203.168 4.6414 3.36522 0
M  V30 2113 H 201.565 5.2654 2.87881 0
M  V30 2114 H 202.635 4.55777 1.65514 0
M  V30 2115 N 203.978 -0.674533 1.42435 0
M  V30 2116 C 205.203 -1.46784 1.46524 0
M  V30 2117 C 205.628 -1.87938 0.078066 0
M  V30 2118 O 204.986 -1.56014 -0.92354 0
M  V30 2119 C 205.034 -2.69307 2.39805 0
M  V30 2120 O 204.138 -3.67587 1.86959 0
M  V30 2121 H 203.479 -0.440959 0.496439 0
M  V30 2122 H 206.009 -0.827326 1.87127 0
M  V30 2123 H 206.019 -3.17374 2.56393 0
M  V30 2124 H 204.694 -2.38692 3.40586 0
M  V30 2125 H 203.271 -3.2662 1.79927 0
M  V30 2126 N 205.456 -1.28612 -0.910864 0
M  V30 2127 C 206.386 -1.15326 -2.03032 0
M  V30 2128 C 207.367 -0.0502924 -1.70026 0
M  V30 2129 O 208.552 -0.227797 -1.92859 0
M  V30 2130 C 205.682 -0.817343 -3.37545 0
M  V30 2131 C 204.636 -1.8754 -3.84724 0
M  V30 2132 C 203.962 -1.39305 -5.16235 0
M  V30 2133 C 205.262 -3.28244 -4.06267 0
M  V30 2134 H 206.956 -2.08975 -2.14406 0
M  V30 2135 H 204.502 -1.00612 -1.03021 0
M  V30 2136 H 206.455 -0.711151 -4.15356 0
M  V30 2137 H 205.179 0.154846 -3.26233 0
M  V30 2138 H 203.838 -1.97079 -3.09121 0
M  V30 2139 H 203.486 -0.409846 -5.01328 0
M  V30 2140 H 203.186 -2.10057 -5.48771 0
M  V30 2141 H 204.71 -1.30014 -5.96598 0
M  V30 2142 H 206.124 -3.21611 -4.74594 0
M  V30 2143 H 204.521 -3.96855 -4.5014 0
M  V30 2144 H 205.591 -3.72048 -3.10979 0
M  V30 2145 N 206.934 1.1197 -1.10907 0
M  V30 2146 C 207.866 2.17592 -0.720175 0
M  V30 2147 C 208.879 1.60938 0.245495 0
M  V30 2148 O 210.068 1.78476 0.0292245 0
M  V30 2149 C 207.168 3.38873 -0.0427917 0
M  V30 2150 C 206.341 4.25006 -1.03388 0
M  V30 2151 C 205.4 5.24774 -0.387075 0
M  V30 2152 O 204.426 5.59631 -1.03934 0
M  V30 2153 N 205.628 5.74208 0.852407 0
M  V30 2154 H 208.393 2.51567 -1.62893 0
M  V30 2155 H 205.954 1.27439 -0.998543 0
M  V30 2156 H 207.946 4.02703 0.401501 0
M  V30 2157 H 206.516 3.03007 0.768456 0
M  V30 2158 H 205.736 3.57716 -1.65629 0
M  V30 2159 H 207.024 4.79397 -1.70458 0
M  V30 2160 H 206.422 5.48062 1.40161 0
M  V30 2161 H 204.979 6.39901 1.23977 0
M  V30 2162 N 208.412 0.89855 1.29475 0
M  V30 2163 C 209.322 0.379974 2.31502 0
M  V30 2164 C 210.338 -0.524695 1.659 0
M  V30 2165 O 211.514 -0.414551 1.97087 0
M  V30 2166 C 208.579 -0.385138 3.44554 0
M  V30 2167 C 207.64 0.550914 4.2575 0
M  V30 2168 C 206.873 -0.177778 5.33404 0
M  V30 2169 O 207.096 -1.40189 5.52904 0
M  V30 2170 O 206.03 0.479106 5.9999 0
M  V30 2171 H 209.856 1.22639 2.77837 0
M  V30 2172 H 207.441 0.662834 1.33891 0
M  V30 2173 H 209.323 -0.817841 4.13388 0
M  V30 2174 H 207.998 -1.20763 3.0033 0
M  V30 2175 H 206.905 1.03271 3.59564 0
M  V30 2176 H 208.238 1.33979 4.73614 0
M  V30 2177 N 209.89 -1.43072 0.660911 0
M  V30 2178 C 210.82 -2.33497 -0.0122829 0
M  V30 2179 C 211.801 -1.49903 -0.803925 0
M  V30 2180 O 212.986 -1.78546 -0.763864 0
M  V30 2181 C 210.116 -3.33363 -0.973994 0
M  V30 2182 C 209.07 -4.27003 -0.291928 0
M  V30 2183 C 208.396 -5.16967 -1.36562 0
M  V30 2184 C 209.696 -5.15816 0.820462 0
M  V30 2185 H 211.39 -2.90038 0.742873 0
M  V30 2186 H 208.936 -1.39461 0.358688 0
M  V30 2187 H 210.889 -3.95524 -1.45392 0
M  V30 2188 H 209.613 -2.75095 -1.7604 0
M  V30 2189 H 208.272 -3.66217 0.167623 0
M  V30 2190 H 207.92 -4.55034 -2.14366 0
M  V30 2191 H 207.62 -5.80441 -0.914454 0
M  V30 2192 H 209.144 -5.82003 -1.84675 0
M  V30 2193 H 210.558 -5.71742 0.422366 0
M  V30 2194 H 208.955 -5.8805 1.19656 0
M  V30 2195 H 210.025 -4.55045 1.67518 0
M  V30 2196 N 211.368 -0.403325 -1.52352 0
M  V30 2197 C 212.614 0.174605 -2.02047 0
M  V30 2198 C 212.947 1.45282 -1.28867 0
M  V30 2199 O 212.222 1.90483 -0.393257 0
M  V30 2200 C 212.505 0.428238 -3.57545 0
M  V30 2201 C 212.358 -0.866248 -4.4138 0
M  V30 2202 C 213.677 1.21287 -4.23057 0
M  V30 2203 H 210.796 0.0619851 -0.734389 0
M  V30 2204 H 213.438 -0.53565 -1.82293 0
M  V30 2205 H 211.588 1.03327 -3.74507 0
M  V30 2206 H 213.26 -1.50265 -4.3614 0
M  V30 2207 H 211.503 -1.47851 -4.07827 0
M  V30 2208 H 212.174 -0.643249 -5.48239 0
M  V30 2209 H 214.65 0.700703 -4.10158 0
M  V30 2210 H 213.526 1.35909 -5.31808 0
M  V30 2211 H 213.787 2.23193 -3.81625 0
M  V30 2212 N 212.846 1.57033 -0.133567 0
M  V30 2213 C 213.776 2.1909 0.807567 0
M  V30 2214 C 214.757 1.13517 1.26681 0
M  V30 2215 O 215.942 1.41809 1.32679 0
M  V30 2216 C 213.072 2.80188 2.05212 0
M  V30 2217 C 212.026 3.91471 1.73015 0
M  V30 2218 C 211.352 4.39443 3.04622 0
M  V30 2219 C 212.652 5.12886 0.987168 0
M  V30 2220 H 214.346 2.97988 0.290403 0
M  V30 2221 H 211.892 1.43335 0.138239 0
M  V30 2222 H 213.845 3.22264 2.71521 0
M  V30 2223 H 212.569 1.98601 2.59278 0
M  V30 2224 H 211.228 3.49993 1.0909 0
M  V30 2225 H 210.876 3.54695 3.56651 0
M  V30 2226 H 210.576 5.14495 2.83847 0
M  V30 2227 H 212.1 4.8418 3.72024 0
M  V30 2228 H 213.514 5.51891 1.55208 0
M  V30 2229 H 211.911 5.93615 0.87985 0
M  V30 2230 H 212.981 4.84894 -0.0235286 0
M  V30 2231 N 214.325 -0.140222 1.56975 0
M  V30 2232 C 215.55 -0.870414 1.88251 0
M  V30 2233 C 215.975 -1.73637 0.723312 0
M  V30 2234 O 215.333 -1.78329 -0.32689 0
M  V30 2235 C 215.381 -1.69737 3.18154 0
M  V30 2236 O 214.485 -2.80229 3.02565 0
M  V30 2237 H 213.826 -0.242025 0.61832 0
M  V30 2238 H 216.356 -0.128999 2.04193 0
M  V30 2239 H 216.366 -2.09099 3.50345 0
M  V30 2240 H 215.041 -1.06152 4.02125 0
M  V30 2241 H 213.618 -2.44224 2.81796 0
M  V30 2242 N 215.803 -1.52179 -0.40978 0
M  V30 2243 C 217.051 -1.65878 -1.15451 0
M  V30 2244 C 217.372 -0.390771 -1.91044 0
M  V30 2245 O 216.642 0.594323 -1.86667 0
M  V30 2246 H 215.222 -0.611405 -0.429177 0
M  V30 2247 H 217.884 -1.89219 -0.467134 0
M  V30 2248 H 216.98 -2.49954 -1.86894 0
M  V30 2249 N 217.281 0.66697 -1.42791 0
M  V30 2250 C 218.229 1.80157 -1.47127 0
M  V30 2251 C 219.223 1.65825 -0.346199 0
M  V30 2252 O 220.429 1.72338 -0.519572 0
M  V30 2253 H 216.804 0.594158 -0.460956 0
M  V30 2254 H 218.775 1.73619 -2.42692 0
M  V30 2255 C 217.524 3.18351 -1.39813 0
M  V30 2256 H 216.847 3.3001 -2.25684 0
M  V30 2257 H 218.287 3.97736 -1.46908 0
M  V30 2258 C 216.746 3.36707 -0.11391 0
M  V30 2259 O 217.276 3.93027 0.830241 0
M  V30 2260 N 215.482 2.90586 -0.0285295 0
M  V30 2261 H 215.029 2.4494 -0.79764 0
M  V30 2262 H 214.987 3.03245 0.830063 0
M  V30 2263 N 218.759 1.29093 0.90403 0
M  V30 2264 C 220.17 1.15186 1.46932 0
M  V30 2265 C 220.521 -0.254587 1.94541 0
M  V30 2266 O 219.646 -1.14972 1.83332 0
M  V30 2267 C 220.241 2.08492 2.67051 0
M  V30 2268 C 218.8 1.98621 3.19729 0
M  V30 2269 C 217.947 1.9967 1.92425 0
M  V30 2270 H 220.898 1.41641 0.715789 0
M  V30 2271 H 220.919 1.65461 3.42641 0
M  V30 2272 H 220.431 3.10847 2.3237 0
M  V30 2273 H 218.532 0.993389 3.59114 0
M  V30 2274 H 218.645 2.86068 3.8432 0
M  V30 2275 H 217.009 1.44208 2.09943 0
M  V30 2276 H 217.792 3.03721 1.60026 0
M  V30 2277 N 220.237 -1.11381 1.11499 0
M  V30 2278 C 221.167 -2.19509 0.796125 0
M  V30 2279 C 222.148 -1.68458 -0.235796 0
M  V30 2280 O 223.333 -1.93947 -0.0991344 0
M  V30 2281 C 220.463 -3.46475 0.239205 0
M  V30 2282 C 219.417 -4.10744 1.20307 0
M  V30 2283 C 218.743 -5.32293 0.50683 0
M  V30 2284 C 220.043 -4.55597 2.55399 0
M  V30 2285 H 221.737 -2.46439 1.70024 0
M  V30 2286 H 219.283 -1.18446 0.818935 0
M  V30 2287 H 221.236 -4.214 0.00392006 0
M  V30 2288 H 219.96 -3.19006 -0.700206 0
M  V30 2289 H 218.619 -3.37813 1.42399 0
M  V30 2290 H 218.267 -5.01095 -0.437408 0
M  V30 2291 H 217.967 -5.76243 1.1497 0
M  V30 2292 H 219.491 -6.09956 0.280351 0
M  V30 2293 H 220.905 -5.21841 2.37391 0
M  V30 2294 H 219.302 -5.10363 3.15673 0
M  V30 2295 H 220.372 -3.69013 3.14575 0
M  V30 2296 N 221.715 -0.905404 -1.28997 0
M  V30 2297 C 222.665 -0.358713 -2.25161 0
M  V30 2298 C 223.649 0.524449 -1.52113 0
M  V30 2299 O 224.841 0.365534 -1.73184 0
M  V30 2300 C 221.97 0.407609 -3.40872 0
M  V30 2301 C 221.056 -0.490797 -4.21251 0
M  V30 2302 N 221.447 -1.60061 -4.79806 0
M  V30 2303 C 219.745 -0.289636 -4.45059 0
M  V30 2304 C 220.446 -2.15757 -5.40207 0
M  V30 2305 N 219.422 -1.44988 -5.23908 0
M  V30 2306 H 223.224 -1.20642 -2.67998 0
M  V30 2307 H 220.738 -0.757103 -1.43672 0
M  V30 2308 H 222.735 0.816046 -4.08835 0
M  V30 2309 H 221.395 1.25251 -2.9957 0
M  V30 2310 H 222.406 -1.98329 -4.7842 0
M  V30 2311 H 219.083 0.51643 -4.14294 0
M  V30 2312 H 220.473 -3.09069 -5.96595 0
M  V30 2313 N 223.193 1.4272 -0.668489 0
M  V30 2314 C 224.433 2.03497 -0.19194 0
M  V30 2315 C 224.797 1.51684 1.17712 0
M  V30 2316 O 225.998 2.04205 1.74796 0
M  V30 2317 C 224.269 3.56734 -0.218032 0
M  V30 2318 S 225.828 4.38395 0.188438 0
M  V30 2319 H 222.646 0.706542 -0.0794959 0
M  V30 2320 H 225.248 1.74563 -0.880235 0
M  V30 2321 H 223.952 3.91943 -1.2169 0
M  V30 2322 H 223.483 3.90333 0.490303 0
M  V30 2323 H 225.498 4.75345 1.42345 0
M  V30 2324 N 224.671 0.411399 1.52136 0
M  V30 2325 C 225.896 -0.165538 2.06738 0
M  V30 2326 C 226.321 -1.379 1.27926 0
M  V30 2327 O 225.679 -1.78628 0.310114 0
M  V30 2328 C 225.727 -0.492124 3.57226 0
M  V30 2329 O 224.831 -1.58276 3.80818 0
M  V30 2330 H 224.172 -0.0132132 0.663869 0
M  V30 2331 H 226.702 0.585253 1.96051 0
M  V30 2332 H 226.712 -0.750104 4.01045 0
M  V30 2333 H 225.387 0.394922 4.14021 0
M  V30 2334 H 223.964 -1.31677 3.48877 0
M  V30 2335 N 226.149 -1.5696 0.141893 0
M  V30 2336 C 227.389 -1.9785 -0.513304 0
M  V30 2337 C 227.753 -1.02467 -1.62371 0
M  V30 2338 O 228.954 -1.32382 -2.33941 0
M  V30 2339 C 227.225 -3.42797 -1.01118 0
M  V30 2340 S 228.784 -4.05709 -1.67169 0
M  V30 2341 H 225.602 -0.691318 -0.166135 0
M  V30 2342 H 228.204 -1.94114 0.232398 0
M  V30 2343 H 226.908 -4.0995 -0.192179 0
M  V30 2344 H 226.439 -3.50235 -1.79162 0
M  V30 2345 H 228.454 -3.98342 -2.95868 0
M  V30 2346 N 227.627 0.131896 -1.57047 0
M  V30 2347 C 228.59 1.14638 -1.98471 0
M  V30 2348 C 229.59 1.35029 -0.873148 0
M  V30 2349 O 230.78 1.31764 -1.13946 0
M  V30 2350 C 227.912 2.50358 -2.31373 0
M  V30 2351 H 229.105 0.79064 -2.8929 0
M  V30 2352 H 226.658 0.375761 -1.51716 0
M  V30 2353 H 227.393 2.90876 -1.43393 0
M  V30 2354 H 227.178 2.36915 -3.12432 0
M  V30 2355 H 228.668 3.23395 -2.64207 0
M  V30 2356 N 229.106 1.52395 0.401703 0
M  V30 2357 C 230.036 1.79231 1.49661 0
M  V30 2358 C 231.017 0.643654 1.57452 0
M  V30 2359 O 232.202 0.889989 1.72606 0
M  V30 2360 C 229.332 1.94971 2.87409 0
M  V30 2361 C 228.286 3.10604 2.94465 0
M  V30 2362 C 227.612 3.11577 4.34538 0
M  V30 2363 C 228.912 4.49921 2.6527 0
M  V30 2364 H 230.606 2.70917 1.27454 0
M  V30 2365 H 228.152 1.30362 0.6117 0
M  V30 2366 H 230.105 2.12328 3.63999 0
M  V30 2367 H 228.829 0.999632 3.10926 0
M  V30 2368 H 227.488 2.93009 2.20321 0
M  V30 2369 H 227.136 2.14277 4.55076 0
M  V30 2370 H 226.836 3.89247 4.40183 0
M  V30 2371 H 228.36 3.31073 5.13053 0
M  V30 2372 H 229.774 4.67683 3.31581 0
M  V30 2373 H 228.171 5.29564 2.82281 0
M  V30 2374 H 229.241 4.57507 1.60671 0
M  V30 2375 N 230.584 -0.659388 1.43143 0
M  V30 2376 C 232 -0.974337 1.26407 0
M  V30 2377 C 232.2 -2.007 0.179341 0
M  V30 2378 O 231.256 -2.4856 -0.444295 0
M  V30 2379 C 232.569 -1.46447 2.62628 0
M  V30 2380 C 234.117 -1.58144 2.7011 0
M  V30 2381 C 234.592 -2.1055 4.06734 0
M  V30 2382 N 236.083 -2.17861 4.08767 0
M  V30 2383 C 236.818 -2.59519 5.1131 0
M  V30 2384 N 236.314 -3.00518 6.24228 0
M  V30 2385 N 238.107 -2.59404 4.98664 0
M  V30 2386 H 230.258 0.0240528 2.12386 0
M  V30 2387 H 232.521 -0.0518065 0.946583 0
M  V30 2388 H 232.227 -0.780123 3.42939 0
M  V30 2389 H 232.101 -2.44058 2.87603 0
M  V30 2390 H 234.488 -2.25682 1.90136 0
M  V30 2391 H 234.569 -0.589828 2.48907 0
M  V30 2392 H 234.213 -1.43616 4.87172 0
M  V30 2393 H 234.143 -3.10531 4.25298 0
M  V30 2394 H 236.634 -1.88975 3.27257 0
M  V30 2395 H 236.947 -3.31036 6.98309 0
M  V30 2396 H 235.292 -2.98337 6.2771 0
M  V30 2397 H 238.483 -2.26747 4.09516 0
M  V30 2398 H 238.656 -2.91548 5.78709 0
M  V30 2399 N 232.062 -1.29571 -0.897171 0
M  V30 2400 C 233.308 -1.18873 -1.65048 0
M  V30 2401 C 233.663 0.256707 -1.9068 0
M  V30 2402 O 232.956 1.18202 -1.50794 0
M  V30 2403 C 233.15 -1.9382 -3.00281 0
M  V30 2404 C 232.979 -3.45503 -2.8785 0
M  V30 2405 C 231.749 -4.14856 -2.88483 0
M  V30 2406 C 233.947 -4.40956 -2.64693 0
M  V30 2407 N 231.929 -5.52886 -2.66815 0
M  V30 2408 C 233.3 -5.66464 -2.5203 0
M  V30 2409 C 235.355 -4.3069 -2.49821 0
M  V30 2410 C 234.058 -6.82871 -2.26008 0
M  V30 2411 C 236.084 -5.46852 -2.25182 0
M  V30 2412 C 235.446 -6.71333 -2.13286 0
M  V30 2413 H 231.545 -0.489998 -0.609447 0
M  V30 2414 H 234.129 -1.63431 -1.05822 0
M  V30 2415 H 232.3 -1.51671 -3.57562 0
M  V30 2416 H 234.032 -1.75366 -3.64731 0
M  V30 2417 H 230.787 -3.66579 -2.99861 0
M  V30 2418 H 231.211 -6.25487 -2.59027 0
M  V30 2419 H 235.853 -3.35141 -2.5776 0
M  V30 2420 H 233.571 -7.78473 -2.16806 0
M  V30 2421 H 237.157 -5.40809 -2.14515 0
M  V30 2422 H 236.037 -7.59701 -1.94485 0
M  V30 2423 N 233.54 1.10788 -1.12088 0
M  V30 2424 C 234.47 2.19083 -0.807755 0
M  V30 2425 C 235.451 1.6858 0.226859 0
M  V30 2426 O 236.636 1.93997 0.0888475 0
M  V30 2427 C 233.766 3.46344 -0.257576 0
M  V30 2428 C 232.72 4.101 -1.22483 0
M  V30 2429 C 232.046 5.32016 -0.535052 0
M  V30 2430 C 233.346 4.54236 -2.57811 0
M  V30 2431 H 235.04 2.45534 -1.71328 0
M  V30 2432 H 232.586 1.1801 -0.825205 0
M  V30 2433 H 234.539 4.21392 -0.0262679 0
M  V30 2434 H 233.263 3.19373 0.683278 0
M  V30 2435 H 231.922 3.37054 -1.44189 0
M  V30 2436 H 231.57 5.01319 0.410827 0
M  V30 2437 H 231.27 5.75625 -1.18024 0
M  V30 2438 H 232.794 6.09799 -0.312695 0
M  V30 2439 H 234.208 5.20575 -2.40155 0
M  V30 2440 H 232.605 5.08682 -3.18375 0
M  V30 2441 H 233.675 3.6734 -3.16528 0
M  V30 2442 N 235.018 0.912232 1.28515 0
M  V30 2443 C 235.95 0.35676 2.26406 0
M  V30 2444 C 236.963 -0.503933 1.54804 0
M  V30 2445 O 238.152 -0.319059 1.75625 0
M  V30 2446 C 235.252 -0.508825 3.35058 0
M  V30 2447 C 234.425 0.329007 4.36161 0
M  V30 2448 C 233.484 -0.471422 5.24084 0
M  V30 2449 O 232.51 0.115482 5.69083 0
M  V30 2450 N 233.712 -1.77479 5.52704 0
M  V30 2451 H 236.477 1.19818 2.74707 0
M  V30 2452 H 234.038 0.778022 1.4198 0
M  V30 2453 H 236.03 -1.051 3.90815 0
M  V30 2454 H 234.6 -1.25095 2.86478 0
M  V30 2455 H 233.82 1.05256 3.79888 0
M  V30 2456 H 235.108 0.90234 5.00735 0
M  V30 2457 H 234.506 -2.27417 5.17975 0
M  V30 2458 H 233.063 -2.26382 6.11224 0
M  V30 2459 N 236.496 -1.42363 0.676048 0
M  V30 2460 C 237.912 -1.55811 0.345718 0
M  V30 2461 C 238.112 -1.65544 -1.14879 0
M  V30 2462 O 237.168 -1.62306 -1.93424 0
M  V30 2463 C 238.481 -2.80746 1.07713 0
M  V30 2464 C 240.029 -2.9452 1.05958 0
M  V30 2465 C 240.504 -4.22318 1.77233 0
M  V30 2466 N 241.995 -4.29233 1.74108 0
M  V30 2467 C 242.73 -5.26935 2.26113 0
M  V30 2468 N 242.226 -6.30783 2.86505 0
M  V30 2469 N 244.019 -5.18741 2.1648 0
M  V30 2470 H 236.17 -1.34289 1.6456 0
M  V30 2471 H 238.433 -0.646506 0.69335 0
M  V30 2472 H 238.139 -2.79696 2.13221 0
M  V30 2473 H 238.013 -3.71676 0.64316 0
M  V30 2474 H 240.4 -2.95097 0.0128255 0
M  V30 2475 H 240.481 -2.04817 1.53244 0
M  V30 2476 H 240.125 -4.22502 2.81877 0
M  V30 2477 H 240.055 -5.10958 1.27396 0
M  V30 2478 H 242.546 -3.54814 1.30059 0
M  V30 2479 H 242.859 -7.01691 3.23805 0
M  V30 2480 H 241.204 -6.31341 2.90575 0
M  V30 2481 H 244.395 -4.36533 1.68987 0
M  V30 2482 H 244.568 -5.94721 2.57316 0
M  V30 2483 N 237.974 -0.419461 -1.51915 0
M  V30 2484 C 239.22 0.145505 -2.02879 0
M  V30 2485 C 239.575 1.41926 -1.29903 0
M  V30 2486 O 238.868 1.87383 -0.399782 0
M  V30 2487 C 239.062 0.437067 -3.54717 0
M  V30 2488 C 238.891 -0.806877 -4.42402 0
M  V30 2489 C 237.661 -1.33514 -4.87342 0
M  V30 2490 C 239.859 -1.68796 -4.85811 0
M  V30 2491 N 237.841 -2.53349 -5.59185 0
M  V30 2492 C 239.212 -2.73247 -5.56539 0
M  V30 2493 C 241.267 -1.70449 -4.67816 0
M  V30 2494 C 239.97 -3.79276 -6.11181 0
M  V30 2495 C 241.996 -2.75403 -5.23361 0
M  V30 2496 C 241.358 -3.78575 -5.9402 0
M  V30 2497 H 237.457 0.0145424 -0.781865 0
M  V30 2498 H 240.041 -0.576126 -1.85981 0
M  V30 2499 H 238.212 1.12774 -3.71667 0
M  V30 2500 H 239.944 0.99182 -3.92358 0
M  V30 2501 H 236.699 -0.891657 -4.65131 0
M  V30 2502 H 237.123 -3.14066 -5.99743 0
M  V30 2503 H 241.765 -0.920209 -4.12664 0
M  V30 2504 H 239.483 -4.58554 -6.65397 0
M  V30 2505 H 243.069 -2.77603 -5.113 0
M  V30 2506 H 241.949 -4.58453 -6.36231 0
M  V30 2507 N 239.452 1.56882 -0.150215 0
M  V30 2508 C 240.362 2.20494 0.801222 0
M  V30 2509 C 241.378 1.19019 1.26927 0
M  V30 2510 O 242.554 1.51607 1.32579 0
M  V30 2511 C 239.619 2.81659 2.02161 0
M  V30 2512 C 238.68 3.9827 1.60249 0
M  V30 2513 C 237.913 4.56508 2.7647 0
M  V30 2514 O 238.136 4.13627 3.92771 0
M  V30 2515 O 237.07 5.46719 2.51757 0
M  V30 2516 H 240.896 3.02315 0.289717 0
M  V30 2517 H 238.481 1.49202 0.0769684 0
M  V30 2518 H 240.363 3.20522 2.73576 0
M  V30 2519 H 239.038 2.02849 2.52258 0
M  V30 2520 H 237.945 3.64117 0.858477 0
M  V30 2521 H 239.278 4.78609 1.14864 0
M  V30 2522 N 240.93 -0.123565 1.57115 0
M  V30 2523 C 241.84 -1.17074 2.033 0
M  V30 2524 C 242.856 -1.4561 0.952559 0
M  V30 2525 O 244.032 -1.56817 1.26374 0
M  V30 2526 C 241.097 -2.47857 2.42421 0
M  V30 2527 C 240.158 -2.26758 3.64526 0
M  V30 2528 C 239.391 -3.51305 4.01771 0
M  V30 2529 O 239.614 -4.5843 3.39409 0
M  V30 2530 O 238.548 -3.42578 4.94898 0
M  V30 2531 H 242.374 -0.808555 2.92739 0
M  V30 2532 H 239.959 -0.334027 1.45618 0
M  V30 2533 H 241.841 -3.2492 2.68338 0
M  V30 2534 H 240.516 -2.83558 1.5613 0
M  V30 2535 H 239.423 -1.47569 3.43765 0
M  V30 2536 H 240.756 -1.95963 4.51508 0
M  V30 2537 N 242.408 -1.52605 -0.393616 0
M  V30 2538 C 243.318 -1.79971 -1.50492 0
M  V30 2539 C 244.334 -0.686181 -1.59899 0
M  V30 2540 O 245.51 -0.973274 -1.76322 0
M  V30 2541 C 242.575 -1.95867 -2.86072 0
M  V30 2542 C 241.636 -3.19781 -2.86424 0
M  V30 2543 C 240.869 -3.34909 -4.15538 0
M  V30 2544 O 241.092 -2.54948 -5.10253 0
M  V30 2545 O 240.026 -4.28141 -4.23059 0
M  V30 2546 H 243.852 -2.74328 -1.30299 0
M  V30 2547 H 241.437 -1.3764 -0.581005 0
M  V30 2548 H 243.319 -2.08056 -3.66457 0
M  V30 2549 H 241.994 -1.04699 -3.063 0
M  V30 2550 H 240.901 -3.13038 -2.04837 0
M  V30 2551 H 242.234 -4.1078 -2.71147 0
M  V30 2552 N 243.887 0.651787 -1.4349 0
M  V30 2553 C 245.135 1.40888 -1.44897 0
M  V30 2554 C 245.456 1.94856 -0.0749086 0
M  V30 2555 O 244.726 1.74518 0.889956 0
M  V30 2556 H 243.306 0.522887 -0.533478 0
M  V30 2557 H 245.968 0.768609 -1.79104 0
M  V30 2558 H 245.064 2.25052 -2.16236 0
M  V30 2559 N 245.365 1.30045 0.890287 0
M  V30 2560 C 246.295 1.18541 2.01172 0
M  V30 2561 C 247.276 0.0773356 1.69924 0
M  V30 2562 O 248.461 0.25845 1.92473 0
M  V30 2563 C 245.591 0.870941 3.36202 0
M  V30 2564 C 244.545 1.93637 3.81692 0
M  V30 2565 C 243.871 1.475 5.13953 0
M  V30 2566 C 245.171 3.34666 4.00994 0
M  V30 2567 H 246.865 2.12359 2.11054 0
M  V30 2568 H 244.411 1.02238 1.01407 0
M  V30 2569 H 246.364 0.777141 4.14172 0
M  V30 2570 H 245.088 -0.102926 3.26438 0
M  V30 2571 H 243.747 2.01972 3.05946 0
M  V30 2572 H 243.395 0.489551 5.00612 0
M  V30 2573 H 243.095 2.1876 5.4536 0
M  V30 2574 H 244.619 1.39489 5.94454 0
M  V30 2575 H 246.033 3.2912 4.69417 0
M  V30 2576 H 244.43 4.03966 4.43769 0
M  V30 2577 H 245.5 3.76949 3.05021 0
M  V30 2578 N 246.843 -1.10192 1.12674 0
M  V30 2579 C 248.091 -1.81845 0.881861 0
M  V30 2580 C 248.412 -1.85737 -0.593867 0
M  V30 2581 O 247.682 -1.33724 -1.4316 0
M  V30 2582 H 246.262 -0.673432 0.323261 0
M  V30 2583 H 248.924 -1.33316 1.42172 0
M  V30 2584 H 248.02 -2.85288 1.2656 0
M  V30 2585 N 248.321 -0.919034 -1.28029 0
M  V30 2586 C 249.569 -0.553838 -1.94363 0
M  V30 2587 C 249.89 0.906357 -1.72656 0
M  V30 2588 O 249.16 1.64143 -1.0693 0
M  V30 2589 H 247.74 -0.201834 -0.719216 0
M  V30 2590 H 250.402 -1.16954 -1.55909 0
M  V30 2591 H 249.498 -0.752758 -3.02886 0
M  V30 2592 N 249.799 1.42003 -0.683588 0
M  V30 2593 C 251.045 2.01712 -0.209825 0
M  V30 2594 C 251.378 1.53968 1.18353 0
M  V30 2595 O 250.653 0.745661 1.79639 0
M  V30 2596 C 250.936 3.59202 -0.254197 0
M  V30 2597 C 250.789 4.17102 -1.68363 0
M  V30 2598 C 252.108 4.38344 0.392709 0
M  V30 2599 H 249.227 0.732891 -0.0777189 0
M  V30 2600 H 251.869 1.68909 -0.87004 0
M  V30 2601 H 250.019 3.87278 0.307954 0
M  V30 2602 H 251.691 3.99946 -2.29871 0
M  V30 2603 H 249.934 3.72597 -2.22157 0
M  V30 2604 H 250.605 5.26249 -1.6663 0
M  V30 2605 H 253.081 4.16011 -0.0859162 0
M  V30 2606 H 251.957 5.47901 0.331063 0
M  V30 2607 H 252.218 4.16887 1.47164 0
M  V30 2608 N 251.277 0.427512 1.51691 0
M  V30 2609 C 252.688 -0.0378867 1.86662 0
M  V30 2610 C 253.039 -1.42819 1.34525 0
M  V30 2611 O 252.164 -2.05037 0.692014 0
M  V30 2612 C 252.759 -0.0755266 3.38716 0
M  V30 2613 C 251.318 -0.485309 3.73258 0
M  V30 2614 C 250.465 0.328399 2.75349 0
M  V30 2615 H 253.416 0.64379 1.45055 0
M  V30 2616 H 253.437 -0.887056 3.70016 0
M  V30 2617 H 252.949 0.936487 3.76632 0
M  V30 2618 H 251.05 -1.50329 3.40928 0
M  V30 2619 H 251.163 -0.21693 4.78609 0
M  V30 2620 H 249.527 -0.211905 2.53817 0
M  V30 2621 H 250.31 1.3391 3.16106 0
M  V30 2622 N 252.755 -1.56801 0.158532 0
M  V30 2623 C 253.665 -2.20916 -0.789518 0
M  V30 2624 C 254.681 -1.1969 -1.26294 0
M  V30 2625 O 255.857 -1.52308 -1.31773 0
M  V30 2626 C 252.922 -2.82727 -2.00665 0
M  V30 2627 C 251.983 -3.99114 -1.58134 0
M  V30 2628 C 251.216 -4.57968 -2.74045 0
M  V30 2629 O 251.439 -4.15704 -3.90572 0
M  V30 2630 O 250.373 -5.48047 -2.48855 0
M  V30 2631 H 254.199 -3.02464 -0.273681 0
M  V30 2632 H 251.784 -1.4924 -0.0690548 0
M  V30 2633 H 253.666 -3.21968 -2.71872 0
M  V30 2634 H 252.341 -2.04184 -2.51179 0
M  V30 2635 H 251.248 -3.64567 -0.839155 0
M  V30 2636 H 252.581 -4.79212 -1.12325 0
M  V30 2637 N 254.233 0.115231 -1.57178 0
M  V30 2638 C 255.165 1.16694 -1.97269 0
M  V30 2639 C 256.178 1.37445 -0.872502 0
M  V30 2640 O 257.367 1.36454 -1.15077 0
M  V30 2641 C 254.467 2.52627 -2.25905 0
M  V30 2642 C 253.64 2.52427 -3.57211 0
M  V30 2643 C 252.699 3.70134 -3.74016 0
M  V30 2644 O 251.725 3.53546 -4.46087 0
M  V30 2645 N 252.927 4.88844 -3.13068 0
M  V30 2646 H 255.692 0.82588 -2.88096 0
M  V30 2647 H 253.253 0.304461 -1.59011 0
M  V30 2648 H 255.245 3.29937 -2.34359 0
M  V30 2649 H 253.815 2.789 -1.41186 0
M  V30 2650 H 253.035 1.60805 -3.5991 0
M  V30 2651 H 254.323 2.49353 -4.43509 0
M  V30 2652 H 253.721 5.05225 -2.54489 0
M  V30 2653 H 252.278 5.63817 -3.27037 0
M  V30 2654 N 255.711 1.52812 0.385517 0
M  V30 2655 C 256.658 1.77838 1.47113 0
M  V30 2656 C 257.628 0.621757 1.54024 0
M  V30 2657 O 258.813 0.861846 1.70226 0
M  V30 2658 C 255.953 1.95618 2.84302 0
M  V30 2659 C 255.066 3.23316 2.86515 0
M  V30 2660 C 254.201 3.31394 4.15152 0
M  V30 2661 C 253.24 4.53201 4.1143 0
M  V30 2662 N 252.377 4.58542 5.3168 0
M  V30 2663 H 257.217 2.70482 1.25073 0
M  V30 2664 H 254.754 1.34006 0.606692 0
M  V30 2665 H 256.712 2.03912 3.63972 0
M  V30 2666 H 255.342 1.06331 3.04784 0
M  V30 2667 H 254.394 3.24076 1.99195 0
M  V30 2668 H 255.706 4.13045 2.79634 0
M  V30 2669 H 254.86 3.3889 5.03228 0
M  V30 2670 H 253.599 2.39645 4.24761 0
M  V30 2671 H 252.604 4.45827 3.21742 0
M  V30 2672 H 253.829 5.46271 4.03442 0
M  V30 2673 H 251.775 3.69686 5.41912 0
M  V30 2674 H 251.692 5.42148 5.26889 0
M  V30 2675 H 252.96 4.70296 6.21644 0
M  V30 2676 N 257.189 -0.644168 1.43834 0
M  V30 2677 C 258.119 -1.76814 1.52509 0
M  V30 2678 C 259.1 -1.65823 0.379052 0
M  V30 2679 O 260.285 -1.84781 0.597466 0
M  V30 2680 C 257.415 -3.15288 1.4564 0
M  V30 2681 C 256.369 -3.41053 2.58586 0
M  V30 2682 C 255.695 -4.79421 2.36769 0
M  V30 2683 C 256.995 -3.34902 4.00797 0
M  V30 2684 H 258.689 -1.69812 2.46586 0
M  V30 2685 H 256.235 -0.815542 1.1868 0
M  V30 2686 H 258.188 -3.93681 1.50311 0
M  V30 2687 H 256.912 -3.23043 0.480725 0
M  V30 2688 H 255.571 -2.65035 2.53282 0
M  V30 2689 H 255.219 -4.83863 1.37424 0
M  V30 2690 H 254.919 -4.9762 3.12487 0
M  V30 2691 H 256.443 -5.6006 2.43238 0
M  V30 2692 H 257.857 -4.03218 4.07539 0
M  V30 2693 H 256.254 -3.64637 4.76613 0
M  V30 2694 H 257.324 -2.32928 4.25291 0
M  V30 2695 N 258.668 -1.30515 -0.883378 0
M  V30 2696 C 259.6 -1.12846 -1.99496 0
M  V30 2697 C 260.613 -0.0712571 -1.62644 0
M  V30 2698 O 261.802 -0.317432 -1.75655 0
M  V30 2699 C 258.902 -0.699123 -3.3161 0
M  V30 2700 C 258.075 -1.83842 -3.96889 0
M  V30 2701 C 257.134 -1.39737 -5.07307 0
M  V30 2702 O 256.16 -2.10485 -5.28852 0
M  V30 2703 N 257.362 -0.277279 -5.79837 0
M  V30 2704 H 260.127 -2.08585 -2.15203 0
M  V30 2705 H 257.688 -1.22672 -1.05656 0
M  V30 2706 H 259.68 -0.387044 -4.02845 0
M  V30 2707 H 258.25 0.166276 -3.12157 0
M  V30 2708 H 257.47 -2.31853 -3.18807 0
M  V30 2709 H 258.758 -2.60187 -4.37241 0
M  V30 2710 H 258.156 0.3122 -5.64838 0
M  V30 2711 H 256.713 -0.0246623 -6.51795 0
M  V30 2712 N 260.146 1.09593 -1.13257 0
M  V30 2713 C 261.386 1.83349 -0.903472 0
M  V30 2714 C 261.75 1.83641 0.560351 0
M  V30 2715 O 262.951 2.53037 0.906947 0
M  V30 2716 C 261.222 3.25629 -1.47311 0
M  V30 2717 S 262.781 4.16408 -1.38382 0
M  V30 2718 H 259.599 0.632014 -0.325699 0
M  V30 2719 H 262.201 1.31817 -1.44376 0
M  V30 2720 H 260.905 3.22991 -2.53189 0
M  V30 2721 H 260.436 3.82233 -0.930689 0
M  V30 2722 H 262.451 4.94884 -0.361113 0
M  V30 2723 N 261.624 0.925811 1.2754 0
M  V30 2724 C 262.574 0.394488 2.24561 0
M  V30 2725 C 263.558 -0.500183 1.52928 0
M  V30 2726 O 264.75 -0.337936 1.73744 0
M  V30 2727 C 261.879 -0.353328 3.41477 0
M  V30 2728 C 260.965 0.557752 4.20416 0
M  V30 2729 N 261.356 1.67674 4.77199 0
M  V30 2730 C 259.654 0.360404 4.44541 0
M  V30 2731 C 260.355 2.24324 5.36706 0
M  V30 2732 N 259.331 1.53305 5.21535 0
M  V30 2733 H 263.133 1.2489 2.66045 0
M  V30 2734 H 260.647 0.779864 1.4245 0
M  V30 2735 H 262.644 -0.7509 4.10082 0
M  V30 2736 H 261.304 -1.20469 3.01525 0
M  V30 2737 H 262.315 2.05915 4.75204 0
M  V30 2738 H 258.992 -0.450454 4.15063 0
M  V30 2739 H 260.382 3.18521 5.91603 0
M  V30 2740 N 263.102 -1.41638 0.69111 0
M  V30 2741 C 264.35 -2.00902 0.219758 0
M  V30 2742 C 264.671 -1.54994 -1.18329 0
M  V30 2743 O 263.941 -0.778628 -1.79762 0
M  V30 2744 H 262.521 -0.74289 0.0782558 0
M  V30 2745 H 265.183 -1.73327 0.891271 0
M  V30 2746 H 264.279 -3.11224 0.233708 0
M  V30 2747 N 264.58 -0.43555 -1.51462 0
M  V30 2748 C 265.512 0.41257 -2.25456 0
M  V30 2749 C 266.525 0.987822 -1.29406 0
M  V30 2750 O 267.714 0.882266 -1.55172 0
M  V30 2751 C 264.814 1.58894 -2.99342 0
M  V30 2752 C 263.987 1.13288 -4.22474 0
M  V30 2753 C 263.046 2.17917 -4.78956 0
M  V30 2754 O 262.072 1.77425 -5.40841 0
M  V30 2755 N 263.274 3.50382 -4.62832 0
M  V30 2756 H 266.039 -0.221603 -2.9888 0
M  V30 2757 H 263.6 -0.264342 -1.59727 0
M  V30 2758 H 265.592 2.28508 -3.34015 0
M  V30 2759 H 264.162 2.12849 -2.28941 0
M  V30 2760 H 263.382 0.263881 -3.93316 0
M  V30 2761 H 264.67 0.805542 -5.02383 0
M  V30 2762 H 264.068 3.86013 -4.13534 0
M  V30 2763 H 262.625 4.15895 -5.01871 0
M  V30 2764 N 266.058 1.56714 -0.166846 0
M  V30 2765 C 267.306 1.96358 0.478305 0
M  V30 2766 C 267.627 1.0537 1.6408 0
M  V30 2767 O 266.897 0.119154 1.95537 0
M  V30 2768 H 265.477 0.725065 0.179692 0
M  V30 2769 H 268.139 1.93329 -0.246985 0
M  V30 2770 H 267.235 3.00547 0.841292 0
M  V30 2771 N 267.536 -0.106894 1.57237 0
M  V30 2772 C 268.947 -0.662723 1.74542 0
M  V30 2773 C 269.298 -1.7971 0.787319 0
M  V30 2774 O 268.423 -2.16368 -0.0369636 0
M  V30 2775 C 269.018 -1.20896 3.16496 0
M  V30 2776 C 267.577 -1.71096 3.35266 0
M  V30 2777 C 266.724 -0.615642 2.7038 0
M  V30 2778 H 269.675 0.119106 1.58252 0
M  V30 2779 H 269.696 -2.07847 3.18716 0
M  V30 2780 H 269.208 -0.383122 3.86204 0
M  V30 2781 H 267.309 -2.56119 2.70618 0
M  V30 2782 H 267.422 -1.81208 4.43509 0
M  V30 2783 H 265.786 -1.05222 2.31949 0
M  V30 2784 H 266.569 0.199419 3.4272 0
M  V30 2785 N 269.014 -1.53014 -0.377408 0
M  V30 2786 C 269.944 -1.81589 -1.46791 0
M  V30 2787 C 270.925 -0.668622 -1.56408 0
M  V30 2788 O 272.11 -0.917337 -1.71168 0
M  V30 2789 C 269.24 -1.99519 -2.8427 0
M  V30 2790 C 268.194 -3.15249 -2.89486 0
M  V30 2791 C 267.52 -3.18451 -4.29527 0
M  V30 2792 C 268.82 -4.54084 -2.58079 0
M  V30 2793 H 270.514 -2.7291 -1.23127 0
M  V30 2794 H 268.06 -1.31319 -0.590883 0
M  V30 2795 H 270.013 -2.18092 -3.60575 0
M  V30 2796 H 268.737 -1.04897 -3.09296 0
M  V30 2797 H 267.396 -2.96477 -2.15631 0
M  V30 2798 H 267.044 -2.2149 -4.5161 0
M  V30 2799 H 266.744 -3.962 -4.33934 0
M  V30 2800 H 268.268 -3.39193 -5.07721 0
M  V30 2801 H 269.682 -4.72899 -3.24098 0
M  V30 2802 H 268.079 -5.33987 -2.7382 0
M  V30 2803 H 269.149 -4.60006 -1.53372 0
M  V30 2804 N 270.492 0.636531 -1.44174 0
M  V30 2805 C 271.455 1.73063 -1.50273 0
M  V30 2806 C 272.455 1.56113 -0.385397 0
M  V30 2807 O 273.645 1.61707 -0.64781 0
M  V30 2808 C 270.777 3.12096 -1.37145 0
M  V30 2809 H 271.97 1.69031 -2.47727 0
M  V30 2810 H 269.523 0.849706 -1.31186 0
M  V30 2811 H 270.258 3.21728 -0.407636 0
M  V30 2812 H 270.043 3.25805 -2.18159 0
M  V30 2813 H 271.533 3.91846 -1.44382 0
M  V30 2814 N 271.97 1.30982 0.876444 0
M  V30 2815 C 272.92 1.14688 1.97055 0
M  V30 2816 C 273.904 0.0596593 1.60789 0
M  V30 2817 O 275.096 0.283892 1.74708 0
M  V30 2818 C 272.225 0.849627 3.3262 0
M  V30 2819 C 271.311 1.97752 3.75173 0
M  V30 2820 N 271.702 3.22384 3.89746 0
M  V30 2821 C 270 1.8758 4.04635 0
M  V30 2822 C 270.701 3.96121 4.25985 0
M  V30 2823 N 269.677 3.24237 4.36315 0
M  V30 2824 H 273.479 2.09204 2.06424 0
M  V30 2825 H 270.993 1.22445 1.06682 0
M  V30 2826 H 272.99 0.713895 4.10742 0
M  V30 2827 H 271.65 -0.087376 3.24582 0
M  V30 2828 H 272.661 3.57575 3.74647 0
M  V30 2829 H 269.338 1.01303 4.05024 0
M  V30 2830 H 270.728 5.03491 4.44911 0
M  V30 2831 N 273.449 -1.08991 1.13837 0
M  V30 2832 C 274.382 -2.15049 0.763477 0
M  V30 2833 C 275.36 -1.60629 -0.252398 0
M  V30 2834 O 276.544 -1.87958 -0.142853 0
M  V30 2835 C 273.671 -3.38441 0.132545 0
M  V30 2836 C 272.717 -4.11596 1.11763 0
M  V30 2837 S 273.55 -4.6521 2.65216 0
M  V30 2838 C 274.706 -5.91896 2.03495 0
M  V30 2839 H 274.939 -2.46518 1.66182 0
M  V30 2840 H 272.472 -1.21008 0.958976 0
M  V30 2841 H 274.43 -4.09883 -0.225074 0
M  V30 2842 H 273.091 -3.05182 -0.743135 0
M  V30 2843 H 272.284 -5.00121 0.624076 0
M  V30 2844 H 271.886 -3.46038 1.41894 0
M  V30 2845 H 274.178 -6.63156 1.38675 0
M  V30 2846 H 275.121 -6.45938 2.9012 0
M  V30 2847 H 275.529 -5.44625 1.48471 0
M  V30 2848 N 274.927 -0.932562 -1.27047 0
M  V30 2849 C 276.338 -0.619451 -1.76124 0
M  V30 2850 C 276.689 0.865397 -1.76083 0
M  V30 2851 O 275.814 1.67722 -1.36742 0
M  V30 2852 C 276.409 -1.11771 -3.19832 0
M  V30 2853 C 274.968 -0.855174 -3.66557 0
M  V30 2854 C 274.115 -1.27362 -2.46321 0
M  V30 2855 H 277.066 -1.11181 -1.13245 0
M  V30 2856 H 277.087 -0.46759 -3.77616 0
M  V30 2857 H 276.599 -2.19842 -3.1983 0
M  V30 2858 H 274.7 0.211524 -3.71999 0
M  V30 2859 H 274.813 -1.47613 -4.55793 0
M  V30 2860 H 273.177 -0.692119 -2.45116 0
M  V30 2861 H 273.96 -2.36307 -2.49025 0
M  V30 2862 N 276.405 1.4127 -0.698611 0
M  V30 2863 C 277.353 2.32588 -0.023855 0
M  V30 2864 C 278.347 1.51128 0.765292 0
M  V30 2865 O 279.553 1.67043 0.670571 0
M  V30 2866 H 275.928 0.751918 0.0110871 0
M  V30 2867 H 277.899 2.87167 -0.811031 0
M  V30 2868 C 276.648 3.35947 0.896369 0
M  V30 2869 H 275.971 3.98684 0.298548 0
M  V30 2870 H 277.411 4.02376 1.33676 0
M  V30 2871 C 275.87 2.70076 2.01396 0
M  V30 2872 O 276.4 2.55093 3.10307 0
M  V30 2873 N 274.606 2.28724 1.79259 0
M  V30 2874 H 274.153 2.4111 0.906841 0
M  V30 2875 H 274.111 1.84986 2.54219 0
M  V30 2876 N 277.883 0.443576 1.51229 0
M  V30 2877 C 278.846 -0.353132 2.26463 0
M  V30 2878 C 279.846 -0.944338 1.3015 0
M  V30 2879 O 281.036 -0.817813 1.5381 0
M  V30 2880 C 278.168 -1.50023 3.06114 0
M  V30 2881 H 279.361 0.3063 2.98332 0
M  V30 2882 H 276.914 0.196902 1.55055 0
M  V30 2883 H 277.649 -2.19553 2.38677 0
M  V30 2884 H 277.434 -1.08241 3.76864 0
M  V30 2885 H 278.924 -2.06296 3.63087 0
M  V30 2886 N 279.361 -1.56624 0.175154 0
M  V30 2887 C 280.586 -2.01813 -0.478137 0
M  V30 2888 C 281.011 -1.05457 -1.55757 0
M  V30 2889 O 280.369 -0.0347439 -1.81267 0
M  V30 2890 C 280.417 -3.45581 -1.02987 0
M  V30 2891 O 279.521 -3.52305 -2.14371 0
M  V30 2892 H 278.862 -0.65413 -0.114059 0
M  V30 2893 H 281.392 -2.02673 0.280173 0
M  V30 2894 H 281.402 -3.84965 -1.35151 0
M  V30 2895 H 280.077 -4.1521 -0.239556 0
M  V30 2896 H 278.654 -3.24783 -1.83222 0
M  V30 2897 N 280.839 0.0985539 -1.57292 0
M  V30 2898 C 282.079 0.808332 -1.87737 0
M  V30 2899 C 282.443 1.7607 -0.76572 0
M  V30 2900 O 283.644 2.51358 -0.952499 0
M  V30 2901 C 281.915 1.52093 -3.23423 0
M  V30 2902 S 283.474 2.26947 -3.75554 0
M  V30 2903 H 280.292 0.269377 -0.657995 0
M  V30 2904 H 282.894 0.0656269 -1.9539 0
M  V30 2905 H 281.598 0.81363 -4.02254 0
M  V30 2906 H 281.129 2.30361 -3.189 0
M  V30 2907 H 283.144 3.53027 -3.48692 0
M  V30 2908 N 282.317 1.53212 0.369288 0
M  V30 2909 C 283.565 1.68881 1.11012 0
M  V30 2910 C 283.886 0.441285 1.89941 0
M  V30 2911 O 283.156 -0.544623 1.88177 0
M  V30 2912 H 281.736 0.622569 0.412816 0
M  V30 2913 H 284.398 1.90391 0.416802 0
M  V30 2914 H 283.494 2.54822 1.80201 0
M  V30 2915 N 283.795 -0.628877 1.44509 0
M  V30 2916 C 285.041 -1.39045 1.47629 0
M  V30 2917 C 285.374 -1.93892 0.109343 0
M  V30 2918 O 284.649 -1.7379 -0.87334 0
M  V30 2919 C 284.932 -2.55408 2.53848 0
M  V30 2920 C 284.785 -2.05896 3.99909 0
M  V30 2921 C 286.104 -3.5759 2.56549 0
M  V30 2922 H 283.223 -0.504232 0.537512 0
M  V30 2923 H 285.865 -0.710854 1.76201 0
M  V30 2924 H 284.015 -3.13384 2.29615 0
M  V30 2925 H 285.687 -1.52734 4.35282 0
M  V30 2926 H 283.93 -1.37061 4.11578 0
M  V30 2927 H 284.601 -2.89681 4.69882 0
M  V30 2928 H 287.077 -3.09419 2.78207 0
M  V30 2929 H 285.953 -4.36527 3.32769 0
M  V30 2930 H 286.214 -4.11808 1.60832 0
M  V30 2931 N 285.273 -1.31445 -0.869486 0
M  V30 2932 C 286.684 -1.19042 -1.43826 0
M  V30 2933 C 287.035 0.202919 -1.95148 0
M  V30 2934 O 286.16 1.10071 -1.86315 0
M  V30 2935 C 286.755 -2.15499 -2.6143 0
M  V30 2936 C 285.314 -2.07028 -3.14351 0
M  V30 2937 C 284.461 -2.04701 -1.87063 0
M  V30 2938 H 287.412 -1.43489 -0.677984 0
M  V30 2939 H 287.433 -1.74488 -3.38134 0
M  V30 2940 H 286.945 -3.16899 -2.24046 0
M  V30 2941 H 285.046 -1.08825 -3.56354 0
M  V30 2942 H 285.159 -2.96157 -3.766 0
M  V30 2943 H 283.523 -1.49724 -2.06046 0
M  V30 2944 H 284.306 -3.07857 -1.51917 0
M  V30 2945 N 286.751 1.08385 -1.14413 0
M  V30 2946 C 287.979 1.84517 -0.936001 0
M  V30 2947 C 288.394 1.81626 0.515503 0
M  V30 2948 O 287.751 1.22008 1.35721 0
M  V30 2949 C 287.802 3.32049 -1.42918 0
M  V30 2950 O 287.523 3.34951 -2.82381 0
M  V30 2951 C 289.024 4.24986 -1.26103 0
M  V30 2952 H 286.244 0.582491 -0.333084 0
M  V30 2953 H 288.788 1.36885 -1.5193 0
M  V30 2954 H 286.943 3.7707 -0.888641 0
M  V30 2955 H 287.357 4.27048 -3.04517 0
M  V30 2956 H 288.831 5.26615 -1.6547 0
M  V30 2957 H 289.308 4.38726 -0.20392 0
M  V30 2958 H 289.914 3.85791 -1.79012 0
M  V30 2959 N 288.23 0.939286 1.26551 0
M  V30 2960 C 289.16 0.465044 2.28822 0
M  V30 2961 C 290.141 -0.480692 1.63167 0
M  V30 2962 O 291.326 -0.382955 1.90387 0
M  V30 2963 C 288.456 -0.27234 3.46231 0
M  V30 2964 C 287.41 0.58666 4.2396 0
M  V30 2965 C 286.736 -0.280573 5.33963 0
M  V30 2966 C 288.036 1.85704 4.88171 0
M  V30 2967 H 289.73 1.31979 2.68741 0
M  V30 2968 H 287.276 0.636061 1.29191 0
M  V30 2969 H 289.229 -0.615133 4.16886 0
M  V30 2970 H 287.953 -1.16121 3.0526 0
M  V30 2971 H 286.612 0.91232 3.55067 0
M  V30 2972 H 286.26 -1.16874 4.89234 0
M  V30 2973 H 285.96 0.29076 5.8688 0
M  V30 2974 H 287.484 -0.618678 6.07458 0
M  V30 2975 H 288.898 1.58161 5.51052 0
M  V30 2976 H 287.295 2.37279 5.51197 0
M  V30 2977 H 288.365 2.56957 4.11219 0
M  V30 2978 N 289.708 -1.40897 0.706093 0
M  V30 2979 C 290.655 -2.30751 0.0474474 0
M  V30 2980 C 291.625 -1.47678 -0.76029 0
M  V30 2981 O 292.81 -1.76441 -0.726177 0
M  V30 2982 C 289.95 -3.33815 -0.875309 0
M  V30 2983 C 289.063 -4.31961 -0.0580623 0
M  V30 2984 C 288.198 -5.22093 -0.979425 0
M  V30 2985 C 287.237 -6.11902 -0.155706 0
M  V30 2986 N 286.374 -6.94482 -1.03144 0
M  V30 2987 H 291.214 -2.86513 0.819413 0
M  V30 2988 H 288.751 -1.41102 0.415783 0
M  V30 2989 H 290.709 -3.92129 -1.42446 0
M  V30 2990 H 289.339 -2.79579 -1.61356 0
M  V30 2991 H 288.391 -3.75507 0.608147 0
M  V30 2992 H 289.703 -4.95415 0.580082 0
M  V30 2993 H 288.857 -5.85292 -1.59744 0
M  V30 2994 H 287.596 -4.5889 -1.65141 0
M  V30 2995 H 286.601 -5.47742 0.475309 0
M  V30 2996 H 287.826 -6.77162 0.512635 0
M  V30 2997 H 285.772 -6.33877 -1.68924 0
M  V30 2998 H 285.689 -7.54665 -0.449108 0
M  V30 2999 H 286.957 -7.6214 -1.63593 0
M  V30 3000 N 291.186 -0.45159 -1.50991 0
M  V30 3001 C 292.432 0.110237 -2.025 0
M  V30 3002 C 292.765 1.41109 -1.33424 0
M  V30 3003 O 292.04 1.89135 -0.453659 0
M  V30 3004 C 292.323 0.314271 -3.58726 0
M  V30 3005 C 292.176 -1.00623 -4.38401 0
M  V30 3006 C 293.495 1.07767 -4.26702 0
M  V30 3007 H 290.614 0.0385897 -0.735989 0
M  V30 3008 H 293.256 -0.593374 -1.80497 0
M  V30 3009 H 291.406 0.913601 -3.77605 0
M  V30 3010 H 293.078 -1.64064 -4.31139 0
M  V30 3011 H 291.321 -1.6075 -4.02917 0
M  V30 3012 H 291.992 -0.817341 -5.45915 0
M  V30 3013 H 294.468 0.56986 -4.12179 0
M  V30 3014 H 293.344 1.18921 -5.35863 0
M  V30 3015 H 293.605 2.10939 -3.88532 0
M  V30 3016 N 292.664 1.56529 -0.183458 0
M  V30 3017 C 293.596 2.15747 0.773697 0
M  V30 3018 C 294.609 1.1162 1.1851 0
M  V30 3019 O 295.798 1.3876 1.12285 0
M  V30 3020 C 292.898 2.6952 2.05456 0
M  V30 3021 C 292.071 3.98429 1.8048 0
M  V30 3022 C 291.13 4.37145 2.92901 0
M  V30 3023 O 290.156 5.04791 2.6301 0
M  V30 3024 N 291.358 3.99695 4.2098 0
M  V30 3025 H 294.123 2.98505 0.26736 0
M  V30 3026 H 291.684 1.619 -0.0010878 0
M  V30 3027 H 293.676 2.92412 2.79781 0
M  V30 3028 H 292.246 1.91282 2.47245 0
M  V30 3029 H 291.466 3.8379 0.899947 0
M  V30 3030 H 292.754 4.82597 1.61175 0
M  V30 3031 H 292.152 3.4526 4.48121 0
M  V30 3032 H 290.709 4.27562 4.9197 0
M  V30 3033 N 294.142 -0.090211 1.57342 0
M  V30 3034 C 295.388 -0.793982 1.86611 0
M  V30 3035 C 295.721 -1.78142 0.773252 0
M  V30 3036 O 294.996 -1.93271 -0.218304 0
M  V30 3037 C 295.279 -1.51839 3.26523 0
M  V30 3038 C 295.132 -0.548609 4.46442 0
M  V30 3039 C 296.451 -2.46779 3.64401 0
M  V30 3040 H 293.57 -0.287186 0.678744 0
M  V30 3041 H 296.212 -0.0575076 1.89913 0
M  V30 3042 H 294.362 -2.14617 3.23839 0
M  V30 3043 H 296.034 0.0725513 4.61243 0
M  V30 3044 H 294.277 0.137614 4.33582 0
M  V30 3045 H 294.948 -1.09271 5.41076 0
M  V30 3046 H 297.424 -1.94089 3.68061 0
M  V30 3047 H 296.3 -2.94479 4.63221 0
M  V30 3048 H 296.561 -3.30758 2.93346 0
M  V30 3049 N 295.62 -1.53406 -0.361157 0
M  V30 3050 C 297.031 -1.61442 -0.937728 0
M  V30 3051 C 297.382 -0.48461 -1.90121 0
M  V30 3052 O 296.507 0.388312 -2.12888 0
M  V30 3053 C 297.102 -2.92624 -1.70753 0
M  V30 3054 C 295.661 -3.02981 -2.23337 0
M  V30 3055 C 294.808 -2.5677 -1.04712 0
M  V30 3056 H 297.759 -1.58083 -0.139816 0
M  V30 3057 H 297.78 -2.80675 -2.56908 0
M  V30 3058 H 297.292 -3.74834 -1.00604 0
M  V30 3059 H 295.393 -2.25368 -2.96715 0
M  V30 3060 H 295.506 -4.0814 -2.50916 0
M  V30 3061 H 293.87 -2.11752 -1.41539 0
M  V30 3062 H 294.653 -3.41402 -0.360539 0
M  V30 3063 N 297.098 0.621204 -1.44841 0
M  V30 3064 C 298.046 1.75385 -1.52784 0
M  V30 3065 C 299.04 1.64639 -0.398779 0
M  V30 3066 O 300.246 1.70598 -0.574137 0
M  V30 3067 H 296.621 0.579193 -0.479625 0
M  V30 3068 H 298.592 1.6581 -2.48092 0
M  V30 3069 C 297.341 3.13742 -1.4987 0
M  V30 3070 H 296.664 3.22663 -2.36069 0
M  V30 3071 H 298.104 3.92861 -1.59487 0
M  V30 3072 C 296.563 3.36175 -0.220973 0
M  V30 3073 O 297.093 3.95469 0.704782 0
M  V30 3074 N 295.299 2.90348 -0.120963 0
M  V30 3075 H 294.846 2.42278 -0.875162 0
M  V30 3076 H 294.804 3.05732 0.733168 0
M  V30 3077 N 298.576 1.31904 0.862503 0
M  V30 3078 C 299.539 1.20131 1.95195 0
M  V30 3079 C 300.539 0.126409 1.60302 0
M  V30 3080 O 301.729 0.376234 1.70089 0
M  V30 3081 C 298.861 0.845691 3.30244 0
M  V30 3082 H 300.054 2.16943 2.07064 0
M  V30 3083 H 297.607 1.15622 1.05172 0
M  V30 3084 H 298.342 -0.120957 3.24074 0
M  V30 3085 H 298.127 1.62276 3.56944 0
M  V30 3086 H 299.617 0.787418 4.10109 0
M  V30 3087 N 300.054 -1.07777 1.14986 0
M  V30 3088 C 301.279 -1.84558 0.946213 0
M  V30 3089 C 301.704 -1.81323 -0.500362 0
M  V30 3090 O 301.062 -1.20301 -1.35637 0
M  V30 3091 C 301.11 -3.29736 1.45968 0
M  V30 3092 O 300.214 -4.07149 0.65601 0
M  V30 3093 H 299.555 -0.571641 0.33782 0
M  V30 3094 H 302.085 -1.35991 1.52865 0
M  V30 3095 H 302.095 -3.80574 1.47063 0
M  V30 3096 H 300.77 -3.31406 2.51283 0
M  V30 3097 H 299.347 -3.65994 0.714322 0
M  V30 3098 N 301.532 -0.945985 -1.26051 0
M  V30 3099 C 302.778 -0.597002 -1.93814 0
M  V30 3100 C 303.111 0.862484 -1.73997 0
M  V30 3101 O 302.386 1.61769 -1.07986 0
M  V30 3102 C 302.669 -0.945937 -3.47454 0
M  V30 3103 C 302.522 -2.46052 -3.76535 0
M  V30 3104 C 303.841 -0.464785 -4.37639 0
M  V30 3105 H 300.96 -0.218366 -0.703907 0
M  V30 3106 H 303.602 -1.18107 -1.48831 0
M  V30 3107 H 301.752 -0.448902 -3.85898 0
M  V30 3108 H 303.424 -3.03065 -3.47778 0
M  V30 3109 H 301.667 -2.90194 -3.22444 0
M  V30 3110 H 302.338 -2.65517 -4.83947 0
M  V30 3111 H 304.814 -0.891016 -4.06448 0
M  V30 3112 H 303.69 -0.737712 -5.4392 0
M  V30 3113 H 303.951 0.635274 -4.37512 0
M  V30 3114 N 303.011 1.40521 -0.713556 0
M  V30 3115 C 304.288 1.94775 -0.17943 0
M  V30 3116 C 304.668 1.65184 1.31444 0
M  V30 3117 O 304.016 0.968429 2.06963 0
M  V30 3118 C 304.226 3.45543 -0.489986 0
M  V30 3119 C 305.574 4.22442 -0.427536 0
M  V30 3120 O 306.598 3.53644 -0.425929 0
M  V30 3121 O 305.457 5.4501 -0.403292 0
M  V30 3122 H 302.551 0.826606 -0.0255192 0
M  V30 3123 H 305.097 1.5014 -0.790949 0
M  V30 3124 H 303.869 3.60432 -1.5233 0
M  V30 3125 H 303.492 3.97311 0.151598 0
M  V30 3126 N 304.489 0.459591 1.5075 0
M  V30 3127 C 305.735 -0.0994966 2.02556 0
M  V30 3128 C 306.068 -1.40399 1.3417 0
M  V30 3129 O 305.343 -1.88892 0.463683 0
M  V30 3130 C 305.626 -0.295242 3.58888 0
M  V30 3131 C 305.479 1.02947 4.37861 0
M  V30 3132 C 306.798 -1.05502 4.27267 0
M  V30 3133 H 303.917 -0.034686 0.736183 0
M  V30 3134 H 306.559 0.602938 1.8018 0
M  V30 3135 H 304.709 -0.893563 3.78084 0
M  V30 3136 H 306.381 1.66348 4.30263 0
M  V30 3137 H 304.624 1.62885 4.02058 0
M  V30 3138 H 305.295 0.846281 5.45474 0
M  V30 3139 H 307.771 -0.547993 4.12476 0
M  V30 3140 H 306.647 -1.16077 5.36486 0
M  V30 3141 H 306.908 -2.08875 3.89645 0
M  V30 3142 N 305.967 -1.56429 0.191757 0
M  V30 3143 C 307.215 -1.97095 -0.447006 0
M  V30 3144 C 307.536 -1.07967 -1.62383 0
M  V30 3145 O 306.806 -0.150248 -1.95323 0
M  V30 3146 H 305.386 -0.727832 -0.168135 0
M  V30 3147 H 308.048 -1.92911 0.27771 0
M  V30 3148 H 307.144 -3.01848 -0.793371 0
M  V30 3149 N 307.445 0.0818655 -1.57387 0
M  V30 3150 C 308.722 0.815343 -1.77796 0
M  V30 3151 C 309.102 1.96289 -0.77679 0
M  V30 3152 O 308.45 2.27691 0.192106 0
M  V30 3153 C 308.66 1.29765 -3.23978 0
M  V30 3154 C 310.008 1.7351 -3.8753 0
M  V30 3155 O 311.032 1.39356 -3.27808 0
M  V30 3156 O 309.891 2.36708 -4.92576 0
M  V30 3157 H 306.985 0.389914 -0.729312 0
M  V30 3158 H 309.531 0.0627213 -1.69584 0
M  V30 3159 H 308.303 0.47608 -3.88393 0
M  V30 3160 H 307.926 2.11189 -3.36875 0
M  V30 3161 N 308.923 1.53595 0.353017 0
M  V30 3162 C 310.2 1.61002 1.11075 0
M  V30 3163 C 310.58 0.425356 2.0677 0
M  V30 3164 O 309.928 -0.583267 2.2093 0
M  V30 3165 C 310.138 2.96631 1.83877 0
M  V30 3166 C 311.486 3.51653 2.37961 0
M  V30 3167 O 312.51 2.98743 1.93987 0
M  V30 3168 O 311.369 4.44177 3.18386 0
M  V30 3169 H 308.463 0.650825 0.510251 0
M  V30 3170 H 311.009 1.6594 0.35527 0
M  V30 3171 H 309.781 3.74293 1.14108 0
M  V30 3172 H 309.404 2.95242 2.66304 0
M  V30 3173 N 310.401 -0.613514 1.45168 0
M  V30 3174 C 311.647 -1.37471 1.49096 0
M  V30 3175 C 311.98 -1.93765 0.129901 0
M  V30 3176 O 311.255 -1.74707 -0.854858 0
M  V30 3177 C 311.538 -2.52701 2.56542 0
M  V30 3178 C 311.391 -2.01643 4.0207 0
M  V30 3179 C 312.71 -3.54849 2.60327 0
M  V30 3180 H 309.829 -0.498502 0.54283 0
M  V30 3181 H 312.471 -0.692125 1.76945 0
M  V30 3182 H 310.621 -3.10931 2.32926 0
M  V30 3183 H 312.293 -1.48108 4.36877 0
M  V30 3184 H 310.536 -1.32688 4.13009 0
M  V30 3185 H 311.207 -2.84681 4.72928 0
M  V30 3186 H 313.683 -3.0645 2.81474 0
M  V30 3187 H 312.559 -4.32973 3.37381 0
M  V30 3188 H 312.82 -4.10079 1.6519 0
M  V30 3189 N 311.879 -1.3236 -0.855495 0
M  V30 3190 C 312.809 -1.23833 -1.97958 0
M  V30 3191 C 313.79 -0.122361 -1.69659 0
M  V30 3192 O 314.975 -0.30939 -1.9172 0
M  V30 3193 C 312.105 -0.959772 -3.33775 0
M  V30 3194 C 311.059 -2.03689 -3.76424 0
M  V30 3195 C 310.385 -1.61075 -5.09862 0
M  V30 3196 C 311.685 -3.4518 -3.9198 0
M  V30 3197 H 313.379 -2.1788 -2.0535 0
M  V30 3198 H 310.925 -1.04891 -0.986605 0
M  V30 3199 H 312.878 -0.886678 -4.11966 0
M  V30 3200 H 311.602 0.0163404 -3.26596 0
M  V30 3201 H 310.261 -2.10012 -3.00484 0
M  V30 3202 H 309.909 -0.622107 -4.99138 0
M  V30 3203 H 309.609 -2.33143 -5.39368 0
M  V30 3204 H 311.133 -1.55201 -5.90546 0
M  V30 3205 H 312.547 -3.4145 -4.60526 0
M  V30 3206 H 310.944 -4.1559 -4.32903 0
M  V30 3207 H 312.014 -3.84903 -2.94919 0
M  V30 3208 N 313.357 1.07166 -1.15556 0
M  V30 3209 C 314.287 2.16403 -0.877046 0
M  V30 3210 C 315.268 1.69217 0.173111 0
M  V30 3211 O 316.453 1.94181 0.027084 0
M  V30 3212 C 313.583 3.45349 -0.367632 0
M  V30 3213 C 312.537 4.05995 -1.35468 0
M  V30 3214 C 311.863 5.30045 -0.704038 0
M  V30 3215 C 313.163 4.45804 -2.72132 0
M  V30 3216 H 314.857 2.39959 -1.79053 0
M  V30 3217 H 312.403 1.15325 -0.862331 0
M  V30 3218 H 314.356 4.21095 -0.160317 0
M  V30 3219 H 313.08 3.21385 0.581326 0
M  V30 3220 H 311.739 3.32296 -1.54839 0
M  V30 3221 H 311.387 5.02373 0.251128 0
M  V30 3222 H 311.087 5.71579 -1.36277 0
M  V30 3223 H 312.611 6.08495 -0.50654 0
M  V30 3224 H 314.025 5.12671 -2.56595 0
M  V30 3225 H 312.422 4.98296 -3.34397 0
M  V30 3226 H 313.492 3.57083 -3.28054 0
M  V30 3227 N 314.835 0.952656 1.25548 0
M  V30 3228 C 316.251 0.656769 1.4546 0
M  V30 3229 C 316.451 -0.78633 1.85524 0
M  V30 3230 O 315.507 -1.56183 1.98402 0
M  V30 3231 C 316.82 1.62801 2.52817 0
M  V30 3232 C 318.368 1.63897 2.66659 0
M  V30 3233 C 318.843 2.5978 3.77198 0
M  V30 3234 N 320.334 2.58133 3.84606 0
M  V30 3235 C 321.069 3.29003 4.69621 0
M  V30 3236 N 320.565 4.09339 5.58939 0
M  V30 3237 N 322.358 3.179 4.63569 0
M  V30 3238 H 314.509 1.88526 0.978344 0
M  V30 3239 H 316.772 0.810815 0.491206 0
M  V30 3240 H 316.478 2.65869 2.30232 0
M  V30 3241 H 316.352 1.38898 3.50695 0
M  V30 3242 H 318.739 0.615481 2.8861 0
M  V30 3243 H 318.82 1.91858 1.69187 0
M  V30 3244 H 318.464 3.62254 3.55997 0
M  V30 3245 H 318.394 2.29105 4.7415 0
M  V30 3246 H 320.885 1.99809 3.20757 0
M  V30 3247 H 321.198 4.6034 6.20731 0
M  V30 3248 H 319.543 4.13438 5.58654 0
M  V30 3249 H 322.734 2.54612 3.92798 0
M  V30 3250 H 322.907 3.73398 5.29602 0
M  V30 3251 N 316.313 -1.40141 0.720998 0
M  V30 3252 C 317.553 -2.02644 0.267335 0
M  V30 3253 C 317.917 -1.55948 -1.12001 0
M  V30 3254 O 319.118 -2.10552 -1.67097 0
M  V30 3255 C 317.389 -3.55679 0.350281 0
M  V30 3256 S 318.948 -4.38793 -0.0256004 0
M  V30 3257 H 315.766 -0.703105 0.105664 0
M  V30 3258 H 318.368 -1.71175 0.944416 0
M  V30 3259 H 317.072 -3.87157 1.36153 0
M  V30 3260 H 316.603 -3.91883 -0.345096 0
M  V30 3261 H 318.618 -4.803 -1.24604 0
M  V30 3262 N 317.792 -0.46758 -1.50504 0
M  V30 3263 C 318.724 0.364655 -2.26281 0
M  V30 3264 C 319.737 0.960151 -1.31472 0
M  V30 3265 O 320.926 0.849153 -1.57008 0
M  V30 3266 C 318.026 1.52509 -3.02645 0
M  V30 3267 C 317.199 1.04302 -4.24782 0
M  V30 3268 C 316.258 2.07709 -4.8347 0
M  V30 3269 O 315.284 1.65913 -5.44483 0
M  V30 3270 N 316.486 3.40485 -4.70159 0
M  V30 3271 H 319.251 -0.28495 -2.98342 0
M  V30 3272 H 316.812 -0.298163 -1.59131 0
M  V30 3273 H 318.804 2.21371 -3.38787 0
M  V30 3274 H 317.374 2.07945 -2.33404 0
M  V30 3275 H 316.594 0.180393 -3.93787 0
M  V30 3276 H 317.882 0.698798 -5.03978 0
M  V30 3277 H 317.28 3.77155 -4.21629 0
M  V30 3278 H 315.837 4.05156 -5.1058 0
M  V30 3279 N 319.27 1.56325 -0.20005 0
M  V30 3280 C 320.516 1.98012 0.438059 0
M  V30 3281 C 320.849 1.08702 1.60927 0
M  V30 3282 O 320.124 0.140064 1.93995 0
M  V30 3283 C 320.407 3.48841 0.893419 0
M  V30 3284 C 320.26 4.48928 -0.279947 0
M  V30 3285 C 321.579 4.03498 1.75719 0
M  V30 3286 H 318.698 0.719918 0.157757 0
M  V30 3287 H 321.34 1.87743 -0.291968 0
M  V30 3288 H 319.49 3.57723 1.51547 0
M  V30 3289 H 321.162 4.52079 -0.91772 0
M  V30 3290 H 319.405 4.23694 -0.930919 0
M  V30 3291 H 320.076 5.5194 0.0812601 0
M  V30 3292 H 322.552 3.97427 1.23253 0
M  V30 3293 H 321.428 5.09393 2.04476 0
M  V30 3294 H 321.689 3.4906 2.71311 0
M  V30 3295 N 320.748 -0.0735177 1.57428 0
M  V30 3296 C 321.658 -1.10547 2.06922 0
M  V30 3297 C 322.674 -1.42506 0.998402 0
M  V30 3298 O 323.85 -1.52717 1.31299 0
M  V30 3299 C 320.915 -2.40019 2.50184 0
M  V30 3300 C 319.976 -2.15046 3.71556 0
M  V30 3301 C 319.209 -3.38345 4.12745 0
M  V30 3302 O 319.432 -4.47399 3.53822 0
M  V30 3303 O 318.366 -3.2666 5.05546 0
M  V30 3304 H 322.192 -0.715013 2.95163 0
M  V30 3305 H 319.777 -0.287531 1.46607 0
M  V30 3306 H 321.659 -3.16218 2.78539 0
M  V30 3307 H 320.334 -2.78447 1.65072 0
M  V30 3308 H 319.241 -1.36558 3.48285 0
M  V30 3309 H 320.574 -1.81499 4.57514 0
M  V30 3310 N 322.226 -1.5378 -0.344866 0
M  V30 3311 C 323.474 -1.70625 -1.08311 0
M  V30 3312 C 323.795 -0.471447 -1.89215 0
M  V30 3313 O 323.065 0.514616 -1.8902 0
M  V30 3314 H 321.645 -0.629058 -0.402859 0
M  V30 3315 H 324.307 -1.9103 -0.386459 0
M  V30 3316 H 323.403 -2.57656 -1.76124 0
M  V30 3317 N 323.704 0.605807 -1.45491 0
M  V30 3318 C 325.12 0.926751 -1.29936 0
M  V30 3319 C 325.32 1.99896 -0.253706 0
M  V30 3320 O 324.376 2.50038 0.351737 0
M  V30 3321 C 325.689 1.36599 -2.67883 0
M  V30 3322 C 327.237 1.4801 -2.75793 0
M  V30 3323 C 327.712 1.95309 -4.14268 0
M  V30 3324 N 329.203 2.0254 -4.16571 0
M  V30 3325 C 329.938 2.40363 -5.20589 0
M  V30 3326 N 329.434 2.77143 -6.34952 0
M  V30 3327 N 331.227 2.40718 -5.07948 0
M  V30 3328 H 323.378 -0.102862 -2.12151 0
M  V30 3329 H 325.641 0.016639 -0.947854 0
M  V30 3330 H 325.347 0.652306 -3.45598 0
M  V30 3331 H 325.221 2.33215 -2.96463 0
M  V30 3332 H 327.608 2.1847 -1.98381 0
M  V30 3333 H 327.689 0.497041 -2.50925 0
M  V30 3334 H 327.333 1.25436 -4.92167 0
M  V30 3335 H 327.263 2.94532 -4.3653 0
M  V30 3336 H 329.754 1.76699 -3.34045 0
M  V30 3337 H 330.067 3.0489 -7.10114 0
M  V30 3338 H 328.412 2.74834 -6.3835 0
M  V30 3339 H 331.603 2.11392 -4.1765 0
M  V30 3340 H 331.776 2.69869 -5.89131 0
M  V30 3341 N 325.182 1.32811 0.848464 0
M  V30 3342 C 326.43 1.23479 1.59991 0
M  V30 3343 C 326.751 -0.201853 1.93952 0
M  V30 3344 O 326.021 -1.12818 1.60153 0
M  V30 3345 H 324.601 0.454034 0.593179 0
M  V30 3346 H 327.263 1.66412 1.01455 0
M  V30 3347 H 326.359 1.82178 2.53412 0
M  V30 3348 N 326.66 -1.06551 1.16123 0
M  V30 3349 C 327.59 -2.15935 0.88851 0
M  V30 3350 C 328.571 -1.69306 -0.164135 0
M  V30 3351 O 329.756 -1.94193 -0.0167857 0
M  V30 3352 C 326.886 -3.45149 0.385942 0
M  V30 3353 C 325.84 -4.05271 1.3762 0
M  V30 3354 C 325.166 -5.29664 0.732137 0
M  V30 3355 C 326.466 -4.44355 2.74493 0
M  V30 3356 H 328.16 -2.39006 1.80323 0
M  V30 3357 H 325.706 -1.14866 0.868435 0
M  V30 3358 H 327.659 -4.21004 0.182647 0
M  V30 3359 H 326.383 -3.21689 -0.564274 0
M  V30 3360 H 325.042 -3.3147 1.56599 0
M  V30 3361 H 324.69 -5.02499 -0.224483 0
M  V30 3362 H 324.39 -5.70848 1.39307 0
M  V30 3363 H 325.914 -6.08218 0.538802 0
M  V30 3364 H 327.328 -5.11303 2.59311 0
M  V30 3365 H 325.725 -4.96515 3.37035 0
M  V30 3366 H 326.795 -3.55339 3.29943 0
M  V30 3367 N 328.138 -0.959301 -1.25041 0
M  V30 3368 C 329.048 -0.489994 -2.29426 0
M  V30 3369 C 330.064 0.444944 -1.68215 0
M  V30 3370 O 331.24 0.320046 -1.98841 0
M  V30 3371 C 328.305 0.220309 -3.45999 0
M  V30 3372 C 327.366 -0.753418 -4.22637 0
M  V30 3373 C 326.599 -0.076918 -5.33645 0
M  V30 3374 O 326.822 1.13649 -5.58963 0
M  V30 3375 O 325.756 -0.764824 -5.97021 0
M  V30 3376 H 329.582 -1.35755 -2.71669 0
M  V30 3377 H 327.167 -0.725961 -1.30576 0
M  V30 3378 H 329.049 0.619677 -4.16819 0
M  V30 3379 H 327.724 1.06296 -3.0575 0
M  V30 3380 H 326.631 -1.20308 -3.54227 0
M  V30 3381 H 327.964 -1.56423 -4.66683 0
M  V30 3382 N 329.616 1.39756 -0.72842 0
M  V30 3383 C 330.548 2.29157 -0.0446202 0
M  V30 3384 C 331.561 1.46484 0.710367 0
M  V30 3385 O 332.75 1.69632 0.55562 0
M  V30 3386 C 329.85 3.24987 0.961071 0
M  V30 3387 C 329.023 4.36572 0.268967 0
M  V30 3388 C 328.082 5.12756 1.18184 0
M  V30 3389 O 327.108 5.6534 0.661794 0
M  V30 3390 N 328.31 5.23331 2.51206 0
M  V30 3391 H 331.075 2.88482 -0.812295 0
M  V30 3392 H 328.636 1.51265 -0.577098 0
M  V30 3393 H 330.628 3.72827 1.57423 0
M  V30 3394 H 329.198 2.66739 1.63 0
M  V30 3395 H 328.418 3.90694 -0.524574 0
M  V30 3396 H 329.706 5.08363 -0.210934 0
M  V30 3397 H 329.104 4.82116 2.9594 0
M  V30 3398 H 327.661 5.74634 3.07634 0
M  V30 3399 N 331.094 0.475555 1.50254 0
M  V30 3400 C 332.057 -0.305016 2.27161 0
M  V30 3401 C 333.057 -0.916519 1.32123 0
M  V30 3402 O 334.247 -0.785003 1.5551 0
M  V30 3403 C 331.379 -1.43496 3.09227 0
M  V30 3404 H 332.572 0.369511 2.97615 0
M  V30 3405 H 330.125 0.229747 1.54602 0
M  V30 3406 H 330.86 -2.14441 2.43281 0
M  V30 3407 H 330.645 -1.00223 3.79075 0
M  V30 3408 H 332.135 -1.98548 3.67381 0
M  V30 3409 N 332.573 -1.56217 0.208337 0
M  V30 3410 C 333.821 -1.97558 -0.426076 0
M  V30 3411 C 334.142 -1.09683 -1.61229 0
M  V30 3412 O 333.412 -0.170956 -1.95153 0
M  V30 3413 H 331.992 -0.729575 -0.160405 0
M  V30 3414 H 334.654 -1.92606 0.298155 0
M  V30 3415 H 333.75 -3.02672 -0.761312 0
M  V30 3416 N 334.051 0.0651679 -1.57465 0
M  V30 3417 C 335.297 0.758912 -1.88712 0
M  V30 3418 C 335.652 1.7485 -0.802819 0
M  V30 3419 O 334.945 1.90632 0.192359 0
M  V30 3420 C 335.139 1.50081 -3.24362 0
M  V30 3421 C 334.968 0.584579 -4.45884 0
M  V30 3422 C 333.738 0.219039 -5.04825 0
M  V30 3423 C 335.936 -0.121559 -5.14156 0
M  V30 3424 N 333.918 -0.702222 -6.09871 0
M  V30 3425 C 335.289 -0.899767 -6.13436 0
M  V30 3426 C 337.344 -0.192331 -4.97528 0
M  V30 3427 C 336.047 -1.74218 -6.97883 0
M  V30 3428 C 338.073 -1.02174 -5.82507 0
M  V30 3429 C 337.435 -1.78798 -6.8133 0
M  V30 3430 H 333.534 0.25293 -0.739967 0
M  V30 3431 H 336.118 0.0201744 -1.9469 0
M  V30 3432 H 334.289 2.21023 -3.1938 0
M  V30 3433 H 336.021 2.14409 -3.43236 0
M  V30 3434 H 332.776 0.57336 -4.70117 0
M  V30 3435 H 333.2 -1.15629 -6.67052 0
M  V30 3436 H 337.842 0.385741 -4.21037 0
M  V30 3437 H 335.56 -2.3312 -7.73745 0
M  V30 3438 H 339.146 -1.07957 -5.71696 0
M  V30 3439 H 338.026 -2.41942 -7.45945 0
M  V30 3440 N 335.529 1.53961 0.336706 0
M  V30 3441 C 336.778 1.70751 1.07363 0
M  V30 3442 C 337.091 0.481061 1.89592 0
M  V30 3443 O 338.297 0.530046 2.66276 0
M  V30 3444 C 336.753 3.01965 1.95818 0
M  V30 3445 C 336.361 4.31971 1.18764 0
M  V30 3446 C 338.105 3.28121 2.69327 0
M  V30 3447 C 336.012 5.54255 2.06289 0
M  V30 3448 H 334.942 0.636292 0.404535 0
M  V30 3449 H 337.593 1.80459 0.332681 0
M  V30 3450 H 335.975 2.86132 2.7376 0
M  V30 3451 H 337.149 4.5853 0.456849 0
M  V30 3452 H 335.464 4.12481 0.569946 0
M  V30 3453 H 338.061 4.16673 3.35094 0
M  V30 3454 H 338.404 2.45426 3.36261 0
M  V30 3455 H 338.937 3.44762 1.98454 0
M  V30 3456 H 335.676 6.39513 1.43885 0
M  V30 3457 H 335.196 5.31935 2.77138 0
M  V30 3458 H 336.875 5.90159 2.65182 0
M  V30 3459 N 337.007 -0.598083 1.45811 0
M  V30 3460 C 337.937 -1.71873 1.58057 0
M  V30 3461 C 338.918 -1.64533 0.431615 0
M  V30 3462 O 340.103 -1.82787 0.65595 0
M  V30 3463 C 337.233 -3.10495 1.55597 0
M  V30 3464 C 336.187 -3.32654 2.69305 0
M  V30 3465 C 335.513 -4.71646 2.51902 0
M  V30 3466 C 336.813 -3.21981 4.11248 0
M  V30 3467 H 338.507 -1.61881 2.51863 0
M  V30 3468 H 336.053 -0.777372 1.21214 0
M  V30 3469 H 338.006 -3.88699 1.6276 0
M  V30 3470 H 336.73 -3.2135 0.583255 0
M  V30 3471 H 335.389 -2.56843 2.61586 0
M  V30 3472 H 335.037 -4.79246 1.52748 0
M  V30 3473 H 334.737 -4.87426 3.2816 0
M  V30 3474 H 336.261 -5.52038 2.60933 0
M  V30 3475 H 337.675 -3.90049 4.20161 0
M  V30 3476 H 336.072 -3.49289 4.87972 0
M  V30 3477 H 337.142 -2.1928 4.32486 0
M  V30 3478 N 338.485 -1.33259 -0.841409 0
M  V30 3479 C 339.713 -1.27605 -1.62864 0
M  V30 3480 C 340.128 0.153507 -1.88175 0
M  V30 3481 O 339.485 1.09485 -1.46011 0
M  V30 3482 C 339.536 -2.04596 -2.98031 0
M  V30 3483 O 339.257 -3.41975 -2.73834 0
M  V30 3484 C 340.758 -2.06122 -3.92465 0
M  V30 3485 H 337.978 -0.439718 -0.506842 0
M  V30 3486 H 340.522 -1.75591 -1.04824 0
M  V30 3487 H 338.677 -1.60299 -3.5268 0
M  V30 3488 H 339.091 -3.81549 -3.59889 0
M  V30 3489 H 340.565 -2.64451 -4.84531 0
M  V30 3490 H 341.042 -1.05083 -4.26444 0
M  V30 3491 H 341.648 -2.50427 -3.43753 0
M  V30 3492 N 339.963 1.05934 -1.16686 0
M  V30 3493 C 340.873 2.17014 -0.891183 0
M  V30 3494 C 341.889 1.73453 0.137907 0
M  V30 3495 O 343.065 2.01361 -0.039592 0
M  V30 3496 C 340.13 3.44384 -0.400099 0
M  V30 3497 C 339.191 4.02433 -1.49486 0
M  V30 3498 C 338.424 5.23723 -1.02711 0
M  V30 3499 O 338.647 5.7027 0.121716 0
M  V30 3500 O 337.581 5.7382 -1.81699 0
M  V30 3501 H 341.407 2.43113 -1.82015 0
M  V30 3502 H 338.992 1.15541 -0.947132 0
M  V30 3503 H 340.874 4.21189 -0.133392 0
M  V30 3504 H 339.549 3.19802 0.500817 0
M  V30 3505 H 338.456 3.27102 -1.81535 0
M  V30 3506 H 339.789 4.31317 -2.37121 0
M  V30 3507 N 341.441 0.965919 1.2453 0
M  V30 3508 C 342.371 0.513476 2.27784 0
M  V30 3509 C 343.352 -0.445974 1.6415 0
M  V30 3510 O 344.537 -0.342485 1.91156 0
M  V30 3511 C 341.667 -0.198839 3.4673 0
M  V30 3512 C 340.621 0.676456 4.2262 0
M  V30 3513 C 339.947 -0.167248 5.34438 0
M  V30 3514 C 341.247 1.96017 4.84123 0
M  V30 3515 H 342.941 1.3765 2.65881 0
M  V30 3516 H 340.487 0.663321 1.27813 0
M  V30 3517 H 342.44 -0.526567 4.18097 0
M  V30 3518 H 341.164 -1.0962 3.07654 0
M  V30 3519 H 339.823 0.98743 3.53052 0
M  V30 3520 H 339.471 -1.0647 4.91603 0
M  V30 3521 H 339.171 0.415181 5.86131 0
M  V30 3522 H 340.695 -0.489688 6.08633 0
M  V30 3523 H 342.109 1.69814 5.47573 0
M  V30 3524 H 340.506 2.48918 5.4604 0
M  V30 3525 H 341.576 2.65622 4.05676 0
M  V30 3526 N 342.919 -1.39368 0.735821 0
M  V30 3527 C 343.829 -2.34395 0.0979693 0
M  V30 3528 C 344.845 -1.58361 -0.720968 0
M  V30 3529 O 346.021 -1.90648 -0.649245 0
M  V30 3530 C 343.086 -3.37393 -0.797916 0
M  V30 3531 C 342.147 -4.29287 0.0333662 0
M  V30 3532 C 341.38 -5.27365 -0.819854 0
M  V30 3533 O 341.603 -5.31959 -2.05855 0
M  V30 3534 O 340.537 -6.01389 -0.248079 0
M  V30 3535 H 344.363 -2.90601 0.882315 0
M  V30 3536 H 341.948 -1.40909 0.4965 0
M  V30 3537 H 343.83 -4.00505 -1.31048 0
M  V30 3538 H 342.505 -2.83571 -1.56106 0
M  V30 3539 H 341.412 -3.69395 0.591475 0
M  V30 3540 H 342.745 -4.86317 0.758752 0
M  V30 3541 N 344.397 -0.483516 -1.5 0
M  V30 3542 C 345.329 0.340634 -2.26655 0
M  V30 3543 C 346.342 0.946152 -1.32483 0
M  V30 3544 O 347.531 0.832453 -1.579 0
M  V30 3545 C 344.631 1.4929 -3.04246 0
M  V30 3546 C 343.804 0.997903 -4.25865 0
M  V30 3547 C 342.863 2.02569 -4.85646 0
M  V30 3548 O 341.889 1.60128 -5.46212 0
M  V30 3549 N 343.091 3.3548 -4.73744 0
M  V30 3550 H 345.856 -0.316577 -2.98023 0
M  V30 3551 H 343.417 -0.315024 -1.58806 0
M  V30 3552 H 345.409 2.17766 -3.41116 0
M  V30 3553 H 343.979 2.05458 -2.35597 0
M  V30 3554 H 343.199 0.138617 -3.93956 0
M  V30 3555 H 344.487 0.645305 -5.04691 0
M  V30 3556 H 343.885 3.72661 -4.25605 0
M  V30 3557 H 342.442 3.99718 -5.14848 0
M  V30 3558 N 345.875 1.56104 -0.216619 0
M  V30 3559 C 347.1 2.0301 0.424462 0
M  V30 3560 C 347.525 1.0955 1.52907 0
M  V30 3561 O 346.883 0.0827914 1.81111 0
M  V30 3562 C 346.931 3.4819 0.937883 0
M  V30 3563 O 346.035 3.57865 2.04955 0
M  V30 3564 H 345.376 0.656925 0.0966755 0
M  V30 3565 H 347.906 2.01859 -0.33381 0
M  V30 3566 H 347.916 3.88413 1.24897 0
M  V30 3567 H 346.591 4.15699 0.129387 0
M  V30 3568 H 345.168 3.29527 1.74546 0
M  V30 3569 N 347.353 -0.0568162 1.57498 0
M  V30 3570 C 348.316 -1.05038 2.03715 0
M  V30 3571 C 349.316 -1.30709 0.936577 0
M  V30 3572 O 350.506 -1.26178 1.20103 0
M  V30 3573 C 347.638 -2.39034 2.43055 0
M  V30 3574 H 348.831 -0.651715 2.92733 0
M  V30 3575 H 346.384 -0.302947 1.53336 0
M  V30 3576 H 347.119 -2.83703 1.57108 0
M  V30 3577 H 346.904 -2.21739 3.2338 0
M  V30 3578 H 348.394 -3.10421 2.79336 0
M  V30 3579 N 348.832 -1.54138 -0.328536 0
M  V30 3580 C 350.06 -1.76062 -1.08673 0
M  V30 3581 C 350.475 -0.506852 -1.81869 0
M  V30 3582 O 349.832 0.522223 -1.74869 0
M  V30 3583 C 349.883 -2.95054 -2.08866 0
M  V30 3584 O 349.604 -4.15583 -1.38644 0
M  V30 3585 C 351.105 -3.2915 -2.96943 0
M  V30 3586 H 348.325 -0.587889 -0.323461 0
M  V30 3587 H 350.869 -2.0101 -0.376175 0
M  V30 3588 H 349.024 -2.72394 -2.75464 0
M  V30 3589 H 349.438 -4.82481 -2.05699 0
M  V30 3590 H 350.912 -4.15723 -3.63151 0
M  V30 3591 H 351.389 -2.461 -3.63774 0
M  V30 3592 H 351.995 -3.53871 -2.35914 0
M  V30 3593 N 350.31 0.590341 -1.46126 0
M  V30 3594 C 351.556 1.35082 -1.51264 0
M  V30 3595 C 351.889 1.93534 -0.160711 0
M  V30 3596 O 351.164 1.76045 0.826956 0
M  V30 3597 C 351.447 2.48588 -2.6053 0
M  V30 3598 C 351.3 1.95221 -4.05227 0
M  V30 3599 C 352.619 3.50662 -2.6594 0
M  V30 3600 H 349.738 0.489803 -0.550692 0
M  V30 3601 H 352.38 0.663887 -1.78024 0
M  V30 3602 H 350.53 3.07186 -2.37843 0
M  V30 3603 H 352.202 1.41139 -4.39178 0
M  V30 3604 H 350.445 1.26101 -4.15068 0
M  V30 3605 H 351.116 2.77121 -4.77397 0
M  V30 3606 H 353.592 3.01934 -2.86313 0
M  V30 3607 H 352.468 4.27551 -3.44226 0
M  V30 3608 H 352.729 4.07399 -1.71694 0
M  V30 3609 N 351.788 1.33704 0.83433 0
M  V30 3610 C 352.721 1.18675 1.94914 0
M  V30 3611 C 353.699 0.0811145 1.62398 0
M  V30 3612 O 354.883 0.244186 1.86912 0
M  V30 3613 C 352.01 0.821231 3.28593 0
M  V30 3614 C 351.056 1.93501 3.80079 0
M  V30 3615 S 351.889 3.54671 4.01209 0
M  V30 3616 C 353.045 3.20136 5.37833 0
M  V30 3617 H 353.278 2.13043 2.07364 0
M  V30 3618 H 350.811 1.18598 0.988624 0
M  V30 3619 H 352.769 0.617123 4.05835 0
M  V30 3620 H 351.43 -0.103927 3.13928 0
M  V30 3621 H 350.623 1.63273 4.76821 0
M  V30 3622 H 350.225 2.09601 3.09747 0
M  V30 3623 H 352.517 2.71242 6.20833 0
M  V30 3624 H 353.46 4.15975 5.73036 0
M  V30 3625 H 353.868 2.56613 5.02802 0
M  V30 3626 N 353.266 -1.05314 1.17247 0
M  V30 3627 C 354.213 -2.13031 0.888058 0
M  V30 3628 C 355.183 -1.65253 -0.167537 0
M  V30 3629 O 356.368 -1.90775 -0.0305974 0
M  V30 3630 C 353.508 -3.42702 0.406147 0
M  V30 3631 C 352.621 -4.04161 1.52572 0
M  V30 3632 C 351.756 -5.21744 0.997808 0
M  V30 3633 C 350.795 -5.75207 2.09291 0
M  V30 3634 N 349.932 -6.84094 1.57986 0
M  V30 3635 H 354.772 -2.36698 1.81048 0
M  V30 3636 H 352.309 -1.16121 0.903013 0
M  V30 3637 H 354.267 -4.17059 0.108305 0
M  V30 3638 H 352.897 -3.19222 -0.479313 0
M  V30 3639 H 351.949 -3.27253 1.93931 0
M  V30 3640 H 353.261 -4.39881 2.35172 0
M  V30 3641 H 352.415 -6.03168 0.653739 0
M  V30 3642 H 351.154 -4.87495 0.141232 0
M  V30 3643 H 350.159 -4.92414 2.44557 0
M  V30 3644 H 351.384 -6.11505 2.95362 0
M  V30 3645 H 349.33 -6.51745 0.74598 0
M  V30 3646 H 349.247 -7.18811 2.34195 0
M  V30 3647 H 350.515 -7.69172 1.26468 0
M  V30 3648 N 354.744 -0.972509 -1.24016 0
M  V30 3649 C 355.969 -0.654417 -1.96805 0
M  V30 3650 C 356.394 0.770398 -1.716 0
M  V30 3651 O 355.752 1.52361 -0.982647 0
M  V30 3652 C 355.8 -0.941031 -3.48105 0
M  V30 3653 O 354.904 -0.0289472 -4.1239 0
M  V30 3654 H 354.245 -0.24692 -0.616382 0
M  V30 3655 H 356.775 -1.30396 -1.57664 0
M  V30 3656 H 356.785 -0.87452 -3.98517 0
M  V30 3657 H 355.46 -1.97939 -3.65777 0
M  V30 3658 H 354.037 -0.149192 -3.72601 0
M  V30 3659 N 356.222 1.38976 -0.743202 0
M  V30 3660 C 357.47 1.99948 -0.29417 0
M  V30 3661 C 357.791 1.59279 1.12495 0
M  V30 3662 O 357.061 0.844808 1.76748 0
M  V30 3663 H 355.641 0.739473 -0.105774 0
M  V30 3664 H 358.303 1.699 -0.954986 0
M  V30 3665 H 357.399 3.10142 -0.349056 0
M  V30 3666 N 357.7 0.491464 1.49741 0
M  V30 3667 C 358.948 -0.0563141 2.02022 0
M  V30 3668 C 359.269 -1.38363 1.37407 0
M  V30 3669 O 358.539 -1.88702 0.526166 0
M  V30 3670 H 357.119 -0.0238014 0.746621 0
M  V30 3671 H 359.781 0.646533 1.83864 0
M  V30 3672 H 358.877 -0.192967 3.11503 0
M  V30 3673 N 359.178 -1.55987 0.224894 0
M  V30 3674 C 360.108 -2.23426 -0.678457 0
M  V30 3675 C 361.089 -1.20709 -1.19847 0
M  V30 3676 O 362.274 -1.49304 -1.24186 0
M  V30 3677 C 359.404 -2.91676 -1.88527 0
M  V30 3678 C 358.358 -4.00893 -1.49896 0
M  V30 3679 C 357.684 -4.56455 -2.78483 0
M  V30 3680 C 358.984 -5.17769 -0.686461 0
M  V30 3681 H 360.678 -2.99175 -0.116173 0
M  V30 3682 H 358.224 -1.43897 -0.054436 0
M  V30 3683 H 360.177 -3.37547 -2.5227 0
M  V30 3684 H 358.901 -2.1338 -2.47258 0
M  V30 3685 H 357.56 -3.55758 -0.884985 0
M  V30 3686 H 357.208 -3.74886 -3.35365 0
M  V30 3687 H 356.908 -5.30169 -2.53368 0
M  V30 3688 H 358.432 -5.05047 -3.43162 0
M  V30 3689 H 359.846 -5.60001 -1.22767 0
M  V30 3690 H 358.243 -5.97735 -0.532259 0
M  V30 3691 H 359.313 -4.83932 0.306196 0
M  V30 3692 N 360.656 0.0484629 -1.57525 0
M  V30 3693 C 362.067 0.597486 -1.76881 0
M  V30 3694 C 362.418 1.76664 -0.853475 0
M  V30 3695 O 361.543 2.16357 -0.0433656 0
M  V30 3696 C 362.138 1.09066 -3.20765 0
M  V30 3697 C 360.697 1.58535 -3.41385 0
M  V30 3698 C 359.844 0.514868 -2.72478 0
M  V30 3699 H 362.795 -0.177758 -1.57701 0
M  V30 3700 H 362.816 1.95875 -3.2621 0
M  V30 3701 H 362.328 0.239521 -3.8736 0
M  V30 3702 H 360.429 2.45898 -2.79937 0
M  V30 3703 H 360.542 1.64622 -4.49929 0
M  V30 3704 H 358.906 0.965407 -2.35695 0
M  V30 3705 H 359.689 -0.32648 -3.41744 0
M  V30 3706 N 362.134 1.5431 0.320358 0
M  V30 3707 C 363.359 1.76954 1.08175 0
M  V30 3708 C 363.784 0.518193 1.80821 0
M  V30 3709 O 363.142 -0.530411 1.73368 0
M  V30 3710 C 363.19 2.96451 2.05303 0
M  V30 3711 O 362.294 2.68221 3.13259 0
M  V30 3712 H 361.635 0.586275 0.311733 0
M  V30 3713 H 364.165 2.01342 0.363676 0
M  V30 3714 H 364.175 3.23887 2.48116 0
M  V30 3715 H 362.85 3.87196 1.51829 0
M  V30 3716 H 361.427 2.51744 2.75099 0
M  V30 3717 N 363.613 -0.582584 1.46437 0
M  V30 3718 C 364.543 -1.70187 1.59871 0
M  V30 3719 C 365.524 -1.64066 0.449042 0
M  V30 3720 O 366.709 -1.82081 0.6753 0
M  V30 3721 C 363.839 -3.08827 1.58881 0
M  V30 3722 C 362.793 -3.29779 2.72819 0
M  V30 3723 C 362.119 -4.68947 2.5689 0
M  V30 3724 C 363.419 -3.17601 4.1464 0
M  V30 3725 H 365.113 -1.592 2.53566 0
M  V30 3726 H 362.659 -0.764472 1.22032 0
M  V30 3727 H 364.612 -3.86951 1.66873 0
M  V30 3728 H 363.336 -3.20713 0.617306 0
M  V30 3729 H 361.995 -2.54054 2.64296 0
M  V30 3730 H 361.643 -4.77599 1.57823 0
M  V30 3731 H 361.343 -4.83919 3.33312 0
M  V30 3732 H 362.867 -5.4924 2.66773 0
M  V30 3733 H 364.281 -3.8557 4.24274 0
M  V30 3734 H 362.678 -3.44094 4.9165 0
M  V30 3735 H 363.748 -2.14681 4.34788 0
M  V30 3736 N 365.091 -1.34144 -0.827227 0
M  V30 3737 C 366.339 -1.26009 -1.58007 0
M  V30 3738 C 366.66 0.170971 -1.94249 0
M  V30 3739 O 365.93 1.10256 -1.61927 0
M  V30 3740 H 364.51 -0.463414 -0.585881 0
M  V30 3741 H 367.172 -1.68005 -0.987951 0
M  V30 3742 H 366.268 -1.86187 -2.50481 0
M  V30 3743 N 366.569 1.04691 -1.17803 0
M  V30 3744 C 367.499 2.14494 -0.92275 0
M  V30 3745 C 368.48 1.69546 0.137179 0
M  V30 3746 O 369.665 1.94195 -0.0141108 0
M  V30 3747 C 366.795 3.44491 -0.440803 0
M  V30 3748 C 365.749 4.03031 -1.4405 0
M  V30 3749 C 365.075 5.28432 -0.81631 0
M  V30 3750 C 366.375 4.39932 -2.81527 0
M  V30 3751 H 368.069 2.36107 -1.84103 0
M  V30 3752 H 365.615 1.1347 -0.886599 0
M  V30 3753 H 367.568 4.2066 -0.249602 0
M  V30 3754 H 366.292 3.22546 0.513025 0
M  V30 3755 H 364.951 3.28937 -1.61853 0
M  V30 3756 H 364.599 5.02792 0.144511 0
M  V30 3757 H 364.299 5.68559 -1.48371 0
M  V30 3758 H 365.823 6.07284 -0.635496 0
M  V30 3759 H 367.237 5.07113 -2.67412 0
M  V30 3760 H 365.634 4.9109 -3.44892 0
M  V30 3761 H 366.704 3.50045 -3.35554 0
M  V30 3762 N 368.047 0.979072 1.23499 0
M  V30 3763 C 369.275 0.665202 1.95915 0
M  V30 3764 C 369.69 -0.767571 1.72493 0
M  V30 3765 O 369.047 -1.51635 1.01554 0
M  V30 3766 C 369.098 0.944438 3.48945 0
M  V30 3767 O 368.819 2.3209 3.71572 0
M  V30 3768 C 370.32 0.646336 4.38563 0
M  V30 3769 H 367.54 0.247218 0.623798 0
M  V30 3770 H 370.084 1.31009 1.57025 0
M  V30 3771 H 368.239 0.345575 3.85856 0
M  V30 3772 H 368.653 2.40957 4.65876 0
M  V30 3773 H 370.127 0.892091 5.44744 0
M  V30 3774 H 370.604 -0.419575 4.37191 0
M  V30 3775 H 371.21 1.22562 4.07258 0
M  V30 3776 N 369.525 -1.3858 0.750561 0
M  V30 3777 C 370.455 -2.33102 0.136237 0
M  V30 3778 C 371.436 -1.54713 -0.706965 0
M  V30 3779 O 372.621 -1.83043 -0.648769 0
M  V30 3780 C 369.751 -3.38882 -0.760017 0
M  V30 3781 C 368.705 -4.27995 -0.0197785 0
M  V30 3782 C 368.031 -5.24605 -1.03408 0
M  V30 3783 C 369.331 -5.09554 1.14684 0
M  V30 3784 H 371.025 -2.84726 0.925822 0
M  V30 3785 H 368.571 -1.36898 0.446654 0
M  V30 3786 H 370.524 -4.0397 -1.19943 0
M  V30 3787 H 369.248 -2.85734 -1.58189 0
M  V30 3788 H 367.907 -3.64409 0.400184 0
M  V30 3789 H 367.555 -4.67746 -1.84994 0
M  V30 3790 H 367.255 -5.85081 -0.543464 0
M  V30 3791 H 368.779 -5.9257 -1.47288 0
M  V30 3792 H 370.193 -5.67899 0.785118 0
M  V30 3793 H 368.59 -5.7925 1.56812 0
M  V30 3794 H 369.66 -4.4347 1.96118 0
M  V30 3795 N 371.003 -0.499398 -1.49478 0
M  V30 3796 C 371.966 0.268838 -2.27618 0
M  V30 3797 C 372.966 0.895383 -1.33565 0
M  V30 3798 O 374.156 0.760164 -1.56739 0
M  V30 3799 C 371.288 1.38559 -3.11471 0
M  V30 3800 H 372.481 -0.416812 -2.96989 0
M  V30 3801 H 370.034 -0.254313 -1.54217 0
M  V30 3802 H 370.769 2.10544 -2.46661 0
M  V30 3803 H 370.554 0.941797 -3.80621 0
M  V30 3804 H 372.044 1.92678 -3.70493 0
M  V30 3805 N 372.481 1.55866 -0.233164 0
M  V30 3806 C 373.429 2.22176 0.68851 0
M  V30 3807 C 374.423 1.20487 1.19076 0
M  V30 3808 O 375.629 1.38536 1.14925 0
M  V30 3809 H 372.004 0.712511 0.240483 0
M  V30 3810 H 373.975 2.98212 0.105935 0
M  V30 3811 C 372.724 2.92446 1.88071 0
M  V30 3812 H 372.047 3.70458 1.50337 0
M  V30 3813 H 373.487 3.42226 2.50314 0
M  V30 3814 C 371.946 1.95555 2.74335 0
M  V30 3815 O 372.476 1.47986 3.73447 0
M  V30 3816 N 370.682 1.62953 2.40613 0
M  V30 3817 H 370.229 2.01831 1.60069 0
M  V30 3818 H 370.187 0.983886 2.98609 0
M  V30 3819 N 373.959 -0.0401083 1.57549 0
M  V30 3820 C 375.205 -0.734211 1.89043 0
M  V30 3821 C 375.538 -1.75591 0.829535 0
M  V30 3822 O 374.813 -1.93868 -0.156706 0
M  V30 3823 C 375.096 -1.41374 3.31188 0
M  V30 3824 C 374.949 -0.406299 4.47961 0
M  V30 3825 C 376.268 -2.35061 3.72068 0
M  V30 3826 H 373.387 -0.265447 0.687537 0
M  V30 3827 H 376.029 0.00294087 1.9 0
M  V30 3828 H 374.179 -2.04206 3.30503 0
M  V30 3829 H 375.851 0.219255 4.60779 0
M  V30 3830 H 374.094 0.275485 4.32924 0
M  V30 3831 H 374.765 -0.920022 5.44279 0
M  V30 3832 H 377.241 -1.82282 3.74049 0
M  V30 3833 H 376.117 -2.79593 4.72355 0
M  V30 3834 H 376.378 -3.21258 3.0372 0
M  V30 3835 N 375.437 -1.54477 -0.31217 0
M  V30 3836 C 376.665 -1.77205 -1.068 0
M  V30 3837 C 377.08 -0.526114 -1.81321 0
M  V30 3838 O 376.437 0.503647 -1.75413 0
M  V30 3839 C 376.488 -2.97253 -2.05725 0
M  V30 3840 O 376.209 -4.1703 -1.34228 0
M  V30 3841 C 377.71 -3.32281 -2.93435 0
M  V30 3842 H 374.93 -0.591287 -0.317208 0
M  V30 3843 H 377.474 -2.01398 -0.354834 0
M  V30 3844 H 375.629 -2.753 -2.72559 0
M  V30 3845 H 376.043 -4.84636 -2.00571 0
M  V30 3846 H 377.517 -4.19551 -3.58721 0
M  V30 3847 H 377.994 -2.49945 -3.61143 0
M  V30 3848 H 378.6 -3.56353 -2.32147 0
M  V30 3849 N 376.915 0.57481 -1.46744 0
M  V30 3850 C 378.14 1.36341 -1.56288 0
M  V30 3851 C 378.565 1.86954 -0.207347 0
M  V30 3852 O 377.923 1.62006 0.813871 0
M  V30 3853 C 377.971 2.52147 -2.57787 0
M  V30 3854 O 377.075 3.53834 -2.11838 0
M  V30 3855 H 376.416 0.405713 -0.525636 0
M  V30 3856 H 378.946 0.696453 -1.92382 0
M  V30 3857 H 378.956 2.98958 -2.77648 0
M  V30 3858 H 377.631 2.14663 -3.5622 0
M  V30 3859 H 376.208 3.1345 -2.01999 0
M  V30 3860 N 378.394 1.34581 0.820102 0
M  V30 3861 C 379.671 1.17675 1.56244 0
M  V30 3862 C 380.051 -0.249541 2.0962 0
M  V30 3863 O 379.399 -1.25125 1.91196 0
M  V30 3864 C 379.609 2.23364 2.6816 0
M  V30 3865 C 380.957 2.58485 3.36854 0
M  V30 3866 O 381.981 2.22175 2.78418 0
M  V30 3867 O 380.84 3.20868 4.42386 0
M  V30 3868 H 377.934 0.456333 0.689702 0
M  V30 3869 H 380.48 1.46222 0.861231 0
M  V30 3870 H 379.252 3.19087 2.26493 0
M  V30 3871 H 378.875 1.96009 3.45928 0
M  V30 3872 N 379.872 -1.04064 1.18357 0
M  V30 3873 C 380.802 -2.14001 0.934113 0
M  V30 3874 C 381.783 -1.69616 -0.128186 0
M  V30 3875 O 382.968 -1.94185 0.0244093 0
M  V30 3876 C 380.098 -3.44253 0.459066 0
M  V30 3877 C 379.052 -4.02261 1.46185 0
M  V30 3878 C 378.378 -5.27992 0.844322 0
M  V30 3879 C 379.678 -4.38432 2.83856 0
M  V30 3880 H 381.372 -2.35127 1.85352 0
M  V30 3881 H 378.918 -1.12998 0.892604 0
M  V30 3882 H 380.871 -4.20522 0.271907 0
M  V30 3883 H 379.595 -3.22813 -0.495912 0
M  V30 3884 H 378.254 -3.28074 1.63595 0
M  V30 3885 H 377.902 -5.02862 -0.117845 0
M  V30 3886 H 377.602 -5.67765 1.51384 0
M  V30 3887 H 379.126 -6.06938 0.667693 0
M  V30 3888 H 380.54 -5.05688 2.70098 0
M  V30 3889 H 378.937 -4.89254 3.47491 0
M  V30 3890 H 380.007 -3.4826 3.37406 0
M  V30 3891 N 381.35 -0.985608 -1.22978 0
M  V30 3892 C 382.298 -0.522631 -2.26652 0
M  V30 3893 C 383.292 0.422998 -1.64034 0
M  V30 3894 O 384.498 0.296319 -1.77544 0
M  V30 3895 H 380.873 -0.150597 -0.736766 0
M  V30 3896 H 382.844 -1.40863 -2.63059 0
M  V30 3897 C 381.593 0.154238 -3.47358 0
M  V30 3898 H 380.916 -0.564329 -3.95797 0
M  V30 3899 H 382.356 0.441744 -4.21693 0
M  V30 3900 C 380.815 1.38719 -3.07016 0
M  V30 3901 O 381.345 2.48307 -3.15764 0
M  V30 3902 N 379.551 1.25975 -2.61875 0
M  V30 3903 H 379.098 0.368068 -2.54957 0
M  V30 3904 H 379.056 2.08578 -2.3525 0
M  V30 3905 N 382.828 1.3818 -0.7579 0
M  V30 3906 C 384.244 1.5353 -0.435972 0
M  V30 3907 C 384.444 1.71961 1.05032 0
M  V30 3908 O 383.5 1.73307 1.83633 0
M  V30 3909 C 384.813 2.73989 -1.23898 0
M  V30 3910 C 386.361 2.87841 -1.22949 0
M  V30 3911 C 386.836 4.11266 -2.01554 0
M  V30 3912 N 388.327 4.18352 -1.98837 0
M  V30 3913 C 389.062 5.12856 -2.5645 0
M  V30 3914 N 388.558 6.13005 -3.22794 0
M  V30 3915 N 390.351 5.05238 -2.46356 0
M  V30 3916 H 382.502 1.24467 -1.7211 0
M  V30 3917 H 384.765 0.604982 -0.729864 0
M  V30 3918 H 384.471 2.66789 -2.29165 0
M  V30 3919 H 384.345 3.67294 -0.858764 0
M  V30 3920 H 386.732 2.9452 -0.184854 0
M  V30 3921 H 386.813 1.95534 -1.64924 0
M  V30 3922 H 386.457 4.05349 -3.06031 0
M  V30 3923 H 386.387 5.02661 -1.5697 0
M  V30 3924 H 388.878 3.46628 -1.50524 0
M  V30 3925 H 389.191 6.81619 -3.64165 0
M  V30 3926 H 387.536 6.13325 -3.2689 0
M  V30 3927 H 390.727 4.25938 -1.9415 0
M  V30 3928 H 390.9 5.78707 -2.91552 0
M  V30 3929 N 384.306 0.507319 1.49211 0
M  V30 3930 C 385.253 -0.267728 2.29242 0
M  V30 3931 C 386.223 -0.954609 1.35928 0
M  V30 3932 O 387.408 -0.960046 1.64887 0
M  V30 3933 C 384.548 -1.32243 3.18756 0
M  V30 3934 C 383.661 -0.64669 4.27132 0
M  V30 3935 C 382.796 -1.68238 5.03855 0
M  V30 3936 C 381.835 -0.98885 6.0406 0
M  V30 3937 N 380.972 -1.96903 6.73924 0
M  V30 3938 H 385.812 0.420968 2.95012 0
M  V30 3939 H 383.349 0.219443 1.45454 0
M  V30 3940 H 385.307 -1.94599 3.69036 0
M  V30 3941 H 383.937 -1.97981 2.54958 0
M  V30 3942 H 382.989 0.0902926 3.80293 0
M  V30 3943 H 384.301 -0.101058 4.98698 0
M  V30 3944 H 383.455 -2.38081 5.58034 0
M  V30 3945 H 382.194 -2.26187 4.32077 0
M  V30 3946 H 381.199 -0.276222 5.49106 0
M  V30 3947 H 382.424 -0.415767 6.77826 0
M  V30 3948 H 380.37 -2.53803 6.04913 0
M  V30 3949 H 380.287 -1.47423 7.41487 0
M  V30 3950 H 381.555 -2.66015 7.32705 0
M  V30 3951 N 385.784 -1.5574 0.241426 0
M  V30 3952 C 386.732 -2.22538 -0.676718 0
M  V30 3953 C 387.726 -1.21117 -1.18436 0
M  V30 3954 O 388.932 -1.39144 -1.14188 0
M  V30 3955 H 385.307 -0.713776 -0.236701 0
M  V30 3956 H 387.278 -2.98264 -0.0901187 0
M  V30 3957 C 386.027 -2.93439 -1.86518 0
M  V30 3958 H 385.35 -3.7125 -1.4837 0
M  V30 3959 H 386.79 -3.43549 -2.48495 0
M  V30 3960 C 385.249 -1.97008 -2.73294 0
M  V30 3961 O 385.779 -1.49965 -3.72657 0
M  V30 3962 N 383.985 -1.64227 -2.39745 0
M  V30 3963 H 383.532 -2.02677 -1.58996 0
M  V30 3964 H 383.49 -0.999708 -2.98083 0
M  V30 3965 N 387.262 0.0317525 -1.57568 0
M  V30 3966 C 388.508 0.724175 -1.8943 0
M  V30 3967 C 388.841 1.75149 -0.838836 0
M  V30 3968 O 388.116 1.93948 0.146422 0
M  V30 3969 C 388.399 1.39615 -3.31933 0
M  V30 3970 C 388.252 0.382537 -4.4817 0
M  V30 3971 C 389.571 2.33084 -3.73309 0
M  V30 3972 H 386.69 0.261797 -0.688935 0
M  V30 3973 H 389.332 -0.013017 -1.89996 0
M  V30 3974 H 387.482 2.02451 -3.31581 0
M  V30 3975 H 389.154 -0.243689 -4.60656 0
M  V30 3976 H 387.397 -0.29844 -4.32772 0
M  V30 3977 H 388.068 0.891145 -5.44759 0
M  V30 3978 H 390.544 1.80295 -3.7501 0
M  V30 3979 H 389.42 2.77084 -4.73831 0
M  V30 3980 H 389.681 3.19643 -3.05419 0
M  V30 3981 N 388.74 1.54641 0.303973 0
M  V30 3982 C 389.968 1.77768 1.05858 0
M  V30 3983 C 390.383 0.535722 1.8104 0
M  V30 3984 O 389.74 -0.494337 1.75677 0
M  V30 3985 C 389.791 2.9834 2.04146 0
M  V30 3986 O 389.512 4.17736 1.32015 0
M  V30 3987 C 391.013 3.33832 2.91669 0
M  V30 3988 H 388.233 0.592961 0.314067 0
M  V30 3989 H 390.777 2.01583 0.344149 0
M  V30 3990 H 388.932 2.76742 2.71096 0
M  V30 3991 H 389.346 4.85693 1.97998 0
M  V30 3992 H 390.82 4.21448 3.56491 0
M  V30 3993 H 391.297 2.51857 3.59812 0
M  V30 3994 H 391.903 3.57579 2.30254 0
M  V30 3995 N 390.218 -0.567019 1.47046 0
M  V30 3996 C 391.458 -1.3355 1.54738 0
M  V30 3997 C 391.822 -1.90947 0.200772 0
M  V30 3998 O 393.023 -2.68367 0.152489 0
M  V30 3999 C 391.294 -2.42317 2.62712 0
M  V30 4000 S 392.853 -3.29383 2.89918 0
M  V30 4001 H 389.671 -0.454788 0.546525 0
M  V30 4002 H 392.273 -0.650191 1.84371 0
M  V30 4003 H 390.977 -1.98568 3.59164 0
M  V30 4004 H 390.508 -3.15601 2.34861 0
M  V30 4005 H 392.523 -4.41548 2.26384 0
M  V30 4006 N 391.696 -1.35014 -0.812953 0
M  V30 4007 C 392.942 -1.29129 -1.57154 0
M  V30 4008 C 393.297 0.134922 -1.91926 0
M  V30 4009 O 392.59 1.08373 -1.58006 0
M  V30 4010 C 392.784 -2.12524 -2.87347 0
M  V30 4011 C 392.613 -3.6311 -2.65294 0
M  V30 4012 C 391.383 -4.32363 -2.61516 0
M  V30 4013 C 393.581 -4.56897 -2.36114 0
M  V30 4014 N 391.563 -5.68735 -2.31113 0
M  V30 4015 C 392.934 -5.81345 -2.15494 0
M  V30 4016 C 394.989 -4.45706 -2.21925 0
M  V30 4017 C 393.692 -6.95862 -1.82122 0
M  V30 4018 C 395.718 -5.60066 -1.89948 0
M  V30 4019 C 395.08 -6.83539 -1.7016 0
M  V30 4020 H 391.179 -0.527764 -0.577052 0
M  V30 4021 H 393.763 -1.6983 -0.952146 0
M  V30 4022 H 391.934 -1.74104 -3.47192 0
M  V30 4023 H 393.666 -1.98207 -3.5284 0
M  V30 4024 H 390.421 -3.84907 -2.75941 0
M  V30 4025 H 390.845 -6.40694 -2.18724 0
M  V30 4026 H 395.487 -3.50855 -2.35925 0
M  V30 4027 H 393.205 -7.90685 -1.6686 0
M  V30 4028 H 396.791 -5.53357 -1.79687 0
M  V30 4029 H 395.671 -7.70531 -1.45777 0
M  V30 4030 N 393.175 1.03435 -1.18907 0
M  V30 4031 C 394.138 2.09756 -0.923844 0
M  V30 4032 C 395.138 1.60528 0.093416 0
M  V30 4033 O 396.328 1.73631 -0.140727 0
M  V30 4034 C 393.46 3.38692 -0.387354 0
M  V30 4035 H 394.653 2.34719 -1.86674 0
M  V30 4036 H 392.206 1.19959 -1.00197 0
M  V30 4037 H 392.941 3.19396 0.561845 0
M  V30 4038 H 392.726 3.75742 -1.12074 0
M  V30 4039 H 394.216 4.17016 -0.220694 0
M  V30 4040 N 394.653 0.992116 1.22453 0
M  V30 4041 C 395.563 0.55065 2.28046 0
M  V30 4042 C 396.579 -0.400189 1.69335 0
M  V30 4043 O 397.755 -0.267215 1.99619 0
M  V30 4044 C 394.82 -0.128496 3.46462 0
M  V30 4045 C 393.881 0.865208 4.20491 0
M  V30 4046 C 393.114 0.218377 5.33253 0
M  V30 4047 O 393.337 -0.987894 5.6178 0
M  V30 4048 O 392.271 0.922845 5.94783 0
M  V30 4049 H 396.097 1.4291 2.67975 0
M  V30 4050 H 393.682 0.760326 1.28606 0
M  V30 4051 H 395.564 -0.508947 4.18315 0
M  V30 4052 H 394.239 -0.981526 3.0846 0
M  V30 4053 H 393.146 1.29658 3.50913 0
M  V30 4054 H 394.479 1.68741 4.62371 0
M  V30 4055 N 396.131 -1.37776 0.765217 0
M  V30 4056 C 397.079 -2.32209 0.134798 0
M  V30 4057 C 398.073 -1.54607 -0.692315 0
M  V30 4058 O 399.279 -1.70052 -0.590109 0
M  V30 4059 H 395.654 -0.751591 0.0248005 0
M  V30 4060 H 397.625 -2.8297 0.947119 0
M  V30 4061 C 396.374 -3.39841 -0.735063 0
M  V30 4062 H 395.697 -3.99654 -0.107991 0
M  V30 4063 H 397.137 -4.08296 -1.14326 0
M  V30 4064 C 395.596 -2.79378 -1.88281 0
M  V30 4065 O 396.126 -2.69608 -2.97783 0
M  V30 4066 N 394.332 -2.37016 -1.68142 0
M  V30 4067 H 393.879 -2.45162 -0.790772 0
M  V30 4068 H 393.837 -1.96905 -2.45104 0
M  V30 4069 N 397.609 -0.515225 -1.4894 0
M  V30 4070 C 398.886 0.0879088 -1.95402 0
M  V30 4071 C 399.266 1.52745 -1.45712 0
M  V30 4072 O 398.614 2.18238 -0.677093 0
M  V30 4073 C 398.824 -0.0141055 -3.48997 0
M  V30 4074 C 400.172 0.152646 -4.24326 0
M  V30 4075 O 401.196 0.0604025 -3.56149 0
M  V30 4076 O 400.055 0.34384 -5.45417 0
M  V30 4077 H 397.149 0.0874636 -0.822362 0
M  V30 4078 H 399.695 -0.578775 -1.59525 0
M  V30 4079 H 398.467 -1.01745 -3.77841 0
M  V30 4080 H 398.09 0.692091 -3.9153 0
M  V30 4081 N 399.087 1.5561 -0.249682 0
M  V30 4082 C 400.333 1.99306 0.374841 0
M  V30 4083 C 400.666 1.13767 1.57387 0
M  V30 4084 O 399.941 0.201711 1.93451 0
M  V30 4085 C 400.224 3.51507 0.781986 0
M  V30 4086 C 400.077 4.4781 -0.422629 0
M  V30 4087 C 401.396 4.08884 1.62793 0
M  V30 4088 H 398.515 0.724572 0.134773 0
M  V30 4089 H 401.157 1.86719 -0.351549 0
M  V30 4090 H 399.307 3.62363 1.4009 0
M  V30 4091 H 400.979 4.48931 -1.06108 0
M  V30 4092 H 399.222 4.20518 -1.06524 0
M  V30 4093 H 399.893 5.51919 -0.0943766 0
M  V30 4094 H 402.369 4.01147 1.10547 0
M  V30 4095 H 401.245 5.1564 1.88166 0
M  V30 4096 H 401.506 3.57515 2.60068 0
M  V30 4097 N 400.565 -0.0233959 1.57583 0
M  V30 4098 C 401.813 -0.711654 1.89156 0
M  V30 4099 C 402.134 -1.75591 0.848096 0
M  V30 4100 O 401.404 -1.95547 -0.117566 0
M  V30 4101 H 399.984 -0.265835 0.698098 0
M  V30 4102 H 402.646 0.0119948 1.94896 0
M  V30 4103 H 401.742 -1.19766 2.88206 0
M  V30 4104 N 402.043 -1.548 -0.295768 0
M  V30 4105 C 403.459 -1.4613 -0.641722 0
M  V30 4106 C 403.659 -0.656771 -1.90496 0
M  V30 4107 O 402.715 -0.166547 -2.5195 0
M  V30 4108 C 404.028 -2.90141 -0.789852 0
M  V30 4109 C 405.576 -3.00216 -0.885396 0
M  V30 4110 C 406.051 -4.45434 -1.06548 0
M  V30 4111 N 407.542 -4.49166 -1.13156 0
M  V30 4112 C 408.277 -5.58717 -1.28929 0
M  V30 4113 N 407.773 -6.78182 -1.41567 0
M  V30 4114 N 409.566 -5.46415 -1.31859 0
M  V30 4115 H 401.717 -2.05574 0.534147 0
M  V30 4116 H 403.98 -0.931259 0.177372 0
M  V30 4117 H 403.686 -3.51635 0.0675598 0
M  V30 4118 H 403.56 -3.37859 -1.67724 0
M  V30 4119 H 405.947 -2.38833 -1.73329 0
M  V30 4120 H 406.028 -2.55787 0.0261185 0
M  V30 4121 H 405.672 -5.07413 -0.222335 0
M  V30 4122 H 405.602 -4.87499 -1.9913 0
M  V30 4123 H 408.093 -3.631 -1.04721 0
M  V30 4124 H 408.406 -7.57428 -1.53372 0
M  V30 4125 H 406.751 -6.81037 -1.38613 0
M  V30 4126 H 409.942 -4.5203 -1.21601 0
M  V30 4127 H 410.115 -6.31841 -1.43808 0
M  V30 4128 N 403.521 0.559213 -1.47345 0
M  V30 4129 C 404.484 1.64854 -1.59235 0
M  V30 4130 C 405.484 1.53851 -0.467607 0
M  V30 4131 O 406.674 1.58045 -0.732617 0
M  V30 4132 C 403.806 3.04388 -1.53496 0
M  V30 4133 H 404.999 1.55662 -2.56339 0
M  V30 4134 H 402.552 0.778973 -1.35505 0
M  V30 4135 H 403.287 3.19115 -0.577604 0
M  V30 4136 H 403.072 3.13783 -2.35123 0
M  V30 4137 H 404.562 3.83642 -1.6495 0
M  V30 4138 N 404.999 1.35443 0.805782 0
M  V30 4139 C 405.909 1.30546 1.94923 0
M  V30 4140 C 406.925 0.210233 1.72725 0
M  V30 4141 O 408.101 0.43975 1.9654 0
M  V30 4142 C 405.166 1.07782 3.29521 0
M  V30 4143 C 404.227 2.26625 3.64609 0
M  V30 4144 C 403.46 2.04938 4.92784 0
M  V30 4145 O 403.683 1.01624 5.61274 0
M  V30 4146 O 402.617 2.9232 5.26149 0
M  V30 4147 H 406.443 2.26779 2.02002 0
M  V30 4148 H 404.028 1.15823 0.943682 0
M  V30 4149 H 405.91 0.969392 4.10098 0
M  V30 4150 H 404.585 0.146003 3.23371 0
M  V30 4151 H 403.492 2.43033 2.84404 0
M  V30 4152 H 404.825 3.18257 3.75464 0
M  V30 4153 N 406.477 -1.02803 1.19454 0
M  V30 4154 C 407.723 -1.76478 0.999171 0
M  V30 4155 C 408.056 -1.88456 -0.468828 0
M  V30 4156 O 407.331 -1.40198 -1.34814 0
M  V30 4157 C 407.614 -3.19044 1.66981 0
M  V30 4158 C 407.467 -3.14932 3.21151 0
M  V30 4159 C 408.786 -4.17456 1.39349 0
M  V30 4160 H 405.905 -0.640614 0.364393 0
M  V30 4161 H 408.547 -1.20005 1.47305 0
M  V30 4162 H 406.697 -3.67263 1.2669 0
M  V30 4163 H 408.369 -2.74605 3.70661 0
M  V30 4164 H 406.612 -2.52625 3.52652 0
M  V30 4165 H 407.283 -4.1566 3.63223 0
M  V30 4166 H 409.759 -3.77842 1.74283 0
M  V30 4167 H 408.635 -5.154 1.88823 0
M  V30 4168 H 408.896 -4.40949 0.318813 0
M  V30 4169 N 407.956 -0.998596 -1.21925 0
M  V30 4170 C 409.181 -0.696015 -1.95372 0
M  V30 4171 C 409.606 0.733826 -1.73195 0
M  V30 4172 O 408.964 1.50242 -1.01474 0
M  V30 4173 C 409.012 -1.01466 -3.4603 0
M  V30 4174 O 408.116 -0.116415 -4.12236 0
M  V30 4175 H 407.457 -0.259938 -0.611006 0
M  V30 4176 H 409.987 -1.33711 -1.54863 0
M  V30 4177 H 409.997 -0.958855 -3.96573 0
M  V30 4178 H 408.672 -2.05653 -3.61497 0
M  V30 4179 H 407.249 -0.228193 -3.72201 0
M  V30 4180 N 409.434 1.37368 -0.772513 0
M  V30 4181 C 410.68 1.99969 -0.337681 0
M  V30 4182 C 411.013 1.61184 1.08321 0
M  V30 4183 O 410.288 0.858395 1.74533 0
M  V30 4184 C 410.571 3.56858 -0.482121 0
M  V30 4185 C 410.424 4.0555 -1.94549 0
M  V30 4186 C 411.743 4.39955 0.113143 0
M  V30 4187 H 408.862 0.726464 -0.124171 0
M  V30 4188 H 411.504 1.63034 -0.975699 0
M  V30 4189 H 409.654 3.88452 0.0610361 0
M  V30 4190 H 411.326 3.84518 -2.54841 0
M  V30 4191 H 409.569 3.57715 -2.45403 0
M  V30 4192 H 410.24 5.14587 -1.9976 0
M  V30 4193 H 412.716 4.14623 -0.35031 0
M  V30 4194 H 411.592 5.48897 -0.0180514 0
M  V30 4195 H 411.853 4.25403 1.20354 0
M  V30 4196 N 410.912 0.523116 1.48665 0
M  V30 4197 C 411.844 -0.280421 2.27478 0
M  V30 4198 C 412.857 -0.910694 1.34945 0
M  V30 4199 O 414.046 -0.790295 1.60052 0
M  V30 4200 C 411.146 -1.41171 3.08097 0
M  V30 4201 C 410.319 -0.884642 4.28361 0
M  V30 4202 C 409.378 -1.89622 4.90846 0
M  V30 4203 O 408.404 -1.4559 5.50265 0
M  V30 4204 N 409.606 -3.22801 4.82472 0
M  V30 4205 H 412.371 0.395481 2.97079 0
M  V30 4206 H 409.932 0.357018 1.57915 0
M  V30 4207 H 411.924 -2.08645 3.4677 0
M  V30 4208 H 410.494 -1.99139 2.40961 0
M  V30 4209 H 409.714 -0.0341177 3.94185 0
M  V30 4210 H 411.002 -0.511268 5.06225 0
M  V30 4211 H 410.4 -3.61246 4.35336 0
M  V30 4212 H 408.957 -3.85927 5.25265 0
M  V30 4213 N 412.39 -1.55475 0.257931 0
M  V30 4214 C 413.636 -1.99502 -0.364266 0
M  V30 4215 C 413.969 -1.146 -1.56782 0
M  V30 4216 O 413.244 -0.211968 -1.93342 0
M  V30 4217 C 413.527 -3.51917 -0.763333 0
M  V30 4218 C 413.38 -4.4758 0.446371 0
M  V30 4219 C 414.699 -4.09742 -1.60623 0
M  V30 4220 H 411.818 -0.725277 -0.130929 0
M  V30 4221 H 414.46 -1.8653 0.361446 0
M  V30 4222 H 412.61 -3.63101 -1.38166 0
M  V30 4223 H 414.282 -4.48362 1.08487 0
M  V30 4224 H 412.525 -4.19947 1.08753 0
M  V30 4225 H 413.196 -5.51862 0.123645 0
M  V30 4226 H 415.672 -4.01727 -1.08418 0
M  V30 4227 H 414.548 -5.16631 -1.85429 0
M  V30 4228 H 414.809 -3.58889 -2.58169 0
M  V30 4229 N 413.868 0.0150385 -1.57593 0
M  V30 4230 C 414.816 1.02958 -2.08572 0
M  V30 4231 C 415.81 1.36554 -1.00246 0
M  V30 4232 O 417.016 1.35295 -1.18724 0
M  V30 4233 H 413.391 0.349619 -0.665786 0
M  V30 4234 H 415.362 0.573932 -2.92829 0
M  V30 4235 C 414.111 2.31752 -2.59203 0
M  V30 4236 H 413.434 2.06765 -3.42182 0
M  V30 4237 H 414.874 3.01053 -2.98568 0
M  V30 4238 C 413.333 3.01692 -1.49945 0
M  V30 4239 O 413.863 3.92083 -0.873704 0
M  V30 4240 N 412.069 2.6326 -1.23056 0
M  V30 4241 H 411.616 1.89838 -1.74125 0
M  V30 4242 H 411.574 3.10372 -0.501685 0
M  V30 4243 N 415.346 1.54954 0.287554 0
M  V30 4244 C 416.592 1.75132 1.02257 0
M  V30 4245 C 416.925 0.542858 1.86458 0
M  V30 4246 O 416.2 -0.459856 1.88986 0
M  V30 4247 C 416.483 3.04812 1.91733 0
M  V30 4248 C 416.336 4.35985 1.10622 0
M  V30 4249 C 417.655 3.30438 2.90687 0
M  V30 4250 H 414.774 0.637194 0.370341 0
M  V30 4251 H 417.416 1.87678 0.296111 0
M  V30 4252 H 415.566 2.94247 2.53675 0
M  V30 4253 H 417.238 4.58487 0.508636 0
M  V30 4254 H 415.481 4.31865 0.409271 0
M  V30 4255 H 416.152 5.23017 1.76513 0
M  V30 4256 H 418.628 3.40701 2.38877 0
M  V30 4257 H 417.504 4.22467 3.50447 0
M  V30 4258 H 417.765 2.49377 3.65053 0
M  V30 4259 N 416.824 -0.551391 1.4764 0
M  V30 4260 C 418.049 -1.33837 1.58437 0
M  V30 4261 C 418.474 -1.866 0.237063 0
M  V30 4262 O 417.832 -1.6328 -0.787994 0
M  V30 4263 C 417.88 -2.48014 2.61766 0
M  V30 4264 O 416.984 -3.50419 2.1744 0
M  V30 4265 H 416.325 -0.397299 0.532024 0
M  V30 4266 H 418.855 -0.665759 1.93465 0
M  V30 4267 H 418.865 -2.94503 2.82369 0
M  V30 4268 H 417.54 -2.08969 3.5959 0
M  V30 4269 H 416.117 -3.10196 2.06961 0
M  V30 4270 N 418.302 -1.35869 -0.798587 0
M  V30 4271 C 419.549 -1.29588 -1.55606 0
M  V30 4272 C 419.877 0.127456 -1.94082 0
M  V30 4273 O 419.132 1.09461 -1.62225 0
M  V30 4274 C 419.431 -2.1556 -2.85077 0
M  V30 4275 C 419.097 -3.6424 -2.65781 0
M  V30 4276 C 417.759 -4.04766 -2.60227 0
M  V30 4277 C 420.111 -4.58547 -2.47758 0
M  V30 4278 C 417.439 -5.37753 -2.34603 0
M  V30 4279 C 419.791 -5.91742 -2.23662 0
M  V30 4280 C 418.455 -6.31402 -2.16534 0
M  V30 4281 H 417.725 -0.474197 -0.569402 0
M  V30 4282 H 420.372 -1.67839 -0.922086 0
M  V30 4283 H 418.677 -1.70216 -3.52893 0
M  V30 4284 H 420.374 -2.08031 -3.42818 0
M  V30 4285 H 416.964 -3.32086 -2.70956 0
M  V30 4286 H 421.148 -4.28117 -2.51056 0
M  V30 4287 H 416.404 -5.67474 -2.2756 0
M  V30 4288 H 420.578 -6.6439 -2.08708 0
M  V30 4289 H 418.205 -7.34381 -1.96441 0
M  V30 4290 N 419.78 1.02168 -1.19998 0
M  V30 4291 C 421.191 1.57135 -1.00825 0
M  V30 4292 C 421.542 1.91276 0.436818 0
M  V30 4293 O 420.667 1.71679 1.3174 0
M  V30 4294 C 421.262 2.85514 -1.82393 0
M  V30 4295 C 419.821 3.37027 -1.67601 0
M  V30 4296 C 418.968 2.10388 -1.80644 0
M  V30 4297 H 421.919 0.846106 -1.34264 0
M  V30 4298 H 421.94 3.56711 -1.32429 0
M  V30 4299 H 421.452 2.60634 -2.87561 0
M  V30 4300 H 419.553 3.66878 -0.650485 0
M  V30 4301 H 419.666 4.09572 -2.4857 0
M  V30 4302 H 418.03 2.22601 -1.23778 0
M  V30 4303 H 418.813 1.8794 -2.87286 0
M  V30 4304 N 421.258 1.00505 1.21394 0
M  V30 4305 C 422.221 0.570459 2.21987 0
M  V30 4306 C 423.221 -0.353211 1.56873 0
M  V30 4307 O 424.411 -0.14349 1.73608 0
M  V30 4308 C 421.543 -0.168555 3.40483 0
M  V30 4309 H 422.736 1.46021 2.6195 0
M  V30 4310 H 420.289 0.793565 1.34656 0
M  V30 4311 H 421.024 -1.07374 3.06009 0
M  V30 4312 H 420.809 0.494823 3.88965 0
M  V30 4313 H 422.299 -0.460362 4.15055 0
M  V30 4314 N 422.737 -1.36956 0.779787 0
M  V30 4315 C 423.962 -2.04283 0.358224 0
M  V30 4316 C 424.387 -1.58422 -1.01411 0
M  V30 4317 O 423.745 -0.748179 -1.65142 0
M  V30 4318 C 423.793 -3.58152 0.419479 0
M  V30 4319 O 422.897 -4.08342 -0.577142 0
M  V30 4320 H 422.238 -0.645967 0.153698 0
M  V30 4321 H 424.768 -1.75108 1.05822 0
M  V30 4322 H 424.778 -4.07041 0.279636 0
M  V30 4323 H 423.453 -3.90886 1.42061 0
M  V30 4324 H 422.03 -3.70751 -0.399755 0
M  V30 4325 N 424.215 -0.530993 -1.48385 0
M  V30 4326 C 425.461 0.00274135 -2.028 0
M  V30 4327 C 425.794 1.33838 -1.40716 0
M  V30 4328 O 425.069 1.86465 -0.553277 0
M  V30 4329 C 425.352 0.123676 -3.59888 0
M  V30 4330 C 425.205 -1.2372 -4.3245 0
M  V30 4331 C 426.524 0.849967 -4.31814 0
M  V30 4332 H 423.643 -0.000477758 -0.737 0
M  V30 4333 H 426.285 -0.688217 -1.77098 0
M  V30 4334 H 424.435 0.712157 -3.81917 0
M  V30 4335 H 426.107 -1.86687 -4.21836 0
M  V30 4336 H 424.35 -1.81882 -3.93829 0
M  V30 4337 H 425.021 -1.10557 -5.40815 0
M  V30 4338 H 427.497 0.350572 -4.14621 0
M  V30 4339 H 426.373 0.903486 -5.41413 0
M  V30 4340 H 426.634 1.90047 -3.99167 0
M  V30 4341 N 425.693 1.55336 -0.266172 0
M  V30 4342 C 426.625 2.19544 0.658247 0
M  V30 4343 C 427.638 1.17746 1.12427 0
M  V30 4344 O 428.827 1.44517 1.04772 0
M  V30 4345 C 425.927 2.80032 1.9088 0
M  V30 4346 C 425.1 4.07436 1.59106 0
M  V30 4347 C 424.159 4.52056 2.69317 0
M  V30 4348 O 423.185 5.18023 2.35883 0
M  V30 4349 N 424.387 4.21448 3.99201 0
M  V30 4350 H 427.152 2.99503 0.108754 0
M  V30 4351 H 424.713 1.61667 -0.0869059 0
M  V30 4352 H 426.705 3.06831 2.63888 0
M  V30 4353 H 425.275 2.04119 2.36758 0
M  V30 4354 H 424.495 3.88021 0.695243 0
M  V30 4355 H 425.783 4.90462 1.35367 0
M  V30 4356 H 425.181 3.68528 4.29189 0
M  V30 4357 H 423.738 4.53039 4.68614 0
M  V30 4358 N 427.171 -0.0066808 1.57599 0
M  V30 4359 C 428.101 -0.999296 2.11036 0
M  V30 4360 C 429.082 -1.36278 1.01795 0
M  V30 4361 O 430.267 -1.4477 1.29442 0
M  V30 4362 C 427.397 -2.29328 2.60818 0
M  V30 4363 C 426.351 -2.07159 3.74525 0
M  V30 4364 C 425.677 -3.42512 4.10596 0
M  V30 4365 C 426.977 -1.43959 5.02069 0
M  V30 4366 H 428.671 -0.554382 2.94223 0
M  V30 4367 H 426.217 -0.265221 1.41536 0
M  V30 4368 H 428.17 -2.99117 2.96828 0
M  V30 4369 H 426.894 -2.7592 1.74745 0
M  V30 4370 H 425.553 -1.39797 3.38899 0
M  V30 4371 H 425.201 -3.86795 3.21556 0
M  V30 4372 H 424.901 -3.28498 4.87199 0
M  V30 4373 H 426.425 -4.13628 4.4916 0
M  V30 4374 H 427.839 -2.03696 5.35893 0
M  V30 4375 H 426.236 -1.40452 5.83432 0
M  V30 4376 H 427.306 -0.407992 4.83181 0
M  V30 4377 N 428.649 -1.55105 -0.279332 0
M  V30 4378 C 429.599 -1.83937 -1.34727 0
M  V30 4379 C 430.583 -0.69785 -1.44979 0
M  V30 4380 O 431.775 -0.95904 -1.48766 0
M  V30 4381 C 428.904 -2.1092 -2.70864 0
M  V30 4382 C 427.99 -3.31314 -2.64748 0
M  V30 4383 N 428.381 -4.51371 -2.2825 0
M  V30 4384 C 426.679 -3.33777 -2.95819 0
M  V30 4385 C 427.38 -5.33447 -2.31969 0
M  V30 4386 N 426.356 -4.71697 -2.7019 0
M  V30 4387 H 430.158 -2.74309 -1.05506 0
M  V30 4388 H 427.672 -1.54896 -0.487959 0
M  V30 4389 H 429.669 -2.2973 -3.47893 0
M  V30 4390 H 428.329 -1.21828 -3.00979 0
M  V30 4391 H 429.34 -4.77584 -2.00335 0
M  V30 4392 H 426.017 -2.54858 -3.30687 0
M  V30 4393 H 427.407 -6.39424 -2.06365 0
M  V30 4394 N 430.127 0.543554 -1.4793 0
M  V30 4395 C 431.355 1.32516 -1.58894 0
M  V30 4396 C 431.77 1.87215 -0.244131 0
M  V30 4397 O 431.127 1.65709 0.764652 0
M  V30 4398 C 431.178 2.48554 -2.62494 0
M  V30 4399 O 430.899 1.96112 -3.91755 0
M  V30 4400 C 432.4 3.40572 -2.8377 0
M  V30 4401 H 429.62 0.403472 -0.536145 0
M  V30 4402 H 432.164 0.657106 -1.93655 0
M  V30 4403 H 430.319 3.1127 -2.30629 0
M  V30 4404 H 430.733 2.71967 -4.4848 0
M  V30 4405 H 432.207 4.18375 -3.60093 0
M  V30 4406 H 432.684 3.94965 -1.92092 0
M  V30 4407 H 433.29 2.8366 -3.16887 0
M  V30 4408 N 431.605 1.3629 0.791371 0
M  V30 4409 C 432.568 1.30309 1.88553 0
M  V30 4410 C 433.568 0.211204 1.59407 0
M  V30 4411 O 434.758 0.465865 1.67855 0
M  V30 4412 C 431.89 1.01956 3.25297 0
M  V30 4413 H 433.083 2.27614 1.95273 0
M  V30 4414 H 430.636 1.21035 0.988953 0
M  V30 4415 H 431.371 0.050998 3.2426 0
M  V30 4416 H 431.156 1.80968 3.4784 0
M  V30 4417 H 432.646 1.0037 4.05359 0
M  V30 4418 N 433.083 -1.0153 1.20538 0
M  V30 4419 C 434.329 -1.75408 1.01783 0
M  V30 4420 C 434.662 -1.88943 -0.448814 0
M  V30 4421 O 433.937 -1.4162 -1.33319 0
M  V30 4422 C 434.22 -3.17255 1.70356 0
M  V30 4423 C 434.073 -3.11508 3.24473 0
M  V30 4424 C 435.392 -4.15955 1.43769 0
M  V30 4425 H 432.511 -0.636713 0.371167 0
M  V30 4426 H 435.153 -1.18436 1.4857 0
M  V30 4427 H 433.303 -3.65898 1.30578 0
M  V30 4428 H 434.975 -2.70658 3.73553 0
M  V30 4429 H 433.218 -2.4887 3.55311 0
M  V30 4430 H 433.889 -4.11784 3.67611 0
M  V30 4431 H 436.365 -3.75973 1.7828 0
M  V30 4432 H 435.241 -5.13368 1.94279 0
M  V30 4433 H 435.502 -4.40586 0.365564 0
M  V30 4434 N 434.561 -1.01147 -1.20859 0
M  V30 4435 C 435.471 -0.58686 -2.27141 0
M  V30 4436 C 436.487 0.373198 -1.69951 0
M  V30 4437 O 437.663 0.235423 -2.00019 0
M  V30 4438 C 434.728 0.0733602 -3.46622 0
M  V30 4439 C 433.789 -0.931995 -4.19061 0
M  V30 4440 C 433.022 -0.303186 -5.32838 0
M  V30 4441 O 433.245 0.898395 -5.63281 0
M  V30 4442 O 432.179 -1.01735 -5.9324 0
M  V30 4443 H 436.005 -1.47155 -2.65667 0
M  V30 4444 H 433.59 -0.780689 -1.2738 0
M  V30 4445 H 435.472 0.442333 -4.19072 0
M  V30 4446 H 434.147 0.932329 -3.09983 0
M  V30 4447 H 433.054 -1.35224 -3.48805 0
M  V30 4448 H 434.387 -1.76076 -4.59628 0
M  V30 4449 N 436.039 1.36541 -0.78704 0
M  V30 4450 C 436.972 2.27831 -0.129765 0
M  V30 4451 C 437.95 1.47105 0.692732 0
M  V30 4452 O 439.134 1.7641 0.664222 0
M  V30 4453 C 436.261 3.28577 0.821883 0
M  V30 4454 C 435.307 4.26422 0.0814771 0
M  V30 4455 S 436.14 5.20919 -1.24112 0
M  V30 4456 C 437.296 6.25212 -0.293409 0
M  V30 4457 H 437.529 2.83229 -0.903811 0
M  V30 4458 H 435.062 1.43046 -0.581144 0
M  V30 4459 H 437.02 3.87123 1.3655 0
M  V30 4460 H 435.681 2.72096 1.56916 0
M  V30 4461 H 434.874 4.97554 0.803485 0
M  V30 4462 H 434.476 3.71944 -0.391589 0
M  V30 4463 H 436.768 6.75435 0.528622 0
M  V30 4464 H 437.711 7.01378 -0.973344 0
M  V30 4465 H 438.119 5.64407 0.102196 0
M  V30 4466 N 437.518 0.538854 1.48102 0
M  V30 4467 C 438.468 -0.23907 2.26743 0
M  V30 4468 C 439.452 -0.901923 1.33245 0
M  V30 4469 O 440.644 -0.803263 1.57723 0
M  V30 4470 C 437.773 -1.2799 3.18549 0
M  V30 4471 C 436.859 -0.621388 4.19523 0
M  V30 4472 N 437.25 0.298004 5.04921 0
M  V30 4473 C 435.548 -0.877533 4.37282 0
M  V30 4474 C 436.249 0.678757 5.77726 0
M  V30 4475 N 435.225 0.0377881 5.43587 0
M  V30 4476 H 439.027 0.468096 2.90148 0
M  V30 4477 H 436.541 0.357497 1.58416 0
M  V30 4478 H 438.538 -1.851 3.73555 0
M  V30 4479 H 437.198 -1.98835 2.567 0
M  V30 4480 H 438.209 0.671126 5.13533 0
M  V30 4481 H 434.886 -1.57588 3.86616 0
M  V30 4482 H 436.276 1.43316 6.56437 0
M  V30 4483 N 438.996 -1.55193 0.274407 0
M  V30 4484 C 439.946 -2.19184 -0.627882 0
M  V30 4485 C 440.93 -1.15625 -1.11892 0
M  V30 4486 O 442.122 -1.41441 -1.06411 0
M  V30 4487 C 439.251 -2.91591 -1.81189 0
M  V30 4488 C 438.337 -4.02438 -1.33807 0
M  V30 4489 N 438.728 -5.0246 -0.580349 0
M  V30 4490 C 437.026 -4.15496 -1.62109 0
M  V30 4491 C 437.727 -5.80756 -0.331344 0
M  V30 4492 N 436.703 -5.36038 -0.903556 0
M  V30 4493 H 440.505 -2.93871 -0.0411216 0
M  V30 4494 H 438.019 -1.62213 0.0779348 0
M  V30 4495 H 440.016 -3.35883 -2.46957 0
M  V30 4496 H 438.676 -2.18414 -2.40261 0
M  V30 4497 H 439.687 -5.17399 -0.227762 0
M  V30 4498 H 436.364 -3.53509 -2.22121 0
M  V30 4499 H 437.754 -6.71335 0.275454 0
M  V30 4500 N 440.474 -0.00167713 -1.576 0
M  V30 4501 C 441.72 0.67819 -1.91761 0
M  V30 4502 C 442.075 1.71288 -0.876256 0
M  V30 4503 O 441.368 1.91276 0.111333 0
M  V30 4504 C 441.562 1.36189 -3.30435 0
M  V30 4505 C 441.391 0.394938 -4.47962 0
M  V30 4506 C 440.161 0.00472875 -5.053 0
M  V30 4507 C 442.359 -0.339521 -5.13178 0
M  V30 4508 N 440.341 -0.960257 -6.06343 0
M  V30 4509 C 441.712 -1.15914 -6.09068 0
M  V30 4510 C 443.767 -0.403177 -4.96265 0
M  V30 4511 C 442.47 -2.03661 -6.89866 0
M  V30 4512 C 444.496 -1.26788 -5.77649 0
M  V30 4513 C 443.858 -2.07535 -6.73134 0
M  V30 4514 H 439.957 0.221317 -0.750028 0
M  V30 4515 H 442.541 -0.0624182 -1.946 0
M  V30 4516 H 440.712 2.07278 -3.28467 0
M  V30 4517 H 442.444 1.99658 -3.52021 0
M  V30 4518 H 439.199 0.373452 -4.72125 0
M  V30 4519 H 439.623 -1.43817 -6.61548 0
M  V30 4520 H 444.265 0.206818 -4.22294 0
M  V30 4521 H 441.983 -2.65727 -7.63161 0
M  V30 4522 H 445.569 -1.32107 -5.66603 0
M  V30 4523 H 444.449 -2.73363 -7.35012 0
M  V30 4524 N 441.952 1.55251 0.271103 0
M  V30 4525 C 443.192 1.77698 1.01008 0
M  V30 4526 C 443.556 0.567246 1.83429 0
M  V30 4527 O 444.757 0.670013 2.60316 0
M  V30 4528 C 443.028 3.04715 1.86772 0
M  V30 4529 S 444.587 3.48289 2.66909 0
M  V30 4530 H 441.405 0.624343 0.340172 0
M  V30 4531 H 444.007 1.9348 0.280315 0
M  V30 4532 H 442.711 3.90853 1.25149 0
M  V30 4533 H 442.242 2.91604 2.64066 0
M  V30 4534 H 444.257 3.07712 3.89266 0
M  V30 4535 N 443.43 -0.535701 1.48216 0
M  V30 4536 C 444.679 -1.28828 1.55197 0
M  V30 4537 C 444.992 -1.94263 0.228278 0
M  V30 4538 O 446.198 -2.70927 0.176278 0
M  V30 4539 C 444.654 -2.33727 2.73678 0
M  V30 4540 C 444.262 -1.74386 4.12666 0
M  V30 4541 C 446.006 -3.1003 2.89968 0
M  V30 4542 C 443.913 -2.77192 5.22416 0
M  V30 4543 H 442.843 -0.484484 0.577747 0
M  V30 4544 H 445.494 -0.56646 1.74538 0
M  V30 4545 H 443.876 -3.08919 2.4776 0
M  V30 4546 H 445.05 -1.05421 4.48579 0
M  V30 4547 H 443.365 -1.10595 4.01445 0
M  V30 4548 H 445.962 -3.86842 3.6913 0
M  V30 4549 H 446.305 -3.65542 1.9921 0
M  V30 4550 H 446.838 -2.41952 3.15759 0
M  V30 4551 H 443.577 -2.26507 6.15122 0
M  V30 4552 H 443.097 -3.44502 4.90998 0
M  V30 4553 H 444.776 -3.40285 5.50286 0
M  V30 4554 N 444.908 -1.36708 -0.784132 0
M  V30 4555 C 446.319 -1.27947 -1.35965 0
M  V30 4556 C 446.67 0.0784013 -1.96043 0
M  V30 4557 O 445.795 0.979989 -1.92938 0
M  V30 4558 C 446.39 -2.31689 -2.47195 0
M  V30 4559 C 444.949 -2.26601 -3.00548 0
M  V30 4560 C 444.096 -2.16184 -1.73666 0
M  V30 4561 H 447.047 -1.4751 -0.585358 0
M  V30 4562 H 447.068 -1.95638 -3.26352 0
M  V30 4563 H 446.58 -3.30506 -2.03439 0
M  V30 4564 H 444.681 -1.31268 -3.48711 0
M  V30 4565 H 444.794 -3.19508 -3.57004 0
M  V30 4566 H 443.158 -1.62524 -1.96107 0
M  V30 4567 H 443.941 -3.16896 -1.32031 0
M  V30 4568 N 446.386 1.0089 -1.21074 0
M  V30 4569 C 447.633 1.74607 -1.0256 0
M  V30 4570 C 447.961 1.89426 0.44136 0
M  V30 4571 O 447.216 1.42266 1.34384 0
M  V30 4572 C 447.515 3.16335 -1.66334 0
M  V30 4573 C 447.181 3.21474 -3.16173 0
M  V30 4574 C 445.843 3.22583 -3.57062 0
M  V30 4575 C 448.195 3.19025 -4.12156 0
M  V30 4576 C 445.523 3.18925 -4.92446 0
M  V30 4577 C 447.875 3.16909 -5.47496 0
M  V30 4578 C 446.539 3.16326 -5.87787 0
M  V30 4579 H 445.809 0.638933 -0.375294 0
M  V30 4580 H 448.456 1.18274 -1.50611 0
M  V30 4581 H 446.761 3.75876 -1.10566 0
M  V30 4582 H 448.458 3.72083 -1.49516 0
M  V30 4583 H 445.048 3.2135 -2.83605 0
M  V30 4584 H 449.232 3.17332 -3.81595 0
M  V30 4585 H 444.488 3.16809 -5.22917 0
M  V30 4586 H 448.662 3.13968 -6.21609 0
M  V30 4587 H 446.289 3.13246 -6.92662 0
M  V30 4588 N 447.864 1.01787 1.20321 0
M  V30 4589 C 449.089 0.727009 1.9424 0
M  V30 4590 C 449.514 -0.706179 1.74341 0
M  V30 4591 O 448.872 -1.48609 1.03852 0
M  V30 4592 C 448.92 1.06958 3.44372 0
M  V30 4593 O 448.024 0.181983 4.11998 0
M  V30 4594 H 447.365 0.269626 0.606793 0
M  V30 4595 H 449.895 1.36158 1.52716 0
M  V30 4596 H 449.905 1.02182 3.94997 0
M  V30 4597 H 448.58 2.11378 3.58179 0
M  V30 4598 H 447.157 0.287378 3.71791 0
M  V30 4599 N 449.342 -1.36122 0.79427 0
M  V30 4600 C 450.588 -1.99406 0.369452 0
M  V30 4601 C 450.921 -1.62886 -1.05743 0
M  V30 4602 O 450.196 -0.886053 -1.73145 0
M  V30 4603 C 450.479 -3.56046 0.538833 0
M  V30 4604 C 450.332 -4.02404 2.00976 0
M  V30 4605 C 451.651 -4.40079 -0.0431359 0
M  V30 4606 H 448.77 -0.724397 0.135712 0
M  V30 4607 H 451.412 -1.61461 1.00151 0
M  V30 4608 H 449.562 -3.885 0.000771004 0
M  V30 4609 H 451.234 -3.80415 2.60926 0
M  V30 4610 H 449.477 -3.53765 2.51063 0
M  V30 4611 H 450.148 -5.11344 2.07922 0
M  V30 4612 H 452.624 -4.14013 0.416228 0
M  V30 4613 H 451.5 -5.48799 0.105374 0
M  V30 4614 H 451.761 -4.27264 -1.13571 0
M  V30 4615 N 450.82 -0.546701 -1.47814 0
M  V30 4616 C 452.097 0.0464413 -1.95545 0
M  V30 4617 C 452.477 1.4962 -1.48919 0
M  V30 4618 O 451.825 2.16752 -0.723232 0
M  V30 4619 C 452.035 -0.0881298 -3.48889 0
M  V30 4620 C 453.383 0.0626059 -4.24554 0
M  V30 4621 O 454.407 -0.0151555 -3.56197 0
M  V30 4622 O 453.266 0.228071 -5.46024 0
M  V30 4623 H 450.36 0.0700004 -0.824032 0
M  V30 4624 H 452.906 -0.612482 -1.58262 0
M  V30 4625 H 451.678 -1.09737 -3.75597 0
M  V30 4626 H 451.301 0.608886 -3.9291 0
M  V30 4627 N 452.299 1.55045 -0.282633 0
M  V30 4628 C 453.547 1.99365 0.331334 0
M  V30 4629 C 453.868 1.1725 1.55812 0
M  V30 4630 O 453.138 0.263871 1.94115 0
M  V30 4631 H 451.718 0.736397 0.125414 0
M  V30 4632 H 454.38 1.90964 -0.389711 0
M  V30 4633 H 453.476 3.0596 0.616036 0
M  V30 4634 N 453.777 0.010035 1.57597 0
M  V30 4635 C 454.709 -1.00649 2.05918 0
M  V30 4636 C 455.722 -1.30077 0.978964 0
M  V30 4637 O 456.911 -1.26878 1.25556 0
M  V30 4638 C 454.011 -2.33876 2.45265 0
M  V30 4639 C 453.184 -2.23242 3.7614 0
M  V30 4640 C 452.243 -3.39242 4.02245 0
M  V30 4641 O 451.269 -3.1698 4.72771 0
M  V30 4642 N 452.471 -4.6242 3.50924 0
M  V30 4643 H 455.236 -0.594333 2.93748 0
M  V30 4644 H 452.797 -0.17714 1.60928 0
M  V30 4645 H 454.789 -3.1027 2.59836 0
M  V30 4646 H 453.359 -2.66799 1.62902 0
M  V30 4647 H 452.579 -1.31696 3.71551 0
M  V30 4648 H 453.867 -2.13321 4.61922 0
M  V30 4649 H 453.265 -4.83404 2.93832 0
M  V30 4650 H 451.822 -5.36046 3.70807 0
M  V30 4651 N 455.255 -1.55392 -0.262866 0
M  V30 4652 C 456.666 -1.67079 -0.833158 0
M  V30 4653 C 457.017 -0.604539 -1.86654 0
M  V30 4654 O 456.142 0.252138 -2.14926 0
M  V30 4655 C 456.737 -3.02891 -1.51797 0
M  V30 4656 C 455.296 -3.16571 -2.03617 0
M  V30 4657 C 454.443 -2.62909 -0.881701 0
M  V30 4658 H 457.394 -1.58652 -0.0389986 0
M  V30 4659 H 457.415 -2.96445 -2.38538 0
M  V30 4660 H 456.927 -3.80473 -0.765619 0
M  V30 4661 H 455.028 -2.43782 -2.81782 0
M  V30 4662 H 455.141 -4.23271 -2.24452 0
M  V30 4663 H 453.505 -2.20324 -1.27786 0
M  V30 4664 H 454.288 -3.43003 -0.14269 0
M  V30 4665 N 456.733 0.527833 -1.48498 0
M  V30 4666 C 457.696 1.61439 -1.62696 0
M  V30 4667 C 458.696 1.52824 -0.500136 0
M  V30 4668 O 459.886 1.56456 -0.765976 0
M  V30 4669 C 457.018 3.01063 -1.59918 0
M  V30 4670 H 458.211 1.50189 -2.59583 0
M  V30 4671 H 455.764 0.750055 -1.37127 0
M  V30 4672 H 456.499 3.17818 -0.645163 0
M  V30 4673 H 456.284 3.08725 -2.41726 0
M  V30 4674 H 457.774 3.80057 -1.73051 0
M  V30 4675 N 458.211 1.37122 0.776871 0
M  V30 4676 C 459.622 1.28667 1.35284 0
M  V30 4677 C 459.973 -0.0680035 1.96082 0
M  V30 4678 O 459.098 -0.969743 1.93455 0
M  V30 4679 C 459.693 2.32997 2.45963 0
M  V30 4680 C 458.252 2.28191 2.99342 0
M  V30 4681 C 457.399 2.17101 1.72517 0
M  V30 4682 H 460.35 1.47819 0.577527 0
M  V30 4683 H 460.371 1.97366 3.2531 0
M  V30 4684 H 459.883 3.3158 2.01684 0
M  V30 4685 H 457.984 1.33115 3.4801 0
M  V30 4686 H 458.097 3.21397 3.55304 0
M  V30 4687 H 456.461 1.63562 1.95242 0
M  V30 4688 H 457.244 3.17591 1.30348 0
M  V30 4689 N 459.689 -1.00246 1.21608 0
M  V30 4690 C 460.914 -1.78167 1.06167 0
M  V30 4691 C 461.339 -1.84138 -0.384035 0
M  V30 4692 O 460.697 -1.28683 -1.27712 0
M  V30 4693 C 460.745 -3.19786 1.66642 0
M  V30 4694 O 459.849 -4.02153 0.913613 0
M  V30 4695 H 459.19 -0.549 0.37349 0
M  V30 4696 H 461.72 -1.25994 1.61204 0
M  V30 4697 H 461.73 -3.70451 1.70969 0
M  V30 4698 H 460.405 -3.14754 2.7185 0
M  V30 4699 H 458.982 -3.60711 0.945635 0
M  V30 4700 N 461.167 -1.02423 -1.1978 0
M  V30 4701 C 462.097 -0.62157 -2.25075 0
M  V30 4702 C 463.078 0.367148 -1.6609 0
M  V30 4703 O 464.263 0.250892 -1.92573 0
M  V30 4704 C 461.393 0.0331826 -3.47284 0
M  V30 4705 C 460.347 -0.877323 -4.18912 0
M  V30 4706 C 459.673 -0.0879296 -5.34628 0
M  V30 4707 C 460.973 -2.18892 -4.74219 0
M  V30 4708 H 462.667 -1.50179 -2.59011 0
M  V30 4709 H 460.213 -0.723547 -1.24502 0
M  V30 4710 H 462.166 0.326488 -4.20133 0
M  V30 4711 H 460.89 0.948164 -3.12534 0
M  V30 4712 H 459.549 -1.15475 -3.47938 0
M  V30 4713 H 459.197 0.828941 -4.96123 0
M  V30 4714 H 458.897 -0.694359 -5.83483 0
M  V30 4715 H 460.421 0.198743 -6.10276 0
M  V30 4716 H 461.835 -1.95746 -5.38847 0
M  V30 4717 H 460.232 -2.74686 -5.33542 0
M  V30 4718 H 461.302 -2.84674 -3.92541 0
M  V30 4719 N 462.645 1.35699 -0.801477 0
M  V30 4720 C 464.061 1.52065 -0.484596 0
M  V30 4721 C 464.261 1.75215 0.995084 0
M  V30 4722 O 463.317 1.79061 1.78026 0
M  V30 4723 C 464.63 2.69908 -1.32552 0
M  V30 4724 C 466.178 2.83784 -1.32044 0
M  V30 4725 C 466.653 4.04646 -2.14536 0
M  V30 4726 N 468.144 4.11814 -2.12046 0
M  V30 4727 C 468.879 5.04437 -2.72636 0
M  V30 4728 N 468.375 6.02426 -3.42133 0
M  V30 4729 N 470.168 4.97144 -2.62305 0
M  V30 4730 H 462.319 1.18928 -1.75983 0
M  V30 4731 H 464.582 0.581455 -0.748741 0
M  V30 4732 H 464.288 2.59363 -2.37537 0
M  V30 4733 H 464.162 3.64376 -0.975181 0
M  V30 4734 H 466.549 2.93783 -0.27846 0
M  V30 4735 H 466.63 1.90188 -1.71062 0
M  V30 4736 H 466.274 3.95407 -3.18772 0
M  V30 4737 H 466.204 4.97413 -1.72882 0
M  V30 4738 H 468.695 3.41664 -1.61476 0
M  V30 4739 H 469.008 6.69688 -3.85666 0
M  V30 4740 H 467.353 6.02615 -3.46237 0
M  V30 4741 H 470.544 4.19546 -2.07603 0
M  V30 4742 H 470.717 5.69138 -3.09815 0
M  V30 4743 N 464.123 0.554532 1.47522 0
M  V30 4744 C 465.369 0.0377449 2.03365 0
M  V30 4745 C 465.724 -1.29654 1.42154 0
M  V30 4746 O 465.017 -1.83022 0.566865 0
M  V30 4747 C 465.211 -0.115927 3.57212 0
M  V30 4748 C 465.04 1.20191 4.33341 0
M  V30 4749 C 463.81 1.76849 4.73342 0
M  V30 4750 C 466.008 2.11849 4.68641 0
M  V30 4751 N 463.99 3.02665 5.34104 0
M  V30 4752 C 465.361 3.22245 5.29677 0
M  V30 4753 C 467.416 2.11876 4.5057 0
M  V30 4754 C 466.119 4.32763 5.74551 0
M  V30 4755 C 468.145 3.21405 4.9644 0
M  V30 4756 C 467.507 4.30519 5.57523 0
M  V30 4757 H 463.606 0.0559107 0.779999 0
M  V30 4758 H 466.19 0.741232 1.80038 0
M  V30 4759 H 464.361 -0.788533 3.80311 0
M  V30 4760 H 466.093 -0.634538 3.99695 0
M  V30 4761 H 462.848 1.30681 4.55214 0
M  V30 4762 H 463.272 3.66788 5.69031 0
M  V30 4763 H 467.914 1.28801 4.02704 0
M  V30 4764 H 465.632 5.166 6.2141 0
M  V30 4765 H 469.218 3.22509 4.8423 0
M  V30 4766 H 468.098 5.13873 5.92371 0
M  V30 4767 N 465.601 -1.54893 0.290851 0
M  V30 4768 C 466.531 -2.26103 -0.583084 0
M  V30 4769 C 467.512 -1.25684 -1.14619 0
M  V30 4770 O 468.697 -1.54436 -1.17741 0
M  V30 4771 C 465.827 -2.99409 -1.75987 0
M  V30 4772 C 464.781 -4.0689 -1.32758 0
M  V30 4773 C 464.107 -4.67856 -2.58872 0
M  V30 4774 C 465.407 -5.20215 -0.46624 0
M  V30 4775 H 467.101 -2.99398 0.0108214 0
M  V30 4776 H 464.647 -1.43998 0.00664468 0
M  V30 4777 H 466.6 -3.47943 -2.37727 0
M  V30 4778 H 465.324 -2.23675 -2.37985 0
M  V30 4779 H 463.983 -3.59191 -0.733299 0
M  V30 4780 H 463.631 -3.88772 -3.19163 0
M  V30 4781 H 463.331 -5.40438 -2.30653 0
M  V30 4782 H 464.855 -5.19147 -3.21433 0
M  V30 4783 H 466.269 -5.64704 -0.989047 0
M  V30 4784 H 464.666 -5.99455 -0.27826 0
M  V30 4785 H 465.736 -4.82198 0.511173 0
M  V30 4786 N 467.08 -0.0183926 -1.57589 0
M  V30 4787 C 468.327 0.662562 -1.91354 0
M  V30 4788 C 468.655 1.72747 -0.893788 0
M  V30 4789 O 467.91 1.9545 0.0988509 0
M  V30 4790 C 468.209 1.32676 -3.31861 0
M  V30 4791 C 467.875 0.393267 -4.49182 0
M  V30 4792 C 466.537 0.136302 -4.81007 0
M  V30 4793 C 468.889 -0.248366 -5.20608 0
M  V30 4794 C 466.217 -0.770282 -5.81621 0
M  V30 4795 C 468.569 -1.14294 -6.22189 0
M  V30 4796 C 467.233 -1.4089 -6.52462 0
M  V30 4797 H 466.503 0.242448 -0.700214 0
M  V30 4798 H 469.15 -0.0778629 -1.91342 0
M  V30 4799 H 467.455 2.14168 -3.28084 0
M  V30 4800 H 469.152 1.86001 -3.55253 0
M  V30 4801 H 465.742 0.603723 -4.24327 0
M  V30 4802 H 469.926 -0.062883 -4.9626 0
M  V30 4803 H 465.182 -0.984154 -6.03427 0
M  V30 4804 H 469.356 -1.64637 -6.76659 0
M  V30 4805 H 466.983 -2.11306 -7.30242 0
M  V30 4806 N 468.558 1.5553 0.254621 0
M  V30 4807 C 469.506 1.9048 1.33492 0
M  V30 4808 C 470.5 0.78304 1.50216 0
M  V30 4809 O 471.706 0.967582 1.51782 0
M  V30 4810 H 468.081 0.604846 0.44684 0
M  V30 4811 H 470.052 2.80688 1.01275 0
M  V30 4812 C 468.801 2.20928 2.68489 0
M  V30 4813 H 468.124 3.06742 2.56417 0
M  V30 4814 H 469.564 2.49291 3.42972 0
M  V30 4815 C 468.023 1.023 3.20993 0
M  V30 4816 O 468.553 0.267027 4.00811 0
M  V30 4817 N 466.759 0.815714 2.78917 0
M  V30 4818 H 466.306 1.43217 2.14119 0
M  V30 4819 H 466.264 0.0236532 3.14391 0
M  V30 4820 N 470.036 -0.519951 1.48776 0
M  V30 4821 C 471.284 -1.2727 1.56993 0
M  V30 4822 C 471.605 -1.9339 0.25004 0
M  V30 4823 O 470.875 -1.81822 -0.729216 0
M  V30 4824 H 469.455 -0.472732 0.578389 0
M  V30 4825 H 472.117 -0.604234 1.85297 0
M  V30 4826 H 471.213 -2.04669 2.3562 0
M  V30 4827 N 471.514 -1.37532 -0.769588 0
M  V30 4828 C 472.739 -1.36231 -1.56384 0
M  V30 4829 C 473.164 0.0495849 -1.88035 0
M  V30 4830 O 472.522 1.02723 -1.49391 0
M  V30 4831 C 472.57 -2.20986 -2.84952 0
M  V30 4832 O 471.674 -1.61597 -3.79421 0
M  V30 4833 H 471.015 -0.465387 -0.473615 0
M  V30 4834 H 473.545 -1.81085 -0.952342 0
M  V30 4835 H 473.555 -2.34277 -3.34034 0
M  V30 4836 H 472.23 -3.23612 -2.61243 0
M  V30 4837 H 470.807 -1.57359 -3.38072 0
M  V30 4838 N 472.992 0.995999 -1.22138 0
M  V30 4839 C 474.238 1.73767 -1.04561 0
M  V30 4840 C 474.571 1.89633 0.418698 0
M  V30 4841 O 473.846 1.43723 1.3105 0
M  V30 4842 C 474.129 3.14505 -1.75382 0
M  V30 4843 C 473.982 3.06306 -3.29388 0
M  V30 4844 C 475.301 4.13615 -1.50369 0
M  V30 4845 H 472.42 0.630728 -0.38125 0
M  V30 4846 H 475.062 1.16057 -1.50435 0
M  V30 4847 H 473.212 3.63775 -1.36383 0
M  V30 4848 H 474.884 2.64681 -3.77812 0
M  V30 4849 H 473.127 2.43186 -3.59226 0
M  V30 4850 H 473.798 4.05884 -3.74116 0
M  V30 4851 H 476.274 3.73089 -1.84239 0
M  V30 4852 H 475.15 5.10212 -2.02421 0
M  V30 4853 H 475.411 4.39949 -0.435611 0
M  V30 4854 N 474.47 1.03057 1.19235 0
M  V30 4855 C 475.4 0.633497 2.24742 0
M  V30 4856 C 476.381 -0.358335 1.66283 0
M  V30 4857 O 477.566 -0.240676 1.92703 0
M  V30 4858 C 474.696 -0.0147648 3.47297 0
M  V30 4859 C 473.65 0.899527 4.18441 0
M  V30 4860 C 472.976 0.116281 5.34574 0
M  V30 4861 C 474.276 2.21404 4.73051 0
M  V30 4862 H 475.97 1.5155 2.58211 0
M  V30 4863 H 473.516 0.73014 1.24117 0
M  V30 4864 H 475.469 -0.304202 4.20301 0
M  V30 4865 H 474.193 -0.931577 3.13032 0
M  V30 4866 H 472.852 1.17319 3.47321 0
M  V30 4867 H 472.5 -0.802619 4.96555 0
M  V30 4868 H 472.2 0.725293 5.83107 0
M  V30 4869 H 473.724 -0.166376 6.10373 0
M  V30 4870 H 475.138 1.98601 5.37802 0
M  V30 4871 H 473.535 2.77512 5.32078 0
M  V30 4872 H 474.605 2.86752 3.91026 0
M  V30 4873 N 475.948 -1.35272 0.808662 0
M  V30 4874 C 476.896 -2.31663 0.208606 0
M  V30 4875 C 477.89 -1.56731 -0.642778 0
M  V30 4876 O 479.096 -1.71843 -0.53571 0
M  V30 4877 H 475.471 -0.750421 0.0486993 0
M  V30 4878 H 477.442 -2.79814 1.03666 0
M  V30 4879 C 476.191 -3.42008 -0.626573 0
M  V30 4880 H 475.514 -3.99795 0.0192103 0
M  V30 4881 H 476.954 -4.11727 -1.01278 0
M  V30 4882 C 475.413 -2.85226 -1.79298 0
M  V30 4883 O 475.943 -2.78945 -2.89055 0
M  V30 4884 N 474.149 -2.42245 -1.60516 0
M  V30 4885 H 473.696 -2.47554 -0.712375 0
M  V30 4886 H 473.654 -2.04603 -2.38715 0
M  V30 4887 N 477.426 -0.562348 -1.47226 0
M  V30 4888 C 478.336 0.185466 -2.33866 0
M  V30 4889 C 479.352 0.906713 -1.48508 0
M  V30 4890 O 480.528 0.874458 -1.81425 0
M  V30 4891 C 477.593 1.19904 -3.25306 0
M  V30 4892 C 476.654 0.484669 -4.26555 0
M  V30 4893 C 475.887 1.44996 -5.13626 0
M  V30 4894 O 476.11 2.68515 -5.03245 0
M  V30 4895 O 475.044 0.971642 -5.94006 0
M  V30 4896 H 478.87 -0.525361 -2.99121 0
M  V30 4897 H 476.455 -0.322916 -1.45868 0
M  V30 4898 H 478.337 1.78399 -3.81774 0
M  V30 4899 H 477.012 1.8917 -2.62672 0
M  V30 4900 H 475.919 -0.141605 -3.73832 0
M  V30 4901 H 477.252 -0.166634 -4.91918 0
M  V30 4902 N 478.904 1.54736 -0.299062 0
M  V30 4903 C 480.132 2.04512 0.313447 0
M  V30 4904 C 480.547 1.17643 1.47667 0
M  V30 4905 O 479.904 0.20164 1.81383 0
M  V30 4906 C 479.955 3.53171 0.771542 0
M  V30 4907 O 479.676 4.36736 -0.345379 0
M  V30 4908 C 481.177 4.18936 1.4494 0
M  V30 4909 H 478.397 0.667507 0.0683784 0
M  V30 4910 H 480.941 1.99752 -0.438129 0
M  V30 4911 H 479.096 3.58298 1.47314 0
M  V30 4912 H 479.51 5.24499 0.0109219 0
M  V30 4913 H 480.984 5.24482 1.72111 0
M  V30 4914 H 481.461 3.68554 2.38883 0
M  V30 4915 H 482.067 4.17879 0.791028 0
M  V30 4916 N 480.382 0.0267497 1.57577 0
M  V30 4917 C 481.607 -0.666227 1.96408 0
M  V30 4918 C 482.032 -1.65004 0.903071 0
M  V30 4919 O 481.39 -1.80787 -0.136263 0
M  V30 4920 C 481.438 -1.35101 3.34335 0
M  V30 4921 O 480.542 -2.46623 3.30531 0
M  V30 4922 H 479.883 -0.175206 0.640468 0
M  V30 4923 H 482.413 0.0878977 2.04411 0
M  V30 4924 H 482.423 -1.70834 3.70513 0
M  V30 4925 H 481.098 -0.629844 4.11103 0
M  V30 4926 H 479.675 -2.13019 3.06068 0
M  V30 4927 N 481.861 -1.55662 -0.24637 0
M  V30 4928 C 483.108 -1.77519 -0.974335 0
M  V30 4929 C 483.436 -0.591165 -1.85298 0
M  V30 4930 O 482.691 0.425497 -1.91018 0
M  V30 4931 C 482.99 -3.04885 -1.86494 0
M  V30 4932 C 482.656 -4.36209 -1.14161 0
M  V30 4933 C 481.318 -4.71896 -0.941701 0
M  V30 4934 C 483.67 -5.17391 -0.628957 0
M  V30 4935 C 480.998 -5.86299 -0.216852 0
M  V30 4936 C 483.35 -6.32546 0.0824273 0
M  V30 4937 C 482.014 -6.66853 0.293807 0
M  V30 4938 H 481.284 -0.649588 -0.356535 0
M  V30 4939 H 483.931 -1.89934 -0.244394 0
M  V30 4940 H 482.236 -2.87484 -2.66196 0
M  V30 4941 H 483.933 -3.18994 -2.42989 0
M  V30 4942 H 480.523 -4.08174 -1.30736 0
M  V30 4943 H 484.707 -4.90276 -0.770943 0
M  V30 4944 H 479.963 -6.11385 -0.0426124 0
M  V30 4945 H 484.137 -6.94693 0.487292 0
M  V30 4946 H 481.764 -7.55349 0.857428 0
M  V30 4947 N 483.339 0.512053 -1.4905 0
M  V30 4948 C 484.588 1.26343 -1.57227 0
M  V30 4949 C 484.901 1.93876 -0.259155 0
M  V30 4950 O 486.107 2.70612 -0.219358 0
M  V30 4951 C 484.563 2.29343 -2.77362 0
M  V30 4952 C 484.171 1.67799 -4.15388 0
M  V30 4953 C 485.915 3.05378 -2.94864 0
M  V30 4954 C 483.822 2.68845 -5.2676 0
M  V30 4955 H 482.752 0.475231 -0.585382 0
M  V30 4956 H 485.403 0.53862 -1.75417 0
M  V30 4957 H 483.785 3.04938 -2.52643 0
M  V30 4958 H 484.959 0.982715 -4.50199 0
M  V30 4959 H 483.274 1.04194 -4.03153 0
M  V30 4960 H 485.871 3.80921 -3.75238 0
M  V30 4961 H 486.214 3.62327 -2.05 0
M  V30 4962 H 486.747 2.36898 -3.19569 0
M  V30 4963 H 483.486 2.16692 -6.18647 0
M  V30 4964 H 483.006 3.36647 -4.96416 0
M  V30 4965 H 484.685 3.31487 -5.5563 0
M  V30 4966 N 484.817 1.37938 0.762283 0
M  V30 4967 C 486.064 1.33668 1.52115 0
M  V30 4968 C 486.392 -0.0759538 1.94352 0
M  V30 4969 O 485.647 -1.05121 1.6507 0
M  V30 4970 C 485.946 2.23042 2.79261 0
M  V30 4971 C 485.612 3.71159 2.56031 0
M  V30 4972 C 484.274 4.11523 2.49404 0
M  V30 4973 C 486.626 4.64955 2.35513 0
M  V30 4974 C 483.954 5.43784 2.20263 0
M  V30 4975 C 486.306 5.97464 2.07894 0
M  V30 4976 C 484.97 6.36922 1.99718 0
M  V30 4977 H 484.24 0.489127 0.556629 0
M  V30 4978 H 486.887 1.70224 0.877262 0
M  V30 4979 H 485.192 1.79512 3.48256 0
M  V30 4980 H 486.889 2.17047 3.37182 0
M  V30 4981 H 483.479 3.39153 2.62056 0
M  V30 4982 H 487.663 4.34623 2.39617 0
M  V30 4983 H 482.919 5.73307 2.12435 0
M  V30 4984 H 487.093 6.6969 1.91019 0
M  V30 4985 H 484.72 7.39331 1.76902 0
M  V30 4986 N 486.295 -0.989507 1.22664 0
M  V30 4987 C 487.523 -1.76496 1.07967 0
M  V30 4988 C 487.938 -1.85148 -0.369543 0
M  V30 4989 O 487.295 -1.32408 -1.25596 0
M  V30 4990 C 487.346 -3.19642 1.68853 0
M  V30 4991 O 487.067 -3.11453 3.08105 0
M  V30 4992 C 488.568 -4.13621 1.59475 0
M  V30 4993 H 485.788 -0.55418 0.378319 0
M  V30 4994 H 488.332 -1.24378 1.62328 0
M  V30 4995 H 486.487 -3.68816 1.18547 0
M  V30 4996 H 486.901 -4.01499 3.37489 0
M  V30 4997 H 488.375 -5.11801 2.06795 0
M  V30 4998 H 488.852 -4.35718 0.55191 0
M  V30 4999 H 489.458 -3.70346 2.09103 0
M  V30 5000 N 487.773 -1.03688 -1.18687 0
M  V30 5001 C 488.683 -0.634908 -2.25845 0
M  V30 5002 C 489.699 0.337065 -1.70704 0
M  V30 5003 O 490.875 0.192943 -2.00474 0
M  V30 5004 C 487.94 -0.000180054 -3.467 0
M  V30 5005 C 487.001 -1.02067 -4.1699 0
M  V30 5006 C 486.234 -0.41614 -5.32075 0
M  V30 5007 O 486.457 0.778712 -5.65059 0
M  V30 5008 O 485.391 -1.14296 -5.90948 0
M  V30 5009 H 489.217 -1.52757 -2.62486 0
M  V30 5010 H 486.802 -0.807533 -1.25695 0
M  V30 5011 H 488.684 0.353342 -4.19916 0
M  V30 5012 H 487.359 0.866367 -3.11891 0
M  V30 5013 H 486.266 -1.42592 -3.45859 0
M  V30 5014 H 487.599 -1.85786 -4.5579 0
M  V30 5015 N 489.251 1.34841 -0.815825 0
M  V30 5016 C 490.498 1.98499 -0.400535 0
M  V30 5017 C 490.826 1.64699 1.03463 0
M  V30 5018 O 490.081 0.907006 1.73412 0
M  V30 5019 C 490.38 3.53273 -0.541541 0
M  V30 5020 C 490.046 4.06966 -1.94138 0
M  V30 5021 C 488.708 4.21341 -2.32433 0
M  V30 5022 C 491.06 4.35933 -2.85677 0
M  V30 5023 C 488.388 4.62007 -3.61617 0
M  V30 5024 C 490.74 4.78042 -4.14317 0
M  V30 5025 C 489.404 4.90622 -4.52599 0
M  V30 5026 H 488.674 0.72636 -0.146566 0
M  V30 5027 H 491.321 1.60902 -1.0384 0
M  V30 5028 H 489.626 3.91387 0.179741 0
M  V30 5029 H 491.323 4.00497 -0.20085 0
M  V30 5030 H 487.913 3.96235 -1.63388 0
M  V30 5031 H 492.097 4.24372 -2.57337 0
M  V30 5032 H 487.353 4.69937 -3.91113 0
M  V30 5033 H 491.527 4.99415 -4.85342 0
M  V30 5034 H 489.154 5.2189 -5.52752 0
M  V30 5035 N 490.729 0.570148 1.46925 0
M  V30 5036 C 491.659 -0.158274 2.32963 0
M  V30 5037 C 492.64 -0.896093 1.44583 0
M  V30 5038 O 493.825 -0.874022 1.7342 0
M  V30 5039 C 490.955 -1.18055 3.26619 0
M  V30 5040 C 489.909 -0.558379 4.24342 0
M  V30 5041 C 489.235 -1.68623 5.07415 0
M  V30 5042 C 490.535 0.496295 5.19937 0
M  V30 5043 H 492.229 0.560046 2.94115 0
M  V30 5044 H 489.775 0.270775 1.41431 0
M  V30 5045 H 491.728 -1.69841 3.85658 0
M  V30 5046 H 490.452 -1.92899 2.63548 0
M  V30 5047 H 489.111 -0.0617157 3.66548 0
M  V30 5048 H 488.759 -2.42402 4.40738 0
M  V30 5049 H 488.459 -1.27564 5.73586 0
M  V30 5050 H 489.983 -2.20709 5.69315 0
M  V30 5051 H 491.397 0.0640052 5.73264 0
M  V30 5052 H 489.794 0.82649 5.94381 0
M  V30 5053 H 490.864 1.38735 4.6463 0
M  V30 5054 N 492.207 -1.54576 0.307264 0
M  V30 5055 C 493.117 -2.27435 -0.57536 0
M  V30 5056 C 494.133 -1.31183 -1.14311 0
M  V30 5057 O 495.309 -1.64175 -1.16656 0
M  V30 5058 C 492.374 -3.00566 -1.72803 0
M  V30 5059 C 491.435 -4.12369 -1.19373 0
M  V30 5060 C 490.668 -4.82003 -2.29147 0
M  V30 5061 O 490.891 -4.51038 -3.49171 0
M  V30 5062 O 489.825 -5.69271 -1.95485 0
M  V30 5063 H 493.651 -3.03696 0.0158558 0
M  V30 5064 H 491.236 -1.49219 0.0735064 0
M  V30 5065 H 493.118 -3.46416 -2.39946 0
M  V30 5066 H 491.793 -2.27195 -2.30574 0
M  V30 5067 H 490.7 -3.70905 -0.487851 0
M  V30 5068 H 492.033 -4.87736 -0.661376 0
M  V30 5069 N 493.685 -0.035106 -1.57561 0
M  V30 5070 C 495.096 0.502885 -1.798 0
M  V30 5071 C 495.447 1.71892 -0.945921 0
M  V30 5072 O 494.572 2.15822 -0.157991 0
M  V30 5073 C 495.167 0.919097 -3.26095 0
M  V30 5074 C 493.726 1.40216 -3.49308 0
M  V30 5075 C 492.873 0.369709 -2.74824 0
M  V30 5076 H 495.824 -0.261102 -1.56537 0
M  V30 5077 H 495.845 1.78308 -3.36135 0
M  V30 5078 H 495.357 0.0338526 -3.88085 0
M  V30 5079 H 493.458 2.30714 -2.92578 0
M  V30 5080 H 493.571 1.40541 -4.58023 0
M  V30 5081 H 491.935 0.839113 -2.40481 0
M  V30 5082 H 492.718 -0.507173 -3.39533 0
M  V30 5083 N 495.163 1.55791 0.238111 0
M  V30 5084 C 496.126 1.90239 1.27835 0
M  V30 5085 C 497.126 0.779552 1.4064 0
M  V30 5086 O 498.316 1.04747 1.3919 0
M  V30 5087 C 495.448 2.13859 2.65475 0
M  V30 5088 H 496.641 2.83262 0.985034 0
M  V30 5089 H 494.194 1.48818 0.477799 0
M  V30 5090 H 494.929 1.23334 2.99932 0
M  V30 5091 H 494.714 2.95643 2.57561 0
M  V30 5092 H 496.204 2.41664 3.40571 0
M  V30 5093 N 496.642 -0.504142 1.49319 0
M  V30 5094 C 497.605 -1.5883 1.65244 0
M  V30 5095 C 498.605 -1.52009 0.524386 0
M  V30 5096 O 499.795 -1.55218 0.79077 0
M  V30 5097 C 496.927 -2.98481 1.64687 0
M  V30 5098 H 498.12 -1.4604 2.61939 0
M  V30 5099 H 495.673 -0.728144 1.38303 0
M  V30 5100 H 496.408 -3.16751 0.695644 0
M  V30 5101 H 496.193 -3.0484 2.46607 0
M  V30 5102 H 497.683 -3.77256 1.79075 0
M  V30 5103 N 498.12 -1.38341 -0.754957 0
M  V30 5104 C 499.068 -1.35573 -1.89005 0
M  V30 5105 C 500.062 -0.241824 -1.67665 0
M  V30 5106 O 501.268 -0.410785 -1.7525 0
M  V30 5107 H 497.643 -0.422898 -0.621821 0
M  V30 5108 H 499.614 -2.31359 -1.88455 0
M  V30 5109 C 498.363 -1.19631 -3.26471 0
M  V30 5110 H 497.686 -2.04605 -3.43477 0
M  V30 5111 H 499.126 -1.21748 -4.06144 0
M  V30 5112 C 497.585 0.0968705 -3.36761 0
M  V30 5113 O 498.115 1.07439 -3.87066 0
M  V30 5114 N 496.321 0.153242 -2.90196 0
M  V30 5115 H 495.868 -0.642908 -2.49448 0
M  V30 5116 H 495.826 1.01807 -2.9746 0
M  V30 5117 N 499.598 0.982988 -1.23187 0
M  V30 5118 C 500.508 2.10907 -1.02739 0
M  V30 5119 C 501.524 1.73979 0.0273188 0
M  V30 5120 O 502.7 2.00702 -0.16757 0
M  V30 5121 C 499.765 3.41142 -0.618304 0
M  V30 5122 C 498.826 3.92112 -1.74777 0
M  V30 5123 C 498.059 5.16131 -1.3581 0
M  V30 5124 O 498.282 5.6989 -0.241201 0
M  V30 5125 O 497.216 5.61103 -2.17824 0
M  V30 5126 H 501.042 2.31046 -1.97108 0
M  V30 5127 H 498.627 1.09284 -1.01869 0
M  V30 5128 H 500.509 4.19488 -0.400982 0
M  V30 5129 H 499.184 3.2234 0.296421 0
M  V30 5130 H 498.091 3.14895 -2.0197 0
M  V30 5131 H 499.424 4.15364 -2.64071 0
M  V30 5132 N 501.076 1.04316 1.18135 0
M  V30 5133 C 502.304 0.768117 1.92113 0
M  V30 5134 C 502.719 -0.675057 1.76319 0
M  V30 5135 O 502.076 -1.46038 1.09449 0
M  V30 5136 C 502.127 1.12808 3.43448 0
M  V30 5137 O 501.848 2.5146 3.58747 0
M  V30 5138 C 503.349 0.8779 4.3452 0
M  V30 5139 H 500.569 0.279937 0.609817 0
M  V30 5140 H 503.113 1.39149 1.49859 0
M  V30 5141 H 501.268 0.549623 3.83481 0
M  V30 5142 H 501.682 2.65313 4.52448 0
M  V30 5143 H 503.156 1.17959 5.39249 0
M  V30 5144 H 503.633 -0.187239 4.38801 0
M  V30 5145 H 504.239 1.43977 4.00188 0
M  V30 5146 N 502.554 -1.34406 0.822964 0
M  V30 5147 C 503.8 -1.98578 0.411666 0
M  V30 5148 C 504.133 -1.65093 -1.02264 0
M  V30 5149 O 503.408 -0.92258 -1.71227 0
M  V30 5150 C 503.691 -3.54823 0.614235 0
M  V30 5151 C 503.544 -3.9805 2.09466 0
M  V30 5152 C 504.863 -4.40071 0.050221 0
M  V30 5153 H 501.982 -0.721355 0.151047 0
M  V30 5154 H 504.624 -1.59301 1.03554 0
M  V30 5155 H 502.774 -3.88411 0.0831774 0
M  V30 5156 H 504.446 -3.74795 2.68936 0
M  V30 5157 H 502.689 -3.4836 2.5851 0
M  V30 5158 H 503.36 -5.06819 2.18721 0
M  V30 5159 H 505.836 -4.13037 0.503953 0
M  V30 5160 H 504.712 -5.48452 0.221759 0
M  V30 5161 H 504.973 -4.29576 -1.04482 0
M  V30 5162 N 504.032 -0.577932 -1.46621 0
M  V30 5163 C 505.448 -0.239242 -1.57797 0
M  V30 5164 C 505.648 1.25843 -1.57371 0
M  V30 5165 O 504.704 2.03988 -1.48813 0
M  V30 5166 C 506.017 -0.884227 -2.87405 0
M  V30 5167 C 507.565 -0.857373 -3.01028 0
M  V30 5168 C 508.04 -1.48181 -4.33366 0
M  V30 5169 N 509.531 -1.44593 -4.40053 0
M  V30 5170 C 510.266 -1.89852 -5.41058 0
M  V30 5171 N 509.762 -2.43062 -6.48762 0
M  V30 5172 N 511.555 -1.80797 -5.3223 0
M  V30 5173 H 503.706 -1.55073 -1.45142 0
M  V30 5174 H 505.969 -0.647903 -0.692044 0
M  V30 5175 H 505.675 -1.93759 -2.93514 0
M  V30 5176 H 505.549 -0.389585 -3.75183 0
M  V30 5177 H 507.936 0.187357 -2.94505 0
M  V30 5178 H 508.017 -1.38999 -2.14739 0
M  V30 5179 H 507.661 -2.52572 -4.40647 0
M  V30 5180 H 507.591 -0.924464 -5.18422 0
M  V30 5181 H 510.082 -1.05694 -3.62819 0
M  V30 5182 H 510.395 -2.75466 -7.22038 0
M  V30 5183 H 508.74 -2.47085 -6.49595 0
M  V30 5184 H 511.931 -1.38989 -4.46989 0
M  V30 5185 H 512.104 -2.16385 -6.10804 0
M  V30 5186 N 505.51 1.54411 -0.315457 0
M  V30 5187 C 506.46 2.20772 0.569549 0
M  V30 5188 C 507.444 1.18551 1.08787 0
M  V30 5189 O 508.636 1.44213 1.02624 0
M  V30 5190 C 505.765 2.96293 1.73394 0
M  V30 5191 C 504.851 4.05844 1.2309 0
M  V30 5192 N 505.242 5.03822 0.446927 0
M  V30 5193 C 503.54 4.19648 1.51035 0
M  V30 5194 C 504.241 5.8143 0.17725 0
M  V30 5195 N 503.217 5.38245 0.761118 0
M  V30 5196 H 507.019 2.93877 -0.0368076 0
M  V30 5197 H 504.533 1.61949 -0.120915 0
M  V30 5198 H 506.53 3.42313 2.37965 0
M  V30 5199 H 505.19 2.24708 2.34386 0
M  V30 5200 H 506.201 5.17821 0.0905027 0
M  V30 5201 H 502.878 3.59274 2.1267 0
M  V30 5202 H 504.268 6.70369 -0.45335 0
M  V30 5203 N 506.988 0.0434614 1.5754 0
M  V30 5204 C 508.236 -0.630786 1.92004 0
M  V30 5205 C 508.557 -1.71836 0.921807 0
M  V30 5206 O 507.827 -1.9587 -0.034522 0
M  V30 5207 H 506.407 -0.235988 0.708745 0
M  V30 5208 H 509.069 0.0946462 1.9467 0
M  V30 5209 H 508.165 -1.07434 2.93026 0
M  V30 5210 N 508.466 -1.55915 -0.229846 0
M  V30 5211 C 509.706 -1.80314 -0.962614 0
M  V30 5212 C 510.07 -0.61568 -1.81861 0
M  V30 5213 O 511.271 -0.738795 -2.58448 0
M  V30 5214 C 509.542 -3.0956 -1.78627 0
M  V30 5215 S 511.101 -3.55243 -2.57581 0
M  V30 5216 H 507.919 -0.633142 -0.323499 0
M  V30 5217 H 510.521 -1.94155 -0.228919 0
M  V30 5218 H 509.225 -3.94033 -1.14742 0
M  V30 5219 H 508.756 -2.98503 -2.56241 0
M  V30 5220 H 510.771 -3.17924 -3.80971 0
M  V30 5221 N 509.944 0.496216 -1.49584 0
M  V30 5222 C 510.874 1.60576 -1.69521 0
M  V30 5223 C 511.855 1.61169 -0.543933 0
M  V30 5224 O 513.04 1.77834 -0.78031 0
M  V30 5225 C 510.17 2.99038 -1.76616 0
M  V30 5226 C 509.124 3.13312 -2.91581 0
M  V30 5227 C 508.45 4.53172 -2.83794 0
M  V30 5228 C 509.75 2.92886 -4.32452 0
M  V30 5229 H 511.444 1.44146 -2.62416 0
M  V30 5230 H 508.99 0.692024 -1.26282 0
M  V30 5231 H 510.943 3.76564 -1.8915 0
M  V30 5232 H 509.667 3.16568 -0.80324 0
M  V30 5233 H 508.326 2.38213 -2.78658 0
M  V30 5234 H 507.974 4.67585 -1.854 0
M  V30 5235 H 507.674 4.63662 -3.60958 0
M  V30 5236 H 509.198 5.32752 -2.98342 0
M  V30 5237 H 510.612 3.60178 -4.46032 0
M  V30 5238 H 509.009 3.14844 -5.10875 0
M  V30 5239 H 510.079 1.88966 -4.46565 0
M  V30 5240 N 511.423 1.38739 0.74761 0
M  V30 5241 C 512.839 1.20067 1.05148 0
M  V30 5242 C 513.039 0.0534835 2.01429 0
M  V30 5243 O 512.095 -0.59886 2.45296 0
M  V30 5244 C 513.408 2.52957 1.62584 0
M  V30 5245 C 514.956 2.59692 1.74726 0
M  V30 5246 C 515.431 3.92772 2.35573 0
M  V30 5247 N 516.922 3.94343 2.42997 0
M  V30 5248 C 517.657 4.9408 2.90985 0
M  V30 5249 N 517.153 6.04214 3.38965 0
M  V30 5250 N 518.946 4.81466 2.9008 0
M  V30 5251 H 511.097 2.12121 0.108808 0
M  V30 5252 H 513.36 0.941491 0.110899 0
M  V30 5253 H 513.066 3.37389 0.993051 0
M  V30 5254 H 512.94 2.71779 2.61565 0
M  V30 5255 H 515.327 1.75651 2.3713 0
M  V30 5256 H 515.408 2.44731 0.744326 0
M  V30 5257 H 515.052 4.77238 1.738 0
M  V30 5258 H 514.982 4.05046 3.36519 0
M  V30 5259 H 517.473 3.14799 2.0907 0
M  V30 5260 H 517.786 6.76241 3.74056 0
M  V30 5261 H 516.131 6.07825 3.37007 0
M  V30 5262 H 519.322 3.94535 2.51912 0
M  V30 5263 H 519.495 5.59344 3.27166 0
M  V30 5264 N 512.901 -0.976442 1.23707 0
M  V30 5265 C 513.831 -2.08749 1.04624 0
M  V30 5266 C 514.812 -1.70057 -0.0380956 0
M  V30 5267 O 515.997 -1.93782 0.127308 0
M  V30 5268 C 513.127 -3.41335 0.640902 0
M  V30 5269 C 512.081 -3.93947 1.67302 0
M  V30 5270 C 511.407 -5.22774 1.12301 0
M  V30 5271 C 512.707 -4.22769 3.06697 0
M  V30 5272 H 514.401 -2.24972 1.97555 0
M  V30 5273 H 511.947 -1.08108 0.951247 0
M  V30 5274 H 513.9 -4.18489 0.494434 0
M  V30 5275 H 512.624 -3.24988 -0.324099 0
M  V30 5276 H 511.283 -3.18941 1.80755 0
M  V30 5277 H 510.931 -5.0278 0.148877 0
M  V30 5278 H 510.631 -5.58942 1.81267 0
M  V30 5279 H 512.155 -6.02546 0.988479 0
M  V30 5280 H 513.569 -4.90659 2.96524 0
M  V30 5281 H 511.966 -4.70147 3.72937 0
M  V30 5282 H 513.036 -3.29885 3.55392 0
M  V30 5283 N 514.379 -1.04941 -1.1758 0
M  V30 5284 C 515.327 -0.64204 -2.23563 0
M  V30 5285 C 516.321 0.335453 -1.66045 0
M  V30 5286 O 517.527 0.20179 -1.78865 0
M  V30 5287 H 513.902 -0.18944 -0.727748 0
M  V30 5288 H 515.873 -1.54609 -2.55223 0
M  V30 5289 C 514.622 -0.0301051 -3.47687 0
M  V30 5290 H 513.945 -0.773339 -3.92249 0
M  V30 5291 H 515.385 0.217592 -4.23441 0
M  V30 5292 C 513.844 1.2225 -3.13937 0
M  V30 5293 O 514.374 2.3122 -3.28482 0
M  V30 5294 N 512.58 1.11917 -2.68185 0
M  V30 5295 H 512.127 0.232403 -2.5655 0
M  V30 5296 H 512.085 1.95814 -2.45976 0
M  V30 5297 N 515.857 1.33968 -0.830081 0
M  V30 5298 C 516.789 2.28194 -0.21448 0
M  V30 5299 C 517.802 1.5135 0.599752 0
M  V30 5300 O 518.991 1.73286 0.42826 0
M  V30 5301 C 516.091 3.31221 0.717356 0
M  V30 5302 C 515.264 4.37365 -0.055613 0
M  V30 5303 C 514.323 5.2011 0.798231 0
M  V30 5304 O 513.349 5.68691 0.240616 0
M  V30 5305 N 514.551 5.40523 2.11695 0
M  V30 5306 H 517.316 2.81662 -1.02405 0
M  V30 5307 H 514.877 1.46568 -0.687713 0
M  V30 5308 H 516.869 3.83477 1.29334 0
M  V30 5309 H 515.439 2.78095 1.42765 0
M  V30 5310 H 514.659 3.85727 -0.812936 0
M  V30 5311 H 515.947 5.05397 -0.587444 0
M  V30 5312 H 515.345 5.0274 2.59363 0
M  V30 5313 H 513.902 5.95871 2.64162 0
M  V30 5314 N 517.335 0.585699 1.46312 0
M  V30 5315 C 518.746 0.159938 1.86014 0
M  V30 5316 C 519.097 -1.27775 1.48889 0
M  V30 5317 O 518.222 -1.96559 0.90519 0
M  V30 5318 C 518.817 0.283485 3.37612 0
M  V30 5319 C 517.376 -0.0874256 3.76298 0
M  V30 5320 C 516.523 0.618055 2.70325 0
M  V30 5321 H 519.474 0.793737 1.37425 0
M  V30 5322 H 519.495 -0.490348 3.77327 0
M  V30 5323 H 519.007 1.32995 3.64601 0
M  V30 5324 H 517.108 -1.13391 3.54927 0
M  V30 5325 H 517.221 0.290975 4.78216 0
M  V30 5326 H 515.585 0.057993 2.54634 0
M  V30 5327 H 516.368 1.66623 3.00153 0
M  V30 5328 N 518.813 -1.54241 0.323641 0
M  V30 5329 C 520.041 -2.04985 -0.280871 0
M  V30 5330 C 520.456 -1.19978 -1.45777 0
M  V30 5331 O 519.813 -0.230471 -1.81039 0
M  V30 5332 C 519.864 -3.54353 -0.715258 0
M  V30 5333 O 519.585 -4.36132 0.414817 0
M  V30 5334 C 521.086 -4.21189 -1.38257 0
M  V30 5335 H 518.306 -0.66851 -0.0577502 0
M  V30 5336 H 520.85 -1.99029 0.469852 0
M  V30 5337 H 519.005 -3.60596 -1.41596 0
M  V30 5338 H 519.419 -5.2445 0.0725227 0
M  V30 5339 H 520.893 -5.27154 -1.63745 0
M  V30 5340 H 521.37 -3.72307 -2.32989 0
M  V30 5341 H 521.976 -4.19085 -0.724447 0
M  V30 5342 N 520.291 -0.0518155 -1.57515 0
M  V30 5343 C 521.241 0.932017 -2.0808 0
M  V30 5344 C 522.225 1.27141 -0.986098 0
M  V30 5345 O 523.417 1.25373 -1.24943 0
M  V30 5346 C 520.546 2.20665 -2.62986 0
M  V30 5347 C 519.632 1.89462 -3.79427 0
M  V30 5348 N 520.023 1.28621 -4.89173 0
M  V30 5349 C 518.321 2.19327 -3.88345 0
M  V30 5350 C 519.022 1.15062 -5.70207 0
M  V30 5351 N 517.998 1.65372 -5.17835 0
M  V30 5352 H 521.8 0.456964 -2.90326 0
M  V30 5353 H 519.314 0.152619 -1.61681 0
M  V30 5354 H 521.311 2.92044 -2.97516 0
M  V30 5355 H 519.971 2.68776 -1.8218 0
M  V30 5356 H 520.982 0.958341 -5.08956 0
M  V30 5357 H 517.659 2.69955 -3.18482 0
M  V30 5358 H 519.049 0.678243 -6.68468 0
M  V30 5359 N 521.769 1.56035 0.221574 0
M  V30 5360 C 523.015 1.79312 0.947372 0
M  V30 5361 C 523.348 0.621453 1.83988 0
M  V30 5362 O 522.623 -0.379287 1.90766 0
M  V30 5363 C 522.906 3.1267 1.78633 0
M  V30 5364 C 522.759 4.40284 0.920312 0
M  V30 5365 C 524.078 3.4247 2.7641 0
M  V30 5366 H 521.197 0.652328 0.342982 0
M  V30 5367 H 523.839 1.88765 0.216244 0
M  V30 5368 H 521.989 3.04741 2.40967 0
M  V30 5369 H 523.661 4.60232 0.313718 0
M  V30 5370 H 521.904 4.33212 0.225734 0
M  V30 5371 H 522.575 5.30033 1.54171 0
M  V30 5372 H 525.051 3.50526 2.24211 0
M  V30 5373 H 523.927 4.3695 3.32213 0
M  V30 5374 H 524.188 2.64635 3.54148 0
M  V30 5375 N 523.247 -0.488276 1.49845 0
M  V30 5376 C 524.195 -1.60917 1.67954 0
M  V30 5377 C 525.189 -1.6038 0.54539 0
M  V30 5378 O 526.395 -1.64736 0.7254 0
M  V30 5379 H 522.77 -0.533658 0.529824 0
M  V30 5380 H 524.741 -1.428 2.62013 0
M  V30 5381 C 523.49 -2.98975 1.77509 0
M  V30 5382 H 522.813 -3.00099 2.6416 0
M  V30 5383 H 524.253 -3.76906 1.9421 0
M  V30 5384 C 522.712 -3.3282 0.522745 0
M  V30 5385 O 523.242 -4.00208 -0.345866 0
M  V30 5386 N 521.448 -2.8808 0.381882 0
M  V30 5387 H 520.995 -2.33415 1.08974 0
M  V30 5388 H 520.953 -3.11091 -0.454929 0
M  V30 5389 N 524.725 -1.39134 -0.740242 0
M  V30 5390 C 525.673 -1.3757 -1.87556 0
M  V30 5391 C 526.667 -0.259593 -1.67399 0
M  V30 5392 O 527.873 -0.429349 -1.74804 0
M  V30 5393 H 524.248 -0.42947 -0.6173 0
M  V30 5394 H 526.219 -2.33345 -1.85991 0
M  V30 5395 C 524.968 -1.23087 -3.25184 0
M  V30 5396 H 524.291 -2.08237 -3.41288 0
M  V30 5397 H 525.731 -1.26049 -4.0483 0
M  V30 5398 C 524.19 0.0611471 -3.36845 0
M  V30 5399 O 524.72 1.03328 -3.88183 0
M  V30 5400 N 522.926 0.122454 -2.90342 0
M  V30 5401 H 522.473 -0.669329 -2.48752 0
M  V30 5402 H 522.431 0.986463 -2.98523 0
M  V30 5403 N 526.204 0.969867 -1.24223 0
M  V30 5404 C 527.452 1.70918 -1.0785 0
M  V30 5405 C 527.773 1.91186 0.383763 0
M  V30 5406 O 527.043 1.48806 1.27411 0
M  V30 5407 H 525.623 0.633334 -0.396103 0
M  V30 5408 H 528.285 1.16689 -1.56108 0
M  V30 5409 H 527.381 2.69455 -1.57482 0
M  V30 5410 N 527.682 1.05563 1.17022 0
M  V30 5411 C 528.63 0.653887 2.2322 0
M  V30 5412 C 529.624 -0.326642 1.66221 0
M  V30 5413 O 530.83 -0.192301 1.7897 0
M  V30 5414 H 527.205 0.193297 0.726733 0
M  V30 5415 H 529.176 1.5596 2.54399 0
M  V30 5416 C 527.925 0.0485434 3.47666 0
M  V30 5417 H 527.248 0.79413 3.91834 0
M  V30 5418 H 528.688 -0.195133 4.23551 0
M  V30 5419 C 527.147 -1.20583 3.14581 0
M  V30 5420 O 527.677 -2.29475 3.29703 0
M  V30 5421 N 525.883 -1.10493 2.68774 0
M  V30 5422 H 525.43 -0.218795 2.56669 0
M  V30 5423 H 525.388 -1.94507 2.47011 0
M  V30 5424 N 529.16 -1.33526 0.837174 0
M  V30 5425 C 530.39 -2.01754 0.444848 0
M  V30 5426 C 530.798 -1.63149 -0.958072 0
M  V30 5427 O 530.141 -0.839827 -1.63379 0
M  V30 5428 C 530.203 -3.56228 0.483917 0
M  V30 5429 C 529.867 -4.18205 1.84265 0
M  V30 5430 C 530.864 -4.37699 2.80563 0
M  V30 5431 C 528.549 -4.54667 2.13503 0
M  V30 5432 C 530.543 -4.928 4.04261 0
M  V30 5433 C 528.23 -5.09475 3.37458 0
M  V30 5434 C 529.228 -5.28488 4.32654 0
M  V30 5435 O 528.916 -5.82132 5.54417 0
M  V30 5436 H 528.648 -0.652928 0.175104 0
M  V30 5437 H 531.202 -1.71469 1.13082 0
M  V30 5438 H 529.432 -3.85833 -0.258826 0
M  V30 5439 H 531.121 -4.05752 0.109653 0
M  V30 5440 H 531.887 -4.0988 2.59274 0
M  V30 5441 H 527.766 -4.39164 1.40201 0
M  V30 5442 H 531.31 -5.07555 4.78574 0
M  V30 5443 H 527.207 -5.36725 3.58604 0
M  V30 5444 H 527.975 -6.00548 5.56133 0
M  V30 5445 N 530.638 -0.59345 -1.46 0
M  V30 5446 C 531.866 -0.0890934 -2.06708 0
M  V30 5447 C 532.281 1.2205 -1.44046 0
M  V30 5448 O 531.638 1.74029 -0.549551 0
M  V30 5449 C 531.689 0.0720263 -3.61428 0
M  V30 5450 O 531.41 -1.18574 -4.21748 0
M  V30 5451 C 532.911 0.609487 -4.3909 0
M  V30 5452 H 530.131 -0.0623628 -0.668096 0
M  V30 5453 H 532.675 -0.817171 -1.87464 0
M  V30 5454 H 530.83 0.750369 -3.80063 0
M  V30 5455 H 531.244 -1.0064 -5.14754 0
M  V30 5456 H 532.718 0.671363 -5.47902 0
M  V30 5457 H 533.195 1.62878 -4.07882 0
M  V30 5458 H 533.801 -0.03434 -4.25286 0
M  V30 5459 N 532.116 1.54067 -0.331816 0
M  V30 5460 C 533.046 2.27569 0.522932 0
M  V30 5461 C 534.027 1.28679 1.11247 0
M  V30 5462 O 535.212 1.57504 1.13605 0
M  V30 5463 C 532.342 3.0397 1.67987 0
M  V30 5464 C 531.296 4.10267 1.21924 0
M  V30 5465 C 530.622 4.74555 2.46377 0
M  V30 5466 C 531.922 5.21268 0.32815 0
M  V30 5467 H 533.616 2.99264 -0.0901977 0
M  V30 5468 H 531.162 1.4393 -0.044821 0
M  V30 5469 H 533.115 3.54123 2.28418 0
M  V30 5470 H 531.839 2.29906 2.31971 0
M  V30 5471 H 530.498 3.61009 0.637809 0
M  V30 5472 H 530.146 3.97098 3.08743 0
M  V30 5473 H 529.846 5.46363 2.16243 0
M  V30 5474 H 531.37 5.27487 3.07555 0
M  V30 5475 H 532.784 5.67128 0.838978 0
M  V30 5476 H 531.181 5.99982 0.119228 0
M  V30 5477 H 532.251 4.80673 -0.638839 0
M  V30 5478 N 533.594 0.0601682 1.57485 0
M  V30 5479 C 534.524 -0.90889 2.15085 0
M  V30 5480 C 535.505 -1.31838 1.07484 0
M  V30 5481 O 536.69 -1.3915 1.35466 0
M  V30 5482 C 533.82 -2.18059 2.7031 0
M  V30 5483 C 532.774 -1.91088 3.82974 0
M  V30 5484 C 532.1 -3.24789 4.24754 0
M  V30 5485 C 533.4 -1.22535 5.07723 0
M  V30 5486 H 535.094 -0.429093 2.96309 0
M  V30 5487 H 532.64 -0.204952 1.42534 0
M  V30 5488 H 534.593 -2.86258 3.09248 0
M  V30 5489 H 533.317 -2.6826 1.8629 0
M  V30 5490 H 531.976 -1.25297 3.44523 0
M  V30 5491 H 531.624 -3.72809 3.37672 0
M  V30 5492 H 531.324 -3.07538 5.00694 0
M  V30 5493 H 532.848 -3.94205 4.66299 0
M  V30 5494 H 534.262 -1.80783 5.4405 0
M  V30 5495 H 532.659 -1.1558 5.88864 0
M  V30 5496 H 533.729 -0.202692 4.84476 0
M  V30 5497 N 535.072 -1.5615 -0.213296 0
M  V30 5498 C 536.035 -1.92249 -1.24792 0
M  V30 5499 C 537.035 -0.801828 -1.39382 0
M  V30 5500 O 538.225 -1.06948 -1.37506 0
M  V30 5501 C 535.357 -2.18056 -2.62039 0
M  V30 5502 H 536.55 -2.84793 -0.939845 0
M  V30 5503 H 534.103 -1.49559 -0.454062 0
M  V30 5504 H 534.838 -1.2809 -2.97932 0
M  V30 5505 H 534.623 -2.99703 -2.52825 0
M  V30 5506 H 536.113 -2.47051 -3.36683 0
M  V30 5507 N 536.55 0.480323 -1.50102 0
M  V30 5508 C 537.513 1.56181 -1.6775 0
M  V30 5509 C 538.513 1.51156 -0.548503 0
M  V30 5510 O 539.703 1.5394 -0.815363 0
M  V30 5511 C 536.835 2.95823 -1.69415 0
M  V30 5512 H 538.028 1.41855 -2.6423 0
M  V30 5513 H 535.581 0.70605 -1.39444 0
M  V30 5514 H 536.316 3.15604 -0.745948 0
M  V30 5515 H 536.101 3.00878 -2.51425 0
M  V30 5516 H 537.591 3.74359 -1.85054 0
M  V30 5517 N 538.028 1.39524 0.732853 0
M  V30 5518 C 538.976 1.38563 1.86824 0
M  V30 5519 C 539.97 0.268467 1.67259 0
M  V30 5520 O 541.176 0.438613 1.74574 0
M  V30 5521 H 537.551 0.432737 0.615014 0
M  V30 5522 H 539.522 2.34328 1.84751 0
M  V30 5523 C 538.271 1.2481 3.24527 0
M  V30 5524 H 537.594 2.10044 3.40179 0
M  V30 5525 H 539.034 1.28194 4.04156 0
M  V30 5526 C 537.493 -0.0432825 3.36872 0
M  V30 5527 O 538.023 -1.01268 3.88726 0
M  V30 5528 N 536.229 -0.107055 2.90403 0
M  V30 5529 H 535.776 0.682512 2.48394 0
M  V30 5530 H 535.734 -0.970618 2.99042 0
M  V30 5531 N 539.506 -0.963266 1.24736 0
M  V30 5532 C 540.917 -1.52145 1.08207 0
M  V30 5533 C 541.268 -1.93142 -0.345061 0
M  V30 5534 O 540.393 -1.77769 -1.23399 0
M  V30 5535 C 540.988 -2.76486 1.95808 0
M  V30 5536 C 539.547 -3.28646 1.8349 0
M  V30 5537 C 538.694 -2.01529 1.90476 0
M  V30 5538 H 541.645 -0.781083 1.38148 0
M  V30 5539 H 541.666 -3.49986 1.49297 0
M  V30 5540 H 541.178 -2.46617 2.99669 0
M  V30 5541 H 539.279 -3.63357 0.824787 0
M  V30 5542 H 539.392 -3.97246 2.67829 0
M  V30 5543 H 537.756 -2.16442 1.34258 0
M  V30 5544 H 538.539 -1.7402 2.95926 0
M  V30 5545 N 540.985 -1.06182 -1.16461 0
M  V30 5546 C 542.232 -0.777863 -1.86964 0
M  V30 5547 C 542.56 0.695602 -1.81636 0
M  V30 5548 O 541.815 1.52532 -1.22607 0
M  V30 5549 C 542.114 -1.21633 -3.36066 0
M  V30 5550 C 541.78 -2.69371 -3.61594 0
M  V30 5551 C 540.442 -3.09727 -3.6827 0
M  V30 5552 C 542.794 -3.64791 -3.7226 0
M  V30 5553 C 540.122 -4.44345 -3.83112 0
M  V30 5554 C 542.474 -4.99155 -3.88623 0
M  V30 5555 C 541.138 -5.39149 -3.93541 0
M  V30 5556 H 540.408 -0.28464 -0.68415 0
M  V30 5557 H 543.055 -1.33071 -1.37711 0
M  V30 5558 H 541.36 -0.582651 -3.87443 0
M  V30 5559 H 543.057 -0.973682 -3.88999 0
M  V30 5560 H 539.647 -2.37124 -3.57029 0
M  V30 5561 H 543.831 -3.34746 -3.66413 0
M  V30 5562 H 539.087 -4.74819 -3.85172 0
M  V30 5563 H 543.261 -5.72976 -3.95817 0
M  V30 5564 H 540.888 -6.43464 -4.04794 0
M  V30 5565 N 542.463 1.3308 -0.844243 0
M  V30 5566 C 543.711 1.97215 -0.441676 0
M  V30 5567 C 544.032 1.67185 1.0037 0
M  V30 5568 O 543.302 0.973588 1.69994 0
M  V30 5569 H 541.882 0.72959 -0.160335 0
M  V30 5570 H 544.544 1.62348 -1.07838 0
M  V30 5571 H 543.64 3.06698 -0.57815 0
M  V30 5572 N 543.941 0.601185 1.45683 0
M  V30 5573 C 544.873 -0.159446 2.28645 0
M  V30 5574 C 545.886 -0.837882 1.39583 0
M  V30 5575 O 547.075 -0.704344 1.64016 0
M  V30 5576 C 544.175 -1.24641 3.15147 0
M  V30 5577 C 543.348 -0.656334 4.32448 0
M  V30 5578 C 542.407 -1.63337 5.00208 0
M  V30 5579 O 541.433 -1.16217 5.57209 0
M  V30 5580 N 542.635 -2.96773 4.98905 0
M  V30 5581 H 545.4 0.5524 2.94565 0
M  V30 5582 H 542.961 0.440223 1.558 0
M  V30 5583 H 544.953 -1.8997 3.57342 0
M  V30 5584 H 543.523 -1.86087 2.51178 0
M  V30 5585 H 542.743 0.174879 3.93812 0
M  V30 5586 H 544.031 -0.242211 5.08223 0
M  V30 5587 H 543.429 -3.37662 4.53873 0
M  V30 5588 H 541.986 -3.57541 5.44984 0
M  V30 5589 N 545.419 -1.53889 0.339982 0
M  V30 5590 C 546.382 -2.23547 -0.50592 0
M  V30 5591 C 547.382 -1.23445 -1.03044 0
M  V30 5592 O 548.572 -1.47909 -0.920253 0
M  V30 5593 C 545.704 -2.95234 -1.7044 0
M  V30 5594 H 546.897 -2.99722 0.103247 0
M  V30 5595 H 544.45 -1.56033 0.0912804 0
M  V30 5596 H 545.185 -2.23236 -2.35236 0
M  V30 5597 H 544.97 -3.68654 -1.33553 0
M  V30 5598 H 546.46 -3.48258 -2.30447 0
M  V30 5599 N 546.897 -0.0685191 -1.57451 0
M  V30 5600 C 548.122 0.613919 -1.98106 0
M  V30 5601 C 548.547 1.62551 -0.946501 0
M  V30 5602 O 547.905 1.81085 0.0882824 0
M  V30 5603 C 547.953 1.26189 -3.378 0
M  V30 5604 O 547.057 2.37773 -3.36954 0
M  V30 5605 H 546.398 0.158163 -0.644888 0
M  V30 5606 H 548.928 -0.142063 -2.04106 0
M  V30 5607 H 548.938 1.60951 -3.74912 0
M  V30 5608 H 547.613 0.520625 -4.12629 0
M  V30 5609 H 546.19 2.04829 -3.11608 0
M  V30 5610 N 548.375 1.56261 0.205012 0
M  V30 5611 C 549.338 1.92908 1.23771 0
M  V30 5612 C 550.338 0.809208 1.38955 0
M  V30 5613 O 551.528 1.07676 1.36936 0
M  V30 5614 C 548.66 2.19442 2.60879 0
M  V30 5615 H 549.853 2.85287 0.924728 0
M  V30 5616 H 547.406 1.49798 0.446125 0
M  V30 5617 H 548.141 1.29668 2.97248 0
M  V30 5618 H 547.926 3.0104 2.51232 0
M  V30 5619 H 549.416 2.48833 3.35368 0
M  V30 5620 N 549.853 -0.472356 1.50355 0
M  V30 5621 C 551.078 -1.25251 1.65309 0
M  V30 5622 C 551.503 -1.85081 0.335643 0
M  V30 5623 O 550.861 -1.67227 -0.700335 0
M  V30 5624 C 550.909 -2.3379 2.74544 0
M  V30 5625 O 550.013 -3.38401 2.35709 0
M  V30 5626 H 549.354 -0.368539 0.552336 0
M  V30 5627 H 551.884 -0.562271 1.96722 0
M  V30 5628 H 551.894 -2.79121 2.97583 0
M  V30 5629 H 550.569 -1.89614 3.70161 0
M  V30 5630 H 549.146 -2.9879 2.23112 0
M  V30 5631 N 551.331 -1.39911 -0.725443 0
M  V30 5632 C 552.58 -1.36963 -1.48068 0
M  V30 5633 C 552.893 0.0284478 -1.95579 0
M  V30 5634 O 554.099 0.180535 -2.70899 0
M  V30 5635 C 552.555 -2.40664 -2.67598 0
M  V30 5636 C 552.163 -3.86234 -2.26997 0
M  V30 5637 C 553.907 -2.46807 -3.45379 0
M  V30 5638 C 551.814 -4.81554 -3.43307 0
M  V30 5639 H 550.744 -0.509223 -0.556065 0
M  V30 5640 H 553.395 -1.65602 -0.790454 0
M  V30 5641 H 551.777 -2.05109 -3.38742 0
M  V30 5642 H 552.951 -4.3088 -1.63337 0
M  V30 5643 H 551.266 -3.83475 -1.62284 0
M  V30 5644 H 553.863 -3.15213 -4.31909 0
M  V30 5645 H 554.206 -1.49552 -3.8851 0
M  V30 5646 H 554.739 -2.81303 -2.81271 0
M  V30 5647 H 551.478 -5.80106 -3.05217 0
M  V30 5648 H 550.998 -4.4158 -4.05915 0
M  V30 5649 H 552.677 -5.0091 -4.0951 0
M  V30 5650 N 552.809 0.956637 -1.25245 0
M  V30 5651 C 553.742 2.05232 -0.99775 0
M  V30 5652 C 554.72 1.62439 0.0723137 0
M  V30 5653 O 555.904 1.88381 -0.066926 0
M  V30 5654 C 553.031 3.34871 -0.507861 0
M  V30 5655 C 552.077 3.96625 -1.56815 0
M  V30 5656 S 552.91 4.32853 -3.15276 0
M  V30 5657 C 554.066 5.65613 -2.68017 0
M  V30 5658 H 554.299 2.26521 -1.9255 0
M  V30 5659 H 551.832 1.09601 -1.08752 0
M  V30 5660 H 553.79 4.09845 -0.231858 0
M  V30 5661 H 552.451 3.11551 0.399356 0
M  V30 5662 H 551.644 4.90087 -1.17604 0
M  V30 5663 H 551.246 3.28124 -1.79473 0
M  V30 5664 H 553.538 6.43635 -2.11518 0
M  V30 5665 H 554.481 6.09693 -3.60112 0
M  V30 5666 H 554.889 5.24751 -2.0808 0
M  V30 5667 N 554.287 1.06798 1.15896 0
M  V30 5668 C 555.25 0.687328 2.18651 0
M  V30 5669 C 556.25 -0.269559 1.58524 0
M  V30 5670 O 557.44 -0.0512627 1.74125 0
M  V30 5671 C 554.572 0.0121642 3.40898 0
M  V30 5672 H 555.765 1.59701 2.53842 0
M  V30 5673 H 553.318 0.863828 1.3026 0
M  V30 5674 H 554.053 -0.910025 3.1127 0
M  V30 5675 H 553.838 0.700309 3.85795 0
M  V30 5676 H 555.328 -0.239703 4.16911 0
M  V30 5677 N 555.766 -1.3263 0.851289 0
M  V30 5678 C 556.729 -2.27247 0.298541 0
M  V30 5679 C 557.729 -1.51467 -0.539847 0
M  V30 5680 O 558.919 -1.7061 -0.351843 0
M  V30 5681 C 556.051 -3.35964 -0.578004 0
M  V30 5682 H 557.244 -2.7765 1.13359 0
M  V30 5683 H 554.797 -1.43245 0.625354 0
M  V30 5684 H 555.532 -2.90823 -1.435 0
M  V30 5685 H 555.317 -3.92094 0.0220539 0
M  V30 5686 H 556.807 -4.06472 -0.957626 0
M  V30 5687 N 557.244 -0.608902 -1.45362 0
M  V30 5688 C 558.491 -0.104607 -2.0223 0
M  V30 5689 C 558.819 1.26534 -1.47714 0
M  V30 5690 O 558.074 1.84855 -0.642435 0
M  V30 5691 C 558.373 -0.0167296 -3.57396 0
M  V30 5692 C 558.039 -1.32251 -4.31069 0
M  V30 5693 C 556.701 -1.68019 -4.50914 0
M  V30 5694 C 559.053 -2.18542 -4.73169 0
M  V30 5695 C 556.381 -2.89828 -5.10114 0
M  V30 5696 C 558.733 -3.39602 -5.33717 0
M  V30 5697 C 557.397 -3.7562 -5.51784 0
M  V30 5698 H 556.667 -0.0382785 -0.740011 0
M  V30 5699 H 559.314 -0.790782 -1.7441 0
M  V30 5700 H 557.619 0.752715 -3.84502 0
M  V30 5701 H 559.316 0.389634 -3.99103 0
M  V30 5702 H 555.906 -1.03411 -4.15938 0
M  V30 5703 H 560.09 -1.92208 -4.5757 0
M  V30 5704 H 555.346 -3.17839 -5.22291 0
M  V30 5705 H 559.52 -4.06716 -5.65292 0
M  V30 5706 H 557.147 -4.70093 -5.97425 0
M  V30 5707 N 558.722 1.53707 -0.348139 0
M  V30 5708 C 559.655 2.21481 0.549667 0
M  V30 5709 C 560.633 1.20046 1.09671 0
M  V30 5710 O 561.817 1.48883 1.15612 0
M  V30 5711 C 558.944 2.89585 1.75664 0
M  V30 5712 C 557.99 4.04948 1.33864 0
M  V30 5713 S 558.823 5.34325 0.354577 0
M  V30 5714 C 559.979 6.05934 1.56828 0
M  V30 5715 H 560.212 2.97289 -0.0259755 0
M  V30 5716 H 557.745 1.53833 -0.132216 0
M  V30 5717 H 559.703 3.29441 2.44906 0
M  V30 5718 H 558.364 2.13535 2.30351 0
M  V30 5719 H 557.557 4.51552 2.23868 0
M  V30 5720 H 557.159 3.66893 0.725651 0
M  V30 5721 H 559.451 6.29606 2.50205 0
M  V30 5722 H 560.394 6.98799 1.14395 0
M  V30 5723 H 560.802 5.36151 1.76642 0
M  V30 5724 N 560.2 0.0768682 1.57412 0
M  V30 5725 C 561.477 -0.632359 1.85096 0
M  V30 5726 C 561.857 -1.87479 0.9703 0
M  V30 5727 O 561.205 -2.28469 0.0379062 0
M  V30 5728 C 561.415 -0.965174 3.35388 0
M  V30 5729 C 562.763 -1.33648 4.03018 0
M  V30 5730 O 563.787 -1.05675 3.40164 0
M  V30 5731 O 562.646 -1.85959 5.13889 0
M  V30 5732 H 559.74 -0.314574 0.764835 0
M  V30 5733 H 562.286 0.108184 1.69355 0
M  V30 5734 H 561.058 -0.0829745 3.91212 0
M  V30 5735 H 560.681 -1.76231 3.5641 0
M  V30 5736 N 561.678 -1.56367 -0.196722 0
M  V30 5737 C 562.626 -1.95304 -1.2633 0
M  V30 5738 C 563.62 -0.838252 -1.47206 0
M  V30 5739 O 564.826 -1.02325 -1.48087 0
M  V30 5740 H 561.201 -0.621013 -0.424083 0
M  V30 5741 H 563.172 -2.84254 -0.907879 0
M  V30 5742 C 561.921 -2.3074 -2.60104 0
M  V30 5743 H 561.244 -3.16047 -2.44856 0
M  V30 5744 H 562.684 -2.61849 -3.33484 0
M  V30 5745 C 561.143 -1.14143 -3.16975 0
M  V30 5746 O 561.673 -0.415602 -3.99544 0
M  V30 5747 N 559.879 -0.91867 -2.75697 0
M  V30 5748 H 559.426 -1.51065 -2.08656 0
M  V30 5749 H 559.384 -0.140321 -3.14087 0
M  V30 5750 N 563.156 0.464375 -1.50603 0
M  V30 5751 C 564.567 1.04507 -1.5471 0
M  V30 5752 C 564.918 1.9297 -0.354542 0
M  V30 5753 O 564.043 2.09763 0.531812 0
M  V30 5754 C 564.638 1.90207 -2.80369 0
M  V30 5755 C 563.197 2.43373 -2.87135 0
M  V30 5756 C 562.344 1.21886 -2.49076 0
M  V30 5757 H 565.295 0.246716 -1.56771 0
M  V30 5758 H 565.316 2.75353 -2.62604 0
M  V30 5759 H 564.828 1.25796 -3.67147 0
M  V30 5760 H 562.929 3.11318 -2.04724 0
M  V30 5761 H 563.042 2.7802 -3.90181 0
M  V30 5762 H 561.406 1.55575 -2.01664 0
M  V30 5763 H 562.189 0.591268 -3.3817 0
M  V30 5764 N 564.634 1.40294 0.718013 0
M  V30 5765 C 565.881 1.3844 1.47786 0
M  V30 5766 C 566.209 -0.0140838 1.94495 0
M  V30 5767 O 565.464 -0.998165 1.68331 0
M  V30 5768 C 565.763 2.31814 2.72024 0
M  V30 5769 C 565.429 3.79117 2.44093 0
M  V30 5770 C 564.091 4.19249 2.36185 0
M  V30 5771 C 566.443 4.72212 2.20602 0
M  V30 5772 C 563.771 5.50516 2.02851 0
M  V30 5773 C 566.123 6.03775 1.88781 0
M  V30 5774 C 564.787 6.42953 1.79354 0
M  V30 5775 H 564.057 0.506588 0.540786 0
M  V30 5776 H 566.704 1.72929 0.822663 0
M  V30 5777 H 565.009 1.90501 3.42369 0
M  V30 5778 H 566.706 2.27664 3.30106 0
M  V30 5779 H 563.296 3.47318 2.51133 0
M  V30 5780 H 567.48 4.42026 2.25669 0
M  V30 5781 H 562.736 5.79776 1.94088 0
M  V30 5782 H 566.91 6.75428 1.69617 0
M  V30 5783 H 564.537 7.44584 1.53291 0
M  V30 5784 N 566.112 -0.949982 1.2575 0
M  V30 5785 C 567.022 -2.08109 1.08295 0
M  V30 5786 C 568.038 -1.7399 0.0188181 0
M  V30 5787 O 569.214 -2.00187 0.220724 0
M  V30 5788 C 566.279 -3.39383 0.708534 0
M  V30 5789 C 565.34 -3.8734 1.85111 0
M  V30 5790 C 564.573 -5.12349 1.49447 0
M  V30 5791 O 564.796 -5.6905 0.392212 0
M  V30 5792 O 563.73 -5.5513 2.32624 0
M  V30 5793 H 567.556 -2.25738 2.03165 0
M  V30 5794 H 565.141 -1.06545 1.04731 0
M  V30 5795 H 567.023 -4.18277 0.512061 0
M  V30 5796 H 565.698 -3.23013 -0.210854 0
M  V30 5797 H 564.605 -3.09429 2.10248 0
M  V30 5798 H 565.938 -4.08216 2.74991 0
M  V30 5799 N 567.59 -1.07411 -1.15328 0
M  V30 5800 C 568.837 -0.797649 -1.86128 0
M  V30 5801 C 569.165 0.676298 -1.82364 0
M  V30 5802 O 568.42 1.51223 -1.24218 0
M  V30 5803 C 568.719 -1.25191 -3.34757 0
M  V30 5804 C 568.385 -2.73191 -3.58716 0
M  V30 5805 C 567.047 -3.13616 -3.64964 0
M  V30 5806 C 569.399 -3.68718 -3.6837 0
M  V30 5807 C 566.727 -4.48383 -3.78377 0
M  V30 5808 C 569.079 -5.03248 -3.83306 0
M  V30 5809 C 567.743 -5.43293 -3.878 0
M  V30 5810 H 567.013 -0.29188 -0.681092 0
M  V30 5811 H 569.66 -1.34524 -1.36292 0
M  V30 5812 H 567.965 -0.623712 -3.86804 0
M  V30 5813 H 569.662 -1.01489 -3.87945 0
M  V30 5814 H 566.252 -2.40898 -3.54494 0
M  V30 5815 H 570.436 -3.38614 -3.62842 0
M  V30 5816 H 565.692 -4.78877 -3.80114 0
M  V30 5817 H 569.866 -5.77142 -3.89718 0
M  V30 5818 H 567.493 -6.47721 -3.97946 0
M  V30 5819 N 569.068 1.32177 -0.85831 0
M  V30 5820 C 570.016 2.30729 -0.294442 0
M  V30 5821 C 571.01 1.59009 0.584165 0
M  V30 5822 O 572.216 1.73713 0.471562 0
M  V30 5823 H 568.591 0.748097 -0.0765171 0
M  V30 5824 H 570.562 2.75774 -1.1398 0
M  V30 5825 C 569.311 3.44098 0.499208 0
M  V30 5826 H 568.634 3.99449 -0.167579 0
M  V30 5827 H 570.074 4.15202 0.859273 0
M  V30 5828 C 568.533 2.91684 1.68588 0
M  V30 5829 O 569.063 2.89481 2.78503 0
M  V30 5830 N 567.269 2.48036 1.51415 0
M  V30 5831 H 566.816 2.50027 0.620006 0
M  V30 5832 H 566.774 2.13322 2.30957 0
M  V30 5833 N 570.547 0.616602 1.45037 0
M  V30 5834 C 571.958 0.199359 1.85633 0
M  V30 5835 C 572.309 -1.24588 1.51566 0
M  V30 5836 O 571.434 -1.94594 0.94668 0
M  V30 5837 C 572.029 0.355033 3.36935 0
M  V30 5838 C 570.588 -0.00758748 3.76399 0
M  V30 5839 C 569.735 0.675256 2.68953 0
M  V30 5840 H 572.686 0.822708 1.3571 0
M  V30 5841 H 572.707 -0.410201 3.78282 0
M  V30 5842 H 572.219 1.40699 3.61698 0
M  V30 5843 H 570.32 -1.05837 3.57252 0
M  V30 5844 H 570.433 0.392346 4.77491 0
M  V30 5845 H 568.797 0.111992 2.54454 0
M  V30 5846 H 569.58 1.72952 2.96551 0
M  V30 5847 N 572.025 -1.5352 0.356285 0
M  V30 5848 C 572.935 -2.29151 -0.502712 0
M  V30 5849 C 573.951 -1.34753 -1.1008 0
M  V30 5850 O 575.127 -1.67803 -1.11374 0
M  V30 5851 C 572.192 -3.05911 -1.63154 0
M  V30 5852 C 571.253 -4.15958 -1.06194 0
M  V30 5853 C 570.486 -4.8905 -2.13696 0
M  V30 5854 O 570.709 -4.61919 -3.34645 0
M  V30 5855 O 569.643 -5.75202 -1.77275 0
M  V30 5856 H 573.469 -3.03492 0.112466 0
M  V30 5857 H 571.054 -1.4891 0.120942 0
M  V30 5858 H 572.936 -3.53874 -2.28804 0
M  V30 5859 H 571.611 -2.34415 -2.23229 0
M  V30 5860 H 570.518 -3.7227 -0.369603 0
M  V30 5861 H 571.851 -4.89593 -0.505872 0
M  V30 5862 N 573.503 -0.0852151 -1.57369 0
M  V30 5863 C 574.78 0.622534 -1.85429 0
M  V30 5864 C 575.16 1.86962 -0.980229 0
M  V30 5865 O 574.508 2.28445 -0.0500219 0
M  V30 5866 C 574.718 0.947374 -3.35896 0
M  V30 5867 C 576.066 1.31509 -4.03721 0
M  V30 5868 O 577.09 1.03869 -3.40719 0
M  V30 5869 O 575.949 1.83231 -5.14868 0
M  V30 5870 H 573.043 0.310513 -0.766492 0
M  V30 5871 H 575.589 -0.117164 -1.69295 0
M  V30 5872 H 574.361 0.0622264 -3.91251 0
M  V30 5873 H 573.984 1.74338 -3.5734 0
M  V30 5874 N 574.981 1.5647 0.188427 0
M  V30 5875 C 576.392 1.70864 0.752494 0
M  V30 5876 C 576.743 0.692905 1.83557 0
M  V30 5877 O 575.868 -0.149307 2.15884 0
M  V30 5878 C 576.463 3.09789 1.37173 0
M  V30 5879 C 575.022 3.25925 1.88281 0
M  V30 5880 C 574.169 2.66817 0.755259 0
M  V30 5881 H 577.12 1.58657 -0.0367408 0
M  V30 5882 H 577.141 3.07489 2.24122 0
M  V30 5883 H 576.653 3.83693 0.583219 0
M  V30 5884 H 574.754 2.56948 2.6983 0
M  V30 5885 H 574.867 4.33498 2.04001 0
M  V30 5886 H 573.231 2.2617 1.17128 0
M  V30 5887 H 574.014 3.43294 -0.0211237 0
M  V30 5888 N 576.459 -0.456382 1.50847 0
M  V30 5889 C 577.708 -1.2042 1.61808 0
M  V30 5890 C 578.021 -1.9278 0.330932 0
M  V30 5891 O 579.227 -2.69612 0.319643 0
M  V30 5892 C 577.683 -2.18891 2.85683 0
M  V30 5893 C 577.291 -1.52267 4.2133 0
M  V30 5894 C 579.035 -2.94224 3.05994 0
M  V30 5895 C 576.942 -2.4911 5.36375 0
M  V30 5896 H 575.872 -0.453177 0.602616 0
M  V30 5897 H 578.523 -0.473144 1.77295 0
M  V30 5898 H 576.905 -2.95351 2.63787 0
M  V30 5899 H 578.079 -0.814949 4.53536 0
M  V30 5900 H 576.394 -0.891594 4.06743 0
M  V30 5901 H 578.991 -3.66732 3.89117 0
M  V30 5902 H 579.334 -3.54469 2.18306 0
M  V30 5903 H 579.867 -2.24874 3.28141 0
M  V30 5904 H 576.606 -1.93582 6.26264 0
M  V30 5905 H 576.126 -3.17991 5.08569 0
M  V30 5906 H 577.805 -3.10637 5.67551 0
M  V30 5907 N 577.937 -1.40673 -0.710563 0
M  V30 5908 C 579.348 -1.34975 -1.28991 0
M  V30 5909 C 579.699 -0.0256272 -1.96183 0
M  V30 5910 O 578.824 0.876339 -1.97862 0
M  V30 5911 C 579.419 -2.44467 -2.34567 0
M  V30 5912 C 577.978 -2.42213 -2.88114 0
M  V30 5913 C 577.125 -2.25085 -1.61963 0
M  V30 5914 H 580.076 -1.50406 -0.506343 0
M  V30 5915 H 580.097 -2.12663 -3.15523 0
M  V30 5916 H 579.609 -3.40825 -1.85634 0
M  V30 5917 H 577.71 -1.49568 -3.41263 0
M  V30 5918 H 577.823 -3.37983 -3.39565 0
M  V30 5919 H 576.187 -1.72691 -1.87216 0
M  V30 5920 H 576.97 -3.23449 -1.15047 0
M  V30 5921 N 579.415 0.9433 -1.26252 0
M  V30 5922 C 580.661 1.69175 -1.11837 0
M  V30 5923 C 580.994 1.91238 0.337891 0
M  V30 5924 O 580.269 1.49152 1.24836 0
M  V30 5925 C 580.552 3.06783 -1.88563 0
M  V30 5926 C 580.405 2.9206 -3.42083 0
M  V30 5927 C 581.724 4.06865 -1.67776 0
M  V30 5928 H 578.843 0.61399 -0.407658 0
M  V30 5929 H 581.485 1.09572 -1.55222 0
M  V30 5930 H 579.635 3.57663 -1.51689 0
M  V30 5931 H 581.307 2.48419 -3.88698 0
M  V30 5932 H 579.55 2.27731 -3.69217 0
M  V30 5933 H 580.221 3.89651 -3.90994 0
M  V30 5934 H 582.697 3.64939 -1.99897 0
M  V30 5935 H 581.573 5.01168 -2.23879 0
M  V30 5936 H 581.834 4.37705 -0.621816 0
M  V30 5937 N 580.893 1.08022 1.14757 0
M  V30 5938 C 582.118 0.82895 1.90114 0
M  V30 5939 C 582.543 -0.612772 1.77839 0
M  V30 5940 O 581.901 -1.42895 1.11583 0
M  V30 5941 C 581.949 1.25062 3.38219 0
M  V30 5942 O 581.053 0.400119 4.10454 0
M  V30 5943 H 580.394 0.301412 0.591648 0
M  V30 5944 H 582.924 1.44062 1.45284 0
M  V30 5945 H 582.934 1.22977 3.89025 0
M  V30 5946 H 581.609 2.30067 3.46471 0
M  V30 5947 H 580.186 0.484052 3.69745 0
M  V30 5948 N 582.371 -1.3172 0.865308 0
M  V30 5949 C 583.618 -1.96876 0.473931 0
M  V30 5950 C 583.946 -1.68425 -0.972786 0
M  V30 5951 O 583.201 -0.970742 -1.69927 0
M  V30 5952 C 583.5 -3.5102 0.672283 0
M  V30 5953 C 583.166 -3.9948 2.09108 0
M  V30 5954 C 581.828 -4.12425 2.4791 0
M  V30 5955 C 584.18 -4.2503 3.0166 0
M  V30 5956 C 581.508 -4.48267 3.78515 0
M  V30 5957 C 583.86 -4.62335 4.31774 0
M  V30 5958 C 582.524 -4.73486 4.70497 0
M  V30 5959 H 581.794 -0.72042 0.173424 0
M  V30 5960 H 584.441 -1.56937 1.0974 0
M  V30 5961 H 582.746 -3.91785 -0.034356 0
M  V30 5962 H 584.443 -3.99475 0.349353 0
M  V30 5963 H 581.033 -3.89898 1.77981 0
M  V30 5964 H 585.217 -4.14529 2.7291 0
M  V30 5965 H 580.473 -4.55097 4.08285 0
M  V30 5966 H 584.647 -4.81058 5.03543 0
M  V30 5967 H 582.274 -5.01016 5.71741 0
M  V30 5968 N 583.85 -0.624285 -1.44708 0
M  V30 5969 C 585.075 -0.131171 -2.06985 0
M  V30 5970 C 585.5 1.18234 -1.46295 0
M  V30 5971 O 584.858 1.72375 -0.561842 0
M  V30 5972 C 584.906 -0.0226724 -3.60593 0
M  V30 5973 O 584.01 1.02314 -3.99507 0
M  V30 5974 H 583.351 -0.0816556 -0.65896 0
M  V30 5975 H 585.88 -0.859027 -1.85693 0
M  V30 5976 H 585.891 0.170138 -4.07645 0
M  V30 5977 H 584.566 -0.981685 -4.04148 0
M  V30 5978 H 583.143 0.805452 -3.64097 0
M  V30 5979 N 585.328 1.53329 -0.364422 0
M  V30 5980 C 586.739 1.86345 0.115039 0
M  V30 5981 C 587.09 1.28505 1.4826 0
M  V30 5982 O 586.215 0.606639 2.07723 0
M  V30 5983 C 586.81 3.38114 0.215522 0
M  V30 5984 C 585.369 3.70932 0.639237 0
M  V30 5985 C 584.516 2.76471 -0.214261 0
M  V30 5986 H 587.467 1.47593 -0.583258 0
M  V30 5987 H 587.488 3.66031 1.0393 0
M  V30 5988 H 587 3.80182 -0.779948 0
M  V30 5989 H 585.101 3.3442 1.64298 0
M  V30 5990 H 585.214 4.77302 0.41465 0
M  V30 5991 H 583.578 2.52724 0.316678 0
M  V30 5992 H 584.361 3.21373 -1.20725 0
M  V30 5993 N 586.806 0.0935595 1.57322 0
M  V30 5994 C 588.052 -0.571355 1.94585 0
M  V30 5995 C 588.385 -1.67929 0.975366 0
M  V30 5996 O 587.66 -1.94498 0.00816206 0
M  V30 5997 C 587.943 -1.12797 3.41978 0
M  V30 5998 C 587.796 -0.0251881 4.49793 0
M  V30 5999 C 589.115 -2.02682 3.90651 0
M  V30 6000 H 586.234 -0.206223 0.70756 0
M  V30 6001 H 588.876 0.163956 1.89291 0
M  V30 6002 H 587.026 -1.75461 3.4662 0
M  V30 6003 H 588.698 0.608979 4.57263 0
M  V30 6004 H 586.941 0.641399 4.29032 0
M  V30 6005 H 587.612 -0.455433 5.50118 0
M  V30 6006 H 590.088 -1.49925 3.88152 0
M  V30 6007 H 588.964 -2.38555 4.94351 0
M  V30 6008 H 589.225 -2.94362 3.29854 0
M  V30 6009 N 588.284 -1.56567 -0.180126 0
M  V30 6010 C 589.561 -1.7235 -0.924931 0
M  V30 6011 C 589.941 -0.652523 -2.00762 0
M  V30 6012 O 589.289 0.334115 -2.26044 0
M  V30 6013 C 589.499 -3.1523 -1.49771 0
M  V30 6014 C 590.847 -3.75921 -1.97405 0
M  V30 6015 O 591.871 -3.18452 -1.59583 0
M  V30 6016 O 590.73 -4.7681 -2.67048 0
M  V30 6017 H 587.824 -0.703502 -0.434758 0
M  V30 6018 H 590.37 -1.6886 -0.168647 0
M  V30 6019 H 589.142 -3.84656 -0.718027 0
M  V30 6020 H 588.765 -3.23009 -2.31842 0
M  V30 6021 N 589.762 0.448376 -1.51087 0
M  V30 6022 C 590.99 1.22143 -1.66999 0
M  V30 6023 C 591.405 1.85283 -0.362699 0
M  V30 6024 O 590.762 1.70236 0.65772 0
M  V30 6025 C 590.813 2.31357 -2.7777 0
M  V30 6026 O 590.534 1.70801 -4.03434 0
M  V30 6027 C 592.035 3.21836 -3.04855 0
M  V30 6028 H 589.255 0.368558 -0.560719 0
M  V30 6029 H 591.799 0.532618 -1.97442 0
M  V30 6030 H 589.954 2.95973 -2.49958 0
M  V30 6031 H 590.368 2.42895 -4.64868 0
M  V30 6032 H 591.842 3.94627 -3.85971 0
M  V30 6033 H 592.319 3.81949 -2.16821 0
M  V30 6034 H 592.925 2.62933 -3.34285 0
M  V30 6035 N 591.24 1.41047 0.703093 0
M  V30 6036 C 592.188 1.42494 1.83843 0
M  V30 6037 C 593.182 0.303885 1.66652 0
M  V30 6038 O 594.388 0.475544 1.73605 0
M  V30 6039 H 590.763 0.445685 0.605697 0
M  V30 6040 H 592.734 2.38194 1.79739 0
M  V30 6041 C 591.483 1.31666 3.21807 0
M  V30 6042 H 590.806 2.17212 3.35647 0
M  V30 6043 H 592.246 1.36738 4.01346 0
M  V30 6044 C 590.705 0.0281828 3.36888 0
M  V30 6045 O 591.235 -0.929995 3.90786 0
M  V30 6046 N 589.441 -0.0454322 2.90564 0
M  V30 6047 H 588.988 0.735046 2.4689 0
M  V30 6048 H 588.946 -0.906968 3.01034 0
M  V30 6049 N 592.718 -0.936591 1.26751 0
M  V30 6050 C 593.943 -1.72288 1.15462 0
M  V30 6051 C 594.368 -1.85915 -0.285887 0
M  V30 6052 O 593.726 -1.35272 -1.20711 0
M  V30 6053 C 593.774 -3.10503 1.83359 0
M  V30 6054 O 592.878 -3.96745 1.1255 0
M  V30 6055 H 592.219 -0.52843 0.402067 0
M  V30 6056 H 594.749 -1.17271 1.67656 0
M  V30 6057 H 594.759 -3.60867 1.90365 0
M  V30 6058 H 593.434 -2.99901 2.88153 0
M  V30 6059 H 592.011 -3.55191 1.13551 0
M  V30 6060 N 594.196 -1.08629 -1.14182 0
M  V30 6061 C 595.424 -0.838889 -1.8913 0
M  V30 6062 C 595.839 0.609153 -1.78703 0
M  V30 6063 O 595.196 1.41876 -1.14794 0
M  V30 6064 C 595.247 -1.25477 -3.39025 0
M  V30 6065 O 594.968 -2.64601 -3.49167 0
M  V30 6066 C 596.469 -1.03856 -4.30963 0
M  V30 6067 H 593.689 -0.302377 -0.599007 0
M  V30 6068 H 596.233 -1.44615 -1.44592 0
M  V30 6069 H 594.388 -0.691571 -3.81177 0
M  V30 6070 H 594.802 -2.81922 -4.42289 0
M  V30 6071 H 596.276 -1.37892 -5.345 0
M  V30 6072 H 596.753 0.0242522 -4.39193 0
M  V30 6073 H 597.359 -1.58731 -3.94569 0
M  V30 6074 N 595.674 1.31259 -0.872281 0
M  V30 6075 C 596.899 2.0133 -0.498099 0
M  V30 6076 C 597.324 1.65031 0.902568 0
M  V30 6077 O 596.682 0.860164 1.59596 0
M  V30 6078 C 596.73 3.54411 -0.665205 0
M  V30 6079 O 595.834 4.11347 0.294473 0
M  V30 6080 H 595.175 0.633844 -0.197832 0
M  V30 6081 H 597.705 1.67402 -1.17633 0
M  V30 6082 H 597.715 4.04147 -0.559373 0
M  V30 6083 H 596.39 3.80171 -1.68651 0
M  V30 6084 H 594.967 3.72624 0.143403 0
M  V30 6085 N 597.152 0.631951 1.44375 0
M  V30 6086 C 598.4 0.136497 2.01639 0
M  V30 6087 C 598.721 -1.24637 1.49969 0
M  V30 6088 O 597.991 -1.82827 0.70363 0
M  V30 6089 H 596.571 0.0474703 0.74549 0
M  V30 6090 H 599.233 0.818837 1.76865 0
M  V30 6091 H 598.329 0.104817 3.11924 0
M  V30 6092 N 598.631 -1.53133 0.372548 0
M  V30 6093 C 599.908 -1.93704 -0.271693 0
M  V30 6094 C 600.288 -1.30667 -1.65799 0
M  V30 6095 O 599.636 -0.46838 -2.23648 0
M  V30 6096 C 599.846 -3.47576 -0.314903 0
M  V30 6097 C 601.194 -4.20998 -0.551912 0
M  V30 6098 O 602.218 -3.53994 -0.39582 0
M  V30 6099 O 601.077 -5.39748 -0.85639 0
M  V30 6100 H 598.171 -0.810457 -0.164586 0
M  V30 6101 H 600.717 -1.6427 0.425838 0
M  V30 6102 H 599.489 -3.85749 0.656792 0
M  V30 6103 H 599.112 -3.83264 -1.05804 0
M  V30 6104 N 600.109 -0.101901 -1.5727 0
M  V30 6105 C 601.52 0.426173 -1.81771 0
M  V30 6106 C 601.871 1.67725 -1.01797 0
M  V30 6107 O 600.996 2.14958 -0.249386 0
M  V30 6108 C 601.591 0.779962 -3.297 0
M  V30 6109 C 600.15 1.25275 -3.54941 0
M  V30 6110 C 599.297 0.252814 -2.76145 0
M  V30 6111 H 602.248 -0.32726 -1.55289 0
M  V30 6112 H 602.269 1.63891 -3.43395 0
M  V30 6113 H 601.781 -0.130778 -3.8788 0
M  V30 6114 H 599.882 2.18097 -3.021 0
M  V30 6115 H 599.995 1.20988 -4.63572 0
M  V30 6116 H 598.359 0.736362 -2.43823 0
M  V30 6117 H 599.142 -0.650724 -3.37076 0
M  V30 6118 N 601.587 1.56661 0.17182 0
M  V30 6119 C 602.833 1.82235 0.889845 0
M  V30 6120 C 603.166 0.679673 1.81918 0
M  V30 6121 O 602.441 -0.318404 1.91876 0
M  V30 6122 C 602.724 3.18195 1.68595 0
M  V30 6123 C 602.577 4.42989 0.779773 0
M  V30 6124 C 603.896 3.5109 2.65375 0
M  V30 6125 H 601.015 0.66291 0.322056 0
M  V30 6126 H 603.657 1.89358 0.15608 0
M  V30 6127 H 601.807 3.12253 2.3115 0
M  V30 6128 H 603.479 4.60997 0.16714 0
M  V30 6129 H 601.722 4.33711 0.0877964 0
M  V30 6130 H 602.393 5.3467 1.3723 0
M  V30 6131 H 604.869 3.57482 2.12946 0
M  V30 6132 H 603.745 4.47298 3.18144 0
M  V30 6133 H 604.006 2.75768 3.45549 0
M  V30 6134 N 603.065 -0.440357 1.51323 0
M  V30 6135 C 603.975 -1.55955 1.75258 0
M  V30 6136 C 604.991 -1.61933 0.636687 0
M  V30 6137 O 606.167 -1.79231 0.918593 0
M  V30 6138 C 603.232 -2.9196 1.86977 0
M  V30 6139 C 602.293 -2.96122 3.10822 0
M  V30 6140 C 601.526 -4.2564 3.21973 0
M  V30 6141 O 601.749 -5.17851 2.39137 0
M  V30 6142 O 600.683 -4.36025 4.14929 0
M  V30 6143 H 604.509 -1.38673 2.70191 0
M  V30 6144 H 602.094 -0.623055 1.35788 0
M  V30 6145 H 603.976 -3.72682 1.96688 0
M  V30 6146 H 602.651 -3.09375 0.952307 0
M  V30 6147 H 601.558 -2.14366 3.06591 0
M  V30 6148 H 602.891 -2.83651 4.02247 0
M  V30 6149 N 604.543 -1.41418 -0.695603 0
M  V30 6150 C 605.49 -1.43264 -1.80954 0
M  V30 6151 C 606.46 -0.287016 -1.63601 0
M  V30 6152 O 607.645 -0.488054 -1.84452 0
M  V30 6153 C 604.785 -1.32054 -3.18835 0
M  V30 6154 C 603.898 -2.56485 -3.4762 0
M  V30 6155 C 603.033 -2.3757 -4.75115 0
M  V30 6156 C 602.072 -3.57477 -4.96867 0
M  V30 6157 N 601.209 -3.37632 -6.15588 0
M  V30 6158 H 606.049 -2.38467 -1.78711 0
M  V30 6159 H 603.586 -1.18415 -0.872715 0
M  V30 6160 H 605.544 -1.23558 -3.98484 0
M  V30 6161 H 604.174 -0.404592 -3.20254 0
M  V30 6162 H 603.226 -2.75432 -2.62376 0
M  V30 6163 H 604.538 -3.45678 -3.59594 0
M  V30 6164 H 603.692 -2.2654 -5.62818 0
M  V30 6165 H 602.431 -1.45834 -4.65386 0
M  V30 6166 H 601.436 -3.68961 -4.07612 0
M  V30 6167 H 602.661 -4.50167 -5.08455 0
M  V30 6168 H 600.607 -2.48596 -6.07072 0
M  V30 6169 H 600.524 -4.20401 -6.2833 0
M  V30 6170 H 601.792 -3.30375 -7.06026 0
M  V30 6171 N 606.021 0.929856 -1.27246 0
M  V30 6172 C 606.968 2.03017 -1.09785 0
M  V30 6173 C 607.938 1.661 0.000456744 0
M  V30 6174 O 609.123 1.90116 -0.161462 0
M  V30 6175 C 606.263 3.36878 -0.748816 0
M  V30 6176 C 605.376 3.86763 -1.92453 0
M  V30 6177 C 604.511 5.09061 -1.51758 0
M  V30 6178 C 603.55 5.51237 -2.66091 0
M  V30 6179 N 602.687 6.64732 -2.25999 0
M  V30 6180 H 607.527 2.17285 -2.03939 0
M  V30 6181 H 605.064 1.06448 -1.01524 0
M  V30 6182 H 607.022 4.13855 -0.527283 0
M  V30 6183 H 605.652 3.22424 0.155771 0
M  V30 6184 H 604.704 3.06086 -2.25867 0
M  V30 6185 H 606.016 4.13994 -2.78227 0
M  V30 6186 H 605.17 5.93532 -1.25716 0
M  V30 6187 H 603.909 4.83602 -0.630896 0
M  V30 6188 H 602.914 4.65316 -2.92849 0
M  V30 6189 H 604.139 5.78692 -3.55377 0
M  V30 6190 H 602.085 6.40935 -1.3978 0
M  V30 6191 H 602.002 6.91607 -3.05313 0
M  V30 6192 H 603.27 7.52549 -2.03199 0
M  V30 6193 N 607.499 1.09233 1.13605 0
M  V30 6194 C 608.776 0.739633 1.81077 0
M  V30 6195 C 609.156 -0.775595 1.96336 0
M  V30 6196 O 608.504 -1.69726 1.52988 0
M  V30 6197 C 608.714 1.47636 3.16235 0
M  V30 6198 C 610.062 1.64087 3.91613 0
M  V30 6199 O 611.086 1.43871 3.25852 0
M  V30 6200 O 609.945 1.97511 5.0956 0
M  V30 6201 H 607.039 0.265464 0.783236 0
M  V30 6202 H 609.585 1.19441 1.20549 0
M  V30 6203 H 608.357 2.50818 3.00344 0
M  V30 6204 H 607.98 1.01362 3.84462 0
M  V30 6205 N 608.977 -1.30795 0.87923 0
M  V30 6206 C 609.887 -2.32041 0.345565 0
M  V30 6207 C 610.903 -1.65103 -0.549265 0
M  V30 6208 O 612.079 -1.9645 -0.443763 0
M  V30 6209 C 609.144 -3.43944 -0.436245 0
M  V30 6210 C 608.205 -4.26521 0.48765 0
M  V30 6211 C 607.438 -5.33081 -0.256943 0
M  V30 6212 O 607.661 -5.50762 -1.48381 0
M  V30 6213 O 606.595 -6.00635 0.389985 0
M  V30 6214 H 610.421 -2.79627 1.18501 0
M  V30 6215 H 608.006 -1.3486 0.642885 0
M  V30 6216 H 609.888 -4.12128 -0.879119 0
M  V30 6217 H 608.563 -2.98504 -1.25208 0
M  V30 6218 H 607.47 -3.61057 0.979216 0
M  V30 6219 H 608.803 -4.75551 1.26933 0
M  V30 6220 N 610.455 -0.639598 -1.44038 0
M  V30 6221 C 611.683 -0.154811 -2.0632 0
M  V30 6222 C 612.098 1.17406 -1.47856 0
M  V30 6223 O 611.455 1.72193 -0.604638 0
M  V30 6224 C 611.506 -0.0429958 -3.61474 0
M  V30 6225 O 611.227 -1.31932 -4.17763 0
M  V30 6226 C 612.728 0.469486 -4.40807 0
M  V30 6227 H 609.948 -0.0835862 -0.665773 0
M  V30 6228 H 612.492 -0.876397 -1.84769 0
M  V30 6229 H 610.647 0.629075 -3.82258 0
M  V30 6230 H 611.061 -1.16965 -5.11292 0
M  V30 6231 H 612.535 0.496712 -5.49761 0
M  V30 6232 H 613.012 1.49819 -4.12857 0
M  V30 6233 H 613.618 -0.169624 -4.24962 0
M  V30 6234 N 611.933 1.52934 -0.380664 0
M  V30 6235 C 613.344 1.86457 0.0952684 0
M  V30 6236 C 613.695 1.3007 1.46889 0
M  V30 6237 O 612.82 0.628636 2.07068 0
M  V30 6238 C 613.415 3.38323 0.179648 0
M  V30 6239 C 611.974 3.71589 0.599858 0
M  V30 6240 C 611.121 2.76228 -0.243572 0
M  V30 6241 H 614.072 1.46966 -0.59888 0
M  V30 6242 H 614.093 3.67113 1.00042 0
M  V30 6243 H 613.605 3.79333 -0.820228 0
M  V30 6244 H 611.706 3.36144 1.60742 0
M  V30 6245 H 611.819 4.77715 0.364003 0
M  V30 6246 H 610.183 2.53045 0.289855 0
M  V30 6247 H 610.966 3.20074 -1.24127 0
M  V30 6248 N 613.412 0.11024 1.57214 0
M  V30 6249 C 614.659 -0.54987 1.94891 0
M  V30 6250 C 614.987 -1.67243 0.992984 0
M  V30 6251 O 614.242 -1.95694 0.0152703 0
M  V30 6252 C 614.541 -1.13102 3.39032 0
M  V30 6253 C 614.207 -0.130713 4.5071 0
M  V30 6254 C 612.869 0.14437 4.80983 0
M  V30 6255 C 615.221 0.551472 5.18274 0
M  V30 6256 C 612.549 1.10807 5.76141 0
M  V30 6257 C 614.901 1.50375 6.14467 0
M  V30 6258 C 613.565 1.78691 6.43138 0
M  V30 6259 H 612.835 -0.201212 0.713158 0
M  V30 6260 H 615.482 0.189288 1.90562 0
M  V30 6261 H 613.787 -1.94675 3.40013 0
M  V30 6262 H 615.484 -1.64973 3.65493 0
M  V30 6263 H 612.074 -0.355301 4.27125 0
M  V30 6264 H 616.258 0.35211 4.95049 0
M  V30 6265 H 611.514 1.3343 5.96663 0
M  V30 6266 H 615.688 2.03808 6.65909 0
M  V30 6267 H 613.315 2.53522 7.1668 0
M  V30 6268 N 614.89 -1.56749 -0.16351 0
M  V30 6269 C 616.138 -1.82074 -0.87713 0
M  V30 6270 C 616.459 -0.688503 -1.82441 0
M  V30 6271 O 615.729 0.291085 -1.93725 0
M  V30 6272 H 614.309 -0.671677 -0.326893 0
M  V30 6273 H 616.971 -1.9423 -0.161459 0
M  V30 6274 H 616.067 -2.76407 -1.44934 0
M  V30 6275 N 616.368 0.432326 -1.51554 0
M  V30 6276 C 617.614 1.18309 -1.64714 0
M  V30 6277 C 617.947 1.90745 -0.364696 0
M  V30 6278 O 617.222 1.8381 0.635936 0
M  V30 6279 C 617.505 2.1961 -2.85383 0
M  V30 6280 C 617.358 1.51223 -4.23617 0
M  V30 6281 C 618.677 3.20538 -3.01569 0
M  V30 6282 H 615.796 0.428751 -0.599451 0
M  V30 6283 H 618.438 0.471689 -1.84052 0
M  V30 6284 H 616.588 2.8028 -2.69027 0
M  V30 6285 H 618.26 0.938516 -4.51652 0
M  V30 6286 H 616.503 0.814501 -4.26085 0
M  V30 6287 H 617.174 2.25024 -5.04052 0
M  V30 6288 H 619.65 2.69926 -3.16669 0
M  V30 6289 H 618.526 3.88706 -3.87555 0
M  V30 6290 H 618.787 3.86933 -2.13859 0
M  V30 6291 N 617.846 1.41785 0.688094 0
M  V30 6292 C 619.071 1.45117 1.48175 0
M  V30 6293 C 619.496 0.060129 1.88004 0
M  V30 6294 O 618.854 -0.938385 1.55126 0
M  V30 6295 C 618.902 2.37224 2.71583 0
M  V30 6296 O 618.006 1.83443 3.69354 0
M  V30 6297 H 617.347 0.492208 0.445676 0
M  V30 6298 H 619.877 1.86329 0.845145 0
M  V30 6299 H 619.887 2.53353 3.19806 0
M  V30 6300 H 618.562 3.38293 2.41931 0
M  V30 6301 H 617.139 1.76802 3.28322 0
M  V30 6302 N 619.324 -0.923095 1.27737 0
M  V30 6303 C 620.57 -1.67375 1.14514 0
M  V30 6304 C 620.903 -1.91751 -0.307424 0
M  V30 6305 O 620.178 -1.51119 -1.22447 0
M  V30 6306 C 620.461 -3.03745 1.9342 0
M  V30 6307 C 620.314 -2.86581 3.46686 0
M  V30 6308 C 621.633 -4.04144 1.74228 0
M  V30 6309 H 618.752 -0.607427 0.417374 0
M  V30 6310 H 621.394 -1.07089 1.56946 0
M  V30 6311 H 619.544 -3.55204 1.5736 0
M  V30 6312 H 621.216 -2.42203 3.92601 0
M  V30 6313 H 619.459 -2.21829 3.72793 0
M  V30 6314 H 620.13 -3.83381 3.97143 0
M  V30 6315 H 622.606 -3.61712 2.05678 0
M  V30 6316 H 621.482 -4.97543 2.31824 0
M  V30 6317 H 621.743 -4.36661 0.691373 0
M  V30 6318 N 620.802 -1.09834 -1.13024 0
M  V30 6319 C 621.765 -0.745058 -2.16752 0
M  V30 6320 C 622.765 0.227435 -1.59183 0
M  V30 6321 O 623.955 0.0050786 -1.74199 0
M  V30 6322 C 621.087 -0.102543 -3.40746 0
M  V30 6323 H 622.28 -1.66375 -2.49518 0
M  V30 6324 H 619.833 -0.898061 -1.27924 0
M  V30 6325 H 620.568 0.827177 -3.13573 0
M  V30 6326 H 620.353 -0.80235 -3.83803 0
M  V30 6327 H 621.843 0.129082 -4.174 0
M  V30 6328 N 622.28 1.30327 -0.886154 0
M  V30 6329 C 623.526 1.96388 -0.505941 0
M  V30 6330 C 623.859 1.69784 0.942712 0
M  V30 6331 O 623.134 1.00322 1.6663 0
M  V30 6332 C 623.417 3.51488 -0.782826 0
M  V30 6333 C 623.27 3.87603 -2.28219 0
M  V30 6334 C 624.589 4.39331 -0.260128 0
M  V30 6335 H 621.708 0.713327 -0.185292 0
M  V30 6336 H 624.35 1.54178 -1.11036 0
M  V30 6337 H 622.5 3.87572 -0.268399 0
M  V30 6338 H 624.172 3.61537 -2.86512 0
M  V30 6339 H 622.415 3.3563 -2.74837 0
M  V30 6340 H 623.086 4.95806 -2.42653 0
M  V30 6341 H 625.562 4.10162 -0.700444 0
M  V30 6342 H 624.438 5.46769 -0.483179 0
M  V30 6343 H 624.699 4.34072 0.838674 0
M  V30 6344 N 623.758 0.647228 1.43697 0
M  V30 6345 C 625.006 0.157876 2.01482 0
M  V30 6346 C 625.327 -1.23039 1.51282 0
M  V30 6347 O 624.597 -1.82071 0.722982 0
M  V30 6348 H 623.177 0.0553745 0.744945 0
M  V30 6349 H 625.839 0.83755 1.75986 0
M  V30 6350 H 624.935 0.137895 3.11795 0
M  V30 6351 N 625.236 -1.5273 0.388769 0
M  V30 6352 C 626.166 -2.29353 -0.438111 0
M  V30 6353 C 627.147 -1.32719 -1.06394 0
M  V30 6354 O 628.332 -1.61612 -1.07681 0
M  V30 6355 C 625.462 -3.09995 -1.56589 0
M  V30 6356 C 624.416 -4.14509 -1.06613 0
M  V30 6357 C 623.742 -4.83372 -2.28594 0
M  V30 6358 C 625.042 -5.22127 -0.134459 0
M  V30 6359 H 626.736 -2.98723 0.201206 0
M  V30 6360 H 624.282 -1.43665 0.0982089 0
M  V30 6361 H 626.235 -3.62357 -2.15118 0
M  V30 6362 H 624.959 -2.38357 -2.23279 0
M  V30 6363 H 623.618 -3.63128 -0.503383 0
M  V30 6364 H 623.266 -4.08283 -2.93792 0
M  V30 6365 H 622.966 -5.54012 -1.95817 0
M  V30 6366 H 624.49 -5.38538 -2.87766 0
M  V30 6367 H 625.904 -5.69851 -0.627914 0
M  V30 6368 H 624.301 -6.00011 0.103534 0
M  V30 6369 H 625.371 -4.77971 0.816798 0
M  V30 6370 N 626.714 -0.118576 -1.57153 0
M  V30 6371 C 627.677 0.817464 -2.14127 0
M  V30 6372 C 628.677 1.1949 -1.07604 0
M  V30 6373 O 629.867 1.12048 -1.33382 0
M  V30 6374 C 626.999 2.10541 -2.68115 0
M  V30 6375 H 628.192 0.322339 -2.98163 0
M  V30 6376 H 625.745 0.130655 -1.55753 0
M  V30 6377 H 626.48 2.64485 -1.87665 0
M  V30 6378 H 626.265 1.84425 -3.4602 0
M  V30 6379 H 627.755 2.77453 -3.12105 0
M  V30 6380 N 628.193 1.56834 0.155195 0
M  V30 6381 C 629.439 1.83169 0.870467 0
M  V30 6382 C 629.772 0.698929 1.81187 0
M  V30 6383 O 629.047 -0.298035 1.92203 0
M  V30 6384 C 629.33 3.19965 1.65211 0
M  V30 6385 C 629.183 4.43792 0.732744 0
M  V30 6386 C 630.502 3.53885 2.61636 0
M  V30 6387 H 627.621 0.666288 0.315006 0
M  V30 6388 H 630.263 1.89513 0.135988 0
M  V30 6389 H 628.413 3.14687 2.27825 0
M  V30 6390 H 630.085 4.61148 0.118236 0
M  V30 6391 H 628.328 4.3378 0.0417906 0
M  V30 6392 H 628.999 5.36095 1.31552 0
M  V30 6393 H 631.475 3.5972 2.09143 0
M  V30 6394 H 630.351 4.50648 3.13381 0
M  V30 6395 H 630.612 2.79418 3.42605 0
M  V30 6396 N 629.671 -0.424282 1.51781 0
M  V30 6397 C 630.918 -1.1726 1.65095 0
M  V30 6398 C 631.246 -1.90881 0.373477 0
M  V30 6399 O 630.501 -1.84835 -0.642997 0
M  V30 6400 C 630.8 -2.20418 2.81337 0
M  V30 6401 C 630.466 -1.63715 4.20129 0
M  V30 6402 C 629.128 -1.47975 4.57883 0
M  V30 6403 C 631.48 -1.22157 5.06682 0
M  V30 6404 C 628.808 -0.891703 5.79884 0
M  V30 6405 C 631.16 -0.647767 6.29275 0
M  V30 6406 C 629.824 -0.477371 6.65791 0
M  V30 6407 H 629.094 -0.429085 0.604125 0
M  V30 6408 H 631.741 -0.461852 1.85847 0
M  V30 6409 H 630.046 -2.97581 2.54859 0
M  V30 6410 H 631.743 -2.78163 2.88836 0
M  V30 6411 H 628.333 -1.76946 3.90369 0
M  V30 6412 H 632.517 -1.33133 4.7811 0
M  V30 6413 H 627.773 -0.747563 6.06813 0
M  V30 6414 H 631.947 -0.317291 6.95677 0
M  V30 6415 H 629.574 -0.0195936 7.60197 0
M  V30 6416 N 631.149 -1.42148 -0.680565 0
M  V30 6417 C 632.112 -1.4488 -1.77602 0
M  V30 6418 C 633.112 -0.337209 -1.57224 0
M  V30 6419 O 634.302 -0.597778 -1.63622 0
M  V30 6420 C 631.434 -1.27483 -3.16166 0
M  V30 6421 H 632.627 -2.42412 -1.76568 0
M  V30 6422 H 630.18 -1.28511 -0.889645 0
M  V30 6423 H 630.915 -0.30851 -3.22829 0
M  V30 6424 H 630.7 -2.08037 -3.3236 0
M  V30 6425 H 632.19 -1.32265 -3.96101 0
M  V30 6426 N 632.627 0.916307 -1.28225 0
M  V30 6427 C 633.867 1.67964 -1.16479 0
M  V30 6428 C 634.231 1.8991 0.282494 0
M  V30 6429 O 635.432 2.63671 0.522607 0
M  V30 6430 C 633.703 3.00251 -1.93866 0
M  V30 6431 S 635.262 3.91353 -1.98465 0
M  V30 6432 H 632.08 0.576873 -0.415619 0
M  V30 6433 H 634.682 1.09006 -1.62289 0
M  V30 6434 H 633.386 2.81978 -2.98189 0
M  V30 6435 H 632.917 3.64257 -1.48595 0
M  V30 6436 H 634.932 4.84096 -1.0893 0
M  V30 6437 N 634.105 1.10431 1.1244 0
M  V30 6438 C 635.035 0.775143 2.20258 0
M  V30 6439 C 636.016 -0.25186 1.68225 0
M  V30 6440 O 637.201 -0.117637 1.93843 0
M  V30 6441 C 634.331 0.206133 3.46688 0
M  V30 6442 C 633.285 1.16382 4.11873 0
M  V30 6443 C 632.611 0.456014 5.32752 0
M  V30 6444 C 633.911 2.5104 4.58013 0
M  V30 6445 H 635.605 1.67665 2.4805 0
M  V30 6446 H 633.151 0.807595 1.19222 0
M  V30 6447 H 635.104 -0.036291 4.21384 0
M  V30 6448 H 633.828 -0.730614 3.18323 0
M  V30 6449 H 632.487 1.39169 3.39157 0
M  V30 6450 H 632.135 -0.485203 5.00654 0
M  V30 6451 H 631.835 1.09466 5.77314 0
M  V30 6452 H 633.359 0.222135 6.10196 0
M  V30 6453 H 634.773 2.32401 5.24083 0
M  V30 6454 H 633.17 3.10789 5.13352 0
M  V30 6455 H 634.24 3.11039 3.71998 0
M  V30 6456 N 635.583 -1.29855 0.893053 0
M  V30 6457 C 636.83 -1.95826 0.515585 0
M  V30 6458 C 637.158 -1.70451 -0.936842 0
M  V30 6459 O 636.413 -1.00657 -1.67829 0
M  V30 6460 C 636.712 -3.49515 0.746588 0
M  V30 6461 C 636.378 -3.94955 2.17535 0
M  V30 6462 C 635.04 -4.07073 2.56603 0
M  V30 6463 C 637.392 -4.18536 3.10607 0
M  V30 6464 C 634.72 -4.40138 3.87938 0
M  V30 6465 C 637.072 -4.53073 4.41484 0
M  V30 6466 C 635.736 -4.634 4.80434 0
M  V30 6467 H 635.006 -0.71658 0.188666 0
M  V30 6468 H 637.653 -1.54574 1.13045 0
M  V30 6469 H 635.958 -3.9177 0.0487551 0
M  V30 6470 H 637.655 -3.98644 0.434009 0
M  V30 6471 H 634.245 -3.86035 1.86212 0
M  V30 6472 H 638.429 -4.08646 2.81641 0
M  V30 6473 H 633.685 -4.46335 4.17846 0
M  V30 6474 H 637.859 -4.70269 5.13634 0
M  V30 6475 H 635.486 -4.88775 5.82239 0
M  V30 6476 N 637.061 -0.65484 -1.43351 0
M  V30 6477 C 637.991 0.0221809 -2.33489 0
M  V30 6478 C 638.972 0.810272 -1.49561 0
M  V30 6479 O 640.157 0.771426 -1.78221 0
M  V30 6480 C 637.287 0.988117 -3.32947 0
M  V30 6481 C 636.241 0.310026 -4.26876 0
M  V30 6482 C 635.567 1.38752 -5.16384 0
M  V30 6483 C 636.867 -0.798589 -5.16159 0
M  V30 6484 H 638.561 -0.730571 -2.9035 0
M  V30 6485 H 636.107 -0.352773 -1.39612 0
M  V30 6486 H 638.06 1.47067 -3.94904 0
M  V30 6487 H 636.784 1.77205 -2.74346 0
M  V30 6488 H 635.443 -0.152097 -3.66284 0
M  V30 6489 H 635.091 2.16293 -4.54121 0
M  V30 6490 H 634.791 0.939051 -5.80048 0
M  V30 6491 H 636.315 1.87141 -5.81215 0
M  V30 6492 H 637.729 -0.398126 -5.71916 0
M  V30 6493 H 636.126 -1.17163 -5.88552 0
M  V30 6494 H 637.196 -1.65588 -4.55751 0
M  V30 6495 N 638.539 1.52521 -0.396863 0
M  V30 6496 C 639.764 2.06571 0.185258 0
M  V30 6497 C 640.189 1.26605 1.39115 0
M  V30 6498 O 639.547 0.293055 1.78916 0
M  V30 6499 C 639.595 3.5674 0.526189 0
M  V30 6500 O 638.699 3.7929 1.61903 0
M  V30 6501 H 638.04 0.663712 0.0195474 0
M  V30 6502 H 640.57 1.966 -0.566519 0
M  V30 6503 H 640.58 4.00311 0.788338 0
M  V30 6504 H 639.255 4.14379 -0.355397 0
M  V30 6505 H 637.832 3.47605 1.35 0
M  V30 6506 N 640.017 0.126909 1.57088 0
M  V30 6507 C 641.245 -0.53667 1.99819 0
M  V30 6508 C 641.66 -1.5972 1.00673 0
M  V30 6509 O 641.017 -1.825 0.000747365 0
M  V30 6510 C 641.068 -1.15563 3.42531 0
M  V30 6511 O 640.789 -0.137483 4.37884 0
M  V30 6512 C 642.29 -1.90176 4.00435 0
M  V30 6513 H 639.51 -0.141443 0.655923 0
M  V30 6514 H 642.054 0.215578 2.03361 0
M  V30 6515 H 640.209 -1.85861 3.39904 0
M  V30 6516 H 640.623 -0.588229 5.21191 0
M  V30 6517 H 642.097 -2.28801 5.02349 0
M  V30 6518 H 642.574 -2.78002 3.40017 0
M  V30 6519 H 643.18 -1.24623 4.06632 0
M  V30 6520 N 641.495 -1.56914 -0.146875 0
M  V30 6521 C 642.425 -2.01308 -1.1831 0
M  V30 6522 C 643.406 -0.892664 -1.44795 0
M  V30 6523 O 644.591 -1.16048 -1.55713 0
M  V30 6524 C 641.721 -2.3938 -2.51624 0
M  V30 6525 C 640.675 -3.54608 -2.3966 0
M  V30 6526 C 640.001 -3.78493 -3.77686 0
M  V30 6527 C 641.301 -4.87269 -1.88058 0
M  V30 6528 H 642.995 -2.88123 -0.813964 0
M  V30 6529 H 640.541 -1.38615 -0.3901 0
M  V30 6530 H 642.494 -2.69037 -3.24341 0
M  V30 6531 H 641.218 -1.49502 -2.90373 0
M  V30 6532 H 639.877 -3.25116 -1.69396 0
M  V30 6533 H 639.525 -2.85866 -4.13871 0
M  V30 6534 H 639.225 -4.56039 -3.70543 0
M  V30 6535 H 640.749 -4.10576 -4.51951 0
M  V30 6536 H 642.163 -5.15644 -2.50568 0
M  V30 6537 H 640.56 -5.68622 -1.91805 0
M  V30 6538 H 641.63 -4.77634 -0.836277 0
M  V30 6539 N 642.974 0.416227 -1.52004 0
M  V30 6540 C 643.904 1.51365 -1.77795 0
M  V30 6541 C 644.885 1.58059 -0.628601 0
M  V30 6542 O 646.07 1.73447 -0.873478 0
M  V30 6543 C 643.2 2.89256 -1.92219 0
M  V30 6544 C 642.154 2.97415 -3.0778 0
M  V30 6545 C 641.48 4.37492 -3.07417 0
M  V30 6546 C 642.78 2.69551 -4.47369 0
M  V30 6547 H 644.474 1.30033 -2.69688 0
M  V30 6548 H 642.02 0.624112 -1.29772 0
M  V30 6549 H 643.973 3.66008 -2.08845 0
M  V30 6550 H 642.697 3.11866 -0.969917 0
M  V30 6551 H 641.356 2.23107 -2.90893 0
M  V30 6552 H 641.004 4.571 -2.09925 0
M  V30 6553 H 640.704 4.43877 -3.85029 0
M  V30 6554 H 642.228 5.16188 -3.26162 0
M  V30 6555 H 643.642 3.36028 -4.64497 0
M  V30 6556 H 642.039 2.87321 -5.26846 0
M  V30 6557 H 643.109 1.65029 -4.55953 0
M  V30 6558 N 644.452 1.42507 0.673017 0
M  V30 6559 C 645.382 1.48916 1.79851 0
M  V30 6560 C 646.363 0.345566 1.66553 0
M  V30 6561 O 647.548 0.560116 1.85947 0
M  V30 6562 C 644.678 1.39258 3.18158 0
M  V30 6563 C 643.632 2.51662 3.46194 0
M  V30 6564 C 642.958 2.27062 4.84094 0
M  V30 6565 C 644.258 3.93968 3.42909 0
M  V30 6566 H 645.952 2.43114 1.74745 0
M  V30 6567 H 643.498 1.17013 0.839288 0
M  V30 6568 H 645.451 1.42349 3.96629 0
M  V30 6569 H 644.175 0.415542 3.23946 0
M  V30 6570 H 642.834 2.47891 2.70084 0
M  V30 6571 H 642.482 1.27648 4.86534 0
M  V30 6572 H 642.182 3.02398 5.03815 0
M  V30 6573 H 643.706 2.31905 5.64847 0
M  V30 6574 H 645.12 3.99332 4.11347 0
M  V30 6575 H 643.517 4.6917 3.74165 0
M  V30 6576 H 644.587 4.20512 2.41449 0
M  V30 6577 N 645.93 -0.909495 1.28709 0
M  V30 6578 C 647.176 -1.66151 1.16283 0
M  V30 6579 C 647.509 -1.92067 -0.287069 0
M  V30 6580 O 646.784 -1.52409 -1.20837 0
M  V30 6581 C 647.067 -3.01676 1.9663 0
M  V30 6582 C 646.92 -2.82888 3.49707 0
M  V30 6583 C 648.239 -4.02274 1.78504 0
M  V30 6584 H 645.358 -0.602966 0.423793 0
M  V30 6585 H 648 -1.05418 1.58073 0
M  V30 6586 H 646.15 -3.53515 1.61119 0
M  V30 6587 H 647.822 -2.38026 3.95147 0
M  V30 6588 H 646.065 -2.17862 3.75125 0
M  V30 6589 H 646.736 -3.79147 4.01187 0
M  V30 6590 H 649.212 -3.59511 2.09503 0
M  V30 6591 H 648.088 -4.95056 2.37088 0
M  V30 6592 H 648.349 -4.35903 0.737647 0
M  V30 6593 N 647.408 -1.11026 -1.11852 0
M  V30 6594 C 648.338 -0.786812 -2.19844 0
M  V30 6595 C 649.319 0.242935 -1.68356 0
M  V30 6596 O 650.504 0.107355 -1.93903 0
M  V30 6597 C 647.634 -0.224516 -3.46574 0
M  V30 6598 C 646.588 -1.18564 -4.1125 0
M  V30 6599 C 645.914 -0.484261 -5.32503 0
M  V30 6600 C 647.214 -2.53465 -4.56676 0
M  V30 6601 H 648.908 -1.68978 -2.47158 0
M  V30 6602 H 646.454 -0.813906 -1.18792 0
M  V30 6603 H 648.407 0.0139435 -4.21398 0
M  V30 6604 H 647.131 0.713722 -3.18706 0
M  V30 6605 H 645.79 -1.40966 -3.38414 0
M  V30 6606 H 645.438 0.458646 -5.00905 0
M  V30 6607 H 645.138 -1.12526 -5.76725 0
M  V30 6608 H 646.662 -0.254492 -6.10069 0
M  V30 6609 H 648.076 -2.35177 -5.22843 0
M  V30 6610 H 646.473 -3.13507 -5.11697 0
M  V30 6611 H 647.543 -3.13008 -3.70343 0
M  V30 6612 N 648.886 1.2938 -0.899927 0
M  V30 6613 C 649.834 2.29675 -0.367698 0
M  V30 6614 C 650.828 1.60787 0.533282 0
M  V30 6615 O 652.034 1.75126 0.416058 0
M  V30 6616 H 648.409 0.745284 -0.100279 0
M  V30 6617 H 650.38 2.72008 -1.22696 0
M  V30 6618 C 649.129 3.45512 0.389483 0
M  V30 6619 H 648.452 3.98713 -0.294575 0
M  V30 6620 H 649.892 4.17725 0.726744 0
M  V30 6621 C 648.351 2.969 1.59223 0
M  V30 6622 O 648.881 2.98195 2.69152 0
M  V30 6623 N 647.087 2.52728 1.43447 0
M  V30 6624 H 646.634 2.51873 0.540148 0
M  V30 6625 H 646.592 2.20561 2.24054 0
M  V30 6626 N 650.364 0.662433 1.43002 0
M  V30 6627 C 651.311 -0.0235324 2.30788 0
M  V30 6628 C 652.281 -0.805342 1.4527 0
M  V30 6629 O 653.466 -0.78009 1.74124 0
M  V30 6630 C 650.606 -0.977545 3.30965 0
M  V30 6631 C 649.719 -0.190865 4.31578 0
M  V30 6632 C 648.854 -1.13951 5.18834 0
M  V30 6633 C 647.893 -0.343796 6.11134 0
M  V30 6634 N 647.03 -1.2445 6.90982 0
M  V30 6635 H 651.87 0.730921 2.88897 0
M  V30 6636 H 649.407 0.372197 1.42313 0
M  V30 6637 H 651.365 -1.54437 3.87563 0
M  V30 6638 H 649.995 -1.69877 2.74484 0
M  V30 6639 H 649.047 0.492388 3.772 0
M  V30 6640 H 650.359 0.427464 4.96965 0
M  V30 6641 H 649.513 -1.77666 5.80103 0
M  V30 6642 H 648.252 -1.79174 4.53595 0
M  V30 6643 H 647.257 0.30665 5.48944 0
M  V30 6644 H 648.482 0.304161 6.78419 0
M  V30 6645 H 646.428 -1.88336 6.28383 0
M  V30 6646 H 646.345 -0.680959 7.52927 0
M  V30 6647 H 647.613 -1.86952 7.56749 0
M  V30 6648 N 651.842 -1.52309 0.404946 0
M  V30 6649 C 653.082 -2.03677 -0.171779 0
M  V30 6650 C 653.446 -1.28419 -1.42733 0
M  V30 6651 O 654.647 -1.69991 -2.08222 0
M  V30 6652 C 652.918 -3.54951 -0.417701 0
M  V30 6653 S 654.477 -4.28114 -0.962472 0
M  V30 6654 H 651.295 -0.709445 -0.0469912 0
M  V30 6655 H 653.897 -1.874 0.556901 0
M  V30 6656 H 652.601 -4.07306 0.50295 0
M  V30 6657 H 652.132 -3.75462 -1.17437 0
M  V30 6658 H 654.147 -4.42589 -2.24342 0
M  V30 6659 N 653.32 -0.135238 -1.57019 0
M  V30 6660 C 654.568 0.51777 -1.95355 0
M  V30 6661 C 654.889 1.6617 -1.02042 0
M  V30 6662 O 654.159 1.95738 -0.0797343 0
M  V30 6663 H 652.739 0.194264 -0.721298 0
M  V30 6664 H 655.401 -0.207983 -1.93787 0
M  V30 6665 H 654.497 0.901675 -2.98791 0
M  V30 6666 N 654.798 1.5699 0.138552 0
M  V30 6667 C 656.214 1.51844 0.491472 0
M  V30 6668 C 656.414 0.845063 1.82923 0
M  V30 6669 O 655.47 0.419143 2.48997 0
M  V30 6670 C 656.783 2.96615 0.493987 0
M  V30 6671 C 658.331 3.076 0.578913 0
M  V30 6672 C 658.806 4.53893 0.612009 0
M  V30 6673 N 660.297 4.5827 0.673997 0
M  V30 6674 C 661.032 5.68852 0.720729 0
M  V30 6675 N 660.528 6.88982 0.726292 0
M  V30 6676 N 662.321 5.56908 0.762253 0
M  V30 6677 H 654.472 1.99158 -0.738228 0
M  V30 6678 H 656.735 0.908693 -0.270149 0
M  V30 6679 H 656.441 3.49172 -0.420933 0
M  V30 6680 H 656.315 3.53017 1.32887 0
M  V30 6681 H 658.702 2.55057 1.48425 0
M  V30 6682 H 658.783 2.54227 -0.283286 0
M  V30 6683 H 658.427 5.07076 -0.289208 0
M  V30 6684 H 658.357 5.05057 1.49082 0
M  V30 6685 H 660.848 3.71793 0.676654 0
M  V30 6686 H 661.161 7.69014 0.764032 0
M  V30 6687 H 659.506 6.91526 0.69403 0
M  V30 6688 H 662.697 4.61969 0.755135 0
M  V30 6689 H 662.87 6.43102 0.795207 0
M  V30 6690 N 656.276 -0.40816 1.52223 0
M  V30 6691 C 657.692 -0.74685 1.41047 0
M  V30 6692 C 657.892 -1.94788 0.51573 0
M  V30 6693 O 656.948 -2.52494 -0.0181156 0
M  V30 6694 C 658.261 -0.999878 2.83589 0
M  V30 6695 C 659.809 -1.10253 2.92939 0
M  V30 6696 C 660.284 -1.38832 4.36451 0
M  V30 6697 N 661.775 -1.45694 4.3969 0
M  V30 6698 C 662.51 -1.69435 5.47795 0
M  V30 6699 N 662.006 -1.90774 6.66016 0
M  V30 6700 N 663.799 -1.71458 5.35312 0
M  V30 6701 H 655.95 0.382409 2.08929 0
M  V30 6702 H 658.213 0.108807 0.941735 0
M  V30 6703 H 657.919 -0.189723 3.51188 0
M  V30 6704 H 657.793 -1.91978 3.24691 0
M  V30 6705 H 660.18 -1.90328 2.2552 0
M  V30 6706 H 660.261 -0.160973 2.55293 0
M  V30 6707 H 659.905 -0.592741 5.04429 0
M  V30 6708 H 659.835 -2.34241 4.71634 0
M  V30 6709 H 662.326 -1.3099 3.54472 0
M  V30 6710 H 662.639 -2.08342 7.44186 0
M  V30 6711 H 660.984 -1.88037 6.69079 0
M  V30 6712 H 664.175 -1.54326 4.41929 0
M  V30 6713 H 664.348 -1.89621 6.19635 0
M  V30 6714 N 657.755 -1.42862 -0.66545 0
M  V30 6715 C 658.703 -1.47319 -1.8 0
M  V30 6716 C 659.697 -0.347963 -1.65788 0
M  V30 6717 O 660.903 -0.521406 -1.72283 0
M  V30 6718 H 657.278 -0.461588 -0.593667 0
M  V30 6719 H 659.249 -2.42876 -1.7336 0
M  V30 6720 C 657.998 -1.40152 -3.18203 0
M  V30 6721 H 657.321 -2.26035 -3.2977 0
M  V30 6722 H 658.761 -1.47331 -3.9758 0
M  V30 6723 C 657.22 -0.117493 -3.36695 0
M  V30 6724 O 657.75 0.826058 -3.93115 0
M  V30 6725 N 655.956 -0.0316218 -2.90583 0
M  V30 6726 H 655.503 -0.800247 -2.44855 0
M  V30 6727 H 655.461 0.826835 -3.03333 0
M  V30 6728 N 659.233 0.902656 -1.29189 0
M  V30 6729 C 660.18 2.00643 -1.14066 0
M  V30 6730 C 661.15 1.66064 -0.0347756 0
M  V30 6731 O 662.335 1.8973 -0.201752 0
M  V30 6732 C 659.475 3.35214 -0.820104 0
M  V30 6733 C 658.588 3.82594 -2.00614 0
M  V30 6734 C 657.723 5.05727 -1.62522 0
M  V30 6735 C 656.762 5.45469 -2.77724 0
M  V30 6736 N 655.899 6.59789 -2.40048 0
M  V30 6737 H 660.739 2.1291 -2.08502 0
M  V30 6738 H 658.276 1.04271 -1.03759 0
M  V30 6739 H 660.234 4.12643 -0.614949 0
M  V30 6740 H 658.864 3.22682 0.0873452 0
M  V30 6741 H 657.916 3.01226 -2.32308 0
M  V30 6742 H 659.228 4.07999 -2.86946 0
M  V30 6743 H 658.382 5.90732 -1.38277 0
M  V30 6744 H 657.121 4.82155 -0.733333 0
M  V30 6745 H 656.126 4.59 -3.02653 0
M  V30 6746 H 657.351 5.71024 -3.67572 0
M  V30 6747 H 655.297 6.37826 -1.53343 0
M  V30 6748 H 655.214 6.84975 -3.19914 0
M  V30 6749 H 656.482 7.4807 -2.19116 0
M  V30 6750 N 660.711 1.11618 1.11262 0
M  V30 6751 C 661.958 0.86618 1.8304 0
M  V30 6752 C 662.286 -0.608149 1.84748 0
M  V30 6753 O 661.541 -1.46508 1.29745 0
M  V30 6754 C 661.84 1.37529 3.2988 0
M  V30 6755 C 661.506 2.86317 3.4833 0
M  V30 6756 C 660.168 3.26945 3.53073 0
M  V30 6757 C 662.52 3.82136 3.54431 0
M  V30 6758 C 659.848 4.62117 3.61475 0
M  V30 6759 C 662.2 5.17128 3.64365 0
M  V30 6760 C 660.864 5.57312 3.67369 0
M  V30 6761 H 660.134 0.316958 0.66979 0
M  V30 6762 H 662.781 1.3949 1.31205 0
M  V30 6763 H 661.086 0.766842 3.84222 0
M  V30 6764 H 662.783 1.15817 3.83911 0
M  V30 6765 H 659.373 2.53889 3.45309 0
M  V30 6766 H 663.557 3.51847 3.50025 0
M  V30 6767 H 658.813 4.92655 3.62079 0
M  V30 6768 H 662.987 5.91208 3.68029 0
M  V30 6769 H 660.614 6.62045 3.73632 0
M  V30 6770 N 662.189 -1.289 0.906776 0
M  V30 6771 C 663.437 -1.94883 0.535266 0
M  V30 6772 C 663.758 -1.71784 -0.922791 0
M  V30 6773 O 663.028 -1.05359 -1.65156 0
M  V30 6774 H 661.608 -0.721109 0.194962 0
M  V30 6775 H 664.27 -1.57018 1.15461 0
M  V30 6776 H 663.366 -3.03591 0.723821 0
M  V30 6777 N 663.667 -0.670007 -1.42649 0
M  V30 6778 C 664.916 -0.187526 -2.00826 0
M  V30 6779 C 665.229 1.21142 -1.53571 0
M  V30 6780 O 666.435 1.79001 -2.04134 0
M  V30 6781 C 664.891 -0.284409 -3.58774 0
M  V30 6782 C 664.499 -1.6871 -4.15019 0
M  V30 6783 C 666.243 0.139605 -4.2427 0
M  V30 6784 C 664.15 -1.73701 -5.65316 0
M  V30 6785 H 663.08 -0.0663468 -0.751075 0
M  V30 6786 H 665.731 -0.834492 -1.63427 0
M  V30 6787 H 664.113 0.430364 -3.93655 0
M  V30 6788 H 665.287 -2.42857 -3.91608 0
M  V30 6789 H 663.602 -2.05855 -3.61957 0
M  V30 6790 H 666.199 0.122398 -5.3456 0
M  V30 6791 H 666.542 1.17403 -3.99402 0
M  V30 6792 H 667.075 -0.523995 -3.94334 0
M  V30 6793 H 663.814 -2.75109 -5.94975 0
M  V30 6794 H 663.334 -1.03903 -5.90732 0
M  V30 6795 H 665.013 -1.48829 -6.2965 0
M  V30 6796 N 665.145 1.52092 -0.413018 0
M  V30 6797 C 666.093 2.28681 0.425199 0
M  V30 6798 C 667.087 1.3353 1.04241 0
M  V30 6799 O 668.293 1.50973 0.980166 0
M  V30 6800 H 664.668 0.735661 0.155906 0
M  V30 6801 H 666.639 2.97418 -0.241926 0
M  V30 6802 C 665.388 3.1235 1.5275 0
M  V30 6803 H 664.711 3.85439 1.06191 0
M  V30 6804 H 666.151 3.69038 2.08774 0
M  V30 6805 C 664.61 2.26161 2.49706 0
M  V30 6806 O 665.14 1.90452 3.53682 0
M  V30 6807 N 663.346 1.89854 2.20008 0
M  V30 6808 H 662.893 2.19092 1.35486 0
M  V30 6809 H 662.851 1.3248 2.85125 0
M  V30 6810 N 666.623 0.143563 1.56945 0
M  V30 6811 C 668.039 -0.212877 1.58174 0
M  V30 6812 C 668.239 -1.64926 1.15766 0
M  V30 6813 O 667.295 -2.37535 0.856361 0
M  V30 6814 C 668.608 0.0427573 3.0067 0
M  V30 6815 C 670.156 -0.0212221 3.12993 0
M  V30 6816 C 670.631 0.207036 4.57532 0
M  V30 6817 N 672.122 0.153845 4.62944 0
M  V30 6818 C 672.857 0.305018 5.72588 0
M  V30 6819 N 672.353 0.513722 6.90893 0
M  V30 6820 N 674.146 0.242862 5.61575 0
M  V30 6821 H 666.297 1.08148 1.82805 0
M  V30 6822 H 668.56 0.427831 0.84597 0
M  V30 6823 H 668.266 1.03672 3.36073 0
M  V30 6824 H 668.14 -0.678195 3.71053 0
M  V30 6825 H 670.527 -1.00574 2.77433 0
M  V30 6826 H 670.608 0.732004 2.45103 0
M  V30 6827 H 670.252 1.18863 4.93795 0
M  V30 6828 H 670.182 -0.566473 5.23544 0
M  V30 6829 H 672.673 -0.00294866 3.779 0
M  V30 6830 H 672.986 0.619273 7.70315 0
M  V30 6831 H 671.331 0.550001 6.9282 0
M  V30 6832 H 674.522 0.0806015 4.68031 0
M  V30 6833 H 674.695 0.364112 6.46976 0
M  V30 6834 N 668.101 -1.57061 -0.130224 0
M  V30 6835 C 669.512 -1.73539 -0.68856 0
M  V30 6836 C 669.863 -0.760554 -1.80859 0
M  V30 6837 O 668.988 0.0690796 -2.1629 0
M  V30 6838 C 669.583 -3.14666 -1.25581 0
M  V30 6839 C 668.142 -3.32689 -1.76055 0
M  V30 6840 C 667.289 -2.69436 -0.655712 0
M  V30 6841 H 670.24 -1.58412 0.0956002 0
M  V30 6842 H 670.261 -3.15595 -2.12556 0
M  V30 6843 H 669.773 -3.85593 -0.440412 0
M  V30 6844 H 667.874 -2.66786 -2.60108 0
M  V30 6845 H 667.987 -4.4077 -1.87772 0
M  V30 6846 H 666.351 -2.30362 -1.08654 0
M  V30 6847 H 667.134 -3.42979 0.14852 0
M  V30 6848 N 669.579 0.400081 -1.52437 0
M  V30 6849 C 670.542 1.4707 -1.75793 0
M  V30 6850 C 671.542 1.48036 -0.627856 0
M  V30 6851 O 672.732 1.49401 -0.895817 0
M  V30 6852 C 669.864 2.86427 -1.84858 0
M  V30 6853 H 671.057 1.27649 -2.71377 0
M  V30 6854 H 668.61 0.631141 -1.42991 0
M  V30 6855 H 669.345 3.11207 -0.912194 0
M  V30 6856 H 669.13 2.87128 -2.6702 0
M  V30 6857 H 670.62 3.64023 -2.04638 0
M  V30 6858 N 671.057 1.43213 0.657864 0
M  V30 6859 C 672.303 1.44798 1.41991 0
M  V30 6860 C 672.636 0.070256 1.94073 0
M  V30 6861 O 671.911 -0.908177 1.71995 0
M  V30 6862 C 672.194 2.4865 2.60471 0
M  V30 6863 C 672.047 3.95679 2.13911 0
M  V30 6864 C 673.366 2.49292 3.62686 0
M  V30 6865 H 670.485 0.527244 0.514959 0
M  V30 6866 H 673.127 1.74733 0.74621 0
M  V30 6867 H 671.277 2.23254 3.17946 0
M  V30 6868 H 672.949 4.32116 1.61472 0
M  V30 6869 H 671.192 4.08733 1.45325 0
M  V30 6870 H 671.863 4.6395 2.99089 0
M  V30 6871 H 674.339 2.71917 3.14961 0
M  V30 6872 H 673.215 3.23907 4.43143 0
M  V30 6873 H 673.476 1.52502 4.14964 0
M  V30 6874 N 672.536 -0.895792 1.29666 0
M  V30 6875 C 673.466 -2.01673 1.17688 0
M  V30 6876 C 674.447 -1.69955 0.0701317 0
M  V30 6877 O 675.632 -1.9258 0.250289 0
M  V30 6878 C 672.762 -3.36568 0.856681 0
M  V30 6879 C 671.716 -3.82509 1.92017 0
M  V30 6880 C 671.042 -5.14574 1.4532 0
M  V30 6881 C 672.342 -4.02409 3.32963 0
M  V30 6882 H 674.036 -2.11953 2.11463 0
M  V30 6883 H 671.582 -1.01839 1.01807 0
M  V30 6884 H 673.535 -4.14498 0.759577 0
M  V30 6885 H 672.259 -3.26391 -0.116763 0
M  V30 6886 H 670.918 -3.068 2.00673 0
M  V30 6887 H 670.566 -5.00815 0.468325 0
M  V30 6888 H 670.266 -5.46283 2.16447 0
M  V30 6889 H 671.79 -5.9504 1.36968 0
M  V30 6890 H 673.204 -4.70808 3.27127 0
M  V30 6891 H 671.601 -4.45478 4.02082 0
M  V30 6892 H 672.671 -3.06616 3.75652 0
M  V30 6893 N 674.014 -1.12206 -1.10668 0
M  V30 6894 C 674.977 -0.790867 -2.15123 0
M  V30 6895 C 675.977 0.193618 -1.5963 0
M  V30 6896 O 677.167 -0.0318728 -1.74171 0
M  V30 6897 C 674.299 -0.174797 -3.40452 0
M  V30 6898 H 675.492 -1.7163 -2.45933 0
M  V30 6899 H 673.045 -0.924993 -1.2599 0
M  V30 6900 H 673.78 0.760478 -3.15257 0
M  V30 6901 H 673.565 -0.88358 -3.82015 0
M  V30 6902 H 675.055 0.0405162 -4.1758 0
M  V30 6903 N 675.492 1.28418 -0.913599 0
M  V30 6904 C 676.903 1.77024 -0.593237 0
M  V30 6905 C 677.254 1.74779 0.891441 0
M  V30 6906 O 676.379 1.34237 1.69733 0
M  V30 6907 C 676.974 3.21456 -1.07011 0
M  V30 6908 C 675.533 3.67786 -0.800664 0
M  V30 6909 C 674.68 2.48185 -1.23691 0
M  V30 6910 H 677.631 1.14883 -1.09487 0
M  V30 6911 H 677.652 3.78269 -0.411481 0
M  V30 6912 H 677.164 3.23058 -2.1507 0
M  V30 6913 H 675.265 3.71644 0.266725 0
M  V30 6914 H 675.378 4.57934 -1.4083 0
M  V30 6915 H 673.742 2.46116 -0.655655 0
M  V30 6916 H 674.525 2.52506 -2.32585 0
M  V30 6917 N 676.97 0.677563 1.42291 0
M  V30 6918 C 677.88 0.000962654 2.346 0
M  V30 6919 C 678.896 -0.785833 1.55244 0
M  V30 6920 O 680.072 -0.727523 1.87801 0
M  V30 6921 C 677.137 -0.936746 3.33805 0
M  V30 6922 C 676.198 -0.144173 4.29058 0
M  V30 6923 C 675.431 -1.03722 5.23524 0
M  V30 6924 O 675.654 -2.27675 5.22992 0
M  V30 6925 O 674.588 -0.496542 5.99848 0
M  V30 6926 H 678.414 0.761397 2.94001 0
M  V30 6927 H 675.999 0.43781 1.42841 0
M  V30 6928 H 677.881 -1.47497 3.94744 0
M  V30 6929 H 676.556 -1.67698 2.76874 0
M  V30 6930 H 675.463 0.438224 3.71524 0
M  V30 6931 H 676.796 0.55701 4.89038 0
M  V30 6932 N 678.448 -1.51871 0.421078 0
M  V30 6933 C 679.725 -1.9447 -0.20993 0
M  V30 6934 C 680.105 -1.35875 -1.61558 0
M  V30 6935 O 679.453 -0.539294 -2.22045 0
M  V30 6936 C 679.663 -3.48402 -0.204165 0
M  V30 6937 C 681.011 -4.2254 -0.417696 0
M  V30 6938 O 682.035 -3.55074 -0.282999 0
M  V30 6939 O 680.894 -5.422 -0.684239 0
M  V30 6940 H 677.988 -0.815283 -0.138718 0
M  V30 6941 H 680.534 -1.62832 0.477884 0
M  V30 6942 H 679.306 -3.83464 0.779183 0
M  V30 6943 H 678.929 -3.86436 -0.935576 0
M  V30 6944 N 679.926 -0.151884 -1.56866 0
M  V30 6945 C 681.174 0.497021 -1.95893 0
M  V30 6946 C 681.495 1.65078 -1.03799 0
M  V30 6947 O 680.765 1.95642 -0.10049 0
M  V30 6948 H 679.345 0.186603 -0.723318 0
M  V30 6949 H 682.007 -0.228525 -1.93556 0
M  V30 6950 H 681.103 0.869933 -2.99731 0
M  V30 6951 N 681.404 1.57128 0.121893 0
M  V30 6952 C 682.334 2.03165 1.15092 0
M  V30 6953 C 683.315 0.915587 1.43356 0
M  V30 6954 O 684.5 1.1851 1.53847 0
M  V30 6955 C 681.63 2.43352 2.47784 0
M  V30 6956 C 680.584 3.58376 2.33989 0
M  V30 6957 C 679.91 3.84454 3.71617 0
M  V30 6958 C 681.21 4.90199 1.80283 0
M  V30 6959 H 682.904 2.89382 0.768023 0
M  V30 6960 H 680.45 1.39218 0.367998 0
M  V30 6961 H 682.403 2.74163 3.20019 0
M  V30 6962 H 681.127 1.54103 2.87958 0
M  V30 6963 H 679.786 3.2777 1.64202 0
M  V30 6964 H 679.434 2.92414 4.09271 0
M  V30 6965 H 679.134 4.61877 3.6324 0
M  V30 6966 H 680.658 4.17714 4.45362 0
M  V30 6967 H 682.072 5.19565 2.42333 0
M  V30 6968 H 680.469 5.71601 1.82735 0
M  V30 6969 H 681.539 4.78904 0.760184 0
M  V30 6970 N 682.882 -0.391992 1.52647 0
M  V30 6971 C 683.845 -1.46135 1.7657 0
M  V30 6972 C 684.845 -1.47701 0.635698 0
M  V30 6973 O 686.035 -1.48924 0.903728 0
M  V30 6974 C 683.167 -2.85443 1.86374 0
M  V30 6975 H 684.36 -1.26208 2.72051 0
M  V30 6976 H 681.913 -0.623549 1.43323 0
M  V30 6977 H 682.648 -3.10718 0.928685 0
M  V30 6978 H 682.433 -2.85708 2.68539 0
M  V30 6979 H 683.923 -3.62933 2.06566 0
M  V30 6980 N 684.36 -1.4356 -0.65026 0
M  V30 6981 C 685.293 -1.434 -1.77515 0
M  V30 6982 C 686.271 -0.295082 -1.599 0
M  V30 6983 O 687.455 -0.489128 -1.82043 0
M  V30 6984 C 684.582 -1.2484 -3.14853 0
M  V30 6985 C 683.628 -2.42046 -3.51163 0
M  V30 6986 S 684.461 -4.04595 -3.50803 0
M  V30 6987 C 685.617 -3.88424 -4.90793 0
M  V30 6988 H 685.85 -2.38586 -1.77381 0
M  V30 6989 H 683.383 -1.30627 -0.823169 0
M  V30 6990 H 685.341 -1.14819 -3.94115 0
M  V30 6991 H 684.002 -0.311977 -3.12547 0
M  V30 6992 H 683.195 -2.24873 -4.51052 0
M  V30 6993 H 682.797 -2.48708 -2.79321 0
M  V30 6994 H 685.089 -3.50932 -5.79528 0
M  V30 6995 H 686.032 -4.88076 -5.13018 0
M  V30 6996 H 686.44 -3.20829 -4.64467 0
M  V30 6997 N 685.838 0.888903 -1.30139 0
M  V30 6998 C 687.063 1.67884 -1.21777 0
M  V30 6999 C 687.488 1.86848 0.216689 0
M  V30 7000 O 686.846 1.39659 1.15608 0
M  V30 7001 C 686.894 3.03483 -1.94757 0
M  V30 7002 O 685.998 3.92294 -1.27198 0
M  V30 7003 H 685.339 0.513144 -0.421402 0
M  V30 7004 H 687.869 1.10968 -1.71893 0
M  V30 7005 H 687.879 3.53553 -2.03627 0
M  V30 7006 H 686.554 2.89 -2.99085 0
M  V30 7007 H 685.131 3.50732 -1.26655 0
M  V30 7008 N 687.317 1.12792 1.10072 0
M  V30 7009 C 688.247 0.821688 2.18565 0
M  V30 7010 C 689.228 -0.21612 1.68721 0
M  V30 7011 O 690.413 -0.0764932 1.94049 0
M  V30 7012 C 687.543 0.279624 3.46172 0
M  V30 7013 C 686.497 1.25092 4.09312 0
M  V30 7014 C 685.823 0.568916 5.31665 0
M  V30 7015 C 687.123 2.60699 4.52585 0
M  V30 7016 H 688.817 1.72888 2.44438 0
M  V30 7017 H 686.363 0.832702 1.17482 0
M  V30 7018 H 688.316 0.053099 4.21367 0
M  V30 7019 H 687.04 -0.662929 3.19801 0
M  V30 7020 H 685.699 1.46332 3.36129 0
M  V30 7021 H 685.347 -0.378898 5.01571 0
M  V30 7022 H 685.047 1.21687 5.74862 0
M  V30 7023 H 686.571 0.351517 6.09587 0
M  V30 7024 H 687.985 2.43465 5.19035 0
M  V30 7025 H 686.382 3.21608 5.06644 0
M  V30 7026 H 687.452 3.1886 3.65317 0
M  V30 7027 N 688.795 -1.27931 0.920396 0
M  V30 7028 C 689.745 -2.24727 0.384966 0
M  V30 7029 C 690.729 -1.52715 -0.506661 0
M  V30 7030 O 691.921 -1.73599 -0.345298 0
M  V30 7031 C 689.05 -3.41324 -0.3678 0
M  V30 7032 C 688.136 -4.20649 0.539925 0
M  V30 7033 N 688.527 -4.77906 1.6565 0
M  V30 7034 C 686.825 -4.4469 0.341557 0
M  V30 7035 C 687.526 -5.37652 2.22047 0
M  V30 7036 N 686.502 -5.2218 1.51093 0
M  V30 7037 H 690.304 -2.66572 1.23761 0
M  V30 7038 H 687.818 -1.42779 0.773819 0
M  V30 7039 H 689.815 -4.0976 -0.768277 0
M  V30 7040 H 688.475 -3.01012 -1.21746 0
M  V30 7041 H 689.486 -4.76073 2.03899 0
M  V30 7042 H 686.163 -4.14868 -0.468045 0
M  V30 7043 H 687.553 -5.92948 3.1601 0
M  V30 7044 N 690.273 -0.685099 -1.4193 0
M  V30 7045 C 691.52 -0.211658 -2.01391 0
M  V30 7046 C 691.848 1.18526 -1.54214 0
M  V30 7047 O 691.103 1.81189 -0.739519 0
M  V30 7048 C 691.402 -0.206154 -3.56805 0
M  V30 7049 C 691.068 -1.54915 -4.23453 0
M  V30 7050 C 689.73 -1.91684 -4.41373 0
M  V30 7051 C 692.082 -2.43317 -4.60919 0
M  V30 7052 C 689.41 -3.16461 -4.94034 0
M  V30 7053 C 691.762 -3.67415 -5.14965 0
M  V30 7054 C 690.426 -4.04341 -5.31098 0
M  V30 7055 H 689.696 -0.0774511 -0.736941 0
M  V30 7056 H 692.343 -0.882121 -1.69973 0
M  V30 7057 H 690.648 0.547841 -3.87951 0
M  V30 7058 H 692.345 0.17753 -4.00607 0
M  V30 7059 H 688.935 -1.25314 -4.09871 0
M  V30 7060 H 693.119 -2.16192 -4.46738 0
M  V30 7061 H 688.375 -3.45078 -5.04709 0
M  V30 7062 H 692.549 -4.3611 -5.42938 0
M  V30 7063 H 690.176 -5.01101 -5.71666 0
M  V30 7064 N 691.751 1.51645 -0.429126 0
M  V30 7065 C 692.684 2.24083 0.431492 0
M  V30 7066 C 693.662 1.25691 1.03153 0
M  V30 7067 O 694.846 1.54802 1.07557 0
M  V30 7068 C 691.973 2.9849 1.60067 0
M  V30 7069 C 691.019 4.11474 1.12211 0
M  V30 7070 S 691.852 5.35453 0.0708449 0
M  V30 7071 C 693.008 6.13395 1.24488 0
M  V30 7072 H 693.241 2.96733 -0.183525 0
M  V30 7073 H 690.774 1.52916 -0.213574 0
M  V30 7074 H 692.732 3.4196 2.27099 0
M  V30 7075 H 691.393 2.25445 2.18708 0
M  V30 7076 H 690.586 4.62784 1.99618 0
M  V30 7077 H 690.188 3.70223 0.530149 0
M  V30 7078 H 692.48 6.41984 2.16479 0
M  V30 7079 H 693.423 7.0388 0.771921 0
M  V30 7080 H 693.831 5.44761 1.47973 0
M  V30 7081 N 693.229 0.160201 1.56784 0
M  V30 7082 C 694.457 -0.494165 2.00912 0
M  V30 7083 C 694.872 -1.57548 1.04038 0
M  V30 7084 O 694.229 -1.82457 0.0394581 0
M  V30 7085 C 694.28 -1.08271 3.44905 0
M  V30 7086 O 694.001 -0.0445704 4.38077 0
M  V30 7087 C 695.502 -1.8164 4.04378 0
M  V30 7088 H 692.722 -0.127498 0.658776 0
M  V30 7089 H 695.266 0.258665 2.02858 0
M  V30 7090 H 693.421 -1.78609 3.4377 0
M  V30 7091 H 693.835 -0.477544 5.22322 0
M  V30 7092 H 695.309 -2.18094 5.07089 0
M  V30 7093 H 695.786 -2.70727 3.45838 0
M  V30 7094 H 696.392 -1.15969 4.09184 0
M  V30 7095 N 694.707 -1.5719 -0.113559 0
M  V30 7096 C 695.637 -2.03772 -1.14013 0
M  V30 7097 C 696.618 -0.923176 -1.42869 0
M  V30 7098 O 697.803 -1.19325 -1.53216 0
M  V30 7099 C 694.933 -2.44663 -2.4649 0
M  V30 7100 C 693.887 -3.59612 -2.32085 0
M  V30 7101 C 693.213 -3.8642 -3.69573 0
M  V30 7102 C 694.513 -4.91149 -1.7768 0
M  V30 7103 H 696.207 -2.89785 -0.752665 0
M  V30 7104 H 693.753 -1.39412 -0.360609 0
M  V30 7105 H 695.706 -2.75857 -3.18561 0
M  V30 7106 H 694.43 -1.55628 -2.87137 0
M  V30 7107 H 693.089 -3.28636 -1.62461 0
M  V30 7108 H 692.737 -2.94581 -4.07715 0
M  V30 7109 H 692.437 -4.63797 -3.60786 0
M  V30 7110 H 693.961 -4.2007 -4.4314 0
M  V30 7111 H 695.375 -5.20843 -2.39574 0
M  V30 7112 H 693.772 -5.72562 -1.79701 0
M  V30 7113 H 694.842 -4.79301 -0.734776 0
M  V30 7114 N 696.185 0.383891 -1.52853 0
M  V30 7115 C 697.433 1.12619 -1.67814 0
M  V30 7116 C 697.754 1.90354 -0.423141 0
M  V30 7117 O 697.024 1.87649 0.562554 0
M  V30 7118 H 695.604 0.418738 -0.618601 0
M  V30 7119 H 698.266 0.43495 -1.89985 0
M  V30 7120 H 697.362 1.82624 -2.5309 0
M  V30 7121 N 697.663 1.43903 0.642637 0
M  V30 7122 C 698.911 1.45791 1.39962 0
M  V30 7123 C 699.232 0.0873144 1.94804 0
M  V30 7124 O 698.502 -0.878825 1.75081 0
M  V30 7125 H 697.082 0.536797 0.519479 0
M  V30 7126 H 699.744 1.7959 0.757189 0
M  V30 7127 H 698.84 2.17665 2.2367 0
M  V30 7128 N 699.141 -0.881989 1.30609 0
M  V30 7129 C 700.366 -1.67236 1.22665 0
M  V30 7130 C 700.791 -1.8696 -0.206777 0
M  V30 7131 O 700.149 -1.4027 -1.14865 0
M  V30 7132 C 700.197 -3.02446 1.96363 0
M  V30 7133 O 699.301 -3.91614 1.29276 0
M  V30 7134 H 698.642 -0.510902 0.424117 0
M  V30 7135 H 701.172 -1.10055 1.72479 0
M  V30 7136 H 701.182 -3.52468 2.055 0
M  V30 7137 H 699.857 -2.8741 3.00613 0
M  V30 7138 H 698.434 -3.50055 1.28514 0
M  V30 7139 N 700.619 -1.13374 -1.09472 0
M  V30 7140 C 701.844 -0.918711 -1.85942 0
M  V30 7141 C 702.269 0.527225 -1.8056 0
M  V30 7142 O 701.627 1.37408 -1.18274 0
M  V30 7143 C 701.675 -1.41056 -3.31867 0
M  V30 7144 O 700.779 -0.595496 -4.08078 0
M  V30 7145 H 700.12 -0.329297 -0.576593 0
M  V30 7146 H 702.65 -1.50829 -1.38245 0
M  V30 7147 H 702.66 -1.41398 -3.82715 0
M  V30 7148 H 701.335 -2.46335 -3.35099 0
M  V30 7149 H 699.912 -0.659911 -3.67014 0
M  V30 7150 N 702.098 1.27442 -0.927168 0
M  V30 7151 C 703.028 2.29256 -0.443188 0
M  V30 7152 C 704.009 1.62701 0.49624 0
M  V30 7153 O 705.194 1.90013 0.401105 0
M  V30 7154 C 702.324 3.45955 0.305366 0
M  V30 7155 C 701.278 4.24501 -0.546178 0
M  V30 7156 C 700.604 5.33671 0.331512 0
M  V30 7157 C 701.904 4.89921 -1.81037 0
M  V30 7158 H 703.598 2.69988 -1.29409 0
M  V30 7159 H 701.144 1.29792 -0.623705 0
M  V30 7160 H 703.097 4.1628 0.654885 0
M  V30 7161 H 701.821 3.04138 1.19029 0
M  V30 7162 H 700.48 3.55921 -0.878398 0
M  V30 7163 H 700.128 4.88096 1.21537 0
M  V30 7164 H 699.828 5.87131 -0.234746 0
M  V30 7165 H 701.352 6.0684 0.676614 0
M  V30 7166 H 702.766 5.52536 -1.52895 0
M  V30 7167 H 701.163 5.53436 -2.32009 0
M  V30 7168 H 702.233 4.13652 -2.53021 0
M  V30 7169 N 703.576 0.692616 1.41565 0
M  V30 7170 C 704.801 0.229776 2.06123 0
M  V30 7171 C 705.226 -1.11119 1.5177 0
M  V30 7172 O 704.584 -1.69498 0.643444 0
M  V30 7173 C 704.632 0.19469 3.60074 0
M  V30 7174 O 703.736 -0.831366 4.03933 0
M  V30 7175 H 703.077 0.113002 0.654314 0
M  V30 7176 H 705.607 0.946645 1.81383 0
M  V30 7177 H 705.617 0.0245487 4.07993 0
M  V30 7178 H 704.292 1.17339 3.99004 0
M  V30 7179 H 702.869 -0.630819 3.67526 0
M  V30 7180 N 705.054 -1.51416 0.437162 0
M  V30 7181 C 706.465 -1.86682 -0.0260005 0
M  V30 7182 C 706.816 -1.35432 -1.4196 0
M  V30 7183 O 705.941 -0.705055 -2.04592 0
M  V30 7184 C 706.536 -3.38757 -0.0539577 0
M  V30 7185 C 705.095 -3.7356 -0.461532 0
M  V30 7186 C 704.242 -2.75134 0.345924 0
M  V30 7187 H 707.193 -1.44642 0.653013 0
M  V30 7188 H 707.214 -3.70573 -0.863478 0
M  V30 7189 H 706.726 -3.76028 0.96045 0
M  V30 7190 H 704.827 -3.41878 -1.48155 0
M  V30 7191 H 704.94 -4.78737 -0.186451 0
M  V30 7192 H 703.304 -2.53947 -0.195739 0
M  V30 7193 H 704.087 -3.15247 1.35921 0
M  V30 7194 N 706.532 -0.168513 -1.56696 0
M  V30 7195 C 707.76 0.483503 -2.01171 0
M  V30 7196 C 708.175 1.56994 -1.04872 0
M  V30 7197 O 707.532 1.82434 -0.0491337 0
M  V30 7198 C 707.583 1.0644 -3.45475 0
M  V30 7199 O 707.304 0.0213375 -4.38095 0
M  V30 7200 C 708.805 1.79493 -4.05336 0
M  V30 7201 H 706.025 0.124002 -0.659443 0
M  V30 7202 H 708.569 -0.269419 -2.02717 0
M  V30 7203 H 706.724 1.76784 -3.44712 0
M  V30 7204 H 707.138 0.449837 -5.22567 0
M  V30 7205 H 708.612 2.15401 -5.08238 0
M  V30 7206 H 709.089 2.68889 -3.47269 0
M  V30 7207 H 709.695 1.13798 -4.09793 0
M  V30 7208 N 708.01 1.57248 0.105221 0
M  V30 7209 C 708.92 2.04653 1.14693 0
M  V30 7210 C 709.936 0.969488 1.44489 0
M  V30 7211 O 711.112 1.28196 1.55331 0
M  V30 7212 C 708.177 2.45297 2.45011 0
M  V30 7213 C 707.238 3.67148 2.22489 0
M  V30 7214 C 706.471 4.05844 3.46592 0
M  V30 7215 O 706.694 3.44736 4.54437 0
M  V30 7216 O 705.628 4.98862 3.36779 0
M  V30 7217 H 709.454 2.93663 0.774336 0
M  V30 7218 H 707.039 1.45998 0.31701 0
M  V30 7219 H 708.921 2.72112 3.21766 0
M  V30 7220 H 707.596 1.59429 2.81717 0
M  V30 7221 H 706.503 3.45463 1.43547 0
M  V30 7222 H 707.836 4.53764 1.9068 0
M  V30 7223 N 709.488 -0.375779 1.53054 0
M  V30 7224 C 710.736 -1.11727 1.68409 0
M  V30 7225 C 711.057 -1.90127 0.43323 0
M  V30 7226 O 710.327 -1.87945 -0.552595 0
M  V30 7227 H 708.907 -0.415451 0.620813 0
M  V30 7228 H 711.569 -0.424869 1.90213 0
M  V30 7229 H 710.665 -1.8128 2.54055 0
M  V30 7230 N 710.966 -1.44241 -0.634997 0
M  V30 7231 C 711.913 -1.5081 -1.74714 0
M  V30 7232 C 712.883 -0.356147 -1.62237 0
M  V30 7233 O 714.068 -0.565848 -1.82216 0
M  V30 7234 C 711.208 -1.45458 -3.12947 0
M  V30 7235 C 710.321 -2.70998 -3.36428 0
M  V30 7236 C 709.456 -2.57507 -4.64611 0
M  V30 7237 C 708.495 -3.78229 -4.81258 0
M  V30 7238 N 707.632 -3.63438 -6.00714 0
M  V30 7239 H 712.472 -2.45832 -1.68436 0
M  V30 7240 H 710.009 -1.2201 -0.821706 0
M  V30 7241 H 711.967 -1.40347 -3.92885 0
M  V30 7242 H 710.597 -0.540058 -3.1825 0
M  V30 7243 H 709.649 -2.86312 -2.50458 0
M  V30 7244 H 710.961 -3.60619 -3.44609 0
M  V30 7245 H 710.115 -2.50207 -5.52703 0
M  V30 7246 H 708.854 -1.65441 -4.58782 0
M  V30 7247 H 707.859 -3.85918 -3.91596 0
M  V30 7248 H 709.084 -4.71327 -4.88904 0
M  V30 7249 H 707.03 -2.7412 -5.95982 0
M  V30 7250 H 706.947 -4.46672 -6.09934 0
M  V30 7251 H 708.215 -3.60022 -6.91378 0
M  V30 7252 N 712.444 0.87505 -1.31075 0
M  V30 7253 C 713.692 1.62447 -1.20231 0
M  V30 7254 C 714.013 1.93506 0.240888 0
M  V30 7255 O 713.283 1.57847 1.16022 0
M  V30 7256 H 711.863 0.602207 -0.441991 0
M  V30 7257 H 714.525 1.04788 -1.64334 0
M  V30 7258 H 713.621 2.57031 -1.77036 0
M  V30 7259 N 713.922 1.13953 1.08869 0
M  V30 7260 C 715.147 0.928559 1.85452 0
M  V30 7261 C 715.572 -0.517642 1.80837 0
M  V30 7262 O 714.93 -1.36779 1.19001 0
M  V30 7263 C 714.978 1.42814 3.31114 0
M  V30 7264 O 714.082 0.617129 4.07756 0
M  V30 7265 H 713.423 0.33235 0.574839 0
M  V30 7266 H 715.953 1.5156 1.37443 0
M  V30 7267 H 715.963 1.43425 3.8196 0
M  V30 7268 H 714.638 2.48109 3.33788 0
M  V30 7269 H 713.215 0.679365 3.66659 0
M  V30 7270 N 715.4 -1.26948 0.933913 0
M  V30 7271 C 716.648 -1.93704 0.576484 0
M  V30 7272 C 716.969 -1.73702 -0.886145 0
M  V30 7273 O 716.239 -1.08838 -1.62884 0
M  V30 7274 H 714.819 -0.716812 0.210214 0
M  V30 7275 H 717.481 -1.54534 1.18766 0
M  V30 7276 H 716.577 -3.01987 0.788055 0
M  V30 7277 N 716.879 -0.700114 -1.41195 0
M  V30 7278 C 717.809 -0.0521132 -2.33442 0
M  V30 7279 C 718.79 0.76228 -1.52063 0
M  V30 7280 O 719.975 0.714336 -1.80585 0
M  V30 7281 C 717.105 0.881693 -3.35922 0
M  V30 7282 C 716.059 0.174062 -4.27646 0
M  V30 7283 C 715.385 1.22254 -5.20536 0
M  V30 7284 C 716.685 -0.962396 -5.13357 0
M  V30 7285 H 718.379 -0.822574 -2.87879 0
M  V30 7286 H 715.925 -0.397011 -1.38419 0
M  V30 7287 H 717.878 1.34429 -3.99383 0
M  V30 7288 H 716.602 1.68387 -2.79845 0
M  V30 7289 H 715.261 -0.268551 -3.65615 0
M  V30 7290 H 714.909 2.01736 -4.60773 0
M  V30 7291 H 714.609 0.754038 -5.82742 0
M  V30 7292 H 716.133 1.68555 -5.86874 0
M  V30 7293 H 717.547 -0.579875 -5.7036 0
M  V30 7294 H 715.944 -1.35828 -5.84526 0
M  V30 7295 H 717.014 -1.80003 -4.50252 0
M  V30 7296 N 718.357 1.51182 -0.445186 0
M  V30 7297 C 719.289 2.25714 0.398206 0
M  V30 7298 C 720.302 1.30032 0.979562 0
M  V30 7299 O 721.491 1.55731 0.872368 0
M  V30 7300 C 718.591 3.00348 1.56985 0
M  V30 7301 C 717.764 4.23187 1.10596 0
M  V30 7302 C 716.823 4.80334 2.14863 0
M  V30 7303 O 715.849 5.4196 1.73977 0
M  V30 7304 N 717.051 4.65053 3.47427 0
M  V30 7305 H 719.816 2.98732 -0.240629 0
M  V30 7306 H 717.377 1.59556 -0.274507 0
M  V30 7307 H 719.369 3.35464 2.26376 0
M  V30 7308 H 717.939 2.30291 2.11387 0
M  V30 7309 H 717.159 3.93476 0.238832 0
M  V30 7310 H 718.447 5.02886 0.773537 0
M  V30 7311 H 717.845 4.15984 3.83372 0
M  V30 7312 H 716.402 5.04509 4.12691 0
M  V30 7313 N 719.835 0.176821 1.56605 0
M  V30 7314 C 721.083 -0.465793 1.96659 0
M  V30 7315 C 721.404 -1.63406 1.06412 0
M  V30 7316 O 720.674 -1.95457 0.131603 0
M  V30 7317 H 719.254 -0.175072 0.726195 0
M  V30 7318 H 721.916 0.25929 1.93168 0
M  V30 7319 H 721.012 -0.822138 3.01077 0
M  V30 7320 N 721.313 -1.57302 -0.09688 0
M  V30 7321 C 722.263 -1.98369 -1.12399 0
M  V30 7322 C 723.247 -0.861872 -1.3587 0
M  V30 7323 O 724.439 -1.1257 -1.36591 0
M  V30 7324 C 721.568 -2.41017 -2.4447 0
M  V30 7325 C 720.654 -3.59881 -2.24381 0
M  V30 7326 N 721.045 -4.74872 -1.74155 0
M  V30 7327 C 719.343 -3.65943 -2.54954 0
M  V30 7328 C 720.044 -5.56823 -1.68294 0
M  V30 7329 N 719.02 -4.99942 -2.13444 0
M  V30 7330 H 722.822 -2.84726 -0.728575 0
M  V30 7331 H 720.336 -1.59523 -0.304332 0
M  V30 7332 H 722.333 -2.68665 -3.18786 0
M  V30 7333 H 720.993 -1.56036 -2.84751 0
M  V30 7334 H 722.004 -4.97657 -1.43379 0
M  V30 7335 H 718.681 -2.9162 -2.98771 0
M  V30 7336 H 720.071 -6.59099 -1.30528 0
M  V30 7337 N 722.791 0.367657 -1.53252 0
M  V30 7338 C 724.04 1.10782 -1.68554 0
M  V30 7339 C 724.353 1.90523 -0.442765 0
M  V30 7340 O 725.559 2.6729 -0.47629 0
M  V30 7341 C 724.015 2.01863 -2.97959 0
M  V30 7342 C 723.623 1.27443 -4.29491 0
M  V30 7343 C 725.367 2.75883 -3.22628 0
M  V30 7344 C 723.274 2.17414 -5.49987 0
M  V30 7345 H 722.204 0.417272 -0.628013 0
M  V30 7346 H 724.855 0.368971 -1.79752 0
M  V30 7347 H 723.237 2.7947 -2.80558 0
M  V30 7348 H 724.411 0.549138 -4.57516 0
M  V30 7349 H 722.726 0.652935 -4.11249 0
M  V30 7350 H 725.323 3.43421 -4.09837 0
M  V30 7351 H 725.666 3.41138 -2.38601 0
M  V30 7352 H 726.199 2.0536 -3.40693 0
M  V30 7353 H 722.938 1.5674 -6.36485 0
M  V30 7354 H 722.458 2.87799 -5.26243 0
M  V30 7355 H 724.137 2.77019 -5.84696 0
M  V30 7356 N 724.269 1.44576 0.627338 0
M  V30 7357 C 725.518 1.46837 1.38281 0
M  V30 7358 C 725.831 0.10635 1.95311 0
M  V30 7359 O 727.037 0.00651084 2.71499 0
M  V30 7360 C 725.493 2.58527 2.50384 0
M  V30 7361 C 725.101 4.00953 1.99851 0
M  V30 7362 C 726.845 2.70013 3.27557 0
M  V30 7363 C 724.752 5.0406 3.09318 0
M  V30 7364 H 723.682 0.546319 0.519664 0
M  V30 7365 H 726.333 1.70654 0.674497 0
M  V30 7366 H 724.715 2.27957 3.23808 0
M  V30 7367 H 725.889 4.41108 1.33267 0
M  V30 7368 H 724.204 3.93743 1.35482 0
M  V30 7369 H 726.801 3.44217 4.09168 0
M  V30 7370 H 727.144 1.75961 3.77284 0
M  V30 7371 H 727.677 3.00011 2.61224 0
M  V30 7372 H 724.416 5.99753 2.6453 0
M  V30 7373 H 723.936 4.68493 3.74532 0
M  V30 7374 H 725.615 5.2793 3.74031 0
M  V30 7375 N 725.747 -0.868086 1.31537 0
M  V30 7376 C 726.657 -2.00801 1.21311 0
M  V30 7377 C 727.673 -1.73518 0.129431 0
M  V30 7378 O 728.849 -1.98378 0.347588 0
M  V30 7379 C 725.914 -3.3419 0.922935 0
M  V30 7380 C 724.975 -3.74783 2.0937 0
M  V30 7381 C 724.208 -5.01807 1.81728 0
M  V30 7382 O 724.431 -5.65404 0.753313 0
M  V30 7383 O 723.365 -5.39213 2.67457 0
M  V30 7384 H 727.191 -2.12361 2.17109 0
M  V30 7385 H 724.776 -0.996684 1.11295 0
M  V30 7386 H 726.658 -4.14174 0.777033 0
M  V30 7387 H 725.333 -3.237 -0.00500301 0
M  V30 7388 H 724.24 -2.95432 2.29501 0
M  V30 7389 H 725.573 -3.89902 3.00396 0
M  V30 7390 N 727.225 -1.14528 -1.08264 0
M  V30 7391 C 728.173 -0.829201 -2.17318 0
M  V30 7392 C 729.167 0.193521 -1.68291 0
M  V30 7393 O 730.373 0.0494744 -1.79932 0
M  V30 7394 H 726.748 -0.250435 -0.709074 0
M  V30 7395 H 728.719 -1.75683 -2.41201 0
M  V30 7396 C 727.468 -0.324663 -3.46181 0
M  V30 7397 H 726.791 -1.10299 -3.84284 0
M  V30 7398 H 728.231 -0.142059 -4.23762 0
M  V30 7399 C 726.69 0.952033 -3.23169 0
M  V30 7400 O 727.22 2.02549 -3.46896 0
M  V30 7401 N 725.426 0.887854 -2.76705 0
M  V30 7402 H 724.973 0.0141402 -2.57596 0
M  V30 7403 H 724.931 1.74263 -2.61686 0
M  V30 7404 N 728.703 1.26451 -0.940633 0
M  V30 7405 C 730.114 1.75726 -0.630653 0
M  V30 7406 C 730.465 1.76631 0.854167 0
M  V30 7407 O 729.59 1.37807 1.66848 0
M  V30 7408 C 730.185 3.19114 -1.13805 0
M  V30 7409 C 728.744 3.66005 -0.878497 0
M  V30 7410 C 727.891 2.45505 -1.28928 0
M  V30 7411 H 730.842 1.12535 -1.119 0
M  V30 7412 H 730.863 3.77311 -0.491625 0
M  V30 7413 H 730.375 3.18424 -2.21874 0
M  V30 7414 H 728.476 3.72126 0.187833 0
M  V30 7415 H 728.589 4.54844 -1.50512 0
M  V30 7416 H 726.953 2.4467 -0.707713 0
M  V30 7417 H 727.736 2.47516 -2.37888 0
M  V30 7418 N 730.181 0.707592 1.40822 0
M  V30 7419 C 731.113 0.0105968 2.29198 0
M  V30 7420 C 732.126 -0.732035 1.45414 0
M  V30 7421 O 733.315 -0.580741 1.68789 0
M  V30 7422 C 730.415 -1.00921 3.23525 0
M  V30 7423 C 729.588 -0.333747 4.36125 0
M  V30 7424 C 728.647 -1.25783 5.10945 0
M  V30 7425 O 727.673 -0.745646 5.64295 0
M  V30 7426 N 728.875 -2.58947 5.19545 0
M  V30 7427 H 731.64 0.76938 2.89656 0
M  V30 7428 H 729.201 0.554579 1.52105 0
M  V30 7429 H 731.193 -1.6294 3.70449 0
M  V30 7430 H 729.763 -1.66942 2.6429 0
M  V30 7431 H 728.983 0.466518 3.9143 0
M  V30 7432 H 730.271 0.135444 5.0862 0
M  V30 7433 H 729.669 -3.03065 4.7767 0
M  V30 7434 H 728.226 -3.16131 5.70004 0
M  V30 7435 N 731.66 -1.50943 0.453197 0
M  V30 7436 C 732.89 -2.06328 -0.105981 0
M  V30 7437 C 733.298 -1.31909 -1.35634 0
M  V30 7438 O 732.641 -0.376607 -1.79798 0
M  V30 7439 C 732.703 -3.5631 -0.477868 0
M  V30 7440 C 732.367 -4.52093 0.667925 0
M  V30 7441 C 733.364 -4.96421 1.54475 0
M  V30 7442 C 731.049 -4.95001 0.853168 0
M  V30 7443 C 733.043 -5.82346 2.59138 0
M  V30 7444 C 730.73 -5.80713 1.90305 0
M  V30 7445 C 731.728 -6.24284 2.77053 0
M  V30 7446 O 731.416 -7.08291 3.80236 0
M  V30 7447 H 731.148 -0.675986 -0.00427247 0
M  V30 7448 H 733.702 -1.95314 0.635738 0
M  V30 7449 H 731.932 -3.65163 -1.27252 0
M  V30 7450 H 733.621 -3.94138 -0.970039 0
M  V30 7451 H 734.387 -4.63953 1.41324 0
M  V30 7452 H 730.266 -4.60619 0.187482 0
M  V30 7453 H 733.81 -6.16276 3.2688 0
M  V30 7454 H 729.707 -6.12593 2.03469 0
M  V30 7455 H 730.475 -7.26504 3.77007 0
M  V30 7456 N 733.138 -0.185124 -1.56509 0
M  V30 7457 C 734.385 0.456258 -1.97293 0
M  V30 7458 C 734.713 1.62314 -1.07165 0
M  V30 7459 O 733.968 1.95398 -0.108621 0
M  V30 7460 C 734.267 0.967977 -3.44042 0
M  V30 7461 C 733.933 -0.084476 -4.50821 0
M  V30 7462 C 732.595 -0.373689 -4.79747 0
M  V30 7463 C 734.947 -0.79812 -5.15053 0
M  V30 7464 C 732.275 -1.3817 -5.70198 0
M  V30 7465 C 734.627 -1.79521 -6.06593 0
M  V30 7466 C 733.291 -2.09172 -6.3388 0
M  V30 7467 H 732.561 0.166957 -0.721946 0
M  V30 7468 H 735.208 -0.279992 -1.89442 0
M  V30 7469 H 733.513 1.78231 -3.48914 0
M  V30 7470 H 735.21 1.47347 -3.72948 0
M  V30 7471 H 731.8 0.15111 -4.28334 0
M  V30 7472 H 735.984 -0.587903 -4.92806 0
M  V30 7473 H 731.24 -1.61745 -5.89617 0
M  V30 7474 H 735.414 -2.35347 -6.55427 0
M  V30 7475 H 733.041 -2.87427 -7.03768 0
M  V30 7476 N 734.616 1.57351 0.0885366 0
M  V30 7477 C 735.841 1.91011 0.80805 0
M  V30 7478 C 736.266 0.780009 1.71165 0
M  V30 7479 O 735.624 -0.268083 1.79307 0
M  V30 7480 C 735.672 3.23562 1.59185 0
M  V30 7481 O 734.776 3.11615 2.7013 0
M  V30 7482 H 734.117 0.625943 0.221565 0
M  V30 7483 H 736.647 2.04507 0.0617954 0
M  V30 7484 H 736.657 3.5703 1.97468 0
M  V30 7485 H 735.332 4.05398 0.928741 0
M  V30 7486 H 733.909 2.89673 2.34827 0
M  V30 7487 N 736.094 -0.359525 1.53444 0
M  V30 7488 C 737.371 -1.11756 1.6053 0
M  V30 7489 C 737.751 -2.06949 0.416587 0
M  V30 7490 O 737.099 -2.20681 -0.592628 0
M  V30 7491 C 737.309 -1.85133 2.95849 0
M  V30 7492 C 738.657 -2.3945 3.50641 0
M  V30 7493 O 739.681 -1.95251 2.97918 0
M  V30 7494 O 738.54 -3.20266 4.42823 0
M  V30 7495 H 735.634 -0.513005 0.648656 0
M  V30 7496 H 738.18 -0.362301 1.65787 0
M  V30 7497 H 736.952 -1.15694 3.73806 0
M  V30 7498 H 736.575 -2.67554 2.9411 0
M  V30 7499 N 737.572 -1.44907 -0.619662 0
M  V30 7500 C 738.535 -1.52282 -1.71297 0
M  V30 7501 C 739.535 -0.40359 -1.55653 0
M  V30 7502 O 740.725 -0.666638 -1.6094 0
M  V30 7503 C 737.857 -1.40778 -3.10474 0
M  V30 7504 H 739.05 -2.49683 -1.66128 0
M  V30 7505 H 736.603 -1.32168 -0.834339 0
M  V30 7506 H 737.338 -0.445156 -3.2123 0
M  V30 7507 H 737.123 -2.21947 -3.23237 0
M  V30 7508 H 738.613 -1.48946 -3.90135 0
M  V30 7509 N 739.05 0.861098 -1.31996 0
M  V30 7510 C 740.29 1.62873 -1.23498 0
M  V30 7511 C 740.654 1.90938 0.201692 0
M  V30 7512 O 741.855 2.6565 0.410305 0
M  V30 7513 C 740.126 2.91759 -2.06426 0
M  V30 7514 S 741.685 3.82583 -2.14885 0
M  V30 7515 H 738.503 0.558726 -0.439712 0
M  V30 7516 H 741.105 1.02025 -1.66767 0
M  V30 7517 H 739.809 2.69077 -3.0988 0
M  V30 7518 H 739.34 3.57627 -1.6391 0
M  V30 7519 H 741.355 4.7904 -1.29364 0
M  V30 7520 N 740.528 1.15101 1.07655 0
M  V30 7521 C 741.774 0.925343 1.80458 0
M  V30 7522 C 742.107 -0.546354 1.86356 0
M  V30 7523 O 741.382 -1.40496 1.34503 0
M  V30 7524 C 741.665 1.53646 3.25676 0
M  V30 7525 C 741.518 3.07854 3.27942 0
M  V30 7526 C 742.837 1.21968 4.22861 0
M  V30 7527 H 739.956 0.337592 0.655134 0
M  V30 7528 H 742.598 1.42217 1.25993 0
M  V30 7529 H 740.748 1.11395 3.72187 0
M  V30 7530 H 742.42 3.58989 2.89697 0
M  V30 7531 H 740.663 3.41904 2.66991 0
M  V30 7532 H 741.334 3.45725 4.30324 0
M  V30 7533 H 743.81 1.5851 3.84726 0
M  V30 7534 H 742.686 1.67349 5.22767 0
M  V30 7535 H 742.947 0.136207 4.4189 0
M  V30 7536 N 742.006 -1.2595 0.947325 0
M  V30 7537 C 742.956 -2.23859 0.432547 0
M  V30 7538 C 743.94 -1.53755 -0.474154 0
M  V30 7539 O 745.132 -1.74293 -0.308397 0
M  V30 7540 C 742.261 -3.42027 -0.295318 0
M  V30 7541 C 741.347 -4.19409 0.62903 0
M  V30 7542 N 741.738 -4.74284 1.7575 0
M  V30 7543 C 740.036 -4.43866 0.435805 0
M  V30 7544 C 740.737 -5.32821 2.33401 0
M  V30 7545 N 739.713 -5.18858 1.62135 0
M  V30 7546 H 743.515 -2.63886 1.29388 0
M  V30 7547 H 741.029 -1.41105 0.80393 0
M  V30 7548 H 743.026 -4.11297 -0.681188 0
M  V30 7549 H 741.686 -3.03526 -1.15334 0
M  V30 7550 H 742.697 -4.71641 2.13952 0
M  V30 7551 H 739.374 -4.15768 -0.37994 0
M  V30 7552 H 740.764 -5.86111 3.28517 0
M  V30 7553 N 743.484 -0.715051 -1.40445 0
M  V30 7554 C 744.434 -0.038591 -2.27967 0
M  V30 7555 C 745.418 0.733099 -1.43229 0
M  V30 7556 O 746.61 0.605388 -1.66325 0
M  V30 7557 C 743.739 0.882801 -3.31755 0
M  V30 7558 C 742.825 0.106325 -4.23967 0
M  V30 7559 N 743.216 -0.910143 -4.97544 0
M  V30 7560 C 741.514 0.33896 -4.4471 0
M  V30 7561 C 742.215 -1.37665 -5.65175 0
M  V30 7562 N 741.191 -0.698905 -5.39088 0
M  V30 7563 H 744.993 -0.81765 -2.82297 0
M  V30 7564 H 742.507 -0.547591 -1.5289 0
M  V30 7565 H 744.504 1.38273 -3.93302 0
M  V30 7566 H 743.164 1.66124 -2.78985 0
M  V30 7567 H 744.175 -1.29097 -5.01552 0
M  V30 7568 H 740.852 1.09377 -4.02918 0
M  V30 7569 H 742.242 -2.22122 -6.34123 0
M  V30 7570 N 744.962 1.50701 -0.461195 0
M  V30 7571 C 746.211 2.01458 0.0988277 0
M  V30 7572 C 746.524 1.34863 1.41673 0
M  V30 7573 O 747.73 1.76721 2.06111 0
M  V30 7574 C 746.186 3.59186 0.226648 0
M  V30 7575 C 745.794 4.34732 -1.08223 0
M  V30 7576 C 747.538 4.18015 0.73916 0
M  V30 7577 C 745.445 5.8422 -0.918747 0
M  V30 7578 H 744.375 0.7529 0.040709 0
M  V30 7579 H 747.026 1.736 -0.594589 0
M  V30 7580 H 745.408 3.83589 0.983621 0
M  V30 7581 H 746.582 4.22059 -1.84939 0
M  V30 7582 H 744.897 3.87466 -1.52509 0
M  V30 7583 H 747.494 5.27436 0.878347 0
M  V30 7584 H 747.837 3.78746 1.72793 0
M  V30 7585 H 748.37 3.9778 0.0398469 0
M  V30 7586 H 745.109 6.27944 -1.88059 0
M  V30 7587 H 744.629 5.99493 -0.191801 0
M  V30 7588 H 746.308 6.44382 -0.581405 0
M  V30 7589 N 746.441 0.193421 1.56409 0
M  V30 7590 C 747.388 -0.728124 2.19014 0
M  V30 7591 C 748.358 -1.21098 1.13686 0
M  V30 7592 O 749.543 -1.27517 1.4193 0
M  V30 7593 C 746.683 -1.94277 2.8522 0
M  V30 7594 C 745.796 -1.50143 4.05069 0
M  V30 7595 C 744.931 -2.67145 4.59137 0
M  V30 7596 C 743.97 -2.19609 5.71348 0
M  V30 7597 N 743.107 -3.29782 6.19829 0
M  V30 7598 H 747.947 -0.187499 2.9741 0
M  V30 7599 H 745.484 -0.0808064 1.46878 0
M  V30 7600 H 747.442 -2.65551 3.21774 0
M  V30 7601 H 746.072 -2.45673 2.09391 0
M  V30 7602 H 745.124 -0.684624 3.74189 0
M  V30 7603 H 746.436 -1.11266 4.86232 0
M  V30 7604 H 745.59 -3.46544 4.97988 0
M  V30 7605 H 744.329 -3.09295 3.77078 0
M  V30 7606 H 743.334 -1.38664 5.32027 0
M  V30 7607 H 744.559 -1.78492 6.55223 0
M  V30 7608 H 742.505 -3.71466 5.40693 0
M  V30 7609 H 742.422 -2.95069 6.96039 0
M  V30 7610 H 743.69 -4.094 6.63334 0
M  V30 7611 N 747.919 -1.57396 -0.0801906 0
M  V30 7612 C 749.335 -1.53564 -0.434778 0
M  V30 7613 C 749.535 -0.912372 -1.79661 0
M  V30 7614 O 748.591 -0.511268 -2.4727 0
M  V30 7615 C 749.904 -2.98244 -0.383561 0
M  V30 7616 C 751.452 -3.09536 -0.46435 0
M  V30 7617 C 751.927 -4.55851 -0.443128 0
M  V30 7618 N 753.418 -4.60456 -0.503448 0
M  V30 7619 C 754.153 -5.71135 -0.509106 0
M  V30 7620 N 753.649 -6.91203 -0.47008 0
M  V30 7621 N 755.442 -5.59353 -0.555035 0
M  V30 7622 H 747.593 -1.96281 0.811635 0
M  V30 7623 H 749.856 -0.898041 0.303689 0
M  V30 7624 H 749.562 -3.47369 0.550236 0
M  V30 7625 H 749.436 -3.57705 -1.19694 0
M  V30 7626 H 751.823 -2.6039 -1.38857 0
M  V30 7627 H 751.904 -2.53 0.377445 0
M  V30 7628 H 751.548 -5.05653 0.477207 0
M  V30 7629 H 751.478 -5.10242 -1.30234 0
M  V30 7630 H 753.969 -3.74048 -0.538199 0
M  V30 7631 H 754.282 -7.7132 -0.478091 0
M  V30 7632 H 752.627 -6.93625 -0.436897 0
M  V30 7633 H 755.818 -4.64453 -0.583158 0
M  V30 7634 H 755.991 -6.4561 -0.555976 0
M  V30 7635 N 749.397 0.351382 -1.53633 0
M  V30 7636 C 750.813 0.693987 -1.43722 0
M  V30 7637 C 751.013 1.9274 -0.587669 0
M  V30 7638 O 750.069 2.52387 -0.0756082 0
M  V30 7639 C 751.382 0.893937 -2.87105 0
M  V30 7640 C 752.93 0.993051 -2.96829 0
M  V30 7641 C 753.405 1.22537 -4.41303 0
M  V30 7642 N 754.896 1.29275 -4.44795 0
M  V30 7643 C 755.631 1.48988 -5.53706 0
M  V30 7644 N 755.127 1.65924 -6.72637 0
M  V30 7645 N 756.92 1.51472 -5.41306 0
M  V30 7646 H 749.071 -0.459688 -2.07366 0
M  V30 7647 H 751.334 -0.143684 -0.937048 0
M  V30 7648 H 751.04 0.0592517 -3.5165 0
M  V30 7649 H 750.914 1.79795 -3.31592 0
M  V30 7650 H 753.301 1.81827 -2.32429 0
M  V30 7651 H 753.382 0.0661119 -2.55715 0
M  V30 7652 H 753.026 0.405117 -5.06282 0
M  V30 7653 H 752.956 2.16575 -4.80003 0
M  V30 7654 H 755.447 1.17743 -3.59089 0
M  V30 7655 H 755.76 1.80578 -7.51406 0
M  V30 7656 H 754.105 1.63075 -6.75597 0
M  V30 7657 H 757.296 1.37818 -4.47352 0
M  V30 7658 H 757.469 1.66493 -6.26246 0
M  V30 7659 N 750.875 1.45233 0.611969 0
M  V30 7660 C 752.152 1.39495 1.37115 0
M  V30 7661 C 752.532 0.0633303 2.11005 0
M  V30 7662 O 751.88 -0.954617 2.07604 0
M  V30 7663 C 752.09 2.60579 2.32163 0
M  V30 7664 C 753.438 3.05477 2.94905 0
M  V30 7665 O 754.462 2.60921 2.42485 0
M  V30 7666 O 753.321 3.82787 3.90047 0
M  V30 7667 H 750.415 0.55335 0.614599 0
M  V30 7668 H 752.961 1.57355 0.635423 0
M  V30 7669 H 751.733 3.49085 1.76793 0
M  V30 7670 H 751.356 2.45031 3.13122 0
M  V30 7671 N 752.353 -0.854086 1.3245 0
M  V30 7672 C 753.602 -1.60318 1.22397 0
M  V30 7673 C 753.915 -1.9444 -0.212664 0
M  V30 7674 O 755.121 -2.67991 -0.435066 0
M  V30 7675 C 753.577 -2.8909 2.1437 0
M  V30 7676 C 753.185 -2.62391 3.63119 0
M  V30 7677 C 754.929 -3.67104 2.13155 0
M  V30 7678 C 752.836 -3.87167 4.47052 0
M  V30 7679 H 751.766 -0.601586 0.454544 0
M  V30 7680 H 754.417 -0.943023 1.57415 0
M  V30 7681 H 752.799 -3.56567 1.72268 0
M  V30 7682 H 753.973 -2.03222 4.13567 0
M  V30 7683 H 752.288 -1.97706 3.66471 0
M  V30 7684 H 754.885 -4.59696 2.731 0
M  V30 7685 H 755.228 -4.00876 1.12268 0
M  V30 7686 H 755.761 -3.06533 2.5354 0
M  V30 7687 H 752.5 -3.58536 5.48755 0
M  V30 7688 H 752.02 -4.45729 4.01355 0
M  V30 7689 H 753.699 -4.549 4.60081 0
M  V30 7690 N 753.831 -1.1567 -1.07043 0
M  V30 7691 C 755.077 -0.9349 -1.79965 0
M  V30 7692 C 755.41 0.536464 -1.86643 0
M  V30 7693 O 754.685 1.39781 -1.35247 0
M  V30 7694 C 754.968 -1.55371 -3.24857 0
M  V30 7695 C 754.821 -3.09589 -3.26305 0
M  V30 7696 C 756.14 -1.24209 -4.22209 0
M  V30 7697 H 753.259 -0.341061 -0.653335 0
M  V30 7698 H 755.901 -1.42883 -1.25237 0
M  V30 7699 H 754.051 -1.13368 -3.71591 0
M  V30 7700 H 755.723 -3.60521 -2.87789 0
M  V30 7701 H 753.966 -3.43315 -2.65174 0
M  V30 7702 H 754.637 -3.48002 -4.28484 0
M  V30 7703 H 757.113 -1.60548 -3.8388 0
M  V30 7704 H 755.989 -1.70119 -5.21872 0
M  V30 7705 H 756.25 -0.15964 -4.41812 0
M  V30 7706 N 755.309 1.25446 -0.953992 0
M  V30 7707 C 756.239 2.28264 -0.491717 0
M  V30 7708 C 757.22 1.63717 0.461617 0
M  V30 7709 O 758.405 1.90821 0.36071 0
M  V30 7710 C 755.535 3.46525 0.231915 0
M  V30 7711 C 754.489 4.23247 -0.636098 0
M  V30 7712 C 753.815 5.34254 0.218238 0
M  V30 7713 C 755.115 4.85971 -1.91389 0
M  V30 7714 H 756.809 2.67183 -1.35106 0
M  V30 7715 H 754.355 1.2844 -0.651095 0
M  V30 7716 H 756.308 4.17576 0.566439 0
M  V30 7717 H 755.032 3.06594 1.12551 0
M  V30 7718 H 753.691 3.53978 -0.953696 0
M  V30 7719 H 753.339 4.90564 1.11156 0
M  V30 7720 H 753.039 5.86501 -0.359232 0
M  V30 7721 H 754.563 6.08138 0.547743 0
M  V30 7722 H 755.977 5.49168 -1.64581 0
M  V30 7723 H 754.374 5.48391 -2.43696 0
M  V30 7724 H 755.444 4.08192 -2.61738 0
M  V30 7725 N 756.787 0.722489 1.40064 0
M  V30 7726 C 757.734 0.0743738 2.3068 0
M  V30 7727 C 758.704 -0.743004 1.48555 0
M  V30 7728 O 759.889 -0.705536 1.77276 0
M  V30 7729 C 757.029 -0.836292 3.34814 0
M  V30 7730 C 756.142 -0.00764663 4.31999 0
M  V30 7731 C 755.277 -0.918428 5.232 0
M  V30 7732 C 754.316 -0.0842838 6.12042 0
M  V30 7733 N 753.453 -0.950316 6.95639 0
M  V30 7734 H 758.293 0.852794 2.85537 0
M  V30 7735 H 755.83 0.432222 1.40607 0
M  V30 7736 H 757.788 -1.3786 3.93765 0
M  V30 7737 H 756.418 -1.58082 2.81443 0
M  V30 7738 H 755.47 0.651928 3.74772 0
M  V30 7739 H 756.782 0.63786 4.94705 0
M  V30 7740 H 755.936 -1.52902 5.87116 0
M  V30 7741 H 754.675 -1.59774 4.60786 0
M  V30 7742 H 753.68 0.5392 5.4715 0
M  V30 7743 H 754.905 0.591628 6.76518 0
M  V30 7744 H 752.851 -1.61515 6.35806 0
M  V30 7745 H 752.768 -0.361004 7.55138 0
M  V30 7746 H 754.036 -1.54687 7.63997 0
M  V30 7747 N 758.265 -1.50454 0.469181 0
M  V30 7748 C 759.511 -2.03248 -0.0787241 0
M  V30 7749 C 759.866 -1.34499 -1.37578 0
M  V30 7750 O 759.159 -0.461173 -1.85967 0
M  V30 7751 C 759.353 -3.55963 -0.320207 0
M  V30 7752 C 759.182 -4.3951 0.951893 0
M  V30 7753 C 757.952 -4.82689 1.49465 0
M  V30 7754 C 760.15 -4.79999 1.84677 0
M  V30 7755 N 758.132 -5.50553 2.71597 0
M  V30 7756 C 759.503 -5.47254 2.91398 0
M  V30 7757 C 761.558 -4.61959 1.85738 0
M  V30 7758 C 760.261 -5.98381 3.99166 0
M  V30 7759 C 762.287 -5.14024 2.92461 0
M  V30 7760 C 761.649 -5.81253 3.97901 0
M  V30 7761 H 757.748 -0.78192 0.0111715 0
M  V30 7762 H 760.332 -1.83986 0.636961 0
M  V30 7763 H 758.503 -3.75174 -1.00493 0
M  V30 7764 H 760.235 -3.95407 -0.862285 0
M  V30 7765 H 756.99 -4.61948 1.0441 0
M  V30 7766 H 757.414 -5.89093 3.33615 0
M  V30 7767 H 762.056 -4.09416 1.05539 0
M  V30 7768 H 759.774 -6.49961 4.80183 0
M  V30 7769 H 763.36 -5.01897 2.94263 0
M  V30 7770 H 762.24 -6.20814 4.79123 0
M  V30 7771 N 759.743 -0.201713 -1.56304 0
M  V30 7772 C 760.653 0.728296 -2.23009 0
M  V30 7773 C 761.669 1.22945 -1.23128 0
M  V30 7774 O 762.845 1.27523 -1.55884 0
M  V30 7775 C 759.91 1.92792 -2.88153 0
M  V30 7776 C 758.971 1.47068 -4.03323 0
M  V30 7777 C 758.204 2.61312 -4.65351 0
M  V30 7778 O 758.427 3.7896 -4.26317 0
M  V30 7779 O 757.361 2.33646 -5.54701 0
M  V30 7780 H 761.187 0.190166 -3.03104 0
M  V30 7781 H 758.772 0.0278725 -1.49374 0
M  V30 7782 H 760.654 2.6289 -3.29343 0
M  V30 7783 H 759.329 2.45452 -2.11033 0
M  V30 7784 H 758.236 0.738299 -3.66742 0
M  V30 7785 H 759.569 0.990666 -4.82127 0
M  V30 7786 N 761.222 1.57436 0.0718424 0
M  V30 7787 C 762.152 2.06724 1.08571 0
M  V30 7788 C 763.133 0.960731 1.40371 0
M  V30 7789 O 764.318 1.23345 1.49999 0
M  V30 7790 C 761.448 2.51112 2.39916 0
M  V30 7791 C 760.402 3.65639 2.22469 0
M  V30 7792 C 759.728 3.96082 3.59198 0
M  V30 7793 C 761.028 4.95687 1.64596 0
M  V30 7794 H 762.722 2.91679 0.675569 0
M  V30 7795 H 760.268 1.40319 0.32352 0
M  V30 7796 H 762.221 2.84206 3.11135 0
M  V30 7797 H 760.945 1.63186 2.8291 0
M  V30 7798 H 759.604 3.32828 1.53691 0
M  V30 7799 H 759.252 3.05287 3.99761 0
M  V30 7800 H 758.952 4.73199 3.48362 0
M  V30 7801 H 760.476 4.31672 4.31847 0
M  V30 7802 H 761.89 5.27011 2.25681 0
M  V30 7803 H 760.287 5.77126 1.64457 0
M  V30 7804 H 761.357 4.8108 0.60744 0
M  V30 7805 N 762.7 -0.34323 1.53817 0
M  V30 7806 C 763.948 -1.0813 1.70741 0
M  V30 7807 C 764.269 -1.89165 0.473461 0
M  V30 7808 O 763.539 -1.89075 -0.512605 0
M  V30 7809 H 762.119 -0.40219 0.629486 0
M  V30 7810 H 764.781 -0.384426 1.91071 0
M  V30 7811 H 763.877 -1.7585 2.57843 0
M  V30 7812 N 764.178 -1.45556 -0.604258 0
M  V30 7813 C 765.088 -1.57025 -1.74299 0
M  V30 7814 C 766.104 -0.45456 -1.67958 0
M  V30 7815 O 767.28 -0.715711 -1.88254 0
M  V30 7816 C 764.345 -1.53702 -3.10768 0
M  V30 7817 C 763.406 -2.76335 -3.28538 0
M  V30 7818 C 762.639 -2.73161 -4.58496 0
M  V30 7819 O 762.862 -1.80678 -5.41028 0
M  V30 7820 O 761.796 -3.64409 -4.79051 0
M  V30 7821 H 765.622 -2.53284 -1.67573 0
M  V30 7822 H 763.207 -1.28104 -0.768745 0
M  V30 7823 H 765.089 -1.54468 -3.92068 0
M  V30 7824 H 763.764 -0.605957 -3.17978 0
M  V30 7825 H 762.671 -2.8113 -2.46813 0
M  V30 7826 H 764.004 -3.68578 -3.26207 0
M  V30 7827 N 765.656 0.84705 -1.32902 0
M  V30 7828 C 766.904 1.5986 -1.2365 0
M  V30 7829 C 767.225 1.93974 0.199789 0
M  V30 7830 O 766.495 1.60273 1.12648 0
M  V30 7831 H 765.075 0.592696 -0.454665 0
M  V30 7832 H 767.737 1.01278 -1.66519 0
M  V30 7833 H 766.833 2.53218 -1.82448 0
M  V30 7834 N 767.134 1.16236 1.06428 0
M  V30 7835 C 768.097 0.870163 2.1204 0
M  V30 7836 C 769.097 -0.134239 1.60239 0
M  V30 7837 O 770.287 0.0964932 1.73933 0
M  V30 7838 C 767.419 0.301033 3.39568 0
M  V30 7839 H 768.612 1.8064 2.39394 0
M  V30 7840 H 766.165 0.971116 1.2247 0
M  V30 7841 H 766.9 -0.642948 3.17863 0
M  V30 7842 H 766.685 1.02475 3.78472 0
M  V30 7843 H 768.175 0.114494 4.17443 0
M  V30 7844 N 768.612 -1.24939 0.960631 0
M  V30 7845 C 769.859 -1.92818 0.618663 0
M  V30 7846 C 770.187 -1.75177 -0.845173 0
M  V30 7847 O 769.442 -1.09412 -1.62258 0
M  V30 7848 C 769.741 -3.45066 0.930809 0
M  V30 7849 C 769.407 -3.82869 2.38164 0
M  V30 7850 C 768.069 -3.92899 2.7782 0
M  V30 7851 C 770.421 -4.01483 3.32356 0
M  V30 7852 C 767.749 -4.18955 4.10723 0
M  V30 7853 C 770.101 -4.29033 4.6488 0
M  V30 7854 C 768.765 -4.37282 5.04322 0
M  V30 7855 H 768.035 -0.705571 0.226385 0
M  V30 7856 H 770.682 -1.48365 1.21079 0
M  V30 7857 H 768.987 -3.9096 0.256355 0
M  V30 7858 H 770.684 -3.95783 0.644712 0
M  V30 7859 H 767.274 -3.75622 2.06413 0
M  V30 7860 H 771.458 -3.93143 3.02907 0
M  V30 7861 H 766.714 -4.23558 4.40918 0
M  V30 7862 H 770.888 -4.42381 5.3784 0
M  V30 7863 H 768.515 -4.57225 6.0733 0
M  V30 7864 N 770.09 -0.729906 -1.39679 0
M  V30 7865 C 771.338 -0.275077 -2.00219 0
M  V30 7866 C 771.659 1.1401 -1.58199 0
M  V30 7867 O 770.929 1.77546 -0.827904 0
M  V30 7868 H 769.509 -0.0987127 -0.740449 0
M  V30 7869 H 772.171 -0.93873 -1.70804 0
M  V30 7870 H 771.267 -0.319446 -3.10461 0
M  V30 7871 N 771.568 1.50203 -0.477153 0
M  V30 7872 C 772.515 2.28656 0.31386 0
M  V30 7873 C 773.485 1.33977 0.981802 0
M  V30 7874 O 774.67 1.62919 0.993072 0
M  V30 7875 C 771.81 3.16027 1.38639 0
M  V30 7876 C 770.923 4.25743 0.732615 0
M  V30 7877 C 770.058 5.00363 1.78355 0
M  V30 7878 C 769.097 6.01945 1.11035 0
M  V30 7879 N 768.234 6.6982 2.10441 0
M  V30 7880 H 773.074 2.958 -0.361445 0
M  V30 7881 H 770.611 1.45867 -0.190093 0
M  V30 7882 H 772.569 3.6504 2.01994 0
M  V30 7883 H 771.199 2.50917 2.03077 0
M  V30 7884 H 770.251 3.80398 -0.0136546 0
M  V30 7885 H 771.563 4.98393 0.201513 0
M  V30 7886 H 770.717 5.53124 2.49276 0
M  V30 7887 H 769.456 4.27432 2.34847 0
M  V30 7888 H 768.461 5.48438 0.386797 0
M  V30 7889 H 769.686 6.76851 0.552248 0
M  V30 7890 H 767.632 5.99677 2.65939 0
M  V30 7891 H 767.549 7.38366 1.62332 0
M  V30 7892 H 768.817 7.27196 2.80724 0
M  V30 7893 N 773.046 0.209999 1.56195 0
M  V30 7894 C 774.292 -0.425442 1.98287 0
M  V30 7895 C 774.625 -1.60232 1.09724 0
M  V30 7896 O 773.9 -1.93902 0.152414 0
M  V30 7897 C 774.183 -0.871189 3.49403 0
M  V30 7898 C 774.036 0.308527 4.48741 0
M  V30 7899 C 775.355 -1.73146 4.04609 0
M  V30 7900 H 772.474 -0.153169 0.720908 0
M  V30 7901 H 775.116 0.303916 1.87554 0
M  V30 7902 H 773.266 -1.49266 3.58681 0
M  V30 7903 H 774.938 0.946487 4.51486 0
M  V30 7904 H 773.181 0.957878 4.23092 0
M  V30 7905 H 773.852 -0.0461143 5.51981 0
M  V30 7906 H 776.328 -1.2072 3.98203 0
M  V30 7907 H 775.204 -2.01228 5.10684 0
M  V30 7908 H 775.465 -2.69083 3.5078 0
M  V30 7909 N 774.524 -1.57472 -0.0634922 0
M  V30 7910 C 775.771 -1.87654 -0.761066 0
M  V30 7911 C 776.099 -0.802847 -1.77157 0
M  V30 7912 O 775.354 0.200244 -1.94673 0
M  V30 7913 C 775.653 -3.24521 -1.49736 0
M  V30 7914 C 775.319 -4.46532 -0.626065 0
M  V30 7915 C 773.981 -4.7965 -0.385978 0
M  V30 7916 C 776.333 -5.21195 -0.0224001 0
M  V30 7917 C 773.661 -5.84837 0.467118 0
M  V30 7918 C 776.013 -6.27286 0.818198 0
M  V30 7919 C 774.677 -6.58899 1.06808 0
M  V30 7920 H 773.947 -0.686675 -0.278494 0
M  V30 7921 H 776.594 -1.91488 -0.0216348 0
M  V30 7922 H 774.899 -3.16516 -2.30921 0
M  V30 7923 H 776.596 -3.45111 -2.04204 0
M  V30 7924 H 773.186 -4.20618 -0.823325 0
M  V30 7925 H 777.37 -4.95917 -0.194985 0
M  V30 7926 H 772.626 -6.07725 0.669375 0
M  V30 7927 H 776.8 -6.84298 1.29265 0
M  V30 7928 H 774.427 -7.40233 1.73088 0
M  V30 7929 N 776.003 0.335068 -1.53997 0
M  V30 7930 C 776.933 1.41727 -1.85568 0
M  V30 7931 C 777.914 1.54505 -0.7115 0
M  V30 7932 O 779.099 1.68573 -0.964191 0
M  V30 7933 C 776.229 2.7866 -2.07282 0
M  V30 7934 C 775.183 2.80682 -3.23112 0
M  V30 7935 C 774.509 4.20581 -3.30175 0
M  V30 7936 C 775.809 2.45458 -4.61029 0
M  V30 7937 H 777.503 1.15555 -2.76202 0
M  V30 7938 H 775.049 0.554445 -1.32898 0
M  V30 7939 H 777.002 3.54423 -2.27952 0
M  V30 7940 H 775.726 3.06286 -1.13387 0
M  V30 7941 H 774.385 2.07373 -3.02311 0
M  V30 7942 H 774.033 4.4533 -2.33859 0
M  V30 7943 H 773.733 4.22843 -4.08016 0
M  V30 7944 H 775.257 4.98174 -3.53066 0
M  V30 7945 H 776.671 3.10934 -4.81656 0
M  V30 7946 H 775.068 2.5899 -5.41336 0
M  V30 7947 H 776.138 1.40628 -4.6406 0
M  V30 7948 N 777.481 1.45874 0.596531 0
M  V30 7949 C 778.444 1.54988 1.68853 0
M  V30 7950 C 779.444 0.428302 1.54991 0
M  V30 7951 O 780.634 0.692158 1.59859 0
M  V30 7952 C 777.766 1.457 3.08195 0
M  V30 7953 H 778.959 2.52294 1.62135 0
M  V30 7954 H 776.512 1.33479 0.813206 0
M  V30 7955 H 777.247 0.496204 3.20481 0
M  V30 7956 H 777.032 2.27061 3.19665 0
M  V30 7957 H 778.522 1.55133 3.87716 0
M  V30 7958 N 778.959 -0.83999 1.33349 0
M  V30 7959 C 779.869 -1.98182 1.25543 0
M  V30 7960 C 780.885 -1.73204 0.166208 0
M  V30 7961 O 782.061 -1.97596 0.389589 0
M  V30 7962 C 779.126 -3.32157 0.993614 0
M  V30 7963 C 778.187 -3.70258 2.17273 0
M  V30 7964 C 777.42 -4.9784 1.92331 0
M  V30 7965 O 777.643 -5.63679 0.873074 0
M  V30 7966 O 776.577 -5.33418 2.78835 0
M  V30 7967 H 780.403 -2.07708 2.21565 0
M  V30 7968 H 777.988 -0.972852 1.13384 0
M  V30 7969 H 779.87 -4.12433 0.864711 0
M  V30 7970 H 778.545 -3.23637 0.0636596 0
M  V30 7971 H 777.452 -2.90497 2.35716 0
M  V30 7972 H 778.785 -3.83442 3.08598 0
M  V30 7973 N 780.437 -1.16799 -1.0581 0
M  V30 7974 C 781.677 -0.963264 -1.80279 0
M  V30 7975 C 782.041 0.499671 -1.85384 0
M  V30 7976 O 783.242 0.823264 -2.55882 0
M  V30 7977 C 781.513 -1.57938 -3.20609 0
M  V30 7978 S 783.072 -1.51997 -4.11634 0
M  V30 7979 H 779.89 -0.346302 -0.620964 0
M  V30 7980 H 782.492 -1.48632 -1.26999 0
M  V30 7981 H 781.196 -2.63672 -3.14492 0
M  V30 7982 H 780.727 -1.05586 -3.78966 0
M  V30 7983 H 782.742 -0.523625 -4.93429 0
M  V30 7984 N 781.915 1.24427 -0.967243 0
M  V30 7985 C 782.865 2.23143 -0.468106 0
M  V30 7986 C 783.849 1.5449 0.449633 0
M  V30 7987 O 785.041 1.74761 0.28063 0
M  V30 7988 C 782.17 3.42454 0.240867 0
M  V30 7989 C 781.256 4.18355 -0.695674 0
M  V30 7990 N 781.647 4.71428 -1.83273 0
M  V30 7991 C 779.945 4.43116 -0.506365 0
M  V30 7992 C 780.646 5.29041 -2.41849 0
M  V30 7993 N 779.622 5.16213 -1.70369 0
M  V30 7994 H 783.424 2.61795 -1.3357 0
M  V30 7995 H 780.938 1.39809 -0.826277 0
M  V30 7996 H 782.935 4.12329 0.615668 0
M  V30 7997 H 781.595 3.05323 1.10491 0
M  V30 7998 H 782.606 4.68177 -2.21428 0
M  V30 7999 H 779.283 4.16319 0.313747 0
M  V30 8000 H 780.673 5.80811 -3.37799 0
M  V30 8001 N 783.393 0.737304 1.3929 0
M  V30 8002 C 784.341 0.0879867 2.32434 0
M  V30 8003 C 785.335 -0.723324 1.53181 0
M  V30 8004 O 786.541 -0.624251 1.68829 0
M  V30 8005 H 782.916 0.00965277 0.751938 0
M  V30 8006 H 784.887 0.889915 2.84821 0
M  V30 8007 C 783.636 -0.803384 3.38291 0
M  V30 8008 H 782.959 -0.18849 3.99355 0
M  V30 8009 H 784.399 -1.22528 4.0591 0
M  V30 8010 C 782.858 -1.93872 2.75527 0
M  V30 8011 O 783.388 -3.03154 2.63553 0
M  V30 8012 N 781.594 -1.72883 2.3358 0
M  V30 8013 H 781.141 -0.840005 2.43519 0
M  V30 8014 H 781.099 -2.49021 1.91927 0
M  V30 8015 N 784.871 -1.49948 0.485112 0
M  V30 8016 C 785.801 -2.31675 -0.291364 0
M  V30 8017 C 786.782 -1.39216 -0.977383 0
M  V30 8018 O 787.967 -1.68133 -0.971855 0
M  V30 8019 C 785.097 -3.19326 -1.36558 0
M  V30 8020 C 784.051 -4.2045 -0.800359 0
M  V30 8021 C 783.377 -4.96931 -1.97391 0
M  V30 8022 C 784.677 -5.21925 0.197867 0
M  V30 8023 H 786.371 -2.96839 0.390775 0
M  V30 8024 H 783.917 -1.42749 0.189375 0
M  V30 8025 H 785.87 -3.75304 -1.91638 0
M  V30 8026 H 784.594 -2.52074 -2.07668 0
M  V30 8027 H 783.253 -3.65594 -0.271428 0
M  V30 8028 H 782.901 -4.26141 -2.67232 0
M  V30 8029 H 782.601 -5.65344 -1.60187 0
M  V30 8030 H 784.125 -5.55749 -2.52935 0
M  V30 8031 H 785.539 -5.72691 -0.264239 0
M  V30 8032 H 783.936 -5.98138 0.484908 0
M  V30 8033 H 785.006 -4.71809 1.11912 0
M  V30 8034 N 786.349 -0.21828 -1.56081 0
M  V30 8035 C 787.279 0.687922 -2.23136 0
M  V30 8036 C 788.26 1.20357 -1.202 0
M  V30 8037 O 789.445 1.24817 -1.48776 0
M  V30 8038 C 786.575 1.89762 -2.90874 0
M  V30 8039 C 785.529 1.51595 -4.00254 0
M  V30 8040 C 784.855 2.80415 -4.55271 0
M  V30 8041 C 786.155 0.708404 -5.17474 0
M  V30 8042 H 787.849 0.128854 -2.99123 0
M  V30 8043 H 785.395 0.0605354 -1.43873 0
M  V30 8044 H 787.348 2.53699 -3.36474 0
M  V30 8045 H 786.072 2.4816 -2.1233 0
M  V30 8046 H 784.731 0.900058 -3.55379 0
M  V30 8047 H 784.379 3.36951 -3.73461 0
M  V30 8048 H 784.079 2.55613 -5.2909 0
M  V30 8049 H 785.603 3.453 -5.03587 0
M  V30 8050 H 787.017 1.2514 -5.59476 0
M  V30 8051 H 785.414 0.557593 -5.97504 0
M  V30 8052 H 786.484 -0.285679 -4.84058 0
M  V30 8053 N 787.827 1.57504 0.0551401 0
M  V30 8054 C 789.238 1.76626 0.604979 0
M  V30 8055 C 789.589 0.845978 1.77024 0
M  V30 8056 O 788.714 0.0341936 2.16373 0
M  V30 8057 C 789.309 3.203 1.10425 0
M  V30 8058 C 787.868 3.4071 1.59981 0
M  V30 8059 C 787.015 2.72258 0.526414 0
M  V30 8060 H 789.966 1.57775 -0.171072 0
M  V30 8061 H 789.987 3.25377 1.97256 0
M  V30 8062 H 789.499 3.87255 0.255939 0
M  V30 8063 H 787.6 2.78892 2.47083 0
M  V30 8064 H 787.713 4.49227 1.66528 0
M  V30 8065 H 786.077 2.35283 0.97539 0
M  V30 8066 H 786.86 3.41879 -0.311991 0
M  V30 8067 N 789.305 -0.326896 1.54172 0
M  V30 8068 C 790.215 -1.42525 1.86343 0
M  V30 8069 C 791.231 -1.56764 0.75505 0
M  V30 8070 O 792.407 -1.71924 1.04901 0
M  V30 8071 C 789.472 -2.77286 2.08119 0
M  V30 8072 C 788.533 -2.7225 3.31931 0
M  V30 8073 C 787.766 -4.00584 3.52659 0
M  V30 8074 O 787.989 -4.98686 2.76891 0
M  V30 8075 O 786.923 -4.04045 4.46129 0
M  V30 8076 H 790.749 -1.18249 2.79734 0
M  V30 8077 H 788.334 -0.520614 1.40036 0
M  V30 8078 H 790.216 -3.57065 2.23791 0
M  V30 8079 H 788.891 -3.01459 1.17917 0
M  V30 8080 H 787.798 -1.91033 3.21647 0
M  V30 8081 H 789.131 -2.53032 4.2218 0
M  V30 8082 N 790.784 -1.46188 -0.588786 0
M  V30 8083 C 791.716 -1.52319 -1.71265 0
M  V30 8084 C 792.729 -0.412096 -1.57498 0
M  V30 8085 O 793.918 -0.680146 -1.65034 0
M  V30 8086 C 791.018 -1.38164 -3.09458 0
M  V30 8087 C 790.191 -2.63284 -3.49286 0
M  V30 8088 C 789.25 -2.43415 -4.66514 0
M  V30 8089 O 788.276 -3.17113 -4.72682 0
M  V30 8090 N 789.478 -1.49187 -5.61002 0
M  V30 8091 H 792.243 -2.49219 -1.66463 0
M  V30 8092 H 789.804 -1.42167 -0.774601 0
M  V30 8093 H 791.796 -1.22653 -3.85666 0
M  V30 8094 H 790.366 -0.494678 -3.08661 0
M  V30 8095 H 789.586 -2.93779 -2.62845 0
M  V30 8096 H 790.874 -3.46413 -3.7266 0
M  V30 8097 H 790.272 -0.884027 -5.5875 0
M  V30 8098 H 788.829 -1.39642 -6.36666 0
M  V30 8099 N 792.262 0.832906 -1.33792 0
M  V30 8100 C 793.539 1.57359 -1.16178 0
M  V30 8101 C 793.919 2.09372 0.269532 0
M  V30 8102 O 793.267 1.89993 1.26944 0
M  V30 8103 C 793.477 2.70279 -2.20795 0
M  V30 8104 C 794.825 3.39305 -2.55259 0
M  V30 8105 O 795.849 2.80526 -2.19508 0
M  V30 8106 O 794.708 4.45428 -3.16632 0
M  V30 8107 H 791.802 0.694025 -0.449731 0
M  V30 8108 H 794.348 0.875144 -1.45394 0
M  V30 8109 H 793.12 2.29527 -3.16911 0
M  V30 8110 H 792.743 3.47782 -1.927 0
M  V30 8111 N 793.74 1.17359 1.05189 0
M  V30 8112 C 794.687 0.890325 2.12936 0
M  V30 8113 C 795.657 -0.165779 1.65271 0
M  V30 8114 O 796.842 -0.0285672 1.90779 0
M  V30 8115 C 793.982 0.409793 3.42658 0
M  V30 8116 C 793.095 1.53002 4.03998 0
M  V30 8117 C 792.23 1.00336 5.21638 0
M  V30 8118 C 791.269 2.09903 5.74984 0
M  V30 8119 N 790.406 1.58714 6.83926 0
M  V30 8120 H 795.246 1.81299 2.36505 0
M  V30 8121 H 792.783 0.904249 1.16025 0
M  V30 8122 H 794.741 0.112743 4.17048 0
M  V30 8123 H 793.371 -0.475915 3.19272 0
M  V30 8124 H 792.423 1.9428 3.27047 0
M  V30 8125 H 793.735 2.3564 4.39631 0
M  V30 8126 H 792.889 0.660158 6.03098 0
M  V30 8127 H 791.628 0.14642 4.8748 0
M  V30 8128 H 790.633 2.45081 4.92154 0
M  V30 8129 H 791.858 2.96013 6.1119 0
M  V30 8130 H 789.804 0.752915 6.51665 0
M  V30 8131 H 789.721 2.34959 7.18561 0
M  V30 8132 H 790.989 1.27287 7.69037 0
M  V30 8133 N 795.218 -1.23913 0.973828 0
M  V30 8134 C 796.151 -2.23647 0.45355 0
M  V30 8135 C 797.129 -1.55485 -0.475724 0
M  V30 8136 O 798.313 -1.84083 -0.405689 0
M  V30 8137 C 795.44 -3.36942 -0.344594 0
M  V30 8138 C 794.486 -4.23221 0.527859 0
M  V30 8139 S 795.319 -4.97877 1.97177 0
M  V30 8140 C 796.475 -6.14627 1.18258 0
M  V30 8141 H 796.708 -2.67433 1.29873 0
M  V30 8142 H 794.241 -1.33289 0.779322 0
M  V30 8143 H 796.199 -4.02647 -0.799103 0
M  V30 8144 H 794.86 -2.91703 -1.16482 0
M  V30 8145 H 794.053 -5.03928 -0.0852555 0
M  V30 8146 H 793.655 -3.6255 0.918344 0
M  V30 8147 H 795.947 -6.76066 0.440629 0
M  V30 8148 H 796.89 -6.80311 1.96425 0
M  V30 8149 H 797.298 -5.6009 0.704256 0
M  V30 8150 N 796.696 -0.74468 -1.38897 0
M  V30 8151 C 797.626 -0.126355 -2.33158 0
M  V30 8152 C 798.607 0.713517 -1.54412 0
M  V30 8153 O 799.792 0.656523 -1.82766 0
M  V30 8154 C 796.922 0.774375 -3.38557 0
M  V30 8155 C 795.876 0.0379214 -4.27983 0
M  V30 8156 C 795.202 1.05631 -5.24162 0
M  V30 8157 C 796.502 -1.12523 -5.10035 0
M  V30 8158 H 798.196 -0.913744 -2.85116 0
M  V30 8159 H 795.742 -0.440847 -1.37086 0
M  V30 8160 H 797.695 1.21655 -4.03458 0
M  V30 8161 H 796.419 1.59399 -2.85061 0
M  V30 8162 H 795.078 -0.384733 -3.64576 0
M  V30 8163 H 794.726 1.86975 -4.66958 0
M  V30 8164 H 794.426 0.568261 -5.84846 0
M  V30 8165 H 795.95 1.49799 -5.9194 0
M  V30 8166 H 797.364 -0.761037 -5.68226 0
M  V30 8167 H 795.761 -1.54355 -5.79909 0
M  V30 8168 H 796.831 -1.94237 -4.44297 0
M  V30 8169 N 798.174 1.49689 -0.493057 0
M  V30 8170 C 799.42 2.02727 0.0543518 0
M  V30 8171 C 799.753 1.37264 1.37376 0
M  V30 8172 O 799.028 0.505644 1.87812 0
M  V30 8173 C 799.311 3.59456 0.215226 0
M  V30 8174 C 799.164 4.35459 -1.12675 0
M  V30 8175 C 800.483 4.29511 0.959586 0
M  V30 8176 H 797.602 0.736773 0.0182786 0
M  V30 8177 H 800.244 1.78792 -0.642924 0
M  V30 8178 H 798.394 3.79981 0.809122 0
M  V30 8179 H 800.066 4.2645 -1.75891 0
M  V30 8180 H 798.309 3.9833 -1.71801 0
M  V30 8181 H 798.98 5.43454 -0.967578 0
M  V30 8182 H 801.456 4.13594 0.455977 0
M  V30 8183 H 800.332 5.38939 1.04098 0
M  V30 8184 H 800.593 3.94202 2.00144 0
M  V30 8185 N 799.652 0.226554 1.55963 0
M  V30 8186 C 800.615 -0.668015 2.19249 0
M  V30 8187 C 801.615 -1.11794 1.1558 0
M  V30 8188 O 802.805 -1.02593 1.40784 0
M  V30 8189 C 799.937 -1.91571 2.81981 0
M  V30 8190 H 801.13 -0.116175 2.99675 0
M  V30 8191 H 798.683 -0.0230497 1.56283 0
M  V30 8192 H 799.418 -2.50929 2.05439 0
M  V30 8193 H 799.203 -1.6015 3.57903 0
M  V30 8194 H 800.693 -2.55294 3.30477 0
M  V30 8195 N 801.13 -1.57531 -0.0467866 0
M  V30 8196 C 802.376 -1.8873 -0.742218 0
M  V30 8197 C 802.709 -0.822084 -1.75941 0
M  V30 8198 O 801.984 0.164922 -1.938 0
M  V30 8199 C 802.267 -3.30586 -1.42776 0
M  V30 8200 C 802.12 -4.47785 -0.425285 0
M  V30 8201 C 803.439 -3.71068 -2.36636 0
M  V30 8202 H 800.558 -0.686406 -0.268359 0
M  V30 8203 H 803.2 -1.89999 -0.00511341 0
M  V30 8204 H 801.35 -3.29634 -2.05605 0
M  V30 8205 H 803.022 -4.60867 0.199721 0
M  V30 8206 H 801.265 -4.33037 0.25713 0
M  V30 8207 H 801.936 -5.43884 -0.943086 0
M  V30 8208 H 804.412 -3.73273 -1.83866 0
M  V30 8209 H 803.288 -4.71165 -2.81593 0
M  V30 8210 H 803.549 -3.02355 -3.22542 0
M  V30 8211 N 802.608 0.318715 -1.54344 0
M  V30 8212 C 803.555 1.39242 -1.84066 0
M  V30 8213 C 804.525 1.51175 -0.688134 0
M  V30 8214 O 805.71 1.66318 -0.935039 0
M  V30 8215 C 802.85 2.75528 -2.07794 0
M  V30 8216 C 801.963 2.72187 -3.35467 0
M  V30 8217 C 801.098 4.00352 -3.4913 0
M  V30 8218 C 800.137 3.91338 -4.7066 0
M  V30 8219 N 799.274 5.11242 -4.81224 0
M  V30 8220 H 804.114 1.13196 -2.75664 0
M  V30 8221 H 801.651 0.547857 -1.36517 0
M  V30 8222 H 803.609 3.54763 -2.19543 0
M  V30 8223 H 802.239 2.99873 -1.19482 0
M  V30 8224 H 801.291 1.84917 -3.3243 0
M  V30 8225 H 802.603 2.61411 -4.24812 0
M  V30 8226 H 801.757 4.88019 -3.60448 0
M  V30 8227 H 800.496 4.1394 -2.57886 0
M  V30 8228 H 799.501 3.02055 -4.59394 0
M  V30 8229 H 800.726 3.7931 -5.63294 0
M  V30 8230 H 798.672 5.25327 -3.92897 0
M  V30 8231 H 798.589 5.0282 -5.64543 0
M  V30 8232 H 799.857 6.0061 -4.96879 0
M  V30 8233 N 804.086 1.46499 0.581025 0
M  V30 8234 C 805.049 1.5677 1.672 0
M  V30 8235 C 806.049 0.444716 1.54528 0
M  V30 8236 O 807.239 0.709074 1.59116 0
M  V30 8237 C 804.371 1.4896 3.06633 0
M  V30 8238 H 805.564 2.54 1.5945 0
M  V30 8239 H 803.117 1.34334 0.799003 0
M  V30 8240 H 803.852 0.530168 3.19937 0
M  V30 8241 H 803.637 2.30439 3.17239 0
M  V30 8242 H 805.127 1.59237 3.86048 0
M  V30 8243 N 805.565 -0.825799 1.34232 0
M  V30 8244 C 806.495 -1.95151 1.28212 0
M  V30 8245 C 807.476 -1.69345 0.160123 0
M  V30 8246 O 808.661 -1.90983 0.352019 0
M  V30 8247 C 805.791 -3.31554 1.03388 0
M  V30 8248 C 804.745 -3.71793 2.12023 0
M  V30 8249 C 804.071 -5.06147 1.72392 0
M  V30 8250 C 805.371 -3.84193 3.53826 0
M  V30 8251 H 807.065 -2.00445 2.22401 0
M  V30 8252 H 804.611 -0.962996 1.07063 0
M  V30 8253 H 806.564 -4.09889 0.978225 0
M  V30 8254 H 805.288 -3.26551 0.0564142 0
M  V30 8255 H 803.947 -2.95731 2.16654 0
M  V30 8256 H 803.595 -4.97628 0.733137 0
M  V30 8257 H 803.295 -5.34041 2.451 0
M  V30 8258 H 804.819 -5.86943 1.68317 0
M  V30 8259 H 806.233 -4.52806 3.51624 0
M  V30 8260 H 804.63 -4.23538 4.2513 0
M  V30 8261 H 805.7 -2.86272 3.91377 0
M  V30 8262 N 807.043 -1.17915 -1.04565 0
M  V30 8263 C 807.99 -0.901605 -2.12461 0
M  V30 8264 C 808.96 0.157011 -1.65356 0
M  V30 8265 O 810.145 0.0184494 -1.90791 0
M  V30 8266 C 807.285 -0.42796 -3.42436 0
M  V30 8267 C 806.398 -1.55142 -4.03181 0
M  V30 8268 C 805.533 -1.03101 -5.21098 0
M  V30 8269 C 804.572 -2.1295 -5.73863 0
M  V30 8270 N 803.709 -1.62339 -6.83074 0
M  V30 8271 H 808.549 -1.82551 -2.3554 0
M  V30 8272 H 806.086 -0.910389 -1.15544 0
M  V30 8273 H 808.044 -0.134859 -4.16982 0
M  V30 8274 H 806.674 0.458977 -3.1952 0
M  V30 8275 H 805.726 -1.96011 -3.26012 0
M  V30 8276 H 807.038 -2.37968 -4.38375 0
M  V30 8277 H 806.192 -0.692132 -6.02739 0
M  V30 8278 H 804.931 -0.17227 -4.87396 0
M  V30 8279 H 803.936 -2.47687 -4.90847 0
M  V30 8280 H 805.161 -2.9925 -6.09611 0
M  V30 8281 H 803.107 -0.787464 -6.51256 0
M  V30 8282 H 803.024 -2.38767 -7.17305 0
M  V30 8283 H 804.292 -1.31363 -7.68351 0
M  V30 8284 N 808.521 1.23394 -0.980386 0
M  V30 8285 C 809.431 2.28561 -0.528864 0
M  V30 8286 C 810.447 1.68946 0.416329 0
M  V30 8287 O 811.623 1.99355 0.286251 0
M  V30 8288 C 808.688 3.46323 0.16155 0
M  V30 8289 C 807.749 4.21297 -0.825044 0
M  V30 8290 C 806.982 5.33437 -0.167483 0
M  V30 8291 O 807.205 5.60812 1.04146 0
M  V30 8292 O 806.139 5.95637 -0.866047 0
M  V30 8293 H 809.965 2.69326 -1.40346 0
M  V30 8294 H 807.55 1.29325 -0.748019 0
M  V30 8295 H 809.432 4.17811 0.548841 0
M  V30 8296 H 808.107 3.0751 1.01092 0
M  V30 8297 H 807.014 3.52134 -1.26303 0
M  V30 8298 H 808.347 4.6396 -1.64322 0
M  V30 8299 N 809.999 0.752036 1.385 0
M  V30 8300 C 810.962 0.131587 2.28822 0
M  V30 8301 C 811.962 -0.649149 1.47115 0
M  V30 8302 O 813.152 -0.475645 1.67581 0
M  V30 8303 C 810.284 -0.822101 3.30839 0
M  V30 8304 H 811.477 0.927551 2.85196 0
M  V30 8305 H 809.03 0.518945 1.47434 0
M  V30 8306 H 809.765 -1.6438 2.79553 0
M  V30 8307 H 809.55 -0.264689 3.91206 0
M  V30 8308 H 811.04 -1.25226 3.98382 0
M  V30 8309 N 811.477 -1.49425 0.500989 0
M  V30 8310 C 812.702 -2.07356 -0.0425154 0
M  V30 8311 C 813.127 -1.35887 -1.30063 0
M  V30 8312 O 812.485 -0.41561 -1.76472 0
M  V30 8313 C 812.533 -3.59518 -0.279188 0
M  V30 8314 O 811.637 -3.89542 -1.3539 0
M  V30 8315 H 810.978 -0.663482 0.0262207 0
M  V30 8316 H 813.508 -1.92231 0.700607 0
M  V30 8317 H 813.518 -4.04791 -0.5107 0
M  V30 8318 H 812.193 -4.10946 0.640009 0
M  V30 8319 H 810.77 -3.56079 -1.10734 0
M  V30 8320 N 812.955 -0.234822 -1.55841 0
M  V30 8321 C 813.865 0.680828 -2.24504 0
M  V30 8322 C 814.881 1.20306 -1.25708 0
M  V30 8323 O 816.057 1.24188 -1.58554 0
M  V30 8324 C 813.122 1.86636 -2.92178 0
M  V30 8325 C 812.183 1.3848 -4.06352 0
M  V30 8326 C 811.416 2.51382 -4.70789 0
M  V30 8327 O 811.639 3.69831 -4.34259 0
M  V30 8328 O 810.573 2.21828 -5.59532 0
M  V30 8329 H 814.399 0.12583 -3.03439 0
M  V30 8330 H 811.984 -0.00381817 -1.494 0
M  V30 8331 H 813.866 2.55845 -3.34845 0
M  V30 8332 H 812.541 2.40921 -2.16192 0
M  V30 8333 H 811.448 0.660341 -3.68226 0
M  V30 8334 H 812.781 0.888177 -4.8412 0
M  V30 8335 N 814.433 1.57553 0.0384317 0
M  V30 8336 C 815.658 1.93485 0.746872 0
M  V30 8337 C 816.083 0.834069 1.68597 0
M  V30 8338 O 815.441 -0.210902 1.80069 0
M  V30 8339 C 815.489 3.28463 1.4881 0
M  V30 8340 O 814.593 3.20051 2.60079 0
M  V30 8341 H 813.934 0.632675 0.201539 0
M  V30 8342 H 816.464 2.046 -0.00329815 0
M  V30 8343 H 816.474 3.63132 1.86009 0
M  V30 8344 H 815.149 4.08147 0.799297 0
M  V30 8345 H 813.726 2.96998 2.25492 0
M  V30 8346 N 815.911 -0.310526 1.54511 0
M  V30 8347 C 816.874 -1.3657 1.84068 0
M  V30 8348 C 817.874 -1.44123 0.713097 0
M  V30 8349 O 819.064 -1.43924 0.981399 0
M  V30 8350 C 816.196 -2.75162 2.01243 0
M  V30 8351 H 817.389 -1.1161 2.78358 0
M  V30 8352 H 814.942 -0.546699 1.46427 0
M  V30 8353 H 815.677 -3.05359 1.09208 0
M  V30 8354 H 815.462 -2.71071 2.83307 0
M  V30 8355 H 816.952 -3.51473 2.25514 0
M  V30 8356 N 817.389 -1.46805 -0.573248 0
M  V30 8357 C 818.805 -1.31969 -0.897577 0
M  V30 8358 C 819.005 -0.298171 -1.99282 0
M  V30 8359 O 818.061 0.295953 -2.5076 0
M  V30 8360 C 819.374 -2.70859 -1.30598 0
M  V30 8361 C 820.922 -2.79022 -1.4183 0
M  V30 8362 C 821.397 -4.18516 -1.86033 0
M  V30 8363 N 822.888 -4.2098 -1.9321 0
M  V30 8364 C 823.623 -5.25814 -2.28707 0
M  V30 8365 N 823.119 -6.40968 -2.6293 0
M  V30 8366 N 824.912 -5.13184 -2.29343 0
M  V30 8367 H 817.063 -2.11869 0.150094 0
M  V30 8368 H 819.326 -0.947989 0.00447895 0
M  V30 8369 H 819.032 -3.46965 -0.575161 0
M  V30 8370 H 818.906 -3.01585 -2.26554 0
M  V30 8371 H 821.293 -2.03198 -2.13996 0
M  V30 8372 H 821.374 -2.51969 -0.441024 0
M  V30 8373 H 821.018 -4.94839 -1.14442 0
M  V30 8374 H 820.948 -4.42982 -2.84735 0
M  V30 8375 H 823.439 -3.37898 -1.69214 0
M  V30 8376 H 823.752 -7.16729 -2.88996 0
M  V30 8377 H 822.097 -6.44314 -2.60547 0
M  V30 8378 H 825.288 -4.22255 -2.02036 0
M  V30 8379 H 825.461 -5.94996 -2.56679 0
M  V30 8380 N 818.867 0.818669 -1.34668 0
M  V30 8381 C 819.799 1.93754 -1.22442 0
M  V30 8382 C 820.812 1.62103 -0.150501 0
M  V30 8383 O 822.001 1.73898 -0.402728 0
M  V30 8384 C 819.101 3.27806 -0.860031 0
M  V30 8385 C 818.274 3.8745 -2.02981 0
M  V30 8386 C 817.333 4.99887 -1.64314 0
M  V30 8387 O 816.359 5.17957 -2.36029 0
M  V30 8388 N 817.561 5.77795 -0.55976 0
M  V30 8389 H 820.326 2.04773 -2.18833 0
M  V30 8390 H 817.887 0.995472 -1.27679 0
M  V30 8391 H 819.879 4.00478 -0.583068 0
M  V30 8392 H 818.449 3.12597 0.0138253 0
M  V30 8393 H 817.669 3.07119 -2.47127 0
M  V30 8394 H 818.957 4.2403 -2.81204 0
M  V30 8395 H 818.355 5.65688 0.0363329 0
M  V30 8396 H 816.912 6.50899 -0.342541 0
M  V30 8397 N 820.346 1.18468 1.03938 0
M  V30 8398 C 821.623 0.890435 1.74157 0
M  V30 8399 C 822.003 -0.606409 2.02203 0
M  V30 8400 O 821.351 -1.5615 1.66822 0
M  V30 8401 C 821.561 1.73906 3.02585 0
M  V30 8402 C 822.909 1.96686 3.76297 0
M  V30 8403 O 823.933 1.70969 3.12487 0
M  V30 8404 O 822.792 2.39986 4.90988 0
M  V30 8405 H 819.886 0.330889 0.757919 0
M  V30 8406 H 822.432 1.29228 1.09992 0
M  V30 8407 H 821.204 2.75369 2.78006 0
M  V30 8408 H 820.827 1.33581 3.74489 0
M  V30 8409 N 821.824 -1.22873 0.986916 0
M  V30 8410 C 823.071 -1.91462 0.659424 0
M  V30 8411 C 823.399 -1.76931 -0.807825 0
M  V30 8412 O 822.654 -1.12829 -1.59901 0
M  V30 8413 C 822.953 -3.43014 1.00379 0
M  V30 8414 C 822.619 -3.77731 2.46232 0
M  V30 8415 C 821.281 -3.86918 2.86091 0
M  V30 8416 C 823.633 -3.94343 3.40798 0
M  V30 8417 C 820.961 -4.10149 4.19518 0
M  V30 8418 C 823.313 -4.19076 4.73875 0
M  V30 8419 C 821.977 -4.26486 5.13484 0
M  V30 8420 H 821.247 -0.700611 0.2413 0
M  V30 8421 H 823.894 -1.45763 1.24199 0
M  V30 8422 H 822.199 -3.90329 0.339226 0
M  V30 8423 H 823.896 -3.94327 0.728518 0
M  V30 8424 H 820.486 -3.71159 2.14334 0
M  V30 8425 H 824.67 -3.86629 3.11178 0
M  V30 8426 H 819.926 -4.1411 4.49803 0
M  V30 8427 H 824.1 -4.30873 5.47102 0
M  V30 8428 H 821.727 -4.4424 6.16891 0
M  V30 8429 N 823.302 -0.75937 -1.38099 0
M  V30 8430 C 824.234 -0.0956547 -2.29 0
M  V30 8431 C 825.247 0.677561 -1.4803 0
M  V30 8432 O 826.436 0.517696 -1.70828 0
M  V30 8433 C 823.536 0.88844 -3.27047 0
M  V30 8434 C 822.709 0.171652 -4.37063 0
M  V30 8435 C 821.768 1.06733 -5.15262 0
M  V30 8436 O 820.794 0.535698 -5.66674 0
M  V30 8437 N 821.996 2.39486 -5.28797 0
M  V30 8438 H 824.761 -0.876354 -2.86601 0
M  V30 8439 H 822.322 -0.61065 -1.49942 0
M  V30 8440 H 824.314 1.49079 -3.76241 0
M  V30 8441 H 822.884 1.57018 -2.70304 0
M  V30 8442 H 822.104 -0.611473 -3.89429 0
M  V30 8443 H 823.392 -0.324121 -5.07767 0
M  V30 8444 H 822.79 2.85127 -4.88589 0
M  V30 8445 H 821.347 2.94758 -5.81344 0
M  V30 8446 N 824.78 1.49157 -0.508906 0
M  V30 8447 C 826.196 1.58741 -0.165372 0
M  V30 8448 C 826.396 1.5133 1.33047 0
M  V30 8449 O 825.452 1.39135 2.10707 0
M  V30 8450 C 826.765 2.91217 -0.749194 0
M  V30 8451 C 828.313 3.047 -0.716015 0
M  V30 8452 C 828.788 4.39807 -1.27804 0
M  V30 8453 N 830.279 4.46319 -1.23908 0
M  V30 8454 C 831.014 5.49325 -1.64406 0
M  V30 8455 N 830.51 6.59395 -2.12534 0
M  V30 8456 N 832.303 5.40084 -1.55773 0
M  V30 8457 H 824.454 1.52217 -1.48134 0
M  V30 8458 H 826.717 0.721514 -0.614915 0
M  V30 8459 H 826.423 3.02233 -1.79856 0
M  V30 8460 H 826.297 3.76592 -0.214144 0
M  V30 8461 H 828.684 2.9331 0.324535 0
M  V30 8462 H 828.765 2.2099 -1.2883 0
M  V30 8463 H 828.409 4.5195 -2.31741 0
M  V30 8464 H 828.339 5.2217 -0.681623 0
M  V30 8465 H 830.83 3.67354 -0.886537 0
M  V30 8466 H 831.143 7.34102 -2.41485 0
M  V30 8467 H 829.488 6.60414 -2.16513 0
M  V30 8468 H 832.679 4.52986 -1.17987 0
M  V30 8469 H 832.852 6.20233 -1.87657 0
M  V30 8470 N 826.258 0.243083 1.55714 0
M  V30 8471 C 827.168 -0.668913 2.24862 0
M  V30 8472 C 828.184 -1.19638 1.26344 0
M  V30 8473 O 829.36 -1.23345 1.5921 0
M  V30 8474 C 826.425 -1.85084 2.93163 0
M  V30 8475 C 825.486 -1.36323 4.07081 0
M  V30 8476 C 824.719 -2.48882 4.72116 0
M  V30 8477 O 824.942 -3.67523 4.36214 0
M  V30 8478 O 823.876 -2.18857 5.60701 0
M  V30 8479 H 827.702 -0.109737 3.03502 0
M  V30 8480 H 825.287 0.0117411 1.49395 0
M  V30 8481 H 827.169 -2.54065 3.36197 0
M  V30 8482 H 825.844 -2.39771 2.17466 0
M  V30 8483 H 824.751 -0.640804 3.68571 0
M  V30 8484 H 826.084 -0.86249 4.84584 0
M  V30 8485 N 827.736 -1.57571 -0.0300757 0
M  V30 8486 C 828.699 -2.05468 -1.01565 0
M  V30 8487 C 829.699 -0.958628 -1.29101 0
M  V30 8488 O 830.889 -1.22228 -1.24121 0
M  V30 8489 C 828.021 -2.47077 -2.34874 0
M  V30 8490 H 829.214 -2.93797 -0.601936 0
M  V30 8491 H 826.767 -1.53828 -0.276878 0
M  V30 8492 H 827.502 -1.61901 -2.80996 0
M  V30 8493 H 827.287 -3.27097 -2.16218 0
M  V30 8494 H 828.777 -2.84564 -3.05635 0
M  V30 8495 N 829.214 0.302327 -1.54673 0
M  V30 8496 C 830.124 1.39542 -1.88587 0
M  V30 8497 C 831.14 1.55543 -0.779895 0
M  V30 8498 O 832.316 1.70233 -1.07623 0
M  V30 8499 C 829.381 2.7394 -2.12504 0
M  V30 8500 C 828.442 2.66935 -3.3622 0
M  V30 8501 C 827.675 3.94923 -3.58987 0
M  V30 8502 O 827.898 4.94218 -2.84789 0
M  V30 8503 O 826.832 3.96896 -4.52501 0
M  V30 8504 H 830.658 1.13784 -2.81579 0
M  V30 8505 H 828.243 0.49827 -1.40846 0
M  V30 8506 H 830.125 3.5346 -2.29443 0
M  V30 8507 H 828.8 2.99544 -1.22698 0
M  V30 8508 H 827.707 1.85892 -3.24646 0
M  V30 8509 H 829.04 2.46283 -4.26152 0
M  V30 8510 N 830.692 1.47107 0.565454 0
M  V30 8511 C 831.622 1.61846 1.68309 0
M  V30 8512 C 832.603 0.468159 1.63531 0
M  V30 8513 O 833.788 0.696504 1.8128 0
M  V30 8514 C 830.918 1.62474 3.06952 0
M  V30 8515 C 829.872 2.76649 3.26572 0
M  V30 8516 C 829.198 2.62345 4.65917 0
M  V30 8517 C 830.498 4.18319 3.12741 0
M  V30 8518 H 832.192 2.55407 1.5623 0
M  V30 8519 H 829.738 1.22916 0.750179 0
M  V30 8520 H 831.691 1.71378 3.84977 0
M  V30 8521 H 830.415 0.654692 3.19971 0
M  V30 8522 H 829.074 2.67242 2.50952 0
M  V30 8523 H 828.722 1.63386 4.75725 0
M  V30 8524 H 828.422 3.38936 4.79996 0
M  V30 8525 H 829.946 2.73165 5.46089 0
M  V30 8526 H 831.36 4.28745 3.80593 0
M  V30 8527 H 829.757 4.95632 3.38333 0
M  V30 8528 H 830.827 4.37263 2.09592 0
M  V30 8529 N 832.17 -0.811516 1.35101 0
M  V30 8530 C 833.1 -1.9378 1.30275 0
M  V30 8531 C 834.081 -1.69165 0.178075 0
M  V30 8532 O 835.266 -1.90599 0.372256 0
M  V30 8533 C 832.396 -3.30439 1.06899 0
M  V30 8534 C 831.35 -3.69523 2.15955 0
M  V30 8535 C 830.676 -5.0429 1.77751 0
M  V30 8536 C 831.976 -3.80419 3.57881 0
M  V30 8537 H 833.67 -1.98075 2.24514 0
M  V30 8538 H 831.216 -0.951586 1.08078 0
M  V30 8539 H 833.169 -4.08828 1.02164 0
M  V30 8540 H 831.893 -3.26473 0.0910462 0
M  V30 8541 H 830.552 -2.93416 2.19778 0
M  V30 8542 H 830.2 -4.96823 0.785876 0
M  V30 8543 H 829.9 -5.31411 2.5075 0
M  V30 8544 H 831.424 -5.85125 1.74533 0
M  V30 8545 H 832.838 -4.49051 3.56407 0
M  V30 8546 H 831.235 -4.19005 4.29598 0
M  V30 8547 H 832.305 -2.82105 3.94391 0
M  V30 8548 N 833.648 -1.19017 -1.03309 0
M  V30 8549 C 834.876 -1.01534 -1.80273 0
M  V30 8550 C 835.291 0.43605 -1.83696 0
M  V30 8551 O 834.648 1.30288 -1.27794 0
M  V30 8552 C 834.699 -1.5722 -3.25522 0
M  V30 8553 O 834.42 -2.96677 -3.22358 0
M  V30 8554 C 835.921 -1.4446 -4.19102 0
M  V30 8555 H 833.141 -0.358094 -0.567459 0
M  V30 8556 H 835.685 -1.57738 -1.3015 0
M  V30 8557 H 833.84 -1.05174 -3.7285 0
M  V30 8558 H 834.254 -3.22795 -4.13405 0
M  V30 8559 H 835.728 -1.88209 -5.18923 0
M  V30 8560 H 836.205 -0.394471 -4.37425 0
M  V30 8561 H 836.811 -1.95616 -3.77643 0
M  V30 8562 N 835.127 1.22348 -0.993418 0
M  V30 8563 C 836.06 2.22898 -0.489073 0
M  V30 8564 C 837.038 1.56222 0.450927 0
M  V30 8565 O 838.222 1.84705 0.376351 0
M  V30 8566 C 835.349 3.37448 0.290946 0
M  V30 8567 C 834.395 4.22328 -0.595123 0
M  V30 8568 S 835.228 4.94677 -2.05072 0
M  V30 8569 C 836.384 6.12667 -1.28021 0
M  V30 8570 H 836.617 2.65333 -1.34111 0
M  V30 8571 H 834.15 1.32032 -0.800429 0
M  V30 8572 H 836.108 4.03867 0.734944 0
M  V30 8573 H 834.769 2.93519 1.11826 0
M  V30 8574 H 833.962 5.04 0.00507413 0
M  V30 8575 H 833.564 3.61043 -0.975906 0
M  V30 8576 H 835.856 6.75279 -0.548129 0
M  V30 8577 H 836.799 6.771 -2.07223 0
M  V30 8578 H 837.207 5.58898 -0.793272 0
M  V30 8579 N 836.605 0.766683 1.37694 0
M  V30 8580 C 837.535 0.163432 2.32927 0
M  V30 8581 C 838.516 -0.688861 1.55527 0
M  V30 8582 O 839.701 -0.627363 1.83787 0
M  V30 8583 C 836.831 -0.720416 3.39746 0
M  V30 8584 C 835.785 0.0301718 4.27989 0
M  V30 8585 C 835.111 -0.972788 5.25776 0
M  V30 8586 C 836.411 1.20623 5.0818 0
M  V30 8587 H 838.105 0.958988 2.83626 0
M  V30 8588 H 835.651 0.462601 1.36367 0
M  V30 8589 H 837.604 -1.15221 4.05342 0
M  V30 8590 H 836.328 -1.54844 2.8756 0
M  V30 8591 H 834.987 0.442685 3.63917 0
M  V30 8592 H 834.635 -1.79522 4.69873 0
M  V30 8593 H 834.335 -0.475145 5.85676 0
M  V30 8594 H 835.859 -1.40362 5.94248 0
M  V30 8595 H 837.273 0.851341 5.66944 0
M  V30 8596 H 835.67 1.63561 5.7738 0
M  V30 8597 H 836.74 2.01281 4.41151 0
M  V30 8598 N 838.083 -1.48885 0.516809 0
M  V30 8599 C 839.015 -2.27357 -0.290061 0
M  V30 8600 C 840.028 -1.34558 -0.916406 0
M  V30 8601 O 841.217 -1.59715 -0.797073 0
M  V30 8602 C 838.317 -3.07496 -1.42476 0
M  V30 8603 C 837.49 -4.27982 -0.902793 0
M  V30 8604 C 836.549 -4.90038 -1.91701 0
M  V30 8605 O 835.575 -5.49643 -1.47922 0
M  V30 8606 N 836.777 -4.811 -3.24843 0
M  V30 8607 H 839.542 -2.97244 0.382884 0
M  V30 8608 H 837.103 -1.58064 0.35032 0
M  V30 8609 H 839.095 -3.45882 -2.10113 0
M  V30 8610 H 837.665 -2.40115 -2.00159 0
M  V30 8611 H 836.885 -3.94167 -0.0508272 0
M  V30 8612 H 838.173 -5.06003 -0.532723 0
M  V30 8613 H 837.571 -4.33801 -3.63088 0
M  V30 8614 H 836.128 -5.23625 -3.8815 0
M  V30 8615 N 839.561 -0.251338 -1.55583 0
M  V30 8616 C 840.511 0.660351 -2.18228 0
M  V30 8617 C 841.495 1.13596 -1.13951 0
M  V30 8618 O 842.687 1.08499 -1.39846 0
M  V30 8619 C 839.816 1.85498 -2.88869 0
M  V30 8620 C 838.902 1.39767 -4.00407 0
M  V30 8621 N 839.293 0.654876 -5.01543 0
M  V30 8622 C 837.591 1.68259 -4.13044 0
M  V30 8623 C 838.292 0.417521 -5.802 0
M  V30 8624 N 837.268 0.983032 -5.34638 0
M  V30 8625 H 841.07 0.0847425 -2.93778 0
M  V30 8626 H 838.584 -0.0538456 -1.62311 0
M  V30 8627 H 840.581 2.51916 -3.3218 0
M  V30 8628 H 839.241 2.43477 -2.14823 0
M  V30 8629 H 840.252 0.304545 -5.17004 0
M  V30 8630 H 836.929 2.27344 -3.50172 0
M  V30 8631 H 838.319 -0.175764 -6.7167 0
M  V30 8632 N 841.039 1.57585 0.0217189 0
M  V30 8633 C 841.971 2.03849 1.04777 0
M  V30 8634 C 842.984 0.952558 1.32023 0
M  V30 8635 O 844.173 1.22974 1.29381 0
M  V30 8636 C 841.273 2.40504 2.3877 0
M  V30 8637 C 840.446 3.71566 2.30775 0
M  V30 8638 C 839.505 3.95329 3.47277 0
M  V30 8639 O 838.531 4.66289 3.26441 0
M  V30 8640 N 839.733 3.41536 4.69397 0
M  V30 8641 H 842.498 2.92491 0.653395 0
M  V30 8642 H 840.059 1.60538 0.209527 0
M  V30 8643 H 842.051 2.53532 3.15442 0
M  V30 8644 H 840.621 1.57494 2.70027 0
M  V30 8645 H 839.841 3.68822 1.39155 0
M  V30 8646 H 841.129 4.5753 2.22584 0
M  V30 8647 H 840.527 2.84033 4.89226 0
M  V30 8648 H 839.084 3.59932 5.43408 0
M  V30 8649 N 842.517 -0.29412 1.54831 0
M  V30 8650 C 843.467 -1.36476 1.82643 0
M  V30 8651 C 844.451 -1.45638 0.683984 0
M  V30 8652 O 845.643 -1.49675 0.944801 0
M  V30 8653 C 842.772 -2.72865 2.08326 0
M  V30 8654 C 841.858 -2.67898 3.28773 0
M  V30 8655 N 842.249 -2.32547 4.49172 0
M  V30 8656 C 840.547 -2.98991 3.30939 0
M  V30 8657 C 841.248 -2.37048 5.31209 0
M  V30 8658 N 840.224 -2.74679 4.69097 0
M  V30 8659 H 844.026 -1.08119 2.7329 0
M  V30 8660 H 841.54 -0.502718 1.54423 0
M  V30 8661 H 843.537 -3.5007 2.264 0
M  V30 8662 H 842.197 -3.02127 1.1895 0
M  V30 8663 H 843.208 -2.04883 4.7565 0
M  V30 8664 H 839.885 -3.33104 2.51691 0
M  V30 8665 H 841.275 -2.12457 6.37426 0
M  V30 8666 N 843.995 -1.47404 -0.557645 0
M  V30 8667 C 845.244 -1.53268 -1.31118 0
M  V30 8668 C 845.557 -0.199414 -1.94581 0
M  V30 8669 O 846.763 -0.136039 -2.71159 0
M  V30 8670 C 845.219 -2.70178 -2.37764 0
M  V30 8671 C 844.827 -4.10032 -1.80493 0
M  V30 8672 C 846.571 -2.85334 -3.14301 0
M  V30 8673 C 844.478 -5.18244 -2.84916 0
M  V30 8674 H 843.408 -0.570491 -0.493007 0
M  V30 8675 H 846.059 -1.73678 -0.592308 0
M  V30 8676 H 844.441 -2.43147 -3.12563 0
M  V30 8677 H 845.615 -4.46964 -1.12069 0
M  V30 8678 H 843.93 -3.99759 -1.16542 0
M  V30 8679 H 846.527 -3.63347 -3.92279 0
M  V30 8680 H 846.87 -1.93761 -3.68459 0
M  V30 8681 H 847.403 -3.12133 -2.46613 0
M  V30 8682 H 844.142 -6.11691 -2.35614 0
M  V30 8683 H 843.662 -4.85829 -3.51753 0
M  V30 8684 H 845.341 -5.45174 -3.48417 0
M  V30 8685 N 845.473 0.80434 -1.35529 0
M  V30 8686 C 846.719 1.56385 -1.29118 0
M  V30 8687 C 847.052 1.9374 0.133536 0
M  V30 8688 O 846.327 1.6153 1.08344 0
M  V30 8689 C 846.61 2.85097 -2.19981 0
M  V30 8690 C 846.463 2.54204 -3.7108 0
M  V30 8691 C 847.782 3.86817 -2.09907 0
M  V30 8692 H 844.901 0.567382 -0.470368 0
M  V30 8693 H 847.543 0.925235 -1.6595 0
M  V30 8694 H 845.693 3.39594 -1.88701 0
M  V30 8695 H 847.365 2.05872 -4.12813 0
M  V30 8696 H 845.608 1.87364 -3.91251 0
M  V30 8697 H 846.279 3.46068 -4.30048 0
M  V30 8698 H 848.755 3.41725 -2.37409 0
M  V30 8699 H 847.631 4.7465 -2.75678 0
M  V30 8700 H 847.892 4.28663 -1.08171 0
M  V30 8701 N 846.951 1.19563 1.02676 0
M  V30 8702 C 848.367 0.948304 1.28372 0
M  V30 8703 C 848.567 -0.378096 1.97921 0
M  V30 8704 O 847.623 -1.1091 2.26838 0
M  V30 8705 C 848.936 2.12381 2.12873 0
M  V30 8706 C 850.484 2.16366 2.26174 0
M  V30 8707 C 850.959 3.33374 3.14048 0
M  V30 8708 N 852.45 3.33323 3.21636 0
M  V30 8709 C 853.185 4.20504 3.89825 0
M  V30 8710 N 852.681 5.17845 4.60227 0
M  V30 8711 N 854.474 4.08375 3.86246 0
M  V30 8712 H 846.625 2.04899 0.559485 0
M  V30 8713 H 848.888 0.89606 0.309484 0
M  V30 8714 H 848.594 3.08383 1.69094 0
M  V30 8715 H 848.468 2.09621 3.1359 0
M  V30 8716 H 850.855 1.20933 2.69182 0
M  V30 8717 H 850.936 2.23179 1.25 0
M  V30 8718 H 850.58 4.29087 2.71747 0
M  V30 8719 H 850.51 3.23798 4.15286 0
M  V30 8720 H 853.001 2.62863 2.71498 0
M  V30 8721 H 853.314 5.80712 5.09896 0
M  V30 8722 H 851.659 5.21791 4.59085 0
M  V30 8723 H 854.85 3.31606 3.30386 0
M  V30 8724 H 855.023 4.76532 4.39114 0
M  V30 8725 N 848.429 -1.21819 0.999893 0
M  V30 8726 C 849.676 -1.90752 0.679694 0
M  V30 8727 C 850.004 -1.77777 -0.789014 0
M  V30 8728 O 849.259 -1.14518 -1.58695 0
M  V30 8729 C 849.558 -3.4193 1.04012 0
M  V30 8730 C 849.224 -3.75098 2.50225 0
M  V30 8731 C 847.886 -3.83861 2.90179 0
M  V30 8732 C 850.238 -3.90706 3.44961 0
M  V30 8733 C 847.566 -4.05676 4.23844 0
M  V30 8734 C 849.918 -4.14027 4.78294 0
M  V30 8735 C 848.582 -4.21016 5.17979 0
M  V30 8736 H 847.852 -0.698012 0.248718 0
M  V30 8737 H 850.499 -1.44437 1.25738 0
M  V30 8738 H 848.804 -3.89947 0.380606 0
M  V30 8739 H 850.501 -3.93532 0.770301 0
M  V30 8740 H 847.091 -3.68865 2.18258 0
M  V30 8741 H 851.275 -3.83307 3.15261 0
M  V30 8742 H 846.531 -4.09316 4.5417 0
M  V30 8743 H 850.705 -4.25046 5.51642 0
M  V30 8744 H 848.332 -4.37672 6.21568 0
M  V30 8745 N 849.908 -0.773975 -1.37286 0
M  V30 8746 C 851.155 -0.339306 -1.99637 0
M  V30 8747 C 851.483 1.08478 -1.61439 0
M  V30 8748 O 850.738 1.7612 -0.853252 0
M  V30 8749 C 851.037 -0.432651 -3.54772 0
M  V30 8750 C 850.703 -1.81531 -4.12744 0
M  V30 8751 C 849.365 -2.19366 -4.2829 0
M  V30 8752 C 851.717 -2.72137 -4.44512 0
M  V30 8753 C 849.045 -3.47239 -4.72908 0
M  V30 8754 C 851.397 -3.99421 -4.90556 0
M  V30 8755 C 850.061 -4.37298 -5.04308 0
M  V30 8756 H 849.331 -0.124161 -0.730524 0
M  V30 8757 H 851.978 -0.988432 -1.64019 0
M  V30 8758 H 850.283 0.30001 -3.9065 0
M  V30 8759 H 851.98 -0.0776 -4.00925 0
M  V30 8760 H 848.57 -1.51126 -4.01072 0
M  V30 8761 H 852.754 -2.44165 -4.32084 0
M  V30 8762 H 848.01 -3.76477 -4.81742 0
M  V30 8763 H 852.184 -4.69756 -5.14104 0
M  V30 8764 H 849.811 -5.36442 -5.38641 0
M  V30 8765 N 851.386 1.48609 -0.524698 0
M  V30 8766 C 852.634 2.02097 0.0112991 0
M  V30 8767 C 852.955 1.40455 1.35268 0
M  V30 8768 O 852.225 0.56807 1.87483 0
M  V30 8769 H 850.805 0.746966 0.00716426 0
M  V30 8770 H 853.467 1.82378 -0.687329 0
M  V30 8771 H 852.563 3.11855 0.123531 0
M  V30 8772 N 852.864 0.259585 1.55447 0
M  V30 8773 C 854.11 -0.362143 1.9954 0
M  V30 8774 C 854.443 -1.5666 1.14767 0
M  V30 8775 O 853.718 -1.93319 0.214025 0
M  V30 8776 C 854.001 -0.759588 3.51998 0
M  V30 8777 C 853.854 0.451134 4.47532 0
M  V30 8778 C 855.173 -1.60186 4.09913 0
M  V30 8779 H 852.292 -0.130157 0.725416 0
M  V30 8780 H 854.934 0.363431 1.86492 0
M  V30 8781 H 853.084 -1.3778 3.63248 0
M  V30 8782 H 854.756 1.08965 4.48246 0
M  V30 8783 H 852.999 1.092 4.19831 0
M  V30 8784 H 853.67 0.129518 5.51848 0
M  V30 8785 H 856.146 -1.0799 4.01842 0
M  V30 8786 H 855.022 -1.84879 5.16828 0
M  V30 8787 H 855.283 -2.57787 3.59163 0
M  V30 8788 N 854.342 -1.57594 -0.0133615 0
M  V30 8789 C 855.582 -1.91834 -0.705639 0
M  V30 8790 C 855.946 -0.859801 -1.71672 0
M  V30 8791 O 857.147 -1.08702 -2.4584 0
M  V30 8792 C 855.418 -3.31174 -1.34383 0
M  V30 8793 S 856.977 -3.87275 -2.06309 0
M  V30 8794 H 853.795 -0.671598 -0.233404 0
M  V30 8795 H 856.397 -1.95459 0.0401173 0
M  V30 8796 H 855.101 -4.06065 -0.594939 0
M  V30 8797 H 854.632 -3.3089 -2.12781 0
M  V30 8798 H 856.647 -3.67271 -3.33657 0
M  V30 8799 N 855.82 0.285905 -1.54985 0
M  V30 8800 C 857.048 1.03776 -1.78992 0
M  V30 8801 C 857.463 1.80402 -0.556814 0
M  V30 8802 O 856.82 1.76242 0.473801 0
M  V30 8803 C 856.871 2.0065 -3.00702 0
M  V30 8804 O 856.592 1.27131 -4.19249 0
M  V30 8805 C 858.093 2.87753 -3.37214 0
M  V30 8806 H 855.313 0.307126 -0.596586 0
M  V30 8807 H 857.857 0.3206 -2.01971 0
M  V30 8808 H 856.012 2.67847 -2.79887 0
M  V30 8809 H 856.426 1.92316 -4.8797 0
M  V30 8810 H 857.9 3.51548 -4.2558 0
M  V30 8811 H 858.377 3.56848 -2.56039 0
M  V30 8812 H 858.983 2.26065 -3.60242 0
M  V30 8813 N 857.298 1.47698 0.54982 0
M  V30 8814 C 858.208 1.63386 1.68351 0
M  V30 8815 C 859.224 0.516583 1.66155 0
M  V30 8816 O 860.4 0.785088 1.85468 0
M  V30 8817 C 857.465 1.6513 3.04849 0
M  V30 8818 C 856.526 2.88338 3.18056 0
M  V30 8819 C 855.759 2.8999 4.48042 0
M  V30 8820 O 855.982 2.00633 5.3395 0
M  V30 8821 O 854.916 3.81938 4.65196 0
M  V30 8822 H 858.742 2.59329 1.58057 0
M  V30 8823 H 856.327 1.30869 0.72067 0
M  V30 8824 H 858.209 1.68913 3.86065 0
M  V30 8825 H 856.884 0.723555 3.1551 0
M  V30 8826 H 855.791 2.90097 2.36209 0
M  V30 8827 H 857.124 3.80431 3.12302 0
M  V30 8828 N 858.776 -0.797141 1.35954 0
M  V30 8829 C 860.024 -1.55161 1.29497 0
M  V30 8830 C 860.345 -1.94582 -0.127659 0
M  V30 8831 O 859.615 -1.64343 -1.06622 0
M  V30 8832 H 858.195 -0.575413 0.47635 0
M  V30 8833 H 860.857 -0.950282 1.70164 0
M  V30 8834 H 859.953 -2.46272 1.9172 0
M  V30 8835 N 860.254 -1.20106 -1.0204 0
M  V30 8836 C 861.67 -0.955099 -1.27867 0
M  V30 8837 C 861.87 0.367595 -1.98119 0
M  V30 8838 O 860.926 1.09705 -2.27423 0
M  V30 8839 C 862.239 -2.13507 -2.11744 0
M  V30 8840 C 863.787 -2.17563 -2.25023 0
M  V30 8841 C 864.262 -3.35035 -3.12275 0
M  V30 8842 N 865.753 -3.35024 -3.19864 0
M  V30 8843 C 866.488 -4.22566 -3.8759 0
M  V30 8844 N 865.984 -5.20278 -4.57474 0
M  V30 8845 N 867.777 -4.10418 -3.84075 0
M  V30 8846 H 859.928 -2.05193 -0.54861 0
M  V30 8847 H 862.191 -0.897689 -0.304728 0
M  V30 8848 H 861.897 -3.09275 -1.67456 0
M  V30 8849 H 861.771 -2.11281 -3.12474 0
M  V30 8850 H 864.158 -1.22359 -2.68537 0
M  V30 8851 H 864.239 -2.23838 -1.23815 0
M  V30 8852 H 863.883 -4.30522 -2.69468 0
M  V30 8853 H 863.813 -3.25996 -4.13563 0
M  V30 8854 H 866.304 -2.64299 -2.701 0
M  V30 8855 H 866.617 -5.83408 -5.06809 0
M  V30 8856 H 864.962 -5.24219 -4.56311 0
M  V30 8857 H 868.153 -3.33353 -3.28623 0
M  V30 8858 H 868.326 -4.78854 -4.36581 0
M  V30 8859 N 861.732 1.21287 -1.00634 0
M  V30 8860 C 863.143 1.72136 -0.722914 0
M  V30 8861 C 863.494 1.8091 0.759338 0
M  V30 8862 O 862.619 1.46458 1.59308 0
M  V30 8863 C 863.214 3.12633 -1.30561 0
M  V30 8864 C 861.773 3.60833 -1.07127 0
M  V30 8865 C 860.92 2.38326 -1.4176 0
M  V30 8866 H 863.871 1.06445 -1.17708 0
M  V30 8867 H 863.892 3.74174 -0.690937 0
M  V30 8868 H 863.404 3.06215 -2.38441 0
M  V30 8869 H 861.505 3.72599 -0.00968671 0
M  V30 8870 H 861.618 4.46226 -1.74411 0
M  V30 8871 H 859.982 2.40575 -0.836412 0
M  V30 8872 H 860.765 2.34558 -2.50674 0
M  V30 8873 N 863.21 0.781244 1.36873 0
M  V30 8874 C 864.14 0.188128 2.32741 0
M  V30 8875 C 865.121 -0.672326 1.56249 0
M  V30 8876 O 866.306 -0.607835 1.84442 0
M  V30 8877 C 863.436 -0.684341 3.40491 0
M  V30 8878 C 862.39 0.0755641 4.27933 0
M  V30 8879 C 861.716 -0.916968 5.26779 0
M  V30 8880 C 863.016 1.26006 5.06873 0
M  V30 8881 H 864.71 0.989016 2.82593 0
M  V30 8882 H 862.256 0.477038 1.35869 0
M  V30 8883 H 864.209 -1.10915 4.06541 0
M  V30 8884 H 862.933 -1.51785 2.89187 0
M  V30 8885 H 861.592 0.481258 3.63427 0
M  V30 8886 H 861.24 -1.74528 4.71751 0
M  V30 8887 H 860.94 -0.413 5.86147 0
M  V30 8888 H 862.464 -1.34052 5.95703 0
M  V30 8889 H 863.878 0.911425 5.66009 0
M  V30 8890 H 862.275 1.69676 5.75613 0
M  V30 8891 H 863.345 2.05948 4.38991 0
M  V30 8892 N 864.689 -1.48329 0.532571 0
M  V30 8893 C 865.619 -2.32485 -0.217511 0
M  V30 8894 C 866.6 -1.42255 -0.932598 0
M  V30 8895 O 867.785 -1.7114 -0.917873 0
M  V30 8896 C 864.915 -3.23509 -1.26329 0
M  V30 8897 C 863.869 -4.22784 -0.666191 0
M  V30 8898 C 863.195 -5.0296 -1.81482 0
M  V30 8899 C 864.495 -5.21031 0.363813 0
M  V30 8900 H 866.189 -2.95445 0.485014 0
M  V30 8901 H 863.735 -1.42075 0.234694 0
M  V30 8902 H 865.688 -3.81211 -1.79601 0
M  V30 8903 H 864.412 -2.58554 -1.99543 0
M  V30 8904 H 863.071 -3.66272 -0.15498 0
M  V30 8905 H 862.719 -4.34427 -2.5354 0
M  V30 8906 H 862.419 -5.70154 -1.4212 0
M  V30 8907 H 863.943 -5.63514 -2.35126 0
M  V30 8908 H 865.357 -5.73241 -0.0819079 0
M  V30 8909 H 863.754 -5.96292 0.674956 0
M  V30 8910 H 864.824 -4.6801 1.26865 0
M  V30 8911 N 866.167 -0.267825 -1.55308 0
M  V30 8912 C 867.1 0.663973 -2.18327 0
M  V30 8913 C 868.078 1.15759 -1.14187 0
M  V30 8914 O 869.262 1.23189 -1.42677 0
M  V30 8915 C 866.389 1.9047 -2.8007 0
M  V30 8916 C 865.435 1.54718 -3.97447 0
M  V30 8917 S 866.268 0.631654 -5.31762 0
M  V30 8918 C 867.424 1.88092 -5.96969 0
M  V30 8919 H 867.657 0.128486 -2.97022 0
M  V30 8920 H 865.19 -0.052129 -1.54312 0
M  V30 8921 H 867.148 2.61688 -3.16275 0
M  V30 8922 H 865.809 2.41132 -2.01281 0
M  V30 8923 H 865.002 2.47022 -4.39313 0
M  V30 8924 H 864.604 0.915254 -3.62628 0
M  V30 8925 H 866.896 2.82572 -6.15759 0
M  V30 8926 H 867.839 1.50539 -6.91913 0
M  V30 8927 H 868.247 2.04254 -5.26252 0
M  V30 8928 N 867.645 1.57599 0.00500368 0
M  V30 8929 C 868.891 1.90631 0.691919 0
M  V30 8930 C 869.224 0.868443 1.737 0
M  V30 8931 O 868.499 -0.113482 1.94169 0
M  V30 8932 C 868.782 3.34255 1.33961 0
M  V30 8933 C 868.635 4.48755 0.306413 0
M  V30 8934 C 869.954 3.77211 2.26715 0
M  V30 8935 H 867.073 0.693279 0.250066 0
M  V30 8936 H 869.715 1.89946 -0.0452634 0
M  V30 8937 H 867.865 3.3497 1.96793 0
M  V30 8938 H 869.537 4.60176 -0.321841 0
M  V30 8939 H 867.78 4.32203 -0.371852 0
M  V30 8940 H 868.451 5.46193 0.798554 0
M  V30 8941 H 870.927 3.78017 1.73904 0
M  V30 8942 H 869.803 4.78466 2.69002 0
M  V30 8943 H 870.064 3.10801 3.14413 0
M  V30 8944 N 869.123 -0.277682 1.55134 0
M  V30 8945 C 870.37 -1.0099 1.7552 0
M  V30 8946 C 870.698 -1.86452 0.553712 0
M  V30 8947 O 869.953 -1.90122 -0.463896 0
M  V30 8948 C 870.252 -1.92599 3.01065 0
M  V30 8949 C 869.918 -1.22926 4.3382 0
M  V30 8950 C 868.58 -1.03659 4.69902 0
M  V30 8951 C 870.932 -0.733071 5.16019 0
M  V30 8952 C 868.26 -0.334933 5.85743 0
M  V30 8953 C 870.612 -0.0450319 6.32584 0
M  V30 8954 C 869.276 0.159393 6.6731 0
M  V30 8955 H 868.546 -0.36955 0.642273 0
M  V30 8956 H 871.193 -0.282611 1.89403 0
M  V30 8957 H 869.498 -2.71934 2.82062 0
M  V30 8958 H 871.195 -2.49367 3.14034 0
M  V30 8959 H 867.785 -1.38933 4.05457 0
M  V30 8960 H 871.969 -0.869565 4.88623 0
M  V30 8961 H 867.225 -0.165783 6.11175 0
M  V30 8962 H 871.399 0.34723 6.95534 0
M  V30 8963 H 869.026 0.70507 7.56923 0
M  V30 8964 N 870.601 -1.47988 -0.541979 0
M  V30 8965 C 871.511 -1.64276 -1.67483 0
M  V30 8966 C 872.527 -0.525387 -1.65879 0
M  V30 8967 O 873.703 -0.794912 -1.85049 0
M  V30 8968 C 870.768 -1.66744 -3.03969 0
M  V30 8969 C 869.829 -2.90021 -3.16522 0
M  V30 8970 C 869.062 -2.92362 -4.46498 0
M  V30 8971 O 869.285 -2.03462 -5.32878 0
M  V30 8972 O 868.219 -3.84399 -4.63164 0
M  V30 8973 H 872.045 -2.60164 -1.5668 0
M  V30 8974 H 869.63 -1.31249 -0.71372 0
M  V30 8975 H 871.512 -1.70958 -3.85164 0
M  V30 8976 H 870.187 -0.740277 -3.15122 0
M  V30 8977 H 869.094 -2.91345 -2.34667 0
M  V30 8978 H 870.427 -3.82082 -3.10281 0
M  V30 8979 N 872.079 0.78992 -1.36375 0
M  V30 8980 C 873.309 1.57644 -1.33536 0
M  V30 8981 C 873.717 1.89007 0.0855075 0
M  V30 8982 O 873.06 1.50547 1.05267 0
M  V30 8983 C 873.122 2.92424 -2.09113 0
M  V30 8984 C 872.786 2.83793 -3.58205 0
M  V30 8985 C 873.783 2.56072 -4.52464 0
M  V30 8986 C 871.468 3.02386 -4.01084 0
M  V30 8987 C 873.462 2.47044 -5.87578 0
M  V30 8988 C 871.149 2.9298 -5.36289 0
M  V30 8989 C 872.147 2.65347 -6.29349 0
M  V30 8990 O 871.835 2.55935 -7.62071 0
M  V30 8991 H 871.567 0.495639 -0.459694 0
M  V30 8992 H 874.121 0.988354 -1.80058 0
M  V30 8993 H 872.351 3.53282 -1.57254 0
M  V30 8994 H 874.04 3.53693 -1.99139 0
M  V30 8995 H 874.806 2.4141 -4.2065 0
M  V30 8996 H 870.685 3.229 -3.29023 0
M  V30 8997 H 874.229 2.25396 -6.60184 0
M  V30 8998 H 870.126 3.07204 -5.67711 0
M  V30 8999 H 870.894 2.7142 -7.72187 0
M  V30 9000 N 873.557 1.20646 1.01402 0
M  V30 9001 C 874.49 0.900926 2.09663 0
M  V30 9002 C 875.468 -0.14801 1.61925 0
M  V30 9003 O 876.652 -0.0210235 1.88488 0
M  V30 9004 C 873.779 0.351097 3.36875 0
M  V30 9005 C 872.825 1.38142 4.03508 0
M  V30 9006 S 873.658 2.94741 4.47089 0
M  V30 9007 C 874.814 2.41341 5.77499 0
M  V30 9008 H 875.047 1.81773 2.35257 0
M  V30 9009 H 872.58 1.03521 1.14555 0
M  V30 9010 H 874.538 0.0404201 4.1048 0
M  V30 9011 H 873.199 -0.544255 3.09349 0
M  V30 9012 H 872.392 0.94614 4.9504 0
M  V30 9013 H 871.994 1.63971 3.36139 0
M  V30 9014 H 874.286 1.81263 6.52802 0
M  V30 9015 H 875.229 3.31278 6.25828 0
M  V30 9016 H 875.637 1.83374 5.33886 0
M  V30 9017 N 875.035 -1.20752 1.01276 0
M  V30 9018 C 876.451 -1.42084 0.726934 0
M  V30 9019 C 876.651 -1.89138 -0.694907 0
M  V30 9020 O 875.707 -2.05783 -1.4632 0
M  V30 9021 C 877.02 -2.44575 1.74938 0
M  V30 9022 C 878.568 -2.58347 1.76708 0
M  V30 9023 C 879.043 -3.64078 2.77869 0
M  V30 9024 N 880.534 -3.71558 2.76585 0
M  V30 9025 C 881.269 -4.53016 3.51517 0
M  V30 9026 N 880.765 -5.38309 4.36114 0
M  V30 9027 N 882.558 -4.47512 3.40132 0
M  V30 9028 H 874.709 -0.885228 1.93074 0
M  V30 9029 H 876.972 -0.451075 0.833808 0
M  V30 9030 H 876.678 -2.1699 2.76782 0
M  V30 9031 H 876.552 -3.43503 1.55838 0
M  V30 9032 H 878.939 -2.85265 0.755516 0
M  V30 9033 H 879.02 -1.59628 1.99882 0
M  V30 9034 H 878.664 -3.37905 3.79187 0
M  V30 9035 H 878.594 -4.62412 2.51958 0
M  V30 9036 H 881.085 -3.10629 2.15216 0
M  V30 9037 H 881.398 -5.9754 4.90068 0
M  V30 9038 H 879.743 -5.37824 4.40194 0
M  V30 9039 H 882.934 -3.79912 2.73467 0
M  V30 9040 H 883.107 -5.10759 3.98784 0
M  V30 9041 N 876.513 -0.788492 -1.36457 0
M  V30 9042 C 877.463 -0.159377 -2.27442 0
M  V30 9043 C 878.447 0.656146 -1.46913 0
M  V30 9044 O 879.639 0.516372 -1.693 0
M  V30 9045 C 876.768 0.705703 -3.35968 0
M  V30 9046 C 875.854 -0.11856 -4.23934 0
M  V30 9047 N 876.245 -1.1726 -4.9202 0
M  V30 9048 C 874.543 0.102752 -4.45882 0
M  V30 9049 C 875.244 -1.6743 -5.57083 0
M  V30 9050 N 874.22 -0.983682 -5.34626 0
M  V30 9051 H 878.022 -0.96614 -2.77566 0
M  V30 9052 H 875.536 -0.627864 -1.49772 0
M  V30 9053 H 877.533 1.17231 -4.00078 0
M  V30 9054 H 876.193 1.51102 -2.87399 0
M  V30 9055 H 877.204 -1.55502 -4.94004 0
M  V30 9056 H 873.881 0.878651 -4.08149 0
M  V30 9057 H 875.271 -2.55423 -6.21457 0
M  V30 9058 N 877.991 1.48044 -0.54043 0
M  V30 9059 C 879.239 2.02097 -0.0101367 0
M  V30 9060 C 879.56 1.41881 1.33771 0
M  V30 9061 O 878.83 0.587923 1.8687 0
M  V30 9062 H 877.41 0.747 -0.000758716 0
M  V30 9063 H 880.072 1.81639 -0.706634 0
M  V30 9064 H 879.168 3.11969 0.0904474 0
M  V30 9065 N 879.47 0.276058 1.55163 0
M  V30 9066 C 880.747 -0.392292 1.91626 0
M  V30 9067 C 881.127 -1.73646 1.20043 0
M  V30 9068 O 880.475 -2.26139 0.327606 0
M  V30 9069 C 880.685 -0.531641 3.44927 0
M  V30 9070 C 882.033 -0.8141 4.16722 0
M  V30 9071 O 883.057 -0.616413 3.50826 0
M  V30 9072 O 881.916 -1.19224 5.33337 0
M  V30 9073 H 879.01 -0.214945 0.798579 0
M  V30 9074 H 881.556 0.32228 1.66612 0
M  V30 9075 H 880.328 0.414282 3.89101 0
M  V30 9076 H 879.951 -1.29564 3.75897 0
M  V30 9077 N 880.948 -1.576 0.00335426 0
M  V30 9078 C 881.878 -2.11668 -0.985839 0
M  V30 9079 C 882.859 -1.02661 -1.35627 0
M  V30 9080 O 884.044 -1.30361 -1.43943 0
M  V30 9081 C 881.174 -2.62273 -2.27662 0
M  V30 9082 C 880.128 -3.75837 -2.0477 0
M  V30 9083 C 879.454 -4.12769 -3.39891 0
M  V30 9084 C 880.754 -5.02975 -1.40759 0
M  V30 9085 H 882.448 -2.9457 -0.535637 0
M  V30 9086 H 879.994 -1.41702 -0.256204 0
M  V30 9087 H 881.947 -2.98727 -2.97221 0
M  V30 9088 H 880.671 -1.76498 -2.74802 0
M  V30 9089 H 879.33 -3.39782 -1.37636 0
M  V30 9090 H 878.978 -3.24013 -3.8474 0
M  V30 9091 H 878.678 -4.89281 -3.25389 0
M  V30 9092 H 880.202 -4.51784 -4.1076 0
M  V30 9093 H 881.616 -5.37179 -2.00279 0
M  V30 9094 H 880.013 -5.84315 -1.36734 0
M  V30 9095 H 881.083 -4.83431 -0.377218 0
M  V30 9096 N 882.426 0.269451 -1.5528 0
M  V30 9097 C 883.374 1.35303 -1.89198 0
M  V30 9098 C 884.368 1.50956 -0.768671 0
M  V30 9099 O 885.574 1.52699 -0.953054 0
M  V30 9100 H 881.949 0.452591 -0.600554 0
M  V30 9101 H 883.92 1.03949 -2.79709 0
M  V30 9102 C 882.669 2.70585 -2.18356 0
M  V30 9103 H 881.992 2.59332 -3.04281 0
M  V30 9104 H 883.432 3.45335 -2.46007 0
M  V30 9105 C 881.891 3.21954 -0.992327 0
M  V30 9106 O 882.421 4.01048 -0.228769 0
M  V30 9107 N 880.627 2.79682 -0.789062 0
M  V30 9108 H 880.174 2.15475 -1.41167 0
M  V30 9109 H 880.132 3.14399 0.00634776 0
M  V30 9110 N 883.904 1.48273 0.534124 0
M  V30 9111 C 885.32 1.34302 0.862272 0
M  V30 9112 C 885.52 0.350902 1.98421 0
M  V30 9113 O 884.576 -0.229364 2.51456 0
M  V30 9114 C 885.889 2.74227 1.23371 0
M  V30 9115 C 887.437 2.82684 1.34383 0
M  V30 9116 C 887.912 4.23301 1.74871 0
M  V30 9117 N 889.403 4.25954 1.81981 0
M  V30 9118 C 890.138 5.31693 2.14686 0
M  V30 9119 N 889.634 6.47714 2.45844 0
M  V30 9120 N 891.427 5.19084 2.15657 0
M  V30 9121 H 883.578 2.11397 -0.206215 0
M  V30 9122 H 885.841 0.947537 -0.0296116 0
M  V30 9123 H 885.547 3.48368 0.482967 0
M  V30 9124 H 885.421 3.07485 2.18478 0
M  V30 9125 H 887.808 2.08801 2.08534 0
M  V30 9126 H 887.889 2.5305 0.374063 0
M  V30 9127 H 887.533 4.97699 1.01282 0
M  V30 9128 H 887.463 4.50376 2.7289 0
M  V30 9129 H 889.954 3.42266 1.60196 0
M  V30 9130 H 890.267 7.2414 2.69892 0
M  V30 9131 H 888.612 6.50995 2.43372 0
M  V30 9132 H 891.803 4.27463 1.9077 0
M  V30 9133 H 891.976 6.01592 2.40813 0
M  V30 9134 N 885.382 -0.782676 1.36792 0
M  V30 9135 C 886.629 -1.54083 1.31395 0
M  V30 9136 C 886.957 -1.94217 -0.104797 0
M  V30 9137 O 886.212 -1.63491 -1.0756 0
M  V30 9138 C 886.511 -2.82542 2.18872 0
M  V30 9139 C 886.177 -2.61512 3.67317 0
M  V30 9140 C 884.839 -2.55486 4.07775 0
M  V30 9141 C 887.191 -2.42389 4.61407 0
M  V30 9142 C 884.519 -2.28311 5.40454 0
M  V30 9143 C 886.871 -2.1674 5.94312 0
M  V30 9144 C 885.535 -2.09151 6.33887 0
M  V30 9145 H 884.805 -0.563829 0.48081 0
M  V30 9146 H 887.452 -0.902436 1.68903 0
M  V30 9147 H 885.757 -3.50883 1.74323 0
M  V30 9148 H 887.454 -3.40367 2.12017 0
M  V30 9149 H 884.044 -2.67062 3.35225 0
M  V30 9150 H 888.228 -2.46043 4.31018 0
M  V30 9151 H 883.484 -2.20922 5.70091 0
M  V30 9152 H 887.658 -2.0094 6.6678 0
M  V30 9153 H 885.285 -1.87857 7.36623 0
M  V30 9154 N 886.86 -1.21182 -1.00761 0
M  V30 9155 C 887.79 -0.992773 -2.11344 0
M  V30 9156 C 888.771 0.0813618 -1.69905 0
M  V30 9157 O 889.956 -0.0779503 -1.94043 0
M  V30 9158 C 887.086 -0.553826 -3.42856 0
M  V30 9159 C 886.04 -1.57223 -3.98077 0
M  V30 9160 C 885.366 -0.989605 -5.25463 0
M  V30 9161 C 886.666 -2.95839 -4.30438 0
M  V30 9162 H 888.36 -1.91766 -2.29927 0
M  V30 9163 H 885.906 -0.923426 -1.10494 0
M  V30 9164 H 887.859 -0.387771 -4.19612 0
M  V30 9165 H 886.583 0.406702 -3.24058 0
M  V30 9166 H 885.242 -1.7258 -3.23437 0
M  V30 9167 H 884.89 -0.0208743 -5.02996 0
M  V30 9168 H 884.59 -1.66984 -5.63374 0
M  V30 9169 H 886.114 -0.834815 -6.04866 0
M  V30 9170 H 887.528 -2.8394 -4.98047 0
M  V30 9171 H 885.925 -3.60851 -4.79486 0
M  V30 9172 H 886.995 -3.46882 -3.38823 0
M  V30 9173 N 888.338 1.20213 -1.01915 0
M  V30 9174 C 889.754 1.41696 -0.734459 0
M  V30 9175 C 889.954 1.89504 0.684867 0
M  V30 9176 O 889.01 2.06556 1.45227 0
M  V30 9177 C 890.323 2.43644 -1.76233 0
M  V30 9178 C 891.871 2.57406 -1.78076 0
M  V30 9179 C 892.346 3.626 -2.79796 0
M  V30 9180 N 893.837 3.70086 -2.78551 0
M  V30 9181 C 894.572 4.51145 -3.53915 0
M  V30 9182 N 894.068 5.35988 -4.38963 0
M  V30 9183 N 895.861 4.45702 -3.425 0
M  V30 9184 H 888.012 0.874976 -1.93541 0
M  V30 9185 H 890.275 0.446647 -0.836188 0
M  V30 9186 H 889.981 2.15519 -2.77929 0
M  V30 9187 H 889.855 3.42672 -1.57657 0
M  V30 9188 H 892.242 2.8486 -0.770634 0
M  V30 9189 H 892.323 1.58565 -2.00725 0
M  V30 9190 H 891.967 3.35889 -3.80973 0
M  V30 9191 H 891.897 4.61069 -2.54407 0
M  V30 9192 H 894.388 3.09484 -2.1686 0
M  V30 9193 H 894.701 5.94932 -4.9323 0
M  V30 9194 H 893.046 5.35482 -4.4304 0
M  V30 9195 H 896.237 3.78456 -2.75478 0
M  V30 9196 H 896.41 5.08637 -4.01487 0
M  V30 9197 N 889.816 0.795718 1.36037 0
M  V30 9198 C 891.041 0.38204 2.03851 0
M  V30 9199 C 891.466 -0.995553 1.59594 0
M  V30 9200 O 890.824 -1.64258 0.767401 0
M  V30 9201 C 890.872 0.461248 3.57638 0
M  V30 9202 O 889.976 -0.529448 4.08987 0
M  V30 9203 H 889.317 0.161227 0.644129 0
M  V30 9204 H 891.847 1.07858 1.73861 0
M  V30 9205 H 891.857 0.32712 4.06687 0
M  V30 9206 H 890.532 1.46613 3.89201 0
M  V30 9207 H 889.109 -0.35646 3.71192 0
M  V30 9208 N 891.294 -1.47756 0.548274 0
M  V30 9209 C 892.244 -2.26891 -0.224628 0
M  V30 9210 C 893.228 -1.33816 -0.893421 0
M  V30 9211 O 894.42 -1.58232 -0.793204 0
M  V30 9212 C 891.549 -3.19358 -1.25959 0
M  V30 9213 C 890.635 -4.1991 -0.594662 0
M  V30 9214 N 891.026 -5.04721 0.330148 0
M  V30 9215 C 889.324 -4.37832 -0.849672 0
M  V30 9216 C 890.025 -5.77282 0.71553 0
M  V30 9217 N 889.001 -5.43552 0.0723997 0
M  V30 9218 H 892.803 -2.89844 0.486561 0
M  V30 9219 H 890.317 -1.58185 0.367577 0
M  V30 9220 H 892.314 -3.74726 -1.82718 0
M  V30 9221 H 890.974 -2.57961 -1.97196 0
M  V30 9222 H 891.985 -5.13095 0.703811 0
M  V30 9223 H 888.662 -3.87612 -1.55123 0
M  V30 9224 H 890.052 -6.55512 1.47493 0
M  V30 9225 N 892.772 -0.284283 -1.55015 0
M  V30 9226 C 894.02 0.329212 -1.99401 0
M  V30 9227 C 894.341 1.55687 -1.17416 0
M  V30 9228 O 893.611 1.94087 -0.265937 0
M  V30 9229 H 892.191 0.12463 -0.73653 0
M  V30 9230 H 894.853 -0.391743 -1.90922 0
M  V30 9231 H 893.949 0.61278 -3.06025 0
M  V30 9232 N 894.251 1.57596 -0.0117121 0
M  V30 9233 C 895.662 1.79033 0.529521 0
M  V30 9234 C 896.013 0.920299 1.73277 0
M  V30 9235 O 895.138 0.125934 2.16033 0
M  V30 9236 C 895.733 3.24695 0.967405 0
M  V30 9237 C 894.292 3.47188 1.45387 0
M  V30 9238 C 893.439 2.74245 0.410466 0
M  V30 9239 H 896.39 1.56908 -0.237836 0
M  V30 9240 H 896.411 3.33451 1.83278 0
M  V30 9241 H 895.923 3.87992 0.0914605 0
M  V30 9242 H 894.024 2.89121 2.35032 0
M  V30 9243 H 894.137 4.55886 1.47325 0
M  V30 9244 H 892.501 2.39209 0.874721 0
M  V30 9245 H 893.284 3.40248 -0.456713 0
M  V30 9246 N 895.729 -0.261212 1.5542 0
M  V30 9247 C 897.006 -1.01321 1.67312 0
M  V30 9248 C 897.386 -2.0388 0.547356 0
M  V30 9249 O 896.734 -2.24003 -0.451083 0
M  V30 9250 C 896.944 -1.65943 3.07024 0
M  V30 9251 C 898.292 -2.16666 3.65159 0
M  V30 9252 O 899.316 -1.75909 3.09733 0
M  V30 9253 O 898.175 -2.91455 4.62294 0
M  V30 9254 H 895.269 -0.470714 0.679968 0
M  V30 9255 H 897.815 -0.256133 1.67756 0
M  V30 9256 H 896.587 -0.916868 3.80407 0
M  V30 9257 H 896.21 -2.48308 3.1053 0
M  V30 9258 N 897.207 -1.48554 -0.526253 0
M  V30 9259 C 898.17 -1.62868 -1.61266 0
M  V30 9260 C 899.17 -0.501762 -1.52771 0
M  V30 9261 O 900.36 -0.76764 -1.56374 0
M  V30 9262 C 897.492 -1.60238 -3.00893 0
M  V30 9263 H 898.685 -2.59742 -1.49913 0
M  V30 9264 H 896.238 -1.37207 -0.748595 0
M  V30 9265 H 896.973 -0.648545 -3.17749 0
M  V30 9266 H 896.758 -2.42054 -3.08468 0
M  V30 9267 H 898.248 -1.73455 -3.79872 0
M  V30 9268 N 898.685 0.775411 -1.37205 0
M  V30 9269 C 899.632 1.88857 -1.32671 0
M  V30 9270 C 900.602 1.64976 -0.192899 0
M  V30 9271 O 901.787 1.86944 -0.381673 0
M  V30 9272 C 898.927 3.25871 -1.13588 0
M  V30 9273 C 898.04 3.61731 -2.36167 0
M  V30 9274 C 897.175 4.87934 -2.09985 0
M  V30 9275 C 896.214 5.16514 -3.2845 0
M  V30 9276 N 895.351 6.33905 -3.01842 0
M  V30 9277 H 900.191 1.92068 -2.27846 0
M  V30 9278 H 897.728 0.939066 -1.13225 0
M  V30 9279 H 899.686 4.04903 -1.00546 0
M  V30 9280 H 898.316 3.22045 -0.220613 0
M  V30 9281 H 897.368 2.77712 -2.59962 0
M  V30 9282 H 898.68 3.78792 -3.24528 0
M  V30 9283 H 897.834 5.74863 -1.93953 0
M  V30 9284 H 896.573 4.7297 -1.18956 0
M  V30 9285 H 895.578 4.28063 -3.45025 0
M  V30 9286 H 896.803 5.33389 -4.20325 0
M  V30 9287 H 894.749 6.20306 -2.13439 0
M  V30 9288 H 894.666 6.51364 -3.83746 0
M  V30 9289 H 895.934 7.23779 -2.8942 0
M  V30 9290 N 900.163 1.21714 1.00117 0
M  V30 9291 C 901.093 1.00397 2.10815 0
M  V30 9292 C 902.074 -0.0723502 1.69946 0
M  V30 9293 O 903.259 0.0882398 1.93999 0
M  V30 9294 C 900.389 0.572001 3.42557 0
M  V30 9295 C 899.343 1.59331 3.97237 0
M  V30 9296 C 898.669 1.01746 5.2493 0
M  V30 9297 C 899.969 2.98117 4.28863 0
M  V30 9298 H 901.663 1.92983 2.28906 0
M  V30 9299 H 899.209 0.929273 1.10002 0
M  V30 9300 H 901.162 0.410018 4.19401 0
M  V30 9301 H 899.886 -0.38951 3.24269 0
M  V30 9302 H 898.545 1.74293 3.22518 0
M  V30 9303 H 898.193 0.0475491 5.02978 0
M  V30 9304 H 897.893 1.69969 5.62481 0
M  V30 9305 H 899.417 0.866881 6.04415 0
M  V30 9306 H 900.831 2.86578 4.96534 0
M  V30 9307 H 899.228 3.63389 4.77565 0
M  V30 9308 H 900.298 3.48674 3.36979 0
M  V30 9309 N 901.641 -1.19671 1.02551 0
M  V30 9310 C 902.571 -2.25009 0.623965 0
M  V30 9311 C 903.552 -1.66129 -0.36538 0
M  V30 9312 O 904.737 -1.92599 -0.248842 0
M  V30 9313 C 901.867 -3.47287 -0.0294869 0
M  V30 9314 C 900.821 -4.18818 0.881781 0
M  V30 9315 C 900.147 -5.34618 0.0936189 0
M  V30 9316 C 901.447 -4.73986 2.19396 0
M  V30 9317 H 903.141 -2.58851 1.50454 0
M  V30 9318 H 900.687 -1.24425 0.724872 0
M  V30 9319 H 902.64 -4.20168 -0.322016 0
M  V30 9320 H 901.364 -3.12635 -0.944838 0
M  V30 9321 H 900.023 -3.47815 1.15845 0
M  V30 9322 H 899.671 -4.9621 -0.823661 0
M  V30 9323 H 899.371 -5.83409 0.700568 0
M  V30 9324 H 900.895 -6.10297 -0.192249 0
M  V30 9325 H 902.309 -5.38639 1.96319 0
M  V30 9326 H 900.706 -5.3325 2.75254 0
M  V30 9327 H 901.776 -3.92238 2.85092 0
M  V30 9328 N 903.119 -0.802921 -1.35613 0
M  V30 9329 C 904.082 -0.216422 -2.28176 0
M  V30 9330 C 905.082 0.594101 -1.49422 0
M  V30 9331 O 906.272 0.41312 -1.6923 0
M  V30 9332 C 903.404 0.698746 -3.33662 0
M  V30 9333 H 904.597 -1.03276 -2.81557 0
M  V30 9334 H 902.15 -0.573307 -1.45406 0
M  V30 9335 H 902.885 1.53891 -2.85461 0
M  V30 9336 H 902.67 0.119314 -3.91918 0
M  V30 9337 H 904.16 1.10354 -4.02755 0
M  V30 9338 N 904.597 1.47463 -0.556102 0
M  V30 9339 C 905.845 2.02075 -0.0315712 0
M  V30 9340 C 906.166 1.43292 1.32259 0
M  V30 9341 O 905.436 0.60771 1.86236 0
M  V30 9342 H 904.016 0.74695 -0.0086816 0
M  V30 9343 H 906.678 1.80879 -0.725859 0
M  V30 9344 H 905.774 3.12047 0.0573538 0
M  V30 9345 N 906.075 0.2925 1.54862 0
M  V30 9346 C 907.323 -0.318633 1.99572 0
M  V30 9347 C 907.644 -1.55062 1.1824 0
M  V30 9348 O 906.914 -1.93943 0.276226 0
M  V30 9349 H 905.494 -0.120722 0.737181 0
M  V30 9350 H 908.156 0.401862 1.90712 0
M  V30 9351 H 907.252 -0.596542 3.06346 0
M  V30 9352 N 907.553 -1.57587 0.0200696 0
M  V30 9353 C 908.463 -2.13119 -0.980676 0
M  V30 9354 C 909.479 -1.08124 -1.36328 0
M  V30 9355 O 910.655 -1.40134 -1.44653 0
M  V30 9356 C 907.72 -2.63991 -2.24743 0
M  V30 9357 C 906.781 -3.83667 -1.9261 0
M  V30 9358 C 906.014 -4.32103 -3.13246 0
M  V30 9359 O 906.237 -3.79758 -4.25606 0
M  V30 9360 O 905.171 -5.24047 -2.96072 0
M  V30 9361 H 908.997 -2.98887 -0.538528 0
M  V30 9362 H 906.582 -1.48055 -0.19999 0
M  V30 9363 H 908.464 -2.9682 -2.99125 0
M  V30 9364 H 907.139 -1.81311 -2.68157 0
M  V30 9365 H 906.046 -3.55778 -1.15641 0
M  V30 9366 H 907.379 -4.67482 -1.54019 0
M  V30 9367 N 909.032 0.252966 -1.55557 0
M  V30 9368 C 910.309 1.00432 -1.67847 0
M  V30 9369 C 910.689 2.03587 -0.55816 0
M  V30 9370 O 910.037 2.24239 0.439197 0
M  V30 9371 C 910.247 1.64313 -3.079 0
M  V30 9372 C 911.595 2.14726 -3.66303 0
M  V30 9373 O 912.619 1.74264 -3.10661 0
M  V30 9374 O 911.478 2.89 -4.63833 0
M  V30 9375 H 908.572 0.467102 -0.682455 0
M  V30 9376 H 911.118 0.247233 -1.67889 0
M  V30 9377 H 909.89 0.896681 -3.80888 0
M  V30 9378 H 909.513 2.46657 -3.11843 0
M  V30 9379 N 910.51 1.48831 0.518367 0
M  V30 9380 C 911.756 1.57672 1.27543 0
M  V30 9381 C 912.089 0.254915 1.9252 0
M  V30 9382 O 911.364 -0.740107 1.79868 0
M  V30 9383 C 911.647 2.72345 2.35585 0
M  V30 9384 C 911.5 4.14267 1.75224 0
M  V30 9385 C 912.819 2.82726 3.37274 0
M  V30 9386 H 909.938 0.573926 0.462361 0
M  V30 9387 H 912.58 1.8105 0.576267 0
M  V30 9388 H 910.73 2.52543 2.95219 0
M  V30 9389 H 912.402 4.45539 1.19551 0
M  V30 9390 H 910.645 4.20724 1.05706 0
M  V30 9391 H 911.316 4.90345 2.53507 0
M  V30 9392 H 913.792 3.00699 2.8761 0
M  V30 9393 H 912.668 3.6467 4.10252 0
M  V30 9394 H 912.929 1.9136 3.9854 0
M  V30 9395 N 911.988 -0.768124 1.37614 0
M  V30 9396 C 912.951 -1.86314 1.3349 0
M  V30 9397 C 913.951 -1.59025 0.23823 0
M  V30 9398 O 915.141 -1.6704 0.494288 0
M  V30 9399 C 912.273 -3.23519 1.07462 0
M  V30 9400 H 913.466 -1.91382 2.30896 0
M  V30 9401 H 911.019 -0.968267 1.22696 0
M  V30 9402 H 911.754 -3.24127 0.106028 0
M  V30 9403 H 911.539 -3.44719 1.86846 0
M  V30 9404 H 913.029 -4.03597 1.07236 0
M  V30 9405 N 913.466 -1.22244 -0.994698 0
M  V30 9406 C 914.877 -1.043 -1.5485 0
M  V30 9407 C 915.228 0.394102 -1.92201 0
M  V30 9408 O 914.353 1.27883 -1.74571 0
M  V30 9409 C 914.948 -1.88708 -2.8138 0
M  V30 9410 C 913.507 -1.75067 -3.3321 0
M  V30 9411 C 912.654 -1.85286 -2.06312 0
M  V30 9412 H 915.605 -1.36115 -0.815988 0
M  V30 9413 H 915.626 -1.40342 -3.53673 0
M  V30 9414 H 915.138 -2.93296 -2.54164 0
M  V30 9415 H 913.239 -0.732047 -3.65338 0
M  V30 9416 H 913.352 -2.57632 -4.03934 0
M  V30 9417 H 911.716 -1.28706 -2.19788 0
M  V30 9418 H 912.499 -2.91401 -1.81494 0
M  V30 9419 N 914.944 1.19125 -1.03184 0
M  V30 9420 C 916.192 1.8851 -0.728587 0
M  V30 9421 C 916.513 1.80195 0.74531 0
M  V30 9422 O 915.783 1.21437 1.5372 0
M  V30 9423 H 914.363 0.69784 -0.266511 0
M  V30 9424 H 917.025 1.44607 -1.3067 0
M  V30 9425 H 916.121 2.9477 -1.02554 0
M  V30 9426 N 916.422 0.810101 1.35185 0
M  V30 9427 C 917.833 0.452616 1.81131 0
M  V30 9428 C 918.184 -1.02573 1.67252 0
M  V30 9429 O 917.309 -1.79735 1.20516 0
M  V30 9430 C 917.904 0.814775 3.28857 0
M  V30 9431 C 916.463 0.509839 3.72931 0
M  V30 9432 C 915.61 1.03852 2.57119 0
M  V30 9433 H 918.561 1.00143 1.23114 0
M  V30 9434 H 918.582 0.113635 3.8033 0
M  V30 9435 H 918.094 1.89078 3.38926 0
M  V30 9436 H 916.195 -0.557289 3.68409 0
M  V30 9437 H 916.308 1.04493 4.67566 0
M  V30 9438 H 914.672 0.460671 2.50499 0
M  V30 9439 H 915.455 2.12071 2.69964 0
M  V30 9440 N 917.9 -1.47166 0.563914 0
M  V30 9441 C 918.83 -2.32894 -0.168148 0
M  V30 9442 C 919.811 -1.44202 -0.902214 0
M  V30 9443 O 920.996 -1.73048 -0.881365 0
M  V30 9444 C 918.126 -3.26116 -1.19439 0
M  V30 9445 C 917.08 -4.24101 -0.576363 0
M  V30 9446 C 916.406 -5.06696 -1.70772 0
M  V30 9447 C 917.706 -5.20142 0.47425 0
M  V30 9448 H 919.4 -2.9435 0.547573 0
M  V30 9449 H 916.946 -1.41545 0.264778 0
M  V30 9450 H 918.899 -3.84935 -1.71474 0
M  V30 9451 H 917.623 -2.62728 -1.94014 0
M  V30 9452 H 916.282 -3.66519 -0.0772534 0
M  V30 9453 H 915.93 -4.39707 -2.44268 0
M  V30 9454 H 915.63 -5.7304 -1.29994 0
M  V30 9455 H 917.154 -5.68375 -2.2312 0
M  V30 9456 H 918.568 -5.73286 0.0397035 0
M  V30 9457 H 916.965 -5.94726 0.801287 0
M  V30 9458 H 918.035 -4.65214 1.36764 0
M  V30 9459 N 919.378 -0.300708 -1.54705 0
M  V30 9460 C 920.626 0.308044 -1.99739 0
M  V30 9461 C 920.947 1.54433 -1.19061 0
M  V30 9462 O 920.217 1.93794 -0.286507 0
M  V30 9463 H 918.797 0.116811 -0.73781 0
M  V30 9464 H 921.459 -0.41197 -1.90496 0
M  V30 9465 H 920.555 0.580287 -3.06658 0
M  V30 9466 N 920.856 1.57574 -0.0284266 0
M  V30 9467 C 921.786 2.1321 0.952039 0
M  V30 9468 C 922.767 1.04806 1.33977 0
M  V30 9469 O 923.952 1.32635 1.41851 0
M  V30 9470 C 921.082 2.65862 2.23461 0
M  V30 9471 C 920.036 3.79047 1.98765 0
M  V30 9472 C 919.362 4.18124 3.33281 0
M  V30 9473 C 920.662 5.05151 1.32739 0
M  V30 9474 H 922.356 2.95385 0.488705 0
M  V30 9475 H 919.902 1.42092 0.233628 0
M  V30 9476 H 921.855 3.03417 2.92431 0
M  V30 9477 H 920.579 1.80848 2.71959 0
M  V30 9478 H 919.238 3.41929 1.32213 0
M  V30 9479 H 918.886 3.30092 3.79537 0
M  V30 9480 H 918.586 4.94396 3.17563 0
M  V30 9481 H 920.11 4.58262 4.0352 0
M  V30 9482 H 921.524 5.40297 1.91708 0
M  V30 9483 H 919.921 5.86416 1.27421 0
M  V30 9484 H 920.991 4.83969 0.300261 0
M  V30 9485 N 922.334 -0.244713 1.55689 0
M  V30 9486 C 923.582 -0.970525 1.77272 0
M  V30 9487 C 923.903 -1.85771 0.592804 0
M  V30 9488 O 923.173 -1.91952 -0.391323 0
M  V30 9489 H 921.753 -0.361342 0.653789 0
M  V30 9490 H 924.415 -0.262134 1.93129 0
M  V30 9491 H 923.511 -1.59096 2.68505 0
M  V30 9492 N 923.813 -1.49104 -0.510467 0
M  V30 9493 C 924.745 -1.61183 -1.6295 0
M  V30 9494 C 925.758 -0.495003 -1.55092 0
M  V30 9495 O 926.947 -0.766671 -1.61197 0
M  V30 9496 C 924.047 -1.54373 -3.01699 0
M  V30 9497 C 923.22 -2.81428 -3.34838 0
M  V30 9498 C 922.279 -2.67802 -4.52956 0
M  V30 9499 O 921.305 -3.41723 -4.55208 0
M  V30 9500 N 922.507 -1.78715 -5.52305 0
M  V30 9501 H 925.272 -2.57693 -1.53018 0
M  V30 9502 H 922.833 -1.46073 -0.698152 0
M  V30 9503 H 924.825 -1.42924 -3.78622 0
M  V30 9504 H 923.395 -0.657597 -3.05605 0
M  V30 9505 H 922.615 -3.07299 -2.46903 0
M  V30 9506 H 923.903 -3.6568 -3.53773 0
M  V30 9507 H 923.301 -1.17897 -5.53278 0
M  V30 9508 H 921.858 -1.73194 -6.28369 0
M  V30 9509 N 925.291 0.760815 -1.38019 0
M  V30 9510 C 926.221 1.88811 -1.37377 0
M  V30 9511 C 927.202 1.68388 -0.240737 0
M  V30 9512 O 928.387 1.89086 -0.442739 0
M  V30 9513 C 925.517 3.26244 -1.1909 0
M  V30 9514 C 924.471 3.61254 -2.29521 0
M  V30 9515 C 923.797 4.97346 -1.96345 0
M  V30 9516 C 925.097 3.66874 -3.71753 0
M  V30 9517 H 926.791 1.89606 -2.31711 0
M  V30 9518 H 924.337 0.910818 -1.11535 0
M  V30 9519 H 926.29 4.04755 -1.17267 0
M  V30 9520 H 925.014 3.2591 -0.212152 0
M  V30 9521 H 923.673 2.85057 -2.30517 0
M  V30 9522 H 923.321 4.93564 -0.969728 0
M  V30 9523 H 923.021 5.21739 -2.703 0
M  V30 9524 H 924.545 5.78244 -1.96129 0
M  V30 9525 H 925.959 4.35514 -3.72828 0
M  V30 9526 H 924.356 4.02772 -4.44853 0
M  V30 9527 H 925.426 2.67273 -4.0459 0
M  V30 9528 N 926.769 1.22769 0.988202 0
M  V30 9529 C 927.699 1.02627 2.09738 0
M  V30 9530 C 928.68 -0.0543211 1.70013 0
M  V30 9531 O 929.865 0.108811 1.93895 0
M  V30 9532 C 926.995 0.608302 3.41931 0
M  V30 9533 C 925.949 1.63536 3.95525 0
M  V30 9534 C 925.275 1.07308 5.23822 0
M  V30 9535 C 926.575 3.02649 4.25677 0
M  V30 9536 H 928.269 1.954 2.26847 0
M  V30 9537 H 925.815 0.940888 1.09011 0
M  V30 9538 H 927.768 0.454478 4.18942 0
M  V30 9539 H 926.492 -0.355095 3.24664 0
M  V30 9540 H 925.151 1.77704 3.20651 0
M  V30 9541 H 924.799 0.100894 5.02899 0
M  V30 9542 H 924.499 1.75925 5.60646 0
M  V30 9543 H 926.023 0.930938 6.03462 0
M  V30 9544 H 927.437 2.91828 4.93467 0
M  V30 9545 H 925.834 3.68434 4.73684 0
M  V30 9546 H 926.904 3.52228 3.33262 0
M  V30 9547 N 928.247 -1.18576 1.03814 0
M  V30 9548 C 929.21 -2.2033 0.63146 0
M  V30 9549 C 930.21 -1.57787 -0.309816 0
M  V30 9550 O 931.4 -1.73938 -0.0955598 0
M  V30 9551 C 928.532 -3.40818 -0.0745963 0
M  V30 9552 H 929.725 -2.57824 1.53189 0
M  V30 9553 H 927.278 -1.32416 0.830398 0
M  V30 9554 H 928.013 -3.08853 -0.988947 0
M  V30 9555 H 927.798 -3.87453 0.6019 0
M  V30 9556 H 929.288 -4.16166 -0.345727 0
M  V30 9557 N 929.725 -0.817259 -1.34754 0
M  V30 9558 C 930.971 -0.403244 -1.98751 0
M  V30 9559 C 931.304 1.02963 -1.64658 0
M  V30 9560 O 930.579 1.71617 -0.915314 0
M  V30 9561 C 930.862 -0.599188 -3.5508 0
M  V30 9562 C 930.715 -2.07777 -3.98934 0
M  V30 9563 C 932.034 -0.0315656 -4.40089 0
M  V30 9564 H 929.153 -0.147988 -0.721989 0
M  V30 9565 H 931.795 -1.02877 -1.59738 0
M  V30 9566 H 929.945 -0.0667116 -3.88443 0
M  V30 9567 H 931.617 -2.67345 -3.75931 0
M  V30 9568 H 929.86 -2.57031 -3.49453 0
M  V30 9569 H 930.531 -2.16571 -5.07741 0
M  V30 9570 H 933.007 -0.48644 -4.13247 0
M  V30 9571 H 931.883 -0.198507 -5.48541 0
M  V30 9572 H 932.144 1.06302 -4.2913 0
M  V30 9573 N 931.203 1.46865 -0.571711 0
M  V30 9574 C 932.166 2.28658 0.157499 0
M  V30 9575 C 933.166 1.37773 0.829172 0
M  V30 9576 O 934.356 1.6026 0.682811 0
M  V30 9577 C 931.488 3.17859 1.23202 0
M  V30 9578 H 932.681 2.94603 -0.561171 0
M  V30 9579 H 930.234 1.52793 -0.329229 0
M  V30 9580 H 930.969 2.56637 1.98262 0
M  V30 9581 H 930.754 3.84762 0.755031 0
M  V30 9582 H 932.244 3.7945 1.74378 0
M  V30 9583 N 932.681 0.308908 1.54543 0
M  V30 9584 C 933.906 -0.303196 2.05172 0
M  V30 9585 C 934.331 -1.46133 1.18434 0
M  V30 9586 O 933.689 -1.803 0.190162 0
M  V30 9587 C 933.737 -0.729526 3.53143 0
M  V30 9588 O 932.841 -1.83348 3.69401 0
M  V30 9589 H 932.182 -0.0575066 0.661505 0
M  V30 9590 H 934.712 0.453055 1.99521 0
M  V30 9591 H 934.722 -1.01619 3.95143 0
M  V30 9592 H 933.397 0.117622 4.15734 0
M  V30 9593 H 931.974 -1.54676 3.39308 0
M  V30 9594 N 934.159 -1.57557 0.0367827 0
M  V30 9595 C 935.091 -2.07597 -0.971395 0
M  V30 9596 C 936.104 -1.0009 -1.28397 0
M  V30 9597 O 937.293 -1.27692 -1.24728 0
M  V30 9598 C 934.393 -2.492 -2.2968 0
M  V30 9599 C 933.566 -3.79875 -2.16826 0
M  V30 9600 C 932.625 -4.07946 -3.32366 0
M  V30 9601 O 931.651 -4.78083 -3.0891 0
M  V30 9602 N 932.853 -3.58722 -4.56397 0
M  V30 9603 H 935.618 -2.94714 -0.544389 0
M  V30 9604 H 933.179 -1.61205 -0.1498 0
M  V30 9605 H 935.171 -2.65065 -3.05815 0
M  V30 9606 H 933.741 -1.67407 -2.63995 0
M  V30 9607 H 932.961 -3.73732 -1.2537 0
M  V30 9608 H 934.249 -4.65476 -2.0545 0
M  V30 9609 H 933.647 -3.01994 -4.78347 0
M  V30 9610 H 932.204 -3.79852 -5.29675 0
M  V30 9611 N 935.637 0.236453 -1.55816 0
M  V30 9612 C 936.883 0.964439 -1.784 0
M  V30 9613 C 937.216 1.84573 -0.603868 0
M  V30 9614 O 936.491 1.90395 0.397473 0
M  V30 9615 C 936.774 1.81608 -3.10951 0
M  V30 9616 C 936.627 0.962283 -4.39386 0
M  V30 9617 C 937.946 2.79665 -3.39817 0
M  V30 9618 H 935.065 0.349192 -0.649026 0
M  V30 9619 H 937.707 0.234247 -1.8855 0
M  V30 9620 H 935.857 2.43864 -3.02428 0
M  V30 9621 H 937.529 0.35762 -4.59912 0
M  V30 9622 H 935.772 0.267062 -4.32977 0
M  V30 9623 H 936.443 1.59222 -5.28538 0
M  V30 9624 H 938.919 2.27546 -3.4837 0
M  V30 9625 H 937.795 3.36367 -4.33761 0
M  V30 9626 H 938.056 3.56657 -2.61244 0
M  V30 9627 N 937.115 1.49373 0.502552 0
M  V30 9628 C 938.078 1.65413 1.58654 0
M  V30 9629 C 939.078 0.526003 1.51953 0
M  V30 9630 O 940.268 0.792421 1.55133 0
M  V30 9631 C 937.4 1.65005 2.98306 0
M  V30 9632 H 938.593 2.62095 1.45762 0
M  V30 9633 H 936.146 1.38381 0.726672 0
M  V30 9634 H 936.881 0.699014 3.16677 0
M  V30 9635 H 936.666 2.46931 3.04578 0
M  V30 9636 H 938.156 1.79477 3.77065 0
M  V30 9637 N 938.594 -0.753485 1.38421 0
M  V30 9638 C 939.557 -1.84888 1.35459 0
M  V30 9639 C 940.557 -1.58764 0.255083 0
M  V30 9640 O 941.747 -1.66507 0.511978 0
M  V30 9641 C 938.879 -3.22361 1.10888 0
M  V30 9642 H 940.072 -1.88922 2.32913 0
M  V30 9643 H 937.625 -0.955199 1.23716 0
M  V30 9644 H 938.36 -3.23996 0.1404 0
M  V30 9645 H 938.145 -3.42717 1.90492 0
M  V30 9646 H 939.635 -4.02437 1.1151 0
M  V30 9647 N 940.072 -1.23292 -0.981677 0
M  V30 9648 C 941.32 -1.06214 -1.71939 0
M  V30 9649 C 941.641 0.401989 -1.90812 0
M  V30 9650 O 940.911 1.28825 -1.47584 0
M  V30 9651 H 939.491 -0.390042 -0.637084 0
M  V30 9652 H 942.153 -1.54988 -1.18173 0
M  V30 9653 H 941.249 -1.54904 -2.70945 0
M  V30 9654 N 941.55 1.18024 -1.04442 0
M  V30 9655 C 942.483 2.20623 -0.583171 0
M  V30 9656 C 943.461 1.57994 0.384262 0
M  V30 9657 O 944.645 1.86135 0.297673 0
M  V30 9658 C 941.772 3.38378 0.147561 0
M  V30 9659 C 940.818 4.19423 -0.773711 0
M  V30 9660 S 941.651 4.85534 -2.25869 0
M  V30 9661 C 942.807 6.06686 -1.53891 0
M  V30 9662 H 943.04 2.59406 -1.45244 0
M  V30 9663 H 940.573 1.28518 -0.855708 0
M  V30 9664 H 942.531 4.06621 0.562988 0
M  V30 9665 H 941.192 2.97998 0.992765 0
M  V30 9666 H 940.385 5.03568 -0.208694 0
M  V30 9667 H 939.987 3.56579 -1.12816 0
M  V30 9668 H 942.279 6.72347 -0.834045 0
M  V30 9669 H 943.222 6.67702 -2.35755 0
M  V30 9670 H 943.63 5.55031 -1.02961 0
M  V30 9671 N 943.028 0.824394 1.34319 0
M  V30 9672 C 944.274 0.413779 1.98534 0
M  V30 9673 C 944.607 -1.02089 1.65201 0
M  V30 9674 O 943.882 -1.71129 0.924402 0
M  V30 9675 C 944.165 0.61801 3.54757 0
M  V30 9676 C 944.018 2.0989 3.97827 0
M  V30 9677 C 945.337 0.0549041 4.40066 0
M  V30 9678 H 942.456 0.151815 0.721194 0
M  V30 9679 H 945.098 1.03723 1.5919 0
M  V30 9680 H 943.248 0.0873107 3.88402 0
M  V30 9681 H 944.92 2.69335 3.74508 0
M  V30 9682 H 943.163 2.58881 3.48085 0
M  V30 9683 H 943.834 2.1926 5.06586 0
M  V30 9684 H 946.31 0.508348 4.12983 0
M  V30 9685 H 945.186 0.227595 5.48428 0
M  V30 9686 H 945.447 -1.04025 4.29687 0
M  V30 9687 N 944.506 -1.46559 0.579492 0
M  V30 9688 C 945.736 -2.06484 0.0692642 0
M  V30 9689 C 946.144 -1.4293 -1.23967 0
M  V30 9690 O 945.487 -0.527632 -1.75959 0
M  V30 9691 C 945.549 -3.59078 -0.174174 0
M  V30 9692 C 945.213 -4.44805 1.04867 0
M  V30 9693 C 946.21 -4.81543 1.95991 0
M  V30 9694 C 943.895 -4.8599 1.26961 0
M  V30 9695 C 945.889 -5.58288 3.0756 0
M  V30 9696 C 943.576 -5.62495 2.38836 0
M  V30 9697 C 944.574 -5.98558 3.28964 0
M  V30 9698 O 944.262 -6.73518 4.38896 0
M  V30 9699 H 943.994 -0.673917 0.0530331 0
M  V30 9700 H 946.548 -1.89223 0.79898 0
M  V30 9701 H 944.778 -3.74634 -0.958464 0
M  V30 9702 H 946.467 -4.00941 -0.632515 0
M  V30 9703 H 947.233 -4.50307 1.80136 0
M  V30 9704 H 943.112 -4.57372 0.577184 0
M  V30 9705 H 946.656 -5.86355 3.77933 0
M  V30 9706 H 942.553 -5.93145 2.54655 0
M  V30 9707 H 943.321 -6.91938 4.37223 0
M  V30 9708 N 945.984 -0.3171 -1.54377 0
M  V30 9709 C 946.914 0.544623 -2.2706 0
M  V30 9710 C 947.895 1.12469 -1.27611 0
M  V30 9711 O 949.08 1.15103 -1.56413 0
M  V30 9712 C 946.21 1.70879 -3.02353 0
M  V30 9713 C 945.164 1.25833 -4.09084 0
M  V30 9714 C 944.49 2.50894 -4.72182 0
M  V30 9715 C 945.79 0.377876 -5.20931 0
M  V30 9716 H 947.484 -0.0616372 -2.99337 0
M  V30 9717 H 945.03 -0.0310848 -1.43966 0
M  V30 9718 H 946.983 2.31787 -3.51927 0
M  V30 9719 H 945.707 2.34155 -2.27682 0
M  V30 9720 H 944.366 0.672228 -3.60384 0
M  V30 9721 H 944.014 3.12518 -3.94134 0
M  V30 9722 H 943.714 2.21447 -5.44275 0
M  V30 9723 H 945.238 3.12575 -5.24528 0
M  V30 9724 H 946.652 0.893056 -5.66302 0
M  V30 9725 H 945.049 0.176474 -5.9984 0
M  V30 9726 H 946.119 -0.592943 -4.81261 0
M  V30 9727 N 947.462 1.57535 -0.0451378 0
M  V30 9728 C 948.425 2.1008 0.916461 0
M  V30 9729 C 949.425 1.01913 1.2438 0
M  V30 9730 O 950.615 1.2801 1.18148 0
M  V30 9731 C 947.747 2.58001 2.22818 0
M  V30 9732 H 948.94 2.96334 0.461076 0
M  V30 9733 H 946.493 1.54974 0.203169 0
M  V30 9734 H 947.228 1.75123 2.72951 0
M  V30 9735 H 947.013 3.3704 2.00366 0
M  V30 9736 H 948.503 2.98822 2.9171 0
M  V30 9737 N 948.94 -0.228186 1.55939 0
M  V30 9738 C 950.188 -0.951668 1.78291 0
M  V30 9739 C 950.509 -1.85132 0.612474 0
M  V30 9740 O 949.779 -1.92356 -0.370942 0
M  V30 9741 H 948.359 -0.354388 0.657585 0
M  V30 9742 H 951.021 -0.241635 1.93396 0
M  V30 9743 H 950.117 -1.56239 2.70177 0
M  V30 9744 N 950.418 -1.49637 -0.494624 0
M  V30 9745 C 951.348 -1.69692 -1.60396 0
M  V30 9746 C 952.329 -0.545648 -1.61111 0
M  V30 9747 O 953.514 -0.782202 -1.77751 0
M  V30 9748 C 950.644 -1.76934 -2.9885 0
M  V30 9749 C 949.598 -2.91915 -3.13001 0
M  V30 9750 C 948.924 -2.84276 -4.5287 0
M  V30 9751 C 950.224 -4.32764 -2.92426 0
M  V30 9752 H 951.918 -2.6257 -1.43866 0
M  V30 9753 H 949.464 -1.26355 -0.690679 0
M  V30 9754 H 951.417 -1.8955 -3.76362 0
M  V30 9755 H 950.141 -0.806609 -3.16483 0
M  V30 9756 H 948.8 -2.78911 -2.37916 0
M  V30 9757 H 948.448 -1.85897 -4.67388 0
M  V30 9758 H 948.148 -3.61452 -4.63278 0
M  V30 9759 H 949.672 -2.98909 -5.32434 0
M  V30 9760 H 951.086 -4.46415 -3.59703 0
M  V30 9761 H 949.483 -5.1121 -3.143 0
M  V30 9762 H 950.553 -4.46765 -1.88491 0
M  V30 9763 N 951.896 0.746133 -1.38819 0
M  V30 9764 C 952.846 1.85085 -1.33145 0
M  V30 9765 C 953.83 1.59466 -0.214339 0
M  V30 9766 O 955.022 1.71159 -0.450943 0
M  V30 9767 C 952.151 3.22884 -1.16623 0
M  V30 9768 C 951.237 3.54369 -2.32988 0
M  V30 9769 N 951.628 3.56863 -3.58445 0
M  V30 9770 C 949.926 3.84674 -2.25703 0
M  V30 9771 C 950.627 3.85827 -4.3533 0
M  V30 9772 N 949.603 4.03037 -3.64777 0
M  V30 9773 H 953.405 1.85301 -2.28124 0
M  V30 9774 H 950.919 0.943847 -1.32156 0
M  V30 9775 H 952.916 4.0195 -1.10642 0
M  V30 9776 H 951.576 3.23914 -0.225841 0
M  V30 9777 H 952.587 3.38443 -3.92017 0
M  V30 9778 H 949.264 3.93375 -1.39864 0
M  V30 9779 H 950.654 3.94317 -5.44025 0
M  V30 9780 N 953.375 1.23811 0.975125 0
M  V30 9781 C 954.622 1.07336 1.71712 0
M  V30 9782 C 954.95 -0.388954 1.90571 0
M  V30 9783 O 954.205 -1.30409 1.45918 0
M  V30 9784 C 954.504 1.74994 3.11628 0
M  V30 9785 C 954.17 3.24918 3.12632 0
M  V30 9786 C 952.832 3.65822 3.12614 0
M  V30 9787 C 955.184 4.20797 3.07538 0
M  V30 9788 C 952.512 5.01054 3.05224 0
M  V30 9789 C 954.864 5.56027 3.0169 0
M  V30 9790 C 953.528 5.96287 2.99996 0
M  V30 9791 H 952.798 0.392771 0.62834 0
M  V30 9792 H 955.445 1.53815 1.14075 0
M  V30 9793 H 953.75 1.20889 3.72684 0
M  V30 9794 H 955.447 1.5972 3.67819 0
M  V30 9795 H 952.037 2.92359 3.13407 0
M  V30 9796 H 956.221 3.902 3.06688 0
M  V30 9797 H 951.477 5.31454 3.02268 0
M  V30 9798 H 955.651 6.3003 2.96706 0
M  V30 9799 H 953.278 7.01037 2.94025 0
M  V30 9800 N 954.853 -1.17469 1.05066 0
M  V30 9801 C 956.099 -1.87976 0.761113 0
M  V30 9802 C 956.432 -1.80756 -0.709995 0
M  V30 9803 O 955.707 -1.21469 -1.51906 0
M  V30 9804 C 955.99 -3.38055 1.2406 0
M  V30 9805 C 955.843 -3.54032 2.77455 0
M  V30 9806 C 957.162 -4.32036 0.838612 0
M  V30 9807 H 954.281 -0.682573 0.277963 0
M  V30 9808 H 956.923 -1.38147 1.30443 0
M  V30 9809 H 955.073 -3.80622 0.778388 0
M  V30 9810 H 956.745 -3.20489 3.3179 0
M  V30 9811 H 954.988 -2.96352 3.16793 0
M  V30 9812 H 955.659 -4.59377 3.06066 0
M  V30 9813 H 958.135 -3.97303 1.23651 0
M  V30 9814 H 957.011 -5.35583 1.20173 0
M  V30 9815 H 957.272 -4.41349 -0.257498 0
M  V30 9816 N 956.331 -0.831506 -1.3388 0
M  V30 9817 C 957.281 -0.231656 -2.2682 0
M  V30 9818 C 958.265 0.609075 -1.48926 0
M  V30 9819 O 959.457 0.462249 -1.70857 0
M  V30 9820 C 956.586 0.59846 -3.38043 0
M  V30 9821 C 955.672 -0.253372 -4.23342 0
M  V30 9822 N 956.063 -1.32854 -4.8804 0
M  V30 9823 C 954.361 -0.0391537 -4.45983 0
M  V30 9824 C 955.062 -1.85069 -5.51475 0
M  V30 9825 N 954.038 -1.15327 -5.31226 0
M  V30 9826 H 957.84 -1.05396 -2.74352 0
M  V30 9827 H 955.354 -0.675195 -1.47699 0
M  V30 9828 H 957.351 1.04443 -4.03605 0
M  V30 9829 H 956.011 1.41882 -2.92061 0
M  V30 9830 H 957.022 -1.71139 -4.88806 0
M  V30 9831 H 953.699 0.748356 -4.10738 0
M  V30 9832 H 955.089 -2.75065 -6.13016 0
M  V30 9833 N 957.809 1.4625 -0.587256 0
M  V30 9834 C 959.225 1.57641 -0.249284 0
M  V30 9835 C 959.425 1.58169 1.24839 0
M  V30 9836 O 958.481 1.50109 2.03036 0
M  V30 9837 C 959.794 2.86837 -0.902509 0
M  V30 9838 C 961.342 3.00476 -0.876524 0
M  V30 9839 C 961.817 4.32414 -1.50938 0
M  V30 9840 N 963.308 4.39124 -1.47392 0
M  V30 9841 C 964.043 5.39838 -1.93293 0
M  V30 9842 N 963.539 6.47202 -2.47188 0
M  V30 9843 N 965.332 5.31068 -1.84183 0
M  V30 9844 H 957.483 1.44151 -1.55994 0
M  V30 9845 H 959.746 0.687905 -0.652297 0
M  V30 9846 H 959.452 2.92274 -1.95624 0
M  V30 9847 H 959.326 3.74927 -0.413466 0
M  V30 9848 H 961.713 2.94618 0.168601 0
M  V30 9849 H 961.794 2.1385 -1.40363 0
M  V30 9850 H 961.438 4.3903 -2.55372 0
M  V30 9851 H 961.368 5.17823 -0.957455 0
M  V30 9852 H 963.859 3.62138 -1.08002 0
M  V30 9853 H 964.172 7.20269 -2.80058 0
M  V30 9854 H 962.517 6.48009 -2.51216 0
M  V30 9855 H 965.708 4.46095 -1.41833 0
M  V30 9856 H 965.881 6.09414 -2.2027 0
M  V30 9857 N 959.287 0.325282 1.54207 0
M  V30 9858 C 960.564 -0.33113 1.92777 0
M  V30 9859 C 960.944 -1.69739 1.25506 0
M  V30 9860 O 960.292 -2.24983 0.399385 0
M  V30 9861 C 960.502 -0.421636 3.46444 0
M  V30 9862 C 961.85 -0.681111 4.19101 0
M  V30 9863 O 962.874 -0.504488 3.52609 0
M  V30 9864 O 961.733 -1.02196 5.3686 0
M  V30 9865 H 958.827 -0.18943 0.805013 0
M  V30 9866 H 961.373 0.375123 1.65502 0
M  V30 9867 H 960.145 0.537862 3.87586 0
M  V30 9868 H 959.768 -1.1754 3.79829 0
M  V30 9869 N 960.765 -1.57509 0.0534917 0
M  V30 9870 C 961.695 -2.14698 -0.917999 0
M  V30 9871 C 962.676 -1.06924 -1.32292 0
M  V30 9872 O 963.861 -1.34875 -1.39723 0
M  V30 9873 C 960.991 -2.69383 -2.19203 0
M  V30 9874 C 959.945 -3.82161 -1.9271 0
M  V30 9875 C 959.271 -4.23373 -3.26587 0
M  V30 9876 C 960.571 -5.07199 -1.24686 0
M  V30 9877 H 962.265 -2.96125 -0.44165 0
M  V30 9878 H 959.811 -1.42446 -0.210993 0
M  V30 9879 H 961.764 -3.08031 -2.87567 0
M  V30 9880 H 960.488 -1.85151 -2.69048 0
M  V30 9881 H 959.147 -3.43989 -1.26757 0
M  V30 9882 H 958.795 -3.36089 -3.74237 0
M  V30 9883 H 958.495 -4.99385 -3.09658 0
M  V30 9884 H 960.019 -4.64623 -3.96178 0
M  V30 9885 H 961.433 -5.43279 -1.83088 0
M  V30 9886 H 959.83 -5.88369 -1.18076 0
M  V30 9887 H 960.9 -4.84386 -0.223227 0
M  V30 9888 N 962.243 0.219913 -1.56058 0
M  V30 9889 C 963.206 1.25606 -1.91718 0
M  V30 9890 C 964.206 1.39721 -0.795912 0
M  V30 9891 O 965.396 1.37958 -1.06364 0
M  V30 9892 C 962.528 2.62961 -2.16943 0
M  V30 9893 H 963.721 0.951909 -2.84392 0
M  V30 9894 H 961.274 0.460398 -1.49365 0
M  V30 9895 H 962.009 2.98472 -1.26826 0
M  V30 9896 H 961.794 2.54093 -2.98629 0
M  V30 9897 H 963.284 3.37727 -2.45622 0
M  V30 9898 N 963.721 1.49897 0.486681 0
M  V30 9899 C 964.949 1.63837 1.26353 0
M  V30 9900 C 965.364 0.315428 1.86146 0
M  V30 9901 O 964.721 -0.700831 1.68507 0
M  V30 9902 C 964.772 2.71792 2.38351 0
M  V30 9903 O 964.493 3.98956 1.81013 0
M  V30 9904 C 965.994 2.96566 3.2949 0
M  V30 9905 H 963.214 0.551158 0.382709 0
M  V30 9906 H 965.758 1.96023 0.582694 0
M  V30 9907 H 963.913 2.42344 3.02238 0
M  V30 9908 H 964.327 4.58536 2.54647 0
M  V30 9909 H 965.801 3.75803 4.04322 0
M  V30 9910 H 966.278 2.07031 3.87343 0
M  V30 9911 H 966.884 3.27485 2.71355 0
M  V30 9912 N 965.199 -0.738761 1.39212 0
M  V30 9913 C 966.615 -1.04381 1.20734 0
M  V30 9914 C 966.815 -2.01391 0.0663082 0
M  V30 9915 O 965.871 -2.45672 -0.583229 0
M  V30 9916 C 967.184 -1.6097 2.53987 0
M  V30 9917 C 968.732 -1.73069 2.60799 0
M  V30 9918 C 969.207 -2.33067 3.94264 0
M  V30 9919 N 970.698 -2.40481 3.95883 0
M  V30 9920 C 971.433 -2.87834 4.95923 0
M  V30 9921 N 970.929 -3.35111 6.0636 0
M  V30 9922 N 972.722 -2.87009 4.83304 0
M  V30 9923 H 964.873 -0.0952996 2.12186 0
M  V30 9924 H 967.136 -0.104902 0.942178 0
M  V30 9925 H 966.842 -0.971548 3.38015 0
M  V30 9926 H 966.716 -2.59829 2.73439 0
M  V30 9927 H 969.103 -2.36007 1.77157 0
M  V30 9928 H 969.184 -0.728728 2.452 0
M  V30 9929 H 968.828 -1.70758 4.78335 0
M  V30 9930 H 968.758 -3.33933 4.07181 0
M  V30 9931 H 971.249 -2.07061 3.16123 0
M  V30 9932 H 971.562 -3.69742 6.78609 0
M  V30 9933 H 969.907 -3.33129 6.09959 0
M  V30 9934 H 973.098 -2.49395 3.96131 0
M  V30 9935 H 973.271 -3.23598 5.61416 0
M  V30 9936 N 966.677 -1.24326 -0.968545 0
M  V30 9937 C 967.625 -1.03256 -2.08425 0
M  V30 9938 C 968.619 0.0322356 -1.69369 0
M  V30 9939 O 969.825 -0.122251 -1.79584 0
M  V30 9940 H 966.2 -0.31688 -0.681976 0
M  V30 9941 H 968.171 -1.97873 -2.23358 0
M  V30 9942 C 966.92 -0.653144 -3.4151 0
M  V30 9943 H 966.243 -1.46424 -3.72021 0
M  V30 9944 H 967.683 -0.545316 -4.20479 0
M  V30 9945 C 966.142 0.639674 -3.30771 0
M  V30 9946 O 966.672 1.68563 -3.64622 0
M  V30 9947 N 964.878 0.620074 -2.83907 0
M  V30 9948 H 964.425 -0.231449 -2.56558 0
M  V30 9949 H 964.383 1.48528 -2.77104 0
M  V30 9950 N 968.156 1.1691 -1.05688 0
M  V30 9951 C 969.396 1.88972 -0.779044 0
M  V30 9952 C 969.76 1.7949 0.681708 0
M  V30 9953 O 970.961 2.46418 1.07386 0
M  V30 9954 C 969.232 3.34737 -1.25242 0
M  V30 9955 S 970.791 4.24718 -1.10272 0
M  V30 9956 H 967.609 0.652349 -0.282776 0
M  V30 9957 H 970.211 1.41162 -1.35254 0
M  V30 9958 H 968.915 3.39175 -2.3106 0
M  V30 9959 H 968.446 3.87593 -0.673417 0
M  V30 9960 H 970.461 4.96191 -0.0299004 0
M  V30 9961 N 969.634 0.838594 1.33437 0
M  V30 9962 C 970.564 0.286672 2.31734 0
M  V30 9963 C 971.545 -0.605451 1.5896 0
M  V30 9964 O 972.73 -0.529059 1.86854 0
M  V30 9965 C 969.86 -0.539311 3.43087 0
M  V30 9966 C 968.814 0.256997 4.27228 0
M  V30 9967 C 968.14 -0.692718 5.30194 0
M  V30 9968 C 969.44 1.47391 5.01072 0
M  V30 9969 H 971.134 1.10798 2.78144 0
M  V30 9970 H 968.68 0.534235 1.33723 0
M  V30 9971 H 970.633 -0.935724 4.1088 0
M  V30 9972 H 969.357 -1.39383 2.95364 0
M  V30 9973 H 968.016 0.634967 3.61059 0
M  V30 9974 H 967.664 -1.54363 4.78729 0
M  V30 9975 H 967.364 -0.164023 5.87371 0
M  V30 9976 H 968.888 -1.08665 6.00853 0
M  V30 9977 H 970.302 1.15067 5.61634 0
M  V30 9978 H 968.699 1.93937 5.67898 0
M  V30 9979 H 969.769 2.24382 4.29861 0
M  V30 9980 N 971.112 -1.45937 0.595003 0
M  V30 9981 C 972.358 -2.0262 0.0854317 0
M  V30 9982 C 972.691 -1.46402 -1.27594 0
M  V30 9983 O 971.966 -0.633823 -1.83883 0
M  V30 9984 C 972.249 -3.60085 0.0329075 0
M  V30 9985 C 972.102 -4.26663 1.42405 0
M  V30 9986 C 973.421 -4.35101 -0.661426 0
M  V30 9987 H 970.54 -0.736282 0.0325196 0
M  V30 9988 H 973.182 -1.73938 0.764563 0
M  V30 9989 H 971.332 -3.84652 -0.545439 0
M  V30 9990 H 973.004 -4.13321 2.04851 0
M  V30 9991 H 971.247 -3.85549 1.98833 0
M  V30 9992 H 971.918 -5.35497 1.33965 0
M  V30 9993 H 974.394 -4.15753 -0.169977 0
M  V30 9994 H 973.27 -5.44829 -0.667243 0
M  V30 9995 H 973.531 -4.07053 -1.72513 0
M  V30 9996 N 972.59 -0.333456 -1.54032 0
M  V30 9997 C 973.838 0.265608 -2.00347 0
M  V30 9998 C 974.159 1.51873 -1.2231 0
M  V30 9999 O 973.429 1.93142 -0.327549 0
M  V30 10000 H 972.009 0.101135 -0.740122 0
M  V30 10001 H 974.671 -0.452285 -1.8958 0
M  V30 10002 H 973.767 0.51511 -3.0782 0
M  V30 10003 N 974.068 1.57479 -0.061844 0
M  V30 10004 C 975 2.09116 0.938245 0
M  V30 10005 C 976.013 1.0212 1.26788 0
M  V30 10006 O 977.202 1.2966 1.22681 0
M  V30 10007 C 974.302 2.52822 2.25686 0
M  V30 10008 C 973.475 3.83277 2.10755 0
M  V30 10009 C 972.534 4.13182 3.25833 0
M  V30 10010 O 971.56 4.82937 3.01265 0
M  V30 10011 N 972.762 3.65938 4.50633 0
M  V30 10012 H 975.527 2.95543 0.497433 0
M  V30 10013 H 973.088 1.61423 0.124134 0
M  V30 10014 H 975.08 2.69896 3.01559 0
M  V30 10015 H 973.65 1.71586 2.61299 0
M  V30 10016 H 972.87 3.7568 1.19409 0
M  V30 10017 H 974.158 4.68686 1.98018 0
M  V30 10018 H 973.556 3.09566 4.73482 0
M  V30 10019 H 972.113 3.8823 5.23565 0
M  V30 10020 N 975.546 -0.211634 1.56173 0
M  V30 10021 C 976.794 -0.932704 1.7929 0
M  V30 10022 C 977.115 -1.84472 0.632076 0
M  V30 10023 O 976.385 -1.92739 -0.350519 0
M  V30 10024 H 974.965 -0.347393 0.661307 0
M  V30 10025 H 977.627 -0.22111 1.93642 0
M  V30 10026 H 976.723 -1.53365 2.71819 0
M  V30 10027 N 977.024 -1.50153 -0.478725 0
M  V30 10028 C 977.954 -1.71384 -1.58587 0
M  V30 10029 C 978.935 -0.562705 -1.60523 0
M  V30 10030 O 980.12 -0.80101 -1.76911 0
M  V30 10031 C 977.25 -1.80094 -2.96957 0
M  V30 10032 C 976.204 -2.95218 -3.09888 0
M  V30 10033 C 975.53 -2.89063 -4.49829 0
M  V30 10034 C 976.83 -4.35841 -2.8782 0
M  V30 10035 H 978.524 -2.64081 -1.41073 0
M  V30 10036 H 976.07 -1.27081 -0.677239 0
M  V30 10037 H 978.023 -1.93531 -3.74331 0
M  V30 10038 H 976.747 -0.840131 -3.1561 0
M  V30 10039 H 975.406 -2.81419 -2.34944 0
M  V30 10040 H 975.054 -1.90844 -4.6539 0
M  V30 10041 H 974.754 -3.66345 -4.59418 0
M  V30 10042 H 976.278 -3.04539 -5.29234 0
M  V30 10043 H 977.692 -4.50205 -3.54948 0
M  V30 10044 H 976.089 -5.14515 -3.0886 0
M  V30 10045 H 977.159 -4.48739 -1.83742 0
M  V30 10046 N 978.502 0.731368 -1.39602 0
M  V30 10047 C 979.748 1.49321 -1.37227 0
M  V30 10048 C 980.081 1.94176 0.0306502 0
M  V30 10049 O 979.356 1.67046 0.996294 0
M  V30 10050 C 979.639 2.73035 -2.34784 0
M  V30 10051 C 979.492 2.34176 -3.84033 0
M  V30 10052 C 980.811 3.75146 -2.30116 0
M  V30 10053 H 977.93 0.541652 -0.499783 0
M  V30 10054 H 980.572 0.835968 -1.70621 0
M  V30 10055 H 978.722 3.29114 -2.06437 0
M  V30 10056 H 980.394 1.83701 -4.23145 0
M  V30 10057 H 978.637 1.66361 -4.00633 0
M  V30 10058 H 979.308 3.22786 -4.47787 0
M  V30 10059 H 981.784 3.28661 -2.55189 0
M  V30 10060 H 980.66 4.5937 -3.00451 0
M  V30 10061 H 980.921 4.22326 -1.30741 0
M  V30 10062 N 979.98 1.24838 0.961938 0
M  V30 10063 C 981.226 1.09313 1.70817 0
M  V30 10064 C 981.559 -0.366244 1.90715 0
M  V30 10065 O 980.834 -1.27036 1.47282 0
M  V30 10066 C 981.117 1.83988 3.09549 0
M  V30 10067 C 980.97 3.3771 2.97106 0
M  V30 10068 C 982.289 1.61718 4.09311 0
M  V30 10069 H 979.408 0.398498 0.619974 0
M  V30 10070 H 982.05 1.53579 1.11864 0
M  V30 10071 H 980.2 1.46363 3.59875 0
M  V30 10072 H 981.872 3.84967 2.54161 0
M  V30 10073 H 980.115 3.65795 2.33187 0
M  V30 10074 H 980.786 3.85166 3.95412 0
M  V30 10075 H 983.262 1.94458 3.67866 0
M  V30 10076 H 982.138 2.16415 5.04436 0
M  V30 10077 H 982.399 0.55677 4.3858 0
M  V30 10078 N 981.458 -1.16348 1.06306 0
M  V30 10079 C 982.405 -2.20741 0.673962 0
M  V30 10080 C 983.375 -1.628 -0.329454 0
M  V30 10081 O 984.56 -1.89547 -0.218313 0
M  V30 10082 C 981.7 -3.45036 0.0667008 0
M  V30 10083 C 980.813 -4.17221 1.12031 0
M  V30 10084 C 979.948 -5.29034 0.479176 0
M  V30 10085 C 978.987 -5.93021 1.51631 0
M  V30 10086 N 978.124 -6.96327 0.898528 0
M  V30 10087 H 982.964 -2.53376 1.56859 0
M  V30 10088 H 980.501 -1.24449 0.784276 0
M  V30 10089 H 982.459 -4.16099 -0.302916 0
M  V30 10090 H 981.089 -3.1295 -0.791333 0
M  V30 10091 H 980.141 -3.4476 1.60763 0
M  V30 10092 H 981.453 -4.60902 1.90712 0
M  V30 10093 H 980.607 -6.06674 0.0565993 0
M  V30 10094 H 979.346 -4.86517 -0.33951 0
M  V30 10095 H 978.351 -5.14104 1.94878 0
M  V30 10096 H 979.576 -6.37618 2.3371 0
M  V30 10097 H 977.522 -6.55923 0.100555 0
M  V30 10098 H 977.439 -7.38379 1.62272 0
M  V30 10099 H 978.707 -7.77888 0.5011 0
M  V30 10100 N 982.937 -0.845659 -1.3299 0
M  V30 10101 C 984.186 -0.440928 -1.96822 0
M  V30 10102 C 984.499 1.00668 -1.67706 0
M  V30 10103 O 985.705 1.51641 -2.25205 0
M  V30 10104 C 984.161 -0.73752 -3.52262 0
M  V30 10105 C 983.769 -2.20026 -3.90247 0
M  V30 10106 C 985.513 -0.400072 -4.22611 0
M  V30 10107 C 983.42 -2.44054 -5.38694 0
M  V30 10108 H 982.35 -0.161148 -0.736578 0
M  V30 10109 H 985.001 -1.03519 -1.51513 0
M  V30 10110 H 983.383 -0.0728025 -3.95933 0
M  V30 10111 H 984.557 -2.90602 -3.57613 0
M  V30 10112 H 982.872 -2.50135 -3.32899 0
M  V30 10113 H 985.469 -0.557136 -5.3179 0
M  V30 10114 H 985.812 0.657547 -4.11074 0
M  V30 10115 H 986.345 -1.0203 -3.84493 0
M  V30 10116 H 983.084 -3.48407 -5.55241 0
M  V30 10117 H 982.604 -1.78047 -5.72765 0
M  V30 10118 H 984.283 -2.27549 -6.05665 0
M  V30 10119 N 984.415 1.45619 -0.602734 0
M  V30 10120 C 985.663 2.01873 -0.095844 0
M  V30 10121 C 985.984 1.47427 1.27633 0
M  V30 10122 O 985.254 0.666652 1.84208 0
M  V30 10123 H 983.834 0.746295 -0.0324408 0
M  V30 10124 H 986.496 1.78478 -0.783037 0
M  V30 10125 H 985.592 3.12072 -0.0419507 0
M  V30 10126 N 985.893 0.34162 1.53853 0
M  V30 10127 C 987.17 -0.310664 1.93117 0
M  V30 10128 C 987.55 -1.68398 1.273 0
M  V30 10129 O 986.898 -2.24546 0.423225 0
M  V30 10130 C 987.108 -0.384867 3.46871 0
M  V30 10131 C 988.456 -0.636621 4.198 0
M  V30 10132 O 989.48 -0.467061 3.53125 0
M  V30 10133 O 988.339 -0.964962 5.37913 0
M  V30 10134 H 985.433 -0.180881 0.806977 0
M  V30 10135 H 987.979 0.392656 1.65095 0
M  V30 10136 H 986.751 0.57894 3.86994 0
M  V30 10137 H 986.374 -1.13505 3.81054 0
M  V30 10138 N 987.371 -1.57444 0.0701946 0
M  V30 10139 C 988.618 -1.93429 -0.59929 0
M  V30 10140 C 988.946 -0.9501 -1.69715 0
M  V30 10141 O 988.201 0.0345377 -1.9567 0
M  V30 10142 C 988.5 -3.36044 -1.21694 0
M  V30 10143 C 988.166 -4.50232 -0.245374 0
M  V30 10144 C 986.828 -4.81195 0.0219161 0
M  V30 10145 C 989.18 -5.1951 0.419396 0
M  V30 10146 C 986.508 -5.78775 0.96109 0
M  V30 10147 C 988.86 -6.18095 1.34688 0
M  V30 10148 C 987.524 -6.47477 1.62265 0
M  V30 10149 H 986.794 -0.707807 -0.219296 0
M  V30 10150 H 989.441 -1.90982 0.14073 0
M  V30 10151 H 987.746 -3.34948 -2.03265 0
M  V30 10152 H 989.443 -3.61176 -1.74221 0
M  V30 10153 H 986.033 -4.26082 -0.463887 0
M  V30 10154 H 990.217 -4.95785 0.226009 0
M  V30 10155 H 985.473 -5.99865 1.18202 0
M  V30 10156 H 989.647 -6.7088 1.86795 0
M  V30 10157 H 987.274 -7.229 2.352 0
M  V30 10158 N 988.849 0.203349 -1.56283 0
M  V30 10159 C 990.097 0.923183 -1.79782 0
M  V30 10160 C 990.418 1.84134 -0.64185 0
M  V30 10161 O 989.688 1.92922 0.340292 0
M  V30 10162 H 988.268 0.343881 -0.66314 0
M  V30 10163 H 990.93 0.210837 -1.93756 0
M  V30 10164 H 990.026 1.51921 -2.72629 0
M  V30 10165 N 990.327 1.50405 0.470755 0
M  V30 10166 C 991.26 1.63933 1.58749 0
M  V30 10167 C 992.238 0.487444 1.55122 0
M  V30 10168 O 993.422 0.706992 1.74739 0
M  V30 10169 C 990.549 1.62222 2.97324 0
M  V30 10170 C 989.595 2.82975 3.19104 0
M  V30 10171 S 990.428 4.44272 2.98969 0
M  V30 10172 C 991.584 4.45254 4.39886 0
M  V30 10173 H 991.817 2.58396 1.47034 0
M  V30 10174 H 989.35 1.39672 0.658115 0
M  V30 10175 H 991.308 1.6192 3.77217 0
M  V30 10176 H 989.969 0.689944 3.06429 0
M  V30 10177 H 989.162 2.78083 4.2034 0
M  V30 10178 H 988.764 2.80846 2.46984 0
M  V30 10179 H 991.056 4.18837 5.32524 0
M  V30 10180 H 991.999 5.4687 4.49821 0
M  V30 10181 H 992.407 3.74958 4.2198 0
M  V30 10182 N 991.805 -0.723954 1.39988 0
M  V30 10183 C 993.03 -1.5182 1.41299 0
M  V30 10184 C 993.455 -1.88096 0.0122636 0
M  V30 10185 O 992.813 -1.52687 -0.977559 0
M  V30 10186 C 992.861 -2.77532 2.30235 0
M  V30 10187 O 991.965 -3.73903 1.73984 0
M  V30 10188 H 991.306 -0.458058 0.480707 0
M  V30 10189 H 993.836 -0.892291 1.84118 0
M  V30 10190 H 993.846 -3.2615 2.45132 0
M  V30 10191 H 992.521 -2.50462 3.32026 0
M  V30 10192 H 991.098 -3.32715 1.68389 0
M  V30 10193 N 993.283 -1.25346 -0.955304 0
M  V30 10194 C 994.699 -1.02154 -1.22625 0
M  V30 10195 C 994.899 0.26206 -1.99789 0
M  V30 10196 O 993.955 0.974958 -2.32918 0
M  V30 10197 C 995.268 -2.2443 -2.00129 0
M  V30 10198 C 996.816 -2.29185 -2.13174 0
M  V30 10199 C 997.291 -3.51117 -2.94077 0
M  V30 10200 N 998.782 -3.51509 -3.01655 0
M  V30 10201 C 999.517 -4.42517 -3.64645 0
M  V30 10202 N 999.013 -5.43796 -4.29252 0
M  V30 10203 N 1000.81 -4.302 -3.61779 0
M  V30 10204 H 992.957 -2.07812 -0.439071 0
M  V30 10205 H 995.22 -0.91258 -0.256715 0
M  V30 10206 H 994.926 -3.17717 -1.50827 0
M  V30 10207 H 994.8 -2.27548 -3.00835 0
M  V30 10208 H 997.187 -1.36422 -2.61674 0
M  V30 10209 H 997.268 -2.30087 -1.11775 0
M  V30 10210 H 996.912 -4.44201 -2.46268 0
M  V30 10211 H 996.842 -3.4746 -3.95701 0
M  V30 10212 H 999.333 -2.78245 -2.55711 0
M  V30 10213 H 999.646 -6.09453 -4.75171 0
M  V30 10214 H 997.991 -5.4767 -4.27882 0
M  V30 10215 H 1001.18 -3.50304 -3.10491 0
M  V30 10216 H 1001.36 -5.01323 -4.10584 0
M  V30 10217 N 994.761 1.15782 -1.06922 0
M  V30 10218 C 996.038 1.8253 -0.703 0
M  V30 10219 C 996.418 1.94733 0.814994 0
M  V30 10220 O 995.766 1.49537 1.72774 0
M  V30 10221 C 995.976 3.19145 -1.41234 0
M  V30 10222 C 997.324 3.94839 -1.56164 0
M  V30 10223 O 998.348 3.28685 -1.37277 0
M  V30 10224 O 997.207 5.13436 -1.87205 0
M  V30 10225 H 994.301 0.788425 -0.24963 0
M  V30 10226 H 996.847 1.22931 -1.16988 0
M  V30 10227 H 995.619 3.05336 -2.44715 0
M  V30 10228 H 995.242 3.86427 -0.935959 0
M  V30 10229 N 996.239 0.8527 1.3254 0
M  V30 10230 C 997.488 0.45136 1.96585 0
M  V30 10231 C 997.801 -0.997773 1.68237 0
M  V30 10232 O 999.007 -1.50445 2.26006 0
M  V30 10233 C 997.463 0.75619 3.51866 0
M  V30 10234 C 997.071 2.22092 3.89075 0
M  V30 10235 C 998.815 0.422478 4.22392 0
M  V30 10236 C 996.722 2.46908 5.37392 0
M  V30 10237 H 995.652 0.165052 0.735713 0
M  V30 10238 H 998.303 1.04321 1.50962 0
M  V30 10239 H 996.685 0.0937988 3.95889 0
M  V30 10240 H 997.859 2.92494 3.56067 0
M  V30 10241 H 996.174 2.51896 3.31568 0
M  V30 10242 H 998.771 0.58533 5.31487 0
M  V30 10243 H 999.114 -0.635737 4.11417 0
M  V30 10244 H 999.647 1.04068 3.83946 0
M  V30 10245 H 996.386 3.51346 5.53386 0
M  V30 10246 H 995.906 1.81082 5.71812 0
M  V30 10247 H 997.585 2.30758 6.0445 0
M  V30 10248 N 997.718 -1.45297 0.610449 0
M  V30 10249 C 998.948 -2.0629 0.113047 0
M  V30 10250 C 999.356 -1.45527 -1.20907 0
M  V30 10251 O 998.699 -0.564837 -1.74801 0
M  V30 10252 C 998.761 -3.59366 -0.0979692 0
M  V30 10253 C 998.425 -4.42481 1.14279 0
M  V30 10254 C 999.422 -4.77277 2.06161 0
M  V30 10255 C 997.107 -4.83187 1.37241 0
M  V30 10256 C 999.101 -5.51639 3.19333 0
M  V30 10257 C 996.788 -5.57303 2.50713 0
M  V30 10258 C 997.786 -5.91445 3.41587 0
M  V30 10259 O 997.474 -6.64056 4.53083 0
M  V30 10260 H 997.206 -0.67264 0.0673159 0
M  V30 10261 H 999.76 -1.87486 0.838937 0
M  V30 10262 H 997.99 -3.76582 -0.878783 0
M  V30 10263 H 999.679 -4.02193 -0.547327 0
M  V30 10264 H 1000.44 -4.46384 1.89647 0
M  V30 10265 H 996.324 -4.56045 0.67407 0
M  V30 10266 H 999.868 -5.78207 3.90286 0
M  V30 10267 H 995.765 -5.8761 2.67179 0
M  V30 10268 H 996.533 -6.82509 4.51801 0
M  V30 10269 N 999.196 -0.349774 -1.5367 0
M  V30 10270 C 1000.42 0.248692 -2.05904 0
M  V30 10271 C 1000.85 1.42942 -1.22267 0
M  V30 10272 O 1000.2 1.79732 -0.237899 0
M  V30 10273 C 1000.25 0.635639 -3.54953 0
M  V30 10274 O 999.356 1.7349 -3.74132 0
M  V30 10275 H 998.697 0.0399477 -0.662797 0
M  V30 10276 H 1001.23 -0.505795 -1.9825 0
M  V30 10277 H 1001.24 0.911064 -3.97698 0
M  V30 10278 H 999.912 -0.227805 -4.15276 0
M  V30 10279 H 998.489 1.45626 -3.43289 0
M  V30 10280 N 1000.67 1.57404 -0.0785433 0
M  V30 10281 C 1001.9 1.98074 0.597862 0
M  V30 10282 C 1002.32 0.95714 1.6274 0
M  V30 10283 O 1001.67 -0.0553728 1.82416 0
M  V30 10284 C 1001.72 3.38815 1.26041 0
M  V30 10285 O 1001.45 4.37254 0.27207 0
M  V30 10286 C 1002.95 3.94397 2.024 0
M  V30 10287 H 1000.17 0.651263 0.161546 0
M  V30 10288 H 1002.71 2.03927 -0.152941 0
M  V30 10289 H 1000.87 3.34028 1.96225 0
M  V30 10290 H 1001.28 5.19136 0.74822 0
M  V30 10291 H 1002.75 4.95075 2.4414 0
M  V30 10292 H 1003.23 3.31308 2.88326 0
M  V30 10293 H 1003.84 4.02607 1.37068 0
M  V30 10294 N 1002.15 -0.195058 1.56388 0
M  V30 10295 C 1003.43 -0.941335 1.71459 0
M  V30 10296 C 1003.81 -2.01375 0.633336 0
M  V30 10297 O 1003.16 -2.25715 -0.35567 0
M  V30 10298 C 1003.37 -1.52772 3.13786 0
M  V30 10299 C 1004.71 -2.00983 3.7402 0
M  V30 10300 O 1005.74 -1.62614 3.16915 0
M  V30 10301 O 1004.6 -2.71586 4.7424 0
M  V30 10302 H 1001.69 -0.441451 0.699321 0
M  V30 10303 H 1004.24 -0.184752 1.68691 0
M  V30 10304 H 1003.01 -0.754699 3.83953 0
M  V30 10305 H 1002.63 -2.34914 3.20782 0
M  V30 10306 N 1003.63 -1.50653 -0.462772 0
M  V30 10307 C 1004.86 -1.65586 -1.23551 0
M  V30 10308 C 1005.27 -0.342012 -1.86083 0
M  V30 10309 O 1004.61 0.686893 -1.70374 0
M  V30 10310 C 1004.67 -2.69555 -2.37867 0
M  V30 10311 C 1004.34 -4.1288 -1.95906 0
M  V30 10312 C 1005.33 -4.98483 -1.47685 0
M  V30 10313 C 1003.02 -4.58843 -2.04373 0
M  V30 10314 C 1005.01 -6.281 -1.08484 0
M  V30 10315 C 1002.7 -5.88464 -1.64783 0
M  V30 10316 C 1003.7 -6.72918 -1.16918 0
M  V30 10317 O 1003.39 -8.00119 -0.778798 0
M  V30 10318 H 1003.12 -0.559438 -0.37948 0
M  V30 10319 H 1005.67 -1.9768 -0.557816 0
M  V30 10320 H 1003.9 -2.3272 -3.08834 0
M  V30 10321 H 1005.59 -2.73624 -2.99808 0
M  V30 10322 H 1006.36 -4.64186 -1.40558 0
M  V30 10323 H 1002.24 -3.93247 -2.40577 0
M  V30 10324 H 1005.78 -6.93972 -0.710524 0
M  V30 10325 H 1001.68 -6.22281 -1.71571 0
M  V30 10326 H 1002.44 -8.1346 -0.906911 0
M  V30 10327 N 1005.11 0.71652 -1.4037 0
M  V30 10328 C 1006.34 1.50344 -1.41704 0
M  V30 10329 C 1006.75 1.89194 -0.0148011 0
M  V30 10330 O 1006.09 1.55916 0.971391 0
M  V30 10331 C 1006.15 2.80928 -2.2432 0
M  V30 10332 C 1005.82 2.64406 -3.72744 0
M  V30 10333 C 1006.81 2.31727 -4.65401 0
M  V30 10334 C 1004.5 2.807 -4.16549 0
M  V30 10335 C 1006.49 2.15551 -5.99847 0
M  V30 10336 C 1004.18 2.64141 -5.51065 0
M  V30 10337 C 1005.18 2.31614 -6.42529 0
M  V30 10338 O 1004.86 2.15179 -7.74566 0
M  V30 10339 H 1004.6 0.470574 -0.48532 0
M  V30 10340 H 1007.15 0.89152 -1.85043 0
M  V30 10341 H 1005.38 3.4445 -1.75759 0
M  V30 10342 H 1007.07 3.4264 -2.17607 0
M  V30 10343 H 1007.84 2.18773 -4.32855 0
M  V30 10344 H 1003.71 3.05005 -3.45677 0
M  V30 10345 H 1007.26 1.90084 -6.71203 0
M  V30 10346 H 1003.16 2.76679 -5.83197 0
M  V30 10347 H 1003.92 2.30106 -7.85489 0
M  V30 10348 N 1006.59 1.25851 0.948643 0
M  V30 10349 C 1008 1.02802 1.22081 0
M  V30 10350 C 1008.2 -0.251461 1.99925 0
M  V30 10351 O 1007.26 -0.962592 2.33432 0
M  V30 10352 C 1008.57 2.25489 1.98936 0
M  V30 10353 C 1010.12 2.30312 2.11956 0
M  V30 10354 C 1010.59 3.52671 2.92211 0
M  V30 10355 N 1012.09 3.53103 2.99787 0
M  V30 10356 C 1012.82 4.44445 3.62294 0
M  V30 10357 N 1012.32 5.46065 4.26362 0
M  V30 10358 N 1014.11 4.32113 3.59493 0
M  V30 10359 H 1006.26 2.08042 0.428044 0
M  V30 10360 H 1008.52 0.913928 0.251872 0
M  V30 10361 H 1008.23 3.18513 1.4914 0
M  V30 10362 H 1008.1 2.2914 2.99624 0
M  V30 10363 H 1010.49 1.37808 2.60946 0
M  V30 10364 H 1010.57 2.30676 1.10554 0
M  V30 10365 H 1010.22 4.45501 2.43909 0
M  V30 10366 H 1010.15 3.49554 3.93853 0
M  V30 10367 H 1012.64 2.79597 2.54232 0
M  V30 10368 H 1012.95 6.11964 4.71932 0
M  V30 10369 H 1011.29 5.49931 4.24972 0
M  V30 10370 H 1014.49 3.51946 3.08629 0
M  V30 10371 H 1014.66 5.03493 4.0792 0
M  V30 10372 N 1008.06 -1.15214 1.07534 0
M  V30 10373 C 1009.31 -1.86319 0.800814 0
M  V30 10374 C 1009.64 -1.82221 -0.671494 0
M  V30 10375 O 1008.92 -1.24664 -1.49295 0
M  V30 10376 C 1009.2 -3.35347 1.31203 0
M  V30 10377 C 1009.05 -3.48067 2.84902 0
M  V30 10378 C 1010.37 -4.3016 0.930064 0
M  V30 10379 H 1007.49 -0.676523 0.292379 0
M  V30 10380 H 1010.13 -1.35349 1.33344 0
M  V30 10381 H 1008.28 -3.78886 0.858949 0
M  V30 10382 H 1009.96 -3.13379 3.38514 0
M  V30 10383 H 1008.2 -2.89566 3.23008 0
M  V30 10384 H 1008.87 -4.52782 3.15741 0
M  V30 10385 H 1011.35 -3.94591 1.3205 0
M  V30 10386 H 1010.22 -5.32914 1.31507 0
M  V30 10387 H 1010.48 -4.41796 -0.163824 0
M  V30 10388 N 1009.54 -0.859717 -1.32086 0
M  V30 10389 C 1010.79 -0.464662 -1.96686 0
M  V30 10390 C 1011.11 0.98412 -1.68345 0
M  V30 10391 O 1010.38 1.68847 -0.993361 0
M  V30 10392 H 1008.96 -0.168838 -0.727669 0
M  V30 10393 H 1011.62 -1.09726 -1.61079 0
M  V30 10394 H 1010.72 -0.613904 -3.06003 0
M  V30 10395 N 1011.02 1.44971 -0.618145 0
M  V30 10396 C 1012.27 2.0176 -0.11725 0
M  V30 10397 C 1012.59 1.48773 1.26062 0
M  V30 10398 O 1011.86 0.686152 1.83491 0
M  V30 10399 H 1010.44 0.745909 -0.0403545 0
M  V30 10400 H 1013.1 1.77638 -0.801923 0
M  V30 10401 H 1012.2 3.1201 -0.0750477 0
M  V30 10402 N 1012.5 0.357919 1.53482 0
M  V30 10403 C 1013.91 0.00655107 1.59599 0
M  V30 10404 C 1014.11 -1.47449 1.37336 0
M  V30 10405 O 1013.17 -2.2351 1.17472 0
M  V30 10406 C 1014.48 0.455617 2.97228 0
M  V30 10407 C 1016.03 0.409183 3.10314 0
M  V30 10408 C 1016.51 0.833941 4.50344 0
M  V30 10409 N 1018 0.788695 4.56436 0
M  V30 10410 C 1018.73 1.08914 5.62961 0
M  V30 10411 N 1018.23 1.45847 6.77274 0
M  V30 10412 N 1020.02 1.01243 5.52907 0
M  V30 10413 H 1012.17 1.32248 1.66206 0
M  V30 10414 H 1014.44 0.540047 0.779136 0
M  V30 10415 H 1014.14 1.48881 3.18634 0
M  V30 10416 H 1014.02 -0.161751 3.76853 0
M  V30 10417 H 1016.4 -0.614863 2.88623 0
M  V30 10418 H 1016.48 1.06195 2.32715 0
M  V30 10419 H 1016.13 1.85607 4.72771 0
M  V30 10420 H 1016.06 0.158507 5.26361 0
M  V30 10421 H 1018.55 0.516497 3.74354 0
M  V30 10422 H 1018.86 1.67218 7.54492 0
M  V30 10423 H 1017.21 1.49705 6.78685 0
M  V30 10424 H 1020.4 0.723137 4.62481 0
M  V30 10425 H 1020.57 1.24991 6.35831 0
M  V30 10426 N 1013.98 -1.5736 0.0868897 0
M  V30 10427 C 1015.2 -1.98388 -0.587349 0
M  V30 10428 C 1015.62 -0.965757 -1.6223 0
M  V30 10429 O 1014.98 0.0456981 -1.82443 0
M  V30 10430 C 1015.03 -3.39479 -1.24242 0
M  V30 10431 O 1014.75 -4.37393 -0.248878 0
M  V30 10432 C 1016.25 -3.95465 -2.00305 0
M  V30 10433 H 1013.47 -0.652111 -0.15809 0
M  V30 10434 H 1016.01 -2.03843 0.163754 0
M  V30 10435 H 1014.17 -3.35063 -1.94451 0
M  V30 10436 H 1014.58 -5.19525 -0.720678 0
M  V30 10437 H 1016.06 -4.96363 -2.41511 0
M  V30 10438 H 1016.53 -3.32832 -2.86565 0
M  V30 10439 H 1017.14 -4.03328 -1.34931 0
M  V30 10440 N 1015.45 0.186762 -1.56489 0
M  V30 10441 C 1016.39 1.25971 -1.9028 0
M  V30 10442 C 1017.37 1.43543 -0.763822 0
M  V30 10443 O 1018.55 1.58799 -1.01564 0
M  V30 10444 C 1015.68 2.62507 -2.14028 0
M  V30 10445 C 1014.72 2.61758 -3.36727 0
M  V30 10446 S 1015.56 2.12366 -4.9159 0
M  V30 10447 C 1016.71 3.5071 -5.18414 0
M  V30 10448 H 1016.94 0.971203 -2.80989 0
M  V30 10449 H 1014.48 0.390636 -1.49377 0
M  V30 10450 H 1016.44 3.41098 -2.28391 0
M  V30 10451 H 1015.1 2.88564 -1.24054 0
M  V30 10452 H 1014.29 3.62173 -3.50495 0
M  V30 10453 H 1013.89 1.91254 -3.214 0
M  V30 10454 H 1016.18 4.46622 -5.09445 0
M  V30 10455 H 1017.13 3.41829 -6.20128 0
M  V30 10456 H 1017.53 3.46008 -4.46026 0
M  V30 10457 N 1016.93 1.50896 0.454776 0
M  V30 10458 C 1017.86 1.73885 1.5584 0
M  V30 10459 C 1018.84 0.588172 1.59607 0
M  V30 10460 O 1020.03 0.829054 1.75614 0
M  V30 10461 C 1017.16 1.84796 2.94054 0
M  V30 10462 C 1016.11 3.00111 3.05152 0
M  V30 10463 C 1015.44 2.96183 4.45174 0
M  V30 10464 C 1016.74 4.40365 2.80849 0
M  V30 10465 H 1018.43 2.66292 1.36854 0
M  V30 10466 H 1015.98 1.28142 0.656936 0
M  V30 10467 H 1017.93 1.99462 3.71204 0
M  V30 10468 H 1016.66 0.890235 3.14233 0
M  V30 10469 H 1015.31 2.85121 2.30438 0
M  V30 10470 H 1014.96 1.98224 4.62295 0
M  V30 10471 H 1014.66 3.73608 4.53532 0
M  V30 10472 H 1016.19 3.1292 5.24322 0
M  V30 10473 H 1017.6 4.55795 3.47741 0
M  V30 10474 H 1016 5.19363 3.00636 0
M  V30 10475 H 1017.07 4.51606 1.76579 0
M  V30 10476 N 1018.41 -0.709066 1.40748 0
M  V30 10477 C 1019.82 -1.28847 1.35112 0
M  V30 10478 C 1020.17 -1.9618 0.0277149 0
M  V30 10479 O 1019.3 -1.97955 -0.874233 0
M  V30 10480 C 1019.89 -2.34306 2.44716 0
M  V30 10481 C 1018.45 -2.87856 2.4252 0
M  V30 10482 C 1017.6 -1.61723 2.25257 0
M  V30 10483 H 1020.55 -0.504742 1.50459 0
M  V30 10484 H 1020.57 -3.15297 2.12998 0
M  V30 10485 H 1020.08 -1.85271 3.41022 0
M  V30 10486 H 1018.18 -3.41103 1.49931 0
M  V30 10487 H 1018.3 -3.39205 3.38344 0
M  V30 10488 H 1016.66 -1.87032 1.7289 0
M  V30 10489 H 1017.44 -1.14703 3.23571 0
M  V30 10490 N 1019.89 -1.26353 -0.941956 0
M  V30 10491 C 1021.14 -1.11241 -1.68251 0
M  V30 10492 C 1021.45 0.344055 -1.9255 0
M  V30 10493 O 1022.66 0.615832 -2.64423 0
M  V30 10494 C 1021.11 -1.94269 -3.02965 0
M  V30 10495 C 1020.72 -3.44485 -2.86415 0
M  V30 10496 C 1022.47 -1.87764 -3.80716 0
M  V30 10497 C 1020.37 -4.19763 -4.16597 0
M  V30 10498 H 1019.3 -0.412694 -0.63103 0
M  V30 10499 H 1021.95 -1.50656 -1.04762 0
M  V30 10500 H 1020.34 -1.47687 -3.6743 0
M  V30 10501 H 1021.51 -3.9883 -2.30805 0
M  V30 10502 H 1019.82 -3.52218 -2.22107 0
M  V30 10503 H 1022.42 -2.41292 -4.77161 0
M  V30 10504 H 1022.76 -0.848195 -4.07568 0
M  V30 10505 H 1023.3 -2.32165 -3.23024 0
M  V30 10506 H 1020.04 -5.23173 -3.9493 0
M  V30 10507 H 1019.56 -3.70198 -4.71925 0
M  V30 10508 H 1021.24 -4.28168 -4.85058 0
M  V30 10509 N 1021.37 1.14642 -1.08144 0
M  V30 10510 C 1022.78 1.37604 -0.808537 0
M  V30 10511 C 1022.98 1.92868 0.583452 0
M  V30 10512 O 1022.04 2.13964 1.34073 0
M  V30 10513 C 1023.35 2.3396 -1.889 0
M  V30 10514 C 1024.9 2.47605 -1.9147 0
M  V30 10515 C 1025.38 3.47258 -2.98623 0
M  V30 10516 N 1026.87 3.548 -2.97777 0
M  V30 10517 C 1027.6 4.31751 -3.77331 0
M  V30 10518 N 1027.1 5.11966 -4.66757 0
M  V30 10519 N 1028.89 4.2692 -3.65645 0
M  V30 10520 H 1021.04 0.771154 -1.97906 0
M  V30 10521 H 1023.3 0.401694 -0.858688 0
M  V30 10522 H 1023.01 2.00484 -2.88962 0
M  V30 10523 H 1022.88 3.33833 -1.756 0
M  V30 10524 H 1025.27 2.80375 -0.920548 0
M  V30 10525 H 1025.35 1.47702 -2.08848 0
M  V30 10526 H 1025 3.15223 -3.98243 0
M  V30 10527 H 1024.93 4.46935 -2.7849 0
M  V30 10528 H 1027.42 2.97553 -2.3296 0
M  V30 10529 H 1027.73 5.67951 -5.24072 0
M  V30 10530 H 1026.08 5.11245 -4.70801 0
M  V30 10531 H 1029.27 3.63322 -2.95152 0
M  V30 10532 H 1029.44 4.8664 -4.27885 0
M  V30 10533 N 1022.85 0.866709 1.31628 0
M  V30 10534 C 1024.09 0.486046 1.97507 0
M  V30 10535 C 1024.45 -0.95049 1.67283 0
M  V30 10536 O 1023.74 -1.65979 0.957158 0
M  V30 10537 C 1023.93 0.676018 3.50948 0
M  V30 10538 C 1023.76 2.12947 3.96086 0
M  V30 10539 C 1022.53 2.77041 4.22583 0
M  V30 10540 C 1024.73 3.10139 4.10266 0
M  V30 10541 N 1022.71 4.13172 4.54051 0
M  V30 10542 C 1024.08 4.3129 4.45409 0
M  V30 10543 C 1026.14 3.06173 3.92635 0
M  V30 10544 C 1024.84 5.4899 4.6476 0
M  V30 10545 C 1026.87 4.23128 4.13178 0
M  V30 10546 C 1026.23 5.43041 4.48649 0
M  V30 10547 H 1022.33 0.226831 0.748379 0
M  V30 10548 H 1024.91 1.12063 1.59217 0
M  V30 10549 H 1023.08 0.071055 3.88335 0
M  V30 10550 H 1024.82 0.264062 4.03838 0
M  V30 10551 H 1021.57 2.28009 4.15101 0
M  V30 10552 H 1021.99 4.83426 4.7395 0
M  V30 10553 H 1026.64 2.14576 3.64303 0
M  V30 10554 H 1024.35 6.41108 4.91942 0
M  V30 10555 H 1027.94 4.21509 4.01026 0
M  V30 10556 H 1026.82 6.32034 4.64223 0
M  V30 10557 N 1024.32 -1.44642 0.625825 0
M  V30 10558 C 1025.26 -2.27821 -0.131481 0
M  V30 10559 C 1026.23 -1.38224 -0.856324 0
M  V30 10560 O 1027.42 -1.67662 -0.861493 0
M  V30 10561 C 1024.55 -3.1703 -1.19204 0
M  V30 10562 C 1023.59 -4.22697 -0.568315 0
M  V30 10563 S 1024.42 -5.3169 0.637612 0
M  V30 10564 C 1025.58 -6.24468 -0.423088 0
M  V30 10565 H 1025.81 -2.91703 0.574177 0
M  V30 10566 H 1023.35 -1.4875 0.413844 0
M  V30 10567 H 1025.3 -3.6898 -1.79901 0
M  V30 10568 H 1023.97 -2.52379 -1.86986 0
M  V30 10569 H 1023.16 -4.8511 -1.36689 0
M  V30 10570 H 1022.76 -3.73983 -0.0360843 0
M  V30 10571 H 1025.05 -6.64967 -1.29713 0
M  V30 10572 H 1026 -7.07907 0.165338 0
M  V30 10573 H 1026.4 -5.59541 -0.746606 0
M  V30 10574 N 1025.8 -0.366053 -1.5329 0
M  V30 10575 C 1027.21 0.113056 -1.86357 0
M  V30 10576 C 1027.56 1.48123 -1.28662 0
M  V30 10577 O 1026.69 2.07658 -0.608849 0
M  V30 10578 C 1027.28 0.211923 -3.38137 0
M  V30 10579 C 1025.84 0.635289 -3.71 0
M  V30 10580 C 1024.99 -0.217203 -2.76448 0
M  V30 10581 H 1027.94 -0.584829 -1.47531 0
M  V30 10582 H 1027.96 1.0354 -3.66142 0
M  V30 10583 H 1027.47 -0.783994 -3.80099 0
M  V30 10584 H 1025.57 1.63942 -3.34595 0
M  V30 10585 H 1025.69 0.409571 -4.77346 0
M  V30 10586 H 1024.05 0.313988 -2.52757 0
M  V30 10587 H 1024.83 -1.21067 -3.21244 0
M  V30 10588 N 1027.28 1.57312 -0.0952337 0
M  V30 10589 C 1028.69 1.81589 0.433875 0
M  V30 10590 C 1029.04 1.01086 1.68155 0
M  V30 10591 O 1028.17 0.240272 2.15062 0
M  V30 10592 C 1028.76 3.29366 0.793931 0
M  V30 10593 C 1027.32 3.54407 1.26778 0
M  V30 10594 C 1026.47 2.76035 0.264518 0
M  V30 10595 H 1029.42 1.55426 -0.320675 0
M  V30 10596 H 1029.44 3.42697 1.65345 0
M  V30 10597 H 1028.95 3.87932 -0.114334 0
M  V30 10598 H 1027.05 3.01173 2.19376 0
M  V30 10599 H 1027.17 4.63055 1.22952 0
M  V30 10600 H 1025.53 2.43509 0.746691 0
M  V30 10601 H 1026.31 3.37349 -0.636429 0
M  V30 10602 N 1028.76 -0.17846 1.56586 0
M  V30 10603 C 1029.67 -1.24115 1.9908 0
M  V30 10604 C 1030.68 -1.48854 0.901031 0
M  V30 10605 O 1031.86 -1.61142 1.2081 0
M  V30 10606 C 1028.92 -2.56187 2.33601 0
M  V30 10607 C 1027.99 -2.39373 3.56369 0
M  V30 10608 C 1027.22 -3.65147 3.89234 0
M  V30 10609 O 1027.44 -4.70024 3.23162 0
M  V30 10610 O 1026.38 -3.59683 4.82609 0
M  V30 10611 H 1030.2 -0.910482 2.89731 0
M  V30 10612 H 1027.79 -0.38477 1.4436 0
M  V30 10613 H 1029.67 -3.34109 2.56806 0
M  V30 10614 H 1028.34 -2.88847 1.46113 0
M  V30 10615 H 1027.25 -1.59506 3.38391 0
M  V30 10616 H 1028.58 -2.1164 4.44375 0
M  V30 10617 N 1030.24 -1.51135 -0.446768 0
M  V30 10618 C 1031.46 -1.67411 -1.22427 0
M  V30 10619 C 1031.89 -0.367009 -1.84485 0
M  V30 10620 O 1031.24 0.67185 -1.68392 0
M  V30 10621 C 1031.29 -2.78473 -2.29096 0
M  V30 10622 O 1030.4 -2.41419 -3.34351 0
M  V30 10623 H 1029.74 -0.558512 -0.359111 0
M  V30 10624 H 1032.27 -1.97648 -0.5288 0
M  V30 10625 H 1032.28 -3.02277 -2.7403 0
M  V30 10626 H 1030.95 -3.73326 -1.83304 0
M  V30 10627 H 1029.53 -2.28152 -2.9496 0
M  V30 10628 N 1031.71 0.701592 -1.41122 0
M  V30 10629 C 1032.96 1.45722 -1.39456 0
M  V30 10630 C 1033.28 1.95599 -0.00475228 0
M  V30 10631 O 1034.48 2.71166 0.134529 0
M  V30 10632 C 1032.94 2.63475 -2.45172 0
M  V30 10633 C 1032.55 2.20409 -3.90031 0
M  V30 10634 C 1034.29 3.4114 -2.52633 0
M  V30 10635 C 1032.2 3.35084 -4.87312 0
M  V30 10636 H 1031.13 0.547341 -0.518588 0
M  V30 10637 H 1033.78 0.762233 -1.6692 0
M  V30 10638 H 1032.16 3.35212 -2.10829 0
M  V30 10639 H 1033.33 1.56 -4.3359 0
M  V30 10640 H 1031.65 1.55752 -3.86174 0
M  V30 10641 H 1034.25 4.26496 -3.22498 0
M  V30 10642 H 1034.59 3.85915 -1.56125 0
M  V30 10643 H 1035.12 2.76456 -2.86037 0
M  V30 10644 H 1031.86 2.95327 -5.85203 0
M  V30 10645 H 1031.38 3.98362 -4.48406 0
M  V30 10646 H 1033.06 4.00949 -5.07788 0
M  V30 10647 N 1033.19 1.2685 0.935242 0
M  V30 10648 C 1034.12 1.1143 2.05196 0
M  V30 10649 C 1035.1 0.0178362 1.70091 0
M  V30 10650 O 1036.29 0.190951 1.93259 0
M  V30 10651 C 1033.42 0.752779 3.39044 0
M  V30 10652 C 1032.37 1.80164 3.88233 0
M  V30 10653 C 1031.7 1.29428 5.18799 0
M  V30 10654 C 1033 3.20431 4.12457 0
M  V30 10655 H 1034.69 2.04845 2.18355 0
M  V30 10656 H 1032.24 0.986276 1.04922 0
M  V30 10657 H 1034.19 0.631757 4.16637 0
M  V30 10658 H 1032.91 -0.217075 3.25878 0
M  V30 10659 H 1031.57 1.91144 3.12825 0
M  V30 10660 H 1031.22 0.3141 5.02018 0
M  V30 10661 H 1030.92 1.99546 5.5268 0
M  V30 10662 H 1032.45 1.18605 5.9897 0
M  V30 10663 H 1033.86 3.12495 4.80645 0
M  V30 10664 H 1032.26 3.88193 4.57631 0
M  V30 10665 H 1033.33 3.66046 3.18023 0
M  V30 10666 N 1034.67 -1.14067 1.0875 0
M  V30 10667 C 1035.9 -1.88767 0.839682 0
M  V30 10668 C 1036.31 -1.79024 -0.612119 0
M  V30 10669 O 1035.65 -1.14986 -1.43262 0
M  V30 10670 C 1035.71 -3.39333 1.18716 0
M  V30 10671 C 1035.38 -3.72858 2.64245 0
M  V30 10672 C 1036.37 -3.72683 3.62496 0
M  V30 10673 C 1034.06 -4.0273 3.0019 0
M  V30 10674 C 1036.05 -4.01909 4.9472 0
M  V30 10675 C 1033.74 -4.31618 4.32607 0
M  V30 10676 C 1034.74 -4.31192 5.29682 0
M  V30 10677 O 1034.43 -4.59377 6.59718 0
M  V30 10678 H 1034.16 -0.604665 0.302253 0
M  V30 10679 H 1036.71 -1.45364 1.45115 0
M  V30 10680 H 1034.94 -3.83205 0.518707 0
M  V30 10681 H 1036.63 -3.95346 0.919599 0
M  V30 10682 H 1037.4 -3.49688 3.3607 0
M  V30 10683 H 1033.28 -4.02213 2.25268 0
M  V30 10684 H 1036.82 -4.01491 5.70483 0
M  V30 10685 H 1032.72 -4.54083 4.58779 0
M  V30 10686 H 1033.49 -4.77078 6.65086 0
M  V30 10687 N 1036.15 -0.873678 -1.31166 0
M  V30 10688 C 1037.56 -0.566109 -1.49223 0
M  V30 10689 C 1037.76 0.898889 -1.80339 0
M  V30 10690 O 1036.82 1.68084 -1.88425 0
M  V30 10691 C 1038.13 -1.46952 -2.62346 0
M  V30 10692 C 1039.68 -1.47195 -2.76229 0
M  V30 10693 C 1040.16 -2.36102 -3.92454 0
M  V30 10694 N 1041.65 -2.34003 -3.99746 0
M  V30 10695 C 1042.38 -2.99513 -4.88958 0
M  V30 10696 N 1041.88 -3.74206 -5.83045 0
M  V30 10697 N 1043.67 -2.88802 -4.82234 0
M  V30 10698 H 1035.82 -1.82156 -1.09239 0
M  V30 10699 H 1038.09 -0.779086 -0.54012 0
M  V30 10700 H 1037.79 -2.51213 -2.4614 0
M  V30 10701 H 1037.67 -1.17077 -3.5857 0
M  V30 10702 H 1040.05 -0.436902 -2.91848 0
M  V30 10703 H 1040.13 -1.81095 -1.80661 0
M  V30 10704 H 1039.78 -3.39685 -3.77593 0
M  V30 10705 H 1039.71 -1.99524 -4.87337 0
M  V30 10706 H 1042.2 -1.79713 -3.32433 0
M  V30 10707 H 1042.51 -4.21312 -6.47855 0
M  V30 10708 H 1040.86 -3.78314 -5.83012 0
M  V30 10709 H 1044.05 -2.29984 -4.07707 0
M  V30 10710 H 1044.22 -3.40136 -5.51554 0
M  V30 10711 N 1037.63 1.44308 -0.633487 0
M  V30 10712 C 1038.57 2.30694 0.0700257 0
M  V30 10713 C 1039.54 1.43618 0.834447 0
M  V30 10714 O 1040.73 1.72517 0.815014 0
M  V30 10715 C 1037.87 3.28929 1.04403 0
M  V30 10716 C 1036.98 4.31106 0.277779 0
M  V30 10717 C 1036.12 5.16433 1.24381 0
M  V30 10718 C 1035.16 6.10317 0.466855 0
M  V30 10719 N 1034.29 6.88335 1.38347 0
M  V30 10720 H 1039.13 2.90311 -0.672567 0
M  V30 10721 H 1036.67 1.43034 -0.343449 0
M  V30 10722 H 1038.63 3.84373 1.62214 0
M  V30 10723 H 1037.26 2.71006 1.75372 0
M  V30 10724 H 1036.31 3.78115 -0.416292 0
M  V30 10725 H 1037.62 4.97725 -0.327251 0
M  V30 10726 H 1036.78 5.76406 1.89318 0
M  V30 10727 H 1035.51 4.49893 1.88276 0
M  V30 10728 H 1034.52 5.49451 -0.195989 0
M  V30 10729 H 1035.74 6.78894 -0.167414 0
M  V30 10730 H 1033.69 6.24461 2.00959 0
M  V30 10731 H 1033.61 7.51402 0.832517 0
M  V30 10732 H 1034.88 7.52829 2.0216 0
M  V30 10733 N 1039.1 0.374177 1.53094 0
M  V30 10734 C 1040.35 -0.212816 2.01379 0
M  V30 10735 C 1040.68 -1.48069 1.26118 0
M  V30 10736 O 1039.93 -1.92625 0.345561 0
M  V30 10737 C 1040.23 -0.542179 3.53264 0
M  V30 10738 C 1039.9 0.632375 4.46444 0
M  V30 10739 C 1038.56 0.954635 4.71636 0
M  V30 10740 C 1040.91 1.41887 5.01515 0
M  V30 10741 C 1038.24 2.06521 5.4915 0
M  V30 10742 C 1040.59 2.51993 5.80243 0
M  V30 10743 C 1039.26 2.84744 6.03719 0
M  V30 10744 H 1038.53 -0.0778749 0.736897 0
M  V30 10745 H 1041.17 0.508412 1.84628 0
M  V30 10746 H 1039.48 -1.34454 3.68007 0
M  V30 10747 H 1041.18 -1.00874 3.88105 0
M  V30 10748 H 1037.77 0.371179 4.2699 0
M  V30 10749 H 1041.95 1.18315 4.81991 0
M  V30 10750 H 1037.21 2.32284 5.65557 0
M  V30 10751 H 1041.38 3.13346 6.21922 0
M  V30 10752 H 1039.01 3.70921 6.63568 0
M  V30 10753 N 1040.58 -1.57259 0.103575 0
M  V30 10754 C 1041.81 -1.99 -0.566275 0
M  V30 10755 C 1042.23 -0.982909 -1.61197 0
M  V30 10756 O 1041.58 0.026345 -1.82481 0
M  V30 10757 C 1041.63 -3.40778 -1.20635 0
M  V30 10758 O 1041.35 -4.37632 -0.202472 0
M  V30 10759 C 1042.86 -3.97567 -1.961 0
M  V30 10760 H 1040.08 -0.653751 -0.151164 0
M  V30 10761 H 1042.62 -2.03658 0.185365 0
M  V30 10762 H 1040.77 -3.37107 -1.90886 0
M  V30 10763 H 1041.19 -5.2026 -0.665535 0
M  V30 10764 H 1042.66 -4.98897 -2.36233 0
M  V30 10765 H 1043.14 -3.35853 -2.83018 0
M  V30 10766 H 1043.75 -4.04737 -1.30645 0
M  V30 10767 N 1042.06 0.170153 -1.56679 0
M  V30 10768 C 1043.29 0.902134 -1.86197 0
M  V30 10769 C 1043.7 1.75775 -0.689098 0
M  V30 10770 O 1043.06 1.79271 0.341763 0
M  V30 10771 C 1043.11 1.77792 -3.14757 0
M  V30 10772 O 1042.83 0.956817 -4.27524 0
M  V30 10773 C 1044.33 2.61947 -3.57629 0
M  V30 10774 H 1041.55 0.262026 -0.617724 0
M  V30 10775 H 1044.1 0.169899 -2.03793 0
M  V30 10776 H 1042.25 2.46348 -2.98984 0
M  V30 10777 H 1042.67 1.5559 -5.00891 0
M  V30 10778 H 1044.14 3.19011 -4.50484 0
M  V30 10779 H 1044.62 3.36873 -2.81803 0
M  V30 10780 H 1045.22 1.98721 -3.76019 0
M  V30 10781 N 1043.54 1.5137 0.438746 0
M  V30 10782 C 1044.45 1.75424 1.55768 0
M  V30 10783 C 1045.46 0.638409 1.61865 0
M  V30 10784 O 1046.64 0.9205 1.79133 0
M  V30 10785 C 1043.71 1.87288 2.9176 0
M  V30 10786 C 1042.77 3.11137 2.95791 0
M  V30 10787 C 1042 3.22425 4.25297 0
M  V30 10788 O 1042.22 2.39688 5.17596 0
M  V30 10789 O 1041.16 4.15393 4.35583 0
M  V30 10790 H 1044.98 2.70339 1.38386 0
M  V30 10791 H 1042.57 1.35854 0.621609 0
M  V30 10792 H 1044.45 1.97085 3.72472 0
M  V30 10793 H 1043.12 0.955599 3.09273 0
M  V30 10794 H 1042.03 3.06819 2.1404 0
M  V30 10795 H 1043.36 4.02549 2.83223 0
M  V30 10796 N 1045.02 -0.694098 1.41492 0
M  V30 10797 C 1046.24 -1.48789 1.44488 0
M  V30 10798 C 1046.67 -1.88028 0.0521588 0
M  V30 10799 O 1046.02 -1.54727 -0.944952 0
M  V30 10800 C 1046.07 -2.72586 2.3607 0
M  V30 10801 O 1045.18 -3.70128 1.81876 0
M  V30 10802 H 1044.52 -0.447758 0.490315 0
M  V30 10803 H 1047.05 -0.853036 1.85969 0
M  V30 10804 H 1047.06 -3.20877 2.51995 0
M  V30 10805 H 1045.73 -2.43363 3.37264 0
M  V30 10806 H 1044.31 -3.29069 1.75408 0
M  V30 10807 N 1046.49 -1.27344 -0.928501 0
M  V30 10808 C 1047.77 -1.04362 -1.65433 0
M  V30 10809 C 1048.15 0.421896 -2.06841 0
M  V30 10810 O 1047.5 1.40496 -1.80203 0
M  V30 10811 C 1047.71 -2.00442 -2.85699 0
M  V30 10812 C 1049.06 -2.29767 -3.57061 0
M  V30 10813 O 1050.08 -1.98409 -2.95825 0
M  V30 10814 O 1048.94 -2.83217 -4.67387 0
M  V30 10815 H 1046.03 -0.397783 -0.72505 0
M  V30 10816 H 1048.58 -1.38606 -0.979109 0
M  V30 10817 H 1047.35 -2.99281 -2.52085 0
M  V30 10818 H 1046.98 -1.66755 -3.60941 0
M  V30 10819 N 1047.97 1.13488 -1.09353 0
M  V30 10820 C 1049.22 1.85022 -0.830354 0
M  V30 10821 C 1049.55 1.83266 0.64242 0
M  V30 10822 O 1048.83 1.27024 1.47293 0
M  V30 10823 C 1049.11 3.33218 -1.36521 0
M  V30 10824 C 1048.96 3.43491 -2.90404 0
M  V30 10825 C 1050.28 4.28626 -0.998381 0
M  V30 10826 H 1047.4 0.671786 -0.303105 0
M  V30 10827 H 1050.04 1.33211 -1.3548 0
M  V30 10828 H 1048.19 3.77471 -0.919117 0
M  V30 10829 H 1049.86 3.07954 -3.43456 0
M  V30 10830 H 1048.11 2.84391 -3.27573 0
M  V30 10831 H 1048.78 4.47702 -3.22905 0
M  V30 10832 H 1051.25 3.9244 -1.38311 0
M  V30 10833 H 1050.13 5.30754 -1.39968 0
M  V30 10834 H 1050.39 4.42001 0.093517 0
M  V30 10835 N 1049.45 0.880621 1.30701 0
M  V30 10836 C 1050.7 0.506967 1.96981 0
M  V30 10837 C 1051.05 -0.932694 1.68281 0
M  V30 10838 O 1050.35 -1.64954 0.974709 0
M  V30 10839 C 1050.54 0.713203 3.50212 0
M  V30 10840 C 1050.37 2.17136 3.93805 0
M  V30 10841 C 1049.14 2.81508 4.19621 0
M  V30 10842 C 1051.34 3.14473 4.06954 0
M  V30 10843 N 1049.32 4.17965 4.49643 0
M  V30 10844 C 1050.69 4.3599 4.40809 0
M  V30 10845 C 1052.74 3.1032 3.89366 0
M  V30 10846 C 1051.45 5.53889 4.58911 0
M  V30 10847 C 1053.47 4.27487 4.08667 0
M  V30 10848 C 1052.84 5.47769 4.42864 0
M  V30 10849 H 1048.93 0.234756 0.745931 0
M  V30 10850 H 1051.52 1.13745 1.5802 0
M  V30 10851 H 1049.69 0.112239 3.88238 0
M  V30 10852 H 1051.42 0.30688 4.03535 0
M  V30 10853 H 1048.18 2.32399 4.12659 0
M  V30 10854 H 1048.6 4.88425 4.68796 0
M  V30 10855 H 1053.24 2.18428 3.62007 0
M  V30 10856 H 1050.96 6.46289 4.85114 0
M  V30 10857 H 1054.55 4.25738 3.96533 0
M  V30 10858 H 1053.43 6.36922 4.57493 0
M  V30 10859 N 1050.93 -1.4397 0.641131 0
M  V30 10860 C 1052.15 -2.06818 0.155318 0
M  V30 10861 C 1052.58 -1.47665 -1.16519 0
M  V30 10862 O 1051.94 -0.58192 -1.71707 0
M  V30 10863 C 1051.99 -3.60542 0.0647537 0
M  V30 10864 O 1051.09 -4.00674 -0.976447 0
M  V30 10865 H 1050.43 -0.657962 0.0893404 0
M  V30 10866 H 1052.96 -1.84678 0.88064 0
M  V30 10867 H 1052.97 -4.07816 -0.122552 0
M  V30 10868 H 1051.65 -4.02975 1.02878 0
M  V30 10869 H 1050.22 -3.65013 -0.762905 0
M  V30 10870 N 1052.41 -0.382291 -1.52893 0
M  V30 10871 C 1053.65 0.202133 -2.01489 0
M  V30 10872 C 1053.98 1.47399 -1.26901 0
M  V30 10873 O 1053.24 1.92439 -0.355771 0
M  V30 10874 C 1053.54 0.523437 -3.53546 0
M  V30 10875 C 1053.2 -0.656042 -4.46102 0
M  V30 10876 C 1051.86 -0.979633 -4.71123 0
M  V30 10877 C 1054.22 -1.44545 -5.00756 0
M  V30 10878 C 1051.54 -2.0943 -5.48047 0
M  V30 10879 C 1053.9 -2.55066 -5.78899 0
M  V30 10880 C 1052.56 -2.87942 -6.02201 0
M  V30 10881 H 1051.83 0.0739659 -0.737299 0
M  V30 10882 H 1054.48 -0.518196 -1.84356 0
M  V30 10883 H 1052.78 1.325 -3.68715 0
M  V30 10884 H 1054.48 0.988148 -3.88634 0
M  V30 10885 H 1051.07 -0.393818 -4.26787 0
M  V30 10886 H 1055.25 -1.20869 -4.81357 0
M  V30 10887 H 1050.51 -2.3528 -5.64317 0
M  V30 10888 H 1054.68 -3.1664 -6.20252 0
M  V30 10889 H 1052.31 -3.74435 -6.61591 0
M  V30 10890 N 1053.89 1.57202 -0.111913 0
M  V30 10891 C 1055.13 1.94565 0.546713 0
M  V30 10892 C 1055.45 0.995644 1.67666 0
M  V30 10893 O 1054.72 0.0506681 1.95834 0
M  V30 10894 H 1053.3 0.718334 0.204951 0
M  V30 10895 H 1055.97 1.94074 -0.179193 0
M  V30 10896 H 1055.06 2.9742 0.945931 0
M  V30 10897 N 1055.36 -0.161842 1.56767 0
M  V30 10898 C 1056.61 -0.878224 1.82798 0
M  V30 10899 C 1056.94 -1.81481 0.691242 0
M  V30 10900 O 1056.22 -1.92075 -0.30618 0
M  V30 10901 C 1056.5 -1.66565 3.19262 0
M  V30 10902 C 1056.35 -0.751551 4.43477 0
M  V30 10903 C 1057.67 -2.63134 3.52773 0
M  V30 10904 H 1054.79 -0.317828 0.664947 0
M  V30 10905 H 1057.43 -0.14402 1.89453 0
M  V30 10906 H 1055.58 -2.29157 3.13719 0
M  V30 10907 H 1057.26 -0.137783 4.61094 0
M  V30 10908 H 1055.5 -0.0601785 4.33758 0
M  V30 10909 H 1056.17 -1.33823 5.35533 0
M  V30 10910 H 1058.65 -2.10666 3.5883 0
M  V30 10911 H 1057.52 -3.15289 4.49315 0
M  V30 10912 H 1057.78 -3.43786 2.77963 0
M  V30 10913 N 1056.84 -1.516 -0.430713 0
M  V30 10914 C 1058.09 -1.6484 -1.18134 0
M  V30 10915 C 1058.42 -0.366725 -1.90706 0
M  V30 10916 O 1057.7 0.63398 -1.83878 0
M  V30 10917 C 1057.98 -2.85617 -2.19306 0
M  V30 10918 C 1057.83 -4.23778 -1.50773 0
M  V30 10919 C 1059.15 -3.01909 -3.20217 0
M  V30 10920 H 1056.27 -0.599907 -0.428113 0
M  V30 10921 H 1058.91 -1.84102 -0.46973 0
M  V30 10922 H 1057.06 -2.69325 -2.79993 0
M  V30 10923 H 1058.73 -4.51752 -0.93371 0
M  V30 10924 H 1056.98 -4.26171 -0.809966 0
M  V30 10925 H 1057.65 -5.04291 -2.24487 0
M  V30 10926 H 1060.12 -3.16956 -2.69589 0
M  V30 10927 H 1059 -3.87968 -3.88293 0
M  V30 10928 H 1059.26 -2.1427 -3.86705 0
M  V30 10929 N 1058.32 0.686584 -1.41858 0
M  V30 10930 C 1059.25 1.81264 -1.47193 0
M  V30 10931 C 1060.23 1.66875 -0.329657 0
M  V30 10932 O 1061.42 1.86473 -0.542347 0
M  V30 10933 C 1058.55 3.19472 -1.36216 0
M  V30 10934 C 1057.5 3.4858 -2.48347 0
M  V30 10935 C 1056.83 4.86239 -2.22432 0
M  V30 10936 C 1058.13 3.46653 -3.90678 0
M  V30 10937 H 1059.82 1.77057 -2.41436 0
M  V30 10938 H 1057.37 0.850415 -1.16206 0
M  V30 10939 H 1059.32 3.97969 -1.38558 0
M  V30 10940 H 1058.04 3.24327 -0.384611 0
M  V30 10941 H 1056.7 2.72437 -2.45303 0
M  V30 10942 H 1056.35 4.8773 -1.22999 0
M  V30 10943 H 1056.05 5.06677 -2.97577 0
M  V30 10944 H 1057.57 5.67034 -2.26505 0
M  V30 10945 H 1058.99 4.15139 -3.95389 0
M  V30 10946 H 1057.38 3.78625 -4.65578 0
M  V30 10947 H 1058.45 2.45451 -4.18189 0
M  V30 10948 N 1059.8 1.27835 0.921735 0
M  V30 10949 C 1061.04 1.15702 1.67286 0
M  V30 10950 C 1061.4 -0.293049 1.90155 0
M  V30 10951 O 1060.69 -1.21058 1.48511 0
M  V30 10952 C 1060.89 1.88054 3.03925 0
M  V30 10953 C 1060.71 3.39947 2.94391 0
M  V30 10954 C 1059.48 4.09275 2.96347 0
M  V30 10955 C 1061.68 4.35824 2.7306 0
M  V30 10956 N 1059.66 5.47694 2.77317 0
M  V30 10957 C 1061.04 5.61551 2.62794 0
M  V30 10958 C 1063.09 4.25844 2.57994 0
M  V30 10959 C 1061.79 6.78434 2.38998 0
M  V30 10960 C 1063.82 5.42455 2.35577 0
M  V30 10961 C 1063.18 6.67141 2.26058 0
M  V30 10962 H 1059.28 0.478278 0.618687 0
M  V30 10963 H 1061.86 1.61382 1.08922 0
M  V30 10964 H 1060.04 1.4482 3.60391 0
M  V30 10965 H 1061.77 1.68374 3.68011 0
M  V30 10966 H 1058.52 3.6079 3.06802 0
M  V30 10967 H 1058.95 6.2043 2.70916 0
M  V30 10968 H 1063.59 3.30161 2.64109 0
M  V30 10969 H 1061.31 7.74194 2.31623 0
M  V30 10970 H 1064.89 5.36617 2.24796 0
M  V30 10971 H 1063.77 7.55851 2.08947 0
M  V30 10972 N 1061.28 -1.12907 1.09954 0
M  V30 10973 C 1062.19 -2.22082 0.756095 0
M  V30 10974 C 1063.2 -1.72277 -0.244272 0
M  V30 10975 O 1064.38 -2.01224 -0.0842637 0
M  V30 10976 C 1061.44 -3.46192 0.187642 0
M  V30 10977 C 1060.5 -4.10861 1.24465 0
M  V30 10978 C 1059.74 -5.29047 0.703227 0
M  V30 10979 O 1059.96 -5.68443 -0.472043 0
M  V30 10980 O 1058.89 -5.83904 1.46082 0
M  V30 10981 H 1062.72 -2.53842 1.66727 0
M  V30 10982 H 1060.3 -1.21145 0.874316 0
M  V30 10983 H 1062.19 -4.21212 -0.125774 0
M  V30 10984 H 1060.86 -3.16119 -0.696459 0
M  V30 10985 H 1059.77 -3.37643 1.61085 0
M  V30 10986 H 1061.1 -4.45078 2.10159 0
M  V30 10987 N 1062.75 -0.88754 -1.30232 0
M  V30 10988 C 1064 -0.503322 -1.95319 0
M  V30 10989 C 1064.32 0.952817 -1.70824 0
M  V30 10990 O 1065.52 1.444 -2.29915 0
M  V30 10991 C 1063.98 -0.849216 -3.49738 0
M  V30 10992 C 1063.59 -2.3233 -3.83049 0
M  V30 10993 C 1065.33 -0.53432 -4.21124 0
M  V30 10994 C 1063.24 -2.61069 -5.30657 0
M  V30 10995 H 1062.17 -0.1845 -0.731078 0
M  V30 10996 H 1064.82 -1.08287 -1.48143 0
M  V30 10997 H 1063.2 -0.198729 -3.95501 0
M  V30 10998 H 1064.37 -3.01832 -3.48187 0
M  V30 10999 H 1062.69 -2.60599 -3.24773 0
M  V30 11000 H 1065.29 -0.726039 -5.29748 0
M  V30 11001 H 1065.63 0.526434 -4.12958 0
M  V30 11002 H 1066.16 -1.14211 -3.81052 0
M  V30 11003 H 1062.9 -3.65895 -5.43876 0
M  V30 11004 H 1062.42 -1.96179 -5.6681 0
M  V30 11005 H 1064.1 -2.46703 -5.98119 0
M  V30 11006 N 1064.23 1.43628 -0.648757 0
M  V30 11007 C 1065.48 2.01864 -0.160336 0
M  V30 11008 C 1065.81 1.51148 1.22412 0
M  V30 11009 O 1065.06 0.693168 1.83013 0
M  V30 11010 C 1065.36 3.57214 -0.115282 0
M  V30 11011 C 1065.03 4.27258 -1.44088 0
M  V30 11012 C 1063.69 4.46109 -1.8039 0
M  V30 11013 C 1066.04 4.66962 -2.31508 0
M  V30 11014 C 1063.37 5.01928 -3.03785 0
M  V30 11015 C 1065.72 5.24148 -3.54191 0
M  V30 11016 C 1064.39 5.41216 -3.90694 0
M  V30 11017 H 1063.66 0.738674 -0.0586712 0
M  V30 11018 H 1066.3 1.72163 -0.838578 0
M  V30 11019 H 1064.61 3.86431 0.646395 0
M  V30 11020 H 1066.3 4.00025 0.279425 0
M  V30 11021 H 1062.89 4.12928 -1.14842 0
M  V30 11022 H 1067.08 4.52095 -2.04753 0
M  V30 11023 H 1062.33 5.13328 -3.32122 0
M  V30 11024 H 1066.51 5.53861 -4.22151 0
M  V30 11025 H 1064.14 5.84234 -4.8639 0
M  V30 11026 N 1065.71 0.390394 1.52688 0
M  V30 11027 C 1066.94 -0.191485 2.06012 0
M  V30 11028 C 1067.35 -1.40422 1.26202 0
M  V30 11029 O 1066.71 -1.79866 0.308963 0
M  V30 11030 C 1066.76 -0.560521 3.57128 0
M  V30 11031 O 1066.48 0.60404 4.33916 0
M  V30 11032 C 1067.98 -1.19814 4.26801 0
M  V30 11033 H 1065.2 -0.0286311 0.670389 0
M  V30 11034 H 1067.75 0.555939 1.96798 0
M  V30 11035 H 1065.9 -1.25784 3.66411 0
M  V30 11036 H 1066.32 0.300467 5.23639 0
M  V30 11037 H 1067.79 -1.40672 5.33775 0
M  V30 11038 H 1068.27 -2.16582 3.82085 0
M  V30 11039 H 1068.87 -0.541558 4.21838 0
M  V30 11040 N 1067.19 -1.57141 0.120249 0
M  V30 11041 C 1068.42 -1.993 -0.544346 0
M  V30 11042 C 1068.83 -0.998858 -1.60684 0
M  V30 11043 O 1068.17 0.0162197 -1.83693 0
M  V30 11044 C 1068.23 -3.37874 -1.22808 0
M  V30 11045 C 1067.9 -4.55924 -0.313374 0
M  V30 11046 C 1068.89 -5.17962 0.448501 0
M  V30 11047 C 1066.58 -5.018 -0.224082 0
M  V30 11048 C 1068.57 -6.24264 1.28739 0
M  V30 11049 C 1066.26 -6.07963 0.618437 0
M  V30 11050 C 1067.26 -6.69061 1.3728 0
M  V30 11051 O 1066.94 -7.73173 2.20133 0
M  V30 11052 H 1066.68 -0.659466 -0.148596 0
M  V30 11053 H 1069.23 -2.04387 0.203779 0
M  V30 11054 H 1067.46 -3.29545 -2.02329 0
M  V30 11055 H 1069.15 -3.64314 -1.7897 0
M  V30 11056 H 1069.92 -4.83434 0.389395 0
M  V30 11057 H 1065.79 -4.53989 -0.80094 0
M  V30 11058 H 1069.34 -6.71883 1.87667 0
M  V30 11059 H 1065.24 -6.4192 0.678932 0
M  V30 11060 H 1066 -7.90276 2.13088 0
M  V30 11061 N 1068.67 0.153526 -1.5685 0
M  V30 11062 C 1069.91 0.865519 -1.82629 0
M  V30 11063 C 1070.24 1.81999 -0.700105 0
M  V30 11064 O 1069.51 1.93907 0.278744 0
M  V30 11065 H 1068.09 0.32261 -0.673745 0
M  V30 11066 H 1070.75 0.149088 -1.94329 0
M  V30 11067 H 1069.84 1.43171 -2.77324 0
M  V30 11068 N 1070.14 1.51827 0.422667 0
M  V30 11069 C 1071.09 1.74198 1.51406 0
M  V30 11070 C 1072.06 0.584013 1.55494 0
M  V30 11071 O 1073.25 0.820079 1.72277 0
M  V30 11072 C 1070.39 1.88627 2.88988 0
M  V30 11073 C 1069.5 3.16233 2.94314 0
M  V30 11074 C 1068.63 3.21172 4.2311 0
M  V30 11075 C 1067.67 4.43033 4.2236 0
M  V30 11076 N 1066.81 4.4544 5.42704 0
M  V30 11077 H 1071.65 2.67352 1.31632 0
M  V30 11078 H 1069.19 1.32487 0.63919 0
M  V30 11079 H 1071.15 1.94976 3.68837 0
M  V30 11080 H 1069.78 0.988673 3.07287 0
M  V30 11081 H 1068.83 3.19123 2.07039 0
M  V30 11082 H 1070.14 4.06104 2.89623 0
M  V30 11083 H 1069.29 3.26517 5.11343 0
M  V30 11084 H 1068.03 2.29216 4.30478 0
M  V30 11085 H 1067.04 4.37849 3.32518 0
M  V30 11086 H 1068.26 5.3627 4.16643 0
M  V30 11087 H 1066.21 3.56361 5.50766 0
M  V30 11088 H 1066.13 5.29138 5.39953 0
M  V30 11089 H 1067.39 4.54997 6.32928 0
M  V30 11090 N 1071.62 -0.679052 1.4222 0
M  V30 11091 C 1072.55 -1.80455 1.41311 0
M  V30 11092 C 1073.57 -1.59767 0.312799 0
M  V30 11093 O 1074.76 -1.68964 0.575612 0
M  V30 11094 C 1071.86 -3.17492 1.18541 0
M  V30 11095 C 1071.03 -3.65066 2.40926 0
M  V30 11096 C 1070.09 -4.80823 2.13765 0
M  V30 11097 O 1069.11 -4.91587 2.86934 0
M  V30 11098 N 1070.32 -5.69233 1.13813 0
M  V30 11099 H 1073.08 -1.81722 2.38322 0
M  V30 11100 H 1070.64 -0.861988 1.37045 0
M  V30 11101 H 1072.63 -3.92581 0.982958 0
M  V30 11102 H 1071.2 -3.1115 0.300691 0
M  V30 11103 H 1070.42 -2.80702 2.76767 0
M  V30 11104 H 1071.71 -3.93593 3.22431 0
M  V30 11105 H 1071.11 -5.63185 0.532887 0
M  V30 11106 H 1069.67 -6.44152 0.995554 0
M  V30 11107 N 1073.1 -1.28322 -0.914942 0
M  V30 11108 C 1074.51 -1.13937 -1.47903 0
M  V30 11109 C 1074.86 0.271072 -1.94318 0
M  V30 11110 O 1073.99 1.16522 -1.8235 0
M  V30 11111 C 1074.58 -2.06221 -2.68809 0
M  V30 11112 C 1073.14 -1.95903 -3.21402 0
M  V30 11113 C 1072.29 -1.98031 -1.94111 0
M  V30 11114 H 1075.24 -1.41029 -0.727772 0
M  V30 11115 H 1075.26 -1.6255 -3.44031 0
M  V30 11116 H 1074.77 -3.08866 -2.34997 0
M  V30 11117 H 1072.87 -0.962907 -3.59943 0
M  V30 11118 H 1072.99 -2.82799 -3.86732 0
M  V30 11119 H 1071.35 -1.42423 -2.11158 0
M  V30 11120 H 1072.13 -3.02354 -1.62595 0
M  V30 11121 N 1074.58 1.12322 -1.10551 0
M  V30 11122 C 1075.82 1.84333 -0.859826 0
M  V30 11123 C 1076.18 1.82539 0.608052 0
M  V30 11124 O 1075.47 1.26086 1.44267 0
M  V30 11125 C 1075.67 3.31177 -1.34375 0
M  V30 11126 C 1075.5 3.47272 -2.85714 0
M  V30 11127 C 1074.27 3.60837 -3.5373 0
M  V30 11128 C 1076.46 3.42336 -3.83811 0
M  V30 11129 N 1074.45 3.65309 -4.93378 0
M  V30 11130 C 1075.82 3.53318 -5.09477 0
M  V30 11131 C 1077.87 3.25809 -3.76501 0
M  V30 11132 C 1076.57 3.49477 -6.28695 0
M  V30 11133 C 1078.6 3.23282 -4.9522 0
M  V30 11134 C 1077.96 3.34826 -6.19735 0
M  V30 11135 H 1074.06 0.690186 -0.367651 0
M  V30 11136 H 1076.65 1.34463 -1.40811 0
M  V30 11137 H 1074.82 3.79585 -0.822767 0
M  V30 11138 H 1076.55 3.91051 -1.04217 0
M  V30 11139 H 1073.3 3.63005 -3.04178 0
M  V30 11140 H 1073.73 3.71207 -5.66157 0
M  V30 11141 H 1078.37 3.15777 -2.81149 0
M  V30 11142 H 1076.09 3.5828 -7.24335 0
M  V30 11143 H 1079.67 3.11674 -4.91274 0
M  V30 11144 H 1078.55 3.32847 -7.10058 0
M  V30 11145 N 1076.06 0.894434 1.2976 0
M  V30 11146 C 1077.29 0.532143 1.99629 0
M  V30 11147 C 1077.69 -0.886234 1.6716 0
M  V30 11148 O 1077.04 -1.59573 0.910065 0
M  V30 11149 C 1077.1 0.638335 3.53787 0
M  V30 11150 C 1076.76 2.02273 4.09798 0
M  V30 11151 C 1077.76 2.99327 4.25087 0
M  V30 11152 C 1075.45 2.33069 4.44954 0
M  V30 11153 C 1077.44 4.25304 4.74758 0
M  V30 11154 C 1075.13 3.59289 4.94322 0
M  V30 11155 C 1076.12 4.55222 5.09178 0
M  V30 11156 O 1075.81 5.79202 5.57477 0
M  V30 11157 H 1075.54 0.203326 0.644697 0
M  V30 11158 H 1078.1 1.2043 1.6639 0
M  V30 11159 H 1076.33 -0.0908338 3.86593 0
M  V30 11160 H 1078.02 0.285956 4.04891 0
M  V30 11161 H 1078.78 2.76849 3.9822 0
M  V30 11162 H 1074.66 1.59162 4.32653 0
M  V30 11163 H 1078.21 5.00189 4.86269 0
M  V30 11164 H 1074.1 3.816 5.20626 0
M  V30 11165 H 1074.87 5.81717 5.75802 0
M  V30 11166 N 1077.53 -1.43282 0.656365 0
M  V30 11167 C 1078.47 -2.29087 -0.0720378 0
M  V30 11168 C 1079.48 -1.4268 -0.783982 0
M  V30 11169 O 1080.67 -1.66585 -0.641213 0
M  V30 11170 C 1077.77 -3.19676 -1.12519 0
M  V30 11171 C 1076.94 -4.34638 -0.490756 0
M  V30 11172 C 1076 -5.06079 -1.44121 0
M  V30 11173 O 1075.03 -5.6124 -0.948595 0
M  V30 11174 N 1076.23 -5.09872 -2.77509 0
M  V30 11175 H 1078.99 -2.92241 0.664456 0
M  V30 11176 H 1076.55 -1.54006 0.499383 0
M  V30 11177 H 1078.55 -3.64334 -1.76189 0
M  V30 11178 H 1077.12 -2.581 -1.76362 0
M  V30 11179 H 1076.34 -3.92857 0.3251 0
M  V30 11180 H 1077.62 -5.08777 -0.0480061 0
M  V30 11181 H 1077.02 -4.66433 -3.20088 0
M  V30 11182 H 1075.58 -5.58237 -3.36474 0
M  V30 11183 N 1079.01 -0.398486 -1.52479 0
M  V30 11184 C 1079.94 0.423498 -2.29627 0
M  V30 11185 C 1080.92 1.05547 -1.33394 0
M  V30 11186 O 1082.11 1.0665 -1.62294 0
M  V30 11187 C 1079.24 1.54612 -3.10986 0
M  V30 11188 C 1078.19 1.03971 -4.15179 0
M  V30 11189 C 1077.52 2.25512 -4.84818 0
M  V30 11190 C 1078.82 0.10121 -5.22202 0
M  V30 11191 H 1080.51 -0.220222 -2.98589 0
M  V30 11192 H 1078.06 -0.107355 -1.43599 0
M  V30 11193 H 1080.01 2.12806 -3.63719 0
M  V30 11194 H 1078.74 2.21756 -2.39774 0
M  V30 11195 H 1077.4 0.480251 -3.63441 0
M  V30 11196 H 1077.04 2.91187 -4.10145 0
M  V30 11197 H 1076.74 1.92285 -5.55248 0
M  V30 11198 H 1078.27 2.84331 -5.40359 0
M  V30 11199 H 1079.68 0.591617 -5.70239 0
M  V30 11200 H 1078.08 -0.141737 -5.99933 0
M  V30 11201 H 1079.15 -0.847216 -4.77441 0
M  V30 11202 N 1080.49 1.57075 -0.12858 0
M  V30 11203 C 1081.72 2.00305 0.537839 0
M  V30 11204 C 1082.14 1.00787 1.58819 0
M  V30 11205 O 1081.5 -0.0190839 1.8129 0
M  V30 11206 C 1081.55 3.42371 1.13201 0
M  V30 11207 O 1080.65 3.45786 2.24735 0
M  V30 11208 H 1079.99 0.650456 0.133428 0
M  V30 11209 H 1082.52 2.03415 -0.219882 0
M  V30 11210 H 1082.53 3.80783 1.4652 0
M  V30 11211 H 1081.21 4.14315 0.362713 0
M  V30 11212 H 1079.78 3.19201 1.92783 0
M  V30 11213 N 1081.97 -0.145205 1.5693 0
M  V30 11214 C 1082.92 -1.19841 1.99351 0
M  V30 11215 C 1083.91 -1.44371 0.886197 0
M  V30 11216 O 1085.12 -1.44642 1.07138 0
M  V30 11217 H 1081.49 -0.403437 0.63462 0
M  V30 11218 H 1083.46 -0.813932 2.87085 0
M  V30 11219 C 1082.21 -2.52377 2.39167 0
M  V30 11220 H 1081.54 -2.34332 3.23927 0
M  V30 11221 H 1082.98 -3.24694 2.72671 0
M  V30 11222 C 1081.43 -3.1305 1.24503 0
M  V30 11223 O 1081.96 -3.97962 0.546739 0
M  V30 11224 N 1080.17 -2.72528 1.00882 0
M  V30 11225 H 1079.72 -2.03576 1.57843 0
M  V30 11226 H 1079.68 -3.13456 0.24351 0
M  V30 11227 N 1083.45 -1.52049 -0.414609 0
M  V30 11228 C 1084.68 -1.69679 -1.18392 0
M  V30 11229 C 1085.09 -0.403881 -1.84429 0
M  V30 11230 O 1084.45 0.619636 -1.71659 0
M  V30 11231 C 1084.5 -2.82855 -2.25112 0
M  V30 11232 O 1084.22 -4.07138 -1.61772 0
M  V30 11233 C 1085.72 -3.11948 -3.14965 0
M  V30 11234 H 1082.94 -0.56879 -0.355977 0
M  V30 11235 H 1085.48 -1.9858 -0.488505 0
M  V30 11236 H 1083.64 -2.56488 -2.90332 0
M  V30 11237 H 1084.05 -4.70163 -2.32479 0
M  V30 11238 H 1085.53 -3.94665 -3.85932 0
M  V30 11239 H 1086 -2.25276 -3.77024 0
M  V30 11240 H 1086.61 -3.40059 -2.55421 0
M  V30 11241 N 1084.93 0.6715 -1.42579 0
M  V30 11242 C 1085.84 1.81435 -1.48723 0
M  V30 11243 C 1086.85 1.69895 -0.375716 0
M  V30 11244 O 1088.03 1.91388 -0.627115 0
M  V30 11245 C 1085.09 3.17599 -1.39038 0
M  V30 11246 C 1084.15 3.41071 -2.60709 0
M  V30 11247 C 1083.39 4.7074 -2.51476 0
M  V30 11248 O 1083.61 5.48868 -1.55243 0
M  V30 11249 O 1082.54 4.95528 -3.41666 0
M  V30 11250 H 1086.37 1.79206 -2.45191 0
M  V30 11251 H 1083.95 0.827666 -1.24379 0
M  V30 11252 H 1085.84 3.98847 -1.3601 0
M  V30 11253 H 1084.51 3.20458 -0.456966 0
M  V30 11254 H 1083.42 2.59659 -2.69311 0
M  V30 11255 H 1084.75 3.43045 -3.5296 0
M  V30 11256 N 1086.4 1.28806 0.908124 0
M  V30 11257 C 1087.37 1.13228 1.99279 0
M  V30 11258 C 1088.37 0.0702456 1.60646 0
M  V30 11259 O 1089.56 0.316494 1.71301 0
M  V30 11260 C 1086.69 0.729629 3.33 0
M  V30 11261 H 1087.88 2.09566 2.14528 0
M  V30 11262 H 1085.43 1.11872 1.09153 0
M  V30 11263 H 1086.17 -0.234268 3.23453 0
M  V30 11264 H 1085.95 1.49688 3.62403 0
M  V30 11265 H 1087.44 0.643449 4.12613 0
M  V30 11266 N 1087.88 -1.11734 1.11145 0
M  V30 11267 C 1089.13 -1.82766 0.853194 0
M  V30 11268 C 1089.44 -1.85408 -0.623168 0
M  V30 11269 O 1090.65 -2.52509 -0.997574 0
M  V30 11270 C 1089.11 -3.28215 1.47658 0
M  V30 11271 C 1088.71 -3.33911 2.98676 0
M  V30 11272 C 1090.46 -4.04168 1.29803 0
M  V30 11273 C 1088.36 -4.73739 3.54013 0
M  V30 11274 H 1087.29 -0.684807 0.315523 0
M  V30 11275 H 1089.95 -1.25756 1.33633 0
M  V30 11276 H 1088.33 -3.85138 0.921116 0
M  V30 11277 H 1089.5 -2.86887 3.606 0
M  V30 11278 H 1087.82 -2.71437 3.15771 0
M  V30 11279 H 1090.41 -5.07429 1.68582 0
M  V30 11280 H 1090.76 -4.15606 0.240302 0
M  V30 11281 H 1091.29 -3.53623 1.82196 0
M  V30 11282 H 1088.03 -4.67497 4.59485 0
M  V30 11283 H 1087.55 -5.21186 2.9686 0
M  V30 11284 H 1089.23 -5.42691 3.52271 0
M  V30 11285 N 1089.36 -0.901303 -1.29284 0
M  V30 11286 C 1090.64 -0.44747 -1.90413 0
M  V30 11287 C 1091.02 1.07298 -1.81797 0
M  V30 11288 O 1090.36 1.91555 -1.24574 0
M  V30 11289 C 1090.57 -0.963849 -3.35427 0
M  V30 11290 C 1091.92 -1.00851 -4.12449 0
M  V30 11291 O 1092.95 -0.91163 -3.44337 0
M  V30 11292 O 1091.81 -1.15426 -5.34171 0
M  V30 11293 H 1088.9 -0.13976 -0.815105 0
M  V30 11294 H 1091.45 -0.991274 -1.37738 0
M  V30 11295 H 1090.22 -2.00782 -3.3586 0
M  V30 11296 H 1089.84 -0.400149 -3.95581 0
M  V30 11297 N 1090.84 1.42931 -0.663954 0
M  V30 11298 C 1092.08 2.03557 -0.185479 0
M  V30 11299 C 1092.44 1.51309 1.18193 0
M  V30 11300 O 1093.64 2.03649 1.75444 0
M  V30 11301 C 1091.91 3.56802 -0.206705 0
M  V30 11302 S 1093.47 4.38333 0.202356 0
M  V30 11303 H 1090.29 0.706791 -0.0772523 0
M  V30 11304 H 1092.89 1.74841 -0.874688 0
M  V30 11305 H 1091.6 3.92328 -1.20445 0
M  V30 11306 H 1091.13 3.90175 0.502693 0
M  V30 11307 H 1093.14 4.7489 1.43853 0
M  V30 11308 N 1092.32 0.406567 1.52266 0
M  V30 11309 C 1093.56 -0.171391 2.00971 0
M  V30 11310 C 1093.88 -1.46443 1.29668 0
M  V30 11311 O 1095.08 -2.12348 1.69176 0
M  V30 11312 C 1093.54 -0.35599 3.58135 0
M  V30 11313 C 1093.15 0.924803 4.38351 0
M  V30 11314 C 1094.89 -0.889378 4.15079 0
M  V30 11315 C 1092.8 0.707534 5.87152 0
M  V30 11316 H 1091.73 -0.0678253 0.750943 0
M  V30 11317 H 1094.38 0.531619 1.7563 0
M  V30 11318 H 1092.76 -1.12127 3.79794 0
M  V30 11319 H 1093.94 1.69603 4.28452 0
M  V30 11320 H 1092.25 1.38442 3.92712 0
M  V30 11321 H 1094.85 -1.06792 5.23927 0
M  V30 11322 H 1095.19 -1.86334 3.7227 0
M  V30 11323 H 1095.72 -0.183224 3.97378 0
M  V30 11324 H 1092.46 1.65299 6.34316 0
M  V30 11325 H 1091.98 -0.024446 5.99795 0
M  V30 11326 H 1093.66 0.348721 6.4606 0
M  V30 11327 N 1093.79 -1.57004 0.136909 0
M  V30 11328 C 1095.02 -2.00156 -0.523936 0
M  V30 11329 C 1095.44 -1.01688 -1.59075 0
M  V30 11330 O 1094.79 -0.0123678 -1.82496 0
M  V30 11331 C 1094.85 -3.4326 -1.13379 0
M  V30 11332 O 1094.57 -4.37963 -0.109598 0
M  V30 11333 C 1096.07 -4.01637 -1.87623 0
M  V30 11334 H 1093.29 -0.65681 -0.137263 0
M  V30 11335 H 1095.83 -2.03219 0.228522 0
M  V30 11336 H 1093.99 -3.4108 -1.83693 0
M  V30 11337 H 1094.4 -5.21555 -0.55503 0
M  V30 11338 H 1095.87 -5.03795 -2.25597 0
M  V30 11339 H 1096.35 -3.41781 -2.75831 0
M  V30 11340 H 1096.96 -4.07417 -1.22031 0
M  V30 11341 N 1095.27 0.136881 -1.57004 0
M  V30 11342 C 1096.2 1.19402 -1.95642 0
M  V30 11343 C 1097.22 1.38635 -0.853478 0
M  V30 11344 O 1098.41 1.38027 -1.13185 0
M  V30 11345 C 1095.51 2.55716 -2.22402 0
M  V30 11346 C 1094.68 2.57325 -3.53698 0
M  V30 11347 C 1093.74 3.75253 -3.68879 0
M  V30 11348 O 1092.76 3.5966 -4.41173 0
M  V30 11349 N 1093.97 4.93112 -3.06302 0
M  V30 11350 H 1096.73 0.865504 -2.8693 0
M  V30 11351 H 1094.29 0.326346 -1.58577 0
M  V30 11352 H 1096.28 3.33135 -2.29789 0
M  V30 11353 H 1094.85 2.80819 -1.37329 0
M  V30 11354 H 1094.07 1.65749 -3.5766 0
M  V30 11355 H 1095.36 2.55441 -4.40031 0
M  V30 11356 H 1094.76 5.08684 -2.47502 0
M  V30 11357 H 1093.32 5.68271 -3.19236 0
M  V30 11358 N 1096.75 1.52266 0.40654 0
M  V30 11359 C 1098 1.66123 1.15097 0
M  V30 11360 C 1098.32 0.394836 1.90961 0
M  V30 11361 O 1097.59 -0.590349 1.86793 0
M  V30 11362 H 1096.17 0.612317 0.427875 0
M  V30 11363 H 1098.83 1.89318 0.463106 0
M  V30 11364 H 1097.93 2.50351 1.86361 0
M  V30 11365 N 1098.23 -0.663929 1.42933 0
M  V30 11366 C 1099.64 -0.978346 1.26097 0
M  V30 11367 C 1099.84 -2.00756 0.172968 0
M  V30 11368 O 1098.9 -2.48418 -0.452184 0
M  V30 11369 C 1100.21 -1.4728 2.62162 0
M  V30 11370 C 1101.76 -1.59001 2.69606 0
M  V30 11371 C 1102.24 -2.1184 4.06064 0
M  V30 11372 N 1103.73 -2.19158 4.08074 0
M  V30 11373 C 1104.46 -2.61141 5.10483 0
M  V30 11374 N 1103.96 -3.02498 6.23271 0
M  V30 11375 N 1105.75 -2.60986 4.97838 0
M  V30 11376 H 1097.9 0.0173096 2.12393 0
M  V30 11377 H 1100.17 -0.0548116 0.946414 0
M  V30 11378 H 1099.87 -0.791008 3.42689 0
M  V30 11379 H 1099.75 -2.4497 2.86827 0
M  V30 11380 H 1102.13 -2.26284 1.89418 0
M  V30 11381 H 1102.21 -0.597728 2.48718 0
M  V30 11382 H 1101.86 -1.45162 4.86714 0
M  V30 11383 H 1101.79 -3.1188 4.2431 0
M  V30 11384 H 1104.28 -1.90013 3.26655 0
M  V30 11385 H 1104.59 -3.33251 6.97254 0
M  V30 11386 H 1102.94 -3.00328 6.2676 0
M  V30 11387 H 1106.13 -2.28046 4.08794 0
M  V30 11388 H 1106.3 -2.93384 5.7778 0
M  V30 11389 N 1099.71 -1.29285 -0.901281 0
M  V30 11390 C 1100.62 -1.16161 -2.03823 0
M  V30 11391 C 1101.63 -0.0852298 -1.73791 0
M  V30 11392 O 1102.81 -0.29699 -1.99198 0
M  V30 11393 C 1099.87 -0.837586 -3.3643 0
M  V30 11394 C 1098.93 -1.99764 -3.7999 0
M  V30 11395 C 1098.17 -1.68898 -5.0627 0
M  V30 11396 O 1098.39 -0.609177 -5.67138 0
M  V30 11397 O 1097.32 -2.53648 -5.45845 0
M  V30 11398 H 1101.15 -2.11635 -2.17817 0
M  V30 11399 H 1098.74 -1.08722 -1.02468 0
M  V30 11400 H 1100.62 -0.671376 -4.16017 0
M  V30 11401 H 1099.29 0.0873811 -3.23582 0
M  V30 11402 H 1098.2 -2.21908 -3.01177 0
M  V30 11403 H 1099.53 -2.90376 -3.9742 0
M  V30 11404 N 1101.18 1.11143 -1.11736 0
M  V30 11405 C 1102.11 2.19339 -0.800795 0
M  V30 11406 C 1103.1 1.68508 0.23221 0
M  V30 11407 O 1104.28 1.93967 0.0950063 0
M  V30 11408 C 1101.41 3.46424 -0.246579 0
M  V30 11409 C 1100.36 4.10487 -1.21181 0
M  V30 11410 C 1099.69 5.32183 -0.518158 0
M  V30 11411 C 1100.99 4.55052 -2.56368 0
M  V30 11412 H 1102.68 2.46077 -1.70548 0
M  V30 11413 H 1100.23 1.18271 -0.821454 0
M  V30 11414 H 1102.18 4.21398 -0.0128889 0
M  V30 11415 H 1100.91 3.19154 0.693415 0
M  V30 11416 H 1099.57 3.3751 -1.43118 0
M  V30 11417 H 1099.21 5.01187 0.426742 0
M  V30 11418 H 1098.91 5.75997 -1.16196 0
M  V30 11419 H 1100.44 6.09895 -0.293333 0
M  V30 11420 H 1101.85 5.21335 -2.38501 0
M  V30 11421 H 1100.25 5.0969 -3.16758 0
M  V30 11422 H 1101.32 3.68343 -3.1536 0
M  V30 11423 N 1102.66 0.908147 1.28804 0
M  V30 11424 C 1103.57 0.397167 2.31214 0
M  V30 11425 C 1104.59 -0.512352 1.66286 0
M  V30 11426 O 1105.76 -0.399893 1.9739 0
M  V30 11427 C 1102.83 -0.359522 3.44831 0
M  V30 11428 C 1101.89 0.582539 4.25329 0
M  V30 11429 C 1101.12 -0.138133 5.33521 0
M  V30 11430 O 1101.35 -1.36076 5.53931 0
M  V30 11431 O 1100.28 0.523682 5.99618 0
M  V30 11432 H 1104.11 1.247 2.76918 0
M  V30 11433 H 1101.69 0.672766 1.33395 0
M  V30 11434 H 1103.57 -0.787098 4.13984 0
M  V30 11435 H 1102.25 -1.18528 3.01219 0
M  V30 11436 H 1101.16 1.0594 3.58786 0
M  V30 11437 H 1102.49 1.37495 4.72605 0
M  V30 11438 N 1104.14 -1.42577 0.671525 0
M  V30 11439 C 1105.56 -1.5592 0.340769 0
M  V30 11440 C 1105.76 -1.65179 -1.15405 0
M  V30 11441 O 1104.81 -1.61691 -1.93939 0
M  V30 11442 C 1106.13 -2.81087 1.06821 0
M  V30 11443 C 1107.67 -2.94855 1.05022 0
M  V30 11444 C 1108.15 -4.22878 1.75892 0
M  V30 11445 N 1109.64 -4.29783 1.72744 0
M  V30 11446 C 1110.37 -5.2765 2.24439 0
M  V30 11447 N 1109.87 -6.31689 2.84501 0
M  V30 11448 N 1111.66 -5.19426 2.14832 0
M  V30 11449 H 1103.81 -1.34811 1.64133 0
M  V30 11450 H 1106.08 -0.648704 0.691294 0
M  V30 11451 H 1105.78 -2.80371 2.12332 0
M  V30 11452 H 1105.66 -3.71879 0.631356 0
M  V30 11453 H 1108.04 -2.951 0.00345633 0
M  V30 11454 H 1108.13 -2.05303 1.52592 0
M  V30 11455 H 1107.77 -4.23394 2.80535 0
M  V30 11456 H 1107.7 -5.1136 1.25773 0
M  V30 11457 H 1110.19 -3.55225 1.28932 0
M  V30 11458 H 1110.5 -7.02715 3.21575 0
M  V30 11459 H 1108.85 -6.3226 2.88569 0
M  V30 11460 H 1112.04 -4.37067 1.676 0
M  V30 11461 H 1112.21 -5.95535 2.55426 0
M  V30 11462 N 1105.62 -0.414636 -1.52048 0
M  V30 11463 C 1107.03 0.0537107 -1.86623 0
M  V30 11464 C 1107.38 1.43955 -1.3331 0
M  V30 11465 O 1106.51 2.05616 -0.674606 0
M  V30 11466 C 1107.1 0.104241 -3.3864 0
M  V30 11467 C 1105.66 0.516936 -3.72833 0
M  V30 11468 C 1104.81 -0.305042 -2.75617 0
M  V30 11469 H 1107.76 -0.631469 -1.45596 0
M  V30 11470 H 1107.78 0.918395 -3.6925 0
M  V30 11471 H 1107.29 -0.904523 -3.77412 0
M  V30 11472 H 1105.39 1.53214 -3.39641 0
M  V30 11473 H 1105.5 0.2575 -4.78408 0
M  V30 11474 H 1103.87 0.233416 -2.53628 0
M  V30 11475 H 1104.65 -1.31226 -3.1723 0
M  V30 11476 N 1107.1 1.56929 -0.145233 0
M  V30 11477 C 1108.51 1.58196 0.211194 0
M  V30 11478 C 1108.71 1.15941 1.64803 0
M  V30 11479 O 1107.77 0.858888 2.37443 0
M  V30 11480 C 1109.08 3.00665 -0.0459569 0
M  V30 11481 C 1110.63 3.12995 0.0178913 0
M  V30 11482 C 1111.1 4.5751 -0.211905 0
M  V30 11483 N 1112.6 4.62928 -0.158772 0
M  V30 11484 C 1113.33 5.72555 -0.311111 0
M  V30 11485 N 1112.83 6.90838 -0.521074 0
M  V30 11486 N 1114.62 5.61549 -0.248838 0
M  V30 11487 H 1106.77 1.8269 -1.08342 0
M  V30 11488 H 1109.03 0.845514 -0.428731 0
M  V30 11489 H 1108.74 3.35962 -1.0403 0
M  V30 11490 H 1108.61 3.71125 0.674246 0
M  V30 11491 H 1111 2.7754 1.00278 0
M  V30 11492 H 1111.08 2.45025 -0.734612 0
M  V30 11493 H 1110.73 4.93669 -1.19389 0
M  V30 11494 H 1110.66 5.23604 0.560901 0
M  V30 11495 H 1113.15 3.779 -0.00107283 0
M  V30 11496 H 1113.46 7.70248 -0.62747 0
M  V30 11497 H 1111.8 6.92761 -0.557374 0
M  V30 11498 H 1115 4.68022 -0.0855821 0
M  V30 11499 H 1115.17 6.46937 -0.370997 0
M  V30 11500 N 1108.58 -0.128553 1.57075 0
M  V30 11501 C 1109.54 -1.14215 1.98715 0
M  V30 11502 C 1110.54 -1.34843 0.876019 0
M  V30 11503 O 1111.73 -1.31522 1.14227 0
M  V30 11504 C 1108.86 -2.49865 2.31905 0
M  V30 11505 H 1110.05 -0.784481 2.89458 0
M  V30 11506 H 1107.61 -0.372531 1.51796 0
M  V30 11507 H 1108.34 -2.9057 1.44012 0
M  V30 11508 H 1108.13 -2.3625 3.12935 0
M  V30 11509 H 1109.62 -3.22832 2.64895 0
M  V30 11510 N 1110.05 -1.5248 -0.398459 0
M  V30 11511 C 1111.29 -1.68744 -1.15346 0
M  V30 11512 C 1111.66 -0.413739 -1.87489 0
M  V30 11513 O 1112.86 -0.452624 -2.64962 0
M  V30 11514 C 1111.13 -2.8824 -2.11311 0
M  V30 11515 S 1112.69 -3.25043 -2.94775 0
M  V30 11516 H 1109.51 -0.594099 -0.390598 0
M  V30 11517 H 1112.11 -1.90502 -0.439228 0
M  V30 11518 H 1110.81 -3.79175 -1.57017 0
M  V30 11519 H 1110.34 -2.68787 -2.87258 0
M  V30 11520 H 1112.36 -2.74495 -4.13361 0
M  V30 11521 N 1111.53 0.65634 -1.43283 0
M  V30 11522 C 1112.94 1.23744 -1.39801 0
M  V30 11523 C 1113.29 1.95942 -0.100507 0
M  V30 11524 O 1112.42 2.01063 0.800161 0
M  V30 11525 C 1113.01 2.25062 -2.53244 0
M  V30 11526 C 1111.57 2.78657 -2.53036 0
M  V30 11527 C 1110.72 1.53251 -2.31105 0
M  V30 11528 H 1113.67 0.448553 -1.52229 0
M  V30 11529 H 1113.69 3.07174 -2.24553 0
M  V30 11530 H 1113.2 1.72487 -3.47664 0
M  V30 11531 H 1111.3 3.35304 -1.62487 0
M  V30 11532 H 1111.42 3.26414 -3.507 0
M  V30 11533 H 1109.78 1.80487 -1.79713 0
M  V30 11534 H 1110.56 1.02615 -3.27605 0
M  V30 11535 N 1113.01 1.29761 0.894412 0
M  V30 11536 C 1114.42 1.16275 1.46072 0
M  V30 11537 C 1114.77 -0.240123 1.94725 0
M  V30 11538 O 1113.9 -1.13606 1.84181 0
M  V30 11539 C 1114.49 2.10471 2.65494 0
M  V30 11540 C 1113.05 2.00992 3.18244 0
M  V30 11541 C 1112.2 2.01094 1.90936 0
M  V30 11542 H 1115.15 1.42169 0.705243 0
M  V30 11543 H 1115.17 1.68003 3.41402 0
M  V30 11544 H 1114.68 3.12566 2.30053 0
M  V30 11545 H 1112.78 1.02005 3.58365 0
M  V30 11546 H 1112.9 2.88916 3.82184 0
M  V30 11547 H 1111.26 1.45764 2.08866 0
M  V30 11548 H 1112.04 3.04902 1.57764 0
M  V30 11549 N 1114.49 -1.10549 1.12324 0
M  V30 11550 C 1115.4 -2.20428 0.803032 0
M  V30 11551 C 1116.41 -1.72756 -0.207674 0
M  V30 11552 O 1117.59 -2.01357 -0.0415623 0
M  V30 11553 C 1114.65 -3.45716 0.261032 0
M  V30 11554 C 1113.72 -4.08129 1.33152 0
M  V30 11555 C 1112.95 -5.27436 0.815288 0
M  V30 11556 O 1113.17 -5.69317 -0.351361 0
M  V30 11557 O 1112.11 -5.80674 1.58434 0
M  V30 11558 H 1115.93 -2.50249 1.72073 0
M  V30 11559 H 1113.52 -1.19263 0.899815 0
M  V30 11560 H 1115.4 -4.21384 -0.0364007 0
M  V30 11561 H 1114.07 -3.17525 -0.629249 0
M  V30 11562 H 1112.98 -3.3415 1.6821 0
M  V30 11563 H 1114.31 -4.4052 2.19552 0
M  V30 11564 N 1115.97 -0.914965 -1.28321 0
M  V30 11565 C 1117.21 -0.549562 -1.95212 0
M  V30 11566 C 1117.54 0.904658 -1.71842 0
M  V30 11567 O 1116.82 1.64354 -1.04009 0
M  V30 11568 C 1117.1 -0.860927 -3.49657 0
M  V30 11569 C 1116.96 -2.36797 -3.82423 0
M  V30 11570 C 1118.27 -0.357926 -4.38642 0
M  V30 11571 H 1115.39 -0.201136 -0.709023 0
M  V30 11572 H 1118.04 -1.14443 -1.51667 0
M  V30 11573 H 1116.19 -0.354665 -3.86878 0
M  V30 11574 H 1117.86 -2.94494 -3.55065 0
M  V30 11575 H 1116.1 -2.82245 -3.29424 0
M  V30 11576 H 1116.77 -2.53637 -4.90278 0
M  V30 11577 H 1119.25 -0.791636 -4.085 0
M  V30 11578 H 1118.12 -0.604855 -5.45557 0
M  V30 11579 H 1118.38 0.741775 -4.35833 0
M  V30 11580 N 1117.44 1.42219 -0.679077 0
M  V30 11581 C 1118.67 2.05516 -0.211342 0
M  V30 11582 C 1119.08 1.5113 1.13826 0
M  V30 11583 O 1118.42 0.647593 1.71907 0
M  V30 11584 C 1118.49 3.59425 -0.0736007 0
M  V30 11585 C 1118.15 4.36525 -1.3526 0
M  V30 11586 C 1119.15 4.66897 -2.28698 0
M  V30 11587 C 1116.83 4.76089 -1.60139 0
M  V30 11588 C 1118.83 5.35775 -3.45288 0
M  V30 11589 C 1116.51 5.44706 -2.77017 0
M  V30 11590 C 1117.51 5.74474 -3.69416 0
M  V30 11591 O 1117.2 6.41683 -4.8425 0
M  V30 11592 H 1116.93 0.668662 -0.0993318 0
M  V30 11593 H 1119.49 1.8327 -0.927434 0
M  V30 11594 H 1117.72 3.80346 0.69811 0
M  V30 11595 H 1119.4 4.04346 0.354813 0
M  V30 11596 H 1120.17 4.36828 -2.10729 0
M  V30 11597 H 1116.05 4.5231 -0.890887 0
M  V30 11598 H 1119.59 5.58927 -4.17428 0
M  V30 11599 H 1115.49 5.74194 -2.9491 0
M  V30 11600 H 1116.26 6.60175 -4.8385 0
M  V30 11601 N 1118.92 0.422693 1.51826 0
M  V30 11602 C 1119.88 -0.384307 2.25955 0
M  V30 11603 C 1120.88 -0.962184 1.28836 0
M  V30 11604 O 1122.07 -0.838931 1.52668 0
M  V30 11605 C 1119.21 -1.54228 3.04018 0
M  V30 11606 H 1120.4 0.265157 2.98726 0
M  V30 11607 H 1117.95 0.175515 1.55311 0
M  V30 11608 H 1118.69 -2.22822 2.35629 0
M  V30 11609 H 1118.47 -1.13425 3.75336 0
M  V30 11610 H 1119.96 -2.1128 3.60209 0
M  V30 11611 N 1120.4 -1.5685 0.153553 0
M  V30 11612 C 1121.65 -1.95509 -0.495911 0
M  V30 11613 C 1121.96 -1.04129 -1.65579 0
M  V30 11614 O 1123.17 -1.32394 -2.37032 0
M  V30 11615 C 1121.62 -3.47579 -0.933622 0
M  V30 11616 C 1121.23 -4.47555 0.199684 0
M  V30 11617 C 1122.98 -3.95092 -1.55251 0
M  V30 11618 C 1120.88 -5.90843 -0.256663 0
M  V30 11619 H 1119.81 -0.729919 -0.189035 0
M  V30 11620 H 1122.46 -1.81938 0.238947 0
M  V30 11621 H 1120.85 -3.56506 -1.72394 0
M  V30 11622 H 1122.02 -4.50329 0.976744 0
M  V30 11623 H 1120.33 -4.09997 0.727394 0
M  V30 11624 H 1122.93 -4.99588 -1.90567 0
M  V30 11625 H 1123.27 -3.37015 -2.4439 0
M  V30 11626 H 1123.81 -3.89109 -0.826969 0
M  V30 11627 H 1120.55 -6.52753 0.599515 0
M  V30 11628 H 1120.07 -5.91414 -0.999458 0
M  V30 11629 H 1121.75 -6.43131 -0.70649 0
M  V30 11630 N 1121.88 0.120221 -1.57141 0
M  V30 11631 C 1122.81 1.17787 -1.95452 0
M  V30 11632 C 1123.79 1.40174 -0.824016 0
M  V30 11633 O 1124.97 1.54348 -1.08208 0
M  V30 11634 C 1122.1 2.53193 -2.24969 0
M  V30 11635 C 1121.15 2.47241 -3.47526 0
M  V30 11636 S 1121.98 1.91325 -5.00155 0
M  V30 11637 C 1123.13 3.28406 -5.32823 0
M  V30 11638 H 1123.37 0.851152 -2.84856 0
M  V30 11639 H 1120.9 0.326929 -1.50899 0
M  V30 11640 H 1122.86 3.31104 -2.42652 0
M  V30 11641 H 1121.52 2.83043 -1.36181 0
M  V30 11642 H 1120.71 3.46981 -3.65541 0
M  V30 11643 H 1120.31 1.7745 -3.29223 0
M  V30 11644 H 1122.61 4.24613 -5.2793 0
M  V30 11645 H 1123.55 3.1522 -6.34068 0
M  V30 11646 H 1123.96 3.26779 -4.603 0
M  V30 11647 N 1123.36 1.52689 0.390367 0
M  V30 11648 C 1124.77 1.41909 0.730338 0
M  V30 11649 C 1124.97 0.538427 1.94173 0
M  V30 11650 O 1124.03 0.0113527 2.52497 0
M  V30 11651 C 1125.34 2.84737 0.966714 0
M  V30 11652 C 1126.89 2.94206 1.06827 0
M  V30 11653 C 1127.36 4.38042 1.33728 0
M  V30 11654 N 1128.86 4.4136 1.40553 0
M  V30 11655 C 1129.59 5.49735 1.63031 0
M  V30 11656 N 1129.09 6.68197 1.82988 0
M  V30 11657 N 1130.88 5.37276 1.65199 0
M  V30 11658 H 1123.03 2.08469 -0.406766 0
M  V30 11659 H 1125.29 0.940401 -0.11979 0
M  V30 11660 H 1125 3.51385 0.148725 0
M  V30 11661 H 1124.87 3.26909 1.88176 0
M  V30 11662 H 1127.26 2.27726 1.87683 0
M  V30 11663 H 1127.34 2.55463 0.131168 0
M  V30 11664 H 1126.99 5.05087 0.533832 0
M  V30 11665 H 1126.92 4.74336 2.28721 0
M  V30 11666 H 1129.41 3.55976 1.26844 0
M  V30 11667 H 1129.72 7.46567 1.99643 0
M  V30 11668 H 1128.06 6.71228 1.80215 0
M  V30 11669 H 1131.26 4.437 1.49158 0
M  V30 11670 H 1131.43 6.21806 1.82377 0
M  V30 11671 N 1124.83 -0.648732 1.43629 0
M  V30 11672 C 1126.08 -1.40579 1.45196 0
M  V30 11673 C 1126.4 -1.9484 0.0790556 0
M  V30 11674 O 1125.67 -1.74707 -0.886239 0
M  V30 11675 H 1124.25 -0.52175 0.53459 0
M  V30 11676 H 1126.92 -0.764796 1.79268 0
M  V30 11677 H 1126.01 -2.24591 2.16715 0
M  V30 11678 N 1126.31 -1.30234 -0.887518 0
M  V30 11679 C 1127.55 -1.20191 -1.65328 0
M  V30 11680 C 1127.92 0.240121 -1.90493 0
M  V30 11681 O 1129.12 0.463744 -2.64769 0
M  V30 11682 C 1127.39 -2.00506 -2.95858 0
M  V30 11683 S 1128.95 -2.07133 -3.86835 0
M  V30 11684 H 1125.77 -0.428366 -0.567472 0
M  V30 11685 H 1128.37 -1.64677 -1.05364 0
M  V30 11686 H 1127.07 -3.04396 -2.75266 0
M  V30 11687 H 1126.6 -1.56672 -3.60857 0
M  V30 11688 H 1128.62 -1.19687 -4.81549 0
M  V30 11689 N 1127.79 1.09952 -1.12909 0
M  V30 11690 C 1129.04 1.82467 -0.898733 0
M  V30 11691 C 1129.39 1.83788 0.569196 0
M  V30 11692 O 1128.68 1.29117 1.4156 0
M  V30 11693 C 1128.88 3.28252 -1.41369 0
M  V30 11694 C 1128.71 3.41133 -2.93015 0
M  V30 11695 C 1127.48 3.53253 -3.61304 0
M  V30 11696 C 1129.68 3.34118 -3.90986 0
M  V30 11697 N 1127.66 3.54762 -5.01016 0
M  V30 11698 C 1129.03 3.42431 -5.16857 0
M  V30 11699 C 1131.08 3.1775 -3.83327 0
M  V30 11700 C 1129.79 3.36063 -6.35967 0
M  V30 11701 C 1131.81 3.12705 -5.01966 0
M  V30 11702 C 1131.17 3.21605 -6.26697 0
M  V30 11703 H 1127.27 0.682232 -0.382208 0
M  V30 11704 H 1129.86 1.31446 -1.43631 0
M  V30 11705 H 1128.03 3.77755 -0.903097 0
M  V30 11706 H 1129.76 3.88752 -1.12489 0
M  V30 11707 H 1126.52 3.56472 -3.11809 0
M  V30 11708 H 1126.94 3.59115 -5.73904 0
M  V30 11709 H 1131.58 3.09742 -2.87784 0
M  V30 11710 H 1129.3 3.42835 -7.31772 0
M  V30 11711 H 1132.89 3.01183 -4.97775 0
M  V30 11712 H 1131.77 3.1771 -7.16959 0
M  V30 11713 N 1129.27 0.921757 1.27833 0
M  V30 11714 C 1130.2 0.373575 2.26135 0
M  V30 11715 C 1131.21 -0.492414 1.55174 0
M  V30 11716 O 1132.4 -0.305998 1.75858 0
M  V30 11717 C 1129.5 -0.483911 3.35427 0
M  V30 11718 C 1128.68 0.361411 4.35904 0
M  V30 11719 C 1127.73 -0.432461 5.2442 0
M  V30 11720 O 1126.76 0.15777 5.68981 0
M  V30 11721 N 1127.96 -1.73367 5.54007 0
M  V30 11722 H 1130.73 1.21856 2.73809 0
M  V30 11723 H 1128.29 0.788552 1.41398 0
M  V30 11724 H 1130.28 -1.02193 3.91585 0
M  V30 11725 H 1128.85 -1.22963 2.874 0
M  V30 11726 H 1128.07 1.08076 3.79095 0
M  V30 11727 H 1129.36 0.939528 5.0005 0
M  V30 11728 H 1128.76 -2.23561 5.19651 0
M  V30 11729 H 1127.31 -2.21834 6.12889 0
M  V30 11730 N 1130.75 -1.41857 0.686609 0
M  V30 11731 C 1132.16 -1.55549 0.357288 0
M  V30 11732 C 1132.36 -1.66394 -1.13646 0
M  V30 11733 O 1131.42 -1.63739 -1.92213 0
M  V30 11734 C 1132.73 -2.79938 1.09796 0
M  V30 11735 C 1134.28 -2.93724 1.08143 0
M  V30 11736 C 1134.75 -4.20989 1.80367 0
M  V30 11737 N 1136.25 -4.27927 1.77293 0
M  V30 11738 C 1136.98 -5.2524 2.30022 0
M  V30 11739 N 1136.48 -6.28636 2.91185 0
M  V30 11740 N 1138.27 -5.17118 2.20329 0
M  V30 11741 H 1130.42 -1.33063 1.65554 0
M  V30 11742 H 1132.68 -0.641335 0.698135 0
M  V30 11743 H 1132.39 -2.78104 2.15293 0
M  V30 11744 H 1132.26 -3.71188 0.670763 0
M  V30 11745 H 1134.65 -2.9508 0.0347554 0
M  V30 11746 H 1134.73 -2.03673 1.54761 0
M  V30 11747 H 1134.38 -4.20395 2.85009 0
M  V30 11748 H 1134.31 -5.09997 1.3119 0
M  V30 11749 H 1136.8 -3.53838 1.32692 0
M  V30 11750 H 1137.11 -6.99265 3.29011 0
M  V30 11751 H 1135.45 -6.29164 2.95259 0
M  V30 11752 H 1138.65 -4.35265 1.72226 0
M  V30 11753 H 1138.82 -5.92792 2.61728 0
M  V30 11754 N 1132.22 -0.430739 -1.51599 0
M  V30 11755 C 1133.13 0.390347 -2.3133 0
M  V30 11756 C 1134.15 1.03376 -1.39962 0
M  V30 11757 O 1135.33 1.03057 -1.73035 0
M  V30 11758 C 1132.39 1.48039 -3.13505 0
M  V30 11759 C 1131.45 0.857792 -4.20643 0
M  V30 11760 C 1130.69 1.89589 -4.9889 0
M  V30 11761 O 1130.91 3.11717 -4.77691 0
M  V30 11762 O 1129.84 1.49009 -5.83164 0
M  V30 11763 H 1133.67 -0.260358 -3.02582 0
M  V30 11764 H 1131.25 -0.193428 -1.48143 0
M  V30 11765 H 1133.14 2.11272 -3.64612 0
M  V30 11766 H 1131.81 2.1153 -2.45024 0
M  V30 11767 H 1130.72 0.187592 -3.73629 0
M  V30 11768 H 1132.05 0.266474 -4.91478 0
M  V30 11769 N 1133.7 1.56767 -0.161869 0
M  V30 11770 C 1135.11 1.83265 0.356466 0
M  V30 11771 C 1135.46 1.08127 1.63716 0
M  V30 11772 O 1134.59 0.33127 2.13849 0
M  V30 11773 C 1135.18 3.32437 0.653521 0
M  V30 11774 C 1133.74 3.59465 1.11633 0
M  V30 11775 C 1132.89 2.76909 0.147204 0
M  V30 11776 H 1135.84 1.53926 -0.386308 0
M  V30 11777 H 1135.86 3.49401 1.50662 0
M  V30 11778 H 1135.37 3.87098 -0.278766 0
M  V30 11779 H 1133.48 3.10206 2.06404 0
M  V30 11780 H 1133.59 4.67853 1.03202 0
M  V30 11781 H 1131.95 2.46457 0.642739 0
M  V30 11782 H 1132.74 3.34346 -0.778938 0
M  V30 11783 N 1135.18 -0.111886 1.57202 0
M  V30 11784 C 1136.11 -1.16274 1.97517 0
M  V30 11785 C 1137.13 -1.37259 0.875425 0
M  V30 11786 O 1138.31 -1.36208 1.15367 0
M  V30 11787 C 1135.41 -2.52145 2.26442 0
M  V30 11788 C 1134.59 -2.51666 3.57747 0
M  V30 11789 C 1133.65 -3.69337 3.74802 0
M  V30 11790 O 1132.67 -3.52596 4.46839 0
M  V30 11791 N 1133.87 -4.88177 3.14108 0
M  V30 11792 H 1136.64 -0.819747 2.88271 0
M  V30 11793 H 1134.2 -0.301076 1.59076 0
M  V30 11794 H 1136.19 -3.29437 2.3506 0
M  V30 11795 H 1134.76 -2.78599 1.41779 0
M  V30 11796 H 1133.98 -1.60038 3.60252 0
M  V30 11797 H 1135.27 -2.48408 4.44039 0
M  V30 11798 H 1134.67 -5.04682 2.55564 0
M  V30 11799 H 1133.23 -5.6312 3.28237 0
M  V30 11800 N 1136.66 -1.52894 -0.382264 0
M  V30 11801 C 1137.59 -1.74413 -1.48703 0
M  V30 11802 C 1138.6 -0.624663 -1.50339 0
M  V30 11803 O 1139.79 -0.900527 -1.54119 0
M  V30 11804 C 1136.89 -1.79387 -2.8753 0
M  V30 11805 C 1136.07 -3.08794 -3.09783 0
M  V30 11806 C 1135.12 -3.05226 -4.2863 0
M  V30 11807 O 1134.15 -3.79073 -4.24609 0
M  V30 11808 N 1135.35 -2.2488 -5.35172 0
M  V30 11809 H 1138.12 -2.69734 -1.30628 0
M  V30 11810 H 1135.68 -1.51465 -0.571842 0
M  V30 11811 H 1137.67 -1.74498 -3.65147 0
M  V30 11812 H 1136.24 -0.914233 -2.98932 0
M  V30 11813 H 1135.46 -3.27118 -2.19971 0
M  V30 11814 H 1136.75 -3.94347 -3.21509 0
M  V30 11815 H 1136.15 -1.64363 -5.41296 0
M  V30 11816 H 1134.7 -2.25825 -6.1143 0
M  V30 11817 N 1138.14 0.641106 -1.43971 0
M  V30 11818 C 1139.55 0.958161 -1.27638 0
M  V30 11819 C 1139.75 2.00456 -0.204885 0
M  V30 11820 O 1138.81 2.49106 0.412606 0
M  V30 11821 C 1140.12 1.43091 -2.64472 0
M  V30 11822 C 1141.67 1.54692 -2.72102 0
M  V30 11823 C 1142.15 2.05353 -4.09382 0
M  V30 11824 N 1143.64 2.12638 -4.11509 0
M  V30 11825 C 1144.37 2.52987 -5.14573 0
M  V30 11826 N 1143.87 2.92544 -6.28005 0
M  V30 11827 N 1145.66 2.53033 -5.01927 0
M  V30 11828 H 1137.81 -0.0510973 -2.12339 0
M  V30 11829 H 1140.07 0.039748 -0.947166 0
M  V30 11830 H 1139.78 0.736389 -3.43904 0
M  V30 11831 H 1139.65 2.40375 -2.90688 0
M  V30 11832 H 1142.04 2.23242 -1.92994 0
M  V30 11833 H 1142.12 0.558083 -2.49638 0
M  V30 11834 H 1141.77 1.37401 -4.88962 0
M  V30 11835 H 1141.7 3.0509 -4.29218 0
M  V30 11836 H 1144.19 1.84792 -3.29636 0
M  V30 11837 H 1144.5 3.22116 -7.02468 0
M  V30 11838 H 1142.85 2.90319 -6.31458 0
M  V30 11839 H 1146.04 2.21514 -4.1237 0
M  V30 11840 H 1146.21 2.84155 -5.82375 0
M  V30 11841 N 1139.62 1.30703 0.880598 0
M  V30 11842 C 1140.57 1.14062 1.97418 0
M  V30 11843 C 1141.55 0.0545541 1.60807 0
M  V30 11844 O 1142.74 0.278344 1.74798 0
M  V30 11845 C 1139.87 0.839062 3.32888 0
M  V30 11846 C 1138.96 1.96559 3.75799 0
M  V30 11847 N 1139.35 3.21145 3.90768 0
M  V30 11848 C 1137.65 1.86294 4.05229 0
M  V30 11849 C 1138.35 3.94766 4.27241 0
M  V30 11850 N 1137.32 3.2285 4.37343 0
M  V30 11851 H 1141.12 2.08548 2.07087 0
M  V30 11852 H 1138.64 1.22106 1.0707 0
M  V30 11853 H 1140.64 0.700851 4.10967 0
M  V30 11854 H 1139.3 -0.0976808 3.24553 0
M  V30 11855 H 1140.31 3.56384 3.75781 0
M  V30 11856 H 1136.98 1.00016 4.05343 0
M  V30 11857 H 1138.37 5.02076 4.46508 0
M  V30 11858 N 1141.09 -1.09351 1.1349 0
M  V30 11859 C 1142.32 -1.85844 0.92069 0
M  V30 11860 C 1142.74 -1.80616 -0.525303 0
M  V30 11861 O 1142.1 -1.1842 -1.37282 0
M  V30 11862 C 1142.15 -3.31716 1.4141 0
M  V30 11863 O 1141.25 -4.08014 0.599838 0
M  V30 11864 H 1140.59 -0.576242 0.32991 0
M  V30 11865 H 1143.12 -1.38084 1.50976 0
M  V30 11866 H 1143.13 -3.82564 1.41805 0
M  V30 11867 H 1141.81 -3.34837 2.46692 0
M  V30 11868 H 1140.39 -3.66944 0.663816 0
M  V30 11869 N 1142.57 -0.928524 -1.27343 0
M  V30 11870 C 1143.82 -0.565207 -1.93619 0
M  V30 11871 C 1144.13 0.897988 -1.73769 0
M  V30 11872 O 1145.34 1.37012 -2.34393 0
M  V30 11873 C 1143.8 -0.960052 -3.46859 0
M  V30 11874 C 1143.4 -2.44399 -3.75464 0
M  V30 11875 C 1145.15 -0.668026 -4.19211 0
M  V30 11876 C 1143.05 -2.77819 -5.22083 0
M  V30 11877 H 1141.98 -0.207665 -0.724839 0
M  V30 11878 H 1144.64 -1.12945 -1.44623 0
M  V30 11879 H 1143.02 -0.324454 -3.94669 0
M  V30 11880 H 1144.19 -3.12756 -3.38408 0
M  V30 11881 H 1142.51 -2.70799 -3.16317 0
M  V30 11882 H 1145.1 -0.894207 -5.2717 0
M  V30 11883 H 1145.45 0.394788 -4.14424 0
M  V30 11884 H 1145.98 -1.26276 -3.77226 0
M  V30 11885 H 1142.72 -3.83013 -5.3196 0
M  V30 11886 H 1142.24 -2.14112 -5.60282 0
M  V30 11887 H 1143.92 -2.65607 -5.89968 0
M  V30 11888 N 1144.05 1.41491 -0.694123 0
M  V30 11889 C 1145 2.30783 -0.0278824 0
M  V30 11890 C 1145.97 1.47028 0.772783 0
M  V30 11891 O 1147.15 1.75819 0.74111 0
M  V30 11892 C 1144.29 3.33061 0.903579 0
M  V30 11893 C 1143.4 4.31896 0.0946823 0
M  V30 11894 C 1142.54 5.21243 1.02365 0
M  V30 11895 C 1141.58 6.11748 0.207578 0
M  V30 11896 N 1140.72 6.93583 1.09028 0
M  V30 11897 H 1145.56 2.87197 -0.795092 0
M  V30 11898 H 1143.09 1.41449 -0.403806 0
M  V30 11899 H 1145.05 3.90907 1.45765 0
M  V30 11900 H 1143.68 2.782 1.6372 0
M  V30 11901 H 1142.73 3.76009 -0.576289 0
M  V30 11902 H 1144.04 4.95889 -0.538059 0
M  V30 11903 H 1143.2 5.83917 1.647 0
M  V30 11904 H 1141.94 4.57473 1.69025 0
M  V30 11905 H 1140.94 5.48125 -0.428854 0
M  V30 11906 H 1142.17 6.77573 -0.455206 0
M  V30 11907 H 1140.11 6.32422 1.74292 0
M  V30 11908 H 1140.03 7.54257 0.513073 0
M  V30 11909 H 1141.3 7.60726 1.70048 0
M  V30 11910 N 1145.53 0.438773 1.51369 0
M  V30 11911 C 1146.8 -0.18722 1.94702 0
M  V30 11912 C 1147.18 -1.59962 1.37752 0
M  V30 11913 O 1146.53 -2.214 0.565171 0
M  V30 11914 C 1146.74 -0.163491 3.48617 0
M  V30 11915 C 1148.09 -0.368355 4.22999 0
M  V30 11916 O 1149.11 -0.241541 3.5538 0
M  V30 11917 O 1147.97 -0.620916 5.42961 0
M  V30 11918 H 1145.07 -0.129194 0.816846 0
M  V30 11919 H 1147.61 0.496855 1.62263 0
M  V30 11920 H 1146.39 0.823882 3.82528 0
M  V30 11921 H 1146.01 -0.890414 3.87501 0
M  V30 11922 N 1147.01 -1.56678 0.170181 0
M  V30 11923 C 1148.25 -1.9714 -0.475767 0
M  V30 11924 C 1148.58 -1.05611 -1.62972 0
M  V30 11925 O 1147.86 -0.103017 -1.94227 0
M  V30 11926 C 1148.14 -3.47072 -0.959828 0
M  V30 11927 C 1148 -4.4938 0.194225 0
M  V30 11928 C 1149.31 -4.00071 -1.83387 0
M  V30 11929 H 1146.43 -0.716776 -0.171466 0
M  V30 11930 H 1149.08 -1.88266 0.256086 0
M  V30 11931 H 1147.23 -3.54766 -1.58346 0
M  V30 11932 H 1148.9 -4.53748 0.83128 0
M  V30 11933 H 1147.14 -4.25393 0.849893 0
M  V30 11934 H 1147.81 -5.51685 -0.186575 0
M  V30 11935 H 1150.29 -3.95002 -1.30815 0
M  V30 11936 H 1149.16 -5.05398 -2.14159 0
M  V30 11937 H 1149.42 -3.43819 -2.77923 0
M  V30 11938 N 1148.48 0.103547 -1.57259 0
M  V30 11939 C 1149.43 1.13239 -1.97891 0
M  V30 11940 C 1150.42 1.36234 -0.856105 0
M  V30 11941 O 1151.61 1.37067 -1.11989 0
M  V30 11942 C 1148.74 2.4549 -2.39979 0
M  V30 11943 C 1147.82 2.25905 -3.58926 0
M  V30 11944 N 1148.22 1.76167 -4.7413 0
M  V30 11945 C 1146.51 2.56503 -3.64859 0
M  V30 11946 C 1147.21 1.70653 -5.56105 0
M  V30 11947 N 1146.19 2.15562 -4.99033 0
M  V30 11948 H 1149.99 0.740638 -2.84415 0
M  V30 11949 H 1147.51 0.311091 -1.59393 0
M  V30 11950 H 1149.5 3.19922 -2.67312 0
M  V30 11951 H 1148.16 2.8541 -1.54827 0
M  V30 11952 H 1149.17 1.45487 -4.97045 0
M  V30 11953 H 1145.85 3.00005 -2.9035 0
M  V30 11954 H 1147.24 1.33321 -6.5854 0
M  V30 11955 N 1149.96 1.53094 0.37415 0
M  V30 11956 C 1150.92 1.78264 1.44065 0
M  V30 11957 C 1151.92 0.652892 1.46949 0
M  V30 11958 O 1153.11 0.921046 1.47859 0
M  V30 11959 C 1150.25 1.89693 2.83248 0
M  V30 11960 H 1151.44 2.73505 1.23025 0
M  V30 11961 H 1148.99 1.44041 0.60678 0
M  V30 11962 H 1149.73 0.964884 3.09613 0
M  V30 11963 H 1149.51 2.71855 2.82554 0
M  V30 11964 H 1151 2.10787 3.60498 0
M  V30 11965 N 1151.44 -0.633461 1.44309 0
M  V30 11966 C 1152.86 -0.951379 1.28144 0
M  V30 11967 C 1153.06 -2.00344 0.215512 0
M  V30 11968 O 1152.11 -2.49321 -0.399389 0
M  V30 11969 C 1153.42 -1.41686 2.65227 0
M  V30 11970 C 1154.97 -1.53247 2.72918 0
M  V30 11971 C 1155.45 -2.03179 4.10466 0
M  V30 11972 N 1156.94 -2.10453 4.1263 0
M  V30 11973 C 1157.67 -2.50254 5.15907 0
M  V30 11974 N 1157.17 -2.89209 6.29547 0
M  V30 11975 N 1158.96 -2.50368 5.03262 0
M  V30 11976 H 1151.11 0.0623574 2.12308 0
M  V30 11977 H 1153.38 -0.0347244 0.947364 0
M  V30 11978 H 1153.08 -0.71814 3.4429 0
M  V30 11979 H 1152.96 -2.3883 2.91959 0
M  V30 11980 H 1155.34 -2.22216 1.94176 0
M  V30 11981 H 1155.42 -0.544836 2.4993 0
M  V30 11982 H 1155.07 -1.34806 4.89683 0
M  V30 11983 H 1155 -3.02809 4.3083 0
M  V30 11984 H 1157.49 -1.83042 3.30612 0
M  V30 11985 H 1157.8 -3.18386 7.04166 0
M  V30 11986 H 1156.15 -2.86966 6.32989 0
M  V30 11987 H 1159.34 -2.19324 4.13539 0
M  V30 11988 H 1159.51 -2.81062 5.83873 0
M  V30 11989 N 1152.92 -1.31168 -0.873655 0
M  V30 11990 C 1153.85 -1.21094 -1.99646 0
M  V30 11991 C 1154.83 -0.0989684 -1.69812 0
M  V30 11992 O 1156.01 -0.282939 -1.92128 0
M  V30 11993 C 1153.14 -0.913684 -3.35066 0
M  V30 11994 C 1152.1 -1.98482 -3.79195 0
M  V30 11995 C 1151.42 -1.54033 -5.12033 0
M  V30 11996 C 1152.72 -3.39745 -3.96699 0
M  V30 11997 H 1154.42 -2.1503 -2.08333 0
M  V30 11998 H 1151.96 -1.03521 -1.00097 0
M  V30 11999 H 1153.92 -0.829821 -4.13149 0
M  V30 12000 H 1152.64 0.0613471 -3.26542 0
M  V30 12001 H 1151.3 -2.05851 -3.03349 0
M  V30 12002 H 1150.95 -0.553261 -4.99948 0
M  V30 12003 H 1150.65 -2.25688 -5.4253 0
M  V30 12004 H 1152.17 -1.47047 -5.92629 0
M  V30 12005 H 1153.59 -3.35071 -4.65188 0
M  V30 12006 H 1151.98 -4.09585 -4.38589 0
M  V30 12007 H 1153.05 -3.80802 -3.00196 0
M  V30 12008 N 1154.4 1.08748 -1.14068 0
M  V30 12009 C 1155.33 2.1544 -0.782199 0
M  V30 12010 C 1156.34 1.61575 0.199301 0
M  V30 12011 O 1157.53 1.78487 -0.0219044 0
M  V30 12012 C 1154.63 3.38611 -0.13983 0
M  V30 12013 C 1153.8 4.2187 -1.15518 0
M  V30 12014 C 1152.86 5.23451 -0.537216 0
M  V30 12015 O 1151.89 5.56424 -1.1992 0
M  V30 12016 N 1153.09 5.76413 0.6876 0
M  V30 12017 H 1155.86 2.46798 -1.70032 0
M  V30 12018 H 1153.42 1.24527 -1.03463 0
M  V30 12019 H 1155.41 4.03688 0.285999 0
M  V30 12020 H 1153.98 3.05084 0.681357 0
M  V30 12021 H 1153.2 3.52825 -1.75806 0
M  V30 12022 H 1154.49 4.74318 -1.84119 0
M  V30 12023 H 1153.88 5.51851 1.24406 0
M  V30 12024 H 1152.44 6.43189 1.05599 0
M  V30 12025 N 1155.87 0.935264 1.26849 0
M  V30 12026 C 1156.84 0.44485 2.24842 0
M  V30 12027 C 1157.84 -0.440781 1.54641 0
M  V30 12028 O 1159.03 -0.240793 1.72528 0
M  V30 12029 C 1156.16 -0.359566 3.38998 0
M  V30 12030 H 1157.35 1.31074 2.6974 0
M  V30 12031 H 1154.91 0.716665 1.38901 0
M  V30 12032 H 1155.64 -1.24396 2.99493 0
M  V30 12033 H 1155.43 0.275529 3.91131 0
M  V30 12034 H 1156.92 -0.692804 4.11813 0
M  V30 12035 N 1157.35 -1.41121 0.701616 0
M  V30 12036 C 1158.28 -2.33436 0.0545974 0
M  V30 12037 C 1159.26 -1.52144 -0.760662 0
M  V30 12038 O 1160.45 -1.80661 -0.712414 0
M  V30 12039 C 1157.58 -3.36015 -0.878117 0
M  V30 12040 C 1156.53 -4.27664 -0.169511 0
M  V30 12041 C 1155.86 -5.20666 -1.21699 0
M  V30 12042 C 1157.16 -5.13254 0.967859 0
M  V30 12043 H 1158.85 -2.87791 0.825637 0
M  V30 12044 H 1156.4 -1.38377 0.398484 0
M  V30 12045 H 1158.35 -3.99526 -1.34004 0
M  V30 12046 H 1157.08 -2.80024 -1.68089 0
M  V30 12047 H 1155.73 -3.65586 0.272441 0
M  V30 12048 H 1155.38 -4.60987 -2.01246 0
M  V30 12049 H 1155.08 -5.82822 -0.747836 0
M  V30 12050 H 1156.61 -5.87053 -1.6793 0
M  V30 12051 H 1158.02 -5.70298 0.585944 0
M  V30 12052 H 1156.42 -5.84381 1.3645 0
M  V30 12053 H 1157.49 -4.5006 1.80483 0
M  V30 12054 N 1158.83 -0.446794 -1.51134 0
M  V30 12055 C 1159.79 0.348311 -2.26538 0
M  V30 12056 C 1160.79 0.941566 -1.3035 0
M  V30 12057 O 1161.98 0.814537 -1.53984 0
M  V30 12058 C 1159.12 1.49371 -3.06433 0
M  V30 12059 H 1160.31 -0.312648 -2.98266 0
M  V30 12060 H 1157.86 -0.200201 -1.55013 0
M  V30 12061 H 1158.6 2.19045 -2.39144 0
M  V30 12062 H 1158.38 1.07439 -3.77093 0
M  V30 12063 H 1159.87 2.05522 -3.63525 0
M  V30 12064 N 1160.31 1.56586 -0.178487 0
M  V30 12065 C 1161.24 2.155 0.780543 0
M  V30 12066 C 1162.25 1.11244 1.18864 0
M  V30 12067 O 1163.44 1.38403 1.12725 0
M  V30 12068 C 1160.54 2.68867 2.0631 0
M  V30 12069 C 1159.72 3.97854 1.81744 0
M  V30 12070 C 1158.77 4.36213 2.94287 0
M  V30 12071 O 1157.8 5.03954 2.64612 0
M  V30 12072 N 1159 3.98356 4.22247 0
M  V30 12073 H 1161.77 2.98419 0.276836 0
M  V30 12074 H 1159.33 1.61899 0.00405241 0
M  V30 12075 H 1161.32 2.91522 2.80708 0
M  V30 12076 H 1159.89 1.90496 2.47851 0
M  V30 12077 H 1159.11 3.83502 0.912127 0
M  V30 12078 H 1160.4 4.82083 1.62707 0
M  V30 12079 H 1159.8 3.43835 4.49215 0
M  V30 12080 H 1158.35 4.25998 4.93325 0
M  V30 12081 N 1161.79 -0.095206 1.57312 0
M  V30 12082 C 1162.75 -1.09974 2.01093 0
M  V30 12083 C 1163.75 -1.32954 0.904424 0
M  V30 12084 O 1164.94 -1.29069 1.16991 0
M  V30 12085 C 1162.07 -2.4489 2.37153 0
M  V30 12086 H 1163.26 -0.722906 2.91057 0
M  V30 12087 H 1160.82 -0.340249 1.52552 0
M  V30 12088 H 1161.55 -2.8745 1.50143 0
M  V30 12089 H 1161.34 -2.29559 3.17876 0
M  V30 12090 H 1162.83 -3.17141 2.71683 0
M  V30 12091 N 1163.26 -1.53291 -0.366026 0
M  V30 12092 C 1164.68 -1.61144 -0.942849 0
M  V30 12093 C 1165.03 -0.478571 -1.90274 0
M  V30 12094 O 1164.15 0.395069 -2.12763 0
M  V30 12095 C 1164.75 -2.92081 -1.71681 0
M  V30 12096 C 1163.31 -3.0227 -2.24298 0
M  V30 12097 C 1162.45 -2.56436 -1.05526 0
M  V30 12098 H 1165.4 -1.58038 -0.144835 0
M  V30 12099 H 1165.42 -2.79858 -2.57798 0
M  V30 12100 H 1164.94 -3.74513 -1.01793 0
M  V30 12101 H 1163.04 -2.24425 -2.97429 0
M  V30 12102 H 1163.15 -4.07341 -2.5221 0
M  V30 12103 H 1161.51 -2.11301 -1.42211 0
M  V30 12104 H 1162.3 -3.41285 -0.371376 0
M  V30 12105 N 1164.74 0.6258 -1.44643 0
M  V30 12106 C 1166.15 1.20751 -1.42394 0
M  V30 12107 C 1166.5 1.95685 -0.142047 0
M  V30 12108 O 1165.63 2.02715 0.757332 0
M  V30 12109 C 1166.22 2.1964 -2.57961 0
M  V30 12110 C 1164.78 2.73227 -2.5889 0
M  V30 12111 C 1163.93 1.48315 -2.34303 0
M  V30 12112 H 1166.88 0.416162 -1.53146 0
M  V30 12113 H 1166.9 3.02342 -2.31019 0
M  V30 12114 H 1166.41 1.65073 -3.51244 0
M  V30 12115 H 1164.52 3.31782 -1.69563 0
M  V30 12116 H 1164.63 3.18902 -3.57545 0
M  V30 12117 H 1162.99 1.76634 -1.83501 0
M  V30 12118 H 1163.78 0.956427 -3.29708 0
M  V30 12119 N 1166.22 1.31629 0.866686 0
M  V30 12120 C 1167.47 1.21683 1.62238 0
M  V30 12121 C 1167.8 -0.223767 1.92907 0
M  V30 12122 O 1167.07 -1.15761 1.563 0
M  V30 12123 C 1167.36 2.06443 2.95048 0
M  V30 12124 C 1167.21 3.58818 2.71237 0
M  V30 12125 C 1168.53 1.91634 3.96187 0
M  V30 12126 H 1165.65 0.443389 0.588707 0
M  V30 12127 H 1168.29 1.61453 1.00164 0
M  V30 12128 H 1166.44 1.72654 3.48027 0
M  V30 12129 H 1168.11 4.0276 2.24905 0
M  V30 12130 H 1166.36 3.82085 2.05411 0
M  V30 12131 H 1167.03 4.13436 3.65752 0
M  V30 12132 H 1169.5 2.21209 3.52428 0
M  V30 12133 H 1168.38 2.53236 4.86993 0
M  V30 12134 H 1168.64 0.880564 4.33242 0
M  V30 12135 N 1167.7 -1.08142 1.14644 0
M  V30 12136 C 1168.93 -1.8405 0.938563 0
M  V30 12137 C 1169.34 -1.82017 -0.516361 0
M  V30 12138 O 1168.68 -1.22418 -1.36966 0
M  V30 12139 C 1168.74 -3.32563 1.36536 0
M  V30 12140 C 1168.41 -3.58327 2.83638 0
M  V30 12141 C 1169.4 -3.52944 3.81741 0
M  V30 12142 C 1167.09 -3.86251 3.21115 0
M  V30 12143 C 1169.08 -3.7512 5.15329 0
M  V30 12144 C 1166.77 -4.0808 4.54878 0
M  V30 12145 C 1167.77 -4.02508 5.51794 0
M  V30 12146 O 1167.46 -4.23761 6.83141 0
M  V30 12147 H 1167.19 -0.587793 0.33388 0
M  V30 12148 H 1169.74 -1.37467 1.52617 0
M  V30 12149 H 1167.97 -3.79917 0.721106 0
M  V30 12150 H 1169.66 -3.89915 1.12787 0
M  V30 12151 H 1170.43 -3.31382 3.54134 0
M  V30 12152 H 1166.31 -3.89707 2.46272 0
M  V30 12153 H 1169.85 -3.70686 5.90963 0
M  V30 12154 H 1165.75 -4.29126 4.82204 0
M  V30 12155 H 1166.51 -4.41152 6.8944 0
M  V30 12156 N 1169.18 -0.941978 -1.26351 0
M  V30 12157 C 1170.11 -0.469913 -2.28723 0
M  V30 12158 C 1171.09 0.477218 -1.63269 0
M  V30 12159 O 1172.27 0.378902 -1.90468 0
M  V30 12160 C 1169.4 0.264971 -3.46288 0
M  V30 12161 C 1168.36 -0.595682 -4.23834 0
M  V30 12162 C 1167.68 0.269208 -5.34022 0
M  V30 12163 C 1168.98 -1.86743 -4.87775 0
M  V30 12164 H 1170.68 -1.32551 -2.6846 0
M  V30 12165 H 1168.22 -0.638809 -1.29055 0
M  V30 12166 H 1170.18 0.606259 -4.17016 0
M  V30 12167 H 1168.9 1.15471 -3.05506 0
M  V30 12168 H 1167.56 -0.919875 -3.54872 0
M  V30 12169 H 1167.21 1.15832 -4.89481 0
M  V30 12170 H 1166.91 -0.30325 -5.86817 0
M  V30 12171 H 1168.43 0.605748 -6.07588 0
M  V30 12172 H 1169.85 -1.59333 -5.50714 0
M  V30 12173 H 1168.24 -2.38452 -5.50691 0
M  V30 12174 H 1169.31 -2.57831 -4.10671 0
M  V30 12175 N 1170.66 1.40747 -0.709091 0
M  V30 12176 C 1171.93 1.94831 -0.173246 0
M  V30 12177 C 1172.31 1.64766 1.31967 0
M  V30 12178 O 1171.66 0.961853 2.07269 0
M  V30 12179 C 1171.87 3.45697 -0.479013 0
M  V30 12180 C 1173.22 4.22576 -0.414122 0
M  V30 12181 O 1174.24 3.53778 -0.414699 0
M  V30 12182 O 1173.1 5.45135 -0.385986 0
M  V30 12183 H 1170.2 0.826683 -0.0228947 0
M  V30 12184 H 1172.74 1.50391 -0.786178 0
M  V30 12185 H 1171.51 3.60914 -1.51185 0
M  V30 12186 H 1171.14 3.97261 0.164211 0
M  V30 12187 N 1172.13 0.454803 1.50895 0
M  V30 12188 C 1173.38 -0.105927 2.02523 0
M  V30 12189 C 1173.71 -1.40825 1.33724 0
M  V30 12190 O 1172.99 -1.89038 0.457683 0
M  V30 12191 C 1173.27 -0.306635 3.58792 0
M  V30 12192 C 1173.12 1.01556 4.38185 0
M  V30 12193 C 1174.44 -1.06858 4.2693 0
M  V30 12194 H 1171.56 -0.0370232 0.736069 0
M  V30 12195 H 1174.2 0.597215 1.8037 0
M  V30 12196 H 1172.35 -0.905563 3.77799 0
M  V30 12197 H 1174.03 1.64981 4.30789 0
M  V30 12198 H 1172.27 1.61608 4.02574 0
M  V30 12199 H 1172.94 0.828959 5.4574 0
M  V30 12200 H 1175.42 -0.561086 4.123 0
M  V30 12201 H 1174.29 -1.1778 5.36115 0
M  V30 12202 H 1174.55 -2.10111 3.8898 0
M  V30 12203 N 1173.61 -1.56489 0.186789 0
M  V30 12204 C 1174.54 -2.21705 -0.732739 0
M  V30 12205 C 1175.52 -1.17751 -1.22755 0
M  V30 12206 O 1176.71 -1.46231 -1.27789 0
M  V30 12207 C 1173.84 -2.86992 -1.95584 0
M  V30 12208 C 1172.79 -3.97118 -1.59628 0
M  V30 12209 C 1172.12 -4.49529 -2.89531 0
M  V30 12210 C 1173.42 -5.15941 -0.812518 0
M  V30 12211 H 1175.11 -2.98802 -0.189094 0
M  V30 12212 H 1172.66 -1.43722 -0.0895099 0
M  V30 12213 H 1174.61 -3.31295 -2.60426 0
M  V30 12214 H 1173.33 -2.07287 -2.52388 0
M  V30 12215 H 1171.99 -3.53494 -0.971475 0
M  V30 12216 H 1171.64 -3.66596 -3.44407 0
M  V30 12217 H 1171.34 -5.23832 -2.66221 0
M  V30 12218 H 1172.87 -4.96528 -3.55376 0
M  V30 12219 H 1174.28 -5.56841 -1.36386 0
M  V30 12220 H 1172.68 -5.96259 -0.677862 0
M  V30 12221 H 1173.75 -4.84535 0.188095 0
M  V30 12222 N 1175.09 0.086862 -1.5736 0
M  V30 12223 C 1176.34 0.787281 -1.86135 0
M  V30 12224 C 1176.66 1.78866 -0.776667 0
M  V30 12225 O 1175.93 1.94915 0.19625 0
M  V30 12226 H 1174.51 0.293744 -0.686821 0
M  V30 12227 H 1177.17 0.0665326 -1.94786 0
M  V30 12228 H 1176.27 1.3128 -2.83147 0
M  V30 12229 O 1176.61 1.59844 0.230714 0
M  V30 12230 H 1177.3 1.72929 0.872656 0
M  V30 END ATOM
M  V30 BEGIN BOND
M  V30 END BOND
M  V30 END CTAB
M  END
$$$$
