drugbank_target|Q9HBA0 Transient receptor potential cation channel subfamily V member 4 (DB09061; DB11148; DB14009; DB14011)
 OpenBabel12092121093D

  0  0  0     0  0            999 V3000
M  V30 BEGIN CTAB
M  V30 COUNTS 13857 14030 0 0 0
M  V30 BEGIN ATOM
M  V30 1 H -0.908 1.98254 -0.117106 0
M  V30 2 N 0 1.576 0 0
M  V30 3 C 0.933 2.03868 1.02534 0
M  V30 4 C 1.911 0.928543 1.3348 0
M  V30 5 O 3.095 1.19667 1.45644 0
M  V30 6 C 0.222 2.43627 2.35294 0
M  V30 7 C -0.732 3.65373 2.2001 0
M  V30 8 S 0.101 5.13292 1.52614 0
M  V30 9 C 1.257 5.56322 2.86805 0
M  V30 10 H 1.49 2.90518 0.631377 0
M  V30 11 H -0.977 1.52953 0.210867 0
M  V30 12 H 0.981 2.67203 3.11629 0
M  V30 13 H -0.358 1.57376 2.7183 0
M  V30 14 H -1.165 3.90944 3.18086 0
M  V30 15 H -1.563 3.418 1.51819 0
M  V30 16 H 0.729 5.58782 3.83104 0
M  V30 17 H 1.672 6.56266 2.65933 0
M  V30 18 H 2.08 4.83886 2.90714 0
M  V30 19 N 1.4781 -0.272755 1.55222 0
M  V30 20 C 2.4411 -1.32041 1.87344 0
M  V30 21 C 3.4411 -1.42342 0.74803 0
M  V30 22 O 4.6311 -1.41488 1.0162 0
M  V30 23 C 1.7631 -2.70173 2.07893 0
M  V30 24 H 2.9561 -1.04789 2.80997 0
M  V30 25 H 0.5091 -0.51083 1.47717 0
M  V30 26 H 1.2441 -3.02605 1.16622 0
M  V30 27 H 1.0291 -2.64082 2.89833 0
M  V30 28 H 2.5191 -3.45869 2.34017 0
M  V30 29 N 2.9562 -1.48159 -0.537278 0
M  V30 30 C 4.2332 -1.46291 -1.29839 0
M  V30 31 C 4.6132 -0.170613 -2.10409 0
M  V30 32 O 3.9612 0.847746 -2.12192 0
M  V30 33 C 4.1712 -2.72055 -2.18603 0
M  V30 34 C 5.5192 -3.20087 -2.7898 0
M  V30 35 O 6.5432 -2.72921 -2.28894 0
M  V30 36 O 5.4022 -4.02138 -3.70064 0
M  V30 37 H 2.4962 -0.583906 -0.585647 0
M  V30 38 H 5.0422 -1.60384 -0.554534 0
M  V30 39 H 3.8142 -3.57628 -1.58801 0
M  V30 40 H 3.4372 -2.60646 -3.00249 0
M  V30 41 N 4.4343 0.785586 -1.36625 0
M  V30 42 C 5.6593 1.57963 -1.34397 0
M  V30 43 C 6.0843 1.87964 0.071526 0
M  V30 44 O 5.4423 1.48182 1.0446 0
M  V30 45 C 5.4903 2.87511 -2.17646 0
M  V30 46 O 4.5943 3.81281 -1.57158 0
M  V30 47 H 3.9353 0.479014 -0.459828 0
M  V30 48 H 6.4653 0.973411 -1.79961 0
M  V30 49 H 6.4753 3.36745 -2.30362 0
M  V30 50 H 5.1503 2.65002 -3.20541 0
M  V30 51 H 3.7273 3.39885 -1.53403 0
M  V30 52 N 5.9124 1.20967 1.01018 0
M  V30 53 C 7.1374 1.0503 1.78839 0
M  V30 54 C 7.5624 -0.395752 1.8389 0
M  V30 55 O 6.9204 -1.28529 1.27867 0
M  V30 56 C 6.9684 1.64602 3.2084 0
M  V30 57 O 6.0724 0.887988 4.02726 0
M  V30 58 H 5.4134 0.369987 0.551367 0
M  V30 59 H 7.9434 1.60399 1.27018 0
M  V30 60 H 7.9534 1.68607 3.71532 0
M  V30 61 H 6.6284 2.69841 3.16479 0
M  V30 62 H 5.2054 0.922648 3.61305 0
M  V30 63 N 7.3905 -1.2043 1.01659 0
M  V30 64 C 8.3005 -2.2689 0.596484 0
M  V30 65 C 9.3165 -1.70107 -0.36599 0
M  V30 66 O 10.4925 -2.00117 -0.226942 0
M  V30 67 C 7.5575 -3.4665 -0.0586659 0
M  V30 68 C 6.6185 -4.18662 0.949751 0
M  V30 69 C 5.8515 -5.32705 0.32577 0
M  V30 70 O 6.0745 -5.63656 -0.874509 0
M  V30 71 O 5.0085 -5.92803 1.04249 0
M  V30 72 H 8.8345 -2.65041 1.4828 0
M  V30 73 H 6.4195 -1.27048 0.786082 0
M  V30 74 H 8.3015 -4.19256 -0.424564 0
M  V30 75 H 6.9765 -3.10375 -0.91918 0
M  V30 76 H 5.8835 -3.48229 1.36702 0
M  V30 77 H 7.2165 -4.58878 1.78023 0
M  V30 78 N 8.8686 -0.792821 -1.36206 0
M  V30 79 C 10.1166 -0.366062 -1.98757 0
M  V30 80 C 10.4376 1.0668 -1.63231 0
M  V30 81 O 9.7076 1.73587 -0.907978 0
M  V30 82 H 8.2876 -0.132364 -0.735179 0
M  V30 83 H 10.9496 -1.01562 -1.66347 0
M  V30 84 H 10.0456 -0.460638 -3.08682 0
M  V30 85 N 10.3467 1.47872 -0.545128 0
M  V30 86 C 11.7577 1.86384 -0.108581 0
M  V30 87 C 12.1087 1.45309 1.31832 0
M  V30 88 O 11.2337 0.850641 1.9898 0
M  V30 89 C 11.8287 3.38265 -0.190274 0
M  V30 90 C 10.3877 3.75914 0.191164 0
M  V30 91 C 9.5347 2.71926 -0.543273 0
M  V30 92 H 12.4857 1.39561 -0.755537 0
M  V30 93 H 12.5067 3.75831 0.594217 0
M  V30 94 H 12.0187 3.6813 -1.2289 0
M  V30 95 H 10.1197 3.51665 1.23136 0
M  V30 96 H 10.2327 4.78836 -0.158987 0
M  V30 97 H 8.5967 2.54697 0.0122495 0
M  V30 98 H 9.3797 3.04634 -1.58282 0
M  V30 99 N 11.8248 0.280983 1.55075 0
M  V30 100 C 13.2408 -0.0729964 1.59433 0
M  V30 101 C 13.4408 -1.5411 1.29817 0
M  V30 102 O 12.4968 -2.29086 1.06187 0
M  V30 103 C 13.8098 0.306921 2.9913 0
M  V30 104 C 15.3578 0.254023 3.11968 0
M  V30 105 C 15.8328 0.608467 4.5394 0
M  V30 106 N 17.3238 0.560241 4.59799 0
M  V30 107 C 18.0588 0.80722 5.6769 0
M  V30 108 N 17.5548 1.11912 6.83701 0
M  V30 109 N 19.3478 0.735623 5.57266 0
M  V30 110 H 11.4988 1.238 1.7259 0
M  V30 111 H 13.7618 0.500547 0.805082 0
M  V30 112 H 13.4678 1.32816 3.25657 0
M  V30 113 H 13.3418 -0.349363 3.75579 0
M  V30 114 H 15.7288 -0.75794 2.852 0
M  V30 115 H 15.8098 0.944649 2.37718 0
M  V30 116 H 15.4538 1.61814 4.81434 0
M  V30 117 H 15.3838 -0.104013 5.26497 0
M  V30 118 H 17.8748 0.329288 3.76463 0
M  V30 119 H 18.1878 1.29409 7.61888 0
M  V30 120 H 16.5328 1.15695 6.85303 0
M  V30 121 H 19.7238 0.491752 4.6551 0
M  V30 122 H 19.8968 0.931482 6.4127 0
M  V30 123 N 13.3029 -1.57598 0.00835791 0
M  V30 124 C 14.2659 -2.07884 -0.965242 0
M  V30 125 C 15.2659 -0.989825 -1.26725 0
M  V30 126 O 16.4559 -1.25218 -1.21104 0
M  V30 127 C 13.5879 -2.52731 -2.28779 0
M  V30 128 H 14.7809 -2.95178 -0.530112 0
M  V30 129 H 12.3339 -1.54458 -0.239283 0
M  V30 130 H 13.0689 -1.68705 -2.76964 0
M  V30 131 H 12.8539 -3.32272 -2.08177 0
M  V30 132 H 14.3439 -2.91933 -2.98605 0
M  V30 133 N 14.781 0.264519 -1.55364 0
M  V30 134 C 16.029 0.993021 -1.76021 0
M  V30 135 C 16.35 1.86511 -0.569099 0
M  V30 136 O 15.62 1.91438 0.415735 0
M  V30 137 H 14.2 0.369639 -0.649135 0
M  V30 138 H 16.862 0.286707 -1.9278 0
M  V30 139 H 15.958 1.62502 -2.66457 0
M  V30 140 N 16.2591 1.48442 0.529413 0
M  V30 141 C 17.6701 1.5002 1.11134 0
M  V30 142 C 18.0211 0.27031 1.94329 0
M  V30 143 O 17.1461 -0.622507 2.07253 0
M  V30 144 C 17.7411 2.71834 2.02217 0
M  V30 145 C 16.3001 2.76283 2.55627 0
M  V30 146 C 15.4471 2.43542 1.326 0
M  V30 147 H 18.3981 1.5555 0.314641 0
M  V30 148 H 18.4191 2.50384 2.8651 0
M  V30 149 H 17.9311 3.61331 1.41639 0
M  V30 150 H 16.0321 1.90995 3.19924 0
M  V30 151 H 16.1451 3.77725 2.94721 0
M  V30 152 H 14.5091 1.94709 1.64196 0
M  V30 153 H 15.2921 3.3528 0.737734 0
M  V30 154 N 17.7372 -0.778329 1.37039 0
M  V30 155 C 18.9852 -1.53361 1.31623 0
M  V30 156 C 19.3062 -1.94739 -0.100831 0
M  V30 157 O 18.5762 -1.65797 -1.04347 0
M  V30 158 H 17.1562 -0.568794 0.484234 0
M  V30 159 H 19.8182 -0.926742 1.71457 0
M  V30 160 H 18.9142 -2.43606 1.95096 0
M  V30 161 N 19.2153 -1.21501 -1.00376 0
M  V30 162 C 20.1253 -0.991447 -2.12621 0
M  V30 163 C 21.1413 0.0568446 -1.73907 0
M  V30 164 O 22.3173 -0.13348 -2.00957 0
M  V30 165 C 19.3823 -0.560312 -3.42142 0
M  V30 166 C 18.4433 -1.68096 -3.95022 0
M  V30 167 C 17.6763 -1.2703 -5.18362 0
M  V30 168 O 17.8993 -0.144438 -5.70217 0
M  V30 169 O 16.8333 -2.08269 -5.64719 0
M  V30 170 H 20.6593 -1.93158 -2.34358 0
M  V30 171 H 18.2443 -0.999999 -1.10997 0
M  V30 172 H 20.1263 -0.329724 -4.20108 0
M  V30 173 H 18.8013 0.351089 -3.2179 0
M  V30 174 H 17.7083 -1.96597 -3.18278 0
M  V30 175 H 19.0413 -2.56983 -4.19786 0
M  V30 176 N 20.6934 1.19889 -1.02296 0
M  V30 177 C 21.9394 1.89701 -0.717033 0
M  V30 178 C 22.2724 1.7905 0.751989 0
M  V30 179 O 21.5474 1.17891 1.547 0
M  V30 180 C 21.8304 3.40858 -1.16136 0
M  V30 181 C 21.6834 3.60411 -2.69117 0
M  V30 182 C 23.0024 4.33876 -0.737549 0
M  V30 183 H 20.1214 0.688874 -0.261957 0
M  V30 184 H 22.7634 1.41154 -1.27183 0
M  V30 185 H 20.9134 3.82335 -0.689342 0
M  V30 186 H 22.5854 3.28145 -3.2422 0
M  V30 187 H 20.8284 3.03665 -3.0979 0
M  V30 188 H 21.4994 4.66396 -2.95261 0
M  V30 189 H 23.9754 4.00081 -1.14344 0
M  V30 190 H 22.8514 5.38242 -1.0764 0
M  V30 191 H 23.1124 4.40628 0.360436 0
M  V30 192 N 22.1715 0.800033 1.35784 0
M  V30 193 C 23.1345 0.211565 2.28221 0
M  V30 194 C 24.1345 -0.59728 1.49296 0
M  V30 195 O 25.3245 -0.416721 1.69142 0
M  V30 196 C 22.4565 -0.705846 3.33513 0
M  V30 197 H 23.6495 1.02677 2.81776 0
M  V30 198 H 21.2025 0.570211 1.45528 0
M  V30 199 H 21.9375 -1.54498 2.85133 0
M  V30 200 H 21.7225 -0.127655 3.91892 0
M  V30 201 H 23.2125 -1.11211 4.02519 0
M  V30 202 N 23.6496 -1.47581 0.552962 0
M  V30 203 C 24.5596 -2.33743 -0.200353 0
M  V30 204 C 25.5756 -1.47928 -0.916151 0
M  V30 205 O 26.7516 -1.80865 -0.885993 0
M  V30 206 C 23.8166 -3.24536 -1.21973 0
M  V30 207 C 22.8776 -4.26238 -0.511819 0
M  V30 208 C 22.1106 -5.12693 -1.48263 0
M  V30 209 O 22.3336 -5.01525 -2.71714 0
M  V30 210 O 21.2676 -5.93375 -1.00945 0
M  V30 211 H 25.0936 -2.9945 0.506304 0
M  V30 212 H 22.6786 -1.46071 0.313622 0
M  V30 213 H 24.5606 -3.80631 -1.80827 0
M  V30 214 H 23.2356 -2.61462 -1.90839 0
M  V30 215 H 22.1426 -3.73914 0.117799 0
M  V30 216 H 23.4756 -4.92014 0.135308 0
M  V30 217 N 25.1277 -0.289203 -1.54924 0
M  V30 218 C 26.0577 0.58549 -2.2604 0
M  V30 219 C 27.0387 1.14753 -1.25562 0
M  V30 220 O 28.2237 1.17906 -1.54311 0
M  V30 221 C 25.3537 1.76305 -2.99222 0
M  V30 222 C 24.3077 1.33191 -4.06748 0
M  V30 223 C 23.6337 2.5937 -4.6758 0
M  V30 224 C 24.9337 0.471775 -5.20165 0
M  V30 225 H 26.6277 -0.00763532 -2.99399 0
M  V30 226 H 24.1737 -0.00511229 -1.43999 0
M  V30 227 H 26.1267 2.38097 -3.47689 0
M  V30 228 H 24.8507 2.38223 -2.23422 0
M  V30 229 H 23.5097 0.737121 -3.59113 0
M  V30 230 H 23.1577 3.19576 -3.88433 0
M  V30 231 H 22.8577 2.31228 -5.40192 0
M  V30 232 H 24.3817 3.21985 -5.18804 0
M  V30 233 H 25.7957 0.995056 -5.64599 0
M  V30 234 H 24.1927 0.284639 -5.99425 0
M  V30 235 H 25.2627 -0.506041 -4.82252 0
M  V30 236 N 26.6058 1.57591 -0.0167156 0
M  V30 237 C 28.0168 1.79201 0.523834 0
M  V30 238 C 28.3678 0.925796 1.72984 0
M  V30 239 O 27.4928 0.132792 2.15992 0
M  V30 240 C 28.0878 3.25 0.957091 0
M  V30 241 C 26.6468 3.47648 1.44283 0
M  V30 242 C 25.7938 2.74374 0.401757 0
M  V30 243 H 28.7448 1.56831 -0.242816 0
M  V30 244 H 28.7658 3.34031 1.82219 0
M  V30 245 H 28.2778 3.88019 0.0791415 0
M  V30 246 H 26.3788 2.89866 2.34113 0
M  V30 247 H 26.4918 4.56352 1.45877 0
M  V30 248 H 24.8558 2.39485 0.867121 0
M  V30 249 H 25.6388 3.40102 -0.467513 0
M  V30 250 N 28.0839 -0.256276 1.55502 0
M  V30 251 C 29.3319 -0.983672 1.76545 0
M  V30 252 C 29.6529 -1.86206 0.578982 0
M  V30 253 O 28.9229 -1.91656 -0.405577 0
M  V30 254 H 27.5029 -0.366191 0.651086 0
M  V30 255 H 30.1649 -0.276479 1.92929 0
M  V30 256 H 29.2609 -1.61087 2.67315 0
M  V30 257 N 29.562 -1.4872 -0.521534 0
M  V30 258 C 30.839 -1.4766 -1.2828 0
M  V30 259 C 31.219 -0.19292 -2.10217 0
M  V30 260 O 30.567 0.825193 -2.13079 0
M  V30 261 C 30.777 -2.74358 -2.15705 0
M  V30 262 C 32.125 -3.23028 -2.75569 0
M  V30 263 O 33.149 -2.75333 -2.25987 0
M  V30 264 O 32.008 -4.0604 -3.65778 0
M  V30 265 H 29.102 -0.590085 -0.579421 0
M  V30 266 H 31.648 -1.60963 -0.537492 0
M  V30 267 H 30.42 -3.59292 -1.54999 0
M  V30 268 H 30.043 -2.63816 -2.97467 0
M  V30 269 N 31.0401 0.771051 -1.3745 0
M  V30 270 C 31.9501 1.91538 -1.35464 0
M  V30 271 C 32.9661 1.72134 -0.254123 0
M  V30 272 O 34.1421 1.95358 -0.489626 0
M  V30 273 C 31.2071 3.26671 -1.16134 0
M  V30 274 C 30.2681 3.58723 -2.35831 0
M  V30 275 C 29.5011 4.87409 -2.17413 0
M  V30 276 O 29.7241 5.58506 -1.15876 0
M  V30 277 O 28.6581 5.18539 -3.05615 0
M  V30 278 H 32.4841 1.96165 -2.31847 0
M  V30 279 H 30.0691 0.9139 -1.18187 0
M  V30 280 H 31.9511 4.07499 -1.07345 0
M  V30 281 H 30.6261 3.22894 -0.228251 0
M  V30 282 H 29.5331 2.78127 -2.50192 0
M  V30 283 H 30.8661 3.67243 -3.27709 0
M  V30 284 N 32.5182 1.22032 0.997298 0
M  V30 285 C 33.7432 1.06921 1.77715 0
M  V30 286 C 34.1682 -0.376226 1.84299 0
M  V30 287 O 33.5262 -1.27165 1.29223 0
M  V30 288 C 33.5742 1.67996 3.19076 0
M  V30 289 O 32.6782 0.930653 4.01762 0
M  V30 290 H 32.0192 0.375814 0.547412 0
M  V30 291 H 34.5492 1.61737 1.25309 0
M  V30 292 H 34.5592 1.72538 3.69723 0
M  V30 293 H 33.2342 2.73182 3.13599 0
M  V30 294 H 31.8112 0.960917 3.60307 0
M  V30 295 N 33.9963 -1.19345 1.0293 0
M  V30 296 C 35.2443 -1.88665 0.724574 0
M  V30 297 C 35.5653 -1.80036 -0.749144 0
M  V30 298 O 34.8353 -1.2111 -1.53978 0
M  V30 299 H 33.4153 -0.698406 0.265025 0
M  V30 300 H 36.0773 -1.44885 1.30362 0
M  V30 301 H 35.1733 -2.94987 1.01926 0
M  V30 302 N 35.4744 -0.807222 -1.35358 0
M  V30 303 C 36.7024 -0.400377 -2.02989 0
M  V30 304 C 37.1174 0.988859 -1.60832 0
M  V30 305 O 36.4744 1.63729 -0.806175 0
M  V30 306 C 36.5254 -0.474867 -3.58368 0
M  V30 307 O 36.2464 -1.80933 -3.98992 0
M  V30 308 C 37.7474 -0.0609112 -4.43258 0
M  V30 309 H 34.9674 -0.162587 -0.651004 0
M  V30 310 H 37.5114 -1.09102 -1.72965 0
M  V30 311 H 35.6664 0.167534 -3.87038 0
M  V30 312 H 36.0804 -1.77256 -4.9364 0
M  V30 313 H 37.5544 -0.164145 -5.51756 0
M  V30 314 H 38.0314 0.993831 -4.27808 0
M  V30 315 H 38.6374 -0.676492 -4.19885 0
M  V30 316 N 36.9525 1.47285 -0.560781 0
M  V30 317 C 38.3635 1.86258 -0.128343 0
M  V30 318 C 38.7145 1.46699 1.30284 0
M  V30 319 O 37.8395 0.871698 1.98067 0
M  V30 320 C 38.4345 3.38044 -0.22614 0
M  V30 321 C 36.9935 3.76096 0.151283 0
M  V30 322 C 36.1405 2.71335 -0.572084 0
M  V30 323 H 39.0915 1.38752 -0.770297 0
M  V30 324 H 39.1125 3.76441 0.554322 0
M  V30 325 H 38.6245 3.66806 -1.26788 0
M  V30 326 H 36.7255 3.52951 1.19399 0
M  V30 327 H 36.8385 4.78641 -0.209765 0
M  V30 328 H 35.2025 2.54696 -0.0147653 0
M  V30 329 H 35.9855 3.02938 -1.61504 0
M  V30 330 N 38.4306 0.297415 1.54768 0
M  V30 331 C 39.6786 -0.312295 1.99673 0
M  V30 332 C 39.9996 -1.54686 1.18732 0
M  V30 333 O 39.2696 -1.93854 0.282382 0
M  V30 334 H 37.8496 -0.118381 0.73756 0
M  V30 335 H 40.5116 0.407915 1.90583 0
M  V30 336 H 39.6076 -0.586813 3.06534 0
M  V30 337 N 39.9087 -1.5758 0.0250728 0
M  V30 338 C 41.1567 -1.91255 -0.653151 0
M  V30 339 C 41.4777 -0.901691 -1.729 0
M  V30 340 O 40.7477 0.0573785 -1.95816 0
M  V30 341 H 39.3277 -0.705942 -0.244243 0
M  V30 342 H 41.9897 -1.94767 0.0719209 0
M  V30 343 H 41.0857 -2.91752 -1.10847 0
M  V30 344 N 41.3868 0.248026 -1.55636 0
M  V30 345 C 42.2968 1.32859 -1.93354 0
M  V30 346 C 43.3128 1.52719 -0.833838 0
M  V30 347 O 44.4888 1.66363 -1.13513 0
M  V30 348 C 41.5538 2.66337 -2.21958 0
M  V30 349 C 40.6148 2.55008 -3.45354 0
M  V30 350 C 39.8478 3.82121 -3.72584 0
M  V30 351 O 40.0708 4.83951 -3.01907 0
M  V30 352 O 39.0048 3.80822 -4.6611 0
M  V30 353 H 42.8308 1.03862 -2.85388 0
M  V30 354 H 40.4158 0.448686 -1.42503 0
M  V30 355 H 42.2978 3.45216 -2.4167 0
M  V30 356 H 40.9728 2.95068 -1.33103 0
M  V30 357 H 39.8798 1.7442 -3.30951 0
M  V30 358 H 41.2128 2.31222 -4.34508 0
M  V30 359 N 42.8649 1.48995 0.513639 0
M  V30 360 C 43.8279 1.64229 1.59879 0
M  V30 361 C 44.8279 0.514696 1.5234 0
M  V30 362 O 46.0179 0.78087 1.55718 0
M  V30 363 C 43.1499 1.62783 2.99524 0
M  V30 364 H 44.3429 2.61004 1.47705 0
M  V30 365 H 41.8959 1.37837 0.736936 0
M  V30 366 H 42.6309 0.675461 3.17188 0
M  V30 367 H 42.4159 2.4466 3.06404 0
M  V30 368 H 43.9059 1.76669 3.78388 0
M  V30 369 N 44.343 -0.763751 1.37857 0
M  V30 370 C 45.59 -1.52257 1.33506 0
M  V30 371 C 45.918 -1.94343 -0.078022 0
M  V30 372 O 45.173 -1.64958 -1.05297 0
M  V30 373 C 45.472 -2.79499 2.22745 0
M  V30 374 C 45.138 -2.56426 3.70886 0
M  V30 375 C 43.8 -2.49842 4.11257 0
M  V30 376 C 46.152 -2.36008 4.64704 0
M  V30 377 C 43.48 -2.20841 5.43549 0
M  V30 378 C 45.832 -2.0853 5.97242 0
M  V30 379 C 44.496 -2.00396 6.36709 0
M  V30 380 H 43.766 -0.557149 0.488534 0
M  V30 381 H 46.413 -0.879073 1.70131 0
M  V30 382 H 44.718 -3.48447 1.79142 0
M  V30 383 H 46.415 -3.37413 2.16688 0
M  V30 384 H 43.005 -2.62416 3.38874 0
M  V30 385 H 47.189 -2.40079 4.34368 0
M  V30 386 H 42.445 -2.13045 5.73081 0
M  V30 387 H 46.619 -1.91732 6.69486 0
M  V30 388 H 44.246 -1.77688 7.39142 0
M  V30 389 N 45.8211 -1.22559 -0.990812 0
M  V30 390 C 47.2321 -1.04791 -1.54518 0
M  V30 391 C 47.5831 0.387998 -1.92325 0
M  V30 392 O 46.7081 1.27328 -1.74976 0
M  V30 393 C 47.3031 -1.896 -2.80779 0
M  V30 394 C 45.8621 -1.76124 -3.32652 0
M  V30 395 C 45.0091 -1.8594 -2.05722 0
M  V30 396 H 47.9601 -1.36374 -0.811662 0
M  V30 397 H 47.9811 -1.41464 -3.53225 0
M  V30 398 H 47.4931 -2.94101 -2.53231 0
M  V30 399 H 45.5941 -0.743643 -3.65104 0
M  V30 400 H 45.7071 -2.58913 -4.03114 0
M  V30 401 H 44.0711 -1.29403 -2.19379 0
M  V30 402 H 44.8541 -2.91976 -1.80568 0
M  V30 403 N 47.2992 1.18797 -1.03562 0
M  V30 404 C 48.2292 2.24472 -0.643019 0
M  V30 405 C 49.2102 1.66433 0.351283 0
M  V30 406 O 50.3952 1.92803 0.232505 0
M  V30 407 C 47.5252 3.473 4.24935e-05 0
M  V30 408 C 46.4792 4.18055 -0.917257 0
M  V30 409 C 45.8052 5.34519 -0.138941 0
M  V30 410 C 47.1052 4.72109 -2.23407 0
M  V30 411 H 48.7992 2.57566 -1.52643 0
M  V30 412 H 46.3452 1.23806 -0.735394 0
M  V30 413 H 48.2982 4.20426 0.286383 0
M  V30 414 H 47.0222 3.13424 0.918299 0
M  V30 415 H 45.6812 3.46821 -1.1879 0
M  V30 416 H 45.3292 4.96891 0.781562 0
M  V30 417 H 45.0292 5.82794 -0.750005 0
M  V30 418 H 46.5532 6.10438 0.1405 0
M  V30 419 H 47.9672 5.36955 -2.00879 0
M  V30 420 H 46.3642 5.30897 -2.79765 0
M  V30 421 H 47.4342 3.89807 -2.88407 0
M  V30 422 N 48.7773 0.814389 1.34928 0
M  V30 423 C 50.0023 0.410097 2.03305 0
M  V30 424 C 50.4273 -0.973464 1.60951 0
M  V30 425 O 49.7853 -1.63185 0.789964 0
M  V30 426 C 49.8333 0.51049 3.56968 0
M  V30 427 O 48.9373 -0.473035 4.09678 0
M  V30 428 H 48.2783 0.170088 0.641846 0
M  V30 429 H 50.8083 1.10244 1.72358 0
M  V30 430 H 50.8183 0.383135 4.06197 0
M  V30 431 H 49.4933 1.51963 3.87144 0
M  V30 432 H 48.0703 -0.305272 3.71648 0
M  V30 433 N 50.2554 -1.46986 0.568584 0
M  V30 434 C 51.4804 -2.07335 0.0520528 0
M  V30 435 C 51.9054 -1.41675 -1.23733 0
M  V30 436 O 51.2634 -0.495623 -1.74394 0
M  V30 437 C 51.3114 -3.60417 -0.11501 0
M  V30 438 O 50.4154 -3.95309 -1.17492 0
M  V30 439 H 49.7564 -0.661597 0.0564385 0
M  V30 440 H 52.2864 -1.88837 0.787507 0
M  V30 441 H 52.2964 -4.06698 -0.325644 0
M  V30 442 H 50.9714 -4.07601 0.826675 0
M  V30 443 H 49.5484 -3.60757 -0.943869 0
M  V30 444 N 51.7335 -0.305618 -1.54608 0
M  V30 445 C 52.6635 0.561482 -2.26649 0
M  V30 446 C 53.6445 1.13415 -1.26772 0
M  V30 447 O 54.8295 1.16262 -1.55553 0
M  V30 448 C 51.9595 1.73122 -3.01075 0
M  V30 449 C 50.9135 1.2887 -4.08138 0
M  V30 450 C 50.2395 2.54396 -4.70305 0
M  V30 451 C 51.5395 0.416578 -5.20636 0
M  V30 452 H 53.2335 -0.0393902 -2.99374 0
M  V30 453 H 50.7795 -0.020385 -1.43986 0
M  V30 454 H 52.7325 2.34396 -3.50195 0
M  V30 455 H 51.4565 2.3584 -2.25936 0
M  V30 456 H 50.1155 0.698991 -3.59875 0
M  V30 457 H 49.7635 3.15439 -3.918 0
M  V30 458 H 49.4635 2.25486 -5.42614 0
M  V30 459 H 50.9875 3.16464 -5.2219 0
M  V30 460 H 52.4015 0.935116 -5.65622 0
M  V30 461 H 50.7985 0.221046 -5.99693 0
M  V30 462 H 51.8685 -0.557162 -4.81688 0
M  V30 463 N 53.2116 1.57565 -0.0334293 0
M  V30 464 C 54.1746 2.09393 0.932048 0
M  V30 465 C 55.1746 1.00986 1.25134 0
M  V30 466 O 56.3646 1.27129 1.19096 0
M  V30 467 C 53.4966 2.56338 2.2473 0
M  V30 468 H 54.6896 2.95984 0.483085 0
M  V30 469 H 52.2426 1.54819 0.21468 0
M  V30 470 H 52.9776 1.7309 2.74245 0
M  V30 471 H 52.7626 3.35542 2.02865 0
M  V30 472 H 54.2526 2.96646 2.93923 0
M  V30 473 N 54.6897 -0.239769 1.55765 0
M  V30 474 C 55.6377 -1.31668 1.91745 0
M  V30 475 C 56.6317 -1.49462 0.797338 0
M  V30 476 O 57.8377 -1.50852 0.982021 0
M  V30 477 H 54.2127 -0.441048 0.609082 0
M  V30 478 H 56.1837 -0.985923 2.81642 0
M  V30 479 C 54.9327 -2.66368 2.2348 0
M  V30 480 H 54.2557 -2.53478 3.09175 0
M  V30 481 H 55.6957 -3.40578 2.52553 0
M  V30 482 C 54.1547 -3.20002 1.05359 0
M  V30 483 O 54.6847 -4.00538 0.305261 0
M  V30 484 N 52.8907 -2.78126 0.842292 0
M  V30 485 H 52.4377 -2.12742 1.45253 0
M  V30 486 H 52.3957 -3.14354 0.053652 0
M  V30 487 N 56.1678 -1.49265 -0.50573 0
M  V30 488 C 57.0978 -1.68495 -1.61653 0
M  V30 489 C 58.0788 -0.53366 -1.61512 0
M  V30 490 O 59.2638 -0.76897 -1.78327 0
M  V30 491 C 56.3938 -1.74709 -3.00157 0
M  V30 492 C 55.3478 -2.89581 -3.15162 0
M  V30 493 C 54.6738 -2.80903 -4.5497 0
M  V30 494 C 55.9738 -4.30578 -2.95634 0
M  V30 495 H 57.6678 -2.61493 -1.45814 0
M  V30 496 H 55.2138 -1.25838 -0.70005 0
M  V30 497 H 57.1668 -1.86748 -3.77761 0
M  V30 498 H 55.8908 -0.783067 -3.17074 0
M  V30 499 H 54.5498 -2.77136 -2.39982 0
M  V30 500 H 54.1978 -1.82419 -4.68756 0
M  V30 501 H 53.8978 -3.57999 -4.65951 0
M  V30 502 H 55.4218 -2.94944 -5.34641 0
M  V30 503 H 56.8358 -4.4373 -3.63011 0
M  V30 504 H 55.2328 -5.0886 -3.18091 0
M  V30 505 H 56.3028 -4.45352 -1.91806 0
M  V30 506 N 57.6459 0.756429 -1.3826 0
M  V30 507 C 58.8929 1.51547 -1.34312 0
M  V30 508 C 59.2209 1.94382 0.0677144 0
M  V30 509 O 58.4759 1.65514 1.04421 0
M  V30 510 C 58.7749 2.78313 -2.24224 0
M  V30 511 C 58.4409 2.54455 -3.72241 0
M  V30 512 C 57.1029 2.47657 -4.12576 0
M  V30 513 C 59.4549 2.3354 -4.65949 0
M  V30 514 C 56.7829 2.17956 -5.44713 0
M  V30 515 C 59.1349 2.05359 -5.9834 0
M  V30 516 C 57.7989 1.97016 -6.37762 0
M  V30 517 H 57.0689 0.55455 -0.491482 0
M  V30 518 H 59.7159 0.870039 -1.70595 0
M  V30 519 H 58.0209 3.47492 -1.80987 0
M  V30 520 H 59.7179 3.36259 -2.18474 0
M  V30 521 H 56.3079 2.60616 -3.40261 0
M  V30 522 H 60.4919 2.37772 -4.35635 0
M  V30 523 H 55.7479 2.10003 -5.74203 0
M  V30 524 H 59.9219 1.88179 -6.70494 0
M  V30 525 H 57.5489 1.73766 -7.40074 0
M  V30 526 N 59.124 1.23083 0.984299 0
M  V30 527 C 60.034 1.02515 2.11016 0
M  V30 528 C 61.05 -0.0291702 1.73976 0
M  V30 529 O 62.226 0.165434 2.00719 0
M  V30 530 C 59.291 0.614673 3.41208 0
M  V30 531 C 58.352 1.74359 3.92297 0
M  V30 532 C 57.585 1.35261 5.16275 0
M  V30 533 O 57.808 0.235136 5.69915 0
M  V30 534 O 56.742 2.17227 5.61334 0
M  V30 535 H 60.568 1.96862 2.31255 0
M  V30 536 H 58.153 1.01753 1.09392 0
M  V30 537 H 60.035 0.396518 4.1953 0
M  V30 538 H 58.71 -0.299851 3.22308 0
M  V30 539 H 57.617 2.01635 3.1511 0
M  V30 540 H 58.95 2.63629 4.15645 0
M  V30 541 N 60.6021 -1.18246 1.0419 0
M  V30 542 C 61.8501 -1.87886 0.744543 0
M  V30 543 C 62.1711 -1.8082 -0.730006 0
M  V30 544 O 61.4411 -1.22736 -1.52685 0
M  V30 545 H 60.0211 -0.695556 0.272417 0
M  V30 546 H 62.6831 -1.43494 1.31892 0
M  V30 547 H 61.7791 -2.9389 1.05049 0
M  V30 548 N 62.0802 -0.821533 -1.34494 0
M  V30 549 C 62.9902 -0.244355 -2.33324 0
M  V30 550 C 64.0062 0.620527 -1.62559 0
M  V30 551 O 65.1822 0.528754 -1.94335 0
M  V30 552 C 62.2472 0.585368 -3.41723 0
M  V30 553 C 61.3082 -0.301752 -4.28238 0
M  V30 554 C 60.5412 0.488466 -5.3146 0
M  V30 555 O 60.7642 1.72186 -5.4379 0
M  V30 556 O 59.6982 -0.12848 -6.01763 0
M  V30 557 H 63.5242 -1.06231 -2.84515 0
M  V30 558 H 61.1092 -0.583645 -1.37528 0
M  V30 559 H 62.9912 1.05747 -4.07916 0
M  V30 560 H 61.6662 1.38068 -2.92778 0
M  V30 561 H 60.5732 -0.821315 -3.64973 0
M  V30 562 H 61.9062 -1.06138 -4.8062 0
M  V30 563 N 63.5583 1.46682 -0.576371 0
M  V30 564 C 64.8353 1.95599 0.00703437 0
M  V30 565 C 65.2153 1.51904 1.46589 0
M  V30 566 O 64.5633 0.766755 2.15251 0
M  V30 567 C 64.7733 3.4864 -0.158404 0
M  V30 568 C 66.1213 4.24594 -0.0229439 0
M  V30 569 O 67.1453 3.56094 -0.0869173 0
M  V30 570 O 66.0043 5.46373 0.118015 0
M  V30 571 H 63.0983 0.825275 0.053384 0
M  V30 572 H 65.6443 1.56996 -0.644244 0
M  V30 573 H 64.4163 3.7331 -1.17282 0
M  V30 574 H 64.0393 3.94057 0.5296 0
M  V30 575 N 65.0364 0.313813 1.54444 0
M  V30 576 C 66.2844 -0.291099 1.99993 0
M  V30 577 C 66.6054 -1.53418 1.20366 0
M  V30 578 O 65.8754 -1.93544 0.302927 0
M  V30 579 H 64.4554 -0.110552 0.738774 0
M  V30 580 H 67.1174 0.428106 1.9014 0
M  V30 581 H 66.2134 -0.554268 3.07139 0
M  V30 582 N 66.5145 -1.57545 0.0417849 0
M  V30 583 C 67.7395 -1.97035 -0.647455 0
M  V30 584 C 68.1645 -0.918775 -1.64135 0
M  V30 585 O 67.5225 0.119006 -1.80909 0
M  V30 586 C 67.5705 -3.35609 -1.31905 0
M  V30 587 O 66.6745 -3.3287 -2.43457 0
M  V30 588 H 66.0155 -0.64211 -0.169086 0
M  V30 589 H 68.5455 -2.04318 0.107399 0
M  V30 590 H 68.5555 -3.72126 -1.67291 0
M  V30 591 H 67.2305 -4.11685 -0.590586 0
M  V30 592 H 65.8075 -3.08087 -2.10088 0
M  V30 593 N 67.9926 0.231505 -1.5589 0
M  V30 594 C 68.9226 1.29022 -1.94617 0
M  V30 595 C 69.9036 1.4941 -0.813067 0
M  V30 596 O 71.0886 1.6176 -1.07459 0
M  V30 597 C 68.2186 2.64199 -2.25424 0
M  V30 598 C 67.1726 2.58484 -3.41131 0
M  V30 599 C 66.4986 3.97599 -3.57518 0
M  V30 600 C 67.7986 2.1413 -4.76388 0
M  V30 601 H 69.4926 0.968563 -2.83301 0
M  V30 602 H 67.0386 0.464479 -1.36303 0
M  V30 603 H 68.9916 3.38413 -2.51107 0
M  V30 604 H 67.7156 2.98032 -1.33583 0
M  V30 605 H 66.3746 1.86727 -3.15481 0
M  V30 606 H 66.0226 4.28723 -2.6307 0
M  V30 607 H 65.7226 3.94659 -4.35337 0
M  V30 608 H 67.2466 4.7349 -3.85538 0
M  V30 609 H 68.6606 2.78083 -5.01341 0
M  V30 610 H 67.0576 2.2227 -5.57419 0
M  V30 611 H 68.1276 1.09331 -4.72414 0
M  V30 612 N 69.4707 1.49531 0.497807 0
M  V30 613 C 70.6957 1.63159 1.28039 0
M  V30 614 C 71.1207 0.30418 1.85624 0
M  V30 615 O 70.4787 -0.728618 1.66015 0
M  V30 616 C 70.5267 2.70537 2.38416 0
M  V30 617 O 69.6307 2.29931 3.42353 0
M  V30 618 H 68.9717 0.546001 0.377861 0
M  V30 619 H 71.5017 1.9574 0.59558 0
M  V30 620 H 71.5117 2.92802 2.84132 0
M  V30 621 H 70.1867 3.6689 1.95869 0
M  V30 622 H 68.7637 2.18009 3.02533 0
M  V30 623 N 70.9488 -0.749086 1.3866 0
M  V30 624 C 72.3598 -1.32664 1.31366 0
M  V30 625 C 72.7108 -1.96179 -0.028484 0
M  V30 626 O 71.8358 -1.9537 -0.93057 0
M  V30 627 C 72.4308 -2.41219 2.37905 0
M  V30 628 C 70.9898 -2.94684 2.34176 0
M  V30 629 C 70.1368 -1.68108 2.20533 0
M  V30 630 H 73.0878 -0.547628 1.48952 0
M  V30 631 H 73.1088 -3.21268 2.0388 0
M  V30 632 H 72.6208 -1.94962 3.35576 0
M  V30 633 H 70.7218 -3.45258 1.401 0
M  V30 634 H 70.8348 -3.48757 3.2849 0
M  V30 635 H 69.1988 -1.91907 1.67463 0
M  V30 636 H 69.9818 -1.23923 3.20153 0
M  V30 637 N 72.4269 -1.23603 -0.977757 0
M  V30 638 C 73.6519 -1.09735 -1.75991 0
M  V30 639 C 74.0769 0.346858 -1.84874 0
M  V30 640 O 73.4349 1.25093 -1.3123 0
M  V30 641 C 73.4829 -1.73051 -3.16363 0
M  V30 642 O 72.5869 -0.994452 -4.0023 0
M  V30 643 H 71.9279 -0.384476 -0.541364 0
M  V30 644 H 74.4579 -1.6371 -1.2272 0
M  V30 645 H 74.4679 -1.78398 -3.66931 0
M  V30 646 H 73.1429 -2.78137 -3.09213 0
M  V30 647 H 71.7199 -1.01812 -3.58732 0
M  V30 648 N 73.905 1.17692 -1.04816 0
M  V30 649 C 75.316 1.69501 -0.782698 0
M  V30 650 C 75.667 1.83456 0.695577 0
M  V30 651 O 74.792 1.51942 1.54086 0
M  V30 652 C 75.387 3.07874 -1.41419 0
M  V30 653 C 73.946 3.56864 -1.19686 0
M  V30 654 C 73.093 2.3322 -1.50012 0
M  V30 655 H 76.044 1.02262 -1.2136 0
M  V30 656 H 76.065 3.71528 -0.821428 0
M  V30 657 H 75.577 2.97685 -2.49009 0
M  V30 658 H 73.678 3.72337 -0.140043 0
M  V30 659 H 73.791 4.39851 -1.89916 0
M  V30 660 H 72.155 2.37501 -0.920071 0
M  V30 661 H 72.938 2.25644 -2.58727 0
M  V30 662 N 75.3831 0.828654 1.34056 0
M  V30 663 C 76.3461 0.259927 2.27721 0
M  V30 664 C 77.3461 -0.565478 1.50529 0
M  V30 665 O 78.5361 -0.38075 1.69988 0
M  V30 666 C 75.6681 -0.634944 3.34935 0
M  V30 667 H 76.8611 1.0863 2.79534 0
M  V30 668 H 74.4141 0.600951 1.44285 0
M  V30 669 H 75.1491 -1.48416 2.88346 0
M  V30 670 H 74.9341 -0.0444999 3.92075 0
M  V30 671 H 76.4241 -1.02648 4.04788 0
M  V30 672 N 76.8612 -1.46375 0.584142 0
M  V30 673 C 78.1382 -1.956 0.0033388 0
M  V30 674 C 78.5182 -1.52679 -1.45782 0
M  V30 675 O 77.8662 -0.77816 -2.14842 0
M  V30 676 C 78.0762 -3.48551 0.176891 0
M  V30 677 C 79.4242 -4.24576 0.0454609 0
M  V30 678 O 80.4482 -3.56043 0.105801 0
M  V30 679 O 79.3072 -5.46427 -0.0890376 0
M  V30 680 H 76.4012 -0.825547 -0.0490066 0
M  V30 681 H 78.9472 -1.56652 0.65256 0
M  V30 682 H 77.7192 -3.72683 1.1926 0
M  V30 683 H 77.3422 -3.94332 -0.508695 0
M  V30 684 N 78.3393 -0.321999 -1.54275 0
M  V30 685 C 79.3023 0.531975 -2.22941 0
M  V30 686 C 80.3023 1.04478 -1.22234 0
M  V30 687 O 81.4923 0.937452 -1.46825 0
M  V30 688 C 78.6243 1.73874 -2.93224 0
M  V30 689 H 79.8173 -0.0682612 -2.99822 0
M  V30 690 H 77.3703 -0.0730644 -1.56129 0
M  V30 691 H 78.1053 2.37825 -2.20476 0
M  V30 692 H 77.8903 1.37847 -3.6707 0
M  V30 693 H 79.3803 2.34496 -3.45545 0
M  V30 694 N 79.8174 1.5752 -0.0501392 0
M  V30 695 C 81.0424 1.97376 0.636997 0
M  V30 696 C 81.4674 0.927466 1.63645 0
M  V30 697 O 80.8254 -0.10941 1.8097 0
M  V30 698 C 80.8734 3.36304 1.30123 0
M  V30 699 O 79.9774 3.34156 2.41689 0
M  V30 700 H 79.3184 0.642998 0.165679 0
M  V30 701 H 81.8484 2.04258 -0.118233 0
M  V30 702 H 81.8584 3.73008 1.65315 0
M  V30 703 H 80.5334 4.11993 0.568746 0
M  V30 704 H 79.1104 3.09196 2.08451 0
M  V30 705 N 81.2955 -0.223234 1.56011 0
M  V30 706 C 82.7115 -0.572856 1.48965 0
M  V30 707 C 82.9115 -1.87225 0.74492 0
M  V30 708 O 81.9675 -2.50899 0.283896 0
M  V30 709 C 83.2805 -0.653646 2.9351 0
M  V30 710 C 84.8285 -0.744386 3.0402 0
M  V30 711 C 85.3035 -0.856535 4.49919 0
M  V30 712 N 86.7945 -0.9208 4.53955 0
M  V30 713 C 87.5295 -1.02726 5.64123 0
M  V30 714 N 87.0255 -1.09777 6.84047 0
M  V30 715 N 88.8185 -1.06226 5.51971 0
M  V30 716 H 80.9695 0.629462 2.02858 0
M  V30 717 H 83.2325 0.220621 0.921971 0
M  V30 718 H 82.9385 0.231518 3.50937 0
M  V30 719 H 82.8125 -1.51781 3.45315 0
M  V30 720 H 85.1995 -1.61999 2.46658 0
M  V30 721 H 85.2805 0.14541 2.55386 0
M  V30 722 H 84.9245 0.0146069 5.07898 0
M  V30 723 H 84.8545 -1.76172 4.96257 0
M  V30 724 H 87.3455 -0.876694 3.6759 0
M  V30 725 H 87.6585 -1.17872 7.63758 0
M  V30 726 H 86.0035 -1.06693 6.86762 0
M  V30 727 H 89.1945 -1.00382 4.5721 0
M  V30 728 H 89.3675 -1.14177 6.37862 0
M  V30 729 N 82.7736 -1.49793 -0.48987 0
M  V30 730 C 84.1846 -1.52914 -1.07118 0
M  V30 731 C 84.5356 -0.321738 -1.93544 0
M  V30 732 O 83.6606 0.567338 -2.08831 0
M  V30 733 C 84.2556 -2.771 -1.94938 0
M  V30 734 C 82.8146 -2.82963 -2.48212 0
M  V30 735 C 81.9616 -2.46972 -1.26096 0
M  V30 736 H 84.9126 -1.56329 -0.273289 0
M  V30 737 H 84.9336 -2.57892 -2.79771 0
M  V30 738 H 84.4456 -3.64959 -1.32009 0
M  V30 739 H 82.5466 -1.99411 -3.14748 0
M  V30 740 H 82.6596 -3.85406 -2.84603 0
M  V30 741 H 81.0236 -1.98994 -1.58976 0
M  V30 742 H 81.8066 -3.37118 -0.648581 0
M  V30 743 N 84.2517 0.741722 -1.39055 0
M  V30 744 C 85.2147 1.83733 -1.37021 0
M  V30 745 C 86.2147 1.58542 -0.268534 0
M  V30 746 O 87.4047 1.66067 -0.526076 0
M  V30 747 C 84.5367 3.2141 -1.13617 0
M  V30 748 H 85.7297 1.86941 -2.34506 0
M  V30 749 H 83.2827 0.944676 -1.24521 0
M  V30 750 H 84.0177 3.23865 -0.167863 0
M  V30 751 H 83.8027 3.4109 -1.93391 0
M  V30 752 H 85.2927 4.01477 -1.14918 0
M  V30 753 N 85.7298 1.2412 0.971189 0
M  V30 754 C 86.9778 1.07668 1.71032 0
M  V30 755 C 87.2988 -0.385797 1.91146 0
M  V30 756 O 86.5688 -1.27569 1.4867 0
M  V30 757 H 85.1488 0.395429 0.633755 0
M  V30 758 H 87.8108 1.55984 1.16855 0
M  V30 759 H 86.9068 1.57195 2.69622 0
M  V30 760 N 87.2079 -1.17134 1.05439 0
M  V30 761 C 88.6189 -1.69084 0.791676 0
M  V30 762 C 88.9699 -1.83822 -0.685839 0
M  V30 763 O 88.0949 -1.52757 -1.53278 0
M  V30 764 C 88.6899 -3.07119 1.4305 0
M  V30 765 C 87.2489 -3.56225 1.21577 0
M  V30 766 C 86.3959 -2.32421 1.51247 0
M  V30 767 H 89.3469 -1.01617 1.219 0
M  V30 768 H 89.3679 -3.71087 0.84112 0
M  V30 769 H 88.8799 -2.9636 2.50584 0
M  V30 770 H 86.9809 -3.72257 0.159787 0
M  V30 771 H 87.0939 -4.38837 1.92246 0
M  V30 772 H 85.4579 -2.3701 0.932653 0
M  V30 773 H 86.2409 -2.24268 2.5992 0
M  V30 774 N 88.686 -0.835752 -1.33615 0
M  V30 775 C 89.934 -0.429109 -1.97492 0
M  V30 776 C 90.255 1.01433 -1.66543 0
M  V30 777 O 89.525 1.70611 -0.962744 0
M  V30 778 H 88.105 -0.155686 -0.730596 0
M  V30 779 H 90.767 -1.06802 -1.63031 0
M  V30 780 H 89.863 -0.55861 -3.0706 0
M  V30 781 N 90.1641 1.46063 -0.591896 0
M  V30 782 C 91.4411 1.95595 -0.0137119 0
M  V30 783 C 91.8211 1.5345 1.4497 0
M  V30 784 O 91.1691 0.789543 2.14426 0
M  V30 785 C 91.3791 3.48453 -0.195373 0
M  V30 786 C 92.7271 4.24546 -0.0679765 0
M  V30 787 O 93.7511 3.55982 -0.124681 0
M  V30 788 O 92.6101 5.46467 0.0600579 0
M  V30 789 H 89.7041 0.825795 0.0446279 0
M  V30 790 H 92.2501 1.56303 -0.660859 0
M  V30 791 H 91.0221 3.72045 -1.21235 0
M  V30 792 H 90.6451 3.94597 0.487775 0
M  V30 793 N 91.6422 0.330177 1.54103 0
M  V30 794 C 92.8902 -0.269871 2.0029 0
M  V30 795 C 93.2112 -1.52133 1.21986 0
M  V30 796 O 92.4812 -1.93212 0.323438 0
M  V30 797 H 91.0612 -0.10271 0.739905 0
M  V30 798 H 93.7232 0.448249 1.89675 0
M  V30 799 H 92.8192 -0.52166 3.07709 0
M  V30 800 N 93.1203 -1.57491 0.0584922 0
M  V30 801 C 94.5363 -1.56792 -0.298091 0
M  V30 802 C 94.7363 -1.06679 -1.70944 0
M  V30 803 O 93.7923 -0.726672 -2.41818 0
M  V30 804 C 95.1053 -3.00461 -0.119879 0
M  V30 805 C 96.6533 -3.1242 -0.190428 0
M  V30 806 C 97.1283 -4.57982 -0.0406567 0
M  V30 807 N 98.6193 -4.63099 -0.0966958 0
M  V30 808 C 99.3543 -5.734 -0.00502943 0
M  V30 809 N 98.8503 -6.9266 0.139402 0
M  V30 810 N 100.643 -5.62067 -0.0611391 0
M  V30 811 H 92.7943 -1.88386 0.98105 0
M  V30 812 H 95.0573 -0.867865 0.381463 0
M  V30 813 H 94.7633 -3.41187 0.85349 0
M  V30 814 H 94.6373 -3.66843 -0.877833 0
M  V30 815 H 97.0243 -2.71589 -1.15427 0
M  V30 816 H 97.1053 -2.48702 0.598405 0
M  V30 817 H 96.7493 -4.995 0.919897 0
M  V30 818 H 96.6793 -5.19715 -0.848727 0
M  V30 819 H 99.1703 -3.77331 -0.207277 0
M  V30 820 H 99.4833 -7.72536 0.201855 0
M  V30 821 H 97.8283 -6.94781 0.174586 0
M  V30 822 H 101.019 -4.67782 -0.172583 0
M  V30 823 H 101.192 -6.47999 0.0137562 0
M  V30 824 N 94.5984 0.214957 -1.56127 0
M  V30 825 C 96.0094 0.781386 -1.69562 0
M  V30 826 C 96.3604 1.84707 -0.66165 0
M  V30 827 O 95.4854 2.156 0.185927 0
M  V30 828 C 96.0804 1.42411 -3.07416 0
M  V30 829 C 94.6394 1.93786 -3.22683 0
M  V30 830 C 93.7864 0.800438 -2.65496 0
M  V30 831 H 96.7374 -0.00980633 -1.58697 0
M  V30 832 H 96.7584 2.29309 -3.0364 0
M  V30 833 H 96.2704 0.64826 -3.82648 0
M  V30 834 H 94.3714 2.74152 -2.52332 0
M  V30 835 H 94.4844 2.1133 -4.29973 0
M  V30 836 H 92.8484 1.2095 -2.2415 0
M  V30 837 H 93.6314 0.0371471 -3.4328 0
M  V30 838 N 96.0765 1.50051 0.48192 0
M  V30 839 C 97.0245 1.68635 1.60203 0
M  V30 840 C 98.0185 0.552184 1.60148 0
M  V30 841 O 99.2245 0.732377 1.64427 0
M  V30 842 H 95.5995 0.532081 0.531407 0
M  V30 843 H 97.5705 2.62616 1.41688 0
M  V30 844 C 96.3195 1.78775 2.9822 0
M  V30 845 H 95.6425 2.6543 2.98976 0
M  V30 846 H 97.0825 1.95806 3.7608 0
M  V30 847 C 95.5415 0.536849 3.32595 0
M  V30 848 O 96.0715 -0.328897 4.00351 0
M  V30 849 N 94.2775 0.394091 2.87915 0
M  V30 850 H 93.8245 1.09962 2.32951 0
M  V30 851 H 93.7825 -0.441737 3.11281 0
M  V30 852 N 97.5546 -0.734337 1.39446 0
M  V30 853 C 98.4846 -1.86155 1.40955 0
M  V30 854 C 99.4656 -1.67898 0.272827 0
M  V30 855 O 100.651 -1.88207 0.478743 0
M  V30 856 C 97.7806 -3.23912 1.25294 0
M  V30 857 C 96.7346 -3.56808 2.36373 0
M  V30 858 C 96.0606 -4.93508 2.058 0
M  V30 859 C 97.3606 -3.59713 3.78687 0
M  V30 860 H 99.0546 -1.8515 2.35287 0
M  V30 861 H 96.6006 -0.889367 1.13253 0
M  V30 862 H 98.5536 -4.02443 1.2497 0
M  V30 863 H 97.2776 -3.25446 0.274308 0
M  V30 864 H 95.9366 -2.80606 2.35914 0
M  V30 865 H 95.5846 -4.91623 1.06374 0
M  V30 866 H 95.2846 -5.16486 2.80208 0
M  V30 867 H 96.8086 -5.74396 2.07128 0
M  V30 868 H 98.2226 -4.2832 3.81071 0
M  V30 869 H 96.6196 -3.94209 4.52459 0
M  V30 870 H 97.6896 -2.59504 4.09617 0
M  V30 871 N 99.0327 -1.24633 -0.964593 0
M  V30 872 C 100.449 -1.01239 -1.2338 0
M  V30 873 C 100.649 0.2769 -1.99588 0
M  V30 874 O 99.7047 0.992241 -2.32187 0
M  V30 875 C 101.018 -2.22937 -2.01791 0
M  V30 876 C 102.566 -2.27594 -2.14872 0
M  V30 877 C 103.041 -3.48921 -2.96678 0
M  V30 878 N 104.532 -3.49257 -3.04259 0
M  V30 879 C 105.267 -4.39795 -3.67924 0
M  V30 880 N 104.763 -5.40591 -4.33281 0
M  V30 881 N 106.556 -4.275 -3.64966 0
M  V30 882 H 98.7067 -2.0748 -0.454502 0
M  V30 883 H 100.97 -0.910647 -0.26349 0
M  V30 884 H 100.676 -3.16587 -1.53184 0
M  V30 885 H 100.55 -2.25306 -3.02518 0
M  V30 886 H 102.937 -1.34473 -2.6268 0
M  V30 887 H 103.018 -2.2925 -1.13482 0
M  V30 888 H 102.662 -4.42359 -2.49562 0
M  V30 889 H 102.592 -3.4451 -3.98272 0
M  V30 890 H 105.083 -2.76337 -2.57771 0
M  V30 891 H 105.396 -6.05904 -4.79687 0
M  V30 892 H 103.741 -5.44475 -4.3194 0
M  V30 893 H 106.932 -3.47987 -3.13086 0
M  V30 894 H 107.105 -4.98258 -4.14298 0
M  V30 895 N 100.511 1.16574 -1.06058 0
M  V30 896 C 101.444 2.19798 -0.61352 0
M  V30 897 C 102.422 1.58509 0.362453 0
M  V30 898 O 103.606 1.86527 0.271994 0
M  V30 899 C 100.733 3.3855 0.100915 0
M  V30 900 C 99.7788 4.18317 -0.831438 0
M  V30 901 S 100.612 4.82375 -2.32539 0
M  V30 902 C 101.768 6.04508 -1.62238 0
M  V30 903 H 102.001 2.5738 -1.48805 0
M  V30 904 H 99.5338 1.27327 -0.873338 0
M  V30 905 H 101.492 4.07358 0.506898 0
M  V30 906 H 100.153 2.99338 0.951604 0
M  V30 907 H 99.3458 5.03232 -0.278071 0
M  V30 908 H 98.9478 3.5499 -1.17719 0
M  V30 909 H 101.24 6.71133 -0.926622 0
M  V30 910 H 102.183 6.64389 -2.44934 0
M  V30 911 H 102.591 5.53559 -1.106 0
M  V30 912 N 101.989 0.842826 1.3317 0
M  V30 913 C 102.936 0.276885 2.29133 0
M  V30 914 C 103.906 -0.609527 1.54512 0
M  V30 915 O 105.091 -0.546955 1.82792 0
M  V30 916 C 102.231 -0.538707 3.40869 0
M  V30 917 C 101.344 0.372169 4.30394 0
M  V30 918 C 100.479 -0.454908 5.29249 0
M  V30 919 C 99.5179 0.45411 6.10413 0
M  V30 920 N 98.6549 -0.335075 7.013 0
M  V30 921 H 103.495 1.10052 2.76934 0
M  V30 922 H 101.032 0.554161 1.36262 0
M  V30 923 H 102.99 -1.02709 4.0436 0
M  V30 924 H 101.62 -1.32727 2.9425 0
M  V30 925 H 100.672 0.97888 3.6759 0
M  V30 926 H 101.984 1.0703 4.87182 0
M  V30 927 H 101.138 -1.00695 5.98285 0
M  V30 928 H 99.8769 -1.18646 4.73048 0
M  V30 929 H 98.8819 1.01813 5.40291 0
M  V30 930 H 100.107 1.18409 6.68697 0
M  V30 931 H 98.0529 -1.04994 6.47543 0
M  V30 932 H 97.9699 0.304262 7.55387 0
M  V30 933 H 99.2379 -0.869224 7.74638 0
M  V30 934 N 103.467 -1.45747 0.599634 0
M  V30 935 C 104.714 -2.02292 0.0917284 0
M  V30 936 C 105.042 -1.46906 -1.27472 0
M  V30 937 O 104.297 -0.630652 -1.8526 0
M  V30 938 C 104.596 -3.57399 -0.00602758 0
M  V30 939 C 104.262 -4.31902 1.29503 0
M  V30 940 C 102.924 -4.51974 1.65144 0
M  V30 941 C 105.276 -4.74551 2.15525 0
M  V30 942 C 102.604 -5.11949 2.86574 0
M  V30 943 C 104.956 -5.35868 3.36196 0
M  V30 944 C 103.62 -5.54165 3.72099 0
M  V30 945 H 102.89 -0.740239 0.0335658 0
M  V30 946 H 105.537 -1.7491 0.779661 0
M  V30 947 H 103.842 -3.84014 -0.777183 0
M  V30 948 H 105.539 -3.98846 -0.415038 0
M  V30 949 H 102.129 -4.16588 1.00761 0
M  V30 950 H 106.313 -4.58784 1.8929 0
M  V30 951 H 101.569 -5.24305 3.14507 0
M  V30 952 H 105.743 -5.6787 4.03109 0
M  V30 953 H 103.37 -6.00406 4.6628 0
M  V30 954 N 104.945 -0.338344 -1.53925 0
M  V30 955 C 105.877 0.555117 -2.22376 0
M  V30 956 C 106.89 1.06812 -1.22862 0
M  V30 957 O 108.079 0.979163 -1.49247 0
M  V30 958 C 105.179 1.77609 -2.88631 0
M  V30 959 C 104.352 1.39927 -4.14414 0
M  V30 960 C 103.411 2.47936 -4.64127 0
M  V30 961 O 102.437 2.11461 -5.28463 0
M  V30 962 N 103.639 3.79107 -4.39612 0
M  V30 963 H 106.404 -0.0310778 -2.99684 0
M  V30 964 H 103.965 -0.162226 -1.61085 0
M  V30 965 H 105.957 2.49287 -3.18807 0
M  V30 966 H 104.527 2.26978 -2.14941 0
M  V30 967 H 103.747 0.513481 -3.90841 0
M  V30 968 H 105.035 1.12341 -4.96243 0
M  V30 969 H 104.433 4.11531 -3.88148 0
M  V30 970 H 102.99 4.4697 -4.74406 0
M  V30 971 N 106.423 1.57458 -0.0668435 0
M  V30 972 C 107.671 1.92919 0.602214 0
M  V30 973 C 107.992 0.947215 1.70449 0
M  V30 974 O 107.262 -0.00544117 1.95899 0
M  V30 975 H 105.842 0.71217 0.22544 0
M  V30 976 H 108.504 1.94508 -0.123535 0
M  V30 977 H 107.6 2.94589 1.03073 0
M  V30 978 N 107.901 -0.206675 1.56239 0
M  V30 979 C 108.864 -1.23976 1.92776 0
M  V30 980 C 109.864 -1.39041 0.807729 0
M  V30 981 O 111.054 -1.37051 1.0753 0
M  V30 982 C 108.186 -2.61112 2.19165 0
M  V30 983 H 109.379 -0.927764 2.85189 0
M  V30 984 H 106.932 -0.447718 1.4975 0
M  V30 985 H 107.667 -2.97386 1.29352 0
M  V30 986 H 107.452 -2.51552 3.00772 0
M  V30 987 H 108.942 -3.35633 2.48476 0
M  V30 988 N 109.379 -1.50304 -0.473955 0
M  V30 989 C 110.626 -1.6115 -1.22625 0
M  V30 990 C 110.954 -0.310517 -1.92005 0
M  V30 991 O 110.209 0.703419 -1.82621 0
M  V30 992 C 110.508 -2.73938 -2.29549 0
M  V30 993 C 110.174 -4.14519 -1.7744 0
M  V30 994 C 108.836 -4.5277 -1.62949 0
M  V30 995 C 111.188 -5.02392 -1.3875 0
M  V30 996 C 108.516 -5.76639 -1.08187 0
M  V30 997 C 110.868 -6.26805 -0.854309 0
M  V30 998 C 109.532 -6.63861 -0.696011 0
M  V30 999 H 108.802 -0.589691 -0.448715 0
M  V30 1000 H 111.449 -1.84228 -0.522705 0
M  V30 1001 H 109.754 -2.44937 -3.05799 0
M  V30 1002 H 111.451 -2.79534 -2.87509 0
M  V30 1003 H 108.041 -3.8434 -1.89685 0
M  V30 1004 H 112.225 -4.73474 -1.4878 0
M  V30 1005 H 107.481 -6.04027 -0.946666 0
M  V30 1006 H 111.655 -6.94258 -0.545843 0
M  V30 1007 H 109.282 -7.59722 -0.26952 0
M  V30 1008 N 110.857 0.726932 -1.39834 0
M  V30 1009 C 112.273 1.03354 -1.21615 0
M  V30 1010 C 112.473 2.01327 -0.08338 0
M  V30 1011 O 111.529 2.46158 0.56238 0
M  V30 1012 C 112.842 1.58811 -2.55342 0
M  V30 1013 C 114.39 1.70851 -2.62257 0
M  V30 1014 C 114.865 2.29716 -3.96225 0
M  V30 1015 N 116.356 2.37116 -3.97907 0
M  V30 1016 C 117.091 2.83619 -4.98345 0
M  V30 1017 N 116.587 3.29958 -6.09179 0
M  V30 1018 N 118.38 2.82901 -4.8572 0
M  V30 1019 H 110.531 0.0773069 -2.12259 0
M  V30 1020 H 112.794 0.0969102 -0.943034 0
M  V30 1021 H 112.5 0.942855 -3.38826 0
M  V30 1022 H 112.374 2.57502 -2.75632 0
M  V30 1023 H 114.761 2.34497 -1.79152 0
M  V30 1024 H 114.842 0.707913 -2.45809 0
M  V30 1025 H 114.486 1.66696 -4.79765 0
M  V30 1026 H 114.416 3.30469 -4.09997 0
M  V30 1027 H 116.907 2.04374 -3.17868 0
M  V30 1028 H 117.22 3.63976 -6.8172 0
M  V30 1029 H 115.565 3.27946 -6.12761 0
M  V30 1030 H 118.756 2.46027 -3.98231 0
M  V30 1031 H 118.929 3.18827 -5.6414 0
M  V30 1032 N 112.336 1.25143 0.95797 0
M  V30 1033 C 113.283 1.05235 2.05412 0
M  V30 1034 C 114.253 -0.0374561 1.66058 0
M  V30 1035 O 115.438 0.119073 1.90428 0
M  V30 1036 C 112.578 0.673589 3.38462 0
M  V30 1037 C 111.691 1.8379 3.90954 0
M  V30 1038 C 110.826 1.40381 5.12315 0
M  V30 1039 C 109.865 2.53746 5.57027 0
M  V30 1040 N 109.002 2.11136 6.69601 0
M  V30 1041 H 113.842 1.99048 2.21774 0
M  V30 1042 H 111.379 0.991277 1.08683 0
M  V30 1043 H 113.337 0.434964 4.14926 0
M  V30 1044 H 111.967 -0.227554 3.21997 0
M  V30 1045 H 111.019 2.18992 3.11041 0
M  V30 1046 H 112.331 2.68937 4.20089 0
M  V30 1047 H 111.485 1.12464 5.96185 0
M  V30 1048 H 110.224 0.523015 4.84887 0
M  V30 1049 H 109.229 2.82412 4.71724 0
M  V30 1050 H 110.454 3.42398 5.86464 0
M  V30 1051 H 108.4 1.25468 6.4389 0
M  V30 1052 H 108.317 2.89832 6.98236 0
M  V30 1053 H 109.585 1.86385 7.56889 0
M  V30 1054 N 113.814 -1.1601 1.06675 0
M  V30 1055 C 115.062 -1.86264 0.784229 0
M  V30 1056 C 115.383 -1.82328 -0.691488 0
M  V30 1057 O 114.653 -1.25947 -1.50047 0
M  V30 1058 H 113.233 -0.689621 0.28711 0
M  V30 1059 H 115.895 -1.40664 1.34906 0
M  V30 1060 H 114.991 -2.91595 1.11259 0
M  V30 1061 N 115.292 -0.849877 -1.32721 0
M  V30 1062 C 116.538 -0.451591 -1.97708 0
M  V30 1063 C 116.871 0.989175 -1.6712 0
M  V30 1064 O 116.146 1.69334 -0.956891 0
M  V30 1065 C 116.429 -0.685598 -3.53513 0
M  V30 1066 C 116.282 -2.17444 -3.93749 0
M  V30 1067 C 117.601 -0.138874 -4.39881 0
M  V30 1068 H 114.72 -0.16555 -0.718166 0
M  V30 1069 H 117.362 -1.06742 -1.57182 0
M  V30 1070 H 115.512 -0.161416 -3.88165 0
M  V30 1071 H 117.184 -2.76433 -3.693 0
M  V30 1072 H 115.427 -2.65476 -3.43081 0
M  V30 1073 H 116.098 -2.28888 -5.02309 0
M  V30 1074 H 118.574 -0.587068 -4.11938 0
M  V30 1075 H 117.45 -0.332213 -5.47894 0
M  V30 1076 H 117.711 0.95806 -4.31594 0
M  V30 1077 N 116.77 1.45427 -0.607355 0
M  V30 1078 C 118.181 1.85756 -0.187535 0
M  V30 1079 C 118.532 1.5077 1.25551 0
M  V30 1080 O 117.657 0.93427 1.95193 0
M  V30 1081 C 118.252 3.37154 -0.333572 0
M  V30 1082 C 116.811 3.76387 0.0315542 0
M  V30 1083 C 115.958 2.69377 -0.658117 0
M  V30 1084 H 118.909 1.36231 -0.81405 0
M  V30 1085 H 118.93 3.78014 0.43428 0
M  V30 1086 H 118.442 3.62586 -1.38393 0
M  V30 1087 H 116.543 3.56571 1.0811 0
M  V30 1088 H 116.656 4.77731 -0.361935 0
M  V30 1089 H 115.02 2.5452 -0.0957873 0
M  V30 1090 H 115.803 2.97646 -1.7106 0
M  V30 1091 N 118.248 0.346503 1.53744 0
M  V30 1092 C 119.196 -0.52422 2.26616 0
M  V30 1093 C 120.19 -1.09948 1.28871 0
M  V30 1094 O 121.396 -1.04488 1.46568 0
M  V30 1095 H 117.771 -0.187743 0.728187 0
M  V30 1096 H 119.742 0.11239 2.98188 0
M  V30 1097 C 118.491 -1.66186 3.05414 0
M  V30 1098 H 117.814 -1.22848 3.80458 0
M  V30 1099 H 119.254 -2.24622 3.59612 0
M  V30 1100 C 117.713 -2.59302 2.1509 0
M  V30 1101 O 118.243 -3.61628 1.74895 0
M  V30 1102 N 116.449 -2.28055 1.8011 0
M  V30 1103 H 115.996 -1.44883 2.12994 0
M  V30 1104 H 115.954 -2.90615 1.19958 0
M  V30 1105 N 119.726 -1.57421 0.075193 0
M  V30 1106 C 121.137 -1.81021 -0.456964 0
M  V30 1107 C 121.488 -0.98936 -1.69429 0
M  V30 1108 O 120.613 -0.212865 -2.15351 0
M  V30 1109 C 121.208 -3.28329 -0.83581 0
M  V30 1110 C 119.767 -3.52764 -1.31281 0
M  V30 1111 C 118.914 -2.75676 -0.299648 0
M  V30 1112 H 121.865 -1.55822 0.300856 0
M  V30 1113 H 121.886 -3.40564 -1.69696 0
M  V30 1114 H 121.398 -3.88046 0.0649238 0
M  V30 1115 H 119.499 -2.98355 -2.23193 0
M  V30 1116 H 119.612 -4.61451 -1.28839 0
M  V30 1117 H 117.976 -2.42538 -0.777641 0
M  V30 1118 H 118.759 -3.38132 0.593417 0
M  V30 1119 N 121.204 0.198386 -1.56346 0
M  V30 1120 C 122.453 0.917451 -1.79627 0
M  V30 1121 C 122.766 1.8456 -0.64784 0
M  V30 1122 O 123.972 2.60504 -0.764859 0
M  V30 1123 C 122.428 1.68175 -3.18191 0
M  V30 1124 C 122.036 0.798589 -4.40825 0
M  V30 1125 C 123.78 2.39065 -3.50782 0
M  V30 1126 C 121.687 1.56157 -5.70411 0
M  V30 1127 H 120.617 0.346317 -0.669762 0
M  V30 1128 H 123.268 0.170801 -1.82703 0
M  V30 1129 H 121.65 2.47216 -3.09354 0
M  V30 1130 H 122.824 0.0470665 -4.60776 0
M  V30 1131 H 121.139 0.200686 -4.15916 0
M  V30 1132 H 123.736 2.96692 -4.44835 0
M  V30 1133 H 124.079 3.13091 -2.74371 0
M  V30 1134 H 124.612 1.66993 -3.61052 0
M  V30 1135 H 121.351 0.864142 -6.49779 0
M  V30 1136 H 120.871 2.2871 -5.54483 0
M  V30 1137 H 122.55 2.11622 -6.11412 0
M  V30 1138 N 122.682 1.50554 0.465978 0
M  V30 1139 C 123.959 1.5232 1.22712 0
M  V30 1140 C 124.339 0.270807 2.09356 0
M  V30 1141 O 123.687 -0.745541 2.15995 0
M  V30 1142 C 123.897 2.82175 2.05374 0
M  V30 1143 C 125.245 3.33033 2.6339 0
M  V30 1144 O 126.269 2.83531 2.15612 0
M  V30 1145 O 125.128 4.19336 3.50456 0
M  V30 1146 H 122.222 0.611183 0.557122 0
M  V30 1147 H 124.768 1.62847 0.477381 0
M  V30 1148 H 123.54 3.64797 1.41558 0
M  V30 1149 H 123.163 2.74675 2.87471 0
M  V30 1150 N 124.16 -0.719506 1.40217 0
M  V30 1151 C 125.09 -1.8465 1.42922 0
M  V30 1152 C 126.071 -1.67599 0.29062 0
M  V30 1153 O 127.256 -1.87688 0.498677 0
M  V30 1154 C 124.386 -3.22565 1.28722 0
M  V30 1155 C 123.34 -3.54281 2.40144 0
M  V30 1156 C 122.666 -4.91298 2.11023 0
M  V30 1157 C 123.966 -3.55676 3.82481 0
M  V30 1158 H 125.66 -1.82644 2.37237 0
M  V30 1159 H 123.206 -0.877305 1.1419 0
M  V30 1160 H 125.159 -4.01095 1.29232 0
M  V30 1161 H 123.883 -3.25137 0.308811 0
M  V30 1162 H 122.542 -2.78088 2.38877 0
M  V30 1163 H 122.19 -4.90468 1.11582 0
M  V30 1164 H 121.89 -5.13485 2.8567 0
M  V30 1165 H 123.414 -5.72166 2.13209 0
M  V30 1166 H 124.828 -4.24254 3.85592 0
M  V30 1167 H 123.225 -3.89388 4.56614 0
M  V30 1168 H 124.295 -2.55144 4.12346 0
M  V30 1169 N 125.638 -1.25649 -0.95132 0
M  V30 1170 C 126.568 -1.08808 -2.06599 0
M  V30 1171 C 127.549 0.00382547 -1.701 0
M  V30 1172 O 128.734 -0.166325 -1.93486 0
M  V30 1173 C 125.864 -0.709542 -3.39975 0
M  V30 1174 C 124.818 -1.75206 -3.90496 0
M  V30 1175 C 124.144 -1.22811 -5.20405 0
M  V30 1176 C 125.444 -3.15153 -4.16504 0
M  V30 1177 H 127.138 -2.02048 -2.20946 0
M  V30 1178 H 124.684 -0.972835 -1.06169 0
M  V30 1179 H 126.637 -0.578649 -4.17408 0
M  V30 1180 H 125.361 0.258556 -3.25575 0
M  V30 1181 H 124.02 -1.87145 -3.15234 0
M  V30 1182 H 123.668 -0.250145 -5.02378 0
M  V30 1183 H 123.368 -1.92492 -5.55176 0
M  V30 1184 H 124.892 -1.10968 -6.00432 0
M  V30 1185 H 126.306 -3.06349 -4.84586 0
M  V30 1186 H 124.703 -3.82333 -4.62538 0
M  V30 1187 H 125.773 -3.61966 -3.22658 0
M  V30 1188 N 127.117 1.15442 -1.07289 0
M  V30 1189 C 128.027 2.23786 -0.704057 0
M  V30 1190 C 129.043 1.7166 0.284413 0
M  V30 1191 O 130.219 2.00972 0.131205 0
M  V30 1192 C 127.284 3.46535 -0.106792 0
M  V30 1193 C 126.345 4.13654 -1.14842 0
M  V30 1194 C 125.578 5.30544 -0.57956 0
M  V30 1195 O 125.801 5.67187 0.604585 0
M  V30 1196 O 124.735 5.87154 -1.32414 0
M  V30 1197 H 128.561 2.57664 -1.60757 0
M  V30 1198 H 126.146 1.23152 -0.845803 0
M  V30 1199 H 128.028 4.20804 0.224048 0
M  V30 1200 H 126.703 3.14407 0.770049 0
M  V30 1201 H 125.61 3.4131 -1.5316 0
M  V30 1202 H 126.943 4.49861 -1.99714 0
M  V30 1203 N 128.595 0.856903 1.32268 0
M  V30 1204 C 129.82 0.474569 2.01897 0
M  V30 1205 C 130.245 -0.921766 1.63967 0
M  V30 1206 O 129.603 -1.60589 0.84148 0
M  V30 1207 C 129.651 0.623799 3.55164 0
M  V30 1208 O 128.755 -0.342459 4.10976 0
M  V30 1209 H 128.096 0.190422 0.63611 0
M  V30 1210 H 130.626 1.15672 1.68764 0
M  V30 1211 H 130.636 0.512169 4.04773 0
M  V30 1212 H 129.311 1.64202 3.82113 0
M  V30 1213 H 127.888 -0.18688 3.72431 0
M  V30 1214 N 130.073 -1.45103 0.615059 0
M  V30 1215 C 131.301 -2.06553 0.11977 0
M  V30 1216 C 131.716 -1.45842 -1.19898 0
M  V30 1217 O 131.073 -0.575325 -1.73194 0
M  V30 1218 C 131.124 -3.61495 -0.018364 0
M  V30 1219 O 130.845 -4.19942 1.24822 0
M  V30 1220 C 132.346 -4.39947 -0.544237 0
M  V30 1221 H 129.566 -0.667096 0.0722739 0
M  V30 1222 H 132.11 -1.8623 0.84491 0
M  V30 1223 H 130.265 -3.81135 -0.693865 0
M  V30 1224 H 130.679 -5.13204 1.0827 0
M  V30 1225 H 132.153 -5.48838 -0.589953 0
M  V30 1226 H 132.63 -4.10255 -1.56805 0
M  V30 1227 H 133.236 -4.25188 0.0974703 0
M  V30 1228 N 131.551 -0.354651 -1.53558 0
M  V30 1229 C 132.481 0.489091 -2.2832 0
M  V30 1230 C 133.462 1.09324 -1.30316 0
M  V30 1231 O 134.647 1.11255 -1.59173 0
M  V30 1232 C 131.777 1.63456 -3.0643 0
M  V30 1233 C 130.731 1.1582 -4.12031 0
M  V30 1234 C 130.057 2.39305 -4.7816 0
M  V30 1235 C 131.357 0.250731 -5.21698 0
M  V30 1236 H 133.051 -0.134614 -2.99097 0
M  V30 1237 H 130.597 -0.0661826 -1.43848 0
M  V30 1238 H 132.55 2.23136 -3.57475 0
M  V30 1239 H 131.274 2.28533 -2.33325 0
M  V30 1240 H 129.933 0.584146 -3.61916 0
M  V30 1241 H 129.581 3.02814 -4.01637 0
M  V30 1242 H 129.281 2.08109 -5.49513 0
M  V30 1243 H 130.805 2.99691 -5.31994 0
M  V30 1244 H 132.219 0.754695 -5.68311 0
M  V30 1245 H 130.616 0.0301468 -6.00092 0
M  V30 1246 H 131.686 -0.710125 -4.79672 0
M  V30 1247 N 133.029 1.57378 -0.0835403 0
M  V30 1248 C 134.259 1.97975 0.590713 0
M  V30 1249 C 134.667 0.961083 1.62972 0
M  V30 1250 O 134.01 -0.0590879 1.83605 0
M  V30 1251 C 134.072 3.34915 1.3066 0
M  V30 1252 C 133.736 4.55069 0.419698 0
M  V30 1253 C 134.733 5.18868 -0.32749 0
M  V30 1254 C 132.418 5.0114 0.341137 0
M  V30 1255 C 134.412 6.27098 -1.14134 0
M  V30 1256 C 132.099 6.0924 -0.476374 0
M  V30 1257 C 133.097 6.72083 -1.21627 0
M  V30 1258 O 132.785 7.781 -2.02028 0
M  V30 1259 H 132.517 0.655818 0.163947 0
M  V30 1260 H 135.071 2.04807 -0.156021 0
M  V30 1261 H 133.301 3.24733 2.09966 0
M  V30 1262 H 134.99 3.60037 1.87424 0
M  V30 1263 H 135.756 4.84211 -0.276459 0
M  V30 1264 H 131.635 4.51996 0.90668 0
M  V30 1265 H 135.179 6.7608 -1.71935 0
M  V30 1266 H 131.076 6.43329 -0.528927 0
M  V30 1267 H 131.844 7.95034 -1.94586 0
M  V30 1268 N 134.507 -0.190092 1.56449 0
M  V30 1269 C 135.417 -1.25591 1.98152 0
M  V30 1270 C 136.433 -1.49519 0.889944 0
M  V30 1271 O 137.609 -1.62036 1.19609 0
M  V30 1272 C 134.674 -2.57916 2.3169 0
M  V30 1273 C 133.735 -2.42015 3.5458 0
M  V30 1274 C 132.968 -3.6803 3.8651 0
M  V30 1275 O 133.191 -4.72413 3.1966 0
M  V30 1276 O 132.125 -3.6326 4.79923 0
M  V30 1277 H 135.951 -0.931988 2.89046 0
M  V30 1278 H 133.536 -0.395488 1.4407 0
M  V30 1279 H 135.418 -3.36008 2.54316 0
M  V30 1280 H 134.093 -2.89925 1.43963 0
M  V30 1281 H 133 -1.62017 3.37196 0
M  V30 1282 H 134.333 -2.14937 4.4279 0
M  V30 1283 N 135.985 -1.50799 -0.457987 0
M  V30 1284 C 137.21 -1.66496 -1.23668 0
M  V30 1285 C 137.635 -0.353288 -1.84752 0
M  V30 1286 O 136.993 0.684346 -1.67888 0
M  V30 1287 C 137.041 -2.76763 -2.3116 0
M  V30 1288 O 136.145 -2.38928 -3.36136 0
M  V30 1289 H 135.486 -0.555828 -0.363252 0
M  V30 1290 H 138.016 -1.9725 -0.543474 0
M  V30 1291 H 138.026 -3.00232 -2.76269 0
M  V30 1292 H 136.701 -3.71954 -1.86073 0
M  V30 1293 H 135.278 -2.25953 -2.96647 0
M  V30 1294 N 137.463 0.71206 -1.40597 0
M  V30 1295 C 138.688 1.50617 -1.42581 0
M  V30 1296 C 139.113 1.88079 -0.0282102 0
M  V30 1297 O 138.471 1.53511 0.964579 0
M  V30 1298 C 138.519 2.7557 -2.3258 0
M  V30 1299 O 137.623 3.72414 -1.77148 0
M  V30 1300 H 136.964 0.453966 -0.484573 0
M  V30 1301 H 139.494 0.876649 -1.84868 0
M  V30 1302 H 139.504 3.2406 -2.47889 0
M  V30 1303 H 138.179 2.47639 -3.34138 0
M  V30 1304 H 136.756 3.31276 -1.71204 0
M  V30 1305 N 138.941 1.26152 0.944643 0
M  V30 1306 C 140.187 1.11657 1.69294 0
M  V30 1307 C 140.52 -0.339926 1.91202 0
M  V30 1308 O 139.795 -1.24994 1.49019 0
M  V30 1309 C 140.078 1.88236 3.06984 0
M  V30 1310 C 139.931 3.41772 2.92424 0
M  V30 1311 C 141.25 1.67343 4.07043 0
M  V30 1312 H 138.369 0.407004 0.614424 0
M  V30 1313 H 141.011 1.55106 1.09737 0
M  V30 1314 H 139.161 1.51308 3.57824 0
M  V30 1315 H 140.833 3.88433 2.48832 0
M  V30 1316 H 139.076 3.68974 2.28124 0
M  V30 1317 H 139.747 3.90579 3.90067 0
M  V30 1318 H 142.223 1.99509 3.65151 0
M  V30 1319 H 141.099 2.23346 5.01406 0
M  V30 1320 H 141.36 0.617158 4.37771 0
M  V30 1321 N 140.419 -1.14872 1.07899 0
M  V30 1322 C 141.665 -1.86064 0.806725 0
M  V30 1323 C 141.998 -1.82434 -0.665706 0
M  V30 1324 O 141.273 -1.25138 -1.48899 0
M  V30 1325 C 141.556 -3.34929 1.32267 0
M  V30 1326 C 141.409 -3.47161 2.86006 0
M  V30 1327 C 142.728 -4.29863 0.943717 0
M  V30 1328 H 139.847 -0.675591 0.294526 0
M  V30 1329 H 142.489 -1.34925 1.33773 0
M  V30 1330 H 140.639 -3.78611 0.870974 0
M  V30 1331 H 142.311 -3.12302 3.39507 0
M  V30 1332 H 140.554 -2.88539 3.23925 0
M  V30 1333 H 141.225 -4.51777 3.17177 0
M  V30 1334 H 143.701 -3.9417 1.33302 0
M  V30 1335 H 142.577 -5.32494 1.33198 0
M  V30 1336 H 142.838 -4.41846 -0.149796 0
M  V30 1337 N 141.898 -0.863906 -1.31812 0
M  V30 1338 C 143.309 -0.52522 -1.7916 0
M  V30 1339 C 143.66 0.957518 -1.71248 0
M  V30 1340 O 142.785 1.74734 -1.27659 0
M  V30 1341 C 143.38 -0.9466 -3.25307 0
M  V30 1342 C 141.939 -0.659668 -3.70574 0
M  V30 1343 C 141.086 -1.14126 -2.52726 0
M  V30 1344 H 144.037 -1.05022 -1.1898 0
M  V30 1345 H 144.058 -0.266766 -3.79564 0
M  V30 1346 H 143.57 -2.02579 -3.31034 0
M  V30 1347 H 141.671 0.408416 -3.70355 0
M  V30 1348 H 141.784 -1.23245 -4.62977 0
M  V30 1349 H 140.148 -0.561216 -2.4844 0
M  V30 1350 H 140.931 -2.22775 -2.61201 0
M  V30 1351 N 143.376 1.44774 -0.622745 0
M  V30 1352 C 144.624 2.01721 -0.123655 0
M  V30 1353 C 144.945 1.49172 1.25589 0
M  V30 1354 O 144.215 0.691974 1.83272 0
M  V30 1355 H 142.795 0.745777 -0.0427225 0
M  V30 1356 H 145.457 1.77382 -0.807559 0
M  V30 1357 H 144.553 3.11984 -0.0849534 0
M  V30 1358 N 144.854 0.36279 1.53368 0
M  V30 1359 C 146.265 -0.117022 1.86333 0
M  V30 1360 C 146.616 -1.48397 1.28347 0
M  V30 1361 O 145.741 -2.07787 0.604428 0
M  V30 1362 C 146.336 -0.21912 3.38091 0
M  V30 1363 C 144.895 -0.643184 3.70864 0
M  V30 1364 C 144.042 0.211318 2.76494 0
M  V30 1365 H 146.993 0.581687 1.47655 0
M  V30 1366 H 147.014 -1.04319 3.6592 0
M  V30 1367 H 146.526 0.775902 3.80265 0
M  V30 1368 H 144.627 -1.64654 3.34245 0
M  V30 1369 H 144.74 -0.41973 4.77258 0
M  V30 1370 H 143.104 -0.319367 2.5269 0
M  V30 1371 H 143.887 1.20383 3.21501 0
M  V30 1372 N 146.332 -1.57332 0.0918853 0
M  V30 1373 C 147.279 -2.13847 -0.868211 0
M  V30 1374 C 148.249 -1.05618 -1.28196 0
M  V30 1375 O 149.434 -1.33387 -1.36427 0
M  V30 1376 C 146.574 -2.72062 -2.12312 0
M  V30 1377 C 145.687 -3.94514 -1.7602 0
M  V30 1378 C 144.822 -4.40903 -2.96273 0
M  V30 1379 C 143.861 -5.55953 -2.56092 0
M  V30 1380 N 142.998 -5.97209 -3.69169 0
M  V30 1381 H 147.838 -2.95575 -0.379406 0
M  V30 1382 H 145.375 -1.46048 -0.175606 0
M  V30 1383 H 147.333 -3.03931 -2.858 0
M  V30 1384 H 145.963 -1.93068 -2.58698 0
M  V30 1385 H 145.015 -3.68979 -0.925135 0
M  V30 1386 H 146.327 -4.7802 -1.42472 0
M  V30 1387 H 145.481 -4.74539 -3.78018 0
M  V30 1388 H 144.22 -3.56291 -3.33029 0
M  V30 1389 H 143.225 -5.21948 -1.72773 0
M  V30 1390 H 144.45 -6.42311 -2.20484 0
M  V30 1391 H 142.396 -5.15543 -4.05649 0
M  V30 1392 H 142.313 -6.75504 -3.39456 0
M  V30 1393 H 143.581 -6.35475 -4.51434 0
M  V30 1394 N 147.81 0.181792 -1.56548 0
M  V30 1395 C 148.757 1.22521 -1.95595 0
M  V30 1396 C 149.727 1.4454 -0.818373 0
M  V30 1397 O 150.912 1.57454 -1.07763 0
M  V30 1398 C 148.052 2.56193 -2.31212 0
M  V30 1399 C 147.165 2.41641 -3.58097 0
M  V30 1400 C 146.3 3.68108 -3.82975 0
M  V30 1401 C 145.339 3.48445 -5.03242 0
M  V30 1402 N 144.476 4.66956 -5.24306 0
M  V30 1403 H 149.316 0.885226 -2.84548 0
M  V30 1404 H 146.853 0.425718 -1.40805 0
M  V30 1405 H 148.811 3.34088 -2.49882 0
M  V30 1406 H 147.441 2.88208 -1.45382 0
M  V30 1407 H 146.493 1.54976 -3.474 0
M  V30 1408 H 147.805 2.23052 -4.46149 0
M  V30 1409 H 146.959 4.54441 -4.01956 0
M  V30 1410 H 145.698 3.89666 -2.93278 0
M  V30 1411 H 144.703 2.60499 -4.8417 0
M  V30 1412 H 145.928 3.2832 -5.9446 0
M  V30 1413 H 143.874 4.88752 -4.37559 0
M  V30 1414 H 143.791 4.51242 -6.06561 0
M  V30 1415 H 145.059 5.54602 -5.47756 0
M  V30 1416 N 149.288 1.51039 0.449983 0
M  V30 1417 C 150.251 1.70863 1.5277 0
M  V30 1418 C 151.251 0.578846 1.5002 0
M  V30 1419 O 152.441 0.846213 1.52266 0
M  V30 1420 C 149.573 1.75341 2.9235 0
M  V30 1421 H 150.766 2.67034 1.36502 0
M  V30 1422 H 148.319 1.40838 0.677812 0
M  V30 1423 H 149.054 0.809383 3.14037 0
M  V30 1424 H 148.839 2.57436 2.95752 0
M  V30 1425 H 150.329 1.92559 3.70555 0
M  V30 1426 N 150.766 -0.704594 1.40972 0
M  V30 1427 C 152.177 -1.28418 1.3552 0
M  V30 1428 C 152.528 -1.96171 0.0339434 0
M  V30 1429 O 151.653 -1.98231 -0.867944 0
M  V30 1430 C 152.248 -2.33528 2.45459 0
M  V30 1431 C 150.807 -2.87085 2.43433 0
M  V30 1432 C 149.954 -1.61007 2.2577 0
M  V30 1433 H 152.905 -0.499963 1.50619 0
M  V30 1434 H 152.926 -3.14619 2.13998 0
M  V30 1435 H 152.438 -1.84187 3.41609 0
M  V30 1436 H 150.539 -3.40626 1.51013 0
M  V30 1437 H 150.652 -3.3813 3.39419 0
M  V30 1438 H 149.016 -1.86482 1.73483 0
M  V30 1439 H 149.799 -1.13675 3.23933 0
M  V30 1440 N 152.244 -1.26651 -0.937939 0
M  V30 1441 C 153.177 -1.02811 -2.03728 0
M  V30 1442 C 154.155 0.0481915 -1.62529 0
M  V30 1443 O 155.339 -0.0948839 -1.88261 0
M  V30 1444 C 152.466 -0.557517 -3.3408 0
M  V30 1445 C 151.512 -1.62686 -3.94253 0
M  V30 1446 S 152.345 -3.21667 -4.28125 0
M  V30 1447 C 153.501 -2.76384 -5.61572 0
M  V30 1448 H 153.734 -1.95891 -2.23638 0
M  V30 1449 H 151.267 -1.10367 -1.07974 0
M  V30 1450 H 153.225 -0.292674 -4.09455 0
M  V30 1451 H 151.886 0.353062 -3.12109 0
M  V30 1452 H 151.079 -1.24866 -4.88287 0
M  V30 1453 H 150.681 -1.84324 -3.25424 0
M  V30 1454 H 152.973 -2.2105 -6.40424 0
M  V30 1455 H 153.916 -3.69123 -6.0428 0
M  V30 1456 H 154.324 -2.15847 -5.21604 0
M  V30 1457 N 153.722 1.14298 -1.08507 0
M  V30 1458 C 154.999 1.81544 -0.728088 0
M  V30 1459 C 155.379 1.95838 0.78808 0
M  V30 1460 O 154.727 1.51904 1.70697 0
M  V30 1461 C 154.937 3.17169 -1.45619 0
M  V30 1462 C 156.285 3.9265 -1.61591 0
M  V30 1463 O 157.309 3.26762 -1.41793 0
M  V30 1464 O 156.168 5.10807 -1.94263 0
M  V30 1465 H 153.262 0.78491 -0.260471 0
M  V30 1466 H 155.808 1.21307 -1.18671 0
M  V30 1467 H 154.58 3.01934 -2.489 0
M  V30 1468 H 154.203 3.851 -0.989124 0
M  V30 1469 N 155.201 0.870884 1.31352 0
M  V30 1470 C 156.426 0.495957 2.01383 0
M  V30 1471 C 156.851 -0.904324 1.64935 0
M  V30 1472 O 156.209 -1.59687 0.858466 0
M  V30 1473 C 156.257 0.661433 3.54482 0
M  V30 1474 O 155.361 -0.298851 4.11316 0
M  V30 1475 H 154.702 0.197158 0.634054 0
M  V30 1476 H 157.232 1.17455 1.67527 0
M  V30 1477 H 157.242 0.555072 4.04207 0
M  V30 1478 H 155.917 1.68246 3.8035 0
M  V30 1479 H 154.494 -0.147368 3.72609 0
M  V30 1480 N 156.679 -1.44442 0.630414 0
M  V30 1481 C 157.609 -2.33418 -0.0618083 0
M  V30 1482 C 158.59 -1.48165 -0.835541 0
M  V30 1483 O 159.775 -1.76886 -0.801564 0
M  V30 1484 C 156.905 -3.31222 -1.04449 0
M  V30 1485 C 155.859 -4.26288 -0.382436 0
M  V30 1486 C 155.185 -5.13954 -1.47497 0
M  V30 1487 C 156.485 -5.1744 0.710865 0
M  V30 1488 H 158.179 -2.91548 0.681184 0
M  V30 1489 H 155.725 -1.40191 0.329026 0
M  V30 1490 H 157.678 -3.92351 -1.53748 0
M  V30 1491 H 156.402 -2.71299 -1.81836 0
M  V30 1492 H 155.061 -3.6649 0.0899054 0
M  V30 1493 H 154.709 -4.50385 -2.2397 0
M  V30 1494 H 154.409 -5.7837 -1.03737 0
M  V30 1495 H 155.933 -5.77955 -1.96979 0
M  V30 1496 H 157.347 -5.72509 0.300996 0
M  V30 1497 H 155.744 -5.90455 1.07156 0
M  V30 1498 H 156.814 -4.58496 1.57829 0
M  V30 1499 N 158.157 -0.370918 -1.53173 0
M  V30 1500 C 159.404 0.217102 -2.01333 0
M  V30 1501 C 159.732 1.48338 -1.25802 0
M  V30 1502 O 158.987 1.92698 -0.34146 0
M  V30 1503 C 159.286 0.549696 -3.53147 0
M  V30 1504 C 158.952 -0.622872 -4.46577 0
M  V30 1505 C 157.614 -0.944595 -4.71838 0
M  V30 1506 C 159.966 -1.40819 -5.01816 0
M  V30 1507 C 157.294 -2.05351 -5.49589 0
M  V30 1508 C 159.646 -2.50757 -5.80778 0
M  V30 1509 C 158.31 -2.83458 -6.04324 0
M  V30 1510 H 157.58 0.0794431 -0.736729 0
M  V30 1511 H 160.227 -0.504481 -1.84736 0
M  V30 1512 H 158.532 1.35237 -3.6772 0
M  V30 1513 H 160.229 1.017 -3.87889 0
M  V30 1514 H 156.819 -0.36209 -4.27068 0
M  V30 1515 H 161.003 -1.17289 -4.82242 0
M  V30 1516 H 156.259 -2.3108 -5.6605 0
M  V30 1517 H 160.433 -3.12022 -6.22588 0
M  V30 1518 H 158.06 -3.69508 -6.64355 0
M  V30 1519 N 159.635 1.57281 -0.100228 0
M  V30 1520 C 160.912 1.86014 0.604812 0
M  V30 1521 C 161.292 0.998025 1.86018 0
M  V30 1522 O 160.64 0.0718184 2.28387 0
M  V30 1523 C 160.85 3.36784 0.915278 0
M  V30 1524 C 162.198 4.04957 1.27651 0
M  V30 1525 O 163.222 3.41695 1.00613 0
M  V30 1526 O 162.081 5.16593 1.7831 0
M  V30 1527 H 159.175 0.76942 0.303185 0
M  V30 1528 H 161.721 1.69176 -0.133313 0
M  V30 1529 H 160.493 3.91292 0.0248896 0
M  V30 1530 H 160.116 3.58987 1.70921 0
M  V30 1531 N 161.113 -0.173488 1.56642 0
M  V30 1532 C 162.343 -0.904781 1.85734 0
M  V30 1533 C 162.751 -1.76431 0.68328 0
M  V30 1534 O 162.094 -1.802 -0.356865 0
M  V30 1535 C 162.156 -1.83382 3.09211 0
M  V30 1536 C 161.82 -1.15411 4.42187 0
M  V30 1537 C 162.817 -0.520609 5.17287 0
M  V30 1538 C 160.502 -1.15151 4.88923 0
M  V30 1539 C 162.496 0.106412 6.37311 0
M  V30 1540 C 160.183 -0.520664 6.08878 0
M  V30 1541 C 161.181 0.107196 6.82916 0
M  V30 1542 O 160.869 0.728102 8.00596 0
M  V30 1543 H 160.601 -0.268408 0.62043 0
M  V30 1544 H 163.155 -0.179096 2.04618 0
M  V30 1545 H 161.385 -2.59976 2.86268 0
M  V30 1546 H 163.074 -2.43476 3.24768 0
M  V30 1547 H 163.84 -0.514606 4.82262 0
M  V30 1548 H 159.719 -1.62961 4.31236 0
M  V30 1549 H 163.263 0.597081 6.9504 0
M  V30 1550 H 159.16 -0.524242 6.43368 0
M  V30 1551 H 159.928 0.627138 8.16094 0
M  V30 1552 N 162.591 -1.51276 -0.441967 0
M  V30 1553 C 163.839 -1.63392 -1.18943 0
M  V30 1554 C 164.16 -0.350159 -1.9183 0
M  V30 1555 O 163.43 0.633784 -1.85364 0
M  V30 1556 H 162.01 -0.602164 -0.442049 0
M  V30 1557 H 164.672 -1.88186 -0.507165 0
M  V30 1558 H 163.768 -2.45934 -1.92154 0
M  V30 1559 N 164.069 0.697108 -1.41344 0
M  V30 1560 C 165.297 1.48593 -1.43972 0
M  V30 1561 C 165.712 1.88747 -0.0445612 0
M  V30 1562 O 165.069 1.56682 0.935785 0
M  V30 1563 C 165.12 2.74946 -2.34706 0
M  V30 1564 O 164.841 2.36484 -3.68791 0
M  V30 1565 C 166.342 3.687 -2.46121 0
M  V30 1566 H 163.562 0.457964 -0.490418 0
M  V30 1567 H 166.106 0.858429 -1.8561 0
M  V30 1568 H 164.261 3.33937 -1.9638 0
M  V30 1569 H 164.675 3.17918 -4.17167 0
M  V30 1570 H 166.149 4.54145 -3.13777 0
M  V30 1571 H 166.626 4.13081 -1.49199 0
M  V30 1572 H 167.232 3.15613 -2.85076 0
M  V30 1573 N 165.547 1.27147 0.931209 0
M  V30 1574 C 166.777 1.15914 1.71019 0
M  V30 1575 C 167.185 -0.287112 1.87009 0
M  V30 1576 O 166.528 -1.20761 1.38429 0
M  V30 1577 C 166.59 1.76647 3.13107 0
M  V30 1578 C 166.254 3.25807 3.20467 0
M  V30 1579 C 167.251 4.22489 3.02983 0
M  V30 1580 C 164.936 3.66452 3.43538 0
M  V30 1581 C 166.93 5.57794 3.08454 0
M  V30 1582 C 164.617 5.01888 3.48643 0
M  V30 1583 C 165.615 5.97369 3.31119 0
M  V30 1584 O 165.303 7.30337 3.35952 0
M  V30 1585 H 165.035 0.404062 0.54195 0
M  V30 1586 H 167.589 1.68457 1.17521 0
M  V30 1587 H 165.819 1.18578 3.68071 0
M  V30 1588 H 167.508 1.60179 3.72958 0
M  V30 1589 H 168.274 3.92425 2.85004 0
M  V30 1590 H 164.153 2.92611 3.5623 0
M  V30 1591 H 167.697 6.32298 2.94694 0
M  V30 1592 H 163.594 5.31609 3.66145 0
M  V30 1593 H 164.362 7.38739 3.5243 0
M  V30 1594 N 167.025 -1.13721 1.09112 0
M  V30 1595 C 168.441 -1.36914 0.820174 0
M  V30 1596 C 168.641 -1.93356 -0.567079 0
M  V30 1597 O 167.697 -2.15093 -1.32255 0
M  V30 1598 C 169.01 -2.3235 1.90877 0
M  V30 1599 C 170.558 -2.45973 1.93562 0
M  V30 1600 C 171.033 -3.44714 3.01556 0
M  V30 1601 N 172.524 -3.52263 3.00775 0
M  V30 1602 C 173.259 -4.28536 3.80978 0
M  V30 1603 N 172.755 -5.07991 4.71081 0
M  V30 1604 N 174.548 -4.23804 3.69251 0
M  V30 1605 H 166.699 -0.754348 1.98553 0
M  V30 1606 H 168.962 -0.3944 0.862063 0
M  V30 1607 H 168.668 -1.98027 2.90651 0
M  V30 1608 H 168.542 -3.32332 1.78424 0
M  V30 1609 H 170.929 -2.79584 0.944286 0
M  V30 1610 H 171.01 -1.45926 2.10093 0
M  V30 1611 H 170.654 -3.11835 4.00901 0
M  V30 1612 H 170.584 -4.44558 2.82269 0
M  V30 1613 H 173.075 -2.95567 2.35475 0
M  V30 1614 H 173.388 -5.63487 5.28869 0
M  V30 1615 H 171.733 -5.07235 4.75119 0
M  V30 1616 H 174.924 -3.60806 2.98222 0
M  V30 1617 H 175.097 -4.82995 4.31995 0
M  V30 1618 N 168.503 -0.877838 -1.30888 0
M  V30 1619 C 169.453 -0.310872 -2.25871 0
M  V30 1620 C 170.437 0.556596 -1.50966 0
M  V30 1621 O 171.629 0.402187 -1.7237 0
M  V30 1622 C 168.758 0.479821 -3.3993 0
M  V30 1623 C 167.844 -0.401333 -4.22197 0
M  V30 1624 N 168.235 -1.49848 -4.83093 0
M  V30 1625 C 166.533 -0.195167 -4.45573 0
M  V30 1626 C 167.234 -2.0425 -5.44662 0
M  V30 1627 N 166.21 -1.33843 -5.26865 0
M  V30 1628 H 170.012 -1.1493 -2.70496 0
M  V30 1629 H 167.526 -0.726458 -1.45246 0
M  V30 1630 H 169.523 0.902582 -4.07012 0
M  V30 1631 H 168.183 1.31577 -2.96846 0
M  V30 1632 H 169.194 -1.88137 -4.82519 0
M  V30 1633 H 165.871 0.604192 -4.13105 0
M  V30 1634 H 167.261 -2.96345 -6.03017 0
M  V30 1635 N 169.982 1.44106 -0.638065 0
M  V30 1636 C 170.932 2.27843 0.0847285 0
M  V30 1637 C 171.916 1.39055 0.809471 0
M  V30 1638 O 173.108 1.62808 0.694435 0
M  V30 1639 C 170.237 3.26497 1.06089 0
M  V30 1640 C 169.323 4.22772 0.33541 0
M  V30 1641 N 169.714 5.01737 -0.639787 0
M  V30 1642 C 168.012 4.42227 0.578921 0
M  V30 1643 C 168.713 5.71792 -1.06904 0
M  V30 1644 N 167.689 5.42079 -0.406395 0
M  V30 1645 H 171.491 2.86305 -0.663814 0
M  V30 1646 H 169.005 1.55627 -0.464122 0
M  V30 1647 H 171.002 3.8525 1.59337 0
M  V30 1648 H 169.662 2.69595 1.80966 0
M  V30 1649 H 170.673 5.07799 -1.01789 0
M  V30 1650 H 167.35 3.96415 1.31003 0
M  V30 1651 H 168.74 6.45205 -1.8751 0
M  V30 1652 N 171.46 0.379036 1.52974 0
M  V30 1653 C 172.685 -0.209353 2.06341 0
M  V30 1654 C 173.11 -1.40583 1.24972 0
M  V30 1655 O 172.468 -1.79246 0.272155 0
M  V30 1656 C 172.516 -0.567786 3.56102 0
M  V30 1657 O 171.62 -1.66318 3.77375 0
M  V30 1658 H 170.961 -0.0272919 0.663439 0
M  V30 1659 H 173.491 0.543536 1.97248 0
M  V30 1660 H 173.501 -0.835003 3.99364 0
M  V30 1661 H 172.176 0.307013 4.14765 0
M  V30 1662 H 170.753 -1.39048 3.46006 0
M  V30 1663 N 172.938 -1.57226 0.108567 0
M  V30 1664 C 174.163 -1.99604 -0.563303 0
M  V30 1665 C 174.588 -0.987563 -1.6009 0
M  V30 1666 O 173.946 0.0421687 -1.81251 0
M  V30 1667 C 173.994 -3.40902 -1.17552 0
M  V30 1668 O 173.098 -3.42896 -2.2912 0
M  V30 1669 H 172.439 -0.648704 -0.1417 0
M  V30 1670 H 174.969 -2.03679 0.193961 0
M  V30 1671 H 174.979 -3.78886 -1.51357 0
M  V30 1672 H 173.654 -4.1382 -0.415445 0
M  V30 1673 H 172.231 -3.1672 -1.96832 0
M  V30 1674 N 174.416 0.165178 -1.56732 0
M  V30 1675 C 175.693 0.908443 -1.73224 0
M  V30 1676 C 176.073 2.0013 -0.67165 0
M  V30 1677 O 175.421 2.26353 0.31253 0
M  V30 1678 C 175.631 1.46756 -3.16644 0
M  V30 1679 C 176.979 1.93809 -3.77787 0
M  V30 1680 O 178.003 1.56537 -3.1996 0
M  V30 1681 O 176.862 2.62486 -4.79336 0
M  V30 1682 H 173.956 0.428025 -0.707618 0
M  V30 1683 H 176.502 0.152526 -1.69013 0
M  V30 1684 H 175.274 0.68129 -3.85323 0
M  V30 1685 H 174.897 2.28749 -3.25207 0
M  V30 1686 N 175.894 1.51508 0.433938 0
M  V30 1687 C 176.842 1.73646 1.54757 0
M  V30 1688 C 177.836 0.602854 1.5831 0
M  V30 1689 O 179.042 0.784318 1.62014 0
M  V30 1690 H 175.417 0.548718 0.51421 0
M  V30 1691 H 177.388 2.66991 1.33261 0
M  V30 1692 C 176.137 1.88172 2.92381 0
M  V30 1693 H 175.46 2.74808 2.90381 0
M  V30 1694 H 176.9 2.07672 3.6966 0
M  V30 1695 C 175.359 0.64239 3.30719 0
M  V30 1696 O 175.889 -0.201362 4.01195 0
M  V30 1697 N 174.095 0.485489 2.86516 0
M  V30 1698 H 173.642 1.17318 2.29334 0
M  V30 1699 H 173.6 -0.342482 3.12529 0
M  V30 1700 N 177.372 -0.689602 1.41712 0
M  V30 1701 C 178.319 -1.80345 1.44029 0
M  V30 1702 C 179.289 -1.63478 0.293948 0
M  V30 1703 O 180.474 -1.84244 0.495869 0
M  V30 1704 C 177.614 -3.18272 1.33405 0
M  V30 1705 C 176.727 -3.46529 2.57956 0
M  V30 1706 C 175.862 -4.74103 2.39582 0
M  V30 1707 C 174.901 -4.95347 3.5958 0
M  V30 1708 N 174.038 -6.14151 3.40239 0
M  V30 1709 H 178.878 -1.77698 2.39222 0
M  V30 1710 H 176.415 -0.867688 1.18784 0
M  V30 1711 H 178.373 -3.97956 1.25246 0
M  V30 1712 H 177.003 -3.2008 0.418164 0
M  V30 1713 H 176.055 -2.61207 2.76542 0
M  V30 1714 H 177.367 -3.58126 3.47199 0
M  V30 1715 H 176.521 -5.61853 2.28924 0
M  V30 1716 H 175.26 -4.64763 1.47805 0
M  V30 1717 H 174.265 -4.06044 3.70686 0
M  V30 1718 H 175.49 -5.06542 4.52318 0
M  V30 1719 H 173.436 -6.06013 2.51167 0
M  V30 1720 H 173.353 -6.26543 4.23061 0
M  V30 1721 H 174.621 -7.04619 3.33365 0
M  V30 1722 N 178.85 -1.27639 -0.924453 0
M  V30 1723 C 180.266 -1.05113 -1.20097 0
M  V30 1724 C 180.466 0.213262 -2.00368 0
M  V30 1725 O 179.522 0.91787 -2.35226 0
M  V30 1726 C 180.835 -2.29244 -1.94596 0
M  V30 1727 C 182.383 -2.34315 -2.07522 0
M  V30 1728 C 182.858 -3.58183 -2.85427 0
M  V30 1729 N 184.349 -3.5876 -2.92994 0
M  V30 1730 C 185.084 -4.51277 -3.53746 0
M  V30 1731 N 184.58 -5.54102 -4.15863 0
M  V30 1732 N 186.373 -4.38894 -3.51181 0
M  V30 1733 H 178.524 -2.08821 -0.388264 0
M  V30 1734 H 180.787 -0.918568 -0.234385 0
M  V30 1735 H 180.493 -3.21301 -1.43034 0
M  V30 1736 H 180.367 -2.34816 -2.95197 0
M  V30 1737 H 182.754 -1.42762 -2.58269 0
M  V30 1738 H 182.835 -2.32744 -1.06131 0
M  V30 1739 H 182.479 -4.50074 -2.35363 0
M  V30 1740 H 182.409 -3.57006 -3.8711 0
M  V30 1741 H 184.9 -2.84398 -2.4885 0
M  V30 1742 H 185.213 -6.20859 -4.60168 0
M  V30 1743 H 183.558 -5.57941 -4.144 0
M  V30 1744 H 186.749 -3.57772 -3.01856 0
M  V30 1745 H 186.922 -5.11186 -3.98237 0
M  V30 1746 N 180.328 1.1314 -1.09713 0
M  V30 1747 C 181.574 1.84967 -0.846104 0
M  V30 1748 C 181.929 1.82082 0.621601 0
M  V30 1749 O 181.222 1.2501 1.452 0
M  V30 1750 C 181.416 3.32167 -1.3191 0
M  V30 1751 C 181.245 3.49386 -2.83125 0
M  V30 1752 C 180.015 3.63456 -3.51038 0
M  V30 1753 C 182.213 3.45179 -3.81256 0
M  V30 1754 N 180.195 3.68966 -4.9065 0
M  V30 1755 C 181.566 3.57094 -5.06837 0
M  V30 1756 C 183.621 3.28598 -3.74069 0
M  V30 1757 C 182.324 3.5414 -6.26081 0
M  V30 1758 C 184.35 3.26953 -4.92804 0
M  V30 1759 C 183.712 3.39422 -6.17229 0
M  V30 1760 H 179.811 0.692899 -0.362512 0
M  V30 1761 H 182.395 1.35506 -1.39808 0
M  V30 1762 H 180.566 3.80186 -0.794535 0
M  V30 1763 H 182.298 3.91815 -1.01308 0
M  V30 1764 H 179.053 3.65256 -3.01471 0
M  V30 1765 H 179.477 3.75404 -5.63383 0
M  V30 1766 H 184.119 3.17858 -2.78794 0
M  V30 1767 H 181.837 3.63653 -7.21653 0
M  V30 1768 H 185.423 3.15316 -4.88945 0
M  V30 1769 H 184.303 3.38114 -7.07565 0
M  V30 1770 N 181.806 0.884767 1.30421 0
M  V30 1771 C 183.222 0.57874 1.48737 0
M  V30 1772 C 183.422 -0.883567 1.81095 0
M  V30 1773 O 182.478 -1.6648 1.89844 0
M  V30 1774 C 183.791 1.49171 2.61091 0
M  V30 1775 C 185.339 1.49532 2.74971 0
M  V30 1776 C 185.814 2.39421 3.90438 0
M  V30 1777 N 187.305 2.37383 3.97748 0
M  V30 1778 C 188.04 3.03647 4.86401 0
M  V30 1779 N 187.536 3.79136 5.79852 0
M  V30 1780 N 189.329 2.9288 4.79768 0
M  V30 1781 H 181.48 1.83075 1.0769 0
M  V30 1782 H 183.743 0.783637 0.533495 0
M  V30 1783 H 183.449 2.53291 2.44001 0
M  V30 1784 H 183.323 1.20113 3.57565 0
M  V30 1785 H 185.71 0.46163 2.91467 0
M  V30 1786 H 185.791 1.8262 1.79119 0
M  V30 1787 H 185.435 3.42874 3.74699 0
M  V30 1788 H 185.365 2.03649 4.85628 0
M  V30 1789 H 187.856 1.82525 3.30897 0
M  V30 1790 H 188.169 4.26789 6.4426 0
M  V30 1791 H 186.514 3.83243 5.79784 0
M  V30 1792 H 189.705 2.33433 4.05742 0
M  V30 1793 H 189.878 3.448 5.4865 0
M  V30 1794 N 183.284 -1.43765 0.645699 0
M  V30 1795 C 184.231 -2.30745 -0.0504648 0
M  V30 1796 C 185.201 -1.4432 -0.822241 0
M  V30 1797 O 186.386 -1.73202 -0.800358 0
M  V30 1798 C 183.526 -3.29802 -1.0161 0
M  V30 1799 C 182.639 -4.31326 -0.241219 0
M  V30 1800 C 181.774 -5.17469 -1.19998 0
M  V30 1801 C 180.813 -6.10691 -0.415094 0
M  V30 1802 N 179.95 -6.89483 -1.32506 0
M  V30 1803 H 184.79 -2.8973 0.697155 0
M  V30 1804 H 182.327 -1.42738 0.355563 0
M  V30 1805 H 184.285 -3.85734 -1.58949 0
M  V30 1806 H 182.915 -2.72483 -1.73069 0
M  V30 1807 H 181.967 -3.77749 0.448334 0
M  V30 1808 H 183.279 -4.9743 0.369437 0
M  V30 1809 H 182.433 -5.7799 -1.84424 0
M  V30 1810 H 181.172 -4.51473 -1.84455 0
M  V30 1811 H 180.177 -5.49265 0.242565 0
M  V30 1812 H 181.402 -6.78727 0.224966 0
M  V30 1813 H 179.348 -6.26142 -1.95657 0
M  V30 1814 H 179.265 -7.52081 -0.768783 0
M  V30 1815 H 180.533 -7.54516 -1.9577 0
M  V30 1816 N 184.763 -0.387143 -1.52771 0
M  V30 1817 C 185.71 0.449048 -2.26389 0
M  V30 1818 C 186.68 1.05961 -1.27912 0
M  V30 1819 O 187.865 1.08804 -1.56737 0
M  V30 1820 C 185.005 1.57155 -3.0724 0
M  V30 1821 C 184.118 0.984066 -4.20643 0
M  V30 1822 C 183.253 2.07745 -4.88892 0
M  V30 1823 C 182.292 1.46574 -5.94292 0
M  V30 1824 N 181.429 2.49834 -6.56146 0
M  V30 1825 H 186.269 -0.185205 -2.97424 0
M  V30 1826 H 183.806 -0.103164 -1.46738 0
M  V30 1827 H 185.764 2.23309 -3.52405 0
M  V30 1828 H 184.394 2.17615 -2.38419 0
M  V30 1829 H 183.446 0.212193 -3.79808 0
M  V30 1830 H 184.758 0.497029 -4.96318 0
M  V30 1831 H 183.912 2.81673 -5.3735 0
M  V30 1832 H 182.651 2.59807 -4.12737 0
M  V30 1833 H 181.656 0.711696 -5.45174 0
M  V30 1834 H 182.881 0.953088 -6.72379 0
M  V30 1835 H 180.827 3.0107 -5.82832 0
M  V30 1836 H 180.744 2.05879 -7.27427 0
M  V30 1837 H 182.012 3.23399 -7.09249 0
M  V30 1838 N 186.241 1.57166 -0.116904 0
M  V30 1839 C 187.49 1.94298 0.541407 0
M  V30 1840 C 187.803 1.00236 1.67964 0
M  V30 1841 O 189.009 1.26826 2.40057 0
M  V30 1842 C 187.465 3.45306 1.01449 0
M  V30 1843 C 187.073 4.47899 -0.0951738 0
M  V30 1844 C 188.817 3.91361 1.6443 0
M  V30 1845 C 186.724 5.90083 0.394491 0
M  V30 1846 H 185.654 0.725308 0.206019 0
M  V30 1847 H 188.305 1.82446 -0.196419 0
M  V30 1848 H 186.687 3.52385 1.80667 0
M  V30 1849 H 187.861 4.52486 -0.871374 0
M  V30 1850 H 186.176 4.11583 -0.631505 0
M  V30 1851 H 188.773 4.95004 2.02176 0
M  V30 1852 H 189.116 3.3122 2.52189 0
M  V30 1853 H 189.649 3.87073 0.917559 0
M  V30 1854 H 186.388 6.53974 -0.447004 0
M  V30 1855 H 185.908 5.88921 1.13722 0
M  V30 1856 H 187.587 6.41307 0.856399 0
M  V30 1857 N 187.719 -0.156864 1.56817 0
M  V30 1858 C 188.968 -0.869504 1.81996 0
M  V30 1859 C 189.281 -1.82777 0.696545 0
M  V30 1860 O 190.487 -2.58384 0.833658 0
M  V30 1861 C 188.943 -1.59679 3.22538 0
M  V30 1862 C 188.551 -0.681431 4.42787 0
M  V30 1863 C 190.295 -2.2968 3.56997 0
M  V30 1864 C 188.202 -1.40978 5.74351 0
M  V30 1865 H 187.132 -0.328438 0.678708 0
M  V30 1866 H 189.783 -0.1223 1.83092 0
M  V30 1867 H 188.165 -2.38927 3.158 0
M  V30 1868 H 189.339 0.0751166 4.60739 0
M  V30 1869 H 187.654 -0.0903431 4.16302 0
M  V30 1870 H 190.251 -2.84794 4.52544 0
M  V30 1871 H 190.594 -3.05707 2.82576 0
M  V30 1872 H 191.127 -1.57361 3.65352 0
M  V30 1873 H 187.866 -0.691561 6.51842 0
M  V30 1874 H 187.386 -2.13929 5.60352 0
M  V30 1875 H 189.065 -1.95337 6.16808 0
M  V30 1876 N 189.197 -1.51736 -0.425897 0
M  V30 1877 C 190.107 -1.76738 -1.54275 0
M  V30 1878 C 191.123 -0.65211 -1.61318 0
M  V30 1879 O 192.299 -0.935654 -1.78346 0
M  V30 1880 C 189.364 -1.89755 -2.90162 0
M  V30 1881 C 188.425 -3.13633 -2.93143 0
M  V30 1882 C 187.658 -3.2602 -4.22548 0
M  V30 1883 O 187.881 -2.44067 -5.15546 0
M  V30 1884 O 186.815 -4.19071 -4.32046 0
M  V30 1885 H 190.641 -2.71502 -1.36089 0
M  V30 1886 H 188.226 -1.36376 -0.610069 0
M  V30 1887 H 190.108 -2.00236 -3.70788 0
M  V30 1888 H 188.783 -0.981785 -3.08452 0
M  V30 1889 H 187.69 -3.08622 -2.11431 0
M  V30 1890 H 189.023 -4.04936 -2.798 0
M  V30 1891 N 190.675 0.682077 -1.42076 0
M  V30 1892 C 191.622 1.79578 -1.44984 0
M  V30 1893 C 192.592 1.6332 -0.302614 0
M  V30 1894 O 193.777 1.83978 -0.505633 0
M  V30 1895 C 190.917 3.1756 -1.35091 0
M  V30 1896 C 190.03 3.45156 -2.59791 0
M  V30 1897 C 189.165 4.72826 -2.42093 0
M  V30 1898 C 188.204 4.93433 -3.62202 0
M  V30 1899 N 187.341 6.12338 -3.43491 0
M  V30 1900 H 192.181 1.76427 -2.40161 0
M  V30 1901 H 189.718 0.861376 -1.19242 0
M  V30 1902 H 191.676 3.97287 -1.27354 0
M  V30 1903 H 190.306 3.19854 -0.435133 0
M  V30 1904 H 189.358 2.59736 -2.77923 0
M  V30 1905 H 190.67 3.5628 -3.49094 0
M  V30 1906 H 189.824 5.60631 -2.319 0
M  V30 1907 H 188.563 4.63973 -1.50268 0
M  V30 1908 H 187.568 4.04073 -3.72834 0
M  V30 1909 H 188.793 5.04136 -4.54998 0
M  V30 1910 H 186.739 6.04672 -2.54377 0
M  V30 1911 H 186.656 6.2429 -4.26377 0
M  V30 1912 H 187.924 7.02841 -3.37097 0
M  V30 1913 N 192.153 1.28127 0.917671 0
M  V30 1914 C 193.085 1.07517 2.02417 0
M  V30 1915 C 194.098 0.0281099 1.62776 0
M  V30 1916 O 195.287 0.270748 1.76435 0
M  V30 1917 C 192.387 0.610957 3.33347 0
M  V30 1918 C 191.56 1.73255 4.01624 0
M  V30 1919 C 190.619 1.26238 5.10833 0
M  V30 1920 O 189.645 1.96389 5.34247 0
M  V30 1921 N 190.847 0.123448 5.80369 0
M  V30 1922 H 193.612 2.02806 2.20658 0
M  V30 1923 H 191.173 1.19827 1.08871 0
M  V30 1924 H 193.165 0.280101 4.0373 0
M  V30 1925 H 191.735 -0.24898 3.11607 0
M  V30 1926 H 190.955 2.23319 3.24842 0
M  V30 1927 H 192.243 2.48503 4.43986 0
M  V30 1928 H 191.641 -0.461847 5.63812 0
M  V30 1929 H 190.198 -0.148158 6.51632 0
M  V30 1930 N 193.631 -1.12557 1.10312 0
M  V30 1931 C 195.042 -1.65574 0.862678 0
M  V30 1932 C 195.393 -1.86566 -0.607256 0
M  V30 1933 O 194.518 -1.59121 -1.46662 0
M  V30 1934 C 195.113 -3.00776 1.55947 0
M  V30 1935 C 193.672 -3.50748 1.36576 0
M  V30 1936 C 192.819 -2.25797 1.60968 0
M  V30 1937 H 195.77 -0.963552 1.26101 0
M  V30 1938 H 195.791 -3.67185 0.997753 0
M  V30 1939 H 195.303 -2.85465 2.62928 0
M  V30 1940 H 193.404 -3.71245 0.317531 0
M  V30 1941 H 193.517 -4.30289 2.10686 0
M  V30 1942 H 191.881 -2.32841 1.03234 0
M  V30 1943 H 192.664 -2.13043 2.69198 0
M  V30 1944 N 195.109 -0.891671 -1.2995 0
M  V30 1945 C 196.041 -0.320695 -2.26945 0
M  V30 1946 C 197.054 0.528497 -1.53983 0
M  V30 1947 O 198.243 0.346959 -1.75096 0
M  V30 1948 C 195.343 0.562066 -3.34207 0
M  V30 1949 C 194.516 -0.259576 -4.36629 0
M  V30 1950 C 193.575 0.554739 -5.23268 0
M  V30 1951 O 192.601 -0.0249311 -5.69195 0
M  V30 1952 N 193.803 1.8625 -5.4981 0
M  V30 1953 H 196.568 -1.15432 -2.76578 0
M  V30 1954 H 194.129 -0.755336 -1.432 0
M  V30 1955 H 196.121 1.11304 -3.89093 0
M  V30 1956 H 194.691 1.29637 -2.84452 0
M  V30 1957 H 193.911 -0.991986 -3.81514 0
M  V30 1958 H 195.199 -0.822564 -5.02107 0
M  V30 1959 H 194.597 2.35628 -5.14292 0
M  V30 1960 H 193.154 2.36078 -6.07545 0
M  V30 1961 N 196.587 1.43421 -0.653314 0
M  V30 1962 C 197.812 2.06678 -0.172846 0
M  V30 1963 C 198.237 1.48648 1.15262 0
M  V30 1964 O 197.595 0.596457 1.71208 0
M  V30 1965 C 197.643 3.60474 -0.0953184 0
M  V30 1966 O 196.747 4.01487 0.942442 0
M  V30 1967 H 196.088 0.657181 -0.0949155 0
M  V30 1968 H 198.618 1.83925 -0.896265 0
M  V30 1969 H 198.628 4.07905 0.0879728 0
M  V30 1970 H 197.303 4.02088 -1.06291 0
M  V30 1971 H 195.88 3.65646 0.731932 0
M  V30 1972 N 198.065 0.39524 1.52563 0
M  V30 1973 C 199.476 -0.0774719 1.86539 0
M  V30 1974 C 199.827 -1.45641 1.31466 0
M  V30 1975 O 198.952 -2.06459 0.648367 0
M  V30 1976 C 199.547 -0.147356 3.38479 0
M  V30 1977 C 198.106 -0.564373 3.72145 0
M  V30 1978 C 197.253 0.269919 2.75983 0
M  V30 1979 H 200.204 0.612876 1.46388 0
M  V30 1980 H 200.225 -0.965343 3.68051 0
M  V30 1981 H 199.737 0.856387 3.78534 0
M  V30 1982 H 197.838 -1.57527 3.37663 0
M  V30 1983 H 197.951 -0.318402 4.78041 0
M  V30 1984 H 196.315 -0.265696 2.5331 0
M  V30 1985 H 197.098 1.27175 3.18875 0
M  V30 1986 N 199.544 -1.57102 0.125237 0
M  V30 1987 C 200.491 -2.15641 -0.822655 0
M  V30 1988 C 201.461 -1.08313 -1.25927 0
M  V30 1989 O 202.646 -1.36251 -1.33567 0
M  V30 1990 C 199.786 -2.76504 -2.06494 0
M  V30 1991 C 198.899 -3.98158 -1.67612 0
M  V30 1992 C 198.034 -4.47088 -2.86854 0
M  V30 1993 C 197.073 -5.6126 -2.44242 0
M  V30 1994 N 196.21 -6.04905 -3.56419 0
M  V30 1995 H 201.05 -2.96313 -0.316625 0
M  V30 1996 H 198.587 -1.46388 -0.144588 0
M  V30 1997 H 200.545 -3.09925 -2.79289 0
M  V30 1998 H 199.175 -1.98512 -2.54545 0
M  V30 1999 H 198.227 -3.70858 -0.846661 0
M  V30 2000 H 199.539 -4.80934 -1.32301 0
M  V30 2001 H 198.693 -4.82451 -3.67867 0
M  V30 2002 H 197.432 -3.63275 -3.25396 0
M  V30 2003 H 196.437 -5.25495 -1.61663 0
M  V30 2004 H 197.662 -6.46843 -2.0681 0
M  V30 2005 H 195.608 -5.24032 -3.94623 0
M  V30 2006 H 195.525 -6.82552 -3.25051 0
M  V30 2007 H 196.793 -6.44907 -4.37853 0
M  V30 2008 N 201.022 0.148545 -1.56898 0
M  V30 2009 C 201.985 1.16736 -1.97244 0
M  V30 2010 C 202.985 1.35947 -0.858777 0
M  V30 2011 O 204.175 1.32966 -1.12542 0
M  V30 2012 C 201.307 2.52798 -2.28705 0
M  V30 2013 H 202.5 0.821279 -2.88435 0
M  V30 2014 H 200.053 0.391831 -1.51309 0
M  V30 2015 H 200.788 2.92381 -1.403 0
M  V30 2016 H 200.573 2.40216 -3.09901 0
M  V30 2017 H 202.063 3.26179 -2.60762 0
M  V30 2018 N 202.5 1.5196 0.417844 0
M  V30 2019 C 203.911 1.57851 0.997 0
M  V30 2020 C 204.262 0.413714 1.91789 0
M  V30 2021 O 203.387 -0.467057 2.113 0
M  V30 2022 C 203.982 2.86085 1.81496 0
M  V30 2023 C 202.541 2.94483 2.34428 0
M  V30 2024 C 201.688 2.52707 1.14169 0
M  V30 2025 H 204.639 1.57455 0.198392 0
M  V30 2026 H 204.66 2.70947 2.67148 0
M  V30 2027 H 204.172 3.70842 1.14446 0
M  V30 2028 H 202.273 2.142 3.04875 0
M  V30 2029 H 202.386 3.98546 2.65891 0
M  V30 2030 H 200.75 2.06353 1.49301 0
M  V30 2031 H 201.533 3.39828 0.486999 0
M  V30 2032 N 203.978 -0.674533 1.42435 0
M  V30 2033 C 204.941 -1.76986 1.45632 0
M  V30 2034 C 205.941 -1.5708 0.343871 0
M  V30 2035 O 207.131 -1.63367 0.604709 0
M  V30 2036 C 204.263 -3.15623 1.28822 0
M  V30 2037 H 205.456 -1.75539 2.43158 0
M  V30 2038 H 203.009 -0.884189 1.28887 0
M  V30 2039 H 203.744 -3.22696 0.322193 0
M  V30 2040 H 203.529 -3.31475 2.09444 0
M  V30 2041 H 205.019 -3.95537 1.33942 0
M  V30 2042 N 205.456 -1.28612 -0.910864 0
M  V30 2043 C 206.867 -1.14406 -1.47541 0
M  V30 2044 C 207.218 0.264901 -1.94403 0
M  V30 2045 O 206.343 1.15942 -1.82719 0
M  V30 2046 C 206.938 -2.07073 -2.68153 0
M  V30 2047 C 205.497 -1.96923 -3.20778 0
M  V30 2048 C 204.644 -1.98646 -1.93481 0
M  V30 2049 H 207.595 -1.41259 -0.723291 0
M  V30 2050 H 207.616 -1.63642 -3.43514 0
M  V30 2051 H 207.128 -3.09611 -2.34015 0
M  V30 2052 H 205.229 -0.97433 -3.59635 0
M  V30 2053 H 205.342 -2.84026 -3.85832 0
M  V30 2054 H 203.706 -1.43093 -2.10705 0
M  V30 2055 H 204.489 -3.02868 -1.61634 0
M  V30 2056 N 206.934 1.1197 -1.10907 0
M  V30 2057 C 207.866 2.17592 -0.720175 0
M  V30 2058 C 208.879 1.60938 0.245495 0
M  V30 2059 O 210.068 1.78476 0.0292245 0
M  V30 2060 C 207.168 3.38873 -0.0427917 0
M  V30 2061 C 206.341 4.25006 -1.03388 0
M  V30 2062 C 205.4 5.24774 -0.387075 0
M  V30 2063 O 204.426 5.59631 -1.03934 0
M  V30 2064 N 205.628 5.74208 0.852407 0
M  V30 2065 H 208.393 2.51567 -1.62893 0
M  V30 2066 H 205.954 1.27439 -0.998543 0
M  V30 2067 H 207.946 4.02703 0.401501 0
M  V30 2068 H 206.516 3.03007 0.768456 0
M  V30 2069 H 205.736 3.57716 -1.65629 0
M  V30 2070 H 207.024 4.79397 -1.70458 0
M  V30 2071 H 206.422 5.48062 1.40161 0
M  V30 2072 H 204.979 6.39901 1.23977 0
M  V30 2073 N 208.412 0.89855 1.29475 0
M  V30 2074 C 209.823 0.572537 1.77705 0
M  V30 2075 C 210.174 -0.911778 1.73727 0
M  V30 2076 O 209.299 -1.71288 1.32247 0
M  V30 2077 C 209.894 1.03252 3.22683 0
M  V30 2078 C 208.453 0.757687 3.68695 0
M  V30 2079 C 207.6 1.20787 2.49612 0
M  V30 2080 H 210.551 1.08139 1.16153 0
M  V30 2081 H 210.572 0.367307 3.78723 0
M  V30 2082 H 210.084 2.11285 3.25546 0
M  V30 2083 H 208.185 -0.310079 3.71308 0
M  V30 2084 H 208.298 1.35476 4.59547 0
M  V30 2085 H 206.662 0.626888 2.46865 0
M  V30 2086 H 207.445 2.29622 2.55203 0
M  V30 2087 N 209.89 -1.43072 0.660911 0
M  V30 2088 C 211.301 -1.84932 0.256348 0
M  V30 2089 C 211.652 -1.55325 -1.19868 0
M  V30 2090 O 210.777 -1.00607 -1.91591 0
M  V30 2091 C 211.372 -3.35684 0.458475 0
M  V30 2092 C 209.931 -3.76245 0.108161 0
M  V30 2093 C 209.078 -2.66749 0.757641 0
M  V30 2094 H 212.029 -1.33116 0.864051 0
M  V30 2095 H 212.05 -3.79365 -0.293683 0
M  V30 2096 H 211.562 -3.572 1.51755 0
M  V30 2097 H 209.663 -3.60338 -0.948014 0
M  V30 2098 H 209.776 -4.76058 0.538992 0
M  V30 2099 H 208.14 -2.53989 0.190185 0
M  V30 2100 H 208.923 -2.91092 1.81989 0
M  V30 2101 N 211.368 -0.403325 -1.52352 0
M  V30 2102 C 212.779 0.0675782 -1.86578 0
M  V30 2103 C 213.13 1.44941 -1.32236 0
M  V30 2104 O 212.255 2.06112 -0.659307 0
M  V30 2105 C 212.85 0.129404 -3.38553 0
M  V30 2106 C 211.409 0.544629 -3.72439 0
M  V30 2107 C 210.556 -0.284551 -2.75836 0
M  V30 2108 H 213.507 -0.620631 -1.46061 0
M  V30 2109 H 213.528 0.94581 -3.68558 0
M  V30 2110 H 213.04 -0.87645 -3.78074 0
M  V30 2111 H 211.141 1.55734 -3.38493 0
M  V30 2112 H 211.254 0.293046 -4.78203 0
M  V30 2113 H 209.618 0.252258 -2.53448 0
M  V30 2114 H 210.401 -1.28865 -3.18196 0
M  V30 2115 N 212.846 1.57033 -0.133567 0
M  V30 2116 C 214.095 1.94861 0.520768 0
M  V30 2117 C 214.408 1.02012 1.66892 0
M  V30 2118 O 215.614 1.29365 2.38699 0
M  V30 2119 C 214.07 3.46362 0.977809 0
M  V30 2120 C 213.678 4.47773 -0.142674 0
M  V30 2121 C 215.422 3.93083 1.60269 0
M  V30 2122 C 213.329 5.90468 0.331883 0
M  V30 2123 H 212.259 0.727453 0.198315 0
M  V30 2124 H 214.91 1.82227 -0.215759 0
M  V30 2125 H 213.292 3.54282 1.7692 0
M  V30 2126 H 214.466 4.51536 -0.919317 0
M  V30 2127 H 212.781 4.10891 -0.675124 0
M  V30 2128 H 215.378 4.97121 1.96914 0
M  V30 2129 H 215.721 3.33876 2.48662 0
M  V30 2130 H 216.254 3.88025 0.876453 0
M  V30 2131 H 212.993 6.53463 -0.516341 0
M  V30 2132 H 212.513 5.90094 1.07469 0
M  V30 2133 H 214.192 6.42179 0.788332 0
M  V30 2134 N 214.325 -0.140222 1.56975 0
M  V30 2135 C 215.255 -1.17456 2.01808 0
M  V30 2136 C 216.236 -1.44415 0.898794 0
M  V30 2137 O 217.421 -1.5522 1.16707 0
M  V30 2138 C 214.551 -2.50607 2.40444 0
M  V30 2139 C 213.505 -2.38155 3.55621 0
M  V30 2140 C 212.831 -3.76078 3.80091 0
M  V30 2141 C 214.131 -1.85991 4.88062 0
M  V30 2142 H 215.825 -0.801743 2.88466 0
M  V30 2143 H 213.371 -0.38422 1.38779 0
M  V30 2144 H 215.324 -3.23197 2.7041 0
M  V30 2145 H 214.048 -2.89737 1.50732 0
M  V30 2146 H 212.707 -1.68016 3.25832 0
M  V30 2147 H 212.355 -4.12656 2.87618 0
M  V30 2148 H 212.055 -3.68606 4.57606 0
M  V30 2149 H 213.579 -4.50206 4.12488 0
M  V30 2150 H 214.993 -2.4838 5.16701 0
M  V30 2151 H 213.39 -1.89393 5.6943 0
M  V30 2152 H 214.46 -0.816023 4.77984 0
M  V30 2153 N 215.803 -1.52179 -0.40978 0
M  V30 2154 C 216.75 -1.75475 -1.49924 0
M  V30 2155 C 217.72 -0.597175 -1.54994 0
M  V30 2156 O 218.905 -0.834655 -1.71575 0
M  V30 2157 C 216.045 -1.9107 -2.87378 0
M  V30 2158 C 215.158 -3.18717 -2.91622 0
M  V30 2159 C 214.293 -3.24747 -4.20372 0
M  V30 2160 C 213.332 -4.46598 -4.18588 0
M  V30 2161 N 212.469 -4.50025 -5.38908 0
M  V30 2162 H 217.309 -2.68458 -1.29361 0
M  V30 2163 H 214.846 -1.33024 -0.627934 0
M  V30 2164 H 216.804 -1.98096 -3.6717 0
M  V30 2165 H 215.434 -1.01469 -3.06437 0
M  V30 2166 H 214.486 -3.20866 -2.04326 0
M  V30 2167 H 215.798 -4.08544 -2.86169 0
M  V30 2168 H 214.952 -3.30841 -5.08556 0
M  V30 2169 H 213.691 -2.32857 -4.28519 0
M  V30 2170 H 212.696 -4.40652 -3.28794 0
M  V30 2171 H 213.921 -5.39783 -4.12081 0
M  V30 2172 H 211.867 -3.61017 -5.47725 0
M  V30 2173 H 211.784 -5.33697 -5.35447 0
M  V30 2174 H 213.052 -4.60347 -6.29048 0
M  V30 2175 N 217.281 0.66697 -1.42791 0
M  V30 2176 C 218.527 1.4291 -1.43891 0
M  V30 2177 C 218.86 1.94114 -0.0578972 0
M  V30 2178 O 218.135 1.71414 0.91911 0
M  V30 2179 C 218.418 2.62049 -2.46987 0
M  V30 2180 C 218.271 2.16426 -3.94309 0
M  V30 2181 C 219.59 3.64266 -2.46978 0
M  V30 2182 H 216.709 0.518306 -0.523954 0
M  V30 2183 H 219.351 0.757321 -1.74255 0
M  V30 2184 H 217.501 3.19361 -2.21225 0
M  V30 2185 H 219.173 1.64221 -4.31079 0
M  V30 2186 H 217.416 1.47925 -4.078 0
M  V30 2187 H 218.087 3.02038 -4.62036 0
M  V30 2188 H 220.563 3.16686 -2.69906 0
M  V30 2189 H 219.439 4.45196 -3.21079 0
M  V30 2190 H 219.7 4.15927 -1.49857 0
M  V30 2191 N 218.759 1.29093 0.90403 0
M  V30 2192 C 220.006 1.16813 1.65411 0
M  V30 2193 C 220.334 -0.28128 1.92455 0
M  V30 2194 O 219.589 -1.22006 1.53013 0
M  V30 2195 C 219.888 1.92224 3.01305 0
M  V30 2196 C 219.554 3.41968 2.93885 0
M  V30 2197 C 218.216 3.82807 2.91569 0
M  V30 2198 C 220.568 4.37409 2.83413 0
M  V30 2199 C 217.896 5.1741 2.76594 0
M  V30 2200 C 220.248 5.72097 2.69977 0
M  V30 2201 C 218.912 6.12199 2.66024 0
M  V30 2202 H 218.182 0.42745 0.605283 0
M  V30 2203 H 220.829 1.59981 1.05254 0
M  V30 2204 H 219.134 1.41635 3.65304 0
M  V30 2205 H 220.831 1.80131 3.58265 0
M  V30 2206 H 217.421 3.09504 2.96488 0
M  V30 2207 H 221.605 4.06813 2.84283 0
M  V30 2208 H 216.861 5.47596 2.71935 0
M  V30 2209 H 221.035 6.45704 2.60844 0
M  V30 2210 H 218.662 7.16448 2.54178 0
M  V30 2211 N 220.237 -1.11381 1.11499 0
M  V30 2212 C 221.185 -2.19522 0.768956 0
M  V30 2213 C 222.179 -1.67693 -0.239857 0
M  V30 2214 O 223.385 -1.79727 -0.0990755 0
M  V30 2215 H 219.76 -0.715711 0.230786 0
M  V30 2216 H 221.731 -2.45954 1.68964 0
M  V30 2217 C 220.48 -3.46945 0.229073 0
M  V30 2218 H 219.803 -3.8718 0.996596 0
M  V30 2219 H 221.243 -4.23993 0.0251441 0
M  V30 2220 C 219.702 -3.2042 -1.04079 0
M  V30 2221 O 220.232 -3.41178 -2.12038 0
M  V30 2222 N 218.438 -2.74151 -0.963823 0
M  V30 2223 H 217.985 -2.57459 -0.0851722 0
M  V30 2224 H 217.943 -2.56781 -1.81414 0
M  V30 2225 N 221.715 -0.905404 -1.28997 0
M  V30 2226 C 223.131 -0.60233 -1.47798 0
M  V30 2227 C 223.331 0.854645 -1.82478 0
M  V30 2228 O 222.387 1.63439 -1.92468 0
M  V30 2229 C 223.7 -1.53306 -2.58685 0
M  V30 2230 C 225.248 -1.53887 -2.72558 0
M  V30 2231 C 225.723 -2.45602 -3.86579 0
M  V30 2232 N 227.214 -2.43681 -3.93921 0
M  V30 2233 C 227.949 -3.11347 -4.81509 0
M  V30 2234 N 227.445 -3.88313 -5.73746 0
M  V30 2235 N 229.238 -3.00476 -4.75048 0
M  V30 2236 H 221.389 -1.84765 -1.04764 0
M  V30 2237 H 223.652 -0.792025 -0.520961 0
M  V30 2238 H 223.358 -2.57141 -2.39941 0
M  V30 2239 H 223.232 -1.25787 -3.55609 0
M  V30 2240 H 225.619 -0.507941 -2.90696 0
M  V30 2241 H 225.7 -1.85447 -1.76191 0
M  V30 2242 H 225.344 -3.48792 -3.69197 0
M  V30 2243 H 225.274 -2.11349 -4.82327 0
M  V30 2244 H 227.765 -1.87767 -3.27951 0
M  V30 2245 H 228.078 -4.36985 -6.37389 0
M  V30 2246 H 226.423 -3.92419 -5.73614 0
M  V30 2247 H 229.614 -2.39858 -4.01977 0
M  V30 2248 H 229.787 -3.53485 -5.43095 0
M  V30 2249 N 223.193 1.4272 -0.668489 0
M  V30 2250 C 224.604 1.84793 -0.266151 0
M  V30 2251 C 224.955 1.55959 1.19043 0
M  V30 2252 O 224.08 1.01622 1.91055 0
M  V30 2253 C 224.675 3.35436 -0.476271 0
M  V30 2254 C 223.234 3.76182 -0.128113 0
M  V30 2255 C 222.381 2.66344 -0.771777 0
M  V30 2256 H 225.332 1.32656 -0.871098 0
M  V30 2257 H 225.353 3.79515 0.273561 0
M  V30 2258 H 224.865 3.5639 -1.53647 0
M  V30 2259 H 222.966 3.60836 0.928891 0
M  V30 2260 H 223.079 4.75766 -0.564231 0
M  V30 2261 H 221.443 2.53885 -0.203652 0
M  V30 2262 H 222.226 2.90123 -1.83531 0
M  V30 2263 N 224.671 0.411399 1.52136 0
M  V30 2264 C 225.92 -0.165009 2.01024 0
M  V30 2265 C 226.233 -1.4603 1.30133 0
M  V30 2266 O 227.439 -2.1181 1.69849 0
M  V30 2267 C 225.895 -0.344618 3.58246 0
M  V30 2268 C 225.503 0.938716 4.38055 0
M  V30 2269 C 227.247 -0.876195 4.15359 0
M  V30 2270 C 225.154 0.726172 5.86925 0
M  V30 2271 H 224.084 -0.0654407 0.751155 0
M  V30 2272 H 226.735 0.537192 1.75461 0
M  V30 2273 H 225.117 -1.10921 3.80148 0
M  V30 2274 H 226.291 1.70963 4.27912 0
M  V30 2275 H 224.606 1.39688 3.92271 0
M  V30 2276 H 227.203 -1.05128 5.24263 0
M  V30 2277 H 227.546 -1.85152 3.7286 0
M  V30 2278 H 228.079 -0.170607 3.97434 0
M  V30 2279 H 224.818 1.67312 6.33788 0
M  V30 2280 H 224.338 -0.00540283 5.998 0
M  V30 2281 H 226.017 0.369231 6.45946 0
M  V30 2282 N 226.149 -1.5696 0.141893 0
M  V30 2283 C 227.079 -2.19516 -0.795936 0
M  V30 2284 C 228.06 -1.14187 -1.26077 0
M  V30 2285 O 229.245 -1.42511 -1.31925 0
M  V30 2286 C 226.375 -2.81272 -2.03723 0
M  V30 2287 C 225.329 -3.92384 -1.70936 0
M  V30 2288 C 224.655 -4.41052 -3.02287 0
M  V30 2289 C 225.955 -5.13403 -0.959954 0
M  V30 2290 H 227.649 -2.98138 -0.274596 0
M  V30 2291 H 225.195 -1.43406 -0.130636 0
M  V30 2292 H 227.148 -3.237 -2.69808 0
M  V30 2293 H 225.872 -1.99973 -2.58221 0
M  V30 2294 H 224.531 -3.50566 -1.07232 0
M  V30 2295 H 224.179 -3.56582 -3.54765 0
M  V30 2296 H 223.879 -5.15993 -2.81114 0
M  V30 2297 H 225.403 -4.86146 -3.69451 0
M  V30 2298 H 226.817 -5.52706 -1.52279 0
M  V30 2299 H 225.214 -5.94073 -0.848357 0
M  V30 2300 H 226.284 -4.84875 0.0492434 0
M  V30 2301 N 227.627 0.131896 -1.57047 0
M  V30 2302 C 228.874 0.841932 -1.84168 0
M  V30 2303 C 229.202 1.8048 -0.725066 0
M  V30 2304 O 228.457 1.93618 0.284692 0
M  V30 2305 C 228.756 1.63703 -3.17704 0
M  V30 2306 C 228.422 0.81961 -4.43388 0
M  V30 2307 C 227.084 0.594148 -4.77518 0
M  V30 2308 C 229.436 0.248977 -5.20605 0
M  V30 2309 C 226.764 -0.212409 -5.86315 0
M  V30 2310 C 229.116 -0.544701 -6.30251 0
M  V30 2311 C 227.78 -0.780599 -6.6292 0
M  V30 2312 H 227.05 0.308085 -0.673917 0
M  V30 2313 H 229.697 0.104867 -1.91213 0
M  V30 2314 H 228.002 2.44464 -3.06177 0
M  V30 2315 H 229.699 2.19015 -3.35907 0
M  V30 2316 H 226.289 1.00542 -4.16641 0
M  V30 2317 H 230.473 0.410408 -4.946 0
M  V30 2318 H 225.729 -0.404524 -6.1006 0
M  V30 2319 H 229.903 -0.993922 -6.89271 0
M  V30 2320 H 227.53 -1.40742 -7.47058 0
M  V30 2321 N 229.106 1.52395 0.401703 0
M  V30 2322 C 230.383 1.57387 1.16141 0
M  V30 2323 C 230.763 0.359359 2.08019 0
M  V30 2324 O 230.111 -0.65326 2.18963 0
M  V30 2325 C 230.321 2.90631 1.93221 0
M  V30 2326 C 231.669 3.43904 2.49028 0
M  V30 2327 O 232.693 2.92421 2.03393 0
M  V30 2328 O 231.552 4.33823 3.32356 0
M  V30 2329 H 228.646 0.634262 0.530698 0
M  V30 2330 H 231.192 1.64725 0.407883 0
M  V30 2331 H 229.964 3.70473 1.25958 0
M  V30 2332 H 229.587 2.8662 2.75563 0
M  V30 2333 N 230.584 -0.659388 1.43143 0
M  V30 2334 C 231.833 -1.41518 1.43721 0
M  V30 2335 C 232.146 -1.95499 0.0628176 0
M  V30 2336 O 233.352 -2.71446 -0.0539683 0
M  V30 2337 C 231.808 -2.5608 2.52885 0
M  V30 2338 C 231.416 -2.08733 3.96402 0
M  V30 2339 C 233.16 -3.3349 2.62649 0
M  V30 2340 C 231.067 -3.20469 4.97045 0
M  V30 2341 H 229.997 -0.531705 0.534608 0
M  V30 2342 H 232.648 -0.712343 1.69109 0
M  V30 2343 H 231.03 -3.28805 2.20688 0
M  V30 2344 H 232.204 -1.43059 4.3803 0
M  V30 2345 H 230.519 -1.44219 3.90627 0
M  V30 2346 H 233.116 -4.16734 3.35017 0
M  V30 2347 H 233.459 -3.8111 1.67513 0
M  V30 2348 H 233.992 -2.67842 2.94118 0
M  V30 2349 H 230.731 -2.77824 5.93712 0
M  V30 2350 H 230.251 -3.84874 4.60034 0
M  V30 2351 H 231.93 -3.85698 5.19467 0
M  V30 2352 N 232.062 -1.29571 -0.897171 0
M  V30 2353 C 233.308 -1.17863 -1.65034 0
M  V30 2354 C 233.641 0.268729 -1.92332 0
M  V30 2355 O 232.916 1.19378 -1.53555 0
M  V30 2356 C 233.199 -1.995 -2.99786 0
M  V30 2357 C 233.052 -3.5239 -2.79538 0
M  V30 2358 C 234.371 -1.82335 -4.00552 0
M  V30 2359 H 231.49 -0.429528 -0.598895 0
M  V30 2360 H 234.132 -1.59072 -1.03905 0
M  V30 2361 H 232.282 -1.64485 -3.51962 0
M  V30 2362 H 233.954 -3.97401 -2.34244 0
M  V30 2363 H 232.197 -3.77187 -2.14273 0
M  V30 2364 H 232.868 -4.04787 -3.75302 0
M  V30 2365 H 235.344 -2.12924 -3.57495 0
M  V30 2366 H 234.22 -2.41801 -4.92771 0
M  V30 2367 H 234.481 -0.779209 -4.35179 0
M  V30 2368 N 233.54 1.10788 -1.12088 0
M  V30 2369 C 234.765 1.87002 -0.896949 0
M  V30 2370 C 235.19 1.79933 0.548261 0
M  V30 2371 O 234.548 1.16662 1.38779 0
M  V30 2372 C 234.596 3.3349 -1.37174 0
M  V30 2373 O 233.7 4.08745 -0.547831 0
M  V30 2374 H 233.041 0.580397 -0.322545 0
M  V30 2375 H 235.571 1.39996 -1.49206 0
M  V30 2376 H 235.581 3.84339 -1.36922 0
M  V30 2377 H 234.256 3.37951 -2.42408 0
M  V30 2378 H 232.833 3.6776 -0.617034 0
M  V30 2379 N 235.018 0.912232 1.28515 0
M  V30 2380 C 236.434 0.610159 1.47476 0
M  V30 2381 C 236.634 -0.844955 1.82928 0
M  V30 2382 O 235.69 -1.62416 1.93332 0
M  V30 2383 C 237.003 1.54675 2.57868 0
M  V30 2384 C 238.551 1.55331 2.71738 0
M  V30 2385 C 239.026 2.47649 3.85272 0
M  V30 2386 N 240.517 2.45767 3.92623 0
M  V30 2387 C 241.252 3.13896 4.79851 0
M  V30 2388 N 240.748 3.9135 5.71679 0
M  V30 2389 N 242.541 3.02991 4.73448 0
M  V30 2390 H 234.692 1.85318 1.03783 0
M  V30 2391 H 236.955 0.794777 0.516753 0
M  V30 2392 H 236.661 2.5841 2.38574 0
M  V30 2393 H 236.535 1.27671 3.54937 0
M  V30 2394 H 238.922 0.52335 2.90422 0
M  V30 2395 H 239.003 1.86378 1.75205 0
M  V30 2396 H 238.647 3.50745 3.67342 0
M  V30 2397 H 238.577 2.13904 4.81199 0
M  V30 2398 H 241.068 1.89503 3.26951 0
M  V30 2399 H 241.381 4.40359 6.35062 0
M  V30 2400 H 239.726 3.95455 5.71524 0
M  V30 2401 H 242.917 2.41987 4.007 0
M  V30 2402 H 243.09 3.5636 5.41213 0
M  V30 2403 N 236.496 -1.42363 0.676048 0
M  V30 2404 C 237.744 -2.01123 0.198437 0
M  V30 2405 C 238.065 -1.53731 -1.19966 0
M  V30 2406 O 237.335 -0.759518 -1.80577 0
M  V30 2407 H 235.915 -0.743678 0.0703721 0
M  V30 2408 H 238.577 -1.74263 0.872837 0
M  V30 2409 H 237.673 -3.11454 0.200686 0
M  V30 2410 N 237.974 -0.419461 -1.51915 0
M  V30 2411 C 239.199 0.154572 -2.06823 0
M  V30 2412 C 239.624 1.3722 -1.28656 0
M  V30 2413 O 238.982 1.78461 -0.319583 0
M  V30 2414 C 239.03 0.473172 -3.57482 0
M  V30 2415 O 238.134 1.56255 -3.81652 0
M  V30 2416 H 237.475 0.0096924 -0.663929 0
M  V30 2417 H 240.005 -0.595642 -1.95738 0
M  V30 2418 H 240.015 0.728825 -4.01438 0
M  V30 2419 H 238.69 -0.416873 -4.13805 0
M  V30 2420 H 237.267 1.29825 -3.49571 0
M  V30 2421 N 239.452 1.56882 -0.150215 0
M  V30 2422 C 240.68 2.00593 0.506948 0
M  V30 2423 C 241.095 1.03033 1.58208 0
M  V30 2424 O 240.452 0.0278396 1.82479 0
M  V30 2425 C 240.503 3.44209 1.10465 0
M  V30 2426 O 240.224 4.3804 0.0724636 0
M  V30 2427 C 241.725 4.03214 1.84211 0
M  V30 2428 H 238.945 0.65795 0.13169 0
M  V30 2429 H 241.489 2.03018 -0.245743 0
M  V30 2430 H 239.644 3.42625 1.80795 0
M  V30 2431 H 240.058 5.22007 0.510793 0
M  V30 2432 H 241.532 5.0569 2.21318 0
M  V30 2433 H 242.009 3.44107 2.72923 0
M  V30 2434 H 242.615 4.08437 1.18572 0
M  V30 2435 N 240.93 -0.123565 1.57115 0
M  V30 2436 C 241.893 -1.13583 1.99076 0
M  V30 2437 C 242.893 -1.34564 0.880296 0
M  V30 2438 O 244.083 -1.31158 1.14644 0
M  V30 2439 C 241.215 -2.49128 2.32698 0
M  V30 2440 H 242.408 -0.775287 2.89706 0
M  V30 2441 H 239.961 -0.36771 1.51913 0
M  V30 2442 H 240.696 -2.90111 1.44934 0
M  V30 2443 H 240.481 -2.35255 3.13684 0
M  V30 2444 H 241.971 -3.2199 2.65918 0
M  V30 2445 N 242.408 -1.52605 -0.393616 0
M  V30 2446 C 243.685 -1.58001 -1.15304 0
M  V30 2447 C 244.065 -0.370385 -2.07825 0
M  V30 2448 O 243.413 0.641638 -2.19306 0
M  V30 2449 C 243.623 -2.91652 -1.91677 0
M  V30 2450 C 244.971 -3.4522 -2.47201 0
M  V30 2451 O 245.995 -2.93495 -2.01839 0
M  V30 2452 O 244.854 -4.35579 -3.3005 0
M  V30 2453 H 241.948 -0.637068 -0.527327 0
M  V30 2454 H 244.494 -1.64939 -0.399141 0
M  V30 2455 H 243.266 -3.71136 -1.23992 0
M  V30 2456 H 242.889 -2.88077 -2.74039 0
M  V30 2457 N 243.887 0.651787 -1.4349 0
M  V30 2458 C 244.817 1.77621 -1.51569 0
M  V30 2459 C 245.798 1.66022 -0.370253 0
M  V30 2460 O 246.983 1.85095 -0.587658 0
M  V30 2461 C 244.113 3.16056 -1.43966 0
M  V30 2462 C 243.067 3.4242 -2.56774 0
M  V30 2463 C 242.393 4.8067 -2.34223 0
M  V30 2464 C 243.693 3.37023 -3.99015 0
M  V30 2465 H 245.387 1.71117 -2.45681 0
M  V30 2466 H 242.933 0.821825 -1.18246 0
M  V30 2467 H 244.886 3.94472 -1.48221 0
M  V30 2468 H 243.61 3.23293 -0.463586 0
M  V30 2469 H 242.269 2.66375 -2.51873 0
M  V30 2470 H 241.917 4.84585 -1.34856 0
M  V30 2471 H 241.617 4.9927 -3.09844 0
M  V30 2472 H 243.141 5.61342 -2.40265 0
M  V30 2473 H 244.555 4.05374 -4.05395 0
M  V30 2474 H 242.952 3.67159 -4.74673 0
M  V30 2475 H 244.022 2.3518 -4.2405 0
M  V30 2476 N 245.365 1.30045 0.890287 0
M  V30 2477 C 246.642 1.09227 1.62262 0
M  V30 2478 C 247.022 -0.360305 2.08002 0
M  V30 2479 O 246.37 -1.35084 1.84295 0
M  V30 2480 C 246.58 2.08835 2.79623 0
M  V30 2481 C 247.928 2.40266 3.50082 0
M  V30 2482 O 248.952 2.07104 2.89804 0
M  V30 2483 O 247.811 2.96967 4.58773 0
M  V30 2484 H 244.905 0.419132 0.712922 0
M  V30 2485 H 247.451 1.41451 0.937529 0
M  V30 2486 H 246.223 3.06633 2.43089 0
M  V30 2487 H 245.846 1.77397 3.55832 0
M  V30 2488 N 246.843 -1.10192 1.12674 0
M  V30 2489 C 248.091 -1.81845 0.881861 0
M  V30 2490 C 248.412 -1.85737 -0.593867 0
M  V30 2491 O 247.682 -1.33724 -1.4316 0
M  V30 2492 H 246.262 -0.673432 0.323261 0
M  V30 2493 H 248.924 -1.33316 1.42172 0
M  V30 2494 H 248.02 -2.85288 1.2656 0
M  V30 2495 N 248.321 -0.919034 -1.28029 0
M  V30 2496 C 249.251 -0.428581 -2.29533 0
M  V30 2497 C 250.232 0.50659 -1.62381 0
M  V30 2498 O 251.417 0.413195 -1.89753 0
M  V30 2499 C 248.547 0.327388 -3.45753 0
M  V30 2500 C 247.501 -0.519137 -4.2484 0
M  V30 2501 C 246.827 0.365486 -5.33449 0
M  V30 2502 C 248.127 -1.77914 -4.91064 0
M  V30 2503 H 249.821 -1.27687 -2.70807 0
M  V30 2504 H 247.367 -0.615428 -1.30186 0
M  V30 2505 H 249.32 0.681378 -4.15855 0
M  V30 2506 H 248.044 1.20963 -3.03374 0
M  V30 2507 H 246.703 -0.855717 -3.56473 0
M  V30 2508 H 246.351 1.24642 -4.87312 0
M  V30 2509 H 246.051 -0.197356 -5.87268 0
M  V30 2510 H 247.575 0.715241 -6.06396 0
M  V30 2511 H 248.989 -1.49374 -5.53498 0
M  V30 2512 H 247.386 -2.2848 -5.54903 0
M  V30 2513 H 248.456 -2.50382 -4.15255 0
M  V30 2514 N 249.799 1.42003 -0.683588 0
M  V30 2515 C 250.729 2.33487 -0.024866 0
M  V30 2516 C 251.71 1.51163 0.779975 0
M  V30 2517 O 252.895 1.79739 0.735362 0
M  V30 2518 C 250.025 3.3487 0.920836 0
M  V30 2519 C 248.979 4.27414 0.223958 0
M  V30 2520 C 248.305 5.19074 1.2832 0
M  V30 2521 C 249.605 5.14445 -0.90242 0
M  V30 2522 H 251.299 2.88819 -0.788921 0
M  V30 2523 H 248.845 1.38873 -0.38083 0
M  V30 2524 H 250.798 3.97787 1.39081 0
M  V30 2525 H 249.522 2.77861 1.71642 0
M  V30 2526 H 248.181 3.65904 -0.225864 0
M  V30 2527 H 247.829 4.58387 2.071 0
M  V30 2528 H 247.529 5.81822 0.821995 0
M  V30 2529 H 249.053 5.84867 1.75392 0
M  V30 2530 H 250.467 5.70998 -0.513272 0
M  V30 2531 H 248.864 5.86072 -1.28997 0
M  V30 2532 H 249.934 4.52322 -1.74737 0
M  V30 2533 N 251.277 0.427512 1.51691 0
M  V30 2534 C 252.688 -0.0378867 1.86662 0
M  V30 2535 C 253.039 -1.42819 1.34525 0
M  V30 2536 O 252.164 -2.05037 0.692014 0
M  V30 2537 C 252.759 -0.0755266 3.38716 0
M  V30 2538 C 251.318 -0.485309 3.73258 0
M  V30 2539 C 250.465 0.328399 2.75349 0
M  V30 2540 H 253.416 0.64379 1.45055 0
M  V30 2541 H 253.437 -0.887056 3.70016 0
M  V30 2542 H 252.949 0.936487 3.76632 0
M  V30 2543 H 251.05 -1.50329 3.40928 0
M  V30 2544 H 251.163 -0.21693 4.78609 0
M  V30 2545 H 249.527 -0.211905 2.53817 0
M  V30 2546 H 250.31 1.3391 3.16106 0
M  V30 2547 N 252.755 -1.56801 0.158532 0
M  V30 2548 C 254.002 -1.9649 -0.489679 0
M  V30 2549 C 254.33 -1.04394 -1.6411 0
M  V30 2550 O 253.585 -0.0754401 -1.95555 0
M  V30 2551 C 253.884 -3.4235 -1.02623 0
M  V30 2552 C 253.55 -4.50899 0.00794526 0
M  V30 2553 C 252.212 -4.80312 0.292207 0
M  V30 2554 C 254.564 -5.16333 0.710584 0
M  V30 2555 C 251.892 -5.72461 1.28472 0
M  V30 2556 C 254.244 -6.09553 1.69199 0
M  V30 2557 C 252.908 -6.37339 1.98383 0
M  V30 2558 H 252.178 -0.719009 -0.179186 0
M  V30 2559 H 254.825 -1.8989 0.247798 0
M  V30 2560 H 253.13 -3.45838 -1.84128 0
M  V30 2561 H 254.827 -3.70393 -1.53656 0
M  V30 2562 H 251.417 -4.28015 -0.22379 0
M  V30 2563 H 255.601 -4.93732 0.504174 0
M  V30 2564 H 250.857 -5.92278 1.51714 0
M  V30 2565 H 255.031 -6.59327 2.24189 0
M  V30 2566 H 252.658 -7.08546 2.7544 0
M  V30 2567 N 254.233 0.115231 -1.57178 0
M  V30 2568 C 255.163 1.1423 -2.03651 0
M  V30 2569 C 256.144 1.42967 -0.921655 0
M  V30 2570 O 257.329 1.53343 -1.19162 0
M  V30 2571 C 254.459 2.4675 -2.44401 0
M  V30 2572 C 253.413 2.32467 -3.59365 0
M  V30 2573 C 252.739 3.69984 -3.86026 0
M  V30 2574 C 254.039 1.78203 -4.90959 0
M  V30 2575 H 255.733 0.755749 -2.89705 0
M  V30 2576 H 253.279 0.362093 -1.39373 0
M  V30 2577 H 255.232 3.18854 -2.75517 0
M  V30 2578 H 253.956 2.87302 -1.55322 0
M  V30 2579 H 252.615 1.62811 -3.28463 0
M  V30 2580 H 252.263 4.08028 -2.94147 0
M  V30 2581 H 251.963 3.61279 -4.63412 0
M  V30 2582 H 253.487 4.43587 -4.19599 0
M  V30 2583 H 254.901 2.40128 -5.20587 0
M  V30 2584 H 253.298 1.8031 -5.72371 0
M  V30 2585 H 254.368 0.739876 -4.79222 0
M  V30 2586 N 255.711 1.52812 0.385517 0
M  V30 2587 C 256.641 1.80808 1.47752 0
M  V30 2588 C 257.622 0.660318 1.5676 0
M  V30 2589 O 258.807 0.908246 1.71652 0
M  V30 2590 C 255.937 1.98008 2.85324 0
M  V30 2591 C 254.891 3.13709 2.91154 0
M  V30 2592 C 254.217 3.16169 4.31209 0
M  V30 2593 C 255.517 4.52709 2.60483 0
M  V30 2594 H 257.211 2.72253 1.24573 0
M  V30 2595 H 254.757 1.31003 0.597839 0
M  V30 2596 H 256.71 2.16176 3.61726 0
M  V30 2597 H 255.434 1.03255 3.09848 0
M  V30 2598 H 254.093 2.95329 2.17201 0
M  V30 2599 H 253.741 2.19092 4.52778 0
M  V30 2600 H 253.441 3.93894 4.36029 0
M  V30 2601 H 254.965 3.36496 5.09512 0
M  V30 2602 H 256.379 4.71173 3.26602 0
M  V30 2603 H 254.776 5.32528 2.76648 0
M  V30 2604 H 255.846 4.59186 1.55809 0
M  V30 2605 N 257.189 -0.644168 1.43834 0
M  V30 2606 C 258.417 -1.43147 1.49387 0
M  V30 2607 C 258.832 -1.88452 0.114583 0
M  V30 2608 O 258.189 -1.60047 -0.876989 0
M  V30 2609 C 258.24 -2.66046 2.44748 0
M  V30 2610 O 257.961 -2.22633 3.77314 0
M  V30 2611 C 259.462 -3.59311 2.59635 0
M  V30 2612 H 256.682 -0.439447 0.507077 0
M  V30 2613 H 259.226 -0.78895 1.88669 0
M  V30 2614 H 257.381 -3.26418 2.08638 0
M  V30 2615 H 257.795 -3.02216 4.28679 0
M  V30 2616 H 259.269 -4.42187 3.30416 0
M  V30 2617 H 259.746 -4.07259 1.64427 0
M  V30 2618 H 260.352 -3.04816 2.96593 0
M  V30 2619 N 258.668 -1.30515 -0.883378 0
M  V30 2620 C 259.618 -1.13641 -1.9766 0
M  V30 2621 C 260.602 -0.0511314 -1.60819 0
M  V30 2622 O 261.794 -0.274623 -1.74857 0
M  V30 2623 C 258.923 -0.831976 -3.33066 0
M  V30 2624 C 258.009 -1.95759 -3.76217 0
M  V30 2625 N 258.4 -3.20313 -3.9145 0
M  V30 2626 C 256.698 -1.85431 -4.05625 0
M  V30 2627 C 257.399 -3.93856 -4.2808 0
M  V30 2628 N 256.375 -3.21919 -4.38029 0
M  V30 2629 H 260.177 -2.08106 -2.07531 0
M  V30 2630 H 257.691 -1.21877 -1.0733 0
M  V30 2631 H 259.688 -0.692102 -4.11115 0
M  V30 2632 H 258.348 0.104588 -3.24532 0
M  V30 2633 H 259.359 -3.55583 -3.76538 0
M  V30 2634 H 256.036 -0.991531 -4.05555 0
M  V30 2635 H 257.426 -5.01125 -4.47575 0
M  V30 2636 N 260.146 1.09593 -1.13257 0
M  V30 2637 C 261.093 2.1618 -0.808381 0
M  V30 2638 C 262.063 1.64517 0.228754 0
M  V30 2639 O 263.248 1.9053 0.101381 0
M  V30 2640 C 260.388 3.43973 -0.278675 0
M  V30 2641 C 259.501 4.09545 -1.37466 0
M  V30 2642 C 258.636 5.25088 -0.803479 0
M  V30 2643 C 257.675 5.82579 -1.87799 0
M  V30 2644 N 256.812 6.89486 -1.32488 0
M  V30 2645 H 261.652 2.43254 -1.72138 0
M  V30 2646 H 259.189 1.19392 -0.859294 0
M  V30 2647 H 261.147 4.17174 0.0465583 0
M  V30 2648 H 259.777 3.17223 0.597459 0
M  V30 2649 H 258.829 3.34226 -1.81652 0
M  V30 2650 H 260.141 4.48307 -2.18684 0
M  V30 2651 H 259.295 6.05178 -0.429427 0
M  V30 2652 H 258.034 4.87684 0.0397956 0
M  V30 2653 H 257.039 5.01152 -2.26113 0
M  V30 2654 H 258.264 6.22045 -2.72463 0
M  V30 2655 H 256.21 6.54064 -0.503575 0
M  V30 2656 H 256.127 7.27007 -2.07355 0
M  V30 2657 H 257.395 7.73336 -0.978336 0
M  V30 2658 N 261.624 0.925811 1.2754 0
M  V30 2659 C 262.571 0.422045 2.26908 0
M  V30 2660 C 263.541 -0.510029 1.58076 0
M  V30 2661 O 264.726 -0.429599 1.85901 0
M  V30 2662 C 261.866 -0.320837 3.43605 0
M  V30 2663 C 260.979 0.64513 4.27156 0
M  V30 2664 C 260.114 -0.117405 5.3107 0
M  V30 2665 C 259.153 0.841391 6.0629 0
M  V30 2666 N 258.29 0.111604 7.02011 0
M  V30 2667 H 263.13 1.27441 2.69375 0
M  V30 2668 H 260.667 0.639697 1.32462 0
M  V30 2669 H 262.625 -0.76785 4.10073 0
M  V30 2670 H 261.255 -1.13745 3.02096 0
M  V30 2671 H 260.307 1.21067 3.6062 0
M  V30 2672 H 261.619 1.37797 4.79389 0
M  V30 2673 H 260.773 -0.624422 6.03478 0
M  V30 2674 H 259.512 -0.883219 4.79636 0
M  V30 2675 H 258.517 1.35967 5.32722 0
M  V30 2676 H 259.742 1.60696 6.59813 0
M  V30 2677 H 257.688 -0.635999 6.5291 0
M  V30 2678 H 257.605 0.784044 7.51923 0
M  V30 2679 H 258.873 -0.374823 7.78598 0
M  V30 2680 N 263.102 -1.41638 0.69111 0
M  V30 2681 C 264.518 -1.55435 0.362224 0
M  V30 2682 C 264.718 -1.66754 -1.13117 0
M  V30 2683 O 263.774 -1.64348 -1.91692 0
M  V30 2684 C 265.087 -2.79588 1.10684 0
M  V30 2685 C 266.635 -2.9338 1.09075 0
M  V30 2686 C 267.11 -4.20414 1.81703 0
M  V30 2687 N 268.601 -4.27362 1.7865 0
M  V30 2688 C 269.336 -5.24507 2.31689 0
M  V30 2689 N 268.832 -6.27708 2.93179 0
M  V30 2690 N 270.625 -5.16416 2.2197 0
M  V30 2691 H 262.776 -1.32536 1.65976 0
M  V30 2692 H 265.039 -0.639115 0.700168 0
M  V30 2693 H 264.745 -2.77419 2.16175 0
M  V30 2694 H 264.619 -3.70973 0.682545 0
M  V30 2695 H 267.006 -2.95067 0.0441238 0
M  V30 2696 H 267.087 -2.0318 1.55407 0
M  V30 2697 H 266.731 -4.19488 2.86343 0
M  V30 2698 H 266.661 -5.09578 1.32808 0
M  V30 2699 H 269.152 -3.53415 1.33815 0
M  V30 2700 H 269.465 -6.98217 3.31229 0
M  V30 2701 H 267.81 -6.28223 2.97255 0
M  V30 2702 H 271.001 -4.34716 1.73607 0
M  V30 2703 H 271.174 -5.91958 2.63609 0
M  V30 2704 N 264.58 -0.43555 -1.51462 0
M  V30 2705 C 265.51 0.367376 -2.30592 0
M  V30 2706 C 266.491 1.02263 -1.35928 0
M  V30 2707 O 267.676 1.02661 -1.64847 0
M  V30 2708 C 264.806 1.46983 -3.14664 0
M  V30 2709 C 263.76 0.938161 -4.17591 0
M  V30 2710 C 263.086 2.13622 -4.90173 0
M  V30 2711 C 264.386 -0.0261621 -5.22293 0
M  V30 2712 H 266.08 -0.292969 -2.97963 0
M  V30 2713 H 263.626 -0.14234 -1.43295 0
M  V30 2714 H 265.579 2.03873 -3.688 0
M  V30 2715 H 264.303 2.15843 -2.4511 0
M  V30 2716 H 262.962 0.391481 -3.64504 0
M  V30 2717 H 262.61 2.81098 -4.17124 0
M  V30 2718 H 262.31 1.78688 -5.59772 0
M  V30 2719 H 263.834 2.7107 -5.47132 0
M  V30 2720 H 265.248 0.452384 -5.71512 0
M  V30 2721 H 263.645 -0.287992 -5.99409 0
M  V30 2722 H 264.715 -0.963391 -4.75233 0
M  V30 2723 N 266.058 1.56714 -0.166846 0
M  V30 2724 C 267.286 2.0112 0.485644 0
M  V30 2725 C 267.701 1.04705 1.57106 0
M  V30 2726 O 267.058 0.0471923 1.82439 0
M  V30 2727 C 267.109 3.45361 1.06808 0
M  V30 2728 O 266.83 4.38092 0.0259995 0
M  V30 2729 C 268.331 4.05145 1.79924 0
M  V30 2730 H 265.551 0.65931 0.124704 0
M  V30 2731 H 268.095 2.02746 -0.267262 0
M  V30 2732 H 266.25 3.44524 1.7715 0
M  V30 2733 H 266.664 5.22519 0.455398 0
M  V30 2734 H 268.138 5.08009 2.15942 0
M  V30 2735 H 268.615 3.46982 2.69258 0
M  V30 2736 H 269.221 4.09672 1.14234 0
M  V30 2737 N 267.536 -0.106894 1.57237 0
M  V30 2738 C 268.813 -0.843526 1.76477 0
M  V30 2739 C 269.193 -1.97499 0.745464 0
M  V30 2740 O 268.541 -2.27357 -0.228306 0
M  V30 2741 C 268.751 -1.34903 3.21873 0
M  V30 2742 C 270.099 -1.79654 3.8472 0
M  V30 2743 O 271.123 -1.44554 3.2555 0
M  V30 2744 O 269.982 -2.44515 4.88748 0
M  V30 2745 H 267.076 -0.401468 0.723016 0
M  V30 2746 H 269.622 -0.0896927 1.69463 0
M  V30 2747 H 268.394 -0.53781 3.87586 0
M  V30 2748 H 268.017 -2.16522 3.33473 0
M  V30 2749 N 269.014 -1.53014 -0.377408 0
M  V30 2750 C 269.924 -1.81557 -1.48574 0
M  V30 2751 C 270.94 -0.703102 -1.59162 0
M  V30 2752 O 272.116 -0.99192 -1.75279 0
M  V30 2753 C 269.181 -1.9889 -2.83978 0
M  V30 2754 C 268.242 -3.22801 -2.83016 0
M  V30 2755 C 267.475 -3.39298 -4.11962 0
M  V30 2756 O 267.698 -2.60345 -5.0752 0
M  V30 2757 O 266.632 -4.32604 -4.18494 0
M  V30 2758 H 270.458 -2.75695 -1.27382 0
M  V30 2759 H 268.043 -1.38248 -0.566373 0
M  V30 2760 H 269.925 -2.11931 -3.6423 0
M  V30 2761 H 268.6 -1.07942 -3.05172 0
M  V30 2762 H 267.507 -3.15193 -2.01505 0
M  V30 2763 H 268.84 -4.13632 -2.66775 0
M  V30 2764 N 270.492 0.636531 -1.44174 0
M  V30 2765 C 271.402 1.77754 -1.53103 0
M  V30 2766 C 272.418 1.68928 -0.417034 0
M  V30 2767 O 273.594 1.89801 -0.6736 0
M  V30 2768 C 270.659 3.14115 -1.46741 0
M  V30 2769 C 269.72 3.34612 -2.68948 0
M  V30 2770 C 268.953 4.64467 -2.6288 0
M  V30 2771 O 269.176 5.44919 -1.68581 0
M  V30 2772 O 268.11 4.87049 -3.53648 0
M  V30 2773 H 271.936 1.73174 -2.49489 0
M  V30 2774 H 269.521 0.79709 -1.2636 0
M  V30 2775 H 271.403 3.95412 -1.45696 0
M  V30 2776 H 270.078 3.19249 -0.534975 0
M  V30 2777 H 268.985 2.53014 -2.75562 0
M  V30 2778 H 270.318 3.34336 -3.61221 0
M  V30 2779 N 271.97 1.30982 0.876444 0
M  V30 2780 C 273.217 1.20296 1.62896 0
M  V30 2781 C 273.545 -0.240395 1.93009 0
M  V30 2782 O 272.8 -1.18733 1.55567 0
M  V30 2783 C 273.099 1.98572 2.9716 0
M  V30 2784 C 272.765 3.48125 2.86566 0
M  V30 2785 C 271.427 3.88905 2.83383 0
M  V30 2786 C 273.779 4.43322 2.74071 0
M  V30 2787 C 271.107 5.2316 2.65556 0
M  V30 2788 C 273.459 5.77695 2.57781 0
M  V30 2789 C 272.123 6.17704 2.52979 0
M  V30 2790 H 271.393 0.440193 0.59608 0
M  V30 2791 H 274.04 1.62177 1.01837 0
M  V30 2792 H 272.345 1.49352 3.62217 0
M  V30 2793 H 274.042 1.8769 3.54364 0
M  V30 2794 H 270.632 3.15723 2.89856 0
M  V30 2795 H 274.816 4.12752 2.75589 0
M  V30 2796 H 270.072 5.53241 2.60259 0
M  V30 2797 H 274.246 6.51091 2.47089 0
M  V30 2798 H 271.873 7.21678 2.38924 0
M  V30 2799 N 273.449 -1.08991 1.13837 0
M  V30 2800 C 274.865 -1.33312 0.877506 0
M  V30 2801 C 275.065 -1.95587 -0.48456 0
M  V30 2802 O 274.121 -2.20509 -1.23013 0
M  V30 2803 C 275.434 -2.24045 2.0056 0
M  V30 2804 C 276.982 -2.37542 2.03821 0
M  V30 2805 C 277.457 -3.31614 3.15905 0
M  V30 2806 N 278.948 -3.39189 3.15445 0
M  V30 2807 C 279.683 -4.11992 3.98811 0
M  V30 2808 N 279.179 -4.87553 4.92203 0
M  V30 2809 N 280.972 -4.07762 3.86894 0
M  V30 2810 H 273.123 -0.669456 2.01574 0
M  V30 2811 H 275.386 -0.357482 0.878015 0
M  V30 2812 H 275.092 -1.85521 2.98789 0
M  V30 2813 H 274.966 -3.24466 1.92359 0
M  V30 2814 H 277.353 -2.75327 1.06202 0
M  V30 2815 H 277.434 -1.36884 2.16093 0
M  V30 2816 H 277.078 -2.94551 4.13766 0
M  V30 2817 H 277.008 -4.32186 3.0087 0
M  V30 2818 H 279.499 -2.85314 2.47799 0
M  V30 2819 H 279.812 -5.40549 5.52292 0
M  V30 2820 H 278.157 -4.86627 4.96205 0
M  V30 2821 H 281.348 -3.47833 3.13257 0
M  V30 2822 H 281.521 -4.64238 4.52092 0
M  V30 2823 N 274.927 -0.932562 -1.27047 0
M  V30 2824 C 275.837 -0.441219 -2.30414 0
M  V30 2825 C 276.853 0.480525 -1.67233 0
M  V30 2826 O 278.029 0.362151 -1.98117 0
M  V30 2827 C 275.094 0.293651 -3.45454 0
M  V30 2828 C 274.155 -0.663601 -4.2414 0
M  V30 2829 C 273.388 0.0362932 -5.33688 0
M  V30 2830 O 273.611 1.2548 -5.56427 0
M  V30 2831 O 272.545 -0.638015 -5.98509 0
M  V30 2832 H 276.371 -1.29962 -2.74488 0
M  V30 2833 H 273.956 -0.6981 -1.32087 0
M  V30 2834 H 275.838 0.707951 -4.15411 0
M  V30 2835 H 274.513 1.12758 -3.03426 0
M  V30 2836 H 273.42 -1.12768 -3.56699 0
M  V30 2837 H 274.753 -1.46489 -4.69896 0
M  V30 2838 N 276.405 1.4127 -0.698611 0
M  V30 2839 C 277.816 1.84187 -0.305289 0
M  V30 2840 C 278.167 1.58449 1.15708 0
M  V30 2841 O 277.292 1.05651 1.88856 0
M  V30 2842 C 277.887 3.3435 -0.547314 0
M  V30 2843 C 276.446 3.75826 -0.207878 0
M  V30 2844 C 275.593 2.64647 -0.828099 0
M  V30 2845 H 278.544 1.30778 -0.89904 0
M  V30 2846 H 278.565 3.8001 0.192998 0
M  V30 2847 H 278.077 3.53051 -1.61172 0
M  V30 2848 H 276.178 3.62725 0.852143 0
M  V30 2849 H 276.291 4.74462 -0.665021 0
M  V30 2850 H 274.655 2.53395 -0.257458 0
M  V30 2851 H 275.438 2.86165 -1.89643 0
M  V30 2852 N 277.883 0.443576 1.51229 0
M  V30 2853 C 279.108 -0.121648 2.07043 0
M  V30 2854 C 279.533 -1.35156 1.30823 0
M  V30 2855 O 278.891 -1.7793 0.347934 0
M  V30 2856 C 278.939 -0.41624 3.5819 0
M  V30 2857 O 278.043 -1.50163 3.8409 0
M  V30 2858 H 277.384 0.000871367 0.663999 0
M  V30 2859 H 279.914 0.626706 1.94765 0
M  V30 2860 H 279.924 -0.664867 4.02546 0
M  V30 2861 H 278.599 0.482653 4.1309 0
M  V30 2862 H 277.176 -1.24248 3.51592 0
M  V30 2863 N 279.361 -1.56624 0.175154 0
M  V30 2864 C 280.589 -2.01374 -0.474971 0
M  V30 2865 C 281.004 -1.05537 -1.56548 0
M  V30 2866 O 280.361 -0.0568668 -1.82411 0
M  V30 2867 C 280.412 -3.45923 -1.04975 0
M  V30 2868 O 280.133 -4.381 -0.00276605 0
M  V30 2869 C 281.634 -4.06093 -1.77773 0
M  V30 2870 H 278.854 -0.659962 -0.121206 0
M  V30 2871 H 281.398 -2.02601 0.27801 0
M  V30 2872 H 279.553 -3.45458 -1.75321 0
M  V30 2873 H 279.967 -5.22753 -0.427681 0
M  V30 2874 H 281.441 -5.09147 -2.13245 0
M  V30 2875 H 281.918 -3.48405 -2.67414 0
M  V30 2876 H 282.524 -4.10272 -1.12059 0
M  V30 2877 N 280.839 0.0985539 -1.57292 0
M  V30 2878 C 282.087 0.801092 -1.85545 0
M  V30 2879 C 282.408 1.79438 -0.763353 0
M  V30 2880 O 281.678 1.94763 0.21073 0
M  V30 2881 H 280.258 0.29884 -0.684619 0
M  V30 2882 H 282.92 0.0810064 -1.94732 0
M  V30 2883 H 282.016 1.3338 -2.82163 0
M  V30 2884 N 282.317 1.53212 0.369288 0
M  V30 2885 C 283.264 1.79388 1.45219 0
M  V30 2886 C 284.234 0.638059 1.53356 0
M  V30 2887 O 285.419 0.879852 1.69302 0
M  V30 2888 C 282.559 1.98623 2.82211 0
M  V30 2889 C 281.672 3.26337 2.8307 0
M  V30 2890 C 280.807 3.35779 4.11614 0
M  V30 2891 C 279.846 4.5754 4.06601 0
M  V30 2892 N 278.983 4.64155 5.26787 0
M  V30 2893 H 283.823 2.71794 1.22198 0
M  V30 2894 H 281.36 1.34642 0.592444 0
M  V30 2895 H 283.318 2.07761 3.61789 0
M  V30 2896 H 281.948 1.09558 3.03639 0
M  V30 2897 H 281 3.26171 1.95747 0
M  V30 2898 H 282.312 4.15988 2.75237 0
M  V30 2899 H 281.466 3.44208 4.99606 0
M  V30 2900 H 280.205 2.44137 4.22195 0
M  V30 2901 H 279.21 4.49215 3.16996 0
M  V30 2902 H 280.435 5.50519 3.97625 0
M  V30 2903 H 278.381 3.75413 5.3796 0
M  V30 2904 H 278.298 5.47706 5.21109 0
M  V30 2905 H 279.566 4.76863 6.16621 0
M  V30 2906 N 283.795 -0.628877 1.44509 0
M  V30 2907 C 285.023 -1.41554 1.50897 0
M  V30 2908 C 285.438 -1.8832 0.134564 0
M  V30 2909 O 284.795 -1.60969 -0.859965 0
M  V30 2910 C 284.846 -2.63435 2.47556 0
M  V30 2911 O 284.567 -2.18619 3.79654 0
M  V30 2912 C 286.068 -3.56537 2.63431 0
M  V30 2913 H 283.288 -0.434044 0.511709 0
M  V30 2914 H 285.832 -0.768895 1.89495 0
M  V30 2915 H 283.987 -3.24187 2.12089 0
M  V30 2916 H 284.401 -2.97652 4.31861 0
M  V30 2917 H 285.875 -4.38657 3.35088 0
M  V30 2918 H 286.352 -4.05493 1.68738 0
M  V30 2919 H 286.958 -3.01653 2.9981 0
M  V30 2920 N 285.273 -1.31445 -0.869486 0
M  V30 2921 C 286.513 -1.22458 -1.63656 0
M  V30 2922 C 286.877 0.213846 -1.90805 0
M  V30 2923 O 288.078 0.427212 -2.65383 0
M  V30 2924 C 286.349 -2.04564 -2.93067 0
M  V30 2925 S 287.908 -2.12445 -3.83944 0
M  V30 2926 H 284.726 -0.436145 -0.561514 0
M  V30 2927 H 287.328 -1.66114 -1.03085 0
M  V30 2928 H 286.032 -3.0816 -2.71045 0
M  V30 2929 H 285.563 -1.6163 -3.58663 0
M  V30 2930 H 287.578 -1.26312 -4.79854 0
M  V30 2931 N 286.751 1.08385 -1.14413 0
M  V30 2932 C 287.681 2.17321 -0.854044 0
M  V30 2933 C 288.662 1.69024 0.191049 0
M  V30 2934 O 289.847 1.94141 0.0476779 0
M  V30 2935 C 286.977 3.45719 -0.330983 0
M  V30 2936 C 285.931 4.07409 -1.31155 0
M  V30 2937 C 285.257 5.30762 -0.64778 0
M  V30 2938 C 286.557 4.48665 -2.67388 0
M  V30 2939 H 288.251 2.41845 -1.76498 0
M  V30 2940 H 285.797 1.16233 -0.850051 0
M  V30 2941 H 287.75 4.21241 -0.115645 0
M  V30 2942 H 286.474 3.2075 0.615381 0
M  V30 2943 H 285.133 3.33919 -1.51306 0
M  V30 2944 H 284.781 5.02078 0.304398 0
M  V30 2945 H 284.481 5.72992 -1.30207 0
M  V30 2946 H 286.005 6.08998 -0.441972 0
M  V30 2947 H 287.419 5.15364 -2.51143 0
M  V30 2948 H 285.816 5.01814 -3.29093 0
M  V30 2949 H 286.886 3.60543 -3.24248 0
M  V30 2950 N 288.23 0.939286 1.26551 0
M  V30 2951 C 289.641 0.628782 1.75793 0
M  V30 2952 C 289.992 -0.856046 1.7654 0
M  V30 2953 O 289.117 -1.66994 1.3763 0
M  V30 2954 C 289.712 1.13465 3.19235 0
M  V30 2955 C 288.271 0.874601 3.66098 0
M  V30 2956 C 287.418 1.28667 2.45642 0
M  V30 2957 H 290.369 1.1178 1.12654 0
M  V30 2958 H 290.39 0.487609 3.77363 0
M  V30 2959 H 289.902 2.21535 3.1866 0
M  V30 2960 H 288.003 -0.191793 3.72106 0
M  V30 2961 H 288.116 1.50028 4.55004 0
M  V30 2962 H 286.48 0.705109 2.44745 0
M  V30 2963 H 287.263 2.37625 2.47769 0
M  V30 2964 N 289.708 -1.40897 0.706093 0
M  V30 2965 C 290.655 -2.30751 0.0474474 0
M  V30 2966 C 291.625 -1.47678 -0.76029 0
M  V30 2967 O 292.81 -1.76441 -0.726177 0
M  V30 2968 C 289.95 -3.33815 -0.875309 0
M  V30 2969 C 289.063 -4.31961 -0.0580623 0
M  V30 2970 C 288.198 -5.22093 -0.979425 0
M  V30 2971 C 287.237 -6.11902 -0.155706 0
M  V30 2972 N 286.374 -6.94482 -1.03144 0
M  V30 2973 H 291.214 -2.86513 0.819413 0
M  V30 2974 H 288.751 -1.41102 0.415783 0
M  V30 2975 H 290.709 -3.92129 -1.42446 0
M  V30 2976 H 289.339 -2.79579 -1.61356 0
M  V30 2977 H 288.391 -3.75507 0.608147 0
M  V30 2978 H 289.703 -4.95415 0.580082 0
M  V30 2979 H 288.857 -5.85292 -1.59744 0
M  V30 2980 H 287.596 -4.5889 -1.65141 0
M  V30 2981 H 286.601 -5.47742 0.475309 0
M  V30 2982 H 287.826 -6.77162 0.512635 0
M  V30 2983 H 285.772 -6.33877 -1.68924 0
M  V30 2984 H 285.689 -7.54665 -0.449108 0
M  V30 2985 H 286.957 -7.6214 -1.63593 0
M  V30 2986 N 291.186 -0.45159 -1.50991 0
M  V30 2987 C 292.149 0.341117 -2.26647 0
M  V30 2988 C 293.149 0.937422 -1.30649 0
M  V30 2989 O 294.339 0.809644 -1.54241 0
M  V30 2990 C 291.471 1.48398 -3.06905 0
M  V30 2991 H 292.664 -0.322117 -2.98165 0
M  V30 2992 H 290.217 -0.205122 -1.54948 0
M  V30 2993 H 290.952 2.18284 -2.39838 0
M  V30 2994 H 290.737 1.06241 -3.77432 0
M  V30 2995 H 292.227 2.04367 -3.64176 0
M  V30 2996 N 292.664 1.56529 -0.183458 0
M  V30 2997 C 293.594 2.21549 0.737456 0
M  V30 2998 C 294.575 1.17489 1.23005 0
M  V30 2999 O 295.76 1.45959 1.281 0
M  V30 3000 C 292.89 2.86575 1.96194 0
M  V30 3001 C 291.844 3.96778 1.60473 0
M  V30 3002 C 291.17 4.48911 2.90487 0
M  V30 3003 C 292.47 5.15767 0.823497 0
M  V30 3004 H 294.164 2.98761 0.195453 0
M  V30 3005 H 291.71 1.43702 0.0925686 0
M  V30 3006 H 293.663 3.30739 2.61131 0
M  V30 3007 H 292.387 2.06749 2.52828 0
M  V30 3008 H 291.046 3.53286 0.978997 0
M  V30 3009 H 290.694 3.65862 3.45186 0
M  V30 3010 H 290.394 5.23265 2.67335 0
M  V30 3011 H 291.918 4.95771 3.56432 0
M  V30 3012 H 293.332 5.56549 1.37571 0
M  V30 3013 H 291.729 5.96114 0.690551 0
M  V30 3014 H 292.799 4.84574 -0.177782 0
M  V30 3015 N 294.142 -0.090211 1.57342 0
M  V30 3016 C 295.072 -1.10976 2.05443 0
M  V30 3017 C 296.053 -1.41482 0.944284 0
M  V30 3018 O 297.238 -1.51428 1.21586 0
M  V30 3019 C 294.368 -2.42831 2.48295 0
M  V30 3020 C 293.322 -2.26721 3.63018 0
M  V30 3021 C 292.648 -3.63796 3.91863 0
M  V30 3022 C 293.948 -1.7037 4.93732 0
M  V30 3023 H 295.642 -0.709564 2.9087 0
M  V30 3024 H 293.188 -0.339874 1.39932 0
M  V30 3025 H 295.141 -3.14431 2.80555 0
M  V30 3026 H 293.865 -2.84795 1.59873 0
M  V30 3027 H 292.524 -1.57565 3.31012 0
M  V30 3028 H 292.172 -4.03297 3.00601 0
M  V30 3029 H 291.872 -3.53861 4.69101 0
M  V30 3030 H 293.396 -4.36855 4.26603 0
M  V30 3031 H 294.81 -2.31816 5.24342 0
M  V30 3032 H 293.207 -1.71181 5.75167 0
M  V30 3033 H 294.277 -0.663542 4.80339 0
M  V30 3034 N 295.62 -1.53406 -0.361157 0
M  V30 3035 C 296.568 -1.80832 -1.46296 0
M  V30 3036 C 297.562 -0.677699 -1.55253 0
M  V30 3037 O 298.768 -0.860723 -1.58087 0
M  V30 3038 H 295.143 -0.572627 -0.487445 0
M  V30 3039 H 297.114 -2.73045 -1.20371 0
M  V30 3040 C 295.863 -2.01907 -2.8307 0
M  V30 3041 H 295.186 -2.88349 -2.76938 0
M  V30 3042 H 296.626 -2.25072 -3.59331 0
M  V30 3043 C 295.085 -0.799449 -3.27277 0
M  V30 3044 O 295.615 0.00971761 -4.01699 0
M  V30 3045 N 293.821 -0.621637 -2.83873 0
M  V30 3046 H 293.368 -1.28126 -2.23476 0
M  V30 3047 H 293.326 0.19298 -3.13807 0
M  V30 3048 N 297.098 0.621204 -1.44841 0
M  V30 3049 C 298.028 1.74366 -1.55303 0
M  V30 3050 C 299.009 1.65199 -0.405385 0
M  V30 3051 O 300.194 1.83807 -0.626787 0
M  V30 3052 C 297.324 3.12931 -1.50637 0
M  V30 3053 C 296.278 3.36896 -2.63979 0
M  V30 3054 C 295.604 4.75594 -2.44366 0
M  V30 3055 C 296.904 3.28483 -4.06074 0
M  V30 3056 H 298.598 1.65867 -2.49256 0
M  V30 3057 H 296.144 0.796558 -1.19962 0
M  V30 3058 H 298.097 3.9124 -1.56555 0
M  V30 3059 H 296.821 3.22237 -0.532057 0
M  V30 3060 H 295.48 2.60972 -2.57467 0
M  V30 3061 H 295.128 4.81616 -1.45105 0
M  V30 3062 H 294.828 4.92586 -3.20364 0
M  V30 3063 H 296.352 5.5612 -2.52117 0
M  V30 3064 H 297.766 3.96684 -4.13902 0
M  V30 3065 H 296.163 3.57008 -4.82354 0
M  V30 3066 H 297.233 2.26133 -4.28943 0
M  V30 3067 N 298.576 1.31904 0.862503 0
M  V30 3068 C 299.801 1.25135 1.65397 0
M  V30 3069 C 300.226 -0.179 1.87246 0
M  V30 3070 O 299.584 -1.1277 1.4196 0
M  V30 3071 C 299.632 2.00832 2.99498 0
M  V30 3072 O 298.736 1.35075 3.89652 0
M  V30 3073 H 298.077 0.431655 0.504549 0
M  V30 3074 H 300.607 1.74094 1.07483 0
M  V30 3075 H 300.617 2.10709 3.49379 0
M  V30 3076 H 299.292 3.04847 2.82916 0
M  V30 3077 H 297.869 1.33696 3.48109 0
M  V30 3078 N 300.054 -1.07777 1.14986 0
M  V30 3079 C 301.002 -2.16964 0.838406 0
M  V30 3080 C 301.996 -1.68372 -0.186386 0
M  V30 3081 O 303.202 -1.79951 -0.0418465 0
M  V30 3082 H 299.577 -0.708006 0.253439 0
M  V30 3083 H 301.548 -2.40454 1.76704 0
M  V30 3084 C 300.297 -3.4604 0.339335 0
M  V30 3085 H 299.62 -3.83813 1.11927 0
M  V30 3086 H 301.06 -4.23698 0.160021 0
M  V30 3087 C 299.519 -3.23569 -0.938325 0
M  V30 3088 O 300.049 -3.47752 -2.01077 0
M  V30 3089 N 298.255 -2.77079 -0.876117 0
M  V30 3090 H 297.802 -2.576 -0.00322037 0
M  V30 3091 H 297.76 -2.62422 -1.73153 0
M  V30 3092 N 301.532 -0.945985 -1.26051 0
M  V30 3093 C 302.78 -0.594941 -1.93145 0
M  V30 3094 C 303.101 0.86953 -1.7454 0
M  V30 3095 O 302.371 1.61838 -1.10387 0
M  V30 3096 H 300.951 -0.217044 -0.714773 0
M  V30 3097 H 303.613 -1.20235 -1.53393 0
M  V30 3098 H 302.709 -0.816835 -3.01221 0
M  V30 3099 N 303.011 1.40521 -0.713556 0
M  V30 3100 C 304.427 1.54839 -0.386907 0
M  V30 3101 C 304.627 1.68532 1.1045 0
M  V30 3102 O 303.683 1.67377 1.89053 0
M  V30 3103 C 304.996 2.77792 -1.15118 0
M  V30 3104 C 306.544 2.91607 -1.13729 0
M  V30 3105 C 307.019 4.1747 -1.88368 0
M  V30 3106 N 308.51 4.24466 -1.85427 0
M  V30 3107 C 309.245 5.20755 -2.40004 0
M  V30 3108 N 308.741 6.22965 -3.03129 0
M  V30 3109 N 310.534 5.1282 -2.30158 0
M  V30 3110 H 302.685 1.29879 -1.68063 0
M  V30 3111 H 304.948 0.627896 -0.710247 0
M  V30 3112 H 304.654 2.73944 -2.20561 0
M  V30 3113 H 304.528 3.6984 -0.741477 0
M  V30 3114 H 306.915 2.94959 -0.0910608 0
M  V30 3115 H 306.996 2.00682 -1.5862 0
M  V30 3116 H 306.64 4.1488 -2.9298 0
M  V30 3117 H 306.57 5.074 -1.40898 0
M  V30 3118 H 309.061 3.51241 -1.3942 0
M  V30 3119 H 309.374 6.92859 -3.42295 0
M  V30 3120 H 307.719 6.23415 -3.07212 0
M  V30 3121 H 310.91 4.31899 -1.80501 0
M  V30 3122 H 311.083 5.87689 -2.72993 0
M  V30 3123 N 304.489 0.459591 1.5075 0
M  V30 3124 C 305.437 -0.354678 2.2988 0
M  V30 3125 C 306.431 -1.00086 1.36672 0
M  V30 3126 O 307.637 -0.933277 1.53915 0
M  V30 3127 H 304.012 -0.13321 0.740107 0
M  V30 3128 H 305.983 0.333269 2.96533 0
M  V30 3129 C 304.732 -1.43073 3.169 0
M  V30 3130 H 304.055 -0.942882 3.88523 0
M  V30 3131 H 305.495 -1.97328 3.75284 0
M  V30 3132 C 303.954 -2.42633 2.33732 0
M  V30 3133 O 304.484 -3.47658 2.01238 0
M  V30 3134 N 302.69 -2.14066 1.9653 0
M  V30 3135 H 302.237 -1.28685 2.23155 0
M  V30 3136 H 302.195 -2.80917 1.41185 0
M  V30 3137 N 305.967 -1.56429 0.191757 0
M  V30 3138 C 307.244 -1.89224 -0.495332 0
M  V30 3139 C 307.624 -1.10478 -1.79883 0
M  V30 3140 O 306.972 -0.204852 -2.2758 0
M  V30 3141 C 307.182 -3.41548 -0.717367 0
M  V30 3142 C 308.53 -4.11711 -1.03823 0
M  V30 3143 O 309.554 -3.4698 -0.805204 0
M  V30 3144 O 308.413 -5.2611 -1.47887 0
M  V30 3145 H 305.507 -0.785788 -0.25781 0
M  V30 3146 H 308.053 -1.68111 0.231721 0
M  V30 3147 H 306.825 -3.90772 0.203287 0
M  V30 3148 H 306.448 -3.68342 -1.497 0
M  V30 3149 N 307.445 0.0818655 -1.57387 0
M  V30 3150 C 308.673 0.796108 -1.9097 0
M  V30 3151 C 309.088 1.71626 -0.786757 0
M  V30 3152 O 308.445 1.80908 0.240513 0
M  V30 3153 C 308.496 1.59829 -3.24248 0
M  V30 3154 O 308.217 0.715131 -4.32224 0
M  V30 3155 C 309.718 2.41442 -3.7178 0
M  V30 3156 H 306.938 0.22691 -0.631469 0
M  V30 3157 H 309.482 0.0551439 -2.04426 0
M  V30 3158 H 307.637 2.29163 -3.12351 0
M  V30 3159 H 308.051 1.27205 -5.08841 0
M  V30 3160 H 309.525 2.932 -4.67694 0
M  V30 3161 H 310.002 3.2051 -3.00283 0
M  V30 3162 H 310.608 1.77283 -3.86589 0
M  V30 3163 N 308.923 1.53595 0.353017 0
M  V30 3164 C 310.172 1.69603 1.09168 0
M  V30 3165 C 310.485 0.460925 1.90092 0
M  V30 3166 O 311.691 0.501774 2.66823 0
M  V30 3167 C 310.147 2.99872 1.9901 0
M  V30 3168 C 309.755 4.30687 1.23339 0
M  V30 3169 C 311.499 3.25246 2.72792 0
M  V30 3170 C 309.406 5.52036 2.12156 0
M  V30 3171 H 308.336 0.631966 0.411261 0
M  V30 3172 H 310.987 1.80096 0.351802 0
M  V30 3173 H 309.369 2.83212 2.7678 0
M  V30 3174 H 310.543 4.58019 0.505456 0
M  V30 3175 H 308.858 4.11853 0.613663 0
M  V30 3176 H 311.455 4.13095 3.39495 0
M  V30 3177 H 311.798 2.41846 3.38846 0
M  V30 3178 H 312.331 3.42638 2.021 0
M  V30 3179 H 309.07 6.37951 1.50659 0
M  V30 3180 H 308.59 5.28966 2.82764 0
M  V30 3181 H 310.269 5.87313 2.71427 0
M  V30 3182 N 310.401 -0.613514 1.45168 0
M  V30 3183 C 311.812 -1.19539 1.43413 0
M  V30 3184 C 312.163 -1.95558 0.158632 0
M  V30 3185 O 311.288 -2.0335 -0.740119 0
M  V30 3186 C 311.883 -2.17445 2.59813 0
M  V30 3187 C 310.442 -2.71022 2.61197 0
M  V30 3188 C 309.589 -1.46323 2.35552 0
M  V30 3189 H 312.54 -0.403163 1.53494 0
M  V30 3190 H 312.561 -3.00373 2.33574 0
M  V30 3191 H 312.073 -1.62089 3.52631 0
M  V30 3192 H 310.174 -3.30332 1.7237 0
M  V30 3193 H 310.287 -3.15859 3.60236 0
M  V30 3194 H 308.651 -1.75072 1.84992 0
M  V30 3195 H 309.434 -0.92844 3.30507 0
M  V30 3196 N 311.879 -1.3236 -0.855495 0
M  V30 3197 C 313.125 -1.23054 -1.612 0
M  V30 3198 C 313.458 0.207404 -1.93089 0
M  V30 3199 O 312.733 1.14432 -1.57275 0
M  V30 3200 C 313.016 -2.08937 -2.93287 0
M  V30 3201 C 312.869 -3.61105 -2.68185 0
M  V30 3202 C 314.188 -1.94986 -3.94549 0
M  V30 3203 H 311.307 -0.448364 -0.584926 0
M  V30 3204 H 313.949 -1.62297 -0.987917 0
M  V30 3205 H 312.099 -1.75599 -3.46551 0
M  V30 3206 H 313.771 -4.04652 -2.21483 0
M  V30 3207 H 312.014 -3.83813 -2.02164 0
M  V30 3208 H 312.685 -4.16522 -3.62234 0
M  V30 3209 H 315.161 -2.24189 -3.5054 0
M  V30 3210 H 314.037 -2.57356 -4.84829 0
M  V30 3211 H 314.298 -0.917263 -4.3248 0
M  V30 3212 N 313.357 1.07166 -1.15556 0
M  V30 3213 C 314.287 2.16403 -0.877046 0
M  V30 3214 C 315.268 1.69217 0.173111 0
M  V30 3215 O 316.453 1.94181 0.027084 0
M  V30 3216 C 313.583 3.45349 -0.367632 0
M  V30 3217 C 312.537 4.05995 -1.35468 0
M  V30 3218 C 311.863 5.30045 -0.704038 0
M  V30 3219 C 313.163 4.45804 -2.72132 0
M  V30 3220 H 314.857 2.39959 -1.79053 0
M  V30 3221 H 312.403 1.15325 -0.862331 0
M  V30 3222 H 314.356 4.21095 -0.160317 0
M  V30 3223 H 313.08 3.21385 0.581326 0
M  V30 3224 H 311.739 3.32296 -1.54839 0
M  V30 3225 H 311.387 5.02373 0.251128 0
M  V30 3226 H 311.087 5.71579 -1.36277 0
M  V30 3227 H 312.611 6.08495 -0.50654 0
M  V30 3228 H 314.025 5.12671 -2.56595 0
M  V30 3229 H 312.422 4.98296 -3.34397 0
M  V30 3230 H 313.492 3.57083 -3.28054 0
M  V30 3231 N 314.835 0.952656 1.25548 0
M  V30 3232 C 315.765 0.489287 2.28316 0
M  V30 3233 C 316.746 -0.463359 1.63667 0
M  V30 3234 O 317.931 -0.36274 1.90782 0
M  V30 3235 C 315.061 -0.235603 3.465 0
M  V30 3236 C 314.015 0.631593 4.23314 0
M  V30 3237 C 313.341 -0.223923 5.34231 0
M  V30 3238 C 314.641 1.90871 4.86174 0
M  V30 3239 H 316.335 1.34822 2.67326 0
M  V30 3240 H 313.881 0.649728 1.28509 0
M  V30 3241 H 315.834 -0.570882 4.17515 0
M  V30 3242 H 314.558 -1.12877 3.06474 0
M  V30 3243 H 313.217 0.949929 3.54079 0
M  V30 3244 H 312.865 -1.11678 4.90446 0
M  V30 3245 H 312.565 0.35299 5.86539 0
M  V30 3246 H 314.089 -0.554214 6.0808 0
M  V30 3247 H 315.503 1.63997 5.49343 0
M  V30 3248 H 313.9 2.43112 5.4865 0
M  V30 3249 H 314.97 2.61304 4.08471 0
M  V30 3250 N 316.313 -1.40141 0.720998 0
M  V30 3251 C 317.59 -1.94677 0.189757 0
M  V30 3252 C 317.97 -1.65879 -1.30566 0
M  V30 3253 O 317.318 -0.979391 -2.06447 0
M  V30 3254 C 317.528 -3.45279 0.508304 0
M  V30 3255 C 318.876 -4.22209 0.449934 0
M  V30 3256 O 319.9 -3.53413 0.444677 0
M  V30 3257 O 318.759 -5.44788 0.432189 0
M  V30 3258 H 315.853 -0.826459 0.0299026 0
M  V30 3259 H 318.399 -1.49719 0.7989 0
M  V30 3260 H 317.171 -3.59619 1.54239 0
M  V30 3261 H 316.794 -3.97386 -0.130525 0
M  V30 3262 N 317.792 -0.46758 -1.50504 0
M  V30 3263 C 319.041 0.0902868 -2.01498 0
M  V30 3264 C 319.354 1.411 -1.35463 0
M  V30 3265 O 320.56 2.0536 -1.77594 0
M  V30 3266 C 319.016 0.21142 -3.59278 0
M  V30 3267 C 318.624 -1.10065 -4.34269 0
M  V30 3268 C 320.368 0.721433 -4.18325 0
M  V30 3269 C 318.275 -0.943505 -5.83825 0
M  V30 3270 H 317.205 0.037517 -0.753066 0
M  V30 3271 H 319.856 -0.601943 -1.73346 0
M  V30 3272 H 318.238 0.967352 -3.84003 0
M  V30 3273 H 319.412 -1.86726 -4.21272 0
M  V30 3274 H 317.727 -1.5415 -3.86816 0
M  V30 3275 H 320.324 0.85598 -5.27804 0
M  V30 3276 H 320.667 1.71186 -3.79475 0
M  V30 3277 H 321.2 0.0229843 -3.97793 0
M  V30 3278 H 317.939 -1.90719 -6.27141 0
M  V30 3279 H 317.459 -0.217213 -5.99407 0
M  V30 3280 H 319.138 -0.608715 -6.4413 0
M  V30 3281 N 319.27 1.56325 -0.20005 0
M  V30 3282 C 320.233 2.18084 0.705132 0
M  V30 3283 C 321.233 1.13666 1.1374 0
M  V30 3284 O 322.423 1.39023 1.04968 0
M  V30 3285 C 319.555 2.78689 1.96329 0
M  V30 3286 H 320.748 2.99435 0.167023 0
M  V30 3287 H 318.301 1.56221 0.0495725 0
M  V30 3288 H 319.036 2.0115 2.5438 0
M  V30 3289 H 318.821 3.55133 1.66202 0
M  V30 3290 H 320.311 3.26096 2.60866 0
M  V30 3291 N 320.748 -0.0735177 1.57428 0
M  V30 3292 C 321.658 -1.10547 2.06922 0
M  V30 3293 C 322.674 -1.42506 0.998402 0
M  V30 3294 O 323.85 -1.52717 1.31299 0
M  V30 3295 C 320.915 -2.40019 2.50184 0
M  V30 3296 C 319.976 -2.15046 3.71556 0
M  V30 3297 C 319.209 -3.38345 4.12745 0
M  V30 3298 O 319.432 -4.47399 3.53822 0
M  V30 3299 O 318.366 -3.2666 5.05546 0
M  V30 3300 H 322.192 -0.715013 2.95163 0
M  V30 3301 H 319.777 -0.287531 1.46607 0
M  V30 3302 H 321.659 -3.16218 2.78539 0
M  V30 3303 H 320.334 -2.78447 1.65072 0
M  V30 3304 H 319.241 -1.36558 3.48285 0
M  V30 3305 H 320.574 -1.81499 4.57514 0
M  V30 3306 N 322.226 -1.5378 -0.344866 0
M  V30 3307 C 323.642 -1.44015 -0.687888 0
M  V30 3308 C 323.842 -0.595834 -1.92489 0
M  V30 3309 O 322.898 -0.0863064 -2.52352 0
M  V30 3310 C 324.211 -2.87481 -0.881758 0
M  V30 3311 C 325.759 -2.97247 -0.980459 0
M  V30 3312 C 326.234 -4.41819 -1.20665 0
M  V30 3313 N 327.725 -4.45339 -1.27389 0
M  V30 3314 C 328.46 -5.54333 -1.46639 0
M  V30 3315 N 327.956 -6.73335 -1.63071 0
M  V30 3316 N 329.749 -5.41944 -1.49176 0
M  V30 3317 H 321.9 -2.07169 0.468475 0
M  V30 3318 H 324.163 -0.93643 0.147655 0
M  V30 3319 H 323.869 -3.51672 -0.0443444 0
M  V30 3320 H 323.743 -3.32352 -1.78388 0
M  V30 3321 H 326.13 -2.33197 -1.8084 0
M  V30 3322 H 326.211 -2.5574 -0.0552713 0
M  V30 3323 H 325.855 -5.06449 -0.383652 0
M  V30 3324 H 325.785 -4.80917 -2.14539 0
M  V30 3325 H 328.276 -3.59585 -1.1622 0
M  V30 3326 H 328.589 -7.52165 -1.77391 0
M  V30 3327 H 326.934 -6.76282 -1.60209 0
M  V30 3328 H 330.125 -4.47932 -1.3592 0
M  V30 3329 H 330.298 -6.26946 -1.63837 0
M  V30 3330 N 323.704 0.605807 -1.45491 0
M  V30 3331 C 324.932 1.39136 -1.5313 0
M  V30 3332 C 325.347 1.88082 -0.164507 0
M  V30 3333 O 324.704 1.62316 0.834247 0
M  V30 3334 C 324.755 2.59463 -2.51716 0
M  V30 3335 O 324.476 2.12551 -3.83084 0
M  V30 3336 C 325.977 3.52301 -2.6907 0
M  V30 3337 H 323.197 0.425849 -0.51855 0
M  V30 3338 H 325.741 0.73865 -1.90694 0
M  V30 3339 H 323.896 3.20772 -2.17219 0
M  V30 3340 H 324.31 2.90744 -4.36541 0
M  V30 3341 H 325.784 4.33271 -3.42024 0
M  V30 3342 H 326.261 4.02757 -1.75167 0
M  V30 3343 H 326.867 2.96845 -3.04571 0
M  V30 3344 N 325.182 1.32811 0.848464 0
M  V30 3345 C 326.43 1.23479 1.59991 0
M  V30 3346 C 326.751 -0.201853 1.93952 0
M  V30 3347 O 326.021 -1.12818 1.60153 0
M  V30 3348 H 324.601 0.454034 0.593179 0
M  V30 3349 H 327.263 1.66412 1.01455 0
M  V30 3350 H 326.359 1.82178 2.53412 0
M  V30 3351 N 326.66 -1.06551 1.16123 0
M  V30 3352 C 327.608 -2.16063 0.861371 0
M  V30 3353 C 328.602 -1.6856 -0.168517 0
M  V30 3354 O 329.808 -1.79986 -0.0227579 0
M  V30 3355 H 326.183 -0.705278 0.260934 0
M  V30 3356 H 328.154 -2.38567 1.79244 0
M  V30 3357 C 326.903 -3.45661 0.376018 0
M  V30 3358 H 326.226 -3.82604 1.15992 0
M  V30 3359 H 327.666 -4.23504 0.204951 0
M  V30 3360 C 326.125 -3.24546 -0.903954 0
M  V30 3361 O 326.655 -3.49865 -1.97377 0
M  V30 3362 N 324.861 -2.77992 -0.846679 0
M  V30 3363 H 324.408 -2.57589 0.0241017 0
M  V30 3364 H 324.366 -2.64244 -1.70359 0
M  V30 3365 N 328.138 -0.959301 -1.25041 0
M  V30 3366 C 329.071 -0.427418 -2.24161 0
M  V30 3367 C 330.049 0.493837 -1.54919 0
M  V30 3368 O 331.233 0.427144 -1.83597 0
M  V30 3369 C 328.36 0.383893 -3.36517 0
M  V30 3370 C 327.406 -0.478431 -4.23808 0
M  V30 3371 S 328.239 -1.91353 -5.00144 0
M  V30 3372 C 329.395 -1.11077 -6.15965 0
M  V30 3373 H 329.628 -1.26743 -2.6893 0
M  V30 3374 H 327.161 -0.763714 -1.34189 0
M  V30 3375 H 329.119 0.846039 -4.01687 0
M  V30 3376 H 327.78 1.19878 -2.90324 0
M  V30 3377 H 326.973 0.14406 -5.03794 0
M  V30 3378 H 326.575 -0.87597 -3.63597 0
M  V30 3379 H 328.867 -0.361699 -6.76534 0
M  V30 3380 H 329.81 -1.88472 -6.82557 0
M  V30 3381 H 330.218 -0.638843 -5.60873 0
M  V30 3382 N 329.616 1.39756 -0.72842 0
M  V30 3383 C 331.032 1.5442 -0.403308 0
M  V30 3384 C 331.232 1.69694 1.08656 0
M  V30 3385 O 330.288 1.69373 1.87267 0
M  V30 3386 C 331.601 2.76555 -1.18058 0
M  V30 3387 C 333.149 2.90384 -1.16815 0
M  V30 3388 C 333.624 4.15449 -1.92785 0
M  V30 3389 N 335.115 4.22475 -1.89918 0
M  V30 3390 C 335.85 5.1818 -2.45514 0
M  V30 3391 N 335.346 6.19714 -3.09719 0
M  V30 3392 N 337.139 5.1035 -2.35584 0
M  V30 3393 H 329.29 1.28089 -1.69431 0
M  V30 3394 H 331.553 0.620327 -0.716867 0
M  V30 3395 H 331.259 2.7159 -2.23455 0
M  V30 3396 H 331.133 3.69033 -0.780662 0
M  V30 3397 H 333.52 2.94846 -0.12234 0
M  V30 3398 H 333.601 1.98988 -1.6074 0
M  V30 3399 H 333.245 4.11749 -2.97364 0
M  V30 3400 H 333.175 5.05877 -1.46272 0
M  V30 3401 H 335.666 3.49743 -1.43138 0
M  V30 3402 H 335.979 6.8919 -3.49625 0
M  V30 3403 H 334.324 6.20121 -3.13807 0
M  V30 3404 H 337.515 4.2996 -1.85072 0
M  V30 3405 H 337.688 5.84761 -2.79211 0
M  V30 3406 N 331.094 0.475555 1.50254 0
M  V30 3407 C 332.004 -0.321501 2.32387 0
M  V30 3408 C 333.02 -0.991755 1.42969 0
M  V30 3409 O 334.196 -0.978747 1.76018 0
M  V30 3410 C 331.261 -1.38667 3.17762 0
M  V30 3411 C 330.322 -0.732538 4.23004 0
M  V30 3412 C 329.555 -1.74695 5.04299 0
M  V30 3413 O 329.778 -2.97399 4.86734 0
M  V30 3414 O 328.712 -1.31631 5.8733 0
M  V30 3415 H 332.538 0.350071 3.01676 0
M  V30 3416 H 330.123 0.237321 1.47503 0
M  V30 3417 H 332.005 -2.00354 3.70724 0
M  V30 3418 H 330.68 -2.04163 2.51196 0
M  V30 3419 H 329.587 -0.0765902 3.74022 0
M  V30 3420 H 330.92 -0.120452 4.92053 0
M  V30 3421 N 332.573 -1.56217 0.208337 0
M  V30 3422 C 333.82 -1.97949 -0.42692 0
M  V30 3423 C 334.148 -1.09562 -1.60706 0
M  V30 3424 O 333.403 -0.137616 -1.95216 0
M  V30 3425 C 333.702 -3.45441 -0.916797 0
M  V30 3426 C 333.368 -4.50646 0.151391 0
M  V30 3427 C 332.03 -4.79139 0.444867 0
M  V30 3428 C 334.382 -5.13811 0.874492 0
M  V30 3429 C 331.71 -5.68084 1.46619 0
M  V30 3430 C 334.062 -6.03861 1.88506 0
M  V30 3431 C 332.726 -6.30704 2.18559 0
M  V30 3432 H 331.996 -0.724345 -0.156221 0
M  V30 3433 H 334.643 -1.89006 0.308084 0
M  V30 3434 H 332.948 -3.51521 -1.73032 0
M  V30 3435 H 334.645 -3.75094 -1.41794 0
M  V30 3436 H 331.235 -4.28511 -0.0875068 0
M  V30 3437 H 335.419 -4.91879 0.660996 0
M  V30 3438 H 330.675 -5.87151 1.7048 0
M  V30 3439 H 334.849 -6.51861 2.45051 0
M  V30 3440 H 332.476 -6.99424 2.97843 0
M  V30 3441 N 334.051 0.0651679 -1.57465 0
M  V30 3442 C 335.3 0.761916 -1.86756 0
M  V30 3443 C 335.613 1.78406 -0.801925 0
M  V30 3444 O 336.819 2.53084 -0.982885 0
M  V30 3445 C 335.275 1.40603 -3.31299 0
M  V30 3446 C 334.883 0.422115 -4.46007 0
M  V30 3447 C 336.627 2.08476 -3.69781 0
M  V30 3448 C 334.534 1.07252 -5.81593 0
M  V30 3449 H 333.464 0.288308 -0.696702 0
M  V30 3450 H 336.115 0.015344 -1.83494 0
M  V30 3451 H 334.497 2.20109 -3.29193 0
M  V30 3452 H 335.671 -0.343613 -4.59517 0
M  V30 3453 H 333.986 -0.152527 -4.16121 0
M  V30 3454 H 336.583 2.57925 -4.68379 0
M  V30 3455 H 336.926 2.88712 -2.99919 0
M  V30 3456 H 337.459 1.35792 -3.73905 0
M  V30 3457 H 334.198 0.310342 -6.54765 0
M  V30 3458 H 333.718 1.80895 -5.71872 0
M  V30 3459 H 335.397 1.59043 -6.27148 0
M  V30 3460 N 335.529 1.53961 0.336706 0
M  V30 3461 C 336.477 1.83136 1.43401 0
M  V30 3462 C 337.471 0.702313 1.54156 0
M  V30 3463 O 338.677 0.885765 1.56698 0
M  V30 3464 H 335.052 0.580309 0.478273 0
M  V30 3465 H 337.023 2.74925 1.16012 0
M  V30 3466 C 335.772 2.06385 2.79822 0
M  V30 3467 H 335.095 2.92718 2.72316 0
M  V30 3468 H 336.535 2.30761 3.55704 0
M  V30 3469 C 334.994 0.851414 3.25964 0
M  V30 3470 O 335.524 0.0541904 4.01663 0
M  V30 3471 N 333.73 0.66672 2.82848 0
M  V30 3472 H 333.277 1.31665 2.21409 0
M  V30 3473 H 333.235 -0.143032 3.14074 0
M  V30 3474 N 337.007 -0.598083 1.45811 0
M  V30 3475 C 338.232 -1.3881 1.54099 0
M  V30 3476 C 338.657 -1.8726 0.177578 0
M  V30 3477 O 338.015 -1.6069 -0.839541 0
M  V30 3478 C 338.063 -2.56217 2.53743 0
M  V30 3479 O 337.167 -3.5716 2.06182 0
M  V30 3480 H 336.508 -0.414024 0.519115 0
M  V30 3481 H 339.038 -0.726971 1.91249 0
M  V30 3482 H 339.048 -3.03337 2.72856 0
M  V30 3483 H 337.723 -2.20303 3.5276 0
M  V30 3484 H 336.3 -3.16624 1.96987 0
M  V30 3485 N 338.485 -1.33259 -0.841409 0
M  V30 3486 C 339.896 -1.22066 -1.41269 0
M  V30 3487 C 340.247 0.161479 -1.95534 0
M  V30 3488 O 339.372 1.06094 -1.88608 0
M  V30 3489 C 339.967 -2.20996 -2.568 0
M  V30 3490 C 338.526 -2.13649 -3.09888 0
M  V30 3491 C 337.673 -2.08623 -1.82679 0
M  V30 3492 H 340.624 -1.44895 -0.647395 0
M  V30 3493 H 340.645 -1.81621 -3.34356 0
M  V30 3494 H 340.157 -3.2158 -2.17274 0
M  V30 3495 H 338.258 -1.16359 -3.53965 0
M  V30 3496 H 338.371 -3.04079 -3.70234 0
M  V30 3497 H 336.735 -1.54061 -2.02824 0
M  V30 3498 H 337.518 -3.1101 -1.45353 0
M  V30 3499 N 339.963 1.05934 -1.16686 0
M  V30 3500 C 341.21 1.788 -0.950622 0
M  V30 3501 C 341.538 1.87384 0.521305 0
M  V30 3502 O 340.793 1.36438 1.40297 0
M  V30 3503 C 341.092 3.23105 -1.52767 0
M  V30 3504 C 340.758 3.34594 -3.02254 0
M  V30 3505 C 339.42 3.37437 -3.43059 0
M  V30 3506 C 341.772 3.36219 -3.98254 0
M  V30 3507 C 339.1 3.39525 -4.78477 0
M  V30 3508 C 341.452 3.39845 -5.33562 0
M  V30 3509 C 340.116 3.40971 -5.73842 0
M  V30 3510 H 339.386 0.654275 -0.347857 0
M  V30 3511 H 342.033 1.24555 -1.45459 0
M  V30 3512 H 340.338 3.80227 -0.94524 0
M  V30 3513 H 342.035 3.7809 -1.336 0
M  V30 3514 H 338.625 3.3309 -2.6972 0
M  V30 3515 H 342.809 3.33231 -3.67792 0
M  V30 3516 H 338.065 3.38703 -5.09009 0
M  V30 3517 H 342.239 3.4005 -6.07733 0
M  V30 3518 H 339.866 3.42342 -6.78753 0
M  V30 3519 N 341.441 0.965919 1.2453 0
M  V30 3520 C 342.857 0.67216 1.44756 0
M  V30 3521 C 343.057 -0.766609 1.86347 0
M  V30 3522 O 342.113 -1.5407 2.00047 0
M  V30 3523 C 343.426 1.65473 2.51076 0
M  V30 3524 C 344.974 1.66716 2.64905 0
M  V30 3525 C 345.449 2.63766 3.74421 0
M  V30 3526 N 346.94 2.62198 3.81846 0
M  V30 3527 C 347.675 3.33966 4.66106 0
M  V30 3528 N 347.171 4.15245 5.54566 0
M  V30 3529 N 348.964 3.22799 4.60171 0
M  V30 3530 H 341.115 1.89553 0.958293 0
M  V30 3531 H 343.378 0.815979 0.482579 0
M  V30 3532 H 343.084 2.68296 2.27399 0
M  V30 3533 H 342.958 1.4261 3.49202 0
M  V30 3534 H 345.345 0.646057 2.87941 0
M  V30 3535 H 345.426 1.93642 1.67142 0
M  V30 3536 H 345.07 3.6601 3.52135 0
M  V30 3537 H 345 2.34121 4.71694 0
M  V30 3538 H 347.491 2.032 3.18619 0
M  V30 3539 H 347.804 4.66898 6.15814 0
M  V30 3540 H 346.149 4.1934 5.54237 0
M  V30 3541 H 349.34 2.58764 3.90075 0
M  V30 3542 H 349.513 3.78994 5.25612 0
M  V30 3543 N 342.919 -1.39368 0.735821 0
M  V30 3544 C 344.196 -1.94465 0.210395 0
M  V30 3545 C 344.576 -1.67254 -1.28799 0
M  V30 3546 O 343.924 -1.00123 -2.05396 0
M  V30 3547 C 344.134 -3.4472 0.544897 0
M  V30 3548 C 345.482 -4.21708 0.494689 0
M  V30 3549 O 346.506 -3.52922 0.482136 0
M  V30 3550 O 345.365 -5.44299 0.489947 0
M  V30 3551 H 342.459 -0.826096 0.0386666 0
M  V30 3552 H 345.005 -1.48863 0.814735 0
M  V30 3553 H 343.777 -3.57963 1.58045 0
M  V30 3554 H 343.4 -3.97502 -0.08837 0
M  V30 3555 N 344.397 -0.483516 -1.5 0
M  V30 3556 C 345.646 0.0689102 -2.01582 0
M  V30 3557 C 345.959 1.39655 -1.36952 0
M  V30 3558 O 347.165 2.03465 -1.79762 0
M  V30 3559 C 345.621 0.173302 -3.59483 0
M  V30 3560 C 345.229 -1.14665 -4.33077 0
M  V30 3561 C 346.973 0.677024 -4.19066 0
M  V30 3562 C 344.88 -1.00537 -5.82792 0
M  V30 3563 H 343.81 0.0295277 -0.753422 0
M  V30 3564 H 346.461 -0.620295 -1.72698 0
M  V30 3565 H 344.843 0.926569 -3.85007 0
M  V30 3566 H 346.017 -1.91184 -4.19268 0
M  V30 3567 H 344.332 -1.58244 -3.85159 0
M  V30 3568 H 346.929 0.799952 -5.28682 0
M  V30 3569 H 347.272 1.67151 -3.81269 0
M  V30 3570 H 347.805 -0.0192083 -3.97795 0
M  V30 3571 H 344.544 -1.9736 -6.25083 0
M  V30 3572 H 344.064 -0.280776 -5.99142 0
M  V30 3573 H 345.743 -0.677 -6.43448 0
M  V30 3574 N 345.875 1.56104 -0.216619 0
M  V30 3575 C 347.105 2.02269 0.420802 0
M  V30 3576 C 347.513 1.09575 1.5424 0
M  V30 3577 O 346.856 0.0967308 1.83445 0
M  V30 3578 C 346.918 3.44784 1.01806 0
M  V30 3579 C 346.582 4.56988 0.0325154 0
M  V30 3580 C 347.579 5.14225 -0.766055 0
M  V30 3581 C 345.264 5.02228 -0.0848092 0
M  V30 3582 C 347.258 6.15169 -1.6687 0
M  V30 3583 C 344.945 6.03011 -0.990994 0
M  V30 3584 C 345.943 6.59357 -1.78149 0
M  V30 3585 O 345.631 7.58179 -2.67245 0
M  V30 3586 H 345.363 0.667353 0.107776 0
M  V30 3587 H 347.917 2.02747 -0.329034 0
M  V30 3588 H 346.147 3.41359 1.81689 0
M  V30 3589 H 347.836 3.74626 1.56237 0
M  V30 3590 H 348.602 4.80126 -0.685836 0
M  V30 3591 H 344.481 4.58054 0.520349 0
M  V30 3592 H 348.025 6.59076 -2.28615 0
M  V30 3593 H 343.922 6.36532 -1.07225 0
M  V30 3594 H 344.69 7.75682 -2.61265 0
M  V30 3595 N 347.353 -0.0568162 1.57498 0
M  V30 3596 C 348.583 -0.764515 1.91934 0
M  V30 3597 C 348.991 -1.70877 0.81227 0
M  V30 3598 O 348.334 -1.82351 -0.222213 0
M  V30 3599 C 348.396 -1.5994 3.21962 0
M  V30 3600 C 348.06 -0.822925 4.4953 0
M  V30 3601 C 349.057 -0.135464 5.19723 0
M  V30 3602 C 346.742 -0.785666 4.96117 0
M  V30 3603 C 348.736 0.578861 6.34766 0
M  V30 3604 C 346.423 -0.0675784 6.11063 0
M  V30 3605 C 347.421 0.613471 6.80239 0
M  V30 3606 O 347.109 1.31996 7.92989 0
M  V30 3607 H 346.841 -0.221647 0.63863 0
M  V30 3608 H 349.395 -0.0268218 2.05382 0
M  V30 3609 H 347.625 -2.38026 3.04763 0
M  V30 3610 H 349.314 -2.18715 3.41934 0
M  V30 3611 H 350.08 -0.155458 4.84751 0
M  V30 3612 H 345.959 -1.30524 4.42136 0
M  V30 3613 H 349.503 1.111 6.88696 0
M  V30 3614 H 345.4 -0.0455636 6.45484 0
M  V30 3615 H 346.168 1.23077 8.09194 0
M  V30 3616 N 348.832 -1.54138 -0.328536 0
M  V30 3617 C 350.248 -1.44736 -0.672574 0
M  V30 3618 C 350.448 -0.616217 -1.91846 0
M  V30 3619 O 349.504 -0.113067 -2.52247 0
M  V30 3620 C 350.817 -2.884 -0.851217 0
M  V30 3621 C 352.365 -2.98271 -0.948877 0
M  V30 3622 C 352.84 -4.43074 -1.15973 0
M  V30 3623 N 354.331 -4.46665 -1.22658 0
M  V30 3624 C 355.066 -5.55857 -1.40751 0
M  V30 3625 N 354.562 -6.75026 -1.5592 0
M  V30 3626 N 356.355 -5.43495 -1.4342 0
M  V30 3627 H 348.506 -2.06661 0.490421 0
M  V30 3628 H 350.769 -0.934812 0.157579 0
M  V30 3629 H 350.475 -3.51699 -0.00704236 0
M  V30 3630 H 350.349 -3.34225 -1.74853 0
M  V30 3631 H 352.736 -2.35102 -1.78356 0
M  V30 3632 H 352.817 -2.55785 -0.0281435 0
M  V30 3633 H 352.461 -5.06827 -0.329915 0
M  V30 3634 H 352.391 -4.83165 -2.09426 0
M  V30 3635 H 354.882 -3.60797 -1.124 0
M  V30 3636 H 355.195 -7.54004 -1.69404 0
M  V30 3637 H 353.54 -6.77944 -1.53027 0
M  V30 3638 H 356.731 -4.49349 -1.31162 0
M  V30 3639 H 356.904 -6.28649 -1.57178 0
M  V30 3640 N 350.31 0.590341 -1.46126 0
M  V30 3641 C 351.558 1.34616 -1.50742 0
M  V30 3642 C 351.879 1.94363 -0.157486 0
M  V30 3643 O 351.149 1.78136 0.815136 0
M  V30 3644 H 349.729 0.499789 -0.555175 0
M  V30 3645 H 352.391 0.691953 -1.82203 0
M  V30 3646 H 351.487 2.15678 -2.25587 0
M  V30 3647 N 351.788 1.33704 0.83433 0
M  V30 3648 C 352.72 1.20172 1.9517 0
M  V30 3649 C 353.733 0.131572 1.62267 0
M  V30 3650 O 354.922 0.382406 1.74356 0
M  V30 3651 C 352.022 0.821716 3.28787 0
M  V30 3652 C 351.195 1.98446 3.89792 0
M  V30 3653 C 350.254 1.58469 5.01771 0
M  V30 3654 O 349.28 2.29968 5.20676 0
M  V30 3655 N 350.482 0.492291 5.78409 0
M  V30 3656 H 353.247 2.16429 2.07313 0
M  V30 3657 H 350.808 1.26509 1.0103 0
M  V30 3658 H 352.8 0.536291 4.01131 0
M  V30 3659 H 351.37 -0.0503058 3.1256 0
M  V30 3660 H 350.59 2.43526 3.09982 0
M  V30 3661 H 351.878 2.76236 4.27283 0
M  V30 3662 H 351.276 -0.102349 5.65607 0
M  V30 3663 H 349.833 0.266555 6.51255 0
M  V30 3664 N 353.266 -1.05314 1.17247 0
M  V30 3665 C 354.494 -1.81971 0.984593 0
M  V30 3666 C 354.909 -1.82929 -0.467166 0
M  V30 3667 O 354.266 -1.25564 -1.32438 0
M  V30 3668 C 354.317 -3.28143 1.51672 0
M  V30 3669 O 354.038 -3.27347 2.91163 0
M  V30 3670 C 355.539 -4.21493 1.37326 0
M  V30 3671 H 352.759 -0.573455 0.348411 0
M  V30 3672 H 355.303 -1.32808 1.55506 0
M  V30 3673 H 353.458 -3.74582 0.988302 0
M  V30 3674 H 353.872 -4.18824 3.15732 0
M  V30 3675 H 355.346 -5.22043 1.79375 0
M  V30 3676 H 355.823 -4.38031 0.320169 0
M  V30 3677 H 356.429 -3.80909 1.89178 0
M  V30 3678 N 354.744 -0.972509 -1.24016 0
M  V30 3679 C 355.707 -0.511403 -2.23422 0
M  V30 3680 C 356.707 0.394679 -1.55881 0
M  V30 3681 O 357.897 0.189469 -1.73167 0
M  V30 3682 C 355.029 0.258769 -3.39916 0
M  V30 3683 H 356.222 -1.39024 -2.6573 0
M  V30 3684 H 353.775 -0.757585 -1.36713 0
M  V30 3685 H 354.51 1.1545 -3.03054 0
M  V30 3686 H 354.295 -0.391522 -3.9014 0
M  V30 3687 H 355.785 0.570244 -4.13688 0
M  V30 3688 N 356.222 1.38976 -0.743202 0
M  V30 3689 C 357.152 2.33171 -0.123873 0
M  V30 3690 C 358.133 1.54336 0.71516 0
M  V30 3691 O 359.318 1.82696 0.658467 0
M  V30 3692 C 356.448 3.38474 0.777978 0
M  V30 3693 C 355.402 4.27979 0.0424758 0
M  V30 3694 C 354.728 5.2405 1.06189 0
M  V30 3695 C 356.028 5.10155 -1.1198 0
M  V30 3696 H 357.722 2.85213 -0.910709 0
M  V30 3697 H 355.268 1.37133 -0.439388 0
M  V30 3698 H 357.221 4.03328 1.22084 0
M  V30 3699 H 355.945 2.84891 1.59702 0
M  V30 3700 H 354.604 3.64616 -0.380853 0
M  V30 3701 H 354.252 4.66758 1.87472 0
M  V30 3702 H 353.952 5.84785 0.574485 0
M  V30 3703 H 355.476 5.9178 1.50428 0
M  V30 3704 H 356.89 5.68307 -0.75499 0
M  V30 3705 H 355.287 5.80073 -1.53738 0
M  V30 3706 H 356.357 4.44504 -1.93764 0
M  V30 3707 N 357.7 0.491464 1.49741 0
M  V30 3708 C 358.65 -0.311086 2.25868 0
M  V30 3709 C 359.634 -0.943857 1.30308 0
M  V30 3710 O 360.826 -0.853035 1.55088 0
M  V30 3711 C 357.955 -1.38059 3.14316 0
M  V30 3712 C 357.041 -0.754541 4.17334 0
M  V30 3713 N 357.432 0.137216 5.05614 0
M  V30 3714 C 355.73 -1.01621 4.34269 0
M  V30 3715 C 356.431 0.494614 5.79593 0
M  V30 3716 N 355.407 -0.135169 5.43432 0
M  V30 3717 H 359.209 0.37555 2.91491 0
M  V30 3718 H 356.723 0.306917 1.59473 0
M  V30 3719 H 358.72 -1.96891 3.67477 0
M  V30 3720 H 357.38 -2.06901 2.50244 0
M  V30 3721 H 358.391 0.50741 5.15408 0
M  V30 3722 H 355.068 -1.69808 3.81407 0
M  V30 3723 H 356.458 1.2236 6.60665 0
M  V30 3724 N 359.178 -1.55987 0.224894 0
M  V30 3725 C 360.427 -1.97566 -0.406273 0
M  V30 3726 C 360.74 -1.11569 -1.6066 0
M  V30 3727 O 361.946 -1.43062 -2.3075 0
M  V30 3728 C 360.402 -3.51474 -0.774207 0
M  V30 3729 C 360.01 -4.46179 0.403496 0
M  V30 3730 C 361.754 -4.01758 -1.37079 0
M  V30 3731 C 359.661 -5.91399 0.0129412 0
M  V30 3732 H 358.591 -0.737777 -0.155565 0
M  V30 3733 H 361.242 -1.80659 0.321635 0
M  V30 3734 H 359.624 -3.63994 -1.55963 0
M  V30 3735 H 360.798 -4.45409 1.18101 0
M  V30 3736 H 359.113 -4.06255 0.913536 0
M  V30 3737 H 361.71 -5.07756 -1.67596 0
M  V30 3738 H 362.053 -3.47805 -2.28773 0
M  V30 3739 H 362.586 -3.92475 -0.648733 0
M  V30 3740 H 359.325 -6.49341 0.896451 0
M  V30 3741 H 358.845 -5.95356 -0.728821 0
M  V30 3742 H 360.524 -6.45683 -0.412582 0
M  V30 3743 N 360.656 0.0484629 -1.57525 0
M  V30 3744 C 361.619 1.03956 -2.04269 0
M  V30 3745 C 362.619 1.30211 -0.943496 0
M  V30 3746 O 363.809 1.25539 -1.20771 0
M  V30 3747 C 360.941 2.37742 -2.44319 0
M  V30 3748 H 362.134 0.636182 -2.93075 0
M  V30 3749 H 359.687 0.294811 -1.53494 0
M  V30 3750 H 360.422 2.82866 -1.5861 0
M  V30 3751 H 360.207 2.20021 -3.24551 0
M  V30 3752 H 361.697 3.08936 -2.80978 0
M  V30 3753 N 362.134 1.5431 0.320358 0
M  V30 3754 C 363.383 1.7188 1.05546 0
M  V30 3755 C 363.696 0.501143 1.89071 0
M  V30 3756 O 364.902 0.558258 2.65699 0
M  V30 3757 C 363.358 3.04025 1.92605 0
M  V30 3758 C 362.966 4.33207 1.14176 0
M  V30 3759 C 364.71 3.30959 2.65832 0
M  V30 3760 C 362.617 5.56412 2.00399 0
M  V30 3761 H 361.547 0.640547 0.397763 0
M  V30 3762 H 364.198 1.80802 0.313522 0
M  V30 3763 H 362.58 2.89019 2.7071 0
M  V30 3764 H 363.754 4.58989 0.40819 0
M  V30 3765 H 362.069 4.13062 0.526165 0
M  V30 3766 H 364.666 4.20203 3.30656 0
M  V30 3767 H 365.009 2.48979 3.33639 0
M  V30 3768 H 365.542 3.46847 1.94787 0
M  V30 3769 H 362.281 6.41004 1.37094 0
M  V30 3770 H 361.801 5.34844 2.7148 0
M  V30 3771 H 363.48 5.92938 2.58908 0
M  V30 3772 N 363.613 -0.582584 1.46437 0
M  V30 3773 C 364.523 -1.71949 1.59595 0
M  V30 3774 C 365.539 -1.67264 0.479443 0
M  V30 3775 O 366.715 -1.87171 0.743579 0
M  V30 3776 C 363.78 -3.08452 1.58298 0
M  V30 3777 C 362.841 -3.244 2.81182 0
M  V30 3778 C 362.074 -4.54391 2.79937 0
M  V30 3779 O 362.297 -5.38287 1.8869 0
M  V30 3780 O 361.231 -4.73588 3.71481 0
M  V30 3781 H 365.057 -1.63795 2.55744 0
M  V30 3782 H 362.642 -0.749643 1.29231 0
M  V30 3783 H 364.524 -3.89732 1.60271 0
M  V30 3784 H 363.199 -3.17043 0.653094 0
M  V30 3785 H 362.106 -2.42613 2.84763 0
M  V30 3786 H 363.439 -3.20699 3.7338 0
M  V30 3787 N 365.091 -1.34144 -0.827227 0
M  V30 3788 C 366.507 -1.13732 -1.11969 0
M  V30 3789 C 366.707 0.0640463 -2.01398 0
M  V30 3790 O 365.763 0.740856 -2.41387 0
M  V30 3791 C 367.076 -2.43047 -1.77055 0
M  V30 3792 C 368.624 -2.49063 -1.89569 0
M  V30 3793 C 369.099 -3.78369 -2.58072 0
M  V30 3794 N 370.59 -3.79505 -2.65575 0
M  V30 3795 C 371.325 -4.76274 -3.19297 0
M  V30 3796 N 370.821 -5.83424 -3.73616 0
M  V30 3797 N 372.614 -4.63735 -3.17658 0
M  V30 3798 H 364.765 -2.11126 -0.232296 0
M  V30 3799 H 367.028 -0.933424 -0.165602 0
M  V30 3800 H 366.734 -3.31025 -1.18807 0
M  V30 3801 H 366.608 -2.56066 -2.76966 0
M  V30 3802 H 368.995 -1.61527 -2.46968 0
M  V30 3803 H 369.076 -2.39975 -0.885745 0
M  V30 3804 H 368.72 -4.66293 -2.01329 0
M  V30 3805 H 368.65 -3.84737 -3.59562 0
M  V30 3806 H 371.141 -3.02074 -2.27068 0
M  V30 3807 H 371.454 -6.53282 -4.12846 0
M  V30 3808 H 369.799 -5.87143 -3.71871 0
M  V30 3809 H 372.99 -3.79177 -2.74486 0
M  V30 3810 H 373.163 -5.39318 -3.59221 0
M  V30 3811 N 366.569 1.04691 -1.17803 0
M  V30 3812 C 367.985 1.29963 -0.926379 0
M  V30 3813 C 368.185 1.97251 0.411635 0
M  V30 3814 O 367.241 2.24922 1.14744 0
M  V30 3815 C 368.554 2.16447 -2.08737 0
M  V30 3816 C 370.102 2.29814 -2.12496 0
M  V30 3817 C 370.577 3.19661 -3.27995 0
M  V30 3818 N 372.068 3.27247 -3.27816 0
M  V30 3819 C 372.803 3.96906 -4.13827 0
M  V30 3820 N 372.299 4.6895 -5.09959 0
M  V30 3821 N 374.092 3.93122 -4.01761 0
M  V30 3822 H 366.243 0.594182 -2.0392 0
M  V30 3823 H 368.506 0.324649 -0.890678 0
M  V30 3824 H 368.212 1.74304 -3.05469 0
M  V30 3825 H 368.086 3.17103 -2.04268 0
M  V30 3826 H 370.473 2.71196 -1.16347 0
M  V30 3827 H 370.554 1.2877 -2.21025 0
M  V30 3828 H 370.198 2.78991 -4.24413 0
M  V30 3829 H 370.128 4.20722 -3.16703 0
M  V30 3830 H 372.619 2.75921 -2.58217 0
M  V30 3831 H 372.932 5.19679 -5.71974 0
M  V30 3832 H 371.277 4.67875 -5.13924 0
M  V30 3833 H 374.468 3.35967 -3.2595 0
M  V30 3834 H 374.641 4.47139 -4.6901 0
M  V30 3835 N 368.047 0.979072 1.23499 0
M  V30 3836 C 369.287 0.655228 1.93613 0
M  V30 3837 C 369.651 -0.796336 1.74707 0
M  V30 3838 O 370.852 -1.23094 2.38959 0
M  V30 3839 C 369.123 1.03337 3.42135 0
M  V30 3840 S 370.682 0.825793 4.3096 0
M  V30 3841 H 367.5 0.240004 0.669267 0
M  V30 3842 H 370.102 1.25843 1.49612 0
M  V30 3843 H 368.806 2.08646 3.53405 0
M  V30 3844 H 368.337 0.421397 3.91137 0
M  V30 3845 H 370.352 -0.290991 4.95346 0
M  V30 3846 N 369.525 -1.3858 0.750561 0
M  V30 3847 C 370.472 -2.30483 0.120835 0
M  V30 3848 C 371.442 -1.50022 -0.712923 0
M  V30 3849 O 372.627 -1.78662 -0.669676 0
M  V30 3850 C 369.767 -3.36431 -0.768666 0
M  V30 3851 C 368.88 -4.31927 0.0793922 0
M  V30 3852 C 368.015 -5.24944 -0.81283 0
M  V30 3853 C 367.054 -6.12088 0.0390447 0
M  V30 3854 N 366.191 -6.97412 -0.809969 0
M  V30 3855 H 371.031 -2.83761 0.91015 0
M  V30 3856 H 368.568 -1.39707 0.460463 0
M  V30 3857 H 370.526 -3.96462 -1.29898 0
M  V30 3858 H 369.156 -2.8457 -1.5238 0
M  V30 3859 H 368.208 -3.73382 0.727303 0
M  V30 3860 H 369.52 -4.93319 0.737401 0
M  V30 3861 H 368.674 -5.90078 -1.41042 0
M  V30 3862 H 367.413 -4.63911 -1.50458 0
M  V30 3863 H 366.418 -5.45952 0.649328 0
M  V30 3864 H 367.643 -6.75189 0.727809 0
M  V30 3865 H 365.589 -6.38931 -1.48672 0
M  V30 3866 H 365.506 -7.55712 -0.208789 0
M  V30 3867 H 366.774 -7.66959 -1.39263 0
M  V30 3868 N 371.003 -0.499398 -1.49478 0
M  V30 3869 C 371.953 0.299103 -2.2603 0
M  V30 3870 C 372.937 0.936934 -1.30807 0
M  V30 3871 O 374.129 0.844798 -1.55538 0
M  V30 3872 C 371.258 1.36391 -3.15044 0
M  V30 3873 C 370.344 0.732398 -4.17728 0
M  V30 3874 N 370.735 -0.164028 -5.05534 0
M  V30 3875 C 369.033 0.993162 -4.34801 0
M  V30 3876 C 369.734 -0.525345 -5.79323 0
M  V30 3877 N 368.71 0.106348 -5.43496 0
M  V30 3878 H 372.512 -0.391003 -2.91287 0
M  V30 3879 H 370.026 -0.31537 -1.59308 0
M  V30 3880 H 372.023 1.94939 -3.68516 0
M  V30 3881 H 370.683 2.05571 -2.51338 0
M  V30 3882 H 371.694 -0.534736 -5.15132 0
M  V30 3883 H 368.371 1.67783 -3.82302 0
M  V30 3884 H 369.761 -1.25862 -6.60006 0
M  V30 3885 N 372.481 1.55866 -0.233164 0
M  V30 3886 C 373.711 2.02704 0.399325 0
M  V30 3887 C 374.119 1.11204 1.53069 0
M  V30 3888 O 373.462 0.116182 1.83332 0
M  V30 3889 C 373.524 3.45844 0.981429 0
M  V30 3890 C 373.188 4.56997 -0.0159561 0
M  V30 3891 C 374.185 5.13384 -0.820552 0
M  V30 3892 C 371.87 5.0211 -0.138072 0
M  V30 3893 C 373.864 6.13365 -1.73386 0
M  V30 3894 C 371.551 6.01926 -1.0549 0
M  V30 3895 C 372.549 6.57431 -1.85132 0
M  V30 3896 O 372.237 7.55302 -2.75272 0
M  V30 3897 H 371.969 0.668459 0.100692 0
M  V30 3898 H 374.523 2.02387 -0.35052 0
M  V30 3899 H 372.753 3.43267 1.78058 0
M  V30 3900 H 374.442 3.76262 1.52255 0
M  V30 3901 H 375.208 4.79372 -0.736721 0
M  V30 3902 H 371.087 4.5858 0.471737 0
M  V30 3903 H 374.631 6.56614 -2.35592 0
M  V30 3904 H 370.528 6.35359 -1.1397 0
M  V30 3905 H 371.296 7.72867 -2.69477 0
M  V30 3906 N 373.959 -0.0401083 1.57549 0
M  V30 3907 C 375.205 -0.734211 1.89043 0
M  V30 3908 C 375.538 -1.75591 0.829535 0
M  V30 3909 O 374.813 -1.93868 -0.156706 0
M  V30 3910 C 375.096 -1.41374 3.31188 0
M  V30 3911 C 374.949 -0.406299 4.47961 0
M  V30 3912 C 376.268 -2.35061 3.72068 0
M  V30 3913 H 373.387 -0.265447 0.687537 0
M  V30 3914 H 376.029 0.00294087 1.9 0
M  V30 3915 H 374.179 -2.04206 3.30503 0
M  V30 3916 H 375.851 0.219255 4.60779 0
M  V30 3917 H 374.094 0.275485 4.32924 0
M  V30 3918 H 374.765 -0.920022 5.44279 0
M  V30 3919 H 377.241 -1.82282 3.74049 0
M  V30 3920 H 376.117 -2.79593 4.72355 0
M  V30 3921 H 376.378 -3.21258 3.0372 0
M  V30 3922 N 375.437 -1.54477 -0.31217 0
M  V30 3923 C 376.347 -1.87695 -1.4074 0
M  V30 3924 C 377.363 -0.769975 -1.56036 0
M  V30 3925 O 378.539 -1.06537 -1.70915 0
M  V30 3926 C 375.604 -2.10755 -2.75287 0
M  V30 3927 C 374.665 -3.34514 -2.69071 0
M  V30 3928 C 373.898 -3.56465 -3.97201 0
M  V30 3929 O 374.121 -2.81637 -4.96021 0
M  V30 3930 O 373.055 -4.49964 -3.9977 0
M  V30 3931 H 376.881 -2.80849 -1.15574 0
M  V30 3932 H 374.466 -1.40526 -0.507228 0
M  V30 3933 H 376.348 -2.27188 -3.54913 0
M  V30 3934 H 375.023 -1.20788 -3.0032 0
M  V30 3935 H 373.93 -3.23456 -1.87955 0
M  V30 3936 H 375.263 -4.24575 -2.48992 0
M  V30 3937 N 376.915 0.57481 -1.46744 0
M  V30 3938 C 377.845 1.69337 -1.60771 0
M  V30 3939 C 378.826 1.63825 -0.457736 0
M  V30 3940 O 380.011 1.8172 -0.684947 0
M  V30 3941 C 377.141 3.0798 -1.60517 0
M  V30 3942 C 376.095 3.28327 -2.74564 0
M  V30 3943 C 375.421 4.67578 -2.59373 0
M  V30 3944 C 376.721 3.15398 -4.16319 0
M  V30 3945 H 378.415 1.57853 -2.54407 0
M  V30 3946 H 375.961 0.75799 -1.22436 0
M  V30 3947 H 377.914 3.86061 -1.68923 0
M  V30 3948 H 376.638 3.20381 -0.634305 0
M  V30 3949 H 375.297 2.52649 -2.65639 0
M  V30 3950 H 374.945 4.76755 -1.60353 0
M  V30 3951 H 374.645 4.82144 -3.35873 0
M  V30 3952 H 376.169 5.47817 -2.69682 0
M  V30 3953 H 377.583 3.83315 -4.26313 0
M  V30 3954 H 375.98 3.41482 -4.93468 0
M  V30 3955 H 377.05 2.12372 -4.3592 0
M  V30 3956 N 378.394 1.34581 0.820102 0
M  V30 3957 C 379.324 1.29038 1.94606 0
M  V30 3958 C 380.305 0.1673 1.69275 0
M  V30 3959 O 381.49 0.360112 1.90832 0
M  V30 3960 C 378.62 1.04793 3.31113 0
M  V30 3961 C 377.574 2.13597 3.70891 0
M  V30 3962 C 376.9 1.74537 5.05412 0
M  V30 3963 C 378.2 3.55451 3.8269 0
M  V30 3964 H 379.894 2.23248 1.99501 0
M  V30 3965 H 377.44 1.0747 0.958449 0
M  V30 3966 H 379.393 0.995592 4.0947 0
M  V30 3967 H 378.117 0.0702565 3.26524 0
M  V30 3968 H 376.776 2.17905 2.9481 0
M  V30 3969 H 376.424 0.754226 4.97313 0
M  V30 3970 H 376.124 2.47361 5.32997 0
M  V30 3971 H 377.648 1.70803 5.86224 0
M  V30 3972 H 379.062 3.5354 4.51312 0
M  V30 3973 H 377.459 4.26922 4.21732 0
M  V30 3974 H 378.529 3.92587 2.84611 0
M  V30 3975 N 379.872 -1.04064 1.18357 0
M  V30 3976 C 381.118 -1.77528 0.980397 0
M  V30 3977 C 381.451 -1.87948 -0.48879 0
M  V30 3978 O 380.726 -1.3876 -1.36293 0
M  V30 3979 C 381.009 -3.20797 1.63588 0
M  V30 3980 C 380.862 -3.1832 3.17793 0
M  V30 3981 C 382.181 -4.18911 1.34914 0
M  V30 3982 H 379.3 -0.644443 0.357578 0
M  V30 3983 H 381.942 -1.2156 1.46024 0
M  V30 3984 H 380.092 -3.68586 1.22788 0
M  V30 3985 H 381.764 -2.78521 3.67728 0
M  V30 3986 H 380.007 -2.56351 3.49952 0
M  V30 3987 H 380.678 -4.19489 3.58794 0
M  V30 3988 H 383.154 -3.7967 1.70265 0
M  V30 3989 H 382.03 -5.17374 1.83346 0
M  V30 3990 H 382.291 -4.41262 0.272027 0
M  V30 3991 N 381.35 -0.985608 -1.22978 0
M  V30 3992 C 382.313 -0.535071 -2.22867 0
M  V30 3993 C 383.313 0.378123 -1.56291 0
M  V30 3994 O 384.503 0.171092 -1.73358 0
M  V30 3995 C 381.635 0.222702 -3.40172 0
M  V30 3996 H 382.828 -1.41835 -2.6424 0
M  V30 3997 H 380.381 -0.772042 -1.35901 0
M  V30 3998 H 381.116 1.12229 -3.04262 0
M  V30 3999 H 380.901 -0.43288 -3.89703 0
M  V30 4000 H 382.391 0.526335 -4.1427 0
M  V30 4001 N 382.828 1.3818 -0.7579 0
M  V30 4002 C 383.76 2.2901 -0.0932177 0
M  V30 4003 C 384.773 1.47958 0.679136 0
M  V30 4004 O 385.962 1.70773 0.519514 0
M  V30 4005 C 383.062 3.26953 0.89192 0
M  V30 4006 C 382.235 4.37045 0.176303 0
M  V30 4007 C 381.294 5.15148 1.07281 0
M  V30 4008 O 380.32 5.66616 0.541728 0
M  V30 4009 N 381.522 5.28542 2.40049 0
M  V30 4010 H 384.287 2.86694 -0.873303 0
M  V30 4011 H 381.848 1.50007 -0.609054 0
M  V30 4012 H 383.84 3.76083 1.49479 0
M  V30 4013 H 382.41 2.70136 1.57306 0
M  V30 4014 H 381.63 3.89493 -0.607328 0
M  V30 4015 H 382.918 5.07801 -0.318718 0
M  V30 4016 H 382.316 4.88285 2.85647 0
M  V30 4017 H 380.873 5.8103 2.95376 0
M  V30 4018 N 384.306 0.507319 1.49211 0
M  V30 4019 C 385.554 -0.0348839 2.0207 0
M  V30 4020 C 385.875 -1.36898 1.38866 0
M  V30 4021 O 385.145 -1.88133 0.546151 0
M  V30 4022 H 383.725 -0.0158812 0.746831 0
M  V30 4023 H 386.387 0.665998 1.83168 0
M  V30 4024 H 385.483 -0.159917 3.1169 0
M  V30 4025 N 385.784 -1.5574 0.241426 0
M  V30 4026 C 386.747 -2.19877 -0.647063 0
M  V30 4027 C 387.747 -1.16642 -1.10686 0
M  V30 4028 O 388.937 -1.41757 -1.01245 0
M  V30 4029 C 386.069 -2.83797 -1.88871 0
M  V30 4030 H 387.262 -2.99772 -0.087574 0
M  V30 4031 H 384.815 -1.56298 -0.00813574 0
M  V30 4032 H 385.55 -2.07824 -2.48957 0
M  V30 4033 H 385.335 -3.59414 -1.56728 0
M  V30 4034 H 386.825 -3.32898 -2.52129 0
M  V30 4035 N 387.262 0.0317525 -1.57568 0
M  V30 4036 C 388.539 0.758366 -1.803 0
M  V30 4037 C 388.919 1.93718 -0.838845 0
M  V30 4038 O 388.267 2.28187 0.119571 0
M  V30 4039 C 388.477 1.19392 -3.27943 0
M  V30 4040 C 389.825 1.61094 -3.92854 0
M  V30 4041 O 390.849 1.28857 -3.32076 0
M  V30 4042 O 389.708 2.20918 -4.99858 0
M  V30 4043 H 386.802 0.366514 -0.741348 0
M  V30 4044 H 389.348 0.00873765 -1.69698 0
M  V30 4045 H 388.12 0.352275 -3.89711 0
M  V30 4046 H 387.743 2.00365 -3.43424 0
M  V30 4047 N 388.74 1.54641 0.303973 0
M  V30 4048 C 389.986 1.74038 1.04109 0
M  V30 4049 C 390.319 0.523051 1.87024 0
M  V30 4050 O 389.594 -0.479874 1.88487 0
M  V30 4051 C 389.877 3.02761 1.94955 0
M  V30 4052 C 389.73 4.34787 1.1524 0
M  V30 4053 C 391.049 3.27336 2.94175 0
M  V30 4054 H 388.168 0.63323 0.377079 0
M  V30 4055 H 390.81 1.87354 0.316001 0
M  V30 4056 H 388.96 2.9154 2.56782 0
M  V30 4057 H 390.632 4.57922 0.557236 0
M  V30 4058 H 388.875 4.31407 0.455053 0
M  V30 4059 H 389.546 5.21116 1.8205 0
M  V30 4060 H 392.022 3.38148 2.42477 0
M  V30 4061 H 390.898 4.18726 3.54908 0
M  V30 4062 H 391.159 2.45491 3.67677 0
M  V30 4063 N 390.218 -0.567019 1.47046 0
M  V30 4064 C 391.168 -1.67018 1.55207 0
M  V30 4065 C 392.152 -1.55543 0.411714 0
M  V30 4066 O 393.344 -1.64192 0.661064 0
M  V30 4067 C 390.473 -3.05801 1.56014 0
M  V30 4068 C 389.559 -3.22515 2.75399 0
M  V30 4069 N 389.95 -3.09329 4.00186 0
M  V30 4070 C 388.248 -3.53493 2.71954 0
M  V30 4071 C 388.949 -3.2847 4.80086 0
M  V30 4072 N 387.925 -3.54352 4.12233 0
M  V30 4073 H 391.727 -1.55377 2.4947 0
M  V30 4074 H 389.241 -0.771503 1.42904 0
M  V30 4075 H 391.238 -3.84996 1.59949 0
M  V30 4076 H 389.898 -3.18561 0.628396 0
M  V30 4077 H 390.909 -2.86863 4.31196 0
M  V30 4078 H 387.586 -3.7284 1.87873 0
M  V30 4079 H 388.976 -3.23326 5.88991 0
M  V30 4080 N 391.696 -1.35014 -0.812953 0
M  V30 4081 C 392.659 -1.27292 -1.90602 0
M  V30 4082 C 393.659 -0.185817 -1.59723 0
M  V30 4083 O 394.849 -0.439102 -1.68575 0
M  V30 4084 C 391.981 -0.967676 -3.26877 0
M  V30 4085 H 393.174 -2.24479 -1.9887 0
M  V30 4086 H 390.727 -1.19446 -1.00808 0
M  V30 4087 H 391.462 0.0005954 -3.243 0
M  V30 4088 H 391.247 -1.75412 -3.50675 0
M  V30 4089 H 392.737 -0.939085 -4.06904 0
M  V30 4090 N 393.175 1.03435 -1.18907 0
M  V30 4091 C 394.107 2.1165 -0.879595 0
M  V30 4092 C 395.12 1.62316 0.125439 0
M  V30 4093 O 396.309 1.78201 -0.103245 0
M  V30 4094 C 393.409 3.37622 -0.294042 0
M  V30 4095 C 392.582 4.16166 -1.34629 0
M  V30 4096 C 391.641 5.20457 -0.775274 0
M  V30 4097 O 390.667 5.50379 -1.4516 0
M  V30 4098 N 391.869 5.78949 0.424126 0
M  V30 4099 H 394.634 2.38791 -1.81105 0
M  V30 4100 H 392.195 1.19681 -1.09032 0
M  V30 4101 H 394.187 4.04572 0.101679 0
M  V30 4102 H 392.757 3.07873 0.541575 0
M  V30 4103 H 391.977 3.44444 -1.91707 0
M  V30 4104 H 393.265 4.65432 -2.05549 0
M  V30 4105 H 392.663 5.56948 0.991209 0
M  V30 4106 H 391.22 6.47334 0.761691 0
M  V30 4107 N 394.653 0.992116 1.22453 0
M  V30 4108 C 395.616 0.546883 2.2258 0
M  V30 4109 C 396.616 -0.369829 1.56489 0
M  V30 4110 O 397.806 -0.161896 1.73446 0
M  V30 4111 C 394.938 -0.204659 3.40285 0
M  V30 4112 H 396.131 1.43234 2.63484 0
M  V30 4113 H 393.684 0.779239 1.3549 0
M  V30 4114 H 394.419 -1.10614 3.04853 0
M  V30 4115 H 394.204 0.45354 3.89468 0
M  V30 4116 H 395.694 -0.504358 4.14543 0
M  V30 4117 N 396.131 -1.37776 0.765217 0
M  V30 4118 C 397.547 -1.53297 0.444108 0
M  V30 4119 C 397.747 -1.72515 -1.04119 0
M  V30 4120 O 396.803 -1.74278 -1.82711 0
M  V30 4121 C 398.116 -2.73328 1.25349 0
M  V30 4122 C 399.664 -2.87185 1.24473 0
M  V30 4123 C 400.139 -4.10191 2.03733 0
M  V30 4124 N 401.63 -4.17291 2.01053 0
M  V30 4125 C 402.365 -5.11488 2.59166 0
M  V30 4126 N 401.861 -6.11285 3.26041 0
M  V30 4127 N 403.654 -5.03924 2.49032 0
M  V30 4128 H 395.805 -1.23552 1.72768 0
M  V30 4129 H 398.068 -0.601103 0.733062 0
M  V30 4130 H 397.774 -2.6557 2.30577 0
M  V30 4131 H 397.648 -3.66834 0.87823 0
M  V30 4132 H 400.035 -2.94418 0.20047 0
M  V30 4133 H 400.116 -1.94657 1.65959 0
M  V30 4134 H 399.76 -4.0372 3.08176 0
M  V30 4135 H 399.69 -5.01821 1.59633 0
M  V30 4136 H 402.181 -3.45825 1.5236 0
M  V30 4137 H 402.494 -6.79678 3.67774 0
M  V30 4138 H 400.839 -6.11583 3.30138 0
M  V30 4139 H 404.03 -4.24902 1.96407 0
M  V30 4140 H 404.203 -5.77152 2.94617 0
M  V30 4141 N 397.609 -0.515225 -1.4894 0
M  V30 4142 C 398.857 0.0241671 -2.02086 0
M  V30 4143 C 399.178 1.3616 -1.3959 0
M  V30 4144 O 398.448 1.87841 -0.556121 0
M  V30 4145 H 397.028 0.0119203 -0.746905 0
M  V30 4146 H 399.69 -0.675702 -1.82812 0
M  V30 4147 H 398.786 0.143385 -3.1177 0
M  V30 4148 N 399.087 1.5561 -0.249682 0
M  V30 4149 C 400.503 1.59254 0.105103 0
M  V30 4150 C 400.703 1.26685 1.56694 0
M  V30 4151 O 399.759 1.0155 2.31179 0
M  V30 4152 C 401.072 2.99687 -0.246592 0
M  V30 4153 C 402.62 3.12416 -0.191118 0
M  V30 4154 C 403.095 4.55074 -0.516885 0
M  V30 4155 N 404.586 4.60835 -0.467489 0
M  V30 4156 C 405.321 5.69201 -0.69268 0
M  V30 4157 N 404.817 6.85817 -0.981146 0
M  V30 4158 N 406.61 5.58635 -0.623198 0
M  V30 4159 H 398.761 1.75049 -1.20298 0
M  V30 4160 H 401.024 0.815003 -0.484225 0
M  V30 4161 H 400.73 3.28267 -1.26228 0
M  V30 4162 H 400.604 3.74798 0.424962 0
M  V30 4163 H 402.991 2.83615 0.815247 0
M  V30 4164 H 403.072 2.39573 -0.896563 0
M  V30 4165 H 402.716 4.84596 -1.52082 0
M  V30 4166 H 402.646 5.26181 0.210068 0
M  V30 4167 H 405.137 3.7705 -0.253373 0
M  V30 4168 H 405.45 7.64341 -1.14032 0
M  V30 4169 H 403.795 6.87494 -1.01865 0
M  V30 4170 H 406.986 4.66406 -0.397863 0
M  V30 4171 H 407.159 6.43017 -0.802093 0
M  V30 4172 N 400.565 -0.0233959 1.57583 0
M  V30 4173 C 401.812 -0.713063 1.8953 0
M  V30 4174 C 402.14 -1.75056 0.847673 0
M  V30 4175 O 401.395 -1.95119 -0.150636 0
M  V30 4176 C 401.694 -1.41428 3.28227 0
M  V30 4177 C 401.36 -0.512222 4.47981 0
M  V30 4178 C 400.022 -0.263785 4.80476 0
M  V30 4179 C 402.374 0.110248 5.21083 0
M  V30 4180 C 399.702 0.615804 5.83459 0
M  V30 4181 C 402.054 0.977573 6.25001 0
M  V30 4182 C 400.718 1.23542 6.55968 0
M  V30 4183 H 399.988 -0.260928 0.69354 0
M  V30 4184 H 402.635 0.0271047 1.91481 0
M  V30 4185 H 400.94 -2.22791 3.22291 0
M  V30 4186 H 402.637 -1.95355 3.50196 0
M  V30 4187 H 399.227 -0.716013 4.22577 0
M  V30 4188 H 403.411 -0.0687137 4.96252 0
M  V30 4189 H 398.667 0.82382 6.05824 0
M  V30 4190 H 402.841 1.46638 6.80786 0
M  V30 4191 H 400.468 1.91871 7.35588 0
M  V30 4192 N 402.043 -1.548 -0.295768 0
M  V30 4193 C 403.29 -1.74329 -1.03032 0
M  V30 4194 C 403.618 -0.531915 -1.87085 0
M  V30 4195 O 402.873 0.486052 -1.89568 0
M  V30 4196 C 403.172 -2.98797 -1.961 0
M  V30 4197 C 402.838 -4.32356 -1.2798 0
M  V30 4198 C 401.5 -4.68661 -1.09135 0
M  V30 4199 C 403.852 -5.15128 -0.793243 0
M  V30 4200 C 401.18 -5.85312 -0.403269 0
M  V30 4201 C 403.532 -6.32488 -0.118854 0
M  V30 4202 C 402.196 -6.6745 0.0815043 0
M  V30 4203 H 401.466 -0.637916 -0.37702 0
M  V30 4204 H 404.113 -1.8906 -0.304696 0
M  V30 4205 H 402.418 -2.78869 -2.75207 0
M  V30 4206 H 404.115 -3.11102 -2.53015 0
M  V30 4207 H 400.705 -4.03808 -1.43655 0
M  V30 4208 H 404.889 -4.87575 -0.92653 0
M  V30 4209 H 400.145 -6.1094 -0.237098 0
M  V30 4210 H 404.319 -6.95892 0.266035 0
M  V30 4211 H 401.946 -7.57695 0.616685 0
M  V30 4212 N 403.521 0.559213 -1.47345 0
M  V30 4213 C 404.453 1.68161 -1.55738 0
M  V30 4214 C 405.466 1.56636 -0.443744 0
M  V30 4215 O 406.655 1.6363 -0.713258 0
M  V30 4216 C 403.755 3.06611 -1.4437 0
M  V30 4217 C 402.928 3.4391 -2.70268 0
M  V30 4218 C 401.987 4.61515 -2.52765 0
M  V30 4219 O 401.013 4.66197 -3.26572 0
M  V30 4220 N 402.215 5.57883 -1.6046 0
M  V30 4221 H 404.98 1.61408 -2.52522 0
M  V30 4222 H 402.541 0.7458 -1.43699 0
M  V30 4223 H 404.533 3.83117 -1.30398 0
M  V30 4224 H 403.103 3.07602 -0.556766 0
M  V30 4225 H 402.323 2.56873 -2.99015 0
M  V30 4226 H 403.611 3.65605 -3.53851 0
M  V30 4227 H 403.009 5.56855 -0.996422 0
M  V30 4228 H 401.566 6.33723 -1.52441 0
M  V30 4229 N 404.999 1.35443 0.805782 0
M  V30 4230 C 406.41 1.25768 1.37983 0
M  V30 4231 C 406.761 -0.10958 1.95894 0
M  V30 4232 O 405.886 -1.01056 1.91355 0
M  V30 4233 C 406.481 2.27727 2.5085 0
M  V30 4234 C 405.04 2.2179 3.04115 0
M  V30 4235 C 404.187 2.13393 1.77084 0
M  V30 4236 H 407.138 1.4656 0.608752 0
M  V30 4237 H 407.159 1.90422 3.29424 0
M  V30 4238 H 406.671 3.27227 2.08671 0
M  V30 4239 H 404.772 1.25703 3.50756 0
M  V30 4240 H 404.885 3.13788 3.62042 0
M  V30 4241 H 403.249 1.59384 1.98668 0
M  V30 4242 H 404.032 3.14755 1.37056 0
M  V30 4243 N 406.477 -1.02803 1.19454 0
M  V30 4244 C 407.424 -2.11099 0.933046 0
M  V30 4245 C 408.394 -1.65571 -0.132447 0
M  V30 4246 O 409.579 -1.90797 0.00987576 0
M  V30 4247 C 406.719 -3.41763 0.478747 0
M  V30 4248 C 405.832 -4.00833 1.6111 0
M  V30 4249 C 404.967 -5.19511 1.10825 0
M  V30 4250 C 404.006 -5.70639 2.21445 0
M  V30 4251 N 403.143 -6.80589 1.72461 0
M  V30 4252 H 407.983 -2.32804 1.86028 0
M  V30 4253 H 405.52 -1.14179 0.927441 0
M  V30 4254 H 407.478 -4.16736 0.196745 0
M  V30 4255 H 406.108 -3.20166 -0.411493 0
M  V30 4256 H 405.16 -3.23066 2.00829 0
M  V30 4257 H 406.472 -4.34794 2.4445 0
M  V30 4258 H 405.626 -6.01645 0.781533 0
M  V30 4259 H 404.365 -4.87086 0.244606 0
M  V30 4260 H 403.37 -4.87116 2.54947 0
M  V30 4261 H 404.595 -6.05102 3.08267 0
M  V30 4262 H 402.541 -6.50016 0.884056 0
M  V30 4263 H 402.458 -7.13681 2.49389 0
M  V30 4264 H 403.726 -7.66317 1.42755 0
M  V30 4265 N 407.956 -0.998596 -1.21925 0
M  V30 4266 C 409.233 -0.593401 -1.86382 0
M  V30 4267 C 409.613 0.92916 -1.89552 0
M  V30 4268 O 408.961 1.81347 -1.39017 0
M  V30 4269 C 409.171 -1.22039 -3.26967 0
M  V30 4270 C 410.519 -1.32449 -4.03413 0
M  V30 4271 O 411.543 -1.17522 -3.36254 0
M  V30 4272 O 410.402 -1.56395 -5.23644 0
M  V30 4273 H 407.496 -0.202385 -0.801854 0
M  V30 4274 H 410.042 -1.09484 -1.29659 0
M  V30 4275 H 408.814 -2.26158 -3.19325 0
M  V30 4276 H 408.437 -0.704906 -3.91301 0
M  V30 4277 N 409.434 1.37368 -0.772513 0
M  V30 4278 C 410.344 2.34053 -0.160081 0
M  V30 4279 C 411.36 1.60216 0.678728 0
M  V30 4280 O 412.536 1.92303 0.59847 0
M  V30 4281 C 409.601 3.3939 0.708182 0
M  V30 4282 C 408.662 4.29048 -0.147172 0
M  V30 4283 C 407.895 5.29354 0.679744 0
M  V30 4284 O 408.118 5.3723 1.91678 0
M  V30 4285 O 407.052 6.01835 0.0885444 0
M  V30 4286 H 410.878 2.88159 -0.959053 0
M  V30 4287 H 408.463 1.39543 -0.533685 0
M  V30 4288 H 410.345 4.03839 1.20384 0
M  V30 4289 H 409.02 2.8761 1.48533 0
M  V30 4290 H 407.927 3.67697 -0.689205 0
M  V30 4291 H 409.26 4.84134 -0.887423 0
M  V30 4292 N 410.912 0.523116 1.48665 0
M  V30 4293 C 412.16 -0.0134497 2.02096 0
M  V30 4294 C 412.481 -1.35418 1.40311 0
M  V30 4295 O 411.751 -1.87543 0.566074 0
M  V30 4296 H 410.331 -0.00795915 0.746958 0
M  V30 4297 H 412.993 0.685388 1.82451 0
M  V30 4298 H 412.089 -0.126849 3.11842 0
M  V30 4299 N 412.39 -1.55475 0.257931 0
M  V30 4300 C 413.638 -1.98813 -0.363009 0
M  V30 4301 C 413.959 -1.14757 -1.57657 0
M  V30 4302 O 413.229 -0.232956 -1.9451 0
M  V30 4303 H 411.809 -0.734308 -0.137113 0
M  V30 4304 H 414.471 -1.9156 0.359281 0
M  V30 4305 H 413.567 -3.04941 -0.664634 0
M  V30 4306 N 413.868 0.0150385 -1.57593 0
M  V30 4307 C 415.098 0.713359 -1.93894 0
M  V30 4308 C 415.506 1.68663 -0.857289 0
M  V30 4309 O 414.849 1.82876 0.173788 0
M  V30 4310 C 414.911 1.51348 -3.26089 0
M  V30 4311 C 414.575 0.703451 -4.51554 0
M  V30 4312 C 415.572 -0.00237924 -5.199 0
M  V30 4313 C 413.257 0.653854 -4.98026 0
M  V30 4314 C 415.251 -0.746955 -6.33008 0
M  V30 4315 C 412.938 -0.0944578 -6.11027 0
M  V30 4316 C 413.936 -0.793609 -6.78374 0
M  V30 4317 O 413.624 -1.52974 -7.89211 0
M  V30 4318 H 413.356 0.204637 -0.644282 0
M  V30 4319 H 415.91 -0.0276411 -2.05381 0
M  V30 4320 H 414.14 2.29862 -3.10967 0
M  V30 4321 H 415.829 2.09572 -3.47612 0
M  V30 4322 H 416.595 0.0268803 -4.84993 0
M  V30 4323 H 412.474 1.18756 -4.45441 0
M  V30 4324 H 416.018 -1.2932 -6.85509 0
M  V30 4325 H 411.915 -0.125591 -6.45378 0
M  V30 4326 H 412.683 -1.44488 -8.05646 0
M  V30 4327 N 415.346 1.54954 0.287554 0
M  V30 4328 C 416.593 1.74873 1.02106 0
M  V30 4329 C 416.921 0.541829 1.86801 0
M  V30 4330 O 416.176 -0.475992 1.89823 0
M  V30 4331 C 416.475 2.99833 1.94512 0
M  V30 4332 C 416.141 4.33029 1.25686 0
M  V30 4333 C 414.803 4.69233 1.06649 0
M  V30 4334 C 417.155 5.15542 0.765913 0
M  V30 4335 C 414.483 5.85518 0.372222 0
M  V30 4336 C 416.835 6.32542 0.0853101 0
M  V30 4337 C 415.499 6.67398 -0.1169 0
M  V30 4338 H 414.769 0.639906 0.373632 0
M  V30 4339 H 417.416 1.89219 0.294665 0
M  V30 4340 H 415.721 2.80325 2.73725 0
M  V30 4341 H 417.418 3.1244 2.51361 0
M  V30 4342 H 414.008 4.04564 1.41512 0
M  V30 4343 H 418.192 4.88059 0.90066 0
M  V30 4344 H 413.448 6.11057 0.204695 0
M  V30 4345 H 417.622 6.95741 -0.302936 0
M  V30 4346 H 415.249 7.57357 -0.656859 0
M  V30 4347 N 416.824 -0.551391 1.4764 0
M  V30 4348 C 418.054 -1.33163 1.57959 0
M  V30 4349 C 418.462 -1.87785 0.23094 0
M  V30 4350 O 417.805 -1.65996 -0.786825 0
M  V30 4351 C 417.867 -2.53449 2.54958 0
M  V30 4352 C 417.531 -2.20071 4.00522 0
M  V30 4353 C 418.528 -1.77017 4.88836 0
M  V30 4354 C 416.213 -2.31252 4.45901 0
M  V30 4355 C 418.207 -1.4558 6.20552 0
M  V30 4356 C 415.894 -1.99427 5.77644 0
M  V30 4357 C 416.892 -1.56659 6.64791 0
M  V30 4358 O 416.58 -1.25242 7.94084 0
M  V30 4359 H 416.312 -0.412022 0.535923 0
M  V30 4360 H 418.866 -0.674186 1.9402 0
M  V30 4361 H 417.096 -3.22104 2.13976 0
M  V30 4362 H 418.785 -3.15523 2.55343 0
M  V30 4363 H 419.551 -1.67867 4.55023 0
M  V30 4364 H 415.43 -2.63498 3.78272 0
M  V30 4365 H 418.974 -1.12125 6.8853 0
M  V30 4366 H 414.871 -2.08211 6.10998 0
M  V30 4367 H 415.639 -1.38822 8.06642 0
M  V30 4368 N 418.302 -1.35869 -0.798587 0
M  V30 4369 C 419.549 -1.29588 -1.55606 0
M  V30 4370 C 419.877 0.127456 -1.94082 0
M  V30 4371 O 419.132 1.09461 -1.62225 0
M  V30 4372 C 419.431 -2.1556 -2.85077 0
M  V30 4373 C 419.097 -3.6424 -2.65781 0
M  V30 4374 C 417.759 -4.04766 -2.60227 0
M  V30 4375 C 420.111 -4.58547 -2.47758 0
M  V30 4376 C 417.439 -5.37753 -2.34603 0
M  V30 4377 C 419.791 -5.91742 -2.23662 0
M  V30 4378 C 418.455 -6.31402 -2.16534 0
M  V30 4379 H 417.725 -0.474197 -0.569402 0
M  V30 4380 H 420.372 -1.67839 -0.922086 0
M  V30 4381 H 418.677 -1.70216 -3.52893 0
M  V30 4382 H 420.374 -2.08031 -3.42818 0
M  V30 4383 H 416.964 -3.32086 -2.70956 0
M  V30 4384 H 421.148 -4.28117 -2.51056 0
M  V30 4385 H 416.404 -5.67474 -2.2756 0
M  V30 4386 H 420.578 -6.6439 -2.08708 0
M  V30 4387 H 418.205 -7.34381 -1.96441 0
M  V30 4388 N 419.78 1.02168 -1.19998 0
M  V30 4389 C 421.028 1.75338 -1.00504 0
M  V30 4390 C 421.349 1.89387 0.464506 0
M  V30 4391 O 420.619 1.43268 1.33608 0
M  V30 4392 H 419.199 0.649564 -0.368885 0
M  V30 4393 H 421.861 1.23205 -1.51018 0
M  V30 4394 H 420.957 2.75892 -1.45912 0
M  V30 4395 N 421.258 1.00505 1.21394 0
M  V30 4396 C 422.168 0.574806 2.27449 0
M  V30 4397 C 423.184 -0.382206 1.6975 0
M  V30 4398 O 424.36 -0.246027 1.99892 0
M  V30 4399 C 421.425 -0.0917414 3.46579 0
M  V30 4400 C 420.486 0.909758 4.1955 0
M  V30 4401 C 419.719 0.274924 5.32991 0
M  V30 4402 O 419.942 -0.928254 5.62796 0
M  V30 4403 O 418.876 0.985877 5.93771 0
M  V30 4404 H 422.702 1.45744 2.66444 0
M  V30 4405 H 420.287 0.773923 1.27792 0
M  V30 4406 H 422.169 -0.464551 4.18832 0
M  V30 4407 H 420.844 -0.948755 3.09484 0
M  V30 4408 H 419.751 1.33372 3.49518 0
M  V30 4409 H 421.084 1.73636 4.60555 0
M  V30 4410 N 422.737 -1.36956 0.779787 0
M  V30 4411 C 423.667 -2.32761 0.185651 0
M  V30 4412 C 424.648 -1.56177 -0.673989 0
M  V30 4413 O 425.833 -1.84378 -0.609797 0
M  V30 4414 C 422.963 -3.40418 -0.687964 0
M  V30 4415 C 421.917 -4.27941 0.0710102 0
M  V30 4416 C 421.243 -5.26681 -0.922573 0
M  V30 4417 C 422.543 -5.07006 1.25467 0
M  V30 4418 H 424.237 -2.82698 0.986008 0
M  V30 4419 H 421.783 -1.3592 0.475592 0
M  V30 4420 H 423.736 -4.06423 -1.11348 0
M  V30 4421 H 422.46 -2.89025 -1.52093 0
M  V30 4422 H 421.119 -3.63478 0.47739 0
M  V30 4423 H 420.767 -4.71565 -1.7503 0
M  V30 4424 H 420.467 -5.86103 -0.419237 0
M  V30 4425 H 421.991 -5.9556 -1.34686 0
M  V30 4426 H 423.405 -5.66105 0.905401 0
M  V30 4427 H 421.802 -5.75793 1.69063 0
M  V30 4428 H 422.872 -4.3921 2.05481 0
M  V30 4429 N 424.215 -0.530993 -1.48385 0
M  V30 4430 C 425.626 -0.0907905 -1.86479 0
M  V30 4431 C 425.977 1.33213 -1.44044 0
M  V30 4432 O 425.102 1.99783 -0.831615 0
M  V30 4433 C 425.697 -0.157987 -3.38431 0
M  V30 4434 C 424.256 0.227026 -3.75715 0
M  V30 4435 C 423.403 -0.5173 -2.72432 0
M  V30 4436 H 426.354 -0.742186 -1.40276 0
M  V30 4437 H 426.375 0.630053 -3.75247 0
M  V30 4438 H 425.887 -1.19372 -3.69286 0
M  V30 4439 H 423.988 1.26486 -3.50474 0
M  V30 4440 H 424.101 -0.113288 -4.78966 0
M  V30 4441 H 422.465 0.0365527 -2.54674 0
M  V30 4442 H 423.248 -1.55368 -3.0613 0
M  V30 4443 N 425.693 1.55336 -0.266172 0
M  V30 4444 C 426.623 2.25146 0.618981 0
M  V30 4445 C 427.604 1.23845 1.16604 0
M  V30 4446 O 428.789 1.52544 1.20183 0
M  V30 4447 C 425.919 2.96572 1.80728 0
M  V30 4448 C 424.873 4.04726 1.39215 0
M  V30 4449 C 424.199 4.63678 2.66283 0
M  V30 4450 C 425.499 5.19407 0.548942 0
M  V30 4451 H 427.193 2.99377 0.0368116 0
M  V30 4452 H 424.739 1.43991 0.0162651 0
M  V30 4453 H 426.692 3.44116 2.43232 0
M  V30 4454 H 425.416 2.19861 2.41514 0
M  V30 4455 H 424.075 3.57979 0.790351 0
M  V30 4456 H 423.723 3.83646 3.25308 0
M  V30 4457 H 423.423 5.367 2.39222 0
M  V30 4458 H 424.947 5.13967 3.29651 0
M  V30 4459 H 426.361 5.63059 1.07876 0
M  V30 4460 H 424.758 5.98936 0.373593 0
M  V30 4461 H 425.828 4.8295 -0.434394 0
M  V30 4462 N 427.171 -0.0066808 1.57599 0
M  V30 4463 C 428.396 -0.707738 1.94951 0
M  V30 4464 C 428.821 -1.66882 0.867868 0
M  V30 4465 O 428.179 -1.80457 -0.17458 0
M  V30 4466 C 428.227 -1.42162 3.31394 0
M  V30 4467 O 427.331 -2.53578 3.25226 0
M  V30 4468 H 426.672 -0.188752 0.636607 0
M  V30 4469 H 429.202 0.0445193 2.04552 0
M  V30 4470 H 429.212 -1.78655 3.66806 0
M  V30 4471 H 427.887 -0.716903 4.09675 0
M  V30 4472 H 426.464 -2.19463 3.01481 0
M  V30 4473 N 428.649 -1.55105 -0.279332 0
M  V30 4474 C 429.579 -1.90557 -1.34945 0
M  V30 4475 C 430.56 -0.766738 -1.51839 0
M  V30 4476 O 431.745 -1.02434 -1.64988 0
M  V30 4477 C 428.875 -2.17193 -2.71006 0
M  V30 4478 C 427.829 -3.33021 -2.68851 0
M  V30 4479 C 427.155 -3.45123 -4.08405 0
M  V30 4480 C 428.455 -4.69578 -2.28678 0
M  V30 4481 H 430.149 -2.80188 -1.05522 0
M  V30 4482 H 427.695 -1.34811 -0.506173 0
M  V30 4483 H 429.648 -2.40581 -3.45975 0
M  V30 4484 H 428.372 -1.24355 -3.01999 0
M  V30 4485 H 427.031 -3.0959 -1.9634 0
M  V30 4486 H 426.679 -2.49762 -4.3661 0
M  V30 4487 H 426.379 -4.22995 -4.07859 0
M  V30 4488 H 427.903 -3.70796 -4.85121 0
M  V30 4489 H 429.317 -4.92553 -2.93368 0
M  V30 4490 H 427.714 -5.5032 -2.39306 0
M  V30 4491 H 428.784 -4.68828 -1.23807 0
M  V30 4492 N 430.127 0.543554 -1.4793 0
M  V30 4493 C 431.09 1.63156 -1.60975 0
M  V30 4494 C 432.09 1.53346 -0.483899 0
M  V30 4495 O 433.28 1.5726 -0.749339 0
M  V30 4496 C 430.412 3.02743 -1.56716 0
M  V30 4497 H 431.605 1.52934 -2.57975 0
M  V30 4498 H 429.158 0.764557 -1.36324 0
M  V30 4499 H 429.893 3.18484 -0.611418 0
M  V30 4500 H 429.678 3.11272 -2.38438 0
M  V30 4501 H 431.168 3.81871 -1.6901 0
M  V30 4502 N 431.605 1.3629 0.791371 0
M  V30 4503 C 432.568 1.30309 1.88553 0
M  V30 4504 C 433.568 0.211204 1.59407 0
M  V30 4505 O 434.758 0.465865 1.67855 0
M  V30 4506 C 431.89 1.01956 3.25297 0
M  V30 4507 H 433.083 2.27614 1.95273 0
M  V30 4508 H 430.636 1.21035 0.988953 0
M  V30 4509 H 431.371 0.050998 3.2426 0
M  V30 4510 H 431.156 1.80968 3.4784 0
M  V30 4511 H 432.646 1.0037 4.05359 0
M  V30 4512 N 433.083 -1.0153 1.20538 0
M  V30 4513 C 434.323 -1.76689 1.02763 0
M  V30 4514 C 434.687 -1.87065 -0.432513 0
M  V30 4515 O 435.888 -2.58684 -0.730481 0
M  V30 4516 C 434.159 -3.14707 1.69393 0
M  V30 4517 S 435.718 -4.05886 1.66738 0
M  V30 4518 H 432.536 -0.608076 0.368463 0
M  V30 4519 H 435.138 -1.21558 1.53114 0
M  V30 4520 H 433.842 -3.04782 2.74838 0
M  V30 4521 H 433.373 -3.74913 1.19179 0
M  V30 4522 H 435.388 -4.91221 0.70117 0
M  V30 4523 N 434.561 -1.01147 -1.20859 0
M  V30 4524 C 435.789 -0.716911 -1.94082 0
M  V30 4525 C 436.204 0.721568 -1.74467 0
M  V30 4526 O 435.561 1.48889 -1.05539 0
M  V30 4527 C 435.612 -1.03662 -3.46318 0
M  V30 4528 O 435.333 -2.4186 -3.65288 0
M  V30 4529 C 436.834 -0.762386 -4.36695 0
M  V30 4530 H 434.054 -0.26367 -0.617024 0
M  V30 4531 H 436.598 -1.35127 -1.53496 0
M  V30 4532 H 434.753 -0.447757 -3.84804 0
M  V30 4533 H 435.167 -2.53224 -4.59323 0
M  V30 4534 H 436.641 -1.03621 -5.42187 0
M  V30 4535 H 437.118 0.303514 -4.3815 0
M  V30 4536 H 437.724 -1.33316 -4.03865 0
M  V30 4537 N 436.039 1.36541 -0.78704 0
M  V30 4538 C 436.987 2.31965 -0.171724 0
M  V30 4539 C 437.981 1.55689 0.667631 0
M  V30 4540 O 439.187 1.70969 0.562981 0
M  V30 4541 H 435.562 0.751101 -0.0367545 0
M  V30 4542 H 437.533 2.81428 -0.992017 0
M  V30 4543 C 436.282 3.40968 0.680904 0
M  V30 4544 H 435.605 3.99775 0.0443961 0
M  V30 4545 H 437.045 4.10063 1.07815 0
M  V30 4546 C 435.504 2.82338 1.83813 0
M  V30 4547 O 436.034 2.74311 2.93456 0
M  V30 4548 N 434.24 2.39661 1.6435 0
M  V30 4549 H 433.787 2.46389 0.751668 0
M  V30 4550 H 433.745 2.00779 2.4194 0
M  V30 4551 N 437.518 0.538854 1.48102 0
M  V30 4552 C 438.45 -0.256278 2.27763 0
M  V30 4553 C 439.463 -0.89633 1.35904 0
M  V30 4554 O 440.652 -0.773275 1.60881 0
M  V30 4555 C 437.752 -1.37896 3.09577 0
M  V30 4556 C 436.925 -0.839159 4.29275 0
M  V30 4557 C 435.984 -1.84405 4.9283 0
M  V30 4558 O 435.01 -1.39746 5.51779 0
M  V30 4559 N 436.212 -3.17666 4.85869 0
M  V30 4560 H 438.977 0.426968 2.96643 0
M  V30 4561 H 436.538 0.373747 1.57527 0
M  V30 4562 H 438.53 -2.04955 3.48963 0
M  V30 4563 H 437.1 -1.96572 2.4306 0
M  V30 4564 H 436.32 0.00769287 3.94199 0
M  V30 4565 H 437.608 -0.457548 5.06739 0
M  V30 4566 H 437.006 -3.56609 4.39143 0
M  V30 4567 H 435.563 -3.80334 5.29329 0
M  V30 4568 N 438.996 -1.55193 0.274407 0
M  V30 4569 C 440.407 -1.85358 -0.223488 0
M  V30 4570 C 440.758 -1.19642 -1.555 0
M  V30 4571 O 439.883 -0.484498 -2.10907 0
M  V30 4572 C 440.478 -3.36282 -0.412285 0
M  V30 4573 C 439.037 -3.66574 -0.854413 0
M  V30 4574 C 438.184 -2.7725 0.0527056 0
M  V30 4575 H 441.135 -1.50743 0.496215 0
M  V30 4576 H 441.156 -3.59349 -1.25094 0
M  V30 4577 H 440.668 -3.84083 0.556965 0
M  V30 4578 H 438.769 -3.24273 -1.83516 0
M  V30 4579 H 438.882 -4.74073 -0.692226 0
M  V30 4580 H 437.246 -2.50447 -0.463484 0
M  V30 4581 H 438.029 -3.27865 1.01783 0
M  V30 4582 N 440.474 -0.00167713 -1.576 0
M  V30 4583 C 441.424 0.997744 -2.0501 0
M  V30 4584 C 442.408 1.30214 -0.94515 0
M  V30 4585 O 443.6 1.29284 -1.20891 0
M  V30 4586 C 440.729 2.2892 -2.55833 0
M  V30 4587 C 439.815 2.01437 -3.73208 0
M  V30 4588 N 440.206 1.44119 -4.84833 0
M  V30 4589 C 438.504 2.31571 -3.8117 0
M  V30 4590 C 439.205 1.33145 -5.66257 0
M  V30 4591 N 438.181 1.81763 -5.12312 0
M  V30 4592 H 441.983 0.549098 -2.88725 0
M  V30 4593 H 439.497 0.20398 -1.61114 0
M  V30 4594 H 441.494 3.01361 -2.88075 0
M  V30 4595 H 440.154 2.74436 -1.73537 0
M  V30 4596 H 441.165 1.11978 -5.0565 0
M  V30 4597 H 437.842 2.7995 -3.09732 0
M  V30 4598 H 439.232 0.890567 -6.65972 0
M  V30 4599 N 441.952 1.55251 0.271103 0
M  V30 4600 C 443.201 1.75151 1.00025 0
M  V30 4601 C 443.514 0.561041 1.87381 0
M  V30 4602 O 444.72 0.642506 2.63788 0
M  V30 4603 C 443.176 3.09999 1.82835 0
M  V30 4604 C 442.784 4.3662 1.00336 0
M  V30 4605 C 444.528 3.39249 2.55168 0
M  V30 4606 C 442.435 5.62506 1.82595 0
M  V30 4607 H 441.365 0.652877 0.377183 0
M  V30 4608 H 444.016 1.81708 0.255843 0
M  V30 4609 H 442.398 2.97485 2.61378 0
M  V30 4610 H 443.572 4.60055 0.261959 0
M  V30 4611 H 441.887 4.14527 0.394486 0
M  V30 4612 H 444.484 4.3051 3.1712 0
M  V30 4613 H 444.827 2.59467 3.2555 0
M  V30 4614 H 445.36 3.52869 1.83653 0
M  V30 4615 H 442.099 6.45041 1.16631 0
M  V30 4616 H 441.619 5.43211 2.54327 0
M  V30 4617 H 443.298 6.00875 2.39913 0
M  V30 4618 N 443.43 -0.535701 1.48216 0
M  V30 4619 C 444.676 -1.29375 1.56173 0
M  V30 4620 C 445.009 -1.92804 0.232429 0
M  V30 4621 O 444.284 -1.78992 -0.761048 0
M  V30 4622 C 444.567 -2.38747 2.69577 0
M  V30 4623 C 444.42 -1.80046 4.12193 0
M  V30 4624 C 445.739 -3.40551 2.78771 0
M  V30 4625 H 442.858 -0.469027 0.568491 0
M  V30 4626 H 445.5 -0.597358 1.80365 0
M  V30 4627 H 443.65 -2.98147 2.4908 0
M  V30 4628 H 445.322 -1.24742 4.44114 0
M  V30 4629 H 443.565 -1.10609 4.19462 0
M  V30 4630 H 444.236 -2.59212 4.87353 0
M  V30 4631 H 446.712 -2.91099 2.97322 0
M  V30 4632 H 445.588 -4.1448 3.59857 0
M  V30 4633 H 445.849 -4.00746 1.86696 0
M  V30 4634 N 444.908 -1.36708 -0.784132 0
M  V30 4635 C 445.856 -1.31533 -1.91838 0
M  V30 4636 C 446.85 -0.206205 -1.6814 0
M  V30 4637 O 448.056 -0.373519 -1.76082 0
M  V30 4638 H 444.431 -0.409613 -0.630651 0
M  V30 4639 H 446.402 -2.2731 -1.9332 0
M  V30 4640 C 445.151 -1.12679 -3.28936 0
M  V30 4641 H 444.474 -1.97274 -3.4774 0
M  V30 4642 H 445.914 -1.13106 -4.08636 0
M  V30 4643 C 444.373 0.168281 -3.36479 0
M  V30 4644 O 444.903 1.15625 -3.84699 0
M  V30 4645 N 443.109 0.214762 -2.89805 0
M  V30 4646 H 442.656 -0.589852 -2.50756 0
M  V30 4647 H 442.614 1.08094 -2.95234 0
M  V30 4648 N 446.386 1.0089 -1.21074 0
M  V30 4649 C 447.616 1.77933 -1.04993 0
M  V30 4650 C 448.024 1.84847 0.403495 0
M  V30 4651 O 447.367 1.30606 1.29181 0
M  V30 4652 C 447.429 3.23541 -1.56722 0
M  V30 4653 C 447.093 3.40214 -3.05129 0
M  V30 4654 C 448.09 3.2881 -4.02716 0
M  V30 4655 C 445.775 3.65781 -3.44252 0
M  V30 4656 C 447.769 3.42732 -5.37414 0
M  V30 4657 C 445.456 3.79346 -4.79103 0
M  V30 4658 C 446.454 3.67827 -5.75493 0
M  V30 4659 O 446.142 3.80965 -7.07899 0
M  V30 4660 H 445.874 0.566157 -0.369381 0
M  V30 4661 H 448.428 1.27826 -1.60779 0
M  V30 4662 H 446.658 3.74766 -0.953285 0
M  V30 4663 H 448.347 3.82245 -1.36543 0
M  V30 4664 H 449.113 3.08986 -3.73835 0
M  V30 4665 H 444.992 3.73831 -2.69762 0
M  V30 4666 H 448.536 3.33658 -6.12632 0
M  V30 4667 H 444.433 3.98672 -5.07672 0
M  V30 4668 H 445.201 3.97937 -7.15254 0
M  V30 4669 N 447.864 1.01787 1.20321 0
M  V30 4670 C 448.794 0.609625 2.25401 0
M  V30 4671 C 449.775 -0.375951 1.65893 0
M  V30 4672 O 450.96 -0.261101 1.92437 0
M  V30 4673 C 448.09 -0.0515995 3.47262 0
M  V30 4674 C 447.044 0.855095 4.19371 0
M  V30 4675 C 446.37 0.0595757 5.34667 0
M  V30 4676 C 447.67 2.16374 4.75373 0
M  V30 4677 H 449.364 1.48803 2.59804 0
M  V30 4678 H 446.91 0.716934 1.24884 0
M  V30 4679 H 448.863 -0.348764 4.19954 0
M  V30 4680 H 447.587 -0.964726 3.12027 0
M  V30 4681 H 446.246 1.13628 3.48546 0
M  V30 4682 H 445.894 -0.85524 4.95676 0
M  V30 4683 H 445.594 0.663406 5.83843 0
M  V30 4684 H 447.118 -0.231105 6.10162 0
M  V30 4685 H 448.532 1.92885 5.39878 0
M  V30 4686 H 446.929 2.71853 5.34991 0
M  V30 4687 H 447.999 2.82589 3.94045 0
M  V30 4688 N 449.342 -1.36122 0.79427 0
M  V30 4689 C 450.57 -2.03362 0.380989 0
M  V30 4690 C 450.985 -1.59881 -1.00416 0
M  V30 4691 O 450.342 -0.790515 -1.6449 0
M  V30 4692 C 450.393 -3.58804 0.440649 0
M  V30 4693 O 450.114 -4.007 1.77118 0
M  V30 4694 C 451.615 -4.43296 0.0186117 0
M  V30 4695 H 448.835 -0.652526 0.156367 0
M  V30 4696 H 451.379 -1.73998 1.07447 0
M  V30 4697 H 449.534 -3.8686 -0.204458 0
M  V30 4698 H 449.948 -4.95309 1.72538 0
M  V30 4699 H 451.422 -5.51887 0.111488 0
M  V30 4700 H 451.899 -4.2684 -1.03461 0
M  V30 4701 H 452.505 -4.20512 0.636395 0
M  V30 4702 N 450.82 -0.546701 -1.47814 0
M  V30 4703 C 451.73 0.21026 -2.33656 0
M  V30 4704 C 452.746 0.922413 -1.47538 0
M  V30 4705 O 453.922 0.893652 -1.80488 0
M  V30 4706 C 450.987 1.23348 -3.24016 0
M  V30 4707 C 450.048 0.529883 -4.26017 0
M  V30 4708 C 449.281 1.50435 -5.12059 0
M  V30 4709 O 449.504 2.73837 -5.00369 0
M  V30 4710 O 448.438 1.03459 -5.92942 0
M  V30 4711 H 452.264 -0.493605 -2.99662 0
M  V30 4712 H 449.849 -0.307427 -1.46203 0
M  V30 4713 H 451.731 1.82438 -3.79861 0
M  V30 4714 H 450.406 1.91945 -2.60651 0
M  V30 4715 H 449.313 -0.101948 -3.73961 0
M  V30 4716 H 450.646 -0.11445 -4.92067 0
M  V30 4717 N 452.299 1.55045 -0.282633 0
M  V30 4718 C 453.247 2.24254 0.617478 0
M  V30 4719 C 454.241 1.24215 1.15183 0
M  V30 4720 O 455.447 1.42123 1.10459 0
M  V30 4721 H 451.822 0.719801 0.217693 0
M  V30 4722 H 453.793 2.98398 0.0110076 0
M  V30 4723 C 452.542 2.98281 1.78672 0
M  V30 4724 H 451.865 3.75053 1.38475 0
M  V30 4725 H 453.305 3.50017 2.393 0
M  V30 4726 C 451.764 2.04184 2.67975 0
M  V30 4727 O 452.294 1.59792 3.6855 0
M  V30 4728 N 450.5 1.70526 2.35307 0
M  V30 4729 H 450.047 2.06821 1.53567 0
M  V30 4730 H 450.005 1.07839 2.95327 0
M  V30 4731 N 453.777 0.010035 1.57597 0
M  V30 4732 C 455.188 -0.531426 1.78977 0
M  V30 4733 C 455.539 -1.73375 0.918454 0
M  V30 4734 O 454.664 -2.16047 0.123635 0
M  V30 4735 C 455.259 -0.97086 3.24592 0
M  V30 4736 C 453.818 -1.45756 3.47033 0
M  V30 4737 C 452.965 -0.413384 2.74201 0
M  V30 4738 H 455.916 0.236166 1.56933 0
M  V30 4739 H 455.937 -1.83633 3.33255 0
M  V30 4740 H 455.449 -0.0955893 3.87982 0
M  V30 4741 H 453.55 -2.35339 2.88871 0
M  V30 4742 H 453.663 -1.4781 4.55729 0
M  V30 4743 H 452.027 -0.877266 2.39115 0
M  V30 4744 H 452.81 0.453092 3.40297 0
M  V30 4745 N 455.255 -1.55392 -0.262866 0
M  V30 4746 C 456.205 -1.85355 -1.32768 0
M  V30 4747 C 457.189 -0.713188 -1.44231 0
M  V30 4748 O 458.381 -0.974765 -1.47741 0
M  V30 4749 C 455.51 -2.13781 -2.68612 0
M  V30 4750 C 454.596 -3.34104 -2.61219 0
M  V30 4751 N 454.987 -4.53766 -2.2345 0
M  V30 4752 C 453.285 -3.36895 -2.92263 0
M  V30 4753 C 453.986 -5.35877 -2.26298 0
M  V30 4754 N 452.962 -4.74536 -2.65172 0
M  V30 4755 H 456.764 -2.75413 -1.02591 0
M  V30 4756 H 454.278 -1.55405 -0.471503 0
M  V30 4757 H 456.275 -2.33407 -3.45437 0
M  V30 4758 H 454.935 -1.25013 -2.99669 0
M  V30 4759 H 455.946 -4.79682 -1.95258 0
M  V30 4760 H 452.623 -2.58351 -3.27965 0
M  V30 4761 H 454.013 -6.41577 -1.99572 0
M  V30 4762 N 456.733 0.527833 -1.48498 0
M  V30 4763 C 457.68 1.6322 -1.6318 0
M  V30 4764 C 458.65 1.59199 -0.473815 0
M  V30 4765 O 459.835 1.77591 -0.697563 0
M  V30 4766 C 456.975 3.01474 -1.67951 0
M  V30 4767 C 456.088 3.15713 -2.94871 0
M  V30 4768 C 455.223 4.44539 -2.90789 0
M  V30 4769 C 454.262 4.52315 -4.12404 0
M  V30 4770 N 453.399 5.72533 -4.06387 0
M  V30 4771 H 458.239 1.50011 -2.57489 0
M  V30 4772 H 455.776 0.730298 -1.27691 0
M  V30 4773 H 457.734 3.81572 -1.68698 0
M  V30 4774 H 456.364 3.1345 -0.771306 0
M  V30 4775 H 455.416 2.28854 -3.03859 0
M  V30 4776 H 456.728 3.1732 -3.8485 0
M  V30 4777 H 455.882 5.3293 -2.89949 0
M  V30 4778 H 454.621 4.45457 -1.98542 0
M  V30 4779 H 453.626 3.62331 -4.13517 0
M  V30 4780 H 454.851 4.53134 -5.05812 0
M  V30 4781 H 452.797 5.74344 -3.16962 0
M  V30 4782 H 452.714 5.75643 -4.90073 0
M  V30 4783 H 453.982 6.63204 -4.0961 0
M  V30 4784 N 458.211 1.37122 0.776871 0
M  V30 4785 C 459.158 1.3247 1.88998 0
M  V30 4786 C 460.128 0.191143 1.64997 0
M  V30 4787 O 461.313 0.379683 1.86984 0
M  V30 4788 C 458.453 1.13241 3.25992 0
M  V30 4789 C 457.566 2.35782 3.61982 0
M  V30 4790 C 456.701 2.09465 4.88158 0
M  V30 4791 C 455.74 3.279 5.16864 0
M  V30 4792 N 454.877 3.01167 6.34226 0
M  V30 4793 H 459.717 2.27642 1.9231 0
M  V30 4794 H 457.254 1.13125 0.94027 0
M  V30 4795 H 459.212 1.00115 4.0501 0
M  V30 4796 H 457.842 0.217186 3.22069 0
M  V30 4797 H 456.894 2.59666 2.77989 0
M  V30 4798 H 458.206 3.24125 3.79137 0
M  V30 4799 H 457.36 1.93341 5.75069 0
M  V30 4800 H 456.099 1.18452 4.73097 0
M  V30 4801 H 455.104 3.44569 4.2843 0
M  V30 4802 H 456.329 4.19757 5.33836 0
M  V30 4803 H 454.275 2.12779 6.20533 0
M  V30 4804 H 454.192 3.83052 6.51772 0
M  V30 4805 H 455.46 2.88649 7.24087 0
M  V30 4806 N 459.689 -1.00246 1.21608 0
M  V30 4807 C 460.652 -2.07233 0.979133 0
M  V30 4808 C 461.652 -1.6072 -0.0508219 0
M  V30 4809 O 462.842 -1.73196 0.186712 0
M  V30 4810 C 459.974 -3.37546 0.477016 0
M  V30 4811 H 461.167 -2.29687 1.92831 0
M  V30 4812 H 458.72 -1.17261 1.03342 0
M  V30 4813 H 459.455 -3.20773 -0.476966 0
M  V30 4814 H 459.24 -3.72638 1.21997 0
M  V30 4815 H 460.73 -4.16285 0.331181 0
M  V30 4816 N 461.167 -1.02423 -1.1978 0
M  V30 4817 C 462.444 -0.632802 -1.85081 0
M  V30 4818 C 462.824 0.888745 -1.9148 0
M  V30 4819 O 462.172 1.78357 -1.42832 0
M  V30 4820 C 462.382 -1.28947 -3.24305 0
M  V30 4821 C 463.73 -1.40976 -4.00513 0
M  V30 4822 O 464.754 -1.24628 -3.33686 0
M  V30 4823 O 463.613 -1.67467 -5.20209 0
M  V30 4824 H 460.707 -0.219348 -0.79738 0
M  V30 4825 H 463.253 -1.12209 -1.27307 0
M  V30 4826 H 462.025 -2.3288 -3.14456 0
M  V30 4827 H 461.648 -0.787748 -3.89718 0
M  V30 4828 N 462.645 1.35699 -0.801477 0
M  V30 4829 C 463.578 2.2768 -0.153922 0
M  V30 4830 C 464.556 1.47832 0.67709 0
M  V30 4831 O 465.74 1.77104 0.645474 0
M  V30 4832 C 462.867 3.2943 0.786986 0
M  V30 4833 C 461.913 4.26485 0.0362447 0
M  V30 4834 S 462.746 5.19573 -1.2963 0
M  V30 4835 C 463.902 6.24866 -0.359705 0
M  V30 4836 H 464.135 2.82254 -0.9338 0
M  V30 4837 H 461.668 1.42421 -0.596283 0
M  V30 4838 H 463.626 3.8855 1.32436 0
M  V30 4839 H 462.287 2.73745 1.54021 0
M  V30 4840 H 461.48 4.98378 0.750668 0
M  V30 4841 H 461.082 3.71508 -0.431017 0
M  V30 4842 H 463.374 6.75957 0.456954 0
M  V30 4843 H 464.317 7.00307 -1.04768 0
M  V30 4844 H 464.725 5.64484 0.0423274 0
M  V30 4845 N 464.123 0.554532 1.47522 0
M  V30 4846 C 465.539 0.214107 1.58157 0
M  V30 4847 C 465.739 -1.28331 1.55349 0
M  V30 4848 O 464.795 -2.06329 1.45549 0
M  V30 4849 C 466.108 0.838391 2.88776 0
M  V30 4850 C 467.656 0.809374 3.02354 0
M  V30 4851 C 468.131 1.41268 4.35669 0
M  V30 4852 N 469.622 1.37574 4.42298 0
M  V30 4853 C 470.357 1.8122 5.4401 0
M  V30 4854 N 469.853 2.3271 6.52547 0
M  V30 4855 N 471.646 1.72307 5.35039 0
M  V30 4856 H 463.797 1.52744 1.4759 0
M  V30 4857 H 466.06 0.636812 0.702264 0
M  V30 4858 H 465.766 1.89065 2.96559 0
M  V30 4859 H 465.64 0.329847 3.75755 0
M  V30 4860 H 468.027 -0.234187 2.94169 0
M  V30 4861 H 468.108 1.35565 2.16924 0
M  V30 4862 H 467.752 2.45529 4.4461 0
M  V30 4863 H 467.682 0.841871 5.19827 0
M  V30 4864 H 470.173 0.999081 3.64454 0
M  V30 4865 H 470.486 2.63944 7.26329 0
M  V30 4866 H 468.831 2.36719 6.53444 0
M  V30 4867 H 472.022 1.3186 4.49144 0
M  V30 4868 H 472.195 2.06641 6.14169 0
M  V30 4869 N 465.601 -1.54893 0.290851 0
M  V30 4870 C 467.017 -1.59476 -0.0628432 0
M  V30 4871 C 467.217 -1.30795 -1.5328 0
M  V30 4872 O 466.273 -1.07644 -2.28406 0
M  V30 4873 C 467.586 -2.98928 0.325962 0
M  V30 4874 C 469.134 -3.11799 0.273882 0
M  V30 4875 C 469.609 -4.53544 0.637359 0
M  V30 4876 N 471.1 -4.59433 0.589507 0
M  V30 4877 C 471.835 -5.67164 0.84335 0
M  V30 4878 N 471.331 -6.82975 1.16263 0
M  V30 4879 N 473.124 -5.56786 0.771091 0
M  V30 4880 H 465.275 -1.71798 1.24896 0
M  V30 4881 H 467.538 -0.801879 0.505663 0
M  V30 4882 H 467.244 -3.24805 1.34887 0
M  V30 4883 H 467.118 -3.75793 -0.325441 0
M  V30 4884 H 469.505 -2.85677 -0.739765 0
M  V30 4885 H 469.586 -2.37112 0.959766 0
M  V30 4886 H 469.23 -4.80394 1.64877 0
M  V30 4887 H 469.16 -5.26553 -0.0704866 0
M  V30 4888 H 471.651 -3.76245 0.353252 0
M  V30 4889 H 471.964 -7.61048 1.34257 0
M  V30 4890 H 470.309 -6.84552 1.20057 0
M  V30 4891 H 473.5 -4.65187 0.521383 0
M  V30 4892 H 473.673 -6.40664 0.972295 0
M  V30 4893 N 467.08 -0.0183926 -1.57589 0
M  V30 4894 C 468.012 0.995557 -2.06449 0
M  V30 4895 C 469.025 1.29556 -0.985849 0
M  V30 4896 O 470.214 1.2621 -1.26227 0
M  V30 4897 C 467.314 2.32572 -2.46502 0
M  V30 4898 C 466.487 2.21245 -3.77319 0
M  V30 4899 C 465.546 3.37104 -4.04039 0
M  V30 4900 O 464.572 3.14468 -4.74445 0
M  V30 4901 N 465.774 4.60553 -3.53372 0
M  V30 4902 H 468.539 0.578746 -2.94059 0
M  V30 4903 H 466.1 0.168603 -1.6102 0
M  V30 4904 H 468.092 3.08887 -2.61478 0
M  V30 4905 H 466.662 2.65931 -1.64315 0
M  V30 4906 H 465.882 1.29723 -3.72244 0
M  V30 4907 H 467.17 2.10868 -4.63047 0
M  V30 4908 H 466.568 4.81839 -2.96391 0
M  V30 4909 H 465.125 5.34072 -3.73644 0
M  V30 4910 N 468.558 1.5553 0.254621 0
M  V30 4911 C 469.835 1.6774 1.00611 0
M  V30 4912 C 470.215 0.555993 2.03647 0
M  V30 4913 O 469.563 -0.441583 2.24193 0
M  V30 4914 C 469.773 3.07725 1.6464 0
M  V30 4915 C 471.121 3.66074 2.15116 0
M  V30 4916 O 472.145 3.10476 1.74595 0
M  V30 4917 O 471.004 4.63526 2.89493 0
M  V30 4918 H 468.098 0.681958 0.467828 0
M  V30 4919 H 470.644 1.67863 0.24902 0
M  V30 4920 H 469.416 3.80792 0.900734 0
M  V30 4921 H 469.039 3.1158 2.46989 0
M  V30 4922 N 470.036 -0.519951 1.48776 0
M  V30 4923 C 471.261 -1.30447 1.6124 0
M  V30 4924 C 471.686 -1.86055 0.276591 0
M  V30 4925 O 471.044 -1.64915 -0.753183 0
M  V30 4926 C 471.092 -2.42406 2.66967 0
M  V30 4927 O 470.196 -3.45728 2.24824 0
M  V30 4928 H 469.537 -0.385924 0.540332 0
M  V30 4929 H 472.067 -0.624572 1.94834 0
M  V30 4930 H 472.077 -2.88447 2.88552 0
M  V30 4931 H 470.752 -2.01294 3.63941 0
M  V30 4932 H 469.329 -3.05737 2.13494 0
M  V30 4933 N 471.514 -1.37532 -0.769588 0
M  V30 4934 C 472.93 -1.18379 -1.07045 0
M  V30 4935 C 473.13 -0.0214312 -2.01489 0
M  V30 4936 O 472.186 0.637809 -2.44312 0
M  V30 4937 C 473.499 -2.50338 -1.66588 0
M  V30 4938 C 475.047 -2.56879 -1.78835 0
M  V30 4939 C 475.522 -3.88974 -2.41792 0
M  V30 4940 N 477.013 -3.90428 -2.4924 0
M  V30 4941 C 477.748 -4.89388 -2.98809 0
M  V30 4942 N 477.244 -5.98745 -3.48535 0
M  V30 4943 N 479.037 -4.76791 -2.97703 0
M  V30 4944 H 471.188 -2.11921 -0.142541 0
M  V30 4945 H 473.451 -0.939608 -0.125863 0
M  V30 4946 H 473.157 -3.35767 -1.0466 0
M  V30 4947 H 473.031 -2.67583 -2.65856 0
M  V30 4948 H 475.418 -1.71856 -2.39895 0
M  V30 4949 H 475.499 -2.43516 -0.783166 0
M  V30 4950 H 475.143 -4.74412 -1.81371 0
M  V30 4951 H 475.073 -3.99641 -3.4292 0
M  V30 4952 H 477.564 -3.11433 -2.14052 0
M  V30 4953 H 477.877 -6.70205 -3.84767 0
M  V30 4954 H 476.222 -6.02387 -3.46634 0
M  V30 4955 H 479.413 -3.90478 -2.58157 0
M  V30 4956 H 479.586 -5.54069 -3.36024 0
M  V30 4957 N 472.992 0.995999 -1.22138 0
M  V30 4958 C 474.24 1.73167 -1.042 0
M  V30 4959 C 474.561 1.90329 0.42423 0
M  V30 4960 O 473.831 1.4607 1.30539 0
M  V30 4961 H 472.411 0.641593 -0.38258 0
M  V30 4962 H 475.073 1.19974 -1.53598 0
M  V30 4963 H 474.169 2.72734 -1.51731 0
M  V30 4964 N 474.47 1.03057 1.19235 0
M  V30 4965 C 475.418 0.606391 2.24557 0
M  V30 4966 C 476.412 -0.361826 1.65491 0
M  V30 4967 O 477.618 -0.23022 1.78522 0
M  V30 4968 H 473.993 0.177838 0.730669 0
M  V30 4969 H 475.964 1.50529 2.5765 0
M  V30 4970 C 474.713 -0.0252127 3.47691 0
M  V30 4971 H 474.036 0.710838 3.9343 0
M  V30 4972 H 475.476 -0.284931 4.23042 0
M  V30 4973 C 473.935 -1.27229 3.11953 0
M  V30 4974 O 474.465 -2.36416 3.24762 0
M  V30 4975 N 472.671 -1.16169 2.6637 0
M  V30 4976 H 472.218 -0.273189 2.56147 0
M  V30 4977 H 472.176 -1.99703 2.42829 0
M  V30 4978 N 475.948 -1.35272 0.808662 0
M  V30 4979 C 477.176 -2.02946 0.402537 0
M  V30 4980 C 477.591 -1.60937 -0.987147 0
M  V30 4981 O 476.948 -0.807917 -1.63643 0
M  V30 4982 C 476.999 -3.58317 0.47868 0
M  V30 4983 O 476.72 -3.98799 1.81358 0
M  V30 4984 C 478.221 -4.43251 0.0656281 0
M  V30 4985 H 475.441 -0.650831 0.163279 0
M  V30 4986 H 477.985 -1.72849 1.09286 0
M  V30 4987 H 476.14 -3.87055 -0.163415 0
M  V30 4988 H 476.554 -4.93451 1.77781 0
M  V30 4989 H 478.028 -5.51738 0.170017 0
M  V30 4990 H 478.505 -4.27913 -0.989278 0
M  V30 4991 H 479.111 -4.19813 0.68096 0
M  V30 4992 N 477.426 -0.562348 -1.47226 0
M  V30 4993 C 478.672 -0.0402761 -2.0276 0
M  V30 4994 C 479.005 1.30823 -1.43523 0
M  V30 4995 O 478.28 1.85249 -0.592705 0
M  V30 4996 C 478.563 0.047311 -3.60069 0
M  V30 4997 C 478.416 -1.32865 -4.29729 0
M  V30 4998 C 479.735 0.758182 -4.3352 0
M  V30 4999 H 476.854 -0.0161105 -0.736824 0
M  V30 5000 H 479.496 -0.725628 -1.75598 0
M  V30 5001 H 477.646 0.630986 -3.83342 0
M  V30 5002 H 479.318 -1.95593 -4.17781 0
M  V30 5003 H 477.561 -1.90195 -3.89882 0
M  V30 5004 H 478.232 -1.22004 -5.38349 0
M  V30 5005 H 480.708 0.262546 -4.15271 0
M  V30 5006 H 479.584 0.78844 -5.43208 0
M  V30 5007 H 479.845 1.81537 -4.03109 0
M  V30 5008 N 478.904 1.54736 -0.299062 0
M  V30 5009 C 479.834 2.26409 0.571085 0
M  V30 5010 C 480.815 1.2629 1.13951 0
M  V30 5011 O 482 1.55059 1.16921 0
M  V30 5012 C 479.13 3.00338 1.74396 0
M  V30 5013 C 478.084 4.07588 1.30599 0
M  V30 5014 C 477.41 4.69222 2.56387 0
M  V30 5015 C 478.71 5.20455 0.438645 0
M  V30 5016 H 480.404 2.99388 -0.0266991 0
M  V30 5017 H 477.95 1.43993 -0.0142812 0
M  V30 5018 H 479.903 3.49198 2.35878 0
M  V30 5019 H 478.627 2.24934 2.36796 0
M  V30 5020 H 477.286 3.59575 0.71424 0
M  V30 5021 H 476.934 3.9046 3.17097 0
M  V30 5022 H 476.634 5.41653 2.27784 0
M  V30 5023 H 478.158 5.20844 3.18675 0
M  V30 5024 H 479.572 5.65221 0.959085 0
M  V30 5025 H 477.969 5.99594 0.246466 0
M  V30 5026 H 479.039 4.8192 -0.536738 0
M  V30 5027 N 480.382 0.0267497 1.57577 0
M  V30 5028 C 481.332 -0.965003 2.06571 0
M  V30 5029 C 482.316 -1.28694 0.965746 0
M  V30 5030 O 483.508 -1.27345 1.22932 0
M  V30 5031 C 480.637 -2.24821 2.59443 0
M  V30 5032 C 479.723 -1.95474 3.76365 0
M  V30 5033 N 480.114 -1.36387 4.87065 0
M  V30 5034 C 478.412 -2.25478 3.84806 0
M  V30 5035 C 479.113 -1.24119 5.68304 0
M  V30 5036 N 478.089 -1.7359 5.15138 0
M  V30 5037 H 481.891 -0.503095 2.89562 0
M  V30 5038 H 479.405 -0.178322 1.61418 0
M  V30 5039 H 481.402 -2.9674 2.92833 0
M  V30 5040 H 480.062 -2.7164 1.77881 0
M  V30 5041 H 481.073 -1.03919 5.07367 0
M  V30 5042 H 477.75 -2.74987 3.14147 0
M  V30 5043 H 479.14 -0.784504 6.67304 0
M  V30 5044 N 481.861 -1.55662 -0.24637 0
M  V30 5045 C 482.824 -1.89558 -1.28842 0
M  V30 5046 C 483.824 -0.772082 -1.41052 0
M  V30 5047 O 485.014 -1.04007 -1.39743 0
M  V30 5048 C 482.146 -2.12449 -2.66605 0
M  V30 5049 H 483.339 -2.82735 -1.00004 0
M  V30 5050 H 480.892 -1.48562 -0.485684 0
M  V30 5051 H 481.627 -1.21742 -3.00582 0
M  V30 5052 H 481.412 -2.94273 -2.59125 0
M  V30 5053 H 482.902 -2.39854 -3.41847 0
M  V30 5054 N 483.339 0.512053 -1.4905 0
M  V30 5055 C 484.269 1.62365 -1.67809 0
M  V30 5056 C 485.25 1.61737 -0.526809 0
M  V30 5057 O 486.435 1.78651 -0.761404 0
M  V30 5058 C 483.565 3.00895 -1.73435 0
M  V30 5059 C 482.519 3.16387 -2.88242 0
M  V30 5060 C 481.845 4.56157 -2.78971 0
M  V30 5061 C 483.145 2.97457 -4.29321 0
M  V30 5062 H 484.839 1.46921 -2.60873 0
M  V30 5063 H 482.385 0.705379 -1.2554 0
M  V30 5064 H 484.338 3.78549 -1.85145 0
M  V30 5065 H 483.062 3.17403 -0.769619 0
M  V30 5066 H 481.721 2.41155 -2.76116 0
M  V30 5067 H 481.369 4.69525 -1.8043 0
M  V30 5068 H 481.069 4.67465 -3.5602 0
M  V30 5069 H 482.593 5.35886 -2.92675 0
M  V30 5070 H 484.007 3.64888 -4.42187 0
M  V30 5071 H 482.404 3.20245 -5.07507 0
M  V30 5072 H 483.474 1.93692 -4.44535 0
M  V30 5073 N 484.817 1.37938 0.762283 0
M  V30 5074 C 486.063 1.33866 1.52341 0
M  V30 5075 C 486.396 -0.0738961 1.94059 0
M  V30 5076 O 485.671 -1.03326 1.64785 0
M  V30 5077 C 485.954 2.28644 2.78197 0
M  V30 5078 C 485.807 3.78722 2.42672 0
M  V30 5079 C 487.126 2.21702 3.80179 0
M  V30 5080 H 484.245 0.487593 0.55265 0
M  V30 5081 H 486.887 1.68717 0.873767 0
M  V30 5082 H 485.037 1.99055 3.33631 0
M  V30 5083 H 486.709 4.18948 1.93081 0
M  V30 5084 H 484.952 3.96827 1.75244 0
M  V30 5085 H 485.623 4.40486 3.3268 0
M  V30 5086 H 488.099 2.47805 3.34263 0
M  V30 5087 H 486.975 2.90143 4.65949 0
M  V30 5088 H 487.236 1.21301 4.25133 0
M  V30 5089 N 486.295 -0.989507 1.22664 0
M  V30 5090 C 487.258 -2.06183 1.00106 0
M  V30 5091 C 488.258 -1.60765 -0.0337726 0
M  V30 5092 O 489.448 -1.72989 0.205072 0
M  V30 5093 C 486.58 -3.37021 0.51279 0
M  V30 5094 H 487.773 -2.27629 1.95256 0
M  V30 5095 H 485.326 -1.16158 1.0458 0
M  V30 5096 H 486.061 -3.21261 -0.442917 0
M  V30 5097 H 485.846 -3.71323 1.25942 0
M  V30 5098 H 487.336 -4.1591 0.375315 0
M  V30 5099 N 487.773 -1.03688 -1.18687 0
M  V30 5100 C 489.022 -0.733235 -1.879 0
M  V30 5101 C 489.335 0.741745 -1.8099 0
M  V30 5102 O 490.541 1.15875 -2.4553 0
M  V30 5103 C 488.997 -1.26127 -3.37076 0
M  V30 5104 C 488.605 -2.76461 -3.52524 0
M  V30 5105 C 490.349 -1.03398 -4.11715 0
M  V30 5106 C 488.256 -3.22642 -4.95637 0
M  V30 5107 H 487.186 -0.270584 -0.703776 0
M  V30 5108 H 489.837 -1.25222 -1.34133 0
M  V30 5109 H 488.219 -0.670165 -3.90288 0
M  V30 5110 H 489.393 -3.41296 -3.09602 0
M  V30 5111 H 487.708 -2.97559 -2.91286 0
M  V30 5112 H 490.305 -1.3542 -5.17267 0
M  V30 5113 H 490.648 0.0289246 -4.1629 0
M  V30 5114 H 491.181 -1.5895 -3.64664 0
M  V30 5115 H 487.92 -4.28296 -4.96228 0
M  V30 5116 H 487.44 -2.62539 -5.39289 0
M  V30 5117 H 489.119 -3.16444 -5.64333 0
M  V30 5118 N 489.251 1.34841 -0.815825 0
M  V30 5119 C 490.214 2.27959 -0.238185 0
M  V30 5120 C 491.214 1.49983 0.579816 0
M  V30 5121 O 492.404 1.69617 0.396953 0
M  V30 5122 C 489.536 3.34314 0.666876 0
M  V30 5123 H 490.729 2.80558 -1.05958 0
M  V30 5124 H 488.282 1.44852 -0.587156 0
M  V30 5125 H 489.017 2.86916 1.5116 0
M  V30 5126 H 488.802 3.92014 0.0819106 0
M  V30 5127 H 490.292 4.0379 1.06506 0
M  V30 5128 N 490.729 0.570148 1.46925 0
M  V30 5129 C 492.006 -0.0153259 1.95594 0
M  V30 5130 C 492.386 -1.47232 1.51281 0
M  V30 5131 O 491.734 -2.15574 0.757624 0
M  V30 5132 C 491.944 0.143624 3.48704 0
M  V30 5133 C 493.292 0.00494484 4.246 0
M  V30 5134 O 494.316 0.0718214 3.56128 0
M  V30 5135 O 493.175 -0.141175 5.46318 0
M  V30 5136 H 490.269 -0.0568819 0.825041 0
M  V30 5137 H 492.815 0.637583 1.57267 0
M  V30 5138 H 491.587 1.15699 3.73804 0
M  V30 5139 H 491.21 -0.5463 3.93829 0
M  V30 5140 N 492.207 -1.54576 0.307264 0
M  V30 5141 C 493.155 -2.25208 -0.581723 0
M  V30 5142 C 494.149 -1.26031 -1.13192 0
M  V30 5143 O 495.355 -1.43862 -1.08184 0
M  V30 5144 H 491.73 -0.723173 -0.206214 0
M  V30 5145 H 493.701 -2.98378 0.0364663 0
M  V30 5146 C 492.45 -3.01086 -1.73904 0
M  V30 5147 H 491.773 -3.77208 -1.32491 0
M  V30 5148 H 493.213 -3.5378 -2.33701 0
M  V30 5149 C 491.672 -2.08422 -2.64692 0
M  V30 5150 O 492.202 -1.65636 -3.65961 0
M  V30 5151 N 490.408 -1.74247 -2.32564 0
M  V30 5152 H 489.955 -2.09238 -1.50257 0
M  V30 5153 H 489.913 -1.12524 -2.93574 0
M  V30 5154 N 493.685 -0.035106 -1.57561 0
M  V30 5155 C 494.913 0.652258 -1.9635 0
M  V30 5156 C 495.328 1.65317 -0.911897 0
M  V30 5157 O 494.685 1.82194 0.105657 0
M  V30 5158 C 494.736 1.35337 -3.35211 0
M  V30 5159 O 494.457 0.392548 -4.36338 0
M  V30 5160 C 495.958 2.13199 -3.88666 0
M  V30 5161 H 493.178 0.179444 -0.646561 0
M  V30 5162 H 495.722 -0.0966459 -2.04271 0
M  V30 5163 H 493.877 2.05362 -3.28489 0
M  V30 5164 H 494.291 0.891097 -5.16875 0
M  V30 5165 H 495.765 2.577 -4.88154 0
M  V30 5166 H 496.242 2.97353 -3.23231 0
M  V30 5167 H 496.848 1.48118 -3.98674 0
M  V30 5168 N 495.163 1.55791 0.238111 0
M  V30 5169 C 496.579 1.48411 0.587045 0
M  V30 5170 C 496.779 0.72702 1.87927 0
M  V30 5171 O 495.835 0.259942 2.51158 0
M  V30 5172 C 497.148 2.92873 0.681623 0
M  V30 5173 C 498.696 3.03295 0.773363 0
M  V30 5174 C 499.171 4.49082 0.899428 0
M  V30 5175 N 500.662 4.53056 0.964075 0
M  V30 5176 C 501.397 5.63117 1.08104 0
M  V30 5177 N 500.893 6.82969 1.16299 0
M  V30 5178 N 502.686 5.50933 1.11488 0
M  V30 5179 H 494.837 2.0345 -0.610076 0
M  V30 5180 H 497.1 0.924034 -0.211813 0
M  V30 5181 H 496.806 3.51142 -0.19802 0
M  V30 5182 H 496.68 3.43851 1.55069 0
M  V30 5183 H 499.067 2.45101 1.64346 0
M  V30 5184 H 499.148 2.55513 -0.121034 0
M  V30 5185 H 498.792 5.07889 0.0338586 0
M  V30 5186 H 498.722 4.94553 1.809 0
M  V30 5187 H 501.213 3.66737 0.91173 0
M  V30 5188 H 501.526 7.62598 1.25155 0
M  V30 5189 H 499.871 6.85712 1.13241 0
M  V30 5190 H 503.062 4.56231 1.0474 0
M  V30 5191 H 503.235 6.36743 1.20259 0
M  V30 5192 N 496.642 -0.504142 1.49319 0
M  V30 5193 C 497.552 -1.63248 1.68486 0
M  V30 5194 C 498.568 -1.64488 0.567432 0
M  V30 5195 O 499.744 -1.82966 0.841749 0
M  V30 5196 C 496.809 -2.99627 1.74426 0
M  V30 5197 C 495.87 -3.09039 2.97982 0
M  V30 5198 C 495.103 -4.38913 3.0363 0
M  V30 5199 O 495.326 -5.27528 2.16958 0
M  V30 5200 O 494.26 -4.53231 3.96062 0
M  V30 5201 H 498.086 -1.50008 2.64067 0
M  V30 5202 H 495.671 -0.680086 1.33023 0
M  V30 5203 H 497.553 -3.80689 1.80705 0
M  V30 5204 H 496.228 -3.13136 0.820233 0
M  V30 5205 H 495.135 -2.27177 2.97223 0
M  V30 5206 H 496.468 -3.00456 3.89855 0
M  V30 5207 N 498.12 -1.38341 -0.754957 0
M  V30 5208 C 499.068 -1.35573 -1.89005 0
M  V30 5209 C 500.062 -0.241824 -1.67665 0
M  V30 5210 O 501.268 -0.410785 -1.7525 0
M  V30 5211 H 497.643 -0.422898 -0.621821 0
M  V30 5212 H 499.614 -2.31359 -1.88455 0
M  V30 5213 C 498.363 -1.19631 -3.26471 0
M  V30 5214 H 497.686 -2.04605 -3.43477 0
M  V30 5215 H 499.126 -1.21748 -4.06144 0
M  V30 5216 C 497.585 0.0968705 -3.36761 0
M  V30 5217 O 498.115 1.07439 -3.87066 0
M  V30 5218 N 496.321 0.153242 -2.90196 0
M  V30 5219 H 495.868 -0.642908 -2.49448 0
M  V30 5220 H 495.826 1.01807 -2.9746 0
M  V30 5221 N 499.598 0.982988 -1.23187 0
M  V30 5222 C 500.826 1.75921 -1.08901 0
M  V30 5223 C 501.241 1.85341 0.359719 0
M  V30 5224 O 500.598 1.33072 1.24892 0
M  V30 5225 C 500.649 3.18742 -1.70545 0
M  V30 5226 O 500.37 3.09814 -3.09753 0
M  V30 5227 C 501.871 4.1277 -1.61667 0
M  V30 5228 H 499.091 0.552166 -0.381252 0
M  V30 5229 H 501.635 1.23516 -1.62985 0
M  V30 5230 H 499.79 3.68182 -1.20501 0
M  V30 5231 H 500.204 3.99703 -3.39614 0
M  V30 5232 H 501.678 5.10697 -2.09506 0
M  V30 5233 H 502.155 4.3542 -0.575009 0
M  V30 5234 H 502.761 3.69232 -2.11064 0
M  V30 5235 N 501.076 1.04316 1.18135 0
M  V30 5236 C 502.023 0.636398 2.21853 0
M  V30 5237 C 502.993 -0.357039 1.62217 0
M  V30 5238 O 504.178 -0.250453 1.89149 0
M  V30 5239 C 501.318 0.00812779 3.45099 0
M  V30 5240 C 500.431 1.04933 4.19062 0
M  V30 5241 C 499.566 0.389313 5.29771 0
M  V30 5242 C 498.605 1.41544 5.9551 0
M  V30 5243 N 497.742 0.78021 6.97751 0
M  V30 5244 H 502.582 1.52536 2.56002 0
M  V30 5245 H 500.119 0.76304 1.25762 0
M  V30 5246 H 502.077 -0.373497 4.15525 0
M  V30 5247 H 500.707 -0.844336 3.11562 0
M  V30 5248 H 499.759 1.54888 3.47439 0
M  V30 5249 H 501.071 1.82862 4.64072 0
M  V30 5250 H 500.225 -0.0463805 6.06682 0
M  V30 5251 H 498.964 -0.422038 4.8587 0
M  V30 5252 H 497.969 1.86124 5.17337 0
M  V30 5253 H 499.194 2.22854 6.41493 0
M  V30 5254 H 497.14 -0.0107899 6.55999 0
M  V30 5255 H 497.057 1.49716 7.41027 0
M  V30 5256 H 498.325 0.368996 7.78626 0
M  V30 5257 N 502.554 -1.34406 0.822964 0
M  V30 5258 C 503.801 -1.98284 0.411057 0
M  V30 5259 C 504.129 -1.65245 -1.02588 0
M  V30 5260 O 503.384 -0.91619 -1.72929 0
M  V30 5261 C 503.683 -3.52981 0.560268 0
M  V30 5262 C 503.349 -4.05931 1.96293 0
M  V30 5263 C 502.011 -4.20103 2.34664 0
M  V30 5264 C 504.363 -4.34412 2.87985 0
M  V30 5265 C 501.691 -4.60082 3.64062 0
M  V30 5266 C 504.043 -4.75838 4.16847 0
M  V30 5267 C 502.707 -4.88215 4.55195 0
M  V30 5268 H 501.977 -0.725573 0.150416 0
M  V30 5269 H 504.624 -1.60349 1.04692 0
M  V30 5270 H 502.929 -3.91477 -0.158982 0
M  V30 5271 H 504.626 -4.00385 0.222087 0
M  V30 5272 H 501.216 -3.95363 1.65487 0
M  V30 5273 H 505.4 -4.23001 2.59584 0
M  V30 5274 H 500.656 -4.67856 3.93599 0
M  V30 5275 H 504.83 -4.96834 4.87984 0
M  V30 5276 H 502.457 -5.18952 5.55512 0
M  V30 5277 N 504.032 -0.577932 -1.46621 0
M  V30 5278 C 505.278 -0.0617793 -2.02706 0
M  V30 5279 C 505.611 1.29294 -1.44903 0
M  V30 5280 O 504.886 1.8461 -0.61232 0
M  V30 5281 C 505.169 0.00911824 -3.60099 0
M  V30 5282 C 505.022 -1.37416 -4.28295 0
M  V30 5283 C 506.341 0.712159 -4.343 0
M  V30 5284 H 503.46 -0.0239246 -0.736612 0
M  V30 5285 H 506.102 -0.744211 -1.74818 0
M  V30 5286 H 504.252 0.590292 -3.83989 0
M  V30 5287 H 505.924 -2.00013 -4.15683 0
M  V30 5288 H 504.167 -1.94319 -3.87843 0
M  V30 5289 H 504.838 -1.27707 -5.37024 0
M  V30 5290 H 507.314 0.218486 -4.15526 0
M  V30 5291 H 506.19 0.730782 -5.44014 0
M  V30 5292 H 506.451 1.77251 -4.05012 0
M  V30 5293 N 505.51 1.54411 -0.315457 0
M  V30 5294 C 506.738 2.04833 0.291738 0
M  V30 5295 C 507.153 1.19203 1.46411 0
M  V30 5296 O 506.51 0.220867 1.81159 0
M  V30 5297 C 506.561 3.53969 0.73404 0
M  V30 5298 O 506.282 4.36346 -0.391682 0
M  V30 5299 C 507.783 4.2045 1.40489 0
M  V30 5300 H 505.003 0.668195 0.0612947 0
M  V30 5301 H 507.547 1.99276 -0.45929 0
M  V30 5302 H 505.702 3.5984 1.43506 0
M  V30 5303 H 506.116 5.24481 -0.0447088 0
M  V30 5304 H 507.59 5.26278 1.66539 0
M  V30 5305 H 508.067 3.71067 2.3496 0
M  V30 5306 H 508.673 4.18694 0.746662 0
M  V30 5307 N 506.988 0.0434614 1.5754 0
M  V30 5308 C 507.935 -0.93356 2.11077 0
M  V30 5309 C 508.905 -1.31383 1.01626 0
M  V30 5310 O 510.09 -1.40465 1.29129 0
M  V30 5311 C 507.23 -2.20578 2.65404 0
M  V30 5312 C 506.343 -1.88068 3.88914 0
M  V30 5313 C 505.478 -3.09691 4.31584 0
M  V30 5314 C 504.517 -2.73067 5.47815 0
M  V30 5315 N 503.654 -3.87359 5.85574 0
M  V30 5316 H 508.494 -0.470118 2.94268 0
M  V30 5317 H 506.031 -0.220434 1.45439 0
M  V30 5318 H 507.989 -2.95011 2.94999 0
M  V30 5319 H 506.619 -2.64513 1.85021 0
M  V30 5320 H 505.671 -1.03816 3.6596 0
M  V30 5321 H 506.983 -1.57104 4.73413 0
M  V30 5322 H 506.137 -3.92431 4.62691 0
M  V30 5323 H 504.876 -3.43827 3.45882 0
M  V30 5324 H 503.881 -1.88742 5.16388 0
M  V30 5325 H 505.106 -2.40131 6.35227 0
M  V30 5326 H 503.052 -4.21311 5.02825 0
M  V30 5327 H 502.969 -3.60068 6.64746 0
M  V30 5328 H 504.237 -4.70761 6.21292 0
M  V30 5329 N 508.466 -1.55915 -0.229846 0
M  V30 5330 C 509.399 -1.86734 -1.3117 0
M  V30 5331 C 510.377 -0.723947 -1.45595 0
M  V30 5332 O 511.561 -0.971462 -1.61539 0
M  V30 5333 C 508.688 -2.06707 -2.68309 0
M  V30 5334 C 507.734 -3.2938 -2.70944 0
M  V30 5335 S 508.567 -4.85547 -2.25842 0
M  V30 5336 C 509.723 -5.08546 -3.64873 0
M  V30 5337 H 509.956 -2.78204 -1.04832 0
M  V30 5338 H 507.489 -1.48243 -0.431681 0
M  V30 5339 H 509.447 -2.18898 -3.47267 0
M  V30 5340 H 508.108 -1.16049 -2.91876 0
M  V30 5341 H 507.301 -3.40374 -3.71701 0
M  V30 5342 H 506.903 -3.16004 -2.00044 0
M  V30 5343 H 509.195 -4.96935 -4.60502 0
M  V30 5344 H 510.138 -6.10465 -3.58801 0
M  V30 5345 H 510.546 -4.36314 -3.58176 0
M  V30 5346 N 509.944 0.496216 -1.49584 0
M  V30 5347 C 511.174 1.27209 -1.62793 0
M  V30 5348 C 511.582 1.86799 -0.300476 0
M  V30 5349 O 510.925 1.68802 0.724674 0
M  V30 5350 C 510.987 2.43812 -2.64189 0
M  V30 5351 C 510.651 2.05055 -4.08414 0
M  V30 5352 C 511.648 1.58752 -4.9507 0
M  V30 5353 C 509.333 2.14543 -4.54177 0
M  V30 5354 C 511.327 1.22448 -6.25528 0
M  V30 5355 C 509.014 1.77851 -5.84647 0
M  V30 5356 C 510.012 1.31878 -6.70147 0
M  V30 5357 O 509.7 0.956834 -7.98185 0
M  V30 5358 H 509.432 0.391848 -0.550846 0
M  V30 5359 H 511.986 0.601712 -1.96389 0
M  V30 5360 H 510.216 3.13941 -2.25783 0
M  V30 5361 H 511.905 3.05829 -2.66877 0
M  V30 5362 H 512.671 1.50863 -4.60939 0
M  V30 5363 H 508.55 2.49277 -3.87791 0
M  V30 5364 H 512.094 0.864933 -6.92217 0
M  V30 5365 H 507.991 1.8539 -6.18305 0
M  V30 5366 H 508.759 1.08789 -8.11238 0
M  V30 5367 N 511.423 1.38739 0.74761 0
M  V30 5368 C 512.7 1.25791 1.49786 0
M  V30 5369 C 513.08 -0.138075 2.10648 0
M  V30 5370 O 512.428 -1.14815 1.9756 0
M  V30 5371 C 512.638 2.37265 2.55942 0
M  V30 5372 C 513.986 2.75978 3.22679 0
M  V30 5373 O 515.01 2.36621 2.6625 0
M  V30 5374 O 513.869 3.43867 4.24756 0
M  V30 5375 H 510.963 0.492251 0.664543 0
M  V30 5376 H 513.509 1.50582 0.782511 0
M  V30 5377 H 512.281 3.30644 2.0926 0
M  V30 5378 H 511.904 2.14071 3.35051 0
M  V30 5379 N 512.901 -0.976442 1.23707 0
M  V30 5380 C 513.831 -2.08749 1.04624 0
M  V30 5381 C 514.812 -1.70057 -0.0380956 0
M  V30 5382 O 515.997 -1.93782 0.127308 0
M  V30 5383 C 513.127 -3.41335 0.640902 0
M  V30 5384 C 512.081 -3.93947 1.67302 0
M  V30 5385 C 511.407 -5.22774 1.12301 0
M  V30 5386 C 512.707 -4.22769 3.06697 0
M  V30 5387 H 514.401 -2.24972 1.97555 0
M  V30 5388 H 511.947 -1.08108 0.951247 0
M  V30 5389 H 513.9 -4.18489 0.494434 0
M  V30 5390 H 512.624 -3.24988 -0.324099 0
M  V30 5391 H 511.283 -3.18941 1.80755 0
M  V30 5392 H 510.931 -5.0278 0.148877 0
M  V30 5393 H 510.631 -5.58942 1.81267 0
M  V30 5394 H 512.155 -6.02546 0.988479 0
M  V30 5395 H 513.569 -4.90659 2.96524 0
M  V30 5396 H 511.966 -4.70147 3.72937 0
M  V30 5397 H 513.036 -3.29885 3.55392 0
M  V30 5398 N 514.379 -1.04941 -1.1758 0
M  V30 5399 C 515.309 -0.669172 -2.23706 0
M  V30 5400 C 516.29 0.331835 -1.66832 0
M  V30 5401 O 517.475 0.209988 -1.93061 0
M  V30 5402 C 514.605 -0.0404889 -3.47276 0
M  V30 5403 C 513.559 -0.965983 -4.16957 0
M  V30 5404 C 512.885 -0.201312 -5.34321 0
M  V30 5405 C 514.185 -2.28902 -4.69469 0
M  V30 5406 H 515.879 -1.55639 -2.55767 0
M  V30 5407 H 513.425 -0.749793 -1.22939 0
M  V30 5408 H 515.378 0.237298 -4.20731 0
M  V30 5409 H 514.102 0.881658 -3.14475 0
M  V30 5410 H 512.761 -1.22829 -3.45411 0
M  V30 5411 H 512.409 0.723519 -4.97769 0
M  V30 5412 H 512.109 -0.817968 -5.81879 0
M  V30 5413 H 513.633 0.0692499 -6.10561 0
M  V30 5414 H 515.047 -2.07132 -5.34574 0
M  V30 5415 H 513.444 -2.85942 -5.27596 0
M  V30 5416 H 514.514 -2.92937 -3.86414 0
M  V30 5417 N 515.857 1.33968 -0.830081 0
M  V30 5418 C 516.787 2.31911 -0.271911 0
M  V30 5419 C 517.768 1.58571 0.61556 0
M  V30 5420 O 518.953 1.86514 0.540946 0
M  V30 5421 C 516.083 3.42737 0.561146 0
M  V30 5422 C 515.037 4.27383 -0.229789 0
M  V30 5423 C 514.363 5.29742 0.726463 0
M  V30 5424 C 515.663 5.02 -1.44197 0
M  V30 5425 H 517.357 2.78844 -1.09025 0
M  V30 5426 H 514.903 1.34061 -0.52571 0
M  V30 5427 H 516.856 4.10276 0.961867 0
M  V30 5428 H 515.58 2.94471 1.41261 0
M  V30 5429 H 514.239 3.61456 -0.611964 0
M  V30 5430 H 513.887 4.77736 1.57408 0
M  V30 5431 H 513.587 5.87255 0.20142 0
M  V30 5432 H 515.111 6.00149 1.12489 0
M  V30 5433 H 516.525 5.62355 -1.11488 0
M  V30 5434 H 514.922 5.69122 -1.90317 0
M  V30 5435 H 515.992 4.31281 -2.2164 0
M  V30 5436 N 517.335 0.585699 1.46312 0
M  V30 5437 C 518.265 -0.133556 2.33118 0
M  V30 5438 C 519.246 -0.880707 1.45525 0
M  V30 5439 O 520.431 -0.855579 1.74337 0
M  V30 5440 C 517.561 -1.14585 3.27853 0
M  V30 5441 C 516.515 -0.513341 4.2491 0
M  V30 5442 C 515.841 -1.63231 5.09175 0
M  V30 5443 C 517.141 0.551413 5.19381 0
M  V30 5444 H 518.835 0.59121 2.93505 0
M  V30 5445 H 516.381 0.285761 1.41136 0
M  V30 5446 H 518.334 -1.65741 3.87438 0
M  V30 5447 H 517.058 -1.90093 2.65579 0
M  V30 5448 H 515.717 -0.0228349 3.66593 0
M  V30 5449 H 515.365 -2.37713 4.43285 0
M  V30 5450 H 515.065 -1.21473 5.74907 0
M  V30 5451 H 516.589 -2.14658 5.71624 0
M  V30 5452 H 518.003 0.124804 5.73164 0
M  V30 5453 H 516.4 0.889486 5.93471 0
M  V30 5454 H 517.47 1.43655 4.63132 0
M  V30 5455 N 518.813 -1.54241 0.323641 0
M  V30 5456 C 519.76 -2.24339 -0.542277 0
M  V30 5457 C 520.73 -1.23421 -1.11159 0
M  V30 5458 O 521.915 -1.52104 -1.15192 0
M  V30 5459 C 519.055 -3.00479 -1.69725 0
M  V30 5460 C 518.168 -4.16214 -1.15716 0
M  V30 5461 C 517.303 -4.79884 -2.27783 0
M  V30 5462 C 516.342 -5.87722 -1.71023 0
M  V30 5463 N 515.479 -6.45254 -2.76752 0
M  V30 5464 H 520.319 -2.97935 0.0620613 0
M  V30 5465 H 517.856 -1.47039 0.0423993 0
M  V30 5466 H 519.814 -3.42869 -2.3769 0
M  V30 5467 H 518.444 -2.29217 -2.27288 0
M  V30 5468 H 517.496 -3.78605 -0.369063 0
M  V30 5469 H 518.808 -4.93838 -0.701832 0
M  V30 5470 H 517.962 -5.25243 -3.03651 0
M  V30 5471 H 516.701 -4.01641 -2.76652 0
M  V30 5472 H 515.706 -5.41765 -0.936518 0
M  V30 5473 H 516.931 -6.67863 -1.2303 0
M  V30 5474 H 514.877 -5.69884 -3.24912 0
M  V30 5475 H 514.794 -7.18292 -2.35782 0
M  V30 5476 H 516.062 -6.95269 -3.5245 0
M  V30 5477 N 520.291 -0.0518155 -1.57515 0
M  V30 5478 C 521.531 0.625712 -1.94587 0
M  V30 5479 C 521.895 1.6797 -0.930053 0
M  V30 5480 O 523.096 2.41135 -1.18774 0
M  V30 5481 C 521.367 1.20574 -3.36447 0
M  V30 5482 S 522.926 1.90118 -3.95475 0
M  V30 5483 H 519.744 0.205434 -0.680675 0
M  V30 5484 H 522.346 -0.120906 -1.95126 0
M  V30 5485 H 521.05 0.426521 -4.08178 0
M  V30 5486 H 520.581 1.98916 -3.39405 0
M  V30 5487 H 522.596 3.18184 -3.80753 0
M  V30 5488 N 521.769 1.56035 0.221574 0
M  V30 5489 C 522.732 1.91584 1.2581 0
M  V30 5490 C 523.732 0.794425 1.39805 0
M  V30 5491 O 524.922 1.06217 1.38071 0
M  V30 5492 C 522.054 2.16663 2.63192 0
M  V30 5493 H 523.247 2.8429 0.954935 0
M  V30 5494 H 520.8 1.49316 0.461988 0
M  V30 5495 H 521.535 1.26508 2.98607 0
M  V30 5496 H 521.32 2.98358 2.5441 0
M  V30 5497 H 522.81 2.45262 3.37988 0
M  V30 5498 N 523.247 -0.488276 1.49845 0
M  V30 5499 C 524.663 -0.820566 1.3689 0
M  V30 5500 C 524.863 -1.97248 0.411752 0
M  V30 5501 O 523.919 -2.52042 -0.151931 0
M  V30 5502 C 525.232 -1.1488 2.77891 0
M  V30 5503 C 526.78 -1.25626 2.86683 0
M  V30 5504 C 527.255 -1.61772 4.28479 0
M  V30 5505 N 528.746 -1.68797 4.31349 0
M  V30 5506 C 529.481 -1.98235 5.38043 0
M  V30 5507 N 528.977 -2.2581 6.54967 0
M  V30 5508 N 530.77 -1.99593 5.2547 0
M  V30 5509 H 522.921 0.271123 2.10662 0
M  V30 5510 H 525.184 0.058735 0.946179 0
M  V30 5511 H 524.89 -0.375614 3.49688 0
M  V30 5512 H 524.764 -2.08919 3.14058 0
M  V30 5513 H 527.151 -2.02014 2.15114 0
M  V30 5514 H 527.232 -0.296072 2.54081 0
M  V30 5515 H 526.876 -0.859295 5.00578 0
M  V30 5516 H 526.806 -2.58912 4.58554 0
M  V30 5517 H 529.297 -1.49595 3.4703 0
M  V30 5518 H 529.61 -2.47497 7.32096 0
M  V30 5519 H 527.955 -2.23239 6.58171 0
M  V30 5520 H 531.146 -1.77535 4.33127 0
M  V30 5521 H 531.319 -2.222 6.08713 0
M  V30 5522 N 524.725 -1.39134 -0.740242 0
M  V30 5523 C 525.655 -1.40165 -1.86751 0
M  V30 5524 C 526.636 -0.265708 -1.68012 0
M  V30 5525 O 527.821 -0.47076 -1.88408 0
M  V30 5526 C 524.951 -1.2392 -3.2444 0
M  V30 5527 C 523.905 -2.34858 -3.57807 0
M  V30 5528 C 523.231 -2.03707 -4.94376 0
M  V30 5529 C 524.531 -3.77159 -3.61315 0
M  V30 5530 H 526.225 -2.345 -1.86145 0
M  V30 5531 H 523.771 -1.12875 -0.89416 0
M  V30 5532 H 525.724 -1.23263 -4.02969 0
M  V30 5533 H 524.448 -0.26051 -3.25559 0
M  V30 5534 H 523.107 -2.34723 -2.81604 0
M  V30 5535 H 522.755 -1.04289 -4.9207 0
M  V30 5536 H 522.455 -2.78016 -5.17669 0
M  V30 5537 H 523.979 -2.04691 -5.75268 0
M  V30 5538 H 525.393 -3.79252 -4.29931 0
M  V30 5539 H 523.79 -4.50784 -3.96124 0
M  V30 5540 H 524.86 -4.08513 -2.61238 0
M  V30 5541 N 526.204 0.969867 -1.24223 0
M  V30 5542 C 527.451 1.71256 -1.08063 0
M  V30 5543 C 527.779 1.90734 0.380872 0
M  V30 5544 O 527.034 1.46469 1.29789 0
M  V30 5545 C 527.333 3.10883 -1.76314 0
M  V30 5546 C 526.999 3.11252 -3.26241 0
M  V30 5547 C 525.661 3.1106 -3.67144 0
M  V30 5548 C 528.013 3.05751 -4.22097 0
M  V30 5549 C 525.341 3.03097 -5.02344 0
M  V30 5550 C 527.693 2.9933 -5.57301 0
M  V30 5551 C 526.357 2.97466 -5.97554 0
M  V30 5552 H 525.627 0.62667 -0.395431 0
M  V30 5553 H 528.274 1.13422 -1.54297 0
M  V30 5554 H 526.579 3.72168 -1.22468 0
M  V30 5555 H 528.276 3.67138 -1.61277 0
M  V30 5556 H 524.866 3.12165 -2.93685 0
M  V30 5557 H 529.05 3.05031 -3.91497 0
M  V30 5558 H 524.306 3.00013 -5.32731 0
M  V30 5559 H 528.48 2.94033 -6.31283 0
M  V30 5560 H 526.107 2.91051 -7.02277 0
M  V30 5561 N 527.682 1.05563 1.17022 0
M  V30 5562 C 529.093 0.793475 1.69 0
M  V30 5563 C 529.444 -0.683882 1.83895 0
M  V30 5564 O 528.569 -1.53116 1.5292 0
M  V30 5565 C 529.164 1.43376 3.06967 0
M  V30 5566 C 527.723 1.21956 3.56095 0
M  V30 5567 C 526.87 1.51494 2.3226 0
M  V30 5568 H 529.821 1.22008 1.01487 0
M  V30 5569 H 529.842 0.845068 3.70997 0
M  V30 5570 H 529.354 2.50899 2.96093 0
M  V30 5571 H 527.455 0.163749 3.7224 0
M  V30 5572 H 527.568 1.92713 4.38633 0
M  V30 5573 H 525.932 0.935175 2.3691 0
M  V30 5574 H 526.715 2.60159 2.23992 0
M  V30 5575 N 529.16 -1.33526 0.837174 0
M  V30 5576 C 530.437 -1.92369 0.354065 0
M  V30 5577 C 530.817 -1.76348 -1.16038 0
M  V30 5578 O 530.165 -1.15083 -1.97403 0
M  V30 5579 C 530.375 -3.39728 0.799101 0
M  V30 5580 C 531.723 -4.16877 0.806139 0
M  V30 5581 O 532.747 -3.48373 0.742597 0
M  V30 5582 O 531.606 -5.39166 0.892345 0
M  V30 5583 H 528.7 -0.820952 0.0998378 0
M  V30 5584 H 531.246 -1.42409 0.922913 0
M  V30 5585 H 530.018 -3.45254 1.84162 0
M  V30 5586 H 529.641 -3.97062 0.206731 0
M  V30 5587 N 530.638 -0.59345 -1.46 0
M  V30 5588 C 531.863 -0.0872365 -2.07216 0
M  V30 5589 C 532.288 1.2131 -1.43755 0
M  V30 5590 O 531.646 1.73528 -0.525152 0
M  V30 5591 C 531.694 0.0538197 -3.6056 0
M  V30 5592 O 530.798 1.10765 -3.97247 0
M  V30 5593 H 530.139 -0.0676598 -0.660544 0
M  V30 5594 H 532.669 -0.819445 -1.87473 0
M  V30 5595 H 532.679 0.256567 -4.07193 0
M  V30 5596 H 531.354 -0.895739 -4.0614 0
M  V30 5597 H 529.931 0.882501 -3.62307 0
M  V30 5598 N 532.116 1.54067 -0.331816 0
M  V30 5599 C 533.064 2.26105 0.54582 0
M  V30 5600 C 534.058 1.27816 1.11173 0
M  V30 5601 O 535.264 1.45565 1.05882 0
M  V30 5602 H 531.639 0.726363 0.194683 0
M  V30 5603 H 533.61 2.98282 -0.083931 0
M  V30 5604 C 532.359 3.03814 1.69092 0
M  V30 5605 H 531.682 3.79269 1.26473 0
M  V30 5606 H 533.122 3.57453 2.28043 0
M  V30 5607 C 531.581 2.12606 2.61343 0
M  V30 5608 O 532.111 1.71437 3.6328 0
M  V30 5609 N 530.317 1.77925 2.29763 0
M  V30 5610 H 529.864 2.11602 1.46909 0
M  V30 5611 H 529.822 1.1718 2.91747 0
M  V30 5612 N 533.594 0.0601682 1.57485 0
M  V30 5613 C 534.524 -0.90889 2.15085 0
M  V30 5614 C 535.505 -1.31838 1.07484 0
M  V30 5615 O 536.69 -1.3915 1.35466 0
M  V30 5616 C 533.82 -2.18059 2.7031 0
M  V30 5617 C 532.774 -1.91088 3.82974 0
M  V30 5618 C 532.1 -3.24789 4.24754 0
M  V30 5619 C 533.4 -1.22535 5.07723 0
M  V30 5620 H 535.094 -0.429093 2.96309 0
M  V30 5621 H 532.64 -0.204952 1.42534 0
M  V30 5622 H 534.593 -2.86258 3.09248 0
M  V30 5623 H 533.317 -2.6826 1.8629 0
M  V30 5624 H 531.976 -1.25297 3.44523 0
M  V30 5625 H 531.624 -3.72809 3.37672 0
M  V30 5626 H 531.324 -3.07538 5.00694 0
M  V30 5627 H 532.848 -3.94205 4.66299 0
M  V30 5628 H 534.262 -1.80783 5.4405 0
M  V30 5629 H 532.659 -1.1558 5.88864 0
M  V30 5630 H 533.729 -0.202692 4.84476 0
M  V30 5631 N 535.072 -1.5615 -0.213296 0
M  V30 5632 C 535.982 -1.96265 -1.28519 0
M  V30 5633 C 536.998 -0.86765 -1.50824 0
M  V30 5634 O 538.174 -1.17191 -1.63793 0
M  V30 5635 C 535.239 -2.27836 -2.61327 0
M  V30 5636 C 534.3 -3.50949 -2.47252 0
M  V30 5637 C 533.533 -3.81004 -3.73727 0
M  V30 5638 O 533.756 -3.12612 -4.77106 0
M  V30 5639 O 532.69 -4.74477 -3.70344 0
M  V30 5640 H 536.516 -2.87631 -0.974795 0
M  V30 5641 H 534.101 -1.43467 -0.416832 0
M  V30 5642 H 535.983 -2.49299 -3.39747 0
M  V30 5643 H 534.658 -1.39643 -2.9203 0
M  V30 5644 H 533.565 -3.34754 -1.67004 0
M  V30 5645 H 534.898 -4.39551 -2.21486 0
M  V30 5646 N 536.55 0.480323 -1.50102 0
M  V30 5647 C 537.513 1.56181 -1.6775 0
M  V30 5648 C 538.513 1.51156 -0.548503 0
M  V30 5649 O 539.703 1.5394 -0.815363 0
M  V30 5650 C 536.835 2.95823 -1.69415 0
M  V30 5651 H 538.028 1.41855 -2.6423 0
M  V30 5652 H 535.581 0.70605 -1.39444 0
M  V30 5653 H 536.316 3.15604 -0.745948 0
M  V30 5654 H 536.101 3.00878 -2.51425 0
M  V30 5655 H 537.591 3.74359 -1.85054 0
M  V30 5656 N 538.028 1.39524 0.732853 0
M  V30 5657 C 539.274 1.37068 1.49467 0
M  V30 5658 C 539.607 -0.0327166 1.94172 0
M  V30 5659 O 538.882 -0.998071 1.66939 0
M  V30 5660 C 539.165 2.34494 2.73285 0
M  V30 5661 C 539.018 3.83784 2.34585 0
M  V30 5662 C 540.337 2.29717 3.75391 0
M  V30 5663 H 537.456 0.499206 0.542183 0
M  V30 5664 H 540.098 1.70532 0.837783 0
M  V30 5665 H 538.248 2.06087 3.29333 0
M  V30 5666 H 539.92 4.22949 1.84151 0
M  V30 5667 H 538.163 4.00455 1.66787 0
M  V30 5668 H 538.834 4.47444 3.23262 0
M  V30 5669 H 541.31 2.54839 3.28932 0
M  V30 5670 H 540.186 2.99962 4.59689 0
M  V30 5671 H 540.447 1.30291 4.22465 0
M  V30 5672 N 539.506 -0.963266 1.24736 0
M  V30 5673 C 540.436 -2.07628 1.06832 0
M  V30 5674 C 541.417 -1.70088 -0.0200566 0
M  V30 5675 O 542.602 -1.93636 0.147854 0
M  V30 5676 C 539.732 -3.40636 0.677069 0
M  V30 5677 C 538.686 -3.9215 1.71471 0
M  V30 5678 C 538.012 -5.21553 1.1784 0
M  V30 5679 C 539.312 -4.19493 3.11164 0
M  V30 5680 H 541.006 -2.22864 1.9993 0
M  V30 5681 H 538.552 -1.07093 0.96266 0
M  V30 5682 H 540.505 -4.17941 0.538792 0
M  V30 5683 H 539.229 -3.25313 -0.289612 0
M  V30 5684 H 537.888 -3.17005 1.84128 0
M  V30 5685 H 537.536 -5.02593 0.202195 0
M  V30 5686 H 537.236 -5.56988 1.87185 0
M  V30 5687 H 538.76 -6.01463 1.05233 0
M  V30 5688 H 540.174 -4.87487 3.01711 0
M  V30 5689 H 538.571 -4.66165 3.77902 0
M  V30 5690 H 539.641 -3.26097 3.58871 0
M  V30 5691 N 540.985 -1.06182 -1.16461 0
M  V30 5692 C 541.933 -0.665716 -2.2287 0
M  V30 5693 C 542.927 0.317822 -1.66392 0
M  V30 5694 O 544.133 0.182807 -1.79069 0
M  V30 5695 H 540.508 -0.197148 -0.725697 0
M  V30 5696 H 542.479 -1.57307 -2.53569 0
M  V30 5697 C 541.228 -0.0669803 -3.47635 0
M  V30 5698 H 540.551 -0.814899 -3.91407 0
M  V30 5699 H 541.991 0.172669 -4.23648 0
M  V30 5700 C 540.45 1.18913 -3.15216 0
M  V30 5701 O 540.98 2.27723 -3.30916 0
M  V30 5702 N 539.186 1.09066 -2.69357 0
M  V30 5703 H 538.733 0.20518 -2.56782 0
M  V30 5704 H 538.691 1.93195 -2.48039 0
M  V30 5705 N 542.463 1.3308 -0.844243 0
M  V30 5706 C 543.411 2.31028 -0.269954 0
M  V30 5707 C 544.405 1.58381 0.600997 0
M  V30 5708 O 545.611 1.73203 0.48996 0
M  V30 5709 H 541.986 0.748866 -0.0685782 0
M  V30 5710 H 543.957 2.76967 -1.11049 0
M  V30 5711 C 542.706 3.43549 0.535676 0
M  V30 5712 H 542.029 3.99604 -0.125202 0
M  V30 5713 H 543.469 4.14267 0.903262 0
M  V30 5714 C 541.928 2.8988 1.71672 0
M  V30 5715 O 542.458 2.86511 2.81557 0
M  V30 5716 N 540.664 2.46416 1.54037 0
M  V30 5717 H 540.211 2.49356 0.64649 0
M  V30 5718 H 540.169 2.1086 2.33207 0
M  V30 5719 N 543.941 0.601185 1.45683 0
M  V30 5720 C 545.218 0.0261659 1.95582 0
M  V30 5721 C 545.598 -1.4399 1.5437 0
M  V30 5722 O 544.946 -2.13919 0.80318 0
M  V30 5723 C 545.156 0.217557 3.48321 0
M  V30 5724 C 546.504 0.0950076 4.24494 0
M  V30 5725 O 547.528 0.147345 3.55895 0
M  V30 5726 O 546.387 -0.025261 5.46494 0
M  V30 5727 H 543.481 -0.0393688 0.826062 0
M  V30 5728 H 546.027 0.670798 1.55879 0
M  V30 5729 H 544.799 1.23601 3.71266 0
M  V30 5730 H 544.422 -0.46264 3.94899 0
M  V30 5731 N 545.419 -1.53889 0.339982 0
M  V30 5732 C 546.667 -2.00458 -0.257112 0
M  V30 5733 C 546.988 -1.22953 -1.51353 0
M  V30 5734 O 546.258 -0.335734 -1.93002 0
M  V30 5735 H 544.838 -0.740544 -0.0979965 0
M  V30 5736 H 547.5 -1.89386 0.460317 0
M  V30 5737 H 546.596 -3.08035 -0.502057 0
M  V30 5738 N 546.897 -0.0685191 -1.57451 0
M  V30 5739 C 547.827 0.89747 -2.15564 0
M  V30 5740 C 548.808 1.31266 -1.08181 0
M  V30 5741 O 549.993 1.38429 -1.36202 0
M  V30 5742 C 547.123 2.16623 -2.71463 0
M  V30 5743 C 546.077 1.89054 -3.83982 0
M  V30 5744 C 545.403 3.22532 -4.26471 0
M  V30 5745 C 546.703 1.1984 -5.08366 0
M  V30 5746 H 548.397 0.413373 -2.96533 0
M  V30 5747 H 545.943 0.197391 -1.42641 0
M  V30 5748 H 547.896 2.84614 -3.10761 0
M  V30 5749 H 546.62 2.67269 -1.8771 0
M  V30 5750 H 545.279 1.23469 -3.45183 0
M  V30 5751 H 544.927 3.71013 -3.39644 0
M  V30 5752 H 544.627 3.04879 -5.02317 0
M  V30 5753 H 546.151 3.91727 -4.68383 0
M  V30 5754 H 547.565 1.77896 -5.45001 0
M  V30 5755 H 545.962 1.12456 -5.89469 0
M  V30 5756 H 547.032 0.176996 -4.84577 0
M  V30 5757 N 548.375 1.56261 0.205012 0
M  V30 5758 C 549.6 1.84491 0.947512 0
M  V30 5759 C 550.025 0.650894 1.76479 0
M  V30 5760 O 549.383 -0.40035 1.76824 0
M  V30 5761 C 549.431 3.10863 1.82747 0
M  V30 5762 O 548.535 2.90719 2.925 0
M  V30 5763 H 547.876 0.607783 0.267386 0
M  V30 5764 H 550.406 2.03485 0.213323 0
M  V30 5765 H 550.416 3.41399 2.23407 0
M  V30 5766 H 549.091 3.97392 1.2269 0
M  V30 5767 H 547.668 2.71457 2.55667 0
M  V30 5768 N 549.853 -0.472356 1.50355 0
M  V30 5769 C 551.264 -1.05326 1.54154 0
M  V30 5770 C 551.615 -1.93155 0.344303 0
M  V30 5771 O 550.74 -2.09479 -0.542928 0
M  V30 5772 C 551.335 -1.91691 2.79356 0
M  V30 5773 C 549.894 -2.44892 2.8584 0
M  V30 5774 C 549.041 -1.23205 2.48426 0
M  V30 5775 H 551.992 -0.255027 1.56637 0
M  V30 5776 H 552.013 -2.76742 2.6114 0
M  V30 5777 H 551.525 -1.27741 3.66475 0
M  V30 5778 H 549.626 -3.12399 2.0307 0
M  V30 5779 H 549.739 -2.80086 3.88701 0
M  V30 5780 H 548.103 -1.56643 2.00836 0
M  V30 5781 H 548.886 -0.609194 3.37852 0
M  V30 5782 N 551.331 -1.39911 -0.725443 0
M  V30 5783 C 552.261 -1.42138 -1.85254 0
M  V30 5784 C 553.242 -0.283513 -1.67721 0
M  V30 5785 O 554.427 -0.490717 -1.87898 0
M  V30 5786 C 551.557 -1.27354 -3.23107 0
M  V30 5787 C 550.511 -2.3864 -3.55296 0
M  V30 5788 C 549.837 -2.08939 -4.92188 0
M  V30 5789 C 551.137 -3.8097 -3.57295 0
M  V30 5790 H 552.831 -2.36461 -1.83648 0
M  V30 5791 H 550.377 -1.13817 -0.882138 0
M  V30 5792 H 552.33 -1.2753 -4.01639 0
M  V30 5793 H 551.054 -0.295025 -3.25265 0
M  V30 5794 H 549.713 -2.37696 -2.79099 0
M  V30 5795 H 549.361 -1.09502 -4.90936 0
M  V30 5796 H 549.061 -2.83491 -5.14691 0
M  V30 5797 H 550.585 -2.10781 -5.73065 0
M  V30 5798 H 551.999 -3.8379 -4.25885 0
M  V30 5799 H 550.396 -4.5496 -3.9132 0
M  V30 5800 H 551.466 -4.11261 -2.5689 0
M  V30 5801 N 552.809 0.956637 -1.25245 0
M  V30 5802 C 553.742 2.05232 -0.99775 0
M  V30 5803 C 554.72 1.62439 0.0723137 0
M  V30 5804 O 555.904 1.88381 -0.066926 0
M  V30 5805 C 553.031 3.34871 -0.507861 0
M  V30 5806 C 552.077 3.96625 -1.56815 0
M  V30 5807 S 552.91 4.32853 -3.15276 0
M  V30 5808 C 554.066 5.65613 -2.68017 0
M  V30 5809 H 554.299 2.26521 -1.9255 0
M  V30 5810 H 551.832 1.09601 -1.08752 0
M  V30 5811 H 553.79 4.09845 -0.231858 0
M  V30 5812 H 552.451 3.11551 0.399356 0
M  V30 5813 H 551.644 4.90087 -1.17604 0
M  V30 5814 H 551.246 3.28124 -1.79473 0
M  V30 5815 H 553.538 6.43635 -2.11518 0
M  V30 5816 H 554.481 6.09693 -3.60112 0
M  V30 5817 H 554.889 5.24751 -2.0808 0
M  V30 5818 N 554.287 1.06798 1.15896 0
M  V30 5819 C 555.22 0.627503 2.19403 0
M  V30 5820 C 556.198 -0.352352 1.58736 0
M  V30 5821 O 557.382 -0.260111 1.86697 0
M  V30 5822 C 554.509 -0.079356 3.38607 0
M  V30 5823 C 553.555 0.858057 4.17779 0
M  V30 5824 S 554.388 2.35605 4.80885 0
M  V30 5825 C 555.544 1.66083 6.03463 0
M  V30 5826 H 555.777 1.50441 2.56427 0
M  V30 5827 H 553.31 0.881427 1.26768 0
M  V30 5828 H 555.268 -0.48095 4.07673 0
M  V30 5829 H 553.929 -0.932524 2.99938 0
M  V30 5830 H 553.122 0.310108 5.03045 0
M  V30 5831 H 552.724 1.19977 3.54234 0
M  V30 5832 H 555.016 0.969337 6.7053 0
M  V30 5833 H 555.959 2.49159 6.62816 0
M  V30 5834 H 556.367 1.14122 5.52844 0
M  V30 5835 N 555.766 -1.3263 0.851289 0
M  V30 5836 C 556.729 -2.27247 0.298541 0
M  V30 5837 C 557.729 -1.51467 -0.539847 0
M  V30 5838 O 558.919 -1.7061 -0.351843 0
M  V30 5839 C 556.051 -3.35964 -0.578004 0
M  V30 5840 H 557.244 -2.7765 1.13359 0
M  V30 5841 H 554.797 -1.43245 0.625354 0
M  V30 5842 H 555.532 -2.90823 -1.435 0
M  V30 5843 H 555.317 -3.92094 0.0220539 0
M  V30 5844 H 556.807 -4.06472 -0.957626 0
M  V30 5845 N 557.244 -0.608902 -1.45362 0
M  V30 5846 C 558.207 0.0992563 -2.28985 0
M  V30 5847 C 559.207 0.793841 -1.39838 0
M  V30 5848 O 560.397 0.641804 -1.61946 0
M  V30 5849 C 557.529 1.15073 -3.20891 0
M  V30 5850 H 558.722 -0.635964 -2.93079 0
M  V30 5851 H 556.275 -0.368007 -1.51906 0
M  V30 5852 H 557.01 1.91667 -2.616 0
M  V30 5853 H 556.795 0.656867 -3.86559 0
M  V30 5854 H 558.285 1.64665 -3.83765 0
M  V30 5855 N 558.722 1.53707 -0.348139 0
M  V30 5856 C 559.669 2.25173 0.506518 0
M  V30 5857 C 560.639 1.25174 1.09182 0
M  V30 5858 O 561.824 1.53917 1.12757 0
M  V30 5859 C 558.964 3.03141 1.64923 0
M  V30 5860 C 558.077 4.18002 1.0908 0
M  V30 5861 C 557.212 4.83447 2.20119 0
M  V30 5862 C 556.251 5.90369 1.61651 0
M  V30 5863 N 555.388 6.49575 2.66451 0
M  V30 5864 H 560.228 2.97799 -0.109452 0
M  V30 5865 H 557.765 1.46953 -0.0657866 0
M  V30 5866 H 559.723 3.46607 2.32205 0
M  V30 5867 H 558.353 2.32803 2.23612 0
M  V30 5868 H 557.405 3.79145 0.308783 0
M  V30 5869 H 558.717 4.94892 0.623178 0
M  V30 5870 H 557.871 5.30008 2.95257 0
M  V30 5871 H 556.61 4.05991 2.70227 0
M  V30 5872 H 555.615 5.43186 0.850209 0
M  V30 5873 H 556.84 6.69735 1.1239 0
M  V30 5874 H 554.786 5.74981 3.15805 0
M  V30 5875 H 554.703 7.21952 2.24325 0
M  V30 5876 H 555.971 7.00789 3.41344 0
M  V30 5877 N 560.2 0.0768682 1.57412 0
M  V30 5878 C 561.428 -0.59997 1.9801 0
M  V30 5879 C 561.843 -1.62842 0.955408 0
M  V30 5880 O 561.2 -1.8241 -0.057314 0
M  V30 5881 C 561.251 -1.26401 3.38681 0
M  V30 5882 O 560.972 -0.276723 4.37225 0
M  V30 5883 C 562.473 -2.0282 3.94182 0
M  V30 5884 H 559.693 -0.162239 0.651091 0
M  V30 5885 H 562.237 0.150771 2.03943 0
M  V30 5886 H 560.392 -1.96581 3.33819 0
M  V30 5887 H 560.806 -0.753744 5.19056 0
M  V30 5888 H 562.28 -2.44667 4.94815 0
M  V30 5889 H 562.757 -2.88678 3.31001 0
M  V30 5890 H 563.363 -1.37496 4.02461 0
M  V30 5891 N 561.678 -1.56367 -0.196722 0
M  V30 5892 C 562.926 -1.80172 -0.915554 0
M  V30 5893 C 563.247 -0.649649 -1.8386 0
M  V30 5894 O 562.517 0.332111 -1.93064 0
M  V30 5895 H 561.097 -0.664592 -0.341067 0
M  V30 5896 H 563.759 -1.93844 -0.202622 0
M  V30 5897 H 562.855 -2.7327 -1.50764 0
M  V30 5898 N 563.156 0.464375 -1.50603 0
M  V30 5899 C 564.103 1.56152 -1.69956 0
M  V30 5900 C 565.073 1.57046 -0.54091 0
M  V30 5901 O 566.258 1.74473 -0.772258 0
M  V30 5902 C 563.398 2.94079 -1.80586 0
M  V30 5903 C 562.511 3.02923 -3.07996 0
M  V30 5904 C 561.646 4.31806 -3.09382 0
M  V30 5905 C 560.685 4.34417 -4.31218 0
M  V30 5906 N 559.822 5.54782 -4.30304 0
M  V30 5907 H 564.662 1.38955 -2.6362 0
M  V30 5908 H 562.199 0.675482 -1.30674 0
M  V30 5909 H 564.157 3.74073 -1.8473 0
M  V30 5910 H 562.787 3.09896 -0.903556 0
M  V30 5911 H 561.839 2.1576 -3.13292 0
M  V30 5912 H 563.151 3.00712 -3.97962 0
M  V30 5913 H 562.305 5.20153 -3.12292 0
M  V30 5914 H 561.044 4.36636 -2.17257 0
M  V30 5915 H 560.049 3.44467 -4.28512 0
M  V30 5916 H 561.274 4.31273 -5.24576 0
M  V30 5917 H 559.22 5.60384 -3.41037 0
M  V30 5918 H 559.137 5.54339 -5.14047 0
M  V30 5919 H 560.405 6.45235 -4.3737 0
M  V30 5920 N 564.634 1.40294 0.718013 0
M  V30 5921 C 565.883 1.37746 1.4734 0
M  V30 5922 C 566.196 -0.0180754 1.95592 0
M  V30 5923 O 567.402 -0.166166 2.70991 0
M  V30 5924 C 565.858 2.4208 2.66318 0
M  V30 5925 C 565.466 3.87432 2.24945 0
M  V30 5926 C 567.21 2.48635 3.44065 0
M  V30 5927 C 565.117 4.83368 3.40748 0
M  V30 5928 H 564.047 0.512165 0.553356 0
M  V30 5929 H 566.698 1.66019 0.781661 0
M  V30 5930 H 565.08 2.06903 3.3765 0
M  V30 5931 H 566.254 4.3174 1.6105 0
M  V30 5932 H 564.569 3.8433 1.60249 0
M  V30 5933 H 567.166 3.17499 4.30231 0
M  V30 5934 H 567.509 1.51611 3.87711 0
M  V30 5935 H 568.042 2.82791 2.79775 0
M  V30 5936 H 564.781 5.81716 3.02136 0
M  V30 5937 H 564.301 4.43726 4.03568 0
M  V30 5938 H 565.98 5.03074 4.06848 0
M  V30 5939 N 566.112 -0.949982 1.2575 0
M  V30 5940 C 567.36 -1.6918 1.10555 0
M  V30 5941 C 567.681 -1.91773 -0.353298 0
M  V30 5942 O 566.951 -1.50814 -1.25027 0
M  V30 5943 H 565.531 -0.626952 0.406129 0
M  V30 5944 H 568.193 -1.1419 1.57945 0
M  V30 5945 H 567.289 -2.66915 1.61749 0
M  V30 5946 N 567.59 -1.07411 -1.15328 0
M  V30 5947 C 568.839 -0.792643 -1.85473 0
M  V30 5948 C 569.152 0.683789 -1.83259 0
M  V30 5949 O 570.358 1.08005 -2.49093 0
M  V30 5950 C 568.814 -1.36787 -3.32892 0
M  V30 5951 C 568.422 -2.87536 -3.43551 0
M  V30 5952 C 570.166 -1.16444 -4.08217 0
M  V30 5953 C 568.073 -3.38247 -4.85122 0
M  V30 5954 H 567.003 -0.292838 -0.694811 0
M  V30 5955 H 569.654 -1.29426 -1.30082 0
M  V30 5956 H 568.036 -0.793993 -3.87958 0
M  V30 5957 H 569.21 -3.50973 -2.98588 0
M  V30 5958 H 567.525 -3.06676 -2.81672 0
M  V30 5959 H 570.122 -1.51808 -5.12697 0
M  V30 5960 H 570.465 -0.10353 -4.16171 0
M  V30 5961 H 570.998 -1.70472 -3.59422 0
M  V30 5962 H 567.737 -4.43866 -4.82351 0
M  V30 5963 H 567.257 -2.79564 -5.30664 0
M  V30 5964 H 568.936 -3.34238 -5.5398 0
M  V30 5965 N 569.068 1.32177 -0.85831 0
M  V30 5966 C 570.315 1.97125 -0.463484 0
M  V30 5967 C 570.643 1.67907 0.981705 0
M  V30 5968 O 569.898 0.961717 1.70439 0
M  V30 5969 C 570.197 3.51372 -0.653658 0
M  V30 5970 C 569.863 4.00584 -2.06987 0
M  V30 5971 C 568.525 4.13733 -2.4572 0
M  V30 5972 C 570.877 4.26624 -2.99402 0
M  V30 5973 C 568.205 4.50268 -3.76132 0
M  V30 5974 C 570.557 4.64618 -4.29316 0
M  V30 5975 C 569.221 4.75975 -4.67979 0
M  V30 5976 H 568.491 0.72133 -0.169601 0
M  V30 5977 H 571.138 1.57517 -1.08907 0
M  V30 5978 H 569.443 3.91761 0.0551328 0
M  V30 5979 H 571.14 3.99655 -0.328163 0
M  V30 5980 H 567.73 3.90837 -1.75911 0
M  V30 5981 H 571.914 4.1597 -2.70708 0
M  V30 5982 H 567.17 4.57256 -4.05865 0
M  V30 5983 H 571.344 4.83722 -5.00985 0
M  V30 5984 H 568.971 5.04041 -5.69076 0
M  V30 5985 N 570.547 0.616602 1.45037 0
M  V30 5986 C 571.479 -0.135186 2.28801 0
M  V30 5987 C 572.492 -0.82303 1.40464 0
M  V30 5988 O 573.681 -0.686909 1.64754 0
M  V30 5989 C 570.781 -1.21292 3.16451 0
M  V30 5990 C 569.954 -0.61043 4.3312 0
M  V30 5991 C 569.013 -1.58022 5.01912 0
M  V30 5992 O 568.039 -1.10301 5.58411 0
M  V30 5993 N 569.241 -2.91464 5.02025 0
M  V30 5994 H 572.006 0.583612 2.93963 0
M  V30 5995 H 569.567 0.456723 1.55324 0
M  V30 5996 H 571.559 -1.86169 3.59337 0
M  V30 5997 H 570.129 -1.83412 2.53138 0
M  V30 5998 H 569.349 0.216638 3.93604 0
M  V30 5999 H 570.637 -0.188293 5.08451 0
M  V30 6000 H 570.035 -3.32829 4.57429 0
M  V30 6001 H 568.592 -3.51741 5.48745 0
M  V30 6002 N 572.025 -1.5352 0.356285 0
M  V30 6003 C 572.975 -2.22204 -0.510815 0
M  V30 6004 C 573.959 -1.21393 -1.05605 0
M  V30 6005 O 575.151 -1.46883 -0.987639 0
M  V30 6006 C 572.28 -3.00786 -1.65478 0
M  V30 6007 C 571.366 -4.08965 -1.12287 0
M  V30 6008 N 571.757 -5.04829 -0.313191 0
M  V30 6009 C 570.055 -4.23505 -1.39856 0
M  V30 6010 C 570.756 -5.81695 -0.0230322 0
M  V30 6011 N 569.732 -5.40074 -0.618144 0
M  V30 6012 H 573.534 -2.93676 0.114711 0
M  V30 6013 H 571.048 -1.61572 0.163811 0
M  V30 6014 H 573.045 -3.48502 -2.28806 0
M  V30 6015 H 571.705 -2.30843 -2.28345 0
M  V30 6016 H 572.716 -5.17879 0.0468202 0
M  V30 6017 H 569.393 -3.64786 -2.0307 0
M  V30 6018 H 570.783 -6.68931 0.630927 0
M  V30 6019 N 573.503 -0.0852151 -1.57369 0
M  V30 6020 C 574.752 0.580443 -1.93168 0
M  V30 6021 C 575.065 1.6995 -0.968319 0
M  V30 6022 O 576.271 2.42564 -1.21963 0
M  V30 6023 C 574.727 1.08386 -3.43192 0
M  V30 6024 C 574.335 -0.00491388 -4.48 0
M  V30 6025 C 576.079 1.72281 -3.87968 0
M  V30 6026 C 573.986 0.513299 -5.89168 0
M  V30 6027 H 572.916 0.22059 -0.72101 0
M  V30 6028 H 575.567 -0.159621 -1.82804 0
M  V30 6029 H 573.949 1.8773 -3.48674 0
M  V30 6030 H 575.123 -0.780032 -4.5415 0
M  V30 6031 H 573.438 -0.548453 -4.12772 0
M  V30 6032 H 576.035 2.12108 -4.9083 0
M  V30 6033 H 576.378 2.58811 -3.26071 0
M  V30 6034 H 576.911 0.995359 -3.85146 0
M  V30 6035 H 573.65 -0.315153 -6.54742 0
M  V30 6036 H 573.17 1.25564 -5.8651 0
M  V30 6037 H 574.849 0.985433 -6.39451 0
M  V30 6038 N 574.981 1.5647 0.188427 0
M  V30 6039 C 576.23 1.80207 0.905995 0
M  V30 6040 C 576.543 0.659579 1.84144 0
M  V30 6041 O 577.749 0.781431 2.60011 0
M  V30 6042 C 576.205 3.19255 1.66145 0
M  V30 6043 C 575.813 4.41324 0.770504 0
M  V30 6044 C 577.557 3.52298 2.36826 0
M  V30 6045 C 575.464 5.71394 1.52521 0
M  V30 6046 H 574.394 0.671953 0.342045 0
M  V30 6047 H 577.045 1.82808 0.159164 0
M  V30 6048 H 575.427 3.10922 2.45242 0
M  V30 6049 H 576.601 4.60797 0.0177261 0
M  V30 6050 H 574.916 4.16035 0.174199 0
M  V30 6051 H 577.513 4.46715 2.93854 0
M  V30 6052 H 577.856 2.76359 3.11338 0
M  V30 6053 H 578.389 3.62108 1.6469 0
M  V30 6054 H 575.128 6.50316 0.82275 0
M  V30 6055 H 574.648 5.55928 2.25175 0
M  V30 6056 H 576.327 6.12747 2.07725 0
M  V30 6057 N 576.459 -0.456382 1.50847 0
M  V30 6058 C 577.875 -0.791345 1.386 0
M  V30 6059 C 578.075 -1.9633 0.453498 0
M  V30 6060 O 577.131 -2.52308 -0.0984353 0
M  V30 6061 C 578.444 -1.08959 2.80265 0
M  V30 6062 C 579.992 -1.19517 2.89283 0
M  V30 6063 C 580.467 -1.52647 4.31814 0
M  V30 6064 N 581.958 -1.59609 4.34832 0
M  V30 6065 C 582.693 -1.86777 5.42127 0
M  V30 6066 N 582.189 -2.11866 6.59609 0
M  V30 6067 N 583.982 -1.88402 5.29586 0
M  V30 6068 H 576.133 0.315746 2.1004 0
M  V30 6069 H 578.396 0.0787916 0.94472 0
M  V30 6070 H 578.102 -0.301355 3.50407 0
M  V30 6071 H 577.976 -2.02211 3.18419 0
M  V30 6072 H 580.363 -1.97406 2.19351 0
M  V30 6073 H 580.444 -0.242111 2.54652 0
M  V30 6074 H 580.088 -0.752922 5.02288 0
M  V30 6075 H 580.018 -2.49127 4.63943 0
M  V30 6076 H 582.509 -1.42201 3.50125 0
M  V30 6077 H 582.822 -2.31912 7.37182 0
M  V30 6078 H 581.167 -2.09228 6.62758 0
M  V30 6079 H 584.358 -1.68307 4.36795 0
M  V30 6080 H 584.531 -2.09238 6.13289 0
M  V30 6081 N 577.937 -1.40673 -0.710563 0
M  V30 6082 C 579.353 -1.22813 -1.01928 0
M  V30 6083 C 579.553 -0.10687 -2.01216 0
M  V30 6084 O 578.609 0.533614 -2.46797 0
M  V30 6085 C 579.922 -2.57178 -1.5582 0
M  V30 6086 C 581.47 -2.64233 -1.67779 0
M  V30 6087 C 581.945 -3.98879 -2.25076 0
M  V30 6088 N 583.436 -4.00647 -2.32456 0
M  V30 6089 C 584.171 -5.01621 -2.77784 0
M  V30 6090 N 583.667 -6.12989 -3.22826 0
M  V30 6091 N 585.46 -4.88988 -2.77213 0
M  V30 6092 H 577.611 -2.12335 -0.05253 0
M  V30 6093 H 579.874 -0.9441 -0.085898 0
M  V30 6094 H 579.58 -3.39903 -0.903249 0
M  V30 6095 H 579.454 -2.78618 -2.54267 0
M  V30 6096 H 581.841 -1.81876 -2.3239 0
M  V30 6097 H 581.922 -2.46619 -0.679178 0
M  V30 6098 H 581.566 -4.81678 -1.61086 0
M  V30 6099 H 581.496 -4.13826 -3.25661 0
M  V30 6100 H 583.987 -3.20231 -2.0065 0
M  V30 6101 H 584.3 -6.85921 -3.55995 0
M  V30 6102 H 582.645 -6.16547 -3.20773 0
M  V30 6103 H 585.836 -4.01075 -2.41363 0
M  V30 6104 H 586.009 -5.67822 -3.12221 0
M  V30 6105 N 579.415 0.9433 -1.26252 0
M  V30 6106 C 580.325 2.07532 -1.09397 0
M  V30 6107 C 581.341 1.73977 -0.0280449 0
M  V30 6108 O 582.517 2.00067 -0.231337 0
M  V30 6109 C 579.582 3.39002 -0.726523 0
M  V30 6110 C 578.643 3.86353 -1.87163 0
M  V30 6111 C 577.876 5.11549 -1.52162 0
M  V30 6112 O 578.099 5.68834 -0.422385 0
M  V30 6113 O 577.033 5.53889 -2.35565 0
M  V30 6114 H 580.859 2.24658 -2.04359 0
M  V30 6115 H 578.444 1.05988 -1.05295 0
M  V30 6116 H 580.326 4.18 -0.534236 0
M  V30 6117 H 579.001 3.2312 0.193721 0
M  V30 6118 H 577.908 3.0831 -2.11886 0
M  V30 6119 H 579.241 4.06752 -2.77152 0
M  V30 6120 N 580.893 1.08022 1.14757 0
M  V30 6121 C 582.139 0.808705 1.85978 0
M  V30 6122 C 582.472 -0.663764 1.82504 0
M  V30 6123 O 581.747 -1.48765 1.25296 0
M  V30 6124 C 582.03 1.32623 3.34788 0
M  V30 6125 C 581.883 2.86375 3.46856 0
M  V30 6126 C 583.202 0.948291 4.29762 0
M  V30 6127 H 580.321 0.295244 0.675278 0
M  V30 6128 H 582.963 1.33917 1.34783 0
M  V30 6129 H 581.113 0.875002 3.78518 0
M  V30 6130 H 582.785 3.39839 3.11941 0
M  V30 6131 H 581.028 3.24232 2.88194 0
M  V30 6132 H 581.699 3.17658 4.51439 0
M  V30 6133 H 584.175 1.33722 3.94028 0
M  V30 6134 H 583.051 1.33765 5.32352 0
M  V30 6135 H 583.312 -0.145094 4.41862 0
M  V30 6136 N 582.371 -1.3172 0.865308 0
M  V30 6137 C 583.599 -2.01057 0.488251 0
M  V30 6138 C 584.014 -1.64979 -0.918 0
M  V30 6139 O 583.371 -0.876597 -1.60069 0
M  V30 6140 C 583.422 -3.55964 0.630224 0
M  V30 6141 O 583.143 -3.90749 1.98109 0
M  V30 6142 C 584.644 -4.42574 0.253567 0
M  V30 6143 H 581.864 -0.64332 0.190736 0
M  V30 6144 H 584.408 -1.68058 1.16519 0
M  V30 6145 H 582.563 -3.874 0.000895422 0
M  V30 6146 H 582.977 -4.85467 1.9855 0
M  V30 6147 H 584.451 -5.50521 0.403875 0
M  V30 6148 H 584.928 -4.31724 -0.806895 0
M  V30 6149 H 585.534 -4.16547 0.858404 0
M  V30 6150 N 583.85 -0.624285 -1.44708 0
M  V30 6151 C 585.127 -0.0572781 -1.95516 0
M  V30 6152 C 585.507 1.41516 -1.56641 0
M  V30 6153 O 584.855 2.12614 -0.837111 0
M  V30 6154 C 585.065 -0.272944 -3.47931 0
M  V30 6155 C 586.413 -0.162529 -4.24289 0
M  V30 6156 O 587.437 -0.203946 -3.55616 0
M  V30 6157 O 586.296 -0.0616847 -5.46465 0
M  V30 6158 H 583.389 0.0262219 -0.826584 0
M  V30 6159 H 585.936 -0.695512 -1.54793 0
M  V30 6160 H 584.707 -1.29492 -3.69253 0
M  V30 6161 H 584.331 0.399756 -3.95585 0
M  V30 6162 N 585.328 1.53329 -0.364422 0
M  V30 6163 C 586.238 2.29414 0.490552 0
M  V30 6164 C 587.254 1.35335 1.09363 0
M  V30 6165 O 588.43 1.68391 1.10483 0
M  V30 6166 C 585.495 3.06772 1.61529 0
M  V30 6167 C 584.556 4.16516 1.03986 0
M  V30 6168 C 583.789 4.90176 2.111 0
M  V30 6169 O 584.012 4.63687 3.32191 0
M  V30 6170 O 582.946 5.76134 1.74222 0
M  V30 6171 H 586.772 3.03428 -0.12856 0
M  V30 6172 H 584.357 1.48843 -0.128837 0
M  V30 6173 H 586.239 3.55082 2.26924 0
M  V30 6174 H 584.914 2.35596 2.21983 0
M  V30 6175 H 583.821 3.7246 0.349856 0
M  V30 6176 H 585.154 4.89855 0.4799 0
M  V30 6177 N 586.806 0.0935595 1.57322 0
M  V30 6178 C 588.083 -0.612692 1.85756 0
M  V30 6179 C 588.463 -1.86439 0.99013 0
M  V30 6180 O 587.811 -2.28416 0.0621362 0
M  V30 6181 C 588.021 -0.929547 3.36393 0
M  V30 6182 C 589.369 -1.29366 4.04413 0
M  V30 6183 O 590.393 -1.02061 3.41265 0
M  V30 6184 O 589.252 -1.80498 5.15832 0
M  V30 6185 H 586.346 -0.306444 0.768128 0
M  V30 6186 H 588.892 0.126141 1.69231 0
M  V30 6187 H 587.664 -0.0414766 3.91278 0
M  V30 6188 H 587.287 -1.72441 3.5826 0
M  V30 6189 N 588.284 -1.56567 -0.180126 0
M  V30 6190 C 589.512 -1.85618 -0.913972 0
M  V30 6191 C 589.927 -0.677892 -1.7621 0
M  V30 6192 O 589.284 0.353171 -1.7905 0
M  V30 6193 C 589.335 -3.13619 -1.79793 0
M  V30 6194 O 589.056 -4.26906 -0.98402 0
M  V30 6195 C 590.557 -3.55954 -2.64219 0
M  V30 6196 H 587.777 -0.616043 -0.265954 0
M  V30 6197 H 590.321 -2.03681 -0.182872 0
M  V30 6198 H 588.476 -2.97409 -2.48247 0
M  V30 6199 H 588.89 -4.9989 -1.58776 0
M  V30 6200 H 590.364 -4.48444 -3.21873 0
M  V30 6201 H 590.841 -2.79653 -3.38661 0
M  V30 6202 H 591.447 -3.74746 -2.01111 0
M  V30 6203 N 589.762 0.448376 -1.51087 0
M  V30 6204 C 591.178 0.783984 -1.39017 0
M  V30 6205 C 591.378 1.96087 -0.463904 0
M  V30 6206 O 590.434 2.52357 0.0850534 0
M  V30 6207 C 591.747 1.07471 -2.80839 0
M  V30 6208 C 593.295 1.17981 -2.89913 0
M  V30 6209 C 593.77 1.50354 -4.32617 0
M  V30 6210 N 595.261 1.57301 -4.35673 0
M  V30 6211 C 595.996 1.839 -5.4311 0
M  V30 6212 N 595.492 2.08365 -6.60724 0
M  V30 6213 N 597.285 1.8559 -5.30578 0
M  V30 6214 H 589.436 -0.326881 -2.0987 0
M  V30 6215 H 591.699 -0.0838006 -0.944289 0
M  V30 6216 H 591.405 0.282768 -3.50561 0
M  V30 6217 H 591.279 2.00519 -3.19487 0
M  V30 6218 H 593.666 1.9624 -2.20395 0
M  V30 6219 H 593.747 0.228603 -2.54776 0
M  V30 6220 H 593.391 0.726273 -5.0268 0
M  V30 6221 H 593.321 2.46663 -4.65258 0
M  V30 6222 H 595.812 1.40342 -3.50874 0
M  V30 6223 H 596.125 2.27999 -7.38401 0
M  V30 6224 H 594.47 2.0571 -6.63859 0
M  V30 6225 H 597.661 1.65989 -4.37682 0
M  V30 6226 H 597.834 2.05983 -6.1439 0
M  V30 6227 N 591.24 1.41047 0.703093 0
M  V30 6228 C 592.19 1.38774 1.80903 0
M  V30 6229 C 593.174 0.263275 1.58731 0
M  V30 6230 O 594.366 0.503362 1.69692 0
M  V30 6231 C 591.495 1.26497 3.19145 0
M  V30 6232 C 590.581 2.43775 3.47037 0
M  V30 6233 N 590.972 3.69249 3.45672 0
M  V30 6234 C 589.27 2.37425 3.77552 0
M  V30 6235 C 589.971 4.46989 3.72258 0
M  V30 6236 N 588.947 3.76998 3.91629 0
M  V30 6237 H 592.749 2.33714 1.78199 0
M  V30 6238 H 590.263 1.34996 0.902762 0
M  V30 6239 H 592.26 1.2295 3.98358 0
M  V30 6240 H 590.92 0.32534 3.23066 0
M  V30 6241 H 591.931 4.02239 3.26228 0
M  V30 6242 H 588.608 1.51895 3.88888 0
M  V30 6243 H 589.998 5.55894 3.77402 0
M  V30 6244 N 592.718 -0.936591 1.26751 0
M  V30 6245 C 593.648 -2.05315 1.11212 0
M  V30 6246 C 594.629 -1.70092 0.0160262 0
M  V30 6247 O 595.814 -1.93279 0.188894 0
M  V30 6248 C 592.944 -3.39123 0.749171 0
M  V30 6249 C 591.898 -3.88425 1.79751 0
M  V30 6250 C 591.224 -5.18936 1.28876 0
M  V30 6251 C 592.524 -4.12798 3.19992 0
M  V30 6252 H 594.218 -2.18573 2.04613 0
M  V30 6253 H 591.764 -1.05027 0.985159 0
M  V30 6254 H 593.717 -4.16704 0.627323 0
M  V30 6255 H 592.441 -3.25855 -0.220543 0
M  V30 6256 H 591.1 -3.13028 1.90811 0
M  V30 6257 H 590.748 -5.02051 0.308757 0
M  V30 6258 H 590.448 -5.52892 1.98958 0
M  V30 6259 H 591.972 -5.99096 1.17967 0
M  V30 6260 H 593.386 -4.80977 3.11983 0
M  V30 6261 H 591.783 -4.58044 3.87705 0
M  V30 6262 H 592.853 -3.18412 3.65707 0
M  V30 6263 N 594.196 -1.08629 -1.14182 0
M  V30 6264 C 595.421 -0.83902 -1.89671 0
M  V30 6265 C 595.846 0.603332 -1.78161 0
M  V30 6266 O 595.204 1.42301 -1.12339 0
M  V30 6267 C 595.252 -1.26854 -3.37551 0
M  V30 6268 O 594.356 -0.42188 -4.10236 0
M  V30 6269 H 593.697 -0.304545 -0.590041 0
M  V30 6270 H 596.227 -1.4483 -1.44518 0
M  V30 6271 H 596.237 -1.25038 -3.88368 0
M  V30 6272 H 594.912 -2.31901 -3.45246 0
M  V30 6273 H 593.489 -0.503654 -3.69483 0
M  V30 6274 N 595.674 1.31259 -0.872281 0
M  V30 6275 C 597.09 1.49283 -0.564521 0
M  V30 6276 C 597.29 1.80243 0.900807 0
M  V30 6277 O 596.346 1.88246 1.68284 0
M  V30 6278 C 597.659 2.62503 -1.46673 0
M  V30 6279 C 599.207 2.76386 -1.46901 0
M  V30 6280 C 599.682 3.92705 -2.35684 0
M  V30 6281 N 601.173 3.99995 -2.33577 0
M  V30 6282 C 601.908 4.89276 -2.98992 0
M  V30 6283 N 601.404 5.83443 -3.73585 0
M  V30 6284 N 603.197 4.82541 -2.88289 0
M  V30 6285 H 595.348 1.09432 -1.82039 0
M  V30 6286 H 597.611 0.540949 -0.77851 0
M  V30 6287 H 597.317 2.46407 -2.50951 0
M  V30 6288 H 597.191 3.58695 -1.16696 0
M  V30 6289 H 599.578 2.91894 -0.433796 0
M  V30 6290 H 599.659 1.80853 -1.80903 0
M  V30 6291 H 599.303 3.77954 -3.39283 0
M  V30 6292 H 599.233 4.87549 -1.99006 0
M  V30 6293 H 601.724 3.32624 -1.7936 0
M  V30 6294 H 602.037 6.48303 -4.20622 0
M  V30 6295 H 600.382 5.83415 -3.77694 0
M  V30 6296 H 603.573 4.07951 -2.2955 0
M  V30 6297 H 603.746 5.51916 -3.39549 0
M  V30 6298 N 597.152 0.631951 1.44375 0
M  V30 6299 C 598.099 -0.0724807 2.30686 0
M  V30 6300 C 599.069 -0.835975 1.43529 0
M  V30 6301 O 600.254 -0.816849 1.7243 0
M  V30 6302 C 597.394 -1.04753 3.28817 0
M  V30 6303 C 596.507 -0.282367 4.31076 0
M  V30 6304 C 595.642 -1.2493 5.163 0
M  V30 6305 C 594.681 -0.473349 6.10267 0
M  V30 6306 N 593.818 -1.39079 6.88187 0
M  V30 6307 H 598.658 0.669477 2.90383 0
M  V30 6308 H 596.195 0.341927 1.43071 0
M  V30 6309 H 598.153 -1.62623 3.842 0
M  V30 6310 H 596.783 -1.75661 2.70819 0
M  V30 6311 H 595.835 0.412268 3.78159 0
M  V30 6312 H 597.147 0.321955 4.9776 0
M  V30 6313 H 596.301 -1.89931 5.76204 0
M  V30 6314 H 595.04 -1.88755 4.49692 0
M  V30 6315 H 594.045 0.190142 5.49471 0
M  V30 6316 H 595.27 0.16019 6.78911 0
M  V30 6317 H 593.216 -2.01623 6.24247 0
M  V30 6318 H 593.133 -0.840513 7.51313 0
M  V30 6319 H 594.401 -2.02961 7.52613 0
M  V30 6320 N 598.631 -1.53133 0.372548 0
M  V30 6321 C 599.878 -2.01356 -0.214959 0
M  V30 6322 C 600.206 -1.2596 -1.48204 0
M  V30 6323 O 599.461 -0.343511 -1.92662 0
M  V30 6324 C 599.76 -3.53206 -0.545938 0
M  V30 6325 C 599.426 -4.46511 0.627624 0
M  V30 6326 C 598.088 -4.71737 0.949615 0
M  V30 6327 C 600.44 -5.01666 1.41353 0
M  V30 6328 C 597.768 -5.4937 2.05936 0
M  V30 6329 C 600.12 -5.80511 2.51375 0
M  V30 6330 C 598.784 -6.04022 2.84101 0
M  V30 6331 H 598.054 -0.736813 -0.078659 0
M  V30 6332 H 600.701 -1.84682 0.506447 0
M  V30 6333 H 599.006 -3.67864 -1.34845 0
M  V30 6334 H 600.703 -3.87997 -1.01287 0
M  V30 6335 H 597.293 -4.27029 0.366635 0
M  V30 6336 H 601.477 -4.82117 1.17802 0
M  V30 6337 H 596.733 -5.65803 2.31682 0
M  V30 6338 H 600.907 -6.22255 3.12684 0
M  V30 6339 H 598.534 -6.63962 3.70214 0
M  V30 6340 N 600.109 -0.101901 -1.5727 0
M  V30 6341 C 601.056 0.854577 -2.14396 0
M  V30 6342 C 602.026 1.27521 -1.06432 0
M  V30 6343 O 603.211 1.35575 -1.34253 0
M  V30 6344 C 600.351 2.10576 -2.73408 0
M  V30 6345 C 599.464 1.73504 -3.95626 0
M  V30 6346 C 598.599 2.9346 -4.42781 0
M  V30 6347 C 597.638 2.52547 -5.57572 0
M  V30 6348 N 596.775 3.65359 -5.99547 0
M  V30 6349 H 601.615 0.360578 -2.9581 0
M  V30 6350 H 599.152 0.166303 -1.46157 0
M  V30 6351 H 601.11 2.83859 -3.05745 0
M  V30 6352 H 599.74 2.57463 -1.94711 0
M  V30 6353 H 598.792 0.901622 -3.6956 0
M  V30 6354 H 600.104 1.39426 -4.78917 0
M  V30 6355 H 599.258 3.74988 -4.76937 0
M  V30 6356 H 597.997 3.30753 -3.58404 0
M  V30 6357 H 597.002 1.69446 -5.23037 0
M  V30 6358 H 598.227 2.1639 -6.43702 0
M  V30 6359 H 596.173 4.02358 -5.18116 0
M  V30 6360 H 596.09 3.35148 -6.77652 0
M  V30 6361 H 597.358 4.47378 -6.38336 0
M  V30 6362 N 601.587 1.56661 0.17182 0
M  V30 6363 C 602.864 1.72838 0.915778 0
M  V30 6364 C 603.244 0.66316 2.00413 0
M  V30 6365 O 602.592 -0.322123 2.26218 0
M  V30 6366 C 602.802 3.16019 1.48097 0
M  V30 6367 C 604.15 3.76962 1.95408 0
M  V30 6368 O 605.174 3.19294 1.57892 0
M  V30 6369 O 604.033 4.78219 2.64516 0
M  V30 6370 H 601.127 0.705797 0.431021 0
M  V30 6371 H 603.673 1.68947 0.159689 0
M  V30 6372 H 602.445 3.85031 0.697618 0
M  V30 6373 H 602.068 3.24234 2.30126 0
M  V30 6374 N 603.065 -0.440357 1.51323 0
M  V30 6375 C 604.311 -1.18874 1.65047 0
M  V30 6376 C 604.666 -1.88988 0.360742 0
M  V30 6377 O 603.959 -1.80479 -0.643272 0
M  V30 6378 C 604.153 -2.2339 2.78984 0
M  V30 6379 C 603.982 -1.63534 4.18911 0
M  V30 6380 C 602.752 -1.42158 4.84891 0
M  V30 6381 C 604.95 -1.11324 5.02107 0
M  V30 6382 N 602.932 -0.778679 6.08942 0
M  V30 6383 C 604.303 -0.595421 6.17134 0
M  V30 6384 C 606.358 -1.00471 4.87658 0
M  V30 6385 C 605.061 0.0202557 7.19297 0
M  V30 6386 C 607.087 -0.402928 5.90026 0
M  V30 6387 C 606.449 0.10436 7.04323 0
M  V30 6388 H 602.548 -0.422771 0.657866 0
M  V30 6389 H 605.132 -0.485814 1.88542 0
M  V30 6390 H 603.303 -2.91074 2.57158 0
M  V30 6391 H 605.035 -2.90366 2.81904 0
M  V30 6392 H 601.79 -1.68247 4.42707 0
M  V30 6393 H 602.214 -0.474755 6.75333 0
M  V30 6394 H 606.856 -1.38278 3.99548 0
M  V30 6395 H 604.574 0.410468 8.07057 0
M  V30 6396 H 608.16 -0.320897 5.80914 0
M  V30 6397 H 607.04 0.562697 7.82179 0
M  V30 6398 N 604.543 -1.41418 -0.695603 0
M  V30 6399 C 605.506 -1.42988 -1.79129 0
M  V30 6400 C 606.506 -0.320514 -1.57573 0
M  V30 6401 O 607.696 -0.58039 -1.64247 0
M  V30 6402 C 604.828 -1.24122 -3.175 0
M  V30 6403 H 606.021 -2.40526 -1.7913 0
M  V30 6404 H 603.574 -1.2756 -0.903225 0
M  V30 6405 H 604.309 -0.274253 -3.23138 0
M  V30 6406 H 604.094 -2.045 -3.34547 0
M  V30 6407 H 605.584 -1.28056 -3.97481 0
M  V30 6408 N 606.021 0.929856 -1.27246 0
M  V30 6409 C 607.251 1.70895 -1.16096 0
M  V30 6410 C 607.659 1.87039 0.285122 0
M  V30 6411 O 607.002 1.38557 1.20614 0
M  V30 6412 C 607.064 3.12919 -1.7698 0
M  V30 6413 C 606.728 3.2012 -3.26148 0
M  V30 6414 C 607.725 3.02533 -4.22812 0
M  V30 6415 C 605.41 3.43148 -3.66817 0
M  V30 6416 C 607.404 3.07861 -5.58122 0
M  V30 6417 C 605.091 3.48109 -5.02258 0
M  V30 6418 C 606.089 3.30483 -5.97721 0
M  V30 6419 O 605.777 3.35175 -7.30694 0
M  V30 6420 H 605.509 0.54152 -0.404639 0
M  V30 6421 H 608.063 1.17342 -1.68582 0
M  V30 6422 H 606.293 3.67945 -1.18969 0
M  V30 6423 H 607.982 3.72787 -1.60576 0
M  V30 6424 H 608.748 2.84586 -3.92728 0
M  V30 6425 H 604.627 3.55918 -2.9299 0
M  V30 6426 H 608.171 2.94021 -6.32612 0
M  V30 6427 H 604.068 3.65579 -5.31998 0
M  V30 6428 H 604.836 3.51644 -7.39114 0
M  V30 6429 N 607.499 1.09233 1.13605 0
M  V30 6430 C 608.747 0.825525 1.84471 0
M  V30 6431 C 609.068 -0.650702 1.83823 0
M  V30 6432 O 608.338 -1.47204 1.29259 0
M  V30 6433 H 606.918 0.3024 0.683054 0
M  V30 6434 H 609.58 1.38006 1.37624 0
M  V30 6435 H 608.676 1.17727 2.89045 0
M  V30 6436 N 608.977 -1.30795 0.87923 0
M  V30 6437 C 610.388 -1.78535 0.546093 0
M  V30 6438 C 610.739 -1.72354 -0.937467 0
M  V30 6439 O 609.864 -1.2969 -1.73233 0
M  V30 6440 C 610.459 -3.24181 0.9845 0
M  V30 6441 C 609.018 -3.69779 0.702871 0
M  V30 6442 C 608.165 -2.51377 1.17068 0
M  V30 6443 H 611.116 -1.17746 1.06403 0
M  V30 6444 H 611.137 -3.79227 0.311045 0
M  V30 6445 H 610.649 -3.28647 2.06429 0
M  V30 6446 H 608.75 -3.70806 -0.365166 0
M  V30 6447 H 608.863 -4.61507 1.28639 0
M  V30 6448 H 607.227 -2.47768 0.590172 0
M  V30 6449 H 608.01 -2.58584 2.25808 0
M  V30 6450 N 610.455 -0.639598 -1.44038 0
M  V30 6451 C 611.701 -0.147698 -2.02261 0
M  V30 6452 C 612.034 1.23031 -1.50256 0
M  V30 6453 O 611.309 1.81847 -0.690068 0
M  V30 6454 C 611.592 -0.14362 -3.59813 0
M  V30 6455 C 611.445 -1.55458 -4.22082 0
M  V30 6456 C 612.764 0.527317 -4.36929 0
M  V30 6457 H 609.883 -0.0551453 -0.734934 0
M  V30 6458 H 612.525 -0.817688 -1.71505 0
M  V30 6459 H 610.675 0.426898 -3.86147 0
M  V30 6460 H 612.347 -2.17464 -4.06826 0
M  V30 6461 H 610.59 -2.10594 -3.79253 0
M  V30 6462 H 611.261 -1.50369 -5.31124 0
M  V30 6463 H 613.737 0.0420504 -4.16079 0
M  V30 6464 H 612.613 0.499389 -5.46624 0
M  V30 6465 H 612.874 1.59914 -4.12165 0
M  V30 6466 N 611.933 1.52934 -0.380664 0
M  V30 6467 C 613.163 2.05587 0.204302 0
M  V30 6468 C 613.571 1.25288 1.41773 0
M  V30 6469 O 612.914 0.290394 1.8139 0
M  V30 6470 C 612.976 3.53624 0.647324 0
M  V30 6471 C 612.64 4.54765 -0.451465 0
M  V30 6472 C 613.637 5.03226 -1.30614 0
M  V30 6473 C 611.322 4.98508 -0.616025 0
M  V30 6474 C 613.316 5.94046 -2.31058 0
M  V30 6475 C 611.003 5.89131 -1.62381 0
M  V30 6476 C 612.001 6.36792 -2.46952 0
M  V30 6477 O 611.689 7.25626 -3.46009 0
M  V30 6478 H 611.421 0.675013 0.0365198 0
M  V30 6479 H 613.975 1.98125 -0.541827 0
M  V30 6480 H 612.205 3.58676 1.44529 0
M  V30 6481 H 613.894 3.89061 1.15698 0
M  V30 6482 H 614.66 4.70167 -1.19027 0
M  V30 6483 H 610.539 4.60989 0.0324987 0
M  V30 6484 H 614.083 6.3117 -2.97104 0
M  V30 6485 H 609.98 6.21603 -1.7401 0
M  V30 6486 H 610.748 7.43664 -3.41916 0
M  V30 6487 N 613.412 0.11024 1.57214 0
M  V30 6488 C 614.637 -0.561179 1.99664 0
M  V30 6489 C 615.062 -1.59985 0.989266 0
M  V30 6490 O 614.42 -1.81255 -0.0402399 0
M  V30 6491 C 614.468 -1.17189 3.41027 0
M  V30 6492 O 613.572 -2.28755 3.4314 0
M  V30 6493 H 612.913 -0.14101 0.648855 0
M  V30 6494 H 615.443 0.196128 2.03658 0
M  V30 6495 H 615.453 -1.50954 3.79047 0
M  V30 6496 H 614.128 -0.411041 4.13864 0
M  V30 6497 H 612.705 -1.96495 3.16929 0
M  V30 6498 N 614.89 -1.56749 -0.16351 0
M  V30 6499 C 616.115 -1.86938 -0.898264 0
M  V30 6500 C 616.54 -0.697456 -1.74692 0
M  V30 6501 O 615.898 0.353327 -1.77824 0
M  V30 6502 C 615.946 -3.15599 -1.74441 0
M  V30 6503 O 615.05 -2.98371 -2.8469 0
M  V30 6504 H 614.391 -0.614659 -0.251178 0
M  V30 6505 H 616.921 -2.03979 -0.159298 0
M  V30 6506 H 616.931 -3.47202 -2.14277 0
M  V30 6507 H 615.606 -4.00505 -1.1211 0
M  V30 6508 H 614.183 -2.7814 -2.4838 0
M  V30 6509 N 616.368 0.432326 -1.51554 0
M  V30 6510 C 617.298 1.53242 -1.76179 0
M  V30 6511 C 618.279 1.58717 -0.611801 0
M  V30 6512 O 619.464 1.74364 -0.855033 0
M  V30 6513 C 616.594 2.91278 -1.89141 0
M  V30 6514 C 615.548 3.00663 -3.04608 0
M  V30 6515 C 614.874 4.40728 -3.02759 0
M  V30 6516 C 616.174 2.74281 -4.44485 0
M  V30 6517 H 617.868 1.32886 -2.68294 0
M  V30 6518 H 615.414 0.637841 -1.29103 0
M  V30 6519 H 617.367 3.68203 -2.04951 0
M  V30 6520 H 616.091 3.12877 -0.936785 0
M  V30 6521 H 614.75 2.26179 -2.88511 0
M  V30 6522 H 614.398 4.59301 -2.05065 0
M  V30 6523 H 614.098 4.47936 -3.80299 0
M  V30 6524 H 615.622 5.19619 -3.20669 0
M  V30 6525 H 617.036 3.40936 -4.60907 0
M  V30 6526 H 615.433 2.92893 -5.23769 0
M  V30 6527 H 616.503 1.69856 -4.54177 0
M  V30 6528 N 617.846 1.41785 0.688094 0
M  V30 6529 C 619.076 1.44705 1.47459 0
M  V30 6530 C 619.484 0.052916 1.89126 0
M  V30 6531 O 618.827 -0.939781 1.57841 0
M  V30 6532 C 618.889 2.29935 2.76352 0
M  V30 6533 C 618.553 3.77996 2.56843 0
M  V30 6534 C 619.55 4.69976 2.22304 0
M  V30 6535 C 617.235 4.2212 2.7225 0
M  V30 6536 C 619.229 6.04068 2.03421 0
M  V30 6537 C 616.916 5.56275 2.52985 0
M  V30 6538 C 617.914 6.47065 2.18621 0
M  V30 6539 O 617.602 7.78744 1.9953 0
M  V30 6540 H 617.334 0.494703 0.460701 0
M  V30 6541 H 619.888 1.86802 0.854057 0
M  V30 6542 H 618.118 1.82664 3.40839 0
M  V30 6543 H 619.807 2.24467 3.38186 0
M  V30 6544 H 620.573 4.37175 2.10008 0
M  V30 6545 H 616.452 3.51752 2.97979 0
M  V30 6546 H 619.996 6.74897 1.76523 0
M  V30 6547 H 615.893 5.88653 2.64873 0
M  V30 6548 H 616.661 7.89966 2.14234 0
M  V30 6549 N 619.324 -0.923095 1.27737 0
M  V30 6550 C 620.601 -1.64989 1.05062 0
M  V30 6551 C 620.981 -2.07018 -0.413124 0
M  V30 6552 O 620.329 -1.80797 -1.39731 0
M  V30 6553 C 620.539 -2.84847 2.01652 0
M  V30 6554 C 621.887 -3.56083 2.31279 0
M  V30 6555 O 622.911 -2.94981 1.99662 0
M  V30 6556 O 621.77 -4.66182 2.85196 0
M  V30 6557 H 618.864 -0.723357 0.400853 0
M  V30 6558 H 621.41 -0.973224 1.3902 0
M  V30 6559 H 620.182 -2.50814 3.00347 0
M  V30 6560 H 619.805 -3.60231 1.68284 0
M  V30 6561 N 620.802 -1.09834 -1.13024 0
M  V30 6562 C 621.732 -0.763451 -2.20666 0
M  V30 6563 C 622.713 0.260778 -1.68089 0
M  V30 6564 O 623.898 0.127915 -1.93778 0
M  V30 6565 C 621.028 -0.187744 -3.46792 0
M  V30 6566 C 619.982 -1.14196 -4.12484 0
M  V30 6567 C 619.308 -0.427755 -5.32986 0
M  V30 6568 C 620.608 -2.48607 -4.59338 0
M  V30 6569 H 622.302 -1.66347 -2.48936 0
M  V30 6570 H 619.848 -0.801261 -1.19649 0
M  V30 6571 H 621.801 0.0586375 -4.21359 0
M  V30 6572 H 620.525 0.747485 -3.17931 0
M  V30 6573 H 619.184 -1.37369 -3.3989 0
M  V30 6574 H 618.832 0.511747 -5.0039 0
M  V30 6575 H 618.532 -1.06403 -5.77886 0
M  V30 6576 H 620.056 -0.189772 -6.10305 0
M  V30 6577 H 621.47 -2.29618 -5.25308 0
M  V30 6578 H 619.867 -3.08062 -5.14993 0
M  V30 6579 H 620.937 -3.09062 -3.73642 0
M  V30 6580 N 622.28 1.30327 -0.886154 0
M  V30 6581 C 623.505 2.0079 -0.519425 0
M  V30 6582 C 623.93 1.65979 0.885013 0
M  V30 6583 O 623.288 0.877043 1.58675 0
M  V30 6584 C 623.336 3.53686 -0.702758 0
M  V30 6585 O 622.44 4.11637 0.250828 0
M  V30 6586 H 621.781 0.63171 -0.204544 0
M  V30 6587 H 624.311 1.66145 -1.19402 0
M  V30 6588 H 624.321 4.03531 -0.602207 0
M  V30 6589 H 622.996 3.78361 -1.72673 0
M  V30 6590 H 621.573 3.72755 0.103873 0
M  V30 6591 N 623.758 0.647228 1.43697 0
M  V30 6592 C 624.983 0.164083 2.0675 0
M  V30 6593 C 625.408 -1.15892 1.48158 0
M  V30 6594 O 624.766 -1.71459 0.589194 0
M  V30 6595 C 624.814 0.0800368 3.60511 0
M  V30 6596 O 623.918 -0.959453 4.01084 0
M  V30 6597 H 623.259 0.0921288 0.657578 0
M  V30 6598 H 625.789 0.88846 1.84303 0
M  V30 6599 H 625.799 -0.105263 4.07864 0
M  V30 6600 H 624.474 1.04586 4.02535 0
M  V30 6601 H 623.051 -0.747425 3.65333 0
M  V30 6602 N 625.236 -1.5273 0.388769 0
M  V30 6603 C 626.166 -2.29353 -0.438111 0
M  V30 6604 C 627.147 -1.32719 -1.06394 0
M  V30 6605 O 628.332 -1.61612 -1.07681 0
M  V30 6606 C 625.462 -3.09995 -1.56589 0
M  V30 6607 C 624.416 -4.14509 -1.06613 0
M  V30 6608 C 623.742 -4.83372 -2.28594 0
M  V30 6609 C 625.042 -5.22127 -0.134459 0
M  V30 6610 H 626.736 -2.98723 0.201206 0
M  V30 6611 H 624.282 -1.43665 0.0982089 0
M  V30 6612 H 626.235 -3.62357 -2.15118 0
M  V30 6613 H 624.959 -2.38357 -2.23279 0
M  V30 6614 H 623.618 -3.63128 -0.503383 0
M  V30 6615 H 623.266 -4.08283 -2.93792 0
M  V30 6616 H 622.966 -5.54012 -1.95817 0
M  V30 6617 H 624.49 -5.38538 -2.87766 0
M  V30 6618 H 625.904 -5.69851 -0.627914 0
M  V30 6619 H 624.301 -6.00011 0.103534 0
M  V30 6620 H 625.371 -4.77971 0.816798 0
M  V30 6621 N 626.714 -0.118576 -1.57153 0
M  V30 6622 C 627.991 0.583062 -1.86708 0
M  V30 6623 C 628.371 1.84841 -1.01967 0
M  V30 6624 O 627.719 2.28288 -0.0984673 0
M  V30 6625 C 627.929 0.875912 -3.3783 0
M  V30 6626 C 629.277 1.22916 -4.0642 0
M  V30 6627 O 630.301 0.966188 -3.42846 0
M  V30 6628 O 629.16 1.72269 -5.18638 0
M  V30 6629 H 626.254 0.294185 -0.772906 0
M  V30 6630 H 628.8 -0.153048 -1.69008 0
M  V30 6631 H 627.572 -0.0207776 -3.91294 0
M  V30 6632 H 627.195 1.66719 -3.60958 0
M  V30 6633 N 628.193 1.56834 0.155195 0
M  V30 6634 C 629.421 1.87049 0.884326 0
M  V30 6635 C 629.836 0.705839 1.7511 0
M  V30 6636 O 629.193 -0.324641 1.79589 0
M  V30 6637 C 629.244 3.1644 1.74781 0
M  V30 6638 O 628.965 4.28417 0.915978 0
M  V30 6639 C 630.466 3.60113 2.58522 0
M  V30 6640 H 627.686 0.620196 0.25612 0
M  V30 6641 H 630.23 2.03946 0.150445 0
M  V30 6642 H 628.385 3.01321 2.43484 0
M  V30 6643 H 628.799 5.02353 1.50803 0
M  V30 6644 H 630.273 4.53508 3.14698 0
M  V30 6645 H 630.75 2.85005 3.34169 0
M  V30 6646 H 631.356 3.77898 1.95124 0
M  V30 6647 N 629.671 -0.424282 1.51781 0
M  V30 6648 C 630.911 -1.18194 1.66762 0
M  V30 6649 C 631.275 -1.88164 0.381857 0
M  V30 6650 O 632.476 -2.65692 0.407586 0
M  V30 6651 C 630.747 -2.16173 2.84612 0
M  V30 6652 S 632.306 -3.0025 3.19993 0
M  V30 6653 H 629.124 -0.400626 0.587384 0
M  V30 6654 H 631.726 -0.471499 1.89729 0
M  V30 6655 H 630.43 -1.6343 3.76455 0
M  V30 6656 H 629.961 -2.91778 2.63873 0
M  V30 6657 H 631.976 -4.1796 2.67439 0
M  V30 6658 N 631.149 -1.42148 -0.680565 0
M  V30 6659 C 632.397 -1.42029 -1.43779 0
M  V30 6660 C 632.718 -0.0356347 -1.94967 0
M  V30 6661 O 631.988 0.924936 -1.7269 0
M  V30 6662 H 630.568 -0.522835 -0.533529 0
M  V30 6663 H 633.23 -1.7752 -0.804538 0
M  V30 6664 H 632.326 -2.11658 -2.29363 0
M  V30 6665 N 632.627 0.916307 -1.28225 0
M  V30 6666 C 633.537 2.05165 -1.13775 0
M  V30 6667 C 634.553 1.73879 -0.0649418 0
M  V30 6668 O 635.729 1.99531 -0.273722 0
M  V30 6669 C 632.794 3.37385 -0.798267 0
M  V30 6670 C 631.855 3.82296 -1.95316 0
M  V30 6671 C 631.088 5.08206 -1.62978 0
M  V30 6672 O 631.311 5.6781 -0.542948 0
M  V30 6673 O 630.245 5.48768 -2.47261 0
M  V30 6674 H 634.071 2.20273 -2.09078 0
M  V30 6675 H 631.656 1.0373 -1.07519 0
M  V30 6676 H 633.538 4.16773 -0.62278 0
M  V30 6677 H 632.213 3.23458 0.125139 0
M  V30 6678 H 631.12 3.03746 -2.18378 0
M  V30 6679 H 632.453 4.00782 -2.85718 0
M  V30 6680 N 634.105 1.10431 1.1244 0
M  V30 6681 C 635.015 0.765502 2.21759 0
M  V30 6682 C 636.031 -0.236966 1.72379 0
M  V30 6683 O 637.207 -0.0757329 2.01258 0
M  V30 6684 C 634.272 0.202316 3.46109 0
M  V30 6685 C 633.333 1.26205 4.1033 0
M  V30 6686 C 632.566 0.725648 5.28744 0
M  V30 6687 O 632.789 -0.447942 5.68638 0
M  V30 6688 O 631.723 1.48555 5.83279 0
M  V30 6689 H 635.549 1.67801 2.53133 0
M  V30 6690 H 633.134 0.879443 1.20773 0
M  V30 6691 H 635.016 -0.107918 4.21262 0
M  V30 6692 H 633.691 -0.683052 3.16411 0
M  V30 6693 H 632.598 1.62514 3.36957 0
M  V30 6694 H 633.931 2.12044 4.44183 0
M  V30 6695 N 635.583 -1.29855 0.893053 0
M  V30 6696 C 636.546 -2.26183 0.370687 0
M  V30 6697 C 637.546 -1.53108 -0.491385 0
M  V30 6698 O 638.736 -1.71643 -0.297386 0
M  V30 6699 C 635.868 -3.37633 -0.470827 0
M  V30 6700 H 637.061 -2.73903 1.22135 0
M  V30 6701 H 634.614 -1.41183 0.67061 0
M  V30 6702 H 635.349 -2.95241 -1.34175 0
M  V30 6703 H 635.134 -3.91825 0.146784 0
M  V30 6704 H 636.624 -4.09313 -0.827825 0
M  V30 6705 N 637.061 -0.65484 -1.43351 0
M  V30 6706 C 638.286 -0.175046 -2.0666 0
M  V30 6707 C 638.711 1.15104 -1.4877 0
M  V30 6708 O 638.069 1.71144 -0.598279 0
M  V30 6709 C 638.117 -0.0991544 -3.60464 0
M  V30 6710 O 637.221 0.938169 -4.01587 0
M  V30 6711 H 636.562 -0.0956148 -0.65708 0
M  V30 6712 H 639.092 -0.898222 -1.83829 0
M  V30 6713 H 639.102 0.083632 -4.07914 0
M  V30 6714 H 637.777 -1.06719 -4.01975 0
M  V30 6715 H 636.354 0.72804 -3.65724 0
M  V30 6716 N 638.539 1.52521 -0.396863 0
M  V30 6717 C 639.785 2.01971 0.183169 0
M  V30 6718 C 640.118 1.2825 1.45827 0
M  V30 6719 O 639.393 0.385179 1.90648 0
M  V30 6720 C 639.676 3.5736 0.443391 0
M  V30 6721 C 639.529 4.41743 -0.84753 0
M  V30 6722 C 640.848 4.22539 1.2308 0
M  V30 6723 H 637.967 0.734119 0.0650976 0
M  V30 6724 H 640.609 1.82519 -0.527918 0
M  V30 6725 H 638.759 3.74066 1.04914 0
M  V30 6726 H 640.431 4.36773 -1.48414 0
M  V30 6727 H 638.674 4.0845 -1.4612 0
M  V30 6728 H 639.345 5.48507 -0.620003 0
M  V30 6729 H 641.821 4.09857 0.718084 0
M  V30 6730 H 640.697 5.31227 1.38162 0
M  V30 6731 H 640.958 3.80675 2.24808 0
M  V30 6732 N 640.017 0.126909 1.57088 0
M  V30 6733 C 640.947 -0.816847 2.18746 0
M  V30 6734 C 641.928 -1.27161 1.12979 0
M  V30 6735 O 643.113 -1.33279 1.41246 0
M  V30 6736 C 640.243 -2.06398 2.79315 0
M  V30 6737 C 639.197 -1.74673 3.90735 0
M  V30 6738 C 638.523 -3.06482 4.38147 0
M  V30 6739 C 639.823 -1.0089 5.12463 0
M  V30 6740 H 641.517 -0.303032 2.97863 0
M  V30 6741 H 639.063 -0.144314 1.43275 0
M  V30 6742 H 641.016 -2.72885 3.2111 0
M  V30 6743 H 639.74 -2.60118 1.975 0
M  V30 6744 H 638.399 -1.10572 3.49527 0
M  V30 6745 H 638.047 -3.58152 3.5318 0
M  V30 6746 H 637.747 -2.86025 5.13287 0
M  V30 6747 H 639.271 -3.74073 4.82599 0
M  V30 6748 H 640.685 -1.57546 5.51228 0
M  V30 6749 H 639.082 -0.905006 5.93237 0
M  V30 6750 H 640.152 0.00297335 4.849 0
M  V30 6751 N 641.495 -1.56914 -0.146875 0
M  V30 6752 C 642.405 -2.0154 -1.20079 0
M  V30 6753 C 643.421 -0.930838 -1.47008 0
M  V30 6754 O 644.597 -1.24032 -1.58676 0
M  V30 6755 C 641.662 -2.38715 -2.51428 0
M  V30 6756 C 640.723 -3.6112 -2.32145 0
M  V30 6757 C 639.956 -3.96512 -3.57231 0
M  V30 6758 O 640.179 -3.32566 -4.63418 0
M  V30 6759 O 639.113 -4.89758 -3.49887 0
M  V30 6760 H 642.939 -2.91506 -0.851924 0
M  V30 6761 H 640.524 -1.45106 -0.355607 0
M  V30 6762 H 642.406 -2.63485 -3.28867 0
M  V30 6763 H 641.081 -1.51903 -2.85845 0
M  V30 6764 H 639.988 -3.41536 -1.52656 0
M  V30 6765 H 641.321 -4.48549 -2.02644 0
M  V30 6766 N 642.974 0.416227 -1.52004 0
M  V30 6767 C 644.223 1.16088 -1.64944 0
M  V30 6768 C 644.536 1.91835 -0.381928 0
M  V30 6769 O 645.742 2.6867 -0.391013 0
M  V30 6770 C 644.198 2.1124 -2.91386 0
M  V30 6771 C 643.806 1.41042 -4.25219 0
M  V30 6772 C 645.55 2.86008 -3.13688 0
M  V30 6773 C 643.457 2.34801 -5.42791 0
M  V30 6774 H 642.387 0.437041 -0.61442 0
M  V30 6775 H 645.038 0.425971 -1.78487 0
M  V30 6776 H 643.42 2.88254 -2.71525 0
M  V30 6777 H 644.594 0.694416 -4.55538 0
M  V30 6778 H 642.909 0.78344 -4.08964 0
M  V30 6779 H 645.506 3.56286 -3.98703 0
M  V30 6780 H 645.849 3.48556 -2.27628 0
M  V30 6781 H 646.382 2.16095 -3.33988 0
M  V30 6782 H 643.121 1.7691 -6.31176 0
M  V30 6783 H 642.641 3.04395 -5.16821 0
M  V30 6784 H 644.32 2.9548 -5.75587 0
M  V30 6785 N 644.452 1.42507 0.673017 0
M  V30 6786 C 645.382 1.48916 1.79851 0
M  V30 6787 C 646.363 0.345566 1.66553 0
M  V30 6788 O 647.548 0.560116 1.85947 0
M  V30 6789 C 644.678 1.39258 3.18158 0
M  V30 6790 C 643.632 2.51662 3.46194 0
M  V30 6791 C 642.958 2.27062 4.84094 0
M  V30 6792 C 644.258 3.93968 3.42909 0
M  V30 6793 H 645.952 2.43114 1.74745 0
M  V30 6794 H 643.498 1.17013 0.839288 0
M  V30 6795 H 645.451 1.42349 3.96629 0
M  V30 6796 H 644.175 0.415542 3.23946 0
M  V30 6797 H 642.834 2.47891 2.70084 0
M  V30 6798 H 642.482 1.27648 4.86534 0
M  V30 6799 H 642.182 3.02398 5.03815 0
M  V30 6800 H 643.706 2.31905 5.64847 0
M  V30 6801 H 645.12 3.99332 4.11347 0
M  V30 6802 H 643.517 4.6917 3.74165 0
M  V30 6803 H 644.587 4.20512 2.41449 0
M  V30 6804 N 645.93 -0.909495 1.28709 0
M  V30 6805 C 647.176 -1.66151 1.16283 0
M  V30 6806 C 647.509 -1.92067 -0.287069 0
M  V30 6807 O 646.784 -1.52409 -1.20837 0
M  V30 6808 C 647.067 -3.01676 1.9663 0
M  V30 6809 C 646.92 -2.82888 3.49707 0
M  V30 6810 C 648.239 -4.02274 1.78504 0
M  V30 6811 H 645.358 -0.602966 0.423793 0
M  V30 6812 H 648 -1.05418 1.58073 0
M  V30 6813 H 646.15 -3.53515 1.61119 0
M  V30 6814 H 647.822 -2.38026 3.95147 0
M  V30 6815 H 646.065 -2.17862 3.75125 0
M  V30 6816 H 646.736 -3.79147 4.01187 0
M  V30 6817 H 649.212 -3.59511 2.09503 0
M  V30 6818 H 648.088 -4.95056 2.37088 0
M  V30 6819 H 648.349 -4.35903 0.737647 0
M  V30 6820 N 647.408 -1.11026 -1.11852 0
M  V30 6821 C 648.638 -0.877544 -1.87037 0
M  V30 6822 C 649.046 0.575925 -1.80221 0
M  V30 6823 O 648.389 1.40916 -1.17849 0
M  V30 6824 C 648.451 -1.25529 -3.36872 0
M  V30 6825 C 648.115 -2.71704 -3.67459 0
M  V30 6826 C 649.112 -3.69931 -3.65304 0
M  V30 6827 C 646.797 -3.08243 -3.966 0
M  V30 6828 C 648.791 -5.02717 -3.9186 0
M  V30 6829 C 646.478 -4.41215 -4.22815 0
M  V30 6830 C 647.476 -5.38262 -4.20432 0
M  V30 6831 O 647.164 -6.68839 -4.45992 0
M  V30 6832 H 646.896 -0.314374 -0.598452 0
M  V30 6833 H 649.45 -1.48015 -1.42411 0
M  V30 6834 H 647.68 -0.595808 -3.82082 0
M  V30 6835 H 649.369 -0.999064 -3.93413 0
M  V30 6836 H 650.135 -3.43047 -3.42846 0
M  V30 6837 H 646.014 -2.33326 -3.97593 0
M  V30 6838 H 649.558 -5.78456 -3.89916 0
M  V30 6839 H 645.455 -4.67835 -4.44748 0
M  V30 6840 H 646.223 -6.74563 -4.63581 0
M  V30 6841 N 648.886 1.2938 -0.899927 0
M  V30 6842 C 649.834 2.29675 -0.367698 0
M  V30 6843 C 650.828 1.60787 0.533282 0
M  V30 6844 O 652.034 1.75126 0.416058 0
M  V30 6845 H 648.409 0.745284 -0.100279 0
M  V30 6846 H 650.38 2.72008 -1.22696 0
M  V30 6847 C 649.129 3.45512 0.389483 0
M  V30 6848 H 648.452 3.98713 -0.294575 0
M  V30 6849 H 649.892 4.17725 0.726744 0
M  V30 6850 C 648.351 2.969 1.59223 0
M  V30 6851 O 648.881 2.98195 2.69152 0
M  V30 6852 N 647.087 2.52728 1.43447 0
M  V30 6853 H 646.634 2.51873 0.540148 0
M  V30 6854 H 646.592 2.20561 2.24054 0
M  V30 6855 N 650.364 0.662433 1.43002 0
M  V30 6856 C 651.589 0.186003 2.06564 0
M  V30 6857 C 652.014 -1.14314 1.49379 0
M  V30 6858 O 651.372 -1.70824 0.607346 0
M  V30 6859 C 651.42 0.118269 3.60406 0
M  V30 6860 O 650.524 -0.916859 4.02079 0
M  V30 6861 H 649.865 0.0990981 0.656563 0
M  V30 6862 H 652.395 0.907958 1.8335 0
M  V30 6863 H 652.405 -0.0619981 4.07953 0
M  V30 6864 H 651.08 1.08849 4.01403 0
M  V30 6865 H 649.657 -0.708635 3.66105 0
M  V30 6866 N 651.842 -1.52309 0.404946 0
M  V30 6867 C 652.789 -2.26898 -0.422597 0
M  V30 6868 C 653.759 -1.2914 -1.04461 0
M  V30 6869 O 654.944 -1.57996 -1.06967 0
M  V30 6870 C 652.084 -3.09053 -1.53559 0
M  V30 6871 C 651.197 -4.21762 -0.934908 0
M  V30 6872 C 650.332 -4.91283 -2.02025 0
M  V30 6873 C 649.371 -5.95962 -1.39628 0
M  V30 6874 N 648.508 -6.59017 -2.42159 0
M  V30 6875 H 653.348 -2.97188 0.219903 0
M  V30 6876 H 650.885 -1.46607 0.120282 0
M  V30 6877 H 652.843 -3.54987 -2.19181 0
M  V30 6878 H 651.473 -2.40942 -2.14818 0
M  V30 6879 H 650.525 -3.80029 -0.167854 0
M  V30 6880 H 651.837 -4.96864 -0.439073 0
M  V30 6881 H 650.991 -5.40601 -2.75383 0
M  V30 6882 H 649.73 -4.15741 -2.54973 0
M  V30 6883 H 648.735 -5.45968 -0.648023 0
M  V30 6884 H 649.96 -6.73445 -0.874553 0
M  V30 6885 H 647.906 -5.86306 -2.94247 0
M  V30 6886 H 647.823 -7.2978 -1.97376 0
M  V30 6887 H 649.091 -7.12974 -3.15099 0
M  V30 6888 N 653.32 -0.135238 -1.57019 0
M  V30 6889 C 654.569 0.518694 -1.94917 0
M  V30 6890 C 654.882 1.66783 -1.0219 0
M  V30 6891 O 656.088 2.38561 -1.29619 0
M  V30 6892 C 654.544 0.974123 -3.46466 0
M  V30 6893 C 654.152 -0.147439 -4.47757 0
M  V30 6894 C 655.896 1.59851 -3.93253 0
M  V30 6895 C 653.803 0.325599 -5.90503 0
M  V30 6896 H 652.733 0.19754 -0.727663 0
M  V30 6897 H 655.384 -0.217698 -1.82204 0
M  V30 6898 H 653.766 1.76542 -3.5447 0
M  V30 6899 H 654.94 -0.924122 -4.51438 0
M  V30 6900 H 653.255 -0.679496 -4.10818 0
M  V30 6901 H 655.852 1.96385 -4.9733 0
M  V30 6902 H 656.195 2.48306 -3.3414 0
M  V30 6903 H 656.728 0.872323 -3.88118 0
M  V30 6904 H 653.467 -0.523295 -6.53408 0
M  V30 6905 H 652.987 1.06841 -5.90208 0
M  V30 6906 H 654.666 0.781498 -6.42263 0
M  V30 6907 N 654.798 1.5699 0.138552 0
M  V30 6908 C 655.708 2.02174 1.19008 0
M  V30 6909 C 656.724 0.938622 1.46512 0
M  V30 6910 O 657.9 1.24872 1.58016 0
M  V30 6911 C 654.965 2.40045 2.50159 0
M  V30 6912 C 654.026 3.62346 2.30226 0
M  V30 6913 C 653.259 3.98401 3.55123 0
M  V30 6914 O 653.482 3.35019 4.61647 0
M  V30 6915 O 652.416 4.91606 3.47285 0
M  V30 6916 H 656.242 2.91954 0.836452 0
M  V30 6917 H 653.827 1.45293 0.347907 0
M  V30 6918 H 655.709 2.65225 3.27465 0
M  V30 6919 H 654.384 1.53417 2.85035 0
M  V30 6920 H 653.291 3.42341 1.50843 0
M  V30 6921 H 654.624 4.49617 2.00262 0
M  V30 6922 N 656.276 -0.40816 1.52223 0
M  V30 6923 C 657.224 -1.51788 1.76248 0
M  V30 6924 C 658.218 -1.57264 0.629638 0
M  V30 6925 O 659.424 -1.60659 0.811704 0
M  V30 6926 H 655.799 -0.504823 0.557367 0
M  V30 6927 H 657.77 -1.2871 2.69214 0
M  V30 6928 C 656.519 -2.89145 1.93107 0
M  V30 6929 H 655.842 -2.85674 2.79697 0
M  V30 6930 H 657.282 -3.66082 2.13916 0
M  V30 6931 C 655.741 -3.29581 0.698431 0
M  V30 6932 O 656.271 -4.01479 -0.133238 0
M  V30 6933 N 654.477 -2.85651 0.53405 0
M  V30 6934 H 654.024 -2.2731 1.21194 0
M  V30 6935 H 653.982 -3.13065 -0.289387 0
M  V30 6936 N 657.755 -1.42862 -0.66545 0
M  V30 6937 C 659.171 -1.25993 -0.979687 0
M  V30 6938 C 659.371 -0.170831 -2.00775 0
M  V30 6939 O 658.427 0.454827 -2.4837 0
M  V30 6940 C 659.74 -2.62005 -1.47559 0
M  V30 6941 C 661.288 -2.69437 -1.59288 0
M  V30 6942 C 661.763 -4.05838 -2.12272 0
M  V30 6943 N 663.254 -4.0784 -2.19592 0
M  V30 6944 C 663.989 -5.10205 -2.61684 0
M  V30 6945 N 663.485 -6.22949 -3.03161 0
M  V30 6946 N 665.278 -4.9756 -2.61516 0
M  V30 6947 H 657.429 -2.12395 0.0150493 0
M  V30 6948 H 659.692 -0.946355 -0.0558187 0
M  V30 6949 H 659.398 -3.42605 -0.794654 0
M  V30 6950 H 659.272 -2.86566 -2.45275 0
M  V30 6951 H 661.659 -1.89178 -2.26486 0
M  V30 6952 H 661.74 -2.48655 -0.600374 0
M  V30 6953 H 661.384 -4.86559 -1.4568 0
M  V30 6954 H 661.314 -4.23977 -3.12331 0
M  V30 6955 H 663.805 -3.26452 -1.90361 0
M  V30 6956 H 664.118 -6.96899 -3.33993 0
M  V30 6957 H 662.463 -6.2644 -3.00995 0
M  V30 6958 H 665.654 -4.08551 -2.28481 0
M  V30 6959 H 665.827 -5.77468 -2.93999 0
M  V30 6960 N 659.233 0.902656 -1.29189 0
M  V30 6961 C 660.183 1.99326 -1.10695 0
M  V30 6962 C 661.167 1.60877 -0.0272521 0
M  V30 6963 O 662.359 1.75245 -0.248635 0
M  V30 6964 C 659.488 3.34265 -0.78244 0
M  V30 6965 C 658.574 3.79081 -1.90153 0
M  V30 6966 N 658.965 3.96162 -3.14466 0
M  V30 6967 C 657.263 4.08333 -1.79389 0
M  V30 6968 C 657.964 4.3388 -3.87458 0
M  V30 6969 N 656.94 4.42759 -3.15381 0
M  V30 6970 H 660.742 2.10597 -2.05003 0
M  V30 6971 H 658.256 1.09127 -1.20271 0
M  V30 6972 H 660.253 4.12097 -0.630996 0
M  V30 6973 H 658.913 3.2434 0.152754 0
M  V30 6974 H 659.924 3.81775 -3.49954 0
M  V30 6975 H 656.601 4.06982 -0.931217 0
M  V30 6976 H 657.991 4.54965 -4.94425 0
M  V30 6977 N 660.711 1.11618 1.11262 0
M  V30 6978 C 661.621 0.78898 2.20935 0
M  V30 6979 C 662.637 -0.21867 1.7262 0
M  V30 6980 O 663.813 -0.0543826 2.01327 0
M  V30 6981 C 660.878 0.239014 3.45875 0
M  V30 6982 C 659.939 1.3055 4.08968 0
M  V30 6983 C 659.172 0.781687 5.27944 0
M  V30 6984 O 659.395 -0.387605 5.69082 0
M  V30 6985 O 658.329 1.54734 5.81671 0
M  V30 6986 H 662.155 1.70477 2.51339 0
M  V30 6987 H 659.74 0.892203 1.19834 0
M  V30 6988 H 661.622 -0.0632312 4.21353 0
M  V30 6989 H 660.297 -0.649454 3.17118 0
M  V30 6990 H 659.204 1.66079 3.35214 0
M  V30 6991 H 660.537 2.16743 4.41909 0
M  V30 6992 N 662.189 -1.289 0.906776 0
M  V30 6993 C 663.122 -2.25737 0.334362 0
M  V30 6994 C 664.1 -1.52745 -0.557474 0
M  V30 6995 O 665.284 -1.81673 -0.502697 0
M  V30 6996 C 662.411 -3.34642 -0.522716 0
M  V30 6997 C 661.457 -4.25424 0.302777 0
M  V30 6998 S 662.29 -5.07629 1.70508 0
M  V30 6999 C 663.446 -6.20031 0.855118 0
M  V30 7000 H 663.679 -2.73941 1.15514 0
M  V30 7001 H 661.212 -1.37233 0.707573 0
M  V30 7002 H 663.17 -3.97845 -1.01141 0
M  V30 7003 H 661.831 -2.85119 -1.31781 0
M  V30 7004 H 661.024 -5.02767 -0.352257 0
M  V30 7005 H 660.626 -3.66908 0.724873 0
M  V30 7006 H 662.918 -6.77451 0.0816418 0
M  V30 7007 H 663.861 -6.89767 1.60087 0
M  V30 7008 H 664.269 -5.63035 0.406375 0
M  V30 7009 N 663.667 -0.670007 -1.42649 0
M  V30 7010 C 664.597 -0.00258501 -2.335 0
M  V30 7011 C 665.578 0.794364 -1.50412 0
M  V30 7012 O 666.763 0.75248 -1.79029 0
M  V30 7013 C 663.893 0.952748 -3.33976 0
M  V30 7014 C 662.847 0.264733 -4.2718 0
M  V30 7015 C 662.173 1.33267 -5.17826 0
M  V30 7016 C 663.473 -0.853289 -5.15283 0
M  V30 7017 H 665.167 -0.761326 -2.89559 0
M  V30 7018 H 662.713 -0.367561 -1.3923 0
M  V30 7019 H 664.666 1.4287 -3.96442 0
M  V30 7020 H 663.39 1.74285 -2.7621 0
M  V30 7021 H 662.049 -0.190938 -3.66102 0
M  V30 7022 H 661.697 2.11464 -4.5639 0
M  V30 7023 H 661.397 0.877476 -5.81011 0
M  V30 7024 H 662.921 1.80965 -5.83167 0
M  V30 7025 H 664.335 -0.458763 -5.71462 0
M  V30 7026 H 662.732 -1.23398 -5.87276 0
M  V30 7027 H 663.802 -1.70412 -4.53969 0
M  V30 7028 N 665.145 1.52092 -0.413018 0
M  V30 7029 C 666.108 2.25706 0.398687 0
M  V30 7030 C 667.108 1.28221 0.970368 0
M  V30 7031 O 668.298 1.52131 0.848635 0
M  V30 7032 C 665.43 3.03029 1.5616 0
M  V30 7033 H 666.623 2.98888 -0.246131 0
M  V30 7034 H 664.176 1.5542 -0.165622 0
M  V30 7035 H 664.911 2.34205 2.24317 0
M  V30 7036 H 664.696 3.74606 1.15812 0
M  V30 7037 H 666.186 3.58857 2.13569 0
M  V30 7038 N 666.623 0.143563 1.56945 0
M  V30 7039 C 667.869 -0.50916 1.96304 0
M  V30 7040 C 668.202 -1.64741 1.0283 0
M  V30 7041 O 667.477 -1.94374 0.0700361 0
M  V30 7042 C 667.76 -1.0186 3.45393 0
M  V30 7043 C 667.613 0.117923 4.49645 0
M  V30 7044 C 668.932 -1.90151 3.96901 0
M  V30 7045 H 666.051 -0.183608 0.713763 0
M  V30 7046 H 668.693 0.224095 1.88674 0
M  V30 7047 H 666.843 -1.64345 3.52027 0
M  V30 7048 H 668.515 0.754145 4.55094 0
M  V30 7049 H 666.758 0.777568 4.26774 0
M  V30 7050 H 667.429 -0.280187 5.51288 0
M  V30 7051 H 669.905 -1.375 3.92725 0
M  V30 7052 H 668.781 -2.22707 5.0169 0
M  V30 7053 H 669.042 -2.83718 3.39052 0
M  V30 7054 N 668.101 -1.57061 -0.130224 0
M  V30 7055 C 669.011 -2.02802 -1.17934 0
M  V30 7056 C 670.027 -0.946378 -1.46013 0
M  V30 7057 O 671.203 -1.25708 -1.57351 0
M  V30 7058 C 668.268 -2.41368 -2.48882 0
M  V30 7059 C 667.329 -3.63561 -2.28301 0
M  V30 7060 C 666.562 -4.00279 -3.53005 0
M  V30 7061 O 666.785 -3.37463 -4.59864 0
M  V30 7062 O 665.719 -4.93441 -3.44673 0
M  V30 7063 H 669.545 -2.92394 -0.820958 0
M  V30 7064 H 667.13 -1.45475 -0.340197 0
M  V30 7065 H 669.012 -2.66958 -3.26054 0
M  V30 7066 H 667.687 -1.54926 -2.84217 0
M  V30 7067 H 666.594 -3.43136 -1.49025 0
M  V30 7068 H 667.927 -4.50673 -1.97875 0
M  V30 7069 N 669.579 0.400081 -1.52437 0
M  V30 7070 C 670.99 0.97851 -1.59003 0
M  V30 7071 C 671.341 1.91293 -0.436068 0
M  V30 7072 O 670.466 2.1183 0.442365 0
M  V30 7073 C 671.061 1.78145 -2.88184 0
M  V30 7074 C 669.62 2.30976 -2.97199 0
M  V30 7075 C 668.767 1.11212 -2.54022 0
M  V30 7076 H 671.718 0.180002 -1.57676 0
M  V30 7077 H 671.739 2.63968 -2.74046 0
M  V30 7078 H 671.251 1.1011 -3.72152 0
M  V30 7079 H 669.352 3.02355 -2.17744 0
M  V30 7080 H 669.465 2.61221 -4.01622 0
M  V30 7081 H 667.829 1.46882 -2.08081 0
M  V30 7082 H 668.612 0.447307 -3.40373 0
M  V30 7083 N 671.057 1.43213 0.657864 0
M  V30 7084 C 672.306 1.43871 1.41365 0
M  V30 7085 C 672.619 0.064898 1.95492 0
M  V30 7086 O 673.825 -0.0510796 2.71452 0
M  V30 7087 C 672.281 2.53158 2.55811 0
M  V30 7088 C 671.889 3.96624 2.08311 0
M  V30 7089 C 673.633 2.63004 3.3321 0
M  V30 7090 C 671.54 4.97385 3.1994 0
M  V30 7091 H 670.47 0.535174 0.531136 0
M  V30 7092 H 673.121 1.69185 0.710543 0
M  V30 7093 H 671.503 2.21037 3.2857 0
M  V30 7094 H 672.677 4.38182 1.42593 0
M  V30 7095 H 670.992 3.90781 1.43804 0
M  V30 7096 H 673.589 3.3546 4.16378 0
M  V30 7097 H 673.932 1.67918 3.80932 0
M  V30 7098 H 674.465 2.94403 2.67529 0
M  V30 7099 H 671.204 5.94007 2.77192 0
M  V30 7100 H 670.724 4.60444 3.84385 0
M  V30 7101 H 672.403 5.19877 3.85145 0
M  V30 7102 N 672.536 -0.895792 1.29666 0
M  V30 7103 C 673.484 -2.02173 1.15017 0
M  V30 7104 C 674.478 -1.69276 0.0647651 0
M  V30 7105 O 675.684 -1.7859 0.224846 0
M  V30 7106 H 672.059 -0.662719 0.355397 0
M  V30 7107 H 674.03 -2.11666 2.10334 0
M  V30 7108 C 672.779 -3.37212 0.847555 0
M  V30 7109 H 672.102 -3.6303 1.67479 0
M  V30 7110 H 673.542 -4.16668 0.785106 0
M  V30 7111 C 672.001 -3.33891 -0.44929 0
M  V30 7112 O 672.531 -3.73673 -1.47415 0
M  V30 7113 N 670.737 -2.86991 -0.456547 0
M  V30 7114 H 670.284 -2.54813 0.377925 0
M  V30 7115 H 670.242 -2.85152 -1.32423 0
M  V30 7116 N 674.014 -1.12206 -1.10668 0
M  V30 7117 C 674.924 -0.800686 -2.20513 0
M  V30 7118 C 675.94 0.209512 -1.72734 0
M  V30 7119 O 677.116 0.043705 -2.01353 0
M  V30 7120 C 674.181 -0.257353 -3.45744 0
M  V30 7121 C 673.242 -1.32718 -4.0827 0
M  V30 7122 C 672.475 -0.809674 -5.27522 0
M  V30 7123 O 672.698 0.35742 -5.69279 0
M  V30 7124 O 671.632 -1.57816 -5.80842 0
M  V30 7125 H 675.458 -1.71807 -2.50432 0
M  V30 7126 H 673.043 -0.898546 -1.19359 0
M  V30 7127 H 674.925 0.0408849 -4.2138 0
M  V30 7128 H 673.6 0.632627 -3.17458 0
M  V30 7129 H 672.507 -1.67855 -3.34329 0
M  V30 7130 H 673.84 -2.19083 -4.40753 0
M  V30 7131 N 675.492 1.28418 -0.913599 0
M  V30 7132 C 676.422 2.29713 -0.418847 0
M  V30 7133 C 677.403 1.62165 0.513469 0
M  V30 7134 O 678.588 1.89576 0.421235 0
M  V30 7135 C 675.718 3.45612 0.342042 0
M  V30 7136 C 674.672 4.25056 -0.501123 0
M  V30 7137 C 673.998 5.3329 0.388097 0
M  V30 7138 C 675.298 4.91814 -1.75831 0
M  V30 7139 H 676.992 2.71346 -1.26538 0
M  V30 7140 H 674.538 1.30446 -0.609903 0
M  V30 7141 H 676.491 4.15562 0.699 0
M  V30 7142 H 675.215 3.02858 1.22248 0
M  V30 7143 H 673.874 3.56833 -0.840598 0
M  V30 7144 H 673.522 4.8678 1.26707 0
M  V30 7145 H 673.222 5.87347 -0.172459 0
M  V30 7146 H 674.746 6.06088 0.74094 0
M  V30 7147 H 676.16 5.54126 -1.47026 0
M  V30 7148 H 674.557 5.55866 -2.26126 0
M  V30 7149 H 675.627 4.16313 -2.4862 0
M  V30 7150 N 676.97 0.677563 1.42291 0
M  V30 7151 C 677.9 0.014968 2.33495 0
M  V30 7152 C 678.881 -0.786376 1.50831 0
M  V30 7153 O 680.066 -0.742975 1.79426 0
M  V30 7154 C 677.196 -0.935023 3.34477 0
M  V30 7155 C 676.15 -0.242074 4.27315 0
M  V30 7156 C 675.476 -1.30519 5.18526 0
M  V30 7157 C 676.776 0.880604 5.14823 0
M  V30 7158 H 678.47 0.776671 2.89151 0
M  V30 7159 H 676.016 0.37494 1.39033 0
M  V30 7160 H 677.969 -1.40766 3.97194 0
M  V30 7161 H 676.693 -1.72818 2.77131 0
M  V30 7162 H 675.352 0.210351 3.65996 0
M  V30 7163 H 675 -2.09041 4.57505 0
M  V30 7164 H 674.7 -0.846652 5.81468 0
M  V30 7165 H 676.224 -1.7787 5.84119 0
M  V30 7166 H 677.638 0.489062 5.7121 0
M  V30 7167 H 676.035 1.26511 5.86613 0
M  V30 7168 H 677.105 1.72818 4.53059 0
M  V30 7169 N 678.448 -1.51871 0.421078 0
M  V30 7170 C 679.864 -1.59435 0.0725398 0
M  V30 7171 C 680.064 -1.43315 -1.41644 0
M  V30 7172 O 679.12 -1.26614 -2.18461 0
M  V30 7173 C 680.433 -2.9509 0.578132 0
M  V30 7174 C 681.981 -3.08356 0.537149 0
M  V30 7175 C 682.456 -4.4651 1.01945 0
M  V30 7176 N 683.947 -4.52784 0.976758 0
M  V30 7177 C 684.682 -5.57976 1.32099 0
M  V30 7178 N 684.178 -6.70664 1.73727 0
M  V30 7179 N 685.971 -5.48248 1.2402 0
M  V30 7180 H 678.122 -1.60595 1.39007 0
M  V30 7181 H 680.385 -0.756138 0.571803 0
M  V30 7182 H 680.091 -3.12205 1.61929 0
M  V30 7183 H 679.965 -3.772 -0.00578374 0
M  V30 7184 H 682.352 -2.90919 -0.494991 0
M  V30 7185 H 682.433 -2.28125 1.15727 0
M  V30 7186 H 682.077 -4.64692 2.04997 0
M  V30 7187 H 682.007 -5.25256 0.376023 0
M  V30 7188 H 684.498 -3.71898 0.670851 0
M  V30 7189 H 684.811 -7.46932 1.98274 0
M  V30 7190 H 683.156 -6.71914 1.77641 0
M  V30 7191 H 686.347 -4.59095 0.913756 0
M  V30 7192 H 686.52 -6.30119 1.51176 0
M  V30 7193 N 679.926 -0.151884 -1.56866 0
M  V30 7194 C 681.203 0.543328 -1.87902 0
M  V30 7195 C 681.583 1.82636 -1.05864 0
M  V30 7196 O 680.931 2.28028 -0.146868 0
M  V30 7197 C 681.141 0.804056 -3.39611 0
M  V30 7198 C 682.489 1.14267 -4.08935 0
M  V30 7199 O 683.513 0.893248 -3.44818 0
M  V30 7200 O 682.372 1.61229 -5.22176 0
M  V30 7201 H 679.466 0.277724 -0.778973 0
M  V30 7202 H 682.012 -0.188862 -1.68646 0
M  V30 7203 H 680.784 -0.103772 -3.91162 0
M  V30 7204 H 680.407 1.59025 -3.64413 0
M  V30 7205 N 681.404 1.57128 0.121893 0
M  V30 7206 C 682.351 2.0013 1.14964 0
M  V30 7207 C 683.321 0.872959 1.4131 0
M  V30 7208 O 684.506 1.13696 1.53225 0
M  V30 7209 C 681.646 2.40824 2.4718 0
M  V30 7210 C 680.759 3.67061 2.27794 0
M  V30 7211 C 679.894 3.96749 3.53219 0
M  V30 7212 C 678.933 5.16178 3.28978 0
M  V30 7213 N 678.07 5.41751 4.46599 0
M  V30 7214 H 682.91 2.8772 0.775947 0
M  V30 7215 H 680.447 1.42328 0.371652 0
M  V30 7216 H 682.405 2.62454 3.24305 0
M  V30 7217 H 681.035 1.56279 2.82448 0
M  V30 7218 H 680.087 3.53063 1.416 0
M  V30 7219 H 681.399 4.5434 2.05857 0
M  V30 7220 H 680.553 4.19012 4.38764 0
M  V30 7221 H 679.292 3.07941 3.78185 0
M  V30 7222 H 678.297 4.93762 2.41824 0
M  V30 7223 H 679.522 6.06561 3.05386 0
M  V30 7224 H 677.468 4.55899 4.71691 0
M  V30 7225 H 677.385 6.23347 4.27756 0
M  V30 7226 H 678.653 5.68531 5.33285 0
M  V30 7227 N 682.882 -0.391992 1.52647 0
M  V30 7228 C 684.128 -1.13563 1.68745 0
M  V30 7229 C 684.483 -1.87745 0.420685 0
M  V30 7230 O 683.776 -1.82434 -0.585529 0
M  V30 7231 C 683.97 -2.14401 2.85949 0
M  V30 7232 C 683.799 -1.50124 4.23902 0
M  V30 7233 C 682.569 -1.2666 4.89168 0
M  V30 7234 C 684.767 -0.952933 5.05395 0
M  V30 7235 N 682.749 -0.584555 6.11111 0
M  V30 7236 C 684.12 -0.398784 6.18716 0
M  V30 7237 C 686.175 -0.849053 4.90607 0
M  V30 7238 C 684.878 0.249084 7.18869 0
M  V30 7239 C 686.904 -0.215011 5.91009 0
M  V30 7240 C 686.266 0.328382 7.03634 0
M  V30 7241 H 682.365 -0.401628 0.670984 0
M  V30 7242 H 684.949 -0.425585 1.89992 0
M  V30 7243 H 683.12 -2.82746 2.66288 0
M  V30 7244 H 684.852 -2.8125 2.90999 0
M  V30 7245 H 681.607 -1.54078 4.47836 0
M  V30 7246 H 682.031 -0.259663 6.76502 0
M  V30 7247 H 686.673 -1.25497 4.03745 0
M  V30 7248 H 684.391 0.667019 8.05342 0
M  V30 7249 H 687.977 -0.135921 5.81641 0
M  V30 7250 H 686.857 0.811257 7.79992 0
M  V30 7251 N 684.36 -1.4356 -0.65026 0
M  V30 7252 C 685.776 -1.27025 -0.966269 0
M  V30 7253 C 685.976 -0.192117 -2.00582 0
M  V30 7254 O 685.032 0.428459 -2.48838 0
M  V30 7255 C 686.345 -2.63556 -1.44772 0
M  V30 7256 C 687.893 -2.71111 -1.56421 0
M  V30 7257 C 688.368 -4.08067 -2.07956 0
M  V30 7258 N 689.859 -4.10146 -2.15254 0
M  V30 7259 C 690.594 -5.12952 -2.56258 0
M  V30 7260 N 690.09 -6.26129 -2.96537 0
M  V30 7261 N 691.883 -5.00306 -2.56224 0
M  V30 7262 H 684.034 -2.12367 0.0375758 0
M  V30 7263 H 686.297 -0.946894 -0.0457782 0
M  V30 7264 H 686.003 -3.43429 -0.758271 0
M  V30 7265 H 685.877 -2.89152 -2.42221 0
M  V30 7266 H 688.264 -1.91569 -2.24467 0
M  V30 7267 H 688.345 -2.49277 -0.573967 0
M  V30 7268 H 687.989 -4.88077 -1.40511 0
M  V30 7269 H 687.919 -4.27266 -3.07817 0
M  V30 7270 H 690.41 -3.28453 -1.86887 0
M  V30 7271 H 690.723 -7.00403 -3.26582 0
M  V30 7272 H 689.068 -6.29597 -2.94334 0
M  V30 7273 H 692.259 -4.10952 -2.24135 0
M  V30 7274 H 692.432 -5.80553 -2.87857 0
M  V30 7275 N 685.838 0.888903 -1.30139 0
M  V30 7276 C 686.785 1.99422 -1.16188 0
M  V30 7277 C 687.755 1.66017 -0.0523869 0
M  V30 7278 O 688.94 1.89506 -0.221864 0
M  V30 7279 C 686.08 3.34325 -0.855612 0
M  V30 7280 C 685.193 3.80445 -2.0466 0
M  V30 7281 C 684.328 5.03975 -1.67876 0
M  V30 7282 C 683.367 5.42492 -2.83493 0
M  V30 7283 N 682.504 6.57206 -2.47032 0
M  V30 7284 H 687.344 2.10687 -2.10749 0
M  V30 7285 H 684.881 1.03165 -1.04859 0
M  V30 7286 H 686.839 4.11968 -0.658681 0
M  V30 7287 H 685.469 3.22756 0.0531155 0
M  V30 7288 H 684.521 2.98745 -2.3549 0
M  V30 7289 H 685.833 4.04933 -2.91257 0
M  V30 7290 H 684.987 5.89232 -1.44535 0
M  V30 7291 H 683.726 4.8135 -0.784431 0
M  V30 7292 H 682.731 4.55764 -3.07505 0
M  V30 7293 H 683.956 5.67093 -3.73607 0
M  V30 7294 H 681.902 6.36164 -1.601 0
M  V30 7295 H 681.819 6.81543 -3.27161 0
M  V30 7296 H 683.087 7.45704 -2.27038 0
M  V30 7297 N 687.317 1.12792 1.10072 0
M  V30 7298 C 688.564 0.885545 1.82111 0
M  V30 7299 C 688.892 -0.588519 1.85383 0
M  V30 7300 O 688.147 -1.45124 1.31292 0
M  V30 7301 C 688.446 1.4102 3.28403 0
M  V30 7302 C 688.112 2.89995 3.45273 0
M  V30 7303 C 686.774 3.30671 3.49585 0
M  V30 7304 C 689.126 3.85874 3.50358 0
M  V30 7305 C 686.454 4.65925 3.56553 0
M  V30 7306 C 688.806 5.20963 3.58859 0
M  V30 7307 C 687.47 5.61177 3.61437 0
M  V30 7308 H 686.74 0.324044 0.666391 0
M  V30 7309 H 689.387 1.40874 1.29718 0
M  V30 7310 H 687.692 0.807551 3.83387 0
M  V30 7311 H 689.389 1.19882 3.82661 0
M  V30 7312 H 685.979 2.57537 3.42597 0
M  V30 7313 H 690.163 3.5554 3.46273 0
M  V30 7314 H 685.419 4.96468 3.56833 0
M  V30 7315 H 689.593 5.95079 3.61738 0
M  V30 7316 H 687.22 6.6597 3.66589 0
M  V30 7317 N 688.795 -1.27931 0.920396 0
M  V30 7318 C 690.043 -1.94304 0.555906 0
M  V30 7319 C 690.364 -1.72753 -0.904519 0
M  V30 7320 O 689.634 -1.07104 -1.64029 0
M  V30 7321 H 688.214 -0.719001 0.202599 0
M  V30 7322 H 690.876 -1.55785 1.1712 0
M  V30 7323 H 689.972 -3.02806 0.755981 0
M  V30 7324 N 690.273 -0.685099 -1.4193 0
M  V30 7325 C 691.236 -0.0222632 -2.29189 0
M  V30 7326 C 692.236 0.7186 -1.4385 0
M  V30 7327 O 693.426 0.555058 -1.6512 0
M  V30 7328 C 690.558 0.979013 -3.2654 0
M  V30 7329 H 691.751 -0.790424 -2.89296 0
M  V30 7330 H 689.304 -0.448012 -1.49742 0
M  V30 7331 H 690.039 1.77531 -2.71392 0
M  V30 7332 H 689.824 0.451037 -3.89497 0
M  V30 7333 H 691.314 1.44091 -3.91954 0
M  V30 7334 N 691.751 1.51645 -0.429126 0
M  V30 7335 C 692.997 2.02314 0.140286 0
M  V30 7336 C 693.33 1.31314 1.43074 0
M  V30 7337 O 692.605 0.425531 1.89788 0
M  V30 7338 C 692.888 3.5822 0.36749 0
M  V30 7339 C 692.741 4.39846 -0.941039 0
M  V30 7340 C 694.06 4.25055 1.14089 0
M  V30 7341 H 691.179 0.735335 0.0495112 0
M  V30 7342 H 693.821 1.81358 -0.566514 0
M  V30 7343 H 691.971 3.76207 0.969556 0
M  V30 7344 H 693.643 4.33527 -1.57646 0
M  V30 7345 H 691.886 4.05259 -1.54751 0
M  V30 7346 H 692.557 5.47069 -0.73621 0
M  V30 7347 H 695.033 4.11288 0.630986 0
M  V30 7348 H 693.909 5.34038 1.26863 0
M  V30 7349 H 694.17 3.85358 2.16683 0
M  V30 7350 N 693.229 0.160201 1.56784 0
M  V30 7351 C 694.454 -0.497373 2.01348 0
M  V30 7352 C 694.879 -1.56757 1.03966 0
M  V30 7353 O 694.237 -1.81292 0.0174455 0
M  V30 7354 C 694.285 -1.0628 3.44582 0
M  V30 7355 O 693.389 -2.17723 3.50244 0
M  V30 7356 H 692.73 -0.120295 0.653012 0
M  V30 7357 H 695.26 0.260821 2.02931 0
M  V30 7358 H 695.27 -1.38819 3.83658 0
M  V30 7359 H 693.945 -0.279166 4.14962 0
M  V30 7360 H 692.522 -1.86313 3.2302 0
M  V30 7361 N 694.707 -1.5719 -0.113559 0
M  V30 7362 C 695.954 -1.85138 -0.820382 0
M  V30 7363 C 696.282 -0.74608 -1.79622 0
M  V30 7364 O 695.537 0.262077 -1.93937 0
M  V30 7365 C 695.836 -3.19593 -1.59984 0
M  V30 7366 C 695.502 -4.44315 -0.767809 0
M  V30 7367 C 694.164 -4.78179 -0.538379 0
M  V30 7368 C 696.516 -5.2086 -0.188203 0
M  V30 7369 C 693.844 -5.86028 0.28082 0
M  V30 7370 C 696.196 -6.29572 0.618217 0
M  V30 7371 C 694.86 -6.61964 0.857912 0
M  V30 7372 H 694.13 -0.677467 -0.300199 0
M  V30 7373 H 696.777 -1.91322 -0.0825443 0
M  V30 7374 H 695.082 -3.0901 -2.40874 0
M  V30 7375 H 696.779 -3.3844 -2.1508 0
M  V30 7376 H 693.369 -4.17786 -0.956724 0
M  V30 7377 H 697.553 -4.95045 -0.352658 0
M  V30 7378 H 692.809 -6.09547 0.475693 0
M  V30 7379 H 696.983 -6.88064 1.0743 0
M  V30 7380 H 694.61 -7.45365 1.49451 0
M  V30 7381 N 696.185 0.383891 -1.52853 0
M  V30 7382 C 697.415 1.14783 -1.7178 0
M  V30 7383 C 697.823 1.84055 -0.438211 0
M  V30 7384 O 697.166 1.73713 0.597465 0
M  V30 7385 C 697.228 2.23543 -2.81547 0
M  V30 7386 C 696.892 1.74195 -4.22499 0
M  V30 7387 C 697.889 1.21591 -5.05481 0
M  V30 7388 C 695.574 1.80262 -4.6884 0
M  V30 7389 C 697.568 0.757104 -6.32888 0
M  V30 7390 C 695.255 1.33993 -5.96229 0
M  V30 7391 C 696.253 0.818049 -6.78083 0
M  V30 7392 O 695.941 0.362123 -8.03084 0
M  V30 7393 H 695.673 0.349908 -0.578395 0
M  V30 7394 H 698.227 0.454377 -2.00311 0
M  V30 7395 H 696.457 2.96328 -2.48449 0
M  V30 7396 H 698.146 2.8519 -2.88828 0
M  V30 7397 H 698.912 1.16257 -4.7086 0
M  V30 7398 H 694.791 2.19825 -4.05213 0
M  V30 7399 H 698.335 0.34908 -6.96726 0
M  V30 7400 H 694.232 1.39015 -6.30353 0
M  V30 7401 H 695 0.483134 -8.17073 0
M  V30 7402 N 697.663 1.43903 0.642637 0
M  V30 7403 C 698.912 1.45362 1.39831 0
M  V30 7404 C 699.225 0.0856289 1.95412 0
M  V30 7405 O 700.431 -0.0222856 2.71491 0
M  V30 7406 C 698.887 2.55857 2.53111 0
M  V30 7407 C 698.495 3.98811 2.04092 0
M  V30 7408 C 700.239 2.66524 3.30402 0
M  V30 7409 C 698.146 5.00751 3.14647 0
M  V30 7410 H 697.076 0.540777 0.52543 0
M  V30 7411 H 699.727 1.69929 0.692559 0
M  V30 7412 H 698.109 2.2451 3.26207 0
M  V30 7413 H 699.283 4.3967 1.37938 0
M  V30 7414 H 697.598 3.92284 1.39651 0
M  V30 7415 H 700.195 3.39858 4.12796 0
M  V30 7416 H 700.538 1.71949 3.79129 0
M  V30 7417 H 701.071 2.97224 2.64392 0
M  V30 7418 H 697.81 5.96914 2.70876 0
M  V30 7419 H 697.33 4.64495 3.79479 0
M  V30 7420 H 699.009 5.23933 3.79609 0
M  V30 7421 N 699.141 -0.881989 1.30609 0
M  V30 7422 C 700.089 -2.00942 1.17155 0
M  V30 7423 C 701.083 -1.69198 0.0827154 0
M  V30 7424 O 702.289 -1.78342 0.243775 0
M  V30 7425 H 698.664 -0.658913 0.362406 0
M  V30 7426 H 700.635 -2.09423 2.12567 0
M  V30 7427 C 699.384 -3.36294 0.883273 0
M  V30 7428 H 698.707 -3.61233 1.7132 0
M  V30 7429 H 700.147 -4.15812 0.829255 0
M  V30 7430 C 698.606 -3.34348 -0.413851 0
M  V30 7431 O 699.136 -3.75216 -1.43444 0
M  V30 7432 N 697.342 -2.87459 -0.426082 0
M  V30 7433 H 696.889 -2.54397 0.40493 0
M  V30 7434 H 696.847 -2.8654 -1.29391 0
M  V30 7435 N 700.619 -1.13374 -1.09472 0
M  V30 7436 C 701.865 -0.896516 -1.81908 0
M  V30 7437 C 702.198 0.575933 -1.85463 0
M  V30 7438 O 701.473 1.42618 -1.32251 0
M  V30 7439 C 701.756 -1.48445 -3.28079 0
M  V30 7440 C 701.609 -3.02598 -3.32798 0
M  V30 7441 C 702.928 -1.15226 -4.24748 0
M  V30 7442 H 700.047 -0.327127 -0.660422 0
M  V30 7443 H 702.689 -1.40195 -1.2824 0
M  V30 7444 H 700.839 -1.0546 -3.73912 0
M  V30 7445 H 702.511 -3.54335 -2.95372 0
M  V30 7446 H 700.754 -3.37613 -2.72397 0
M  V30 7447 H 701.425 -3.38835 -4.3577 0
M  V30 7448 H 703.901 -1.52369 -3.87199 0
M  V30 7449 H 702.777 -1.59012 -5.25363 0
M  V30 7450 H 703.038 -0.0658891 -4.42051 0
M  V30 7451 N 702.098 1.27442 -0.927168 0
M  V30 7452 C 703.344 1.94679 -0.568164 0
M  V30 7453 C 703.677 1.72697 0.888219 0
M  V30 7454 O 702.952 1.05573 1.63354 0
M  V30 7455 C 703.235 3.4882 -0.894253 0
M  V30 7456 C 703.088 3.80146 -2.40435 0
M  V30 7457 C 704.407 4.38281 -0.399766 0
M  V30 7458 H 701.526 0.707071 -0.207892 0
M  V30 7459 H 704.168 1.50568 -1.15885 0
M  V30 7460 H 702.318 3.86522 -0.391566 0
M  V30 7461 H 703.99 3.52238 -2.97869 0
M  V30 7462 H 702.233 3.26716 -2.85375 0
M  V30 7463 H 702.904 4.87835 -2.58304 0
M  V30 7464 H 705.38 4.07726 -0.83058 0
M  V30 7465 H 704.256 5.44955 -0.656885 0
M  V30 7466 H 704.517 4.36521 0.700153 0
M  V30 7467 N 703.576 0.692616 1.41565 0
M  V30 7468 C 704.801 0.229776 2.06123 0
M  V30 7469 C 705.226 -1.11119 1.5177 0
M  V30 7470 O 704.584 -1.69498 0.643444 0
M  V30 7471 C 704.632 0.19469 3.60074 0
M  V30 7472 O 703.736 -0.831366 4.03933 0
M  V30 7473 H 703.077 0.113002 0.654314 0
M  V30 7474 H 705.607 0.946645 1.81383 0
M  V30 7475 H 705.617 0.0245487 4.07993 0
M  V30 7476 H 704.292 1.17339 3.99004 0
M  V30 7477 H 702.869 -0.630819 3.67526 0
M  V30 7478 N 705.054 -1.51416 0.437162 0
M  V30 7479 C 706.284 -2.06204 -0.127859 0
M  V30 7480 C 706.692 -1.30463 -1.37026 0
M  V30 7481 O 706.035 -0.357516 -1.80187 0
M  V30 7482 C 706.097 -3.55783 -0.515632 0
M  V30 7483 C 705.761 -4.52776 0.619937 0
M  V30 7484 C 706.758 -4.98031 1.49201 0
M  V30 7485 C 704.443 -4.95878 0.800618 0
M  V30 7486 C 706.437 -5.85061 2.52947 0
M  V30 7487 C 704.124 -5.82699 1.84135 0
M  V30 7488 C 705.122 -6.27188 2.70416 0
M  V30 7489 O 704.81 -7.12284 3.72702 0
M  V30 7490 H 704.542 -0.675903 -0.011442 0
M  V30 7491 H 707.096 -1.95977 0.614986 0
M  V30 7492 H 705.326 -3.63793 -1.31118 0
M  V30 7493 H 707.015 -3.93087 -1.01179 0
M  V30 7494 H 707.781 -4.65426 1.36395 0
M  V30 7495 H 703.66 -4.60792 0.138617 0
M  V30 7496 H 707.204 -6.19708 3.20325 0
M  V30 7497 H 703.101 -6.14717 1.9696 0
M  V30 7498 H 703.869 -7.30462 3.69281 0
M  V30 7499 N 706.532 -0.168513 -1.56696 0
M  V30 7500 C 707.462 0.758563 -2.20835 0
M  V30 7501 C 708.443 1.24121 -1.1631 0
M  V30 7502 O 709.628 1.29487 -1.4473 0
M  V30 7503 C 706.758 1.9892 -2.8469 0
M  V30 7504 C 705.712 1.64252 -3.95228 0
M  V30 7505 C 705.038 2.94757 -4.46119 0
M  V30 7506 C 706.338 0.872675 -5.14958 0
M  V30 7507 H 708.032 0.223953 -2.98561 0
M  V30 7508 H 705.578 0.106277 -1.43607 0
M  V30 7509 H 707.531 2.64275 -3.28233 0
M  V30 7510 H 706.255 2.5479 -2.04327 0
M  V30 7511 H 704.914 1.01266 -3.52336 0
M  V30 7512 H 704.562 3.48662 -3.62552 0
M  V30 7513 H 704.262 2.72316 -5.2069 0
M  V30 7514 H 705.786 3.61147 -4.92347 0
M  V30 7515 H 707.2 1.42875 -5.55211 0
M  V30 7516 H 705.597 0.747402 -5.95428 0
M  V30 7517 H 706.667 -0.131535 -4.84722 0
M  V30 7518 N 708.01 1.57248 0.105221 0
M  V30 7519 C 709.25 1.87393 0.816283 0
M  V30 7520 C 709.614 0.758249 1.76393 0
M  V30 7521 O 710.815 0.941835 2.5176 0
M  V30 7522 C 709.086 3.22775 1.53463 0
M  V30 7523 S 710.645 3.74588 2.28537 0
M  V30 7524 H 707.463 0.656847 0.272164 0
M  V30 7525 H 710.065 1.9536 0.073909 0
M  V30 7526 H 708.769 4.01905 0.830674 0
M  V30 7527 H 708.3 3.17921 2.3171 0
M  V30 7528 H 710.315 3.47193 3.54502 0
M  V30 7529 N 709.488 -0.375779 1.53054 0
M  V30 7530 C 710.451 -1.44254 1.7811 0
M  V30 7531 C 711.451 -1.47018 0.651328 0
M  V30 7532 O 712.641 -1.47957 0.919472 0
M  V30 7533 C 709.773 -2.8345 1.89391 0
M  V30 7534 H 710.966 -1.23316 2.73374 0
M  V30 7535 H 708.519 -0.608312 1.43977 0
M  V30 7536 H 709.254 -3.09716 0.961589 0
M  V30 7537 H 709.039 -2.82844 2.71555 0
M  V30 7538 H 710.529 -3.60722 2.10404 0
M  V30 7539 N 710.966 -1.44241 -0.634997 0
M  V30 7540 C 711.899 -1.45274 -1.75985 0
M  V30 7541 C 712.877 -0.312025 -1.59578 0
M  V30 7542 O 714.061 -0.508409 -1.81514 0
M  V30 7543 C 711.188 -1.28173 -3.13511 0
M  V30 7544 C 710.234 -2.45757 -3.48576 0
M  V30 7545 S 711.067 -4.08293 -3.46492 0
M  V30 7546 C 712.223 -3.93608 -4.86645 0
M  V30 7547 H 712.456 -2.40454 -1.74841 0
M  V30 7548 H 709.989 -1.31492 -0.809268 0
M  V30 7549 H 711.947 -1.18993 -3.92875 0
M  V30 7550 H 710.608 -0.34511 -3.12198 0
M  V30 7551 H 709.801 -2.29644 -4.48642 0
M  V30 7552 H 709.403 -2.51657 -2.76667 0
M  V30 7553 H 711.695 -3.57059 -5.75774 0
M  V30 7554 H 712.638 -4.9349 -5.07813 0
M  V30 7555 H 713.046 -3.25737 -4.61038 0
M  V30 7556 N 712.444 0.87505 -1.31075 0
M  V30 7557 C 713.69 1.63009 -1.20647 0
M  V30 7558 C 714.023 1.9276 0.236045 0
M  V30 7559 O 713.298 1.55559 1.16754 0
M  V30 7560 C 713.581 2.96357 -2.0456 0
M  V30 7561 C 713.434 2.73516 -3.57084 0
M  V30 7562 C 714.753 3.974 -1.89107 0
M  V30 7563 H 711.872 0.591518 -0.439631 0
M  V30 7564 H 714.514 1.0119 -1.60812 0
M  V30 7565 H 712.664 3.49119 -1.70435 0
M  V30 7566 H 714.336 2.27465 -4.01319 0
M  V30 7567 H 712.579 2.0784 -3.80769 0
M  V30 7568 H 713.25 3.68377 -4.11099 0
M  V30 7569 H 715.726 3.5383 -2.18961 0
M  V30 7570 H 714.602 4.88596 -2.5013 0
M  V30 7571 H 714.863 4.33794 -0.85296 0
M  V30 7572 N 713.922 1.13953 1.08869 0
M  V30 7573 C 715.171 0.899431 1.80536 0
M  V30 7574 C 715.484 -0.575781 1.86933 0
M  V30 7575 O 716.69 -0.932988 2.54966 0
M  V30 7576 C 715.146 1.55963 3.24351 0
M  V30 7577 C 714.754 3.07077 3.26202 0
M  V30 7578 C 716.498 1.40046 4.00733 0
M  V30 7579 C 714.405 3.65955 4.64576 0
M  V30 7580 H 713.335 0.332849 0.676556 0
M  V30 7581 H 715.986 1.3679 1.22314 0
M  V30 7582 H 714.368 1.01883 3.82669 0
M  V30 7583 H 715.542 3.67785 2.77617 0
M  V30 7584 H 713.857 3.22576 2.63312 0
M  V30 7585 H 716.454 1.81441 5.02974 0
M  V30 7586 H 716.797 0.345993 4.1486 0
M  V30 7587 H 717.33 1.91137 3.48872 0
M  V30 7588 H 714.069 4.71234 4.55652 0
M  V30 7589 H 713.589 3.10027 5.13462 0
M  V30 7590 H 715.268 3.65968 5.33551 0
M  V30 7591 N 715.4 -1.26948 0.933913 0
M  V30 7592 C 716.647 -1.94087 0.577625 0
M  V30 7593 C 716.975 -1.73345 -0.88214 0
M  V30 7594 O 716.23 -1.05945 -1.64542 0
M  V30 7595 C 716.529 -3.46963 0.857406 0
M  V30 7596 C 716.195 -3.87834 2.2999 0
M  V30 7597 C 714.857 -3.98704 2.69423 0
M  V30 7598 C 717.209 -4.08442 3.23766 0
M  V30 7599 C 714.537 -4.27573 4.01744 0
M  V30 7600 C 716.889 -4.38798 4.55675 0
M  V30 7601 C 715.553 -4.47881 4.94934 0
M  V30 7602 H 714.823 -0.710215 0.211368 0
M  V30 7603 H 717.47 -1.50899 1.17905 0
M  V30 7604 H 715.775 -3.91416 0.173369 0
M  V30 7605 H 717.472 -3.97062 0.560615 0
M  V30 7606 H 714.062 -3.79916 1.98399 0
M  V30 7607 H 718.246 -3.99479 2.94499 0
M  V30 7608 H 713.502 -4.32815 4.31834 0
M  V30 7609 H 717.676 -4.5369 5.28335 0
M  V30 7610 H 715.303 -4.70005 5.97495 0
M  V30 7611 N 716.879 -0.700114 -1.41195 0
M  V30 7612 C 718.107 -0.242179 -2.05478 0
M  V30 7613 C 718.522 1.11029 -1.52702 0
M  V30 7614 O 717.879 1.69473 -0.677127 0
M  V30 7615 C 717.93 -0.196271 -3.60967 0
M  V30 7616 O 717.651 -1.49532 -4.11791 0
M  V30 7617 C 719.152 0.282102 -4.42401 0
M  V30 7618 H 716.372 -0.111749 -0.661629 0
M  V30 7619 H 718.916 -0.953975 -1.80885 0
M  V30 7620 H 717.071 0.46638 -3.84582 0
M  V30 7621 H 717.485 -1.38545 -5.05871 0
M  V30 7622 H 718.959 0.263093 -5.51373 0
M  V30 7623 H 719.436 1.32174 -4.1884 0
M  V30 7624 H 720.042 -0.349712 -4.2386 0
M  V30 7625 N 718.357 1.51182 -0.445186 0
M  V30 7626 C 719.287 2.30821 0.352686 0
M  V30 7627 C 720.268 1.36576 1.01395 0
M  V30 7628 O 721.453 1.65497 1.01609 0
M  V30 7629 C 718.583 3.15593 1.44976 0
M  V30 7630 C 717.537 4.1818 0.911553 0
M  V30 7631 C 716.863 4.91523 2.10497 0
M  V30 7632 C 718.163 5.22266 -0.059418 0
M  V30 7633 H 719.857 2.97771 -0.311936 0
M  V30 7634 H 717.403 1.43201 -0.151461 0
M  V30 7635 H 719.356 3.70091 2.01521 0
M  V30 7636 H 718.08 2.4648 2.14278 0
M  V30 7637 H 716.739 3.64746 0.368264 0
M  V30 7638 H 716.387 4.18906 2.78437 0
M  V30 7639 H 716.087 5.60898 1.7512 0
M  V30 7640 H 717.611 5.48847 2.6758 0
M  V30 7641 H 719.025 5.71789 0.415985 0
M  V30 7642 H 717.422 5.99213 -0.326152 0
M  V30 7643 H 718.492 4.7461 -0.993631 0
M  V30 7644 N 719.835 0.176821 1.56605 0
M  V30 7645 C 721.063 -0.472828 2.01425 0
M  V30 7646 C 721.478 -1.56436 1.05703 0
M  V30 7647 O 720.835 -1.82405 0.058808 0
M  V30 7648 C 720.886 -1.04607 3.46034 0
M  V30 7649 O 720.607 0.00189608 4.381 0
M  V30 7650 C 722.108 -1.7734 4.06282 0
M  V30 7651 H 719.328 -0.120503 0.660091 0
M  V30 7652 H 721.872 0.280166 2.02572 0
M  V30 7653 H 720.027 -1.74953 3.45645 0
M  V30 7654 H 720.441 -0.422118 5.22799 0
M  V30 7655 H 721.915 -2.12703 5.09374 0
M  V30 7656 H 722.392 -2.67043 3.4869 0
M  V30 7657 H 722.998 -1.11623 4.10391 0
M  V30 7658 N 721.313 -1.57302 -0.09688 0
M  V30 7659 C 722.276 -2.00976 -1.10188 0
M  V30 7660 C 723.276 -0.903009 -1.3305 0
M  V30 7661 O 724.466 -1.16853 -1.29194 0
M  V30 7662 C 721.598 -2.36893 -2.45142 0
M  V30 7663 H 722.791 -2.9098 -0.726003 0
M  V30 7664 H 720.344 -1.52515 -0.341872 0
M  V30 7665 H 721.079 -1.49837 -2.8761 0
M  V30 7666 H 720.864 -3.17632 -2.29897 0
M  V30 7667 H 722.354 -2.71345 -3.1743 0
M  V30 7668 N 722.791 0.367657 -1.53252 0
M  V30 7669 C 724.021 1.12955 -1.72988 0
M  V30 7670 C 724.429 1.8358 -0.457708 0
M  V30 7671 O 723.772 1.74336 0.579006 0
M  V30 7672 C 723.834 2.20545 -2.83902 0
M  V30 7673 C 723.498 1.69704 -4.24323 0
M  V30 7674 C 724.495 1.16223 -5.06743 0
M  V30 7675 C 722.18 1.7528 -4.70725 0
M  V30 7676 C 724.174 0.689935 -6.33655 0
M  V30 7677 C 721.861 1.27662 -5.97617 0
M  V30 7678 C 722.859 0.746083 -6.78913 0
M  V30 7679 O 722.547 0.276925 -8.03423 0
M  V30 7680 H 722.279 0.343753 -0.582074 0
M  V30 7681 H 724.833 0.433106 -2.00782 0
M  V30 7682 H 723.063 2.93676 -2.51577 0
M  V30 7683 H 724.752 2.82111 -2.91836 0
M  V30 7684 H 725.518 1.11256 -4.72067 0
M  V30 7685 H 721.397 2.15515 -4.07522 0
M  V30 7686 H 724.941 0.275164 -6.97057 0
M  V30 7687 H 720.838 1.32322 -6.31792 0
M  V30 7688 H 721.606 0.396445 -8.17539 0
M  V30 7689 N 724.269 1.44576 0.627338 0
M  V30 7690 C 725.499 1.50829 1.41189 0
M  V30 7691 C 725.907 0.133083 1.88731 0
M  V30 7692 O 725.25 -0.87199 1.61685 0
M  V30 7693 C 725.312 2.41449 2.66351 0
M  V30 7694 C 724.976 3.88549 2.40579 0
M  V30 7695 C 725.973 4.78981 2.0217 0
M  V30 7696 C 723.658 4.33287 2.54102 0
M  V30 7697 C 725.652 6.12153 1.77618 0
M  V30 7698 C 723.339 5.66505 2.29163 0
M  V30 7699 C 724.337 6.55756 1.9098 0
M  V30 7700 O 724.025 7.86506 1.66321 0
M  V30 7701 H 723.757 0.513797 0.439304 0
M  V30 7702 H 726.311 1.90256 0.774059 0
M  V30 7703 H 724.541 1.96955 3.32784 0
M  V30 7704 H 726.23 2.38608 3.28361 0
M  V30 7705 H 726.996 4.45689 1.91277 0
M  V30 7706 H 722.875 3.64074 2.82792 0
M  V30 7707 H 726.419 6.81776 1.47739 0
M  V30 7708 H 722.316 5.99358 2.39668 0
M  V30 7709 H 723.084 7.98341 1.80536 0
M  V30 7710 N 725.747 -0.868086 1.31537 0
M  V30 7711 C 726.679 -1.98165 1.15166 0
M  V30 7712 C 727.692 -1.6255 0.0902335 0
M  V30 7713 O 728.881 -1.75272 0.33791 0
M  V30 7714 C 725.981 -3.30772 0.737776 0
M  V30 7715 C 725.154 -3.94716 1.88462 0
M  V30 7716 C 724.213 -5.05641 1.45648 0
M  V30 7717 O 723.239 -5.2636 2.16642 0
M  V30 7718 N 724.441 -5.79474 0.34493 0
M  V30 7719 H 727.206 -2.12754 2.11083 0
M  V30 7720 H 724.767 -1.04217 1.23897 0
M  V30 7721 H 726.759 -4.02366 0.434032 0
M  V30 7722 H 725.329 -3.1233 -0.129834 0
M  V30 7723 H 724.549 -3.16079 2.35558 0
M  V30 7724 H 725.837 -4.34175 2.65273 0
M  V30 7725 H 725.235 -5.65164 -0.246259 0
M  V30 7726 H 723.792 -6.51722 0.100728 0
M  V30 7727 N 727.225 -1.14528 -1.08264 0
M  V30 7728 C 728.636 -0.925261 -1.6216 0
M  V30 7729 C 728.987 0.535587 -1.88748 0
M  V30 7730 O 728.112 1.4048 -1.64604 0
M  V30 7731 C 728.707 -1.67316 -2.94603 0
M  V30 7732 C 727.266 -1.49868 -3.45278 0
M  V30 7733 C 726.413 -1.69471 -2.19487 0
M  V30 7734 H 729.364 -1.29687 -0.914707 0
M  V30 7735 H 729.385 -1.13721 -3.63109 0
M  V30 7736 H 728.897 -2.73635 -2.75219 0
M  V30 7737 H 726.998 -0.459032 -3.69762 0
M  V30 7738 H 727.111 -2.2696 -4.21931 0
M  V30 7739 H 725.475 -1.12048 -2.2873 0
M  V30 7740 H 726.258 -2.77136 -2.0261 0
M  V30 7741 N 728.703 1.26451 -0.940633 0
M  V30 7742 C 729.633 2.28773 -0.467479 0
M  V30 7743 C 730.614 1.63218 0.478955 0
M  V30 7744 O 731.799 1.90427 0.380929 0
M  V30 7745 C 728.929 3.46259 0.268656 0
M  V30 7746 C 727.883 4.23898 -0.591171 0
M  V30 7747 C 727.209 5.33993 0.274891 0
M  V30 7748 C 728.509 4.87974 -1.86223 0
M  V30 7749 H 730.203 2.68601 -1.32265 0
M  V30 7750 H 727.749 1.29123 -0.637436 0
M  V30 7751 H 729.702 4.16951 0.610696 0
M  V30 7752 H 728.426 3.05383 1.15796 0
M  V30 7753 H 727.085 3.54969 -0.916098 0
M  V30 7754 H 726.733 4.89358 1.16353 0
M  V30 7755 H 726.433 5.86849 -0.297006 0
M  V30 7756 H 727.957 6.07523 0.612213 0
M  V30 7757 H 729.371 5.50883 -1.58747 0
M  V30 7758 H 727.768 5.50945 -2.37866 0
M  V30 7759 H 728.838 4.10945 -2.57394 0
M  V30 7760 N 730.181 0.707592 1.40822 0
M  V30 7761 C 731.091 0.0507246 2.34545 0
M  V30 7762 C 732.107 -0.752727 1.56876 0
M  V30 7763 O 733.283 -0.687524 1.89302 0
M  V30 7764 C 730.348 -0.865731 3.35717 0
M  V30 7765 C 729.409 -0.0531313 4.29267 0
M  V30 7766 C 728.642 -0.925939 5.25606 0
M  V30 7767 O 728.865 -2.16531 5.27703 0
M  V30 7768 O 727.799 -0.369194 6.00767 0
M  V30 7769 H 731.625 0.823587 2.9232 0
M  V30 7770 H 729.21 0.46801 1.4188 0
M  V30 7771 H 731.092 -1.39091 3.97783 0
M  V30 7772 H 729.767 -1.61788 2.80368 0
M  V30 7773 H 728.674 0.516931 3.70511 0
M  V30 7774 H 730.007 0.660617 4.87747 0
M  V30 7775 N 731.66 -1.50943 0.453197 0
M  V30 7776 C 732.908 -2.01813 -0.107709 0
M  V30 7777 C 733.229 -1.33841 -1.41816 0
M  V30 7778 O 732.499 -0.477973 -1.8998 0
M  V30 7779 H 731.079 -0.745773 -0.0427948 0
M  V30 7780 H 733.741 -1.8545 0.599531 0
M  V30 7781 H 732.837 -3.10911 -0.27218 0
M  V30 7782 N 733.138 -0.185124 -1.56509 0
M  V30 7783 C 734.366 0.462139 -2.01673 0
M  V30 7784 C 734.781 1.55873 -1.06532 0
M  V30 7785 O 734.138 1.82371 -0.0684805 0
M  V30 7786 C 734.189 1.0277 -3.46584 0
M  V30 7787 O 733.91 -0.0251296 -4.38093 0
M  V30 7788 C 735.411 1.75183 -4.07217 0
M  V30 7789 H 732.631 0.117001 -0.660721 0
M  V30 7790 H 735.175 -0.290905 -2.0242 0
M  V30 7791 H 733.33 1.73118 -3.46568 0
M  V30 7792 H 733.744 0.394387 -5.23015 0
M  V30 7793 H 735.218 2.09999 -5.10494 0
M  V30 7794 H 735.695 2.6519 -3.50101 0
M  V30 7795 H 736.301 1.09445 -4.10977 0
M  V30 7796 N 734.616 1.57351 0.0885366 0
M  V30 7797 C 736.027 1.75303 0.642308 0
M  V30 7798 C 736.378 0.808238 1.78779 0
M  V30 7799 O 735.503 -0.01171 2.16397 0
M  V30 7800 C 736.098 3.17885 1.17194 0
M  V30 7801 C 734.657 3.37239 1.67172 0
M  V30 7802 C 733.804 2.7108 0.584045 0
M  V30 7803 H 736.755 1.58103 -0.137567 0
M  V30 7804 H 736.776 3.2112 2.04114 0
M  V30 7805 H 736.288 3.86625 0.338024 0
M  V30 7806 H 734.389 2.73588 2.52943 0
M  V30 7807 H 734.502 4.45594 1.76019 0
M  V30 7808 H 732.866 2.33161 1.02508 0
M  V30 7809 H 733.649 3.42464 -0.239403 0
M  V30 7810 N 736.094 -0.359525 1.53444 0
M  V30 7811 C 737.505 -0.936009 1.61542 0
M  V30 7812 C 737.856 -1.90069 0.486633 0
M  V30 7813 O 736.981 -2.12929 -0.386047 0
M  V30 7814 C 737.576 -1.70441 2.92806 0
M  V30 7815 C 736.135 -2.23015 3.03218 0
M  V30 7816 C 735.282 -1.04438 2.56881 0
M  V30 7817 H 738.233 -0.138134 1.58098 0
M  V30 7818 H 738.254 -2.56609 2.80948 0
M  V30 7819 H 737.766 -1.00205 3.74941 0
M  V30 7820 H 735.867 -2.96475 2.25684 0
M  V30 7821 H 735.98 -2.50481 4.08407 0
M  V30 7822 H 734.344 -1.41314 2.11902 0
M  V30 7823 H 735.127 -0.356905 3.4144 0
M  V30 7824 N 737.572 -1.44907 -0.619662 0
M  V30 7825 C 738.802 -1.51575 -1.40387 0
M  V30 7826 C 739.21 -0.14309 -1.88658 0
M  V30 7827 O 738.553 0.863403 -1.62145 0
M  V30 7828 C 738.615 -2.42858 -2.65067 0
M  V30 7829 C 738.279 -3.8982 -2.38515 0
M  V30 7830 C 739.276 -4.80047 -1.99627 0
M  V30 7831 C 736.961 -4.34628 -2.51801 0
M  V30 7832 C 738.955 -6.13086 -1.74369 0
M  V30 7833 C 736.642 -5.67712 -2.26156 0
M  V30 7834 C 737.64 -6.56759 -1.875 0
M  V30 7835 O 737.328 -7.87377 -1.62148 0
M  V30 7836 H 737.06 -0.51612 -0.436573 0
M  V30 7837 H 739.614 -1.90664 -0.763959 0
M  V30 7838 H 737.844 -1.98717 -3.31735 0
M  V30 7839 H 739.533 -2.40346 -3.27091 0
M  V30 7840 H 740.299 -4.46697 -1.8891 0
M  V30 7841 H 736.178 -3.65568 -2.80857 0
M  V30 7842 H 739.722 -6.8255 -1.44122 0
M  V30 7843 H 735.619 -6.0062 -2.36486 0
M  V30 7844 H 736.387 -7.99288 -1.763 0
M  V30 7845 N 739.05 0.861098 -1.31996 0
M  V30 7846 C 740.461 1.43065 -1.19955 0
M  V30 7847 C 740.812 1.95273 0.190489 0
M  V30 7848 O 739.937 1.87012 1.08882 0
M  V30 7849 C 740.532 2.60052 -2.1716 0
M  V30 7850 C 739.091 3.13026 -2.09026 0
M  V30 7851 C 738.238 1.85756 -2.05888 0
M  V30 7852 H 741.189 0.668834 -1.43918 0
M  V30 7853 H 741.21 3.37016 -1.76637 0
M  V30 7854 H 740.722 2.22024 -3.18319 0
M  V30 7855 H 738.823 3.55653 -1.11092 0
M  V30 7856 H 738.936 3.74707 -2.98549 0
M  V30 7857 H 737.3 2.05088 -1.51033 0
M  V30 7858 H 738.083 1.49954 -3.08818 0
M  V30 7859 N 740.528 1.15101 1.07655 0
M  V30 7860 C 741.758 0.946357 1.83651 0
M  V30 7861 C 742.166 -0.508641 1.82235 0
M  V30 7862 O 741.509 -1.36445 1.22997 0
M  V30 7863 C 741.571 1.37945 3.31981 0
M  V30 7864 C 741.235 2.85155 3.57122 0
M  V30 7865 C 742.232 3.83234 3.51323 0
M  V30 7866 C 739.917 3.2275 3.84887 0
M  V30 7867 C 741.911 5.16914 3.72932 0
M  V30 7868 C 739.598 4.56604 4.06148 0
M  V30 7869 C 740.596 5.53495 4.00165 0
M  V30 7870 O 740.284 6.84931 4.20861 0
M  V30 7871 H 740.016 0.336368 0.586372 0
M  V30 7872 H 742.57 1.53198 1.36819 0
M  V30 7873 H 740.8 0.737205 3.79608 0
M  V30 7874 H 742.489 1.14439 3.89434 0
M  V30 7875 H 743.255 3.55535 3.29878 0
M  V30 7876 H 739.134 2.47921 3.88659 0
M  V30 7877 H 742.678 5.92529 3.68178 0
M  V30 7878 H 738.575 4.84019 4.27078 0
M  V30 7879 H 739.343 6.91304 4.38226 0
M  V30 7880 N 742.006 -1.2595 0.947325 0
M  V30 7881 C 743.422 -1.45737 0.650597 0
M  V30 7882 C 743.622 -1.85189 -0.794188 0
M  V30 7883 O 742.678 -1.97738 -1.57022 0
M  V30 7884 C 743.991 -2.53505 1.61728 0
M  V30 7885 C 745.539 -2.67351 1.62765 0
M  V30 7886 C 746.014 -3.78296 2.58179 0
M  V30 7887 N 747.505 -3.85696 2.56501 0
M  V30 7888 C 748.24 -4.71012 3.2701 0
M  V30 7889 N 747.736 -5.60669 4.06966 0
M  V30 7890 N 749.529 -4.64912 3.15932 0
M  V30 7891 H 741.68 -0.986327 1.8811 0
M  V30 7892 H 743.943 -0.494639 0.808725 0
M  V30 7893 H 743.649 -2.31357 2.6489 0
M  V30 7894 H 743.523 -3.51281 1.3741 0
M  V30 7895 H 745.91 -2.88869 0.603241 0
M  V30 7896 H 745.991 -1.69998 1.91139 0
M  V30 7897 H 745.635 -3.5753 3.60742 0
M  V30 7898 H 745.565 -4.75117 2.27093 0
M  V30 7899 H 748.056 -3.21601 1.98447 0
M  V30 7900 H 748.369 -6.22677 4.57704 0
M  V30 7901 H 746.714 -5.60402 4.11066 0
M  V30 7902 H 749.905 -3.93874 2.52945 0
M  V30 7903 H 750.078 -5.3118 3.71149 0
M  V30 7904 N 743.484 -0.715051 -1.40445 0
M  V30 7905 C 744.712 -0.263959 -2.05209 0
M  V30 7906 C 745.127 1.09403 -1.53871 0
M  V30 7907 O 744.484 1.68746 -0.695064 0
M  V30 7908 C 744.535 -0.234545 -3.60738 0
M  V30 7909 O 744.256 -1.53891 -4.10182 0
M  V30 7910 C 745.757 0.235164 -4.42676 0
M  V30 7911 H 742.977 -0.11876 -0.660407 0
M  V30 7912 H 745.521 -0.973107 -1.79864 0
M  V30 7913 H 743.676 0.425563 -3.85055 0
M  V30 7914 H 744.09 -1.43903 -5.04373 0
M  V30 7915 H 745.564 0.204598 -5.51621 0
M  V30 7916 H 746.041 1.27724 -4.20218 0
M  V30 7917 H 746.647 -0.394649 -4.23465 0
M  V30 7918 N 744.962 1.50701 -0.461195 0
M  V30 7919 C 746.19 2.06681 0.0951756 0
M  V30 7920 C 746.605 1.32615 1.34382 0
M  V30 7921 O 745.962 0.392531 1.78229 0
M  V30 7922 C 746.013 3.59354 0.393316 0
M  V30 7923 O 745.734 4.30626 -0.805797 0
M  V30 7924 C 747.235 4.31926 0.997744 0
M  V30 7925 H 744.455 0.670995 -0.00267259 0
M  V30 7926 H 746.999 1.93991 -0.647137 0
M  V30 7927 H 745.154 3.7188 1.08555 0
M  V30 7928 H 745.568 5.21667 -0.544409 0
M  V30 7929 H 747.042 5.39756 1.15619 0
M  V30 7930 H 747.519 3.91772 1.98523 0
M  V30 7931 H 748.125 4.23905 0.344188 0
M  V30 7932 N 746.441 0.193421 1.56409 0
M  V30 7933 C 747.687 -0.446449 1.97825 0
M  V30 7934 C 748.02 -1.61386 1.08019 0
M  V30 7935 O 747.295 -1.94053 0.131839 0
M  V30 7936 C 747.578 -0.908199 3.48459 0
M  V30 7937 C 747.431 0.260914 4.49043 0
M  V30 7938 C 748.75 -1.77428 4.0275 0
M  V30 7939 H 745.869 -0.160807 0.719243 0
M  V30 7940 H 748.511 0.284006 1.87865 0
M  V30 7941 H 746.661 -1.53062 3.57077 0
M  V30 7942 H 748.333 0.898548 4.52464 0
M  V30 7943 H 746.576 0.912949 4.24085 0
M  V30 7944 H 747.247 -0.104657 5.51901 0
M  V30 7945 H 749.723 -1.24936 3.96901 0
M  V30 7946 H 748.599 -2.06633 5.08521 0
M  V30 7947 H 748.86 -2.72788 3.47907 0
M  V30 7948 N 747.919 -1.57396 -0.0801906 0
M  V30 7949 C 749.196 -1.77883 -0.813451 0
M  V30 7950 C 749.576 -0.778879 -1.96206 0
M  V30 7951 O 748.924 0.189683 -2.27711 0
M  V30 7952 C 749.134 -3.24116 -1.2942 0
M  V30 7953 C 750.482 -3.87714 -1.73098 0
M  V30 7954 O 751.506 -3.27956 -1.39007 0
M  V30 7955 O 750.365 -4.92828 -2.36184 0
M  V30 7956 H 747.459 -0.729727 -0.389138 0
M  V30 7957 H 750.005 -1.69591 -0.0609166 0
M  V30 7958 H 748.777 -3.88443 -0.471947 0
M  V30 7959 H 748.4 -3.371 -2.1083 0
M  V30 7960 N 749.397 0.351382 -1.53633 0
M  V30 7961 C 750.627 1.11113 -1.74176 0
M  V30 7962 C 751.035 1.83084 -0.477154 0
M  V30 7963 O 750.378 1.74941 0.560483 0
M  V30 7964 C 750.44 2.17521 -2.86225 0
M  V30 7965 C 750.104 1.65193 -4.26099 0
M  V30 7966 C 751.101 1.10842 -5.07947 0
M  V30 7967 C 748.786 1.70277 -4.72558 0
M  V30 7968 C 750.78 0.622689 -6.34351 0
M  V30 7969 C 748.467 1.21316 -5.98937 0
M  V30 7970 C 749.465 0.674033 -6.79666 0
M  V30 7971 O 749.153 0.191696 -8.03671 0
M  V30 7972 H 748.885 0.33756 -0.585687 0
M  V30 7973 H 751.439 0.411786 -2.0123 0
M  V30 7974 H 749.669 2.90991 -2.54678 0
M  V30 7975 H 751.358 2.78999 -2.94812 0
M  V30 7976 H 752.124 1.06243 -4.7322 0
M  V30 7977 H 748.003 2.11181 -4.09785 0
M  V30 7978 H 751.547 0.201216 -6.9731 0
M  V30 7979 H 747.444 1.25613 -6.3316 0
M  V30 7980 H 748.212 0.309712 -8.17914 0
M  V30 7981 N 750.875 1.45233 0.611969 0
M  V30 7982 C 751.805 1.5641 1.73373 0
M  V30 7983 C 752.786 0.415896 1.64937 0
M  V30 7984 O 753.971 0.638478 1.83404 0
M  V30 7985 C 751.101 1.52627 3.11965 0
M  V30 7986 C 750.055 2.66119 3.35208 0
M  V30 7987 C 749.381 2.4739 4.74028 0
M  V30 7988 C 750.681 4.08157 3.25891 0
M  V30 7989 H 752.375 2.50307 1.64277 0
M  V30 7990 H 749.921 1.20467 0.788904 0
M  V30 7991 H 751.874 1.59043 3.90235 0
M  V30 7992 H 750.598 0.552564 3.21892 0
M  V30 7993 H 749.257 2.59123 2.59327 0
M  V30 7994 H 748.905 1.48168 4.80682 0
M  V30 7995 H 748.605 3.23494 4.90536 0
M  V30 7996 H 750.129 2.55653 5.54503 0
M  V30 7997 H 751.543 4.1642 3.9404 0
M  V30 7998 H 749.94 4.84617 3.5393 0
M  V30 7999 H 751.01 4.30374 2.23397 0
M  V30 8000 N 752.353 -0.854086 1.3245 0
M  V30 8001 C 753.769 -1.14238 1.11453 0
M  V30 8002 C 753.969 -2.01228 -0.10461 0
M  V30 8003 O 753.025 -2.39845 -0.789339 0
M  V30 8004 C 754.338 -1.81916 2.39431 0
M  V30 8005 C 755.886 -1.94549 2.45193 0
M  V30 8006 C 756.361 -2.65642 3.73093 0
M  V30 8007 N 757.852 -2.73167 3.74078 0
M  V30 8008 C 758.587 -3.28828 4.69744 0
M  V30 8009 N 758.083 -3.85295 5.75778 0
M  V30 8010 N 759.876 -3.26936 4.57241 0
M  V30 8011 H 752.027 -0.274786 2.10615 0
M  V30 8012 H 754.29 -0.184375 0.929898 0
M  V30 8013 H 753.996 -1.25452 3.28565 0
M  V30 8014 H 753.87 -2.82068 2.50434 0
M  V30 8015 H 756.257 -2.50172 1.56518 0
M  V30 8016 H 756.338 -0.933914 2.38142 0
M  V30 8017 H 755.982 -2.10683 4.62142 0
M  V30 8018 H 755.912 -3.6724 3.77415 0
M  V30 8019 H 758.403 -2.33108 2.97438 0
M  V30 8020 H 758.716 -4.25925 6.44832 0
M  V30 8021 H 757.061 -3.83625 5.79531 0
M  V30 8022 H 760.252 -2.8207 3.7357 0
M  V30 8023 H 760.425 -3.70014 5.31971 0
M  V30 8024 N 753.831 -1.1567 -1.07043 0
M  V30 8025 C 754.761 -0.879348 -2.16309 0
M  V30 8026 C 755.742 0.171311 -1.69235 0
M  V30 8027 O 756.927 0.0250175 -1.94184 0
M  V30 8028 C 754.057 -0.371307 -3.45309 0
M  V30 8029 C 753.011 -1.359 -4.05851 0
M  V30 8030 C 752.337 -0.709678 -5.29969 0
M  V30 8031 C 753.637 -2.72606 -4.45514 0
M  V30 8032 H 755.331 -1.79308 -2.39768 0
M  V30 8033 H 752.877 -0.863558 -1.15233 0
M  V30 8034 H 754.83 -0.164798 -4.21078 0
M  V30 8035 H 753.554 0.577906 -3.21446 0
M  V30 8036 H 752.213 -1.55193 -3.32131 0
M  V30 8037 H 751.861 0.245782 -5.02399 0
M  V30 8038 H 751.561 -1.36886 -5.71433 0
M  V30 8039 H 753.085 -0.513015 -6.08441 0
M  V30 8040 H 754.499 -2.57141 -5.12398 0
M  V30 8041 H 752.896 -3.34927 -4.97939 0
M  V30 8042 H 753.966 -3.28434 -3.56734 0
M  V30 8043 N 755.309 1.25446 -0.953992 0
M  V30 8044 C 756.272 2.24156 -0.478179 0
M  V30 8045 C 757.272 1.55278 0.417776 0
M  V30 8046 O 758.462 1.72866 0.215155 0
M  V30 8047 C 755.594 3.39495 0.309202 0
M  V30 8048 H 756.787 2.67764 -1.35064 0
M  V30 8049 H 754.34 1.37822 -0.737206 0
M  V30 8050 H 755.075 3.01307 1.19936 0
M  V30 8051 H 754.86 3.90679 -0.333562 0
M  V30 8052 H 756.35 4.12796 0.631594 0
M  V30 8053 N 756.787 0.722489 1.40064 0
M  V30 8054 C 758.035 0.264455 2.00362 0
M  V30 8055 C 758.356 -1.14847 1.57592 0
M  V30 8056 O 757.626 -1.77982 0.818477 0
M  V30 8057 H 756.206 0.0947846 0.740962 0
M  V30 8058 H 758.868 0.929659 1.71299 0
M  V30 8059 H 757.964 0.302977 3.10626 0
M  V30 8060 N 758.265 -1.50454 0.469181 0
M  V30 8061 C 759.175 -2.32248 -0.331349 0
M  V30 8062 C 760.191 -1.42548 -0.997807 0
M  V30 8063 O 761.367 -1.75602 -0.9862 0
M  V30 8064 C 758.432 -3.17171 -1.40012 0
M  V30 8065 C 757.493 -4.2269 -0.750463 0
M  V30 8066 C 756.726 -5.03554 -1.76831 0
M  V30 8067 O 756.949 -4.85469 -2.99459 0
M  V30 8068 O 755.883 -5.86767 -1.3412 0
M  V30 8069 H 759.709 -3.01821 0.337279 0
M  V30 8070 H 757.294 -1.47602 0.231066 0
M  V30 8071 H 759.176 -3.69871 -2.01924 0
M  V30 8072 H 757.851 -2.50328 -2.05226 0
M  V30 8073 H 756.758 -3.73986 -0.0924446 0
M  V30 8074 H 758.091 -4.91997 -0.14131 0
M  V30 8075 N 759.743 -0.201713 -1.56304 0
M  V30 8076 C 760.989 0.435952 -1.98059 0
M  V30 8077 C 761.322 1.60811 -1.08873 0
M  V30 8078 O 760.597 1.9398 -0.142128 0
M  V30 8079 C 760.88 0.889706 -3.48936 0
M  V30 8080 C 760.733 -0.284725 -4.48898 0
M  V30 8081 C 762.052 1.7529 -4.03685 0
M  V30 8082 H 759.171 0.15699 -0.720085 0
M  V30 8083 H 761.813 -0.293965 -1.87712 0
M  V30 8084 H 759.963 1.51166 -3.57884 0
M  V30 8085 H 761.635 -0.922531 -4.51981 0
M  V30 8086 H 759.878 -0.935427 -4.23594 0
M  V30 8087 H 760.549 0.0753865 -5.51949 0
M  V30 8088 H 763.025 1.2283 -3.97558 0
M  V30 8089 H 761.901 2.03933 -5.0961 0
M  V30 8090 H 762.162 2.70939 -3.49348 0
M  V30 8091 N 761.222 1.57436 0.0718424 0
M  V30 8092 C 762.471 1.86431 0.769826 0
M  V30 8093 C 762.784 0.794355 1.78744 0
M  V30 8094 O 763.99 0.972148 2.53499 0
M  V30 8095 C 762.446 3.307 1.42006 0
M  V30 8096 C 762.054 4.45824 0.441017 0
M  V30 8097 C 763.798 3.68894 2.10041 0
M  V30 8098 C 761.705 5.81134 1.09717 0
M  V30 8099 H 760.635 0.695474 0.291259 0
M  V30 8100 H 763.286 1.83485 0.0231224 0
M  V30 8101 H 761.668 3.28257 2.21502 0
M  V30 8102 H 762.842 4.59659 -0.32413 0
M  V30 8103 H 761.157 4.16181 -0.134886 0
M  V30 8104 H 763.754 4.67281 2.59908 0
M  V30 8105 H 764.097 2.98692 2.89981 0
M  V30 8106 H 764.63 3.73326 1.37376 0
M  V30 8107 H 761.369 6.54628 0.338095 0
M  V30 8108 H 760.889 5.711 1.83317 0
M  V30 8109 H 762.568 6.26468 1.617 0
M  V30 8110 N 762.7 -0.34323 1.53817 0
M  V30 8111 C 763.928 -1.10348 1.75017 0
M  V30 8112 C 764.343 -1.82345 0.489475 0
M  V30 8113 O 763.7 -1.74362 -0.538886 0
M  V30 8114 C 763.751 -2.11672 2.93048 0
M  V30 8115 O 763.472 -1.42603 4.14241 0
M  V30 8116 C 764.973 -3.0007 3.26301 0
M  V30 8117 H 762.193 -0.329056 0.584776 0
M  V30 8118 H 764.737 -0.395339 2.00642 0
M  V30 8119 H 762.892 -2.78051 2.69753 0
M  V30 8120 H 763.306 -2.10294 4.80496 0
M  V30 8121 H 764.78 -3.67101 4.12239 0
M  V30 8122 H 765.257 -3.66105 2.42618 0
M  V30 8123 H 765.863 -2.3928 3.51604 0
M  V30 8124 N 764.178 -1.45556 -0.604258 0
M  V30 8125 C 765.108 -1.57327 -1.72541 0
M  V30 8126 C 766.089 -0.424637 -1.64714 0
M  V30 8127 O 767.274 -0.648196 -1.83063 0
M  V30 8128 C 764.404 -1.54279 -3.11152 0
M  V30 8129 C 763.358 -2.67893 -3.33792 0
M  V30 8130 C 762.684 -2.499 -4.72709 0
M  V30 8131 C 763.984 -4.0988 -3.23722 0
M  V30 8132 H 765.678 -2.51175 -1.62947 0
M  V30 8133 H 763.224 -1.20884 -0.782504 0
M  V30 8134 H 765.177 -1.6111 -3.89386 0
M  V30 8135 H 763.901 -0.569627 -3.21594 0
M  V30 8136 H 762.56 -2.60495 -2.57949 0
M  V30 8137 H 762.208 -1.50715 -4.79889 0
M  V30 8138 H 761.908 -3.26091 -4.88813 0
M  V30 8139 H 763.432 -2.5859 -5.5314 0
M  V30 8140 H 764.846 -4.18503 -3.91826 0
M  V30 8141 H 763.243 -4.86487 -3.51355 0
M  V30 8142 H 764.313 -4.31553 -2.21111 0
M  V30 8143 N 765.656 0.84705 -1.32902 0
M  V30 8144 C 766.903 1.60176 -1.23894 0
M  V30 8145 C 767.231 1.93496 0.197341 0
M  V30 8146 O 766.486 1.58173 1.15238 0
M  V30 8147 C 766.785 2.92663 -2.05142 0
M  V30 8148 C 766.451 2.7874 -3.54422 0
M  V30 8149 C 765.113 2.7465 -3.95121 0
M  V30 8150 C 767.465 2.64128 -4.49317 0
M  V30 8151 C 764.793 2.53837 -5.28946 0
M  V30 8152 C 767.145 2.44849 -5.83294 0
M  V30 8153 C 765.809 2.39156 -6.23186 0
M  V30 8154 H 765.079 0.586127 -0.453361 0
M  V30 8155 H 767.726 0.981994 -1.64405 0
M  V30 8156 H 766.031 3.588 -1.57383 0
M  V30 8157 H 767.728 3.50095 -1.95537 0
M  V30 8158 H 764.318 2.82751 -3.22102 0
M  V30 8159 H 768.502 2.66327 -4.18788 0
M  V30 8160 H 763.758 2.4787 -5.58901 0
M  V30 8161 H 767.932 2.32524 -6.56434 0
M  V30 8162 H 765.559 2.22789 -7.26821 0
M  V30 8163 N 767.134 1.16236 1.06428 0
M  V30 8164 C 768.362 0.967184 1.82902 0
M  V30 8165 C 768.777 -0.484601 1.82475 0
M  V30 8166 O 768.134 -1.33631 1.24294 0
M  V30 8167 C 768.185 1.48534 3.29576 0
M  V30 8168 O 767.906 2.88026 3.3011 0
M  V30 8169 C 769.407 1.33298 4.22784 0
M  V30 8170 H 766.627 0.342923 0.576754 0
M  V30 8171 H 769.171 1.54232 1.34286 0
M  V30 8172 H 767.326 0.952513 3.75508 0
M  V30 8173 H 767.74 3.11721 4.21818 0
M  V30 8174 H 769.214 1.74385 5.23731 0
M  V30 8175 H 769.691 0.278356 4.38317 0
M  V30 8176 H 770.297 1.85535 3.82697 0
M  V30 8177 N 768.612 -1.24939 0.960631 0
M  V30 8178 C 769.86 -1.92437 0.617441 0
M  V30 8179 C 770.181 -1.75543 -0.849101 0
M  V30 8180 O 769.451 -1.12269 -1.60538 0
M  V30 8181 H 768.031 -0.712192 0.225371 0
M  V30 8182 H 770.693 -1.5198 1.22017 0
M  V30 8183 H 769.789 -3.00247 0.851933 0
M  V30 8184 N 770.09 -0.729906 -1.39679 0
M  V30 8185 C 771.336 -0.27603 -2.00913 0
M  V30 8186 C 771.669 1.13227 -1.57776 0
M  V30 8187 O 770.944 1.7709 -0.804319 0
M  V30 8188 C 771.227 -0.372157 -3.58172 0
M  V30 8189 C 771.08 -1.81986 -4.11341 0
M  V30 8190 C 772.399 0.248378 -4.39399 0
M  V30 8191 H 769.518 -0.101773 -0.729939 0
M  V30 8192 H 772.16 -0.925104 -1.65957 0
M  V30 8193 H 770.31 0.180459 -3.88081 0
M  V30 8194 H 771.982 -2.42896 -3.92172 0
M  V30 8195 H 770.225 -2.34287 -3.65092 0
M  V30 8196 H 770.896 -1.83842 -5.20486 0
M  V30 8197 H 773.372 -0.222645 -4.15504 0
M  V30 8198 H 772.248 0.150746 -5.48693 0
M  V30 8199 H 772.509 1.33378 -4.21501 0
M  V30 8200 N 771.568 1.50203 -0.477153 0
M  V30 8201 C 772.498 2.31517 0.303646 0
M  V30 8202 C 773.479 1.38696 0.984753 0
M  V30 8203 O 774.664 1.67615 0.980758 0
M  V30 8204 C 771.794 3.18598 1.38249 0
M  V30 8205 C 770.748 4.2002 0.822645 0
M  V30 8206 C 770.074 4.95878 2.00024 0
M  V30 8207 C 771.374 5.22023 -0.170185 0
M  V30 8208 H 773.068 2.97042 -0.375027 0
M  V30 8209 H 770.614 1.42848 -0.181802 0
M  V30 8210 H 772.567 3.74282 1.93625 0
M  V30 8211 H 771.291 2.5097 2.09002 0
M  V30 8212 H 769.95 3.65445 0.290813 0
M  V30 8213 H 769.598 4.24717 2.69489 0
M  V30 8214 H 769.298 5.64487 1.63183 0
M  V30 8215 H 770.822 5.54399 2.55878 0
M  V30 8216 H 772.236 5.72543 0.294606 0
M  V30 8217 H 770.633 5.98386 -0.453181 0
M  V30 8218 H 771.703 4.72396 -1.09408 0
M  V30 8219 N 773.046 0.209999 1.56195 0
M  V30 8220 C 774.293 -0.424813 1.97994 0
M  V30 8221 C 774.621 -1.60589 1.09733 0
M  V30 8222 O 773.876 -1.95201 0.139693 0
M  V30 8223 C 774.175 -0.91312 3.45539 0
M  V30 8224 C 773.841 0.156187 4.50629 0
M  V30 8225 C 772.503 0.449966 4.79092 0
M  V30 8226 C 774.855 0.879959 5.13718 0
M  V30 8227 C 772.183 1.47223 5.67928 0
M  V30 8228 C 774.535 1.89148 6.0366 0
M  V30 8229 C 773.199 2.1923 6.30472 0
M  V30 8230 H 772.469 -0.15545 0.724511 0
M  V30 8231 H 775.116 0.310095 1.88973 0
M  V30 8232 H 773.421 -1.72658 3.51705 0
M  V30 8233 H 775.118 -1.41395 3.75245 0
M  V30 8234 H 771.708 -0.0829466 4.2852 0
M  V30 8235 H 775.892 0.66623 4.91808 0
M  V30 8236 H 771.148 1.71105 5.86969 0
M  V30 8237 H 775.322 2.45745 6.516 0
M  V30 8238 H 772.949 2.98587 6.99107 0
M  V30 8239 N 774.524 -1.57472 -0.0634922 0
M  V30 8240 C 775.771 -1.87654 -0.761066 0
M  V30 8241 C 776.099 -0.802847 -1.77157 0
M  V30 8242 O 775.354 0.200244 -1.94673 0
M  V30 8243 C 775.653 -3.24521 -1.49736 0
M  V30 8244 C 775.319 -4.46532 -0.626065 0
M  V30 8245 C 773.981 -4.7965 -0.385978 0
M  V30 8246 C 776.333 -5.21195 -0.0224001 0
M  V30 8247 C 773.661 -5.84837 0.467118 0
M  V30 8248 C 776.013 -6.27286 0.818198 0
M  V30 8249 C 774.677 -6.58899 1.06808 0
M  V30 8250 H 773.947 -0.686675 -0.278494 0
M  V30 8251 H 776.594 -1.91488 -0.0216348 0
M  V30 8252 H 774.899 -3.16516 -2.30921 0
M  V30 8253 H 776.596 -3.45111 -2.04204 0
M  V30 8254 H 773.186 -4.20618 -0.823325 0
M  V30 8255 H 777.37 -4.95917 -0.194985 0
M  V30 8256 H 772.626 -6.07725 0.669375 0
M  V30 8257 H 776.8 -6.84298 1.29265 0
M  V30 8258 H 774.427 -7.40233 1.73088 0
M  V30 8259 N 776.003 0.335068 -1.53997 0
M  V30 8260 C 777.25 1.07435 -1.71651 0
M  V30 8261 C 777.578 1.88378 -0.48413 0
M  V30 8262 O 776.833 1.8827 0.534139 0
M  V30 8263 C 777.132 2.0364 -2.9371 0
M  V30 8264 C 776.798 1.38942 -4.28959 0
M  V30 8265 C 775.46 1.21027 -4.65732 0
M  V30 8266 C 777.812 0.924083 -5.12943 0
M  V30 8267 C 775.14 0.552097 -5.84097 0
M  V30 8268 C 777.492 0.27978 -6.31981 0
M  V30 8269 C 776.156 0.0883843 -6.67441 0
M  V30 8270 H 775.426 0.393133 -0.628114 0
M  V30 8271 H 778.073 0.352712 -1.88224 0
M  V30 8272 H 776.378 2.82215 -2.71775 0
M  V30 8273 H 778.075 2.6085 -3.04562 0
M  V30 8274 H 774.665 1.53885 -4.00022 0
M  V30 8275 H 778.849 1.05032 -4.85059 0
M  V30 8276 H 774.105 0.392502 -6.10139 0
M  V30 8277 H 778.279 -0.0888479 -6.96343 0
M  V30 8278 H 775.906 -0.423657 -7.59019 0
M  V30 8279 N 777.481 1.45874 0.596531 0
M  V30 8280 C 778.709 1.54013 1.38158 0
M  V30 8281 C 779.124 0.17648 1.87973 0
M  V30 8282 O 778.481 -0.823895 1.62844 0
M  V30 8283 C 778.532 2.53363 2.57855 0
M  V30 8284 O 778.253 3.8443 2.10108 0
M  V30 8285 C 779.754 2.71308 3.50581 0
M  V30 8286 H 776.974 0.521251 0.422538 0
M  V30 8287 H 779.518 1.9116 0.726493 0
M  V30 8288 H 777.673 2.19257 3.19382 0
M  V30 8289 H 778.087 4.38384 2.87958 0
M  V30 8290 H 779.561 3.44776 4.31084 0
M  V30 8291 H 780.038 1.77728 4.01633 0
M  V30 8292 H 780.644 3.06455 2.94899 0
M  V30 8293 N 778.959 -0.83999 1.33349 0
M  V30 8294 C 779.907 -1.97113 1.23488 0
M  V30 8295 C 780.901 -1.68849 0.136503 0
M  V30 8296 O 782.107 -1.77476 0.300389 0
M  V30 8297 H 778.482 -0.647049 0.383185 0
M  V30 8298 H 780.453 -2.02554 2.19122 0
M  V30 8299 C 779.202 -3.33314 0.989815 0
M  V30 8300 H 778.525 -3.556 1.82726 0
M  V30 8301 H 779.965 -4.12963 0.961123 0
M  V30 8302 C 778.424 -3.35496 -0.307272 0
M  V30 8303 O 778.954 -3.79589 -1.31434 0
M  V30 8304 N 777.16 -2.88669 -0.334414 0
M  V30 8305 H 776.707 -2.5298 0.485659 0
M  V30 8306 H 776.665 -2.90512 -1.20209 0
M  V30 8307 N 780.437 -1.16799 -1.0581 0
M  V30 8308 C 781.686 -0.94698 -1.78088 0
M  V30 8309 C 781.999 0.526016 -1.88394 0
M  V30 8310 O 783.205 0.865061 -2.5735 0
M  V30 8311 C 781.661 -1.64508 -3.20102 0
M  V30 8312 C 781.269 -3.15618 -3.17946 0
M  V30 8313 C 783.013 -1.50622 -3.96879 0
M  V30 8314 C 780.92 -3.78144 -4.5471 0
M  V30 8315 H 779.85 -0.35067 -0.667493 0
M  V30 8316 H 782.501 -1.39985 -1.18645 0
M  V30 8317 H 780.883 -1.11993 -3.79834 0
M  V30 8318 H 782.057 -3.75016 -2.67768 0
M  V30 8319 H 780.372 -3.29444 -2.54667 0
M  V30 8320 H 782.969 -1.94713 -4.97987 0
M  V30 8321 H 783.312 -0.455864 -4.13797 0
M  V30 8322 H 783.845 -2.00319 -3.43682 0
M  V30 8323 H 780.584 -4.83149 -4.42998 0
M  V30 8324 H 780.104 -3.23532 -5.05062 0
M  V30 8325 H 781.783 -3.79986 -5.2366 0
M  V30 8326 N 781.915 1.24427 -0.967243 0
M  V30 8327 C 782.862 2.25398 -0.496419 0
M  V30 8328 C 783.832 1.59667 0.457781 0
M  V30 8329 O 785.017 1.87213 0.368246 0
M  V30 8330 C 782.157 3.44474 0.207693 0
M  V30 8331 C 781.27 4.24804 -0.785221 0
M  V30 8332 C 780.405 5.31169 -0.0572631 0
M  V30 8333 C 779.444 6.03195 -1.04027 0
M  V30 8334 N 778.581 7.01265 -0.34235 0
M  V30 8335 H 783.421 2.65039 -1.36229 0
M  V30 8336 H 780.958 1.30288 -0.682902 0
M  V30 8337 H 782.916 4.12376 0.632612 0
M  V30 8338 H 781.546 3.05672 1.03752 0
M  V30 8339 H 780.598 3.56445 -1.32858 0
M  V30 8340 H 781.91 4.74599 -1.53483 0
M  V30 8341 H 781.064 6.05205 0.425674 0
M  V30 8342 H 779.803 4.8228 0.725047 0
M  V30 8343 H 778.808 5.27964 -1.53409 0
M  V30 8344 H 780.033 6.54173 -1.82302 0
M  V30 8345 H 777.979 6.54648 0.420993 0
M  V30 8346 H 777.896 7.48939 -1.03084 0
M  V30 8347 H 779.164 7.7941 0.118634 0
M  V30 8348 N 783.393 0.737304 1.3929 0
M  V30 8349 C 784.67 0.212464 1.94443 0
M  V30 8350 C 785.05 -1.28621 1.67391 0
M  V30 8351 O 784.398 -2.0529 1.00342 0
M  V30 8352 C 784.608 0.548565 3.44662 0
M  V30 8353 C 785.956 0.499177 4.21656 0
M  V30 8354 O 786.98 0.485892 3.5287 0
M  V30 8355 O 785.839 0.495739 5.44247 0
M  V30 8356 H 782.933 0.0395457 0.826054 0
M  V30 8357 H 785.479 0.816319 1.48776 0
M  V30 8358 H 784.251 1.58426 3.57795 0
M  V30 8359 H 783.874 -0.0841399 3.97511 0
M  V30 8360 N 784.871 -1.49948 0.485112 0
M  V30 8361 C 785.801 -2.31675 -0.291364 0
M  V30 8362 C 786.782 -1.39216 -0.977383 0
M  V30 8363 O 787.967 -1.68133 -0.971855 0
M  V30 8364 C 785.097 -3.19326 -1.36558 0
M  V30 8365 C 784.051 -4.2045 -0.800359 0
M  V30 8366 C 783.377 -4.96931 -1.97391 0
M  V30 8367 C 784.677 -5.21925 0.197867 0
M  V30 8368 H 786.371 -2.96839 0.390775 0
M  V30 8369 H 783.917 -1.42749 0.189375 0
M  V30 8370 H 785.87 -3.75304 -1.91638 0
M  V30 8371 H 784.594 -2.52074 -2.07668 0
M  V30 8372 H 783.253 -3.65594 -0.271428 0
M  V30 8373 H 782.901 -4.26141 -2.67232 0
M  V30 8374 H 782.601 -5.65344 -1.60187 0
M  V30 8375 H 784.125 -5.55749 -2.52935 0
M  V30 8376 H 785.539 -5.72691 -0.264239 0
M  V30 8377 H 783.936 -5.98138 0.484908 0
M  V30 8378 H 785.006 -4.71809 1.11912 0
M  V30 8379 N 786.349 -0.21828 -1.56081 0
M  V30 8380 C 787.596 0.414307 -1.98216 0
M  V30 8381 C 787.924 1.60005 -1.10584 0
M  V30 8382 O 787.179 1.95124 -0.150043 0
M  V30 8383 C 787.478 0.894782 -3.46018 0
M  V30 8384 C 787.144 -0.180083 -4.5054 0
M  V30 8385 C 785.806 -0.475367 -4.78846 0
M  V30 8386 C 788.158 -0.907191 -5.13244 0
M  V30 8387 C 785.486 -1.50233 -5.67139 0
M  V30 8388 C 787.838 -1.92347 -6.02649 0
M  V30 8389 C 786.502 -2.22571 -6.293 0
M  V30 8390 H 785.772 0.151606 -0.725325 0
M  V30 8391 H 788.419 -0.320113 -1.88806 0
M  V30 8392 H 786.724 1.7079 -3.52616 0
M  V30 8393 H 788.421 1.39403 -3.75989 0
M  V30 8394 H 785.011 0.06022 -4.28558 0
M  V30 8395 H 789.195 -0.692303 -4.91448 0
M  V30 8396 H 784.451 -1.74215 -5.86054 0
M  V30 8397 H 788.625 -2.49197 -6.50288 0
M  V30 8398 H 786.252 -3.0229 -6.97513 0
M  V30 8399 N 787.827 1.57504 0.0551401 0
M  V30 8400 C 788.76 2.00155 1.09604 0
M  V30 8401 C 789.738 0.881274 1.36647 0
M  V30 8402 O 790.922 1.14498 1.49742 0
M  V30 8403 C 788.049 2.35246 2.43674 0
M  V30 8404 C 787.095 3.57452 2.32659 0
M  V30 8405 S 787.928 5.07639 1.7048 0
M  V30 8406 C 789.084 5.45947 3.06093 0
M  V30 8407 H 789.317 2.88131 0.732635 0
M  V30 8408 H 786.85 1.52122 0.264252 0
M  V30 8409 H 788.808 2.56136 3.20787 0
M  V30 8410 H 787.469 1.47769 2.7717 0
M  V30 8411 H 786.662 3.79576 3.31569 0
M  V30 8412 H 786.264 3.36279 1.63685 0
M  V30 8413 H 788.556 5.45036 4.0242 0
M  V30 8414 H 789.499 6.4656 2.88732 0
M  V30 8415 H 789.907 4.73419 3.07466 0
M  V30 8416 N 789.305 -0.326896 1.54172 0
M  V30 8417 C 790.252 -1.40216 1.83325 0
M  V30 8418 C 791.222 -1.51538 0.680107 0
M  V30 8419 O 792.407 -1.66811 0.926206 0
M  V30 8420 C 789.547 -2.76626 2.0633 0
M  V30 8421 C 788.66 -2.73963 3.34019 0
M  V30 8422 C 787.795 -4.02198 3.47002 0
M  V30 8423 C 786.834 -3.93828 4.68578 0
M  V30 8424 N 785.971 -5.13787 4.78506 0
M  V30 8425 H 790.811 -1.14656 2.7506 0
M  V30 8426 H 788.348 -0.555089 1.36225 0
M  V30 8427 H 790.306 -3.55922 2.17659 0
M  V30 8428 H 788.936 -3.00503 1.1789 0
M  V30 8429 H 787.988 -1.86677 3.31445 0
M  V30 8430 H 789.3 -2.6366 4.2342 0
M  V30 8431 H 788.454 -4.89923 3.57855 0
M  V30 8432 H 787.193 -4.15302 2.55687 0
M  V30 8433 H 786.198 -3.04487 4.57786 0
M  V30 8434 H 787.423 -3.82292 5.61275 0
M  V30 8435 H 785.369 -5.27403 3.90105 0
M  V30 8436 H 785.286 -5.05807 5.61868 0
M  V30 8437 H 786.554 -6.03236 4.93686 0
M  V30 8438 N 790.784 -1.46188 -0.588786 0
M  V30 8439 C 791.731 -1.56292 -1.69828 0
M  V30 8440 C 792.701 -0.407581 -1.61022 0
M  V30 8441 O 793.886 -0.623532 -1.80324 0
M  V30 8442 C 791.026 -1.55341 -3.08161 0
M  V30 8443 C 790.139 -2.81564 -3.27636 0
M  V30 8444 C 789.274 -2.72158 -4.56183 0
M  V30 8445 C 788.313 -3.93348 -4.68981 0
M  V30 8446 N 787.45 -3.82365 -5.88848 0
M  V30 8447 H 792.29 -2.51066 -1.6053 0
M  V30 8448 H 789.827 -1.24562 -0.782474 0
M  V30 8449 H 791.785 -1.52776 -3.88221 0
M  V30 8450 H 790.415 -0.641034 -3.16371 0
M  V30 8451 H 789.467 -2.94136 -2.41223 0
M  V30 8452 H 790.779 -3.714 -3.32962 0
M  V30 8453 H 789.933 -2.67665 -5.44464 0
M  V30 8454 H 788.672 -1.79953 -4.53286 0
M  V30 8455 H 787.677 -3.98181 -3.7912 0
M  V30 8456 H 788.902 -4.86643 -4.73662 0
M  V30 8457 H 786.848 -2.92942 -5.86959 0
M  V30 8458 H 786.765 -4.65851 -5.95415 0
M  V30 8459 H 788.033 -3.81836 -6.79575 0
M  V30 8460 N 792.262 0.832906 -1.33792 0
M  V30 8461 C 793.502 1.60217 -1.26925 0
M  V30 8462 C 793.866 1.91323 0.161146 0
M  V30 8463 O 795.067 2.66461 0.353864 0
M  V30 8464 C 793.338 2.87314 -2.12568 0
M  V30 8465 S 794.897 3.77939 -2.22952 0
M  V30 8466 H 791.715 0.549273 -0.451464 0
M  V30 8467 H 794.317 0.984648 -1.68893 0
M  V30 8468 H 793.021 2.62444 -3.15518 0
M  V30 8469 H 792.552 3.5407 -1.71459 0
M  V30 8470 H 794.567 4.76188 -1.39496 0
M  V30 8471 N 793.74 1.17359 1.05189 0
M  V30 8472 C 795.151 0.96793 1.5965 0
M  V30 8473 C 795.502 -0.485355 1.90102 0
M  V30 8474 O 794.627 -1.36066 1.6827 0
M  V30 8475 C 795.222 1.75068 2.90063 0
M  V30 8476 C 793.781 1.58969 3.41183 0
M  V30 8477 C 792.928 1.75231 2.14917 0
M  V30 8478 H 795.879 1.32067 0.880001 0
M  V30 8479 H 795.9 1.23308 3.59966 0
M  V30 8480 H 795.412 2.80835 2.67868 0
M  V30 8481 H 793.513 0.556906 3.68415 0
M  V30 8482 H 793.626 2.38067 4.15766 0
M  V30 8483 H 791.99 1.18073 2.25679 0
M  V30 8484 H 792.773 2.8241 1.95191 0
M  V30 8485 N 795.218 -1.23913 0.973828 0
M  V30 8486 C 796.466 -1.91771 0.637817 0
M  V30 8487 C 796.787 -1.76434 -0.830435 0
M  V30 8488 O 796.057 -1.13965 -1.59339 0
M  V30 8489 H 794.637 -0.709761 0.232912 0
M  V30 8490 H 797.299 -1.50677 1.23622 0
M  V30 8491 H 796.395 -2.99327 0.883731 0
M  V30 8492 N 796.696 -0.74468 -1.38897 0
M  V30 8493 C 797.942 -0.297324 -2.00609 0
M  V30 8494 C 798.275 1.11547 -1.58968 0
M  V30 8495 O 797.55 1.76227 -0.823057 0
M  V30 8496 C 797.833 -0.410125 -3.57757 0
M  V30 8497 C 797.686 -1.86338 -4.09387 0
M  V30 8498 C 799.005 0.20176 -4.39637 0
M  V30 8499 H 796.124 -0.109509 -0.728819 0
M  V30 8500 H 798.766 -0.942653 -1.64967 0
M  V30 8501 H 796.916 0.139287 -3.8825 0
M  V30 8502 H 798.588 -2.47042 -3.89574 0
M  V30 8503 H 796.831 -2.38146 -3.62586 0
M  V30 8504 H 797.502 -1.89352 -5.18507 0
M  V30 8505 H 799.978 -0.266703 -4.15244 0
M  V30 8506 H 798.854 0.0925415 -5.48822 0
M  V30 8507 H 799.115 1.289 -4.22891 0
M  V30 8508 N 798.174 1.49689 -0.493057 0
M  V30 8509 C 799.122 2.30613 0.303383 0
M  V30 8510 C 800.116 1.38867 0.970165 0
M  V30 8511 O 801.322 1.55956 0.898761 0
M  V30 8512 H 797.697 0.742891 0.116691 0
M  V30 8513 H 799.668 2.95717 -0.39924 0
M  V30 8514 C 798.417 3.20008 1.35978 0
M  V30 8515 H 797.74 3.90526 0.856103 0
M  V30 8516 H 799.18 3.79586 1.88919 0
M  V30 8517 C 797.639 2.39079 2.37367 0
M  V30 8518 O 798.169 2.08933 3.43089 0
M  V30 8519 N 796.375 2.0125 2.09635 0
M  V30 8520 H 795.922 2.25966 1.23682 0
M  V30 8521 H 795.88 1.47408 2.77702 0
M  V30 8522 N 799.652 0.226554 1.55963 0
M  V30 8523 C 800.877 -0.411527 2.03276 0
M  V30 8524 C 801.302 -1.52206 1.10521 0
M  V30 8525 O 800.66 -1.81054 0.0943217 0
M  V30 8526 C 800.708 -0.915694 3.4878 0
M  V30 8527 O 799.812 -2.02672 3.59163 0
M  V30 8528 H 799.153 -0.0924907 0.657527 0
M  V30 8529 H 801.683 0.346656 2.01642 0
M  V30 8530 H 801.693 -1.22421 3.892 0
M  V30 8531 H 800.368 -0.102915 4.15773 0
M  V30 8532 H 798.945 -1.72445 3.30632 0
M  V30 8533 N 801.13 -1.57531 -0.0467866 0
M  V30 8534 C 802.06 -2.08425 -1.05268 0
M  V30 8535 C 803.041 -0.982941 -1.38825 0
M  V30 8536 O 804.226 -1.25716 -1.48018 0
M  V30 8537 C 801.356 -2.54897 -2.35891 0
M  V30 8538 C 800.31 -3.69132 -2.16623 0
M  V30 8539 C 799.636 -4.01747 -3.52851 0
M  V30 8540 C 800.936 -4.98243 -1.56689 0
M  V30 8541 H 802.63 -2.92716 -0.62908 0
M  V30 8542 H 800.176 -1.40816 -0.301156 0
M  V30 8543 H 802.129 -2.8912 -3.06574 0
M  V30 8544 H 800.853 -1.67666 -2.80278 0
M  V30 8545 H 799.512 -3.35231 -1.48377 0
M  V30 8546 H 799.16 -3.11608 -3.94853 0
M  V30 8547 H 798.86 -4.78681 -3.4079 0
M  V30 8548 H 800.384 -4.38487 -4.24925 0
M  V30 8549 H 801.798 -5.30535 -2.17268 0
M  V30 8550 H 800.195 -5.79669 -1.55255 0
M  V30 8551 H 801.265 -4.81986 -0.530827 0
M  V30 8552 N 802.608 0.318715 -1.54344 0
M  V30 8553 C 803.855 1.05608 -1.72781 0
M  V30 8554 C 804.183 1.87854 -0.504083 0
M  V30 8555 O 803.438 1.88826 0.51414 0
M  V30 8556 C 803.737 2.00514 -2.95853 0
M  V30 8557 C 803.403 1.34385 -4.30409 0
M  V30 8558 C 802.065 1.16081 -4.66989 0
M  V30 8559 C 804.417 0.869627 -5.13894 0
M  V30 8560 C 801.745 0.490114 -5.84649 0
M  V30 8561 C 804.097 0.212735 -6.32242 0
M  V30 8562 C 802.761 0.0175882 -6.67498 0
M  V30 8563 H 802.031 0.386449 -0.632249 0
M  V30 8564 H 804.678 0.332729 -1.88587 0
M  V30 8565 H 802.983 2.79317 -2.74753 0
M  V30 8566 H 804.68 2.57605 -3.07312 0
M  V30 8567 H 801.27 1.49634 -4.01631 0
M  V30 8568 H 805.454 0.998809 -4.86146 0
M  V30 8569 H 800.71 0.327767 -6.10521 0
M  V30 8570 H 804.884 -0.162699 -6.9621 0
M  V30 8571 H 802.511 -0.504137 -7.58527 0
M  V30 8572 N 804.086 1.46499 0.581025 0
M  V30 8573 C 805.335 1.51162 1.3354 0
M  V30 8574 C 805.648 0.168433 1.94873 0
M  V30 8575 O 806.854 0.092883 2.71341 0
M  V30 8576 C 805.31 2.66362 2.42032 0
M  V30 8577 C 804.918 4.07109 1.86994 0
M  V30 8578 C 806.662 2.80297 3.188 0
M  V30 8579 C 804.569 5.13645 2.93125 0
M  V30 8580 H 803.499 0.562576 0.502021 0
M  V30 8581 H 806.15 1.72713 0.619863 0
M  V30 8582 H 804.532 2.38143 3.16392 0
M  V30 8583 H 805.706 4.45125 1.19166 0
M  V30 8584 H 804.021 3.97854 1.22887 0
M  V30 8585 H 806.618 3.5706 3.9801 0
M  V30 8586 H 806.961 1.87875 3.71495 0
M  V30 8587 H 807.494 3.0817 2.51547 0
M  V30 8588 H 804.233 6.07866 2.45315 0
M  V30 8589 H 803.753 4.80172 3.59437 0
M  V30 8590 H 805.432 5.39562 3.57046 0
M  V30 8591 N 805.565 -0.825799 1.34232 0
M  V30 8592 C 806.842 -1.56741 1.17011 0
M  V30 8593 C 807.222 -2.09512 -0.258425 0
M  V30 8594 O 806.57 -1.90664 -1.25935 0
M  V30 8595 C 806.78 -2.69104 2.22225 0
M  V30 8596 C 808.128 -3.37947 2.57055 0
M  V30 8597 O 809.152 -2.79358 2.20992 0
M  V30 8598 O 808.011 -4.43743 3.1899 0
M  V30 8599 H 805.105 -0.69163 0.453405 0
M  V30 8600 H 807.651 -0.867422 1.45856 0
M  V30 8601 H 806.423 -2.27844 3.18124 0
M  V30 8602 H 806.046 -3.46756 1.94541 0
M  V30 8603 N 807.043 -1.17915 -1.04565 0
M  V30 8604 C 808.291 -0.969505 -1.77327 0
M  V30 8605 C 808.612 0.502569 -1.88412 0
M  V30 8606 O 807.882 1.36467 -1.40547 0
M  V30 8607 H 806.462 -0.355723 -0.656864 0
M  V30 8608 H 809.124 -1.48506 -1.26223 0
M  V30 8609 H 808.22 -1.40324 -2.78775 0
M  V30 8610 N 808.521 1.23394 -0.980386 0
M  V30 8611 C 809.746 1.96384 -0.666935 0
M  V30 8612 C 810.171 1.72087 0.759456 0
M  V30 8613 O 809.529 0.992328 1.51732 0
M  V30 8614 C 809.577 3.47499 -0.963177 0
M  V30 8615 O 808.681 4.12363 -0.0552051 0
M  V30 8616 H 808.022 0.614797 -0.250839 0
M  V30 8617 H 810.552 1.56831 -1.31398 0
M  V30 8618 H 810.562 3.97953 -0.899877 0
M  V30 8619 H 809.237 3.6451 -2.00264 0
M  V30 8620 H 807.814 3.72499 -0.172914 0
M  V30 8621 N 809.999 0.752036 1.385 0
M  V30 8622 C 811.246 0.307503 2.00152 0
M  V30 8623 C 811.574 -1.11033 1.59693 0
M  V30 8624 O 810.829 -1.77455 0.825125 0
M  V30 8625 C 811.128 0.376155 3.55415 0
M  V30 8626 C 810.794 1.74942 4.15579 0
M  V30 8627 C 809.456 2.12525 4.31725 0
M  V30 8628 C 811.808 2.65031 4.48785 0
M  V30 8629 C 809.136 3.39671 4.78373 0
M  V30 8630 C 811.488 3.91567 4.96848 0
M  V30 8631 C 810.152 4.2922 5.11201 0
M  V30 8632 H 809.422 0.112523 0.732407 0
M  V30 8633 H 812.069 0.962213 1.65571 0
M  V30 8634 H 810.374 -0.362121 3.90123 0
M  V30 8635 H 812.071 0.0138065 4.00998 0
M  V30 8636 H 808.661 1.44726 4.03426 0
M  V30 8637 H 812.845 2.3726 4.35914 0
M  V30 8638 H 808.101 3.68765 4.8767 0
M  V30 8639 H 812.275 4.61517 5.21512 0
M  V30 8640 H 809.902 5.27805 5.47107 0
M  V30 8641 N 811.477 -1.49425 0.500989 0
M  V30 8642 C 812.409 -2.27037 -0.314159 0
M  V30 8643 C 813.422 -1.33578 -0.930626 0
M  V30 8644 O 814.611 -1.58861 -0.813968 0
M  V30 8645 C 811.711 -3.05968 -1.45729 0
M  V30 8646 C 810.884 -4.27 -0.948135 0
M  V30 8647 C 809.943 -4.87977 -1.96888 0
M  V30 8648 O 808.969 -5.48044 -1.53743 0
M  V30 8649 N 810.171 -4.77627 -3.29928 0
M  V30 8650 H 812.936 -2.97634 0.351336 0
M  V30 8651 H 810.497 -1.58427 0.333536 0
M  V30 8652 H 812.489 -3.43634 -2.1377 0
M  V30 8653 H 811.059 -2.37978 -2.02695 0
M  V30 8654 H 810.279 -3.94091 -0.0926311 0
M  V30 8655 H 811.567 -5.0541 -0.586362 0
M  V30 8656 H 810.965 -4.29926 -3.67669 0
M  V30 8657 H 809.522 -5.19478 -3.93682 0
M  V30 8658 N 812.955 -0.234822 -1.55841 0
M  V30 8659 C 813.885 0.664217 -2.23854 0
M  V30 8660 C 814.866 1.19076 -1.2147 0
M  V30 8661 O 816.051 1.23232 -1.50091 0
M  V30 8662 C 813.181 1.86666 -2.9287 0
M  V30 8663 C 812.135 1.47341 -4.01839 0
M  V30 8664 C 811.461 2.75571 -4.58219 0
M  V30 8665 C 812.761 0.653479 -5.18196 0
M  V30 8666 H 814.455 0.0971213 -2.99242 0
M  V30 8667 H 812.001 0.0452724 -1.43929 0
M  V30 8668 H 813.954 2.50116 -3.39146 0
M  V30 8669 H 812.678 2.45894 -2.1495 0
M  V30 8670 H 811.337 0.862314 -3.56314 0
M  V30 8671 H 810.985 3.32971 -3.77014 0
M  V30 8672 H 810.685 2.49987 -5.31771 0
M  V30 8673 H 812.209 3.39939 -5.07221 0
M  V30 8674 H 813.623 1.19198 -5.60771 0
M  V30 8675 H 812.02 0.494188 -5.98062 0
M  V30 8676 H 813.09 -0.337004 -4.83728 0
M  V30 8677 N 814.433 1.57553 0.0384317 0
M  V30 8678 C 815.363 2.0898 1.04161 0
M  V30 8679 C 816.344 0.99029 1.38301 0
M  V30 8680 O 817.529 1.26499 1.47349 0
M  V30 8681 C 814.659 2.56145 2.34536 0
M  V30 8682 C 813.613 3.70275 2.14663 0
M  V30 8683 C 812.939 4.03612 3.50715 0
M  V30 8684 C 814.239 4.99067 1.54045 0
M  V30 8685 H 815.933 2.93046 0.613548 0
M  V30 8686 H 813.479 1.40973 0.293684 0
M  V30 8687 H 815.432 2.90741 3.05037 0
M  V30 8688 H 814.156 1.6915 2.79385 0
M  V30 8689 H 812.815 3.36013 1.46597 0
M  V30 8690 H 812.463 3.13698 3.93195 0
M  V30 8691 H 812.163 4.80482 3.38247 0
M  V30 8692 H 813.687 4.40735 4.22593 0
M  V30 8693 H 815.101 5.3168 2.14451 0
M  V30 8694 H 813.498 5.80484 1.52178 0
M  V30 8695 H 814.568 4.8226 0.505259 0
M  V30 8696 N 815.911 -0.310526 1.54511 0
M  V30 8697 C 817.141 -1.06456 1.77061 0
M  V30 8698 C 817.549 -1.81755 0.525528 0
M  V30 8699 O 816.892 -1.76365 -0.513904 0
M  V30 8700 C 816.954 -2.09856 2.91892 0
M  V30 8701 C 816.618 -1.53838 4.30329 0
M  V30 8702 C 817.615 -0.973358 5.10707 0
M  V30 8703 C 815.3 -1.57688 4.76906 0
M  V30 8704 C 817.294 -0.454283 6.35779 0
M  V30 8705 C 814.981 -1.05393 6.01943 0
M  V30 8706 C 815.979 -0.493595 6.81214 0
M  V30 8707 O 815.667 0.0214506 8.03897 0
M  V30 8708 H 815.399 -0.321913 0.594431 0
M  V30 8709 H 817.953 -0.358289 2.02251 0
M  V30 8710 H 816.183 -2.84137 2.62304 0
M  V30 8711 H 817.872 -2.71085 3.02106 0
M  V30 8712 H 818.638 -0.936588 4.75871 0
M  V30 8713 H 814.517 -2.00242 4.1524 0
M  V30 8714 H 818.061 -0.0162657 6.97598 0
M  V30 8715 H 813.958 -1.08782 6.36268 0
M  V30 8716 H 814.726 -0.0927478 8.18447 0
M  V30 8717 N 817.389 -1.46805 -0.573248 0
M  V30 8718 C 818.636 -1.52604 -1.3311 0
M  V30 8719 C 818.964 -0.181633 -1.9365 0
M  V30 8720 O 818.219 0.823775 -1.77517 0
M  V30 8721 C 818.518 -2.58001 -2.47326 0
M  V30 8722 C 818.184 -4.01747 -2.04719 0
M  V30 8723 C 816.846 -4.40881 -1.92814 0
M  V30 8724 C 819.198 -4.92008 -1.71982 0
M  V30 8725 C 816.526 -5.68129 -1.46445 0
M  V30 8726 C 818.878 -6.19703 -1.27089 0
M  V30 8727 C 817.542 -6.57733 -1.13768 0
M  V30 8728 H 816.812 -0.558417 -0.487084 0
M  V30 8729 H 819.459 -1.80327 -0.644538 0
M  V30 8730 H 817.764 -2.23974 -3.2147 0
M  V30 8731 H 819.461 -2.59715 -3.05531 0
M  V30 8732 H 816.051 -3.70819 -2.14922 0
M  V30 8733 H 820.235 -4.62485 -1.8006 0
M  V30 8734 H 815.491 -5.96359 -1.34783 0
M  V30 8735 H 819.665 -6.89064 -1.00814 0
M  V30 8736 H 817.292 -7.56228 -0.776142 0
M  V30 8737 N 818.867 0.818669 -1.34668 0
M  V30 8738 C 820.116 1.57017 -1.26604 0
M  V30 8739 C 820.429 1.94936 0.161036 0
M  V30 8740 O 821.635 2.69051 0.36386 0
M  V30 8741 C 820.091 2.83305 -2.2196 0
M  V30 8742 C 819.699 2.52671 -3.69948 0
M  V30 8743 C 821.443 3.61324 -2.22813 0
M  V30 8744 C 819.35 3.75178 -4.5716 0
M  V30 8745 H 818.28 0.589323 -0.470335 0
M  V30 8746 H 820.931 0.900956 -1.59859 0
M  V30 8747 H 819.313 3.51874 -1.81661 0
M  V30 8748 H 820.487 1.92186 -4.18809 0
M  V30 8749 H 818.802 1.8792 -3.71584 0
M  V30 8750 H 821.399 4.52294 -2.85192 0
M  V30 8751 H 821.742 3.97759 -1.22857 0
M  V30 8752 H 822.275 2.99703 -2.61578 0
M  V30 8753 H 819.014 3.43861 -5.58068 0
M  V30 8754 H 818.534 4.34931 -4.13031 0
M  V30 8755 H 820.213 4.42542 -4.71981 0
M  V30 8756 N 820.346 1.18468 1.03938 0
M  V30 8757 C 821.576 1.0043 1.80547 0
M  V30 8758 C 821.984 -0.450407 1.83761 0
M  V30 8759 O 821.327 -1.32463 1.27276 0
M  V30 8760 C 821.389 1.48437 3.27424 0
M  V30 8761 C 821.053 2.96372 3.47869 0
M  V30 8762 C 822.05 3.94217 3.38953 0
M  V30 8763 C 819.735 3.34831 3.74424 0
M  V30 8764 C 821.729 5.28517 3.56298 0
M  V30 8765 C 819.416 4.69294 3.91416 0
M  V30 8766 C 820.414 5.65946 3.82354 0
M  V30 8767 O 820.102 6.97974 3.98858 0
M  V30 8768 H 819.834 0.354853 0.575374 0
M  V30 8769 H 822.388 1.57473 1.31876 0
M  V30 8770 H 820.618 0.857601 3.7707 0
M  V30 8771 H 822.307 1.2677 3.85596 0
M  V30 8772 H 823.073 3.6585 3.184 0
M  V30 8773 H 818.952 2.60161 3.80575 0
M  V30 8774 H 822.496 6.03943 3.49141 0
M  V30 8775 H 818.393 4.97361 4.11463 0
M  V30 8776 H 819.161 7.04895 4.1601 0
M  V30 8777 N 821.824 -1.22873 0.986916 0
M  V30 8778 C 823.049 -1.96028 0.677341 0
M  V30 8779 C 823.474 -1.72487 -0.750319 0
M  V30 8780 O 822.832 -1.00036 -1.51203 0
M  V30 8781 C 822.88 -3.46983 0.981593 0
M  V30 8782 O 821.984 -4.12328 0.0770729 0
M  V30 8783 H 821.325 -0.613458 0.254096 0
M  V30 8784 H 823.855 -1.56132 1.32227 0
M  V30 8785 H 823.865 -3.9747 0.920969 0
M  V30 8786 H 822.54 -3.63442 2.02194 0
M  V30 8787 H 821.117 -3.72402 0.192666 0
M  V30 8788 N 823.302 -0.75937 -1.38099 0
M  V30 8789 C 824.548 -0.318584 -2.00282 0
M  V30 8790 C 824.881 1.09854 -1.60143 0
M  V30 8791 O 824.156 1.75344 -0.841702 0
M  V30 8792 C 824.439 -0.448047 -3.57302 0
M  V30 8793 C 824.292 -1.9067 -4.07388 0
M  V30 8794 C 825.611 0.155119 -4.39827 0
M  V30 8795 H 822.73 -0.117233 -0.727616 0
M  V30 8796 H 825.372 -0.960097 -1.63958 0
M  V30 8797 H 823.522 0.0981003 -3.88376 0
M  V30 8798 H 825.194 -2.5116 -3.86932 0
M  V30 8799 H 823.437 -2.41979 -3.6004 0
M  V30 8800 H 824.108 -1.94841 -5.1647 0
M  V30 8801 H 826.584 -0.31073 -4.14938 0
M  V30 8802 H 825.46 0.0343264 -5.48889 0
M  V30 8803 H 825.721 1.24407 -4.24235 0
M  V30 8804 N 824.78 1.49157 -0.508906 0
M  V30 8805 C 825.71 2.32109 0.254469 0
M  V30 8806 C 826.691 1.40754 0.955111 0
M  V30 8807 O 827.876 1.69658 0.944983 0
M  V30 8808 C 825.006 3.21458 1.3146 0
M  V30 8809 C 823.96 4.2167 0.733368 0
M  V30 8810 C 823.286 5.00009 1.8946 0
M  V30 8811 C 824.586 5.21544 -0.280875 0
M  V30 8812 H 826.28 2.9618 -0.43795 0
M  V30 8813 H 823.826 1.4243 -0.212062 0
M  V30 8814 H 825.779 3.78305 1.85643 0
M  V30 8815 H 824.503 2.55346 2.03632 0
M  V30 8816 H 823.162 3.65979 0.213231 0
M  V30 8817 H 822.81 4.30338 2.60419 0
M  V30 8818 H 822.51 5.67821 1.51173 0
M  V30 8819 H 824.034 5.59702 2.44061 0
M  V30 8820 H 825.448 5.73039 0.173095 0
M  V30 8821 H 823.845 5.97291 -0.580006 0
M  V30 8822 H 824.915 4.69969 -1.19404 0
M  V30 8823 N 826.258 0.243083 1.55714 0
M  V30 8824 C 827.504 -0.383287 1.99145 0
M  V30 8825 C 827.837 -1.57868 1.13098 0
M  V30 8826 O 827.112 -1.93535 0.193509 0
M  V30 8827 C 827.395 -0.796879 3.51172 0
M  V30 8828 C 827.248 0.403642 4.47985 0
M  V30 8829 C 828.567 -1.64525 4.08191 0
M  V30 8830 H 825.686 -0.137843 0.723995 0
M  V30 8831 H 828.328 0.343631 1.86867 0
M  V30 8832 H 826.478 -1.41625 3.61766 0
M  V30 8833 H 828.15 1.04204 4.49376 0
M  V30 8834 H 826.393 1.04741 4.20965 0
M  V30 8835 H 827.064 0.0709794 5.51954 0
M  V30 8836 H 829.54 -1.12246 4.00674 0
M  V30 8837 H 828.416 -1.9035 5.14838 0
M  V30 8838 H 828.677 -2.61582 3.56409 0
M  V30 8839 N 827.736 -1.57571 -0.0300757 0
M  V30 8840 C 828.985 -1.88407 -0.720126 0
M  V30 8841 C 829.298 -0.841466 -1.76575 0
M  V30 8842 O 830.504 -1.03902 -2.50832 0
M  V30 8843 C 828.96 -3.34348 -1.33188 0
M  V30 8844 C 828.568 -4.46837 -0.32266 0
M  V30 8845 C 830.312 -3.74333 -2.00187 0
M  V30 8846 C 828.219 -5.83838 -0.942703 0
M  V30 8847 H 827.149 -0.702952 -0.272718 0
M  V30 8848 H 829.8 -1.83482 0.0255337 0
M  V30 8849 H 828.182 -3.34014 -2.12721 0
M  V30 8850 H 829.356 -4.58638 0.445887 0
M  V30 8851 H 827.671 -4.15678 0.245181 0
M  V30 8852 H 830.268 -4.74008 -2.47428 0
M  V30 8853 H 830.611 -3.06275 -2.81959 0
M  V30 8854 H 831.144 -3.76837 -1.2743 0
M  V30 8855 H 827.883 -6.55294 -0.164413 0
M  V30 8856 H 827.403 -5.75759 -1.68111 0
M  V30 8857 H 829.082 -6.30535 -1.45034 0
M  V30 8858 N 829.214 0.302327 -1.54673 0
M  V30 8859 C 830.46 1.03924 -1.74149 0
M  V30 8860 C 830.793 1.86968 -0.525041 0
M  V30 8861 O 830.068 1.88538 0.477868 0
M  V30 8862 C 830.351 1.94633 -3.02969 0
M  V30 8863 C 830.204 1.14778 -4.34909 0
M  V30 8864 C 831.523 2.93826 -3.27649 0
M  V30 8865 H 828.642 0.376405 -0.633631 0
M  V30 8866 H 831.284 0.314007 -1.87387 0
M  V30 8867 H 829.434 2.56471 -2.91813 0
M  V30 8868 H 831.106 0.552363 -4.57981 0
M  V30 8869 H 829.349 0.450462 -4.31455 0
M  V30 8870 H 830.02 1.81495 -5.21309 0
M  V30 8871 H 832.496 2.42117 -3.38406 0
M  V30 8872 H 831.372 3.54462 -4.19104 0
M  V30 8873 H 831.633 3.67416 -2.45882 0
M  V30 8874 N 830.692 1.47107 0.565454 0
M  V30 8875 C 831.917 1.57153 1.35343 0
M  V30 8876 C 832.342 0.219247 1.86818 0
M  V30 8877 O 831.7 -0.803539 1.62521 0
M  V30 8878 C 831.748 2.59387 2.50501 0
M  V30 8879 O 830.852 2.14086 3.52478 0
M  V30 8880 H 830.193 0.528209 0.402357 0
M  V30 8881 H 832.723 1.92821 0.684189 0
M  V30 8882 H 832.733 2.79546 2.97184 0
M  V30 8883 H 831.408 3.57579 2.12391 0
M  V30 8884 H 829.985 2.03991 3.12157 0
M  V30 8885 N 832.17 -0.811516 1.35101 0
M  V30 8886 C 833.133 -1.90467 1.27495 0
M  V30 8887 C 834.133 -1.59703 0.187516 0
M  V30 8888 O 835.323 -1.68528 0.440896 0
M  V30 8889 C 832.455 -3.26774 0.971154 0
M  V30 8890 H 833.648 -1.98631 2.2469 0
M  V30 8891 H 831.201 -1.00681 1.19553 0
M  V30 8892 H 831.936 -3.243 0.0028557 0
M  V30 8893 H 831.721 -3.50488 1.75785 0
M  V30 8894 H 833.211 -4.06804 0.943414 0
M  V30 8895 N 833.648 -1.19017 -1.03309 0
M  V30 8896 C 834.611 -0.926076 -2.09658 0
M  V30 8897 C 835.611 0.0917077 -1.60538 0
M  V30 8898 O 836.801 -0.142574 -1.73616 0
M  V30 8899 C 833.933 -0.390958 -3.38651 0
M  V30 8900 H 835.126 -1.86923 -2.3452 0
M  V30 8901 H 832.679 -1.00325 -1.19853 0
M  V30 8902 H 833.414 0.558446 -3.19456 0
M  V30 8903 H 833.199 -1.12474 -3.75622 0
M  V30 8904 H 834.689 -0.225131 -4.16993 0
M  V30 8905 N 835.127 1.22348 -0.993418 0
M  V30 8906 C 836.057 2.26584 -0.564088 0
M  V30 8907 C 837.038 1.65102 0.409298 0
M  V30 8908 O 838.223 1.91872 0.299819 0
M  V30 8909 C 835.353 3.47087 0.121554 0
M  V30 8910 C 834.307 4.21009 -0.770429 0
M  V30 8911 C 833.633 5.34678 0.0481586 0
M  V30 8912 C 834.933 4.79636 -2.06752 0
M  V30 8913 H 836.627 2.62749 -1.43538 0
M  V30 8914 H 834.173 1.26303 -0.691628 0
M  V30 8915 H 836.126 4.19166 0.433303 0
M  V30 8916 H 834.85 3.1002 1.0274 0
M  V30 8917 H 833.509 3.50764 -1.06583 0
M  V30 8918 H 833.157 4.93852 0.954933 0
M  V30 8919 H 832.857 5.85061 -0.545641 0
M  V30 8920 H 834.381 6.09573 0.353991 0
M  V30 8921 H 835.795 5.43654 -1.81969 0
M  V30 8922 H 834.192 5.4036 -2.61019 0
M  V30 8923 H 835.262 3.99659 -2.74592 0
M  V30 8924 N 836.605 0.766683 1.37694 0
M  V30 8925 C 837.835 0.339446 2.03792 0
M  V30 8926 C 838.243 -1.04153 1.57952 0
M  V30 8927 O 837.586 -1.67521 0.753826 0
M  V30 8928 C 837.648 0.29822 3.58261 0
M  V30 8929 C 837.312 1.62293 4.27212 0
M  V30 8930 C 838.309 2.57447 4.51682 0
M  V30 8931 C 835.994 1.89597 4.65143 0
M  V30 8932 C 837.988 3.78117 5.13134 0
M  V30 8933 C 835.675 3.10538 5.26317 0
M  V30 8934 C 836.673 4.04617 5.50249 0
M  V30 8935 O 836.361 5.23429 6.10145 0
M  V30 8936 H 836.093 0.140952 0.661142 0
M  V30 8937 H 838.647 1.04022 1.77111 0
M  V30 8938 H 836.877 -0.458897 3.83967 0
M  V30 8939 H 838.566 -0.101263 4.05774 0
M  V30 8940 H 839.332 2.37633 4.22795 0
M  V30 8941 H 835.211 1.17199 4.45854 0
M  V30 8942 H 838.755 4.51563 5.3173 0
M  V30 8943 H 834.652 3.3024 5.54628 0
M  V30 8944 H 835.42 5.24187 6.28626 0
M  V30 8945 N 838.083 -1.48885 0.516809 0
M  V30 8946 C 839.013 -2.32241 -0.242157 0
M  V30 8947 C 839.994 -1.41258 -0.947633 0
M  V30 8948 O 841.179 -1.70156 -0.935973 0
M  V30 8949 C 838.309 -3.22151 -1.29754 0
M  V30 8950 C 837.263 -4.22053 -0.710995 0
M  V30 8951 C 836.589 -5.01007 -1.86806 0
M  V30 8952 C 837.889 -5.21388 0.30853 0
M  V30 8953 H 839.583 -2.95943 0.453651 0
M  V30 8954 H 837.129 -1.42316 0.219612 0
M  V30 8955 H 839.082 -3.79284 -1.83634 0
M  V30 8956 H 837.806 -2.56423 -2.02274 0
M  V30 8957 H 836.465 -3.66087 -0.193819 0
M  V30 8958 H 836.113 -4.31713 -2.58133 0
M  V30 8959 H 835.813 -5.68615 -1.48159 0
M  V30 8960 H 837.337 -5.60989 -2.4109 0
M  V30 8961 H 838.751 -5.73122 -0.142703 0
M  V30 8962 H 837.148 -5.96975 0.611673 0
M  V30 8963 H 838.218 -4.69329 1.21894 0
M  V30 8964 N 839.561 -0.251338 -1.55583 0
M  V30 8965 C 840.524 0.63305 -2.20284 0
M  V30 8966 C 841.524 1.09941 -1.17344 0
M  V30 8967 O 842.714 1.00341 -1.42399 0
M  V30 8968 C 839.846 1.8706 -2.84993 0
M  V30 8969 H 841.039 0.0684846 -2.99822 0
M  V30 8970 H 838.592 -0.00181653 -1.563 0
M  V30 8971 H 839.327 2.47629 -2.09405 0
M  V30 8972 H 839.112 1.54436 -3.60405 0
M  V30 8973 H 840.602 2.50004 -3.34496 0
M  V30 8974 N 841.039 1.57585 0.0217189 0
M  V30 8975 C 842.287 1.89231 0.709641 0
M  V30 8976 C 842.608 0.849964 1.75501 0
M  V30 8977 O 841.878 -0.115485 1.95559 0
M  V30 8978 H 840.458 0.69838 0.265092 0
M  V30 8979 H 843.12 1.94895 -0.0140688 0
M  V30 8980 H 842.216 2.88333 1.19459 0
M  V30 8981 N 842.517 -0.29412 1.54831 0
M  V30 8982 C 843.766 -1.02614 1.73647 0
M  V30 8983 C 844.079 -1.88193 0.533162 0
M  V30 8984 O 845.285 -2.64713 0.603275 0
M  V30 8985 C 843.741 -1.87417 3.07251 0
M  V30 8986 C 843.349 -1.06806 4.35082 0
M  V30 8987 C 845.093 -2.60176 3.35423 0
M  V30 8988 C 843 -1.90926 5.59733 0
M  V30 8989 H 841.93 -0.386834 0.647206 0
M  V30 8990 H 844.581 -0.282789 1.81308 0
M  V30 8991 H 842.963 -2.65765 2.93572 0
M  V30 8992 H 844.137 -0.330226 4.59615 0
M  V30 8993 H 842.452 -0.455979 4.13896 0
M  V30 8994 H 845.049 -3.23476 4.25755 0
M  V30 8995 H 845.392 -3.29365 2.54606 0
M  V30 8996 H 845.925 -1.88871 3.50103 0
M  V30 8997 H 842.664 -1.26194 6.43238 0
M  V30 8998 H 842.184 -2.62363 5.39375 0
M  V30 8999 H 843.863 -2.48807 5.97247 0
M  V30 9000 N 843.995 -1.47404 -0.557645 0
M  V30 9001 C 844.905 -1.62491 -1.69216 0
M  V30 9002 C 845.921 -0.507764 -1.66426 0
M  V30 9003 O 847.097 -0.775241 -1.85882 0
M  V30 9004 C 844.162 -1.63511 -3.05721 0
M  V30 9005 C 843.223 -2.86648 -3.1958 0
M  V30 9006 C 842.456 -2.87609 -4.49574 0
M  V30 9007 O 842.679 -1.97799 -5.35006 0
M  V30 9008 O 841.613 -3.79465 -4.67215 0
M  V30 9009 H 845.439 -2.58487 -1.59431 0
M  V30 9010 H 843.024 -1.30485 -0.7276 0
M  V30 9011 H 844.906 -1.66863 -3.86956 0
M  V30 9012 H 843.581 -0.706812 -3.15889 0
M  V30 9013 H 842.488 -2.8884 -2.37744 0
M  V30 9014 H 843.821 -3.7877 -3.14316 0
M  V30 9015 N 845.473 0.80434 -1.35529 0
M  V30 9016 C 846.436 1.89788 -1.28503 0
M  V30 9017 C 847.436 1.59601 -0.195983 0
M  V30 9018 O 848.626 1.68292 -0.449827 0
M  V30 9019 C 845.758 3.26255 -0.98847 0
M  V30 9020 H 846.951 1.97436 -2.25741 0
M  V30 9021 H 844.504 1.00046 -1.20086 0
M  V30 9022 H 845.239 3.24294 -0.0200541 0
M  V30 9023 H 845.024 3.49551 -1.77641 0
M  V30 9024 H 846.514 4.06298 -0.964975 0
M  V30 9025 N 846.951 1.19563 1.02676 0
M  V30 9026 C 848.181 1.0234 1.79472 0
M  V30 9027 C 848.589 -0.430891 1.84228 0
M  V30 9028 O 847.932 -1.31106 1.28674 0
M  V30 9029 C 847.994 1.51901 3.25832 0
M  V30 9030 C 847.658 3.00045 3.44706 0
M  V30 9031 C 848.655 3.9779 3.34752 0
M  V30 9032 C 846.34 3.38784 3.70851 0
M  V30 9033 C 848.334 5.32267 3.50672 0
M  V30 9034 C 846.021 4.73419 3.86416 0
M  V30 9035 C 847.019 5.69969 3.7633 0
M  V30 9036 O 846.707 7.02165 3.91432 0
M  V30 9037 H 846.439 0.360936 0.571578 0
M  V30 9038 H 848.993 1.58863 1.30198 0
M  V30 9039 H 847.223 0.897546 3.7614 0
M  V30 9040 H 848.912 1.30853 3.84229 0
M  V30 9041 H 849.678 3.69207 3.14502 0
M  V30 9042 H 845.557 2.64183 3.77794 0
M  V30 9043 H 849.101 6.07612 3.42715 0
M  V30 9044 H 844.998 5.01697 4.06165 0
M  V30 9045 H 845.766 7.09268 4.08511 0
M  V30 9046 N 848.429 -1.21819 0.999893 0
M  V30 9047 C 849.359 -2.26282 0.576096 0
M  V30 9048 C 850.34 -1.65317 -0.400537 0
M  V30 9049 O 851.525 -1.92028 -0.28964 0
M  V30 9050 C 848.655 -3.47147 -0.103145 0
M  V30 9051 C 847.609 -4.20594 0.792745 0
M  V30 9052 C 846.935 -5.34696 -0.0198026 0
M  V30 9053 C 848.235 -4.78533 2.09293 0
M  V30 9054 H 849.929 -2.61984 1.4493 0
M  V30 9055 H 847.475 -1.25935 0.698316 0
M  V30 9056 H 849.428 -4.1939 -0.411068 0
M  V30 9057 H 848.152 -3.1056 -1.01094 0
M  V30 9058 H 846.811 -3.50194 1.08442 0
M  V30 9059 H 846.459 -4.94352 -0.928729 0
M  V30 9060 H 846.159 -5.84764 0.576661 0
M  V30 9061 H 847.683 -6.09752 -0.321659 0
M  V30 9062 H 849.097 -5.42682 1.8485 0
M  V30 9063 H 847.494 -5.38968 2.63881 0
M  V30 9064 H 848.564 -3.98197 2.76708 0
M  V30 9065 N 849.908 -0.773975 -1.37286 0
M  V30 9066 C 850.871 -0.167974 -2.28584 0
M  V30 9067 C 851.871 0.625662 -1.48129 0
M  V30 9068 O 853.061 0.448924 -1.68316 0
M  V30 9069 C 850.193 0.769364 -3.32105 0
M  V30 9070 H 851.386 -0.972806 -2.83684 0
M  V30 9071 H 848.939 -0.542335 -1.46589 0
M  V30 9072 H 849.674 1.59912 -2.82132 0
M  V30 9073 H 849.459 0.202419 -3.91577 0
M  V30 9074 H 850.949 1.18872 -4.00324 0
M  V30 9075 N 851.386 1.48609 -0.524698 0
M  V30 9076 C 852.632 2.02797 0.0113382 0
M  V30 9077 C 852.965 1.40147 1.34433 0
M  V30 9078 O 852.24 0.545368 1.86698 0
M  V30 9079 C 852.523 3.59832 0.138931 0
M  V30 9080 C 852.376 4.32971 -1.21886 0
M  V30 9081 C 853.695 4.3145 0.868265 0
M  V30 9082 H 850.814 0.736995 0.00264645 0
M  V30 9083 H 853.456 1.77388 -0.680704 0
M  V30 9084 H 851.606 3.81612 0.72834 0
M  V30 9085 H 853.278 4.22624 -1.84897 0
M  V30 9086 H 851.521 3.94597 -1.80211 0
M  V30 9087 H 852.192 5.41279 -1.08263 0
M  V30 9088 H 854.668 4.14468 0.368145 0
M  V30 9089 H 853.544 5.41025 0.926428 0
M  V30 9090 H 853.805 3.98358 1.91737 0
M  V30 9091 N 852.864 0.259585 1.55447 0
M  V30 9092 C 853.797 -0.675542 2.17972 0
M  V30 9093 C 854.775 -1.16362 1.13572 0
M  V30 9094 O 855.959 -1.23944 1.42021 0
M  V30 9095 C 853.086 -1.91952 2.79056 0
M  V30 9096 C 852.132 -1.56824 3.96621 0
M  V30 9097 S 852.965 -0.659846 5.31419 0
M  V30 9098 C 854.121 -1.91255 5.95963 0
M  V30 9099 H 854.354 -0.144236 2.9695 0
M  V30 9100 H 851.887 0.0439448 1.54337 0
M  V30 9101 H 853.845 -2.63362 3.14882 0
M  V30 9102 H 852.506 -2.42196 2 0
M  V30 9103 H 851.699 -2.49348 4.37997 0
M  V30 9104 H 851.301 -0.934472 3.62138 0
M  V30 9105 H 853.593 -2.85834 6.14252 0
M  V30 9106 H 854.536 -1.54207 6.91105 0
M  V30 9107 H 854.944 -2.07042 5.25161 0
M  V30 9108 N 854.342 -1.57594 -0.0133615 0
M  V30 9109 C 855.588 -1.90262 -0.702019 0
M  V30 9110 C 855.921 -0.859219 -1.74158 0
M  V30 9111 O 855.196 0.123778 -1.94106 0
M  V30 9112 C 855.479 -3.3354 -1.35732 0
M  V30 9113 C 855.332 -4.48586 -0.330208 0
M  V30 9114 C 856.651 -3.76004 -2.28712 0
M  V30 9115 H 853.77 -0.691943 -0.253739 0
M  V30 9116 H 856.412 -1.89967 0.0351894 0
M  V30 9117 H 854.562 -3.33921 -1.98567 0
M  V30 9118 H 856.234 -4.6034 0.297433 0
M  V30 9119 H 854.477 -4.32394 0.348926 0
M  V30 9120 H 855.148 -5.45762 -0.827508 0
M  V30 9121 H 857.624 -3.77089 -1.75906 0
M  V30 9122 H 856.5 -4.77032 -2.71535 0
M  V30 9123 H 856.761 -3.09129 -3.16056 0
M  V30 9124 N 855.82 0.285905 -1.54985 0
M  V30 9125 C 857.067 1.0192 -1.74982 0
M  V30 9126 C 857.395 1.86743 -0.543816 0
M  V30 9127 O 856.65 1.89874 0.473972 0
M  V30 9128 C 856.949 1.94193 -3.0004 0
M  V30 9129 C 856.615 1.25225 -4.33162 0
M  V30 9130 C 855.277 1.06149 -4.69346 0
M  V30 9131 C 857.629 0.760427 -5.15623 0
M  V30 9132 C 854.957 0.365991 -5.85557 0
M  V30 9133 C 857.309 0.0785787 -6.32551 0
M  V30 9134 C 855.973 -0.124002 -6.67385 0
M  V30 9135 H 855.243 0.372951 -0.640304 0
M  V30 9136 H 857.89 0.292652 -1.89251 0
M  V30 9137 H 856.195 2.73426 -2.80616 0
M  V30 9138 H 857.892 2.51029 -3.12707 0
M  V30 9139 H 854.482 1.41081 -4.04715 0
M  V30 9140 H 858.666 0.895466 -4.88155 0
M  V30 9141 H 853.922 0.198193 -6.11079 0
M  V30 9142 H 858.096 -0.310339 -6.95708 0
M  V30 9143 H 855.723 -0.664918 -7.57287 0
M  V30 9144 N 857.298 1.47698 0.54982 0
M  V30 9145 C 858.261 1.60282 1.63837 0
M  V30 9146 C 859.261 0.477394 1.5355 0
M  V30 9147 O 860.451 0.742665 1.57576 0
M  V30 9148 C 857.583 1.55431 3.03404 0
M  V30 9149 H 858.776 2.57325 1.54026 0
M  V30 9150 H 856.329 1.35999 0.770329 0
M  V30 9151 H 857.064 0.597912 3.1874 0
M  V30 9152 H 856.849 2.37116 3.12279 0
M  V30 9153 H 858.339 1.6739 3.82584 0
M  V30 9154 N 858.776 -0.797141 1.35954 0
M  V30 9155 C 859.706 -1.92387 1.32323 0
M  V30 9156 C 860.687 -1.68967 0.196007 0
M  V30 9157 O 861.872 -1.90193 0.39245 0
M  V30 9158 C 859.002 -3.29286 1.10398 0
M  V30 9159 C 857.956 -3.67212 2.19862 0
M  V30 9160 C 857.282 -5.02377 1.8309 0
M  V30 9161 C 858.582 -3.76602 3.61896 0
M  V30 9162 H 860.276 -1.95683 2.26602 0
M  V30 9163 H 857.822 -0.94007 1.09081 0
M  V30 9164 H 859.775 -4.07721 1.06495 0
M  V30 9165 H 858.499 -3.26358 0.125668 0
M  V30 9166 H 857.158 -2.91069 2.22878 0
M  V30 9167 H 856.806 -4.95961 0.838527 0
M  V30 9168 H 856.506 -5.28722 2.56372 0
M  V30 9169 H 858.03 -5.8324 1.80729 0
M  V30 9170 H 859.444 -4.45246 3.6115 0
M  V30 9171 H 857.841 -4.14425 4.34018 0
M  V30 9172 H 858.911 -2.77906 3.97361 0
M  V30 9173 N 860.254 -1.20106 -1.0204 0
M  V30 9174 C 861.5 -1.01039 -1.75838 0
M  V30 9175 C 861.833 0.456819 -1.88751 0
M  V30 9176 O 861.108 1.33919 -1.41053 0
M  V30 9177 C 861.391 -1.69009 -3.17975 0
M  V30 9178 C 861.244 -3.2315 -3.1288 0
M  V30 9179 C 862.563 -1.42005 -4.16561 0
M  V30 9180 H 859.682 -0.368465 -0.638281 0
M  V30 9181 H 862.324 -1.48066 -1.19064 0
M  V30 9182 H 860.474 -1.29026 -3.66449 0
M  V30 9183 H 862.146 -3.72402 -2.72239 0
M  V30 9184 H 860.389 -3.54253 -2.50374 0
M  V30 9185 H 861.06 -3.65862 -4.13339 0
M  V30 9186 H 863.536 -1.76685 -3.76725 0
M  V30 9187 H 862.412 -1.92101 -5.14187 0
M  V30 9188 H 862.673 -0.346884 -4.40737 0
M  V30 9189 N 861.732 1.21287 -1.00634 0
M  V30 9190 C 862.662 2.25973 -0.588089 0
M  V30 9191 C 863.643 1.65527 0.391764 0
M  V30 9192 O 864.828 1.92179 0.279452 0
M  V30 9193 C 861.958 3.47197 0.0847336 0
M  V30 9194 C 860.912 4.20168 -0.815039 0
M  V30 9195 C 860.238 5.34699 -0.00855393 0
M  V30 9196 C 861.538 4.77416 -2.11828 0
M  V30 9197 H 863.232 2.61212 -1.46317 0
M  V30 9198 H 860.778 1.25563 -0.704985 0
M  V30 9199 H 862.731 4.19602 0.388821 0
M  V30 9200 H 861.455 3.11092 0.994456 0
M  V30 9201 H 860.114 3.49614 -1.10297 0
M  V30 9202 H 859.762 4.94837 0.902499 0
M  V30 9203 H 859.462 5.84449 -0.607664 0
M  V30 9204 H 860.986 6.09914 0.289317 0
M  V30 9205 H 862.4 5.41694 -1.87725 0
M  V30 9206 H 860.797 5.37561 -2.66736 0
M  V30 9207 H 861.867 3.96724 -2.78816 0
M  V30 9208 N 863.21 0.781244 1.36873 0
M  V30 9209 C 864.458 0.349198 1.9906 0
M  V30 9210 C 864.779 -1.0806 1.62321 0
M  V30 9211 O 864.049 -1.74351 0.893229 0
M  V30 9212 H 862.629 0.126126 0.736275 0
M  V30 9213 H 865.291 1.00148 1.67202 0
M  V30 9214 H 864.387 0.434451 3.09061 0
M  V30 9215 N 864.689 -1.48329 0.532571 0
M  V30 9216 C 865.935 -2.03399 0.00755104 0
M  V30 9217 C 866.29 -1.40213 -1.3175 0
M  V30 9218 O 865.583 -0.539633 -1.83844 0
M  V30 9219 C 865.777 -3.57 -0.168943 0
M  V30 9220 C 865.606 -4.35077 1.13745 0
M  V30 9221 C 864.376 -4.75915 1.69803 0
M  V30 9222 C 866.574 -4.71734 2.04869 0
M  V30 9223 N 864.556 -5.38538 2.94703 0
M  V30 9224 C 865.927 -5.34403 3.14346 0
M  V30 9225 C 867.982 -4.53665 2.05164 0
M  V30 9226 C 866.685 -5.80912 4.24186 0
M  V30 9227 C 868.711 -5.01157 3.13999 0
M  V30 9228 C 868.073 -5.63853 4.22195 0
M  V30 9229 H 864.172 -0.780743 0.0443253 0
M  V30 9230 H 866.756 -1.81119 0.714423 0
M  V30 9231 H 864.927 -3.79099 -0.844903 0
M  V30 9232 H 866.659 -3.98708 -0.693804 0
M  V30 9233 H 863.414 -4.57103 1.23909 0
M  V30 9234 H 863.838 -5.74413 3.583 0
M  V30 9235 H 868.48 -4.04571 1.22808 0
M  V30 9236 H 866.198 -6.2901 5.07318 0
M  V30 9237 H 869.784 -4.88965 3.15285 0
M  V30 9238 H 868.664 -5.99935 5.05023 0
M  V30 9239 N 866.167 -0.267825 -1.55308 0
M  V30 9240 C 867.1 0.663973 -2.18327 0
M  V30 9241 C 868.078 1.15759 -1.14187 0
M  V30 9242 O 869.262 1.23189 -1.42677 0
M  V30 9243 C 866.389 1.9047 -2.8007 0
M  V30 9244 C 865.435 1.54718 -3.97447 0
M  V30 9245 S 866.268 0.631654 -5.31762 0
M  V30 9246 C 867.424 1.88092 -5.96969 0
M  V30 9247 H 867.657 0.128486 -2.97022 0
M  V30 9248 H 865.19 -0.052129 -1.54312 0
M  V30 9249 H 867.148 2.61688 -3.16275 0
M  V30 9250 H 865.809 2.41132 -2.01281 0
M  V30 9251 H 865.002 2.47022 -4.39313 0
M  V30 9252 H 864.604 0.915254 -3.62628 0
M  V30 9253 H 866.896 2.82572 -6.15759 0
M  V30 9254 H 867.839 1.50539 -6.91913 0
M  V30 9255 H 868.247 2.04254 -5.26252 0
M  V30 9256 N 867.645 1.57599 0.00500368 0
M  V30 9257 C 868.593 2.09223 1.01628 0
M  V30 9258 C 869.587 1.01113 1.35913 0
M  V30 9259 O 870.793 1.19583 1.34536 0
M  V30 9260 H 867.168 0.667999 0.345372 0
M  V30 9261 H 869.139 2.93188 0.555274 0
M  V30 9262 C 867.888 2.60674 2.30097 0
M  V30 9263 H 867.211 3.43491 2.04582 0
M  V30 9264 H 868.651 3.00479 2.99146 0
M  V30 9265 C 867.11 1.51862 3.00731 0
M  V30 9266 O 867.64 0.898651 3.91519 0
M  V30 9267 N 865.846 1.24729 2.62471 0
M  V30 9268 H 865.393 1.7533 1.88725 0
M  V30 9269 H 865.351 0.521437 3.10046 0
M  V30 9270 N 869.123 -0.277682 1.55134 0
M  V30 9271 C 870.086 -1.32635 1.86924 0
M  V30 9272 C 871.086 -1.42578 0.743507 0
M  V30 9273 O 872.276 -1.4181 1.01171 0
M  V30 9274 C 869.408 -2.70832 2.07034 0
M  V30 9275 H 870.601 -1.0568 2.80663 0
M  V30 9276 H 868.154 -0.515517 1.47554 0
M  V30 9277 H 868.889 -3.02974 1.15661 0
M  V30 9278 H 868.674 -2.65001 2.88993 0
M  V30 9279 H 870.164 -3.46611 2.32918 0
M  V30 9280 N 870.601 -1.47988 -0.541979 0
M  V30 9281 C 871.531 -1.64503 -1.65713 0
M  V30 9282 C 872.512 -0.494116 -1.62765 0
M  V30 9283 O 873.697 -0.725256 -1.80149 0
M  V30 9284 C 870.827 -1.67337 -3.04328 0
M  V30 9285 C 869.781 -2.81809 -3.2213 0
M  V30 9286 C 869.107 -2.69724 -4.61685 0
M  V30 9287 C 870.407 -4.23241 -3.06046 0
M  V30 9288 H 872.101 -2.5786 -1.52147 0
M  V30 9289 H 869.647 -1.24094 -0.730529 0
M  V30 9290 H 871.6 -1.77481 -3.82202 0
M  V30 9291 H 870.324 -0.705514 -3.18889 0
M  V30 9292 H 868.983 -2.71201 -2.46669 0
M  V30 9293 H 868.631 -1.70934 -4.73065 0
M  V30 9294 H 868.331 -3.4653 -4.74543 0
M  V30 9295 H 869.855 -2.81818 -5.41674 0
M  V30 9296 H 871.269 -4.34746 -3.73723 0
M  V30 9297 H 869.666 -5.00952 -3.30405 0
M  V30 9298 H 870.736 -4.40543 -2.02609 0
M  V30 9299 N 872.079 0.78992 -1.36375 0
M  V30 9300 C 873.309 1.57644 -1.33536 0
M  V30 9301 C 873.717 1.89007 0.0855075 0
M  V30 9302 O 873.06 1.50547 1.05267 0
M  V30 9303 C 873.122 2.92424 -2.09113 0
M  V30 9304 C 872.786 2.83793 -3.58205 0
M  V30 9305 C 873.783 2.56072 -4.52464 0
M  V30 9306 C 871.468 3.02386 -4.01084 0
M  V30 9307 C 873.462 2.47044 -5.87578 0
M  V30 9308 C 871.149 2.9298 -5.36289 0
M  V30 9309 C 872.147 2.65347 -6.29349 0
M  V30 9310 O 871.835 2.55935 -7.62071 0
M  V30 9311 H 871.567 0.495639 -0.459694 0
M  V30 9312 H 874.121 0.988354 -1.80058 0
M  V30 9313 H 872.351 3.53282 -1.57254 0
M  V30 9314 H 874.04 3.53693 -1.99139 0
M  V30 9315 H 874.806 2.4141 -4.2065 0
M  V30 9316 H 870.685 3.229 -3.29023 0
M  V30 9317 H 874.229 2.25396 -6.60184 0
M  V30 9318 H 870.126 3.07204 -5.67711 0
M  V30 9319 H 870.894 2.7142 -7.72187 0
M  V30 9320 N 873.557 1.20646 1.01402 0
M  V30 9321 C 874.804 1.01819 1.7504 0
M  V30 9322 C 875.132 -0.449386 1.89237 0
M  V30 9323 O 874.387 -1.34985 1.41695 0
M  V30 9324 C 874.686 1.64991 3.17037 0
M  V30 9325 C 874.352 3.14808 3.22811 0
M  V30 9326 C 873.014 3.55692 3.24094 0
M  V30 9327 C 875.366 4.108 3.2077 0
M  V30 9328 C 872.694 4.9109 3.2101 0
M  V30 9329 C 875.046 5.46147 3.19227 0
M  V30 9330 C 873.71 5.86441 3.18815 0
M  V30 9331 H 872.98 0.372582 0.640518 0
M  V30 9332 H 875.627 1.50108 1.18911 0
M  V30 9333 H 873.932 1.08971 3.76341 0
M  V30 9334 H 875.629 1.47937 3.72714 0
M  V30 9335 H 872.219 2.8224 3.2255 0
M  V30 9336 H 876.403 3.80246 3.18946 0
M  V30 9337 H 871.659 5.21569 3.19023 0
M  V30 9338 H 875.833 6.20272 3.166 0
M  V30 9339 H 873.46 6.91328 3.16179 0
M  V30 9340 N 875.035 -1.20752 1.01276 0
M  V30 9341 C 876.263 -1.94006 0.718976 0
M  V30 9342 C 876.678 -1.74544 -0.719711 0
M  V30 9343 O 876.035 -1.05697 -1.48776 0
M  V30 9344 C 876.086 -3.46208 1.04031 0
M  V30 9345 O 875.807 -3.65031 2.42248 0
M  V30 9346 C 877.308 -4.36614 0.767032 0
M  V30 9347 H 874.528 -0.616743 0.264327 0
M  V30 9348 H 877.072 -1.53352 1.3529 0
M  V30 9349 H 875.227 -3.84756 0.451852 0
M  V30 9350 H 875.641 -4.59054 2.53712 0
M  V30 9351 H 877.115 -5.42076 1.04198 0
M  V30 9352 H 877.592 -4.38182 -0.298851 0
M  V30 9353 H 878.198 -4.03723 1.33746 0
M  V30 9354 N 876.513 -0.788492 -1.36457 0
M  V30 9355 C 877.929 -0.470063 -1.52521 0
M  V30 9356 C 878.129 1.01176 -1.74258 0
M  V30 9357 O 877.185 1.79726 -1.77355 0
M  V30 9358 C 878.498 -1.2997 -2.71161 0
M  V30 9359 C 880.046 -1.2933 -2.85031 0
M  V30 9360 C 880.521 -2.10665 -4.06674 0
M  V30 9361 N 882.012 -2.08107 -4.13819 0
M  V30 9362 C 882.747 -2.6781 -5.07016 0
M  V30 9363 N 882.243 -3.36369 -6.05663 0
M  V30 9364 N 884.036 -2.57549 -4.99625 0
M  V30 9365 H 876.187 -1.7484 -1.20602 0
M  V30 9366 H 878.45 -0.743159 -0.588574 0
M  V30 9367 H 878.156 -2.35051 -2.61618 0
M  V30 9368 H 878.03 -0.940367 -3.6529 0
M  V30 9369 H 880.417 -0.250414 -2.94036 0
M  V30 9370 H 880.498 -1.69239 -1.91812 0
M  V30 9371 H 880.142 -3.14984 -3.98431 0
M  V30 9372 H 880.072 -1.68128 -4.9904 0
M  V30 9373 H 882.563 -1.58208 -3.43189 0
M  V30 9374 H 882.876 -3.79258 -6.73338 0
M  V30 9375 H 881.221 -3.40471 -6.05891 0
M  V30 9376 H 884.412 -2.0359 -4.21508 0
M  V30 9377 H 884.585 -3.0437 -5.72069 0
M  V30 9378 N 877.991 1.48044 -0.54043 0
M  V30 9379 C 879.239 2.02097 -0.0101367 0
M  V30 9380 C 879.56 1.41881 1.33771 0
M  V30 9381 O 878.83 0.587923 1.8687 0
M  V30 9382 H 877.41 0.747 -0.000758716 0
M  V30 9383 H 880.072 1.81639 -0.706634 0
M  V30 9384 H 879.168 3.11969 0.0904474 0
M  V30 9385 N 879.47 0.276058 1.55163 0
M  V30 9386 C 880.4 -0.604633 2.25536 0
M  V30 9387 C 881.381 -1.15813 1.24585 0
M  V30 9388 O 882.566 -1.1921 1.53306 0
M  V30 9389 C 879.696 -1.78836 2.97716 0
M  V30 9390 C 878.65 -1.36635 4.05604 0
M  V30 9391 C 877.976 -2.63325 4.65364 0
M  V30 9392 C 879.276 -0.515858 5.19746 0
M  V30 9393 H 880.97 -0.0177483 2.99395 0
M  V30 9394 H 878.516 -0.00709627 1.43998 0
M  V30 9395 H 880.469 -2.41036 3.45658 0
M  V30 9396 H 879.193 -2.40109 2.21394 0
M  V30 9397 H 877.852 -0.767541 3.58475 0
M  V30 9398 H 877.5 -3.22858 3.85709 0
M  V30 9399 H 877.2 -2.358 5.38212 0
M  V30 9400 H 878.724 -3.26372 5.16056 0
M  V30 9401 H 880.138 -1.04289 5.63735 0
M  V30 9402 H 878.535 -0.335449 5.99162 0
M  V30 9403 H 879.605 0.465137 4.82664 0
M  V30 9404 N 880.948 -1.576 0.00335426 0
M  V30 9405 C 881.895 -2.08632 -0.986975 0
M  V30 9406 C 882.865 -0.982491 -1.33927 0
M  V30 9407 O 884.05 -1.25513 -1.43705 0
M  V30 9408 C 881.19 -2.59705 -2.27261 0
M  V30 9409 C 880.303 -3.84002 -1.97905 0
M  V30 9410 C 879.438 -4.23563 -3.20574 0
M  V30 9411 C 878.477 -5.40688 -2.8692 0
M  V30 9412 N 877.614 -5.75526 -4.02136 0
M  V30 9413 H 882.454 -2.92977 -0.544855 0
M  V30 9414 H 879.991 -1.44831 -0.257376 0
M  V30 9415 H 881.949 -2.87395 -3.02423 0
M  V30 9416 H 880.579 -1.7823 -2.69136 0
M  V30 9417 H 879.631 -3.63199 -1.13096 0
M  V30 9418 H 880.943 -4.69261 -1.69102 0
M  V30 9419 H 880.097 -4.52554 -4.04079 0
M  V30 9420 H 878.836 -3.37019 -3.52518 0
M  V30 9421 H 877.841 -5.11417 -2.01822 0
M  V30 9422 H 879.066 -6.2891 -2.5622 0
M  V30 9423 H 877.012 -4.9194 -4.33971 0
M  V30 9424 H 876.929 -6.55367 -3.76869 0
M  V30 9425 H 878.197 -6.0911 -4.8642 0
M  V30 9426 N 882.426 0.269451 -1.5528 0
M  V30 9427 C 883.356 1.33729 -1.91413 0
M  V30 9428 C 884.337 1.51348 -0.776391 0
M  V30 9429 O 885.522 1.64332 -1.03482 0
M  V30 9430 C 882.652 2.69618 -2.18914 0
M  V30 9431 C 881.606 2.66725 -3.34726 0
M  V30 9432 C 880.932 4.06199 -3.47716 0
M  V30 9433 C 882.232 2.25684 -4.71025 0
M  V30 9434 H 883.926 1.03736 -2.80854 0
M  V30 9435 H 881.472 0.497579 -1.3513 0
M  V30 9436 H 883.425 3.44436 -2.42779 0
M  V30 9437 H 882.149 3.01201 -1.26275 0
M  V30 9438 H 880.808 1.94365 -3.10834 0
M  V30 9439 H 880.456 4.3501 -2.52537 0
M  V30 9440 H 880.156 4.05157 -4.25583 0
M  V30 9441 H 881.68 4.8275 -3.73877 0
M  V30 9442 H 883.094 2.90225 -4.94411 0
M  V30 9443 H 881.491 2.35797 -5.51833 0
M  V30 9444 H 882.561 1.20819 -4.69607 0
M  V30 9445 N 883.904 1.48273 0.534124 0
M  V30 9446 C 885.132 1.59734 1.31501 0
M  V30 9447 C 885.547 0.256047 1.87056 0
M  V30 9448 O 884.904 -0.754086 1.66192 0
M  V30 9449 C 884.955 2.64072 2.46877 0
M  V30 9450 O 884.676 3.92995 1.93613 0
M  V30 9451 C 886.177 2.85933 3.38758 0
M  V30 9452 H 883.397 0.538703 0.40005 0
M  V30 9453 H 885.941 1.9407 0.644762 0
M  V30 9454 H 884.096 2.32606 3.09795 0
M  V30 9455 H 884.51 4.50203 2.69106 0
M  V30 9456 H 885.984 3.62749 4.16073 0
M  V30 9457 H 886.461 1.94603 3.93734 0
M  V30 9458 H 887.067 3.18687 2.81636 0
M  V30 9459 N 885.382 -0.782676 1.36792 0
M  V30 9460 C 886.63 -1.53778 1.31136 0
M  V30 9461 C 886.951 -1.94706 -0.107014 0
M  V30 9462 O 886.221 -1.65465 -1.04872 0
M  V30 9463 H 884.801 -0.570328 0.482426 0
M  V30 9464 H 887.463 -0.932181 1.71162 0
M  V30 9465 H 886.559 -2.44224 1.94321 0
M  V30 9466 N 886.86 -1.21182 -1.00761 0
M  V30 9467 C 888.088 -1.05335 -1.78079 0
M  V30 9468 C 888.503 0.396988 -1.84579 0
M  V30 9469 O 887.86 1.27548 -1.30529 0
M  V30 9470 C 887.911 -1.64089 -3.22113 0
M  V30 9471 O 887.632 -3.03448 -3.15992 0
M  V30 9472 C 889.133 -1.53318 -4.15943 0
M  V30 9473 H 886.353 -0.37005 -0.559736 0
M  V30 9474 H 888.897 -1.60463 -1.26775 0
M  V30 9475 H 887.052 -1.13059 -3.70535 0
M  V30 9476 H 887.466 -3.31492 -4.06465 0
M  V30 9477 H 888.94 -1.99174 -5.14814 0
M  V30 9478 H 889.417 -0.487166 -4.3649 0
M  V30 9479 H 890.023 -2.03582 -3.73409 0
M  V30 9480 N 888.338 1.20213 -1.01915 0
M  V30 9481 C 889.568 1.93341 -0.728197 0
M  V30 9482 C 889.976 1.75151 0.715454 0
M  V30 9483 O 889.319 1.06437 1.49722 0
M  V30 9484 C 889.381 3.45677 -0.9873 0
M  V30 9485 C 889.045 3.8763 -2.42057 0
M  V30 9486 C 890.042 3.93184 -3.40151 0
M  V30 9487 C 887.727 4.19547 -2.76199 0
M  V30 9488 C 889.721 4.30069 -4.70446 0
M  V30 9489 C 887.408 4.56106 -4.06707 0
M  V30 9490 C 888.406 4.6134 -5.03641 0
M  V30 9491 O 888.094 4.97059 -6.31813 0
M  V30 9492 H 887.826 0.621258 -0.266485 0
M  V30 9493 H 890.38 1.53577 -1.36393 0
M  V30 9494 H 888.61 3.85578 -0.294405 0
M  V30 9495 H 890.299 4.00035 -0.687536 0
M  V30 9496 H 891.065 3.68687 -3.15111 0
M  V30 9497 H 886.944 4.14663 -2.01434 0
M  V30 9498 H 890.488 4.34069 -5.46105 0
M  V30 9499 H 886.385 4.80059 -4.31525 0
M  V30 9500 H 887.153 5.15043 -6.36139 0
M  V30 9501 N 889.816 0.795718 1.36037 0
M  V30 9502 C 891.041 0.38204 2.03851 0
M  V30 9503 C 891.466 -0.995553 1.59594 0
M  V30 9504 O 890.824 -1.64258 0.767401 0
M  V30 9505 C 890.872 0.461248 3.57638 0
M  V30 9506 O 889.976 -0.529448 4.08987 0
M  V30 9507 H 889.317 0.161227 0.644129 0
M  V30 9508 H 891.847 1.07858 1.73861 0
M  V30 9509 H 891.857 0.32712 4.06687 0
M  V30 9510 H 890.532 1.46613 3.89201 0
M  V30 9511 H 889.109 -0.35646 3.71192 0
M  V30 9512 N 891.294 -1.47756 0.548274 0
M  V30 9513 C 892.543 -2.01691 0.0187961 0
M  V30 9514 C 892.856 -1.42894 -1.33569 0
M  V30 9515 O 894.062 -1.88438 -1.95457 0
M  V30 9516 C 892.518 -3.59896 -0.016847 0
M  V30 9517 C 892.126 -4.27683 1.33385 0
M  V30 9518 C 893.87 -4.21614 -0.494188 0
M  V30 9519 C 891.777 -5.7787 1.2578 0
M  V30 9520 H 890.707 -0.753993 0.00325648 0
M  V30 9521 H 893.358 -1.69838 0.694792 0
M  V30 9522 H 891.74 -3.88672 -0.758304 0
M  V30 9523 H 892.914 -4.10559 2.09232 0
M  V30 9524 H 891.229 -3.77915 1.7484 0
M  V30 9525 H 893.826 -5.3166 -0.569342 0
M  V30 9526 H 894.169 -3.88176 -1.50417 0
M  V30 9527 H 894.702 -3.97336 0.192138 0
M  V30 9528 H 891.441 -6.15912 2.2435 0
M  V30 9529 H 890.961 -5.97355 0.540997 0
M  V30 9530 H 892.64 -6.39897 0.956109 0
M  V30 9531 N 892.772 -0.284283 -1.55015 0
M  V30 9532 C 893.705 0.640779 -2.19019 0
M  V30 9533 C 894.683 1.14541 -1.15409 0
M  V30 9534 O 895.867 1.21669 -1.43975 0
M  V30 9535 C 892.994 1.87488 -2.82074 0
M  V30 9536 C 892.04 1.50494 -3.99066 0
M  V30 9537 S 892.873 0.575218 -5.32402 0
M  V30 9538 C 894.029 1.81749 -5.98931 0
M  V30 9539 H 894.262 0.0969761 -2.97142 0
M  V30 9540 H 891.795 -0.0684929 -1.54248 0
M  V30 9541 H 893.753 2.58319 -3.19032 0
M  V30 9542 H 892.414 2.38984 -2.03828 0
M  V30 9543 H 891.607 2.42349 -4.41908 0
M  V30 9544 H 891.209 0.876741 -3.63578 0
M  V30 9545 H 893.501 2.76026 -6.18721 0
M  V30 9546 H 894.444 1.43192 -6.93471 0
M  V30 9547 H 894.852 1.98661 -5.28388 0
M  V30 9548 N 894.251 1.57596 -0.0117121 0
M  V30 9549 C 895.5 1.9025 0.669921 0
M  V30 9550 C 895.813 0.887986 1.74282 0
M  V30 9551 O 897.019 1.10516 2.47989 0
M  V30 9552 C 895.475 3.37762 1.24277 0
M  V30 9553 C 895.083 4.47535 0.204076 0
M  V30 9554 C 896.827 3.79509 1.90192 0
M  V30 9555 C 894.734 5.86132 0.787577 0
M  V30 9556 H 893.664 0.709935 0.253984 0
M  V30 9557 H 896.315 1.8335 -0.0741718 0
M  V30 9558 H 894.697 3.39537 2.03791 0
M  V30 9559 H 895.871 4.57294 -0.56733 0
M  V30 9560 H 894.186 4.14881 -0.355305 0
M  V30 9561 H 896.783 4.80402 2.34773 0
M  V30 9562 H 897.126 3.13643 2.7374 0
M  V30 9563 H 897.659 3.80084 1.17394 0
M  V30 9564 H 894.398 6.55499 -0.00938418 0
M  V30 9565 H 893.918 5.80014 1.52787 0
M  V30 9566 H 895.597 6.34158 1.28265 0
M  V30 9567 N 895.729 -0.261212 1.5542 0
M  V30 9568 C 896.661 -1.34571 1.85535 0
M  V30 9569 C 897.674 -1.44979 0.740612 0
M  V30 9570 O 898.863 -1.46584 1.01859 0
M  V30 9571 C 895.963 -2.7258 2.01378 0
M  V30 9572 C 895.136 -2.84618 3.32131 0
M  V30 9573 C 894.195 -4.03379 3.37893 0
M  V30 9574 O 893.221 -3.93581 4.11197 0
M  V30 9575 N 894.423 -5.15893 2.66148 0
M  V30 9576 H 897.188 -1.09078 2.79145 0
M  V30 9577 H 894.749 -0.451327 1.55482 0
M  V30 9578 H 896.741 -3.50342 2.0259 0
M  V30 9579 H 895.311 -2.90844 1.14579 0
M  V30 9580 H 894.531 -1.93647 3.43358 0
M  V30 9581 H 895.819 -2.896 4.18341 0
M  V30 9582 H 895.217 -5.26743 2.06297 0
M  V30 9583 H 893.774 -5.91842 2.73069 0
M  V30 9584 N 897.207 -1.48554 -0.526253 0
M  V30 9585 C 898.154 -1.63354 -1.63046 0
M  V30 9586 C 899.124 -0.475509 -1.59148 0
M  V30 9587 O 900.309 -0.699453 -1.77517 0
M  V30 9588 C 897.449 -1.68271 -3.01295 0
M  V30 9589 C 896.562 -2.95207 -3.15399 0
M  V30 9590 C 895.697 -2.91262 -4.4423 0
M  V30 9591 C 894.736 -4.12886 -4.51876 0
M  V30 9592 N 893.873 -4.06996 -5.721 0
M  V30 9593 H 898.713 -2.57649 -1.49737 0
M  V30 9594 H 896.25 -1.27769 -0.728938 0
M  V30 9595 H 898.208 -1.69104 -3.81392 0
M  V30 9596 H 896.838 -0.774641 -3.13367 0
M  V30 9597 H 895.89 -3.04102 -2.2853 0
M  V30 9598 H 897.202 -3.85187 -3.1691 0
M  V30 9599 H 896.356 -2.90516 -5.32621 0
M  V30 9600 H 895.095 -1.99016 -4.45246 0
M  V30 9601 H 894.1 -4.13902 -3.61891 0
M  V30 9602 H 895.325 -5.06294 -4.52596 0
M  V30 9603 H 893.271 -3.17573 -5.74006 0
M  V30 9604 H 893.188 -4.90685 -5.75121 0
M  V30 9605 H 894.456 -4.10315 -6.62768 0
M  V30 9606 N 898.685 0.775411 -1.37205 0
M  V30 9607 C 899.934 1.52909 -1.31536 0
M  V30 9608 C 900.247 1.9535 0.0989374 0
M  V30 9609 O 901.453 2.70072 0.278079 0
M  V30 9610 C 899.909 2.761 -2.30861 0
M  V30 9611 C 899.517 2.40773 -3.77799 0
M  V30 9612 C 901.261 3.54052 -2.34195 0
M  V30 9613 C 899.168 3.60444 -4.68865 0
M  V30 9614 H 898.098 0.574061 -0.488845 0
M  V30 9615 H 900.749 0.849642 -1.62645 0
M  V30 9616 H 899.131 3.45916 -1.92764 0
M  V30 9617 H 900.305 1.78764 -4.24712 0
M  V30 9618 H 898.62 1.76004 -3.77375 0
M  V30 9619 H 901.217 4.42992 -2.99437 0
M  V30 9620 H 901.56 3.93649 -1.35449 0
M  V30 9621 H 902.093 2.91229 -2.7098 0
M  V30 9622 H 898.832 3.25932 -5.68725 0
M  V30 9623 H 898.352 4.21571 -4.26659 0
M  V30 9624 H 900.031 4.27302 -4.85821 0
M  V30 9625 N 900.163 1.21714 1.00117 0
M  V30 9626 C 901.093 1.00397 2.10815 0
M  V30 9627 C 902.074 -0.0723502 1.69946 0
M  V30 9628 O 903.259 0.0882398 1.93999 0
M  V30 9629 C 900.389 0.572001 3.42557 0
M  V30 9630 C 899.343 1.59331 3.97237 0
M  V30 9631 C 898.669 1.01746 5.2493 0
M  V30 9632 C 899.969 2.98117 4.28863 0
M  V30 9633 H 901.663 1.92983 2.28906 0
M  V30 9634 H 899.209 0.929273 1.10002 0
M  V30 9635 H 901.162 0.410018 4.19401 0
M  V30 9636 H 899.886 -0.38951 3.24269 0
M  V30 9637 H 898.545 1.74293 3.22518 0
M  V30 9638 H 898.193 0.0475491 5.02978 0
M  V30 9639 H 897.893 1.69969 5.62481 0
M  V30 9640 H 899.417 0.866881 6.04415 0
M  V30 9641 H 900.831 2.86578 4.96534 0
M  V30 9642 H 899.228 3.63389 4.77565 0
M  V30 9643 H 900.298 3.48674 3.36979 0
M  V30 9644 N 901.641 -1.19671 1.02551 0
M  V30 9645 C 902.888 -1.89268 0.720002 0
M  V30 9646 C 903.216 -1.79411 -0.751127 0
M  V30 9647 O 902.471 -1.17859 -1.5623 0
M  V30 9648 C 902.77 -3.39647 1.11241 0
M  V30 9649 C 902.436 -3.69706 2.58125 0
M  V30 9650 C 901.098 -3.7762 2.98256 0
M  V30 9651 C 903.45 -3.83301 3.53171 0
M  V30 9652 C 900.778 -3.96594 4.32354 0
M  V30 9653 C 903.13 -4.03788 4.86968 0
M  V30 9654 C 901.794 -4.09934 5.26793 0
M  V30 9655 H 901.064 -0.692579 0.263467 0
M  V30 9656 H 903.711 -1.41738 1.28774 0
M  V30 9657 H 902.016 -3.89052 0.463234 0
M  V30 9658 H 903.713 -3.91809 0.853602 0
M  V30 9659 H 900.303 -3.64152 2.26033 0
M  V30 9660 H 904.487 -3.76534 3.2332 0
M  V30 9661 H 899.743 -3.9959 4.6275 0
M  V30 9662 H 903.917 -4.1325 5.60533 0
M  V30 9663 H 901.544 -4.24389 6.30712 0
M  V30 9664 N 903.119 -0.802921 -1.35613 0
M  V30 9665 C 904.066 -0.20874 -2.29854 0
M  V30 9666 C 905.036 0.655128 -1.52634 0
M  V30 9667 O 906.221 0.600979 -1.81088 0
M  V30 9668 C 903.361 0.639663 -3.3912 0
M  V30 9669 C 902.474 -0.244234 -4.31309 0
M  V30 9670 C 901.609 0.611825 -5.27665 0
M  V30 9671 C 900.648 -0.272698 -6.11492 0
M  V30 9672 N 899.785 0.543122 -6.99996 0
M  V30 9673 H 904.625 -1.01782 -2.80079 0
M  V30 9674 H 902.162 -0.513465 -1.37848 0
M  V30 9675 H 904.12 1.14668 -4.01132 0
M  V30 9676 H 902.75 1.41404 -2.9018 0
M  V30 9677 H 901.802 -0.869322 -3.70334 0
M  V30 9678 H 903.114 -0.925202 -4.90144 0
M  V30 9679 H 902.268 1.18412 -5.95032 0
M  V30 9680 H 901.007 1.32637 -4.69317 0
M  V30 9681 H 900.012 -0.857287 -5.43075 0
M  V30 9682 H 901.237 -0.985051 -6.71918 0
M  V30 9683 H 899.183 1.24171 -6.44141 0
M  V30 9684 H 899.1 -0.0798767 -7.55958 0
M  V30 9685 H 900.368 1.09881 -7.71717 0
M  V30 9686 N 904.597 1.47463 -0.556102 0
M  V30 9687 C 905.874 1.9557 0.0339892 0
M  V30 9688 C 906.254 1.49869 1.48669 0
M  V30 9689 O 905.602 0.737019 2.16288 0
M  V30 9690 C 905.812 3.48826 -0.110343 0
M  V30 9691 C 907.16 4.24585 0.0355716 0
M  V30 9692 O 908.184 3.5618 -0.0378356 0
M  V30 9693 O 907.043 5.46158 0.193299 0
M  V30 9694 H 904.137 0.824461 0.0647521 0
M  V30 9695 H 906.683 1.57868 -0.622547 0
M  V30 9696 H 905.455 3.74891 -1.12126 0
M  V30 9697 H 905.078 3.9329 0.583855 0
M  V30 9698 N 906.075 0.2925 1.54862 0
M  V30 9699 C 907.005 -0.580677 2.26165 0
M  V30 9700 C 907.986 -1.14485 1.25806 0
M  V30 9701 O 909.171 -1.17577 1.54562 0
M  V30 9702 C 906.301 -1.75668 2.99596 0
M  V30 9703 C 905.255 -1.32325 4.07031 0
M  V30 9704 C 904.581 -2.58374 4.68131 0
M  V30 9705 C 905.881 -0.460703 5.20264 0
M  V30 9706 H 907.575 0.0140075 2.99397 0
M  V30 9707 H 905.121 0.00817706 1.43998 0
M  V30 9708 H 907.074 -2.37356 3.48195 0
M  V30 9709 H 905.798 -2.37747 2.23928 0
M  V30 9710 H 904.457 -0.729477 3.59269 0
M  V30 9711 H 904.105 -3.18749 3.89112 0
M  V30 9712 H 903.805 -2.30078 5.40683 0
M  V30 9713 H 905.329 -3.2088 5.19489 0
M  V30 9714 H 906.743 -0.983037 5.64809 0
M  V30 9715 H 905.14 -0.271881 5.99484 0
M  V30 9716 H 906.21 0.516304 4.82143 0
M  V30 9717 N 907.553 -1.57587 0.0200696 0
M  V30 9718 C 908.8 -1.91424 -0.660525 0
M  V30 9719 C 909.128 -0.895626 -1.72652 0
M  V30 9720 O 908.383 0.096771 -1.95461 0
M  V30 9721 C 908.682 -3.32002 -1.32323 0
M  V30 9722 C 908.348 -4.49223 -0.388487 0
M  V30 9723 C 907.01 -4.81021 -0.131184 0
M  V30 9724 C 909.362 -5.20581 0.253906 0
M  V30 9725 C 906.69 -5.81539 0.776471 0
M  V30 9726 C 909.042 -6.22067 1.14956 0
M  V30 9727 C 907.706 -6.52311 1.41584 0
M  V30 9728 H 906.976 -0.700472 -0.241703 0
M  V30 9729 H 909.623 -1.91333 0.0798991 0
M  V30 9730 H 907.928 -3.28312 -2.13819 0
M  V30 9731 H 909.625 -3.5545 -1.85623 0
M  V30 9732 H 906.215 -4.24391 -0.599207 0
M  V30 9733 H 910.399 -4.96253 0.068164 0
M  V30 9734 H 905.655 -6.03322 0.990575 0
M  V30 9735 H 909.829 -6.76484 1.65357 0
M  V30 9736 H 907.456 -7.30017 2.12083 0
M  V30 9737 N 909.032 0.252966 -1.55557 0
M  V30 9738 C 910.448 0.60118 -1.47844 0
M  V30 9739 C 910.648 1.88612 -0.709055 0
M  V30 9740 O 909.704 2.51395 -0.235964 0
M  V30 9741 C 911.017 0.709539 -2.92209 0
M  V30 9742 C 912.565 0.802269 -3.02544 0
M  V30 9743 C 913.04 0.94224 -4.48203 0
M  V30 9744 N 914.531 1.00726 -4.52116 0
M  V30 9745 C 915.266 1.13472 -5.6206 0
M  V30 9746 N 914.762 1.22811 -6.81828 0
M  V30 9747 N 916.555 1.1674 -5.49844 0
M  V30 9748 H 908.706 -0.590635 -2.04023 0
M  V30 9749 H 910.969 -0.202986 -0.926013 0
M  V30 9750 H 910.675 -0.164505 -3.51315 0
M  V30 9751 H 910.549 1.58343 -3.42356 0
M  V30 9752 H 912.936 1.66677 -2.43522 0
M  V30 9753 H 913.017 -0.0966469 -2.55617 0
M  V30 9754 H 912.661 0.0823209 -5.07833 0
M  V30 9755 H 912.591 1.85611 -4.92805 0
M  V30 9756 H 915.082 0.946684 -3.6585 0
M  V30 9757 H 915.395 1.32426 -7.61369 0
M  V30 9758 H 913.74 1.19779 -6.84601 0
M  V30 9759 H 916.931 1.09089 -4.55211 0
M  V30 9760 H 917.104 1.26329 -6.35567 0
M  V30 9761 N 910.51 1.48831 0.518367 0
M  V30 9762 C 911.757 1.57439 1.27355 0
M  V30 9763 C 912.085 0.25338 1.92843 0
M  V30 9764 O 911.34 -0.757323 1.80452 0
M  V30 9765 C 911.639 2.67003 2.3758 0
M  V30 9766 C 911.305 4.09069 1.89667 0
M  V30 9767 C 909.967 4.47733 1.76319 0
M  V30 9768 C 912.319 4.98052 1.53603 0
M  V30 9769 C 909.647 5.73173 1.25258 0
M  V30 9770 C 911.999 6.23992 1.04001 0
M  V30 9771 C 910.663 6.61503 0.892784 0
M  V30 9772 H 909.933 0.57611 0.466023 0
M  V30 9773 H 912.58 1.82595 0.577166 0
M  V30 9774 H 910.885 2.35751 3.12936 0
M  V30 9775 H 912.582 2.70876 2.95681 0
M  V30 9776 H 909.172 3.7854 2.01011 0
M  V30 9777 H 913.356 4.68849 1.62771 0
M  V30 9778 H 908.612 6.0095 1.12557 0
M  V30 9779 H 912.786 6.92331 0.751706 0
M  V30 9780 H 910.413 7.58587 0.494939 0
M  V30 9781 N 911.988 -0.768124 1.37614 0
M  V30 9782 C 912.918 -1.89537 1.36374 0
M  V30 9783 C 913.899 -1.68513 0.231803 0
M  V30 9784 O 915.084 -1.89318 0.432705 0
M  V30 9785 C 912.214 -3.26871 1.17358 0
M  V30 9786 C 911.168 -3.62466 2.27602 0
M  V30 9787 C 910.494 -4.9838 1.93705 0
M  V30 9788 C 911.794 -3.68841 3.69802 0
M  V30 9789 H 913.488 -1.90832 2.30702 0
M  V30 9790 H 911.034 -0.91672 1.11051 0
M  V30 9791 H 912.987 -4.05371 1.15119 0
M  V30 9792 H 911.711 -3.26018 0.194865 0
M  V30 9793 H 910.37 -2.86276 2.29002 0
M  V30 9794 H 910.018 -4.94071 0.943539 0
M  V30 9795 H 909.718 -5.23165 2.6753 0
M  V30 9796 H 911.242 -5.79276 1.93059 0
M  V30 9797 H 912.656 -4.37485 3.70513 0
M  V30 9798 H 911.053 -4.05126 4.42711 0
M  V30 9799 H 912.123 -2.69415 4.03167 0
M  V30 9800 N 913.466 -1.22244 -0.994698 0
M  V30 9801 C 914.396 -1.01513 -2.10279 0
M  V30 9802 C 915.377 0.0633365 -1.69982 0
M  V30 9803 O 916.562 -0.0985268 -1.9395 0
M  V30 9804 C 913.692 -0.59016 -3.42249 0
M  V30 9805 C 912.646 -1.61436 -3.96387 0
M  V30 9806 C 911.972 -1.04528 -5.24383 0
M  V30 9807 C 913.272 -3.00388 -4.27276 0
M  V30 9808 H 914.966 -1.94194 -2.2788 0
M  V30 9809 H 912.512 -0.935094 -1.09508 0
M  V30 9810 H 914.465 -0.432254 -4.19177 0
M  V30 9811 H 913.189 0.372308 -3.24471 0
M  V30 9812 H 911.848 -1.76001 -3.21589 0
M  V30 9813 H 911.496 -0.0742225 -5.02945 0
M  V30 9814 H 911.196 -1.72949 -5.61571 0
M  V30 9815 H 912.72 -0.898922 -6.03947 0
M  V30 9816 H 914.134 -2.89207 -4.95007 0
M  V30 9817 H 912.531 -3.65916 -4.75631 0
M  V30 9818 H 913.601 -3.50456 -3.35125 0
M  V30 9819 N 914.944 1.19125 -1.03184 0
M  V30 9820 C 916.19 1.89163 -0.731111 0
M  V30 9821 C 916.523 1.79604 0.738662 0
M  V30 9822 O 915.798 1.19037 1.53819 0
M  V30 9823 C 916.081 3.39986 -1.18666 0
M  V30 9824 C 915.934 3.58401 -2.71788 0
M  V30 9825 C 917.253 4.33316 -0.769772 0
M  V30 9826 H 914.372 0.686908 -0.267069 0
M  V30 9827 H 917.014 1.40205 -1.28229 0
M  V30 9828 H 915.164 3.81813 -0.717736 0
M  V30 9829 H 916.836 3.25727 -3.26649 0
M  V30 9830 H 915.079 3.01355 -3.12038 0
M  V30 9831 H 915.75 4.64189 -2.98719 0
M  V30 9832 H 918.226 3.9922 -1.17314 0
M  V30 9833 H 917.102 5.37427 -1.11637 0
M  V30 9834 H 917.363 4.40884 0.327681 0
M  V30 9835 N 916.422 0.810101 1.35185 0
M  V30 9836 C 917.652 0.404109 2.02609 0
M  V30 9837 C 918.06 -0.990748 1.61186 0
M  V30 9838 O 917.403 -1.65038 0.80674 0
M  V30 9839 C 917.465 0.412047 3.57131 0
M  V30 9840 C 917.129 1.75802 4.21832 0
M  V30 9841 C 918.126 2.71687 4.43263 0
M  V30 9842 C 915.811 2.04299 4.58876 0
M  V30 9843 C 917.805 3.9425 5.00845 0
M  V30 9844 C 915.492 3.27125 5.16171 0
M  V30 9845 C 916.49 4.21918 5.37098 0
M  V30 9846 O 916.178 5.42576 5.93184 0
M  V30 9847 H 915.91 0.161914 0.656323 0
M  V30 9848 H 918.464 1.09605 1.73712 0
M  V30 9849 H 916.694 -0.336509 3.85233 0
M  V30 9850 H 918.383 0.0278817 4.0589 0
M  V30 9851 H 919.149 2.50964 4.15021 0
M  V30 9852 H 915.028 1.31324 4.41899 0
M  V30 9853 H 918.572 4.68251 5.17094 0
M  V30 9854 H 914.469 3.47718 5.43841 0
M  V30 9855 H 915.237 5.43921 6.11631 0
M  V30 9856 N 917.9 -1.47166 0.563914 0
M  V30 9857 C 918.83 -2.32894 -0.168148 0
M  V30 9858 C 919.811 -1.44202 -0.902214 0
M  V30 9859 O 920.996 -1.73048 -0.881365 0
M  V30 9860 C 918.126 -3.26116 -1.19439 0
M  V30 9861 C 917.08 -4.24101 -0.576363 0
M  V30 9862 C 916.406 -5.06696 -1.70772 0
M  V30 9863 C 917.706 -5.20142 0.47425 0
M  V30 9864 H 919.4 -2.9435 0.547573 0
M  V30 9865 H 916.946 -1.41545 0.264778 0
M  V30 9866 H 918.899 -3.84935 -1.71474 0
M  V30 9867 H 917.623 -2.62728 -1.94014 0
M  V30 9868 H 916.282 -3.66519 -0.0772534 0
M  V30 9869 H 915.93 -4.39707 -2.44268 0
M  V30 9870 H 915.63 -5.7304 -1.29994 0
M  V30 9871 H 917.154 -5.68375 -2.2312 0
M  V30 9872 H 918.568 -5.73286 0.0397035 0
M  V30 9873 H 916.965 -5.94726 0.801287 0
M  V30 9874 H 918.035 -4.65214 1.36764 0
M  V30 9875 N 919.378 -0.300708 -1.54705 0
M  V30 9876 C 920.308 0.568675 -2.26469 0
M  V30 9877 C 921.289 1.13817 -1.26411 0
M  V30 9878 O 922.474 1.16756 -1.55183 0
M  V30 9879 C 919.604 1.74077 -3.00524 0
M  V30 9880 C 918.558 1.30165 -4.07727 0
M  V30 9881 C 917.884 2.55888 -4.69495 0
M  V30 9882 C 919.184 0.433106 -5.20501 0
M  V30 9883 H 920.878 -0.0298851 -2.99385 0
M  V30 9884 H 918.424 -0.0158135 -1.43991 0
M  V30 9885 H 920.377 2.35506 -3.49449 0
M  V30 9886 H 919.101 2.36556 -2.25186 0
M  V30 9887 H 917.76 0.710414 -3.59651 0
M  V30 9888 H 917.408 3.16681 -3.90797 0
M  V30 9889 H 917.108 2.27207 -5.41895 0
M  V30 9890 H 918.632 3.18121 -5.21183 0
M  V30 9891 H 920.046 0.95307 -5.65322 0
M  V30 9892 H 918.443 0.240085 -5.9962 0
M  V30 9893 H 919.513 -0.541866 -4.81863 0
M  V30 9894 N 920.856 1.57574 -0.0284266 0
M  V30 9895 C 922.103 1.91772 0.650364 0
M  V30 9896 C 922.431 0.904769 1.72175 0
M  V30 9897 O 921.686 -0.0864038 1.95509 0
M  V30 9898 C 921.985 3.32699 1.3056 0
M  V30 9899 C 921.651 4.49423 0.364658 0
M  V30 9900 C 920.313 4.81084 0.105672 0
M  V30 9901 C 922.665 5.20439 -0.28151 0
M  V30 9902 C 919.993 5.81119 -0.8073 0
M  V30 9903 C 922.345 6.21449 -1.18253 0
M  V30 9904 C 921.009 6.51551 -1.45042 0
M  V30 9905 H 920.279 0.701744 0.237985 0
M  V30 9906 H 922.926 1.91288 -0.0900448 0
M  V30 9907 H 921.231 3.29441 2.12075 0
M  V30 9908 H 922.928 3.5643 1.83736 0
M  V30 9909 H 919.518 4.24703 0.576692 0
M  V30 9910 H 923.702 4.9621 -0.0944806 0
M  V30 9911 H 918.958 6.02788 -1.02256 0
M  V30 9912 H 923.132 6.75597 -1.68942 0
M  V30 9913 H 920.759 7.28882 -2.15951 0
M  V30 9914 N 922.334 -0.244713 1.55689 0
M  V30 9915 C 923.267 -1.32946 1.85474 0
M  V30 9916 C 924.245 -1.46279 0.710021 0
M  V30 9917 O 925.429 -1.62459 0.956004 0
M  V30 9918 C 922.556 -2.7027 2.04137 0
M  V30 9919 C 921.602 -2.74075 3.2678 0
M  V30 9920 S 922.435 -2.30465 4.8337 0
M  V30 9921 C 923.591 -3.69709 5.05041 0
M  V30 9922 H 923.824 -1.07482 2.77191 0
M  V30 9923 H 921.357 -0.445807 1.47824 0
M  V30 9924 H 923.315 -3.4934 2.15574 0
M  V30 9925 H 921.976 -2.9297 1.13259 0
M  V30 9926 H 921.169 -3.74932 3.36812 0
M  V30 9927 H 920.771 -2.03051 3.1408 0
M  V30 9928 H 923.063 -4.65222 4.92518 0
M  V30 9929 H 924.006 -3.6461 6.07014 0
M  V30 9930 H 924.414 -3.62323 4.32877 0
M  V30 9931 N 923.813 -1.49104 -0.510467 0
M  V30 9932 C 925.062 -1.57362 -1.26175 0
M  V30 9933 C 925.375 -0.261218 -1.93848 0
M  V30 9934 O 926.581 -0.222238 -2.70589 0
M  V30 9935 C 925.037 -2.77606 -2.29048 0
M  V30 9936 C 924.645 -4.15567 -1.67357 0
M  V30 9937 C 926.389 -2.95188 -3.05064 0
M  V30 9938 C 924.296 -5.27046 -2.68285 0
M  V30 9939 H 923.226 -0.585887 -0.474608 0
M  V30 9940 H 925.877 -1.75474 -0.536753 0
M  V30 9941 H 924.259 -2.52968 -3.04669 0
M  V30 9942 H 925.433 -4.50304 -0.977924 0
M  V30 9943 H 923.748 -4.03264 -1.03765 0
M  V30 9944 H 926.345 -3.75643 -3.80521 0
M  V30 9945 H 926.688 -2.05385 -3.62108 0
M  V30 9946 H 927.221 -3.19821 -2.36558 0
M  V30 9947 H 923.96 -6.18878 -2.16034 0
M  V30 9948 H 923.48 -4.96774 -3.36118 0
M  V30 9949 H 925.159 -5.55983 -3.30896 0
M  V30 9950 N 925.291 0.760815 -1.38019 0
M  V30 9951 C 926.539 1.51673 -1.33566 0
M  V30 9952 C 926.86 1.94852 0.076024 0
M  V30 9953 O 926.13 1.67112 1.02227 0
M  V30 9954 H 924.71 0.562581 -0.491438 0
M  V30 9955 H 927.372 0.904832 -1.72623 0
M  V30 9956 H 926.468 2.41102 -1.98182 0
M  V30 9957 N 926.769 1.22769 0.988202 0
M  V30 9958 C 927.999 1.07998 1.76125 0
M  V30 9959 C 928.407 -0.372062 1.85506 0
M  V30 9960 O 927.75 -1.26946 1.3278 0
M  V30 9961 C 927.812 1.6219 3.20834 0
M  V30 9962 C 927.476 3.1086 3.34986 0
M  V30 9963 C 928.473 4.08239 3.21927 0
M  V30 9964 C 926.158 3.50411 3.59886 0
M  V30 9965 C 928.152 5.43154 3.33561 0
M  V30 9966 C 925.839 4.85473 3.71159 0
M  V30 9967 C 926.837 5.81653 3.58006 0
M  V30 9968 O 926.525 7.14263 3.68895 0
M  V30 9969 H 926.257 0.378937 0.559806 0
M  V30 9970 H 928.811 1.62925 1.25078 0
M  V30 9971 H 927.041 1.01676 3.73094 0
M  V30 9972 H 928.73 1.43011 3.79872 0
M  V30 9973 H 929.496 3.79025 3.02597 0
M  V30 9974 H 925.375 2.76068 3.69198 0
M  V30 9975 H 928.919 6.18207 3.23211 0
M  V30 9976 H 924.816 5.14365 3.89998 0
M  V30 9977 H 925.584 7.21906 3.85739 0
M  V30 9978 N 928.247 -1.18576 1.03814 0
M  V30 9979 C 929.21 -2.2033 0.63146 0
M  V30 9980 C 930.21 -1.57787 -0.309816 0
M  V30 9981 O 931.4 -1.73938 -0.0955598 0
M  V30 9982 C 928.532 -3.40818 -0.0745963 0
M  V30 9983 H 929.725 -2.57824 1.53189 0
M  V30 9984 H 927.278 -1.32416 0.830398 0
M  V30 9985 H 928.013 -3.08853 -0.988947 0
M  V30 9986 H 927.798 -3.87453 0.6019 0
M  V30 9987 H 929.288 -4.16166 -0.345727 0
M  V30 9988 N 929.725 -0.817259 -1.34754 0
M  V30 9989 C 930.95 -0.414423 -2.03217 0
M  V30 9990 C 931.375 0.970037 -1.61158 0
M  V30 9991 O 930.733 1.63016 -0.793436 0
M  V30 9992 C 930.781 -0.518087 -3.56859 0
M  V30 9993 O 929.885 0.464314 -4.09778 0
M  V30 9994 H 929.226 -0.171454 -0.641482 0
M  V30 9995 H 931.756 -1.10611 -1.72123 0
M  V30 9996 H 931.766 -0.391779 -4.06115 0
M  V30 9997 H 930.441 -1.52786 -3.86819 0
M  V30 9998 H 929.018 0.297361 -3.71712 0
M  V30 9999 N 931.203 1.46865 -0.571711 0
M  V30 10000 C 932.166 2.28658 0.157499 0
M  V30 10001 C 933.166 1.37773 0.829172 0
M  V30 10002 O 934.356 1.6026 0.682811 0
M  V30 10003 C 931.488 3.17859 1.23202 0
M  V30 10004 H 932.681 2.94603 -0.561171 0
M  V30 10005 H 930.234 1.52793 -0.329229 0
M  V30 10006 H 930.969 2.56637 1.98262 0
M  V30 10007 H 930.754 3.84762 0.755031 0
M  V30 10008 H 932.244 3.7945 1.74378 0
M  V30 10009 N 932.681 0.308908 1.54543 0
M  V30 10010 C 933.611 -0.556657 2.26768 0
M  V30 10011 C 934.592 -1.13145 1.27013 0
M  V30 10012 O 935.777 -1.15931 1.558 0
M  V30 10013 C 932.907 -1.72481 3.01443 0
M  V30 10014 C 931.861 -1.28001 4.08411 0
M  V30 10015 C 931.187 -2.53395 4.70845 0
M  V30 10016 C 932.487 -0.405497 5.20724 0
M  V30 10017 H 934.181 0.0457618 2.99365 0
M  V30 10018 H 931.727 0.0234495 1.43981 0
M  V30 10019 H 933.68 -2.3365 3.50693 0
M  V30 10020 H 932.404 -2.35359 2.26437 0
M  V30 10021 H 931.063 -0.69133 3.60022 0
M  V30 10022 H 930.711 -3.14604 3.92471 0
M  V30 10023 H 930.411 -2.2433 5.43093 0
M  V30 10024 H 931.935 -3.15352 5.22863 0
M  V30 10025 H 933.349 -0.923076 5.6582 0
M  V30 10026 H 931.746 -0.208282 5.99738 0
M  V30 10027 H 932.816 0.567412 4.81569 0
M  V30 10028 N 934.159 -1.57557 0.0367827 0
M  V30 10029 C 935.405 -1.92399 -0.641133 0
M  V30 10030 C 935.738 -0.914191 -1.71336 0
M  V30 10031 O 935.013 0.0619616 -1.94401 0
M  V30 10032 C 935.296 -3.37689 -1.25052 0
M  V30 10033 C 935.149 -4.4941 -0.187326 0
M  V30 10034 C 936.468 -3.8309 -2.16634 0
M  V30 10035 H 933.587 -0.699666 -0.231597 0
M  V30 10036 H 936.229 -1.89759 0.0956083 0
M  V30 10037 H 934.379 -3.40069 -1.87843 0
M  V30 10038 H 936.051 -4.59161 0.443736 0
M  V30 10039 H 934.294 -4.31065 0.486313 0
M  V30 10040 H 934.965 -5.48119 -0.653459 0
M  V30 10041 H 937.441 -3.82494 -1.63821 0
M  V30 10042 H 936.317 -4.85429 -2.56222 0
M  V30 10043 H 936.578 -3.19028 -3.06062 0
M  V30 10044 N 935.637 0.236453 -1.55816 0
M  V30 10045 C 936.862 0.98449 -1.82545 0
M  V30 10046 C 937.287 1.77755 -0.615206 0
M  V30 10047 O 936.645 1.75982 0.435895 0
M  V30 10048 C 936.693 1.88973 -3.07118 0
M  V30 10049 O 935.797 2.98298 -2.84766 0
M  V30 10050 H 935.138 0.279577 -0.602273 0
M  V30 10051 H 937.668 0.254277 -2.03014 0
M  V30 10052 H 937.678 2.3024 -3.36829 0
M  V30 10053 H 936.353 1.30671 -3.94839 0
M  V30 10054 H 934.93 2.61085 -2.6625 0
M  V30 10055 N 937.115 1.49373 0.502552 0
M  V30 10056 C 938.045 1.68839 1.61294 0
M  V30 10057 C 939.026 0.537096 1.61398 0
M  V30 10058 O 940.211 0.772764 1.78163 0
M  V30 10059 C 937.341 1.75347 2.99784 0
M  V30 10060 C 936.295 2.90251 3.14545 0
M  V30 10061 C 935.621 2.8187 4.54371 0
M  V30 10062 C 936.921 4.31207 2.94717 0
M  V30 10063 H 938.615 2.61803 1.45257 0
M  V30 10064 H 936.161 1.25987 0.697371 0
M  V30 10065 H 938.114 1.87552 3.77362 0
M  V30 10066 H 936.838 0.789814 3.16906 0
M  V30 10067 H 935.497 2.77646 2.39392 0
M  V30 10068 H 935.145 1.83416 4.68367 0
M  V30 10069 H 934.845 3.5899 4.65188 0
M  V30 10070 H 936.369 2.96081 5.34012 0
M  V30 10071 H 937.783 4.44501 3.62065 0
M  V30 10072 H 936.18 5.09536 3.17007 0
M  V30 10073 H 937.25 4.45759 1.90857 0
M  V30 10074 N 938.594 -0.753485 1.38421 0
M  V30 10075 C 939.524 -1.8808 1.38377 0
M  V30 10076 C 940.505 -1.68258 0.249664 0
M  V30 10077 O 941.69 -1.88848 0.45276 0
M  V30 10078 C 938.82 -3.25608 1.20818 0
M  V30 10079 C 937.774 -3.60032 2.31433 0
M  V30 10080 C 937.1 -4.96297 1.9898 0
M  V30 10081 C 938.4 -3.64898 3.73694 0
M  V30 10082 H 940.094 -1.88375 2.32713 0
M  V30 10083 H 937.64 -0.90489 1.12017 0
M  V30 10084 H 939.593 -4.04127 1.19412 0
M  V30 10085 H 938.317 -3.25793 0.229433 0
M  V30 10086 H 936.976 -2.83831 2.32025 0
M  V30 10087 H 936.624 -4.93043 0.995889 0
M  V30 10088 H 936.324 -5.20298 2.73063 0
M  V30 10089 H 937.848 -5.77196 1.99193 0
M  V30 10090 H 939.262 -4.33531 3.75132 0
M  V30 10091 H 937.659 -4.00407 4.46983 0
M  V30 10092 H 938.729 -2.65124 4.06002 0
M  V30 10093 N 940.072 -1.23292 -0.981677 0
M  V30 10094 C 941.02 -1.0104 -2.09508 0
M  V30 10095 C 942.014 0.0501977 -1.69326 0
M  V30 10096 O 943.22 -0.103197 -1.79704 0
M  V30 10097 H 939.595 -0.309629 -0.685298 0
M  V30 10098 H 941.566 -1.95493 -2.25444 0
M  V30 10099 C 940.315 -0.616885 -3.42184 0
M  V30 10100 H 939.638 -1.4247 -3.73554 0
M  V30 10101 H 941.078 -0.500688 -4.21033 0
M  V30 10102 C 939.537 0.674721 -3.30074 0
M  V30 10103 O 940.067 1.72421 -3.62814 0
M  V30 10104 N 938.273 0.650151 -2.83234 0
M  V30 10105 H 937.82 -0.204225 -2.56789 0
M  V30 10106 H 937.778 1.51458 -2.75514 0
M  V30 10107 N 941.55 1.18024 -1.04442 0
M  V30 10108 C 942.961 1.69749 -0.777312 0
M  V30 10109 C 943.312 1.83234 0.701399 0
M  V30 10110 O 942.437 1.51452 1.54568 0
M  V30 10111 C 943.032 3.08321 -1.40441 0
M  V30 10112 C 941.591 3.57243 -1.18553 0
M  V30 10113 C 940.738 2.33695 -1.49271 0
M  V30 10114 H 943.689 1.02647 -1.21035 0
M  V30 10115 H 943.71 3.71787 -0.809628 0
M  V30 10116 H 943.222 2.98474 -2.48062 0
M  V30 10117 H 941.323 3.72379 -0.128221 0
M  V30 10118 H 941.436 4.40451 -1.88519 0
M  V30 10119 H 939.8 2.37792 -0.912526 0
M  V30 10120 H 940.583 2.26464 -2.5801 0
M  V30 10121 N 943.028 0.824394 1.34319 0
M  V30 10122 C 944.268 0.419044 2.00058 0
M  V30 10123 C 944.632 -0.999504 1.63933 0
M  V30 10124 O 945.833 -1.50781 2.22527 0
M  V30 10125 C 944.104 0.616897 3.52036 0
M  V30 10126 S 945.663 0.304614 4.37741 0
M  V30 10127 H 942.481 0.158265 0.693162 0
M  V30 10128 H 945.083 1.07053 1.63585 0
M  V30 10129 H 943.787 1.64896 3.75816 0
M  V30 10130 H 943.318 -0.0492693 3.93369 0
M  V30 10131 H 945.333 -0.88114 4.88314 0
M  V30 10132 N 944.506 -1.46559 0.579492 0
M  V30 10133 C 945.469 -2.28739 -0.145371 0
M  V30 10134 C 946.469 -1.38211 -0.821854 0
M  V30 10135 O 947.659 -1.6062 -0.674302 0
M  V30 10136 C 944.791 -3.18507 -1.21515 0
M  V30 10137 H 945.984 -2.94301 0.576786 0
M  V30 10138 H 943.537 -1.52616 0.337327 0
M  V30 10139 H 944.272 -2.57685 -1.96899 0
M  V30 10140 H 944.057 -3.85157 -0.734616 0
M  V30 10141 H 945.547 -3.80369 -1.72363 0
M  V30 10142 N 945.984 -0.3171 -1.54377 0
M  V30 10143 C 946.932 0.567371 -2.25574 0
M  V30 10144 C 947.926 1.12387 -1.2675 0
M  V30 10145 O 949.132 1.07266 -1.44548 0
M  V30 10146 H 945.507 0.201605 -0.724472 0
M  V30 10147 H 947.478 -0.0554644 -2.98348 0
M  V30 10148 C 946.227 1.71984 -3.02187 0
M  V30 10149 H 945.55 1.30086 -3.78044 0
M  V30 10150 H 946.99 2.31443 -3.5526 0
M  V30 10151 C 945.449 2.6336 -2.10103 0
M  V30 10152 O 945.979 3.64899 -1.67962 0
M  V30 10153 N 944.185 2.3145 -1.75725 0
M  V30 10154 H 943.732 1.48921 -2.10191 0
M  V30 10155 H 943.69 2.92852 -1.14391 0
M  V30 10156 N 947.462 1.57535 -0.0451378 0
M  V30 10157 C 948.395 2.06721 0.96653 0
M  V30 10158 C 949.373 0.966392 1.30766 0
M  V30 10159 O 950.557 1.23789 1.42157 0
M  V30 10160 C 947.684 2.50266 2.2822 0
M  V30 10161 C 946.73 3.71525 2.09455 0
M  V30 10162 S 947.563 5.17453 1.37851 0
M  V30 10163 C 948.719 5.64308 2.70753 0
M  V30 10164 H 948.952 2.92207 0.547911 0
M  V30 10165 H 946.485 1.53494 0.166973 0
M  V30 10166 H 948.443 2.76019 3.03849 0
M  V30 10167 H 947.104 1.65097 2.67211 0
M  V30 10168 H 946.297 3.99894 3.06759 0
M  V30 10169 H 945.899 3.46008 1.41967 0
M  V30 10170 H 948.191 5.69525 3.66943 0
M  V30 10171 H 949.134 6.63613 2.47028 0
M  V30 10172 H 949.542 4.92014 2.76736 0
M  V30 10173 N 948.94 -0.228186 1.55939 0
M  V30 10174 C 949.887 -1.28274 1.91871 0
M  V30 10175 C 950.857 -1.46906 0.775103 0
M  V30 10176 O 952.042 -1.60583 1.03042 0
M  V30 10177 C 949.182 -2.62945 2.23504 0
M  V30 10178 C 948.295 -2.52166 3.50766 0
M  V30 10179 C 947.43 -3.79316 3.71878 0
M  V30 10180 C 946.469 -3.63231 4.92676 0
M  V30 10181 N 945.606 -4.82315 5.10212 0
M  V30 10182 H 950.446 -0.96931 2.81795 0
M  V30 10183 H 947.983 -0.467331 1.39479 0
M  V30 10184 H 949.941 -3.41359 2.39854 0
M  V30 10185 H 948.571 -2.92397 1.36762 0
M  V30 10186 H 947.623 -1.65221 3.42646 0
M  V30 10187 H 948.935 -2.36199 4.39331 0
M  V30 10188 H 948.089 -4.66173 3.88288 0
M  V30 10189 H 946.828 -3.982 2.81581 0
M  V30 10190 H 945.833 -2.74757 4.76223 0
M  V30 10191 H 947.058 -3.45823 5.84451 0
M  V30 10192 H 945.004 -5.01526 4.22856 0
M  V30 10193 H 944.921 -4.6905 5.92898 0
M  V30 10194 H 946.189 -5.70618 5.31051 0
M  V30 10195 N 950.418 -1.49637 -0.494624 0
M  V30 10196 C 951.664 -1.59681 -1.25019 0
M  V30 10197 C 951.997 -0.285511 -1.9209 0
M  V30 10198 O 951.272 0.711398 -1.81023 0
M  V30 10199 C 951.555 -2.76058 -2.31222 0
M  V30 10200 C 951.408 -4.17002 -1.68611 0
M  V30 10201 C 952.727 -2.88056 -3.32734 0
M  V30 10202 H 949.846 -0.581209 -0.453172 0
M  V30 10203 H 952.488 -1.81944 -0.547391 0
M  V30 10204 H 950.638 -2.57207 -2.91164 0
M  V30 10205 H 952.31 -4.47385 -1.12447 0
M  V30 10206 H 950.553 -4.22352 -0.989991 0
M  V30 10207 H 951.224 -4.94316 -2.45674 0
M  V30 10208 H 953.7 -3.05237 -2.82789 0
M  V30 10209 H 952.576 -3.71151 -4.04399 0
M  V30 10210 H 952.837 -1.97676 -3.95445 0
M  V30 10211 N 951.896 0.746133 -1.38819 0
M  V30 10212 C 953.136 1.51821 -1.36857 0
M  V30 10213 C 953.5 1.9196 0.0391461 0
M  V30 10214 O 954.701 2.68172 0.183689 0
M  V30 10215 C 952.972 2.73214 -2.3041 0
M  V30 10216 S 954.531 3.62995 -2.46536 0
M  V30 10217 H 951.349 0.51945 -0.485482 0
M  V30 10218 H 953.951 0.875244 -1.74813 0
M  V30 10219 H 952.655 2.41847 -3.31569 0
M  V30 10220 H 952.186 3.42449 -1.9363 0
M  V30 10221 H 954.201 4.66353 -1.69498 0
M  V30 10222 N 953.375 1.23811 0.975125 0
M  V30 10223 C 954.323 1.02149 2.0897 0
M  V30 10224 C 955.317 -0.0412172 1.6935 0
M  V30 10225 O 956.523 0.112726 1.79647 0
M  V30 10226 H 952.898 0.313259 0.683647 0
M  V30 10227 H 954.869 1.96686 2.24404 0
M  V30 10228 C 953.618 0.635023 3.41852 0
M  V30 10229 H 952.941 1.44449 3.72793 0
M  V30 10230 H 954.381 0.52301 4.20762 0
M  V30 10231 C 952.84 -0.657207 3.30428 0
M  V30 10232 O 953.37 -1.70494 3.63723 0
M  V30 10233 N 951.576 -0.635122 2.83575 0
M  V30 10234 H 951.123 0.21784 2.56677 0
M  V30 10235 H 951.081 -1.49995 2.76313 0
M  V30 10236 N 954.853 -1.17469 1.05066 0
M  V30 10237 C 955.763 -2.25089 0.661222 0
M  V30 10238 C 956.779 -1.71086 -0.31712 0
M  V30 10239 O 957.955 -2.00685 -0.169534 0
M  V30 10240 C 955.02 -3.46676 0.0406415 0
M  V30 10241 C 954.081 -4.15771 1.06927 0
M  V30 10242 C 953.314 -5.31553 0.478208 0
M  V30 10243 O 953.537 -5.6593 -0.712714 0
M  V30 10244 O 952.471 -5.89574 1.21185 0
M  V30 10245 H 956.297 -2.60685 1.5581 0
M  V30 10246 H 953.882 -1.24744 0.822147 0
M  V30 10247 H 955.764 -4.203 -0.304312 0
M  V30 10248 H 954.439 -3.1288 -0.829909 0
M  V30 10249 H 953.346 -3.44171 1.46619 0
M  V30 10250 H 954.679 -4.53591 1.91092 0
M  V30 10251 N 956.331 -0.831506 -1.3388 0
M  V30 10252 C 957.608 -0.345907 -1.92517 0
M  V30 10253 C 957.988 1.16784 -1.75854 0
M  V30 10254 O 957.336 1.97889 -1.14245 0
M  V30 10255 C 957.546 -0.784692 -3.40064 0
M  V30 10256 C 958.894 -0.78846 -4.17215 0
M  V30 10257 O 959.918 -0.727823 -3.48685 0
M  V30 10258 O 958.777 -0.869481 -5.39539 0
M  V30 10259 H 955.871 -0.0963568 -0.821367 0
M  V30 10260 H 958.417 -0.916868 -1.42799 0
M  V30 10261 H 957.189 -1.82697 -3.46031 0
M  V30 10262 H 956.812 -0.189897 -3.97146 0
M  V30 10263 N 957.809 1.4625 -0.587256 0
M  V30 10264 C 958.741 2.28482 0.181256 0
M  V30 10265 C 959.754 1.38777 0.851163 0
M  V30 10266 O 960.943 1.63336 0.719963 0
M  V30 10267 C 958.043 3.13944 1.27643 0
M  V30 10268 C 957.216 4.31802 0.697569 0
M  V30 10269 C 956.275 4.98626 1.68102 0
M  V30 10270 O 955.301 5.56075 1.21529 0
M  V30 10271 N 956.503 4.96051 3.0152 0
M  V30 10272 H 959.268 2.95079 -0.524267 0
M  V30 10273 H 956.829 1.56213 -0.425336 0
M  V30 10274 H 958.821 3.55513 1.93371 0
M  V30 10275 H 957.391 2.49391 1.88475 0
M  V30 10276 H 956.611 3.93961 -0.137293 0
M  V30 10277 H 957.899 5.07969 0.290696 0
M  V30 10278 H 957.297 4.5063 3.41978 0
M  V30 10279 H 955.854 5.41547 3.62725 0
M  V30 10280 N 959.287 0.325282 1.54207 0
M  V30 10281 C 960.515 -0.27869 2.05014 0
M  V30 10282 C 960.93 -1.45649 1.20133 0
M  V30 10283 O 960.287 -1.81014 0.232398 0
M  V30 10284 C 960.338 -0.711486 3.54429 0
M  V30 10285 O 960.059 0.419458 4.36087 0
M  V30 10286 C 961.56 -1.37809 4.21336 0
M  V30 10287 H 958.78 -0.0570388 0.668571 0
M  V30 10288 H 961.324 0.47197 1.98979 0
M  V30 10289 H 959.479 -1.41212 3.60746 0
M  V30 10290 H 959.893 0.0781037 5.24442 0
M  V30 10291 H 961.367 -1.63184 5.27328 0
M  V30 10292 H 961.844 -2.32593 3.72555 0
M  V30 10293 H 962.45 -0.719987 4.19161 0
M  V30 10294 N 960.765 -1.57509 0.0534917 0
M  V30 10295 C 961.713 -2.12851 -0.937931 0
M  V30 10296 C 962.707 -1.06088 -1.32067 0
M  V30 10297 O 963.913 -1.24494 -1.30005 0
M  V30 10298 H 960.288 -0.680357 -0.320342 0
M  V30 10299 H 962.259 -2.95047 -0.446077 0
M  V30 10300 C 961.008 -2.69034 -2.20264 0
M  V30 10301 H 960.331 -3.50848 -1.91693 0
M  V30 10302 H 961.771 -3.11375 -2.87788 0
M  V30 10303 C 960.23 -1.62919 -2.94888 0
M  V30 10304 O 960.76 -1.04334 -3.87914 0
M  V30 10305 N 958.966 -1.34385 -2.57661 0
M  V30 10306 H 958.513 -1.82214 -1.82088 0
M  V30 10307 H 958.471 -0.636149 -3.07897 0
M  V30 10308 N 962.243 0.219913 -1.56058 0
M  V30 10309 C 963.483 0.951113 -1.80923 0
M  V30 10310 C 963.847 1.81465 -0.627247 0
M  V30 10311 O 965.048 2.57972 -0.755237 0
M  V30 10312 C 963.319 1.76652 -3.10691 0
M  V30 10313 S 964.878 2.55314 -3.56876 0
M  V30 10314 H 961.696 0.319461 -0.635189 0
M  V30 10315 H 964.298 0.216551 -1.94297 0
M  V30 10316 H 963.002 1.12231 -3.94756 0
M  V30 10317 H 962.533 2.54335 -3.00128 0
M  V30 10318 H 964.548 3.78938 -3.20344 0
M  V30 10319 N 963.721 1.49897 0.486681 0
M  V30 10320 C 964.949 1.63837 1.26353 0
M  V30 10321 C 965.364 0.315428 1.86146 0
M  V30 10322 O 964.721 -0.700831 1.68507 0
M  V30 10323 C 964.772 2.71792 2.38351 0
M  V30 10324 O 964.493 3.98956 1.81013 0
M  V30 10325 C 965.994 2.96566 3.2949 0
M  V30 10326 H 963.214 0.551158 0.382709 0
M  V30 10327 H 965.758 1.96023 0.582694 0
M  V30 10328 H 963.913 2.42344 3.02238 0
M  V30 10329 H 964.327 4.58536 2.54647 0
M  V30 10330 H 965.801 3.75803 4.04322 0
M  V30 10331 H 966.278 2.07031 3.87343 0
M  V30 10332 H 966.884 3.27485 2.71355 0
M  V30 10333 N 965.199 -0.738761 1.39212 0
M  V30 10334 C 966.445 -1.50046 1.36433 0
M  V30 10335 C 966.778 -1.94157 -0.0409474 0
M  V30 10336 O 966.053 -1.66515 -1.00514 0
M  V30 10337 C 966.336 -2.74277 2.33333 0
M  V30 10338 C 966.189 -2.36209 3.82786 0
M  V30 10339 C 967.508 -3.76361 2.28123 0
M  V30 10340 H 964.627 -0.544294 0.496903 0
M  V30 10341 H 967.269 -0.845005 1.70175 0
M  V30 10342 H 965.419 -3.30204 2.04689 0
M  V30 10343 H 967.091 -1.85942 4.22165 0
M  V30 10344 H 965.334 -1.68483 3.99745 0
M  V30 10345 H 966.005 -3.25156 4.46069 0
M  V30 10346 H 968.481 -3.30009 2.53443 0
M  V30 10347 H 967.357 -4.60957 2.9801 0
M  V30 10348 H 967.618 -4.23013 1.28499 0
M  V30 10349 N 966.677 -1.24326 -0.968545 0
M  V30 10350 C 968.088 -1.07561 -1.52603 0
M  V30 10351 C 968.439 0.353245 -1.92994 0
M  V30 10352 O 967.564 1.24151 -1.77244 0
M  V30 10353 C 968.159 -1.94634 -2.77314 0
M  V30 10354 C 966.718 -1.82095 -3.29421 0
M  V30 10355 C 965.865 -1.8962 -2.02335 0
M  V30 10356 H 968.816 -1.37815 -0.786932 0
M  V30 10357 H 968.837 -1.47812 -3.50616 0
M  V30 10358 H 968.349 -2.98621 -2.47885 0
M  V30 10359 H 966.45 -0.809376 -3.63703 0
M  V30 10360 H 966.563 -2.66142 -3.98378 0
M  V30 10361 H 964.927 -1.33339 -2.17009 0
M  V30 10362 H 965.71 -2.95185 -1.75273 0
M  V30 10363 N 968.156 1.1691 -1.05688 0
M  V30 10364 C 969.384 1.91204 -0.790485 0
M  V30 10365 C 969.799 1.77095 0.654434 0
M  V30 10366 O 969.156 1.11146 1.44751 0
M  V30 10367 C 969.207 3.42108 -1.16808 0
M  V30 10368 O 968.928 3.55788 -2.55629 0
M  V30 10369 C 970.429 4.33466 -0.92855 0
M  V30 10370 H 967.649 0.606508 -0.287035 0
M  V30 10371 H 970.193 1.48225 -1.40888 0
M  V30 10372 H 968.348 3.82814 -0.59434 0
M  V30 10373 H 968.762 4.49321 -2.70575 0
M  V30 10374 H 970.236 5.37836 -1.24245 0
M  V30 10375 H 970.713 4.38989 0.136016 0
M  V30 10376 H 971.319 3.98481 -1.48638 0
M  V30 10377 N 969.634 0.838594 1.33437 0
M  V30 10378 C 970.864 0.446995 2.01707 0
M  V30 10379 C 971.272 -0.956335 1.63251 0
M  V30 10380 O 970.615 -1.63289 0.841566 0
M  V30 10381 C 970.677 0.487707 3.56176 0
M  V30 10382 C 970.341 1.8471 4.18009 0
M  V30 10383 C 971.338 2.81028 4.374 0
M  V30 10384 C 969.023 2.13987 4.54439 0
M  V30 10385 C 971.017 4.04785 4.92369 0
M  V30 10386 C 968.704 3.38 5.09116 0
M  V30 10387 C 969.702 4.33216 5.28027 0
M  V30 10388 O 969.39 5.55036 5.81541 0
M  V30 10389 H 969.122 0.175799 0.652741 0
M  V30 10390 H 971.676 1.13265 1.71348 0
M  V30 10391 H 969.906 -0.254719 3.8586 0
M  V30 10392 H 971.595 0.113971 4.0574 0
M  V30 10393 H 972.361 2.5971 4.09604 0
M  V30 10394 H 968.24 1.40668 4.39014 0
M  V30 10395 H 971.784 4.79114 5.07046 0
M  V30 10396 H 967.681 3.59175 5.36343 0
M  V30 10397 H 968.449 5.56772 5.99956 0
M  V30 10398 N 971.112 -1.45937 0.595003 0
M  V30 10399 C 972.523 -1.85908 0.171779 0
M  V30 10400 C 972.874 -1.497 -1.26824 0
M  V30 10401 O 971.999 -0.917688 -1.95978 0
M  V30 10402 C 972.594 -3.37425 0.304976 0
M  V30 10403 C 971.153 -3.76346 -0.0634635 0
M  V30 10404 C 970.3 -2.69926 0.635255 0
M  V30 10405 H 973.251 -1.36916 0.802471 0
M  V30 10406 H 973.272 -3.77632 -0.466313 0
M  V30 10407 H 972.784 -3.63747 1.35314 0
M  V30 10408 H 970.885 -3.55642 -1.11129 0
M  V30 10409 H 970.998 -4.78021 0.321419 0
M  V30 10410 H 969.362 -2.54592 0.0742054 0
M  V30 10411 H 970.145 -2.99086 1.68531 0
M  V30 10412 N 972.59 -0.333456 -1.54032 0
M  V30 10413 C 973.815 0.270517 -2.05628 0
M  V30 10414 C 974.24 1.44231 -1.20744 0
M  V30 10415 O 973.598 1.79975 -0.218822 0
M  V30 10416 C 973.646 0.673251 -3.54259 0
M  V30 10417 O 972.75 1.77448 -3.72271 0
M  V30 10418 H 972.091 0.0469753 -0.662336 0
M  V30 10419 H 974.621 -0.484739 -1.98775 0
M  V30 10420 H 974.631 0.953194 -3.96709 0
M  V30 10421 H 973.306 -0.183747 -4.15494 0
M  V30 10422 H 971.883 1.49259 -3.41725 0
M  V30 10423 N 974.068 1.57479 -0.061844 0
M  V30 10424 C 975.308 1.94982 0.613309 0
M  V30 10425 C 975.672 0.940729 1.67375 0
M  V30 10426 O 976.873 1.20307 2.40374 0
M  V30 10427 C 975.144 3.37208 1.18429 0
M  V30 10428 S 976.703 3.96678 1.87596 0
M  V30 10429 H 973.521 0.681969 0.201096 0
M  V30 10430 H 976.123 1.95045 -0.133328 0
M  V30 10431 H 974.827 4.08441 0.400522 0
M  V30 10432 H 974.358 3.40665 1.96751 0
M  V30 10433 H 976.373 3.82772 3.15754 0
M  V30 10434 N 975.546 -0.211634 1.56173 0
M  V30 10435 C 976.962 -0.56177 1.49386 0
M  V30 10436 C 977.162 -1.86666 0.758813 0
M  V30 10437 O 976.218 -2.50681 0.302534 0
M  V30 10438 C 977.531 -0.631815 2.93987 0
M  V30 10439 C 979.079 -0.721773 3.04564 0
M  V30 10440 C 979.554 -0.823075 4.50544 0
M  V30 10441 N 981.045 -0.887038 4.54627 0
M  V30 10442 C 981.78 -0.985304 5.64871 0
M  V30 10443 N 981.276 -1.0469 6.84844 0
M  V30 10444 N 983.069 -1.02121 5.52746 0
M  V30 10445 H 975.22 0.64452 2.02385 0
M  V30 10446 H 977.483 0.227466 0.920306 0
M  V30 10447 H 977.189 0.257592 3.50755 0
M  V30 10448 H 977.063 -1.4921 3.46433 0
M  V30 10449 H 979.45 -1.60162 2.47855 0
M  V30 10450 H 979.531 0.164385 2.55271 0
M  V30 10451 H 979.175 0.0523511 5.07873 0
M  V30 10452 H 979.105 -1.72479 4.97552 0
M  V30 10453 H 981.596 -0.849352 3.68231 0
M  V30 10454 H 981.909 -1.12193 7.64613 0
M  V30 10455 H 980.254 -1.01586 6.87536 0
M  V30 10456 H 983.445 -0.969814 4.57943 0
M  V30 10457 H 983.618 -1.09434 6.38693 0
M  V30 10458 N 977.024 -1.50153 -0.478725 0
M  V30 10459 C 978.301 -1.51274 -1.23999 0
M  V30 10460 C 978.681 -0.253048 -2.09578 0
M  V30 10461 O 978.029 0.763827 -2.15355 0
M  V30 10462 C 978.239 -2.80423 -2.07759 0
M  V30 10463 C 979.587 -3.30788 -2.66204 0
M  V30 10464 O 980.611 -2.81693 -2.18008 0
M  V30 10465 O 979.47 -4.1635 -3.53999 0
M  V30 10466 H 976.564 -0.606438 -0.562283 0
M  V30 10467 H 979.11 -1.62436 -0.491171 0
M  V30 10468 H 977.882 -3.63584 -1.44645 0
M  V30 10469 H 977.505 -2.72228 -2.89789 0
M  V30 10470 N 978.502 0.731368 -1.39602 0
M  V30 10471 C 979.727 1.52567 -1.40492 0
M  V30 10472 C 980.152 1.881 -0.00228828 0
M  V30 10473 O 979.51 1.52167 0.985643 0
M  V30 10474 C 979.558 2.78749 -2.2876 0
M  V30 10475 O 978.662 3.7482 -1.71999 0
M  V30 10476 H 978.003 0.460601 -0.478271 0
M  V30 10477 H 980.533 0.902042 -1.83642 0
M  V30 10478 H 980.543 3.27446 -2.43399 0
M  V30 10479 H 979.218 2.5222 -3.30693 0
M  V30 10480 H 977.795 3.33604 -1.66622 0
M  V30 10481 N 979.98 1.24838 0.961938 0
M  V30 10482 C 980.89 1.06304 2.09133 0
M  V30 10483 C 981.906 0.00221475 1.74 0
M  V30 10484 O 983.082 0.201611 2.00388 0
M  V30 10485 C 980.147 0.676117 3.40043 0
M  V30 10486 C 979.208 1.81407 3.89089 0
M  V30 10487 C 978.441 1.44551 5.13752 0
M  V30 10488 O 978.664 0.337894 5.69398 0
M  V30 10489 O 977.598 2.27316 5.57325 0
M  V30 10490 H 981.424 2.01001 2.27667 0
M  V30 10491 H 979.009 1.0371 1.07539 0
M  V30 10492 H 980.891 0.472124 4.18747 0
M  V30 10493 H 979.566 -0.241667 3.22797 0
M  V30 10494 H 978.473 2.07286 3.11421 0
M  V30 10495 H 979.806 2.71083 4.10822 0
M  V30 10496 N 981.458 -1.16348 1.06306 0
M  V30 10497 C 982.686 -1.90782 0.800614 0
M  V30 10498 C 983.101 -1.77439 -0.645033 0
M  V30 10499 O 982.458 -1.11912 -1.4416 0
M  V30 10500 C 982.509 -3.41484 1.18621 0
M  V30 10501 O 982.23 -3.54428 2.57512 0
M  V30 10502 C 983.731 -4.32968 0.951525 0
M  V30 10503 H 980.951 -0.604977 0.290247 0
M  V30 10504 H 983.495 -1.47476 1.41672 0
M  V30 10505 H 981.65 -3.82493 0.614633 0
M  V30 10506 H 982.064 -4.4788 2.72954 0
M  V30 10507 H 983.538 -5.37169 1.27095 0
M  V30 10508 H 984.015 -4.39055 -0.112734 0
M  V30 10509 H 984.621 -3.97687 1.50749 0
M  V30 10510 N 982.937 -0.845659 -1.3299 0
M  V30 10511 C 984.184 -0.444653 -1.97558 0
M  V30 10512 C 984.512 0.997682 -1.66963 0
M  V30 10513 O 983.767 1.71349 -0.94541 0
M  V30 10514 C 984.066 -0.6201 -3.51979 0
M  V30 10515 C 983.732 -2.03155 -4.02541 0
M  V30 10516 C 982.394 -2.4176 -4.16059 0
M  V30 10517 C 984.746 -2.95317 -4.29462 0
M  V30 10518 C 982.074 -3.71818 -4.53837 0
M  V30 10519 C 984.426 -4.24863 -4.68694 0
M  V30 10520 C 983.09 -4.63416 -4.80419 0
M  V30 10521 H 982.36 -0.16271 -0.722915 0
M  V30 10522 H 985.007 -1.07399 -1.58549 0
M  V30 10523 H 983.312 0.092513 -3.91691 0
M  V30 10524 H 985.009 -0.290012 -3.9995 0
M  V30 10525 H 981.599 -1.72174 -3.92497 0
M  V30 10526 H 985.783 -2.66726 -4.18534 0
M  V30 10527 H 981.039 -4.01484 -4.61108 0
M  V30 10528 H 985.213 -4.96347 -4.8848 0
M  V30 10529 H 982.84 -5.6424 -5.09448 0
M  V30 10530 N 984.415 1.45619 -0.602734 0
M  V30 10531 C 985.64 2.07157 -0.100429 0
M  V30 10532 C 986.065 1.44524 1.20393 0
M  V30 10533 O 985.423 0.536191 1.7319 0
M  V30 10534 C 985.471 3.60587 0.0308604 0
M  V30 10535 O 984.575 3.97944 1.08234 0
M  V30 10536 H 983.916 0.6601 -0.0718643 0
M  V30 10537 H 986.446 1.86948 -0.831366 0
M  V30 10538 H 986.456 4.07348 0.230634 0
M  V30 10539 H 985.131 4.05561 -0.921581 0
M  V30 10540 H 983.708 3.62862 0.859414 0
M  V30 10541 N 985.893 0.34162 1.53853 0
M  V30 10542 C 987.121 -0.256929 2.05299 0
M  V30 10543 C 987.536 -1.44366 1.21671 0
M  V30 10544 O 986.893 -1.80758 0.251584 0
M  V30 10545 C 986.944 -0.673854 3.55164 0
M  V30 10546 O 986.665 0.465687 4.35618 0
M  V30 10547 C 988.166 -1.33332 4.22773 0
M  V30 10548 H 985.386 -0.0499445 0.669139 0
M  V30 10549 H 987.93 0.493048 1.98467 0
M  V30 10550 H 986.085 -1.37378 3.62224 0
M  V30 10551 H 986.499 0.133723 5.2433 0
M  V30 10552 H 987.973 -1.57582 5.29029 0
M  V30 10553 H 988.45 -2.28628 3.75001 0
M  V30 10554 H 989.056 -0.675489 4.19901 0
M  V30 10555 N 987.371 -1.57444 0.0701946 0
M  V30 10556 C 988.618 -1.93429 -0.59929 0
M  V30 10557 C 988.946 -0.9501 -1.69715 0
M  V30 10558 O 988.201 0.0345377 -1.9567 0
M  V30 10559 C 988.5 -3.36044 -1.21694 0
M  V30 10560 C 988.166 -4.50232 -0.245374 0
M  V30 10561 C 986.828 -4.81195 0.0219161 0
M  V30 10562 C 989.18 -5.1951 0.419396 0
M  V30 10563 C 986.508 -5.78775 0.96109 0
M  V30 10564 C 988.86 -6.18095 1.34688 0
M  V30 10565 C 987.524 -6.47477 1.62265 0
M  V30 10566 H 986.794 -0.707807 -0.219296 0
M  V30 10567 H 989.441 -1.90982 0.14073 0
M  V30 10568 H 987.746 -3.34948 -2.03265 0
M  V30 10569 H 989.443 -3.61176 -1.74221 0
M  V30 10570 H 986.033 -4.26082 -0.463887 0
M  V30 10571 H 990.217 -4.95785 0.226009 0
M  V30 10572 H 985.473 -5.99865 1.18202 0
M  V30 10573 H 989.647 -6.7088 1.86795 0
M  V30 10574 H 987.274 -7.229 2.352 0
M  V30 10575 N 988.849 0.203349 -1.56283 0
M  V30 10576 C 989.779 1.2549 -1.96912 0
M  V30 10577 C 990.76 1.47919 -0.839884 0
M  V30 10578 O 991.945 1.59795 -1.10359 0
M  V30 10579 C 989.075 2.6009 -2.30153 0
M  V30 10580 C 988.029 2.52289 -3.45738 0
M  V30 10581 C 987.355 3.91086 -3.64632 0
M  V30 10582 C 988.655 2.05503 -4.80173 0
M  V30 10583 H 990.349 0.917306 -2.85002 0
M  V30 10584 H 987.895 0.439818 -1.37119 0
M  V30 10585 H 989.848 3.33829 -2.5717 0
M  V30 10586 H 988.572 2.95574 -1.38937 0
M  V30 10587 H 987.231 1.81006 -3.18798 0
M  V30 10588 H 986.879 4.23908 -2.7076 0
M  V30 10589 H 986.579 3.86742 -4.42385 0
M  V30 10590 H 988.103 4.66459 -3.94016 0
M  V30 10591 H 989.517 2.68995 -5.06275 0
M  V30 10592 H 987.914 2.1218 -5.61337 0
M  V30 10593 H 988.984 1.00793 -4.74309 0
M  V30 10594 N 990.327 1.50405 0.470755 0
M  V30 10595 C 991.257 1.72222 1.57676 0
M  V30 10596 C 992.238 0.57121 1.60222 0
M  V30 10597 O 993.423 0.810381 1.76484 0
M  V30 10598 C 990.553 1.81666 2.95998 0
M  V30 10599 C 989.507 2.96857 3.08318 0
M  V30 10600 C 988.833 2.91445 4.4829 0
M  V30 10601 C 990.133 4.37361 2.85504 0
M  V30 10602 H 991.827 2.64825 1.39671 0
M  V30 10603 H 989.373 1.27438 0.67049 0
M  V30 10604 H 991.326 1.95514 3.73299 0
M  V30 10605 H 990.05 0.856856 3.1516 0
M  V30 10606 H 988.709 2.82661 2.33449 0
M  V30 10607 H 988.357 1.93309 4.64371 0
M  V30 10608 H 988.057 3.68776 4.57469 0
M  V30 10609 H 989.581 3.07341 5.27611 0
M  V30 10610 H 990.995 4.52081 3.52555 0
M  V30 10611 H 989.392 5.16145 3.06127 0
M  V30 10612 H 990.462 4.49708 1.81359 0
M  V30 10613 N 991.805 -0.723954 1.39988 0
M  V30 10614 C 993.082 -1.4763 1.28316 0
M  V30 10615 C 993.462 -2.10852 -0.102302 0
M  V30 10616 O 992.81 -1.9948 -1.11445 0
M  V30 10617 C 993.02 -2.51878 2.41574 0
M  V30 10618 C 994.368 -3.17948 2.81415 0
M  V30 10619 O 995.392 -2.62195 2.41106 0
M  V30 10620 O 994.251 -4.18858 3.51027 0
M  V30 10621 H 991.345 -0.656092 0.50346 0
M  V30 10622 H 993.891 -0.75684 1.51888 0
M  V30 10623 H 992.663 -2.03618 3.34149 0
M  V30 10624 H 992.286 -3.3137 2.19727 0
M  V30 10625 N 993.283 -1.25346 -0.955304 0
M  V30 10626 C 994.213 -1.08152 -2.06943 0
M  V30 10627 C 995.194 0.00922598 -1.70097 0
M  V30 10628 O 996.379 -0.160181 -1.93538 0
M  V30 10629 C 993.509 -0.698745 -3.40198 0
M  V30 10630 C 992.463 -1.73965 -3.9105 0
M  V30 10631 C 991.789 -1.21158 -5.20792 0
M  V30 10632 C 993.089 -3.13829 -4.17503 0
M  V30 10633 H 994.783 -2.01345 -2.21586 0
M  V30 10634 H 992.329 -0.969459 -1.06478 0
M  V30 10635 H 994.282 -0.565394 -4.1759 0
M  V30 10636 H 993.006 0.268892 -3.25491 0
M  V30 10637 H 991.665 -1.86143 -3.15827 0
M  V30 10638 H 991.313 -0.234193 -5.02455 0
M  V30 10639 H 991.013 -1.90728 -5.55785 0
M  V30 10640 H 992.537 -1.09061 -6.00781 0
M  V30 10641 H 993.951 -3.04809 -4.85556 0
M  V30 10642 H 992.348 -3.80863 -4.63749 0
M  V30 10643 H 993.418 -3.6094 -3.23806 0
M  V30 10644 N 994.761 1.15782 -1.06922 0
M  V30 10645 C 996.008 1.86465 -0.789752 0
M  V30 10646 C 996.336 1.82075 0.684022 0
M  V30 10647 O 995.591 1.23576 1.51748 0
M  V30 10648 C 995.89 3.35284 -1.2377 0
M  V30 10649 C 995.556 3.59871 -2.71668 0
M  V30 10650 C 994.218 3.6629 -3.12066 0
M  V30 10651 C 996.57 3.69929 -3.67154 0
M  V30 10652 C 993.898 3.80275 -4.46775 0
M  V30 10653 C 996.25 3.85436 -5.01619 0
M  V30 10654 C 994.914 3.901 -5.41644 0
M  V30 10655 H 994.184 0.682324 -0.288991 0
M  V30 10656 H 996.831 1.36861 -1.33945 0
M  V30 10657 H 995.136 3.87065 -0.607309 0
M  V30 10658 H 996.833 3.88371 -0.998431 0
M  V30 10659 H 993.423 3.55512 -2.39393 0
M  V30 10660 H 997.607 3.64274 -3.37073 0
M  V30 10661 H 992.863 3.8214 -4.77262 0
M  V30 10662 H 997.037 3.92161 -5.75485 0
M  V30 10663 H 994.664 4.00688 -6.46029 0
M  V30 10664 N 996.239 0.8527 1.3254 0
M  V30 10665 C 997.186 0.293905 2.28921 0
M  V30 10666 C 998.156 -0.598027 1.54961 0
M  V30 10667 O 999.341 -0.533355 1.83194 0
M  V30 10668 C 996.481 -0.513361 3.4126 0
M  V30 10669 C 995.594 0.404144 4.30105 0
M  V30 10670 C 994.729 -0.415564 5.29572 0
M  V30 10671 C 993.768 0.499461 6.10059 0
M  V30 10672 N 992.905 -0.282949 7.0153 0
M  V30 10673 H 997.745 1.12107 2.76109 0
M  V30 10674 H 995.282 0.564272 1.35847 0
M  V30 10675 H 997.24 -0.997008 4.05112 0
M  V30 10676 H 995.87 -1.30537 2.95229 0
M  V30 10677 H 994.922 1.00617 3.66852 0
M  V30 10678 H 996.234 1.10648 4.86373 0
M  V30 10679 H 995.388 -0.962458 5.99017 0
M  V30 10680 H 994.127 -1.15127 4.73917 0
M  V30 10681 H 993.132 1.05825 5.39519 0
M  V30 10682 H 994.357 1.23375 6.67799 0
M  V30 10683 H 992.303 -1.00179 6.48306 0
M  V30 10684 H 992.22 0.36039 7.55141 0
M  V30 10685 H 993.488 -0.811632 7.75263 0
M  V30 10686 N 997.718 -1.45297 0.610449 0
M  V30 10687 C 998.648 -2.33311 -0.0939698 0
M  V30 10688 C 999.629 -1.46999 -0.85588 0
M  V30 10689 O 1000.81 -1.75764 -0.825865 0
M  V30 10690 C 997.944 -3.29751 -1.09003 0
M  V30 10691 C 996.898 -4.2572 -0.441146 0
M  V30 10692 C 996.224 -5.11873 -1.54566 0
M  V30 10693 C 997.524 -5.1837 0.639489 0
M  V30 10694 H 999.218 -2.92459 0.640941 0
M  V30 10695 H 996.764 -1.40631 0.309675 0
M  V30 10696 H 998.717 -3.90195 -1.59141 0
M  V30 10697 H 997.441 -2.68768 -1.85557 0
M  V30 10698 H 996.1 -3.66579 0.0393908 0
M  V30 10699 H 995.748 -4.47256 -2.30155 0
M  V30 10700 H 995.448 -5.76886 -1.11698 0
M  V30 10701 H 996.972 -5.75185 -2.04925 0
M  V30 10702 H 998.386 -5.7287 0.22207 0
M  V30 10703 H 996.783 -5.91876 0.990089 0
M  V30 10704 H 997.853 -4.60627 1.51495 0
M  V30 10705 N 999.196 -0.349774 -1.5367 0
M  V30 10706 C 1000.42 0.246038 -2.05432 0
M  V30 10707 C 1000.84 1.43719 -1.22435 0
M  V30 10708 O 1000.2 1.80622 -0.261166 0
M  V30 10709 C 1000.25 0.65501 -3.55516 0
M  V30 10710 O 999.968 -0.488782 -4.35365 0
M  V30 10711 C 1001.47 1.31088 -4.23475 0
M  V30 10712 H 998.689 0.0463952 -0.669394 0
M  V30 10713 H 1001.23 -0.503566 -1.98203 0
M  V30 10714 H 999.388 1.35455 -3.62947 0
M  V30 10715 H 999.802 -0.161528 -5.24251 0
M  V30 10716 H 1001.28 1.54774 -5.29857 0
M  V30 10717 H 1001.75 2.26636 -3.76208 0
M  V30 10718 H 1002.36 0.653211 -4.20254 0
M  V30 10719 N 1000.67 1.57404 -0.0785433 0
M  V30 10720 C 1001.92 1.9292 0.588626 0
M  V30 10721 C 1002.24 0.961106 1.70359 0
M  V30 10722 O 1003.44 1.20934 2.43079 0
M  V30 10723 C 1001.9 3.42729 1.09839 0
M  V30 10724 C 1001.51 4.47998 0.0140773 0
M  V30 10725 C 1003.25 3.87235 1.73924 0
M  V30 10726 C 1001.16 5.88945 0.538269 0
M  V30 10727 H 1000.09 0.720069 0.223645 0
M  V30 10728 H 1002.74 1.8287 -0.15187 0
M  V30 10729 H 1001.12 3.47875 1.89207 0
M  V30 10730 H 1002.29 4.54476 -0.760773 0
M  V30 10731 H 1000.61 4.13001 -0.53095 0
M  V30 10732 H 1003.21 4.89927 2.14186 0
M  V30 10733 H 1003.55 3.24971 2.60191 0
M  V30 10734 H 1004.08 3.84721 1.01168 0
M  V30 10735 H 1000.82 6.5487 -0.287395 0
M  V30 10736 H 1000.34 5.85972 1.28049 0
M  V30 10737 H 1002.02 6.39028 1.01253 0
M  V30 10738 N 1002.15 -0.195058 1.56388 0
M  V30 10739 C 1003.4 -0.913636 1.8027 0
M  V30 10740 C 1003.72 -1.83791 0.651606 0
M  V30 10741 O 1002.99 -1.931 -0.330057 0
M  V30 10742 H 1001.57 -0.34036 0.664954 0
M  V30 10743 H 1004.23 -0.200559 1.93865 0
M  V30 10744 H 1003.33 -1.50473 2.7343 0
M  V30 10745 N 1003.63 -1.50653 -0.462772 0
M  V30 10746 C 1004.56 -1.64773 -1.57877 0
M  V30 10747 C 1005.54 -0.495664 -1.54861 0
M  V30 10748 O 1006.72 -0.716248 -1.74362 0
M  V30 10749 C 1003.85 -1.63796 -2.9646 0
M  V30 10750 C 1002.9 -2.84663 -3.17599 0
M  V30 10751 S 1003.73 -4.45852 -2.96608 0
M  V30 10752 C 1004.89 -4.47581 -4.37518 0
M  V30 10753 H 1005.12 -2.59172 -1.45661 0
M  V30 10754 H 1002.65 -1.40019 -0.650699 0
M  V30 10755 H 1004.61 -1.63918 -3.76353 0
M  V30 10756 H 1003.27 -0.706185 -3.06059 0
M  V30 10757 H 1002.46 -2.80308 -4.1886 0
M  V30 10758 H 1002.07 -2.82152 -2.45492 0
M  V30 10759 H 1004.36 -4.21656 -5.30295 0
M  V30 10760 H 1005.3 -5.49248 -4.46914 0
M  V30 10761 H 1005.71 -3.7719 -4.19985 0
M  V30 10762 N 1005.11 0.71652 -1.4037 0
M  V30 10763 C 1006.36 1.47347 -1.38324 0
M  V30 10764 C 1006.68 1.94995 0.0139949 0
M  V30 10765 O 1005.95 1.7028 0.968585 0
M  V30 10766 H 1004.53 0.546662 -0.509087 0
M  V30 10767 H 1007.19 0.849455 -1.75415 0
M  V30 10768 H 1006.29 2.34675 -2.05752 0
M  V30 10769 N 1006.59 1.25851 0.948643 0
M  V30 10770 C 1007.86 1.01717 1.67072 0
M  V30 10771 C 1008.24 -0.454749 2.06144 0
M  V30 10772 O 1007.59 -1.43345 1.77945 0
M  V30 10773 C 1007.8 1.95872 2.88852 0
M  V30 10774 C 1009.15 2.24057 3.60671 0
M  V30 10775 O 1010.17 1.93678 2.98944 0
M  V30 10776 O 1009.03 2.75745 4.71833 0
M  V30 10777 H 1006.13 0.386198 0.731287 0
M  V30 10778 H 1008.67 1.37031 1.00104 0
M  V30 10779 H 1007.44 2.95233 2.56814 0
M  V30 10780 H 1007.07 1.60992 3.63548 0
M  V30 10781 N 1008.06 -1.15214 1.07534 0
M  V30 10782 C 1008.99 -2.2216 0.718837 0
M  V30 10783 C 1009.98 -1.6753 -0.29459 0
M  V30 10784 O 1011.16 -1.93481 -0.166931 0
M  V30 10785 C 1008.29 -3.471 0.117836 0
M  V30 10786 C 1007.24 -4.14701 1.05862 0
M  V30 10787 C 1006.57 -5.3374 0.320284 0
M  V30 10788 C 1007.87 -4.64254 2.39302 0
M  V30 10789 H 1009.56 -2.52237 1.61297 0
M  V30 10790 H 1007.11 -1.21239 0.776992 0
M  V30 10791 H 1009.06 -4.21156 -0.143519 0
M  V30 10792 H 1007.79 -3.16361 -0.811389 0
M  V30 10793 H 1006.45 -3.42589 1.30493 0
M  V30 10794 H 1006.09 -4.99257 -0.61246 0
M  V30 10795 H 1005.79 -5.79912 0.947381 0
M  V30 10796 H 1007.32 -6.10563 0.0667721 0
M  V30 10797 H 1008.73 -5.29827 2.18988 0
M  V30 10798 H 1007.13 -5.21095 2.97623 0
M  V30 10799 H 1008.2 -3.79793 3.01472 0
M  V30 10800 N 1009.54 -0.859717 -1.32086 0
M  V30 10801 C 1010.45 -0.31108 -2.32528 0
M  V30 10802 C 1011.47 0.573714 -1.6427 0
M  V30 10803 O 1012.64 0.472878 -1.9577 0
M  V30 10804 C 1009.71 0.487256 -3.43259 0
M  V30 10805 C 1008.77 -0.424279 -4.27198 0
M  V30 10806 C 1008 0.336051 -5.32641 0
M  V30 10807 O 1008.23 1.56541 -5.48499 0
M  V30 10808 O 1007.16 -0.300777 -6.01148 0
M  V30 10809 H 1010.99 -1.14336 -2.81355 0
M  V30 10810 H 1008.57 -0.622794 -1.358 0
M  V30 10811 H 1010.45 0.940203 -4.10777 0
M  V30 10812 H 1009.13 1.29626 -2.96612 0
M  V30 10813 H 1008.04 -0.925509 -3.62471 0
M  V30 10814 H 1009.37 -1.1986 -4.77383 0
M  V30 10815 N 1011.02 1.44971 -0.618145 0
M  V30 10816 C 1011.95 2.27748 0.143561 0
M  V30 10817 C 1012.93 1.37768 0.863642 0
M  V30 10818 O 1014.12 1.67203 0.870373 0
M  V30 10819 C 1011.24 3.16394 1.20883 0
M  V30 10820 C 1010.29 4.22389 0.590724 0
M  V30 10821 S 1011.12 5.32021 -0.609406 0
M  V30 10822 C 1012.28 6.24235 0.456199 0
M  V30 10823 H 1012.51 2.92003 -0.558699 0
M  V30 10824 H 1010.04 1.48968 -0.40595 0
M  V30 10825 H 1012 3.6802 1.81855 0
M  V30 10826 H 1010.66 2.51384 1.88322 0
M  V30 10827 H 1009.86 4.84379 1.3926 0
M  V30 10828 H 1009.46 3.73958 0.055917 0
M  V30 10829 H 1011.75 6.64269 1.33238 0
M  V30 10830 H 1012.69 7.07985 -0.127794 0
M  V30 10831 H 1013.1 5.59137 0.776269 0
M  V30 10832 N 1012.5 0.357919 1.53482 0
M  V30 10833 C 1013.43 -0.484231 2.28424 0
M  V30 10834 C 1014.41 -1.09046 1.30548 0
M  V30 10835 O 1015.59 -1.10916 1.59409 0
M  V30 10836 C 1012.72 -1.62803 3.06778 0
M  V30 10837 C 1011.68 -1.14943 4.12277 0
M  V30 10838 C 1011 -2.38287 4.78669 0
M  V30 10839 C 1012.3 -0.239627 5.2175 0
M  V30 10840 H 1014 0.140979 2.99068 0
M  V30 10841 H 1011.54 0.069244 1.43833 0
M  V30 10842 H 1013.5 -2.22374 3.57949 0
M  V30 10843 H 1012.22 -2.28036 2.3381 0
M  V30 10844 H 1010.88 -0.576442 3.6204 0
M  V30 10845 H 1010.53 -3.01959 4.02281 0
M  V30 10846 H 1010.23 -2.06939 5.49955 0
M  V30 10847 H 1011.75 -2.98558 5.32631 0
M  V30 10848 H 1013.17 -0.742597 5.6847 0
M  V30 10849 H 1011.56 -0.0173747 6.00097 0
M  V30 10850 H 1012.63 0.720333 4.7952 0
M  V30 10851 N 1013.98 -1.5736 0.0868897 0
M  V30 10852 C 1015.2 -1.98809 -0.590757 0
M  V30 10853 C 1015.63 -0.965407 -1.61436 0
M  V30 10854 O 1014.98 0.067143 -1.81176 0
M  V30 10855 C 1015.03 -3.39249 -1.22238 0
M  V30 10856 O 1014.14 -3.39706 -2.33824 0
M  V30 10857 H 1013.48 -0.64669 -0.150626 0
M  V30 10858 H 1016.01 -2.03927 0.165873 0
M  V30 10859 H 1016.02 -3.76765 -1.56564 0
M  V30 10860 H 1014.69 -4.13208 -0.472434 0
M  V30 10861 H 1013.27 -3.13977 -2.01178 0
M  V30 10862 N 1015.45 0.186762 -1.56489 0
M  V30 10863 C 1016.68 0.925916 -1.85584 0
M  V30 10864 C 1017.1 1.75708 -0.671446 0
M  V30 10865 O 1016.46 1.7728 0.379687 0
M  V30 10866 C 1016.51 1.79107 -3.12975 0
M  V30 10867 O 1015.61 2.89088 -2.94112 0
M  V30 10868 H 1014.96 0.260275 -0.610863 0
M  V30 10869 H 1017.49 0.189561 -2.0372 0
M  V30 10870 H 1017.5 2.19408 -3.43983 0
M  V30 10871 H 1016.17 1.18044 -3.98796 0
M  V30 10872 H 1014.75 2.52482 -2.74422 0
M  V30 10873 N 1016.93 1.50896 0.454776 0
M  V30 10874 C 1018.16 1.6648 1.22849 0
M  V30 10875 C 1018.58 0.354841 1.85435 0
M  V30 10876 O 1017.93 -0.664931 1.69956 0
M  V30 10877 C 1017.98 2.76787 2.32532 0
M  V30 10878 O 1017.7 4.02706 1.72509 0
M  V30 10879 C 1019.21 3.03488 3.23125 0
M  V30 10880 H 1016.43 0.559152 0.370932 0
M  V30 10881 H 1018.97 1.97215 0.540983 0
M  V30 10882 H 1017.12 2.48701 2.9703 0
M  V30 10883 H 1017.54 4.63834 2.44863 0
M  V30 10884 H 1019.01 3.84294 3.9626 0
M  V30 10885 H 1019.49 2.152 3.82865 0
M  V30 10886 H 1020.1 3.33167 2.64347 0
M  V30 10887 N 1018.41 -0.709066 1.40748 0
M  V30 10888 C 1019.36 -1.82312 1.4153 0
M  V30 10889 C 1020.33 -1.63868 0.271392 0
M  V30 10890 O 1021.51 -1.8491 0.470431 0
M  V30 10891 C 1018.65 -3.2008 1.29006 0
M  V30 10892 C 1017.77 -3.50051 2.53156 0
M  V30 10893 C 1016.9 -4.7736 2.33025 0
M  V30 10894 C 1015.94 -5.00255 3.52719 0
M  V30 10895 N 1015.08 -6.18782 3.31743 0
M  V30 10896 H 1019.92 -1.80978 2.36751 0
M  V30 10897 H 1017.45 -0.883975 1.17577 0
M  V30 10898 H 1019.41 -3.99645 1.19749 0
M  V30 10899 H 1018.04 -3.20626 0.374014 0
M  V30 10900 H 1017.09 -2.64993 2.72916 0
M  V30 10901 H 1018.41 -3.62877 3.42231 0
M  V30 10902 H 1017.56 -5.64954 2.21159 0
M  V30 10903 H 1016.3 -4.66756 1.41386 0
M  V30 10904 H 1015.3 -4.11114 3.65055 0
M  V30 10905 H 1016.53 -5.12728 4.45295 0
M  V30 10906 H 1014.47 -6.09416 2.42791 0
M  V30 10907 H 1014.39 -6.32313 4.14386 0
M  V30 10908 H 1015.66 -7.09146 3.23623 0
M  V30 10909 N 1019.89 -1.26353 -0.941956 0
M  V30 10910 C 1021.12 -1.1446 -1.71996 0
M  V30 10911 C 1021.53 0.302957 -1.86759 0
M  V30 10912 O 1020.87 1.2193 -1.374 0
M  V30 10913 C 1020.93 -1.73986 -3.14593 0
M  V30 10914 C 1020.6 -3.23078 -3.23217 0
M  V30 10915 C 1021.59 -4.19905 -3.06554 0
M  V30 10916 C 1019.28 -3.63526 -3.46632 0
M  V30 10917 C 1021.27 -5.55159 -3.13172 0
M  V30 10918 C 1018.96 -4.98914 -3.52886 0
M  V30 10919 C 1019.96 -5.9454 -3.36172 0
M  V30 10920 O 1019.65 -7.27462 -3.42132 0
M  V30 10921 H 1019.38 -0.399453 -0.545356 0
M  V30 10922 H 1021.93 -1.67455 -1.18945 0
M  V30 10923 H 1020.16 -1.15453 -3.69063 0
M  V30 10924 H 1021.85 -1.57011 -3.74302 0
M  V30 10925 H 1022.62 -3.89995 -2.88321 0
M  V30 10926 H 1018.5 -2.8958 -3.58698 0
M  V30 10927 H 1022.04 -6.29777 -3.00044 0
M  V30 10928 H 1017.94 -5.28485 -3.70639 0
M  V30 10929 H 1018.7 -7.35725 -3.5868 0
M  V30 10930 N 1021.37 1.14642 -1.08144 0
M  V30 10931 C 1022.78 1.6719 -0.830923 0
M  V30 10932 C 1023.13 1.85373 0.642749 0
M  V30 10933 O 1022.25 1.56293 1.49671 0
M  V30 10934 C 1022.85 3.03697 -1.50179 0
M  V30 10935 C 1021.41 3.5329 -1.29858 0
M  V30 10936 C 1020.56 2.28828 -1.5663 0
M  V30 10937 H 1023.51 0.987441 -1.24239 0
M  V30 10938 H 1023.53 3.69023 -0.9275 0
M  V30 10939 H 1023.04 2.90431 -2.57432 0
M  V30 10940 H 1021.14 3.71783 -0.246626 0
M  V30 10941 H 1021.25 4.34231 -2.02436 0
M  V30 10942 H 1019.62 2.34769 -0.987716 0
M  V30 10943 H 1020.4 2.18141 -2.65084 0
M  V30 10944 N 1022.85 0.866709 1.31628 0
M  V30 10945 C 1024.09 0.476731 1.97117 0
M  V30 10946 C 1024.42 -0.967813 1.68366 0
M  V30 10947 O 1023.7 -1.68101 0.978377 0
M  V30 10948 C 1023.98 0.730561 3.52611 0
M  V30 10949 C 1023.84 2.2244 3.90948 0
M  V30 10950 C 1025.15 0.19488 4.39668 0
M  V30 10951 H 1022.27 0.174682 0.715999 0
M  V30 10952 H 1024.92 1.08735 1.5581 0
M  V30 10953 H 1023.07 0.210834 3.87927 0
M  V30 10954 H 1024.74 2.81113 3.6575 0
M  V30 10955 H 1022.98 2.69824 3.39673 0
M  V30 10956 H 1023.65 2.35266 4.99353 0
M  V30 10957 H 1026.13 0.639478 4.11157 0
M  V30 10958 H 1025 0.401958 5.47426 0
M  V30 10959 H 1025.26 -0.90302 4.32779 0
M  V30 10960 N 1024.32 -1.44642 0.625825 0
M  V30 10961 C 1025.57 -2.02393 0.128391 0
M  V30 10962 C 1025.9 -1.49075 -1.2446 0
M  V30 10963 O 1025.18 -0.672684 -1.82497 0
M  V30 10964 C 1025.46 -3.59934 0.109279 0
M  V30 10965 C 1025.31 -4.23546 1.51423 0
M  V30 10966 C 1026.63 -4.36406 -0.568985 0
M  V30 10967 H 1023.75 -0.735427 0.0481299 0
M  V30 10968 H 1026.39 -1.72277 0.801286 0
M  V30 10969 H 1024.54 -3.85722 -0.463726 0
M  V30 10970 H 1026.22 -4.08882 2.13572 0
M  V30 10971 H 1024.46 -3.81245 2.06966 0
M  V30 10972 H 1025.13 -5.32535 1.45294 0
M  V30 10973 H 1027.61 -4.1602 -0.0817516 0
M  V30 10974 H 1026.48 -5.46122 -0.551527 0
M  V30 10975 H 1026.74 -4.1062 -1.6384 0
M  V30 10976 N 1025.8 -0.366053 -1.5329 0
M  V30 10977 C 1027.05 0.223493 -2.01263 0
M  V30 10978 C 1027.38 1.48736 -1.25331 0
M  V30 10979 O 1026.63 1.92805 -0.335341 0
M  V30 10980 C 1026.93 0.560906 -3.52971 0
M  V30 10981 C 1026.6 -0.60869 -4.46773 0
M  V30 10982 C 1025.26 -0.929609 -4.72135 0
M  V30 10983 C 1027.61 -1.39225 -5.02261 0
M  V30 10984 C 1024.94 -2.03606 -5.50238 0
M  V30 10985 C 1027.29 -2.48912 -5.81572 0
M  V30 10986 C 1025.95 -2.81538 -6.05221 0
M  V30 10987 H 1025.22 0.0817818 -0.736473 0
M  V30 10988 H 1027.87 -0.498613 -1.84895 0
M  V30 10989 H 1026.18 1.36403 -3.67289 0
M  V30 10990 H 1027.87 1.02931 -3.87564 0
M  V30 10991 H 1024.46 -0.348529 -4.27181 0
M  V30 10992 H 1028.65 -1.15757 -4.82612 0
M  V30 10993 H 1023.9 -2.29281 -5.6678 0
M  V30 10994 H 1028.08 -3.10044 -6.23575 0
M  V30 10995 H 1025.7 -3.67396 -6.65525 0
M  V30 10996 N 1027.28 1.57312 -0.0952337 0
M  V30 10997 C 1028.53 1.93533 0.568131 0
M  V30 10998 C 1028.84 0.979121 1.6933 0
M  V30 10999 O 1030.05 1.23506 2.41782 0
M  V30 11000 C 1028.5 3.43875 1.06198 0
M  V30 11001 C 1028.11 4.47988 -0.0334397 0
M  V30 11002 C 1029.86 3.89057 1.69807 0
M  V30 11003 C 1027.76 5.89483 0.475774 0
M  V30 11004 H 1026.69 0.7224 0.215995 0
M  V30 11005 H 1029.34 1.82699 -0.171257 0
M  V30 11006 H 1027.73 3.49862 1.85506 0
M  V30 11007 H 1028.9 4.53644 -0.808934 0
M  V30 11008 H 1027.21 4.12415 -0.574725 0
M  V30 11009 H 1029.81 4.92171 2.08978 0
M  V30 11010 H 1030.15 3.27713 2.5673 0
M  V30 11011 H 1030.69 3.85772 0.970815 0
M  V30 11012 H 1027.43 6.54528 -0.356837 0
M  V30 11013 H 1026.95 5.87297 1.21827 0
M  V30 11014 H 1028.63 6.40066 0.944697 0
M  V30 11015 N 1028.76 -0.17846 1.56586 0
M  V30 11016 C 1030.01 -0.894502 1.8078 0
M  V30 11017 C 1030.32 -1.8372 0.67129 0
M  V30 11018 O 1031.53 -2.59509 0.797971 0
M  V30 11019 C 1029.98 -1.64109 3.20306 0
M  V30 11020 C 1029.59 -0.742387 4.41806 0
M  V30 11021 C 1031.33 -2.34578 3.53798 0
M  V30 11022 C 1029.24 -1.4888 5.72354 0
M  V30 11023 H 1028.17 -0.33776 0.674117 0
M  V30 11024 H 1030.82 -0.14752 1.82906 0
M  V30 11025 H 1029.2 -2.43257 3.12477 0
M  V30 11026 H 1030.38 0.011615 4.60799 0
M  V30 11027 H 1028.69 -0.147705 4.16138 0
M  V30 11028 H 1031.29 -2.91004 4.48577 0
M  V30 11029 H 1031.63 -3.09572 2.78336 0
M  V30 11030 H 1032.17 -1.62381 3.63149 0
M  V30 11031 H 1028.9 -0.781325 6.50827 0
M  V30 11032 H 1028.42 -2.21631 5.57351 0
M  V30 11033 H 1030.1 -2.03819 6.14058 0
M  V30 11034 N 1030.24 -1.51135 -0.446768 0
M  V30 11035 C 1031.17 -1.74709 -1.54916 0
M  V30 11036 C 1032.15 -0.596628 -1.59293 0
M  V30 11037 O 1033.33 -0.838356 -1.75172 0
M  V30 11038 C 1030.46 -1.86353 -2.9307 0
M  V30 11039 C 1029.42 -3.01725 -3.03556 0
M  V30 11040 C 1028.74 -2.9854 -4.43597 0
M  V30 11041 C 1030.04 -4.41848 -2.7851 0
M  V30 11042 H 1031.74 -2.67014 -1.3544 0
M  V30 11043 H 1029.28 -1.28489 -0.650131 0
M  V30 11044 H 1031.23 -2.01428 -3.70141 0
M  V30 11045 H 1029.96 -0.906887 -3.13756 0
M  V30 11046 H 1028.62 -2.86339 -2.28922 0
M  V30 11047 H 1028.27 -2.00673 -4.61237 0
M  V30 11048 H 1027.97 -3.76008 -4.51544 0
M  V30 11049 H 1029.49 -3.15696 -5.22655 0
M  V30 11050 H 1030.9 -4.57633 -3.45319 0
M  V30 11051 H 1029.3 -5.2095 -2.97877 0
M  V30 11052 H 1030.37 -4.52536 -1.74182 0
M  V30 11053 N 1031.71 0.701592 -1.41122 0
M  V30 11054 C 1032.64 1.82815 -1.45262 0
M  V30 11055 C 1033.62 1.67215 -0.311939 0
M  V30 11056 O 1034.81 1.87038 -0.522538 0
M  V30 11057 C 1031.94 3.20899 -1.32819 0
M  V30 11058 C 1030.89 3.51194 -2.44636 0
M  V30 11059 C 1030.22 4.8857 -2.17263 0
M  V30 11060 C 1031.52 3.50777 -3.86979 0
M  V30 11061 H 1033.21 1.79608 -2.39544 0
M  V30 11062 H 1030.76 0.862693 -1.15298 0
M  V30 11063 H 1032.71 3.99417 -1.34329 0
M  V30 11064 H 1031.44 3.24717 -0.350191 0
M  V30 11065 H 1030.1 2.75024 -2.42399 0
M  V30 11066 H 1029.74 4.89007 -1.17819 0
M  V30 11067 H 1029.44 5.09805 -2.92186 0
M  V30 11068 H 1030.97 5.69405 -2.20478 0
M  V30 11069 H 1032.38 4.19309 -3.90964 0
M  V30 11070 H 1030.78 3.83542 -4.61536 0
M  V30 11071 H 1031.85 2.49873 -4.15562 0
M  V30 11072 N 1033.19 1.2685 0.935242 0
M  V30 11073 C 1034.44 1.12912 1.6846 0
M  V30 11074 C 1034.77 -0.325708 1.91449 0
M  V30 11075 O 1034.05 -1.23884 1.49944 0
M  V30 11076 C 1034.33 1.90513 3.05576 0
M  V30 11077 C 1034.18 3.43936 2.89876 0
M  V30 11078 C 1035.5 1.70363 4.05789 0
M  V30 11079 H 1032.62 0.411559 0.611382 0
M  V30 11080 H 1035.26 1.55917 1.08582 0
M  V30 11081 H 1033.41 1.53963 3.5669 0
M  V30 11082 H 1035.08 3.90272 2.45939 0
M  V30 11083 H 1033.33 3.70659 2.25376 0
M  V30 11084 H 1034 3.93467 3.87153 0
M  V30 11085 H 1036.47 2.02217 3.63659 0
M  V30 11086 H 1035.35 2.27066 4.99732 0
M  V30 11087 H 1035.61 0.649674 4.373 0
M  V30 11088 N 1034.67 -1.14067 1.0875 0
M  V30 11089 C 1035.9 -1.89041 0.840902 0
M  V30 11090 C 1036.31 -1.78768 -0.60725 0
M  V30 11091 O 1035.67 -1.14945 -1.41753 0
M  V30 11092 C 1035.72 -3.38891 1.25838 0
M  V30 11093 O 1035.44 -3.48886 2.64972 0
M  V30 11094 C 1036.94 -4.30852 1.04315 0
M  V30 11095 H 1034.16 -0.598685 0.303014 0
M  V30 11096 H 1036.71 -1.44438 1.44769 0
M  V30 11097 H 1034.86 -3.81103 0.695627 0
M  V30 11098 H 1035.28 -4.41989 2.82393 0
M  V30 11099 H 1036.75 -5.34353 1.38461 0
M  V30 11100 H 1037.23 -4.39196 -0.0195784 0
M  V30 11101 H 1037.83 -3.944 1.59151 0
M  V30 11102 N 1036.15 -0.873678 -1.31166 0
M  V30 11103 C 1037.38 -0.500317 -2.0045 0
M  V30 11104 C 1037.79 0.912716 -1.65729 0
M  V30 11105 O 1037.13 1.61001 -0.884563 0
M  V30 11106 C 1037.19 -0.58197 -3.54758 0
M  V30 11107 C 1036.86 -1.95728 -4.12964 0
M  V30 11108 C 1037.85 -2.92526 -4.29796 0
M  V30 11109 C 1035.54 -2.2596 -4.48606 0
M  V30 11110 C 1037.53 -4.17697 -4.81464 0
M  V30 11111 C 1035.22 -3.5138 -4.99976 0
M  V30 11112 C 1036.22 -4.47064 -5.16356 0
M  V30 11113 O 1035.9 -5.70259 -5.66621 0
M  V30 11114 H 1035.64 -0.193044 -0.64785 0
M  V30 11115 H 1038.19 -1.17768 -1.68285 0
M  V30 11116 H 1036.42 0.152326 -3.864 0
M  V30 11117 H 1038.11 -0.221506 -4.05295 0
M  V30 11118 H 1038.88 -2.70479 -4.02574 0
M  V30 11119 H 1034.75 -1.52258 -4.3513 0
M  V30 11120 H 1038.3 -4.92389 -4.94165 0
M  V30 11121 H 1034.2 -3.73269 -5.26631 0
M  V30 11122 H 1034.96 -5.72483 -5.84983 0
M  V30 11123 N 1037.63 1.44308 -0.633487 0
M  V30 11124 C 1038.88 2.01239 -0.136356 0
M  V30 11125 C 1039.19 1.50438 1.25011 0
M  V30 11126 O 1040.39 1.99513 1.84138 0
M  V30 11127 C 1038.85 3.59382 -0.193011 0
M  V30 11128 C 1038.46 4.19178 -1.58093 0
M  V30 11129 C 1040.2 4.23778 0.247534 0
M  V30 11130 C 1038.11 5.69553 -1.59258 0
M  V30 11131 H 1037.04 0.752521 -0.0472109 0
M  V30 11132 H 1039.69 1.65498 -0.79263 0
M  V30 11133 H 1038.07 3.92432 0.530408 0
M  V30 11134 H 1039.25 3.97662 -2.32813 0
M  V30 11135 H 1037.56 3.67079 -1.96576 0
M  V30 11136 H 1040.16 5.34075 0.258401 0
M  V30 11137 H 1040.5 3.96285 1.27529 0
M  V30 11138 H 1041.03 3.9554 -0.423469 0
M  V30 11139 H 1037.77 6.01784 -2.59878 0
M  V30 11140 H 1037.29 5.93185 -0.888352 0
M  V30 11141 H 1038.97 6.33234 -1.32756 0
M  V30 11142 N 1039.1 0.374177 1.53094 0
M  V30 11143 C 1040.35 -0.213981 2.00562 0
M  V30 11144 C 1040.67 -1.4916 1.26533 0
M  V30 11145 O 1041.87 -2.15889 1.64634 0
M  V30 11146 C 1040.33 -0.431876 3.57299 0
M  V30 11147 C 1039.94 0.831615 4.40214 0
M  V30 11148 C 1041.68 -0.977222 4.13099 0
M  V30 11149 C 1039.59 0.582831 5.88521 0
M  V30 11150 H 1038.52 -0.0837386 0.749336 0
M  V30 11151 H 1041.17 0.494245 1.76719 0
M  V30 11152 H 1039.55 -1.20158 3.7733 0
M  V30 11153 H 1040.72 1.60477 4.31953 0
M  V30 11154 H 1039.04 1.30081 3.9556 0
M  V30 11155 H 1041.64 -1.17881 5.21544 0
M  V30 11156 H 1041.98 -1.94189 3.68234 0
M  V30 11157 H 1042.51 -0.267473 3.969 0
M  V30 11158 H 1039.25 1.51807 6.37679 0
M  V30 11159 H 1038.77 -0.151666 5.99608 0
M  V30 11160 H 1040.45 0.211604 6.46654 0
M  V30 11161 N 1040.58 -1.57259 0.103575 0
M  V30 11162 C 1041.51 -2.17509 -0.84923 0
M  V30 11163 C 1042.49 -1.11079 -1.28824 0
M  V30 11164 O 1043.68 -1.39252 -1.35361 0
M  V30 11165 C 1040.81 -2.76221 -2.10522 0
M  V30 11166 C 1039.76 -3.88098 -1.80454 0
M  V30 11167 C 1039.09 -4.33549 -3.12952 0
M  V30 11168 C 1040.39 -5.10909 -1.08486 0
M  V30 11169 H 1042.08 -2.9738 -0.347217 0
M  V30 11170 H 1039.63 -1.43045 -0.165568 0
M  V30 11171 H 1041.58 -3.17024 -2.77621 0
M  V30 11172 H 1040.31 -1.93617 -2.63021 0
M  V30 11173 H 1038.96 -3.47847 -1.15749 0
M  V30 11174 H 1038.61 -3.47825 -3.63355 0
M  V30 11175 H 1038.31 -5.08984 -2.93614 0
M  V30 11176 H 1039.84 -4.76992 -3.81196 0
M  V30 11177 H 1041.25 -5.48828 -1.65711 0
M  V30 11178 H 1039.65 -5.91828 -0.992973 0
M  V30 11179 H 1040.72 -4.84851 -0.0690108 0
M  V30 11180 N 1042.06 0.170153 -1.56679 0
M  V30 11181 C 1043.29 0.902134 -1.86197 0
M  V30 11182 C 1043.7 1.75775 -0.689098 0
M  V30 11183 O 1043.06 1.79271 0.341763 0
M  V30 11184 C 1043.11 1.77792 -3.14757 0
M  V30 11185 O 1042.83 0.956817 -4.27524 0
M  V30 11186 C 1044.33 2.61947 -3.57629 0
M  V30 11187 H 1041.55 0.262026 -0.617724 0
M  V30 11188 H 1044.1 0.169899 -2.03793 0
M  V30 11189 H 1042.25 2.46348 -2.98984 0
M  V30 11190 H 1042.67 1.5559 -5.00891 0
M  V30 11191 H 1044.14 3.19011 -4.50484 0
M  V30 11192 H 1044.62 3.36873 -2.81803 0
M  V30 11193 H 1045.22 1.98721 -3.76019 0
M  V30 11194 N 1043.54 1.5137 0.438746 0
M  V30 11195 C 1044.79 1.63969 1.1883 0
M  V30 11196 C 1045.11 0.355245 1.91228 0
M  V30 11197 O 1044.37 -0.660605 1.84213 0
M  V30 11198 C 1044.67 2.79221 2.23093 0
M  V30 11199 C 1044.33 4.18547 1.67717 0
M  V30 11200 C 1043 4.5645 1.52337 0
M  V30 11201 C 1045.35 5.05494 1.26986 0
M  V30 11202 C 1042.68 5.79007 0.946996 0
M  V30 11203 C 1045.03 6.28628 0.707785 0
M  V30 11204 C 1043.69 6.65305 0.540881 0
M  V30 11205 H 1042.96 0.600003 0.43483 0
M  V30 11206 H 1045.61 1.85398 0.479565 0
M  V30 11207 H 1043.91 2.52008 2.99999 0
M  V30 11208 H 1045.61 2.86168 2.80907 0
M  V30 11209 H 1042.2 3.88663 1.80663 0
M  V30 11210 H 1046.38 4.76818 1.37689 0
M  V30 11211 H 1041.64 6.06072 0.805432 0
M  V30 11212 H 1045.81 6.95342 0.38366 0
M  V30 11213 H 1043.44 7.60144 0.0921324 0
M  V30 11214 N 1045.02 -0.694098 1.41492 0
M  V30 11215 C 1046.26 -1.4563 1.41137 0
M  V30 11216 C 1046.6 -1.94189 0.0208428 0
M  V30 11217 O 1045.87 -1.69628 -0.951655 0
M  V30 11218 C 1046.15 -2.66714 2.41941 0
M  V30 11219 C 1046.01 -2.23912 3.90107 0
M  V30 11220 C 1047.33 -3.68913 2.39981 0
M  V30 11221 H 1044.44 -0.52821 0.513968 0
M  V30 11222 H 1047.09 -0.790437 1.72778 0
M  V30 11223 H 1045.24 -3.23525 2.1509 0
M  V30 11224 H 1046.91 -1.72417 4.27867 0
M  V30 11225 H 1045.15 -1.5568 4.04903 0
M  V30 11226 H 1045.82 -3.108 4.56188 0
M  V30 11227 H 1048.3 -3.21779 2.63813 0
M  V30 11228 H 1047.17 -4.51242 3.12524 0
M  V30 11229 H 1047.44 -4.18711 1.41892 0
M  V30 11230 N 1046.49 -1.27344 -0.928501 0
M  V30 11231 C 1047.42 -1.12517 -2.04602 0
M  V30 11232 C 1048.41 -0.0268563 -1.70079 0
M  V30 11233 O 1049.59 -0.201197 -1.93155 0
M  V30 11234 C 1046.72 -0.770749 -3.3864 0
M  V30 11235 C 1045.67 -1.8222 -3.87272 0
M  V30 11236 C 1045 -1.32178 -5.18105 0
M  V30 11237 C 1046.3 -3.22614 -4.10752 0
M  V30 11238 H 1047.99 -2.06 -2.17265 0
M  V30 11239 H 1045.54 -0.991827 -1.04397 0
M  V30 11240 H 1047.49 -0.653843 -4.16297 0
M  V30 11241 H 1046.22 0.19979 -3.25988 0
M  V30 11242 H 1044.88 -1.928 -3.11807 0
M  V30 11243 H 1044.52 -0.340719 -5.01845 0
M  V30 11244 H 1044.22 -2.02474 -5.51614 0
M  V30 11245 H 1045.75 -1.2178 -5.98333 0
M  V30 11246 H 1047.16 -3.1504 -4.78981 0
M  V30 11247 H 1045.56 -3.90614 -4.55566 0
M  V30 11248 H 1046.63 -3.67727 -3.16077 0
M  V30 11249 N 1047.97 1.13488 -1.09353 0
M  V30 11250 C 1048.9 2.20988 -0.75409 0
M  V30 11251 C 1049.88 1.67977 0.267901 0
M  V30 11252 O 1051.07 1.93722 0.136128 0
M  V30 11253 C 1048.2 3.46869 -0.173042 0
M  V30 11254 C 1047.15 4.12965 -1.12446 0
M  V30 11255 C 1046.48 5.33163 -0.405157 0
M  V30 11256 C 1047.78 4.60388 -2.46658 0
M  V30 11257 H 1049.47 2.49639 -1.6529 0
M  V30 11258 H 1047.02 1.19987 -0.796182 0
M  V30 11259 H 1048.97 4.21331 0.0764988 0
M  V30 11260 H 1047.7 3.17611 0.760956 0
M  V30 11261 H 1046.35 3.40469 -1.35927 0
M  V30 11262 H 1046 5.00169 0.532955 0
M  V30 11263 H 1045.7 5.78332 -1.03952 0
M  V30 11264 H 1047.23 6.1038 -0.163899 0
M  V30 11265 H 1048.64 5.26276 -2.27389 0
M  V30 11266 H 1047.04 5.16294 -3.05876 0
M  V30 11267 H 1048.11 3.74949 -3.07476 0
M  V30 11268 N 1049.45 0.880621 1.30701 0
M  V30 11269 C 1050.38 0.360251 2.30704 0
M  V30 11270 C 1051.36 -0.554572 1.60806 0
M  V30 11271 O 1052.55 -0.469345 1.88443 0
M  V30 11272 C 1049.68 -0.429888 3.44629 0
M  V30 11273 C 1048.63 0.392786 4.26194 0
M  V30 11274 C 1047.96 -0.52369 5.32129 0
M  V30 11275 C 1049.26 1.63258 4.96129 0
M  V30 11276 H 1050.95 1.19591 2.74478 0
M  V30 11277 H 1048.5 0.576508 1.31956 0
M  V30 11278 H 1050.45 -0.804532 4.13649 0
M  V30 11279 H 1049.17 -1.29916 2.99649 0
M  V30 11280 H 1047.83 0.749514 3.58856 0
M  V30 11281 H 1047.48 -1.39054 4.83397 0
M  V30 11282 H 1047.18 0.0229272 5.87596 0
M  V30 11283 H 1048.71 -0.894946 6.04006 0
M  V30 11284 H 1050.12 1.32877 5.57689 0
M  V30 11285 H 1048.52 2.11906 5.61441 0
M  V30 11286 H 1049.59 2.37944 4.22505 0
M  V30 11287 N 1050.93 -1.4397 0.641131 0
M  V30 11288 C 1051.88 -2.32495 -0.0698668 0
M  V30 11289 C 1052.87 -1.47922 -0.825555 0
M  V30 11290 O 1054.08 -1.64206 -0.737323 0
M  V30 11291 H 1050.45 -0.750861 -0.0413706 0
M  V30 11292 H 1052.42 -2.90201 0.694682 0
M  V30 11293 C 1051.17 -3.32063 -1.03098 0
M  V30 11294 H 1050.5 -3.97157 -0.458923 0
M  V30 11295 H 1051.94 -3.96664 -1.49778 0
M  V30 11296 C 1050.39 -2.61743 -2.12113 0
M  V30 11297 O 1050.92 -2.42385 -3.20332 0
M  V30 11298 N 1049.13 -2.21316 -1.88328 0
M  V30 11299 H 1048.68 -2.37261 -1.00324 0
M  V30 11300 H 1048.64 -1.74594 -2.61465 0
M  V30 11301 N 1052.41 -0.382291 -1.52893 0
M  V30 11302 C 1053.34 0.500194 -2.22651 0
M  V30 11303 C 1054.32 1.06969 -1.22459 0
M  V30 11304 O 1055.5 1.12267 -1.51422 0
M  V30 11305 C 1052.63 1.6917 -2.93427 0
M  V30 11306 C 1051.68 1.24811 -4.07829 0
M  V30 11307 S 1052.51 0.235466 -5.34982 0
M  V30 11308 C 1053.66 1.43292 -6.09277 0
M  V30 11309 H 1053.9 -0.0921913 -2.97157 0
M  V30 11310 H 1051.43 -0.16645 -1.535 0
M  V30 11311 H 1053.39 2.37507 -3.34815 0
M  V30 11312 H 1052.05 2.25537 -2.18613 0
M  V30 11313 H 1051.24 2.13754 -4.56426 0
M  V30 11314 H 1050.84 0.643744 -3.68418 0
M  V30 11315 H 1053.14 2.36118 -6.35023 0
M  V30 11316 H 1054.08 0.988003 -7.01173 0
M  V30 11317 H 1054.49 1.64655 -5.39953 0
M  V30 11318 N 1053.89 1.57202 -0.111913 0
M  V30 11319 C 1054.82 2.17957 0.837683 0
M  V30 11320 C 1055.8 1.1176 1.28233 0
M  V30 11321 O 1056.98 1.39967 1.34621 0
M  V30 11322 C 1054.11 2.77333 2.09054 0
M  V30 11323 C 1053.07 3.8905 1.78393 0
M  V30 11324 C 1052.39 4.35203 3.10649 0
M  V30 11325 C 1053.69 5.11477 1.05775 0
M  V30 11326 H 1055.39 2.9756 0.331441 0
M  V30 11327 H 1052.93 1.43131 0.157979 0
M  V30 11328 H 1054.88 3.18492 2.75936 0
M  V30 11329 H 1053.61 1.95009 2.6199 0
M  V30 11330 H 1052.27 3.48456 1.13903 0
M  V30 11331 H 1051.92 3.49747 3.61506 0
M  V30 11332 H 1051.62 5.10534 2.9091 0
M  V30 11333 H 1053.14 4.79007 3.78661 0
M  V30 11334 H 1054.55 5.497 1.62798 0
M  V30 11335 H 1052.95 5.92346 0.961573 0
M  V30 11336 H 1054.02 4.84881 0.043297 0
M  V30 11337 N 1055.36 -0.161842 1.56767 0
M  V30 11338 C 1056.61 -0.875278 1.81719 0
M  V30 11339 C 1056.93 -1.82998 0.690739 0
M  V30 11340 O 1058.13 -2.58648 0.82545 0
M  V30 11341 C 1056.59 -1.60703 3.22029 0
M  V30 11342 C 1056.2 -0.695486 4.42569 0
M  V30 11343 C 1057.94 -2.30813 3.56266 0
M  V30 11344 C 1055.85 -1.42801 5.73901 0
M  V30 11345 H 1054.78 -0.330591 0.677662 0
M  V30 11346 H 1057.43 -0.128112 1.83052 0
M  V30 11347 H 1055.81 -2.39929 3.1504 0
M  V30 11348 H 1056.98 0.0604882 4.6076 0
M  V30 11349 H 1055.3 -0.10356 4.16271 0
M  V30 11350 H 1057.9 -2.86229 4.51638 0
M  V30 11351 H 1058.24 -3.06603 2.81604 0
M  V30 11352 H 1058.77 -1.5852 3.64851 0
M  V30 11353 H 1055.51 -0.712253 6.51619 0
M  V30 11354 H 1055.03 -2.15707 5.5967 0
M  V30 11355 H 1056.71 -1.97295 6.16185 0
M  V30 11356 N 1056.84 -1.516 -0.430713 0
M  V30 11357 C 1057.8 -1.72794 -1.50582 0
M  V30 11358 C 1058.8 -0.597903 -1.49271 0
M  V30 11359 O 1059.99 -0.865535 -1.51176 0
M  V30 11360 C 1057.13 -1.79049 -2.90093 0
M  V30 11361 H 1058.32 -2.68751 -1.33091 0
M  V30 11362 H 1055.87 -1.4169 -0.659822 0
M  V30 11363 H 1056.61 -0.849309 -3.12981 0
M  V30 11364 H 1056.39 -2.61181 -2.92449 0
M  V30 11365 H 1057.88 -1.97262 -3.68072 0
M  V30 11366 N 1058.32 0.686584 -1.41858 0
M  V30 11367 C 1059.25 1.81264 -1.47193 0
M  V30 11368 C 1060.23 1.66875 -0.329657 0
M  V30 11369 O 1061.42 1.86473 -0.542347 0
M  V30 11370 C 1058.55 3.19472 -1.36216 0
M  V30 11371 C 1057.5 3.4858 -2.48347 0
M  V30 11372 C 1056.83 4.86239 -2.22432 0
M  V30 11373 C 1058.13 3.46653 -3.90678 0
M  V30 11374 H 1059.82 1.77057 -2.41436 0
M  V30 11375 H 1057.37 0.850415 -1.16206 0
M  V30 11376 H 1059.32 3.97969 -1.38558 0
M  V30 11377 H 1058.04 3.24327 -0.384611 0
M  V30 11378 H 1056.7 2.72437 -2.45303 0
M  V30 11379 H 1056.35 4.8773 -1.22999 0
M  V30 11380 H 1056.05 5.06677 -2.97577 0
M  V30 11381 H 1057.57 5.67034 -2.26505 0
M  V30 11382 H 1058.99 4.15139 -3.95389 0
M  V30 11383 H 1057.38 3.78625 -4.65578 0
M  V30 11384 H 1058.45 2.45451 -4.18189 0
M  V30 11385 N 1059.8 1.27835 0.921735 0
M  V30 11386 C 1060.73 1.05397 2.02402 0
M  V30 11387 C 1061.71 -0.0274904 1.62577 0
M  V30 11388 O 1062.89 0.11885 1.88125 0
M  V30 11389 C 1060.02 0.600016 3.33343 0
M  V30 11390 C 1059.07 1.67693 3.9215 0
M  V30 11391 S 1059.9 3.27093 4.23994 0
M  V30 11392 C 1061.05 2.83513 5.58006 0
M  V30 11393 H 1061.29 1.98723 2.21125 0
M  V30 11394 H 1058.82 1.11733 1.0656 0
M  V30 11395 H 1060.78 0.344793 4.09049 0
M  V30 11396 H 1059.44 -0.313288 3.12534 0
M  V30 11397 H 1058.63 1.31074 4.86658 0
M  V30 11398 H 1058.23 1.88454 3.2305 0
M  V30 11399 H 1060.53 2.29187 6.37557 0
M  V30 11400 H 1061.47 3.76788 5.9953 0
M  V30 11401 H 1061.88 2.22472 5.18813 0
M  V30 11402 N 1061.28 -1.12907 1.09954 0
M  V30 11403 C 1062.52 -1.83941 0.837255 0
M  V30 11404 C 1062.84 -1.84234 -0.638984 0
M  V30 11405 O 1062.11 -1.30193 -1.46378 0
M  V30 11406 H 1060.69 -0.681115 0.306743 0
M  V30 11407 H 1063.36 -1.36743 1.38879 0
M  V30 11408 H 1062.45 -2.88289 1.19565 0
M  V30 11409 N 1062.75 -0.88754 -1.30232 0
M  V30 11410 C 1063.66 -0.360333 -2.31816 0
M  V30 11411 C 1064.68 0.538741 -1.6545 0
M  V30 11412 O 1065.86 0.431246 -1.96729 0
M  V30 11413 C 1062.92 0.414336 -3.44215 0
M  V30 11414 C 1061.98 -0.514799 -4.26202 0
M  V30 11415 C 1061.21 0.222994 -5.33234 0
M  V30 11416 O 1061.44 1.44871 -5.51696 0
M  V30 11417 O 1060.37 -0.428221 -6.00375 0
M  V30 11418 H 1064.2 -1.20279 -2.78867 0
M  V30 11419 H 1061.78 -0.651459 -1.34448 0
M  V30 11420 H 1063.66 0.852859 -4.12679 0
M  V30 11421 H 1062.34 1.23305 -2.99295 0
M  V30 11422 H 1061.25 -1.00219 -3.60426 0
M  V30 11423 H 1062.58 -1.29959 -4.74733 0
M  V30 11424 N 1064.23 1.43628 -0.648757 0
M  V30 11425 C 1065.46 2.06217 -0.167945 0
M  V30 11426 C 1065.88 1.486 1.16462 0
M  V30 11427 O 1065.23 0.61559 1.71804 0
M  V30 11428 C 1065.28 3.6144 -0.0660114 0
M  V30 11429 O 1065 4.16914 -1.34589 0
M  V30 11430 C 1066.51 4.41097 0.441408 0
M  V30 11431 H 1063.73 0.665228 -0.0878237 0
M  V30 11432 H 1066.27 1.84207 -0.888144 0
M  V30 11433 H 1064.42 3.82651 0.604722 0
M  V30 11434 H 1064.84 5.10537 -1.20218 0
M  V30 11435 H 1066.31 5.50066 0.461697 0
M  V30 11436 H 1066.79 4.13803 1.47187 0
M  V30 11437 H 1067.4 4.24845 -0.19668 0
M  V30 11438 N 1065.71 0.390394 1.52688 0
M  V30 11439 C 1066.96 -0.191729 2.01892 0
M  V30 11440 C 1067.29 -1.4637 1.27631 0
M  V30 11441 O 1066.56 -1.90809 0.377094 0
M  V30 11442 C 1066.85 -0.458535 3.57169 0
M  V30 11443 C 1066.7 0.828796 4.42098 0
M  V30 11444 C 1068.02 -1.2487 4.22014 0
M  V30 11445 H 1065.14 -0.0682091 0.733837 0
M  V30 11446 H 1067.78 0.520176 1.82741 0
M  V30 11447 H 1065.93 -1.06498 3.73618 0
M  V30 11448 H 1067.6 1.46562 4.37398 0
M  V30 11449 H 1065.85 1.44388 4.09066 0
M  V30 11450 H 1066.52 0.596746 5.48765 0
M  V30 11451 H 1068.99 -0.735452 4.09549 0
M  V30 11452 H 1067.87 -1.40412 5.30637 0
M  V30 11453 H 1068.13 -2.2642 3.79719 0
M  V30 11454 N 1067.19 -1.57141 0.120249 0
M  V30 11455 C 1068.44 -1.94852 -0.536387 0
M  V30 11456 C 1068.76 -1.00452 -1.67136 0
M  V30 11457 O 1068.03 -0.061053 -1.95805 0
M  V30 11458 H 1066.61 -0.719411 -0.201138 0
M  V30 11459 H 1069.27 -1.93977 0.189482 0
M  V30 11460 H 1068.37 -2.97917 -0.930145 0
M  V30 11461 N 1068.67 0.153526 -1.5685 0
M  V30 11462 C 1069.6 1.2147 -1.94365 0
M  V30 11463 C 1070.61 1.39532 -0.838726 0
M  V30 11464 O 1071.8 1.39219 -1.11715 0
M  V30 11465 C 1068.9 2.5806 -2.19677 0
M  V30 11466 C 1068.07 2.61062 -3.50949 0
M  V30 11467 C 1067.13 3.79144 -3.64878 0
M  V30 11468 O 1066.16 3.64319 -4.37333 0
M  V30 11469 N 1067.36 4.96333 -3.01054 0
M  V30 11470 H 1070.13 0.895889 -2.85996 0
M  V30 11471 H 1067.69 0.343147 -1.58222 0
M  V30 11472 H 1069.68 3.35553 -2.26243 0
M  V30 11473 H 1068.25 2.8226 -1.34343 0
M  V30 11474 H 1067.47 1.69533 -3.55882 0
M  V30 11475 H 1068.76 2.60094 -4.37297 0
M  V30 11476 H 1068.15 5.1128 -2.42093 0
M  V30 11477 H 1066.71 5.71625 -3.13191 0
M  V30 11478 N 1070.14 1.51827 0.422667 0
M  V30 11479 C 1071.39 1.65464 1.17258 0
M  V30 11480 C 1071.72 0.376834 1.90509 0
M  V30 11481 O 1071 -0.624219 1.84211 0
M  V30 11482 C 1071.28 2.86776 2.17788 0
M  V30 11483 C 1071.13 4.24571 1.48523 0
M  V30 11484 C 1072.45 3.03603 3.18611 0
M  V30 11485 H 1069.57 0.602169 0.424925 0
M  V30 11486 H 1072.21 1.84349 0.45996 0
M  V30 11487 H 1070.36 2.70806 2.78561 0
M  V30 11488 H 1072.04 4.5224 0.909739 0
M  V30 11489 H 1070.28 4.26595 0.787354 0
M  V30 11490 H 1070.95 5.05475 2.2181 0
M  V30 11491 H 1073.43 3.18381 2.67904 0
M  V30 11492 H 1072.3 3.90022 3.8623 0
M  V30 11493 H 1072.56 2.16318 3.85563 0
M  V30 11494 N 1071.62 -0.679052 1.4222 0
M  V30 11495 C 1072.85 -1.47248 1.46058 0
M  V30 11496 C 1073.27 -1.87962 0.0720987 0
M  V30 11497 O 1072.63 -1.5572 -0.928488 0
M  V30 11498 C 1072.68 -2.70067 2.38948 0
M  V30 11499 O 1071.78 -3.68178 1.85791 0
M  V30 11500 H 1071.12 -0.442533 0.495036 0
M  V30 11501 H 1073.65 -0.833263 1.86863 0
M  V30 11502 H 1073.66 -3.18187 2.55385 0
M  V30 11503 H 1072.34 -2.39773 3.39826 0
M  V30 11504 H 1070.92 -3.2719 1.78889 0
M  V30 11505 N 1073.1 -1.28322 -0.914942 0
M  V30 11506 C 1074.05 -1.12146 -2.01722 0
M  V30 11507 C 1075.02 -0.0189279 -1.66089 0
M  V30 11508 O 1076.2 -0.183638 -1.89914 0
M  V30 11509 C 1073.34 -0.78808 -3.35981 0
M  V30 11510 C 1072.46 -1.96954 -3.84491 0
M  V30 11511 C 1071.59 -1.57688 -5.07255 0
M  V30 11512 C 1070.63 -2.72506 -5.48094 0
M  V30 11513 N 1069.77 -2.33741 -6.62049 0
M  V30 11514 H 1074.61 -2.06461 -2.1489 0
M  V30 11515 H 1072.14 -1.0276 -1.05256 0
M  V30 11516 H 1074.1 -0.575546 -4.13211 0
M  V30 11517 H 1072.73 0.118132 -3.22584 0
M  V30 11518 H 1071.78 -2.29423 -3.03429 0
M  V30 11519 H 1073.1 -2.8304 -4.10719 0
M  V30 11520 H 1072.25 -1.32634 -5.92025 0
M  V30 11521 H 1070.99 -0.687291 -4.82833 0
M  V30 11522 H 1069.99 -2.9826 -4.61867 0
M  V30 11523 H 1071.22 -3.62106 -5.74505 0
M  V30 11524 H 1069.16 -1.4725 -6.3926 0
M  V30 11525 H 1069.08 -3.13364 -6.87997 0
M  V30 11526 H 1070.35 -2.11968 -7.50127 0
M  V30 11527 N 1074.58 1.12322 -1.10551 0
M  V30 11528 C 1075.49 2.21678 -0.767862 0
M  V30 11529 C 1076.5 1.72404 0.235132 0
M  V30 11530 O 1077.68 2.01266 0.0735912 0
M  V30 11531 C 1074.75 3.46087 -0.205999 0
M  V30 11532 C 1073.81 4.10195 -1.26642 0
M  V30 11533 C 1073.04 5.28666 -0.731274 0
M  V30 11534 O 1073.26 5.68686 0.44189 0
M  V30 11535 O 1072.2 5.83121 -1.49176 0
M  V30 11536 H 1076.02 2.52955 -1.6807 0
M  V30 11537 H 1073.61 1.2068 -0.880728 0
M  V30 11538 H 1075.49 4.21273 0.103435 0
M  V30 11539 H 1074.16 3.16484 0.679685 0
M  V30 11540 H 1073.07 3.36784 -1.62873 0
M  V30 11541 H 1074.4 4.43957 -2.12516 0
M  V30 11542 N 1076.06 0.894434 1.2976 0
M  V30 11543 C 1077.28 0.5322 2.00455 0
M  V30 11544 C 1077.71 -0.874427 1.66539 0
M  V30 11545 O 1077.06 -1.58113 0.887129 0
M  V30 11546 C 1077.11 0.725264 3.53231 0
M  V30 11547 O 1076.22 -0.224612 4.11788 0
M  V30 11548 H 1075.56 0.208562 0.630395 0
M  V30 11549 H 1078.09 1.20458 1.65382 0
M  V30 11550 H 1078.1 0.627889 4.0314 0
M  V30 11551 H 1076.77 1.75079 3.77253 0
M  V30 11552 H 1075.35 -0.0801361 3.72814 0
M  V30 11553 N 1077.53 -1.43282 0.656365 0
M  V30 11554 C 1078.48 -2.30776 -0.0333155 0
M  V30 11555 C 1079.45 -1.44928 -0.811493 0
M  V30 11556 O 1080.64 -1.73792 -0.787465 0
M  V30 11557 C 1077.78 -3.30548 -0.991566 0
M  V30 11558 C 1076.89 -4.31493 -0.209159 0
M  V30 11559 C 1076.02 -5.18346 -1.16149 0
M  V30 11560 C 1075.06 -6.10983 -0.369699 0
M  V30 11561 N 1074.2 -6.90449 -1.27378 0
M  V30 11562 H 1079.04 -2.89204 0.718668 0
M  V30 11563 H 1076.58 -1.4247 0.366161 0
M  V30 11564 H 1078.54 -3.86905 -1.56078 0
M  V30 11565 H 1077.17 -2.73762 -1.71039 0
M  V30 11566 H 1076.22 -3.77405 0.476394 0
M  V30 11567 H 1077.53 -4.97142 0.406394 0
M  V30 11568 H 1076.68 -5.79345 -1.80124 0
M  V30 11569 H 1075.42 -4.52831 -1.81095 0
M  V30 11570 H 1074.43 -5.49069 0.283377 0
M  V30 11571 H 1075.65 -6.78541 0.275399 0
M  V30 11572 H 1073.6 -6.27579 -1.90999 0
M  V30 11573 H 1073.52 -7.52631 -0.71287 0
M  V30 11574 H 1074.78 -7.5595 -1.90158 0
M  V30 11575 N 1079.01 -0.398486 -1.52479 0
M  V30 11576 C 1079.96 0.449343 -2.23528 0
M  V30 11577 C 1080.95 1.02218 -1.24259 0
M  V30 11578 O 1082.14 0.946757 -1.49551 0
M  V30 11579 C 1079.27 1.5712 -3.05235 0
M  V30 11580 C 1078.35 1.00966 -4.11906 0
M  V30 11581 N 1078.75 0.173855 -5.05501 0
M  V30 11582 C 1077.04 1.28124 -4.272 0
M  V30 11583 C 1077.74 -0.137391 -5.81538 0
M  V30 11584 N 1076.72 0.468972 -5.41573 0
M  V30 11585 H 1080.52 -0.195654 -2.93248 0
M  V30 11586 H 1078.04 -0.208305 -1.61059 0
M  V30 11587 H 1080.03 2.19108 -3.54679 0
M  V30 11588 H 1078.69 2.21893 -2.37052 0
M  V30 11589 H 1079.7 -0.189618 -5.17553 0
M  V30 11590 H 1076.38 1.92933 -3.70247 0
M  V30 11591 H 1077.77 -0.815159 -6.66937 0
M  V30 11592 N 1080.49 1.57075 -0.12858 0
M  V30 11593 C 1081.74 1.94695 0.526952 0
M  V30 11594 C 1082.05 1.01482 1.67215 0
M  V30 11595 O 1083.26 1.28606 2.39108 0
M  V30 11596 C 1081.72 3.4605 0.988801 0
M  V30 11597 C 1081.32 4.47816 -0.128457 0
M  V30 11598 C 1083.07 3.92572 1.61517 0
M  V30 11599 C 1080.97 5.9036 0.350628 0
M  V30 11600 H 1079.9 0.726819 0.200623 0
M  V30 11601 H 1082.56 1.82295 -0.209972 0
M  V30 11602 H 1080.94 3.53718 1.78043 0
M  V30 11603 H 1082.11 4.51826 -0.904976 0
M  V30 11604 H 1080.43 4.11103 -0.662075 0
M  V30 11605 H 1083.02 4.96493 1.98491 0
M  V30 11606 H 1083.37 3.33085 2.49721 0
M  V30 11607 H 1083.9 3.87744 0.888768 0
M  V30 11608 H 1080.64 6.53624 -0.495592 0
M  V30 11609 H 1080.16 5.89749 1.09342 0
M  V30 11610 H 1081.84 6.41926 0.808717 0
M  V30 11611 N 1081.97 -0.145205 1.5693 0
M  V30 11612 C 1083.22 -0.85395 1.84606 0
M  V30 11613 C 1083.57 -1.78709 0.712811 0
M  V30 11614 O 1082.86 -1.89406 -0.289108 0
M  V30 11615 C 1083.06 -1.66391 3.16305 0
M  V30 11616 C 1082.89 -0.810698 4.42332 0
M  V30 11617 C 1081.66 -0.475623 5.03057 0
M  V30 11618 C 1083.85 -0.140213 5.14109 0
M  V30 11619 N 1081.84 0.390996 6.12654 0
M  V30 11620 C 1083.21 0.586471 6.1722 0
M  V30 11621 C 1085.26 -0.0610725 4.97863 0
M  V30 11622 C 1083.97 1.38483 7.05844 0
M  V30 11623 C 1085.99 0.724026 5.86951 0
M  V30 11624 C 1085.35 1.43899 6.89545 0
M  V30 11625 H 1081.45 -0.290253 0.726138 0
M  V30 11626 H 1084.04 -0.119211 1.94335 0
M  V30 11627 H 1082.21 -2.36987 3.0772 0
M  V30 11628 H 1083.94 -2.31596 3.31882 0
M  V30 11629 H 1080.69 -0.811824 4.6659 0
M  V30 11630 H 1081.12 0.815383 6.72072 0
M  V30 11631 H 1085.76 -0.599475 4.18529 0
M  V30 11632 H 1083.48 1.93448 7.84604 0
M  V30 11633 H 1087.06 0.787276 5.76449 0
M  V30 11634 H 1085.94 2.03674 7.57289 0
M  V30 11635 N 1083.45 -1.52049 -0.414609 0
M  V30 11636 C 1084.39 -1.74998 -1.5048 0
M  V30 11637 C 1085.36 -0.592251 -1.55182 0
M  V30 11638 O 1086.55 -0.829203 -1.7184 0
M  V30 11639 C 1083.69 -1.90157 -2.87983 0
M  V30 11640 C 1082.8 -3.17789 -2.92633 0
M  V30 11641 C 1081.94 -3.23411 -4.21401 0
M  V30 11642 C 1080.98 -4.45267 -4.20004 0
M  V30 11643 N 1080.11 -4.48312 -5.40334 0
M  V30 11644 H 1084.95 -2.68046 -1.30212 0
M  V30 11645 H 1082.49 -1.32824 -0.632154 0
M  V30 11646 H 1084.45 -1.96929 -3.67797 0
M  V30 11647 H 1083.08 -1.00496 -3.06758 0
M  V30 11648 H 1082.13 -3.20216 -2.05343 0
M  V30 11649 H 1083.44 -4.07634 -2.87465 0
M  V30 11650 H 1082.6 -3.29224 -5.09604 0
M  V30 11651 H 1081.34 -2.31495 -4.29257 0
M  V30 11652 H 1080.34 -4.39606 -3.30192 0
M  V30 11653 H 1081.57 -5.38472 -4.13793 0
M  V30 11654 H 1079.51 -3.59277 -5.48868 0
M  V30 11655 H 1079.43 -5.31994 -5.37139 0
M  V30 11656 H 1080.7 -4.58347 -6.30506 0
M  V30 11657 N 1084.93 0.6715 -1.42579 0
M  V30 11658 C 1085.86 1.79693 -1.49107 0
M  V30 11659 C 1086.84 1.66516 -0.347338 0
M  V30 11660 O 1088.02 1.85887 -0.562094 0
M  V30 11661 C 1085.15 3.1801 -1.39596 0
M  V30 11662 C 1084.11 3.45926 -2.5203 0
M  V30 11663 C 1083.43 4.83852 -2.27577 0
M  V30 11664 C 1084.73 3.4249 -3.94333 0
M  V30 11665 H 1086.43 1.74486 -2.433 0
M  V30 11666 H 1083.97 0.838042 -1.17102 0
M  V30 11667 H 1085.92 3.96478 -1.42771 0
M  V30 11668 H 1084.65 3.23901 -0.418989 0
M  V30 11669 H 1083.31 2.6982 -2.48178 0
M  V30 11670 H 1082.96 4.86398 -1.28165 0
M  V30 11671 H 1082.66 5.03493 -3.02934 0
M  V30 11672 H 1084.18 5.646 -2.32506 0
M  V30 11673 H 1085.59 4.10922 -3.9977 0
M  V30 11674 H 1083.99 3.73666 -4.69568 0
M  V30 11675 H 1085.06 2.41002 -4.20768 0
M  V30 11676 N 1086.4 1.28806 0.908124 0
M  V30 11677 C 1087.34 1.09018 2.01613 0
M  V30 11678 C 1088.35 0.0402059 1.6275 0
M  V30 11679 O 1089.54 0.283853 1.76229 0
M  V30 11680 C 1086.64 0.635712 3.32884 0
M  V30 11681 C 1085.81 1.76235 4.00325 0
M  V30 11682 C 1084.87 1.3003 5.09881 0
M  V30 11683 O 1083.9 2.00354 5.32773 0
M  V30 11684 N 1085.1 0.166575 5.80261 0
M  V30 11685 H 1087.86 2.0444 2.19144 0
M  V30 11686 H 1085.42 1.20633 1.07978 0
M  V30 11687 H 1087.42 0.310097 4.0351 0
M  V30 11688 H 1085.99 -0.225816 3.11783 0
M  V30 11689 H 1085.21 2.25727 3.23173 0
M  V30 11690 H 1086.49 2.51796 4.42127 0
M  V30 11691 H 1085.89 -0.419934 5.64139 0
M  V30 11692 H 1084.45 -0.0997281 6.51724 0
M  V30 11693 N 1087.88 -1.11734 1.11145 0
M  V30 11694 C 1089.13 -1.83874 0.86959 0
M  V30 11695 C 1089.48 -1.82859 -0.598363 0
M  V30 11696 O 1088.78 -1.26849 -1.43596 0
M  V30 11697 C 1088.97 -3.3046 1.36129 0
M  V30 11698 C 1088.8 -3.45752 2.87551 0
M  V30 11699 C 1087.57 -3.58956 3.55638 0
M  V30 11700 C 1089.77 -3.40296 3.85621 0
M  V30 11701 N 1087.75 -3.62688 4.95309 0
M  V30 11702 C 1089.12 -3.50611 5.11343 0
M  V30 11703 C 1091.17 -3.23808 3.78223 0
M  V30 11704 C 1089.88 -3.46138 6.3054 0
M  V30 11705 C 1091.9 -3.20651 4.96927 0
M  V30 11706 C 1091.27 -3.31534 6.21502 0
M  V30 11707 H 1087.36 -0.688226 0.371306 0
M  V30 11708 H 1089.95 -1.33715 1.41522 0
M  V30 11709 H 1088.12 -3.79144 0.842885 0
M  V30 11710 H 1089.85 -3.90493 1.0629 0
M  V30 11711 H 1086.61 -3.61387 3.06098 0
M  V30 11712 H 1087.03 -3.68199 5.68118 0
M  V30 11713 H 1091.67 -3.14282 2.8282 0
M  V30 11714 H 1089.39 -3.54433 7.26225 0
M  V30 11715 H 1092.98 -3.09064 4.9292 0
M  V30 11716 H 1091.86 -3.29076 7.11814 0
M  V30 11717 N 1089.36 -0.901303 -1.29284 0
M  V30 11718 C 1090.32 -0.385081 -2.25942 0
M  V30 11719 C 1091.32 0.481626 -1.53418 0
M  V30 11720 O 1092.51 0.286451 -1.71829 0
M  V30 11721 C 1089.64 0.449319 -3.37926 0
M  V30 11722 H 1090.84 -1.23877 -2.7312 0
M  V30 11723 H 1088.39 -0.679586 -1.40753 0
M  V30 11724 H 1089.13 1.32292 -2.9609 0
M  V30 11725 H 1088.91 -0.171731 -3.91724 0
M  V30 11726 H 1090.4 0.801746 -4.09831 0
M  V30 11727 N 1090.84 1.42931 -0.663954 0
M  V30 11728 C 1092.07 2.06028 -0.189808 0
M  V30 11729 C 1092.48 1.49827 1.14879 0
M  V30 11730 O 1091.84 0.633778 1.71142 0
M  V30 11731 C 1091.89 3.61349 -0.104343 0
M  V30 11732 O 1091.61 4.15463 -1.39004 0
M  V30 11733 C 1093.11 4.4154 0.394599 0
M  V30 11734 H 1090.33 0.664259 -0.0948744 0
M  V30 11735 H 1092.87 1.83255 -0.907632 0
M  V30 11736 H 1091.03 3.83271 0.564103 0
M  V30 11737 H 1091.44 5.09233 -1.25626 0
M  V30 11738 H 1092.92 5.50525 0.403329 0
M  V30 11739 H 1093.39 4.1534 1.4279 0
M  V30 11740 H 1094 4.24612 -0.241729 0
M  V30 11741 N 1092.32 0.406567 1.52266 0
M  V30 11742 C 1093.54 -0.169624 2.06204 0
M  V30 11743 C 1093.96 -1.39076 1.27684 0
M  V30 11744 O 1093.32 -1.79528 0.328023 0
M  V30 11745 C 1093.37 -0.522611 3.57702 0
M  V30 11746 O 1093.09 0.650028 4.33251 0
M  V30 11747 C 1094.59 -1.15281 4.28048 0
M  V30 11748 H 1091.81 -0.0215191 0.670655 0
M  V30 11749 H 1094.35 0.576781 1.96198 0
M  V30 11750 H 1092.51 -1.21891 3.67725 0
M  V30 11751 H 1092.92 0.355989 5.23291 0
M  V30 11752 H 1094.4 -1.35002 5.35237 0
M  V30 11753 H 1094.87 -2.12517 3.84361 0
M  V30 11754 H 1095.48 -0.496786 4.22389 0
M  V30 11755 N 1093.79 -1.57004 0.136909 0
M  V30 11756 C 1095.04 -1.94972 -0.51662 0
M  V30 11757 C 1095.36 -1.02367 -1.66674 0
M  V30 11758 O 1096.56 -1.29873 -2.38423 0
M  V30 11759 C 1095.02 -3.4657 -0.970435 0
M  V30 11760 C 1094.63 -4.47741 0.152204 0
M  V30 11761 C 1096.37 -3.93423 -1.59432 0
M  V30 11762 C 1094.28 -5.90537 -0.319315 0
M  V30 11763 H 1093.21 -0.727873 -0.196766 0
M  V30 11764 H 1095.86 -1.82181 0.219637 0
M  V30 11765 H 1094.24 -3.54657 -1.76165 0
M  V30 11766 H 1095.41 -4.5134 0.928925 0
M  V30 11767 H 1093.73 -4.10746 0.683867 0
M  V30 11768 H 1096.33 -4.97539 -1.95856 0
M  V30 11769 H 1096.67 -3.34404 -2.47951 0
M  V30 11770 H 1097.2 -3.8821 -0.868193 0
M  V30 11771 H 1093.94 -6.53352 0.530248 0
M  V30 11772 H 1093.46 -5.90321 -1.06213 0
M  V30 11773 H 1095.14 -6.42346 -0.774662 0
M  V30 11774 N 1095.27 0.136881 -1.57004 0
M  V30 11775 C 1096.2 1.17026 -2.02057 0
M  V30 11776 C 1097.18 1.44223 -0.901866 0
M  V30 11777 O 1098.37 1.54971 -1.17037 0
M  V30 11778 C 1095.5 2.50095 -2.40977 0
M  V30 11779 C 1094.45 2.37398 -3.56127 0
M  V30 11780 C 1093.78 3.75268 -3.80891 0
M  V30 11781 C 1095.08 1.84952 -4.88457 0
M  V30 11782 H 1096.77 0.795601 -2.88636 0
M  V30 11783 H 1094.32 0.381266 -1.38861 0
M  V30 11784 H 1096.27 3.22621 -2.71097 0
M  V30 11785 H 1095 2.89416 -1.51348 0
M  V30 11786 H 1093.65 1.67322 -3.26188 0
M  V30 11787 H 1093.3 4.12043 -2.88496 0
M  V30 11788 H 1093 3.67631 -4.5839 0
M  V30 11789 H 1094.53 4.49327 -4.13446 0
M  V30 11790 H 1095.94 2.4728 -5.17229 0
M  V30 11791 H 1094.34 1.88181 -5.69832 0
M  V30 11792 H 1095.41 0.805848 -4.78157 0
M  V30 11793 N 1096.75 1.52266 0.40654 0
M  V30 11794 C 1098.03 1.57018 1.1664 0
M  V30 11795 C 1098.41 0.352752 2.08132 0
M  V30 11796 O 1097.76 -0.660208 2.18754 0
M  V30 11797 C 1097.97 2.90016 1.94143 0
M  V30 11798 C 1099.31 3.43112 2.50119 0
M  V30 11799 O 1100.34 2.91773 2.0432 0
M  V30 11800 O 1099.2 4.32765 3.33731 0
M  V30 11801 H 1096.29 0.632574 0.532709 0
M  V30 11802 H 1098.84 1.64595 0.413111 0
M  V30 11803 H 1097.61 3.70071 1.27134 0
M  V30 11804 H 1097.23 2.85744 2.76471 0
M  V30 11805 N 1098.23 -0.663929 1.42933 0
M  V30 11806 C 1099.48 -1.41973 1.43271 0
M  V30 11807 C 1099.79 -1.95518 0.0566103 0
M  V30 11808 O 1101 -2.71428 -0.0625862 0
M  V30 11809 C 1099.45 -2.56882 2.52071 0
M  V30 11810 C 1099.06 -2.0999 3.95737 0
M  V30 11811 C 1100.8 -3.34322 2.61589 0
M  V30 11812 C 1098.71 -3.22046 4.96025 0
M  V30 11813 H 1097.64 -0.5334 0.532917 0
M  V30 11814 H 1100.29 -0.717709 1.68882 0
M  V30 11815 H 1098.67 -3.29504 2.19643 0
M  V30 11816 H 1099.85 -1.44449 4.37574 0
M  V30 11817 H 1098.16 -1.45459 3.90168 0
M  V30 11818 H 1100.76 -4.17796 3.33692 0
M  V30 11819 H 1101.1 -3.8164 1.66302 0
M  V30 11820 H 1101.64 -2.68775 2.93266 0
M  V30 11821 H 1098.38 -2.79708 5.92827 0
M  V30 11822 H 1097.9 -3.86333 4.5881 0
M  V30 11823 H 1099.57 -3.87345 5.1824 0
M  V30 11824 N 1099.71 -1.29285 -0.901281 0
M  V30 11825 C 1100.62 -1.16161 -2.03823 0
M  V30 11826 C 1101.63 -0.0852298 -1.73791 0
M  V30 11827 O 1102.81 -0.29699 -1.99198 0
M  V30 11828 C 1099.87 -0.837586 -3.3643 0
M  V30 11829 C 1098.93 -1.99764 -3.7999 0
M  V30 11830 C 1098.17 -1.68898 -5.0627 0
M  V30 11831 O 1098.39 -0.609177 -5.67138 0
M  V30 11832 O 1097.32 -2.53648 -5.45845 0
M  V30 11833 H 1101.15 -2.11635 -2.17817 0
M  V30 11834 H 1098.74 -1.08722 -1.02468 0
M  V30 11835 H 1100.62 -0.671376 -4.16017 0
M  V30 11836 H 1099.29 0.0873811 -3.23582 0
M  V30 11837 H 1098.2 -2.21908 -3.01177 0
M  V30 11838 H 1099.53 -2.90376 -3.9742 0
M  V30 11839 N 1101.18 1.11143 -1.11736 0
M  V30 11840 C 1102.6 1.34962 -0.851905 0
M  V30 11841 C 1102.8 1.94627 0.521797 0
M  V30 11842 O 1101.86 2.18121 1.27198 0
M  V30 11843 C 1103.17 2.27832 -1.96248 0
M  V30 11844 C 1104.72 2.41388 -1.9925 0
M  V30 11845 C 1105.19 3.37582 -3.09519 0
M  V30 11846 N 1106.68 3.45147 -3.08914 0
M  V30 11847 C 1107.42 4.19527 -3.90876 0
M  V30 11848 N 1106.91 4.96858 -4.82809 0
M  V30 11849 N 1108.71 4.15071 -3.79042 0
M  V30 11850 H 1100.86 0.707801 -2.0026 0
M  V30 11851 H 1103.12 0.374172 -0.871033 0
M  V30 11852 H 1102.83 1.91189 -2.95194 0
M  V30 11853 H 1102.7 3.28078 -1.86132 0
M  V30 11854 H 1105.09 2.77304 -1.00928 0
M  V30 11855 H 1105.17 1.40983 -2.13442 0
M  V30 11856 H 1104.81 3.02393 -4.0807 0
M  V30 11857 H 1104.74 4.37849 -2.92568 0
M  V30 11858 H 1107.23 2.89991 -2.42309 0
M  V30 11859 H 1107.55 5.5099 -5.41876 0
M  V30 11860 H 1105.89 4.96008 -4.86828 0
M  V30 11861 H 1109.08 3.53748 -3.06562 0
M  V30 11862 H 1109.26 4.72781 -4.4315 0
M  V30 11863 N 1102.66 0.908147 1.28804 0
M  V30 11864 C 1103.89 0.553431 1.9988 0
M  V30 11865 C 1104.31 -0.856714 1.67458 0
M  V30 11866 O 1103.67 -1.57163 0.903849 0
M  V30 11867 C 1103.72 0.762688 3.52442 0
M  V30 11868 O 1102.82 -0.180924 4.12003 0
M  V30 11869 H 1102.16 0.215237 0.628147 0
M  V30 11870 H 1104.69 1.22205 1.64095 0
M  V30 11871 H 1104.7 0.670612 4.02451 0
M  V30 11872 H 1103.38 1.79071 3.75375 0
M  V30 11873 H 1101.96 -0.0405897 3.72878 0
M  V30 11874 N 1104.14 -1.42577 0.671525 0
M  V30 11875 C 1105.39 -2.01584 0.192431 0
M  V30 11876 C 1105.72 -1.53076 -1.19992 0
M  V30 11877 O 1104.97 -0.722196 -1.81887 0
M  V30 11878 C 1105.27 -3.56985 0.172097 0
M  V30 11879 C 1104.94 -4.24912 1.50867 0
M  V30 11880 C 1103.6 -4.43182 1.87464 0
M  V30 11881 C 1105.95 -4.6322 2.38908 0
M  V30 11882 C 1103.28 -4.97031 3.11732 0
M  V30 11883 C 1105.63 -5.18447 3.62485 0
M  V30 11884 C 1104.29 -5.34932 3.99255 0
M  V30 11885 H 1103.56 -0.737647 0.0704155 0
M  V30 11886 H 1106.21 -1.70807 0.865862 0
M  V30 11887 H 1104.52 -3.87411 -0.584835 0
M  V30 11888 H 1106.21 -4.00419 -0.215749 0
M  V30 11889 H 1102.8 -4.11048 1.21397 0
M  V30 11890 H 1106.99 -4.4878 2.1192 0
M  V30 11891 H 1102.24 -5.07979 3.40246 0
M  V30 11892 H 1106.42 -5.47075 4.30909 0
M  V30 11893 H 1104.04 -5.76422 4.95623 0
M  V30 11894 N 1105.62 -0.414636 -1.52048 0
M  V30 11895 C 1107.03 0.0537107 -1.86623 0
M  V30 11896 C 1107.38 1.43955 -1.3331 0
M  V30 11897 O 1106.51 2.05616 -0.674606 0
M  V30 11898 C 1107.1 0.104241 -3.3864 0
M  V30 11899 C 1105.66 0.516936 -3.72833 0
M  V30 11900 C 1104.81 -0.305042 -2.75617 0
M  V30 11901 H 1107.76 -0.631469 -1.45596 0
M  V30 11902 H 1107.78 0.918395 -3.6925 0
M  V30 11903 H 1107.29 -0.904523 -3.77412 0
M  V30 11904 H 1105.39 1.53214 -3.39641 0
M  V30 11905 H 1105.5 0.2575 -4.78408 0
M  V30 11906 H 1103.87 0.233416 -2.53628 0
M  V30 11907 H 1104.65 -1.31226 -3.1723 0
M  V30 11908 N 1107.1 1.56929 -0.145233 0
M  V30 11909 C 1108.34 1.96358 0.50707 0
M  V30 11910 C 1108.68 1.03005 1.64632 0
M  V30 11911 O 1107.95 0.0721045 1.94366 0
M  V30 11912 C 1108.23 3.45502 1.01492 0
M  V30 11913 C 1108.09 4.49633 -0.122708 0
M  V30 11914 C 1109.41 3.97103 1.89729 0
M  V30 11915 H 1106.52 0.713958 0.182848 0
M  V30 11916 H 1109.17 1.8865 -0.226102 0
M  V30 11917 H 1107.32 3.52202 1.6397 0
M  V30 11918 H 1108.99 4.55013 -0.758988 0
M  V30 11919 H 1107.23 4.26691 -0.782109 0
M  V30 11920 H 1107.9 5.51318 0.27432 0
M  V30 11921 H 1110.38 3.92871 1.37082 0
M  V30 11922 H 1109.25 5.01927 2.22173 0
M  V30 11923 H 1109.52 3.39354 2.83357 0
M  V30 11924 N 1108.58 -0.128553 1.57075 0
M  V30 11925 C 1109.82 -0.83801 1.84347 0
M  V30 11926 C 1110.15 -1.80325 0.728906 0
M  V30 11927 O 1109.41 -1.93678 -0.280571 0
M  V30 11928 C 1109.7 -1.63027 3.18052 0
M  V30 11929 C 1109.37 -0.810171 4.43562 0
M  V30 11930 C 1108.03 -0.583984 4.77643 0
M  V30 11931 C 1110.38 -0.237896 5.20657 0
M  V30 11932 C 1107.71 0.224887 5.86269 0
M  V30 11933 C 1110.06 0.558114 6.30133 0
M  V30 11934 C 1108.73 0.794706 6.62752 0
M  V30 11935 H 1108 -0.30665 0.674572 0
M  V30 11936 H 1110.65 -0.100797 1.91235 0
M  V30 11937 H 1108.95 -2.43812 3.06697 0
M  V30 11938 H 1110.65 -2.183 3.36372 0
M  V30 11939 H 1107.24 -0.996547 4.16854 0
M  V30 11940 H 1111.42 -0.399881 4.94686 0
M  V30 11941 H 1106.68 0.417507 6.09973 0
M  V30 11942 H 1110.85 1.00859 6.89058 0
M  V30 11943 H 1108.48 1.42331 7.46757 0
M  V30 11944 N 1110.05 -1.5248 -0.398459 0
M  V30 11945 C 1110.98 -1.79549 -1.49279 0
M  V30 11946 C 1111.96 -0.647004 -1.57315 0
M  V30 11947 O 1113.15 -0.893661 -1.72416 0
M  V30 11948 C 1110.28 -1.95582 -2.86993 0
M  V30 11949 C 1109.23 -3.1123 -2.93803 0
M  V30 11950 C 1108.56 -3.12501 -4.33874 0
M  V30 11951 C 1109.86 -4.50485 -2.64312 0
M  V30 11952 H 1111.55 -2.71187 -1.26877 0
M  V30 11953 H 1109.1 -1.30492 -0.608924 0
M  V30 11954 H 1111.05 -2.13102 -3.63546 0
M  V30 11955 H 1109.78 -1.00625 -3.10712 0
M  V30 11956 H 1108.44 -2.93477 -2.19697 0
M  V30 11957 H 1108.08 -2.15245 -4.54619 0
M  V30 11958 H 1107.78 -3.90183 -4.39353 0
M  V30 11959 H 1109.31 -3.32164 -5.12347 0
M  V30 11960 H 1110.72 -4.68387 -3.30585 0
M  V30 11961 H 1109.12 -5.30163 -2.81153 0
M  V30 11962 H 1110.19 -4.57848 -1.59696 0
M  V30 11963 N 1111.53 0.65634 -1.43283 0
M  V30 11964 C 1112.95 0.971645 -1.26614 0
M  V30 11965 C 1113.15 2.00662 -0.183612 0
M  V30 11966 O 1112.2 2.48654 0.439003 0
M  V30 11967 C 1113.52 1.45888 -2.6294 0
M  V30 11968 C 1115.06 1.57569 -2.70446 0
M  V30 11969 C 1115.54 2.09684 -4.07181 0
M  V30 11970 N 1117.03 2.16991 -4.0923 0
M  V30 11971 C 1117.77 2.5843 -5.11861 0
M  V30 11972 N 1117.26 2.99188 -6.24867 0
M  V30 11973 N 1119.05 2.58342 -4.99215 0
M  V30 11974 H 1111.21 -0.028573 -2.12381 0
M  V30 11975 H 1113.47 0.0497918 -0.946691 0
M  V30 11976 H 1113.17 0.772823 -3.43104 0
M  V30 11977 H 1113.05 2.43445 -2.88122 0
M  V30 11978 H 1115.44 2.25277 -1.90616 0
M  V30 11979 H 1115.52 0.584529 -2.49032 0
M  V30 11980 H 1115.16 1.42579 -4.87477 0
M  V30 11981 H 1115.09 3.09625 -4.25958 0
M  V30 11982 H 1117.58 1.88278 -3.27658 0
M  V30 11983 H 1117.89 3.29549 -6.99012 0
M  V30 11984 H 1116.24 2.97 -6.28344 0
M  V30 11985 H 1119.43 2.25875 -4.09998 0
M  V30 11986 H 1119.6 2.90316 -5.79328 0
M  V30 11987 N 1113.01 1.29761 0.894412 0
M  V30 11988 C 1113.96 1.15341 1.99912 0
M  V30 11989 C 1114.93 0.0453488 1.66038 0
M  V30 11990 O 1116.11 0.213829 1.89598 0
M  V30 11991 C 1113.25 0.841432 3.34685 0
M  V30 11992 C 1112.36 2.03046 3.81309 0
M  V30 11993 C 1111.5 1.65739 5.04682 0
M  V30 11994 C 1110.54 2.81191 5.43689 0
M  V30 11995 N 1109.68 2.44244 6.58247 0
M  V30 11996 H 1114.52 2.09854 2.11578 0
M  V30 11997 H 1112.05 1.04421 1.03608 0
M  V30 11998 H 1114.01 0.641211 4.12243 0
M  V30 11999 H 1112.64 -0.066797 3.22731 0
M  V30 12000 H 1111.69 2.34222 2.9974 0
M  V30 12001 H 1113 2.89538 4.06164 0
M  V30 12002 H 1112.16 1.42036 5.8984 0
M  V30 12003 H 1110.9 0.764019 4.81678 0
M  V30 12004 H 1109.9 3.0557 4.57064 0
M  V30 12005 H 1111.13 3.712 5.68672 0
M  V30 12006 H 1109.07 1.57402 6.36837 0
M  V30 12007 H 1108.99 3.24269 6.82924 0
M  V30 12008 H 1110.26 2.23875 7.46659 0
M  V30 12009 N 1114.49 -1.10549 1.12324 0
M  V30 12010 C 1115.45 -2.15039 0.793156 0
M  V30 12011 C 1116.45 -1.59651 -0.19192 0
M  V30 12012 O 1117.64 -1.74167 0.0337262 0
M  V30 12013 C 1114.77 -3.40433 0.17842 0
M  V30 12014 H 1115.97 -2.4575 1.71892 0
M  V30 12015 H 1113.52 -1.25892 0.926333 0
M  V30 12016 H 1114.25 -3.15338 -0.757122 0
M  V30 12017 H 1114.04 -3.81921 0.887645 0
M  V30 12018 H 1115.53 -4.17584 -0.0360724 0
M  V30 12019 N 1115.97 -0.914965 -1.28321 0
M  V30 12020 C 1117.21 -0.548749 -1.94923 0
M  V30 12021 C 1117.54 0.907776 -1.72016 0
M  V30 12022 O 1116.8 1.66097 -1.03491 0
M  V30 12023 C 1117.09 -0.805805 -3.48198 0
M  V30 12024 C 1116.76 -2.24207 -3.91206 0
M  V30 12025 C 1115.42 -2.63475 -4.02659 0
M  V30 12026 C 1117.77 -3.17667 -4.13204 0
M  V30 12027 C 1115.1 -3.95353 -4.3349 0
M  V30 12028 C 1117.45 -4.4911 -4.45514 0
M  V30 12029 C 1116.12 -4.8823 -4.55179 0
M  V30 12030 H 1115.39 -0.200801 -0.713274 0
M  V30 12031 H 1118.04 -1.15652 -1.52633 0
M  V30 12032 H 1116.34 -0.115244 -3.9163 0
M  V30 12033 H 1118.04 -0.501609 -3.9785 0
M  V30 12034 H 1114.63 -1.92737 -3.82819 0
M  V30 12035 H 1118.81 -2.88537 -4.03807 0
M  V30 12036 H 1114.07 -4.25362 -4.39178 0
M  V30 12037 H 1118.24 -5.21542 -4.61483 0
M  V30 12038 H 1115.87 -5.90451 -4.78823 0
M  V30 12039 N 1117.44 1.42219 -0.679077 0
M  V30 12040 C 1118.86 1.55737 -0.349034 0
M  V30 12041 C 1119.06 1.65789 1.14527 0
M  V30 12042 O 1118.12 1.62717 1.93079 0
M  V30 12043 C 1119.43 2.80516 -1.0831 0
M  V30 12044 C 1120.98 2.94294 -1.06584 0
M  V30 12045 C 1121.45 4.2194 -1.78132 0
M  V30 12046 N 1122.94 4.28861 -1.75021 0
M  V30 12047 C 1123.68 5.26453 -2.27234 0
M  V30 12048 N 1123.17 6.30171 -2.87847 0
M  V30 12049 N 1124.97 5.1828 -2.17584 0
M  V30 12050 H 1117.12 1.33939 -1.64846 0
M  V30 12051 H 1119.38 0.645029 -0.694725 0
M  V30 12052 H 1119.09 2.79241 -2.13816 0
M  V30 12053 H 1118.96 3.71539 -0.651069 0
M  V30 12054 H 1121.35 2.95094 -0.0191061 0
M  V30 12055 H 1121.43 2.04491 -1.53679 0
M  V30 12056 H 1121.07 4.21901 -2.82776 0
M  V30 12057 H 1121 5.10685 -1.28483 0
M  V30 12058 H 1123.49 3.54537 -1.30814 0
M  V30 12059 H 1123.81 7.01 -3.25298 0
M  V30 12060 H 1122.15 6.30721 -2.91918 0
M  V30 12061 H 1125.34 4.36172 -1.69916 0
M  V30 12062 H 1125.52 5.94172 -2.58581 0
M  V30 12063 N 1118.92 0.422693 1.51826 0
M  V30 12064 C 1120.15 -0.15017 2.06856 0
M  V30 12065 C 1120.57 -1.36946 1.28948 0
M  V30 12066 O 1119.93 -1.78393 0.32338 0
M  V30 12067 C 1119.98 -0.465563 3.57582 0
M  V30 12068 O 1119.08 -1.55442 3.81984 0
M  V30 12069 H 1118.42 -0.00827931 0.663948 0
M  V30 12070 H 1120.95 0.599806 1.95611 0
M  V30 12071 H 1120.96 -0.720279 4.01592 0
M  V30 12072 H 1119.64 0.425679 4.13716 0
M  V30 12073 H 1118.21 -1.29081 3.49846 0
M  V30 12074 N 1120.4 -1.5685 0.153553 0
M  V30 12075 C 1121.65 -1.95946 -0.494936 0
M  V30 12076 C 1121.97 -1.03975 -1.64967 0
M  V30 12077 O 1121.24 -0.102572 -1.95631 0
M  V30 12078 H 1119.82 -0.723516 -0.185833 0
M  V30 12079 H 1122.48 -1.93531 0.230585 0
M  V30 12080 H 1121.58 -2.99823 -0.866743 0
M  V30 12081 N 1121.88 0.120221 -1.57141 0
M  V30 12082 C 1122.79 1.16641 -2.03549 0
M  V30 12083 C 1123.8 1.45407 -0.955656 0
M  V30 12084 O 1124.98 1.56547 -1.26708 0
M  V30 12085 C 1122.04 2.4734 -2.42948 0
M  V30 12086 C 1121.11 2.25982 -3.65008 0
M  V30 12087 C 1120.34 3.50449 -4.02518 0
M  V30 12088 O 1120.56 4.57706 -3.40384 0
M  V30 12089 O 1119.5 3.41524 -4.95626 0
M  V30 12090 H 1123.32 0.802323 -2.9291 0
M  V30 12091 H 1120.91 0.330927 -1.45689 0
M  V30 12092 H 1122.79 3.24348 -2.69029 0
M  V30 12093 H 1121.46 2.83225 -1.56733 0
M  V30 12094 H 1120.37 1.46837 -3.44078 0
M  V30 12095 H 1121.7 1.95002 -4.51924 0
M  V30 12096 N 1123.36 1.52689 0.390367 0
M  V30 12097 C 1124.29 1.72118 1.49836 0
M  V30 12098 C 1125.27 0.568986 1.5232 0
M  V30 12099 O 1126.45 0.798623 1.70746 0
M  V30 12100 C 1123.58 1.77754 2.88307 0
M  V30 12101 C 1122.62 2.99492 3.03655 0
M  V30 12102 S 1123.46 4.59496 2.74998 0
M  V30 12103 C 1124.61 4.67946 4.15665 0
M  V30 12104 H 1124.85 2.65826 1.3313 0
M  V30 12105 H 1122.38 1.42964 0.583153 0
M  V30 12106 H 1124.34 1.81687 3.68103 0
M  V30 12107 H 1123 0.851406 3.02341 0
M  V30 12108 H 1122.19 2.99973 4.05009 0
M  V30 12109 H 1121.79 2.93544 2.3175 0
M  V30 12110 H 1124.09 4.46476 5.09573 0
M  V30 12111 H 1125.03 5.69945 4.202 0
M  V30 12112 H 1125.44 3.96799 4.01511 0
M  V30 12113 N 1124.83 -0.648732 1.43629 0
M  V30 12114 C 1126.08 -1.41066 1.45699 0
M  V30 12115 C 1126.41 -1.94024 0.082612 0
M  V30 12116 O 1125.69 -1.7257 -0.897207 0
M  V30 12117 C 1125.97 -2.58882 2.50304 0
M  V30 12118 C 1125.82 -2.11387 3.97033 0
M  V30 12119 C 1127.14 -3.61092 2.51597 0
M  V30 12120 H 1124.26 -0.511591 0.530512 0
M  V30 12121 H 1126.9 -0.735069 1.75205 0
M  V30 12122 H 1125.05 -3.16518 2.25274 0
M  V30 12123 H 1126.73 -1.58718 4.33136 0
M  V30 12124 H 1124.97 -1.4272 4.0965 0
M  V30 12125 H 1125.64 -2.96129 4.65845 0
M  V30 12126 H 1128.12 -3.13223 2.73917 0
M  V30 12127 H 1126.99 -4.41071 3.26722 0
M  V30 12128 H 1127.25 -4.13985 1.55141 0
M  V30 12129 N 1126.31 -1.30234 -0.887518 0
M  V30 12130 C 1127.54 -1.21829 -1.67229 0
M  V30 12131 C 1127.96 0.219251 -1.87523 0
M  V30 12132 O 1127.31 1.14526 -1.42091 0
M  V30 12133 C 1127.36 -1.94044 -3.05007 0
M  V30 12134 O 1127.08 -3.32185 -2.85631 0
M  V30 12135 C 1128.59 -1.92265 -3.99436 0
M  V30 12136 H 1125.81 -0.421716 -0.521916 0
M  V30 12137 H 1128.35 -1.71816 -1.10903 0
M  V30 12138 H 1126.5 -1.47861 -3.58072 0
M  V30 12139 H 1126.92 -3.68724 -3.73018 0
M  V30 12140 H 1128.39 -2.47336 -4.93486 0
M  V30 12141 H 1128.87 -0.900984 -4.29859 0
M  V30 12142 H 1129.48 -2.38247 -3.52305 0
M  V30 12143 N 1127.79 1.09952 -1.12909 0
M  V30 12144 C 1129.04 1.82286 -0.888797 0
M  V30 12145 C 1129.37 1.85218 0.58379 0
M  V30 12146 O 1128.64 1.31645 1.43177 0
M  V30 12147 C 1128.93 3.28706 -1.47053 0
M  V30 12148 C 1128.78 3.34078 -3.01184 0
M  V30 12149 C 1130.1 4.25233 -1.13424 0
M  V30 12150 H 1127.22 0.661803 -0.324324 0
M  V30 12151 H 1129.86 1.28833 -1.3965 0
M  V30 12152 H 1128.01 3.74356 -1.03874 0
M  V30 12153 H 1129.68 2.96871 -3.5308 0
M  V30 12154 H 1127.93 2.73825 -3.36455 0
M  V30 12155 H 1128.6 4.37202 -3.36984 0
M  V30 12156 H 1131.07 3.87841 -1.50726 0
M  V30 12157 H 1129.95 5.26033 -1.56783 0
M  V30 12158 H 1130.21 4.42075 -0.0471496 0
M  V30 12159 N 1129.27 0.921757 1.27833 0
M  V30 12160 C 1130.52 0.557974 1.94245 0
M  V30 12161 C 1130.84 -0.90268 1.72849 0
M  V30 12162 O 1130.11 -1.63915 1.07279 0
M  V30 12163 H 1128.69 0.203364 0.718785 0
M  V30 12164 H 1131.35 1.17286 1.5566 0
M  V30 12165 H 1130.45 0.759202 3.02725 0
M  V30 12166 N 1130.75 -1.41857 0.686609 0
M  V30 12167 C 1131.69 -2.30795 0.015643 0
M  V30 12168 C 1132.66 -1.46616 -0.780569 0
M  V30 12169 O 1133.85 -1.75423 -0.750424 0
M  V30 12170 C 1130.99 -3.32577 -0.921229 0
M  V30 12171 C 1130.1 -4.3184 -0.117585 0
M  V30 12172 C 1129.24 -5.20693 -1.05128 0
M  V30 12173 C 1128.28 -6.11629 -0.240018 0
M  V30 12174 N 1127.41 -6.92995 -1.12704 0
M  V30 12175 H 1132.25 -2.87615 0.77985 0
M  V30 12176 H 1129.79 -1.41661 0.396298 0
M  V30 12177 H 1131.75 -3.90129 -1.47836 0
M  V30 12178 H 1130.38 -2.77328 -1.65193 0
M  V30 12179 H 1129.43 -3.7631 0.55634 0
M  V30 12180 H 1130.74 -4.96168 0.511753 0
M  V30 12181 H 1129.9 -5.83035 -1.67795 0
M  V30 12182 H 1128.63 -4.5657 -1.71449 0
M  V30 12183 H 1127.64 -5.48345 0.399779 0
M  V30 12184 H 1128.86 -6.77805 0.419266 0
M  V30 12185 H 1126.81 -6.31489 -1.77644 0
M  V30 12186 H 1126.73 -7.53974 -0.553065 0
M  V30 12187 H 1128 -7.59813 -1.7408 0
M  V30 12188 N 1132.22 -0.430739 -1.51599 0
M  V30 12189 C 1133.45 0.139197 -2.06932 0
M  V30 12190 C 1133.87 1.3626 -1.29672 0
M  V30 12191 O 1133.23 1.78219 -0.332836 0
M  V30 12192 C 1133.28 0.446593 -3.57824 0
M  V30 12193 O 1132.38 1.53414 -3.82803 0
M  V30 12194 H 1131.73 0.00475812 -0.663983 0
M  V30 12195 H 1134.26 -0.610171 -1.9529 0
M  V30 12196 H 1134.27 0.698972 -4.01968 0
M  V30 12197 H 1132.94 -0.447613 -4.13484 0
M  V30 12198 H 1131.52 1.27224 -3.50526 0
M  V30 12199 N 1133.7 1.56767 -0.161869 0
M  V30 12200 C 1134.93 2.01401 0.49523 0
M  V30 12201 C 1135.35 1.04133 1.56646 0
M  V30 12202 O 1134.71 0.0193747 1.8129 0
M  V30 12203 C 1134.76 3.44695 1.05913 0
M  V30 12204 O 1133.86 3.50475 2.1735 0
M  V30 12205 H 1133.2 0.65314 0.1196 0
M  V30 12206 H 1135.73 2.02903 -0.26298 0
M  V30 12207 H 1135.74 3.83805 1.3841 0
M  V30 12208 H 1134.42 4.14991 0.274749 0
M  V30 12209 H 1133 3.23218 1.85969 0
M  V30 12210 N 1135.18 -0.111886 1.57202 0
M  V30 12211 C 1136.46 -0.849125 1.76208 0
M  V30 12212 C 1136.84 -1.97735 0.73919 0
M  V30 12213 O 1136.19 -2.27283 -0.235523 0
M  V30 12214 C 1136.4 -1.35924 3.21443 0
M  V30 12215 C 1137.74 -1.80874 3.84148 0
M  V30 12216 O 1138.77 -1.45587 3.25089 0
M  V30 12217 O 1137.63 -2.46065 4.87969 0
M  V30 12218 H 1134.72 -0.403761 0.721738 0
M  V30 12219 H 1137.27 -0.0950726 1.69433 0
M  V30 12220 H 1136.04 -0.550113 3.87414 0
M  V30 12221 H 1135.66 -2.17579 3.32784 0
M  V30 12222 N 1136.66 -1.52894 -0.382264 0
M  V30 12223 C 1137.91 -1.67933 -1.1244 0
M  V30 12224 C 1138.23 -0.425166 -1.90309 0
M  V30 12225 O 1137.5 0.560557 -1.87709 0
M  V30 12226 H 1136.08 -0.619047 -0.418079 0
M  V30 12227 H 1138.74 -1.90031 -0.432928 0
M  V30 12228 H 1137.84 -2.53285 -1.82355 0
M  V30 12229 N 1138.14 0.641106 -1.43971 0
M  V30 12230 C 1139.37 1.42829 -1.49692 0
M  V30 12231 C 1139.78 1.88427 -0.118594 0
M  V30 12232 O 1139.14 1.60234 0.873581 0
M  V30 12233 C 1139.19 2.65524 -2.45314 0
M  V30 12234 O 1138.91 2.2183 -3.77787 0
M  V30 12235 C 1140.41 3.58758 -2.60399 0
M  V30 12236 H 1137.63 0.438367 -0.508011 0
M  V30 12237 H 1140.17 0.784933 -1.88836 0
M  V30 12238 H 1138.33 3.25973 -2.09332 0
M  V30 12239 H 1138.74 3.01303 -4.29321 0
M  V30 12240 H 1140.22 4.41483 -3.31357 0
M  V30 12241 H 1140.69 4.06909 -1.65294 0
M  V30 12242 H 1141.3 3.04184 -2.97241 0
M  V30 12243 N 1139.62 1.30703 0.880598 0
M  V30 12244 C 1141.03 1.17818 1.4483 0
M  V30 12245 C 1141.38 -0.219456 1.94969 0
M  V30 12246 O 1140.5 -1.11646 1.85375 0
M  V30 12247 C 1141.1 2.13275 2.63247 0
M  V30 12248 C 1139.66 2.04356 3.16094 0
M  V30 12249 C 1138.8 2.03108 1.88792 0
M  V30 12250 H 1141.75 1.42909 0.690125 0
M  V30 12251 H 1141.78 1.71615 3.39601 0
M  V30 12252 H 1141.29 3.14988 2.26725 0
M  V30 12253 H 1139.39 1.058 3.57263 0
M  V30 12254 H 1139.5 2.92953 3.79098 0
M  V30 12255 H 1137.87 1.47971 2.07308 0
M  V30 12256 H 1138.65 3.06558 1.54521 0
M  V30 12257 N 1141.09 -1.09351 1.1349 0
M  V30 12258 C 1142.37 -1.78121 0.808225 0
M  V30 12259 C 1142.75 -1.99154 -0.700072 0
M  V30 12260 O 1142.1 -1.59356 -1.63762 0
M  V30 12261 C 1142.31 -3.10368 1.59601 0
M  V30 12262 C 1143.66 -3.85063 1.78919 0
M  V30 12263 O 1144.68 -3.20122 1.56206 0
M  V30 12264 O 1143.54 -5.01648 2.16821 0
M  V30 12265 H 1140.63 -0.77253 0.295173 0
M  V30 12266 H 1143.18 -1.15901 1.23956 0
M  V30 12267 H 1141.95 -2.90549 2.62101 0
M  V30 12268 H 1141.57 -3.80312 1.15967 0
M  V30 12269 N 1142.57 -0.928524 -1.27343 0
M  V30 12270 C 1143.99 -0.62889 -1.46687 0
M  V30 12271 C 1144.19 0.821592 -1.83989 0
M  V30 12272 O 1143.24 1.59941 -1.95385 0
M  V30 12273 C 1144.56 -1.57947 -2.55878 0
M  V30 12274 C 1146.1 -1.58778 -2.69738 0
M  V30 12275 C 1146.58 -2.52535 -3.82087 0
M  V30 12276 N 1148.07 -2.50747 -3.89462 0
M  V30 12277 C 1148.81 -3.19981 -4.75814 0
M  V30 12278 N 1148.3 -3.98598 -5.66649 0
M  V30 12279 N 1150.09 -3.08996 -4.69551 0
M  V30 12280 H 1142.25 -1.86625 -1.01414 0
M  V30 12281 H 1144.51 -0.801293 -0.50659 0
M  V30 12282 H 1144.21 -2.61427 -2.35264 0
M  V30 12283 H 1144.09 -1.3218 -3.53282 0
M  V30 12284 H 1146.48 -0.560292 -2.89732 0
M  V30 12285 H 1146.56 -1.88594 -1.72817 0
M  V30 12286 H 1146.2 -3.55395 -3.62846 0
M  V30 12287 H 1146.13 -2.20015 -4.78436 0
M  V30 12288 H 1148.62 -1.93651 -3.24511 0
M  V30 12289 H 1148.93 -4.4841 -6.29403 0
M  V30 12290 H 1147.28 -4.02701 -5.66442 0
M  V30 12291 H 1150.47 -2.4707 -3.97585 0
M  V30 12292 H 1150.64 -3.63223 -5.36631 0
M  V30 12293 N 1144.05 1.41491 -0.694123 0
M  V30 12294 C 1145.47 1.55358 -0.365532 0
M  V30 12295 C 1145.67 1.66994 1.12762 0
M  V30 12296 O 1144.72 1.64756 1.91342 0
M  V30 12297 C 1146.03 2.79352 -1.11279 0
M  V30 12298 C 1147.58 2.93147 -1.097 0
M  V30 12299 C 1148.06 4.20027 -1.82597 0
M  V30 12300 N 1149.55 4.26981 -1.7956 0
M  V30 12301 C 1150.28 5.24013 -2.32805 0
M  V30 12302 N 1149.78 6.27083 -2.94515 0
M  V30 12303 N 1151.57 5.15943 -2.23069 0
M  V30 12304 H 1143.72 1.32183 -1.66257 0
M  V30 12305 H 1145.99 0.637624 -0.701527 0
M  V30 12306 H 1145.69 2.76958 -2.16765 0
M  V30 12307 H 1145.57 3.70827 -0.690439 0
M  V30 12308 H 1147.95 2.95057 -0.0504037 0
M  V30 12309 H 1148.03 2.02849 -1.55839 0
M  V30 12310 H 1147.68 4.18878 -2.87235 0
M  V30 12311 H 1147.61 5.09294 -1.33893 0
M  V30 12312 H 1150.1 3.53129 -1.34567 0
M  V30 12313 H 1150.41 6.97511 -3.32714 0
M  V30 12314 H 1148.76 6.27589 -2.98592 0
M  V30 12315 H 1151.95 4.34346 -1.74532 0
M  V30 12316 H 1152.12 5.91396 -2.64868 0
M  V30 12317 N 1145.53 0.438773 1.51369 0
M  V30 12318 C 1146.77 -0.119657 2.03048 0
M  V30 12319 C 1147.13 -1.4026 1.317 0
M  V30 12320 O 1146.42 -1.86858 0.423612 0
M  V30 12321 C 1146.62 -0.39186 3.55245 0
M  V30 12322 C 1146.44 0.863149 4.41339 0
M  V30 12323 C 1145.21 1.39709 4.85602 0
M  V30 12324 C 1147.41 1.74969 4.83622 0
M  V30 12325 N 1145.39 2.60449 5.55913 0
M  V30 12326 C 1146.77 2.80313 5.53014 0
M  V30 12327 C 1148.82 1.76393 4.65607 0
M  V30 12328 C 1147.52 3.87029 6.06301 0
M  V30 12329 C 1149.55 2.82045 5.19812 0
M  V30 12330 C 1148.91 3.86109 5.89151 0
M  V30 12331 H 1145.01 -0.00458455 0.781987 0
M  V30 12332 H 1147.59 0.599764 1.85232 0
M  V30 12333 H 1145.77 -1.08032 3.73073 0
M  V30 12334 H 1147.5 -0.941775 3.93589 0
M  V30 12335 H 1144.25 0.950817 4.63957 0
M  V30 12336 H 1144.68 3.21678 5.95695 0
M  V30 12337 H 1149.32 0.972686 4.11459 0
M  V30 12338 H 1147.04 4.66991 6.59504 0
M  V30 12339 H 1150.62 2.84091 5.07724 0
M  V30 12340 H 1149.5 4.66518 6.30342 0
M  V30 12341 N 1147.01 -1.56678 0.170181 0
M  V30 12342 C 1148.25 -1.98743 -0.477534 0
M  V30 12343 C 1148.61 -1.0538 -1.60497 0
M  V30 12344 O 1149.81 -1.3658 -2.31515 0
M  V30 12345 C 1148.08 -3.44565 -0.949186 0
M  V30 12346 S 1149.64 -4.08658 -1.59824 0
M  V30 12347 H 1146.46 -0.694202 -0.153639 0
M  V30 12348 H 1149.06 -1.93663 0.267373 0
M  V30 12349 H 1147.76 -4.1023 -0.118205 0
M  V30 12350 H 1147.3 -3.53409 -1.72816 0
M  V30 12351 H 1149.31 -4.03614 -2.88635 0
M  V30 12352 N 1148.48 0.103547 -1.57259 0
M  V30 12353 C 1149.73 0.808576 -1.85656 0
M  V30 12354 C 1150.06 1.79143 -0.757502 0
M  V30 12355 O 1149.31 1.941 0.249723 0
M  V30 12356 C 1149.61 1.57946 -3.20605 0
M  V30 12357 C 1149.28 0.739502 -4.44795 0
M  V30 12358 C 1147.94 0.507921 -4.78512 0
M  V30 12359 C 1150.29 0.155034 -5.20969 0
M  V30 12360 C 1147.62 -0.318129 -5.85837 0
M  V30 12361 C 1149.97 -0.658292 -6.29166 0
M  V30 12362 C 1148.64 -0.900044 -6.61404 0
M  V30 12363 H 1147.91 0.295879 -0.679365 0
M  V30 12364 H 1150.55 0.0703604 -1.91371 0
M  V30 12365 H 1148.86 2.38902 -3.10537 0
M  V30 12366 H 1150.56 2.12921 -3.39803 0
M  V30 12367 H 1147.15 0.930103 -4.18386 0
M  V30 12368 H 1151.33 0.32113 -4.9526 0
M  V30 12369 H 1146.59 -0.514495 -6.09231 0
M  V30 12370 H 1150.76 -1.11809 -6.87366 0
M  V30 12371 H 1148.39 -1.54194 -7.44398 0
M  V30 12372 N 1149.96 1.53094 0.37415 0
M  V30 12373 C 1151.38 1.42676 0.715246 0
M  V30 12374 C 1151.58 0.558992 1.93591 0
M  V30 12375 O 1150.63 0.0381328 2.52471 0
M  V30 12376 C 1151.95 2.85746 0.936459 0
M  V30 12377 C 1153.49 2.95322 1.03701 0
M  V30 12378 C 1153.97 4.39436 1.29075 0
M  V30 12379 N 1155.46 4.42826 1.35864 0
M  V30 12380 C 1156.2 5.51433 1.57191 0
M  V30 12381 N 1155.69 6.701 1.75891 0
M  V30 12382 N 1157.48 5.38998 1.59491 0
M  V30 12383 H 1149.64 2.08025 -0.428854 0
M  V30 12384 H 1151.9 0.939078 -0.129758 0
M  V30 12385 H 1151.6 3.51523 0.111448 0
M  V30 12386 H 1151.48 3.28887 1.84698 0
M  V30 12387 H 1153.87 2.29704 1.85257 0
M  V30 12388 H 1153.95 2.55588 0.104066 0
M  V30 12389 H 1153.59 5.05625 0.480231 0
M  V30 12390 H 1153.52 4.76735 2.23677 0
M  V30 12391 H 1156.01 3.57301 1.23061 0
M  V30 12392 H 1156.32 7.48643 1.91713 0
M  V30 12393 H 1154.67 6.73102 1.73086 0
M  V30 12394 H 1157.86 4.45257 1.44444 0
M  V30 12395 H 1158.03 6.23705 1.75771 0
M  V30 12396 N 1151.44 -0.633461 1.44309 0
M  V30 12397 C 1152.69 -1.39513 1.47187 0
M  V30 12398 C 1153.02 -1.93926 0.103186 0
M  V30 12399 O 1152.29 -1.73512 -0.878853 0
M  V30 12400 C 1152.58 -2.56213 2.53036 0
M  V30 12401 C 1152.43 -2.07164 3.99253 0
M  V30 12402 C 1153.75 -3.58403 2.55412 0
M  V30 12403 H 1150.87 -0.505936 0.535908 0
M  V30 12404 H 1153.51 -0.716445 1.75975 0
M  V30 12405 H 1151.66 -3.14111 2.28619 0
M  V30 12406 H 1153.33 -1.54115 4.34795 0
M  V30 12407 H 1151.57 -1.38367 4.11141 0
M  V30 12408 H 1152.25 -2.91172 4.6896 0
M  V30 12409 H 1154.72 -3.103 2.77224 0
M  V30 12410 H 1153.6 -4.37581 3.31382 0
M  V30 12411 H 1153.86 -4.12316 1.59523 0
M  V30 12412 N 1152.92 -1.31168 -0.873655 0
M  V30 12413 C 1154.2 -1.11285 -1.60857 0
M  V30 12414 C 1154.58 0.333788 -2.08444 0
M  V30 12415 O 1153.92 1.32726 -1.86 0
M  V30 12416 C 1154.13 -2.12379 -2.7694 0
M  V30 12417 C 1155.48 -2.44704 -3.46994 0
M  V30 12418 O 1156.51 -2.10778 -2.87143 0
M  V30 12419 O 1155.36 -3.02786 -4.54954 0
M  V30 12420 H 1152.46 -0.428177 -0.707526 0
M  V30 12421 H 1155 -1.42634 -0.91944 0
M  V30 12422 H 1153.78 -3.09703 -2.39164 0
M  V30 12423 H 1153.4 -1.81914 -3.53544 0
M  V30 12424 N 1154.4 1.08748 -1.14068 0
M  V30 12425 C 1155.31 2.19123 -0.837998 0
M  V30 12426 C 1156.32 1.73065 0.180164 0
M  V30 12427 O 1157.5 2.01398 0.00952285 0
M  V30 12428 C 1154.56 3.45257 -0.316 0
M  V30 12429 C 1153.62 4.05959 -1.39628 0
M  V30 12430 C 1152.86 5.26072 -0.899095 0
M  V30 12431 O 1153.08 5.69804 0.260744 0
M  V30 12432 O 1152.01 5.7808 -1.67652 0
M  V30 12433 H 1155.84 2.4748 -1.76033 0
M  V30 12434 H 1153.43 1.17816 -0.918675 0
M  V30 12435 H 1155.31 4.21389 -0.0306425 0
M  V30 12436 H 1153.98 3.18486 0.578654 0
M  V30 12437 H 1152.89 3.31432 -1.73505 0
M  V30 12438 H 1154.22 4.36971 -2.26533 0
M  V30 12439 N 1155.87 0.935264 1.26849 0
M  V30 12440 C 1157.12 0.580548 1.94313 0
M  V30 12441 C 1157.45 -0.877205 1.73259 0
M  V30 12442 O 1156.73 -1.62679 1.06611 0
M  V30 12443 C 1157.01 0.916445 3.48243 0
M  V30 12444 C 1156.86 2.42851 3.78607 0
M  V30 12445 C 1158.18 0.427665 4.38017 0
M  V30 12446 H 1155.3 0.21239 0.705733 0
M  V30 12447 H 1157.94 1.16841 1.49827 0
M  V30 12448 H 1156.09 0.416169 3.86265 0
M  V30 12449 H 1157.77 3.00106 3.50335 0
M  V30 12450 H 1156.01 2.8745 3.24892 0
M  V30 12451 H 1156.68 2.61405 4.8618 0
M  V30 12452 H 1159.16 0.856525 4.07189 0
M  V30 12453 H 1158.03 0.691571 5.44526 0
M  V30 12454 H 1158.29 -0.672344 4.36958 0
M  V30 12455 N 1157.35 -1.41121 0.701616 0
M  V30 12456 C 1158.3 -2.32582 0.0288052 0
M  V30 12457 C 1159.29 -1.5129 -0.762074 0
M  V30 12458 O 1160.5 -1.67185 -0.667014 0
M  V30 12459 H 1156.88 -0.75194 -0.00948675 0
M  V30 12460 H 1158.85 -2.86994 0.817141 0
M  V30 12461 C 1157.6 -3.36137 -0.889217 0
M  V30 12462 H 1156.92 -3.98746 -0.290062 0
M  V30 12463 H 1158.36 -4.0266 -1.32819 0
M  V30 12464 C 1156.82 -2.70504 -2.00821 0
M  V30 12465 O 1157.35 -2.55753 -3.09763 0
M  V30 12466 N 1155.55 -2.29105 -1.78772 0
M  V30 12467 H 1155.1 -2.41303 -0.901708 0
M  V30 12468 H 1155.06 -1.85527 -2.53825 0
M  V30 12469 N 1158.83 -0.446794 -1.51134 0
M  V30 12470 C 1160.08 0.108888 -2.03108 0
M  V30 12471 C 1160.43 1.3956 -1.32442 0
M  V30 12472 O 1159.72 1.86631 -0.433515 0
M  V30 12473 C 1159.92 0.373015 -3.55448 0
M  V30 12474 C 1159.75 -0.886542 -4.40875 0
M  V30 12475 C 1158.52 -1.42283 -4.84854 0
M  V30 12476 C 1160.72 -1.77531 -4.82688 0
M  V30 12477 N 1158.7 -2.63394 -5.54524 0
M  V30 12478 C 1160.07 -2.83241 -5.5152 0
M  V30 12479 C 1162.12 -1.7886 -4.64665 0
M  V30 12480 C 1160.83 -3.90239 -6.0424 0
M  V30 12481 C 1162.85 -2.84798 -5.18309 0
M  V30 12482 C 1162.21 -3.89228 -5.87095 0
M  V30 12483 H 1158.31 0.000437421 -0.782 0
M  V30 12484 H 1160.9 -0.609578 -1.84911 0
M  V30 12485 H 1159.07 1.06052 -3.73641 0
M  V30 12486 H 1160.8 0.920889 -3.94083 0
M  V30 12487 H 1157.56 -0.975408 -4.63447 0
M  V30 12488 H 1157.98 -3.24833 -5.9398 0
M  V30 12489 H 1162.62 -0.994493 -4.10938 0
M  V30 12490 H 1160.34 -4.70482 -6.57018 0
M  V30 12491 H 1163.93 -2.8678 -5.0621 0
M  V30 12492 H 1162.81 -4.69854 -6.27859 0
M  V30 12493 N 1160.31 1.56586 -0.178487 0
M  V30 12494 C 1161.53 2.01915 0.473841 0
M  V30 12495 C 1161.96 1.05789 1.55533 0
M  V30 12496 O 1161.32 0.0386018 1.81259 0
M  V30 12497 C 1161.36 3.45799 1.02251 0
M  V30 12498 O 1160.47 3.52761 2.1362 0
M  V30 12499 H 1159.81 0.654372 0.112666 0
M  V30 12500 H 1162.34 2.02613 -0.284486 0
M  V30 12501 H 1162.35 3.85252 1.34332 0
M  V30 12502 H 1161.02 4.1526 0.230719 0
M  V30 12503 H 1159.6 3.25172 1.8253 0
M  V30 12504 N 1161.79 -0.095206 1.57312 0
M  V30 12505 C 1162.74 -1.12188 1.98489 0
M  V30 12506 C 1163.72 -1.35778 0.863317 0
M  V30 12507 O 1164.91 -1.36471 1.12715 0
M  V30 12508 C 1162.04 -2.44214 2.41277 0
M  V30 12509 C 1161.13 -2.23998 3.60119 0
M  V30 12510 N 1161.52 -1.7365 4.75057 0
M  V30 12511 C 1159.82 -2.54565 3.66214 0
M  V30 12512 C 1160.52 -1.67702 5.57002 0
M  V30 12513 N 1159.49 -2.12912 5.00169 0
M  V30 12514 H 1163.3 -0.725545 2.84804 0
M  V30 12515 H 1160.81 -0.302634 1.59555 0
M  V30 12516 H 1162.81 -3.185 2.69004 0
M  V30 12517 H 1161.47 -2.84585 1.56339 0
M  V30 12518 H 1162.48 -1.42849 4.9781 0
M  V30 12519 H 1159.15 -2.98461 2.91937 0
M  V30 12520 H 1160.54 -1.29827 6.59238 0
M  V30 12521 N 1163.26 -1.53291 -0.366026 0
M  V30 12522 C 1164.51 -1.70649 -1.10683 0
M  V30 12523 C 1164.87 -0.45249 -1.87003 0
M  V30 12524 O 1164.16 0.55448 -1.83401 0
M  V30 12525 C 1164.35 -2.89547 -2.09517 0
M  V30 12526 C 1164.18 -4.26389 -1.42907 0
M  V30 12527 C 1162.95 -4.91247 -1.18339 0
M  V30 12528 C 1165.15 -5.06939 -0.867015 0
M  V30 12529 N 1163.13 -6.12015 -0.480746 0
M  V30 12530 C 1164.5 -6.19304 -0.29371 0
M  V30 12531 C 1166.56 -4.91978 -0.765659 0
M  V30 12532 C 1165.26 -7.18342 0.371063 0
M  V30 12533 C 1167.29 -5.91289 -0.114668 0
M  V30 12534 C 1166.65 -7.02975 0.447764 0
M  V30 12535 H 1162.75 -0.677704 -0.390181 0
M  V30 12536 H 1165.33 -1.90687 -0.393276 0
M  V30 12537 H 1163.5 -2.71049 -2.78185 0
M  V30 12538 H 1165.23 -2.95731 -2.76271 0
M  V30 12539 H 1161.99 -4.50387 -1.46455 0
M  V30 12540 H 1162.41 -6.76845 -0.144802 0
M  V30 12541 H 1167.06 -4.05817 -1.18626 0
M  V30 12542 H 1164.77 -8.04094 0.803615 0
M  V30 12543 H 1168.36 -5.81788 -0.037179 0
M  V30 12544 H 1167.24 -7.78503 0.943529 0
M  V30 12545 N 1164.74 0.6258 -1.44643 0
M  V30 12546 C 1165.69 1.75869 -1.52226 0
M  V30 12547 C 1166.68 1.64765 -0.39355 0
M  V30 12548 O 1167.89 1.70779 -0.568718 0
M  V30 12549 H 1164.27 0.580712 -0.477784 0
M  V30 12550 H 1166.24 1.66596 -2.47565 0
M  V30 12551 C 1164.99 3.14217 -1.48873 0
M  V30 12552 H 1164.31 3.23411 -2.35043 0
M  V30 12553 H 1165.75 3.93365 -1.58239 0
M  V30 12554 C 1164.21 3.36243 -0.210299 0
M  V30 12555 O 1164.74 3.95243 0.717335 0
M  V30 12556 N 1162.94 2.90385 -0.111744 0
M  V30 12557 H 1162.49 2.42555 -0.867466 0
M  V30 12558 H 1162.45 3.05498 0.742871 0
M  V30 12559 N 1166.22 1.31629 0.866686 0
M  V30 12560 C 1167.15 1.15377 1.98042 0
M  V30 12561 C 1168.17 0.0919633 1.6254 0
M  V30 12562 O 1169.35 0.339775 1.75236 0
M  V30 12563 C 1166.45 0.741295 3.30693 0
M  V30 12564 C 1165.63 1.88882 3.94516 0
M  V30 12565 C 1164.69 1.46186 5.05486 0
M  V30 12566 O 1163.71 2.17202 5.26129 0
M  V30 12567 N 1164.91 0.351096 5.79437 0
M  V30 12568 H 1167.68 2.11309 2.12529 0
M  V30 12569 H 1165.24 1.24007 1.04085 0
M  V30 12570 H 1167.23 0.438313 4.02319 0
M  V30 12571 H 1165.8 -0.12651 3.12344 0
M  V30 12572 H 1165.02 2.35894 3.15828 0
M  V30 12573 H 1166.31 2.65734 4.33892 0
M  V30 12574 H 1165.71 -0.240245 5.6519 0
M  V30 12575 H 1164.27 0.107663 6.51711 0
M  V30 12576 N 1167.7 -1.08142 1.14644 0
M  V30 12577 C 1168.65 -2.17229 0.831513 0
M  V30 12578 C 1169.64 -1.68311 -0.19173 0
M  V30 12579 O 1170.85 -1.79937 -0.0475596 0
M  V30 12580 H 1167.22 -0.708807 0.25119 0
M  V30 12581 H 1169.19 -2.41014 1.75939 0
M  V30 12582 C 1167.94 -3.46146 0.328347 0
M  V30 12583 H 1167.27 -3.84166 1.10708 0
M  V30 12584 H 1168.71 -4.23747 0.146568 0
M  V30 12585 C 1167.16 -3.2327 -0.948594 0
M  V30 12586 O 1167.69 -3.47111 -2.0218 0
M  V30 12587 N 1165.9 -2.76799 -0.884909 0
M  V30 12588 H 1165.45 -2.57597 -0.011399 0
M  V30 12589 H 1165.41 -2.61871 -1.73985 0
M  V30 12590 N 1169.18 -0.941978 -1.26351 0
M  V30 12591 C 1170.11 -0.469913 -2.28723 0
M  V30 12592 C 1171.09 0.477218 -1.63269 0
M  V30 12593 O 1172.27 0.378902 -1.90468 0
M  V30 12594 C 1169.4 0.264971 -3.46288 0
M  V30 12595 C 1168.36 -0.595682 -4.23834 0
M  V30 12596 C 1167.68 0.269208 -5.34022 0
M  V30 12597 C 1168.98 -1.86743 -4.87775 0
M  V30 12598 H 1170.68 -1.32551 -2.6846 0
M  V30 12599 H 1168.22 -0.638809 -1.29055 0
M  V30 12600 H 1170.18 0.606259 -4.17016 0
M  V30 12601 H 1168.9 1.15471 -3.05506 0
M  V30 12602 H 1167.56 -0.919875 -3.54872 0
M  V30 12603 H 1167.21 1.15832 -4.89481 0
M  V30 12604 H 1166.91 -0.30325 -5.86817 0
M  V30 12605 H 1168.43 0.605748 -6.07588 0
M  V30 12606 H 1169.85 -1.59333 -5.50714 0
M  V30 12607 H 1168.24 -2.38452 -5.50691 0
M  V30 12608 H 1169.31 -2.57831 -4.10671 0
M  V30 12609 N 1170.66 1.40747 -0.709091 0
M  V30 12610 C 1171.9 2.00606 -0.245324 0
M  V30 12611 C 1172.22 1.56489 1.16346 0
M  V30 12612 O 1171.49 0.801456 1.78755 0
M  V30 12613 H 1170.07 0.741833 -0.0877098 0
M  V30 12614 H 1172.74 1.72178 -0.913271 0
M  V30 12615 H 1171.83 3.10901 -0.273322 0
M  V30 12616 N 1172.13 0.454803 1.50895 0
M  V30 12617 C 1173.38 -0.107367 2.01414 0
M  V30 12618 C 1173.7 -1.42243 1.34262 0
M  V30 12619 O 1174.9 -2.06858 1.75846 0
M  V30 12620 C 1173.36 -0.241872 3.59086 0
M  V30 12621 C 1172.97 1.06379 4.35187 0
M  V30 12622 C 1174.71 -0.756873 4.17698 0
M  V30 12623 C 1172.62 0.893973 5.84604 0
M  V30 12624 H 1171.55 -0.0439003 0.752721 0
M  V30 12625 H 1174.2 0.587225 1.7385 0
M  V30 12626 H 1172.58 -0.999873 3.83169 0
M  V30 12627 H 1173.75 1.83148 4.2284 0
M  V30 12628 H 1172.07 1.50865 3.88109 0
M  V30 12629 H 1174.67 -0.900697 5.27059 0
M  V30 12630 H 1175.01 -1.74397 3.7801 0
M  V30 12631 H 1175.54 -0.0567088 3.9776 0
M  V30 12632 H 1172.28 1.85395 6.28736 0
M  V30 12633 H 1171.8 0.166387 5.99569 0
M  V30 12634 H 1173.48 0.554084 6.44623 0
M  V30 12635 N 1173.61 -1.56489 0.186789 0
M  V30 12636 C 1174.86 -1.96517 -0.45433 0
M  V30 12637 C 1175.17 -1.07618 -1.63333 0
M  V30 12638 O 1176.38 -1.37392 -2.3417 0
M  V30 12639 C 1174.84 -3.49482 -0.859685 0
M  V30 12640 C 1174.44 -4.47031 0.294572 0
M  V30 12641 C 1176.19 -3.98296 -1.46835 0
M  V30 12642 C 1174.09 -5.91254 -0.131279 0
M  V30 12643 H 1173.02 -0.733765 -0.17351 0
M  V30 12644 H 1175.68 -1.8139 0.277485 0
M  V30 12645 H 1174.06 -3.60082 -1.64793 0
M  V30 12646 H 1175.23 -4.48156 1.07205 0
M  V30 12647 H 1173.55 -4.08362 0.814197 0
M  V30 12648 H 1176.14 -5.03518 -1.79928 0
M  V30 12649 H 1176.49 -3.42123 -2.37186 0
M  V30 12650 H 1177.02 -3.90776 -0.744247 0
M  V30 12651 H 1173.76 -6.51334 0.737839 0
M  V30 12652 H 1173.28 -5.93401 -0.873786 0
M  V30 12653 H 1174.96 -6.44485 -0.569913 0
M  V30 12654 N 1175.09 0.086862 -1.5736 0
M  V30 12655 C 1176.04 1.12359 -2.03662 0
M  V30 12656 C 1177.03 1.40982 -0.939169 0
M  V30 12657 O 1178.24 1.40566 -1.12433 0
M  V30 12658 H 1174.61 0.379605 -0.649156 0
M  V30 12659 H 1176.58 0.706822 -2.89908 0
M  V30 12660 C 1175.33 2.43327 -2.48369 0
M  V30 12661 H 1174.66 2.22148 -3.324 0
M  V30 12662 H 1176.1 3.14351 -2.84534 0
M  V30 12663 C 1174.55 3.08214 -1.36036 0
M  V30 12664 O 1175.08 3.95659 -0.694063 0
M  V30 12665 N 1173.29 2.68596 -1.10927 0
M  V30 12666 H 1172.84 1.97578 -1.6529 0
M  V30 12667 H 1172.8 3.12336 -0.359679 0
M  V30 12668 N 1176.57 1.53483 0.357892 0
M  V30 12669 C 1177.48 1.83434 1.4625 0
M  V30 12670 C 1178.49 0.723313 1.58254 0
M  V30 12671 O 1179.67 1.01416 1.74002 0
M  V30 12672 C 1176.73 2.0249 2.81423 0
M  V30 12673 C 1175.8 3.26378 2.78883 0
M  V30 12674 C 1175.03 3.44516 4.07608 0
M  V30 12675 O 1175.25 2.66787 5.04163 0
M  V30 12676 O 1174.19 4.37898 4.12952 0
M  V30 12677 H 1178.01 2.77294 1.23861 0
M  V30 12678 H 1175.6 1.38958 0.548722 0
M  V30 12679 H 1177.48 2.16552 3.61501 0
M  V30 12680 H 1176.15 1.11819 3.03773 0
M  V30 12681 H 1175.06 3.17733 1.97475 0
M  V30 12682 H 1176.39 4.16996 2.61486 0
M  V30 12683 N 1178.05 -0.61812 1.44973 0
M  V30 12684 C 1179.32 -1.37705 1.38913 0
M  V30 12685 C 1179.7 -2.1103 0.054385 0
M  V30 12686 O 1179.05 -2.07197 -0.963409 0
M  V30 12687 C 1179.26 -2.33265 2.59593 0
M  V30 12688 C 1180.61 -2.96197 3.04224 0
M  V30 12689 O 1181.63 -2.43589 2.59891 0
M  V30 12690 O 1180.49 -3.91666 3.8113 0
M  V30 12691 H 1177.59 -0.61694 0.55074 0
M  V30 12692 H 1180.13 -0.642088 1.57084 0
M  V30 12693 H 1178.9 -1.78271 3.48332 0
M  V30 12694 H 1178.53 -3.14158 2.43702 0
M  V30 12695 N 1179.52 -1.32087 -0.859693 0
M  V30 12696 C 1180.93 -1.20107 -1.42938 0
M  V30 12697 C 1181.29 0.188411 -1.95293 0
M  V30 12698 O 1180.41 1.08683 -1.87128 0
M  V30 12699 C 1181.01 -2.17436 -2.59821 0
M  V30 12700 C 1179.56 -2.09359 -3.12803 0
M  V30 12701 C 1178.71 -2.06086 -1.85537 0
M  V30 12702 H 1181.66 -1.43989 -0.667302 0
M  V30 12703 H 1181.68 -1.76996 -3.36828 0
M  V30 12704 H 1181.2 -3.18555 -2.21685 0
M  V30 12705 H 1179.3 -1.1147 -3.55535 0
M  V30 12706 H 1179.41 -2.98947 -3.74389 0
M  V30 12707 H 1177.77 -1.51251 -2.04928 0
M  V30 12708 H 1178.56 -3.08978 -1.49625 0
M  V30 12709 N 1181 1.07532 -1.15215 0
M  V30 12710 C 1182.25 1.79737 -0.924062 0
M  V30 12711 C 1182.57 1.87072 0.550356 0
M  V30 12712 O 1181.84 1.37029 1.4 0
M  V30 12713 H 1180.42 0.665704 -0.338891 0
M  V30 12714 H 1183.08 1.29961 -1.45245 0
M  V30 12715 H 1182.18 2.82256 -1.33184 0
M  V30 12716 N 1182.48 0.948665 1.2585 0
M  V30 12717 C 1183.43 0.462904 2.2611 0
M  V30 12718 C 1184.4 -0.481433 1.5897 0
M  V30 12719 O 1185.58 -0.395997 1.86645 0
M  V30 12720 C 1182.72 -0.258808 3.44128 0
M  V30 12721 C 1181.84 0.722072 4.25923 0
M  V30 12722 C 1180.97 -0.0215958 5.31196 0
M  V30 12723 C 1180.01 0.950612 6.04673 0
M  V30 12724 N 1179.15 0.238209 7.01696 0
M  V30 12725 H 1183.99 1.32279 2.67032 0
M  V30 12726 H 1181.52 0.663485 1.31287 0
M  V30 12727 H 1183.48 -0.693759 4.11391 0
M  V30 12728 H 1182.11 -1.08278 3.04098 0
M  V30 12729 H 1181.16 1.27552 3.58378 0
M  V30 12730 H 1182.48 1.46421 4.76825 0
M  V30 12731 H 1181.63 -0.51547 6.04506 0
M  V30 12732 H 1180.37 -0.796563 4.81151 0
M  V30 12733 H 1179.37 1.45554 5.30183 0
M  V30 12734 H 1180.6 1.72571 6.56808 0
M  V30 12735 H 1178.54 -0.518129 6.53951 0
M  V30 12736 H 1178.46 0.919542 7.50387 0
M  V30 12737 H 1179.73 -0.234325 7.79148 0
M  V30 12738 N 1183.96 -1.40369 0.716545 0
M  V30 12739 C 1184.91 -2.32539 0.053472 0
M  V30 12740 C 1185.9 -1.5209 -0.745984 0
M  V30 12741 O 1187.11 -1.67883 -0.649245 0
M  V30 12742 H 1183.48 -0.751998 -0.00151088 0
M  V30 12743 H 1185.45 -2.86111 0.847535 0
M  V30 12744 C 1184.2 -3.37061 -0.853515 0
M  V30 12745 H 1183.52 -3.99032 -0.247754 0
M  V30 12746 H 1184.96 -4.04046 -1.28541 0
M  V30 12747 C 1183.42 -2.72619 -1.97941 0
M  V30 12748 O 1183.95 -2.59024 -3.07033 0
M  V30 12749 N 1182.16 -2.30988 -1.76332 0
M  V30 12750 H 1181.71 -2.42246 -0.876063 0
M  V30 12751 H 1181.66 -1.88209 -2.51843 0
M  V30 12752 N 1185.44 -0.462799 -1.50652 0
M  V30 12753 C 1186.35 0.341191 -2.32106 0
M  V30 12754 C 1187.36 1.00384 -1.42123 0
M  V30 12755 O 1188.54 0.993635 -1.75182 0
M  V30 12756 C 1185.6 1.41356 -3.16575 0
M  V30 12757 C 1184.66 0.768375 -4.22368 0
M  V30 12758 C 1183.9 1.78964 -5.028 0
M  V30 12759 O 1184.12 3.01515 -4.84195 0
M  V30 12760 O 1183.05 1.36606 -5.86193 0
M  V30 12761 H 1186.88 -0.324482 -3.01962 0
M  V30 12762 H 1184.47 -0.224807 -1.47699 0
M  V30 12763 H 1186.35 2.0349 -3.69012 0
M  V30 12764 H 1185.02 2.06285 -2.49456 0
M  V30 12765 H 1183.93 0.108297 -3.73943 0
M  V30 12766 H 1185.26 0.162164 -4.91933 0
M  V30 12767 N 1186.91 1.56388 -0.195085 0
M  V30 12768 C 1188.14 2.01963 0.449289 0
M  V30 12769 C 1188.56 1.07522 1.55192 0
M  V30 12770 O 1187.91 0.0800915 1.82324 0
M  V30 12771 C 1187.97 3.47231 1.00561 0
M  V30 12772 O 1187.69 4.38068 -0.0530241 0
M  V30 12773 C 1189.19 4.08324 1.72587 0
M  V30 12774 H 1186.41 0.661452 0.112792 0
M  V30 12775 H 1188.95 2.02231 -0.303788 0
M  V30 12776 H 1187.11 3.47663 1.70907 0
M  V30 12777 H 1187.52 5.23256 0.361076 0
M  V30 12778 H 1188.99 5.11821 2.06744 0
M  V30 12779 H 1189.47 3.51782 2.62956 0
M  V30 12780 H 1190.08 4.11665 1.06826 0
M  V30 12781 N 1188.39 -0.0785156 1.57404 0
M  V30 12782 C 1189.62 -0.790893 1.90862 0
M  V30 12783 C 1190.03 -1.7198 0.788644 0
M  V30 12784 O 1189.37 -1.82027 -0.247322 0
M  V30 12785 C 1189.44 -1.64362 3.19727 0
M  V30 12786 C 1189.1 -0.884796 4.48353 0
M  V30 12787 C 1190.1 -0.207074 5.19487 0
M  V30 12788 C 1187.78 -0.853962 4.94988 0
M  V30 12789 C 1189.78 0.491329 6.35504 0
M  V30 12790 C 1187.46 -0.151783 6.10911 0
M  V30 12791 C 1188.46 0.519669 6.8102 0
M  V30 12792 O 1188.15 1.21055 7.94733 0
M  V30 12793 H 1187.88 -0.230427 0.635515 0
M  V30 12794 H 1190.43 -0.0551231 2.05326 0
M  V30 12795 H 1188.66 -2.42203 3.01454 0
M  V30 12796 H 1190.35 -2.23406 3.38887 0
M  V30 12797 H 1191.12 -0.222247 4.84491 0
M  V30 12798 H 1187 -1.36605 4.40296 0
M  V30 12799 H 1190.54 1.01598 6.90162 0
M  V30 12800 H 1186.44 -0.134514 6.4536 0
M  V30 12801 H 1187.21 1.11914 8.10813 0
M  V30 12802 N 1189.87 -1.5367 -0.349747 0
M  V30 12803 C 1190.8 -1.77528 -1.4497 0
M  V30 12804 C 1191.82 -0.656412 -1.4898 0
M  V30 12805 O 1193 -0.933016 -1.52174 0
M  V30 12806 C 1190.1 -1.85445 -2.8366 0
M  V30 12807 C 1189.28 -3.15295 -3.03163 0
M  V30 12808 C 1188.34 -3.1425 -4.22059 0
M  V30 12809 O 1187.36 -3.87994 -4.16472 0
M  V30 12810 N 1188.56 -2.36181 -5.30282 0
M  V30 12811 H 1191.33 -2.72444 -1.24877 0
M  V30 12812 H 1188.89 -1.52644 -0.539586 0
M  V30 12813 H 1190.88 -1.82204 -3.61364 0
M  V30 12814 H 1189.45 -0.977436 -2.96926 0
M  V30 12815 H 1188.67 -3.31711 -2.12983 0
M  V30 12816 H 1189.96 -4.01078 -3.13072 0
M  V30 12817 H 1189.36 -1.75808 -5.37688 0
M  V30 12818 H 1187.92 -2.38744 -6.06502 0
M  V30 12819 N 1191.35 0.610423 -1.45298 0
M  V30 12820 C 1192.58 1.39419 -1.52466 0
M  V30 12821 C 1192.99 1.88563 -0.1551 0
M  V30 12822 O 1192.33 1.62692 0.853061 0
M  V30 12823 C 1192.39 2.63515 -2.44541 0
M  V30 12824 C 1192.06 2.36028 -3.91331 0
M  V30 12825 C 1193.05 1.96567 -4.81308 0
M  V30 12826 C 1190.74 2.49028 -4.36223 0
M  V30 12827 C 1192.73 1.70461 -6.14184 0
M  V30 12828 C 1190.42 2.22536 -5.6914 0
M  V30 12829 C 1191.42 1.83314 -6.5794 0
M  V30 12830 O 1191.1 1.57131 -7.88394 0
M  V30 12831 H 1190.84 0.433278 -0.518889 0
M  V30 12832 H 1193.39 0.751803 -1.91147 0
M  V30 12833 H 1191.62 3.30463 -2.00826 0
M  V30 12834 H 1193.31 3.25554 -2.42424 0
M  V30 12835 H 1194.08 1.86062 -4.4789 0
M  V30 12836 H 1189.95 2.78524 -3.67349 0
M  V30 12837 H 1193.5 1.39773 -6.83454 0
M  V30 12838 H 1189.4 2.32657 -6.02114 0
M  V30 12839 H 1190.16 1.71207 -8.00394 0
M  V30 12840 N 1192.83 1.32541 0.852676 0
M  V30 12841 C 1194.06 1.26037 1.63702 0
M  V30 12842 C 1194.46 -0.173583 1.88402 0
M  V30 12843 O 1193.81 -1.12175 1.45473 0
M  V30 12844 C 1193.87 1.95245 3.01861 0
M  V30 12845 C 1193.53 3.44576 3.00193 0
M  V30 12846 C 1194.53 4.40026 2.76899 0
M  V30 12847 C 1192.22 3.86541 3.20766 0
M  V30 12848 C 1194.21 5.75414 2.74185 0
M  V30 12849 C 1191.9 5.22038 3.17678 0
M  V30 12850 C 1192.89 6.16286 2.94416 0
M  V30 12851 O 1192.58 7.49303 2.91206 0
M  V30 12852 H 1192.31 0.436073 0.516543 0
M  V30 12853 H 1194.87 1.75251 1.07127 0
M  V30 12854 H 1193.1 1.40603 3.60233 0
M  V30 12855 H 1194.79 1.82423 3.62597 0
M  V30 12856 H 1195.55 4.0893 2.6077 0
M  V30 12857 H 1191.43 3.13603 3.37897 0
M  V30 12858 H 1194.98 6.4895 2.55947 0
M  V30 12859 H 1190.87 5.52762 3.33353 0
M  V30 12860 H 1191.64 7.58686 3.07146 0
M  V30 12861 N 1194.3 -1.0692 1.15784 0
M  V30 12862 C 1195.55 -1.79245 0.933581 0
M  V30 12863 C 1195.87 -1.87362 -0.540427 0
M  V30 12864 O 1195.14 -1.37769 -1.39271 0
M  V30 12865 H 1193.72 -0.663898 0.342416 0
M  V30 12866 H 1196.39 -1.29189 1.45932 0
M  V30 12867 H 1195.48 -2.81546 1.34679 0
M  V30 12868 N 1195.78 -0.955326 -1.25345 0
M  V30 12869 C 1197.03 -0.610484 -1.93079 0
M  V30 12870 C 1197.36 0.852591 -1.74817 0
M  V30 12871 O 1196.61 1.6272 -1.08723 0
M  V30 12872 C 1196.91 -0.916173 -3.45458 0
M  V30 12873 C 1196.58 -2.36539 -3.83875 0
M  V30 12874 C 1195.24 -2.76152 -3.94073 0
M  V30 12875 C 1197.59 -3.30652 -4.02888 0
M  V30 12876 C 1194.92 -4.08944 -4.20692 0
M  V30 12877 C 1197.27 -4.63057 -4.31 0
M  V30 12878 C 1195.94 -5.02464 -4.39415 0
M  V30 12879 H 1195.21 -0.223392 -0.706525 0
M  V30 12880 H 1197.85 -1.20449 -1.48877 0
M  V30 12881 H 1196.16 -0.23978 -3.91066 0
M  V30 12882 H 1197.85 -0.627929 -3.96053 0
M  V30 12883 H 1194.44 -2.04819 -3.76493 0
M  V30 12884 H 1198.63 -3.01237 -3.94423 0
M  V30 12885 H 1193.88 -4.39118 -4.25423 0
M  V30 12886 H 1198.06 -5.3596 -4.44657 0
M  V30 12887 H 1195.69 -6.05386 -4.59795 0
M  V30 12888 N 1197.26 1.39987 -0.723979 0
M  V30 12889 C 1198.49 2.0556 -0.275634 0
M  V30 12890 C 1198.91 1.54207 1.07711 0
M  V30 12891 O 1198.27 0.681041 1.68022 0
M  V30 12892 C 1198.32 3.59551 -0.27485 0
M  V30 12893 O 1197.42 4.05685 0.741182 0
M  V30 12894 H 1196.76 0.651634 -0.12755 0
M  V30 12895 H 1199.29 1.79229 -0.986814 0
M  V30 12896 H 1199.3 4.07837 -0.115425 0
M  V30 12897 H 1197.98 3.96291 -1.26198 0
M  V30 12898 H 1196.55 3.6884 0.548795 0
M  V30 12899 N 1198.74 0.470782 1.50404 0
M  V30 12900 C 1199.69 -0.342183 2.25418 0
M  V30 12901 C 1200.67 -0.961726 1.28995 0
M  V30 12902 O 1201.87 -0.874327 1.53898 0
M  V30 12903 C 1198.99 -1.42378 3.12383 0
M  V30 12904 C 1198.08 -0.811982 4.16254 0
M  V30 12905 N 1198.47 0.0675245 5.05755 0
M  V30 12906 C 1196.77 -1.07596 4.32827 0
M  V30 12907 C 1197.47 0.414693 5.8022 0
M  V30 12908 N 1196.45 -0.210047 5.43194 0
M  V30 12909 H 1200.25 0.335344 2.91981 0
M  V30 12910 H 1197.76 0.284911 1.59881 0
M  V30 12911 H 1199.76 -2.01936 3.64729 0
M  V30 12912 H 1198.42 -2.1033 2.47369 0
M  V30 12913 H 1199.43 0.436333 5.16059 0
M  V30 12914 H 1196.11 -1.75048 3.79031 0
M  V30 12915 H 1197.5 1.13243 6.62288 0
M  V30 12916 N 1200.22 -1.56282 0.203376 0
M  V30 12917 C 1201.45 -2.02198 -0.438572 0
M  V30 12918 C 1201.86 -1.08343 -1.54619 0
M  V30 12919 O 1201.22 -0.0897594 -1.82279 0
M  V30 12920 C 1201.27 -3.4776 -0.987184 0
M  V30 12921 O 1200.99 -4.38034 0.0762552 0
M  V30 12922 C 1202.49 -4.09234 -1.70419 0
M  V30 12923 H 1199.71 -0.662041 -0.109282 0
M  V30 12924 H 1202.25 -2.02067 0.314509 0
M  V30 12925 H 1200.41 -3.48564 -1.69061 0
M  V30 12926 H 1200.82 -5.2344 -0.333322 0
M  V30 12927 H 1202.3 -5.1291 -2.04027 0
M  V30 12928 H 1202.77 -3.53172 -2.61087 0
M  V30 12929 H 1203.38 -4.12226 -1.04641 0
M  V30 12930 N 1201.7 0.070167 -1.57444 0
M  V30 12931 C 1202.94 0.770153 -1.87607 0
M  V30 12932 C 1203.27 1.77143 -0.795875 0
M  V30 12933 O 1202.55 1.93533 0.193674 0
M  V30 12934 C 1202.83 1.47668 -3.2843 0
M  V30 12935 C 1202.69 0.491712 -4.47104 0
M  V30 12936 C 1204 2.42118 -3.67514 0
M  V30 12937 H 1201.12 0.278519 -0.682346 0
M  V30 12938 H 1203.77 0.0333184 -1.89971 0
M  V30 12939 H 1201.92 2.10476 -3.26546 0
M  V30 12940 H 1203.59 -0.131283 -4.61113 0
M  V30 12941 H 1201.83 -0.192817 -4.33371 0
M  V30 12942 H 1202.5 1.02372 -5.42424 0
M  V30 12943 H 1204.98 1.89387 -3.70502 0
M  V30 12944 H 1203.85 2.88556 -4.66933 0
M  V30 12945 H 1204.11 3.26995 -2.97534 0
M  V30 12946 N 1203.17 1.53854 0.341593 0
M  V30 12947 C 1204.42 1.70856 1.07948 0
M  V30 12948 C 1204.74 0.475474 1.89114 0
M  V30 12949 O 1204.01 -0.510592 1.89129 0
M  V30 12950 H 1202.59 0.629914 0.401519 0
M  V30 12951 H 1205.25 1.91112 0.382393 0
M  V30 12952 H 1204.35 2.5803 1.75575 0
M  V30 12953 N 1204.65 -0.602709 1.4562 0
M  V30 12954 C 1206.07 -0.923983 1.30133 0
M  V30 12955 C 1206.27 -1.99842 0.25796 0
M  V30 12956 O 1205.32 -2.50112 -0.346414 0
M  V30 12957 C 1206.64 -1.36029 2.68173 0
M  V30 12958 C 1208.18 -1.47423 2.76108 0
M  V30 12959 C 1208.66 -1.94427 4.14683 0
M  V30 12960 N 1210.15 -2.01653 4.17002 0
M  V30 12961 C 1210.89 -2.39255 5.211 0
M  V30 12962 N 1210.38 -2.75791 6.3554 0
M  V30 12963 N 1212.17 -2.39636 5.08459 0
M  V30 12964 H 1204.33 0.107377 2.12128 0
M  V30 12965 H 1206.59 -0.0146216 0.947887 0
M  V30 12966 H 1206.29 -0.644949 3.45736 0
M  V30 12967 H 1206.17 -2.32584 2.96959 0
M  V30 12968 H 1208.56 -2.18047 1.98845 0
M  V30 12969 H 1208.64 -0.4917 2.5103 0
M  V30 12970 H 1208.28 -1.24389 4.92433 0
M  V30 12971 H 1208.21 -2.93603 4.37156 0
M  V30 12972 H 1210.7 -1.75988 3.3442 0
M  V30 12973 H 1211.01 -3.03378 7.10761 0
M  V30 12974 H 1209.36 -2.73475 6.38934 0
M  V30 12975 H 1212.55 -2.10502 4.18098 0
M  V30 12976 H 1212.72 -2.68614 5.89704 0
M  V30 12977 N 1206.13 -1.32992 -0.845635 0
M  V30 12978 C 1207.06 -1.25301 -1.97033 0
M  V30 12979 C 1208.04 -0.134966 -1.69564 0
M  V30 12980 O 1209.23 -0.323629 -1.91484 0
M  V30 12981 C 1206.36 -0.984551 -3.33052 0
M  V30 12982 C 1205.31 -2.06481 -3.749 0
M  V30 12983 C 1204.64 -1.6486 -5.08651 0
M  V30 12984 C 1205.94 -3.48083 -3.89404 0
M  V30 12985 H 1207.63 -2.194 -2.03725 0
M  V30 12986 H 1205.18 -1.05621 -0.978783 0
M  V30 12987 H 1207.13 -0.917269 -4.11296 0
M  V30 12988 H 1205.85 -0.00793116 -3.26599 0
M  V30 12989 H 1204.51 -2.1224 -2.98915 0
M  V30 12990 H 1204.16 -0.659183 -4.98662 0
M  V30 12991 H 1203.86 -2.37145 -5.37621 0
M  V30 12992 H 1205.38 -1.59585 -5.89377 0
M  V30 12993 H 1206.8 -3.44863 -4.57976 0
M  V30 12994 H 1205.19 -4.18796 -4.29802 0
M  V30 12995 H 1206.26 -3.87084 -2.92051 0
M  V30 12996 N 1207.61 1.06304 -1.1635 0
M  V30 12997 C 1209.02 1.31227 -0.90838 0
M  V30 12998 C 1209.22 1.96665 0.438779 0
M  V30 12999 O 1208.28 2.2332 1.17833 0
M  V30 13000 C 1209.59 2.19303 -2.05734 0
M  V30 13001 C 1211.14 2.3272 -2.09309 0
M  V30 13002 C 1211.62 3.24151 -3.23559 0
M  V30 13003 N 1213.11 3.31734 -3.23275 0
M  V30 13004 C 1213.84 4.02572 -4.08318 0
M  V30 13005 N 1213.34 4.75933 -5.03448 0
M  V30 13006 N 1215.13 3.98621 -3.96305 0
M  V30 13007 H 1207.28 0.622228 -2.03081 0
M  V30 13008 H 1209.54 0.336892 -0.886119 0
M  V30 13009 H 1209.25 1.78497 -3.03037 0
M  V30 13010 H 1209.12 3.19888 -1.99879 0
M  V30 13011 H 1211.51 2.72774 -1.12599 0
M  V30 13012 H 1211.59 1.31804 -2.19229 0
M  V30 13013 H 1211.24 2.84813 -4.20528 0
M  V30 13014 H 1211.17 4.25046 -3.10875 0
M  V30 13015 H 1213.66 2.79453 -2.5439 0
M  V30 13016 H 1213.97 5.27512 -5.64758 0
M  V30 13017 H 1212.32 4.74913 -5.07427 0
M  V30 13018 H 1215.51 3.40427 -3.21289 0
M  V30 13019 H 1215.68 4.5356 -4.62804 0
M  V30 13020 N 1209.09 0.96196 1.24836 0
M  V30 13021 C 1210.5 0.667561 1.44968 0
M  V30 13022 C 1210.7 -0.772521 1.86103 0
M  V30 13023 O 1209.76 -1.54704 1.99557 0
M  V30 13024 C 1211.07 1.64675 2.516 0
M  V30 13025 C 1212.62 1.65874 2.65433 0
M  V30 13026 C 1213.09 2.62576 3.75257 0
M  V30 13027 N 1214.58 2.60984 3.82677 0
M  V30 13028 C 1215.32 3.32484 4.67163 0
M  V30 13029 N 1214.82 4.13482 5.55882 0
M  V30 13030 N 1216.61 3.21336 4.61193 0
M  V30 13031 H 1208.76 1.89248 0.964307 0
M  V30 13032 H 1211.02 0.814443 0.485167 0
M  V30 13033 H 1210.73 2.67572 2.2825 0
M  V30 13034 H 1210.6 1.415 3.49653 0
M  V30 13035 H 1212.99 0.636912 2.88145 0
M  V30 13036 H 1213.07 1.9311 1.67756 0
M  V30 13037 H 1212.71 3.6489 3.53295 0
M  V30 13038 H 1212.64 2.32622 4.72435 0
M  V30 13039 H 1215.14 2.02187 3.19263 0
M  V30 13040 H 1215.45 4.6494 6.17293 0
M  V30 13041 H 1213.79 4.17578 5.55566 0
M  V30 13042 H 1216.98 2.57524 3.90895 0
M  V30 13043 H 1217.16 3.77323 5.26812 0
M  V30 13044 N 1210.56 -1.39601 0.731392 0
M  V30 13045 C 1211.84 -1.94531 0.20422 0
M  V30 13046 C 1212.22 -1.66845 -1.29329 0
M  V30 13047 O 1211.57 -0.994706 -2.05713 0
M  V30 13048 C 1211.78 -3.44891 0.53395 0
M  V30 13049 C 1213.13 -4.21863 0.481298 0
M  V30 13050 O 1214.15 -3.53073 0.470929 0
M  V30 13051 O 1213.01 -5.44452 0.472663 0
M  V30 13052 H 1210.1 -0.826214 0.0360436 0
M  V30 13053 H 1212.65 -1.49121 0.810005 0
M  V30 13054 H 1211.42 -3.58463 1.56907 0
M  V30 13055 H 1211.04 -3.97472 -0.10099 0
M  V30 13056 N 1212.04 -0.478751 -1.50152 0
M  V30 13057 C 1213.46 -0.133356 -1.59042 0
M  V30 13058 C 1213.66 1.36069 -1.48618 0
M  V30 13059 O 1212.71 2.13468 -1.34862 0
M  V30 13060 C 1214.03 -0.690369 -2.92668 0
M  V30 13061 C 1215.58 -0.654481 -3.06081 0
M  V30 13062 C 1216.05 -1.18917 -4.42293 0
M  V30 13063 N 1217.54 -1.14891 -4.48725 0
M  V30 13064 C 1218.28 -1.53305 -5.52526 0
M  V30 13065 N 1217.77 -1.99205 -6.63543 0
M  V30 13066 N 1219.57 -1.4486 -5.43113 0
M  V30 13067 H 1211.72 -1.45037 -1.55171 0
M  V30 13068 H 1213.98 -0.600254 -0.733757 0
M  V30 13069 H 1213.69 -1.7373 -3.05795 0
M  V30 13070 H 1213.56 -0.138227 -3.76947 0
M  V30 13071 H 1215.95 0.383564 -2.92597 0
M  V30 13072 H 1216.03 -1.24352 -2.2354 0
M  V30 13073 H 1215.67 -2.22588 -4.56527 0
M  V30 13074 H 1215.6 -0.57628 -5.23437 0
M  V30 13075 H 1218.09 -0.812344 -3.69066 0
M  V30 13076 H 1218.41 -2.26645 -7.38818 0
M  V30 13077 H 1216.75 -2.03164 -6.64642 0
M  V30 13078 H 1219.94 -1.08836 -4.55272 0
M  V30 13079 H 1220.11 -1.75123 -6.23888 0
M  V30 13080 N 1213.52 1.56172 -0.211661 0
M  V30 13081 C 1214.77 1.99087 0.416624 0
M  V30 13082 C 1215.12 1.09668 1.58084 0
M  V30 13083 O 1214.41 0.144533 1.91054 0
M  V30 13084 C 1214.61 3.45636 0.909442 0
M  V30 13085 C 1214.44 4.4923 -0.205486 0
M  V30 13086 C 1213.21 5.00857 -0.668617 0
M  V30 13087 C 1215.41 5.04078 -1.02029 0
M  V30 13088 N 1213.39 5.88141 -1.75964 0
M  V30 13089 C 1214.76 5.88192 -1.96037 0
M  V30 13090 C 1216.81 4.86467 -1.06085 0
M  V30 13091 C 1215.52 6.56576 -2.93768 0
M  V30 13092 C 1217.54 5.55604 -2.02629 0
M  V30 13093 C 1216.9 6.39477 -2.95378 0
M  V30 13094 H 1213 0.77283 0.119404 0
M  V30 13095 H 1215.59 1.92033 -0.321163 0
M  V30 13096 H 1213.76 3.53157 1.61662 0
M  V30 13097 H 1215.49 3.75486 1.50972 0
M  V30 13098 H 1212.25 4.72891 -0.258977 0
M  V30 13099 H 1212.67 6.36485 -2.30685 0
M  V30 13100 H 1217.31 4.21284 -0.357726 0
M  V30 13101 H 1215.03 7.20948 -3.65048 0
M  V30 13102 H 1218.62 5.43947 -2.06428 0
M  V30 13103 H 1217.5 6.92032 -3.68864 0
M  V30 13104 N 1215 -0.0618163 1.57479 0
M  V30 13105 C 1216.22 -0.775513 1.92355 0
M  V30 13106 C 1216.65 -1.69816 0.808949 0
M  V30 13107 O 1216.01 -1.79736 -0.23761 0
M  V30 13108 C 1216.05 -1.5367 3.26218 0
M  V30 13109 O 1215.16 -2.64802 3.16155 0
M  V30 13110 H 1214.5 -0.210909 0.629614 0
M  V30 13111 H 1217.03 -0.0270752 2.04582 0
M  V30 13112 H 1217.04 -1.91379 3.6033 0
M  V30 13113 H 1215.71 -0.859798 4.06916 0
M  V30 13114 H 1214.29 -2.29876 2.93618 0
M  V30 13115 N 1216.48 -1.54033 -0.333429 0
M  V30 13116 C 1217.7 -1.76031 -1.09672 0
M  V30 13117 C 1218.13 -0.502844 -1.81254 0
M  V30 13118 O 1217.48 0.54509 -1.72912 0
M  V30 13119 C 1217.53 -2.947 -2.07809 0
M  V30 13120 O 1216.64 -2.65555 -3.15522 0
M  V30 13121 H 1215.98 -0.583611 -0.316692 0
M  V30 13122 H 1218.51 -2.01026 -0.380732 0
M  V30 13123 H 1218.52 -3.21771 -2.50853 0
M  V30 13124 H 1217.19 -3.85895 -1.55106 0
M  V30 13125 H 1215.77 -2.49403 -2.77223 0
M  V30 13126 N 1217.95 0.594978 -1.45938 0
M  V30 13127 C 1219.2 1.35561 -1.50834 0
M  V30 13128 C 1219.53 1.93584 -0.154566 0
M  V30 13129 O 1218.81 1.75781 0.832541 0
M  V30 13130 C 1219.09 2.49414 -2.5974 0
M  V30 13131 C 1218.94 1.96506 -4.04605 0
M  V30 13132 C 1220.26 3.51505 -2.64825 0
M  V30 13133 H 1217.38 0.491549 -0.549134 0
M  V30 13134 H 1220.02 0.669536 -1.77812 0
M  V30 13135 H 1218.17 3.07939 -2.36866 0
M  V30 13136 H 1219.85 1.42533 -4.38728 0
M  V30 13137 H 1218.09 1.27418 -4.14665 0
M  V30 13138 H 1218.76 2.78636 -4.76515 0
M  V30 13139 H 1221.24 3.02841 -2.85353 0
M  V30 13140 H 1220.11 4.28641 -3.42867 0
M  V30 13141 H 1220.37 4.07942 -1.70399 0
M  V30 13142 N 1219.43 1.33438 0.838571 0
M  V30 13143 C 1220.68 1.25097 1.5962 0
M  V30 13144 C 1221.01 -0.182798 1.93338 0
M  V30 13145 O 1220.29 -1.1242 1.5872 0
M  V30 13146 C 1220.57 2.12655 2.90603 0
M  V30 13147 C 1220.42 3.64491 2.63565 0
M  V30 13148 C 1221.74 1.99994 3.92033 0
M  V30 13149 H 1218.86 0.455776 0.579169 0
M  V30 13150 H 1221.5 1.63542 0.967169 0
M  V30 13151 H 1219.65 1.79998 3.44286 0
M  V30 13152 H 1221.32 4.0744 2.16312 0
M  V30 13153 H 1219.57 3.86356 1.9726 0
M  V30 13154 H 1220.24 4.21101 3.569 0
M  V30 13155 H 1222.71 2.28635 3.47657 0
M  V30 13156 H 1221.59 2.63509 4.81512 0
M  V30 13157 H 1221.85 0.972263 4.31277 0
M  V30 13158 N 1220.91 -1.05686 1.16912 0
M  V30 13159 C 1222.32 -1.60059 0.961153 0
M  V30 13160 C 1222.67 -1.89894 -0.493409 0
M  V30 13161 O 1221.8 -1.67692 -1.36778 0
M  V30 13162 C 1222.39 -2.90803 1.73837 0
M  V30 13163 C 1220.95 -3.41854 1.57522 0
M  V30 13164 C 1220.1 -2.15658 1.74319 0
M  V30 13165 H 1223.05 -0.885592 1.31693 0
M  V30 13166 H 1223.07 -3.60485 1.21781 0
M  V30 13167 H 1222.58 -2.69056 2.79697 0
M  V30 13168 H 1220.68 -3.68647 0.541284 0
M  V30 13169 H 1220.8 -4.16771 2.36302 0
M  V30 13170 H 1219.16 -2.26177 1.17115 0
M  V30 13171 H 1219.94 -1.96386 2.8158 0
M  V30 13172 N 1222.39 -0.968567 -1.24324 0
M  V30 13173 C 1223.8 -0.675239 -1.44612 0
M  V30 13174 C 1224 0.762641 -1.8651 0
M  V30 13175 O 1223.06 1.53644 -2.00374 0
M  V30 13176 C 1224.37 -1.66007 -2.50723 0
M  V30 13177 C 1225.92 -1.6728 -2.6455 0
M  V30 13178 C 1226.4 -2.64563 -3.73859 0
M  V30 13179 N 1227.89 -2.6301 -3.81287 0
M  V30 13180 C 1228.62 -3.34957 -4.65394 0
M  V30 13181 N 1228.12 -4.16424 -5.53681 0
M  V30 13182 N 1229.91 -3.23778 -4.59483 0
M  V30 13183 H 1222.06 -1.89757 -0.954257 0
M  V30 13184 H 1224.33 -0.817004 -0.480841 0
M  V30 13185 H 1224.03 -2.68779 -2.26827 0
M  V30 13186 H 1223.91 -1.43353 -3.48898 0
M  V30 13187 H 1226.29 -0.652184 -2.87803 0
M  V30 13188 H 1226.37 -1.93997 -1.6673 0
M  V30 13189 H 1226.02 -3.66759 -3.51355 0
M  V30 13190 H 1225.95 -2.35124 -4.71194 0
M  V30 13191 H 1228.44 -2.03877 -3.18186 0
M  V30 13192 H 1228.75 -4.68207 -6.14818 0
M  V30 13193 H 1227.1 -4.20518 -5.53344 0
M  V30 13194 H 1230.29 -2.59594 -3.89524 0
M  V30 13195 H 1230.46 -3.80112 -5.24804 0
M  V30 13196 N 1223.87 1.39211 -0.738786 0
M  V30 13197 C 1225.11 2.00733 -0.288817 0
M  V30 13198 C 1225.45 1.58494 1.1222 0
M  V30 13199 O 1224.72 0.815579 1.76575 0
M  V30 13200 C 1225 3.57928 -0.394956 0
M  V30 13201 C 1224.86 4.10174 -1.84601 0
M  V30 13202 C 1226.18 4.39548 0.220395 0
M  V30 13203 H 1223.29 0.729276 -0.106418 0
M  V30 13204 H 1225.94 1.65365 -0.935652 0
M  V30 13205 H 1224.09 3.88188 0.155744 0
M  V30 13206 H 1225.76 3.90618 -2.45388 0
M  V30 13207 H 1224 3.63593 -2.36607 0
M  V30 13208 H 1224.67 5.19305 -1.87152 0
M  V30 13209 H 1227.15 4.15354 -0.249098 0
M  V30 13210 H 1226.02 5.48778 0.115806 0
M  V30 13211 H 1226.29 4.22341 1.30691 0
M  V30 13212 N 1225.34 0.486708 1.49896 0
M  V30 13213 C 1226.59 -0.0629451 2.02702 0
M  V30 13214 C 1226.92 -1.37956 1.36681 0
M  V30 13215 O 1226.2 -1.88025 0.497678 0
M  V30 13216 C 1226.48 -0.230461 3.59362 0
M  V30 13217 C 1226.33 1.10828 4.35933 0
M  V30 13218 C 1227.65 -0.977785 4.29101 0
M  V30 13219 H 1224.77 -0.0214017 0.736689 0
M  V30 13220 H 1227.41 0.635339 1.79063 0
M  V30 13221 H 1225.56 -0.825222 3.79634 0
M  V30 13222 H 1227.24 1.74082 4.27192 0
M  V30 13223 H 1225.48 1.7011 3.99055 0
M  V30 13224 H 1226.15 0.944532 5.43859 0
M  V30 13225 H 1228.63 -0.473505 4.13397 0
M  V30 13226 H 1227.5 -1.06382 5.38492 0
M  V30 13227 H 1227.76 -2.01813 3.9335 0
M  V30 13228 N 1226.82 -1.56058 0.219941 0
M  V30 13229 C 1227.73 -2.23844 -0.70222 0
M  V30 13230 C 1228.75 -1.24554 -1.215 0
M  V30 13231 O 1229.93 -1.57362 -1.25695 0
M  V30 13232 C 1226.99 -2.90384 -1.89416 0
M  V30 13233 C 1226.05 -4.05012 -1.42351 0
M  V30 13234 C 1225.28 -4.68369 -2.55863 0
M  V30 13235 O 1225.51 -4.3071 -3.73958 0
M  V30 13236 O 1224.44 -5.5739 -2.27157 0
M  V30 13237 H 1228.27 -3.03305 -0.15478 0
M  V30 13238 H 1225.85 -1.49396 -0.010438 0
M  V30 13239 H 1227.73 -3.32389 -2.59028 0
M  V30 13240 H 1226.41 -2.13883 -2.42973 0
M  V30 13241 H 1225.32 -3.67579 -0.695448 0
M  V30 13242 H 1226.65 -4.83251 -0.934332 0
M  V30 13243 N 1228.3 0.053464 -1.57509 0
M  V30 13244 C 1229.23 1.06151 -2.07977 0
M  V30 13245 C 1230.21 1.3924 -0.977047 0
M  V30 13246 O 1231.4 1.48549 -1.25087 0
M  V30 13247 C 1228.53 2.36969 -2.53895 0
M  V30 13248 C 1227.48 2.18186 -3.6821 0
M  V30 13249 C 1226.81 3.54551 -4.00247 0
M  V30 13250 C 1228.11 1.588 -4.97574 0
M  V30 13251 H 1229.8 0.641483 -2.92447 0
M  V30 13252 H 1227.35 0.307122 -1.40687 0
M  V30 13253 H 1229.3 3.07797 -2.87817 0
M  V30 13254 H 1228.02 2.80986 -1.66476 0
M  V30 13255 H 1226.68 1.49796 -3.34599 0
M  V30 13256 H 1226.33 3.96171 -3.09932 0
M  V30 13257 H 1226.03 3.42816 -4.77232 0
M  V30 13258 H 1227.56 4.2678 -4.36682 0
M  V30 13259 H 1228.97 2.19515 -5.29609 0
M  V30 13260 H 1227.37 1.57711 -5.79006 0
M  V30 13261 H 1228.44 0.551254 -4.81756 0
M  V30 13262 N 1229.78 1.54207 0.325255 0
M  V30 13263 C 1230.73 1.84197 1.42036 0
M  V30 13264 C 1231.72 0.71375 1.53629 0
M  V30 13265 O 1232.93 0.897385 1.56035 0
M  V30 13266 H 1229.3 0.583848 0.473947 0
M  V30 13267 H 1231.27 2.7578 1.13965 0
M  V30 13268 C 1230.02 2.08459 2.78281 0
M  V30 13269 H 1229.35 2.94734 2.70133 0
M  V30 13270 H 1230.79 2.33398 3.5398 0
M  V30 13271 C 1229.24 0.875615 3.25322 0
M  V30 13272 O 1229.77 0.0840387 4.01612 0
M  V30 13273 N 1227.98 0.687721 2.82345 0
M  V30 13274 H 1227.53 1.33307 2.20425 0
M  V30 13275 H 1227.49 -0.119687 3.14172 0
M  V30 13276 N 1231.26 -0.58723 1.46251 0
M  V30 13277 C 1232.2 -1.69662 1.56472 0
M  V30 13278 C 1233.17 -1.60978 0.409294 0
M  V30 13279 O 1234.36 -1.80257 0.625451 0
M  V30 13280 C 1231.5 -3.07996 1.55669 0
M  V30 13281 C 1230.61 -3.27337 2.81913 0
M  V30 13282 C 1229.75 -4.55894 2.72644 0
M  V30 13283 C 1228.79 -4.68562 3.93847 0
M  V30 13284 N 1227.92 -5.8844 3.82991 0
M  V30 13285 H 1232.76 -1.60262 2.51237 0
M  V30 13286 H 1230.3 -0.781148 1.24645 0
M  V30 13287 H 1232.26 -3.88058 1.53189 0
M  V30 13288 H 1230.89 -3.16303 0.6444 0
M  V30 13289 H 1229.94 -2.4091 2.94392 0
M  V30 13290 H 1231.25 -3.32567 3.71754 0
M  V30 13291 H 1230.41 -5.44178 2.68244 0
M  V30 13292 H 1229.15 -4.53094 1.80435 0
M  V30 13293 H 1228.15 -3.78696 3.98584 0
M  V30 13294 H 1229.38 -4.73144 4.87146 0
M  V30 13295 H 1227.32 -5.86647 2.93566 0
M  V30 13296 H 1227.24 -5.94919 4.66484 0
M  V30 13297 H 1228.51 -6.79168 3.82559 0
M  V30 13298 N 1232.74 -1.33881 -0.831482 0
M  V30 13299 C 1233.68 -1.24741 -1.96322 0
M  V30 13300 C 1234.68 -0.147251 -1.68759 0
M  V30 13301 O 1235.88 -0.311684 -1.77281 0
M  V30 13302 H 1232.26 -0.387298 -0.644596 0
M  V30 13303 H 1234.23 -2.20407 -2.01155 0
M  V30 13304 C 1232.98 -1.01102 -3.32677 0
M  V30 13305 H 1232.3 -1.84986 -3.54429 0
M  V30 13306 H 1233.74 -0.987398 -4.12343 0
M  V30 13307 C 1232.2 0.285903 -3.35685 0
M  V30 13308 O 1232.73 1.29014 -3.80419 0
M  V30 13309 N 1230.94 0.316026 -2.88877 0
M  V30 13310 H 1230.48 -0.501758 -2.52666 0
M  V30 13311 H 1230.44 1.18357 -2.91271 0
M  V30 13312 N 1234.21 1.05064 -1.1747 0
M  V30 13313 C 1235.44 1.82299 -0.98903 0
M  V30 13314 C 1235.86 1.82441 0.457907 0
M  V30 13315 O 1235.22 1.23433 1.32793 0
M  V30 13316 C 1235.27 3.26239 -1.53624 0
M  V30 13317 O 1234.37 4.05507 -0.750857 0
M  V30 13318 H 1233.71 0.563601 -0.35107 0
M  V30 13319 H 1236.24 1.32386 -1.55997 0
M  V30 13320 H 1236.25 3.77038 -1.55906 0
M  V30 13321 H 1234.93 3.25451 -2.58949 0
M  V30 13322 H 1233.51 3.64227 -0.799548 0
M  V30 13323 N 1235.69 0.975146 1.23809 0
M  V30 13324 C 1236.64 0.503396 2.27087 0
M  V30 13325 C 1237.63 -0.43689 1.63669 0
M  V30 13326 O 1238.84 -0.31136 1.77287 0
M  V30 13327 H 1235.21 0.144346 0.738017 0
M  V30 13328 H 1237.19 1.38627 2.64244 0
M  V30 13329 C 1235.93 -0.183682 3.47214 0
M  V30 13330 H 1235.26 0.530753 3.96261 0
M  V30 13331 H 1236.7 -0.477479 4.21303 0
M  V30 13332 C 1235.16 -1.41317 3.05829 0
M  V30 13333 O 1235.69 -2.50975 3.13647 0
M  V30 13334 N 1233.89 -1.28191 2.60798 0
M  V30 13335 H 1233.44 -0.38967 2.54636 0
M  V30 13336 H 1233.4 -2.10565 2.33473 0
M  V30 13337 N 1237.17 -1.38817 0.746158 0
M  V30 13338 C 1238.58 -1.83045 0.367629 0
M  V30 13339 C 1238.93 -1.62285 -1.10263 0
M  V30 13340 O 1238.06 -1.12001 -1.85162 0
M  V30 13341 C 1238.65 -3.323 0.660482 0
M  V30 13342 C 1237.21 -3.74903 0.335318 0
M  V30 13343 C 1236.36 -2.61683 0.917446 0
M  V30 13344 H 1239.31 -1.27651 0.94291 0
M  V30 13345 H 1239.33 -3.80446 -0.0639061 0
M  V30 13346 H 1238.84 -3.47377 1.73062 0
M  V30 13347 H 1236.94 -3.65408 -0.728538 0
M  V30 13348 H 1237.06 -4.71932 0.825677 0
M  V30 13349 H 1235.42 -2.52376 0.343316 0
M  V30 13350 H 1236.2 -2.79563 1.99247 0
M  V30 13351 N 1238.65 -0.49465 -1.49636 0
M  V30 13352 C 1239.92 0.114829 -1.95263 0
M  V30 13353 C 1240.3 1.54739 -1.43593 0
M  V30 13354 O 1239.65 2.1915 -0.646953 0
M  V30 13355 C 1239.86 0.0339912 -3.48983 0
M  V30 13356 C 1241.21 0.211108 -4.24075 0
M  V30 13357 O 1242.23 0.109478 -3.56032 0
M  V30 13358 O 1241.09 0.418971 -5.44892 0
M  V30 13359 H 1238.19 0.0987883 -0.821078 0
M  V30 13360 H 1240.73 -0.556736 -1.60308 0
M  V30 13361 H 1239.51 -0.965287 -3.79207 0
M  V30 13362 H 1239.13 0.745982 -3.90539 0
M  V30 13363 N 1240.13 1.55939 -0.228214 0
M  V30 13364 C 1241.04 2.24213 0.690339 0
M  V30 13365 C 1242.05 1.25197 1.20838 0
M  V30 13366 O 1243.23 1.58026 1.24859 0
M  V30 13367 C 1240.29 2.91384 1.87873 0
M  V30 13368 C 1239.35 4.05761 1.40201 0
M  V30 13369 C 1238.59 4.6972 2.53376 0
M  V30 13370 O 1238.81 4.32687 3.71669 0
M  V30 13371 O 1237.74 5.58587 2.24198 0
M  V30 13372 H 1241.57 3.03383 0.138692 0
M  V30 13373 H 1239.15 1.494 0.00251504 0
M  V30 13374 H 1241.04 3.33758 2.57262 0
M  V30 13375 H 1239.71 2.15168 2.41835 0
M  V30 13376 H 1238.62 3.67943 0.675945 0
M  V30 13377 H 1239.95 4.83739 0.908691 0
M  V30 13378 N 1241.6 -0.0451101 1.57535 0
M  V30 13379 C 1242.85 -0.740209 1.88809 0
M  V30 13380 C 1243.18 -1.75854 0.823956 0
M  V30 13381 O 1242.46 -1.93817 -0.16286 0
M  V30 13382 C 1242.74 -1.42424 3.30737 0
M  V30 13383 C 1242.59 -0.42052 4.4783 0
M  V30 13384 C 1243.91 -2.36241 3.7132 0
M  V30 13385 H 1241.03 -0.267628 0.686691 0
M  V30 13386 H 1243.67 -0.00309149 1.9 0
M  V30 13387 H 1241.82 -2.05254 3.29853 0
M  V30 13388 H 1243.5 0.204625 4.60846 0
M  V30 13389 H 1241.74 0.261739 4.3301 0
M  V30 13390 H 1242.41 -0.937298 5.43984 0
M  V30 13391 H 1244.89 -1.83468 3.73468 0
M  V30 13392 H 1243.76 -2.81091 4.71465 0
M  V30 13393 H 1244.02 -3.2222 3.02699 0
M  V30 13394 N 1243.08 -1.54377 -0.317073 0
M  V30 13395 C 1244.33 -1.73149 -1.05581 0
M  V30 13396 C 1244.66 -0.507176 -1.8746 0
M  V30 13397 O 1243.94 0.495837 -1.88074 0
M  V30 13398 C 1244.22 -3.01098 -1.97515 0
M  V30 13399 C 1244.07 -4.33794 -1.18922 0
M  V30 13400 C 1245.39 -3.24831 -2.9694 0
M  V30 13401 H 1242.51 -0.630011 -0.382434 0
M  V30 13402 H 1245.15 -1.87079 -0.331873 0
M  V30 13403 H 1243.3 -2.89352 -2.59244 0
M  V30 13404 H 1244.97 -4.57433 -0.596039 0
M  V30 13405 H 1243.22 -4.31005 -0.491612 0
M  V30 13406 H 1243.89 -5.19554 -1.86462 0
M  V30 13407 H 1246.36 -3.3608 -2.45335 0
M  V30 13408 H 1245.24 -4.15702 -3.58445 0
M  V30 13409 H 1245.5 -2.42365 -3.69745 0
M  V30 13410 N 1244.56 0.579466 -1.4656 0
M  V30 13411 C 1245.81 1.33954 -1.52264 0
M  V30 13412 C 1246.14 1.93409 -0.175089 0
M  V30 13413 O 1245.41 1.76654 0.81385 0
M  V30 13414 C 1245.7 2.46645 -2.6237 0
M  V30 13415 C 1245.55 1.92204 -4.06667 0
M  V30 13416 C 1246.87 3.48676 -2.68538 0
M  V30 13417 H 1243.99 0.485697 -0.554317 0
M  V30 13418 H 1246.63 0.650639 -1.78512 0
M  V30 13419 H 1244.78 3.0541 -2.40119 0
M  V30 13420 H 1246.45 1.37871 -4.40215 0
M  V30 13421 H 1244.7 1.23012 -4.15993 0
M  V30 13422 H 1245.37 2.73566 -4.79443 0
M  V30 13423 H 1247.84 2.99798 -2.88549 0
M  V30 13424 H 1246.72 4.24981 -3.47394 0
M  V30 13425 H 1246.98 4.06112 -1.74716 0
M  V30 13426 N 1246.04 1.3432 0.824371 0
M  V30 13427 C 1247.45 1.23855 1.39703 0
M  V30 13428 C 1247.8 -0.136566 1.95724 0
M  V30 13429 O 1246.93 -1.03683 1.89944 0
M  V30 13430 C 1247.52 2.24249 2.53965 0
M  V30 13431 C 1246.08 2.17578 3.07143 0
M  V30 13432 C 1245.23 2.10933 1.80008 0
M  V30 13433 H 1248.18 1.45707 0.628891 0
M  V30 13434 H 1248.2 1.85864 3.32016 0
M  V30 13435 H 1247.71 3.24321 2.13161 0
M  V30 13436 H 1245.81 1.20858 3.52455 0
M  V30 13437 H 1245.92 3.08769 3.66331 0
M  V30 13438 H 1244.29 1.56631 2.00845 0
M  V30 13439 H 1245.07 3.12836 1.4138 0
M  V30 13440 N 1247.52 -1.0444 1.18026 0
M  V30 13441 C 1248.45 -2.14297 0.927314 0
M  V30 13442 C 1249.43 -1.69575 -0.13357 0
M  V30 13443 O 1250.61 -1.94191 0.0182439 0
M  V30 13444 C 1247.74 -3.44397 0.448134 0
M  V30 13445 C 1246.7 -4.02723 1.44907 0
M  V30 13446 C 1246.02 -5.28257 0.827555 0
M  V30 13447 C 1247.32 -4.39331 2.82463 0
M  V30 13448 H 1249.02 -2.35715 1.84605 0
M  V30 13449 H 1246.56 -1.13281 0.889012 0
M  V30 13450 H 1248.52 -4.20606 0.258554 0
M  V30 13451 H 1247.24 -3.22654 -0.506159 0
M  V30 13452 H 1245.9 -3.28591 1.62552 0
M  V30 13453 H 1245.55 -5.02822 -0.13381 0
M  V30 13454 H 1245.25 -5.68242 1.49581 0
M  V30 13455 H 1246.77 -6.07147 0.64842 0
M  V30 13456 H 1248.18 -5.06543 2.68491 0
M  V30 13457 H 1246.58 -4.90355 3.45936 0
M  V30 13458 H 1247.65 -3.4933 3.36299 0
M  V30 13459 N 1248.99 -0.981699 -1.2329 0
M  V30 13460 C 1250.27 -0.567659 -1.87182 0
M  V30 13461 C 1250.65 0.955194 -1.88253 0
M  V30 13462 O 1250 1.83245 -1.36504 0
M  V30 13463 C 1250.21 -1.17522 -3.28618 0
M  V30 13464 C 1251.56 -1.26877 -4.052 0
M  V30 13465 O 1252.58 -1.12877 -3.37842 0
M  V30 13466 O 1251.44 -1.49163 -5.2575 0
M  V30 13467 H 1248.53 -0.191315 -0.804567 0
M  V30 13468 H 1251.08 -1.07686 -1.31155 0
M  V30 13469 H 1249.85 -2.21735 -3.22411 0
M  V30 13470 H 1249.48 -0.650913 -3.92236 0
M  V30 13471 N 1250.47 1.3842 -0.753509 0
M  V30 13472 C 1251.7 2.04929 -0.319174 0
M  V30 13473 C 1252.12 1.56457 1.04416 0
M  V30 13474 O 1251.48 0.716527 1.6654 0
M  V30 13475 C 1251.53 3.58887 -0.351054 0
M  V30 13476 O 1250.63 4.07166 0.654963 0
M  V30 13477 H 1249.97 0.648782 -0.141343 0
M  V30 13478 H 1252.5 1.77096 -1.02461 0
M  V30 13479 H 1252.51 4.075 -0.201907 0
M  V30 13480 H 1251.19 3.93525 -1.34576 0
M  V30 13481 H 1249.77 3.69921 0.470435 0
M  V30 13482 N 1251.95 0.502579 1.49372 0
M  V30 13483 C 1252.88 -0.321683 2.25921 0
M  V30 13484 C 1253.86 -0.968999 1.30572 0
M  V30 13485 O 1255.05 -0.998788 1.59864 0
M  V30 13486 C 1252.17 -1.45318 3.05942 0
M  V30 13487 C 1251.22 -0.920076 4.16457 0
M  V30 13488 S 1252.05 0.190402 5.35161 0
M  V30 13489 C 1253.21 -0.944222 6.18737 0
M  V30 13490 H 1253.44 0.328036 2.95485 0
M  V30 13491 H 1250.97 0.287903 1.51692 0
M  V30 13492 H 1252.93 -2.1015 3.52629 0
M  V30 13493 H 1251.59 -2.07452 2.35844 0
M  V30 13494 H 1250.79 -1.76808 4.71969 0
M  V30 13495 H 1250.39 -0.348944 3.72369 0
M  V30 13496 H 1252.68 -1.8491 6.51778 0
M  V30 13497 H 1253.62 -0.42769 7.06807 0
M  V30 13498 H 1254.03 -1.21227 5.5133 0
M  V30 13499 N 1253.43 -1.55816 0.23648 0
M  V30 13500 C 1254.68 -1.98294 -0.390373 0
M  V30 13501 C 1255 -1.12573 -1.59224 0
M  V30 13502 O 1254.27 -0.206128 -1.94813 0
M  V30 13503 H 1252.85 -0.732349 -0.14722 0
M  V30 13504 H 1255.51 -1.92037 0.332848 0
M  V30 13505 H 1254.61 -3.03996 -0.706595 0
M  V30 13506 N 1254.91 0.036755 -1.57557 0
M  V30 13507 C 1255.85 1.05823 -2.07133 0
M  V30 13508 C 1256.85 1.37923 -0.983546 0
M  V30 13509 O 1258.05 1.36918 -1.16848 0
M  V30 13510 H 1254.43 0.358761 -0.660905 0
M  V30 13511 H 1256.4 0.614232 -2.9201 0
M  V30 13512 C 1255.15 2.35302 -2.55985 0
M  V30 13513 H 1254.47 2.11461 -3.393 0
M  V30 13514 H 1255.91 3.05139 -2.94391 0
M  V30 13515 C 1254.37 3.0373 -1.45773 0
M  V30 13516 O 1254.9 3.9325 -0.819587 0
M  V30 13517 N 1253.11 2.64931 -1.19416 0
M  V30 13518 H 1252.65 1.92219 -1.71492 0
M  V30 13519 H 1252.61 3.11033 -0.458865 0
M  V30 13520 N 1256.39 1.54543 0.308881 0
M  V30 13521 C 1257.8 1.64532 0.882392 0
M  V30 13522 C 1258.15 0.54886 1.88367 0
M  V30 13523 O 1257.27 -0.315832 2.14083 0
M  V30 13524 C 1257.87 2.98251 1.60722 0
M  V30 13525 C 1256.43 3.10387 2.12925 0
M  V30 13526 C 1255.57 2.60176 0.959362 0
M  V30 13527 H 1258.52 1.58466 0.0860803 0
M  V30 13528 H 1258.55 2.89233 2.47233 0
M  V30 13529 H 1258.06 3.78033 0.878233 0
M  V30 13530 H 1256.16 2.35309 2.88895 0
M  V30 13531 H 1256.27 4.16421 2.36918 0
M  V30 13532 H 1254.64 2.16434 1.3427 0
M  V30 13533 H 1255.42 3.42429 0.244454 0
M  V30 13534 N 1257.86 -0.571685 1.46866 0
M  V30 13535 C 1259.28 -0.896172 1.32064 0
M  V30 13536 C 1259.48 -1.9925 0.300291 0
M  V30 13537 O 1258.54 -2.50791 -0.293284 0
M  V30 13538 C 1259.85 -1.3031 2.70998 0
M  V30 13539 C 1261.4 -1.41533 2.79173 0
M  V30 13540 C 1261.87 -1.85587 4.18714 0
M  V30 13541 N 1263.36 -1.92762 4.21185 0
M  V30 13542 C 1264.1 -2.28148 5.26057 0
M  V30 13543 N 1263.59 -2.62248 6.41247 0
M  V30 13544 N 1265.39 -2.28797 5.13428 0
M  V30 13545 H 1257.54 0.152349 2.11853 0
M  V30 13546 H 1259.8 0.00548777 0.947984 0
M  V30 13547 H 1259.51 -0.571469 3.47026 0
M  V30 13548 H 1259.38 -2.26233 3.01826 0
M  V30 13549 H 1261.77 -2.1378 2.03426 0
M  V30 13550 H 1261.85 -0.438342 2.52016 0
M  V30 13551 H 1261.49 -1.13915 4.9496 0
M  V30 13552 H 1261.42 -2.84264 4.43285 0
M  V30 13553 H 1263.91 -1.68854 3.38078 0
M  V30 13554 H 1264.23 -2.88234 7.17036 0
M  V30 13555 H 1262.57 -2.59861 6.44591 0
M  V30 13556 H 1265.76 -2.01587 4.22469 0
M  V30 13557 H 1265.94 -2.56045 5.95269 0
M  V30 13558 N 1259.34 -1.34755 -0.817236 0
M  V30 13559 C 1260.58 -1.28786 -1.58725 0
M  V30 13560 C 1260.95 0.138807 -1.91498 0
M  V30 13561 O 1262.15 0.322743 -2.66855 0
M  V30 13562 C 1260.42 -2.15907 -2.84814 0
M  V30 13563 S 1261.98 -2.27347 -3.75311 0
M  V30 13564 H 1258.79 -0.457844 -0.543967 0
M  V30 13565 H 1261.4 -1.70031 -0.96487 0
M  V30 13566 H 1260.1 -3.18559 -2.58744 0
M  V30 13567 H 1259.63 -1.7558 -3.52044 0
M  V30 13568 H 1261.65 -1.45044 -4.74528 0
M  V30 13569 N 1260.82 1.03812 -1.18578 0
M  V30 13570 C 1262.1 1.74062 -0.892288 0
M  V30 13571 C 1262.48 2.02267 0.604256 0
M  V30 13572 O 1261.82 1.66988 1.55972 0
M  V30 13573 C 1262.03 3.024 -1.74228 0
M  V30 13574 C 1263.38 3.76088 -1.97087 0
M  V30 13575 O 1264.41 3.12305 -1.71302 0
M  V30 13576 O 1263.27 4.90732 -2.40509 0
M  V30 13577 H 1260.36 0.757567 -0.331695 0
M  V30 13578 H 1262.91 1.09855 -1.29345 0
M  V30 13579 H 1261.68 2.77713 -2.75665 0
M  V30 13580 H 1261.3 3.74346 -1.3398 0
M  V30 13581 N 1262.3 0.988223 1.22768 0
M  V30 13582 C 1263.55 0.660154 1.91014 0
M  V30 13583 C 1263.87 -0.809788 1.77391 0
M  V30 13584 O 1263.14 -1.57998 1.15817 0
M  V30 13585 H 1261.72 0.24118 0.706995 0
M  V30 13586 H 1264.38 1.25372 1.49224 0
M  V30 13587 H 1263.47 0.918603 2.98275 0
M  V30 13588 N 1263.78 -1.38018 0.760839 0
M  V30 13589 C 1264.73 -2.27717 0.113521 0
M  V30 13590 C 1265.71 -1.45562 -0.685613 0
M  V30 13591 O 1266.9 -1.68226 -0.550377 0
M  V30 13592 C 1264.03 -3.34478 -0.77325 0
M  V30 13593 C 1263.12 -4.24087 0.0331238 0
M  V30 13594 N 1263.51 -4.94283 1.07323 0
M  V30 13595 C 1261.81 -4.45584 -0.192565 0
M  V30 13596 C 1262.51 -5.60344 1.56172 0
M  V30 13597 N 1261.48 -5.36499 0.875768 0
M  V30 13598 H 1265.28 -2.79456 0.910021 0
M  V30 13599 H 1262.8 -1.51006 0.597561 0
M  V30 13600 H 1264.8 -3.97635 -1.25268 0
M  V30 13601 H 1263.46 -2.84296 -1.56862 0
M  V30 13602 H 1264.47 -4.97036 1.45517 0
M  V30 13603 H 1261.14 -4.06296 -0.960704 0
M  V30 13604 H 1262.53 -6.26477 2.42851 0
M  V30 13605 N 1265.25 -0.510493 -1.49103 0
M  V30 13606 C 1266.19 0.299697 -2.27232 0
M  V30 13607 C 1267.2 0.922102 -1.34168 0
M  V30 13608 O 1268.39 0.803836 -1.59376 0
M  V30 13609 C 1265.49 1.43778 -3.06889 0
M  V30 13610 C 1264.66 0.920927 -4.27595 0
M  V30 13611 C 1263.72 1.93777 -4.89221 0
M  V30 13612 O 1262.75 1.5025 -5.49011 0
M  V30 13613 N 1263.95 3.2688 -4.79718 0
M  V30 13614 H 1266.71 -0.37028 -2.97404 0
M  V30 13615 H 1264.27 -0.343617 -1.58212 0
M  V30 13616 H 1266.27 2.11577 -3.44988 0
M  V30 13617 H 1264.84 2.01175 -2.39264 0
M  V30 13618 H 1264.06 0.0675358 -3.94142 0
M  V30 13619 H 1265.34 0.554168 -5.05773 0
M  V30 13620 H 1264.74 3.64924 -4.32258 0
M  V30 13621 H 1263.3 3.90366 -5.21974 0
M  V30 13622 N 1266.73 1.55688 -0.24474 0
M  V30 13623 C 1267.66 2.18616 0.68844 0
M  V30 13624 C 1268.68 1.16185 1.14039 0
M  V30 13625 O 1269.87 1.43059 1.06754 0
M  V30 13626 C 1266.97 2.77375 1.94721 0
M  V30 13627 C 1266.14 4.05204 1.64706 0
M  V30 13628 C 1265.2 4.48302 2.75521 0
M  V30 13629 O 1264.22 5.14723 2.42999 0
M  V30 13630 N 1265.43 4.15907 4.04971 0
M  V30 13631 H 1268.19 2.99324 0.150018 0
M  V30 13632 H 1265.75 1.61771 -0.0646183 0
M  V30 13633 H 1267.74 3.03165 2.68091 0
M  V30 13634 H 1266.31 2.00837 2.39548 0
M  V30 13635 H 1265.53 3.87026 0.74865 0
M  V30 13636 H 1266.82 4.8855 1.42114 0
M  V30 13637 H 1266.22 3.62579 4.34227 0
M  V30 13638 H 1264.78 4.46538 4.74813 0
M  V30 13639 N 1268.21 -0.0283989 1.57574 0
M  V30 13640 C 1269.46 -0.717656 1.88929 0
M  V30 13641 C 1269.78 -1.7586 0.842517 0
M  V30 13642 O 1269.05 -1.95509 -0.123774 0
M  V30 13643 H 1267.63 -0.268051 0.69725 0
M  V30 13644 H 1270.29 0.00580691 1.94899 0
M  V30 13645 H 1269.39 -1.2068 2.87824 0
M  V30 13646 N 1269.69 -1.54705 -0.300681 0
M  V30 13647 C 1270.92 -1.77735 -1.05327 0
M  V30 13648 C 1271.33 -0.53709 -1.81417 0
M  V30 13649 O 1270.67 0.502663 -1.76689 0
M  V30 13650 C 1270.73 -2.93222 -2.07993 0
M  V30 13651 C 1270.39 -4.313 -1.51095 0
M  V30 13652 C 1271.39 -5.11317 -0.94082 0
M  V30 13653 C 1269.08 -4.77901 -1.54648 0
M  V30 13654 C 1271.07 -6.36055 -0.413791 0
M  V30 13655 C 1268.76 -6.02602 -1.01558 0
M  V30 13656 C 1269.76 -6.81515 -0.450209 0
M  V30 13657 O 1269.44 -8.03867 0.0726375 0
M  V30 13658 H 1269.18 -0.596468 -0.318122 0
M  V30 13659 H 1271.73 -2.02475 -0.345404 0
M  V30 13660 H 1269.96 -2.64108 -2.82461 0
M  V30 13661 H 1271.65 -3.03826 -2.69156 0
M  V30 13662 H 1272.41 -4.76458 -0.906268 0
M  V30 13663 H 1268.29 -4.16507 -1.97594 0
M  V30 13664 H 1271.84 -6.97594 0.0281534 0
M  V30 13665 H 1267.73 -6.36948 -1.04728 0
M  V30 13666 H 1268.5 -8.1849 -0.0406321 0
M  V30 13667 N 1271.17 0.563888 -1.47167 0
M  V30 13668 C 1272.58 1.14603 -1.47388 0
M  V30 13669 C 1272.93 1.94907 -0.224916 0
M  V30 13670 O 1272.05 2.05745 0.670672 0
M  V30 13671 C 1272.65 2.08501 -2.67044 0
M  V30 13672 C 1271.21 2.62 -2.70246 0
M  V30 13673 C 1270.35 1.38244 -2.40383 0
M  V30 13674 H 1273.31 0.350833 -1.54774 0
M  V30 13675 H 1273.33 2.92272 -2.43634 0
M  V30 13676 H 1272.84 1.50027 -3.57929 0
M  V30 13677 H 1270.94 3.24292 -1.83482 0
M  V30 13678 H 1271.05 3.0345 -3.70749 0
M  V30 13679 H 1269.42 1.68692 -1.90827 0
M  V30 13680 H 1270.2 0.815726 -3.33468 0
M  V30 13681 N 1272.64 1.35187 0.810078 0
M  V30 13682 C 1274.06 1.15149 1.10512 0
M  V30 13683 C 1274.26 -0.038394 2.01463 0
M  V30 13684 O 1273.32 -0.710056 2.42311 0
M  V30 13685 C 1274.63 2.45282 1.73946 0
M  V30 13686 C 1276.18 2.51457 1.86382 0
M  V30 13687 C 1276.65 3.81625 2.53232 0
M  V30 13688 N 1278.14 3.82856 2.6072 0
M  V30 13689 C 1278.88 4.80302 3.13206 0
M  V30 13690 N 1278.37 5.88134 3.66156 0
M  V30 13691 N 1280.17 4.67743 3.11726 0
M  V30 13692 H 1272.32 2.11405 0.205391 0
M  V30 13693 H 1274.58 0.935457 0.153702 0
M  V30 13694 H 1274.29 3.32512 1.14582 0
M  V30 13695 H 1274.16 2.59573 2.73682 0
M  V30 13696 H 1276.55 1.64659 2.44891 0
M  V30 13697 H 1276.63 2.41084 0.855113 0
M  V30 13698 H 1276.27 4.68819 1.95375 0
M  V30 13699 H 1276.2 3.89285 3.54633 0
M  V30 13700 H 1278.69 3.04941 2.23203 0
M  V30 13701 H 1279.01 6.58487 4.04494 0
M  V30 13702 H 1277.35 5.91831 3.64364 0
M  V30 13703 H 1280.54 3.82642 2.69635 0
M  V30 13704 H 1280.72 5.43849 3.52324 0
M  V30 13705 N 1274.12 -1.03182 1.19127 0
M  V30 13706 C 1275.07 -2.11394 0.926339 0
M  V30 13707 C 1276.04 -1.65528 -0.137703 0
M  V30 13708 O 1277.22 -1.908 0.00381804 0
M  V30 13709 C 1274.36 -3.41913 0.467894 0
M  V30 13710 C 1273.48 -4.01343 1.59837 0
M  V30 13711 C 1272.61 -5.1986 1.09175 0
M  V30 13712 C 1271.65 -5.71339 2.19632 0
M  V30 13713 N 1270.79 -6.81133 1.703 0
M  V30 13714 H 1275.63 -2.33393 1.85288 0
M  V30 13715 H 1273.17 -1.14473 0.923811 0
M  V30 13716 H 1275.12 -4.16796 0.183513 0
M  V30 13717 H 1273.75 -3.20034 -0.421656 0
M  V30 13718 H 1272.81 -3.23702 1.99803 0
M  V30 13719 H 1274.12 -4.35568 2.43068 0
M  V30 13720 H 1273.27 -6.0189 0.762427 0
M  V30 13721 H 1272.01 -4.87161 0.22914 0
M  V30 13722 H 1271.02 -4.87923 2.53399 0
M  V30 13723 H 1272.24 -6.06078 3.06344 0
M  V30 13724 H 1270.19 -6.50293 0.863415 0
M  V30 13725 H 1270.1 -7.1447 2.47122 0
M  V30 13726 H 1271.37 -7.66766 1.40321 0
M  V30 13727 N 1275.6 -0.99472 -1.22242 0
M  V30 13728 C 1276.85 -0.682256 -1.91616 0
M  V30 13729 C 1277.2 0.777397 -1.75995 0
M  V30 13730 O 1276.49 1.55509 -1.11926 0
M  V30 13731 C 1276.69 -1.02561 -3.42368 0
M  V30 13732 C 1276.52 -2.5171 -3.72656 0
M  V30 13733 C 1275.29 -3.18144 -3.92571 0
M  V30 13734 C 1277.49 -3.49835 -3.76988 0
M  V30 13735 N 1275.47 -4.5675 -4.10186 0
M  V30 13736 C 1276.84 -4.73907 -3.99765 0
M  V30 13737 C 1278.89 -3.44116 -3.59845 0
M  V30 13738 C 1277.6 -5.92957 -4.07179 0
M  V30 13739 C 1279.62 -4.62545 -3.68519 0
M  V30 13740 C 1278.98 -5.85417 -3.91748 0
M  V30 13741 H 1275.08 -0.300961 -0.721766 0
M  V30 13742 H 1277.67 -1.2751 -1.47137 0
M  V30 13743 H 1275.84 -0.461327 -3.85651 0
M  V30 13744 H 1277.57 -0.66895 -3.99133 0
M  V30 13745 H 1274.33 -2.68608 -3.9006 0
M  V30 13746 H 1274.75 -5.28649 -4.22917 0
M  V30 13747 H 1279.39 -2.50134 -3.40871 0
M  V30 13748 H 1277.11 -6.87341 -4.24956 0
M  V30 13749 H 1280.7 -4.59711 -3.56591 0
M  V30 13750 H 1279.58 -6.75525 -3.98291 0
M  V30 13751 N 1277.08 1.37613 -0.768148 0
M  V30 13752 C 1278.49 1.53202 -0.44737 0
M  V30 13753 C 1278.69 1.72736 1.03752 0
M  V30 13754 O 1277.75 1.74667 1.8234 0
M  V30 13755 C 1279.06 2.7306 -1.25931 0
M  V30 13756 C 1280.61 2.8692 -1.25084 0
M  V30 13757 C 1281.09 4.09757 -2.04605 0
M  V30 13758 N 1282.58 4.16862 -2.0194 0
M  V30 13759 C 1283.31 5.10936 -2.60254 0
M  V30 13760 N 1282.81 6.1059 -3.27341 0
M  V30 13761 N 1284.6 5.03393 -2.50104 0
M  V30 13762 H 1276.75 1.23184 -1.7303 0
M  V30 13763 H 1279.02 0.599541 -0.73434 0
M  V30 13764 H 1278.72 2.65078 -2.31141 0
M  V30 13765 H 1278.6 3.66646 -0.886036 0
M  V30 13766 H 1280.98 2.94375 -0.206736 0
M  V30 13767 H 1281.06 1.94303 -1.66373 0
M  V30 13768 H 1280.71 4.03063 -3.09035 0
M  V30 13769 H 1280.64 5.01481 -1.60701 0
M  V30 13770 H 1283.13 3.455 -1.53096 0
M  V30 13771 H 1283.44 6.78893 -3.6922 0
M  V30 13772 H 1281.79 6.10879 -3.31439 0
M  V30 13773 H 1284.98 4.24483 -1.9731 0
M  V30 13774 H 1285.15 5.76524 -2.95844 0
M  V30 13775 N 1278.56 0.518393 1.4883 0
M  V30 13776 C 1279.78 -0.0162 2.06894 0
M  V30 13777 C 1280.2 -1.29222 1.37649 0
M  V30 13778 O 1279.56 -1.766 0.460288 0
M  V30 13779 C 1279.61 -0.255836 3.60594 0
M  V30 13780 O 1279.33 0.969612 4.27235 0
M  V30 13781 C 1280.83 -0.832117 4.3542 0
M  V30 13782 H 1278.05 0.0282877 0.670403 0
M  V30 13783 H 1280.59 0.720726 1.91379 0
M  V30 13784 H 1278.75 -0.942782 3.75753 0
M  V30 13785 H 1279.16 0.743172 5.19208 0
M  V30 13786 H 1280.64 -0.949279 5.43776 0
M  V30 13787 H 1281.11 -1.83421 3.99066 0
M  V30 13788 H 1281.72 -0.1821 4.2491 0
M  V30 13789 N 1280.03 -1.55556 0.252993 0
M  V30 13790 C 1281.31 -1.91022 -0.420696 0
M  V30 13791 C 1281.69 -1.17452 -1.75409 0
M  V30 13792 O 1281.04 -0.294 -2.26601 0
M  V30 13793 C 1281.25 -3.441 -0.582787 0
M  V30 13794 C 1282.6 -4.15468 -0.875873 0
M  V30 13795 O 1283.62 -3.49872 -0.668425 0
M  V30 13796 O 1282.48 -5.31508 -1.27128 0
M  V30 13797 H 1279.57 -0.7953 -0.226776 0
M  V30 13798 H 1282.12 -1.67072 0.297511 0
M  V30 13799 H 1280.89 -3.89673 0.356474 0
M  V30 13800 H 1280.52 -3.73933 -1.3513 0
M  V30 13801 N 1281.51 0.0200419 -1.57587 0
M  V30 13802 C 1282.79 0.744946 -1.80859 0
M  V30 13803 C 1283.17 1.93089 -0.853218 0
M  V30 13804 O 1282.52 2.28269 0.10261 0
M  V30 13805 C 1282.73 1.16952 -3.28821 0
M  V30 13806 C 1284.08 1.5817 -3.9404 0
M  V30 13807 O 1285.1 1.26385 -3.33024 0
M  V30 13808 O 1283.96 2.17197 -5.01486 0
M  V30 13809 H 1281.05 0.360995 -0.744051 0
M  V30 13810 H 1283.6 -0.00387374 -1.697 0
M  V30 13811 H 1282.37 0.323304 -3.89962 0
M  V30 13812 H 1281.99 1.97807 -3.44903 0
M  V30 13813 N 1282.99 1.54862 0.292472 0
M  V30 13814 C 1283.95 1.8565 1.34413 0
M  V30 13815 C 1284.95 0.729868 1.43281 0
M  V30 13816 O 1286.14 0.998128 1.42769 0
M  V30 13817 C 1283.28 2.0444 2.72795 0
M  V30 13818 H 1284.47 2.79642 1.08354 0
M  V30 13819 H 1282.02 1.47055 0.529574 0
M  V30 13820 H 1282.76 1.12765 3.04063 0
M  V30 13821 H 1282.54 2.86451 2.67747 0
M  V30 13822 H 1284.03 2.296 3.48817 0
M  V30 13823 N 1284.47 -0.556076 1.47464 0
M  V30 13824 C 1285.88 -1.1382 1.47993 0
M  V30 13825 C 1286.23 -1.94785 0.235249 0
M  V30 13826 O 1285.36 -2.06098 -0.659752 0
M  V30 13827 C 1285.95 -2.07082 2.68146 0
M  V30 13828 C 1284.51 -2.60564 2.71631 0
M  V30 13829 C 1283.66 -1.36967 2.41113 0
M  V30 13830 H 1286.61 -0.34262 1.54957 0
M  V30 13831 H 1286.63 -2.90975 2.45181 0
M  V30 13832 H 1286.14 -1.48127 3.5872 0
M  V30 13833 H 1284.24 -3.23314 1.852 0
M  V30 13834 H 1284.35 -3.0148 3.72353 0
M  V30 13835 H 1282.72 -1.67678 1.91719 0
M  V30 13836 H 1283.5 -0.79803 3.33896 0
M  V30 13837 N 1285.95 -1.35615 -0.802897 0
M  V30 13838 C 1286.88 -1.31506 -1.92947 0
M  V30 13839 C 1287.86 -0.188843 -1.69048 0
M  V30 13840 O 1289.04 -0.384384 -1.90358 0
M  V30 13841 C 1286.17 -1.09001 -3.29752 0
M  V30 13842 C 1285.13 -2.18303 -3.68141 0
M  V30 13843 C 1284.45 -1.80959 -5.03148 0
M  V30 13844 C 1285.75 -3.60296 -3.78132 0
M  V30 13845 H 1287.45 -2.25771 -1.96642 0
M  V30 13846 H 1284.99 -1.08682 -0.944685 0
M  V30 13847 H 1286.95 -1.04766 -4.08169 0
M  V30 13848 H 1285.67 -0.111832 -3.26408 0
M  V30 13849 H 1284.33 -2.21642 -2.92011 0
M  V30 13850 H 1283.98 -0.817495 -4.96312 0
M  V30 13851 H 1283.68 -2.54129 -5.29804 0
M  V30 13852 H 1285.2 -1.78255 -5.84001 0
M  V30 13853 H 1286.62 -3.59259 -4.46773 0
M  V30 13854 H 1285.01 -4.32258 -4.16261 0
M  V30 13855 H 1286.08 -3.9618 -2.79588 0
M  V30 13856 O 1287.46 0.941985 -1.31183 0
M  V30 13857 H 1288.16 1.57192 -1.13183 0
M  V30 END ATOM
M  V30 BEGIN BOND
M  V30 END BOND
M  V30 END CTAB
M  END
$$$$
