drugbank_target|Q9UGI6 Small conductance calcium-activated potassium channel protein 3 (DB00721; DB01110; DB09089)
 OpenBabel12092121003D

  0  0  0     0  0            999 V3000
M  V30 BEGIN CTAB
M  V30 COUNTS 11558 11688 0 0 0
M  V30 BEGIN ATOM
M  V30 1 H -0.908 1.98254 -0.117106 0
M  V30 2 N 0 1.576 0 0
M  V30 3 C 0.933 2.03868 1.02534 0
M  V30 4 C 1.911 0.928543 1.3348 0
M  V30 5 O 3.095 1.19667 1.45644 0
M  V30 6 C 0.222 2.43627 2.35294 0
M  V30 7 C -0.732 3.65373 2.2001 0
M  V30 8 S 0.101 5.13292 1.52614 0
M  V30 9 C 1.257 5.56322 2.86805 0
M  V30 10 H 1.49 2.90518 0.631377 0
M  V30 11 H -0.977 1.52953 0.210867 0
M  V30 12 H 0.981 2.67203 3.11629 0
M  V30 13 H -0.358 1.57376 2.7183 0
M  V30 14 H -1.165 3.90944 3.18086 0
M  V30 15 H -1.563 3.418 1.51819 0
M  V30 16 H 0.729 5.58782 3.83104 0
M  V30 17 H 1.672 6.56266 2.65933 0
M  V30 18 H 2.08 4.83886 2.90714 0
M  V30 19 N 1.4781 -0.272755 1.55222 0
M  V30 20 C 2.7551 -1.02562 1.66555 0
M  V30 21 C 3.1351 -2.04282 0.532189 0
M  V30 22 O 2.4831 -2.23662 -0.467717 0
M  V30 23 C 2.6931 -1.6822 3.05782 0
M  V30 24 C 4.0411 -2.19373 3.63539 0
M  V30 25 O 5.0651 -1.78206 3.08417 0
M  V30 26 O 3.9241 -2.94883 4.60115 0
M  V30 27 H 1.0181 -0.475755 0.676451 0
M  V30 28 H 3.5641 -0.268593 1.67561 0
M  V30 29 H 2.3361 -0.945112 3.79715 0
M  V30 30 H 1.9591 -2.50609 3.08676 0
M  V30 31 N 2.9562 -1.48159 -0.537278 0
M  V30 32 C 4.1842 -1.59454 -1.31841 0
M  V30 33 C 4.5992 -0.252065 -1.8711 0
M  V30 34 O 3.9562 0.757621 -1.66031 0
M  V30 35 C 4.0072 -2.63546 -2.47439 0
M  V30 36 O 3.7282 -3.92583 -1.94449 0
M  V30 37 C 5.2292 -2.85212 -3.39366 0
M  V30 38 H 2.4492 -0.53785 -0.401196 0
M  V30 39 H 4.9932 -1.93932 -0.648891 0
M  V30 40 H 3.1482 -2.31946 -3.1029 0
M  V30 41 H 3.5622 -4.49629 -2.70063 0
M  V30 42 H 5.0362 -3.61863 -4.16844 0
M  V30 43 H 5.5132 -1.93765 -3.94147 0
M  V30 44 H 6.1192 -3.18086 -2.82314 0
M  V30 45 N 4.4343 0.785586 -1.36625 0
M  V30 46 C 5.6593 1.57963 -1.34397 0
M  V30 47 C 6.0843 1.87964 0.071526 0
M  V30 48 O 5.4423 1.48182 1.0446 0
M  V30 49 C 5.4903 2.87511 -2.17646 0
M  V30 50 O 4.5943 3.81281 -1.57158 0
M  V30 51 H 3.9353 0.479014 -0.459828 0
M  V30 52 H 6.4653 0.973411 -1.79961 0
M  V30 53 H 6.4753 3.36745 -2.30362 0
M  V30 54 H 5.1503 2.65002 -3.20541 0
M  V30 55 H 3.7273 3.39885 -1.53403 0
M  V30 56 N 5.9124 1.20967 1.01018 0
M  V30 57 C 7.1604 1.02172 1.74371 0
M  V30 58 C 7.4814 -0.446414 1.89821 0
M  V30 59 O 6.7514 -1.32234 1.44537 0
M  V30 60 H 5.3314 0.375066 0.646014 0
M  V30 61 H 7.9934 1.52187 1.21758 0
M  V30 62 H 7.0894 1.48538 2.74487 0
M  V30 63 N 7.3905 -1.2043 1.01659 0
M  V30 64 C 8.3405 -2.21076 0.557623 0
M  V30 65 C 9.3245 -1.56176 -0.387029 0
M  V30 66 O 10.5165 -1.7575 -0.209996 0
M  V30 67 C 7.6455 -3.43146 -0.102707 0
M  V30 68 C 6.7315 -4.15213 0.863652 0
M  V30 69 N 7.1225 -4.63662 2.02117 0
M  V30 70 C 5.4205 -4.40716 0.684472 0
M  V30 71 C 6.1215 -5.18868 2.62966 0
M  V30 72 N 5.0975 -5.0893 1.91027 0
M  V30 73 H 8.8995 -2.56201 1.44008 0
M  V30 74 H 6.4135 -1.36366 0.881931 0
M  V30 75 H 8.4105 -4.14475 -0.449054 0
M  V30 76 H 7.0705 -3.09526 -0.981003 0
M  V30 77 H 8.0815 -4.58877 2.40109 0
M  V30 78 H 4.7585 -4.17245 -0.14577 0
M  V30 79 H 6.1485 -5.6673 3.60924 0
M  V30 80 N 8.8686 -0.792821 -1.36206 0
M  V30 81 C 10.1156 -0.366786 -1.99151 0
M  V30 82 C 10.4436 1.06243 -1.62919 0
M  V30 83 O 9.6986 1.74927 -0.877442 0
M  V30 84 C 9.9976 -0.481501 -3.54142 0
M  V30 85 C 9.6636 -1.87202 -4.10203 0
M  V30 86 C 8.3256 -2.25248 -4.25226 0
M  V30 87 C 10.6776 -2.78237 -4.40719 0
M  V30 88 C 8.0056 -3.53723 -4.68078 0
M  V30 89 C 10.3576 -4.06144 -4.85005 0
M  V30 90 C 9.0216 -4.44207 -4.98234 0
M  V30 91 H 8.2916 -0.134217 -0.728743 0
M  V30 92 H 10.9386 -1.01094 -1.62641 0
M  V30 93 H 9.2436 0.246146 -3.91026 0
M  V30 94 H 10.9406 -0.132844 -4.0078 0
M  V30 95 H 7.5306 -1.56639 -3.98951 0
M  V30 96 H 11.7146 -2.50097 -4.28679 0
M  V30 97 H 6.9706 -3.8308 -4.76508 0
M  V30 98 H 11.1446 -4.76796 -5.07581 0
M  V30 99 H 8.7716 -5.43814 -5.31197 0
M  V30 100 N 10.3467 1.47872 -0.545128 0
M  V30 101 C 11.2967 2.26842 0.229456 0
M  V30 102 C 12.2807 1.33626 0.896267 0
M  V30 103 O 13.4727 1.58063 0.79657 0
M  V30 104 C 10.6017 3.19089 1.26638 0
M  V30 105 C 9.6877 4.19783 0.603598 0
M  V30 106 N 10.0787 5.0479 -0.319405 0
M  V30 107 C 8.3767 4.3765 0.858989 0
M  V30 108 C 9.0777 5.77433 -0.703241 0
M  V30 109 N 8.0537 5.43566 -0.0608309 0
M  V30 110 H 11.8557 2.89947 -0.480391 0
M  V30 111 H 9.3697 1.58263 -0.364209 0
M  V30 112 H 11.3667 3.74337 1.83515 0
M  V30 113 H 10.0267 2.5754 1.97745 0
M  V30 114 H 11.0377 5.13244 -0.692889 0
M  V30 115 H 7.7147 3.87281 1.55948 0
M  V30 116 H 9.1047 6.55824 -1.46098 0
M  V30 117 N 11.8248 0.280983 1.55075 0
M  V30 118 C 13.1018 -0.386207 1.91749 0
M  V30 119 C 13.4818 -1.73264 1.20594 0
M  V30 120 O 12.8298 -2.26034 0.334784 0
M  V30 121 C 13.0398 -0.520687 3.45094 0
M  V30 122 C 14.3878 -0.800865 4.16979 0
M  V30 123 O 15.4118 -0.605271 3.5102 0
M  V30 124 O 14.2708 -1.1753 5.33712 0
M  V30 125 H 11.3648 -0.212408 0.799257 0
M  V30 126 H 13.9108 0.327568 1.66509 0
M  V30 127 H 12.6828 0.426633 3.88967 0
M  V30 128 H 12.3058 -1.2837 3.76307 0
M  V30 129 N 13.3029 -1.57598 0.00835791 0
M  V30 130 C 14.5279 -1.95617 -0.689103 0
M  V30 131 C 14.9529 -0.883753 -1.66046 0
M  V30 132 O 14.3109 0.157352 -1.80616 0
M  V30 133 C 14.3589 -3.32736 -1.38994 0
M  V30 134 O 13.4629 -3.27631 -2.50463 0
M  V30 135 H 12.8039 -0.638379 -0.182668 0
M  V30 136 H 15.3339 -2.045 0.064036 0
M  V30 137 H 15.3439 -3.68494 -1.75147 0
M  V30 138 H 14.0189 -4.1034 -0.677778 0
M  V30 139 H 12.5959 -3.03561 -2.16576 0
M  V30 140 N 14.781 0.264519 -1.55364 0
M  V30 141 C 16.029 0.993021 -1.76021 0
M  V30 142 C 16.35 1.86511 -0.569099 0
M  V30 143 O 15.62 1.91438 0.415735 0
M  V30 144 H 14.2 0.369639 -0.649135 0
M  V30 145 H 16.862 0.286707 -1.9278 0
M  V30 146 H 15.958 1.62502 -2.66457 0
M  V30 147 N 16.2591 1.48442 0.529413 0
M  V30 148 C 17.5051 1.5672 1.28711 0
M  V30 149 C 17.8381 0.2406 1.92704 0
M  V30 150 O 17.1131 -0.753454 1.79313 0
M  V30 151 C 17.3961 2.70587 2.37603 0
M  V30 152 C 17.2491 4.12953 1.78297 0
M  V30 153 C 18.5681 2.80212 3.39366 0
M  V30 154 H 15.6871 0.570474 0.466613 0
M  V30 155 H 18.3291 1.80617 0.589706 0
M  V30 156 H 16.4791 2.50342 2.97088 0
M  V30 157 H 18.1511 4.44639 1.22858 0
M  V30 158 H 16.3941 4.19927 1.0883 0
M  V30 159 H 17.0651 4.88448 2.57144 0
M  V30 160 H 19.5411 2.98553 2.89836 0
M  V30 161 H 18.4171 3.61611 4.12951 0
M  V30 162 H 18.6781 1.88393 3.99951 0
M  V30 163 N 17.7372 -0.778329 1.37039 0
M  V30 164 C 18.9852 -1.53361 1.31623 0
M  V30 165 C 19.3062 -1.94739 -0.100831 0
M  V30 166 O 18.5762 -1.65797 -1.04347 0
M  V30 167 H 17.1562 -0.568794 0.484234 0
M  V30 168 H 19.8182 -0.926742 1.71457 0
M  V30 169 H 18.9142 -2.43606 1.95096 0
M  V30 170 N 19.2153 -1.21501 -1.00376 0
M  V30 171 C 20.4923 -0.941745 -1.71437 0
M  V30 172 C 20.8723 0.546114 -2.03914 0
M  V30 173 O 20.2203 1.51128 -1.71384 0
M  V30 174 C 20.4303 -1.82812 -2.97289 0
M  V30 175 C 21.7783 -2.07771 -3.70292 0
M  V30 176 O 22.8023 -1.80171 -3.07273 0
M  V30 177 O 21.6613 -2.54456 -4.83647 0
M  V30 178 H 18.7553 -0.353243 -0.747762 0
M  V30 179 H 21.3013 -1.32436 -1.06108 0
M  V30 180 H 20.0733 -2.83501 -2.69709 0
M  V30 181 H 19.6963 -1.4464 -3.70358 0
M  V30 182 N 20.6934 1.19889 -1.02296 0
M  V30 183 C 21.6234 2.25141 -0.619174 0
M  V30 184 C 22.6044 1.66051 0.368915 0
M  V30 185 O 23.7894 1.92546 0.252941 0
M  V30 186 C 20.9194 3.4728 0.0368783 0
M  V30 187 C 19.8734 4.19005 -0.872865 0
M  V30 188 C 19.1994 5.34637 -0.0822402 0
M  V30 189 C 20.4994 4.74452 -2.18387 0
M  V30 190 H 22.1934 2.59171 -1.49903 0
M  V30 191 H 19.7394 1.24579 -0.722222 0
M  V30 192 H 21.6924 4.20098 0.330958 0
M  V30 193 H 20.4164 3.12433 0.95149 0
M  V30 194 H 19.0754 3.48061 -1.15105 0
M  V30 195 H 18.7234 4.96034 0.83422 0
M  V30 196 H 18.4234 5.83557 -0.688149 0
M  V30 197 H 19.9474 6.10255 0.205238 0
M  V30 198 H 21.3614 5.39055 -1.95172 0
M  V30 199 H 19.7584 5.33834 -2.74119 0
M  V30 200 H 20.8284 3.92844 -2.84257 0
M  V30 201 N 22.1715 0.800033 1.35784 0
M  V30 202 C 23.4485 0.30088 1.93272 0
M  V30 203 C 23.8285 -1.20857 1.73081 0
M  V30 204 O 23.1765 -2.00502 1.09596 0
M  V30 205 C 23.3865 0.70511 3.41803 0
M  V30 206 C 24.7345 0.690871 4.18942 0
M  V30 207 O 25.7585 0.646244 3.50289 0
M  V30 208 O 24.6175 0.74332 5.41421 0
M  V30 209 H 21.7115 0.0771605 0.823393 0
M  V30 210 H 24.2575 0.88329 1.449 0
M  V30 211 H 23.0295 1.74571 3.50201 0
M  V30 212 H 22.6525 0.0971541 3.97481 0
M  V30 213 N 23.6496 -1.47581 0.552962 0
M  V30 214 C 24.5596 -2.33743 -0.200353 0
M  V30 215 C 25.5756 -1.47928 -0.916151 0
M  V30 216 O 26.7516 -1.80865 -0.885993 0
M  V30 217 C 23.8166 -3.24536 -1.21973 0
M  V30 218 C 22.8776 -4.26238 -0.511819 0
M  V30 219 C 22.1106 -5.12693 -1.48263 0
M  V30 220 O 22.3336 -5.01525 -2.71714 0
M  V30 221 O 21.2676 -5.93375 -1.00945 0
M  V30 222 H 25.0936 -2.9945 0.506304 0
M  V30 223 H 22.6786 -1.46071 0.313622 0
M  V30 224 H 24.5606 -3.80631 -1.80827 0
M  V30 225 H 23.2356 -2.61462 -1.90839 0
M  V30 226 H 22.1426 -3.73914 0.117799 0
M  V30 227 H 23.4756 -4.92014 0.135308 0
M  V30 228 N 25.1277 -0.289203 -1.54924 0
M  V30 229 C 26.4047 0.376032 -1.91951 0
M  V30 230 C 26.7847 1.72622 -1.21511 0
M  V30 231 O 26.1327 2.25853 -0.346767 0
M  V30 232 C 26.3427 0.502378 -3.45365 0
M  V30 233 C 27.6907 0.778741 -4.17398 0
M  V30 234 O 28.7147 0.586647 -3.51336 0
M  V30 235 O 27.5737 1.14698 -5.34328 0
M  V30 236 H 24.6677 0.208167 -0.800372 0
M  V30 237 H 27.2137 -0.336394 -1.66332 0
M  V30 238 H 25.9857 -0.447255 -3.88736 0
M  V30 239 H 25.6087 1.26373 -3.76982 0
M  V30 240 N 26.6058 1.57591 -0.0167156 0
M  V30 241 C 28.0168 1.79201 0.523834 0
M  V30 242 C 28.3678 0.925796 1.72984 0
M  V30 243 O 27.4928 0.132792 2.15992 0
M  V30 244 C 28.0878 3.25 0.957091 0
M  V30 245 C 26.6468 3.47648 1.44283 0
M  V30 246 C 25.7938 2.74374 0.401757 0
M  V30 247 H 28.7448 1.56831 -0.242816 0
M  V30 248 H 28.7658 3.34031 1.82219 0
M  V30 249 H 28.2778 3.88019 0.0791415 0
M  V30 250 H 26.3788 2.89866 2.34113 0
M  V30 251 H 26.4918 4.56352 1.45877 0
M  V30 252 H 24.8558 2.39485 0.867121 0
M  V30 253 H 25.6388 3.40102 -0.467513 0
M  V30 254 N 28.0839 -0.256276 1.55502 0
M  V30 255 C 29.0309 -1.31714 1.89526 0
M  V30 256 C 30.0009 -1.4828 0.748479 0
M  V30 257 O 31.1859 -1.62416 1.00128 0
M  V30 258 C 28.3259 -2.66933 2.18725 0
M  V30 259 C 27.4389 -2.58452 3.4616 0
M  V30 260 C 26.5739 -3.85961 3.64976 0
M  V30 261 C 25.6129 -3.72059 4.86044 0
M  V30 262 N 24.7499 -4.9144 5.01429 0
M  V30 263 H 29.5899 -1.01998 2.80001 0
M  V30 264 H 27.1269 -0.492413 1.38613 0
M  V30 265 H 29.0849 -3.4563 2.33657 0
M  V30 266 H 27.7149 -2.94816 1.31466 0
M  V30 267 H 26.7669 -1.71374 3.3961 0
M  V30 268 H 28.0789 -2.44085 4.34999 0
M  V30 269 H 27.2329 -4.73101 3.79816 0
M  V30 270 H 25.9719 -4.03215 2.74353 0
M  V30 271 H 24.9769 -2.83302 4.7119 0
M  V30 272 H 26.2019 -3.56309 5.78118 0
M  V30 273 H 24.1479 -5.09072 4.13741 0
M  V30 274 H 24.0649 -4.79668 5.84341 0
M  V30 275 H 25.3329 -5.80104 5.20672 0
M  V30 276 N 29.562 -1.4872 -0.521534 0
M  V30 277 C 30.802 -1.58771 -1.28729 0
M  V30 278 C 31.166 -0.259394 -1.9024 0
M  V30 279 O 32.367 -0.234942 -2.67771 0
M  V30 280 C 30.638 -2.70039 -2.34124 0
M  V30 281 S 32.197 -2.9991 -3.20312 0
M  V30 282 H 29.015 -0.560251 -0.437767 0
M  V30 283 H 31.617 -1.86283 -0.593188 0
M  V30 284 H 30.321 -3.65101 -1.87429 0
M  V30 285 H 29.852 -2.44455 -3.08229 0
M  V30 286 H 31.867 -2.39855 -4.34378 0
M  V30 287 N 31.0401 0.771051 -1.3745 0
M  V30 288 C 32.4511 1.34737 -1.29239 0
M  V30 289 C 32.8021 1.96109 0.0596908 0
M  V30 290 O 31.9271 1.93865 0.961534 0
M  V30 291 C 32.5221 2.44973 -2.34037 0
M  V30 292 C 31.0811 2.98372 -2.29458 0
M  V30 293 C 30.2281 1.71595 -2.17831 0
M  V30 294 H 33.1791 0.571256 -1.48062 0
M  V30 295 H 33.2001 3.24471 -1.98744 0
M  V30 296 H 32.7121 2.00276 -3.32432 0
M  V30 297 H 30.8131 3.47443 -1.34589 0
M  V30 298 H 30.9261 3.53939 -3.229 0
M  V30 299 H 29.2901 1.94547 -1.64388 0
M  V30 300 H 30.0731 1.29001 -3.18141 0
M  V30 301 N 32.5182 1.22032 0.997298 0
M  V30 302 C 33.7582 1.05375 1.75144 0
M  V30 303 C 34.1222 -0.404696 1.87686 0
M  V30 304 O 35.3232 -0.691998 2.5974 0
M  V30 305 C 33.5942 1.74046 3.12158 0
M  V30 306 S 35.1532 1.72745 4.03366 0
M  V30 307 H 31.9712 0.377449 0.602539 0
M  V30 308 H 34.5732 1.54902 1.19272 0
M  V30 309 H 33.2772 2.79332 3.00669 0
M  V30 310 H 32.8082 1.24731 3.73103 0
M  V30 311 H 34.8232 0.774015 4.90126 0
M  V30 312 N 33.9963 -1.19345 1.0293 0
M  V30 313 C 35.4073 -1.70725 0.755633 0
M  V30 314 C 35.7583 -1.82326 -0.724676 0
M  V30 315 O 34.8833 -1.49471 -1.56484 0
M  V30 316 C 35.4783 -3.10084 1.36503 0
M  V30 317 C 34.0373 -3.58723 1.13994 0
M  V30 318 C 33.1843 -2.35577 1.46283 0
M  V30 319 H 36.1353 -1.0418 1.19718 0
M  V30 320 H 36.1563 -3.72787 0.762217 0
M  V30 321 H 35.6683 -3.01609 2.44241 0
M  V30 322 H 33.7693 -3.72512 0.0807901 0
M  V30 323 H 33.8823 -4.42816 1.82894 0
M  V30 324 H 32.2463 -2.38935 0.88217 0
M  V30 325 H 33.0293 -2.29731 2.55105 0
M  V30 326 N 35.4744 -0.807222 -1.35358 0
M  V30 327 C 36.6994 -0.399309 -2.0352 0
M  V30 328 C 37.1244 0.981986 -1.60433 0
M  V30 329 O 36.4824 1.63601 -0.781299 0
M  V30 330 C 36.5304 -0.491552 -3.57234 0
M  V30 331 O 35.6344 0.494754 -4.09421 0
M  V30 332 H 34.9754 -0.166682 -0.642739 0
M  V30 333 H 37.5054 -1.09328 -1.72941 0
M  V30 334 H 37.5154 -0.361588 -4.06395 0
M  V30 335 H 36.1904 -1.49907 -3.87944 0
M  V30 336 H 34.7674 0.324977 -3.71481 0
M  V30 337 N 36.9525 1.47285 -0.560781 0
M  V30 338 C 38.1775 2.07359 -0.0410566 0
M  V30 339 C 38.6025 1.41017 1.24483 0
M  V30 340 O 37.9605 0.486368 1.74654 0
M  V30 341 C 38.0085 3.6035 0.134123 0
M  V30 342 O 37.1125 3.94681 1.19587 0
M  V30 343 H 36.4535 0.661887 -0.0529291 0
M  V30 344 H 38.9835 1.89252 -0.777482 0
M  V30 345 H 38.9935 4.0652 0.347207 0
M  V30 346 H 37.6685 4.08034 -0.805047 0
M  V30 347 H 36.2455 3.60251 0.962987 0
M  V30 348 N 38.4306 0.297415 1.54768 0
M  V30 349 C 39.6786 -0.312295 1.99673 0
M  V30 350 C 39.9996 -1.54686 1.18732 0
M  V30 351 O 39.2696 -1.93854 0.282382 0
M  V30 352 H 37.8496 -0.118381 0.73756 0
M  V30 353 H 40.5116 0.407915 1.90583 0
M  V30 354 H 39.6076 -0.586813 3.06534 0
M  V30 355 N 39.9087 -1.5758 0.0250728 0
M  V30 356 C 41.1857 -1.82917 -0.692873 0
M  V30 357 C 41.5657 -0.908137 -1.90568 0
M  V30 358 O 40.9137 0.0372298 -2.2847 0
M  V30 359 C 41.1237 -3.32034 -1.07492 0
M  V30 360 C 42.4717 -3.98406 -1.46826 0
M  V30 361 O 43.4957 -3.36505 -1.16801 0
M  V30 362 O 42.3547 -5.07497 -2.02754 0
M  V30 363 H 39.4487 -0.754079 -0.33955 0
M  V30 364 H 41.9947 -1.69619 0.0524456 0
M  V30 365 H 40.7667 -3.90728 -0.211552 0
M  V30 366 H 40.3897 -3.50424 -1.87854 0
M  V30 367 N 41.3868 0.248026 -1.55636 0
M  V30 368 C 42.2968 1.32859 -1.93354 0
M  V30 369 C 43.3128 1.52719 -0.833838 0
M  V30 370 O 44.4888 1.66363 -1.13513 0
M  V30 371 C 41.5538 2.66337 -2.21958 0
M  V30 372 C 40.6148 2.55008 -3.45354 0
M  V30 373 C 39.8478 3.82121 -3.72584 0
M  V30 374 O 40.0708 4.83951 -3.01907 0
M  V30 375 O 39.0048 3.80822 -4.6611 0
M  V30 376 H 42.8308 1.03862 -2.85388 0
M  V30 377 H 40.4158 0.448686 -1.42503 0
M  V30 378 H 42.2978 3.45216 -2.4167 0
M  V30 379 H 40.9728 2.95068 -1.33103 0
M  V30 380 H 39.8798 1.7442 -3.30951 0
M  V30 381 H 41.2128 2.31222 -4.34508 0
M  V30 382 N 42.8649 1.48995 0.513639 0
M  V30 383 C 43.7969 1.60836 1.63293 0
M  V30 384 C 44.8099 0.491701 1.55197 0
M  V30 385 O 45.9989 0.763238 1.6136 0
M  V30 386 C 43.0989 1.53731 3.02027 0
M  V30 387 C 42.2719 2.80715 3.35437 0
M  V30 388 C 41.3309 2.66837 4.53525 0
M  V30 389 O 40.3569 3.40753 4.55934 0
M  V30 390 N 41.5589 1.77539 5.52684 0
M  V30 391 H 44.3239 2.57366 1.53566 0
M  V30 392 H 41.8849 1.45925 0.701259 0
M  V30 393 H 43.8769 1.42118 3.78926 0
M  V30 394 H 42.4469 0.651092 3.05744 0
M  V30 395 H 41.6669 3.06772 2.47557 0
M  V30 396 H 42.9549 3.64927 3.54551 0
M  V30 397 H 42.3529 1.16719 5.53528 0
M  V30 398 H 40.9099 1.71856 6.28736 0
M  V30 399 N 44.343 -0.763751 1.37857 0
M  V30 400 C 45.275 -1.88664 1.30148 0
M  V30 401 C 46.288 -1.61365 0.215685 0
M  V30 402 O 47.477 -1.72134 0.472459 0
M  V30 403 C 44.577 -3.24075 0.991396 0
M  V30 404 C 43.75 -3.78958 2.18426 0
M  V30 405 C 42.809 -4.92862 1.8432 0
M  V30 406 O 41.835 -5.08027 2.56704 0
M  V30 407 N 43.037 -5.75071 0.792081 0
M  V30 408 H 45.802 -1.95791 2.26905 0
M  V30 409 H 43.363 -0.943226 1.31586 0
M  V30 410 H 45.355 -3.97804 0.743935 0
M  V30 411 H 43.925 -3.12399 0.112122 0
M  V30 412 H 43.145 -2.96913 2.59299 0
M  V30 413 H 44.433 -4.12357 2.98058 0
M  V30 414 H 43.831 -5.65375 0.191595 0
M  V30 415 H 42.388 -6.48991 0.60449 0
M  V30 416 N 45.8211 -1.22559 -0.990812 0
M  V30 417 C 46.7531 -0.955325 -2.08342 0
M  V30 418 C 47.7661 0.0668408 -1.62663 0
M  V30 419 O 48.9551 -0.167421 -1.77713 0
M  V30 420 C 46.0551 -0.415566 -3.36342 0
M  V30 421 C 45.2281 -1.49544 -4.11042 0
M  V30 422 C 44.2871 -0.962399 -5.17324 0
M  V30 423 O 43.3131 -1.64907 -5.44788 0
M  V30 424 N 44.5151 0.215134 -5.80101 0
M  V30 425 H 47.2801 -1.89596 -2.32106 0
M  V30 426 H 44.8411 -1.13276 -1.15673 0
M  V30 427 H 46.8331 -0.0442386 -4.04676 0
M  V30 428 H 45.4031 0.430232 -3.09625 0
M  V30 429 H 44.6231 -2.04 -3.37309 0
M  V30 430 H 45.9111 -2.22195 -4.57719 0
M  V30 431 H 45.3091 0.789779 -5.6016 0
M  V30 432 H 43.8661 0.527826 -6.49659 0
M  V30 433 N 47.2992 1.18797 -1.03562 0
M  V30 434 C 48.2312 2.21731 -0.580337 0
M  V30 435 C 49.2442 1.59051 0.347349 0
M  V30 436 O 50.4332 1.77929 0.142669 0
M  V30 437 C 47.5332 3.38459 0.172805 0
M  V30 438 C 46.7062 4.3072 -0.761496 0
M  V30 439 C 45.7652 5.26174 -0.0525547 0
M  V30 440 O 44.7912 5.65108 -0.681333 0
M  V30 441 N 45.9932 5.67624 1.21586 0
M  V30 442 H 48.7582 2.61417 -1.46565 0
M  V30 443 H 46.3192 1.33531 -0.915476 0
M  V30 444 H 48.3112 3.99335 0.656793 0
M  V30 445 H 46.8812 2.97507 0.959602 0
M  V30 446 H 46.1012 3.67525 -1.42544 0
M  V30 447 H 47.3892 4.89267 -1.39626 0
M  V30 448 H 46.7872 5.38038 1.74732 0
M  V30 449 H 45.3442 6.30721 1.64421 0
M  V30 450 N 48.7773 0.814389 1.34928 0
M  V30 451 C 49.7093 0.187834 2.28429 0
M  V30 452 C 50.7223 -0.617374 1.5064 0
M  V30 453 O 51.9113 -0.448454 1.72775 0
M  V30 454 C 49.0113 -0.755962 3.30361 0
M  V30 455 C 48.1843 0.00456686 4.374 0
M  V30 456 C 47.2433 -0.858876 5.19143 0
M  V30 457 O 46.2693 -0.306968 5.68372 0
M  V30 458 N 47.4713 -2.17988 5.38016 0
M  V30 459 H 50.2363 0.991105 2.82838 0
M  V30 460 H 47.7973 0.670561 1.4736 0
M  V30 461 H 49.7893 -1.338 3.81942 0
M  V30 462 H 48.3593 -1.46001 2.7641 0
M  V30 463 H 47.5793 0.767865 3.86649 0
M  V30 464 H 48.8673 0.528422 5.06049 0
M  V30 465 H 48.2653 -2.65212 4.99679 0
M  V30 466 H 46.8223 -2.71098 5.92747 0
M  V30 467 N 50.2554 -1.46986 0.568584 0
M  V30 468 C 51.1874 -2.28233 -0.210337 0
M  V30 469 C 52.2004 -1.37682 -0.868767 0
M  V30 470 O 53.3894 -1.62406 -0.740705 0
M  V30 471 C 50.4894 -3.12293 -1.3163 0
M  V30 472 C 49.6624 -4.30878 -0.7525 0
M  V30 473 C 48.7214 -4.96445 -1.74439 0
M  V30 474 O 47.7474 -5.54482 -1.286 0
M  V30 475 N 48.9494 -4.92171 -3.07812 0
M  V30 476 H 51.7144 -2.95723 0.486648 0
M  V30 477 H 49.2754 -1.56742 0.405409 0
M  V30 478 H 51.2674 -3.53022 -1.97883 0
M  V30 479 H 49.8374 -2.46971 -1.91636 0
M  V30 480 H 49.0574 -3.94104 0.0871128 0
M  V30 481 H 50.3454 -5.07558 -0.35536 0
M  V30 482 H 49.7434 -4.46239 -3.47688 0
M  V30 483 H 48.3004 -5.36884 -3.69592 0
M  V30 484 N 51.7335 -0.305618 -1.54608 0
M  V30 485 C 52.6655 0.602161 -2.21149 0
M  V30 486 C 53.6785 1.09394 -1.20569 0
M  V30 487 O 54.8675 1.0106 -1.47136 0
M  V30 488 C 51.9675 1.83692 -2.84799 0
M  V30 489 C 51.1405 1.48686 -4.11353 0
M  V30 490 C 50.1995 2.57725 -4.58764 0
M  V30 491 O 49.2255 2.22623 -5.23858 0
M  V30 492 N 50.4275 3.88346 -4.31471 0
M  V30 493 H 53.1925 0.0324966 -2.99682 0
M  V30 494 H 50.7535 -0.128021 -1.61393 0
M  V30 495 H 52.7455 2.55994 -3.13448 0
M  V30 496 H 51.3155 2.31486 -2.10078 0
M  V30 497 H 50.5355 0.596269 -3.89664 0
M  V30 498 H 51.8235 1.22842 -4.93748 0
M  V30 499 H 51.2215 4.19671 -3.79331 0
M  V30 500 H 49.7785 4.56932 -4.64818 0
M  V30 501 N 53.2116 1.57565 -0.0334293 0
M  V30 502 C 54.1436 2.0739 0.975811 0
M  V30 503 C 55.1566 0.998166 1.2861 0
M  V30 504 O 56.3456 1.27426 1.25 0
M  V30 505 C 53.4456 2.4871 2.30209 0
M  V30 506 C 52.6186 3.79413 2.17634 0
M  V30 507 C 51.6776 4.07237 3.33233 0
M  V30 508 O 50.7036 4.77425 3.09927 0
M  V30 509 N 51.9056 3.5775 4.5716 0
M  V30 510 H 54.6706 2.94598 0.55066 0
M  V30 511 H 52.2316 1.61173 0.15323 0
M  V30 512 H 54.2236 2.64413 3.06378 0
M  V30 513 H 52.7936 1.66845 2.64351 0
M  V30 514 H 52.0136 3.73465 1.26165 0
M  V30 515 H 53.3016 4.65038 2.0644 0
M  V30 516 H 52.6996 3.00976 4.78989 0
M  V30 517 H 51.2566 3.78724 5.30482 0
M  V30 518 N 54.6897 -0.239769 1.55765 0
M  V30 519 C 55.6217 -1.32001 1.87372 0
M  V30 520 C 56.6347 -1.43944 0.760522 0
M  V30 521 O 57.8237 -1.45167 1.0387 0
M  V30 522 C 54.9237 -2.69779 2.05115 0
M  V30 523 C 54.0967 -2.80014 3.36022 0
M  V30 524 C 53.1557 -3.98684 3.4342 0
M  V30 525 O 52.1817 -3.87877 4.16582 0
M  V30 526 N 53.3837 -5.12176 2.73232 0
M  V30 527 H 56.1487 -1.0522 2.80622 0
M  V30 528 H 53.7097 -0.429857 1.56089 0
M  V30 529 H 55.7017 -3.47517 2.07399 0
M  V30 530 H 54.2717 -2.89237 1.18577 0
M  V30 531 H 53.4917 -1.88896 3.45994 0
M  V30 532 H 54.7797 -2.83808 4.22292 0
M  V30 533 H 54.1777 -5.2385 2.13536 0
M  V30 534 H 52.7347 -5.88022 2.81199 0
M  V30 535 N 56.1678 -1.49265 -0.50573 0
M  V30 536 C 57.0998 -1.617 -1.62437 0
M  V30 537 C 58.1128 -0.499924 -1.54934 0
M  V30 538 O 59.3018 -0.771785 -1.60953 0
M  V30 539 C 56.4018 -1.5533 -3.01207 0
M  V30 540 C 55.5748 -2.8249 -3.33943 0
M  V30 541 C 54.6338 -2.69238 -4.52103 0
M  V30 542 O 53.6598 -3.43167 -4.5412 0
M  V30 543 N 54.8618 -1.80468 -5.51735 0
M  V30 544 H 57.6268 -2.58177 -1.52199 0
M  V30 545 H 55.1878 -1.46294 -0.693511 0
M  V30 546 H 57.1798 -1.44125 -3.78167 0
M  V30 547 H 55.7498 -0.667297 -3.05395 0
M  V30 548 H 54.9698 -3.08081 -2.45926 0
M  V30 549 H 56.2578 -3.66802 -3.5261 0
M  V30 550 H 55.6558 -1.19653 -5.52901 0
M  V30 551 H 54.2128 -1.75188 -6.27816 0
M  V30 552 N 57.6459 0.756429 -1.3826 0
M  V30 553 C 58.5779 1.87971 -1.31147 0
M  V30 554 C 59.5909 1.61248 -0.224239 0
M  V30 555 O 60.7799 1.71881 -0.481581 0
M  V30 556 C 57.8799 3.23545 -1.00857 0
M  V30 557 C 57.0529 3.77794 -2.20432 0
M  V30 558 C 56.1119 4.91877 -1.86931 0
M  V30 559 O 55.1379 5.06659 -2.59395 0
M  V30 560 N 56.3399 5.74643 -0.822568 0
M  V30 561 H 59.1049 1.94585 -2.2794 0
M  V30 562 H 56.6659 0.936234 -1.32084 0
M  V30 563 H 58.6579 3.97403 -0.765021 0
M  V30 564 H 57.2279 3.12335 -0.128687 0
M  V30 565 H 56.4479 2.95534 -2.6087 0
M  V30 566 H 57.7359 4.10771 -3.00241 0
M  V30 567 H 57.1339 5.65266 -0.221575 0
M  V30 568 H 55.6909 6.48661 -0.638899 0
M  V30 569 N 59.124 1.23083 0.984299 0
M  V30 570 C 60.056 0.96636 2.07832 0
M  V30 571 C 61.069 -0.0582135 1.62696 0
M  V30 572 O 62.258 0.176843 1.77622 0
M  V30 573 C 59.358 0.433397 3.36117 0
M  V30 574 C 58.531 1.51722 4.10243 0
M  V30 575 C 57.59 0.989821 5.16807 0
M  V30 576 O 56.616 1.67794 5.43906 0
M  V30 577 N 57.818 -0.184367 5.80207 0
M  V30 578 H 60.583 1.90824 2.31098 0
M  V30 579 H 58.144 1.13888 1.1507 0
M  V30 580 H 60.136 0.065699 4.04647 0
M  V30 581 H 58.706 -0.413806 3.09849 0
M  V30 582 H 57.926 2.05786 3.36223 0
M  V30 583 H 59.214 2.24619 4.56534 0
M  V30 584 H 58.612 -0.760062 5.60571 0
M  V30 585 H 57.169 -0.493366 6.4993 0
M  V30 586 N 60.6021 -1.18246 1.0419 0
M  V30 587 C 62.0131 -1.69914 0.773698 0
M  V30 588 C 62.3641 -1.83085 -0.705297 0
M  V30 589 O 61.4891 -1.51123 -1.5489 0
M  V30 590 C 62.0841 -3.08619 1.39784 0
M  V30 591 C 60.6431 -3.57494 1.17792 0
M  V30 592 C 59.7901 -2.34013 1.48773 0
M  V30 593 H 62.7411 -1.02904 1.20816 0
M  V30 594 H 62.7621 -3.71958 0.801714 0
M  V30 595 H 62.2741 -2.99001 2.47426 0
M  V30 596 H 60.3751 -3.72406 0.120295 0
M  V30 597 H 60.4881 -4.40852 1.87581 0
M  V30 598 H 58.8521 -2.37986 0.907463 0
M  V30 599 H 59.6351 -2.27013 2.57527 0
M  V30 600 N 62.0802 -0.821533 -1.34494 0
M  V30 601 C 63.4912 -0.467956 -1.8074 0
M  V30 602 C 63.8422 1.01151 -1.68116 0
M  V30 603 O 62.9672 1.78707 -1.22036 0
M  V30 604 C 63.5622 -0.842627 -3.28154 0
M  V30 605 C 62.1212 -0.541439 -3.72485 0
M  V30 606 C 61.2682 -1.06028 -2.56229 0
M  V30 607 H 64.2192 -1.01183 -1.22261 0
M  V30 608 H 64.2402 -0.145876 -3.8022 0
M  V30 609 H 63.7522 -1.91945 -3.37311 0
M  V30 610 H 61.8532 0.526034 -3.68868 0
M  V30 611 H 61.9662 -1.08453 -4.66663 0
M  V30 612 H 60.3302 -0.481892 -2.501 0
M  V30 613 H 61.1132 -2.14352 -2.68157 0
M  V30 614 N 63.5583 1.46682 -0.576371 0
M  V30 615 C 64.9693 1.86112 -0.148091 0
M  V30 616 C 65.3203 1.48073 1.2872 0
M  V30 617 O 64.4453 0.892656 1.97131 0
M  V30 618 C 65.0403 3.37786 -0.261982 0
M  V30 619 C 63.5993 3.76235 0.111384 0
M  V30 620 C 62.7463 2.70713 -0.60083 0
M  V30 621 H 65.6973 1.37927 -0.78497 0
M  V30 622 H 65.7183 3.77007 0.514364 0
M  V30 623 H 65.2303 3.6544 -1.30671 0
M  V30 624 H 63.3313 3.54198 1.15649 0
M  V30 625 H 63.4443 4.78391 -0.26052 0
M  V30 626 H 61.8083 2.54666 -0.0417783 0
M  V30 627 H 62.5913 3.01208 -1.64708 0
M  V30 628 N 65.0364 0.313813 1.54444 0
M  V30 629 C 66.4474 -0.176243 1.85866 0
M  V30 630 C 66.7984 -1.52405 1.23561 0
M  V30 631 O 65.9234 -2.09605 0.538016 0
M  V30 632 C 66.5184 -0.32657 3.37222 0
M  V30 633 C 65.0774 -0.760846 3.6863 0
M  V30 634 C 64.2244 0.123247 2.77026 0
M  V30 635 H 67.1754 0.534418 1.49431 0
M  V30 636 H 67.1964 -1.15908 3.62416 0
M  V30 637 H 66.7084 0.654531 3.82541 0
M  V30 638 H 64.8094 -1.75204 3.28838 0
M  V30 639 H 64.9224 -0.571353 4.75681 0
M  V30 640 H 63.2864 -0.399597 2.51546 0
M  V30 641 H 64.0694 1.10094 3.25168 0
M  V30 642 N 66.5145 -1.57545 0.0417849 0
M  V30 643 C 67.4775 -2.09885 -0.92093 0
M  V30 644 C 68.4775 -1.01648 -1.24596 0
M  V30 645 O 69.6675 -1.27759 -1.1842 0
M  V30 646 C 66.7995 -2.57527 -2.23367 0
M  V30 647 H 67.9925 -2.96236 -0.467382 0
M  V30 648 H 65.5455 -1.5493 -0.206467 0
M  V30 649 H 66.2805 -1.74542 -2.73323 0
M  V30 650 H 66.0655 -3.36613 -2.01083 0
M  V30 651 H 67.5555 -2.98201 -2.92346 0
M  V30 652 N 67.9926 0.231505 -1.5589 0
M  V30 653 C 69.4036 0.799327 -1.68724 0
M  V30 654 C 69.7546 1.85398 -0.642022 0
M  V30 655 O 68.8796 2.1539 0.208784 0
M  V30 656 C 69.4746 1.45664 -3.05888 0
M  V30 657 C 68.0336 1.97197 -3.20609 0
M  V30 658 C 67.1806 0.828552 -2.64632 0
M  V30 659 H 70.1316 0.00702616 -1.58698 0
M  V30 660 H 70.1526 2.32517 -3.01191 0
M  V30 661 H 69.6646 0.688808 -3.81939 0
M  V30 662 H 67.7656 2.76813 -2.4941 0
M  V30 663 H 67.8786 2.15878 -4.27707 0
M  V30 664 H 66.2426 1.23321 -2.22854 0
M  V30 665 H 67.0256 0.0735544 -3.43221 0
M  V30 666 N 69.4707 1.49531 0.497807 0
M  V30 667 C 70.8817 1.52344 1.07927 0
M  V30 668 C 71.2327 0.311469 1.93712 0
M  V30 669 O 70.3577 -0.578405 2.08527 0
M  V30 670 C 70.9527 2.76062 1.96405 0
M  V30 671 C 69.5117 2.81643 2.49709 0
M  V30 672 C 68.6587 2.46299 1.27404 0
M  V30 673 H 71.6097 1.56182 0.281576 0
M  V30 674 H 71.6307 2.56405 2.81135 0
M  V30 675 H 71.1427 3.64254 1.33943 0
M  V30 676 H 69.2437 1.97739 3.15801 0
M  V30 677 H 69.3567 3.83891 2.86643 0
M  V30 678 H 67.7207 1.98148 1.60029 0
M  V30 679 H 68.5037 3.36769 0.66645 0
M  V30 680 N 70.9488 -0.749086 1.3866 0
M  V30 681 C 71.9118 -1.84457 1.36045 0
M  V30 682 C 72.9118 -1.58682 0.260122 0
M  V30 683 O 74.1018 -1.66343 0.517261 0
M  V30 684 C 71.2338 -3.22008 1.11911 0
M  V30 685 H 72.4268 -1.88182 2.33512 0
M  V30 686 H 69.9798 -0.951266 1.24019 0
M  V30 687 H 70.7148 -3.2395 0.150686 0
M  V30 688 H 70.4998 -3.42111 1.91579 0
M  V30 689 H 71.9898 -4.0208 1.12788 0
M  V30 690 N 72.4269 -1.23603 -0.977757 0
M  V30 691 C 73.3899 -1.02069 -2.05218 0
M  V30 692 C 74.3899 0.0184305 -1.60789 0
M  V30 693 O 75.5799 -0.221569 -1.72785 0
M  V30 694 C 72.7119 -0.544926 -3.36517 0
M  V30 695 H 73.9049 -1.9742 -2.25755 0
M  V30 696 H 71.4579 -1.05684 -1.15155 0
M  V30 697 H 72.1929 0.412241 -3.21669 0
M  V30 698 H 71.9779 -1.2948 -3.70105 0
M  V30 699 H 73.4679 -0.414985 -4.15533 0
M  V30 700 N 73.905 1.17692 -1.04816 0
M  V30 701 C 75.316 1.69501 -0.782698 0
M  V30 702 C 75.667 1.83456 0.695577 0
M  V30 703 O 74.792 1.51942 1.54086 0
M  V30 704 C 75.387 3.07874 -1.41419 0
M  V30 705 C 73.946 3.56864 -1.19686 0
M  V30 706 C 73.093 2.3322 -1.50012 0
M  V30 707 H 76.044 1.02262 -1.2136 0
M  V30 708 H 76.065 3.71528 -0.821428 0
M  V30 709 H 75.577 2.97685 -2.49009 0
M  V30 710 H 73.678 3.72337 -0.140043 0
M  V30 711 H 73.791 4.39851 -1.89916 0
M  V30 712 H 72.155 2.37501 -0.920071 0
M  V30 713 H 72.938 2.25644 -2.58727 0
M  V30 714 N 75.3831 0.828654 1.34056 0
M  V30 715 C 76.3151 0.212052 2.28217 0
M  V30 716 C 77.3281 -0.601362 1.51286 0
M  V30 717 O 78.5171 -0.430104 1.73241 0
M  V30 718 C 75.6171 -0.72088 3.31144 0
M  V30 719 C 74.7901 0.0509587 4.3737 0
M  V30 720 C 73.8491 -0.803766 5.20025 0
M  V30 721 O 72.8751 -0.246667 5.68665 0
M  V30 722 N 74.0771 -2.1227 5.40298 0
M  V30 723 H 76.8421 1.02105 2.81771 0
M  V30 724 H 74.4031 0.686153 1.46641 0
M  V30 725 H 76.3951 -1.29742 3.8334 0
M  V30 726 H 74.9651 -1.43061 2.77943 0
M  V30 727 H 74.1851 0.808831 3.85813 0
M  V30 728 H 75.4731 0.582065 5.0546 0
M  V30 729 H 74.8711 -2.59898 5.02464 0
M  V30 730 H 73.4281 -2.64796 5.95589 0
M  V30 731 N 76.8612 -1.46375 0.584142 0
M  V30 732 C 77.7932 -2.28443 -0.186119 0
M  V30 733 C 78.8062 -1.38596 -0.854115 0
M  V30 734 O 79.9952 -1.63183 -0.723438 0
M  V30 735 C 77.0952 -3.13671 -1.28311 0
M  V30 736 C 76.2682 -4.31652 -0.706758 0
M  V30 737 C 75.3272 -4.98267 -1.69163 0
M  V30 738 O 74.3532 -5.55815 -1.22712 0
M  V30 739 N 75.5552 -4.95408 -3.02575 0
M  V30 740 H 78.3202 -2.9519 0.517986 0
M  V30 741 H 75.8812 -1.56303 0.42201 0
M  V30 742 H 77.8732 -3.55101 -1.94128 0
M  V30 743 H 76.4432 -2.48989 -1.89005 0
M  V30 744 H 75.6632 -3.93989 0.128908 0
M  V30 745 H 76.9512 -5.07906 -0.301506 0
M  V30 746 H 76.3492 -4.49902 -3.42936 0
M  V30 747 H 74.9062 -5.40774 -3.63877 0
M  V30 748 N 78.3393 -0.321999 -1.54275 0
M  V30 749 C 79.7503 0.166384 -1.85957 0
M  V30 750 C 80.1013 1.51747 -1.24367 0
M  V30 751 O 79.2263 2.09317 -0.549124 0
M  V30 752 C 79.8213 0.308681 -3.37391 0
M  V30 753 C 78.3803 0.741286 -3.69028 0
M  V30 754 C 77.5273 -0.137937 -2.76957 0
M  V30 755 H 80.4783 -0.542335 -1.49146 0
M  V30 756 H 80.4993 1.13984 -3.63026 0
M  V30 757 H 80.0113 -0.674809 -3.82188 0
M  V30 758 H 78.1123 1.73458 -3.29762 0
M  V30 759 H 78.2253 0.546118 -4.75977 0
M  V30 760 H 76.5893 0.386251 -2.51754 0
M  V30 761 H 77.3723 -1.11816 -3.2458 0
M  V30 762 N 79.8174 1.5752 -0.0501392 0
M  V30 763 C 80.7474 2.14502 0.922566 0
M  V30 764 C 81.7284 1.06642 1.3252 0
M  V30 765 O 82.9134 1.34577 1.4001 0
M  V30 766 C 80.0434 2.68916 2.19776 0
M  V30 767 C 78.9974 3.8175 1.93523 0
M  V30 768 C 78.3234 4.22677 3.27487 0
M  V30 769 C 79.6234 5.06932 1.25765 0
M  V30 770 H 81.3174 2.9603 0.447952 0
M  V30 771 H 78.8634 1.42401 0.214024 0
M  V30 772 H 80.8164 3.07419 2.88222 0
M  V30 773 H 79.5404 1.84578 2.69441 0
M  V30 774 H 78.1994 3.43718 1.27489 0
M  V30 775 H 77.8474 3.35291 3.74952 0
M  V30 776 H 77.5474 4.98725 3.1072 0
M  V30 777 H 79.0714 4.63779 3.97166 0
M  V30 778 H 80.4854 5.42888 1.84244 0
M  V30 779 H 78.8824 5.88116 1.19328 0
M  V30 780 H 79.9524 4.84337 0.233536 0
M  V30 781 N 81.2955 -0.223234 1.56011 0
M  V30 782 C 82.5435 -0.946003 1.78592 0
M  V30 783 C 82.8645 -1.84936 0.618349 0
M  V30 784 O 82.1345 -1.92473 -0.364833 0
M  V30 785 H 80.7145 -0.352298 0.658707 0
M  V30 786 H 83.3765 -0.235494 1.93472 0
M  V30 787 H 82.4725 -1.55381 2.70672 0
M  V30 788 N 82.7736 -1.49793 -0.48987 0
M  V30 789 C 84.1846 -1.52914 -1.07118 0
M  V30 790 C 84.5356 -0.321738 -1.93544 0
M  V30 791 O 83.6606 0.567338 -2.08831 0
M  V30 792 C 84.2556 -2.771 -1.94938 0
M  V30 793 C 82.8146 -2.82963 -2.48212 0
M  V30 794 C 81.9616 -2.46972 -1.26096 0
M  V30 795 H 84.9126 -1.56329 -0.273289 0
M  V30 796 H 84.9336 -2.57892 -2.79771 0
M  V30 797 H 84.4456 -3.64959 -1.32009 0
M  V30 798 H 82.5466 -1.99411 -3.14748 0
M  V30 799 H 82.6596 -3.85406 -2.84603 0
M  V30 800 H 81.0236 -1.98994 -1.58976 0
M  V30 801 H 81.8066 -3.37118 -0.648581 0
M  V30 802 N 84.2517 0.741722 -1.39055 0
M  V30 803 C 85.4767 1.53607 -1.39354 0
M  V30 804 C 85.9017 1.88096 0.0116905 0
M  V30 805 O 85.2597 1.5143 0.996924 0
M  V30 806 C 85.3077 2.80441 -2.26682 0
M  V30 807 O 84.4117 3.76088 -1.69208 0
M  V30 808 H 83.7527 0.464142 -0.474835 0
M  V30 809 H 86.2827 0.915665 -1.82967 0
M  V30 810 H 86.2927 3.29246 -2.40959 0
M  V30 811 H 84.9677 2.5467 -3.2881 0
M  V30 812 H 83.5447 3.34833 -1.64138 0
M  V30 813 N 85.7298 1.2412 0.971189 0
M  V30 814 C 86.6598 1.05508 2.08304 0
M  V30 815 C 87.6408 -0.0308864 1.70072 0
M  V30 816 O 88.8258 0.135521 1.93727 0
M  V30 817 C 85.9558 0.655365 3.4106 0
M  V30 818 C 84.9098 1.68971 3.93234 0
M  V30 819 C 84.2358 1.14516 5.22293 0
M  V30 820 C 85.5358 3.08487 4.21465 0
M  V30 821 H 87.2298 1.98507 2.24132 0
M  V30 822 H 84.7758 0.955821 1.07704 0
M  V30 823 H 86.7288 0.51217 4.18276 0
M  V30 824 H 85.4528 -0.31032 3.25122 0
M  V30 825 H 84.1118 1.82106 3.18171 0
M  V30 826 H 83.7598 0.170189 5.02712 0
M  V30 827 H 83.4598 1.83635 5.58168 0
M  V30 828 H 84.9838 1.01401 6.02121 0
M  V30 829 H 86.3978 2.98601 4.89398 0
M  V30 830 H 84.7948 3.74926 4.68562 0
M  V30 831 H 85.8648 3.56787 3.28376 0
M  V30 832 N 87.2079 -1.17134 1.05439 0
M  V30 833 C 88.1399 -2.2078 0.615539 0
M  V30 834 C 89.1529 -1.59584 -0.322001 0
M  V30 835 O 90.3419 -1.78133 -0.114344 0
M  V30 836 C 87.4419 -3.38691 -0.118938 0
M  V30 837 C 86.6149 -4.29454 0.829924 0
M  V30 838 C 85.6739 -5.26024 0.136258 0
M  V30 839 O 84.6999 -5.63952 0.77115 0
M  V30 840 N 85.9019 -5.69487 -1.1254 0
M  V30 841 H 88.6669 -2.59052 1.50705 0
M  V30 842 H 86.2279 -1.32058 0.936603 0
M  V30 843 H 88.2199 -4.00329 -0.593179 0
M  V30 844 H 86.7899 -2.98996 -0.91215 0
M  V30 845 H 86.0099 -3.65211 1.48373 0
M  V30 846 H 87.2979 -4.86984 1.47392 0
M  V30 847 H 86.6959 -5.4075 -1.6615 0
M  V30 848 H 85.2529 -6.33257 -1.54366 0
M  V30 849 N 88.686 -0.835752 -1.33615 0
M  V30 850 C 90.097 -0.487099 -1.80234 0
M  V30 851 C 90.448 0.993627 -1.69179 0
M  V30 852 O 89.573 1.77403 -1.23924 0
M  V30 853 C 90.168 -0.877385 -3.27242 0
M  V30 854 C 88.727 -0.580915 -3.7189 0
M  V30 855 C 87.874 -1.0874 -2.5509 0
M  V30 856 H 90.825 -1.02474 -1.2118 0
M  V30 857 H 90.846 -0.186195 -3.80044 0
M  V30 858 H 90.358 -1.95512 -3.35256 0
M  V30 859 H 88.459 0.486881 -3.69405 0
M  V30 860 H 88.572 -1.13396 -4.65487 0
M  V30 861 H 86.936 -0.508392 -2.49575 0
M  V30 862 H 87.719 -2.17184 -2.65868 0
M  V30 863 N 90.1641 1.46063 -0.591896 0
M  V30 864 C 91.0961 2.28539 0.174001 0
M  V30 865 C 92.1091 1.39047 0.846753 0
M  V30 866 O 93.2981 1.63564 0.714774 0
M  V30 867 C 90.3981 3.14347 1.26645 0
M  V30 868 C 89.5711 4.32021 0.683856 0
M  V30 869 C 88.6301 4.99157 1.66518 0
M  V30 870 O 87.6561 5.56458 1.19763 0
M  V30 871 N 88.8581 4.97005 2.99943 0
M  V30 872 H 91.6231 2.94911 -0.533633 0
M  V30 873 H 89.1841 1.56077 -0.430294 0
M  V30 874 H 91.1761 3.56125 1.92242 0
M  V30 875 H 89.7461 2.49988 1.87682 0
M  V30 876 H 88.9661 3.93915 -0.1498 0
M  V30 877 H 90.2541 5.08059 0.274567 0
M  V30 878 H 89.6521 4.51714 3.40545 0
M  V30 879 H 88.2091 5.42696 3.61004 0
M  V30 880 N 91.6422 0.330177 1.54103 0
M  V30 881 C 93.0532 -0.15652 1.86043 0
M  V30 882 C 93.4042 -1.51086 1.2517 0
M  V30 883 O 92.5292 -2.09023 0.560217 0
M  V30 884 C 93.1242 -0.290784 3.3755 0
M  V30 885 C 91.6832 -0.721705 3.69416 0
M  V30 886 C 90.8302 0.152622 2.7688 0
M  V30 887 H 93.7812 0.550237 1.48856 0
M  V30 888 H 93.8022 -1.12058 3.63625 0
M  V30 889 H 93.3142 0.695068 3.81825 0
M  V30 890 H 91.4152 -1.71706 3.30678 0
M  V30 891 H 91.5282 -0.520869 4.7626 0
M  V30 892 H 89.8922 -0.372894 2.51956 0
M  V30 893 H 90.6752 1.13536 3.23982 0
M  V30 894 N 93.1203 -1.57491 0.0584922 0
M  V30 895 C 94.5313 -1.80526 -0.476138 0
M  V30 896 C 94.8823 -0.971334 -1.70469 0
M  V30 897 O 94.0073 -0.190012 -2.15564 0
M  V30 898 C 94.6023 -3.27424 -0.870587 0
M  V30 899 C 93.1613 -3.51351 -1.35015 0
M  V30 900 C 92.3083 -2.75343 -0.32887 0
M  V30 901 H 95.2593 -1.56133 0.284312 0
M  V30 902 H 95.2803 -3.38745 -1.73299 0
M  V30 903 H 94.7923 -3.88093 0.0237627 0
M  V30 904 H 92.8933 -2.95971 -2.26345 0
M  V30 905 H 93.0063 -4.60059 -1.33726 0
M  V30 906 H 91.3703 -2.417 -0.803321 0
M  V30 907 H 92.1533 -3.38743 0.557521 0
M  V30 908 N 94.5984 0.214957 -1.56127 0
M  V30 909 C 95.5304 1.29004 -1.89448 0
M  V30 910 C 96.5434 1.42716 -0.783326 0
M  V30 911 O 97.7324 1.43496 -1.06166 0
M  V30 912 C 94.8324 2.66482 -2.09381 0
M  V30 913 C 94.0054 2.74633 -3.40434 0
M  V30 914 C 93.0644 3.9317 -3.49719 0
M  V30 915 O 92.0904 3.812 -4.227 0
M  V30 916 N 93.2924 5.07765 -2.81346 0
M  V30 917 H 96.0574 1.00743 -2.82261 0
M  V30 918 H 93.6184 0.40497 -1.56753 0
M  V30 919 H 95.6104 3.44173 -2.12901 0
M  V30 920 H 94.1804 2.87314 -1.23163 0
M  V30 921 H 93.4004 1.83368 -3.48955 0
M  V30 922 H 94.6884 2.77054 -4.26754 0
M  V30 923 H 94.0864 5.20386 -2.21843 0
M  V30 924 H 92.6434 5.83474 -2.90519 0
M  V30 925 N 96.0765 1.50051 0.48192 0
M  V30 926 C 97.0065 1.71046 1.58951 0
M  V30 927 C 97.9875 0.559288 1.60642 0
M  V30 928 O 99.1725 0.797243 1.77081 0
M  V30 929 C 96.3025 1.79462 2.97339 0
M  V30 930 C 95.2565 2.94558 3.10515 0
M  V30 931 C 94.5825 2.88105 4.50444 0
M  V30 932 C 95.8825 4.35227 2.88747 0
M  V30 933 H 97.5765 2.6378 1.41635 0
M  V30 934 H 95.1225 1.26936 0.679942 0
M  V30 935 H 97.0755 1.92734 3.74742 0
M  V30 936 H 95.7995 0.833412 3.15788 0
M  V30 937 H 94.4585 2.80918 2.35543 0
M  V30 938 H 94.1065 1.89853 4.65795 0
M  V30 939 H 93.8065 3.65366 4.60197 0
M  V30 940 H 95.3305 3.03412 5.29881 0
M  V30 941 H 96.7445 4.49449 3.55905 0
M  V30 942 H 95.1415 5.13856 3.09955 0
M  V30 943 H 96.2115 4.48347 1.84696 0
M  V30 944 N 97.5546 -0.734337 1.39446 0
M  V30 945 C 98.4866 -1.85861 1.34121 0
M  V30 946 C 99.4996 -1.60871 0.249864 0
M  V30 947 O 100.689 -1.71093 0.508865 0
M  V30 948 C 97.7886 -3.21899 1.05991 0
M  V30 949 C 96.9616 -3.74239 2.26415 0
M  V30 950 C 96.0206 -4.88841 1.94733 0
M  V30 951 O 95.0466 -5.02468 2.67422 0
M  V30 952 N 96.2486 -5.73261 0.913884 0
M  V30 953 H 99.0136 -1.90934 2.31007 0
M  V30 954 H 96.5746 -0.915102 1.33557 0
M  V30 955 H 98.5666 -3.96136 0.828147 0
M  V30 956 H 97.1366 -3.12091 0.178361 0
M  V30 957 H 96.3566 -2.91347 2.65539 0
M  V30 958 H 97.6446 -4.05942 3.06738 0
M  V30 959 H 97.0426 -5.64842 0.311476 0
M  V30 960 H 95.5996 -6.47563 0.742015 0
M  V30 961 N 99.0327 -1.24633 -0.964593 0
M  V30 962 C 99.9647 -0.999302 -2.06268 0
M  V30 963 C 100.978 0.0323226 -1.62768 0
M  V30 964 O 102.167 -0.205079 -1.77318 0
M  V30 965 C 99.2667 -0.486816 -3.35385 0
M  V30 966 C 98.4397 -1.5823 -4.07777 0
M  V30 967 C 97.4987 -1.07191 -5.15166 0
M  V30 968 O 96.5247 -1.76426 -5.41168 0
M  V30 969 N 97.7267 0.0920373 -5.80427 0
M  V30 970 H 100.492 -1.94477 -2.28033 0
M  V30 971 H 98.0527 -1.15704 -1.13244 0
M  V30 972 H 100.045 -0.130066 -4.04491 0
M  V30 973 H 98.6147 0.364459 -3.10468 0
M  V30 974 H 97.8347 -2.11109 -3.32906 0
M  V30 975 H 99.1227 -2.31854 -4.52903 0
M  V30 976 H 98.5207 0.670784 -5.61709 0
M  V30 977 H 97.0777 0.389905 -6.50633 0
M  V30 978 N 100.511 1.16574 -1.06058 0
M  V30 979 C 101.443 2.2045 -0.627239 0
M  V30 980 C 102.456 1.59752 0.313534 0
M  V30 981 O 103.645 1.78192 0.104896 0
M  V30 982 C 100.745 3.3875 0.100974 0
M  V30 983 C 99.9178 4.29008 -0.852687 0
M  V30 984 C 98.9768 5.25944 -0.164152 0
M  V30 985 O 98.0028 5.63535 -0.801047 0
M  V30 986 N 99.2048 5.70075 1.09518 0
M  V30 987 H 101.97 2.58249 -1.52077 0
M  V30 988 H 99.5308 1.3156 -0.943594 0
M  V30 989 H 101.523 4.00638 0.57194 0
M  V30 990 H 100.093 2.99476 0.89628 0
M  V30 991 H 99.3128 3.64419 -1.50308 0
M  V30 992 H 100.601 4.86195 -1.49972 0
M  V30 993 H 99.9988 5.41624 1.6328 0
M  V30 994 H 98.5558 6.34067 1.51006 0
M  V30 995 N 101.989 0.842826 1.3317 0
M  V30 996 C 102.921 0.236245 2.27979 0
M  V30 997 C 103.934 -0.585282 1.51915 0
M  V30 998 O 105.123 -0.411705 1.73687 0
M  V30 999 C 102.223 -0.685717 3.3189 0
M  V30 1000 C 101.396 0.0973448 4.37292 0
M  V30 1001 C 100.455 -0.748565 5.20848 0
M  V30 1002 O 99.4809 -0.186339 5.68895 0
M  V30 1003 N 100.683 -2.06527 5.42519 0
M  V30 1004 H 103.448 1.05088 2.80672 0
M  V30 1005 H 101.009 0.701667 1.45905 0
M  V30 1006 H 103.001 -1.25669 3.84694 0
M  V30 1007 H 101.571 -1.40105 2.79445 0
M  V30 1008 H 100.791 0.849706 3.84933 0
M  V30 1009 H 102.079 0.635643 5.04814 0
M  V30 1010 H 101.477 -2.54554 5.05192 0
M  V30 1011 H 100.034 -2.58464 5.98364 0
M  V30 1012 N 103.467 -1.45747 0.599634 0
M  V30 1013 C 104.399 -2.28628 -0.161879 0
M  V30 1014 C 105.412 -1.39494 -0.839367 0
M  V30 1015 O 106.601 -1.63941 -0.706089 0
M  V30 1016 C 103.701 -3.15014 -1.24976 0
M  V30 1017 C 102.874 -4.32378 -0.660935 0
M  V30 1018 C 101.933 -5.00033 -1.63869 0
M  V30 1019 O 100.959 -5.57085 -1.1681 0
M  V30 1020 N 102.161 -4.98589 -2.97303 0
M  V30 1021 H 104.926 -2.94624 0.549265 0
M  V30 1022 H 102.487 -1.55847 0.438565 0
M  V30 1023 H 104.479 -3.5714 -1.9035 0
M  V30 1024 H 103.049 -2.5098 -1.86354 0
M  V30 1025 H 102.269 -3.9383 0.170688 0
M  V30 1026 H 103.557 -5.08197 -0.247619 0
M  V30 1027 H 102.955 -4.53514 -3.38145 0
M  V30 1028 H 101.512 -5.44603 -3.58121 0
M  V30 1029 N 104.945 -0.338344 -1.53925 0
M  V30 1030 C 105.877 0.555117 -2.22376 0
M  V30 1031 C 106.89 1.06812 -1.22862 0
M  V30 1032 O 108.079 0.979163 -1.49247 0
M  V30 1033 C 105.179 1.77609 -2.88631 0
M  V30 1034 C 104.352 1.39927 -4.14414 0
M  V30 1035 C 103.411 2.47936 -4.64127 0
M  V30 1036 O 102.437 2.11461 -5.28463 0
M  V30 1037 N 103.639 3.79107 -4.39612 0
M  V30 1038 H 106.404 -0.0310778 -2.99684 0
M  V30 1039 H 103.965 -0.162226 -1.61085 0
M  V30 1040 H 105.957 2.49287 -3.18807 0
M  V30 1041 H 104.527 2.26978 -2.14941 0
M  V30 1042 H 103.747 0.513481 -3.90841 0
M  V30 1043 H 105.035 1.12341 -4.96243 0
M  V30 1044 H 104.433 4.11531 -3.88148 0
M  V30 1045 H 102.99 4.4697 -4.74406 0
M  V30 1046 N 106.423 1.57458 -0.0668435 0
M  V30 1047 C 107.355 2.09413 0.931601 0
M  V30 1048 C 108.368 1.02522 1.26464 0
M  V30 1049 O 109.557 1.30049 1.22269 0
M  V30 1050 C 106.657 2.53537 2.24882 0
M  V30 1051 C 105.83 3.83944 2.09537 0
M  V30 1052 C 104.889 4.14214 3.2452 0
M  V30 1053 O 103.915 4.83891 2.9973 0
M  V30 1054 N 105.117 3.67367 4.49469 0
M  V30 1055 H 107.882 2.95699 0.488048 0
M  V30 1056 H 105.443 1.61462 0.119009 0
M  V30 1057 H 107.435 2.70853 3.00701 0
M  V30 1058 H 106.005 1.72415 2.60753 0
M  V30 1059 H 105.225 3.76057 1.18215 0
M  V30 1060 H 106.513 4.69312 1.96529 0
M  V30 1061 H 105.911 3.11068 4.72497 0
M  V30 1062 H 104.468 3.89891 5.2233 0
M  V30 1063 N 107.901 -0.206675 1.56239 0
M  V30 1064 C 108.833 -1.27997 1.9013 0
M  V30 1065 C 109.846 -1.42299 0.790883 0
M  V30 1066 O 111.035 -1.42931 1.06925 0
M  V30 1067 C 108.135 -2.65368 2.10792 0
M  V30 1068 C 107.308 -2.72824 3.41886 0
M  V30 1069 C 106.367 -3.9131 3.51799 0
M  V30 1070 O 105.393 -3.78953 4.24716 0
M  V30 1071 N 106.595 -5.06265 2.84035 0
M  V30 1072 H 109.36 -0.992444 2.82791 0
M  V30 1073 H 106.921 -0.396652 1.56966 0
M  V30 1074 H 108.913 -3.43039 2.14724 0
M  V30 1075 H 107.483 -2.86657 1.24685 0
M  V30 1076 H 106.703 -1.81515 3.49923 0
M  V30 1077 H 107.991 -2.74786 4.28217 0
M  V30 1078 H 107.389 -5.19203 2.246 0
M  V30 1079 H 105.946 -5.81925 2.93609 0
M  V30 1080 N 109.379 -1.50304 -0.473955 0
M  V30 1081 C 110.311 -1.65109 -1.58971 0
M  V30 1082 C 111.324 -0.532676 -1.53839 0
M  V30 1083 O 112.513 -0.805751 -1.59279 0
M  V30 1084 C 109.613 -1.61684 -2.97845 0
M  V30 1085 C 108.786 -2.8951 -3.27876 0
M  V30 1086 C 107.845 -2.78768 -4.4629 0
M  V30 1087 O 106.871 -3.52722 -4.46739 0
M  V30 1088 N 108.073 -1.9213 -5.47783 0
M  V30 1089 H 110.838 -2.61347 -1.46689 0
M  V30 1090 H 108.399 -1.47732 -0.662324 0
M  V30 1091 H 110.391 -1.52114 -3.75024 0
M  V30 1092 H 108.961 -0.731925 -3.03911 0
M  V30 1093 H 108.181 -3.13228 -2.39336 0
M  V30 1094 H 109.469 -3.74199 -3.4475 0
M  V30 1095 H 108.867 -1.31353 -5.50239 0
M  V30 1096 H 107.424 -1.88466 -6.23958 0
M  V30 1097 N 110.857 0.726932 -1.39834 0
M  V30 1098 C 111.789 1.85147 -1.35104 0
M  V30 1099 C 112.802 1.60736 -0.258392 0
M  V30 1100 O 113.991 1.70821 -0.517931 0
M  V30 1101 C 111.091 3.21332 -1.07697 0
M  V30 1102 C 110.264 3.73033 -2.28396 0
M  V30 1103 C 109.323 4.87802 -1.97322 0
M  V30 1104 O 108.349 5.01043 -2.70083 0
M  V30 1105 N 109.551 5.72768 -0.944273 0
M  V30 1106 H 112.316 1.89706 -2.32017 0
M  V30 1107 H 109.877 0.908006 -1.3404 0
M  V30 1108 H 111.869 3.95691 -0.849144 0
M  V30 1109 H 110.439 3.11992 -0.194909 0
M  V30 1110 H 109.659 2.89934 -2.6708 0
M  V30 1111 H 110.947 4.0431 -3.08887 0
M  V30 1112 H 110.345 5.64669 -0.341427 0
M  V30 1113 H 108.902 6.4716 -0.776346 0
M  V30 1114 N 112.336 1.25143 0.95797 0
M  V30 1115 C 113.268 1.01023 2.05735 0
M  V30 1116 C 114.281 -0.0236902 1.62783 0
M  V30 1117 O 115.47 0.21448 1.77207 0
M  V30 1118 C 112.57 0.504595 3.35122 0
M  V30 1119 C 111.743 1.6039 4.06932 0
M  V30 1120 C 110.802 1.09922 5.14591 0
M  V30 1121 O 109.828 1.79293 5.40225 0
M  V30 1122 N 111.03 -0.0612545 5.80468 0
M  V30 1123 H 113.795 1.95683 2.26998 0
M  V30 1124 H 111.356 1.16303 1.12629 0
M  V30 1125 H 113.348 0.151516 4.04416 0
M  V30 1126 H 111.918 -0.347989 3.10657 0
M  V30 1127 H 111.138 2.12872 3.31782 0
M  V30 1128 H 112.426 2.34252 4.51667 0
M  V30 1129 H 111.824 -0.640985 5.62057 0
M  V30 1130 H 110.381 -0.355395 6.5083 0
M  V30 1131 N 113.814 -1.1601 1.06675 0
M  V30 1132 C 114.746 -2.20115 0.638921 0
M  V30 1133 C 115.759 -1.59916 -0.305057 0
M  V30 1134 O 116.948 -1.78245 -0.0954446 0
M  V30 1135 C 114.048 -3.38798 -0.0830083 0
M  V30 1136 C 113.221 -4.2855 0.875426 0
M  V30 1137 C 112.28 -5.25849 0.192042 0
M  V30 1138 O 111.306 -5.63102 0.830921 0
M  V30 1139 N 112.508 -5.70648 -1.06493 0
M  V30 1140 H 115.273 -2.57439 1.53444 0
M  V30 1141 H 112.834 -1.31057 0.950557 0
M  V30 1142 H 114.826 -4.00936 -0.550685 0
M  V30 1143 H 113.396 -2.99947 -0.880386 0
M  V30 1144 H 112.616 -3.63617 1.52238 0
M  V30 1145 H 113.904 -4.85393 1.52548 0
M  V30 1146 H 113.302 -5.42482 -1.60405 0
M  V30 1147 H 111.859 -6.34859 -1.47641 0
M  V30 1148 N 115.292 -0.849877 -1.32721 0
M  V30 1149 C 116.224 -0.248332 -2.27851 0
M  V30 1150 C 117.237 0.577218 -1.52224 0
M  V30 1151 O 118.426 0.402489 -1.73903 0
M  V30 1152 C 115.526 0.668107 -3.32249 0
M  V30 1153 C 114.699 -0.120534 -4.37234 0
M  V30 1154 C 113.758 0.720932 -5.21238 0
M  V30 1155 O 112.784 0.156166 -5.68986 0
M  V30 1156 N 113.986 2.03647 -5.43607 0
M  V30 1157 H 116.751 -1.06575 -2.80111 0
M  V30 1158 H 114.312 -0.709395 -1.45531 0
M  V30 1159 H 116.304 1.23627 -3.85355 0
M  V30 1160 H 114.874 1.38621 -2.80184 0
M  V30 1161 H 114.094 -0.870108 -3.84477 0
M  V30 1162 H 115.382 -0.662406 -5.0447 0
M  V30 1163 H 114.78 2.51871 -5.06535 0
M  V30 1164 H 113.337 2.55287 -5.99727 0
M  V30 1165 N 116.77 1.45427 -0.607355 0
M  V30 1166 C 117.702 2.2871 0.149752 0
M  V30 1167 C 118.715 1.39937 0.831958 0
M  V30 1168 O 119.904 1.64313 0.697385 0
M  V30 1169 C 117.004 3.15673 1.23304 0
M  V30 1170 C 116.177 4.32722 0.637996 0
M  V30 1171 C 115.236 5.00895 1.61215 0
M  V30 1172 O 114.262 5.57697 1.13854 0
M  V30 1173 N 115.464 5.00159 2.94655 0
M  V30 1174 H 118.229 2.94328 -0.564882 0
M  V30 1175 H 115.79 1.55612 -0.446823 0
M  V30 1176 H 117.782 3.58144 1.88454 0
M  V30 1177 H 116.352 2.51965 1.8502 0
M  V30 1178 H 115.572 3.93734 -0.191572 0
M  V30 1179 H 116.86 5.08321 0.220665 0
M  V30 1180 H 116.258 4.553 3.35735 0
M  V30 1181 H 114.815 5.46495 3.55228 0
M  V30 1182 N 118.248 0.346503 1.53744 0
M  V30 1183 C 119.18 -0.543316 2.22667 0
M  V30 1184 C 120.193 -1.06159 1.23427 0
M  V30 1185 O 121.382 -0.971235 1.49764 0
M  V30 1186 C 118.482 -1.76076 2.89569 0
M  V30 1187 C 117.655 -1.37727 4.15151 0
M  V30 1188 C 116.714 -2.45471 4.65436 0
M  V30 1189 O 115.74 -2.08655 5.29577 0
M  V30 1190 N 116.942 -3.7677 4.41616 0
M  V30 1191 H 119.707 0.0469703 2.99663 0
M  V30 1192 H 117.268 0.170766 1.60997 0
M  V30 1193 H 119.26 -2.47593 3.20125 0
M  V30 1194 H 117.83 -2.25835 2.16142 0
M  V30 1195 H 117.05 -0.492746 3.91108 0
M  V30 1196 H 118.338 -1.09708 4.96832 0
M  V30 1197 H 117.736 -4.09467 3.90325 0
M  V30 1198 H 116.293 -4.44448 4.7677 0
M  V30 1199 N 119.726 -1.57421 0.075193 0
M  V30 1200 C 120.658 -2.09904 -0.920483 0
M  V30 1201 C 121.671 -1.03191 -1.25918 0
M  V30 1202 O 122.86 -1.30695 -1.21577 0
M  V30 1203 C 119.96 -2.54726 -2.23534 0
M  V30 1204 C 119.133 -3.8505 -2.07498 0
M  V30 1205 C 118.192 -4.15929 -3.22319 0
M  V30 1206 O 117.218 -4.85474 -2.9716 0
M  V30 1207 N 118.42 -3.69745 -4.47514 0
M  V30 1208 H 121.185 -2.95954 -0.472359 0
M  V30 1209 H 118.746 -1.61523 -0.110444 0
M  V30 1210 H 120.738 -2.72443 -2.9926 0
M  V30 1211 H 119.308 -1.73795 -2.59835 0
M  V30 1212 H 118.528 -3.76679 -1.16219 0
M  V30 1213 H 119.816 -4.70348 -1.94038 0
M  V30 1214 H 119.214 -3.13569 -4.7084 0
M  V30 1215 H 117.771 -3.92655 -5.20255 0
M  V30 1216 N 121.204 0.198386 -1.56346 0
M  V30 1217 C 122.136 1.26987 -1.90806 0
M  V30 1218 C 123.149 1.41877 -0.798419 0
M  V30 1219 O 124.338 1.42362 -1.07682 0
M  V30 1220 C 121.438 2.64246 -2.12196 0
M  V30 1221 C 120.611 2.71007 -3.43328 0
M  V30 1222 C 119.67 3.89439 -3.5387 0
M  V30 1223 O 118.696 3.76695 -4.26719 0
M  V30 1224 N 119.898 5.04752 -2.86715 0
M  V30 1225 H 122.663 0.977433 -2.83313 0
M  V30 1226 H 120.224 0.388322 -1.57174 0
M  V30 1227 H 122.216 3.41896 -2.1654 0
M  V30 1228 H 120.786 2.85992 -1.26204 0
M  V30 1229 H 120.006 1.79657 -3.50881 0
M  V30 1230 H 121.294 2.72512 -4.29668 0
M  V30 1231 H 120.692 5.18004 -2.2735 0
M  V30 1232 H 119.249 5.8036 -2.96691 0
M  V30 1233 N 122.682 1.50554 0.465978 0
M  V30 1234 C 123.614 1.65949 1.58093 0
M  V30 1235 C 124.627 0.540827 1.53554 0
M  V30 1236 O 125.816 0.814187 1.5885 0
M  V30 1237 C 122.916 1.63261 2.96983 0
M  V30 1238 C 122.089 2.91245 3.26336 0
M  V30 1239 C 121.148 2.8113 4.44806 0
M  V30 1240 O 120.174 3.55086 4.44862 0
M  V30 1241 N 121.376 1.95032 5.46756 0
M  V30 1242 H 124.141 2.62122 1.45301 0
M  V30 1243 H 121.702 1.48082 0.65448 0
M  V30 1244 H 123.694 1.54101 3.74212 0
M  V30 1245 H 122.264 0.748032 3.03518 0
M  V30 1246 H 121.484 3.14493 2.37672 0
M  V30 1247 H 122.772 3.76022 3.42761 0
M  V30 1248 H 122.17 1.3427 5.49534 0
M  V30 1249 H 120.727 1.91772 6.2295 0
M  V30 1250 N 124.16 -0.719506 1.40217 0
M  V30 1251 C 125.092 -1.84428 1.36084 0
M  V30 1252 C 126.105 -1.60597 0.266913 0
M  V30 1253 O 127.294 -1.70544 0.526983 0
M  V30 1254 C 124.394 -3.20757 1.094 0
M  V30 1255 C 123.567 -3.71817 2.30372 0
M  V30 1256 C 122.626 -4.86748 1.99907 0
M  V30 1257 O 121.652 -4.99603 2.72737 0
M  V30 1258 N 122.854 -5.7226 0.974635 0
M  V30 1259 H 125.619 -1.88473 2.33019 0
M  V30 1260 H 123.18 -0.900885 1.3452 0
M  V30 1261 H 125.172 -3.95235 0.870116 0
M  V30 1262 H 123.742 -3.11884 0.211452 0
M  V30 1263 H 122.962 -2.88514 2.68614 0
M  V30 1264 H 124.25 -4.02666 3.11026 0
M  V30 1265 H 123.648 -5.6448 0.371368 0
M  V30 1266 H 122.205 -6.46739 0.810656 0
M  V30 1267 N 125.638 -1.25649 -0.95132 0
M  V30 1268 C 127.049 -1.09654 -1.51106 0
M  V30 1269 C 127.4 0.326615 -1.93462 0
M  V30 1270 O 126.525 1.21697 -1.78938 0
M  V30 1271 C 127.12 -1.98437 -2.74605 0
M  V30 1272 C 125.679 -1.86618 -3.2688 0
M  V30 1273 C 124.826 -1.9239 -1.99703 0
M  V30 1274 H 127.777 -1.38887 -0.767865 0
M  V30 1275 H 127.798 -1.5263 -3.48546 0
M  V30 1276 H 127.31 -3.02009 -2.43746 0
M  V30 1277 H 125.411 -0.859421 -3.62553 0
M  V30 1278 H 125.524 -2.71607 -3.94673 0
M  V30 1279 H 123.888 -1.36317 -2.15151 0
M  V30 1280 H 124.671 -2.97573 -1.71188 0
M  V30 1281 N 127.117 1.15442 -1.07289 0
M  V30 1282 C 128.528 1.67803 -0.818475 0
M  V30 1283 C 128.879 1.8489 0.656507 0
M  V30 1284 O 128.004 1.55176 1.50829 0
M  V30 1285 C 128.599 3.04805 -1.47917 0
M  V30 1286 C 127.158 3.54245 -1.27229 0
M  V30 1287 C 126.305 2.29986 -1.54925 0
M  V30 1288 H 129.256 0.996646 -1.23502 0
M  V30 1289 H 129.277 3.69702 -0.90005 0
M  V30 1290 H 128.789 2.92336 -2.55267 0
M  V30 1291 H 126.89 3.71956 -0.21899 0
M  V30 1292 H 127.003 4.35723 -1.99203 0
M  V30 1293 H 125.367 2.35496 -0.970242 0
M  V30 1294 H 126.15 2.20105 -2.63455 0
M  V30 1295 N 128.595 0.856903 1.32268 0
M  V30 1296 C 129.545 0.274899 2.26337 0
M  V30 1297 C 130.529 -0.580543 1.50062 0
M  V30 1298 O 131.721 -0.429559 1.71708 0
M  V30 1299 C 128.85 -0.533841 3.39124 0
M  V30 1300 C 127.936 0.334114 4.22782 0
M  V30 1301 N 128.327 1.42143 4.85416 0
M  V30 1302 C 126.625 0.124256 4.45827 0
M  V30 1303 C 127.326 1.95559 5.47843 0
M  V30 1304 N 126.302 1.25444 5.28928 0
M  V30 1305 H 130.104 1.10612 2.72291 0
M  V30 1306 H 127.618 0.703258 1.46383 0
M  V30 1307 H 129.615 -0.96722 4.05525 0
M  V30 1308 H 128.275 -1.36283 2.94715 0
M  V30 1309 H 129.286 1.80436 4.85451 0
M  V30 1310 H 125.963 -0.669837 4.12092 0
M  V30 1311 H 127.353 2.86714 6.07655 0
M  V30 1312 N 130.073 -1.45103 0.615059 0
M  V30 1313 C 131.484 -1.85654 0.197383 0
M  V30 1314 C 131.835 -1.51433 -1.24749 0
M  V30 1315 O 130.96 -0.944608 -1.94695 0
M  V30 1316 C 131.555 -3.36972 0.351448 0
M  V30 1317 C 130.114 -3.76398 -0.011593 0
M  V30 1318 C 129.261 -2.69024 0.672394 0
M  V30 1319 H 132.212 -1.35797 0.821263 0
M  V30 1320 H 132.233 -3.78239 -0.414227 0
M  V30 1321 H 131.745 -3.61847 1.40314 0
M  V30 1322 H 129.846 -3.5714 -1.06217 0
M  V30 1323 H 129.959 -4.77532 0.387265 0
M  V30 1324 H 128.323 -2.54465 0.109284 0
M  V30 1325 H 129.106 -2.96735 1.72636 0
M  V30 1326 N 131.551 -0.354651 -1.53558 0
M  V30 1327 C 132.481 0.489091 -2.2832 0
M  V30 1328 C 133.462 1.09324 -1.30316 0
M  V30 1329 O 134.647 1.11255 -1.59173 0
M  V30 1330 C 131.777 1.63456 -3.0643 0
M  V30 1331 C 130.731 1.1582 -4.12031 0
M  V30 1332 C 130.057 2.39305 -4.7816 0
M  V30 1333 C 131.357 0.250731 -5.21698 0
M  V30 1334 H 133.051 -0.134614 -2.99097 0
M  V30 1335 H 130.597 -0.0661826 -1.43848 0
M  V30 1336 H 132.55 2.23136 -3.57475 0
M  V30 1337 H 131.274 2.28533 -2.33325 0
M  V30 1338 H 129.933 0.584146 -3.61916 0
M  V30 1339 H 129.581 3.02814 -4.01637 0
M  V30 1340 H 129.281 2.08109 -5.49513 0
M  V30 1341 H 130.805 2.99691 -5.31994 0
M  V30 1342 H 132.219 0.754695 -5.68311 0
M  V30 1343 H 130.616 0.0301468 -6.00092 0
M  V30 1344 H 131.686 -0.710125 -4.79672 0
M  V30 1345 N 133.029 1.57378 -0.0835403 0
M  V30 1346 C 134.254 1.98682 0.594987 0
M  V30 1347 C 134.679 0.961969 1.61641 0
M  V30 1348 O 134.037 -0.0709989 1.81161 0
M  V30 1349 C 134.085 3.38988 1.2296 0
M  V30 1350 O 133.189 3.39208 2.34546 0
M  V30 1351 H 132.53 0.646368 0.152002 0
M  V30 1352 H 135.06 2.03961 -0.161533 0
M  V30 1353 H 135.07 3.76431 1.57366 0
M  V30 1354 H 133.745 4.13107 0.481228 0
M  V30 1355 H 132.322 3.13548 2.01846 0
M  V30 1356 N 134.507 -0.190092 1.56449 0
M  V30 1357 C 135.439 -1.25973 1.91477 0
M  V30 1358 C 136.452 -1.41452 0.805931 0
M  V30 1359 O 137.641 -1.41789 1.08435 0
M  V30 1360 C 134.741 -2.63117 2.13594 0
M  V30 1361 C 133.914 -2.69182 3.4476 0
M  V30 1362 C 132.973 -3.87557 3.5593 0
M  V30 1363 O 131.999 -3.74427 4.28711 0
M  V30 1364 N 133.201 -5.03224 2.89388 0
M  V30 1365 H 135.966 -0.962394 2.83828 0
M  V30 1366 H 133.527 -0.379981 1.57378 0
M  V30 1367 H 135.519 -3.40742 2.1835 0
M  V30 1368 H 134.089 -2.85319 1.27719 0
M  V30 1369 H 133.309 -1.77793 3.51828 0
M  V30 1370 H 134.597 -2.70229 4.31107 0
M  V30 1371 H 133.995 -5.16791 2.30094 0
M  V30 1372 H 132.552 -5.78778 2.99764 0
M  V30 1373 N 135.985 -1.50799 -0.457987 0
M  V30 1374 C 136.915 -1.73553 -1.5621 0
M  V30 1375 C 137.896 -0.584774 -1.59732 0
M  V30 1376 O 139.081 -0.825314 -1.7579 0
M  V30 1377 C 136.211 -1.84169 -2.94447 0
M  V30 1378 C 135.165 -2.99461 -3.0579 0
M  V30 1379 C 134.491 -2.95235 -4.45803 0
M  V30 1380 C 135.791 -4.39766 -2.81786 0
M  V30 1381 H 137.485 -2.66 -1.37421 0
M  V30 1382 H 135.031 -1.28002 -0.659662 0
M  V30 1383 H 136.984 -1.98672 -3.71628 0
M  V30 1384 H 135.708 -0.883545 -3.14422 0
M  V30 1385 H 134.367 -2.8463 -2.31044 0
M  V30 1386 H 134.015 -1.97239 -4.62715 0
M  V30 1387 H 133.715 -3.72642 -4.54326 0
M  V30 1388 H 135.239 -3.11803 -5.24987 0
M  V30 1389 H 136.653 -4.55054 -3.4871 0
M  V30 1390 H 135.05 -5.18722 -3.0174 0
M  V30 1391 H 136.12 -4.51229 -1.7754 0
M  V30 1392 N 137.463 0.71206 -1.40597 0
M  V30 1393 C 138.426 1.80785 -1.40888 0
M  V30 1394 C 139.426 1.57937 -0.302103 0
M  V30 1395 O 140.616 1.64913 -0.561182 0
M  V30 1396 C 137.748 3.18927 -1.20409 0
M  V30 1397 H 138.941 1.81924 -2.38419 0
M  V30 1398 H 136.494 0.91805 -1.26497 0
M  V30 1399 H 137.229 3.23436 -0.236522 0
M  V30 1400 H 137.014 3.36911 -2.00582 0
M  V30 1401 H 138.504 3.98949 -1.23408 0
M  V30 1402 N 138.941 1.26152 0.944643 0
M  V30 1403 C 139.873 1.03199 2.04652 0
M  V30 1404 C 140.886 -0.00642356 1.62799 0
M  V30 1405 O 142.075 0.233263 1.76969 0
M  V30 1406 C 139.175 0.540111 3.34568 0
M  V30 1407 C 138.348 1.64697 4.05208 0
M  V30 1408 C 137.407 1.15374 5.13396 0
M  V30 1409 O 136.433 1.85013 5.38293 0
M  V30 1410 N 137.635 0.00031529 5.805 0
M  V30 1411 H 140.4 1.9808 2.2491 0
M  V30 1412 H 137.961 1.17491 1.11389 0
M  V30 1413 H 139.953 0.194401 4.04233 0
M  V30 1414 H 138.523 -0.315021 3.11009 0
M  V30 1415 H 137.743 2.16379 3.29506 0
M  V30 1416 H 139.031 2.3903 4.49157 0
M  V30 1417 H 138.429 -0.581336 5.62705 0
M  V30 1418 H 136.986 -0.286346 6.51171 0
M  V30 1419 N 140.419 -1.14872 1.07899 0
M  V30 1420 C 141.349 -2.2193 0.725887 0
M  V30 1421 C 142.33 -1.67622 -0.28927 0
M  V30 1422 O 143.515 -1.93533 -0.160787 0
M  V30 1423 C 140.645 -3.47061 0.128856 0
M  V30 1424 C 139.599 -4.14363 1.07178 0
M  V30 1425 C 138.925 -5.33636 0.337229 0
M  V30 1426 C 140.225 -4.63492 2.40775 0
M  V30 1427 H 141.919 -2.51724 1.62097 0
M  V30 1428 H 139.465 -1.20991 0.780838 0
M  V30 1429 H 141.418 -4.21199 -0.130147 0
M  V30 1430 H 140.142 -3.16617 -0.80134 0
M  V30 1431 H 138.801 -3.42173 1.3158 0
M  V30 1432 H 138.449 -4.99449 -0.596606 0
M  V30 1433 H 138.149 -5.79609 0.965788 0
M  V30 1434 H 139.673 -6.10539 0.0861567 0
M  V30 1435 H 141.087 -5.2913 2.20669 0
M  V30 1436 H 139.484 -5.20148 2.99276 0
M  V30 1437 H 140.554 -3.78834 3.02676 0
M  V30 1438 N 141.898 -0.863906 -1.31812 0
M  V30 1439 C 142.83 -0.272485 -2.27575 0
M  V30 1440 C 143.843 0.56104 -1.52827 0
M  V30 1441 O 145.032 0.384021 -1.7432 0
M  V30 1442 C 142.132 0.63283 -3.32939 0
M  V30 1443 C 141.305 -0.166902 -4.37081 0
M  V30 1444 C 140.364 0.665608 -5.21973 0
M  V30 1445 O 139.39 0.0958091 -5.69119 0
M  V30 1446 N 140.592 1.9787 -5.45736 0
M  V30 1447 H 143.357 -1.0954 -2.78964 0
M  V30 1448 H 140.918 -0.724791 -1.4477 0
M  V30 1449 H 142.91 1.19532 -3.86645 0
M  V30 1450 H 141.48 1.35642 -2.81638 0
M  V30 1451 H 140.7 -0.910838 -3.83533 0
M  V30 1452 H 141.988 -0.715874 -5.03739 0
M  V30 1453 H 141.386 2.46484 -5.09178 0
M  V30 1454 H 139.943 2.48911 -6.024 0
M  V30 1455 N 143.376 1.44774 -0.622745 0
M  V30 1456 C 144.601 2.06999 -0.128968 0
M  V30 1457 C 145.026 1.4617 1.1839 0
M  V30 1458 O 144.384 0.560007 1.72434 0
M  V30 1459 C 144.432 3.60595 -0.0188351 0
M  V30 1460 O 143.536 3.99398 1.02739 0
M  V30 1461 H 142.877 0.659047 -0.0809544 0
M  V30 1462 H 145.407 1.85784 -0.85705 0
M  V30 1463 H 145.417 4.07627 0.174476 0
M  V30 1464 H 144.092 4.04252 -0.977384 0
M  V30 1465 H 142.669 3.64011 0.809326 0
M  V30 1466 N 144.854 0.36279 1.53368 0
M  V30 1467 C 145.786 -0.519668 2.23231 0
M  V30 1468 C 146.799 -1.04844 1.24546 0
M  V30 1469 O 147.988 -0.955296 1.50786 0
M  V30 1470 C 145.088 -1.72995 2.9142 0
M  V30 1471 C 144.261 -1.33316 4.16588 0
M  V30 1472 C 143.32 -2.40521 4.68013 0
M  V30 1473 O 142.346 -2.03027 5.3176 0
M  V30 1474 N 143.548 -3.72065 4.45587 0
M  V30 1475 H 146.313 0.078751 2.99597 0
M  V30 1476 H 143.874 0.187833 1.60807 0
M  V30 1477 H 145.866 -2.44184 3.22733 0
M  V30 1478 H 144.436 -2.2353 2.18525 0
M  V30 1479 H 143.656 -0.451236 3.91609 0
M  V30 1480 H 144.944 -1.04432 4.97967 0
M  V30 1481 H 144.342 -4.05304 3.94646 0
M  V30 1482 H 142.899 -4.39366 4.81457 0
M  V30 1483 N 146.332 -1.57332 0.0918853 0
M  V30 1484 C 147.743 -1.81496 -0.437739 0
M  V30 1485 C 148.094 -1.00727 -1.6837 0
M  V30 1486 O 147.219 -0.235694 -2.15113 0
M  V30 1487 C 147.814 -3.29197 -0.800939 0
M  V30 1488 C 146.373 -3.54136 -1.27532 0
M  V30 1489 C 145.52 -2.75979 -0.270392 0
M  V30 1490 H 148.471 -1.55494 0.317366 0
M  V30 1491 H 148.492 -3.42344 -1.66074 0
M  V30 1492 H 148.004 -3.87955 0.106078 0
M  V30 1493 H 146.105 -3.00705 -2.20016 0
M  V30 1494 H 146.218 -4.62792 -1.23938 0
M  V30 1495 H 144.582 -2.43349 -0.751872 0
M  V30 1496 H 145.365 -3.37484 0.629248 0
M  V30 1497 N 147.81 0.181792 -1.56548 0
M  V30 1498 C 149.056 0.901431 -1.81665 0
M  V30 1499 C 149.389 1.82347 -0.668075 0
M  V30 1500 O 148.664 1.91669 0.330615 0
M  V30 1501 C 148.947 1.70618 -3.17115 0
M  V30 1502 C 148.8 0.807964 -4.42484 0
M  V30 1503 C 150.119 2.67605 -3.49393 0
M  V30 1504 H 147.238 0.32627 -0.660846 0
M  V30 1505 H 149.88 0.168134 -1.89255 0
M  V30 1506 H 148.03 2.33133 -3.10775 0
M  V30 1507 H 149.702 0.19649 -4.60881 0
M  V30 1508 H 147.945 0.115411 -4.33646 0
M  V30 1509 H 148.616 1.40632 -5.33785 0
M  V30 1510 H 151.092 2.15218 -3.56118 0
M  V30 1511 H 149.968 3.20985 -4.45264 0
M  V30 1512 H 150.229 3.47298 -2.73563 0
M  V30 1513 N 149.288 1.51039 0.449983 0
M  V30 1514 C 150.238 1.67824 1.54335 0
M  V30 1515 C 151.222 0.5324 1.51836 0
M  V30 1516 O 152.414 0.787762 1.58503 0
M  V30 1517 C 149.543 1.7951 2.92628 0
M  V30 1518 C 148.629 2.99838 2.9993 0
M  V30 1519 N 149.02 4.23207 2.77001 0
M  V30 1520 C 147.318 2.98832 3.31082 0
M  V30 1521 C 148.019 5.04361 2.89818 0
M  V30 1522 N 146.995 4.38746 3.2094 0
M  V30 1523 H 150.797 2.60884 1.35339 0
M  V30 1524 H 148.311 1.48513 0.657085 0
M  V30 1525 H 150.308 1.89642 3.7127 0
M  V30 1526 H 148.968 0.876227 3.12654 0
M  V30 1527 H 149.979 4.5236 2.52172 0
M  V30 1528 H 146.656 2.16527 3.56963 0
M  V30 1529 H 148.046 6.12528 2.76151 0
M  V30 1530 N 150.766 -0.704594 1.40972 0
M  V30 1531 C 152.177 -1.28418 1.3552 0
M  V30 1532 C 152.528 -1.96171 0.0339434 0
M  V30 1533 O 151.653 -1.98231 -0.867944 0
M  V30 1534 C 152.248 -2.33528 2.45459 0
M  V30 1535 C 150.807 -2.87085 2.43433 0
M  V30 1536 C 149.954 -1.61007 2.2577 0
M  V30 1537 H 152.905 -0.499963 1.50619 0
M  V30 1538 H 152.926 -3.14619 2.13998 0
M  V30 1539 H 152.438 -1.84187 3.41609 0
M  V30 1540 H 150.539 -3.40626 1.51013 0
M  V30 1541 H 150.652 -3.3813 3.39419 0
M  V30 1542 H 149.016 -1.86482 1.73483 0
M  V30 1543 H 149.799 -1.13675 3.23933 0
M  V30 1544 N 152.244 -1.26651 -0.937939 0
M  V30 1545 C 153.492 -1.12165 -1.68118 0
M  V30 1546 C 153.813 0.334983 -1.92101 0
M  V30 1547 O 153.083 1.23583 -1.52 0
M  V30 1548 H 151.663 -0.412093 -0.623048 0
M  V30 1549 H 154.325 -1.59027 -1.12678 0
M  V30 1550 H 153.421 -1.64289 -2.6536 0
M  V30 1551 N 153.722 1.14298 -1.08507 0
M  V30 1552 C 154.652 2.21542 -0.737646 0
M  V30 1553 C 155.633 1.67773 0.280377 0
M  V30 1554 O 156.818 1.93616 0.150521 0
M  V30 1555 C 153.948 3.46988 -0.147259 0
M  V30 1556 C 152.902 4.13789 -1.09374 0
M  V30 1557 C 152.228 5.33449 -0.365524 0
M  V30 1558 C 153.528 4.62208 -2.4323 0
M  V30 1559 H 155.222 2.5086 -1.6343 0
M  V30 1560 H 152.768 1.20576 -0.787243 0
M  V30 1561 H 154.721 4.21262 0.107808 0
M  V30 1562 H 153.445 3.17037 0.784538 0
M  V30 1563 H 152.104 3.4147 -1.33393 0
M  V30 1564 H 151.752 4.99759 0.57011 0
M  V30 1565 H 151.452 5.79088 -0.996512 0
M  V30 1566 H 152.976 6.10485 -0.118534 0
M  V30 1567 H 154.39 5.27952 -2.23472 0
M  V30 1568 H 152.787 5.18553 -3.02031 0
M  V30 1569 H 153.857 3.77224 -3.04681 0
M  V30 1570 N 155.201 0.870884 1.31352 0
M  V30 1571 C 156.131 0.343096 2.30966 0
M  V30 1572 C 157.112 -0.566507 1.60389 0
M  V30 1573 O 158.297 -0.483336 1.88089 0
M  V30 1574 C 155.427 -0.455487 3.443 0
M  V30 1575 C 154.381 0.361103 4.26474 0
M  V30 1576 C 153.707 -0.563221 5.31725 0
M  V30 1577 C 155.007 1.59566 4.97329 0
M  V30 1578 H 156.701 1.17548 2.75359 0
M  V30 1579 H 154.247 0.566686 1.32381 0
M  V30 1580 H 156.2 -0.83525 4.13039 0
M  V30 1581 H 154.924 -1.32139 2.98675 0
M  V30 1582 H 153.583 0.722825 3.59403 0
M  V30 1583 H 153.231 -1.42643 4.82351 0
M  V30 1584 H 152.931 -0.0207409 5.87596 0
M  V30 1585 H 154.455 -0.939808 6.03324 0
M  V30 1586 H 155.869 1.28728 5.58661 0
M  V30 1587 H 154.266 2.07728 5.63 0
M  V30 1588 H 155.336 2.34798 4.24262 0
M  V30 1589 N 156.679 -1.44442 0.630414 0
M  V30 1590 C 157.629 -2.27794 -0.0968103 0
M  V30 1591 C 158.613 -1.38624 -0.816834 0
M  V30 1592 O 159.805 -1.62438 -0.70306 0
M  V30 1593 C 156.934 -3.25929 -1.07819 0
M  V30 1594 C 156.02 -4.22588 -0.357826 0
M  V30 1595 N 156.411 -5.0207 0.613169 0
M  V30 1596 C 154.709 -4.41914 -0.602365 0
M  V30 1597 C 155.41 -5.72351 1.03871 0
M  V30 1598 N 154.386 -5.42287 0.377642 0
M  V30 1599 H 158.188 -2.86653 0.648621 0
M  V30 1600 H 155.702 -1.55871 0.455862 0
M  V30 1601 H 157.699 -3.84399 -1.61378 0
M  V30 1602 H 156.359 -2.68631 -1.82393 0
M  V30 1603 H 157.37 -5.08331 0.990947 0
M  V30 1604 H 154.047 -3.95714 -1.33103 0
M  V30 1605 H 155.437 -6.4619 1.84086 0
M  V30 1606 N 158.157 -0.370918 -1.53173 0
M  V30 1607 C 159.382 0.220293 -2.06227 0
M  V30 1608 C 159.807 1.41243 -1.24225 0
M  V30 1609 O 159.165 1.79387 -0.262645 0
M  V30 1610 C 159.213 0.586663 -3.55796 0
M  V30 1611 O 158.317 1.68317 -3.76488 0
M  V30 1612 H 157.658 0.0308099 -0.663285 0
M  V30 1613 H 160.188 -0.533068 -1.97534 0
M  V30 1614 H 160.198 0.85617 -3.98916 0
M  V30 1615 H 158.873 -0.285013 -4.14922 0
M  V30 1616 H 157.45 1.40881 -3.45264 0
M  V30 1617 N 159.635 1.57281 -0.100228 0
M  V30 1618 C 160.86 1.99302 0.573881 0
M  V30 1619 C 161.285 0.979059 1.60611 0
M  V30 1620 O 160.643 -0.0517803 1.81226 0
M  V30 1621 C 160.691 3.40274 1.19358 0
M  V30 1622 O 159.795 3.41676 2.30935 0
M  V30 1623 H 159.136 0.647944 0.145138 0
M  V30 1624 H 161.666 2.03779 -0.183156 0
M  V30 1625 H 161.676 3.78078 1.53365 0
M  V30 1626 H 160.351 4.13594 0.437385 0
M  V30 1627 H 158.928 3.15672 1.98509 0
M  V30 1628 N 161.113 -0.173488 1.56642 0
M  V30 1629 C 162.524 -0.736155 1.71574 0
M  V30 1630 C 162.875 -1.82888 0.710389 0
M  V30 1631 O 162 -2.16017 -0.1287 0
M  V30 1632 C 162.595 -1.34211 3.11083 0
M  V30 1633 C 161.154 -1.85162 3.27707 0
M  V30 1634 C 160.301 -0.729765 2.67525 0
M  V30 1635 H 163.252 0.0518786 1.58615 0
M  V30 1636 H 163.273 -2.21178 3.09613 0
M  V30 1637 H 162.785 -0.546579 3.84232 0
M  V30 1638 H 160.886 -2.67366 2.59512 0
M  V30 1639 H 160.999 -1.99855 4.35425 0
M  V30 1640 H 159.363 -1.14965 2.27278 0
M  V30 1641 H 160.146 0.0538806 3.43258 0
M  V30 1642 N 162.591 -1.51276 -0.441967 0
M  V30 1643 C 163.819 -1.67516 -1.21434 0
M  V30 1644 C 164.234 -0.37055 -1.85128 0
M  V30 1645 O 163.591 0.650498 -1.70513 0
M  V30 1646 C 163.642 -2.78748 -2.30177 0
M  V30 1647 O 163.363 -4.04154 -1.69089 0
M  V30 1648 C 164.864 -3.06217 -3.20541 0
M  V30 1649 H 162.084 -0.562276 -0.366178 0
M  V30 1650 H 164.628 -1.97666 -0.524244 0
M  V30 1651 H 162.783 -2.5121 -2.94911 0
M  V30 1652 H 163.197 -4.65894 -2.40922 0
M  V30 1653 H 164.671 -3.8764 -3.92987 0
M  V30 1654 H 165.148 -2.18439 -3.81026 0
M  V30 1655 H 165.754 -3.35397 -2.61513 0
M  V30 1656 N 164.069 0.697108 -1.41344 0
M  V30 1657 C 165.032 1.79281 -1.42797 0
M  V30 1658 C 166.032 1.57607 -0.318837 0
M  V30 1659 O 167.222 1.64309 -0.578642 0
M  V30 1660 C 164.354 3.17632 -1.23785 0
M  V30 1661 H 165.547 1.79385 -2.40335 0
M  V30 1662 H 163.1 0.904582 -1.27464 0
M  V30 1663 H 163.835 3.23167 -0.270814 0
M  V30 1664 H 163.62 3.34765 -2.04144 0
M  V30 1665 H 165.11 3.97617 -1.27633 0
M  V30 1666 N 165.547 1.27147 0.931209 0
M  V30 1667 C 166.794 1.13278 1.67852 0
M  V30 1668 C 167.122 -0.32204 1.91815 0
M  V30 1669 O 166.377 -1.25224 1.50391 0
M  V30 1670 C 166.676 1.8579 3.05314 0
M  V30 1671 C 166.342 3.35657 3.01073 0
M  V30 1672 C 165.004 3.76536 2.99623 0
M  V30 1673 C 167.356 4.31299 2.92627 0
M  V30 1674 C 164.684 5.11426 2.87506 0
M  V30 1675 C 167.036 5.66242 2.82051 0
M  V30 1676 C 165.7 6.06418 2.7895 0
M  V30 1677 H 164.97 0.414515 0.614214 0
M  V30 1678 H 167.617 1.57712 1.08624 0
M  V30 1679 H 165.922 1.33854 3.68226 0
M  V30 1680 H 167.619 1.72491 3.62005 0
M  V30 1681 H 164.209 3.03146 3.02986 0
M  V30 1682 H 168.393 4.00692 2.92848 0
M  V30 1683 H 163.649 5.41705 2.83489 0
M  V30 1684 H 167.823 6.40026 2.74481 0
M  V30 1685 H 165.45 7.10895 2.69318 0
M  V30 1686 N 167.025 -1.13721 1.09112 0
M  V30 1687 C 168.441 -1.36914 0.820174 0
M  V30 1688 C 168.641 -1.93356 -0.567079 0
M  V30 1689 O 167.697 -2.15093 -1.32255 0
M  V30 1690 C 169.01 -2.3235 1.90877 0
M  V30 1691 C 170.558 -2.45973 1.93562 0
M  V30 1692 C 171.033 -3.44714 3.01556 0
M  V30 1693 N 172.524 -3.52263 3.00775 0
M  V30 1694 C 173.259 -4.28536 3.80978 0
M  V30 1695 N 172.755 -5.07991 4.71081 0
M  V30 1696 N 174.548 -4.23804 3.69251 0
M  V30 1697 H 166.699 -0.754348 1.98553 0
M  V30 1698 H 168.962 -0.3944 0.862063 0
M  V30 1699 H 168.668 -1.98027 2.90651 0
M  V30 1700 H 168.542 -3.32332 1.78424 0
M  V30 1701 H 170.929 -2.79584 0.944286 0
M  V30 1702 H 171.01 -1.45926 2.10093 0
M  V30 1703 H 170.654 -3.11835 4.00901 0
M  V30 1704 H 170.584 -4.44558 2.82269 0
M  V30 1705 H 173.075 -2.95567 2.35475 0
M  V30 1706 H 173.388 -5.63487 5.28869 0
M  V30 1707 H 171.733 -5.07235 4.75119 0
M  V30 1708 H 174.924 -3.60806 2.98222 0
M  V30 1709 H 175.097 -4.82995 4.31995 0
M  V30 1710 N 168.503 -0.877838 -1.30888 0
M  V30 1711 C 169.466 -0.344265 -2.266 0
M  V30 1712 C 170.466 0.50922 -1.52524 0
M  V30 1713 O 171.656 0.317398 -1.71284 0
M  V30 1714 C 168.788 0.510198 -3.37061 0
M  V30 1715 H 169.981 -1.1893 -2.7531 0
M  V30 1716 H 167.534 -0.654088 -1.41956 0
M  V30 1717 H 168.269 1.37612 -2.93655 0
M  V30 1718 H 168.054 -0.101047 -3.9197 0
M  V30 1719 H 169.544 0.875537 -4.08319 0
M  V30 1720 N 169.982 1.44106 -0.638065 0
M  V30 1721 C 171.393 1.85316 -0.226894 0
M  V30 1722 C 171.744 1.53399 1.22324 0
M  V30 1723 O 170.869 0.975463 1.93167 0
M  V30 1724 C 171.464 3.3637 -0.405013 0
M  V30 1725 C 170.023 3.76369 -0.0482902 0
M  V30 1726 C 169.17 2.67921 -0.715108 0
M  V30 1727 H 172.121 1.34474 -0.842764 0
M  V30 1728 H 172.142 3.7885 0.354 0
M  V30 1729 H 171.654 3.59569 -1.46053 0
M  V30 1730 H 169.755 3.58784 1.00522 0
M  V30 1731 H 169.868 4.76856 -0.463187 0
M  V30 1732 H 168.232 2.54259 -0.149753 0
M  V30 1733 H 169.015 2.93951 -1.77335 0
M  V30 1734 N 171.46 0.379036 1.52974 0
M  V30 1735 C 172.871 -0.0972525 1.86447 0
M  V30 1736 C 173.222 -1.47027 1.29914 0
M  V30 1737 O 172.347 -2.07135 0.626433 0
M  V30 1738 C 172.942 -0.183248 3.38304 0
M  V30 1739 C 171.501 -0.603812 3.71525 0
M  V30 1740 C 170.648 0.240632 2.76254 0
M  V30 1741 H 173.599 0.597316 1.4703 0
M  V30 1742 H 173.62 -1.00432 3.67006 0
M  V30 1743 H 173.132 0.816191 3.79421 0
M  V30 1744 H 171.233 -1.61099 3.35973 0
M  V30 1745 H 171.346 -0.369086 4.77676 0
M  V30 1746 H 169.71 -0.292548 2.53014 0
M  V30 1747 H 170.493 1.23786 3.20206 0
M  V30 1748 N 172.938 -1.57226 0.108567 0
M  V30 1749 C 174.163 -1.99604 -0.563303 0
M  V30 1750 C 174.588 -0.987563 -1.6009 0
M  V30 1751 O 173.946 0.0421687 -1.81251 0
M  V30 1752 C 173.994 -3.40902 -1.17552 0
M  V30 1753 O 173.098 -3.42896 -2.2912 0
M  V30 1754 H 172.439 -0.648704 -0.1417 0
M  V30 1755 H 174.969 -2.03679 0.193961 0
M  V30 1756 H 174.979 -3.78886 -1.51357 0
M  V30 1757 H 173.654 -4.1382 -0.415445 0
M  V30 1758 H 172.231 -3.1672 -1.96832 0
M  V30 1759 N 174.416 0.165178 -1.56732 0
M  V30 1760 C 175.641 0.900253 -1.86843 0
M  V30 1761 C 176.066 1.74766 -0.695596 0
M  V30 1762 O 175.424 1.77786 0.35522 0
M  V30 1763 C 175.472 1.74777 -3.15413 0
M  V30 1764 O 174.576 2.85007 -2.98068 0
M  V30 1765 H 173.917 0.251832 -0.614391 0
M  V30 1766 H 176.447 0.161468 -2.03962 0
M  V30 1767 H 176.457 2.14646 -3.46974 0
M  V30 1768 H 175.132 1.12537 -4.00385 0
M  V30 1769 H 173.709 2.48676 -2.77875 0
M  V30 1770 N 175.894 1.51508 0.433938 0
M  V30 1771 C 176.842 1.73646 1.54757 0
M  V30 1772 C 177.836 0.602854 1.5831 0
M  V30 1773 O 179.042 0.784318 1.62014 0
M  V30 1774 H 175.417 0.548718 0.51421 0
M  V30 1775 H 177.388 2.66991 1.33261 0
M  V30 1776 C 176.137 1.88172 2.92381 0
M  V30 1777 H 175.46 2.74808 2.90381 0
M  V30 1778 H 176.9 2.07672 3.6966 0
M  V30 1779 C 175.359 0.64239 3.30719 0
M  V30 1780 O 175.889 -0.201362 4.01195 0
M  V30 1781 N 174.095 0.485489 2.86516 0
M  V30 1782 H 173.642 1.17318 2.29334 0
M  V30 1783 H 173.6 -0.342482 3.12529 0
M  V30 1784 N 177.372 -0.689602 1.41712 0
M  V30 1785 C 178.597 -1.48329 1.44959 0
M  V30 1786 C 179.022 -1.8801 0.0581283 0
M  V30 1787 O 178.38 -1.55026 -0.940035 0
M  V30 1788 C 178.428 -2.71835 2.36935 0
M  V30 1789 O 177.532 -3.69549 1.8305 0
M  V30 1790 H 176.873 -0.446199 0.491734 0
M  V30 1791 H 179.403 -0.847127 1.86239 0
M  V30 1792 H 179.413 -3.20076 2.53013 0
M  V30 1793 H 178.088 -2.42291 3.38035 0
M  V30 1794 H 176.665 -3.2851 1.76452 0
M  V30 1795 N 178.85 -1.27639 -0.924453 0
M  V30 1796 C 180.078 -1.16989 -1.70649 0
M  V30 1797 C 180.493 0.272869 -1.86818 0
M  V30 1798 O 179.85 1.18549 -1.38753 0
M  V30 1799 C 179.901 -1.85229 -3.10439 0
M  V30 1800 O 179.622 -3.23868 -2.95028 0
M  V30 1801 C 181.123 -1.80746 -4.04779 0
M  V30 1802 H 178.343 -0.406595 -0.53378 0
M  V30 1803 H 180.887 -1.68569 -1.15778 0
M  V30 1804 H 179.042 -1.37545 -3.6216 0
M  V30 1805 H 179.456 -3.57889 -3.83426 0
M  V30 1806 H 180.93 -2.33101 -5.00368 0
M  V30 1807 H 181.407 -0.777499 -4.32263 0
M  V30 1808 H 182.013 -2.28059 -3.58984 0
M  V30 1809 N 180.328 1.1314 -1.09713 0
M  V30 1810 C 181.291 2.16831 -0.742751 0
M  V30 1811 C 182.291 1.59159 0.229129 0
M  V30 1812 O 183.481 1.74199 0.00693237 0
M  V30 1813 C 180.613 3.40756 -0.0989168 0
M  V30 1814 H 181.806 2.49695 -1.66109 0
M  V30 1815 H 179.359 1.2802 -0.896699 0
M  V30 1816 H 180.094 3.13485 0.830514 0
M  V30 1817 H 179.879 3.83888 -0.798265 0
M  V30 1818 H 181.369 4.17386 0.133524 0
M  V30 1819 N 181.806 0.884767 1.30421 0
M  V30 1820 C 183.055 0.499164 1.95426 0
M  V30 1821 C 183.368 -0.95645 1.70621 0
M  V30 1822 O 184.574 -1.44889 2.29607 0
M  V30 1823 C 183.03 0.84177 3.49917 0
M  V30 1824 C 182.638 2.31514 3.83543 0
M  V30 1825 C 184.382 0.525355 4.21237 0
M  V30 1826 C 182.289 2.59939 5.31212 0
M  V30 1827 H 181.219 0.182944 0.73147 0
M  V30 1828 H 183.87 1.07971 1.48373 0
M  V30 1829 H 182.252 0.190311 3.95542 0
M  V30 1830 H 183.426 3.0109 3.48829 0
M  V30 1831 H 181.741 2.59907 3.25326 0
M  V30 1832 H 184.338 0.714762 5.29901 0
M  V30 1833 H 184.681 -0.535222 4.12845 0
M  V30 1834 H 185.214 1.134 3.81294 0
M  V30 1835 H 181.953 3.64736 5.44654 0
M  V30 1836 H 181.473 1.94972 5.67227 0
M  V30 1837 H 183.152 2.45429 5.98643 0
M  V30 1838 N 183.284 -1.43765 0.645699 0
M  V30 1839 C 184.214 -2.33471 -0.0370477 0
M  V30 1840 C 185.195 -1.49042 -0.819779 0
M  V30 1841 O 186.38 -1.77726 -0.782758 0
M  V30 1842 C 183.51 -3.32311 -1.0093 0
M  V30 1843 C 182.464 -4.2667 -0.337201 0
M  V30 1844 C 181.79 -5.1549 -1.42037 0
M  V30 1845 C 183.09 -5.16657 0.765706 0
M  V30 1846 H 184.784 -2.90809 0.712069 0
M  V30 1847 H 182.33 -1.39834 0.343876 0
M  V30 1848 H 184.283 -3.9396 -1.49578 0
M  V30 1849 H 183.007 -2.73213 -1.78948 0
M  V30 1850 H 181.666 -3.66374 0.128771 0
M  V30 1851 H 181.314 -4.52735 -2.1918 0
M  V30 1852 H 181.014 -5.79438 -0.975966 0
M  V30 1853 H 182.538 -5.80012 -1.90838 0
M  V30 1854 H 183.952 -5.72158 0.361702 0
M  V30 1855 H 182.349 -5.89286 1.13413 0
M  V30 1856 H 183.419 -4.56796 1.62683 0
M  V30 1857 N 184.763 -0.387143 -1.52771 0
M  V30 1858 C 185.713 0.465942 -2.23188 0
M  V30 1859 C 186.697 1.03138 -1.23496 0
M  V30 1860 O 187.889 0.957845 -1.48843 0
M  V30 1861 C 185.018 1.59384 -3.04059 0
M  V30 1862 C 184.104 1.04024 -4.11144 0
M  V30 1863 N 184.495 0.211416 -5.05358 0
M  V30 1864 C 182.793 1.31295 -4.26237 0
M  V30 1865 C 183.494 -0.0941698 -5.81624 0
M  V30 1866 N 182.47 0.509207 -5.4121 0
M  V30 1867 H 186.272 -0.173856 -2.93385 0
M  V30 1868 H 183.786 -0.19633 -1.61209 0
M  V30 1869 H 185.783 2.21738 -3.53041 0
M  V30 1870 H 184.443 2.23648 -2.35397 0
M  V30 1871 H 185.454 -0.151151 -5.17679 0
M  V30 1872 H 182.131 1.95679 -3.68803 0
M  V30 1873 H 183.521 -0.765572 -6.67524 0
M  V30 1874 N 186.241 1.57166 -0.116904 0
M  V30 1875 C 187.652 1.82169 0.408809 0
M  V30 1876 C 188.003 1.03393 1.66746 0
M  V30 1877 O 187.128 0.269886 2.1471 0
M  V30 1878 C 187.723 3.30429 0.748466 0
M  V30 1879 C 186.282 3.5612 1.21882 0
M  V30 1880 C 185.429 2.76374 0.226452 0
M  V30 1881 H 188.38 1.5497 -0.342063 0
M  V30 1882 H 188.401 3.44943 1.60607 0
M  V30 1883 H 187.913 3.87737 -0.167784 0
M  V30 1884 H 186.014 3.04168 2.15204 0
M  V30 1885 H 186.127 4.64705 1.16559 0
M  V30 1886 H 184.491 2.44515 0.713063 0
M  V30 1887 H 185.274 3.3644 -0.682859 0
M  V30 1888 N 187.719 -0.156864 1.56817 0
M  V30 1889 C 188.944 -0.890331 1.87318 0
M  V30 1890 C 189.369 -1.74394 0.704855 0
M  V30 1891 O 188.727 -1.77972 -0.345786 0
M  V30 1892 C 188.775 -1.73102 3.16336 0
M  V30 1893 O 187.879 -2.83422 2.99576 0
M  V30 1894 H 187.22 -0.24857 0.615718 0
M  V30 1895 H 189.75 -0.150649 2.04045 0
M  V30 1896 H 189.76 -2.12803 3.48107 0
M  V30 1897 H 188.435 -1.10412 4.00976 0
M  V30 1898 H 187.012 -2.47199 2.7919 0
M  V30 1899 N 189.197 -1.51736 -0.425897 0
M  V30 1900 C 190.422 -1.69082 -1.20108 0
M  V30 1901 C 190.847 -0.392398 -1.83962 0
M  V30 1902 O 190.205 0.64858 -1.69302 0
M  V30 1903 C 190.253 -2.81604 -2.25237 0
M  V30 1904 O 189.357 -2.46004 -3.30992 0
M  V30 1905 H 188.698 -0.563408 -0.35138 0
M  V30 1906 H 191.228 -1.98358 -0.501512 0
M  V30 1907 H 191.238 -3.06025 -2.69838 0
M  V30 1908 H 189.913 -3.75817 -1.78142 0
M  V30 1909 H 188.49 -2.32195 -2.91787 0
M  V30 1910 N 190.675 0.682077 -1.42076 0
M  V30 1911 C 192.091 0.994324 -1.24841 0
M  V30 1912 C 192.291 2.0096 -0.147389 0
M  V30 1913 O 191.347 2.47822 0.483782 0
M  V30 1914 C 192.66 1.50607 -2.60265 0
M  V30 1915 C 194.208 1.62421 -2.6756 0
M  V30 1916 C 194.683 2.16994 -4.03333 0
M  V30 1917 N 196.174 2.24337 -4.0525 0
M  V30 1918 C 196.909 2.67621 -5.07116 0
M  V30 1919 N 196.405 3.1041 -6.19368 0
M  V30 1920 N 198.198 2.67305 -4.94474 0
M  V30 1921 H 190.349 0.00973908 -2.12398 0
M  V30 1922 H 192.612 0.0668593 -0.945639 0
M  V30 1923 H 192.318 0.834583 -3.41654 0
M  V30 1924 H 192.192 2.48602 -2.83684 0
M  V30 1925 H 194.579 2.28678 -1.86521 0
M  V30 1926 H 194.66 0.629352 -2.47937 0
M  V30 1927 H 194.304 1.51349 -4.84826 0
M  V30 1928 H 194.234 3.17258 -4.20304 0
M  V30 1929 H 196.725 1.94158 -3.24209 0
M  V30 1930 H 197.038 3.42103 -6.92954 0
M  V30 1931 H 195.383 3.08286 -6.22884 0
M  V30 1932 H 198.574 2.33233 -4.05857 0
M  V30 1933 H 198.747 3.00718 -5.73997 0
M  V30 1934 N 192.153 1.28127 0.917671 0
M  V30 1935 C 193.085 1.07517 2.02417 0
M  V30 1936 C 194.098 0.0281099 1.62776 0
M  V30 1937 O 195.287 0.270748 1.76435 0
M  V30 1938 C 192.387 0.610957 3.33347 0
M  V30 1939 C 191.56 1.73255 4.01624 0
M  V30 1940 C 190.619 1.26238 5.10833 0
M  V30 1941 O 189.645 1.96389 5.34247 0
M  V30 1942 N 190.847 0.123448 5.80369 0
M  V30 1943 H 193.612 2.02806 2.20658 0
M  V30 1944 H 191.173 1.19827 1.08871 0
M  V30 1945 H 193.165 0.280101 4.0373 0
M  V30 1946 H 191.735 -0.24898 3.11607 0
M  V30 1947 H 190.955 2.23319 3.24842 0
M  V30 1948 H 192.243 2.48503 4.43986 0
M  V30 1949 H 191.641 -0.461847 5.63812 0
M  V30 1950 H 190.198 -0.148158 6.51632 0
M  V30 1951 N 193.631 -1.12557 1.10312 0
M  V30 1952 C 194.879 -1.83675 0.843091 0
M  V30 1953 C 195.2 -1.84435 -0.633131 0
M  V30 1954 O 194.47 -1.30657 -1.45964 0
M  V30 1955 H 193.05 -0.680138 0.308904 0
M  V30 1956 H 195.712 -1.36301 1.39313 0
M  V30 1957 H 194.808 -2.87908 1.2048 0
M  V30 1958 N 195.109 -0.891671 -1.2995 0
M  V30 1959 C 196.334 -0.527932 -2.00568 0
M  V30 1960 C 196.759 0.877969 -1.66353 0
M  V30 1961 O 196.117 1.58301 -0.883762 0
M  V30 1962 C 196.165 -0.717745 -3.53385 0
M  V30 1963 O 195.269 0.233376 -4.11739 0
M  V30 1964 H 194.61 -0.20722 -0.630837 0
M  V30 1965 H 197.14 -1.20105 -1.65638 0
M  V30 1966 H 197.15 -0.619307 -4.03272 0
M  V30 1967 H 195.825 -1.74276 -3.77625 0
M  V30 1968 H 194.402 0.0880706 -3.72796 0
M  V30 1969 N 196.587 1.43421 -0.653314 0
M  V30 1970 C 197.519 2.29071 0.0769134 0
M  V30 1971 C 198.532 1.42513 0.787017 0
M  V30 1972 O 199.721 1.66449 0.644757 0
M  V30 1973 C 196.821 3.19436 1.13199 0
M  V30 1974 C 195.994 4.34533 0.500006 0
M  V30 1975 C 195.053 5.05771 1.45198 0
M  V30 1976 O 194.079 5.61037 0.960538 0
M  V30 1977 N 195.281 5.0928 2.78594 0
M  V30 1978 H 198.046 2.92382 -0.658235 0
M  V30 1979 H 195.607 1.54112 -0.496104 0
M  V30 1980 H 197.599 3.63958 1.76964 0
M  V30 1981 H 196.169 2.57724 1.7691 0
M  V30 1982 H 195.389 3.92925 -0.316738 0
M  V30 1983 H 196.677 5.08766 0.0588345 0
M  V30 1984 H 196.075 4.65751 3.2108 0
M  V30 1985 H 194.632 5.57519 3.37662 0
M  V30 1986 N 198.065 0.39524 1.52563 0
M  V30 1987 C 198.995 -0.428384 2.29537 0
M  V30 1988 C 199.976 -1.05831 1.33169 0
M  V30 1989 O 201.161 -1.06995 1.62067 0
M  V30 1990 C 198.291 -1.55274 3.10656 0
M  V30 1991 C 197.245 -1.04855 4.14957 0
M  V30 1992 C 196.571 -2.26543 4.84337 0
M  V30 1993 C 197.871 -0.112324 5.22179 0
M  V30 1994 H 199.565 0.213867 2.98635 0
M  V30 1995 H 197.111 0.104298 1.43622 0
M  V30 1996 H 199.064 -2.1358 3.63265 0
M  V30 1997 H 197.788 -2.22266 2.39302 0
M  V30 1998 H 196.447 -0.487985 3.63338 0
M  V30 1999 H 196.095 -2.92059 4.09525 0
M  V30 2000 H 195.795 -1.93466 5.54837 0
M  V30 2001 H 197.319 -2.85481 5.39753 0
M  V30 2002 H 198.733 -0.603752 5.70112 0
M  V30 2003 H 197.13 0.128968 5.99961 0
M  V30 2004 H 198.2 0.837052 4.77621 0
M  V30 2005 N 199.544 -1.57102 0.125237 0
M  V30 2006 C 200.492 -2.16905 -0.839927 0
M  V30 2007 C 201.486 -1.11998 -1.27094 0
M  V30 2008 O 202.692 -1.3029 -1.24195 0
M  V30 2009 H 199.067 -0.694252 -0.288995 0
M  V30 2010 H 201.038 -2.96774 -0.311115 0
M  V30 2011 C 199.787 -2.78795 -2.07771 0
M  V30 2012 H 199.11 -3.59221 -1.755 0
M  V30 2013 H 200.55 -3.2417 -2.73295 0
M  V30 2014 C 199.009 -1.76193 -2.87155 0
M  V30 2015 O 199.539 -1.21909 -3.82755 0
M  V30 2016 N 197.745 -1.45991 -2.51267 0
M  V30 2017 H 197.292 -1.90325 -1.73592 0
M  V30 2018 H 197.25 -0.775844 -3.04677 0
M  V30 2019 N 201.022 0.148545 -1.56898 0
M  V30 2020 C 201.952 1.18524 -2.01182 0
M  V30 2021 C 202.933 1.4489 -0.891123 0
M  V30 2022 O 204.118 1.55836 -1.15882 0
M  V30 2023 C 201.248 2.51879 -2.39112 0
M  V30 2024 C 200.202 2.40038 -3.54353 0
M  V30 2025 C 199.528 3.78089 -3.78091 0
M  V30 2026 C 200.828 1.88577 -4.87069 0
M  V30 2027 H 202.522 0.817029 -2.88036 0
M  V30 2028 H 200.068 0.391575 -1.38574 0
M  V30 2029 H 202.021 3.24627 -2.68692 0
M  V30 2030 H 200.745 2.90532 -1.49193 0
M  V30 2031 H 199.404 1.69742 -3.24936 0
M  V30 2032 H 199.052 4.14175 -2.85426 0
M  V30 2033 H 198.752 3.71028 -4.55645 0
M  V30 2034 H 200.276 4.52387 -4.10095 0
M  V30 2035 H 201.69 2.51117 -5.15377 0
M  V30 2036 H 200.087 1.9241 -5.68417 0
M  V30 2037 H 201.157 0.84136 -4.77545 0
M  V30 2038 N 202.5 1.5196 0.417844 0
M  V30 2039 C 203.448 1.75278 1.52907 0
M  V30 2040 C 204.442 0.619611 1.57662 0
M  V30 2041 O 205.648 0.801457 1.61173 0
M  V30 2042 H 202.023 0.554141 0.508362 0
M  V30 2043 H 203.994 2.68389 1.30422 0
M  V30 2044 C 202.743 1.91262 2.90369 0
M  V30 2045 H 202.066 2.77872 2.8745 0
M  V30 2046 H 203.506 2.11581 3.67436 0
M  V30 2047 C 201.965 0.677431 3.30019 0
M  V30 2048 O 202.495 -0.158799 4.01386 0
M  V30 2049 N 200.701 0.515851 2.85985 0
M  V30 2050 H 200.248 1.19744 2.28077 0
M  V30 2051 H 200.206 -0.309315 3.12875 0
M  V30 2052 N 203.978 -0.674533 1.42435 0
M  V30 2053 C 205.255 -1.4305 1.33402 0
M  V30 2054 C 205.635 -2.11081 -0.0284674 0
M  V30 2055 O 204.983 -2.03257 -1.04397 0
M  V30 2056 C 205.193 -2.43272 2.50239 0
M  V30 2057 C 206.541 -3.07907 2.92367 0
M  V30 2058 O 207.565 -2.53599 2.50132 0
M  V30 2059 O 206.424 -4.0632 3.65467 0
M  V30 2060 H 203.518 -0.638076 0.526106 0
M  V30 2061 H 206.064 -0.703235 1.54443 0
M  V30 2062 H 204.836 -1.91803 3.41068 0
M  V30 2063 H 204.459 -3.23479 2.31186 0
M  V30 2064 N 205.456 -1.28612 -0.910864 0
M  V30 2065 C 206.406 -1.09423 -2.00026 0
M  V30 2066 C 207.39 -0.0170079 -1.60891 0
M  V30 2067 O 208.582 -0.237472 -1.754 0
M  V30 2068 C 205.711 -0.76114 -3.34756 0
M  V30 2069 C 204.797 -1.87735 -3.80285 0
M  V30 2070 N 205.188 -3.11938 -3.98156 0
M  V30 2071 C 203.486 -1.76786 -4.09467 0
M  V30 2072 C 204.187 -3.84687 -4.36338 0
M  V30 2073 N 203.163 -3.12555 -4.44759 0
M  V30 2074 H 206.965 -2.03658 -2.11898 0
M  V30 2075 H 204.479 -1.19573 -1.09891 0
M  V30 2076 H 206.476 -0.604743 -4.12491 0
M  V30 2077 H 205.136 0.173403 -3.24237 0
M  V30 2078 H 206.147 -3.47516 -3.83996 0
M  V30 2079 H 202.824 -0.905284 -4.07567 0
M  V30 2080 H 204.214 -4.91518 -4.58104 0
M  V30 2081 N 206.934 1.1197 -1.10907 0
M  V30 2082 C 207.864 2.19928 -0.784473 0
M  V30 2083 C 208.845 1.6833 0.244726 0
M  V30 2084 O 210.03 1.93892 0.109418 0
M  V30 2085 C 207.16 3.46597 -0.220827 0
M  V30 2086 C 206.114 4.11376 -1.18127 0
M  V30 2087 C 205.44 5.32554 -0.478594 0
M  V30 2088 C 206.74 4.56945 -2.52979 0
M  V30 2089 H 208.434 2.47337 -1.68715 0
M  V30 2090 H 205.98 1.18879 -0.812642 0
M  V30 2091 H 207.933 4.21396 0.0184278 0
M  V30 2092 H 206.657 3.1863 0.717113 0
M  V30 2093 H 205.316 3.38564 -1.40606 0
M  V30 2094 H 204.964 5.00856 0.463976 0
M  V30 2095 H 204.664 5.76844 -1.11912 0
M  V30 2096 H 206.188 6.10096 -0.248 0
M  V30 2097 H 207.602 5.23093 -2.3462 0
M  V30 2098 H 205.999 5.1203 -3.12962 0
M  V30 2099 H 207.069 3.70676 -3.12614 0
M  V30 2100 N 208.412 0.89855 1.29475 0
M  V30 2101 C 209.342 0.39201 2.30186 0
M  V30 2102 C 210.323 -0.532359 1.61555 0
M  V30 2103 O 211.508 -0.443331 1.89072 0
M  V30 2104 C 208.638 -0.382353 3.45189 0
M  V30 2105 C 207.592 0.451483 4.25612 0
M  V30 2106 C 206.918 -0.450307 5.328 0
M  V30 2107 C 208.218 1.70079 4.93832 0
M  V30 2108 H 209.912 1.23362 2.72804 0
M  V30 2109 H 207.458 0.594638 1.31149 0
M  V30 2110 H 209.411 -0.747451 4.14718 0
M  V30 2111 H 208.135 -1.25774 3.01411 0
M  V30 2112 H 206.794 0.798897 3.57789 0
M  V30 2113 H 206.442 -1.32379 4.85268 0
M  V30 2114 H 206.142 0.103902 5.87508 0
M  V30 2115 H 207.666 -0.811623 6.05182 0
M  V30 2116 H 209.08 1.40549 5.55805 0
M  V30 2117 H 207.477 2.19623 5.58467 0
M  V30 2118 H 208.547 2.43744 4.19186 0
M  V30 2119 N 209.89 -1.43072 0.660911 0
M  V30 2120 C 211.138 -2.01323 0.177094 0
M  V30 2121 C 211.459 -1.5245 -1.2159 0
M  V30 2122 O 210.729 -0.740322 -1.81373 0
M  V30 2123 H 209.309 -0.744382 0.0624804 0
M  V30 2124 H 211.971 -1.75179 0.854305 0
M  V30 2125 H 211.067 -3.11649 0.167641 0
M  V30 2126 N 211.368 -0.403325 -1.52352 0
M  V30 2127 C 212.318 0.442244 -2.2367 0
M  V30 2128 C 213.302 1.01823 -1.24583 0
M  V30 2129 O 214.494 0.942005 -1.49851 0
M  V30 2130 C 211.623 1.5615 -3.05732 0
M  V30 2131 C 210.709 0.996575 -4.12225 0
M  V30 2132 N 211.1 0.157804 -5.05554 0
M  V30 2133 C 209.398 1.26767 -4.27605 0
M  V30 2134 C 210.099 -0.155853 -5.81491 0
M  V30 2135 N 209.075 0.451775 -5.41719 0
M  V30 2136 H 212.877 -0.204964 -2.93184 0
M  V30 2137 H 210.391 -0.213418 -1.60992 0
M  V30 2138 H 212.388 2.17981 -3.55373 0
M  V30 2139 H 211.048 2.21139 -2.37755 0
M  V30 2140 H 212.059 -0.206049 -5.1749 0
M  V30 2141 H 208.736 1.91757 -3.70858 0
M  V30 2142 H 210.126 -0.836329 -6.66675 0
M  V30 2143 N 212.846 1.57033 -0.133567 0
M  V30 2144 C 214.071 2.00475 0.531477 0
M  V30 2145 C 214.496 1.01291 1.58499 0
M  V30 2146 O 213.854 -0.0133279 1.81295 0
M  V30 2147 C 213.902 3.42729 1.12113 0
M  V30 2148 O 213.006 3.46498 2.23636 0
M  V30 2149 H 212.347 0.650876 0.131362 0
M  V30 2150 H 214.877 2.03344 -0.22634 0
M  V30 2151 H 214.887 3.81246 1.4531 0
M  V30 2152 H 213.562 4.14428 0.349557 0
M  V30 2153 H 212.139 3.19811 1.91769 0
M  V30 2154 N 214.325 -0.140222 1.56975 0
M  V30 2155 C 215.736 -0.699596 1.73097 0
M  V30 2156 C 216.087 -1.8134 0.749022 0
M  V30 2157 O 215.212 -2.16241 -0.0828503 0
M  V30 2158 C 215.807 -1.27582 3.1386 0
M  V30 2159 C 214.366 -1.78169 3.31561 0
M  V30 2160 C 213.513 -0.672855 2.69013 0
M  V30 2161 H 216.464 0.0855115 1.58469 0
M  V30 2162 H 216.485 -2.14561 3.14235 0
M  V30 2163 H 215.997 -0.464955 3.85305 0
M  V30 2164 H 214.098 -2.61801 2.65124 0
M  V30 2165 H 214.211 -1.90574 4.39566 0
M  V30 2166 H 212.575 -1.10118 2.29665 0
M  V30 2167 H 213.358 0.126679 3.43066 0
M  V30 2168 N 215.803 -1.52179 -0.40978 0
M  V30 2169 C 217.028 -1.70347 -1.18308 0
M  V30 2170 C 217.453 -0.411887 -1.83535 0
M  V30 2171 O 216.811 0.630587 -1.6998 0
M  V30 2172 C 216.859 -2.83977 -2.22238 0
M  V30 2173 O 215.963 -2.495 -3.28365 0
M  V30 2174 H 215.304 -0.567103 -0.345384 0
M  V30 2175 H 217.834 -1.98879 -0.480445 0
M  V30 2176 H 217.844 -3.0887 -2.66577 0
M  V30 2177 H 216.519 -3.77685 -1.74146 0
M  V30 2178 H 215.096 -2.35277 -2.89308 0
M  V30 2179 N 217.281 0.66697 -1.42791 0
M  V30 2180 C 218.506 1.46004 -1.47301 0
M  V30 2181 C 218.931 1.87894 -0.0880317 0
M  V30 2182 O 218.289 1.56502 0.915253 0
M  V30 2183 C 218.337 2.68031 -2.41229 0
M  V30 2184 O 217.441 3.6659 -1.88906 0
M  V30 2185 H 216.782 0.43832 -0.49877 0
M  V30 2186 H 219.312 0.817391 -1.87563 0
M  V30 2187 H 219.322 3.1601 -2.58073 0
M  V30 2188 H 217.997 2.36883 -3.41847 0
M  V30 2189 H 216.574 3.25661 -1.81656 0
M  V30 2190 N 218.759 1.29093 0.90403 0
M  V30 2191 C 219.987 1.19689 1.68766 0
M  V30 2192 C 220.402 -0.243113 1.87228 0
M  V30 2193 O 219.759 -1.16326 1.40621 0
M  V30 2194 C 219.81 1.90144 3.07453 0
M  V30 2195 O 219.531 3.2852 2.89838 0
M  V30 2196 C 221.032 1.87162 4.01852 0
M  V30 2197 H 218.252 0.415035 0.527244 0
M  V30 2198 H 220.796 1.7039 1.13082 0
M  V30 2199 H 218.951 1.43289 3.59926 0
M  V30 2200 H 219.365 3.63944 3.77684 0
M  V30 2201 H 220.839 2.41032 4.96596 0
M  V30 2202 H 221.316 0.84617 4.30972 0
M  V30 2203 H 221.922 2.33741 3.5531 0
M  V30 2204 N 220.237 -1.11381 1.11499 0
M  V30 2205 C 221.2 -2.15622 0.777153 0
M  V30 2206 C 222.2 -1.59504 -0.203779 0
M  V30 2207 O 223.39 -1.74188 0.020782 0
M  V30 2208 C 220.522 -3.40556 0.153116 0
M  V30 2209 H 221.715 -2.47021 1.70061 0
M  V30 2210 H 219.268 -1.26577 0.916952 0
M  V30 2211 H 220.003 -3.14767 -0.780536 0
M  V30 2212 H 219.788 -3.8257 0.859238 0
M  V30 2213 H 221.278 -4.17546 -0.0671044 0
M  V30 2214 N 221.715 -0.905404 -1.28997 0
M  V30 2215 C 222.943 -0.549846 -1.9946 0
M  V30 2216 C 223.358 0.866834 -1.67724 0
M  V30 2217 O 222.715 1.57298 -0.925404 0
M  V30 2218 C 222.766 -0.739387 -3.53858 0
M  V30 2219 O 222.487 -2.10031 -3.84472 0
M  V30 2220 C 223.988 -0.389541 -4.41585 0
M  V30 2221 H 221.208 -0.210429 -0.637151 0
M  V30 2222 H 223.752 -1.21632 -1.64396 0
M  V30 2223 H 221.907 -0.120023 -3.87214 0
M  V30 2224 H 222.321 -2.13385 -4.79132 0
M  V30 2225 H 223.795 -0.572972 -5.49018 0
M  V30 2226 H 224.272 0.673756 -4.34001 0
M  V30 2227 H 224.878 -0.986089 -4.1371 0
M  V30 2228 N 223.193 1.4272 -0.668489 0
M  V30 2229 C 224.418 2.06484 -0.194758 0
M  V30 2230 C 224.843 1.49862 1.13679 0
M  V30 2231 O 224.201 0.614582 1.70565 0
M  V30 2232 C 224.249 3.60353 -0.133546 0
M  V30 2233 O 223.353 4.02464 0.899806 0
M  V30 2234 H 222.694 0.656137 -0.10188 0
M  V30 2235 H 225.224 1.82964 -0.915722 0
M  V30 2236 H 225.234 4.07976 0.0447041 0
M  V30 2237 H 223.909 4.00938 -1.1055 0
M  V30 2238 H 222.486 3.66402 0.693109 0
M  V30 2239 N 224.671 0.411399 1.52136 0
M  V30 2240 C 225.919 -0.163322 2.01439 0
M  V30 2241 C 226.24 -1.45453 1.29879 0
M  V30 2242 O 225.51 -1.91225 0.4254 0
M  V30 2243 H 224.09 -0.0633447 0.744309 0
M  V30 2244 H 226.752 0.548161 1.87033 0
M  V30 2245 H 225.848 -0.357817 3.10042 0
M  V30 2246 N 226.149 -1.5696 0.141893 0
M  V30 2247 C 227.56 -1.82797 -0.379776 0
M  V30 2248 C 227.911 -1.06033 -1.6508 0
M  V30 2249 O 227.036 -0.304011 -2.14254 0
M  V30 2250 C 227.631 -3.31578 -0.695802 0
M  V30 2251 C 226.19 -3.58014 -1.16201 0
M  V30 2252 C 225.337 -2.76699 -0.182455 0
M  V30 2253 H 228.288 -1.54406 0.366675 0
M  V30 2254 H 228.309 -3.47454 -1.55099 0
M  V30 2255 H 227.821 -3.87421 0.229449 0
M  V30 2256 H 225.922 -3.07553 -2.10338 0
M  V30 2257 H 226.035 -4.66501 -1.09151 0
M  V30 2258 H 224.399 -2.45618 -0.674072 0
M  V30 2259 H 225.182 -3.35311 0.736297 0
M  V30 2260 N 227.627 0.131896 -1.57047 0
M  V30 2261 C 228.875 0.840269 -1.83804 0
M  V30 2262 C 229.196 1.81017 -0.72512 0
M  V30 2263 O 228.466 1.94272 0.251995 0
M  V30 2264 H 227.046 0.313294 -0.678127 0
M  V30 2265 H 229.708 0.122294 -1.94516 0
M  V30 2266 H 228.804 1.39335 -2.79271 0
M  V30 2267 N 229.106 1.52395 0.401703 0
M  V30 2268 C 230.354 1.66488 1.14569 0
M  V30 2269 C 230.675 0.400897 1.90835 0
M  V30 2270 O 229.945 -0.584415 1.8698 0
M  V30 2271 H 228.525 0.613672 0.425929 0
M  V30 2272 H 231.187 1.89464 0.457093 0
M  V30 2273 H 230.283 2.50942 1.85566 0
M  V30 2274 N 230.584 -0.659388 1.43143 0
M  V30 2275 C 231.832 -1.41654 1.44147 0
M  V30 2276 C 232.153 -1.94893 0.0645739 0
M  V30 2277 O 231.423 -1.74044 -0.899198 0
M  V30 2278 H 230.003 -0.525708 0.530697 0
M  V30 2279 H 232.665 -0.778097 1.78694 0
M  V30 2280 H 231.761 -2.26195 2.1504 0
M  V30 2281 N 232.062 -1.29571 -0.897171 0
M  V30 2282 C 233.287 -1.20705 -1.68656 0
M  V30 2283 C 233.712 0.228582 -1.86706 0
M  V30 2284 O 233.07 1.16494 -1.3892 0
M  V30 2285 C 233.118 -1.9282 -3.04717 0
M  V30 2286 O 232.222 -1.24697 -3.93096 0
M  V30 2287 H 231.563 -0.418126 -0.515816 0
M  V30 2288 H 234.093 -1.71183 -1.12061 0
M  V30 2289 H 234.103 -2.01372 -3.54843 0
M  V30 2290 H 232.778 -2.97239 -2.90899 0
M  V30 2291 H 231.355 -1.2442 -3.51531 0
M  V30 2292 N 233.54 1.10788 -1.12088 0
M  V30 2293 C 234.956 1.34691 -0.856186 0
M  V30 2294 C 235.156 1.94791 0.515615 0
M  V30 2295 O 234.212 2.18524 1.26505 0
M  V30 2296 C 235.525 2.27208 -1.9697 0
M  V30 2297 C 237.073 2.40755 -2.00016 0
M  V30 2298 C 237.548 3.36598 -3.1059 0
M  V30 2299 N 239.039 3.44164 -3.10008 0
M  V30 2300 C 239.774 4.18284 -3.92206 0
M  V30 2301 N 239.27 4.95322 -4.84384 0
M  V30 2302 N 241.063 4.13865 -3.80357 0
M  V30 2303 H 233.214 0.70144 -2.00483 0
M  V30 2304 H 235.477 0.371405 -0.872217 0
M  V30 2305 H 235.183 1.90251 -2.958 0
M  V30 2306 H 235.057 3.27485 -1.87172 0
M  V30 2307 H 237.444 2.76982 -1.01808 0
M  V30 2308 H 237.525 1.40305 -2.13888 0
M  V30 2309 H 237.169 3.01096 -4.09028 0
M  V30 2310 H 237.099 4.36918 -2.93956 0
M  V30 2311 H 239.59 2.8922 -2.43228 0
M  V30 2312 H 239.903 5.49267 -5.43623 0
M  V30 2313 H 238.248 4.94459 -4.884 0
M  V30 2314 H 241.439 3.52773 -3.07683 0
M  V30 2315 H 241.612 4.71372 -4.44649 0
M  V30 2316 N 235.018 0.912232 1.28515 0
M  V30 2317 C 235.968 0.370649 2.24967 0
M  V30 2318 C 236.952 -0.516375 1.52389 0
M  V30 2319 O 238.144 -0.356345 1.73376 0
M  V30 2320 C 235.273 -0.389526 3.41083 0
M  V30 2321 C 234.359 0.51313 4.20984 0
M  V30 2322 N 234.75 1.62604 4.78951 0
M  V30 2323 C 233.048 0.313235 4.44899 0
M  V30 2324 C 233.749 2.18619 5.39055 0
M  V30 2325 N 232.725 1.47765 5.23132 0
M  V30 2326 H 236.527 1.22061 2.67354 0
M  V30 2327 H 234.041 0.764712 1.43269 0
M  V30 2328 H 236.038 -0.794353 4.09262 0
M  V30 2329 H 234.698 -1.2366 3.0023 0
M  V30 2330 H 235.709 2.00864 4.77362 0
M  V30 2331 H 232.386 -0.494452 4.14562 0
M  V30 2332 H 233.776 3.12228 5.94948 0
M  V30 2333 N 236.496 -1.42363 0.676048 0
M  V30 2334 C 237.912 -1.55811 0.345718 0
M  V30 2335 C 238.112 -1.65544 -1.14879 0
M  V30 2336 O 237.168 -1.62306 -1.93424 0
M  V30 2337 C 238.481 -2.80746 1.07713 0
M  V30 2338 C 240.029 -2.9452 1.05958 0
M  V30 2339 C 240.504 -4.22318 1.77233 0
M  V30 2340 N 241.995 -4.29233 1.74108 0
M  V30 2341 C 242.73 -5.26935 2.26113 0
M  V30 2342 N 242.226 -6.30783 2.86505 0
M  V30 2343 N 244.019 -5.18741 2.1648 0
M  V30 2344 H 236.17 -1.34289 1.6456 0
M  V30 2345 H 238.433 -0.646506 0.69335 0
M  V30 2346 H 238.139 -2.79696 2.13221 0
M  V30 2347 H 238.013 -3.71676 0.64316 0
M  V30 2348 H 240.4 -2.95097 0.0128255 0
M  V30 2349 H 240.481 -2.04817 1.53244 0
M  V30 2350 H 240.125 -4.22502 2.81877 0
M  V30 2351 H 240.055 -5.10958 1.27396 0
M  V30 2352 H 242.546 -3.54814 1.30059 0
M  V30 2353 H 242.859 -7.01691 3.23805 0
M  V30 2354 H 241.204 -6.31341 2.90575 0
M  V30 2355 H 244.395 -4.36533 1.68987 0
M  V30 2356 H 244.568 -5.94721 2.57316 0
M  V30 2357 N 237.974 -0.419461 -1.51915 0
M  V30 2358 C 238.906 0.43646 -2.25006 0
M  V30 2359 C 239.919 1.00149 -1.28351 0
M  V30 2360 O 241.108 0.898674 -1.54227 0
M  V30 2361 C 238.208 1.6206 -2.9764 0
M  V30 2362 C 237.381 1.17763 -4.21249 0
M  V30 2363 C 236.44 2.22985 -4.76617 0
M  V30 2364 O 235.466 1.83151 -5.38929 0
M  V30 2365 N 236.668 3.55271 -4.59089 0
M  V30 2366 H 239.433 -0.18989 -2.99098 0
M  V30 2367 H 236.994 -0.247386 -1.59999 0
M  V30 2368 H 238.986 2.32038 -3.31573 0
M  V30 2369 H 237.556 2.15266 -2.2667 0
M  V30 2370 H 236.776 0.305582 -3.93014 0
M  V30 2371 H 238.064 0.858781 -5.015 0
M  V30 2372 H 237.462 3.90377 -4.09417 0
M  V30 2373 H 236.019 4.21195 -4.97432 0
M  V30 2374 N 239.452 1.56882 -0.150215 0
M  V30 2375 C 240.415 2.1573 0.774157 0
M  V30 2376 C 241.415 1.0999 1.17298 0
M  V30 2377 O 242.605 1.35613 1.09338 0
M  V30 2378 C 239.737 2.72302 2.05096 0
M  V30 2379 H 240.93 2.98752 0.262201 0
M  V30 2380 H 238.483 1.55985 0.099248 0
M  V30 2381 H 239.218 1.92956 2.6065 0
M  V30 2382 H 239.003 3.49665 1.77416 0
M  V30 2383 H 240.493 3.17632 2.71109 0
M  V30 2384 N 240.93 -0.123565 1.57115 0
M  V30 2385 C 242.155 -0.850398 1.89164 0
M  V30 2386 C 242.58 -1.7286 0.741688 0
M  V30 2387 O 241.938 -1.78665 -0.307958 0
M  V30 2388 C 241.986 -1.66353 3.19936 0
M  V30 2389 O 241.09 -2.77004 3.0552 0
M  V30 2390 H 240.431 -0.235454 0.620852 0
M  V30 2391 H 242.961 -0.107335 2.04318 0
M  V30 2392 H 242.971 -2.05372 3.52543 0
M  V30 2393 H 241.646 -1.01881 4.03228 0
M  V30 2394 H 240.223 -2.41221 2.84371 0
M  V30 2395 N 242.408 -1.52605 -0.393616 0
M  V30 2396 C 243.819 -1.59417 -0.971761 0
M  V30 2397 C 244.17 -0.444173 -1.91106 0
M  V30 2398 O 243.295 0.433382 -2.12016 0
M  V30 2399 C 243.89 -2.88936 -1.76921 0
M  V30 2400 C 242.449 -2.98175 -2.29714 0
M  V30 2401 C 241.596 -2.54491 -1.10135 0
M  V30 2402 H 244.547 -1.57751 -0.173317 0
M  V30 2403 H 244.568 -2.75163 -2.62804 0
M  V30 2404 H 244.08 -3.72616 -1.08532 0
M  V30 2405 H 242.181 -2.19024 -3.01429 0
M  V30 2406 H 242.294 -4.02726 -2.59517 0
M  V30 2407 H 240.658 -2.08702 -1.45999 0
M  V30 2408 H 241.441 -3.4056 -0.432874 0
M  V30 2409 N 243.887 0.651787 -1.4349 0
M  V30 2410 C 244.817 1.77621 -1.51569 0
M  V30 2411 C 245.798 1.66022 -0.370253 0
M  V30 2412 O 246.983 1.85095 -0.587658 0
M  V30 2413 C 244.113 3.16056 -1.43966 0
M  V30 2414 C 243.067 3.4242 -2.56774 0
M  V30 2415 C 242.393 4.8067 -2.34223 0
M  V30 2416 C 243.693 3.37023 -3.99015 0
M  V30 2417 H 245.387 1.71117 -2.45681 0
M  V30 2418 H 242.933 0.821825 -1.18246 0
M  V30 2419 H 244.886 3.94472 -1.48221 0
M  V30 2420 H 243.61 3.23293 -0.463586 0
M  V30 2421 H 242.269 2.66375 -2.51873 0
M  V30 2422 H 241.917 4.84585 -1.34856 0
M  V30 2423 H 241.617 4.9927 -3.09844 0
M  V30 2424 H 243.141 5.61342 -2.40265 0
M  V30 2425 H 244.555 4.05374 -4.05395 0
M  V30 2426 H 242.952 3.67159 -4.74673 0
M  V30 2427 H 244.022 2.3518 -4.2405 0
M  V30 2428 N 245.365 1.30045 0.890287 0
M  V30 2429 C 246.611 1.18737 1.64406 0
M  V30 2430 C 246.944 -0.258525 1.92472 0
M  V30 2431 O 246.219 -1.18562 1.54186 0
M  V30 2432 C 246.502 2.01087 2.98724 0
M  V30 2433 C 246.355 3.53867 2.77665 0
M  V30 2434 C 247.674 1.84457 3.9958 0
M  V30 2435 H 244.793 0.432698 0.596608 0
M  V30 2436 H 247.435 1.5962 1.0306 0
M  V30 2437 H 245.585 1.66349 3.51084 0
M  V30 2438 H 247.257 3.98637 2.32133 0
M  V30 2439 H 245.5 3.78318 2.12269 0
M  V30 2440 H 246.171 4.06772 3.7315 0
M  V30 2441 H 248.647 2.14817 3.56361 0
M  V30 2442 H 247.523 2.44411 4.91482 0
M  V30 2443 H 247.784 0.802276 4.3476 0
M  V30 2444 N 246.843 -1.10192 1.12674 0
M  V30 2445 C 247.793 -2.14754 0.765801 0
M  V30 2446 C 248.777 -1.59154 -0.236409 0
M  V30 2447 O 249.969 -1.76951 -0.0415261 0
M  V30 2448 C 247.098 -3.42563 0.224827 0
M  V30 2449 C 246.184 -4.05091 1.25548 0
M  V30 2450 N 246.575 -4.42287 2.4539 0
M  V30 2451 C 244.873 -4.32186 1.10142 0
M  V30 2452 C 245.574 -4.91441 3.11224 0
M  V30 2453 N 244.55 -4.88405 2.38666 0
M  V30 2454 H 248.352 -2.41309 1.67772 0
M  V30 2455 H 245.866 -1.27339 1.00789 0
M  V30 2456 H 247.863 -4.16868 -0.0519578 0
M  V30 2457 H 246.523 -3.17467 -0.681515 0
M  V30 2458 H 247.534 -4.33902 2.82754 0
M  V30 2459 H 244.211 -4.16735 0.252587 0
M  V30 2460 H 245.601 -5.29749 4.13298 0
M  V30 2461 N 248.321 -0.919034 -1.28029 0
M  V30 2462 C 249.737 -0.617972 -1.4715 0
M  V30 2463 C 249.937 0.835242 -1.83374 0
M  V30 2464 O 248.993 1.61388 -1.94191 0
M  V30 2465 C 250.306 -1.56041 -2.57044 0
M  V30 2466 C 251.854 -1.56769 -2.7091 0
M  V30 2467 C 252.329 -2.49688 -3.83953 0
M  V30 2468 N 253.82 -2.47845 -3.91314 0
M  V30 2469 C 254.555 -3.16437 -4.78179 0
M  V30 2470 N 254.051 -3.94376 -5.69596 0
M  V30 2471 N 255.844 -3.05498 -4.71834 0
M  V30 2472 H 247.995 -1.85866 -1.02798 0
M  V30 2473 H 250.258 -0.797506 -0.512531 0
M  V30 2474 H 249.964 -2.59671 -2.372 0
M  V30 2475 H 249.838 -1.29551 -3.54255 0
M  V30 2476 H 252.225 -0.538745 -2.90141 0
M  V30 2477 H 252.306 -1.87305 -1.74214 0
M  V30 2478 H 251.95 -3.52688 -3.65477 0
M  V30 2479 H 251.88 -2.16453 -4.80058 0
M  V30 2480 H 254.371 -1.91234 -3.25941 0
M  V30 2481 H 254.684 -4.43721 -6.32718 0
M  V30 2482 H 253.029 -3.98481 -5.69419 0
M  V30 2483 H 256.22 -2.44108 -3.99411 0
M  V30 2484 H 256.393 -3.59225 -5.39316 0
M  V30 2485 N 249.799 1.42003 -0.683588 0
M  V30 2486 C 251.215 1.55625 -0.353976 0
M  V30 2487 C 251.415 1.66151 1.14 0
M  V30 2488 O 250.471 1.63329 1.92561 0
M  V30 2489 C 251.784 2.80171 -1.092 0
M  V30 2490 C 253.332 2.93954 -1.07518 0
M  V30 2491 C 253.807 4.21372 -1.79471 0
M  V30 2492 N 255.298 4.28303 -1.76381 0
M  V30 2493 C 256.033 5.25729 -2.28904 0
M  V30 2494 N 255.529 6.29254 -2.89846 0
M  V30 2495 N 257.322 5.17586 -2.19228 0
M  V30 2496 H 249.473 1.33415 -1.6527 0
M  V30 2497 H 251.736 0.64282 -0.696769 0
M  V30 2498 H 251.442 2.78561 -2.14701 0
M  V30 2499 H 251.316 3.7133 -0.662862 0
M  V30 2500 H 253.703 2.95086 -0.028475 0
M  V30 2501 H 253.784 2.04002 -1.54328 0
M  V30 2502 H 253.428 4.21001 -2.84114 0
M  V30 2503 H 253.358 5.10275 -1.30104 0
M  V30 2504 H 255.849 3.54119 -1.31939 0
M  V30 2505 H 256.162 6.99964 -3.27522 0
M  V30 2506 H 254.507 6.29791 -2.93919 0
M  V30 2507 H 257.698 4.35631 -1.71299 0
M  V30 2508 H 257.871 5.93348 -2.60466 0
M  V30 2509 N 251.277 0.427512 1.51691 0
M  V30 2510 C 252.554 -0.201684 1.94557 0
M  V30 2511 C 252.934 -1.60981 1.36559 0
M  V30 2512 O 252.282 -2.21814 0.548702 0
M  V30 2513 C 252.492 -0.189394 3.48486 0
M  V30 2514 C 253.84 -0.39978 4.22714 0
M  V30 2515 O 254.864 -0.267945 3.55191 0
M  V30 2516 O 253.723 -0.661249 5.42485 0
M  V30 2517 H 250.817 -0.135261 0.815864 0
M  V30 2518 H 253.363 0.484782 1.62628 0
M  V30 2519 H 252.135 0.795431 3.8313 0
M  V30 2520 H 251.758 -0.919187 3.86829 0
M  V30 2521 N 252.755 -1.56801 0.158532 0
M  V30 2522 C 253.98 -2.01295 -0.499516 0
M  V30 2523 C 254.405 -1.03799 -1.56867 0
M  V30 2524 O 253.763 -0.0155162 -1.81293 0
M  V30 2525 C 253.811 -3.44469 -1.06647 0
M  V30 2526 O 252.915 -3.50012 -2.18095 0
M  V30 2527 H 252.256 -0.652884 -0.12099 0
M  V30 2528 H 254.786 -2.02958 0.258661 0
M  V30 2529 H 254.796 -3.8351 -1.39227 0
M  V30 2530 H 253.471 -4.14932 -0.283581 0
M  V30 2531 H 252.048 -3.22822 -1.86656 0
M  V30 2532 N 254.233 0.115231 -1.57178 0
M  V30 2533 C 255.181 1.16014 -2.01602 0
M  V30 2534 C 256.175 1.42653 -0.913587 0
M  V30 2535 O 257.381 1.42571 -1.09879 0
M  V30 2536 H 253.756 0.391252 -0.642204 0
M  V30 2537 H 255.727 0.758998 -2.88586 0
M  V30 2538 C 254.476 2.47767 -2.4394 0
M  V30 2539 H 253.799 2.28108 -3.28339 0
M  V30 2540 H 255.239 3.19432 -2.78818 0
M  V30 2541 C 253.698 3.10617 -1.30455 0
M  V30 2542 O 254.228 3.96846 -0.622585 0
M  V30 2543 N 252.434 2.70553 -1.06064 0
M  V30 2544 H 251.981 2.00527 -1.61699 0
M  V30 2545 H 251.939 3.12934 -0.303284 0
M  V30 2546 N 255.711 1.52812 0.385517 0
M  V30 2547 C 257.122 1.5993 0.963293 0
M  V30 2548 C 257.473 0.454302 1.90868 0
M  V30 2549 O 256.598 -0.422132 2.12243 0
M  V30 2550 C 257.193 2.89871 1.75387 0
M  V30 2551 C 255.752 2.99389 2.28129 0
M  V30 2552 C 254.899 2.55071 1.08783 0
M  V30 2553 H 257.85 1.5784 0.164948 0
M  V30 2554 H 257.871 2.76553 2.61341 0
M  V30 2555 H 257.383 3.73186 1.06554 0
M  V30 2556 H 255.484 2.20619 3.00263 0
M  V30 2557 H 255.597 4.04096 2.57377 0
M  V30 2558 H 253.961 2.09473 1.4489 0
M  V30 2559 H 254.744 3.40785 0.414807 0
M  V30 2560 N 257.189 -0.644168 1.43834 0
M  V30 2561 C 258.436 -1.40395 1.4593 0
M  V30 2562 C 258.764 -1.94305 0.0869658 0
M  V30 2563 O 258.019 -1.73288 -0.909378 0
M  V30 2564 C 258.318 -2.59615 2.45631 0
M  V30 2565 C 257.984 -2.2407 3.91284 0
M  V30 2566 C 256.646 -2.14089 4.30952 0
M  V30 2567 C 258.998 -1.95775 4.83034 0
M  V30 2568 C 256.326 -1.73981 5.6031 0
M  V30 2569 C 258.678 -1.57163 6.12766 0
M  V30 2570 C 257.342 -1.45713 6.51402 0
M  V30 2571 H 256.612 -0.513741 0.533995 0
M  V30 2572 H 259.259 -0.731724 1.76969 0
M  V30 2573 H 257.564 -3.32011 2.08028 0
M  V30 2574 H 259.261 -3.17834 2.44504 0
M  V30 2575 H 255.851 -2.32753 3.59895 0
M  V30 2576 H 260.035 -2.02403 4.53152 0
M  V30 2577 H 255.291 -1.63709 5.89075 0
M  V30 2578 H 259.465 -1.34303 6.83327 0
M  V30 2579 H 257.092 -1.14406 7.51542 0
M  V30 2580 N 258.668 -1.30515 -0.883378 0
M  V30 2581 C 259.896 -1.22359 -1.66841 0
M  V30 2582 C 260.311 0.213296 -1.87591 0
M  V30 2583 O 259.668 1.14075 -1.42454 0
M  V30 2584 C 259.719 -1.95011 -3.04389 0
M  V30 2585 O 259.44 -3.3309 -2.84575 0
M  V30 2586 C 260.941 -1.93532 -3.98824 0
M  V30 2587 H 258.161 -0.423371 -0.520575 0
M  V30 2588 H 260.705 -1.72167 -1.10357 0
M  V30 2589 H 258.86 -1.48997 -3.57601 0
M  V30 2590 H 259.274 -3.69907 -3.71846 0
M  V30 2591 H 260.748 -2.48902 -4.92699 0
M  V30 2592 H 261.225 -0.914627 -4.29571 0
M  V30 2593 H 261.831 -2.39364 -3.51547 0
M  V30 2594 N 260.146 1.09593 -1.13257 0
M  V30 2595 C 261.056 2.19739 -0.821691 0
M  V30 2596 C 262.072 1.72926 0.19302 0
M  V30 2597 O 263.248 2.01385 0.0244895 0
M  V30 2598 C 260.313 3.45482 -0.290333 0
M  V30 2599 C 259.374 4.06985 -1.36607 0
M  V30 2600 C 258.607 5.26726 -0.859975 0
M  V30 2601 O 258.83 5.69594 0.303082 0
M  V30 2602 O 257.764 5.7931 -1.63351 0
M  V30 2603 H 261.59 2.48781 -1.74189 0
M  V30 2604 H 259.175 1.18496 -0.909894 0
M  V30 2605 H 261.057 4.214 0.000674022 0
M  V30 2606 H 259.732 3.18047 0.602306 0
M  V30 2607 H 258.639 3.32712 -1.71037 0
M  V30 2608 H 259.972 4.38643 -2.23279 0
M  V30 2609 N 261.624 0.925811 1.2754 0
M  V30 2610 C 262.873 0.561084 1.93739 0
M  V30 2611 C 263.186 -0.901685 1.73577 0
M  V30 2612 O 264.392 -1.37511 2.34101 0
M  V30 2613 C 262.848 0.952668 3.47062 0
M  V30 2614 C 262.456 2.43599 3.75983 0
M  V30 2615 C 264.2 0.659103 4.19352 0
M  V30 2616 C 262.107 2.76707 5.22673 0
M  V30 2617 H 261.037 0.206122 0.725279 0
M  V30 2618 H 263.688 1.12637 1.44863 0
M  V30 2619 H 262.07 0.316053 3.94737 0
M  V30 2620 H 263.244 3.12035 3.39073 0
M  V30 2621 H 261.559 2.70125 3.16893 0
M  V30 2622 H 264.156 0.882985 5.27359 0
M  V30 2623 H 264.499 -0.403607 4.14339 0
M  V30 2624 H 265.032 1.25473 3.77494 0
M  V30 2625 H 261.771 3.8188 5.32774 0
M  V30 2626 H 261.291 2.12919 5.60737 0
M  V30 2627 H 262.97 2.6435 5.90532 0
M  V30 2628 N 263.102 -1.41638 0.69111 0
M  V30 2629 C 264.065 -2.29178 0.0319786 0
M  V30 2630 C 265.065 -1.44153 -0.712496 0
M  V30 2631 O 266.255 -1.65354 -0.548053 0
M  V30 2632 C 263.387 -3.26952 -0.965161 0
M  V30 2633 H 264.58 -2.88959 0.802681 0
M  V30 2634 H 262.133 -1.4955 0.454356 0
M  V30 2635 H 262.868 -2.72142 -1.76378 0
M  V30 2636 H 262.653 -3.89685 -0.434522 0
M  V30 2637 H 264.143 -3.92561 -1.42428 0
M  V30 2638 N 264.58 -0.43555 -1.51462 0
M  V30 2639 C 265.513 0.421989 -2.24264 0
M  V30 2640 C 266.491 1.02619 -1.26127 0
M  V30 2641 O 267.675 1.069 -1.55257 0
M  V30 2642 C 264.802 1.588 -2.99166 0
M  V30 2643 C 263.848 1.10465 -4.11946 0
M  V30 2644 S 264.681 0.048146 -5.35478 0
M  V30 2645 C 265.837 1.21887 -6.13917 0
M  V30 2646 H 266.07 -0.196102 -2.96653 0
M  V30 2647 H 263.603 -0.220054 -1.52824 0
M  V30 2648 H 265.561 2.25647 -3.42919 0
M  V30 2649 H 264.222 2.1775 -2.26371 0
M  V30 2650 H 263.415 1.97654 -4.63626 0
M  V30 2651 H 263.017 0.51445 -3.70445 0
M  V30 2652 H 265.309 2.13756 -6.42895 0
M  V30 2653 H 266.252 0.742076 -7.04201 0
M  V30 2654 H 266.66 1.45663 -5.45383 0
M  V30 2655 N 266.058 1.56714 -0.166846 0
M  V30 2656 C 267.283 2.01557 0.488833 0
M  V30 2657 C 267.708 1.0463 1.56314 0
M  V30 2658 O 267.066 0.0251304 1.81283 0
M  V30 2659 C 267.114 3.4503 1.04818 0
M  V30 2660 O 266.218 3.51163 2.16236 0
M  V30 2661 H 265.559 0.653516 0.117526 0
M  V30 2662 H 268.089 2.02818 -0.269421 0
M  V30 2663 H 268.099 3.84243 1.37191 0
M  V30 2664 H 266.774 4.15077 0.261572 0
M  V30 2665 H 265.351 3.23807 1.84942 0
M  V30 2666 N 267.536 -0.106894 1.57237 0
M  V30 2667 C 268.761 -0.830287 1.90055 0
M  V30 2668 C 269.186 -1.72064 0.75998 0
M  V30 2669 O 268.544 -1.78982 -0.288991 0
M  V30 2670 C 268.592 -1.6295 3.21683 0
M  V30 2671 O 267.696 -2.73748 3.08441 0
M  V30 2672 H 267.037 -0.228855 0.623315 0
M  V30 2673 H 269.567 -0.085658 2.04421 0
M  V30 2674 H 269.577 -2.01621 3.54701 0
M  V30 2675 H 268.252 -0.975989 4.04286 0
M  V30 2676 H 266.829 -2.38192 2.86913 0
M  V30 2677 N 269.014 -1.53014 -0.377408 0
M  V30 2678 C 270.254 -1.70318 -1.1301 0
M  V30 2679 C 270.618 -0.439538 -1.86901 0
M  V30 2680 O 271.819 -0.489095 -2.64313 0
M  V30 2681 C 270.09 -2.91125 -2.07319 0
M  V30 2682 S 271.649 -3.29075 -2.90268 0
M  V30 2683 H 268.467 -0.599426 -0.382374 0
M  V30 2684 H 271.069 -1.91089 -0.412933 0
M  V30 2685 H 269.773 -3.81303 -1.51777 0
M  V30 2686 H 269.304 -2.7272 -2.83526 0
M  V30 2687 H 271.319 -2.80165 -4.09539 0
M  V30 2688 N 270.492 0.636531 -1.44174 0
M  V30 2689 C 271.439 1.74875 -1.50624 0
M  V30 2690 C 272.409 1.62275 -0.35442 0
M  V30 2691 O 273.594 1.82276 -0.563908 0
M  V30 2692 C 270.734 3.13102 -1.45125 0
M  V30 2693 C 269.847 3.36717 -2.7064 0
M  V30 2694 C 268.982 4.64885 -2.57013 0
M  V30 2695 C 268.021 4.8166 -3.77717 0
M  V30 2696 N 267.158 6.01101 -3.62798 0
M  V30 2697 H 271.998 1.68697 -2.45653 0
M  V30 2698 H 269.535 0.823004 -1.21922 0
M  V30 2699 H 271.493 3.93034 -1.39929 0
M  V30 2700 H 270.123 3.18308 -0.536671 0
M  V30 2701 H 269.175 2.50763 -2.86046 0
M  V30 2702 H 270.487 3.44993 -3.60252 0
M  V30 2703 H 269.641 5.52969 -2.49619 0
M  V30 2704 H 268.38 4.58957 -1.64953 0
M  V30 2705 H 267.385 3.92007 -3.85501 0
M  V30 2706 H 268.61 4.89406 -4.70807 0
M  V30 2707 H 266.556 5.96273 -2.73486 0
M  V30 2708 H 266.473 6.10409 -4.46023 0
M  V30 2709 H 267.741 6.91761 -3.59286 0
M  V30 2710 N 271.97 1.30982 0.876444 0
M  V30 2711 C 273.2 1.23063 1.65949 0
M  V30 2712 C 273.608 -0.207537 1.88058 0
M  V30 2713 O 272.951 -1.14781 1.43426 0
M  V30 2714 C 273.013 1.89768 3.05333 0
M  V30 2715 C 272.677 3.39106 3.0636 0
M  V30 2716 C 273.674 4.3496 2.84791 0
M  V30 2717 C 271.359 3.80693 3.27686 0
M  V30 2718 C 273.353 5.70375 2.84519 0
M  V30 2719 C 271.04 5.16223 3.27043 0
M  V30 2720 C 272.038 6.10875 3.05485 0
M  V30 2721 O 271.726 7.43928 3.04674 0
M  V30 2722 H 271.458 0.426685 0.524324 0
M  V30 2723 H 274.012 1.7329 1.10271 0
M  V30 2724 H 272.242 1.34082 3.6271 0
M  V30 2725 H 273.931 1.75853 3.65829 0
M  V30 2726 H 274.697 4.0416 2.68103 0
M  V30 2727 H 270.576 3.07457 3.43499 0
M  V30 2728 H 274.12 6.44228 2.67611 0
M  V30 2729 H 270.017 5.4666 3.43269 0
M  V30 2730 H 270.785 7.53022 3.2078 0
M  V30 2731 N 273.449 -1.08991 1.13837 0
M  V30 2732 C 274.674 -1.85551 0.926585 0
M  V30 2733 C 275.099 -1.80782 -0.519566 0
M  V30 2734 O 274.457 -1.18855 -1.36906 0
M  V30 2735 C 274.505 -3.31266 1.42462 0
M  V30 2736 O 273.609 -4.07822 0.612789 0
M  V30 2737 H 272.95 -0.575192 0.331738 0
M  V30 2738 H 275.48 -1.37604 1.51414 0
M  V30 2739 H 275.49 -3.82112 1.43019 0
M  V30 2740 H 274.165 -3.34052 2.47754 0
M  V30 2741 H 272.742 -3.66731 0.675463 0
M  V30 2742 N 274.927 -0.932562 -1.27047 0
M  V30 2743 C 276.175 -0.574422 -1.93765 0
M  V30 2744 C 276.496 0.887993 -1.73608 0
M  V30 2745 O 275.766 1.62999 -1.08665 0
M  V30 2746 H 274.346 -0.209451 -0.717035 0
M  V30 2747 H 277.008 -1.18601 -1.5466 0
M  V30 2748 H 276.104 -0.784841 -3.02071 0
M  V30 2749 N 276.405 1.4127 -0.698611 0
M  V30 2750 C 277.653 2.00782 -0.230409 0
M  V30 2751 C 277.974 1.5562 1.17505 0
M  V30 2752 O 277.244 0.78815 1.79346 0
M  V30 2753 H 275.824 0.742464 -0.0821944 0
M  V30 2754 H 278.486 1.72852 -0.90045 0
M  V30 2755 H 277.582 3.11095 -0.25021 0
M  V30 2756 N 277.883 0.443576 1.51229 0
M  V30 2757 C 279.129 -0.120975 2.02439 0
M  V30 2758 C 279.462 -1.41815 1.32674 0
M  V30 2759 O 278.737 -1.89373 0.443622 0
M  V30 2760 C 279.02 -0.333291 3.58554 0
M  V30 2761 C 278.873 0.982968 4.38928 0
M  V30 2762 C 280.192 -1.10028 4.26124 0
M  V30 2763 H 277.311 -0.0424923 0.735774 0
M  V30 2764 H 279.953 0.583794 1.80809 0
M  V30 2765 H 278.103 -0.933614 3.77115 0
M  V30 2766 H 279.775 1.61775 4.32003 0
M  V30 2767 H 278.018 1.58611 4.03763 0
M  V30 2768 H 278.689 0.788379 5.46341 0
M  V30 2769 H 281.165 -0.591711 4.11871 0
M  V30 2770 H 280.041 -1.21761 5.35225 0
M  V30 2771 H 280.302 -2.12996 3.87408 0
M  V30 2772 N 279.361 -1.56624 0.175154 0
M  V30 2773 C 280.294 -2.14 -0.792412 0
M  V30 2774 C 281.272 -1.07114 -1.22333 0
M  V30 2775 O 282.456 -1.35112 -1.31442 0
M  V30 2776 C 279.583 -2.68268 -2.0676 0
M  V30 2777 C 278.629 -3.87562 -1.7804 0
M  V30 2778 S 279.462 -5.27074 -0.946222 0
M  V30 2779 C 280.618 -5.8475 -2.23199 0
M  V30 2780 H 280.851 -2.95736 -0.304588 0
M  V30 2781 H 278.384 -1.54349 -0.0395705 0
M  V30 2782 H 280.342 -3.00182 -2.80002 0
M  V30 2783 H 279.003 -1.86612 -2.52656 0
M  V30 2784 H 278.196 -4.23874 -2.72666 0
M  V30 2785 H 277.798 -3.56555 -1.12891 0
M  V30 2786 H 280.09 -5.97898 -3.18629 0
M  V30 2787 H 281.033 -6.81756 -1.91349 0
M  V30 2788 H 281.441 -5.13198 -2.35134 0
M  V30 2789 N 280.839 0.0985539 -1.57292 0
M  V30 2790 C 281.786 1.11981 -2.01814 0
M  V30 2791 C 282.756 1.39999 -0.89384 0
M  V30 2792 O 283.941 1.5152 -1.15958 0
M  V30 2793 C 281.081 2.43577 -2.44467 0
M  V30 2794 C 280.194 2.2232 -3.70402 0
M  V30 2795 C 279.329 3.4729 -4.01949 0
M  V30 2796 C 278.368 3.2128 -5.21005 0
M  V30 2797 N 277.505 4.38507 -5.48321 0
M  V30 2798 H 282.345 0.733149 -2.88841 0
M  V30 2799 H 279.882 0.350482 -1.42864 0
M  V30 2800 H 281.84 3.20373 -2.6724 0
M  V30 2801 H 280.47 2.80097 -1.60455 0
M  V30 2802 H 279.522 1.36343 -3.55126 0
M  V30 2803 H 280.834 1.99089 -4.57345 0
M  V30 2804 H 279.988 4.32495 -4.25479 0
M  V30 2805 H 278.727 3.73572 -3.13521 0
M  V30 2806 H 277.732 2.34468 -4.97298 0
M  V30 2807 H 278.957 2.96348 -6.11028 0
M  V30 2808 H 276.903 4.64871 -4.62851 0
M  V30 2809 H 276.82 4.18455 -6.29628 0
M  V30 2810 H 278.088 5.24787 -5.76385 0
M  V30 2811 N 282.317 1.53212 0.369288 0
M  V30 2812 C 283.728 1.60943 0.946276 0
M  V30 2813 C 284.079 0.47452 1.90375 0
M  V30 2814 O 283.204 -0.399597 2.12679 0
M  V30 2815 C 283.799 2.91715 1.72302 0
M  V30 2816 C 282.358 3.01792 2.24941 0
M  V30 2817 C 281.505 2.56211 1.06072 0
M  V30 2818 H 284.456 1.58007 0.148198 0
M  V30 2819 H 284.477 2.79309 2.58393 0
M  V30 2820 H 283.989 3.74295 1.0259 0
M  V30 2821 H 282.09 2.23791 2.97906 0
M  V30 2822 H 282.203 4.06803 2.53077 0
M  V30 2823 H 280.567 2.10998 1.4266 0
M  V30 2824 H 281.35 3.41206 0.378639 0
M  V30 2825 N 283.795 -0.628877 1.44509 0
M  V30 2826 C 284.725 -1.75187 1.54376 0
M  V30 2827 C 285.706 -1.65411 0.396618 0
M  V30 2828 O 286.891 -1.84137 0.617031 0
M  V30 2829 C 284.021 -3.13725 1.48976 0
M  V30 2830 C 282.975 -3.38291 2.62189 0
M  V30 2831 C 282.301 -4.76883 2.41841 0
M  V30 2832 C 283.601 -3.30632 4.04326 0
M  V30 2833 H 285.295 -1.67187 2.48373 0
M  V30 2834 H 282.841 -0.802909 1.19538 0
M  V30 2835 H 284.794 -3.92064 1.54478 0
M  V30 2836 H 283.518 -3.22515 0.514961 0
M  V30 2837 H 282.177 -2.62334 2.56079 0
M  V30 2838 H 281.825 -4.82378 1.42548 0
M  V30 2839 H 281.525 -4.94278 3.17747 0
M  V30 2840 H 283.049 -5.57449 2.49165 0
M  V30 2841 H 284.463 -3.98873 4.11793 0
M  V30 2842 H 282.86 -3.59561 4.80454 0
M  V30 2843 H 283.93 -2.28404 4.27738 0
M  V30 2844 N 285.273 -1.31445 -0.869486 0
M  V30 2845 C 286.498 -1.24256 -1.66058 0
M  V30 2846 C 286.923 0.188928 -1.87149 0
M  V30 2847 O 286.281 1.13522 -1.4136 0
M  V30 2848 C 286.329 -1.9924 -3.00559 0
M  V30 2849 O 285.433 -1.33007 -3.90362 0
M  V30 2850 H 284.774 -0.428973 -0.506831 0
M  V30 2851 H 287.304 -1.73521 -1.08404 0
M  V30 2852 H 287.314 -2.08854 -3.50491 0
M  V30 2853 H 285.989 -3.03342 -2.84528 0
M  V30 2854 H 284.566 -1.31848 -3.48813 0
M  V30 2855 N 286.751 1.08385 -1.14413 0
M  V30 2856 C 288.167 1.32844 -0.884563 0
M  V30 2857 C 288.367 1.95841 0.474181 0
M  V30 2858 O 287.423 2.21158 1.21842 0
M  V30 2859 C 288.736 2.22978 -2.01745 0
M  V30 2860 C 290.284 2.36458 -2.05077 0
M  V30 2861 C 290.759 3.29934 -3.1766 0
M  V30 2862 N 292.25 3.37511 -3.17239 0
M  V30 2863 C 292.985 4.09871 -4.0099 0
M  V30 2864 N 292.481 4.84936 -4.94781 0
M  V30 2865 N 294.274 4.05704 -3.89051 0
M  V30 2866 H 286.425 0.658756 -2.01926 0
M  V30 2867 H 288.688 0.352821 -0.879899 0
M  V30 2868 H 288.394 1.83934 -2.99769 0
M  V30 2869 H 288.268 3.23441 -1.94077 0
M  V30 2870 H 290.655 2.7476 -1.0766 0
M  V30 2871 H 290.736 1.35736 -2.16816 0
M  V30 2872 H 290.38 2.92352 -4.15322 0
M  V30 2873 H 290.31 4.30584 -3.03158 0
M  V30 2874 H 292.801 2.83996 -2.49308 0
M  V30 2875 H 293.114 5.37612 -5.55151 0
M  V30 2876 H 291.459 4.83988 -4.98779 0
M  V30 2877 H 294.65 3.46167 -3.15097 0
M  V30 2878 H 294.823 4.61834 -4.54547 0
M  V30 2879 N 288.23 0.939286 1.26551 0
M  V30 2880 C 289.16 0.465044 2.28822 0
M  V30 2881 C 290.141 -0.480692 1.63167 0
M  V30 2882 O 291.326 -0.382955 1.90387 0
M  V30 2883 C 288.456 -0.27234 3.46231 0
M  V30 2884 C 287.41 0.58666 4.2396 0
M  V30 2885 C 286.736 -0.280573 5.33963 0
M  V30 2886 C 288.036 1.85704 4.88171 0
M  V30 2887 H 289.73 1.31979 2.68741 0
M  V30 2888 H 287.276 0.636061 1.29191 0
M  V30 2889 H 289.229 -0.615133 4.16886 0
M  V30 2890 H 287.953 -1.16121 3.0526 0
M  V30 2891 H 286.612 0.91232 3.55067 0
M  V30 2892 H 286.26 -1.16874 4.89234 0
M  V30 2893 H 285.96 0.29076 5.8688 0
M  V30 2894 H 287.484 -0.618678 6.07458 0
M  V30 2895 H 288.898 1.58161 5.51052 0
M  V30 2896 H 287.295 2.37279 5.51197 0
M  V30 2897 H 288.365 2.56957 4.11219 0
M  V30 2898 N 289.708 -1.40897 0.706093 0
M  V30 2899 C 290.933 -2.05895 0.249435 0
M  V30 2900 C 291.358 -1.52823 -1.09666 0
M  V30 2901 O 290.716 -0.659589 -1.68876 0
M  V30 2902 C 290.764 -3.59872 0.22904 0
M  V30 2903 O 289.868 -4.04708 -0.792784 0
M  V30 2904 H 289.209 -0.653206 0.119241 0
M  V30 2905 H 291.739 -1.80471 0.96391 0
M  V30 2906 H 291.749 -4.07951 0.0634791 0
M  V30 2907 H 290.424 -3.97866 1.21141 0
M  V30 2908 H 289.001 -3.68111 -0.59572 0
M  V30 2909 N 291.186 -0.45159 -1.50991 0
M  V30 2910 C 292.149 0.341117 -2.26647 0
M  V30 2911 C 293.149 0.937422 -1.30649 0
M  V30 2912 O 294.339 0.809644 -1.54241 0
M  V30 2913 C 291.471 1.48398 -3.06905 0
M  V30 2914 H 292.664 -0.322117 -2.98165 0
M  V30 2915 H 290.217 -0.205122 -1.54948 0
M  V30 2916 H 290.952 2.18284 -2.39838 0
M  V30 2917 H 290.737 1.06241 -3.77432 0
M  V30 2918 H 292.227 2.04367 -3.64176 0
M  V30 2919 N 292.664 1.56529 -0.183458 0
M  V30 2920 C 293.889 2.02064 0.467428 0
M  V30 2921 C 294.314 1.06282 1.55196 0
M  V30 2922 O 293.672 0.0443565 1.81246 0
M  V30 2923 C 293.72 3.46122 1.01153 0
M  V30 2924 O 292.824 3.53437 2.12499 0
M  V30 2925 H 292.165 0.654726 0.110588 0
M  V30 2926 H 294.695 2.02521 -0.290917 0
M  V30 2927 H 294.705 3.85676 1.33108 0
M  V30 2928 H 293.38 4.15331 0.217533 0
M  V30 2929 H 291.957 3.2575 1.81497 0
M  V30 2930 N 294.142 -0.090211 1.57342 0
M  V30 2931 C 295.558 -0.444547 1.53284 0
M  V30 2932 C 295.758 -1.80238 0.900914 0
M  V30 2933 O 294.814 -2.4759 0.495513 0
M  V30 2934 C 296.127 -0.402543 2.97993 0
M  V30 2935 C 297.675 -0.48405 3.09234 0
M  V30 2936 C 298.15 -0.472144 4.5556 0
M  V30 2937 N 299.641 -0.532757 4.60126 0
M  V30 2938 C 300.376 -0.545462 5.708 0
M  V30 2939 N 299.872 -0.514082 6.9089 0
M  V30 2940 N 301.665 -0.59064 5.58988 0
M  V30 2941 H 293.816 0.799121 1.96794 0
M  V30 2942 H 296.079 0.297965 0.899956 0
M  V30 2943 H 295.785 0.528106 3.47712 0
M  V30 2944 H 295.659 -1.21969 3.56936 0
M  V30 2945 H 298.046 -1.40512 2.595 0
M  V30 2946 H 298.127 0.361328 2.53235 0
M  V30 2947 H 297.771 0.445 5.05947 0
M  V30 2948 H 297.701 -1.3348 5.09402 0
M  V30 2949 H 300.192 -0.562006 3.73698 0
M  V30 2950 H 300.505 -0.527195 7.71 0
M  V30 2951 H 298.85 -0.481054 6.93333 0
M  V30 2952 H 302.041 -0.61272 4.64073 0
M  V30 2953 H 302.214 -0.597073 6.45243 0
M  V30 2954 N 295.62 -1.53406 -0.361157 0
M  V30 2955 C 297.036 -1.43277 -0.703124 0
M  V30 2956 C 297.236 -0.575384 -1.9311 0
M  V30 2957 O 296.292 -0.0595362 -2.5243 0
M  V30 2958 C 297.605 -2.8653 -0.9122 0
M  V30 2959 C 299.153 -2.96191 -1.01193 0
M  V30 2960 C 299.628 -4.40514 -1.25345 0
M  V30 2961 N 301.119 -4.43962 -1.32105 0
M  V30 2962 C 301.854 -5.52746 -1.5251 0
M  V30 2963 N 301.35 -6.71567 -1.70203 0
M  V30 2964 N 303.143 -5.40331 -1.54916 0
M  V30 2965 H 295.294 -2.07654 0.446475 0
M  V30 2966 H 297.557 -0.937944 0.137715 0
M  V30 2967 H 297.263 -3.51605 -0.0816414 0
M  V30 2968 H 297.137 -3.30441 -1.81903 0
M  V30 2969 H 299.524 -2.31266 -1.83303 0
M  V30 2970 H 299.605 -2.55667 -0.0823929 0
M  V30 2971 H 299.249 -5.06014 -0.437346 0
M  V30 2972 H 299.179 -4.78614 -2.19627 0
M  V30 2973 H 301.67 -3.58332 -1.20028 0
M  V30 2974 H 301.983 -7.50241 -1.85359 0
M  V30 2975 H 300.328 -6.74545 -1.67373 0
M  V30 2976 H 303.519 -4.46465 -1.40663 0
M  V30 2977 H 303.692 -6.25173 -1.70477 0
M  V30 2978 N 297.098 0.621204 -1.44841 0
M  V30 2979 C 298.046 1.75385 -1.52784 0
M  V30 2980 C 299.04 1.64639 -0.398779 0
M  V30 2981 O 300.246 1.70598 -0.574137 0
M  V30 2982 H 296.621 0.579193 -0.479625 0
M  V30 2983 H 298.592 1.6581 -2.48092 0
M  V30 2984 C 297.341 3.13742 -1.4987 0
M  V30 2985 H 296.664 3.22663 -2.36069 0
M  V30 2986 H 298.104 3.92861 -1.59487 0
M  V30 2987 C 296.563 3.36175 -0.220973 0
M  V30 2988 O 297.093 3.95469 0.704782 0
M  V30 2989 N 295.299 2.90348 -0.120963 0
M  V30 2990 H 294.846 2.42278 -0.875162 0
M  V30 2991 H 294.804 3.05732 0.733168 0
M  V30 2992 N 298.576 1.31904 0.862503 0
M  V30 2993 C 299.506 1.22782 1.98612 0
M  V30 2994 C 300.487 0.113362 1.69722 0
M  V30 2995 O 301.672 0.299218 1.91881 0
M  V30 2996 C 298.802 0.942058 3.34279 0
M  V30 2997 C 297.756 2.0169 3.77499 0
M  V30 2998 C 297.082 1.58369 5.10709 0
M  V30 2999 C 298.382 3.43096 3.93805 0
M  V30 3000 H 300.076 2.16788 2.06502 0
M  V30 3001 H 297.622 1.04366 0.992154 0
M  V30 3002 H 299.575 0.864818 4.1243 0
M  V30 3003 H 298.299 -0.0336603 3.26583 0
M  V30 3004 H 296.958 2.08416 3.01593 0
M  V30 3005 H 296.606 0.595628 4.99461 0
M  V30 3006 H 296.306 2.30279 5.40597 0
M  V30 3007 H 297.83 1.52067 5.91361 0
M  V30 3008 H 299.244 3.39003 4.62331 0
M  V30 3009 H 297.641 4.13288 4.35101 0
M  V30 3010 H 298.711 3.83334 2.96957 0
M  V30 3011 N 300.054 -1.07777 1.14986 0
M  V30 3012 C 301.303 -1.79669 0.916617 0
M  V30 3013 C 301.616 -1.87474 -0.557917 0
M  V30 3014 O 302.822 -2.55845 -0.908617 0
M  V30 3015 C 301.278 -3.22848 1.59051 0
M  V30 3016 C 300.886 -3.23257 3.10176 0
M  V30 3017 C 302.63 -3.99379 1.43864 0
M  V30 3018 C 300.537 -4.61063 3.70372 0
M  V30 3019 H 299.467 -0.673349 0.33929 0
M  V30 3020 H 302.118 -1.21003 1.37951 0
M  V30 3021 H 300.5 -3.8168 1.0553 0
M  V30 3022 H 301.674 -2.74095 3.70417 0
M  V30 3023 H 299.989 -2.60222 3.25074 0
M  V30 3024 H 302.586 -5.0122 1.86232 0
M  V30 3025 H 302.929 -4.14511 0.385564 0
M  V30 3026 H 303.462 -3.47032 1.94457 0
M  V30 3027 H 300.201 -4.51135 4.7556 0
M  V30 3028 H 299.721 -5.1048 3.14913 0
M  V30 3029 H 301.4 -5.30034 3.71043 0
M  V30 3030 N 301.532 -0.945985 -1.26051 0
M  V30 3031 C 302.442 -0.465633 -2.29933 0
M  V30 3032 C 303.458 0.462761 -1.67733 0
M  V30 3033 O 304.634 0.341118 -1.9849 0
M  V30 3034 C 301.699 0.256994 -3.45746 0
M  V30 3035 C 300.76 -0.708549 -4.23412 0
M  V30 3036 C 299.993 -0.0203135 -5.33696 0
M  V30 3037 O 300.216 1.19571 -5.57726 0
M  V30 3038 O 299.15 -0.701459 -5.97799 0
M  V30 3039 H 302.976 -1.32866 -2.73094 0
M  V30 3040 H 300.561 -0.712071 -1.31339 0
M  V30 3041 H 302.443 0.663852 -4.16138 0
M  V30 3042 H 301.118 1.09533 -3.04605 0
M  V30 3043 H 300.025 -1.16545 -3.55483 0
M  V30 3044 H 301.358 -1.51465 -4.68315 0
M  V30 3045 N 303.011 1.40521 -0.713556 0
M  V30 3046 C 303.974 2.29098 -0.0684347 0
M  V30 3047 C 304.974 1.45268 0.689472 0
M  V30 3048 O 306.164 1.66205 0.521677 0
M  V30 3049 C 303.296 3.28446 0.913024 0
M  V30 3050 H 304.489 2.87645 -0.84855 0
M  V30 3051 H 302.042 1.48809 -0.47809 0
M  V30 3052 H 302.777 2.74913 1.72027 0
M  V30 3053 H 302.562 3.90327 0.372472 0
M  V30 3054 H 304.052 3.94777 1.36165 0
M  V30 3055 N 304.489 0.459591 1.5075 0
M  V30 3056 C 305.399 -0.34613 2.32033 0
M  V30 3057 C 306.415 -1.00686 1.41909 0
M  V30 3058 O 307.591 -0.997361 1.7497 0
M  V30 3059 C 304.656 -1.42029 3.16273 0
M  V30 3060 C 303.717 -0.777362 4.22203 0
M  V30 3061 C 302.95 -1.80034 5.02418 0
M  V30 3062 O 303.173 -3.02544 4.83553 0
M  V30 3063 O 302.107 -1.37853 5.85901 0
M  V30 3064 H 305.933 0.318054 3.0203 0
M  V30 3065 H 303.518 0.221663 1.47746 0
M  V30 3066 H 305.4 -2.04275 3.68578 0
M  V30 3067 H 304.075 -2.06815 2.49016 0
M  V30 3068 H 302.982 -0.116256 3.73919 0
M  V30 3069 H 304.315 -0.172634 4.91897 0
M  V30 3070 N 305.967 -1.56429 0.191757 0
M  V30 3071 C 307.195 -2.01867 -0.453586 0
M  V30 3072 C 307.61 -1.07191 -1.5542 0
M  V30 3073 O 306.967 -0.0762108 -1.82341 0
M  V30 3074 C 307.018 -3.47017 -1.013 0
M  V30 3075 O 306.739 -4.38078 0.0437005 0
M  V30 3076 C 308.24 -4.07956 -1.73456 0
M  V30 3077 H 305.46 -0.661211 -0.114199 0
M  V30 3078 H 308.004 -2.02295 0.299483 0
M  V30 3079 H 306.159 -3.47298 -1.71647 0
M  V30 3080 H 306.573 -5.23178 -0.372212 0
M  V30 3081 H 308.047 -5.1138 -2.07833 0
M  V30 3082 H 308.524 -3.51222 -2.63704 0
M  V30 3083 H 309.13 -4.11437 -1.07702 0
M  V30 3084 N 307.445 0.0818655 -1.57387 0
M  V30 3085 C 308.355 1.11642 -2.06333 0
M  V30 3086 C 309.371 1.43033 -0.99083 0
M  V30 3087 O 310.547 1.53411 -1.30488 0
M  V30 3088 C 307.612 2.41342 -2.48907 0
M  V30 3089 C 306.673 2.17014 -3.7041 0
M  V30 3090 C 305.906 3.4053 -4.10944 0
M  V30 3091 O 306.129 4.4927 -3.51444 0
M  V30 3092 O 305.063 3.29336 -5.03807 0
M  V30 3093 H 308.889 0.730657 -2.9478 0
M  V30 3094 H 306.474 0.295301 -1.46452 0
M  V30 3095 H 308.356 3.17691 -2.76858 0
M  V30 3096 H 307.031 2.79319 -1.63593 0
M  V30 3097 H 305.938 1.38403 -3.47556 0
M  V30 3098 H 307.271 1.83923 -4.56545 0
M  V30 3099 N 308.923 1.53595 0.353017 0
M  V30 3100 C 310.171 1.70049 1.09215 0
M  V30 3101 C 310.492 0.461406 1.89463 0
M  V30 3102 O 309.762 -0.524633 1.88744 0
M  V30 3103 H 308.342 0.626912 0.40619 0
M  V30 3104 H 311.004 1.90822 0.396585 0
M  V30 3105 H 310.1 2.56718 1.77488 0
M  V30 3106 N 310.401 -0.613514 1.45168 0
M  V30 3107 C 311.333 -1.73825 1.4939 0
M  V30 3108 C 312.346 -1.58175 0.385304 0
M  V30 3109 O 313.535 -1.66165 0.652036 0
M  V30 3110 C 310.635 -3.11758 1.32891 0
M  V30 3111 C 309.808 -3.53704 2.57317 0
M  V30 3112 C 308.867 -4.70579 2.35462 0
M  V30 3113 O 307.893 -4.77996 3.09044 0
M  V30 3114 N 309.095 -5.63454 1.39644 0
M  V30 3115 H 311.86 -1.70669 2.46358 0
M  V30 3116 H 309.421 -0.79862 1.40832 0
M  V30 3117 H 311.413 -3.87692 1.1609 0
M  V30 3118 H 309.983 -3.09456 0.442218 0
M  V30 3119 H 309.203 -2.67794 2.89275 0
M  V30 3120 H 310.491 -3.78486 3.40038 0
M  V30 3121 H 309.889 -5.6017 0.789062 0
M  V30 3122 H 308.446 -6.38944 1.28816 0
M  V30 3123 N 311.879 -1.3236 -0.855495 0
M  V30 3124 C 313.29 -1.2056 -1.42556 0
M  V30 3125 C 313.641 0.182209 -1.95352 0
M  V30 3126 O 312.766 1.08088 -1.87472 0
M  V30 3127 C 313.361 -2.1826 -2.59129 0
M  V30 3128 C 311.92 -2.10351 -3.12137 0
M  V30 3129 C 311.067 -2.06674 -1.84882 0
M  V30 3130 H 314.018 -1.442 -0.662727 0
M  V30 3131 H 314.039 -1.78064 -3.36264 0
M  V30 3132 H 313.551 -3.19257 -2.20673 0
M  V30 3133 H 311.652 -1.12599 -3.55179 0
M  V30 3134 H 311.765 -3.00135 -3.73438 0
M  V30 3135 H 310.129 -1.51901 -2.04446 0
M  V30 3136 H 310.912 -3.09451 -1.48643 0
M  V30 3137 N 313.357 1.07166 -1.15556 0
M  V30 3138 C 314.287 2.16403 -0.877046 0
M  V30 3139 C 315.268 1.69217 0.173111 0
M  V30 3140 O 316.453 1.94181 0.027084 0
M  V30 3141 C 313.583 3.45349 -0.367632 0
M  V30 3142 C 312.537 4.05995 -1.35468 0
M  V30 3143 C 311.863 5.30045 -0.704038 0
M  V30 3144 C 313.163 4.45804 -2.72132 0
M  V30 3145 H 314.857 2.39959 -1.79053 0
M  V30 3146 H 312.403 1.15325 -0.862331 0
M  V30 3147 H 314.356 4.21095 -0.160317 0
M  V30 3148 H 313.08 3.21385 0.581326 0
M  V30 3149 H 311.739 3.32296 -1.54839 0
M  V30 3150 H 311.387 5.02373 0.251128 0
M  V30 3151 H 311.087 5.71579 -1.36277 0
M  V30 3152 H 312.611 6.08495 -0.50654 0
M  V30 3153 H 314.025 5.12671 -2.56595 0
M  V30 3154 H 312.422 4.98296 -3.34397 0
M  V30 3155 H 313.492 3.57083 -3.28054 0
M  V30 3156 N 314.835 0.952656 1.25548 0
M  V30 3157 C 315.767 0.428609 2.25157 0
M  V30 3158 C 316.78 -0.454428 1.56329 0
M  V30 3159 O 317.969 -0.263023 1.76552 0
M  V30 3160 C 315.069 -0.401972 3.36508 0
M  V30 3161 C 314.242 0.467601 4.34893 0
M  V30 3162 C 313.301 -0.30445 5.25319 0
M  V30 3163 O 312.327 0.296473 5.68427 0
M  V30 3164 N 313.529 -1.59805 5.5807 0
M  V30 3165 H 316.294 1.28497 2.70756 0
M  V30 3166 H 313.855 0.822798 1.39433 0
M  V30 3167 H 315.847 -0.926134 3.9396 0
M  V30 3168 H 314.417 -1.15918 2.90313 0
M  V30 3169 H 313.637 1.17288 3.76347 0
M  V30 3170 H 314.925 1.06119 4.97611 0
M  V30 3171 H 314.323 -2.10823 5.24948 0
M  V30 3172 H 312.88 -2.06822 6.18116 0
M  V30 3173 N 316.313 -1.40141 0.720998 0
M  V30 3174 C 317.243 -2.33339 0.0867621 0
M  V30 3175 C 318.224 -1.53178 -0.739622 0
M  V30 3176 O 319.409 -1.81625 -0.687449 0
M  V30 3177 C 316.539 -3.37194 -0.831728 0
M  V30 3178 C 315.493 -4.27857 -0.110558 0
M  V30 3179 C 314.819 -5.22294 -1.14513 0
M  V30 3180 C 316.119 -5.11872 1.0385 0
M  V30 3181 H 317.813 -2.86626 0.865219 0
M  V30 3182 H 315.359 -1.37814 0.417516 0
M  V30 3183 H 317.312 -4.01335 -1.28485 0
M  V30 3184 H 316.036 -2.82314 -1.64214 0
M  V30 3185 H 314.695 -3.65176 0.322797 0
M  V30 3186 H 314.343 -4.63717 -1.94874 0
M  V30 3187 H 314.043 -5.83797 -0.667446 0
M  V30 3188 H 315.567 -5.89312 -1.59824 0
M  V30 3189 H 316.981 -5.69436 0.664482 0
M  V30 3190 H 315.378 -5.82445 1.4449 0
M  V30 3191 H 316.448 -4.4753 1.86668 0
M  V30 3192 N 317.792 -0.46758 -1.50504 0
M  V30 3193 C 319.039 0.0886219 -2.02306 0
M  V30 3194 C 319.367 1.40037 -1.34981 0
M  V30 3195 O 318.622 1.90136 -0.463318 0
M  V30 3196 C 318.921 0.323995 -3.55928 0
M  V30 3197 C 318.587 -0.905618 -4.41712 0
M  V30 3198 C 317.249 -1.24275 -4.64875 0
M  V30 3199 C 319.601 -1.72448 -4.91845 0
M  V30 3200 C 316.929 -2.39888 -5.35417 0
M  V30 3201 C 319.281 -2.87185 -5.63656 0
M  V30 3202 C 317.945 -3.21317 -5.85074 0
M  V30 3203 H 317.215 0.0324291 -0.74029 0
M  V30 3204 H 319.862 -0.620945 -1.81153 0
M  V30 3205 H 318.167 1.11577 -3.75577 0
M  V30 3206 H 319.864 0.76826 -3.93572 0
M  V30 3207 H 316.454 -0.632956 -4.239 0
M  V30 3208 H 320.638 -1.4772 -4.73806 0
M  V30 3209 H 315.894 -2.66611 -5.50208 0
M  V30 3210 H 320.068 -3.50985 -6.01484 0
M  V30 3211 H 317.695 -4.1101 -6.39511 0
M  V30 3212 N 319.27 1.56325 -0.20005 0
M  V30 3213 C 320.495 2.02548 0.44597 0
M  V30 3214 C 320.92 1.07922 1.5406 0
M  V30 3215 O 320.278 0.0635775 1.81188 0
M  V30 3216 C 320.326 3.47175 0.974761 0
M  V30 3217 O 319.43 3.55671 2.08739 0
M  V30 3218 H 318.771 0.655862 0.103638 0
M  V30 3219 H 321.301 2.02201 -0.312381 0
M  V30 3220 H 321.311 3.87067 1.2901 0
M  V30 3221 H 319.986 4.15538 0.17347 0
M  V30 3222 H 318.563 3.27657 1.78032 0
M  V30 3223 N 320.748 -0.0735177 1.57428 0
M  V30 3224 C 322.159 -0.625551 1.75908 0
M  V30 3225 C 322.51 -1.78 0.825261 0
M  V30 3226 O 321.635 -2.16398 0.00893964 0
M  V30 3227 C 322.23 -1.14155 3.18989 0
M  V30 3228 C 320.789 -1.63946 3.38819 0
M  V30 3229 C 319.936 -0.558151 2.71625 0
M  V30 3230 H 322.887 0.152647 1.57964 0
M  V30 3231 H 322.908 -2.0104 3.23053 0
M  V30 3232 H 322.42 -0.301116 3.8693 0
M  V30 3233 H 320.521 -2.50321 2.7599 0
M  V30 3234 H 320.634 -1.71759 4.47253 0
M  V30 3235 H 318.998 -1.00278 2.34129 0
M  V30 3236 H 319.781 0.272071 3.4222 0
M  V30 3237 N 322.226 -1.5378 -0.344866 0
M  V30 3238 C 323.451 -1.75211 -1.10977 0
M  V30 3239 C 323.876 -0.48936 -1.81623 0
M  V30 3240 O 323.234 0.557925 -1.72502 0
M  V30 3241 C 323.282 -2.93147 -2.09993 0
M  V30 3242 O 322.386 -2.63203 -3.17487 0
M  V30 3243 H 321.727 -0.581241 -0.321021 0
M  V30 3244 H 324.257 -2.00738 -0.395661 0
M  V30 3245 H 324.267 -3.19898 -2.53237 0
M  V30 3246 H 322.942 -3.84731 -1.5797 0
M  V30 3247 H 321.519 -2.47336 -2.79069 0
M  V30 3248 N 323.704 0.605807 -1.45491 0
M  V30 3249 C 324.652 1.73754 -1.54636 0
M  V30 3250 C 325.646 1.64207 -0.416219 0
M  V30 3251 O 326.852 1.69979 -0.592199 0
M  V30 3252 H 323.227 0.574073 -0.485741 0
M  V30 3253 H 325.198 1.63169 -2.49837 0
M  V30 3254 C 323.947 3.12135 -1.53189 0
M  V30 3255 H 323.27 3.20141 -2.39478 0
M  V30 3256 H 324.71 3.91147 -1.63645 0
M  V30 3257 C 323.169 3.35921 -0.256616 0
M  V30 3258 O 323.699 3.96194 0.662798 0
M  V30 3259 N 321.905 2.90204 -0.151751 0
M  V30 3260 H 321.452 2.41336 -0.90081 0
M  V30 3261 H 321.41 3.06492 0.700699 0
M  V30 3262 N 325.182 1.32811 0.848464 0
M  V30 3263 C 326.593 1.21315 1.41914 0
M  V30 3264 C 326.944 -0.171847 1.95446 0
M  V30 3265 O 326.069 -1.07093 1.88043 0
M  V30 3266 C 326.664 2.19631 2.57968 0
M  V30 3267 C 325.223 2.12003 3.11017 0
M  V30 3268 C 324.37 2.07651 1.83783 0
M  V30 3269 H 327.321 1.44549 0.655071 0
M  V30 3270 H 327.342 1.79845 3.35315 0
M  V30 3271 H 326.854 3.20423 2.18976 0
M  V30 3272 H 324.955 1.14481 3.54577 0
M  V30 3273 H 325.068 3.02111 3.71841 0
M  V30 3274 H 323.432 1.52983 2.03638 0
M  V30 3275 H 324.215 3.10235 1.47 0
M  V30 3276 N 326.66 -1.06551 1.16123 0
M  V30 3277 C 328.071 -1.60768 0.949232 0
M  V30 3278 C 328.422 -1.89523 -0.507508 0
M  V30 3279 O 327.547 -1.66671 -1.38021 0
M  V30 3280 C 328.142 -2.92086 1.71671 0
M  V30 3281 C 326.701 -3.43015 1.54977 0
M  V30 3282 C 325.848 -2.16947 1.72711 0
M  V30 3283 H 328.799 -0.895354 1.31031 0
M  V30 3284 H 328.82 -3.6138 1.19099 0
M  V30 3285 H 328.332 -2.71127 2.7769 0
M  V30 3286 H 326.433 -3.69039 0.513873 0
M  V30 3287 H 326.546 -4.18516 2.33198 0
M  V30 3288 H 324.91 -2.27041 1.15431 0
M  V30 3289 H 325.693 -1.98473 2.80113 0
M  V30 3290 N 328.138 -0.959301 -1.25041 0
M  V30 3291 C 329.048 -0.489994 -2.29426 0
M  V30 3292 C 330.064 0.444944 -1.68215 0
M  V30 3293 O 331.24 0.320046 -1.98841 0
M  V30 3294 C 328.305 0.220309 -3.45999 0
M  V30 3295 C 327.366 -0.753418 -4.22637 0
M  V30 3296 C 326.599 -0.076918 -5.33645 0
M  V30 3297 O 326.822 1.13649 -5.58963 0
M  V30 3298 O 325.756 -0.764824 -5.97021 0
M  V30 3299 H 329.582 -1.35755 -2.71669 0
M  V30 3300 H 327.167 -0.725961 -1.30576 0
M  V30 3301 H 329.049 0.619677 -4.16819 0
M  V30 3302 H 327.724 1.06296 -3.0575 0
M  V30 3303 H 326.631 -1.20308 -3.54227 0
M  V30 3304 H 327.964 -1.56423 -4.66683 0
M  V30 3305 N 329.616 1.39756 -0.72842 0
M  V30 3306 C 330.865 1.99879 -0.270407 0
M  V30 3307 C 331.178 1.58449 1.14688 0
M  V30 3308 O 332.384 2.11362 1.70407 0
M  V30 3309 C 330.84 3.57292 -0.43252 0
M  V30 3310 C 330.448 4.07688 -1.85727 0
M  V30 3311 C 332.192 4.24485 -0.0359507 0
M  V30 3312 C 330.099 5.5765 -1.96928 0
M  V30 3313 H 329.029 0.747689 -0.0973472 0
M  V30 3314 H 331.68 1.59837 -0.901355 0
M  V30 3315 H 330.062 3.95097 0.267219 0
M  V30 3316 H 331.236 3.81231 -2.58843 0
M  V30 3317 H 329.551 3.53135 -2.20646 0
M  V30 3318 H 332.148 5.34609 -0.0987484 0
M  V30 3319 H 332.491 4.03915 1.00787 0
M  V30 3320 H 333.024 3.9183 -0.686604 0
M  V30 3321 H 329.763 5.8309 -2.99476 0
M  V30 3322 H 329.283 5.8593 -1.28241 0
M  V30 3323 H 330.962 6.22957 -1.74737 0
M  V30 3324 N 331.094 0.475555 1.50254 0
M  V30 3325 C 332.34 -0.0780073 2.0265 0
M  V30 3326 C 332.673 -1.38968 1.35652 0
M  V30 3327 O 331.948 -1.8839 0.483691 0
M  V30 3328 C 332.231 -0.257161 3.59181 0
M  V30 3329 C 332.084 1.07585 4.36744 0
M  V30 3330 C 333.403 -1.00965 4.28362 0
M  V30 3331 H 330.522 -0.0268758 0.73651 0
M  V30 3332 H 333.164 0.622015 1.7953 0
M  V30 3333 H 331.314 -0.853412 3.79011 0
M  V30 3334 H 332.986 1.70902 4.28474 0
M  V30 3335 H 331.229 1.6714 4.00308 0
M  V30 3336 H 331.9 0.904088 5.44546 0
M  V30 3337 H 334.376 -0.504214 4.13034 0
M  V30 3338 H 333.252 -1.10381 5.37687 0
M  V30 3339 H 333.513 -2.04731 3.91839 0
M  V30 3340 N 332.573 -1.56217 0.208337 0
M  V30 3341 C 333.822 -1.97124 -0.427204 0
M  V30 3342 C 334.135 -1.09859 -1.61835 0
M  V30 3343 O 335.341 -1.40606 -2.32255 0
M  V30 3344 C 333.797 -3.50633 -0.811442 0
M  V30 3345 C 333.405 -4.46582 0.35615 0
M  V30 3346 C 335.149 -4.00282 -1.41332 0
M  V30 3347 C 333.056 -5.91379 -0.0497852 0
M  V30 3348 H 331.986 -0.736086 -0.163381 0
M  V30 3349 H 334.637 -1.8099 0.302456 0
M  V30 3350 H 333.019 -3.62319 -1.59815 0
M  V30 3351 H 334.193 -4.46636 1.1337 0
M  V30 3352 H 332.508 -4.07202 0.870396 0
M  V30 3353 H 335.105 -5.0595 -1.72972 0
M  V30 3354 H 335.448 -3.45359 -2.32449 0
M  V30 3355 H 335.981 -3.91764 -0.690323 0
M  V30 3356 H 332.72 -6.50255 0.827529 0
M  V30 3357 H 332.24 -5.94549 -0.791926 0
M  V30 3358 H 333.919 -6.45209 -0.481042 0
M  V30 3359 N 334.051 0.0651679 -1.57465 0
M  V30 3360 C 335.276 0.779605 -1.9219 0
M  V30 3361 C 335.701 1.69988 -0.805333 0
M  V30 3362 O 335.059 1.79685 0.241435 0
M  V30 3363 C 335.107 1.54364 -3.2589 0
M  V30 3364 O 334.211 2.65474 -3.1559 0
M  V30 3365 H 333.552 0.212249 -0.629163 0
M  V30 3366 H 336.082 0.0314294 -2.04576 0
M  V30 3367 H 336.092 1.92146 -3.59922 0
M  V30 3368 H 334.767 0.868457 -4.06732 0
M  V30 3369 H 333.344 2.30501 -2.93128 0
M  V30 3370 N 335.529 1.53961 0.336706 0
M  V30 3371 C 336.754 1.75797 1.10046 0
M  V30 3372 C 337.179 0.498985 1.81361 0
M  V30 3373 O 336.537 -0.548769 1.72795 0
M  V30 3374 C 336.585 2.94257 2.08436 0
M  V30 3375 O 335.689 2.64883 3.16087 0
M  V30 3376 H 335.03 0.582936 0.317934 0
M  V30 3377 H 337.56 2.00945 0.38501 0
M  V30 3378 H 337.57 3.21237 2.51537 0
M  V30 3379 H 336.245 3.85564 1.55927 0
M  V30 3380 H 334.822 2.48812 2.77753 0
M  V30 3381 N 337.007 -0.598083 1.45811 0
M  V30 3382 C 338.423 -0.919847 1.30426 0
M  V30 3383 C 338.623 -1.99759 0.264303 0
M  V30 3384 O 337.679 -2.50221 -0.338472 0
M  V30 3385 C 338.992 -1.35176 2.68603 0
M  V30 3386 C 340.54 -1.46546 2.76574 0
M  V30 3387 C 341.015 -1.9311 4.15298 0
M  V30 3388 N 342.506 -2.00328 4.1764 0
M  V30 3389 C 343.241 -2.37599 5.21856 0
M  V30 3390 N 342.737 -2.73771 6.36413 0
M  V30 3391 N 344.53 -2.38021 5.09218 0
M  V30 3392 H 336.681 0.114111 2.12093 0
M  V30 3393 H 338.944 -0.0116121 0.947929 0
M  V30 3394 H 338.65 -0.633969 3.45939 0
M  V30 3395 H 338.524 -2.3164 2.97696 0
M  V30 3396 H 340.911 -2.17415 1.99537 0
M  V30 3397 H 340.992 -0.483727 2.51185 0
M  V30 3398 H 340.636 -1.22824 4.92825 0
M  V30 3399 H 340.566 -2.92213 4.38086 0
M  V30 3400 H 343.057 -1.74925 3.34977 0
M  V30 3401 H 343.37 -3.0112 7.11721 0
M  V30 3402 H 341.715 -2.71445 6.39799 0
M  V30 3403 H 344.906 -2.09174 4.18765 0
M  V30 3404 H 345.079 -2.66741 5.90554 0
M  V30 3405 N 338.485 -1.33259 -0.841409 0
M  V30 3406 C 339.395 -1.25332 -1.98316 0
M  V30 3407 C 340.411 -0.164364 -1.73222 0
M  V30 3408 O 341.587 -0.387486 -1.97637 0
M  V30 3409 C 338.652 -0.990078 -3.32262 0
M  V30 3410 C 337.713 -2.16879 -3.70489 0
M  V30 3411 C 336.946 -1.91801 -4.98044 0
M  V30 3412 O 337.169 -0.867075 -5.63771 0
M  V30 3413 O 336.103 -2.78267 -5.33714 0
M  V30 3414 H 339.929 -2.21344 -2.07944 0
M  V30 3415 H 337.514 -1.1328 -0.974058 0
M  V30 3416 H 339.396 -0.860321 -4.12524 0
M  V30 3417 H 338.071 -0.0602155 -3.23644 0
M  V30 3418 H 336.978 -2.35407 -2.90748 0
M  V30 3419 H 338.311 -3.0819 -3.8377 0
M  V30 3420 N 339.963 1.05934 -1.16686 0
M  V30 3421 C 341.24 1.75643 -0.860747 0
M  V30 3422 C 341.62 2.01144 0.640641 0
M  V30 3423 O 340.968 1.64147 1.58959 0
M  V30 3424 C 341.178 3.05493 -1.68745 0
M  V30 3425 C 342.526 3.79581 -1.90271 0
M  V30 3426 O 343.55 3.15344 -1.65641 0
M  V30 3427 O 342.409 4.9499 -2.31618 0
M  V30 3428 H 339.503 0.763426 -0.317977 0
M  V30 3429 H 342.049 1.1217 -1.27342 0
M  V30 3430 H 340.821 2.8264 -2.70611 0
M  V30 3431 H 340.444 3.76702 -1.27206 0
M  V30 3432 N 341.441 0.965919 1.2453 0
M  V30 3433 C 342.389 0.486506 2.27455 0
M  V30 3434 C 343.383 -0.449041 1.6334 0
M  V30 3435 O 344.589 -0.324527 1.7705 0
M  V30 3436 H 340.964 0.138857 0.739069 0
M  V30 3437 H 342.935 1.3666 2.65267 0
M  V30 3438 C 341.684 -0.209481 3.47068 0
M  V30 3439 H 341.007 0.50129 3.96645 0
M  V30 3440 H 342.447 -0.508775 4.20936 0
M  V30 3441 C 340.906 -1.43586 3.0477 0
M  V30 3442 O 341.436 -2.53299 3.11773 0
M  V30 3443 N 339.642 -1.30126 2.59838 0
M  V30 3444 H 339.189 -0.408583 2.54339 0
M  V30 3445 H 339.147 -2.12294 2.31902 0
M  V30 3446 N 342.919 -1.39368 0.735821 0
M  V30 3447 C 343.869 -2.27885 0.0724287 0
M  V30 3448 C 344.853 -1.44301 -0.711756 0
M  V30 3449 O 346.045 -1.67206 -0.58063 0
M  V30 3450 C 343.174 -3.33029 -0.833454 0
M  V30 3451 C 342.26 -4.24078 -0.0433749 0
M  V30 3452 N 342.651 -4.96138 0.983903 0
M  V30 3453 C 340.949 -4.45164 -0.272905 0
M  V30 3454 C 341.65 -5.63069 1.4604 0
M  V30 3455 N 340.626 -5.37991 0.778857 0
M  V30 3456 H 344.428 -2.81052 0.859467 0
M  V30 3457 H 341.942 -1.5206 0.570227 0
M  V30 3458 H 343.939 -3.95311 -1.32419 0
M  V30 3459 H 342.599 -2.81421 -1.61964 0
M  V30 3460 H 343.61 -4.9958 1.36528 0
M  V30 3461 H 340.287 -4.04497 -1.03383 0
M  V30 3462 H 341.677 -6.30755 2.31511 0
M  V30 3463 N 344.397 -0.483516 -1.5 0
M  V30 3464 C 345.36 0.292965 -2.2732 0
M  V30 3465 C 346.36 0.909499 -1.32608 0
M  V30 3466 O 347.55 0.776745 -1.55924 0
M  V30 3467 C 344.682 1.41854 -3.09984 0
M  V30 3468 H 345.875 -0.385289 -2.97415 0
M  V30 3469 H 343.428 -0.237942 -1.54478 0
M  V30 3470 H 344.163 2.13148 -2.44414 0
M  V30 3471 H 343.948 0.982114 -3.79601 0
M  V30 3472 H 345.438 1.96597 -3.68429 0
M  V30 3473 N 345.875 1.56104 -0.216619 0
M  V30 3474 C 346.825 2.16703 0.708798 0
M  V30 3475 C 347.809 1.11392 1.16106 0
M  V30 3476 O 349.001 1.37395 1.11587 0
M  V30 3477 C 346.13 2.84666 1.91886 0
M  V30 3478 C 345.216 3.97195 1.48651 0
M  V30 3479 N 345.607 4.99959 0.766434 0
M  V30 3480 C 343.905 4.09193 1.77418 0
M  V30 3481 C 344.606 5.79126 0.546659 0
M  V30 3482 N 343.582 5.32315 1.10188 0
M  V30 3483 H 347.384 2.93516 0.150162 0
M  V30 3484 H 344.898 1.6239 -0.0176768 0
M  V30 3485 H 346.895 3.26486 2.59253 0
M  V30 3486 H 345.555 2.09347 2.48202 0
M  V30 3487 H 346.566 5.16197 0.419634 0
M  V30 3488 H 343.243 3.45021 2.35088 0
M  V30 3489 H 344.633 6.71895 -0.026103 0
M  V30 3490 N 347.353 -0.0568162 1.57498 0
M  V30 3491 C 348.285 -1.09292 2.01464 0
M  V30 3492 C 349.298 -1.34112 0.922913 0
M  V30 3493 O 350.487 -1.32089 1.20062 0
M  V30 3494 C 347.587 -2.44068 2.35125 0
M  V30 3495 C 346.76 -2.38995 3.66333 0
M  V30 3496 C 345.819 -3.55997 3.87495 0
M  V30 3497 O 344.845 -3.36746 4.58901 0
M  V30 3498 N 346.047 -4.76888 3.30996 0
M  V30 3499 H 348.812 -0.718386 2.90963 0
M  V30 3500 H 346.373 -0.245235 1.60032 0
M  V30 3501 H 348.365 -3.21011 2.46443 0
M  V30 3502 H 346.935 -2.73468 1.5144 0
M  V30 3503 H 346.155 -1.47336 3.65631 0
M  V30 3504 H 347.443 -2.3272 4.52458 0
M  V30 3505 H 346.841 -4.95431 2.73065 0
M  V30 3506 H 345.398 -5.51291 3.47738 0
M  V30 3507 N 348.832 -1.54138 -0.328536 0
M  V30 3508 C 350.06 -1.76062 -1.08673 0
M  V30 3509 C 350.475 -0.506852 -1.81869 0
M  V30 3510 O 349.832 0.522223 -1.74869 0
M  V30 3511 C 349.883 -2.95054 -2.08866 0
M  V30 3512 O 349.604 -4.15583 -1.38644 0
M  V30 3513 C 351.105 -3.2915 -2.96943 0
M  V30 3514 H 348.325 -0.587889 -0.323461 0
M  V30 3515 H 350.869 -2.0101 -0.376175 0
M  V30 3516 H 349.024 -2.72394 -2.75464 0
M  V30 3517 H 349.438 -4.82481 -2.05699 0
M  V30 3518 H 350.912 -4.15723 -3.63151 0
M  V30 3519 H 351.389 -2.461 -3.63774 0
M  V30 3520 H 351.995 -3.53871 -2.35914 0
M  V30 3521 N 350.31 0.590341 -1.46126 0
M  V30 3522 C 351.24 1.71032 -1.58966 0
M  V30 3523 C 352.221 1.64302 -0.440335 0
M  V30 3524 O 353.406 1.82436 -0.665634 0
M  V30 3525 C 350.536 3.09665 -1.57241 0
M  V30 3526 C 349.49 3.31221 -2.71066 0
M  V30 3527 C 348.816 4.70303 -2.54399 0
M  V30 3528 C 350.116 3.19796 -4.1295 0
M  V30 3529 H 351.81 1.60543 -2.52718 0
M  V30 3530 H 349.356 0.770933 -1.21625 0
M  V30 3531 H 351.309 3.87831 -1.64819 0
M  V30 3532 H 350.033 3.21036 -0.600289 0
M  V30 3533 H 348.692 2.55452 -2.62944 0
M  V30 3534 H 348.34 4.78429 -1.55288 0
M  V30 3535 H 348.04 4.85679 -3.30741 0
M  V30 3536 H 349.564 5.50647 -2.63857 0
M  V30 3537 H 350.978 3.87815 -4.22223 0
M  V30 3538 H 349.375 3.46696 -4.89818 0
M  V30 3539 H 350.445 2.16983 -4.33643 0
M  V30 3540 N 351.788 1.33704 0.83433 0
M  V30 3541 C 352.718 1.26967 1.95963 0
M  V30 3542 C 353.699 0.149337 1.69443 0
M  V30 3543 O 354.884 0.339852 1.91203 0
M  V30 3544 C 352.014 1.01275 3.32206 0
M  V30 3545 C 350.968 2.09652 3.73136 0
M  V30 3546 C 350.294 1.69166 5.07235 0
M  V30 3547 C 351.594 3.51372 3.86439 0
M  V30 3548 H 353.288 2.2112 2.01857 0
M  V30 3549 H 350.834 1.06447 0.969793 0
M  V30 3550 H 352.787 0.952106 4.10503 0
M  V30 3551 H 351.511 0.0356203 3.26581 0
M  V30 3552 H 350.17 2.14766 2.97104 0
M  V30 3553 H 349.818 0.701437 4.98085 0
M  V30 3554 H 349.518 2.41694 5.35591 0
M  V30 3555 H 351.042 1.64576 5.88003 0
M  V30 3556 H 352.456 3.48734 4.55036 0
M  V30 3557 H 350.853 4.22425 4.26236 0
M  V30 3558 H 351.923 3.89546 2.88759 0
M  V30 3559 N 353.266 -1.05314 1.17247 0
M  V30 3560 C 354.216 -2.11313 0.856196 0
M  V30 3561 C 355.2 -1.60013 -0.168694 0
M  V30 3562 O 356.392 -1.76968 0.0335624 0
M  V30 3563 C 353.521 -3.41301 0.369917 0
M  V30 3564 C 352.607 -3.99401 1.42616 0
M  V30 3565 N 352.998 -4.31481 2.63928 0
M  V30 3566 C 351.296 -4.27126 1.28373 0
M  V30 3567 C 351.997 -4.77799 3.31787 0
M  V30 3568 N 350.973 -4.77843 2.59166 0
M  V30 3569 H 354.775 -2.33976 1.77856 0
M  V30 3570 H 352.289 -1.2295 1.06099 0
M  V30 3571 H 354.286 -4.16713 0.124897 0
M  V30 3572 H 352.946 -3.20072 -0.546253 0
M  V30 3573 H 353.957 -4.21519 3.00902 0
M  V30 3574 H 350.634 -4.15289 0.429111 0
M  V30 3575 H 352.024 -5.11743 4.35395 0
M  V30 3576 N 354.744 -0.972509 -1.24016 0
M  V30 3577 C 355.694 -0.477561 -2.22942 0
M  V30 3578 C 356.678 0.44308 -1.54679 0
M  V30 3579 O 357.87 0.273219 -1.74879 0
M  V30 3580 C 354.999 0.226348 -3.42553 0
M  V30 3581 C 354.085 -0.713403 -4.18057 0
M  V30 3582 N 354.476 -1.8527 -4.70647 0
M  V30 3583 C 352.774 -0.525145 -4.42898 0
M  V30 3584 C 353.475 -2.44089 -5.28011 0
M  V30 3585 N 352.451 -1.72556 -5.15486 0
M  V30 3586 H 356.253 -1.34678 -2.61226 0
M  V30 3587 H 353.767 -0.832196 -1.39457 0
M  V30 3588 H 355.764 0.598184 -4.12586 0
M  V30 3589 H 354.424 1.09195 -3.05788 0
M  V30 3590 H 355.435 -2.2341 -4.67235 0
M  V30 3591 H 352.112 0.296096 -4.16449 0
M  V30 3592 H 353.502 -3.40259 -5.79374 0
M  V30 3593 N 356.222 1.38976 -0.743202 0
M  V30 3594 C 357.633 1.83123 -0.363732 0
M  V30 3595 C 357.984 1.6205 1.10609 0
M  V30 3596 O 357.109 1.11606 1.854 0
M  V30 3597 C 357.704 3.32439 -0.653408 0
M  V30 3598 C 356.263 3.74974 -0.327338 0
M  V30 3599 C 355.41 2.61878 -0.911875 0
M  V30 3600 H 358.361 1.27852 -0.940191 0
M  V30 3601 H 358.382 3.80432 0.0720031 0
M  V30 3602 H 357.894 3.47745 -1.72323 0
M  V30 3603 H 355.995 3.65252 0.736314 0
M  V30 3604 H 356.108 4.72106 -0.815631 0
M  V30 3605 H 354.472 2.52448 -0.337944 0
M  V30 3606 H 355.255 2.79987 -1.98651 0
M  V30 3607 N 357.7 0.491464 1.49741 0
M  V30 3608 C 358.648 -0.305837 2.30581 0
M  V30 3609 C 359.642 -0.971642 1.38764 0
M  V30 3610 O 360.848 -0.90042 1.5586 0
M  V30 3611 H 357.223 -0.117482 0.742767 0
M  V30 3612 H 359.194 0.396093 2.95759 0
M  V30 3613 C 357.943 -1.36319 3.19863 0
M  V30 3614 H 357.266 -0.860258 3.90435 0
M  V30 3615 H 358.706 -1.89323 3.79385 0
M  V30 3616 C 357.165 -2.37621 2.38826 0
M  V30 3617 O 357.695 -3.43311 2.08567 0
M  V30 3618 N 355.901 -2.09849 2.01026 0
M  V30 3619 H 355.448 -1.23922 2.25834 0
M  V30 3620 H 355.406 -2.77859 1.47112 0
M  V30 3621 N 359.178 -1.55987 0.224894 0
M  V30 3622 C 360.141 -2.19178 -0.670348 0
M  V30 3623 C 361.141 -1.15461 -1.11917 0
M  V30 3624 O 362.331 -1.40675 -1.02743 0
M  V30 3625 C 359.463 -2.81777 -1.9187 0
M  V30 3626 H 360.656 -2.99662 -0.119364 0
M  V30 3627 H 358.209 -1.5628 -0.0247128 0
M  V30 3628 H 358.944 -2.05172 -2.51147 0
M  V30 3629 H 358.729 -3.57732 -1.60531 0
M  V30 3630 H 360.219 -3.30205 -2.55645 0
M  V30 3631 N 360.656 0.0484629 -1.57525 0
M  V30 3632 C 361.884 0.755421 -1.92616 0
M  V30 3633 C 362.299 1.69919 -0.822984 0
M  V30 3634 O 361.656 1.81378 0.202085 0
M  V30 3635 C 361.707 1.52915 -3.27566 0
M  V30 3636 O 361.428 0.62329 -4.33644 0
M  V30 3637 C 362.929 2.33502 -3.76818 0
M  V30 3638 H 360.149 0.213465 -0.63614 0
M  V30 3639 H 362.693 0.0117698 -2.04497 0
M  V30 3640 H 360.848 2.22486 -3.17142 0
M  V30 3641 H 361.262 1.16383 -5.11425 0
M  V30 3642 H 362.736 2.83214 -4.73808 0
M  V30 3643 H 363.213 3.14068 -3.07014 0
M  V30 3644 H 363.819 1.69043 -3.90262 0
M  V30 3645 N 362.134 1.5431 0.320358 0
M  V30 3646 C 363.084 1.803 1.39556 0
M  V30 3647 C 364.068 0.659166 1.46778 0
M  V30 3648 O 365.26 0.91926 1.51257 0
M  V30 3649 C 362.389 2.03665 2.76361 0
M  V30 3650 C 361.475 3.24178 2.73439 0
M  V30 3651 N 361.866 4.4516 2.40137 0
M  V30 3652 C 360.164 3.25816 3.04565 0
M  V30 3653 C 360.865 5.27109 2.4603 0
M  V30 3654 N 359.841 4.64368 2.82601 0
M  V30 3655 H 363.643 2.71416 1.12742 0
M  V30 3656 H 361.157 1.53548 0.528856 0
M  V30 3657 H 363.154 2.20425 3.53862 0
M  V30 3658 H 361.814 1.13805 3.04103 0
M  V30 3659 H 362.825 4.72104 2.12927 0
M  V30 3660 H 359.502 2.46001 3.37328 0
M  V30 3661 H 360.892 6.33728 2.23246 0
M  V30 3662 N 363.613 -0.582584 1.46437 0
M  V30 3663 C 364.561 -1.71272 1.5738 0
M  V30 3664 C 365.555 -1.63524 0.44229 0
M  V30 3665 O 366.761 -1.69016 0.619166 0
M  V30 3666 H 363.136 -0.566273 0.494813 0
M  V30 3667 H 365.107 -1.59174 2.52401 0
M  V30 3668 C 363.856 -3.09658 1.58136 0
M  V30 3669 H 363.179 -3.16291 2.44541 0
M  V30 3670 H 364.619 -3.88494 1.69847 0
M  V30 3671 C 363.078 -3.3547 0.310026 0
M  V30 3672 O 363.608 -3.97199 -0.599683 0
M  V30 3673 N 361.814 -2.89925 0.197901 0
M  V30 3674 H 361.361 -2.39873 0.93909 0
M  V30 3675 H 361.319 -3.07568 -0.65185 0
M  V30 3676 N 365.091 -1.34144 -0.827227 0
M  V30 3677 C 366.041 -1.21923 -1.92663 0
M  V30 3678 C 367.025 -0.119294 -1.60457 0
M  V30 3679 O 368.217 -0.348539 -1.73534 0
M  V30 3680 C 365.346 -0.972492 -3.29238 0
M  V30 3681 C 364.432 -2.1154 -3.67576 0
M  V30 3682 N 364.823 -3.36627 -3.77512 0
M  V30 3683 C 363.121 -2.02468 -3.97395 0
M  V30 3684 C 363.822 -4.11658 -4.1099 0
M  V30 3685 N 362.798 -3.40207 -4.23981 0
M  V30 3686 H 366.6 -2.16721 -1.98517 0
M  V30 3687 H 364.114 -1.2632 -1.02064 0
M  V30 3688 H 366.111 -0.865847 -4.0781 0
M  V30 3689 H 364.771 -0.0331509 -3.24683 0
M  V30 3690 H 365.782 -3.71234 -3.61118 0
M  V30 3691 H 362.459 -1.16265 -4.00985 0
M  V30 3692 H 363.849 -5.19657 -4.25918 0
M  V30 3693 N 366.569 1.04691 -1.17803 0
M  V30 3694 C 367.501 2.12571 -0.857097 0
M  V30 3695 C 368.514 1.62174 0.142647 0
M  V30 3696 O 369.703 1.78301 -0.0843387 0
M  V30 3697 C 366.803 3.37915 -0.258216 0
M  V30 3698 C 365.976 4.1757 -1.30207 0
M  V30 3699 C 365.035 5.2125 -0.720029 0
M  V30 3700 O 364.061 5.51888 -1.39314 0
M  V30 3701 N 365.263 5.78466 0.485507 0
M  V30 3702 H 368.028 2.40698 -1.78562 0
M  V30 3703 H 365.589 1.20831 -1.07757 0
M  V30 3704 H 367.581 4.04442 0.144584 0
M  V30 3705 H 366.151 3.07281 0.574199 0
M  V30 3706 H 365.371 3.46458 -1.88043 0
M  V30 3707 H 366.659 4.67586 -2.00601 0
M  V30 3708 H 366.057 5.55866 1.05022 0
M  V30 3709 H 364.614 6.4649 0.830307 0
M  V30 3710 N 368.047 0.979072 1.23499 0
M  V30 3711 C 368.997 0.489378 2.22686 0
M  V30 3712 C 369.981 -0.434871 1.54912 0
M  V30 3713 O 371.173 -0.263941 1.75021 0
M  V30 3714 C 368.302 -0.208178 3.42668 0
M  V30 3715 C 367.388 0.735563 4.17672 0
M  V30 3716 N 367.779 1.87763 4.69658 0
M  V30 3717 C 366.077 0.548625 4.42613 0
M  V30 3718 C 366.778 2.46886 5.26709 0
M  V30 3719 N 365.754 1.75287 5.14563 0
M  V30 3720 H 369.556 1.36062 2.60508 0
M  V30 3721 H 367.07 0.83958 1.39014 0
M  V30 3722 H 369.067 -0.576295 4.12898 0
M  V30 3723 H 367.727 -1.07572 3.06363 0
M  V30 3724 H 368.738 2.25885 4.66043 0
M  V30 3725 H 365.415 -0.274006 4.166 0
M  V30 3726 H 366.805 3.43326 5.77561 0
M  V30 3727 N 369.525 -1.3858 0.750561 0
M  V30 3728 C 370.488 -2.28836 0.129152 0
M  V30 3729 C 371.488 -1.47045 -0.650714 0
M  V30 3730 O 372.678 -1.6753 -0.477428 0
M  V30 3731 C 369.81 -3.30751 -0.825622 0
M  V30 3732 H 371.003 -2.85294 0.924516 0
M  V30 3733 H 368.556 -1.47489 0.517376 0
M  V30 3734 H 369.291 -2.79378 -1.64677 0
M  V30 3735 H 369.076 -3.91177 -0.268852 0
M  V30 3736 H 370.566 -3.98249 -1.2565 0
M  V30 3737 N 371.003 -0.499398 -1.49478 0
M  V30 3738 C 372.251 0.0455996 -2.02049 0
M  V30 3739 C 372.572 1.37633 -1.38138 0
M  V30 3740 O 371.842 1.8842 -0.536166 0
M  V30 3741 H 370.422 0.0198416 -0.746736 0
M  V30 3742 H 373.084 -0.656274 -1.83519 0
M  V30 3743 H 372.18 0.176445 -3.11601 0
M  V30 3744 N 372.481 1.55866 -0.233164 0
M  V30 3745 C 373.709 2.02998 0.399905 0
M  V30 3746 C 374.124 1.11274 1.52524 0
M  V30 3747 O 373.481 0.124528 1.82075 0
M  V30 3748 C 373.532 3.4958 0.920639 0
M  V30 3749 O 373.253 4.37808 -0.159834 0
M  V30 3750 C 374.754 4.12411 1.62578 0
M  V30 3751 H 371.974 0.664006 0.0966281 0
M  V30 3752 H 374.518 2.0143 -0.353013 0
M  V30 3753 H 372.673 3.51727 1.62379 0
M  V30 3754 H 373.087 5.23981 0.23337 0
M  V30 3755 H 374.561 5.16711 1.94201 0
M  V30 3756 H 375.038 3.5809 2.54299 0
M  V30 3757 H 375.644 4.14148 0.967553 0
M  V30 3758 N 373.959 -0.0401083 1.57549 0
M  V30 3759 C 375.187 -0.745196 1.93014 0
M  V30 3760 C 375.602 -1.6948 0.831984 0
M  V30 3761 O 374.959 -1.81482 -0.192463 0
M  V30 3762 C 375.01 -1.51176 3.28372 0
M  V30 3763 O 374.731 -0.600284 4.33968 0
M  V30 3764 C 376.232 -2.315 3.78051 0
M  V30 3765 H 373.452 -0.210088 0.637263 0
M  V30 3766 H 375.996 -0.000924689 2.045 0
M  V30 3767 H 374.151 -2.20801 3.18317 0
M  V30 3768 H 374.565 -1.13669 5.12035 0
M  V30 3769 H 376.039 -2.80697 4.75303 0
M  V30 3770 H 376.516 -3.12436 3.08675 0
M  V30 3771 H 377.122 -1.66971 3.91153 0
M  V30 3772 N 375.437 -1.54477 -0.31217 0
M  V30 3773 C 376.4 -1.83923 -1.36766 0
M  V30 3774 C 377.4 -0.711563 -1.44199 0
M  V30 3775 O 378.59 -0.979866 -1.44029 0
M  V30 3776 C 375.722 -2.0095 -2.75376 0
M  V30 3777 H 376.915 -2.78239 -1.11906 0
M  V30 3778 H 374.468 -1.46369 -0.548257 0
M  V30 3779 H 375.203 -1.08883 -3.05475 0
M  V30 3780 H 374.988 -2.83018 -2.71373 0
M  V30 3781 H 376.478 -2.2514 -3.51713 0
M  V30 3782 N 376.915 0.57481 -1.46744 0
M  V30 3783 C 378.14 1.36341 -1.56288 0
M  V30 3784 C 378.565 1.86954 -0.207347 0
M  V30 3785 O 377.923 1.62006 0.813871 0
M  V30 3786 C 377.971 2.52147 -2.57787 0
M  V30 3787 O 377.075 3.53834 -2.11838 0
M  V30 3788 H 376.416 0.405713 -0.525636 0
M  V30 3789 H 378.946 0.696453 -1.92382 0
M  V30 3790 H 378.956 2.98958 -2.77648 0
M  V30 3791 H 377.631 2.14663 -3.5622 0
M  V30 3792 H 376.208 3.1345 -2.01999 0
M  V30 3793 N 378.394 1.34581 0.820102 0
M  V30 3794 C 379.619 1.30333 1.61332 0
M  V30 3795 C 380.044 -0.119339 1.87721 0
M  V30 3796 O 379.402 -1.08197 1.45475 0
M  V30 3797 C 379.45 2.10258 2.92957 0
M  V30 3798 O 378.554 1.47404 3.85157 0
M  V30 3799 H 377.895 0.447488 0.490561 0
M  V30 3800 H 380.425 1.77425 1.01889 0
M  V30 3801 H 380.435 2.21718 3.42498 0
M  V30 3802 H 379.11 3.13693 2.73074 0
M  V30 3803 H 377.687 1.44703 3.43679 0
M  V30 3804 N 379.872 -1.04064 1.18357 0
M  V30 3805 C 381.1 -1.80916 1.00384 0
M  V30 3806 C 381.515 -1.83414 -0.447738 0
M  V30 3807 O 380.872 -1.26962 -1.31099 0
M  V30 3808 C 380.923 -3.26516 1.55144 0
M  V30 3809 O 380.644 -3.2424 2.94618 0
M  V30 3810 C 382.145 -4.20013 1.41789 0
M  V30 3811 H 379.365 -0.569728 0.354474 0
M  V30 3812 H 381.909 -1.31151 1.56906 0
M  V30 3813 H 380.064 -3.73512 1.02798 0
M  V30 3814 H 380.478 -4.15452 3.20156 0
M  V30 3815 H 381.952 -5.20111 1.84901 0
M  V30 3816 H 382.429 -4.37667 0.36661 0
M  V30 3817 H 383.035 -3.78881 1.93207 0
M  V30 3818 N 381.35 -0.985608 -1.22978 0
M  V30 3819 C 382.578 -0.675582 -1.95559 0
M  V30 3820 C 382.993 0.758413 -1.72897 0
M  V30 3821 O 382.35 1.51094 -1.02357 0
M  V30 3822 C 382.401 -0.96293 -3.48439 0
M  V30 3823 O 382.122 -2.34057 -3.70336 0
M  V30 3824 C 383.623 -0.669585 -4.38214 0
M  V30 3825 H 380.843 -0.250523 -0.622478 0
M  V30 3826 H 383.387 -1.3184 -1.56328 0
M  V30 3827 H 381.542 -0.366033 -3.85667 0
M  V30 3828 H 381.956 -2.43424 -4.64591 0
M  V30 3829 H 383.43 -0.920967 -5.44263 0
M  V30 3830 H 383.907 0.396383 -4.37408 0
M  V30 3831 H 384.513 -1.2472 -4.06602 0
M  V30 3832 N 382.828 1.3818 -0.7579 0
M  V30 3833 C 384.075 2.00019 -0.315985 0
M  V30 3834 C 384.403 1.60163 1.10355 0
M  V30 3835 O 383.658 0.83264 1.77103 0
M  V30 3836 C 383.957 3.55252 -0.391218 0
M  V30 3837 C 383.623 4.14834 -1.76702 0
M  V30 3838 C 382.285 4.30821 -2.14353 0
M  V30 3839 C 384.637 4.47658 -2.66931 0
M  V30 3840 C 381.965 4.76928 -3.41696 0
M  V30 3841 C 384.317 4.95184 -3.93669 0
M  V30 3842 C 382.981 5.09377 -4.31383 0
M  V30 3843 H 382.251 0.731923 -0.115627 0
M  V30 3844 H 384.898 1.65161 -0.969223 0
M  V30 3845 H 383.203 3.90273 0.34558 0
M  V30 3846 H 384.9 4.00988 -0.030805 0
M  V30 3847 H 381.49 4.02808 -1.46435 0
M  V30 3848 H 385.674 4.34904 -2.39106 0
M  V30 3849 H 380.93 4.86103 -3.70829 0
M  V30 3850 H 385.104 5.19551 -4.63724 0
M  V30 3851 H 382.731 5.44865 -5.30119 0
M  V30 3852 N 384.306 0.507319 1.49211 0
M  V30 3853 C 385.717 0.0611118 1.866 0
M  V30 3854 C 386.068 -1.35488 1.41907 0
M  V30 3855 O 385.193 -2.0108 0.799726 0
M  V30 3856 C 385.788 0.104125 3.3864 0
M  V30 3857 C 384.347 -0.28677 3.75306 0
M  V30 3858 C 383.494 0.473893 2.73221 0
M  V30 3859 H 386.445 0.719775 1.41439 0
M  V30 3860 H 386.466 -0.689672 3.74198 0
M  V30 3861 H 385.978 1.13482 3.71138 0
M  V30 3862 H 384.079 -1.32046 3.48417 0
M  V30 3863 H 384.192 0.0370745 4.79086 0
M  V30 3864 H 382.556 -0.0770644 2.54583 0
M  V30 3865 H 383.339 1.50478 3.08563 0
M  V30 3866 N 385.784 -1.5574 0.241426 0
M  V30 3867 C 386.731 -2.21149 -0.660432 0
M  V30 3868 C 387.701 -1.17356 -1.17545 0
M  V30 3869 O 388.886 -1.45784 -1.23093 0
M  V30 3870 C 386.026 -2.91059 -1.85414 0
M  V30 3871 C 385.139 -4.09495 -1.37616 0
M  V30 3872 C 384.274 -4.67135 -2.529 0
M  V30 3873 C 383.313 -5.77831 -2.01936 0
M  V30 3874 N 382.45 -6.29677 -3.10566 0
M  V30 3875 H 387.29 -2.97845 -0.095955 0
M  V30 3876 H 384.827 -1.47057 -0.0356024 0
M  V30 3877 H 386.785 -3.29788 -2.5553 0
M  V30 3878 H 385.415 -2.16846 -2.39118 0
M  V30 3879 H 384.467 -3.76117 -0.569235 0
M  V30 3880 H 385.779 -4.89423 -0.962618 0
M  V30 3881 H 384.933 -5.08409 -3.31067 0
M  V30 3882 H 383.672 -3.86411 -2.97553 0
M  V30 3883 H 382.677 -5.36039 -1.22238 0
M  V30 3884 H 383.902 -6.60402 -1.58259 0
M  V30 3885 H 381.848 -5.5186 -3.54664 0
M  V30 3886 H 381.765 -7.04783 -2.73526 0
M  V30 3887 H 383.033 -6.75609 -3.88809 0
M  V30 3888 N 387.262 0.0317525 -1.57568 0
M  V30 3889 C 388.225 1.01783 -2.0536 0
M  V30 3890 C 389.225 1.29203 -0.957253 0
M  V30 3891 O 390.415 1.24251 -1.22095 0
M  V30 3892 C 387.547 2.35137 -2.46827 0
M  V30 3893 H 388.74 0.605062 -2.93733 0
M  V30 3894 H 386.293 0.278514 -1.53799 0
M  V30 3895 H 387.028 2.81168 -1.61602 0
M  V30 3896 H 386.813 2.16566 -3.26866 0
M  V30 3897 H 388.303 3.05938 -2.84239 0
M  V30 3898 N 388.74 1.54641 0.303973 0
M  V30 3899 C 389.688 1.86137 1.39484 0
M  V30 3900 C 390.682 0.734854 1.52631 0
M  V30 3901 O 391.888 0.918803 1.54784 0
M  V30 3902 H 388.263 0.590324 0.465856 0
M  V30 3903 H 390.234 2.77324 1.10154 0
M  V30 3904 C 388.983 2.12274 2.75382 0
M  V30 3905 H 388.306 2.98429 2.66046 0
M  V30 3906 H 389.746 2.38254 3.5073 0
M  V30 3907 C 388.205 0.920365 3.24085 0
M  V30 3908 O 388.735 0.139377 4.01458 0
M  V30 3909 N 386.941 0.726566 2.81371 0
M  V30 3910 H 386.488 1.36332 2.18567 0
M  V30 3911 H 386.446 -0.0763799 3.14307 0
M  V30 3912 N 390.218 -0.567019 1.47046 0
M  V30 3913 C 391.165 -1.67489 1.58796 0
M  V30 3914 C 392.135 -1.60399 0.43144 0
M  V30 3915 O 393.32 -1.79378 0.650233 0
M  V30 3916 C 390.46 -3.05821 1.59899 0
M  V30 3917 C 389.573 -3.2342 2.86397 0
M  V30 3918 C 388.708 -4.52093 2.789 0
M  V30 3919 C 387.747 -4.6309 4.00267 0
M  V30 3920 N 386.884 -5.83106 3.91064 0
M  V30 3921 H 391.724 -1.56785 2.53422 0
M  V30 3922 H 389.261 -0.763896 1.2571 0
M  V30 3923 H 391.219 -3.8591 1.58522 0
M  V30 3924 H 389.849 -3.15384 0.687929 0
M  V30 3925 H 388.901 -2.3683 2.97684 0
M  V30 3926 H 390.213 -3.27412 3.76301 0
M  V30 3927 H 389.367 -5.4043 2.75718 0
M  V30 3928 H 388.106 -4.50565 1.86662 0
M  V30 3929 H 387.111 -3.73168 4.03765 0
M  V30 3930 H 388.336 -4.66386 4.93621 0
M  V30 3931 H 386.282 -5.82546 3.01623 0
M  V30 3932 H 386.199 -5.88434 4.74638 0
M  V30 3933 H 387.467 -6.73831 3.91882 0
M  V30 3934 N 391.696 -1.35014 -0.812953 0
M  V30 3935 C 393.112 -1.14914 -1.10757 0
M  V30 3936 C 393.312 0.0426818 -2.01455 0
M  V30 3937 O 392.368 0.715212 -2.42159 0
M  V30 3938 C 393.681 -2.44911 -1.74468 0
M  V30 3939 C 395.229 -2.5106 -1.86917 0
M  V30 3940 C 395.704 -3.81085 -2.54044 0
M  V30 3941 N 397.195 -3.82301 -2.61535 0
M  V30 3942 C 397.93 -4.79634 -3.14227 0
M  V30 3943 N 397.426 -5.87353 -3.67407 0
M  V30 3944 N 399.219 -4.67078 -3.12721 0
M  V30 3945 H 391.37 -2.1136 -0.20989 0
M  V30 3946 H 393.633 -0.935128 -0.155692 0
M  V30 3947 H 393.339 -3.32267 -1.15289 0
M  V30 3948 H 393.213 -2.58989 -2.74234 0
M  V30 3949 H 395.6 -1.64137 -2.45241 0
M  V30 3950 H 395.681 -2.40901 -0.860242 0
M  V30 3951 H 395.325 -4.68402 -1.96372 0
M  V30 3952 H 395.255 -3.88529 -3.55461 0
M  V30 3953 H 397.746 -3.04465 -2.23851 0
M  V30 3954 H 398.059 -6.57624 -4.05894 0
M  V30 3955 H 396.404 -5.91054 -3.65623 0
M  V30 3956 H 399.595 -3.82067 -2.70449 0
M  V30 3957 H 399.768 -5.43098 -3.53481 0
M  V30 3958 N 393.175 1.03435 -1.18907 0
M  V30 3959 C 394.122 2.11591 -0.921837 0
M  V30 3960 C 395.092 1.65499 0.141226 0
M  V30 3961 O 396.277 1.908 0.000242829 0
M  V30 3962 C 393.417 3.42012 -0.460616 0
M  V30 3963 C 392.53 4.01682 -1.58982 0
M  V30 3964 C 391.665 5.20091 -1.08069 0
M  V30 3965 C 390.704 5.71805 -2.18416 0
M  V30 3966 N 389.841 6.81494 -1.68849 0
M  V30 3967 H 394.681 2.33787 -1.8479 0
M  V30 3968 H 392.218 1.1467 -0.921373 0
M  V30 3969 H 394.176 4.16834 -0.174642 0
M  V30 3970 H 392.806 3.19944 0.428467 0
M  V30 3971 H 391.858 3.24127 -1.99113 0
M  V30 3972 H 393.17 4.36084 -2.4214 0
M  V30 3973 H 392.324 6.02051 -0.749615 0
M  V30 3974 H 391.063 4.87209 -0.218771 0
M  V30 3975 H 390.068 4.88461 -2.5236 0
M  V30 3976 H 391.293 6.06728 -3.05054 0
M  V30 3977 H 389.239 6.50475 -0.849572 0
M  V30 3978 H 389.156 7.14994 -2.45601 0
M  V30 3979 H 390.424 7.67063 -1.38689 0
M  V30 3980 N 394.653 0.992116 1.22453 0
M  V30 3981 C 395.601 0.534644 2.26372 0
M  V30 3982 C 396.595 -0.414293 1.64256 0
M  V30 3983 O 397.801 -0.286899 1.77699 0
M  V30 3984 H 394.176 0.154502 0.735957 0
M  V30 3985 H 396.147 1.42256 2.62309 0
M  V30 3986 C 394.896 -0.135815 3.47435 0
M  V30 3987 H 394.219 0.585311 3.95492 0
M  V30 3988 H 395.659 -0.419374 4.21921 0
M  V30 3989 C 394.118 -1.37089 3.07747 0
M  V30 3990 O 394.648 -2.46629 3.17076 0
M  V30 3991 N 392.854 -1.24585 2.62539 0
M  V30 3992 H 392.401 -0.354542 2.55149 0
M  V30 3993 H 392.359 -2.07327 2.36353 0
M  V30 3994 N 396.131 -1.37776 0.765217 0
M  V30 3995 C 397.063 -2.28958 0.105361 0
M  V30 3996 C 398.076 -1.48316 -0.67128 0
M  V30 3997 O 399.265 -1.71046 -0.51045 0
M  V30 3998 C 396.365 -3.27421 -0.874569 0
M  V30 3999 C 395.538 -4.37132 -0.153123 0
M  V30 4000 C 394.597 -5.1571 -1.04547 0
M  V30 4001 O 393.623 -5.66896 -0.511672 0
M  V30 4002 N 394.825 -5.29808 -2.37243 0
M  V30 4003 H 397.59 -2.86227 0.888495 0
M  V30 4004 H 395.151 -1.49682 0.617 0
M  V30 4005 H 397.143 -3.7687 -1.47483 0
M  V30 4006 H 395.713 -2.70967 -1.55871 0
M  V30 4007 H 394.933 -3.89166 0.627975 0
M  V30 4008 H 396.221 -5.07625 0.345643 0
M  V30 4009 H 395.619 -4.89793 -2.83054 0
M  V30 4010 H 394.176 -5.82589 -2.9229 0
M  V30 4011 N 397.609 -0.515225 -1.4894 0
M  V30 4012 C 398.557 0.269115 -2.31038 0
M  V30 4013 C 399.551 0.949443 -1.40292 0
M  V30 4014 O 400.757 0.87551 -1.57273 0
M  V30 4015 H 397.132 0.10565 -0.744542 0
M  V30 4016 H 399.103 -0.443096 -2.95092 0
M  V30 4017 C 397.852 1.31213 -3.21991 0
M  V30 4018 H 397.175 0.798034 -3.91754 0
M  V30 4019 H 398.615 1.83263 -3.82349 0
M  V30 4020 C 397.074 2.33791 -2.42576 0
M  V30 4021 O 397.604 3.3995 -2.14003 0
M  V30 4022 N 395.81 2.06625 -2.0434 0
M  V30 4023 H 395.357 1.20314 -2.27777 0
M  V30 4024 H 395.315 2.75483 -1.51514 0
M  V30 4025 N 399.087 1.5561 -0.249682 0
M  V30 4026 C 400.336 1.98187 0.37479 0
M  V30 4027 C 400.649 1.14111 1.58865 0
M  V30 4028 O 401.855 1.46714 2.28445 0
M  V30 4029 C 400.311 3.52661 0.718192 0
M  V30 4030 C 399.919 4.45481 -0.474428 0
M  V30 4031 C 401.663 4.03888 1.3067 0
M  V30 4032 C 399.57 5.91303 -0.107026 0
M  V30 4033 H 398.5 0.740159 0.143808 0
M  V30 4034 H 401.151 1.80125 -0.350336 0
M  V30 4035 H 399.533 3.66429 1.50152 0
M  V30 4036 H 400.707 4.43473 -1.25172 0
M  V30 4037 H 399.022 4.04751 -0.978052 0
M  V30 4038 H 401.619 5.10358 1.59496 0
M  V30 4039 H 401.962 3.51401 2.23211 0
M  V30 4040 H 402.495 3.93457 0.586211 0
M  V30 4041 H 399.234 6.47833 -0.999642 0
M  V30 4042 H 398.754 5.9644 0.634013 0
M  V30 4043 H 400.433 6.46258 0.309807 0
M  V30 4044 N 400.565 -0.0233959 1.57583 0
M  V30 4045 C 401.813 -0.711654 1.89156 0
M  V30 4046 C 402.134 -1.75591 0.848096 0
M  V30 4047 O 401.404 -1.95547 -0.117566 0
M  V30 4048 H 399.984 -0.265835 0.698098 0
M  V30 4049 H 402.646 0.0119948 1.94896 0
M  V30 4050 H 401.742 -1.19766 2.88206 0
M  V30 4051 N 402.043 -1.548 -0.295768 0
M  V30 4052 C 403.273 -1.78069 -1.04762 0
M  V30 4053 C 403.681 -0.542847 -1.81245 0
M  V30 4054 O 403.024 0.497051 -1.76848 0
M  V30 4055 C 403.086 -2.93881 -2.07061 0
M  V30 4056 C 402.75 -4.31777 -1.49725 0
M  V30 4057 C 403.747 -5.11613 -0.924581 0
M  V30 4058 C 401.432 -4.78389 -1.5313 0
M  V30 4059 C 403.426 -6.36184 -0.393594 0
M  V30 4060 C 401.113 -6.02921 -0.996447 0
M  V30 4061 C 402.111 -6.81654 -0.428569 0
M  V30 4062 O 401.799 -8.0384 0.0981593 0
M  V30 4063 H 401.531 -0.597475 -0.316226 0
M  V30 4064 H 404.085 -2.02584 -0.338973 0
M  V30 4065 H 402.315 -2.65003 -2.81621 0
M  V30 4066 H 404.004 -3.04679 -2.6819 0
M  V30 4067 H 404.77 -4.76743 -0.891136 0
M  V30 4068 H 400.649 -4.17132 -1.9627 0
M  V30 4069 H 404.193 -6.97582 0.0503014 0
M  V30 4070 H 400.09 -6.37277 -1.02706 0
M  V30 4071 H 400.858 -8.18499 -0.0146455 0
M  V30 4072 N 403.521 0.559213 -1.47345 0
M  V30 4073 C 404.468 1.66645 -1.59682 0
M  V30 4074 C 405.438 1.60168 -0.43994 0
M  V30 4075 O 406.623 1.79031 -0.659736 0
M  V30 4076 C 403.763 3.04969 -1.61518 0
M  V30 4077 C 402.876 3.21897 -2.88108 0
M  V30 4078 C 402.011 4.50608 -2.81294 0
M  V30 4079 C 401.05 4.60961 -4.02717 0
M  V30 4080 N 400.187 5.81024 -3.94151 0
M  V30 4081 H 405.027 1.55439 -2.54249 0
M  V30 4082 H 402.564 0.757219 -1.26113 0
M  V30 4083 H 404.522 3.85064 -1.60566 0
M  V30 4084 H 403.152 3.15015 -0.704645 0
M  V30 4085 H 402.204 2.35248 -2.98936 0
M  V30 4086 H 403.516 3.25412 -3.78032 0
M  V30 4087 H 402.67 5.3896 -2.7858 0
M  V30 4088 H 401.409 4.49568 -1.89049 0
M  V30 4089 H 400.414 3.71021 -4.05738 0
M  V30 4090 H 401.639 4.63761 -4.96087 0
M  V30 4091 H 399.585 5.80938 -3.04708 0
M  V30 4092 H 399.502 5.85909 -4.77752 0
M  V30 4093 H 400.77 6.71744 -3.9545 0
M  V30 4094 N 404.999 1.35443 0.805782 0
M  V30 4095 C 405.929 1.31095 1.93226 0
M  V30 4096 C 406.91 0.185244 1.69088 0
M  V30 4097 O 408.095 0.380332 1.90439 0
M  V30 4098 C 405.225 1.08299 3.29983 0
M  V30 4099 C 404.179 2.17519 3.68605 0
M  V30 4100 C 403.505 1.79887 5.03532 0
M  V30 4101 C 404.805 3.5949 3.78898 0
M  V30 4102 H 406.499 2.25352 1.97122 0
M  V30 4103 H 404.045 1.0848 0.946996 0
M  V30 4104 H 405.998 1.03897 4.08391 0
M  V30 4105 H 404.722 0.104885 3.26432 0
M  V30 4106 H 403.381 2.2102 2.92482 0
M  V30 4107 H 403.029 0.80693 4.96485 0
M  V30 4108 H 402.729 2.53001 5.30344 0
M  V30 4109 H 404.253 1.77011 5.84379 0
M  V30 4110 H 405.667 3.58307 4.47536 0
M  V30 4111 H 404.064 4.31371 4.1718 0
M  V30 4112 H 405.134 3.95584 2.80431 0
M  V30 4113 N 406.477 -1.02803 1.19454 0
M  V30 4114 C 407.725 -1.75869 0.995722 0
M  V30 4115 C 408.046 -1.89138 -0.474543 0
M  V30 4116 O 407.316 -1.42558 -1.34366 0
M  V30 4117 H 405.896 -0.651511 0.365435 0
M  V30 4118 H 408.558 -1.24004 1.50363 0
M  V30 4119 H 407.654 -2.76661 1.44447 0
M  V30 4120 N 407.956 -0.998596 -1.21925 0
M  V30 4121 C 408.906 -0.524743 -2.21879 0
M  V30 4122 C 409.89 0.41017 -1.55584 0
M  V30 4123 O 411.082 0.236063 -1.75419 0
M  V30 4124 C 408.211 0.153636 -3.42956 0
M  V30 4125 C 407.297 -0.801918 -4.16449 0
M  V30 4126 N 407.688 -1.95211 -4.66611 0
M  V30 4127 C 405.986 -0.618972 -4.41684 0
M  V30 4128 C 406.687 -2.55234 -5.22715 0
M  V30 4129 N 405.663 -1.83451 -5.1171 0
M  V30 4130 H 409.465 -1.40189 -2.58311 0
M  V30 4131 H 406.979 -0.86159 -1.3766 0
M  V30 4132 H 408.976 0.510534 -4.13762 0
M  V30 4133 H 407.636 1.02684 -3.08036 0
M  V30 4134 H 408.647 -2.33271 -4.62391 0
M  V30 4135 H 405.324 0.207694 -4.16983 0
M  V30 4136 H 406.714 -3.52471 -5.72026 0
M  V30 4137 N 409.434 1.37368 -0.772513 0
M  V30 4138 C 410.85 1.53059 -0.452231 0
M  V30 4139 C 411.05 1.73065 1.03203 0
M  V30 4140 O 410.106 1.75245 1.81784 0
M  V30 4141 C 411.419 2.72659 -1.26797 0
M  V30 4142 C 412.967 2.86521 -1.25995 0
M  V30 4143 C 413.442 4.09105 -2.05905 0
M  V30 4144 N 414.933 4.16219 -2.03263 0
M  V30 4145 C 415.668 5.10107 -2.61875 0
M  V30 4146 N 415.164 6.09547 -3.29278 0
M  V30 4147 N 416.957 5.02596 -2.51701 0
M  V30 4148 H 409.108 1.22634 -1.7342 0
M  V30 4149 H 411.371 0.597206 -0.736239 0
M  V30 4150 H 411.077 2.64343 -2.31982 0
M  V30 4151 H 410.951 3.66363 -0.897672 0
M  V30 4152 H 413.338 2.94308 -0.216081 0
M  V30 4153 H 413.419 1.93774 -1.66989 0
M  V30 4154 H 413.063 4.0208 -3.10313 0
M  V30 4155 H 412.993 5.00968 -1.62292 0
M  V30 4156 H 415.484 3.45012 -1.54192 0
M  V30 4157 H 415.797 6.77718 -3.71374 0
M  V30 4158 H 414.142 6.09824 -3.33377 0
M  V30 4159 H 417.333 4.23855 -1.98657 0
M  V30 4160 H 417.506 5.75582 -2.97673 0
M  V30 4161 N 410.912 0.523116 1.48665 0
M  V30 4162 C 412.328 0.180511 1.58576 0
M  V30 4163 C 412.528 -1.31597 1.52592 0
M  V30 4164 O 411.584 -2.0937 1.4114 0
M  V30 4165 C 412.897 0.776949 2.90489 0
M  V30 4166 C 414.445 0.745058 3.04003 0
M  V30 4167 C 414.92 1.31995 4.38567 0
M  V30 4168 N 416.411 1.28162 4.45117 0
M  V30 4169 C 417.146 1.6964 5.47731 0
M  V30 4170 N 416.642 2.18816 6.57337 0
M  V30 4171 N 418.435 1.6092 5.38573 0
M  V30 4172 H 410.586 1.4958 1.50797 0
M  V30 4173 H 412.849 0.621772 0.715614 0
M  V30 4174 H 412.555 1.82732 3.00503 0
M  V30 4175 H 412.429 0.25007 3.7637 0
M  V30 4176 H 414.816 -0.296532 2.93606 0
M  V30 4177 H 414.897 1.30933 2.1975 0
M  V30 4178 H 414.541 2.36043 4.49718 0
M  V30 4179 H 414.471 0.731418 5.21496 0
M  V30 4180 H 416.962 0.92155 3.66491 0
M  V30 4181 H 417.275 2.48478 7.31764 0
M  V30 4182 H 415.62 2.22805 6.58318 0
M  V30 4183 H 418.811 1.22304 4.5184 0
M  V30 4184 H 418.984 1.93567 6.18414 0
M  V30 4185 N 412.39 -1.55475 0.257931 0
M  V30 4186 C 413.353 -2.20551 -0.623706 0
M  V30 4187 C 414.353 -1.17809 -1.09443 0
M  V30 4188 O 415.543 -1.42823 -0.997362 0
M  V30 4189 C 412.675 -2.85784 -1.8585 0
M  V30 4190 H 413.868 -2.99848 -0.0557743 0
M  V30 4191 H 411.421 -1.56298 0.0084422 0
M  V30 4192 H 412.156 -2.10453 -2.46739 0
M  V30 4193 H 411.941 -3.61057 -1.52907 0
M  V30 4194 H 413.431 -3.35553 -2.48584 0
M  V30 4195 N 413.868 0.0150385 -1.57593 0
M  V30 4196 C 414.798 1.01047 -2.10503 0
M  V30 4197 C 415.779 1.36816 -1.01071 0
M  V30 4198 O 416.964 1.45455 -1.28672 0
M  V30 4199 C 414.094 2.30708 -2.59598 0
M  V30 4200 C 413.048 2.09142 -3.73421 0
M  V30 4201 C 412.374 3.44685 -4.08774 0
M  V30 4202 C 413.674 1.46619 -5.01298 0
M  V30 4203 H 415.368 0.569978 -2.93925 0
M  V30 4204 H 412.914 0.272724 -1.41394 0
M  V30 4205 H 414.867 3.00687 -2.95238 0
M  V30 4206 H 413.591 2.76843 -1.73279 0
M  V30 4207 H 412.25 1.41592 -3.38153 0
M  V30 4208 H 411.898 3.88495 -3.195 0
M  V30 4209 H 411.598 3.31077 -4.8545 0
M  V30 4210 H 413.122 4.16004 -4.4696 0
M  V30 4211 H 414.536 2.06535 -5.34805 0
M  V30 4212 H 412.933 1.43544 -5.82679 0
M  V30 4213 H 414.003 0.433611 -4.82957 0
M  V30 4214 N 415.346 1.54954 0.287554 0
M  V30 4215 C 416.593 1.74873 1.02106 0
M  V30 4216 C 416.921 0.541829 1.86801 0
M  V30 4217 O 416.176 -0.475992 1.89823 0
M  V30 4218 C 416.475 2.99833 1.94512 0
M  V30 4219 C 416.141 4.33029 1.25686 0
M  V30 4220 C 414.803 4.69233 1.06649 0
M  V30 4221 C 417.155 5.15542 0.765913 0
M  V30 4222 C 414.483 5.85518 0.372222 0
M  V30 4223 C 416.835 6.32542 0.0853101 0
M  V30 4224 C 415.499 6.67398 -0.1169 0
M  V30 4225 H 414.769 0.639906 0.373632 0
M  V30 4226 H 417.416 1.89219 0.294665 0
M  V30 4227 H 415.721 2.80325 2.73725 0
M  V30 4228 H 417.418 3.1244 2.51361 0
M  V30 4229 H 414.008 4.04564 1.41512 0
M  V30 4230 H 418.192 4.88059 0.90066 0
M  V30 4231 H 413.448 6.11057 0.204695 0
M  V30 4232 H 417.622 6.95741 -0.302936 0
M  V30 4233 H 415.249 7.57357 -0.656859 0
M  V30 4234 N 416.824 -0.551391 1.4764 0
M  V30 4235 C 417.734 -1.68525 1.63207 0
M  V30 4236 C 418.75 -1.6621 0.514815 0
M  V30 4237 O 419.926 -1.85551 0.783113 0
M  V30 4238 C 416.991 -3.05025 1.64805 0
M  V30 4239 C 416.052 -3.18362 2.88 0
M  V30 4240 C 415.285 -4.4835 2.89513 0
M  V30 4241 O 415.508 -5.34163 2.00065 0
M  V30 4242 O 414.442 -4.65602 3.81443 0
M  V30 4243 H 418.268 -1.58333 2.59161 0
M  V30 4244 H 415.853 -0.722063 1.30792 0
M  V30 4245 H 417.735 -3.86245 1.68502 0
M  V30 4246 H 416.41 -3.15587 0.720197 0
M  V30 4247 H 415.317 -2.36518 2.89845 0
M  V30 4248 H 416.65 -3.12707 3.80099 0
M  V30 4249 N 418.302 -1.35869 -0.798587 0
M  V30 4250 C 419.249 -1.29446 -1.91082 0
M  V30 4251 C 420.219 -0.16487 -1.6528 0
M  V30 4252 O 421.404 -0.349888 -1.87564 0
M  V30 4253 C 418.544 -1.0804 -3.27752 0
M  V30 4254 C 417.657 -2.29993 -3.65687 0
M  V30 4255 C 416.792 -2.01673 -4.91428 0
M  V30 4256 C 415.831 -3.19636 -5.22015 0
M  V30 4257 N 414.968 -2.91039 -6.38937 0
M  V30 4258 H 419.808 -2.24553 -1.95907 0
M  V30 4259 H 417.345 -1.11615 -0.958148 0
M  V30 4260 H 419.303 -0.936586 -4.06551 0
M  V30 4261 H 417.933 -0.16592 -3.22373 0
M  V30 4262 H 416.985 -2.55211 -2.82085 0
M  V30 4263 H 418.297 -3.18052 -3.84245 0
M  V30 4264 H 417.451 -1.84168 -5.78072 0
M  V30 4265 H 416.19 -1.10911 -4.74921 0
M  V30 4266 H 415.195 -3.37709 -4.33858 0
M  V30 4267 H 416.42 -4.11211 -5.40447 0
M  V30 4268 H 414.366 -2.0288 -6.2384 0
M  V30 4269 H 414.283 -3.72635 -6.57784 0
M  V30 4270 H 415.551 -2.77093 -7.28587 0
M  V30 4271 N 419.78 1.02168 -1.19998 0
M  V30 4272 C 421.196 1.27969 -0.953737 0
M  V30 4273 C 421.396 1.98079 0.369703 0
M  V30 4274 O 420.452 2.27306 1.09947 0
M  V30 4275 C 421.765 2.11971 -2.13281 0
M  V30 4276 C 423.313 2.25255 -2.17323 0
M  V30 4277 C 423.788 3.12632 -3.34702 0
M  V30 4278 N 425.279 3.2022 -3.34684 0
M  V30 4279 C 426.014 3.88039 -4.22153 0
M  V30 4280 N 425.51 4.58027 -5.19791 0
M  V30 4281 N 427.303 3.84511 -4.10009 0
M  V30 4282 H 419.454 0.550794 -2.05134 0
M  V30 4283 H 421.717 0.305683 -0.897364 0
M  V30 4284 H 421.423 1.67785 -3.09097 0
M  V30 4285 H 421.297 3.12699 -2.10949 0
M  V30 4286 H 423.684 2.68667 -1.22073 0
M  V30 4287 H 423.765 1.24053 -2.23706 0
M  V30 4288 H 423.409 2.69926 -4.30235 0
M  V30 4289 H 423.339 4.13909 -3.25556 0
M  V30 4290 H 425.83 2.70382 -2.64012 0
M  V30 4291 H 426.143 5.07429 -5.82868 0
M  V30 4292 H 424.488 4.56869 -5.23733 0
M  V30 4293 H 427.679 3.28978 -3.33003 0
M  V30 4294 H 427.852 4.3709 -4.78389 0
M  V30 4295 N 421.258 1.00505 1.21394 0
M  V30 4296 C 422.205 0.565496 2.23765 0
M  V30 4297 C 423.175 -0.408466 1.60999 0
M  V30 4298 O 424.36 -0.310503 1.88257 0
M  V30 4299 C 421.5 -0.101667 3.4495 0
M  V30 4300 C 420.613 0.915479 4.22188 0
M  V30 4301 C 419.748 0.220574 5.30742 0
M  V30 4302 C 418.787 1.22527 5.99711 0
M  V30 4303 N 417.924 0.557831 6.9988 0
M  V30 4304 H 422.764 1.44314 2.60725 0
M  V30 4305 H 420.301 0.722643 1.28126 0
M  V30 4306 H 422.259 -0.505504 4.14126 0
M  V30 4307 H 420.889 -0.94303 3.08718 0
M  V30 4308 H 419.941 1.43756 3.52191 0
M  V30 4309 H 421.253 1.68005 4.69655 0
M  V30 4310 H 420.407 -0.239368 6.06228 0
M  V30 4311 H 419.146 -0.576401 4.84282 0
M  V30 4312 H 418.151 1.69571 5.22997 0
M  V30 4313 H 419.376 2.02332 6.48258 0
M  V30 4314 H 417.322 -0.219486 6.55633 0
M  V30 4315 H 417.239 1.26065 7.45415 0
M  V30 4316 H 418.507 0.121095 7.79406 0
M  V30 4317 N 422.737 -1.36956 0.779787 0
M  V30 4318 C 424.153 -1.52817 0.460342 0
M  V30 4319 C 424.353 -1.7361 -1.02283 0
M  V30 4320 O 423.409 -1.76207 -1.80852 0
M  V30 4321 C 424.722 -2.71983 1.28241 0
M  V30 4322 C 426.27 -2.85849 1.27512 0
M  V30 4323 C 426.745 -4.08008 2.08072 0
M  V30 4324 N 428.236 -4.15135 2.05467 0
M  V30 4325 C 428.971 -5.08711 2.64577 0
M  V30 4326 N 428.467 -6.07792 3.32506 0
M  V30 4327 N 430.26 -5.01254 2.54363 0
M  V30 4328 H 422.411 -1.21713 1.74068 0
M  V30 4329 H 424.674 -0.593294 0.739396 0
M  V30 4330 H 424.38 -2.63109 2.33381 0
M  V30 4331 H 424.254 -3.65882 0.917088 0
M  V30 4332 H 426.641 -2.94189 0.231686 0
M  V30 4333 H 426.722 -1.92886 1.68014 0
M  V30 4334 H 426.366 -4.00429 3.12441 0
M  V30 4335 H 426.296 -5.001 1.64947 0
M  V30 4336 H 428.787 -3.44189 1.5602 0
M  V30 4337 H 429.1 -6.75739 3.74963 0
M  V30 4338 H 427.445 -6.08047 3.36606 0
M  V30 4339 H 430.636 -4.22795 2.00902 0
M  V30 4340 H 430.809 -5.73995 3.00722 0
M  V30 4341 N 424.215 -0.530993 -1.48385 0
M  V30 4342 C 425.145 0.219985 -2.32461 0
M  V30 4343 C 426.126 0.934111 -1.42156 0
M  V30 4344 O 427.311 0.919694 -1.71042 0
M  V30 4345 C 424.441 1.26674 -3.23375 0
M  V30 4346 C 423.395 0.67069 -4.22712 0
M  V30 4347 C 422.721 1.82017 -5.02766 0
M  V30 4348 C 424.021 -0.358268 -5.2107 0
M  V30 4349 H 425.715 -0.48187 -2.95497 0
M  V30 4350 H 423.261 -0.233182 -1.42099 0
M  V30 4351 H 425.214 1.80006 -3.81019 0
M  V30 4352 H 423.938 1.99818 -2.58341 0
M  V30 4353 H 422.597 0.158878 -3.66256 0
M  V30 4354 H 422.245 2.54002 -4.34157 0
M  V30 4355 H 421.945 1.42727 -5.70003 0
M  V30 4356 H 423.469 2.35725 -5.63264 0
M  V30 4357 H 424.883 0.0880081 -5.73232 0
M  V30 4358 H 423.28 -0.66861 -5.96364 0
M  V30 4359 H 424.35 -1.26367 -4.68145 0
M  V30 4360 N 425.693 1.55336 -0.266172 0
M  V30 4361 C 426.918 2.04258 0.359661 0
M  V30 4362 C 427.343 1.14359 1.49344 0
M  V30 4363 O 426.701 0.140369 1.80756 0
M  V30 4364 C 426.749 3.50997 0.826635 0
M  V30 4365 O 425.853 3.64204 1.93466 0
M  V30 4366 H 425.194 0.659668 0.075727 0
M  V30 4367 H 427.724 2.00694 -0.39786 0
M  V30 4368 H 427.734 3.9219 1.12477 0
M  V30 4369 H 426.409 4.159 -0.00293032 0
M  V30 4370 H 424.986 3.34913 1.63974 0
M  V30 4371 N 427.171 -0.0066808 1.57599 0
M  V30 4372 C 428.448 -0.729586 1.81484 0
M  V30 4373 C 428.828 -1.92359 0.869558 0
M  V30 4374 O 428.176 -2.28348 -0.0832533 0
M  V30 4375 C 428.386 -1.1416 3.29801 0
M  V30 4376 C 429.734 -1.54823 3.95367 0
M  V30 4377 O 430.758 -1.23558 3.34084 0
M  V30 4378 O 429.617 -2.12937 5.03309 0
M  V30 4379 H 426.711 -0.354674 0.747085 0
M  V30 4380 H 429.257 0.0182609 1.6969 0
M  V30 4381 H 428.029 -0.290231 3.90222 0
M  V30 4382 H 427.652 -1.94876 3.46568 0
M  V30 4383 N 428.649 -1.55105 -0.279332 0
M  V30 4384 C 429.879 -1.7917 -1.02867 0
M  V30 4385 C 430.287 -0.56204 -1.80659 0
M  V30 4386 O 429.63 0.478266 -1.77365 0
M  V30 4387 C 429.692 -2.96061 -2.03932 0
M  V30 4388 C 429.356 -4.33341 -1.45137 0
M  V30 4389 C 430.353 -5.12565 -0.870266 0
M  V30 4390 C 428.038 -4.79987 -1.48048 0
M  V30 4391 C 430.032 -6.36565 -0.326097 0
M  V30 4392 C 427.719 -6.03944 -0.932443 0
M  V30 4393 C 428.717 -6.8207 -0.356247 0
M  V30 4394 O 428.405 -8.03691 0.183412 0
M  V30 4395 H 428.137 -0.600796 -0.309872 0
M  V30 4396 H 430.691 -2.02932 -0.317468 0
M  V30 4397 H 428.921 -2.67975 -2.78794 0
M  V30 4398 H 430.61 -3.07506 -2.64943 0
M  V30 4399 H 431.376 -4.77661 -0.840521 0
M  V30 4400 H 427.255 -4.1919 -1.91835 0
M  V30 4401 H 430.799 -6.97489 0.124286 0
M  V30 4402 H 426.696 -6.3833 -0.959407 0
M  V30 4403 H 427.464 -8.18468 0.0721681 0
M  V30 4404 N 430.127 0.543554 -1.4793 0
M  V30 4405 C 431.09 1.63156 -1.60975 0
M  V30 4406 C 432.09 1.53346 -0.483899 0
M  V30 4407 O 433.28 1.5726 -0.749339 0
M  V30 4408 C 430.412 3.02743 -1.56716 0
M  V30 4409 H 431.605 1.52934 -2.57975 0
M  V30 4410 H 429.158 0.764557 -1.36324 0
M  V30 4411 H 429.893 3.18484 -0.611418 0
M  V30 4412 H 429.678 3.11272 -2.38438 0
M  V30 4413 H 431.168 3.81871 -1.6901 0
M  V30 4414 N 431.605 1.3629 0.791371 0
M  V30 4415 C 432.535 1.33137 1.91825 0
M  V30 4416 C 433.516 0.203168 1.68882 0
M  V30 4417 O 434.701 0.400509 1.90025 0
M  V30 4418 C 431.831 1.11793 3.28816 0
M  V30 4419 C 430.785 2.21417 3.66277 0
M  V30 4420 C 430.111 1.85218 5.01596 0
M  V30 4421 C 431.411 3.63489 3.75064 0
M  V30 4422 H 433.105 2.2743 1.9472 0
M  V30 4423 H 430.651 1.09479 0.935437 0
M  V30 4424 H 432.604 1.08222 4.07266 0
M  V30 4425 H 431.328 0.139501 3.26302 0
M  V30 4426 H 429.987 2.2411 2.90121 0
M  V30 4427 H 429.635 0.859544 4.95602 0
M  V30 4428 H 429.335 2.58611 5.27631 0
M  V30 4429 H 430.859 1.832 5.82469 0
M  V30 4430 H 432.273 3.63034 4.43711 0
M  V30 4431 H 430.67 4.35771 4.12582 0
M  V30 4432 H 431.74 3.98536 2.76219 0
M  V30 4433 N 433.083 -1.0153 1.20538 0
M  V30 4434 C 434.332 -1.74558 1.01057 0
M  V30 4435 C 434.645 -1.90168 -0.457756 0
M  V30 4436 O 435.851 -2.60301 -0.771722 0
M  V30 4437 C 434.307 -3.13963 1.75941 0
M  V30 4438 C 433.915 -3.06361 3.26875 0
M  V30 4439 C 435.659 -3.91191 1.64832 0
M  V30 4440 C 433.566 -4.40782 3.94291 0
M  V30 4441 H 432.496 -0.654417 0.374505 0
M  V30 4442 H 435.147 -1.13521 1.44171 0
M  V30 4443 H 433.529 -3.75549 1.25614 0
M  V30 4444 H 434.703 -2.54074 3.84425 0
M  V30 4445 H 433.018 -2.42625 3.38411 0
M  V30 4446 H 435.615 -4.90644 2.12539 0
M  V30 4447 H 435.958 -4.11884 0.604745 0
M  V30 4448 H 436.491 -3.36236 2.12579 0
M  V30 4449 H 433.23 -4.25292 4.98805 0
M  V30 4450 H 432.75 -4.9307 3.41529 0
M  V30 4451 H 434.429 -5.09621 3.98617 0
M  V30 4452 N 434.561 -1.01147 -1.20859 0
M  V30 4453 C 435.808 -0.697865 -1.90095 0
M  V30 4454 C 436.136 0.772014 -1.78522 0
M  V30 4455 O 435.391 1.57595 -1.16027 0
M  V30 4456 C 435.69 -1.0727 -3.40922 0
M  V30 4457 C 435.356 -2.53792 -3.72693 0
M  V30 4458 C 434.018 -2.93829 -3.81075 0
M  V30 4459 C 436.37 -3.48674 -3.87397 0
M  V30 4460 C 433.698 -4.27696 -4.01613 0
M  V30 4461 C 436.05 -4.82223 -4.09444 0
M  V30 4462 C 434.714 -5.21973 -4.16054 0
M  V30 4463 H 433.984 -0.255367 -0.695607 0
M  V30 4464 H 436.631 -1.27111 -1.43231 0
M  V30 4465 H 434.936 -0.417799 -3.89566 0
M  V30 4466 H 436.633 -0.807818 -3.92779 0
M  V30 4467 H 433.223 -2.21768 -3.66765 0
M  V30 4468 H 437.407 -3.18904 -3.80281 0
M  V30 4469 H 432.663 -4.58055 -4.04964 0
M  V30 4470 H 436.837 -5.55672 -4.19763 0
M  V30 4471 H 434.464 -6.25717 -4.31721 0
M  V30 4472 N 436.039 1.36541 -0.78704 0
M  V30 4473 C 437.287 1.98911 -0.357633 0
M  V30 4474 C 437.608 1.62778 1.07371 0
M  V30 4475 O 436.878 0.900612 1.73971 0
M  V30 4476 H 435.458 0.735734 -0.129246 0
M  V30 4477 H 438.12 1.66776 -1.00855 0
M  V30 4478 H 437.216 3.08874 -0.447549 0
M  V30 4479 N 437.518 0.538854 1.48102 0
M  V30 4480 C 438.451 -0.266495 2.26639 0
M  V30 4481 C 439.429 -0.93687 1.32897 0
M  V30 4482 O 440.613 -0.959507 1.62252 0
M  V30 4483 C 437.74 -1.37814 3.09394 0
M  V30 4484 C 436.786 -0.818247 4.18577 0
M  V30 4485 S 437.619 0.320848 5.34538 0
M  V30 4486 C 438.775 -0.793059 6.20855 0
M  V30 4487 H 439.008 0.399994 2.94597 0
M  V30 4488 H 436.541 0.324808 1.50945 0
M  V30 4489 H 438.499 -2.01488 3.57649 0
M  V30 4490 H 437.16 -2.01639 2.40833 0
M  V30 4491 H 436.353 -1.65247 4.7614 0
M  V30 4492 H 435.955 -0.258036 3.73109 0
M  V30 4493 H 438.247 -1.68961 6.56093 0
M  V30 4494 H 439.19 -0.255204 7.0764 0
M  V30 4495 H 439.598 -1.07746 5.54122 0
M  V30 4496 N 438.996 -1.55193 0.274407 0
M  V30 4497 C 440.243 -1.99581 -0.342579 0
M  V30 4498 C 440.571 -1.1628 -1.55914 0
M  V30 4499 O 439.826 -0.22029 -1.94456 0
M  V30 4500 C 440.125 -3.49019 -0.769458 0
M  V30 4501 C 439.791 -4.49598 0.342389 0
M  V30 4502 C 438.453 -4.76821 0.647686 0
M  V30 4503 C 440.805 -5.0964 1.09163 0
M  V30 4504 C 438.133 -5.61354 1.70581 0
M  V30 4505 C 440.485 -5.95323 2.13948 0
M  V30 4506 C 439.149 -6.20867 2.45113 0
M  V30 4507 H 438.419 -0.730319 -0.125358 0
M  V30 4508 H 441.066 -1.87529 0.387971 0
M  V30 4509 H 439.371 -3.58544 -1.57967 0
M  V30 4510 H 441.068 -3.8077 -1.25757 0
M  V30 4511 H 437.658 -4.28496 0.094318 0
M  V30 4512 H 441.842 -4.88632 0.869024 0
M  V30 4513 H 437.098 -5.79392 1.9523 0
M  V30 4514 H 441.272 -6.40881 2.72478 0
M  V30 4515 H 438.899 -6.86162 3.27239 0
M  V30 4516 N 440.474 -0.00167713 -1.576 0
M  V30 4517 C 441.722 0.681471 -1.90264 0
M  V30 4518 C 442.043 1.7422 -0.875924 0
M  V30 4519 O 441.313 1.95709 0.0864412 0
M  V30 4520 H 439.893 0.254696 -0.702239 0
M  V30 4521 H 442.555 -0.0429996 -1.94853 0
M  V30 4522 H 441.651 1.15166 -2.90075 0
M  V30 4523 N 441.952 1.55251 0.271103 0
M  V30 4524 C 443.201 1.75151 1.00025 0
M  V30 4525 C 443.514 0.561041 1.87381 0
M  V30 4526 O 444.72 0.642506 2.63788 0
M  V30 4527 C 443.176 3.09999 1.82835 0
M  V30 4528 C 442.784 4.3662 1.00336 0
M  V30 4529 C 444.528 3.39249 2.55168 0
M  V30 4530 C 442.435 5.62506 1.82595 0
M  V30 4531 H 441.365 0.652877 0.377183 0
M  V30 4532 H 444.016 1.81708 0.255843 0
M  V30 4533 H 442.398 2.97485 2.61378 0
M  V30 4534 H 443.572 4.60055 0.261959 0
M  V30 4535 H 441.887 4.14527 0.394486 0
M  V30 4536 H 444.484 4.3051 3.1712 0
M  V30 4537 H 444.827 2.59467 3.2555 0
M  V30 4538 H 445.36 3.52869 1.83653 0
M  V30 4539 H 442.099 6.45041 1.16631 0
M  V30 4540 H 441.619 5.43211 2.54327 0
M  V30 4541 H 443.298 6.00875 2.39913 0
M  V30 4542 N 443.43 -0.535701 1.48216 0
M  V30 4543 C 444.676 -1.29375 1.56173 0
M  V30 4544 C 445.009 -1.92804 0.232429 0
M  V30 4545 O 444.284 -1.78992 -0.761048 0
M  V30 4546 C 444.567 -2.38747 2.69577 0
M  V30 4547 C 444.42 -1.80046 4.12193 0
M  V30 4548 C 445.739 -3.40551 2.78771 0
M  V30 4549 H 442.858 -0.469027 0.568491 0
M  V30 4550 H 445.5 -0.597358 1.80365 0
M  V30 4551 H 443.65 -2.98147 2.4908 0
M  V30 4552 H 445.322 -1.24742 4.44114 0
M  V30 4553 H 443.565 -1.10609 4.19462 0
M  V30 4554 H 444.236 -2.59212 4.87353 0
M  V30 4555 H 446.712 -2.91099 2.97322 0
M  V30 4556 H 445.588 -4.1448 3.59857 0
M  V30 4557 H 445.849 -4.00746 1.86696 0
M  V30 4558 N 444.908 -1.36708 -0.784132 0
M  V30 4559 C 446.154 -1.31426 -1.54451 0
M  V30 4560 C 446.487 0.10476 -1.93917 0
M  V30 4561 O 445.762 1.05934 -1.6312 0
M  V30 4562 C 446.045 -2.24189 -2.818 0
M  V30 4563 C 445.898 -3.74813 -2.48667 0
M  V30 4564 C 447.217 -2.15626 -3.83658 0
M  V30 4565 H 444.336 -0.478739 -0.560337 0
M  V30 4566 H 446.978 -1.67305 -0.900498 0
M  V30 4567 H 445.128 -1.93722 -3.36755 0
M  V30 4568 H 446.8 -4.15823 -1.99722 0
M  V30 4569 H 445.043 -3.93989 -1.81535 0
M  V30 4570 H 445.714 -4.35138 -3.39646 0
M  V30 4571 H 448.19 -2.42456 -3.38163 0
M  V30 4572 H 447.066 -2.82694 -4.70506 0
M  V30 4573 H 447.327 -1.14522 -4.27009 0
M  V30 4574 N 446.386 1.0089 -1.21074 0
M  V30 4575 C 447.319 2.09279 -0.909806 0
M  V30 4576 C 448.297 1.61986 0.141145 0
M  V30 4577 O 449.481 1.88495 0.0130332 0
M  V30 4578 C 446.608 3.36723 -0.365374 0
M  V30 4579 C 445.654 4.02919 -1.39852 0
M  V30 4580 S 446.487 4.45835 -2.96633 0
M  V30 4581 C 447.643 5.76471 -2.43786 0
M  V30 4582 H 447.876 2.34484 -1.82769 0
M  V30 4583 H 445.409 1.14115 -1.04006 0
M  V30 4584 H 447.367 4.10459 -0.0578203 0
M  V30 4585 H 446.028 3.09577 0.531136 0
M  V30 4586 H 445.221 4.94634 -0.967117 0
M  V30 4587 H 444.823 3.35441 -1.65395 0
M  V30 4588 H 447.115 6.52027 -1.84029 0
M  V30 4589 H 448.058 6.24418 -3.33928 0
M  V30 4590 H 448.466 5.33104 -1.85636 0
M  V30 4591 N 447.864 1.01787 1.20321 0
M  V30 4592 C 449.11 0.708985 1.90003 0
M  V30 4593 C 449.443 -0.759572 1.78729 0
M  V30 4594 O 448.718 -1.55198 1.17234 0
M  V30 4595 C 449.001 1.1469 3.41348 0
M  V30 4596 C 448.854 2.67586 3.61549 0
M  V30 4597 C 450.173 0.71915 4.34185 0
M  V30 4598 H 447.292 0.259034 0.689978 0
M  V30 4599 H 449.934 1.26584 1.41692 0
M  V30 4600 H 448.084 0.673128 3.82624 0
M  V30 4601 H 449.756 3.22826 3.29517 0
M  V30 4602 H 447.999 3.085 3.04976 0
M  V30 4603 H 448.67 2.93281 4.67643 0
M  V30 4604 H 451.146 1.12647 4.00562 0
M  V30 4605 H 450.022 1.05358 5.38694 0
M  V30 4606 H 450.283 -0.379111 4.40472 0
M  V30 4607 N 449.342 -1.36122 0.79427 0
M  V30 4608 C 450.591 -1.98361 0.365464 0
M  V30 4609 C 450.904 -1.6374 -1.06997 0
M  V30 4610 O 452.11 -2.19251 -1.60129 0
M  V30 4611 C 450.566 -3.54821 0.602496 0
M  V30 4612 C 450.174 -3.98362 2.04967 0
M  V30 4613 C 451.918 -4.2383 0.238437 0
M  V30 4614 C 449.825 -5.47619 2.2331 0
M  V30 4615 H 448.755 -0.742193 0.13291 0
M  V30 4616 H 451.406 -1.55354 0.976589 0
M  V30 4617 H 449.788 -3.95922 -0.078409 0
M  V30 4618 H 450.962 -3.68447 2.76737 0
M  V30 4619 H 449.277 -3.42206 2.37243 0
M  V30 4620 H 451.874 -5.33529 0.353705 0
M  V30 4621 H 452.217 -4.08264 -0.814006 0
M  V30 4622 H 452.75 -3.88108 0.872769 0
M  V30 4623 H 449.489 -5.68138 3.26955 0
M  V30 4624 H 449.009 -5.79145 1.5605 0
M  V30 4625 H 450.688 -6.13911 2.0426 0
M  V30 4626 N 450.82 -0.546701 -1.47814 0
M  V30 4627 C 451.73 0.21026 -2.33656 0
M  V30 4628 C 452.746 0.922413 -1.47538 0
M  V30 4629 O 453.922 0.893652 -1.80488 0
M  V30 4630 C 450.987 1.23348 -3.24016 0
M  V30 4631 C 450.048 0.529883 -4.26017 0
M  V30 4632 C 449.281 1.50435 -5.12059 0
M  V30 4633 O 449.504 2.73837 -5.00369 0
M  V30 4634 O 448.438 1.03459 -5.92942 0
M  V30 4635 H 452.264 -0.493605 -2.99662 0
M  V30 4636 H 449.849 -0.307427 -1.46203 0
M  V30 4637 H 451.731 1.82438 -3.79861 0
M  V30 4638 H 450.406 1.91945 -2.60651 0
M  V30 4639 H 449.313 -0.101948 -3.73961 0
M  V30 4640 H 450.646 -0.11445 -4.92067 0
M  V30 4641 N 452.299 1.55045 -0.282633 0
M  V30 4642 C 453.527 2.04168 0.33512 0
M  V30 4643 C 453.942 1.16071 1.48906 0
M  V30 4644 O 453.299 0.182391 1.81586 0
M  V30 4645 C 453.35 3.52332 0.808957 0
M  V30 4646 O 453.071 4.37078 -0.299038 0
M  V30 4647 C 454.572 4.17375 1.49375 0
M  V30 4648 H 451.792 0.666744 0.0754543 0
M  V30 4649 H 454.336 2.00205 -0.416918 0
M  V30 4650 H 452.491 3.56715 1.51106 0
M  V30 4651 H 452.905 5.24458 0.0665514 0
M  V30 4652 H 454.379 5.22627 1.77664 0
M  V30 4653 H 454.856 3.65999 2.42778 0
M  V30 4654 H 455.462 4.17016 0.835305 0
M  V30 4655 N 453.777 0.010035 1.57597 0
M  V30 4656 C 454.687 -0.994226 2.12491 0
M  V30 4657 C 455.703 -1.37013 1.07254 0
M  V30 4658 O 456.879 -1.45542 1.3921 0
M  V30 4659 C 453.944 -2.2642 2.62555 0
M  V30 4660 C 453.005 -1.95049 3.82432 0
M  V30 4661 C 452.238 -3.15991 4.30099 0
M  V30 4662 O 452.461 -4.28015 3.7704 0
M  V30 4663 O 451.395 -2.99403 5.22151 0
M  V30 4664 H 455.221 -0.557549 2.98538 0
M  V30 4665 H 452.806 -0.209413 1.47925 0
M  V30 4666 H 454.688 -3.01009 2.9491 0
M  V30 4667 H 453.363 -2.69306 1.796 0
M  V30 4668 H 452.27 -1.17904 3.55034 0
M  V30 4669 H 453.603 -1.56992 4.66491 0
M  V30 4670 N 455.255 -1.55392 -0.262866 0
M  V30 4671 C 456.185 -1.91978 -1.32917 0
M  V30 4672 C 457.166 -0.7828 -1.51017 0
M  V30 4673 O 458.351 -1.04178 -1.63892 0
M  V30 4674 C 455.481 -2.20055 -2.68687 0
M  V30 4675 C 454.435 -3.35854 -2.65304 0
M  V30 4676 C 453.761 -3.49435 -4.04721 0
M  V30 4677 C 455.061 -4.71977 -2.23685 0
M  V30 4678 H 456.755 -2.81292 -1.02544 0
M  V30 4679 H 454.301 -1.3534 -0.491846 0
M  V30 4680 H 456.254 -2.44237 -3.43404 0
M  V30 4681 H 454.978 -1.27551 -3.00663 0
M  V30 4682 H 453.637 -3.11655 -1.93045 0
M  V30 4683 H 453.285 -2.54379 -4.33936 0
M  V30 4684 H 452.985 -4.27297 -4.0335 0
M  V30 4685 H 454.509 -3.7592 -4.81161 0
M  V30 4686 H 455.923 -4.95637 -2.88127 0
M  V30 4687 H 454.32 -5.52828 -2.33456 0
M  V30 4688 H 455.39 -4.70115 -1.18827 0
M  V30 4689 N 456.733 0.527833 -1.48498 0
M  V30 4690 C 457.958 1.313 -1.60546 0
M  V30 4691 C 458.383 1.86199 -0.26672 0
M  V30 4692 O 457.741 1.64513 0.761918 0
M  V30 4693 C 457.789 2.43818 -2.65678 0
M  V30 4694 O 456.893 3.46916 -2.22987 0
M  V30 4695 H 456.234 0.388784 -0.538277 0
M  V30 4696 H 458.764 0.634896 -1.945 0
M  V30 4697 H 458.774 2.89973 -2.87018 0
M  V30 4698 H 457.449 2.03222 -3.62869 0
M  V30 4699 H 456.026 3.06864 -2.11869 0
M  V30 4700 N 458.211 1.37122 0.776871 0
M  V30 4701 C 459.457 1.3325 1.53675 0
M  V30 4702 C 459.812 -0.0839891 1.92217 0
M  V30 4703 O 459.105 -1.04145 1.60824 0
M  V30 4704 C 459.299 2.20068 2.81611 0
M  V30 4705 C 459.128 3.70016 2.55574 0
M  V30 4706 C 457.898 4.39144 2.4996 0
M  V30 4707 C 460.096 4.62996 2.23917 0
M  V30 4708 N 458.078 5.74663 2.15953 0
M  V30 4709 C 459.449 5.86854 2.00005 0
M  V30 4710 C 461.504 4.51433 2.1003 0
M  V30 4711 C 460.207 7.00446 1.63609 0
M  V30 4712 C 462.233 5.64905 1.75033 0
M  V30 4713 C 461.595 6.8781 1.51977 0
M  V30 4714 H 457.694 0.542878 0.562856 0
M  V30 4715 H 460.278 1.72295 0.906784 0
M  V30 4716 H 458.449 1.83248 3.42454 0
M  V30 4717 H 460.181 2.07492 3.47461 0
M  V30 4718 H 456.936 3.92088 2.65639 0
M  V30 4719 H 457.36 6.46268 2.0166 0
M  V30 4720 H 462.002 3.56987 2.26539 0
M  V30 4721 H 459.72 7.94831 1.45837 0
M  V30 4722 H 463.306 5.57926 1.64952 0
M  V30 4723 H 462.186 7.74126 1.25296 0
M  V30 4724 N 459.689 -1.00246 1.21608 0
M  V30 4725 C 460.937 -1.73717 1.0328 0
M  V30 4726 C 461.258 -1.90102 -0.434318 0
M  V30 4727 O 460.528 -1.45376 -1.31311 0
M  V30 4728 H 459.108 -0.643613 0.379172 0
M  V30 4729 H 461.77 -1.20787 1.52959 0
M  V30 4730 H 460.866 -2.73535 1.50283 0
M  V30 4731 N 461.167 -1.02423 -1.1978 0
M  V30 4732 C 462.097 -0.62157 -2.25075 0
M  V30 4733 C 463.078 0.367148 -1.6609 0
M  V30 4734 O 464.263 0.250892 -1.92573 0
M  V30 4735 C 461.393 0.0331826 -3.47284 0
M  V30 4736 C 460.347 -0.877323 -4.18912 0
M  V30 4737 C 459.673 -0.0879296 -5.34628 0
M  V30 4738 C 460.973 -2.18892 -4.74219 0
M  V30 4739 H 462.667 -1.50179 -2.59011 0
M  V30 4740 H 460.213 -0.723547 -1.24502 0
M  V30 4741 H 462.166 0.326488 -4.20133 0
M  V30 4742 H 460.89 0.948164 -3.12534 0
M  V30 4743 H 459.549 -1.15475 -3.47938 0
M  V30 4744 H 459.197 0.828941 -4.96123 0
M  V30 4745 H 458.897 -0.694359 -5.83483 0
M  V30 4746 H 460.421 0.198743 -6.10276 0
M  V30 4747 H 461.835 -1.95746 -5.38847 0
M  V30 4748 H 460.232 -2.74686 -5.33542 0
M  V30 4749 H 461.302 -2.84674 -3.92541 0
M  V30 4750 N 462.645 1.35699 -0.801477 0
M  V30 4751 C 463.875 2.02862 -0.3912 0
M  V30 4752 C 464.283 1.60552 1.00099 0
M  V30 4753 O 463.626 0.796215 1.65548 0
M  V30 4754 C 463.688 3.57386 -0.389299 0
M  V30 4755 C 463.352 4.22943 -1.73113 0
M  V30 4756 C 464.349 4.44984 -2.68859 0
M  V30 4757 C 462.034 4.60167 -2.01373 0
M  V30 4758 C 464.028 5.03345 -3.91053 0
M  V30 4759 C 461.715 5.18243 -3.23832 0
M  V30 4760 C 462.713 5.39773 -4.1849 0
M  V30 4761 O 462.401 5.96626 -5.38788 0
M  V30 4762 H 462.133 0.657341 -0.157732 0
M  V30 4763 H 464.687 1.74407 -1.08496 0
M  V30 4764 H 462.917 3.85011 0.361031 0
M  V30 4765 H 464.606 4.059 -0.0020365 0
M  V30 4766 H 465.372 4.1661 -2.48316 0
M  V30 4767 H 461.251 4.42726 -1.28508 0
M  V30 4768 H 464.795 5.20065 -4.64949 0
M  V30 4769 H 460.692 5.46044 -3.44248 0
M  V30 4770 H 461.46 6.15082 -5.40015 0
M  V30 4771 N 464.123 0.554532 1.47522 0
M  V30 4772 C 465.348 0.0322661 2.07375 0
M  V30 4773 C 465.773 -1.25079 1.40488 0
M  V30 4774 O 465.131 -1.74859 0.47896 0
M  V30 4775 C 465.179 -0.149397 3.6029 0
M  V30 4776 O 464.283 -1.21259 3.9417 0
M  V30 4777 H 463.624 0.0501228 0.662106 0
M  V30 4778 H 466.154 0.769452 1.8958 0
M  V30 4779 H 466.164 -0.364437 4.06369 0
M  V30 4780 H 464.839 0.787743 4.08372 0
M  V30 4781 H 463.416 -0.97825 3.5984 0
M  V30 4782 N 465.601 -1.54893 0.290851 0
M  V30 4783 C 466.548 -2.23138 -0.58974 0
M  V30 4784 C 467.518 -1.21036 -1.13752 0
M  V30 4785 O 468.703 -1.49626 -1.18392 0
M  V30 4786 C 465.843 -2.96811 -1.76061 0
M  V30 4787 C 464.956 -4.13665 -1.24519 0
M  V30 4788 C 464.091 -4.74944 -2.3791 0
M  V30 4789 C 463.13 -5.83963 -1.83451 0
M  V30 4790 N 462.267 -6.39239 -2.90376 0
M  V30 4791 H 467.107 -2.98 -0.00114915 0
M  V30 4792 H 464.644 -1.47096 0.0112006 0
M  V30 4793 H 466.602 -3.37751 -2.44909 0
M  V30 4794 H 465.232 -2.24344 -2.32098 0
M  V30 4795 H 464.284 -3.77737 -0.449288 0
M  V30 4796 H 465.596 -4.92238 -0.806424 0
M  V30 4797 H 464.75 -5.18684 -3.14724 0
M  V30 4798 H 463.489 -3.95682 -2.85109 0
M  V30 4799 H 462.494 -5.39657 -1.05122 0
M  V30 4800 H 463.719 -6.65103 -1.37169 0
M  V30 4801 H 461.665 -5.62864 -3.36927 0
M  V30 4802 H 461.582 -7.13129 -2.50965 0
M  V30 4803 H 462.85 -6.87637 -3.67118 0
M  V30 4804 N 467.08 -0.0183926 -1.57589 0
M  V30 4805 C 468.357 0.700621 -1.82622 0
M  V30 4806 C 468.737 1.90951 -0.90005 0
M  V30 4807 O 468.085 2.28452 0.0469145 0
M  V30 4808 C 468.295 1.08899 -3.31575 0
M  V30 4809 C 469.643 1.48514 -3.9778 0
M  V30 4810 O 470.667 1.18227 -3.36007 0
M  V30 4811 O 469.526 2.04903 -5.06633 0
M  V30 4812 H 466.62 0.342743 -0.752633 0
M  V30 4813 H 469.166 -0.0452548 -1.6964 0
M  V30 4814 H 467.938 0.228113 -3.90635 0
M  V30 4815 H 467.561 1.89338 -3.49624 0
M  V30 4816 N 468.558 1.5553 0.254621 0
M  V30 4817 C 469.783 1.81383 1.00573 0
M  V30 4818 C 470.208 0.594419 1.78461 0
M  V30 4819 O 469.566 -0.456403 1.75461 0
M  V30 4820 C 469.614 3.04892 1.92545 0
M  V30 4821 O 468.718 2.81266 3.01601 0
M  V30 4822 H 468.059 0.598969 0.286587 0
M  V30 4823 H 470.589 2.02703 0.277952 0
M  V30 4824 H 470.599 3.34119 2.34155 0
M  V30 4825 H 469.274 3.93287 1.3527 0
M  V30 4826 H 467.851 2.63185 2.64174 0
M  V30 4827 N 470.036 -0.519951 1.48776 0
M  V30 4828 C 470.969 -1.64053 1.58625 0
M  V30 4829 C 471.947 -1.5664 0.43618 0
M  V30 4830 O 473.131 -1.76969 0.649159 0
M  V30 4831 C 470.258 -3.02497 1.52359 0
M  V30 4832 C 469.304 -3.28235 2.72331 0
M  V30 4833 S 470.137 -3.13414 4.34203 0
M  V30 4834 C 471.293 -4.54287 4.30551 0
M  V30 4835 H 471.526 -1.5545 2.53422 0
M  V30 4836 H 469.059 -0.703681 1.37433 0
M  V30 4837 H 471.017 -3.82336 1.4943 0
M  V30 4838 H 469.678 -3.08531 0.588824 0
M  V30 4839 H 468.871 -4.29256 2.64113 0
M  V30 4840 H 468.473 -2.56085 2.72574 0
M  V30 4841 H 470.765 -5.46006 4.01103 0
M  V30 4842 H 471.708 -4.67558 5.31785 0
M  V30 4843 H 472.116 -4.34079 3.60881 0
M  V30 4844 N 471.514 -1.37532 -0.769588 0
M  V30 4845 C 472.761 -1.3286 -1.52822 0
M  V30 4846 C 473.089 0.0862597 -1.94309 0
M  V30 4847 O 472.344 1.05995 -1.6451 0
M  V30 4848 C 472.643 -2.21558 -2.8044 0
M  V30 4849 C 472.309 -3.69796 -2.57996 0
M  V30 4850 C 470.971 -4.10194 -2.51583 0
M  V30 4851 C 473.323 -4.63699 -2.37976 0
M  V30 4852 C 470.651 -5.42608 -2.23144 0
M  V30 4853 C 473.003 -5.96353 -2.1106 0
M  V30 4854 C 471.667 -6.35853 -2.03093 0
M  V30 4855 H 470.937 -0.486168 -0.559215 0
M  V30 4856 H 473.584 -1.69757 -0.886277 0
M  V30 4857 H 471.889 -1.77663 -3.49204 0
M  V30 4858 H 473.586 -2.15256 -3.38328 0
M  V30 4859 H 470.176 -3.37759 -2.63851 0
M  V30 4860 H 474.36 -4.33346 -2.41919 0
M  V30 4861 H 469.616 -5.72173 -2.15472 0
M  V30 4862 H 473.79 -6.68667 -1.94568 0
M  V30 4863 H 471.417 -7.38382 -1.8082 0
M  V30 4864 N 472.992 0.995999 -1.22138 0
M  V30 4865 C 474.217 1.77601 -1.0711 0
M  V30 4866 C 474.642 1.84339 0.374264 0
M  V30 4867 O 474 1.29359 1.27028 0
M  V30 4868 C 474.048 3.18897 -1.68336 0
M  V30 4869 O 473.152 4.01663 -0.934928 0
M  V30 4870 H 472.493 0.547011 -0.376397 0
M  V30 4871 H 475.023 1.25137 -1.6187 0
M  V30 4872 H 475.033 3.69539 -1.72931 0
M  V30 4873 H 473.708 3.13308 -2.73516 0
M  V30 4874 H 472.285 3.60204 -0.964751 0
M  V30 4875 N 474.47 1.03057 1.19235 0
M  V30 4876 C 475.4 0.633497 2.24742 0
M  V30 4877 C 476.381 -0.358335 1.66283 0
M  V30 4878 O 477.566 -0.240676 1.92703 0
M  V30 4879 C 474.696 -0.0147648 3.47297 0
M  V30 4880 C 473.65 0.899527 4.18441 0
M  V30 4881 C 472.976 0.116281 5.34574 0
M  V30 4882 C 474.276 2.21404 4.73051 0
M  V30 4883 H 475.97 1.5155 2.58211 0
M  V30 4884 H 473.516 0.73014 1.24117 0
M  V30 4885 H 475.469 -0.304202 4.20301 0
M  V30 4886 H 474.193 -0.931577 3.13032 0
M  V30 4887 H 472.852 1.17319 3.47321 0
M  V30 4888 H 472.5 -0.802619 4.96555 0
M  V30 4889 H 472.2 0.725293 5.83107 0
M  V30 4890 H 473.724 -0.166376 6.10373 0
M  V30 4891 H 475.138 1.98601 5.37802 0
M  V30 4892 H 473.535 2.77512 5.32078 0
M  V30 4893 H 474.605 2.86752 3.91026 0
M  V30 4894 N 475.948 -1.35272 0.808662 0
M  V30 4895 C 476.911 -2.28082 0.226093 0
M  V30 4896 C 477.911 -1.49673 -0.587762 0
M  V30 4897 O 479.101 -1.69404 -0.405943 0
M  V30 4898 C 476.233 -3.33955 -0.684596 0
M  V30 4899 H 477.426 -2.81116 1.04469 0
M  V30 4900 H 474.979 -1.45162 0.579466 0
M  V30 4901 H 475.714 -2.86111 -1.5268 0
M  V30 4902 H 475.499 -3.91965 -0.102699 0
M  V30 4903 H 476.989 -4.03219 -1.08646 0
M  V30 4904 N 477.426 -0.562348 -1.47226 0
M  V30 4905 C 478.356 0.170627 -2.32876 0
M  V30 4906 C 479.337 0.903748 -1.44106 0
M  V30 4907 O 480.522 0.883206 -1.72954 0
M  V30 4908 C 477.652 1.19786 -3.25989 0
M  V30 4909 C 476.606 0.580875 -4.2404 0
M  V30 4910 C 475.932 1.71311 -5.06514 0
M  V30 4911 C 477.232 -0.468714 -5.20193 0
M  V30 4912 H 478.926 -0.544441 -2.94408 0
M  V30 4913 H 476.472 -0.263271 -1.41573 0
M  V30 4914 H 478.425 1.71884 -3.84752 0
M  V30 4915 H 477.149 1.94294 -2.62521 0
M  V30 4916 H 475.808 0.0811538 -3.6651 0
M  V30 4917 H 475.456 2.44736 -4.39447 0
M  V30 4918 H 475.156 1.30604 -5.72902 0
M  V30 4919 H 476.68 2.23725 -5.68137 0
M  V30 4920 H 478.094 -0.0336028 -5.7329 0
M  V30 4921 H 476.491 -0.794957 -5.94811 0
M  V30 4922 H 477.561 -1.36269 -4.65359 0
M  V30 4923 N 478.904 1.54736 -0.299062 0
M  V30 4924 C 479.851 2.23448 0.577899 0
M  V30 4925 C 480.821 1.21637 1.13109 0
M  V30 4926 O 482.006 1.50252 1.17597 0
M  V30 4927 C 479.146 2.9774 1.74484 0
M  V30 4928 C 478.259 4.1432 1.22323 0
M  V30 4929 C 477.394 4.76199 2.35388 0
M  V30 4930 C 476.433 5.84927 1.80351 0
M  V30 4931 N 475.57 6.4077 2.86982 0
M  V30 4932 H 480.41 2.97996 -0.0146545 0
M  V30 4933 H 477.947 1.47088 -0.0190013 0
M  V30 4934 H 479.905 3.39045 2.43114 0
M  V30 4935 H 478.535 2.25572 2.30905 0
M  V30 4936 H 477.587 3.7797 0.429249 0
M  V30 4937 H 478.899 4.92659 0.780309 0
M  V30 4938 H 478.053 5.20346 3.11969 0
M  V30 4939 H 476.792 3.97188 2.83006 0
M  V30 4940 H 475.797 5.40207 1.02259 0
M  V30 4941 H 477.022 6.65821 1.3364 0
M  V30 4942 H 474.968 5.64643 3.33938 0
M  V30 4943 H 474.885 7.1445 2.4718 0
M  V30 4944 H 476.153 6.89574 3.63466 0
M  V30 4945 N 480.382 0.0267497 1.57577 0
M  V30 4946 C 481.622 -0.65659 1.93567 0
M  V30 4947 C 481.986 -1.69429 0.903213 0
M  V30 4948 O 483.187 -2.42994 1.14923 0
M  V30 4949 C 481.458 -1.25912 3.34486 0
M  V30 4950 S 483.017 -1.96386 3.924 0
M  V30 4951 H 479.835 -0.216237 0.67732 0
M  V30 4952 H 482.437 0.0898475 1.95293 0
M  V30 4953 H 481.141 -0.491405 4.07447 0
M  V30 4954 H 480.672 -2.04291 3.36198 0
M  V30 4955 H 482.687 -3.24202 3.75643 0
M  V30 4956 N 481.861 -1.55662 -0.24637 0
M  V30 4957 C 482.791 -1.93377 -1.30873 0
M  V30 4958 C 483.772 -0.798773 -1.50179 0
M  V30 4959 O 484.957 -1.0591 -1.62778 0
M  V30 4960 C 482.087 -2.22893 -2.66338 0
M  V30 4961 C 481.041 -3.38649 -2.61727 0
M  V30 4962 C 480.367 -3.53708 -4.00992 0
M  V30 4963 C 481.667 -4.74323 -2.18666 0
M  V30 4964 H 483.361 -2.82363 -0.995552 0
M  V30 4965 H 480.907 -1.35854 -0.477464 0
M  V30 4966 H 482.86 -2.47866 -3.40794 0
M  V30 4967 H 481.584 -1.30733 -2.99293 0
M  V30 4968 H 480.243 -3.13685 -1.89729 0
M  V30 4969 H 479.891 -2.58967 -4.31214 0
M  V30 4970 H 479.591 -4.31551 -3.98795 0
M  V30 4971 H 481.115 -3.81003 -4.77147 0
M  V30 4972 H 482.529 -4.98665 -2.82854 0
M  V30 4973 H 480.926 -5.55273 -2.27579 0
M  V30 4974 H 481.996 -4.71349 -1.13834 0
M  V30 4975 N 483.339 0.512053 -1.4905 0
M  V30 4976 C 484.588 1.26343 -1.57227 0
M  V30 4977 C 484.901 1.93876 -0.259155 0
M  V30 4978 O 486.107 2.70612 -0.219358 0
M  V30 4979 C 484.563 2.29343 -2.77362 0
M  V30 4980 C 484.171 1.67799 -4.15388 0
M  V30 4981 C 485.915 3.05378 -2.94864 0
M  V30 4982 C 483.822 2.68845 -5.2676 0
M  V30 4983 H 482.752 0.475231 -0.585382 0
M  V30 4984 H 485.403 0.53862 -1.75417 0
M  V30 4985 H 483.785 3.04938 -2.52643 0
M  V30 4986 H 484.959 0.982715 -4.50199 0
M  V30 4987 H 483.274 1.04194 -4.03153 0
M  V30 4988 H 485.871 3.80921 -3.75238 0
M  V30 4989 H 486.214 3.62327 -2.05 0
M  V30 4990 H 486.747 2.36898 -3.19569 0
M  V30 4991 H 483.486 2.16692 -6.18647 0
M  V30 4992 H 483.006 3.36647 -4.96416 0
M  V30 4993 H 484.685 3.31487 -5.5563 0
M  V30 4994 N 484.817 1.37938 0.762283 0
M  V30 4995 C 486.042 1.37059 1.55659 0
M  V30 4996 C 486.467 -0.0396123 1.88058 0
M  V30 4997 O 485.825 -1.01929 1.49934 0
M  V30 4998 C 485.873 2.22494 2.83776 0
M  V30 4999 O 484.977 1.63607 3.78559 0
M  V30 5000 H 484.318 0.467892 0.47114 0
M  V30 5001 H 486.848 1.81587 0.942725 0
M  V30 5002 H 486.858 2.36045 3.32786 0
M  V30 5003 H 485.533 3.24993 2.59524 0
M  V30 5004 H 484.11 1.5915 3.37233 0
M  V30 5005 N 486.295 -0.989507 1.22664 0
M  V30 5006 C 487.225 -2.09847 1.02404 0
M  V30 5007 C 488.206 -1.70007 -0.0561303 0
M  V30 5008 O 489.391 -1.93906 0.106748 0
M  V30 5009 C 486.521 -3.41996 0.604663 0
M  V30 5010 C 485.475 -3.95699 1.63115 0
M  V30 5011 C 484.801 -5.23936 1.0675 0
M  V30 5012 C 486.101 -4.25999 3.02196 0
M  V30 5013 H 487.795 -2.27054 1.95158 0
M  V30 5014 H 485.341 -1.09111 0.939727 0
M  V30 5015 H 487.294 -4.1899 0.45002 0
M  V30 5016 H 486.018 -3.24626 -0.35855 0
M  V30 5017 H 484.677 -3.2084 1.77362 0
M  V30 5018 H 484.325 -5.02909 0.0955422 0
M  V30 5019 H 484.025 -5.60833 1.75328 0
M  V30 5020 H 485.549 -6.0356 0.924516 0
M  V30 5021 H 486.963 -4.93777 2.91303 0
M  V30 5022 H 485.36 -4.74076 3.67929 0
M  V30 5023 H 486.43 -3.33636 3.51873 0
M  V30 5024 N 487.773 -1.03688 -1.18687 0
M  V30 5025 C 488.998 -0.757819 -1.93059 0
M  V30 5026 C 489.423 0.678353 -1.75442 0
M  V30 5027 O 488.781 1.46938 -1.06203 0
M  V30 5028 C 488.829 -1.12423 -3.42627 0
M  V30 5029 O 487.933 -0.247505 -4.11657 0
M  V30 5030 H 487.274 -0.279245 -0.602427 0
M  V30 5031 H 489.804 -1.3857 -1.5053 0
M  V30 5032 H 489.814 -1.08454 -3.93322 0
M  V30 5033 H 488.489 -2.17049 -3.54771 0
M  V30 5034 H 487.066 -0.34649 -3.71287 0
M  V30 5035 N 489.251 1.34841 -0.815825 0
M  V30 5036 C 490.479 2.0273 -0.413294 0
M  V30 5037 C 490.894 1.61459 0.978599 0
M  V30 5038 O 490.251 0.816584 1.63212 0
M  V30 5039 C 490.302 3.58058 -0.497676 0
M  V30 5040 O 490.023 3.97832 -1.8347 0
M  V30 5041 C 491.524 4.4321 -0.0891339 0
M  V30 5042 H 488.744 0.649956 -0.166728 0
M  V30 5043 H 491.288 1.72267 -1.10201 0
M  V30 5044 H 489.443 3.87136 0.142886 0
M  V30 5045 H 489.857 4.92501 -1.80396 0
M  V30 5046 H 491.331 5.5164 -0.199274 0
M  V30 5047 H 491.808 4.28432 0.966571 0
M  V30 5048 H 492.414 4.19446 -0.703214 0
M  V30 5049 N 490.729 0.570148 1.46925 0
M  V30 5050 C 491.978 0.0487352 2.01641 0
M  V30 5051 C 492.291 -1.31433 1.44861 0
M  V30 5052 O 493.497 -1.92638 1.91318 0
M  V30 5053 C 491.953 0.0365817 3.59881 0
M  V30 5054 C 491.561 1.39719 4.25655 0
M  V30 5055 C 493.305 -0.431545 4.22301 0
M  V30 5056 C 491.212 1.34345 5.75939 0
M  V30 5057 H 490.142 0.0144492 0.753862 0
M  V30 5058 H 492.793 0.719928 1.68788 0
M  V30 5059 H 491.175 -0.700522 3.89755 0
M  V30 5060 H 492.349 2.15303 4.07408 0
M  V30 5061 H 490.664 1.80431 3.75278 0
M  V30 5062 H 493.261 -0.490354 5.32447 0
M  V30 5063 H 493.604 -1.44638 3.90366 0
M  V30 5064 H 494.137 0.251102 3.97007 0
M  V30 5065 H 490.876 2.33469 6.12513 0
M  V30 5066 H 490.396 0.629615 5.96486 0
M  V30 5067 H 492.075 1.051 6.38407 0
M  V30 5068 N 492.207 -1.54576 0.307264 0
M  V30 5069 C 493.456 -1.99442 -0.300976 0
M  V30 5070 C 493.769 -1.19928 -1.5452 0
M  V30 5071 O 494.975 -1.55092 -2.22842 0
M  V30 5072 C 493.431 -3.55084 -0.586809 0
M  V30 5073 C 493.039 -4.43413 0.639438 0
M  V30 5074 C 494.783 -4.0846 -1.1559 0
M  V30 5075 C 492.69 -5.90499 0.326411 0
M  V30 5076 H 491.62 -0.744986 -0.116238 0
M  V30 5077 H 494.271 -1.787 0.416947 0
M  V30 5078 H 492.653 -3.71749 -1.36449 0
M  V30 5079 H 493.827 -4.38522 1.41545 0
M  V30 5080 H 492.142 -4.00842 1.1276 0
M  V30 5081 H 494.739 -5.15926 -1.40445 0
M  V30 5082 H 495.082 -3.59443 -2.10015 0
M  V30 5083 H 495.615 -3.95362 -0.439778 0
M  V30 5084 H 492.354 -6.43676 1.23939 0
M  V30 5085 H 491.874 -5.98382 -0.412212 0
M  V30 5086 H 493.553 -6.46962 -0.0697393 0
M  V30 5087 N 493.685 -0.035106 -1.57561 0
M  V30 5088 C 494.615 0.942993 -2.13612 0
M  V30 5089 C 495.596 1.33531 -1.05373 0
M  V30 5090 O 496.781 1.41287 -1.33235 0
M  V30 5091 C 493.911 2.22332 -2.66807 0
M  V30 5092 C 492.865 1.97156 -3.79886 0
M  V30 5093 C 492.191 3.31506 -4.19533 0
M  V30 5094 C 493.491 1.30596 -5.05709 0
M  V30 5095 H 495.185 0.476179 -2.95589 0
M  V30 5096 H 492.731 0.227602 -1.4219 0
M  V30 5097 H 494.684 2.91142 -3.04654 0
M  V30 5098 H 493.408 2.7119 -1.81999 0
M  V30 5099 H 492.067 1.30763 -3.42486 0
M  V30 5100 H 491.715 3.78134 -3.31698 0
M  V30 5101 H 491.415 3.15465 -4.95738 0
M  V30 5102 H 492.939 4.01574 -4.59968 0
M  V30 5103 H 494.353 1.89416 -5.41105 0
M  V30 5104 H 492.75 1.24934 -5.86951 0
M  V30 5105 H 493.82 0.279742 -4.84092 0
M  V30 5106 N 495.163 1.55791 0.238111 0
M  V30 5107 C 496.093 1.94068 1.29846 0
M  V30 5108 C 497.074 0.806726 1.49753 0
M  V30 5109 O 498.259 1.06772 1.62214 0
M  V30 5110 C 495.389 2.24302 2.65153 0
M  V30 5111 C 494.343 3.40032 2.59927 0
M  V30 5112 C 493.669 3.55829 3.99111 0
M  V30 5113 C 494.969 4.75476 2.16148 0
M  V30 5114 H 496.663 2.82887 0.980563 0
M  V30 5115 H 494.209 1.36105 0.470253 0
M  V30 5116 H 496.162 2.4967 3.39475 0
M  V30 5117 H 494.886 1.32318 2.98596 0
M  V30 5118 H 493.545 3.14687 1.88063 0
M  V30 5119 H 493.193 2.6125 4.29834 0
M  V30 5120 H 492.893 4.3366 3.96501 0
M  V30 5121 H 494.417 3.83528 4.7512 0
M  V30 5122 H 495.831 5.00158 2.80205 0
M  V30 5123 H 494.228 5.56472 2.24631 0
M  V30 5124 H 495.298 4.71946 1.11333 0
M  V30 5125 N 496.642 -0.504142 1.49319 0
M  V30 5126 C 497.89 -1.25598 1.58334 0
M  V30 5127 C 498.211 -1.93114 0.270538 0
M  V30 5128 O 497.481 -1.82585 -0.709891 0
M  V30 5129 H 496.061 -0.466571 0.58337 0
M  V30 5130 H 498.723 -0.584547 1.85928 0
M  V30 5131 H 497.819 -2.02159 2.37778 0
M  V30 5132 N 498.12 -1.38341 -0.754957 0
M  V30 5133 C 499.05 -1.38176 -1.88227 0
M  V30 5134 C 500.031 -0.247873 -1.68284 0
M  V30 5135 O 501.216 -0.45075 -1.88896 0
M  V30 5136 C 498.346 -1.20471 -3.25736 0
M  V30 5137 C 497.3 -2.3105 -3.60278 0
M  V30 5138 C 496.626 -1.98452 -4.96509 0
M  V30 5139 C 497.926 -3.73305 -3.65295 0
M  V30 5140 H 499.62 -2.32512 -1.88622 0
M  V30 5141 H 497.166 -1.1192 -0.906082 0
M  V30 5142 H 499.119 -1.18982 -4.04254 0
M  V30 5143 H 497.843 -0.225965 -3.25817 0
M  V30 5144 H 496.502 -2.31723 -2.84078 0
M  V30 5145 H 496.15 -0.990641 -4.93148 0
M  V30 5146 H 495.85 -2.7251 -5.20588 0
M  V30 5147 H 497.374 -1.98578 -5.77407 0
M  V30 5148 H 498.788 -3.7467 -4.3393 0
M  V30 5149 H 497.185 -4.46557 -4.00883 0
M  V30 5150 H 498.255 -4.05719 -2.65556 0
M  V30 5151 N 499.598 0.982988 -1.23187 0
M  V30 5152 C 500.847 1.71817 -1.05649 0
M  V30 5153 C 501.16 1.91315 0.407176 0
M  V30 5154 O 502.366 2.62256 0.702436 0
M  V30 5155 C 500.822 3.09188 -1.84203 0
M  V30 5156 C 500.43 2.97586 -3.34882 0
M  V30 5157 C 502.174 3.86684 -1.75146 0
M  V30 5158 C 500.081 4.30173 -4.05839 0
M  V30 5159 H 499.011 0.644258 -0.391724 0
M  V30 5160 H 501.662 1.09659 -1.4713 0
M  V30 5161 H 500.044 3.72087 -1.35527 0
M  V30 5162 H 501.218 2.43793 -3.91026 0
M  V30 5163 H 499.533 2.33567 -3.44725 0
M  V30 5164 H 502.13 4.84836 -2.25473 0
M  V30 5165 H 502.473 4.10136 -0.713737 0
M  V30 5166 H 503.006 3.30482 -2.21419 0
M  V30 5167 H 499.745 4.11918 -5.09906 0
M  V30 5168 H 499.265 4.83841 -3.54482 0
M  V30 5169 H 500.944 4.98873 -4.11989 0
M  V30 5170 N 501.076 1.04316 1.18135 0
M  V30 5171 C 502.325 0.74319 1.87509 0
M  V30 5172 C 502.638 -0.732136 1.81381 0
M  V30 5173 O 503.844 -1.14572 2.46141 0
M  V30 5174 C 502.3 1.27913 3.36402 0
M  V30 5175 C 501.908 2.78326 3.51053 0
M  V30 5176 C 503.652 1.0558 4.11161 0
M  V30 5177 C 501.559 3.25266 4.93919 0
M  V30 5178 H 500.489 0.274313 0.702331 0
M  V30 5179 H 503.14 1.25931 1.33467 0
M  V30 5180 H 501.522 0.690853 3.89927 0
M  V30 5181 H 502.696 3.42933 3.07788 0
M  V30 5182 H 501.011 2.991 2.89704 0
M  V30 5183 H 503.608 1.38161 5.16542 0
M  V30 5184 H 503.951 -0.00684729 4.16299 0
M  V30 5185 H 504.484 1.60882 3.63816 0
M  V30 5186 H 501.223 4.30922 4.9395 0
M  V30 5187 H 500.743 2.65396 5.3789 0
M  V30 5188 H 502.422 3.19433 5.62647 0
M  V30 5189 N 502.554 -1.34406 0.822964 0
M  V30 5190 C 503.517 -2.2783 0.250271 0
M  V30 5191 C 504.517 -1.50288 -0.571854 0
M  V30 5192 O 505.707 -1.69825 -0.387952 0
M  V30 5193 C 502.839 -3.34663 -0.649137 0
M  V30 5194 H 504.032 -2.79992 1.07444 0
M  V30 5195 H 501.585 -1.44539 0.594829 0
M  V30 5196 H 502.32 -2.87714 -1.49637 0
M  V30 5197 H 502.105 -3.92052 -0.0611199 0
M  V30 5198 H 503.595 -4.04349 -1.04363 0
M  V30 5199 N 504.032 -0.577932 -1.46621 0
M  V30 5200 C 505.262 -0.0670668 -2.06491 0
M  V30 5201 C 505.67 1.24119 -1.42798 0
M  V30 5202 O 505.013 1.76016 -0.525759 0
M  V30 5203 C 505.075 0.177995 -3.59059 0
M  V30 5204 C 504.739 -1.04394 -4.44917 0
M  V30 5205 C 505.736 -1.95479 -4.81751 0
M  V30 5206 C 503.421 -1.26444 -4.86125 0
M  V30 5207 C 505.415 -3.06965 -5.58615 0
M  V30 5208 C 503.102 -2.38237 -5.62749 0
M  V30 5209 C 504.1 -3.28327 -5.98908 0
M  V30 5210 O 503.788 -4.38179 -6.73984 0
M  V30 5211 H 503.52 -0.0523159 -0.673973 0
M  V30 5212 H 506.074 -0.796966 -1.89308 0
M  V30 5213 H 504.304 0.962451 -3.74531 0
M  V30 5214 H 505.993 0.636782 -4.00874 0
M  V30 5215 H 506.759 -1.79657 -4.50498 0
M  V30 5216 H 502.638 -0.572316 -4.57434 0
M  V30 5217 H 506.182 -3.77309 -5.86757 0
M  V30 5218 H 502.079 -2.54023 -5.93416 0
M  V30 5219 H 502.847 -4.36486 -6.92403 0
M  V30 5220 N 505.51 1.54411 -0.315457 0
M  V30 5221 C 506.46 2.20772 0.569549 0
M  V30 5222 C 507.444 1.18551 1.08787 0
M  V30 5223 O 508.636 1.44213 1.02624 0
M  V30 5224 C 505.765 2.96293 1.73394 0
M  V30 5225 C 504.851 4.05844 1.2309 0
M  V30 5226 N 505.242 5.03822 0.446927 0
M  V30 5227 C 503.54 4.19648 1.51035 0
M  V30 5228 C 504.241 5.8143 0.17725 0
M  V30 5229 N 503.217 5.38245 0.761118 0
M  V30 5230 H 507.019 2.93877 -0.0368076 0
M  V30 5231 H 504.533 1.61949 -0.120915 0
M  V30 5232 H 506.53 3.42313 2.37965 0
M  V30 5233 H 505.19 2.24708 2.34386 0
M  V30 5234 H 506.201 5.17821 0.0905027 0
M  V30 5235 H 502.878 3.59274 2.1267 0
M  V30 5236 H 504.268 6.70369 -0.45335 0
M  V30 5237 N 506.988 0.0434614 1.5754 0
M  V30 5238 C 508.216 -0.641835 1.96693 0
M  V30 5239 C 508.631 -1.64832 0.920652 0
M  V30 5240 O 507.988 -1.82247 -0.095993 0
M  V30 5241 C 508.039 -1.33557 3.35924 0
M  V30 5242 O 507.76 -0.369403 4.3654 0
M  V30 5243 C 509.261 -2.11135 3.89791 0
M  V30 5244 H 506.481 -0.176013 0.647503 0
M  V30 5245 H 509.025 0.107478 2.04217 0
M  V30 5246 H 507.18 -2.03617 3.29574 0
M  V30 5247 H 507.594 -0.863674 5.1734 0
M  V30 5248 H 509.068 -2.55107 4.89514 0
M  V30 5249 H 509.545 -2.95634 3.24803 0
M  V30 5250 H 510.151 -1.46002 3.99454 0
M  V30 5251 N 508.466 -1.55915 -0.229846 0
M  V30 5252 C 509.882 -1.48721 -0.579166 0
M  V30 5253 C 510.082 -0.736976 -1.87539 0
M  V30 5254 O 509.138 -0.273258 -2.51017 0
M  V30 5255 C 510.451 -2.9323 -0.666082 0
M  V30 5256 C 511.999 -3.03701 -0.757267 0
M  V30 5257 C 512.474 -4.49552 -0.8756 0
M  V30 5258 N 513.965 -4.53561 -0.940035 0
M  V30 5259 C 514.7 -5.63683 -1.05116 0
M  V30 5260 N 514.196 -6.83576 -1.12675 0
M  V30 5261 N 515.989 -5.51516 -1.08565 0
M  V30 5262 H 508.14 -2.03123 0.620857 0
M  V30 5263 H 510.403 -0.922898 0.21671 0
M  V30 5264 H 510.109 -3.51032 0.21664 0
M  V30 5265 H 509.983 -3.44668 -1.53243 0
M  V30 5266 H 512.37 -2.45969 -1.63043 0
M  V30 5267 H 512.451 -2.55446 0.134583 0
M  V30 5268 H 512.095 -5.079 -0.00692351 0
M  V30 5269 H 512.025 -4.95506 -1.78274 0
M  V30 5270 H 514.516 -3.67215 -0.892269 0
M  V30 5271 H 514.829 -7.63251 -1.21109 0
M  V30 5272 H 513.174 -6.86303 -1.09603 0
M  V30 5273 H 516.365 -4.5678 -1.02319 0
M  V30 5274 H 516.538 -6.37372 -1.1688 0
M  V30 5275 N 509.944 0.496216 -1.49584 0
M  V30 5276 C 510.854 1.62352 -1.69349 0
M  V30 5277 C 511.87 1.64184 -0.576147 0
M  V30 5278 O 513.046 1.82517 -0.85144 0
M  V30 5279 C 510.111 2.98698 -1.76013 0
M  V30 5280 C 509.172 3.07454 -2.99617 0
M  V30 5281 C 508.405 4.37296 -3.05953 0
M  V30 5282 O 508.628 5.2637 -2.19752 0
M  V30 5283 O 507.562 4.51124 -3.9846 0
M  V30 5284 H 511.388 1.48606 -2.64859 0
M  V30 5285 H 508.973 0.673022 -1.33382 0
M  V30 5286 H 510.855 3.79725 -1.82721 0
M  V30 5287 H 509.53 3.12696 -0.836828 0
M  V30 5288 H 508.437 2.25597 -2.98424 0
M  V30 5289 H 509.77 2.98385 -3.91443 0
M  V30 5290 N 511.423 1.38739 0.74761 0
M  V30 5291 C 512.669 1.35475 1.50912 0
M  V30 5292 C 513.002 -0.0533093 1.94127 0
M  V30 5293 O 512.277 -1.01572 1.65871 0
M  V30 5294 C 512.56 2.31582 2.75757 0
M  V30 5295 C 512.413 3.81274 2.38642 0
M  V30 5296 C 513.732 2.25722 3.77806 0
M  V30 5297 H 510.851 0.493427 0.547447 0
M  V30 5298 H 513.493 1.69634 0.855823 0
M  V30 5299 H 511.643 2.02582 3.31501 0
M  V30 5300 H 513.315 4.20972 1.88626 0
M  V30 5301 H 511.558 3.98664 1.71025 0
M  V30 5302 H 512.229 4.4399 3.27989 0
M  V30 5303 H 514.705 2.51336 3.31616 0
M  V30 5304 H 513.581 2.95069 4.62845 0
M  V30 5305 H 513.842 1.25803 4.23823 0
M  V30 5306 N 512.901 -0.976442 1.23707 0
M  V30 5307 C 513.833 -2.07212 0.979574 0
M  V30 5308 C 514.846 -1.6273 -0.0478528 0
M  V30 5309 O 516.035 -1.77506 0.18815 0
M  V30 5310 C 513.135 -3.35835 0.45479 0
M  V30 5311 C 512.308 -4.09268 1.54331 0
M  V30 5312 C 511.367 -5.16166 1.02271 0
M  V30 5313 O 510.393 -5.42827 1.71254 0
M  V30 5314 N 511.595 -5.80313 -0.147419 0
M  V30 5315 H 514.36 -2.29878 1.92292 0
M  V30 5316 H 511.921 -1.14343 1.14618 0
M  V30 5317 H 513.913 -4.04597 0.0914631 0
M  V30 5318 H 512.483 -3.10106 -0.394068 0
M  V30 5319 H 511.703 -3.34906 2.07923 0
M  V30 5320 H 512.991 -4.55095 2.27522 0
M  V30 5321 H 512.389 -5.61043 -0.724353 0
M  V30 5322 H 510.946 -6.50231 -0.451972 0
M  V30 5323 N 514.379 -1.04941 -1.1758 0
M  V30 5324 C 515.309 -0.669172 -2.23706 0
M  V30 5325 C 516.29 0.331835 -1.66832 0
M  V30 5326 O 517.475 0.209988 -1.93061 0
M  V30 5327 C 514.605 -0.0404889 -3.47276 0
M  V30 5328 C 513.559 -0.965983 -4.16957 0
M  V30 5329 C 512.885 -0.201312 -5.34321 0
M  V30 5330 C 514.185 -2.28902 -4.69469 0
M  V30 5331 H 515.879 -1.55639 -2.55767 0
M  V30 5332 H 513.425 -0.749793 -1.22939 0
M  V30 5333 H 515.378 0.237298 -4.20731 0
M  V30 5334 H 514.102 0.881658 -3.14475 0
M  V30 5335 H 512.761 -1.22829 -3.45411 0
M  V30 5336 H 512.409 0.723519 -4.97769 0
M  V30 5337 H 512.109 -0.817968 -5.81879 0
M  V30 5338 H 513.633 0.0692499 -6.10561 0
M  V30 5339 H 515.047 -2.07132 -5.34574 0
M  V30 5340 H 513.444 -2.85942 -5.27596 0
M  V30 5341 H 514.514 -2.92937 -3.86414 0
M  V30 5342 N 515.857 1.33968 -0.830081 0
M  V30 5343 C 517.104 1.98063 -0.421566 0
M  V30 5344 C 517.432 1.65787 1.0171 0
M  V30 5345 O 516.687 0.925348 1.72441 0
M  V30 5346 C 516.986 3.52679 -0.57898 0
M  V30 5347 C 516.652 4.04884 -1.98443 0
M  V30 5348 C 515.314 4.18852 -2.36888 0
M  V30 5349 C 517.666 4.32879 -2.90285 0
M  V30 5350 C 514.994 4.58145 -3.66497 0
M  V30 5351 C 517.346 4.7362 -4.19364 0
M  V30 5352 C 516.01 4.85794 -4.57778 0
M  V30 5353 H 515.28 0.724765 -0.154262 0
M  V30 5354 H 517.927 1.59792 -1.05541 0
M  V30 5355 H 516.232 3.91556 0.138219 0
M  V30 5356 H 517.929 4.00261 -0.243317 0
M  V30 5357 H 514.519 3.9448 -1.67581 0
M  V30 5358 H 518.703 4.21619 -2.61823 0
M  V30 5359 H 513.959 4.65762 -3.96075 0
M  V30 5360 H 518.133 4.9424 -4.90612 0
M  V30 5361 H 515.76 5.15998 -5.58256 0
M  V30 5362 N 517.335 0.585699 1.46312 0
M  V30 5363 C 518.581 0.0725284 2.0267 0
M  V30 5364 C 518.914 -1.28523 1.45586 0
M  V30 5365 O 518.189 -1.84283 0.622101 0
M  V30 5366 C 518.472 0.0099788 3.60099 0
M  V30 5367 C 518.325 1.39685 4.27561 0
M  V30 5368 C 519.644 -0.689117 4.34671 0
M  V30 5369 H 516.763 0.0278307 0.736474 0
M  V30 5370 H 519.405 0.753472 1.74421 0
M  V30 5371 H 517.555 -0.56992 3.84297 0
M  V30 5372 H 519.227 2.02215 4.14617 0
M  V30 5373 H 517.47 1.96374 3.86807 0
M  V30 5374 H 518.141 1.30553 5.36339 0
M  V30 5375 H 520.617 -0.196446 4.15636 0
M  V30 5376 H 519.493 -0.701921 5.44393 0
M  V30 5377 H 519.754 -1.75101 4.05946 0
M  V30 5378 N 518.813 -1.54241 0.323641 0
M  V30 5379 C 520.062 -1.9975 -0.279806 0
M  V30 5380 C 520.375 -1.2156 -1.5324 0
M  V30 5381 O 521.581 -1.57447 -2.21185 0
M  V30 5382 C 520.037 -3.55686 -0.549115 0
M  V30 5383 C 519.645 -4.4271 0.686432 0
M  V30 5384 C 521.389 -4.09663 -1.11251 0
M  V30 5385 C 519.296 -5.90119 0.389022 0
M  V30 5386 H 518.226 -0.746177 -0.10833 0
M  V30 5387 H 520.877 -1.78248 0.435877 0
M  V30 5388 H 519.259 -3.73176 -1.32499 0
M  V30 5389 H 520.433 -4.36996 1.46188 0
M  V30 5390 H 518.748 -3.99623 1.17005 0
M  V30 5391 H 521.345 -5.17386 -1.34965 0
M  V30 5392 H 521.688 -3.61651 -2.06191 0
M  V30 5393 H 522.221 -3.95806 -0.39782 0
M  V30 5394 H 518.96 -6.42326 1.30759 0
M  V30 5395 H 518.48 -5.98785 -0.348722 0
M  V30 5396 H 520.159 -6.47 -0.0011164 0
M  V30 5397 N 520.291 -0.0518155 -1.57515 0
M  V30 5398 C 521.568 0.661727 -1.84067 0
M  V30 5399 C 521.948 1.88999 -0.940351 0
M  V30 5400 O 521.296 2.285 -0.00155404 0
M  V30 5401 C 521.506 1.01841 -3.3381 0
M  V30 5402 C 522.854 1.40043 -4.00841 0
M  V30 5403 O 523.878 1.11073 -3.38439 0
M  V30 5404 O 522.737 1.94111 -5.10865 0
M  V30 5405 H 519.831 0.326702 -0.759733 0
M  V30 5406 H 522.377 -0.0812277 -1.69505 0
M  V30 5407 H 521.149 0.145202 -3.91031 0
M  V30 5408 H 520.772 1.81879 -3.53562 0
M  V30 5409 N 521.769 1.56035 0.221574 0
M  V30 5410 C 522.717 1.93269 1.29421 0
M  V30 5411 C 523.711 0.814727 1.48521 0
M  V30 5412 O 524.917 0.999559 1.49696 0
M  V30 5413 H 521.292 0.614188 0.43391 0
M  V30 5414 H 523.263 2.82773 0.952987 0
M  V30 5415 C 522.012 2.26573 2.63742 0
M  V30 5416 H 521.335 3.12112 2.49853 0
M  V30 5417 H 522.775 2.5651 3.37607 0
M  V30 5418 C 521.234 1.09086 3.1875 0
M  V30 5419 O 521.764 0.351985 4.00155 0
M  V30 5420 N 519.97 0.874693 2.77124 0
M  V30 5421 H 519.517 1.47726 2.11033 0
M  V30 5422 H 519.475 0.0903349 3.1427 0
M  V30 5423 N 523.247 -0.488276 1.49845 0
M  V30 5424 C 524.495 -1.23911 1.59657 0
M  V30 5425 C 524.816 -1.92816 0.291005 0
M  V30 5426 O 524.086 -1.83328 -0.690485 0
M  V30 5427 H 522.666 -0.460357 0.588286 0
M  V30 5428 H 525.328 -0.564794 1.86537 0
M  V30 5429 H 524.424 -1.99625 2.39909 0
M  V30 5430 N 524.725 -1.39134 -0.740242 0
M  V30 5431 C 525.688 -1.37217 -1.83587 0
M  V30 5432 C 526.688 -0.270221 -1.58513 0
M  V30 5433 O 527.878 -0.527843 -1.6601 0
M  V30 5434 C 525.01 -1.13959 -3.21288 0
M  V30 5435 H 526.203 -2.34705 -1.86691 0
M  V30 5436 H 523.756 -1.24622 -0.94335 0
M  V30 5437 H 524.491 -0.17131 -3.23847 0
M  V30 5438 H 524.276 -1.93754 -3.40884 0
M  V30 5439 H 525.766 -1.15346 -4.01354 0
M  V30 5440 N 526.204 0.969867 -1.24223 0
M  V30 5441 C 527.481 1.68774 -0.988664 0
M  V30 5442 C 527.861 2.05342 0.489673 0
M  V30 5443 O 527.209 1.75486 1.46345 0
M  V30 5444 C 527.419 2.92135 -1.90941 0
M  V30 5445 C 528.767 3.64422 -2.17903 0
M  V30 5446 O 529.791 3.02188 -1.88576 0
M  V30 5447 O 528.65 4.76446 -2.67697 0
M  V30 5448 H 525.744 0.737736 -0.37373 0
M  V30 5449 H 528.29 1.02415 -1.35312 0
M  V30 5450 H 527.062 2.61788 -2.90831 0
M  V30 5451 H 526.685 3.66228 -1.54798 0
M  V30 5452 N 527.682 1.05563 1.17022 0
M  V30 5453 C 528.959 0.68165 1.83338 0
M  V30 5454 C 529.339 -0.837665 1.93769 0
M  V30 5455 O 528.687 -1.74507 1.47511 0
M  V30 5456 C 528.897 1.375 3.20772 0
M  V30 5457 C 530.245 1.51545 3.96635 0
M  V30 5458 O 531.269 1.33431 3.30264 0
M  V30 5459 O 530.128 1.812 5.15586 0
M  V30 5460 H 527.222 0.240412 0.791285 0
M  V30 5461 H 529.768 1.15545 1.24288 0
M  V30 5462 H 528.54 2.41135 3.08171 0
M  V30 5463 H 528.163 0.890798 3.87493 0
M  V30 5464 N 529.16 -1.33526 0.837174 0
M  V30 5465 C 530.406 -1.98541 0.44193 0
M  V30 5466 C 530.761 -1.65124 -0.987517 0
M  V30 5467 O 530.054 -0.919948 -1.6807 0
M  V30 5468 C 530.248 -3.52367 0.597675 0
M  V30 5469 C 530.077 -4.00731 2.04071 0
M  V30 5470 C 528.847 -4.28649 2.67559 0
M  V30 5471 C 531.045 -4.17073 3.00923 0
M  V30 5472 N 529.027 -4.63142 4.02955 0
M  V30 5473 C 530.398 -4.54905 4.21261 0
M  V30 5474 C 532.453 -3.99358 2.97351 0
M  V30 5475 C 531.156 -4.76874 5.38501 0
M  V30 5476 C 533.182 -4.22501 4.1382 0
M  V30 5477 C 532.544 -4.60634 5.32912 0
M  V30 5478 H 528.643 -0.753246 0.210105 0
M  V30 5479 H 531.227 -1.61674 1.08488 0
M  V30 5480 H 529.398 -3.88397 -0.0154658 0
M  V30 5481 H 531.13 -4.04326 0.17404 0
M  V30 5482 H 527.885 -4.20077 2.18706 0
M  V30 5483 H 528.309 -4.84601 4.72748 0
M  V30 5484 H 532.951 -3.68993 2.06408 0
M  V30 5485 H 530.669 -5.06101 6.2999 0
M  V30 5486 H 534.255 -4.10316 4.12471 0
M  V30 5487 H 533.135 -4.78187 6.21536 0
M  V30 5488 N 530.638 -0.59345 -1.46 0
M  V30 5489 C 532.054 -0.255965 -1.57534 0
M  V30 5490 C 532.254 1.24167 -1.58697 0
M  V30 5491 O 531.31 2.02398 -1.50968 0
M  V30 5492 C 532.623 -0.91466 -2.86451 0
M  V30 5493 C 534.171 -0.889253 -3.00102 0
M  V30 5494 C 534.646 -1.52769 -4.3177 0
M  V30 5495 N 536.137 -1.49253 -4.38495 0
M  V30 5496 C 536.872 -1.9558 -5.39014 0
M  V30 5497 N 536.368 -2.49929 -6.46148 0
M  V30 5498 N 538.161 -1.86432 -5.30282 0
M  V30 5499 H 530.312 -1.56604 -1.43489 0
M  V30 5500 H 532.575 -0.655207 -0.685133 0
M  V30 5501 H 532.281 -1.96861 -2.91442 0
M  V30 5502 H 532.155 -0.429356 -3.74748 0
M  V30 5503 H 534.542 0.156111 -2.94687 0
M  V30 5504 H 534.623 -1.41268 -2.13253 0
M  V30 5505 H 534.267 -2.57231 -4.37944 0
M  V30 5506 H 534.197 -0.979398 -5.17412 0
M  V30 5507 H 536.688 -1.09536 -3.61677 0
M  V30 5508 H 537.001 -2.83109 -7.19075 0
M  V30 5509 H 535.346 -2.53961 -6.46938 0
M  V30 5510 H 538.537 -1.43722 -4.4549 0
M  V30 5511 H 538.71 -2.22852 -6.08474 0
M  V30 5512 N 532.116 1.54067 -0.331816 0
M  V30 5513 C 533.365 1.99895 0.269209 0
M  V30 5514 C 533.678 1.22371 1.52593 0
M  V30 5515 O 534.884 1.58618 2.20347 0
M  V30 5516 C 533.34 3.55972 0.530244 0
M  V30 5517 C 532.948 4.4234 -0.709901 0
M  V30 5518 C 534.692 4.10247 1.09077 0
M  V30 5519 C 532.599 5.89905 -0.420312 0
M  V30 5520 H 531.529 0.746741 0.104371 0
M  V30 5521 H 534.18 1.78014 -0.445324 0
M  V30 5522 H 532.562 3.73873 1.30518 0
M  V30 5523 H 533.736 4.36215 -1.48504 0
M  V30 5524 H 532.051 3.98997 -1.19123 0
M  V30 5525 H 534.648 5.18095 1.32219 0
M  V30 5526 H 534.991 3.62739 2.0427 0
M  V30 5527 H 535.524 3.96011 0.376824 0
M  V30 5528 H 532.263 6.41623 -1.34164 0
M  V30 5529 H 531.783 5.98962 0.316962 0
M  V30 5530 H 533.462 6.46991 -0.0331956 0
M  V30 5531 N 533.594 0.0601682 1.57485 0
M  V30 5532 C 534.557 -0.896373 2.10945 0
M  V30 5533 C 535.557 -1.23402 1.03095 0
M  V30 5534 O 536.747 -1.16921 1.29132 0
M  V30 5535 C 533.879 -2.20346 2.60116 0
M  V30 5536 H 535.072 -0.432778 2.96761 0
M  V30 5537 H 532.625 -0.188372 1.55161 0
M  V30 5538 H 533.36 -2.71268 1.7772 0
M  V30 5539 H 533.145 -1.9714 3.38937 0
M  V30 5540 H 534.635 -2.88846 3.01592 0
M  V30 5541 N 535.072 -1.5615 -0.213296 0
M  V30 5542 C 536.005 -1.88115 -1.29182 0
M  V30 5543 C 536.983 -0.739348 -1.44819 0
M  V30 5544 O 538.167 -0.988541 -1.605 0
M  V30 5545 C 535.294 -2.09541 -2.66102 0
M  V30 5546 C 534.34 -3.32236 -2.67436 0
M  V30 5547 S 535.173 -4.87915 -2.20679 0
M  V30 5548 C 536.329 -5.12387 -3.59458 0
M  V30 5549 H 536.562 -2.793 -1.01876 0
M  V30 5550 H 534.095 -1.48692 -0.415934 0
M  V30 5551 H 536.053 -2.22568 -3.44925 0
M  V30 5552 H 534.714 -1.19138 -2.90628 0
M  V30 5553 H 533.907 -3.44297 -3.6807 0
M  V30 5554 H 533.509 -3.18108 -1.96681 0
M  V30 5555 H 535.801 -5.01791 -4.55205 0
M  V30 5556 H 536.744 -6.14236 -3.52306 0
M  V30 5557 H 537.152 -4.40089 -3.53528 0
M  V30 5558 N 536.55 0.480323 -1.50102 0
M  V30 5559 C 537.778 1.25657 -1.64371 0
M  V30 5560 C 538.193 1.86011 -0.323316 0
M  V30 5561 O 537.55 1.68803 0.693682 0
M  V30 5562 C 537.601 2.37197 -2.728 0
M  V30 5563 O 537.322 1.7932 -3.9972 0
M  V30 5564 C 538.823 3.2823 -2.9796 0
M  V30 5565 H 536.043 0.380369 -0.552775 0
M  V30 5566 H 538.587 0.574379 -1.96268 0
M  V30 5567 H 536.742 3.01208 -2.43623 0
M  V30 5568 H 537.156 2.52701 -4.59611 0
M  V30 5569 H 538.63 4.02725 -3.77513 0
M  V30 5570 H 539.107 3.86462 -2.08671 0
M  V30 5571 H 539.713 2.69964 -3.28633 0
M  V30 5572 N 538.028 1.39524 0.732853 0
M  V30 5573 C 539.258 1.3994 1.51988 0
M  V30 5574 C 539.666 -0.00727973 1.89199 0
M  V30 5575 O 539.009 -0.989521 1.54771 0
M  V30 5576 C 539.071 2.21026 2.83527 0
M  V30 5577 C 538.735 3.69633 2.68738 0
M  V30 5578 C 539.732 4.62665 2.37143 0
M  V30 5579 C 537.417 4.13244 2.85542 0
M  V30 5580 C 539.411 5.97291 2.22536 0
M  V30 5581 C 537.098 5.47945 2.70554 0
M  V30 5582 C 538.096 6.39783 2.39097 0
M  V30 5583 O 537.784 7.72002 2.24204 0
M  V30 5584 H 537.516 0.479795 0.476206 0
M  V30 5585 H 540.07 1.8399 0.913054 0
M  V30 5586 H 538.3 1.71728 3.46477 0
M  V30 5587 H 539.989 2.13594 3.45156 0
M  V30 5588 H 540.755 4.30272 2.2381 0
M  V30 5589 H 536.634 3.42094 3.09019 0
M  V30 5590 H 540.178 6.68939 1.97905 0
M  V30 5591 H 536.075 5.79928 2.83466 0
M  V30 5592 H 536.843 7.8275 2.39258 0
M  V30 5593 N 539.506 -0.963266 1.24736 0
M  V30 5594 C 540.416 -2.09246 1.06082 0
M  V30 5595 C 541.432 -1.74 0.000363101 0
M  V30 5596 O 542.608 -2.0041 0.199479 0
M  V30 5597 C 539.673 -3.40115 0.672498 0
M  V30 5598 C 538.734 -3.89282 1.80993 0
M  V30 5599 C 537.967 -5.13905 1.44004 0
M  V30 5600 O 538.19 -5.69434 0.331835 0
M  V30 5601 O 537.124 -5.57566 2.26723 0
M  V30 5602 H 540.95 -2.27881 2.00759 0
M  V30 5603 H 538.535 -1.07649 1.03595 0
M  V30 5604 H 540.417 -4.18797 0.467668 0
M  V30 5605 H 539.092 -3.22771 -0.245102 0
M  V30 5606 H 537.999 -3.11642 2.06955 0
M  V30 5607 H 539.332 -4.1111 2.70646 0
M  V30 5608 N 540.985 -1.06182 -1.16461 0
M  V30 5609 C 542.401 -0.785065 -1.38956 0
M  V30 5610 C 542.601 0.616103 -1.9185 0
M  V30 5611 O 541.657 1.37686 -2.11657 0
M  V30 5612 C 542.97 -1.84902 -2.37132 0
M  V30 5613 C 544.518 -1.8724 -2.50819 0
M  V30 5614 C 544.993 -2.92686 -3.52277 0
M  V30 5615 N 546.484 -2.91712 -3.59803 0
M  V30 5616 C 547.219 -3.69949 -4.38093 0
M  V30 5617 N 546.715 -4.58 -5.19815 0
M  V30 5618 N 548.508 -3.58346 -4.33064 0
M  V30 5619 H 540.659 -1.96569 -0.804634 0
M  V30 5620 H 542.922 -0.851747 -0.416211 0
M  V30 5621 H 542.628 -2.85518 -2.0536 0
M  V30 5622 H 542.502 -1.69908 -3.36766 0
M  V30 5623 H 544.889 -0.872827 -2.81897 0
M  V30 5624 H 544.97 -2.06311 -1.51226 0
M  V30 5625 H 544.614 -3.92835 -3.21937 0
M  V30 5626 H 544.544 -2.70864 -4.51598 0
M  V30 5627 H 547.035 -2.27876 -3.01464 0
M  V30 5628 H 547.348 -5.14357 -5.76764 0
M  V30 5629 H 545.693 -4.62056 -5.19162 0
M  V30 5630 H 548.884 -2.88943 -3.68279 0
M  V30 5631 H 549.057 -4.19563 -4.93833 0
M  V30 5632 N 542.463 1.3308 -0.844243 0
M  V30 5633 C 543.712 1.96868 -0.438833 0
M  V30 5634 C 544.025 1.67599 1.00846 0
M  V30 5635 O 545.231 2.25043 1.51881 0
M  V30 5636 C 543.687 3.5234 -0.73377 0
M  V30 5637 C 543.295 3.90481 -2.1961 0
M  V30 5638 C 545.039 4.22653 -0.395574 0
M  V30 5639 C 542.946 5.38954 -2.43481 0
M  V30 5640 H 541.876 0.736749 -0.160364 0
M  V30 5641 H 544.527 1.51623 -1.03358 0
M  V30 5642 H 542.909 3.95941 -0.068589 0
M  V30 5643 H 544.083 3.57922 -2.90221 0
M  V30 5644 H 542.398 3.33165 -2.4978 0
M  V30 5645 H 544.995 5.31848 -0.551477 0
M  V30 5646 H 545.338 4.11004 0.661921 0
M  V30 5647 H 545.871 3.84601 -1.01621 0
M  V30 5648 H 542.61 5.55612 -3.47816 0
M  V30 5649 H 542.13 5.72954 -1.77437 0
M  V30 5650 H 543.809 6.05907 -2.26905 0
M  V30 5651 N 543.941 0.601185 1.45683 0
M  V30 5652 C 544.871 -0.108824 2.33246 0
M  V30 5653 C 545.852 -0.865223 1.46451 0
M  V30 5654 O 547.037 -0.83704 1.75235 0
M  V30 5655 C 544.167 -1.11101 3.2905 0
M  V30 5656 C 543.121 -0.468244 4.25431 0
M  V30 5657 C 542.447 -1.57822 5.10878 0
M  V30 5658 C 543.747 0.606469 5.18767 0
M  V30 5659 H 545.441 0.622306 2.92861 0
M  V30 5660 H 542.987 0.300714 1.40825 0
M  V30 5661 H 544.94 -1.61622 3.89174 0
M  V30 5662 H 543.664 -1.87265 2.67581 0
M  V30 5663 H 542.323 0.0160484 3.66596 0
M  V30 5664 H 541.971 -2.32998 4.45781 0
M  V30 5665 H 541.671 -1.15369 5.76163 0
M  V30 5666 H 543.195 -2.08583 5.73869 0
M  V30 5667 H 544.609 0.185589 5.73 0
M  V30 5668 H 543.006 0.952381 5.92494 0
M  V30 5669 H 544.076 1.48559 4.61582 0
M  V30 5670 N 545.419 -1.53889 0.339982 0
M  V30 5671 C 546.649 -2.04973 -0.258738 0
M  V30 5672 C 547.057 -1.21485 -1.45045 0
M  V30 5673 O 546.4 -0.2422 -1.82096 0
M  V30 5674 C 546.462 -3.51783 -0.740853 0
M  V30 5675 C 546.126 -4.55802 0.330734 0
M  V30 5676 C 547.123 -5.06512 1.17226 0
M  V30 5677 C 544.808 -4.99966 0.483637 0
M  V30 5678 C 546.802 -5.99963 2.15227 0
M  V30 5679 C 544.489 -5.93229 1.46704 0
M  V30 5680 C 545.487 -6.43115 2.29981 0
M  V30 5681 O 545.175 -7.34545 3.26649 0
M  V30 5682 H 544.907 -0.673807 -0.0544037 0
M  V30 5683 H 547.461 -1.99492 0.489107 0
M  V30 5684 H 545.691 -3.54717 -1.53988 0
M  V30 5685 H 547.38 -3.85857 -1.25973 0
M  V30 5686 H 548.146 -4.73158 1.0652 0
M  V30 5687 H 544.025 -4.6074 -0.15471 0
M  V30 5688 H 547.569 -6.38825 2.80265 0
M  V30 5689 H 543.466 -6.25998 1.57468 0
M  V30 5690 H 544.234 -7.52468 3.22078 0
M  V30 5691 N 546.897 -0.0685191 -1.57451 0
M  V30 5692 C 548.146 0.600898 -1.92541 0
M  V30 5693 C 548.459 1.70967 -0.950239 0
M  V30 5694 O 549.665 2.43844 -1.19384 0
M  V30 5695 C 548.121 1.12019 -3.42023 0
M  V30 5696 C 547.729 0.0426028 -4.4798 0
M  V30 5697 C 549.473 1.76386 -3.86119 0
M  V30 5698 C 547.38 0.575759 -5.88591 0
M  V30 5699 H 546.31 0.228225 -0.71863 0
M  V30 5700 H 548.961 -0.140223 -1.82963 0
M  V30 5701 H 547.343 1.91418 -3.46663 0
M  V30 5702 H 548.517 -0.73182 -4.54952 0
M  V30 5703 H 546.832 -0.504642 -4.13331 0
M  V30 5704 H 549.429 2.17302 -4.88553 0
M  V30 5705 H 549.772 2.62255 -3.23308 0
M  V30 5706 H 550.305 1.03615 -3.84069 0
M  V30 5707 H 547.044 -0.245691 -6.55039 0
M  V30 5708 H 546.564 1.31778 -5.85145 0
M  V30 5709 H 548.243 1.0532 -6.3837 0
M  V30 5710 N 548.375 1.56261 0.205012 0
M  V30 5711 C 549.6 1.84491 0.947512 0
M  V30 5712 C 550.025 0.650894 1.76479 0
M  V30 5713 O 549.383 -0.40035 1.76824 0
M  V30 5714 C 549.431 3.10863 1.82747 0
M  V30 5715 O 548.535 2.90719 2.925 0
M  V30 5716 H 547.876 0.607783 0.267386 0
M  V30 5717 H 550.406 2.03485 0.213323 0
M  V30 5718 H 550.416 3.41399 2.23407 0
M  V30 5719 H 549.091 3.97392 1.2269 0
M  V30 5720 H 547.668 2.71457 2.55667 0
M  V30 5721 N 549.853 -0.472356 1.50355 0
M  V30 5722 C 550.783 -1.57859 1.72055 0
M  V30 5723 C 551.764 -1.60283 0.569505 0
M  V30 5724 O 552.949 -1.7657 0.808503 0
M  V30 5725 C 550.079 -2.96191 1.81351 0
M  V30 5726 C 549.033 -3.08633 2.96529 0
M  V30 5727 C 548.359 -4.486 2.90968 0
M  V30 5728 C 549.659 -2.85969 4.37057 0
M  V30 5729 H 551.353 -1.39953 2.64676 0
M  V30 5730 H 548.899 -0.671846 1.27367 0
M  V30 5731 H 550.852 -3.73507 1.95117 0
M  V30 5732 H 549.576 -3.15251 0.853502 0
M  V30 5733 H 548.235 -2.33749 2.82413 0
M  V30 5734 H 547.883 -4.64577 1.92815 0
M  V30 5735 H 547.583 -4.57861 3.68289 0
M  V30 5736 H 549.107 -5.27938 3.0678 0
M  V30 5737 H 550.521 -3.53036 4.51706 0
M  V30 5738 H 548.918 -3.06677 5.15819 0
M  V30 5739 H 549.988 -1.81838 4.49514 0
M  V30 5740 N 551.331 -1.39911 -0.725443 0
M  V30 5741 C 552.241 -1.41688 -1.8698 0
M  V30 5742 C 553.257 -0.310579 -1.71206 0
M  V30 5743 O 554.433 -0.55359 -1.93642 0
M  V30 5744 C 551.498 -1.26811 -3.22676 0
M  V30 5745 C 550.559 -2.47497 -3.50776 0
M  V30 5746 C 549.792 -2.3332 -4.79997 0
M  V30 5747 O 550.015 -1.34175 -5.54394 0
M  V30 5748 O 548.949 -3.22498 -5.08211 0
M  V30 5749 H 552.775 -2.38171 -1.88436 0
M  V30 5750 H 550.36 -1.21128 -0.874548 0
M  V30 5751 H 552.242 -1.20684 -4.03749 0
M  V30 5752 H 550.917 -0.334289 -3.21969 0
M  V30 5753 H 549.824 -2.59201 -2.69751 0
M  V30 5754 H 551.157 -3.39606 -3.5627 0
M  V30 5755 N 552.809 0.956637 -1.25245 0
M  V30 5756 C 553.742 2.05232 -0.99775 0
M  V30 5757 C 554.72 1.62439 0.0723137 0
M  V30 5758 O 555.904 1.88381 -0.066926 0
M  V30 5759 C 553.031 3.34871 -0.507861 0
M  V30 5760 C 552.077 3.96625 -1.56815 0
M  V30 5761 S 552.91 4.32853 -3.15276 0
M  V30 5762 C 554.066 5.65613 -2.68017 0
M  V30 5763 H 554.299 2.26521 -1.9255 0
M  V30 5764 H 551.832 1.09601 -1.08752 0
M  V30 5765 H 553.79 4.09845 -0.231858 0
M  V30 5766 H 552.451 3.11551 0.399356 0
M  V30 5767 H 551.644 4.90087 -1.17604 0
M  V30 5768 H 551.246 3.28124 -1.79473 0
M  V30 5769 H 553.538 6.43635 -2.11518 0
M  V30 5770 H 554.481 6.09693 -3.60112 0
M  V30 5771 H 554.889 5.24751 -2.0808 0
M  V30 5772 N 554.287 1.06798 1.15896 0
M  V30 5773 C 555.217 0.704677 2.22613 0
M  V30 5774 C 556.198 -0.305252 1.67339 0
M  V30 5775 O 557.383 -0.179247 1.93371 0
M  V30 5776 C 554.513 0.0957325 3.47168 0
M  V30 5777 C 553.467 1.0322 4.15367 0
M  V30 5778 C 552.793 0.286293 5.33933 0
M  V30 5779 C 554.093 2.36341 4.65768 0
M  V30 5780 H 555.787 1.59688 2.53259 0
M  V30 5781 H 553.333 0.769257 1.21731 0
M  V30 5782 H 555.286 -0.170333 4.21056 0
M  V30 5783 H 554.01 -0.831516 3.15838 0
M  V30 5784 H 552.669 1.28309 3.43413 0
M  V30 5785 H 552.317 -0.644237 4.98857 0
M  V30 5786 H 552.017 0.910436 5.80504 0
M  V30 5787 H 553.541 0.0278938 6.10594 0
M  V30 5788 H 554.955 2.1561 5.31211 0
M  V30 5789 H 553.352 2.94299 5.2298 0
M  V30 5790 H 554.422 2.99047 3.81705 0
M  V30 5791 N 555.766 -1.3263 0.851289 0
M  V30 5792 C 557.012 -1.9766 0.453694 0
M  V30 5793 C 557.345 -1.67225 -0.987396 0
M  V30 5794 O 556.62 -0.958693 -1.69232 0
M  V30 5795 C 556.903 -3.5344 0.68936 0
M  V30 5796 C 556.756 -3.93517 2.17862 0
M  V30 5797 C 558.075 -4.39866 0.143555 0
M  V30 5798 H 555.194 -0.717989 0.166314 0
M  V30 5799 H 557.836 -1.57068 1.06909 0
M  V30 5800 H 555.986 -3.88147 0.165546 0
M  V30 5801 H 557.658 -3.69006 2.76826 0
M  V30 5802 H 555.901 -3.42798 2.65841 0
M  V30 5803 H 556.572 -5.02065 2.29422 0
M  V30 5804 H 559.048 -4.11875 0.591451 0
M  V30 5805 H 557.924 -5.47858 0.338043 0
M  V30 5806 H 558.185 -4.31696 -0.953466 0
M  V30 5807 N 557.244 -0.608902 -1.45362 0
M  V30 5808 C 558.484 -0.10763 -2.04116 0
M  V30 5809 C 558.848 1.23883 -1.46686 0
M  V30 5810 O 560.049 1.83091 -1.96803 0
M  V30 5811 C 558.32 -0.0703351 -3.57331 0
M  V30 5812 S 559.879 0.369554 -4.37241 0
M  V30 5813 H 556.697 -0.0502123 -0.709225 0
M  V30 5814 H 559.299 -0.8073 -1.78053 0
M  V30 5815 H 558.003 -1.05379 -3.9664 0
M  V30 5816 H 557.534 0.651287 -3.87971 0
M  V30 5817 H 559.549 1.61878 -4.69052 0
M  V30 5818 N 558.722 1.53707 -0.348139 0
M  V30 5819 C 559.685 2.23812 0.494058 0
M  V30 5820 C 560.685 1.23989 1.02388 0
M  V30 5821 O 561.875 1.48395 0.912396 0
M  V30 5822 C 559.007 2.96133 1.68872 0
M  V30 5823 H 560.2 2.99663 -0.119141 0
M  V30 5824 H 557.753 1.55983 -0.0995539 0
M  V30 5825 H 558.488 2.24481 2.34049 0
M  V30 5826 H 558.273 3.69357 1.31596 0
M  V30 5827 H 559.763 3.49475 2.28597 0
M  V30 5828 N 560.2 0.0768682 1.57412 0
M  V30 5829 C 561.449 -0.590679 1.92857 0
M  V30 5830 C 561.762 -1.70461 0.959293 0
M  V30 5831 O 562.968 -2.43207 1.20675 0
M  V30 5832 C 561.424 -1.10204 3.42612 0
M  V30 5833 C 561.032 -0.0188447 4.47996 0
M  V30 5834 C 562.776 -1.74336 3.87049 0
M  V30 5835 C 560.683 -0.544536 5.88888 0
M  V30 5836 H 559.613 -0.224411 0.71983 0
M  V30 5837 H 562.264 0.149924 1.82887 0
M  V30 5838 H 560.646 -1.89577 3.47673 0
M  V30 5839 H 561.82 0.755936 4.54557 0
M  V30 5840 H 560.135 0.526555 4.13057 0
M  V30 5841 H 562.732 -2.14708 4.89699 0
M  V30 5842 H 563.075 -2.60537 3.24694 0
M  V30 5843 H 563.608 -1.01577 3.84613 0
M  V30 5844 H 560.347 0.280426 6.549 0
M  V30 5845 H 559.867 -1.28673 5.85836 0
M  V30 5846 H 561.546 -1.01933 6.3892 0
M  V30 5847 N 561.678 -1.56367 -0.196722 0
M  V30 5848 C 562.628 -1.9082 -1.24787 0
M  V30 5849 C 563.612 -0.773719 -1.41076 0
M  V30 5850 O 564.804 -1.03655 -1.43474 0
M  V30 5851 C 561.933 -2.24982 -2.59303 0
M  V30 5852 C 561.019 -3.44882 -2.46814 0
M  V30 5853 N 561.41 -4.62835 -2.04003 0
M  V30 5854 C 559.708 -3.48988 -2.77711 0
M  V30 5855 C 560.409 -5.44993 -2.03366 0
M  V30 5856 N 559.385 -4.85356 -2.44807 0
M  V30 5857 H 563.187 -2.79516 -0.908175 0
M  V30 5858 H 560.701 -1.57265 -0.405166 0
M  V30 5859 H 562.698 -2.47848 -3.35227 0
M  V30 5860 H 561.358 -1.37611 -2.94098 0
M  V30 5861 H 562.369 -4.87532 -1.74738 0
M  V30 5862 H 559.046 -2.72029 -3.16712 0
M  V30 5863 H 560.436 -6.49464 -1.72181 0
M  V30 5864 N 563.156 0.464375 -1.50603 0
M  V30 5865 C 564.567 1.04507 -1.5471 0
M  V30 5866 C 564.918 1.9297 -0.354542 0
M  V30 5867 O 564.043 2.09763 0.531812 0
M  V30 5868 C 564.638 1.90207 -2.80369 0
M  V30 5869 C 563.197 2.43373 -2.87135 0
M  V30 5870 C 562.344 1.21886 -2.49076 0
M  V30 5871 H 565.295 0.246716 -1.56771 0
M  V30 5872 H 565.316 2.75353 -2.62604 0
M  V30 5873 H 564.828 1.25796 -3.67147 0
M  V30 5874 H 562.929 3.11318 -2.04724 0
M  V30 5875 H 563.042 2.7802 -3.90181 0
M  V30 5876 H 561.406 1.55575 -2.01664 0
M  V30 5877 H 562.189 0.591268 -3.3817 0
M  V30 5878 N 564.634 1.40294 0.718013 0
M  V30 5879 C 565.883 1.37746 1.4734 0
M  V30 5880 C 566.196 -0.0180754 1.95592 0
M  V30 5881 O 567.402 -0.166166 2.70991 0
M  V30 5882 C 565.858 2.4208 2.66318 0
M  V30 5883 C 565.466 3.87432 2.24945 0
M  V30 5884 C 567.21 2.48635 3.44065 0
M  V30 5885 C 565.117 4.83368 3.40748 0
M  V30 5886 H 564.047 0.512165 0.553356 0
M  V30 5887 H 566.698 1.66019 0.781661 0
M  V30 5888 H 565.08 2.06903 3.3765 0
M  V30 5889 H 566.254 4.3174 1.6105 0
M  V30 5890 H 564.569 3.8433 1.60249 0
M  V30 5891 H 567.166 3.17499 4.30231 0
M  V30 5892 H 567.509 1.51611 3.87711 0
M  V30 5893 H 568.042 2.82791 2.79775 0
M  V30 5894 H 564.781 5.81716 3.02136 0
M  V30 5895 H 564.301 4.43726 4.03568 0
M  V30 5896 H 565.98 5.03074 4.06848 0
M  V30 5897 N 566.112 -0.949982 1.2575 0
M  V30 5898 C 567.523 -1.50989 1.09815 0
M  V30 5899 C 567.874 -1.93497 -0.324556 0
M  V30 5900 O 566.999 -1.79068 -1.21506 0
M  V30 5901 C 567.594 -2.74394 1.98729 0
M  V30 5902 C 566.153 -3.26682 1.86965 0
M  V30 5903 C 565.3 -1.99498 1.92603 0
M  V30 5904 H 568.251 -0.766387 1.38968 0
M  V30 5905 H 568.272 -3.48383 1.53001 0
M  V30 5906 H 567.784 -2.43425 3.02268 0
M  V30 5907 H 565.885 -3.62461 0.863279 0
M  V30 5908 H 565.998 -3.94383 2.72027 0
M  V30 5909 H 564.362 -2.15005 1.36546 0
M  V30 5910 H 565.145 -1.70871 2.97755 0
M  V30 5911 N 567.59 -1.07411 -1.15328 0
M  V30 5912 C 568.838 -0.796073 -1.85761 0
M  V30 5913 C 569.159 0.679864 -1.82764 0
M  V30 5914 O 568.429 1.49242 -1.269 0
M  V30 5915 H 567.009 -0.291495 -0.687779 0
M  V30 5916 H 569.671 -1.35799 -1.39802 0
M  V30 5917 H 568.767 -1.13114 -2.90881 0
M  V30 5918 N 569.068 1.32177 -0.85831 0
M  V30 5919 C 569.978 2.32561 -0.308606 0
M  V30 5920 C 570.994 1.64209 0.575462 0
M  V30 5921 O 572.17 1.95719 0.474961 0
M  V30 5922 C 569.235 3.43207 0.490909 0
M  V30 5923 C 568.296 4.27243 -0.419733 0
M  V30 5924 C 567.529 5.32605 0.341719 0
M  V30 5925 O 567.752 5.48332 1.57125 0
M  V30 5926 O 566.686 6.0118 -0.294379 0
M  V30 5927 H 570.512 2.81477 -1.14037 0
M  V30 5928 H 568.097 1.35866 -0.621349 0
M  V30 5929 H 569.979 4.10677 0.944574 0
M  V30 5930 H 568.654 2.96474 1.29941 0
M  V30 5931 H 567.561 3.62569 -0.921652 0
M  V30 5932 H 568.894 4.7751 -1.19352 0
M  V30 5933 N 570.547 0.616602 1.45037 0
M  V30 5934 C 571.777 0.121791 2.06241 0
M  V30 5935 C 572.185 -1.20289 1.46038 0
M  V30 5936 O 571.528 -1.7456 0.572242 0
M  V30 5937 C 571.59 -0.0827345 3.59405 0
M  V30 5938 C 571.254 1.16153 4.41993 0
M  V30 5939 C 572.251 2.08183 4.76399 0
M  V30 5940 C 569.936 1.39288 4.82601 0
M  V30 5941 C 571.93 3.21668 5.5028 0
M  V30 5942 C 569.617 2.53073 5.56235 0
M  V30 5943 C 570.615 3.44091 5.89992 0
M  V30 5944 O 570.303 4.55894 6.6213 0
M  V30 5945 H 570.035 0.0701667 0.672349 0
M  V30 5946 H 572.589 0.846877 1.87129 0
M  V30 5947 H 570.819 -0.862812 3.76952 0
M  V30 5948 H 572.508 -0.530273 4.02421 0
M  V30 5949 H 573.274 1.91538 4.45576 0
M  V30 5950 H 569.153 0.693396 4.55755 0
M  V30 5951 H 572.697 3.92733 5.76547 0
M  V30 5952 H 568.594 2.69667 5.86472 0
M  V30 5953 H 569.362 4.5469 6.80587 0
M  V30 5954 N 572.025 -1.5352 0.356285 0
M  V30 5955 C 572.972 -2.25439 -0.494569 0
M  V30 5956 C 573.942 -1.25752 -1.08516 0
M  V30 5957 O 575.127 -1.54513 -1.1194 0
M  V30 5958 C 572.267 -3.04011 -1.63313 0
M  V30 5959 C 571.38 -4.18574 -1.06862 0
M  V30 5960 C 570.515 -4.84607 -2.17552 0
M  V30 5961 C 569.554 -5.91218 -1.58518 0
M  V30 5962 N 568.691 -6.50979 -2.63003 0
M  V30 5963 H 573.531 -2.97737 0.125244 0
M  V30 5964 H 571.068 -1.46916 0.0735789 0
M  V30 5965 H 573.026 -3.47834 -2.30363 0
M  V30 5966 H 571.656 -2.33986 -2.22374 0
M  V30 5967 H 570.708 -3.79303 -0.288672 0
M  V30 5968 H 572.02 -4.95215 -0.596924 0
M  V30 5969 H 571.174 -5.31566 -2.92442 0
M  V30 5970 H 569.913 -4.07418 -2.6807 0
M  V30 5971 H 568.918 -5.4363 -0.821391 0
M  V30 5972 H 570.143 -6.70322 -1.08836 0
M  V30 5973 H 568.089 -5.76648 -3.12751 0
M  V30 5974 H 568.006 -7.23131 -2.20493 0
M  V30 5975 H 569.274 -7.02589 -3.37623 0
M  V30 5976 N 573.503 -0.0852151 -1.57369 0
M  V30 5977 C 574.75 0.580806 -1.93992 0
M  V30 5978 C 575.078 1.68801 -0.966252 0
M  V30 5979 O 574.333 1.95694 0.0158649 0
M  V30 5980 C 574.632 1.18482 -3.3719 0
M  V30 5981 C 574.298 0.2024 -4.50446 0
M  V30 5982 C 572.96 -0.0678318 -4.81152 0
M  V30 5983 C 575.312 -0.46895 -5.19086 0
M  V30 5984 C 572.64 -1.01627 -5.77831 0
M  V30 5985 C 574.992 -1.4058 -6.16782 0
M  V30 5986 C 573.656 -1.68436 -6.45899 0
M  V30 5987 H 572.926 0.212532 -0.709867 0
M  V30 5988 H 575.573 -0.158947 -1.90839 0
M  V30 5989 H 573.878 2.0006 -3.36873 0
M  V30 5990 H 575.575 1.70767 -3.62822 0
M  V30 5991 H 572.165 0.423208 -4.26505 0
M  V30 5992 H 576.349 -0.273307 -4.95547 0
M  V30 5993 H 571.605 -1.2392 -5.9871 0
M  V30 5994 H 575.779 -1.93188 -6.69068 0
M  V30 5995 H 573.406 -2.42088 -7.20623 0
M  V30 5996 N 574.981 1.5647 0.188427 0
M  V30 5997 C 576.228 1.81013 0.907779 0
M  V30 5998 C 576.556 0.65953 1.82977 0
M  V30 5999 O 575.811 -0.354308 1.92466 0
M  V30 6000 C 576.11 3.11596 1.7505 0
M  V30 6001 C 575.776 4.40145 0.978922 0
M  V30 6002 C 574.438 4.75066 0.765912 0
M  V30 6003 C 576.79 5.19369 0.436498 0
M  V30 6004 C 574.118 5.867 -0.00089868 0
M  V30 6005 C 576.47 6.31805 -0.317136 0
M  V30 6006 C 575.134 6.65303 -0.541103 0
M  V30 6007 H 574.404 0.662373 0.33218 0
M  V30 6008 H 577.051 1.9071 0.173732 0
M  V30 6009 H 575.356 2.97165 2.55343 0
M  V30 6010 H 577.053 3.27793 2.30983 0
M  V30 6011 H 573.643 4.12745 1.15497 0
M  V30 6012 H 577.827 4.92799 0.588449 0
M  V30 6013 H 573.083 6.11122 -0.184329 0
M  V30 6014 H 577.257 6.92406 -0.744788 0
M  V30 6015 H 574.884 7.51646 -1.13718 0
M  V30 6016 N 576.459 -0.456382 1.50847 0
M  V30 6017 C 577.705 -1.20618 1.63777 0
M  V30 6018 C 578.06 -1.8936 0.340677 0
M  V30 6019 O 577.353 -1.79786 -0.662378 0
M  V30 6020 C 577.547 -2.26336 2.76599 0
M  V30 6021 C 577.376 -1.67968 4.17153 0
M  V30 6022 C 576.146 -1.47293 4.83356 0
M  V30 6023 C 578.344 -1.16643 5.00898 0
M  V30 6024 N 576.326 -0.843222 6.08081 0
M  V30 6025 C 577.697 -0.660843 6.16468 0
M  V30 6026 C 579.752 -1.05637 4.86565 0
M  V30 6027 C 578.455 -0.0560365 7.19278 0
M  V30 6028 C 580.481 -0.465485 5.89565 0
M  V30 6029 C 579.843 0.0296516 7.04394 0
M  V30 6030 H 575.942 -0.429725 0.653345 0
M  V30 6031 H 578.526 -0.505784 1.88016 0
M  V30 6032 H 576.697 -2.93785 2.54056 0
M  V30 6033 H 578.429 -2.9334 2.78808 0
M  V30 6034 H 575.184 -1.72934 4.40898 0
M  V30 6035 H 575.608 -0.546357 6.74792 0
M  V30 6036 H 580.25 -1.42508 3.98059 0
M  V30 6037 H 577.968 0.324845 8.07447 0
M  V30 6038 H 581.554 -0.382493 5.80541 0
M  V30 6039 H 580.434 0.479705 7.82731 0
M  V30 6040 N 577.937 -1.40673 -0.710563 0
M  V30 6041 C 579.165 -1.42547 -1.4996 0
M  V30 6042 C 579.58 -0.0265485 -1.88781 0
M  V30 6043 O 578.937 0.950694 -1.55782 0
M  V30 6044 C 578.988 -2.32071 -2.77173 0
M  V30 6045 O 578.709 -3.66518 -2.39992 0
M  V30 6046 C 580.21 -2.42591 -3.71032 0
M  V30 6047 H 577.43 -0.486025 -0.462623 0
M  V30 6048 H 579.974 -1.84783 -0.876102 0
M  V30 6049 H 578.129 -1.93184 -3.35795 0
M  V30 6050 H 578.543 -4.14115 -3.21884 0
M  V30 6051 H 580.017 -3.09429 -4.57119 0
M  V30 6052 H 580.494 -1.4525 -4.14486 0
M  V30 6053 H 581.1 -2.82051 -3.18319 0
M  V30 6054 N 579.415 0.9433 -1.26252 0
M  V30 6055 C 580.378 2.02326 -1.07689 0
M  V30 6056 C 581.378 1.60779 -0.0259174 0
M  V30 6057 O 582.568 1.72108 -0.269134 0
M  V30 6058 C 579.7 3.34886 -0.63752 0
M  V30 6059 H 580.893 2.20225 -2.0357 0
M  V30 6060 H 578.446 1.12197 -1.08819 0
M  V30 6061 H 579.181 3.22684 0.323377 0
M  V30 6062 H 578.966 3.66393 -1.39637 0
M  V30 6063 H 580.456 4.14231 -0.529418 0
M  V30 6064 N 580.893 1.08022 1.14757 0
M  V30 6065 C 582.309 0.807072 1.3769 0
M  V30 6066 C 582.509 -0.585504 1.92806 0
M  V30 6067 O 581.565 -1.34301 2.13821 0
M  V30 6068 C 582.878 1.88651 2.34161 0
M  V30 6069 C 584.426 1.91206 2.47809 0
M  V30 6070 C 584.901 2.98253 3.47576 0
M  V30 6071 N 586.392 2.974 3.55117 0
M  V30 6072 C 587.127 3.76872 4.32152 0
M  V30 6073 N 586.623 4.66212 5.12463 0
M  V30 6074 N 588.416 3.6519 4.27309 0
M  V30 6075 H 580.567 1.97824 0.77326 0
M  V30 6076 H 582.83 0.85826 0.402608 0
M  V30 6077 H 582.536 2.88749 2.00791 0
M  V30 6078 H 582.41 1.75244 3.3402 0
M  V30 6079 H 584.797 0.917564 2.80472 0
M  V30 6080 H 584.878 2.08691 1.47925 0
M  V30 6081 H 584.522 3.97907 3.15646 0
M  V30 6082 H 584.452 2.78014 4.47231 0
M  V30 6083 H 586.943 2.32643 2.97801 0
M  V30 6084 H 587.256 5.23468 5.68508 0
M  V30 6085 H 585.601 4.70257 5.11745 0
M  V30 6086 H 588.792 2.94765 3.63636 0
M  V30 6087 H 588.965 4.27366 4.87095 0
M  V30 6088 N 582.371 -1.3172 0.865308 0
M  V30 6089 C 583.301 -2.31109 0.333302 0
M  V30 6090 C 584.282 -1.60148 -0.573301 0
M  V30 6091 O 585.467 -1.87882 -0.491305 0
M  V30 6092 C 582.597 -3.44104 -0.470078 0
M  V30 6093 C 581.551 -4.26623 0.343021 0
M  V30 6094 C 580.877 -5.31482 -0.585756 0
M  V30 6095 C 582.177 -4.98001 1.57456 0
M  V30 6096 H 583.871 -2.75855 1.1638 0
M  V30 6097 H 581.417 -1.3262 0.561069 0
M  V30 6098 H 583.37 -4.12682 -0.852752 0
M  V30 6099 H 582.094 -2.98112 -1.33404 0
M  V30 6100 H 580.753 -3.59707 0.707583 0
M  V30 6101 H 580.401 -4.81741 -1.44686 0
M  V30 6102 H 580.101 -5.87582 -0.0456494 0
M  V30 6103 H 581.625 -6.0292 -0.965375 0
M  V30 6104 H 583.039 -5.59201 1.26359 0
M  V30 6105 H 581.436 -5.63876 2.05339 0
M  V30 6106 H 582.506 -4.25253 2.32997 0
M  V30 6107 N 583.85 -0.624285 -1.44708 0
M  V30 6108 C 584.812 0.0749638 -2.29077 0
M  V30 6109 C 585.812 0.778965 -1.40673 0
M  V30 6110 O 587.003 0.624591 -1.62618 0
M  V30 6111 C 584.135 1.11663 -3.22094 0
M  V30 6112 H 585.327 -0.667013 -2.92388 0
M  V30 6113 H 582.88 -0.384098 -1.51507 0
M  V30 6114 H 583.615 1.88881 -2.63618 0
M  V30 6115 H 583.401 0.61583 -3.87234 0
M  V30 6116 H 584.891 1.60585 -3.8549 0
M  V30 6117 N 585.328 1.53329 -0.364422 0
M  V30 6118 C 586.575 2.01239 0.225634 0
M  V30 6119 C 586.903 1.25172 1.48869 0
M  V30 6120 O 586.158 0.333289 1.92841 0
M  V30 6121 C 586.457 3.52911 0.564661 0
M  V30 6122 C 586.123 4.46837 -0.603936 0
M  V30 6123 C 584.785 4.72234 -0.924585 0
M  V30 6124 C 587.137 5.02409 -1.38691 0
M  V30 6125 C 584.465 5.50454 -2.0302 0
M  V30 6126 C 586.817 5.81836 -2.48293 0
M  V30 6127 C 585.481 6.0552 -2.80894 0
M  V30 6128 H 584.751 0.736386 0.0825654 0
M  V30 6129 H 587.398 1.84948 -0.496645 0
M  V30 6130 H 585.703 3.67144 1.36794 0
M  V30 6131 H 587.4 3.87455 1.03344 0
M  V30 6132 H 583.99 4.27217 -0.343983 0
M  V30 6133 H 588.174 4.82735 -1.15243 0
M  V30 6134 H 583.43 5.67024 -2.28678 0
M  V30 6135 H 587.604 6.23905 -3.0938 0
M  V30 6136 H 585.231 6.65916 -3.66688 0
M  V30 6137 N 586.806 0.0935595 1.57322 0
M  V30 6138 C 588.031 -0.582324 1.99057 0
M  V30 6139 C 588.456 -1.61025 0.972242 0
M  V30 6140 O 587.814 -1.81202 -0.0594622 0
M  V30 6141 C 587.862 -1.20799 3.39765 0
M  V30 6142 O 586.966 -2.32382 3.40694 0
M  V30 6143 H 586.307 -0.147884 0.647323 0
M  V30 6144 H 588.837 0.174516 2.03854 0
M  V30 6145 H 588.847 -1.54966 3.77425 0
M  V30 6146 H 587.522 -0.454914 4.13405 0
M  V30 6147 H 586.099 -1.99845 3.14827 0
M  V30 6148 N 588.284 -1.56567 -0.180126 0
M  V30 6149 C 589.514 -1.85349 -0.912647 0
M  V30 6150 C 589.922 -0.675795 -1.76719 0
M  V30 6151 O 589.265 0.3645 -1.80047 0
M  V30 6152 C 589.327 -3.08431 -1.84691 0
M  V30 6153 C 588.991 -4.41694 -1.17284 0
M  V30 6154 C 589.988 -5.17062 -0.542532 0
M  V30 6155 C 587.673 -4.8843 -1.17223 0
M  V30 6156 C 589.667 -6.37351 0.0793953 0
M  V30 6157 C 587.354 -6.08652 -0.54647 0
M  V30 6158 C 588.352 -6.82955 0.0782458 0
M  V30 6159 O 588.04 -8.00897 0.694158 0
M  V30 6160 H 587.772 -0.619286 -0.271036 0
M  V30 6161 H 590.326 -2.0454 -0.187768 0
M  V30 6162 H 588.556 -2.85163 -2.61188 0
M  V30 6163 H 590.245 -3.23733 -2.44851 0
M  V30 6164 H 591.011 -4.8204 -0.535045 0
M  V30 6165 H 586.89 -4.30542 -1.64788 0
M  V30 6166 H 590.434 -6.95287 0.567612 0
M  V30 6167 H 586.331 -6.4314 -0.55151 0
M  V30 6168 H 587.099 -8.16352 0.592537 0
M  V30 6169 N 589.762 0.448376 -1.51087 0
M  V30 6170 C 590.99 1.22143 -1.66999 0
M  V30 6171 C 591.405 1.85283 -0.362699 0
M  V30 6172 O 590.762 1.70236 0.65772 0
M  V30 6173 C 590.813 2.31357 -2.7777 0
M  V30 6174 O 590.534 1.70801 -4.03434 0
M  V30 6175 C 592.035 3.21836 -3.04855 0
M  V30 6176 H 589.255 0.368558 -0.560719 0
M  V30 6177 H 591.799 0.532618 -1.97442 0
M  V30 6178 H 589.954 2.95973 -2.49958 0
M  V30 6179 H 590.368 2.42895 -4.64868 0
M  V30 6180 H 591.842 3.94627 -3.85971 0
M  V30 6181 H 592.319 3.81949 -2.16821 0
M  V30 6182 H 592.925 2.62933 -3.34285 0
M  V30 6183 N 591.24 1.41047 0.703093 0
M  V30 6184 C 592.651 1.35657 1.28274 0
M  V30 6185 C 593.002 0.0360309 1.96167 0
M  V30 6186 O 592.127 -0.865833 1.98324 0
M  V30 6187 C 592.722 2.45707 2.33267 0
M  V30 6188 C 591.281 2.43738 2.86825 0
M  V30 6189 C 590.428 2.25941 1.60767 0
M  V30 6190 H 593.379 1.50672 0.49836 0
M  V30 6191 H 593.4 2.14333 3.14391 0
M  V30 6192 H 592.912 3.41805 1.83824 0
M  V30 6193 H 591.013 1.51375 3.40465 0
M  V30 6194 H 591.126 3.39779 3.37768 0
M  V30 6195 H 589.49 1.73681 1.86298 0
M  V30 6196 H 590.273 3.24054 1.1333 0
M  V30 6197 N 592.718 -0.936591 1.26751 0
M  V30 6198 C 593.943 -1.72288 1.15462 0
M  V30 6199 C 594.368 -1.85915 -0.285887 0
M  V30 6200 O 593.726 -1.35272 -1.20711 0
M  V30 6201 C 593.774 -3.10503 1.83359 0
M  V30 6202 O 592.878 -3.96745 1.1255 0
M  V30 6203 H 592.219 -0.52843 0.402067 0
M  V30 6204 H 594.749 -1.17271 1.67656 0
M  V30 6205 H 594.759 -3.60867 1.90365 0
M  V30 6206 H 593.434 -2.99901 2.88153 0
M  V30 6207 H 592.011 -3.55191 1.13551 0
M  V30 6208 N 594.196 -1.08629 -1.14182 0
M  V30 6209 C 595.612 -0.814363 -1.3726 0
M  V30 6210 C 595.812 0.575271 -1.93114 0
M  V30 6211 O 594.868 1.33165 -2.1453 0
M  V30 6212 C 596.181 -1.8989 -2.33157 0
M  V30 6213 C 597.729 -1.92518 -2.46791 0
M  V30 6214 C 598.204 -3.00092 -3.45989 0
M  V30 6215 N 599.695 -2.99279 -3.53534 0
M  V30 6216 C 600.43 -3.79158 -4.30147 0
M  V30 6217 N 599.926 -4.68923 -5.09983 0
M  V30 6218 N 601.719 -3.67451 -4.25366 0
M  V30 6219 H 593.87 -1.98232 -0.762758 0
M  V30 6220 H 596.133 -0.860383 -0.398051 0
M  V30 6221 H 595.839 -2.89809 -1.99257 0
M  V30 6222 H 595.713 -1.77013 -3.33086 0
M  V30 6223 H 598.1 -0.932425 -2.79982 0
M  V30 6224 H 598.181 -2.09473 -1.46816 0
M  V30 6225 H 597.825 -3.99575 -3.13532 0
M  V30 6226 H 597.755 -2.80382 -4.45751 0
M  V30 6227 H 600.246 -2.3422 -2.96563 0
M  V30 6228 H 600.559 -5.26475 -5.65724 0
M  V30 6229 H 598.904 -4.72964 -5.09244 0
M  V30 6230 H 602.095 -2.9669 -3.62067 0
M  V30 6231 H 602.268 -4.29944 -4.84822 0
M  V30 6232 N 595.674 1.31259 -0.872281 0
M  V30 6233 C 596.637 2.26744 -0.334656 0
M  V30 6234 C 597.637 1.52307 0.515681 0
M  V30 6235 O 598.827 1.71148 0.324656 0
M  V30 6236 C 595.959 3.36841 0.524482 0
M  V30 6237 H 597.152 2.75812 -1.17762 0
M  V30 6238 H 594.705 1.42232 -0.648064 0
M  V30 6239 H 595.44 2.93069 1.38855 0
M  V30 6240 H 595.225 3.92009 -0.0844299 0
M  V30 6241 H 596.715 4.07944 0.892838 0
M  V30 6242 N 597.152 0.631951 1.44375 0
M  V30 6243 C 598.062 -0.073674 2.34484 0
M  V30 6244 C 599.078 -0.834825 1.52665 0
M  V30 6245 O 600.254 -0.786902 1.85391 0
M  V30 6246 C 597.319 -1.04247 3.30656 0
M  V30 6247 C 596.38 -0.280602 4.28382 0
M  V30 6248 C 595.613 -1.20325 5.19959 0
M  V30 6249 O 595.836 -2.44199 5.15484 0
M  V30 6250 O 594.77 -0.687128 5.97965 0
M  V30 6251 H 598.596 0.667477 2.96274 0
M  V30 6252 H 596.181 0.392144 1.44162 0
M  V30 6253 H 598.063 -1.59981 3.89851 0
M  V30 6254 H 596.738 -1.76422 2.71398 0
M  V30 6255 H 595.645 0.319804 3.72731 0
M  V30 6256 H 596.978 0.401144 4.90563 0
M  V30 6257 N 598.631 -1.53133 0.372548 0
M  V30 6258 C 599.594 -2.24569 -0.458389 0
M  V30 6259 C 600.594 -1.25603 -1.00402 0
M  V30 6260 O 601.784 -1.49827 -0.888672 0
M  V30 6261 C 598.916 -2.98783 -1.6414 0
M  V30 6262 H 600.109 -2.99436 0.166799 0
M  V30 6263 H 597.662 -1.55805 0.124357 0
M  V30 6264 H 598.397 -2.28176 -2.30448 0
M  V30 6265 H 598.182 -3.71404 -1.25704 0
M  V30 6266 H 599.672 -3.53068 -2.23008 0
M  V30 6267 N 600.109 -0.101901 -1.5727 0
M  V30 6268 C 601.386 0.602832 -1.86079 0
M  V30 6269 C 601.766 1.85912 -1 0
M  V30 6270 O 601.114 2.28379 -0.0742488 0
M  V30 6271 C 601.324 0.911694 -3.36881 0
M  V30 6272 C 602.672 1.2722 -4.05093 0
M  V30 6273 O 603.696 1.0025 -3.41802 0
M  V30 6274 O 602.555 1.7776 -5.16782 0
M  V30 6275 H 599.649 0.302366 -0.769743 0
M  V30 6276 H 602.195 -0.135113 -1.69161 0
M  V30 6277 H 600.967 0.0207256 -3.91295 0
M  V30 6278 H 600.59 1.70538 -3.59169 0
M  V30 6279 N 601.587 1.56661 0.17182 0
M  V30 6280 C 602.833 1.82235 0.889845 0
M  V30 6281 C 603.166 0.679673 1.81918 0
M  V30 6282 O 602.441 -0.318404 1.91876 0
M  V30 6283 C 602.724 3.18195 1.68595 0
M  V30 6284 C 602.577 4.42989 0.779773 0
M  V30 6285 C 603.896 3.5109 2.65375 0
M  V30 6286 H 601.015 0.66291 0.322056 0
M  V30 6287 H 603.657 1.89358 0.15608 0
M  V30 6288 H 601.807 3.12253 2.3115 0
M  V30 6289 H 603.479 4.60997 0.16714 0
M  V30 6290 H 601.722 4.33711 0.0877964 0
M  V30 6291 H 602.393 5.3467 1.3723 0
M  V30 6292 H 604.869 3.57482 2.12946 0
M  V30 6293 H 603.745 4.47298 3.18144 0
M  V30 6294 H 604.006 2.75768 3.45549 0
M  V30 6295 N 603.065 -0.440357 1.51323 0
M  V30 6296 C 604.342 -1.20109 1.5438 0
M  V30 6297 C 604.722 -2.08866 0.306303 0
M  V30 6298 O 604.07 -2.1723 -0.708773 0
M  V30 6299 C 604.28 -2.00555 2.8562 0
M  V30 6300 C 605.628 -2.577 3.37455 0
M  V30 6301 O 606.652 -2.10769 2.8715 0
M  V30 6302 O 605.511 -3.43289 4.25224 0
M  V30 6303 H 602.605 -0.546668 0.620551 0
M  V30 6304 H 605.151 -0.449672 1.63634 0
M  V30 6305 H 603.923 -1.35346 3.67147 0
M  V30 6306 H 603.546 -2.82768 2.79514 0
M  V30 6307 N 604.543 -1.41418 -0.695603 0
M  V30 6308 C 605.792 -1.40073 -1.4513 0
M  V30 6309 C 606.105 -0.0130439 -1.95596 0
M  V30 6310 O 607.311 0.123032 -2.71221 0
M  V30 6311 C 605.767 -2.46286 -2.62433 0
M  V30 6312 C 605.375 -3.90962 -2.18753 0
M  V30 6313 C 607.119 -2.54077 -3.40066 0
M  V30 6314 C 605.026 -4.88728 -3.33015 0
M  V30 6315 H 603.956 -0.520903 -0.545138 0
M  V30 6316 H 606.607 -1.67242 -0.75515 0
M  V30 6317 H 604.989 -2.12248 -3.34315 0
M  V30 6318 H 606.163 -4.34248 -1.54161 0
M  V30 6319 H 604.478 -3.86831 -1.54114 0
M  V30 6320 H 607.075 -3.24303 -4.25125 0
M  V30 6321 H 607.418 -1.5776 -3.8525 0
M  V30 6322 H 607.951 -2.87206 -2.75241 0
M  V30 6323 H 604.69 -5.86449 -2.92844 0
M  V30 6324 H 604.21 -4.50091 -3.96457 0
M  V30 6325 H 605.889 -5.09483 -3.98793 0
M  V30 6326 N 606.021 0.929856 -1.27246 0
M  V30 6327 C 607.27 1.67182 -1.12842 0
M  V30 6328 C 607.583 1.9287 0.325666 0
M  V30 6329 O 608.789 2.64999 0.590572 0
M  V30 6330 C 607.245 3.01097 -1.97151 0
M  V30 6331 C 606.853 2.83115 -3.47203 0
M  V30 6332 C 608.597 3.78907 -1.91389 0
M  V30 6333 C 606.504 4.12573 -4.23719 0
M  V30 6334 H 605.434 0.627064 -0.418697 0
M  V30 6335 H 608.085 1.0332 -1.51649 0
M  V30 6336 H 606.467 3.66004 -1.51186 0
M  V30 6337 H 607.641 2.26989 -4.01015 0
M  V30 6338 H 605.956 2.18736 -3.54321 0
M  V30 6339 H 608.553 4.74837 -2.45834 0
M  V30 6340 H 608.896 4.0674 -0.887047 0
M  V30 6341 H 609.429 3.20794 -2.35237 0
M  V30 6342 H 606.168 3.8992 -5.26918 0
M  V30 6343 H 605.688 4.68371 -3.74685 0
M  V30 6344 H 607.367 4.8095 -4.32777 0
M  V30 6345 N 607.499 1.09233 1.13605 0
M  V30 6346 C 608.429 0.751738 2.21068 0
M  V30 6347 C 609.41 -0.269688 1.67948 0
M  V30 6348 O 610.595 -0.13819 1.93708 0
M  V30 6349 C 607.725 0.16935 3.46887 0
M  V30 6350 C 606.679 1.12007 4.13084 0
M  V30 6351 C 606.005 0.399483 5.33206 0
M  V30 6352 C 607.305 2.46168 4.6065 0
M  V30 6353 H 608.999 1.65024 2.49815 0
M  V30 6354 H 606.545 0.794905 1.20072 0
M  V30 6355 H 608.498 -0.0809824 4.21322 0
M  V30 6356 H 607.222 -0.764335 3.1753 0
M  V30 6357 H 605.881 1.35564 3.40614 0
M  V30 6358 H 605.529 -0.538277 5.00112 0
M  V30 6359 H 605.229 1.03337 5.78442 0
M  V30 6360 H 606.753 0.157403 6.10397 0
M  V30 6361 H 608.167 2.26829 5.26518 0
M  V30 6362 H 606.564 3.05326 5.1662 0
M  V30 6363 H 607.634 3.07076 3.75276 0
M  V30 6364 N 608.977 -1.30795 0.87923 0
M  V30 6365 C 610.202 -2.01063 0.508769 0
M  V30 6366 C 610.627 -1.65508 -0.893803 0
M  V30 6367 O 609.985 -0.868616 -1.59138 0
M  V30 6368 C 610.033 -3.54054 0.683991 0
M  V30 6369 O 609.137 -4.11498 -0.272654 0
M  V30 6370 H 608.478 -0.632786 0.201191 0
M  V30 6371 H 611.008 -1.66776 1.18519 0
M  V30 6372 H 611.018 -4.03845 0.580798 0
M  V30 6373 H 609.693 -3.79271 1.70665 0
M  V30 6374 H 608.27 -3.72695 -0.12364 0
M  V30 6375 N 610.455 -0.639598 -1.44038 0
M  V30 6376 C 611.704 -0.144885 -2.01179 0
M  V30 6377 C 612.017 1.24372 -1.50967 0
M  V30 6378 O 613.223 1.83291 -2.00292 0
M  V30 6379 C 611.679 -0.208244 -3.59297 0
M  V30 6380 C 611.287 -1.59869 -4.18504 0
M  V30 6381 C 613.031 0.229568 -4.23879 0
M  V30 6382 C 610.938 -1.61671 -5.68873 0
M  V30 6383 H 609.868 -0.0504005 -0.752314 0
M  V30 6384 H 612.519 -0.799639 -1.65161 0
M  V30 6385 H 610.901 0.513767 -3.92653 0
M  V30 6386 H 612.075 -2.34496 -3.96671 0
M  V30 6387 H 610.39 -1.98131 -3.66242 0
M  V30 6388 H 612.987 0.235758 -5.3418 0
M  V30 6389 H 613.33 1.25848 -3.96822 0
M  V30 6390 H 613.863 -0.440233 -3.95357 0
M  V30 6391 H 610.602 -2.62427 -6.00677 0
M  V30 6392 H 610.122 -0.913489 -5.92803 0
M  V30 6393 H 611.801 -1.35439 -6.32665 0
M  V30 6394 N 611.933 1.52934 -0.380664 0
M  V30 6395 C 613.344 1.86457 0.0952684 0
M  V30 6396 C 613.695 1.3007 1.46889 0
M  V30 6397 O 612.82 0.628636 2.07068 0
M  V30 6398 C 613.415 3.38323 0.179648 0
M  V30 6399 C 611.974 3.71589 0.599858 0
M  V30 6400 C 611.121 2.76228 -0.243572 0
M  V30 6401 H 614.072 1.46966 -0.59888 0
M  V30 6402 H 614.093 3.67113 1.00042 0
M  V30 6403 H 613.605 3.79333 -0.820228 0
M  V30 6404 H 611.706 3.36144 1.60742 0
M  V30 6405 H 611.819 4.77715 0.364003 0
M  V30 6406 H 610.183 2.53045 0.289855 0
M  V30 6407 H 610.966 3.20074 -1.24127 0
M  V30 6408 N 613.412 0.11024 1.57214 0
M  V30 6409 C 614.345 -0.880224 2.1054 0
M  V30 6410 C 615.323 -1.26658 1.01964 0
M  V30 6411 O 616.507 -1.36917 1.29561 0
M  V30 6412 C 613.634 -2.17676 2.59489 0
M  V30 6413 C 612.68 -1.93914 3.79868 0
M  V30 6414 S 613.513 -1.16336 5.2271 0
M  V30 6415 C 614.669 -2.47188 5.75021 0
M  V30 6416 H 614.902 -0.426614 2.94223 0
M  V30 6417 H 612.435 -0.10336 1.54054 0
M  V30 6418 H 614.393 -2.92175 2.88347 0
M  V30 6419 H 613.054 -2.60156 1.76005 0
M  V30 6420 H 612.247 -2.8996 4.12236 0
M  V30 6421 H 611.849 -1.27539 3.51582 0
M  V30 6422 H 614.141 -3.43079 5.84211 0
M  V30 6423 H 615.084 -2.19377 6.7326 0
M  V30 6424 H 615.492 -2.56154 5.03036 0
M  V30 6425 N 614.89 -1.56749 -0.16351 0
M  V30 6426 C 616.137 -1.82434 -0.878866 0
M  V30 6427 C 616.465 -0.688557 -1.81904 0
M  V30 6428 O 615.72 0.323644 -1.93005 0
M  V30 6429 C 616.019 -3.14342 -1.70071 0
M  V30 6430 C 615.685 -4.41647 -0.908775 0
M  V30 6431 C 614.347 -4.76224 -0.690236 0
M  V30 6432 C 616.699 -5.19998 -0.353815 0
M  V30 6433 C 614.027 -5.86624 0.0942374 0
M  V30 6434 C 616.379 -6.3122 0.41761 0
M  V30 6435 C 615.043 -6.64358 0.646879 0
M  V30 6436 H 614.313 -0.667574 -0.3216 0
M  V30 6437 H 616.96 -1.90963 -0.14337 0
M  V30 6438 H 615.265 -3.0119 -2.50583 0
M  V30 6439 H 616.962 -3.31426 -2.25738 0
M  V30 6440 H 613.552 -4.1453 -1.08916 0
M  V30 6441 H 617.736 -4.93673 -0.509975 0
M  V30 6442 H 612.992 -6.10751 0.281529 0
M  V30 6443 H 617.166 -6.91133 0.854849 0
M  V30 6444 H 614.793 -7.49742 1.25662 0
M  V30 6445 N 616.368 0.432326 -1.51554 0
M  V30 6446 C 617.298 1.53242 -1.76179 0
M  V30 6447 C 618.279 1.58717 -0.611801 0
M  V30 6448 O 619.464 1.74364 -0.855033 0
M  V30 6449 C 616.594 2.91278 -1.89141 0
M  V30 6450 C 615.548 3.00663 -3.04608 0
M  V30 6451 C 614.874 4.40728 -3.02759 0
M  V30 6452 C 616.174 2.74281 -4.44485 0
M  V30 6453 H 617.868 1.32886 -2.68294 0
M  V30 6454 H 615.414 0.637841 -1.29103 0
M  V30 6455 H 617.367 3.68203 -2.04951 0
M  V30 6456 H 616.091 3.12877 -0.936785 0
M  V30 6457 H 614.75 2.26179 -2.88511 0
M  V30 6458 H 614.398 4.59301 -2.05065 0
M  V30 6459 H 614.098 4.47936 -3.80299 0
M  V30 6460 H 615.622 5.19619 -3.20669 0
M  V30 6461 H 617.036 3.40936 -4.60907 0
M  V30 6462 H 615.433 2.92893 -5.23769 0
M  V30 6463 H 616.503 1.69856 -4.54177 0
M  V30 6464 N 617.846 1.41785 0.688094 0
M  V30 6465 C 619.262 1.24419 0.999608 0
M  V30 6466 C 619.462 0.138868 2.01021 0
M  V30 6467 O 618.518 -0.494283 2.47615 0
M  V30 6468 C 619.831 2.59625 1.51709 0
M  V30 6469 C 621.379 2.66869 1.63554 0
M  V30 6470 C 621.854 4.0241 2.18702 0
M  V30 6471 N 623.345 4.04295 2.26053 0
M  V30 6472 C 624.08 5.05977 2.69768 0
M  V30 6473 N 623.576 6.18047 3.13033 0
M  V30 6474 N 625.369 4.93336 2.69398 0
M  V30 6475 H 617.52 2.12392 0.0187427 0
M  V30 6476 H 619.783 0.945347 0.0708673 0
M  V30 6477 H 619.489 3.41297 0.849059 0
M  V30 6478 H 619.363 2.82628 2.49803 0
M  V30 6479 H 621.75 1.8555 2.29467 0
M  V30 6480 H 621.831 2.47668 0.639857 0
M  V30 6481 H 621.475 4.8418 1.53402 0
M  V30 6482 H 621.405 4.18955 3.19037 0
M  V30 6483 H 623.896 3.23383 1.9553 0
M  V30 6484 H 624.209 6.91498 3.45038 0
M  V30 6485 H 622.554 6.21572 3.10923 0
M  V30 6486 H 625.745 4.04865 2.34952 0
M  V30 6487 H 625.918 5.72717 3.03148 0
M  V30 6488 N 619.324 -0.923095 1.27737 0
M  V30 6489 C 620.254 -2.04124 1.13383 0
M  V30 6490 C 621.235 -1.70066 0.0340658 0
M  V30 6491 O 622.42 -1.93068 0.209383 0
M  V30 6492 C 619.55 -3.3831 0.785097 0
M  V30 6493 C 618.504 -3.86496 1.8386 0
M  V30 6494 C 617.83 -5.1754 1.34373 0
M  V30 6495 C 619.13 -4.09381 3.24353 0
M  V30 6496 H 620.824 -2.1639 2.06919 0
M  V30 6497 H 618.37 -1.03976 0.996243 0
M  V30 6498 H 620.323 -4.16016 0.671485 0
M  V30 6499 H 619.047 -3.2607 -0.185969 0
M  V30 6500 H 617.706 -3.10987 1.9412 0
M  V30 6501 H 617.354 -5.01696 0.361989 0
M  V30 6502 H 617.054 -5.50751 2.04811 0
M  V30 6503 H 618.578 -5.97811 1.24315 0
M  V30 6504 H 619.992 -4.77641 3.17067 0
M  V30 6505 H 618.389 -4.53906 3.92542 0
M  V30 6506 H 619.459 -3.14515 3.69064 0
M  V30 6507 N 620.802 -1.09834 -1.13024 0
M  V30 6508 C 622.032 -0.857657 -1.87957 0
M  V30 6509 C 622.44 0.595008 -1.796 0
M  V30 6510 O 621.783 1.42158 -1.16347 0
M  V30 6511 C 621.845 -1.21949 -3.38185 0
M  V30 6512 C 621.509 -2.67791 -3.7032 0
M  V30 6513 C 622.506 -3.66036 -3.69207 0
M  V30 6514 C 620.191 -3.04019 -3.99847 0
M  V30 6515 C 622.185 -4.98533 -3.9717 0
M  V30 6516 C 619.872 -4.36706 -4.27471 0
M  V30 6517 C 620.87 -5.33772 -4.26118 0
M  V30 6518 O 620.558 -6.64072 -4.53061 0
M  V30 6519 H 620.29 -0.308009 -0.601753 0
M  V30 6520 H 622.844 -1.46496 -1.43973 0
M  V30 6521 H 621.074 -0.555249 -3.82693 0
M  V30 6522 H 622.763 -0.957281 -3.9445 0
M  V30 6523 H 623.529 -3.39392 -3.46465 0
M  V30 6524 H 619.408 -2.29096 -4.00045 0
M  V30 6525 H 622.952 -5.74288 -3.96029 0
M  V30 6526 H 618.849 -4.63091 -4.49685 0
M  V30 6527 H 619.617 -6.69608 -4.7071 0
M  V30 6528 N 622.28 1.30327 -0.886154 0
M  V30 6529 C 623.21 2.30549 -0.370028 0
M  V30 6530 C 624.191 1.61039 0.547751 0
M  V30 6531 O 625.376 1.8864 0.461353 0
M  V30 6532 C 622.506 3.44808 0.415275 0
M  V30 6533 C 621.46 4.26024 -0.41085 0
M  V30 6534 C 620.786 5.32347 0.501128 0
M  V30 6535 C 622.086 4.95433 -1.65359 0
M  V30 6536 H 623.78 2.73969 -1.20754 0
M  V30 6537 H 621.326 1.3171 -0.582097 0
M  V30 6538 H 623.279 4.13986 0.78699 0
M  V30 6539 H 622.003 3.00197 1.28644 0
M  V30 6540 H 620.662 3.58535 -0.764719 0
M  V30 6541 H 620.31 4.83982 1.37004 0
M  V30 6542 H 620.01 5.87581 -0.0478356 0
M  V30 6543 H 621.534 6.0438 0.869333 0
M  V30 6544 H 622.948 5.5712 -1.35239 0
M  V30 6545 H 621.345 5.60537 -2.14284 0
M  V30 6546 H 622.415 4.21493 -2.39733 0
M  V30 6547 N 623.758 0.647228 1.43697 0
M  V30 6548 C 625.007 0.155552 2.01099 0
M  V30 6549 C 625.32 -1.23569 1.51624 0
M  V30 6550 O 626.526 -1.82226 2.01261 0
M  V30 6551 C 624.982 0.227296 3.59182 0
M  V30 6552 C 624.59 1.62086 4.17651 0
M  V30 6553 C 626.334 -0.207085 4.23995 0
M  V30 6554 C 624.241 1.64685 5.68008 0
M  V30 6555 H 623.171 0.0543895 0.752036 0
M  V30 6556 H 625.822 0.808386 1.64734 0
M  V30 6557 H 624.204 -0.492937 3.9292 0
M  V30 6558 H 625.378 2.36597 3.95422 0
M  V30 6559 H 623.693 2.0007 3.65186 0
M  V30 6560 H 626.29 -0.207426 5.34298 0
M  V30 6561 H 626.633 -1.23742 3.97484 0
M  V30 6562 H 627.166 0.461193 3.95118 0
M  V30 6563 H 623.905 2.65608 5.99277 0
M  V30 6564 H 623.425 0.944914 5.9231 0
M  V30 6565 H 625.104 1.38792 6.31938 0
M  V30 6566 N 625.236 -1.5273 0.388769 0
M  V30 6567 C 626.199 -2.25043 -0.434544 0
M  V30 6568 C 627.199 -1.26661 -0.990644 0
M  V30 6569 O 628.389 -1.50762 -0.872731 0
M  V30 6570 C 625.521 -3.00507 -1.60961 0
M  V30 6571 H 626.714 -2.99242 0.198549 0
M  V30 6572 H 624.267 -1.55664 0.140875 0
M  V30 6573 H 625.002 -2.30607 -2.28015 0
M  V30 6574 H 624.787 -3.72716 -1.21757 0
M  V30 6575 H 626.277 -3.55413 -2.19251 0
M  V30 6576 N 626.714 -0.118576 -1.57153 0
M  V30 6577 C 628.13 0.238014 -1.57815 0
M  V30 6578 C 628.33 1.66747 -1.13127 0
M  V30 6579 O 627.386 2.38867 -0.818462 0
M  V30 6580 C 628.699 0.00508207 -3.007 0
M  V30 6581 C 630.247 0.0710139 -3.12919 0
M  V30 6582 C 630.722 -0.13422 -4.57803 0
M  V30 6583 N 632.213 -0.0801755 -4.63131 0
M  V30 6584 C 632.948 -0.213885 -5.73001 0
M  V30 6585 N 632.444 -0.403742 -6.91623 0
M  V30 6586 N 634.237 -0.15349 -5.6189 0
M  V30 6587 H 626.388 -1.05226 -1.84503 0
M  V30 6588 H 628.651 -0.414318 -0.852669 0
M  V30 6589 H 628.357 -0.983125 -3.3768 0
M  V30 6590 H 628.231 0.73714 -3.69927 0
M  V30 6591 H 630.618 1.04975 -2.75798 0
M  V30 6592 H 630.699 -0.692918 -2.46236 0
M  V30 6593 H 630.343 -1.10992 -4.95624 0
M  V30 6594 H 630.273 0.649692 -5.22577 0
M  V30 6595 H 632.764 0.0630689 -3.77847 0
M  V30 6596 H 633.077 -0.496645 -7.71202 0
M  V30 6597 H 631.422 -0.43971 -6.93608 0
M  V30 6598 H 634.613 -0.00613174 -4.681 0
M  V30 6599 H 634.786 -0.261138 -6.47474 0
M  V30 6600 N 628.193 1.56834 0.155195 0
M  V30 6601 C 629.439 1.83169 0.870467 0
M  V30 6602 C 629.772 0.698929 1.81187 0
M  V30 6603 O 629.047 -0.298035 1.92203 0
M  V30 6604 C 629.33 3.19965 1.65211 0
M  V30 6605 C 629.183 4.43792 0.732744 0
M  V30 6606 C 630.502 3.53885 2.61636 0
M  V30 6607 H 627.621 0.666288 0.315006 0
M  V30 6608 H 630.263 1.89513 0.135988 0
M  V30 6609 H 628.413 3.14687 2.27825 0
M  V30 6610 H 630.085 4.61148 0.118236 0
M  V30 6611 H 628.328 4.3378 0.0417906 0
M  V30 6612 H 628.999 5.36095 1.31552 0
M  V30 6613 H 631.475 3.5972 2.09143 0
M  V30 6614 H 630.351 4.50648 3.13381 0
M  V30 6615 H 630.612 2.79418 3.42605 0
M  V30 6616 N 629.671 -0.424282 1.51781 0
M  V30 6617 C 630.604 -1.53633 1.68737 0
M  V30 6618 C 631.582 -1.53549 0.534915 0
M  V30 6619 O 632.766 -1.72483 0.760391 0
M  V30 6620 C 629.893 -2.92195 1.71288 0
M  V30 6621 C 628.939 -3.10251 2.92654 0
M  V30 6622 S 629.772 -2.85166 4.53256 0
M  V30 6623 C 630.928 -4.25986 4.58571 0
M  V30 6624 H 631.161 -1.39018 2.62795 0
M  V30 6625 H 628.694 -0.614854 1.41629 0
M  V30 6626 H 630.652 -3.72059 1.73443 0
M  V30 6627 H 629.313 -3.04162 0.783847 0
M  V30 6628 H 628.506 -4.1159 2.90877 0
M  V30 6629 H 628.108 -2.38231 2.88308 0
M  V30 6630 H 630.4 -5.19392 4.35015 0
M  V30 6631 H 631.343 -4.32792 5.60444 0
M  V30 6632 H 631.751 -4.1025 3.87757 0
M  V30 6633 N 631.149 -1.42148 -0.680565 0
M  V30 6634 C 632.079 -1.4796 -1.80638 0
M  V30 6635 C 633.06 -0.336728 -1.66734 0
M  V30 6636 O 634.245 -0.550247 -1.86242 0
M  V30 6637 C 631.375 -1.37569 -3.18892 0
M  V30 6638 C 630.329 -2.49823 -3.47524 0
M  V30 6639 C 629.655 -2.24491 -4.85291 0
M  V30 6640 C 630.955 -3.92144 -3.44994 0
M  V30 6641 H 632.649 -2.42184 -1.76032 0
M  V30 6642 H 630.195 -1.16566 -0.845481 0
M  V30 6643 H 632.148 -1.40243 -3.97379 0
M  V30 6644 H 630.872 -0.398357 -3.24162 0
M  V30 6645 H 629.531 -2.46455 -2.71395 0
M  V30 6646 H 629.179 -1.25066 -4.87204 0
M  V30 6647 H 628.879 -2.99722 -5.05411 0
M  V30 6648 H 630.403 -2.28906 -5.66069 0
M  V30 6649 H 631.817 -3.97145 -4.13459 0
M  V30 6650 H 630.214 -4.67179 -3.76648 0
M  V30 6651 H 631.284 -4.19225 -2.43676 0
M  V30 6652 N 632.627 0.916307 -1.28225 0
M  V30 6653 C 633.557 2.0352 -1.14464 0
M  V30 6654 C 634.538 1.70045 -0.0430844 0
M  V30 6655 O 635.723 1.92954 -0.219619 0
M  V30 6656 C 632.853 3.37889 -0.803027 0
M  V30 6657 C 631.807 3.85516 -1.85908 0
M  V30 6658 C 631.133 5.1682 -1.37116 0
M  V30 6659 C 632.433 4.07655 -3.26519 0
M  V30 6660 H 634.127 2.1529 -2.08064 0
M  V30 6661 H 631.673 1.03446 -1.00174 0
M  V30 6662 H 633.626 4.15654 -0.693537 0
M  V30 6663 H 632.35 3.26164 0.168674 0
M  V30 6664 H 631.009 3.09953 -1.95767 0
M  V30 6665 H 630.657 5.01497 -0.38859 0
M  V30 6666 H 630.357 5.49657 -2.07728 0
M  V30 6667 H 631.881 5.97143 -1.27484 0
M  V30 6668 H 633.295 4.75953 -3.19596 0
M  V30 6669 H 631.692 4.51818 -3.94943 0
M  V30 6670 H 632.762 3.12553 -3.70727 0
M  V30 6671 N 634.105 1.10431 1.1244 0
M  V30 6672 C 635.055 0.722378 2.16254 0
M  V30 6673 C 636.039 -0.268427 1.58645 0
M  V30 6674 O 637.231 -0.077169 1.76832 0
M  V30 6675 C 634.36 0.155763 3.42946 0
M  V30 6676 C 633.446 1.17361 4.07538 0
M  V30 6677 N 633.837 2.36429 4.47141 0
M  V30 6678 C 632.135 1.01412 4.34317 0
M  V30 6679 C 632.836 3.01259 4.97612 0
M  V30 6680 N 631.812 2.28777 4.93115 0
M  V30 6681 H 635.614 1.62876 2.4464 0
M  V30 6682 H 633.128 0.982031 1.29344 0
M  V30 6683 H 635.125 -0.135936 4.16678 0
M  V30 6684 H 633.785 -0.745339 3.1603 0
M  V30 6685 H 634.796 2.73954 4.39511 0
M  V30 6686 H 631.473 0.168574 4.1716 0
M  V30 6687 H 632.863 4.02541 5.37968 0
M  V30 6688 N 635.583 -1.29855 0.893053 0
M  V30 6689 C 636.808 -2.00512 0.530066 0
M  V30 6690 C 637.233 -1.66446 -0.876199 0
M  V30 6691 O 636.591 -0.885446 -1.58207 0
M  V30 6692 C 636.639 -3.53308 0.721505 0
M  V30 6693 O 635.743 -4.11764 -0.228994 0
M  V30 6694 H 635.084 -0.630617 0.207891 0
M  V30 6695 H 637.614 -1.6551 1.20282 0
M  V30 6696 H 637.624 -4.03206 0.623599 0
M  V30 6697 H 636.299 -3.77439 1.74678 0
M  V30 6698 H 634.876 -3.72805 -0.0841034 0
M  V30 6699 N 637.061 -0.65484 -1.43351 0
M  V30 6700 C 638.008 0.0357713 -2.30772 0
M  V30 6701 C 638.978 0.813035 -1.44841 0
M  V30 6702 O 640.163 0.789314 -1.73708 0
M  V30 6703 C 637.303 0.995084 -3.30442 0
M  V30 6704 C 636.416 0.21375 -4.31471 0
M  V30 6705 C 635.551 1.16701 -5.18222 0
M  V30 6706 C 634.59 0.376201 -6.10943 0
M  V30 6707 N 633.727 1.28113 -6.90313 0
M  V30 6708 H 638.567 -0.71559 -2.89281 0
M  V30 6709 H 636.104 -0.364645 -1.42509 0
M  V30 6710 H 638.062 1.5649 -3.86739 0
M  V30 6711 H 636.692 1.7133 -2.7358 0
M  V30 6712 H 635.744 -0.472377 -3.77456 0
M  V30 6713 H 637.056 -0.401103 -4.97185 0
M  V30 6714 H 636.21 1.8074 -5.79153 0
M  V30 6715 H 634.949 1.81577 -4.52638 0
M  V30 6716 H 633.954 -0.277534 -5.49099 0
M  V30 6717 H 635.179 -0.268178 -6.7857 0
M  V30 6718 H 633.125 1.91666 -6.27376 0
M  V30 6719 H 633.042 0.720879 -7.52555 0
M  V30 6720 H 634.31 1.90962 -7.55747 0
M  V30 6721 N 638.539 1.52521 -0.396863 0
M  V30 6722 C 639.469 2.29582 0.425941 0
M  V30 6723 C 640.45 1.33281 1.05689 0
M  V30 6724 O 641.635 1.62181 1.06823 0
M  V30 6725 C 638.765 3.10821 1.54943 0
M  V30 6726 C 637.719 4.15069 1.04413 0
M  V30 6727 C 637.045 4.84578 2.26028 0
M  V30 6728 C 638.345 5.22191 0.106767 0
M  V30 6729 H 640.039 2.98612 -0.217045 0
M  V30 6730 H 637.585 1.43611 -0.105826 0
M  V30 6731 H 639.538 3.63492 2.13193 0
M  V30 6732 H 638.262 2.39538 2.22011 0
M  V30 6733 H 636.921 3.63389 0.484118 0
M  V30 6734 H 636.569 4.09835 2.91623 0
M  V30 6735 H 636.269 5.55043 1.92876 0
M  V30 6736 H 637.793 5.40056 2.84906 0
M  V30 6737 H 639.207 5.70176 0.597685 0
M  V30 6738 H 637.604 5.99947 -0.135352 0
M  V30 6739 H 638.674 4.77531 -0.842134 0
M  V30 6740 N 640.017 0.126909 1.57088 0
M  V30 6741 C 641.264 -0.529168 1.95464 0
M  V30 6742 C 641.592 -1.6618 1.01067 0
M  V30 6743 O 640.847 -1.95667 0.0360254 0
M  V30 6744 C 641.146 -1.095 3.40212 0
M  V30 6745 C 640.812 -0.0829015 4.50824 0
M  V30 6746 C 639.474 0.195377 4.80803 0
M  V30 6747 C 641.826 0.606411 5.1766 0
M  V30 6748 C 639.154 1.16912 5.74933 0
M  V30 6749 C 641.506 1.56884 6.12838 0
M  V30 6750 C 640.17 1.85502 6.41206 0
M  V30 6751 H 639.44 -0.193636 0.715252 0
M  V30 6752 H 642.087 0.209489 1.90351 0
M  V30 6753 H 640.392 -1.91058 3.42059 0
M  V30 6754 H 642.089 -1.61087 3.67222 0
M  V30 6755 H 638.679 -0.309979 4.27478 0
M  V30 6756 H 642.863 0.404597 4.94648 0
M  V30 6757 H 638.119 1.3975 5.95214 0
M  V30 6758 H 642.293 2.10859 6.6371 0
M  V30 6759 H 639.92 2.61109 7.13951 0
M  V30 6760 N 641.495 -1.56914 -0.146875 0
M  V30 6761 C 642.723 -1.87515 -0.874394 0
M  V30 6762 C 643.138 -0.715116 -1.74733 0
M  V30 6763 O 642.495 0.315113 -1.79759 0
M  V30 6764 C 642.546 -3.17362 -1.731 0
M  V30 6765 O 642.267 -4.28897 -0.893245 0
M  V30 6766 C 643.768 -3.61479 -2.56609 0
M  V30 6767 H 640.988 -0.621546 -0.252827 0
M  V30 6768 H 643.532 -2.04023 -0.139627 0
M  V30 6769 H 641.687 -3.02608 -2.41883 0
M  V30 6770 H 642.101 -5.03146 -1.48137 0
M  V30 6771 H 643.575 -4.5517 -3.12289 0
M  V30 6772 H 644.052 -2.86773 -3.32653 0
M  V30 6773 H 644.658 -3.78927 -1.93117 0
M  V30 6774 N 642.974 0.416227 -1.52004 0
M  V30 6775 C 644.251 1.17637 -1.56272 0
M  V30 6776 C 644.631 2.08352 -0.339493 0
M  V30 6777 O 643.979 2.1833 0.674124 0
M  V30 6778 C 644.189 1.95986 -2.88774 0
M  V30 6779 C 645.537 2.52299 -3.41512 0
M  V30 6780 O 646.561 2.06174 -2.90467 0
M  V30 6781 O 645.42 3.3648 -4.30631 0
M  V30 6782 H 642.514 0.536726 -0.629169 0
M  V30 6783 H 645.06 0.423583 -1.64329 0
M  V30 6784 H 643.832 1.29487 -3.69254 0
M  V30 6785 H 643.455 2.78285 -2.83978 0
M  V30 6786 N 644.452 1.42507 0.673017 0
M  V30 6787 C 645.415 1.4582 1.76831 0
M  V30 6788 C 646.415 0.345542 1.57043 0
M  V30 6789 O 647.605 0.606447 1.63303 0
M  V30 6790 C 644.737 1.29158 3.15485 0
M  V30 6791 H 645.93 2.43345 1.7528 0
M  V30 6792 H 643.483 1.28981 0.882817 0
M  V30 6793 H 644.218 0.325626 3.22661 0
M  V30 6794 H 644.003 2.09797 3.31252 0
M  V30 6795 H 645.493 1.34363 3.95394 0
M  V30 6796 N 645.93 -0.909495 1.28709 0
M  V30 6797 C 647.155 -1.69801 1.1909 0
M  V30 6798 C 647.58 -1.86479 -0.246388 0
M  V30 6799 O 646.938 -1.37802 -1.17815 0
M  V30 6800 C 646.986 -3.06543 1.89904 0
M  V30 6801 O 646.09 -3.94268 1.2094 0
M  V30 6802 H 645.431 -0.519783 0.413185 0
M  V30 6803 H 647.961 -1.13689 1.70106 0
M  V30 6804 H 647.971 -3.56748 1.97977 0
M  V30 6805 H 646.646 -2.93722 2.94449 0
M  V30 6806 H 645.223 -3.52702 1.2106 0
M  V30 6807 N 647.408 -1.11026 -1.11852 0
M  V30 6808 C 648.633 -0.879064 -1.87849 0
M  V30 6809 C 649.058 0.565406 -1.79401 0
M  V30 6810 O 648.416 1.39886 -1.15333 0
M  V30 6811 C 648.464 -1.33985 -3.34784 0
M  V30 6812 O 647.568 -0.508803 -4.09249 0
M  V30 6813 H 646.909 -0.316992 -0.583448 0
M  V30 6814 H 649.439 -1.47863 -1.41413 0
M  V30 6815 H 649.449 -1.33248 -3.85628 0
M  V30 6816 H 648.124 -2.39172 -3.40249 0
M  V30 6817 H 646.701 -0.581913 -3.68332 0
M  V30 6818 N 648.886 1.2938 -0.899927 0
M  V30 6819 C 650.302 1.48052 -0.596059 0
M  V30 6820 C 650.502 1.82114 0.862372 0
M  V30 6821 O 649.558 1.91774 1.64253 0
M  V30 6822 C 650.871 2.59332 -1.52208 0
M  V30 6823 C 652.419 2.73208 -1.5273 0
M  V30 6824 C 652.894 3.87617 -2.43961 0
M  V30 6825 N 654.385 3.9495 -2.42009 0
M  V30 6826 C 655.12 4.82824 -3.09303 0
M  V30 6827 N 654.616 5.75387 -3.85877 0
M  V30 6828 N 656.409 4.76317 -2.98459 0
M  V30 6829 H 648.56 1.05546 -1.8432 0
M  V30 6830 H 650.823 0.524314 -0.78981 0
M  V30 6831 H 650.529 2.41029 -2.56121 0
M  V30 6832 H 650.403 3.56139 -1.24278 0
M  V30 6833 H 652.79 2.90908 -0.495614 0
M  V30 6834 H 652.871 1.76975 -1.84698 0
M  V30 6835 H 652.515 3.70672 -3.47224 0
M  V30 6836 H 652.445 4.83218 -2.09303 0
M  V30 6837 H 654.936 3.28744 -1.86375 0
M  V30 6838 H 655.249 6.39235 -4.34279 0
M  V30 6839 H 653.594 5.75272 -3.89984 0
M  V30 6840 H 656.785 4.0299 -2.38152 0
M  V30 6841 H 656.958 5.44589 -3.51179 0
M  V30 6842 N 650.364 0.662433 1.43002 0
M  V30 6843 C 651.589 0.186003 2.06564 0
M  V30 6844 C 652.014 -1.14314 1.49379 0
M  V30 6845 O 651.372 -1.70824 0.607346 0
M  V30 6846 C 651.42 0.118269 3.60406 0
M  V30 6847 O 650.524 -0.916859 4.02079 0
M  V30 6848 H 649.865 0.0990981 0.656563 0
M  V30 6849 H 652.395 0.907958 1.8335 0
M  V30 6850 H 652.405 -0.0619981 4.07953 0
M  V30 6851 H 651.08 1.08849 4.01403 0
M  V30 6852 H 649.657 -0.708635 3.66105 0
M  V30 6853 N 651.842 -1.52309 0.404946 0
M  V30 6854 C 653.091 -2.00952 -0.173529 0
M  V30 6855 C 653.404 -1.29512 -1.46581 0
M  V30 6856 O 654.61 -1.6895 -2.12528 0
M  V30 6857 C 653.066 -3.58097 -0.359801 0
M  V30 6858 C 652.674 -4.38449 0.920138 0
M  V30 6859 C 654.418 -4.14984 -0.893794 0
M  V30 6860 C 652.325 -5.87227 0.701285 0
M  V30 6861 H 651.255 -0.750871 -0.0686244 0
M  V30 6862 H 653.906 -1.75687 0.529749 0
M  V30 6863 H 652.288 -3.79675 -1.12531 0
M  V30 6864 H 653.462 -4.28633 1.69147 0
M  V30 6865 H 651.777 -3.92859 1.38024 0
M  V30 6866 H 654.374 -5.23813 -1.0735 0
M  V30 6867 H 654.717 -3.72072 -1.8673 0
M  V30 6868 H 655.25 -3.97358 -0.187453 0
M  V30 6869 H 651.989 -6.34491 1.64624 0
M  V30 6870 H 651.509 -5.99792 -0.0308288 0
M  V30 6871 H 653.188 -6.46096 0.341846 0
M  V30 6872 N 653.32 -0.135238 -1.57019 0
M  V30 6873 C 654.568 0.51777 -1.95355 0
M  V30 6874 C 654.889 1.6617 -1.02042 0
M  V30 6875 O 654.159 1.95738 -0.0797343 0
M  V30 6876 H 652.739 0.194264 -0.721298 0
M  V30 6877 H 655.401 -0.207983 -1.93787 0
M  V30 6878 H 654.497 0.901675 -2.98791 0
M  V30 6879 N 654.798 1.5699 0.138552 0
M  V30 6880 C 655.761 1.97984 1.15478 0
M  V30 6881 C 656.761 0.867416 1.35398 0
M  V30 6882 O 657.951 1.13387 1.32246 0
M  V30 6883 C 655.083 2.3031 2.51337 0
M  V30 6884 H 656.276 2.88953 0.802896 0
M  V30 6885 H 653.829 1.51555 0.382189 0
M  V30 6886 H 654.564 1.42159 2.91481 0
M  V30 6887 H 654.349 3.11425 2.38237 0
M  V30 6888 H 655.839 2.62834 3.24512 0
M  V30 6889 N 656.276 -0.40816 1.52223 0
M  V30 6890 C 657.206 -1.5042 1.78595 0
M  V30 6891 C 658.187 -1.57723 0.636974 0
M  V30 6892 O 659.372 -1.72982 0.882664 0
M  V30 6893 C 656.502 -2.88232 1.93751 0
M  V30 6894 C 655.456 -2.95779 3.09352 0
M  V30 6895 C 654.782 -4.35855 3.09732 0
M  V30 6896 C 656.082 -2.67175 4.48793 0
M  V30 6897 H 657.776 -1.28601 2.70374 0
M  V30 6898 H 655.322 -0.617221 1.30101 0
M  V30 6899 H 657.275 -3.64895 2.10783 0
M  V30 6900 H 655.999 -3.11347 0.986443 0
M  V30 6901 H 654.658 -2.21561 2.92072 0
M  V30 6902 H 654.306 -4.55981 2.12346 0
M  V30 6903 H 654.006 -4.41829 3.87377 0
M  V30 6904 H 655.53 -5.14451 3.28895 0
M  V30 6905 H 656.944 -3.3356 4.66273 0
M  V30 6906 H 655.341 -2.84523 5.28362 0
M  V30 6907 H 656.411 -1.62609 4.56822 0
M  V30 6908 N 657.755 -1.42862 -0.66545 0
M  V30 6909 C 658.703 -1.47319 -1.8 0
M  V30 6910 C 659.697 -0.347963 -1.65788 0
M  V30 6911 O 660.903 -0.521406 -1.72283 0
M  V30 6912 H 657.278 -0.461588 -0.593667 0
M  V30 6913 H 659.249 -2.42876 -1.7336 0
M  V30 6914 C 657.998 -1.40152 -3.18203 0
M  V30 6915 H 657.321 -2.26035 -3.2977 0
M  V30 6916 H 658.761 -1.47331 -3.9758 0
M  V30 6917 C 657.22 -0.117493 -3.36695 0
M  V30 6918 O 657.75 0.826058 -3.93115 0
M  V30 6919 N 655.956 -0.0316218 -2.90583 0
M  V30 6920 H 655.503 -0.800247 -2.44855 0
M  V30 6921 H 655.461 0.826835 -3.03333 0
M  V30 6922 N 659.233 0.902656 -1.29189 0
M  V30 6923 C 660.18 2.00643 -1.14066 0
M  V30 6924 C 661.15 1.66064 -0.0347756 0
M  V30 6925 O 662.335 1.8973 -0.201752 0
M  V30 6926 C 659.475 3.35214 -0.820104 0
M  V30 6927 C 658.588 3.82594 -2.00614 0
M  V30 6928 C 657.723 5.05727 -1.62522 0
M  V30 6929 C 656.762 5.45469 -2.77724 0
M  V30 6930 N 655.899 6.59789 -2.40048 0
M  V30 6931 H 660.739 2.1291 -2.08502 0
M  V30 6932 H 658.276 1.04271 -1.03759 0
M  V30 6933 H 660.234 4.12643 -0.614949 0
M  V30 6934 H 658.864 3.22682 0.0873452 0
M  V30 6935 H 657.916 3.01226 -2.32308 0
M  V30 6936 H 659.228 4.07999 -2.86946 0
M  V30 6937 H 658.382 5.90732 -1.38277 0
M  V30 6938 H 657.121 4.82155 -0.733333 0
M  V30 6939 H 656.126 4.59 -3.02653 0
M  V30 6940 H 657.351 5.71024 -3.67572 0
M  V30 6941 H 655.297 6.37826 -1.53343 0
M  V30 6942 H 655.214 6.84975 -3.19914 0
M  V30 6943 H 656.482 7.4807 -2.19116 0
M  V30 6944 N 660.711 1.11618 1.11262 0
M  V30 6945 C 661.96 0.860934 1.82403 0
M  V30 6946 C 662.273 -0.615303 1.8567 0
M  V30 6947 O 663.479 -0.986861 2.52929 0
M  V30 6948 C 661.935 1.49048 3.27586 0
M  V30 6949 C 661.543 3.00089 3.32642 0
M  V30 6950 C 663.287 1.31515 4.03614 0
M  V30 6951 C 661.194 3.56019 4.72234 0
M  V30 6952 H 660.124 0.318423 0.683464 0
M  V30 6953 H 662.775 1.34165 1.25188 0
M  V30 6954 H 661.157 0.937434 3.84744 0
M  V30 6955 H 662.331 3.61813 2.85356 0
M  V30 6956 H 660.646 3.16919 2.70096 0
M  V30 6957 H 663.243 1.70732 5.0671 0
M  V30 6958 H 663.586 0.257917 4.155 0
M  V30 6959 H 664.119 1.83694 3.52848 0
M  V30 6960 H 660.858 4.61463 4.65545 0
M  V30 6961 H 660.378 2.99066 5.19923 0
M  V30 6962 H 662.057 3.54568 5.41193 0
M  V30 6963 N 662.189 -1.289 0.906776 0
M  V30 6964 C 663.137 -2.29477 0.379873 0
M  V30 6965 C 664.131 -1.61068 -0.524747 0
M  V30 6966 O 665.337 -1.75344 -0.406765 0
M  V30 6967 H 661.712 -0.744742 0.10423 0
M  V30 6968 H 663.683 -2.71353 1.24137 0
M  V30 6969 C 662.432 -3.45713 -0.371154 0
M  V30 6970 H 661.755 -3.98551 0.315716 0
M  V30 6971 H 663.195 -4.18105 -0.704581 0
M  V30 6972 C 661.654 -2.9774 -1.57646 0
M  V30 6973 O 662.184 -2.99618 -2.67567 0
M  V30 6974 N 660.39 -2.53485 -1.42105 0
M  V30 6975 H 659.937 -2.52156 -0.526783 0
M  V30 6976 H 659.895 -2.21747 -2.22881 0
M  V30 6977 N 663.667 -0.670007 -1.42649 0
M  V30 6978 C 664.914 -0.190286 -2.01604 0
M  V30 6979 C 665.242 1.20155 -1.52948 0
M  V30 6980 O 664.497 1.81964 -0.72026 0
M  V30 6981 C 664.796 -0.168298 -3.57004 0
M  V30 6982 C 664.462 -1.50415 -4.25072 0
M  V30 6983 C 663.124 -1.86992 -4.43382 0
M  V30 6984 C 665.476 -2.38414 -4.63474 0
M  V30 6985 C 662.804 -3.11203 -4.97363 0
M  V30 6986 C 665.156 -3.61933 -5.18833 0
M  V30 6987 C 663.82 -3.98685 -5.35356 0
M  V30 6988 H 663.09 -0.0696305 -0.737721 0
M  V30 6989 H 665.737 -0.864044 -1.70899 0
M  V30 6990 H 664.042 0.588958 -3.87348 0
M  V30 6991 H 665.739 0.22001 -4.00396 0
M  V30 6992 H 662.329 -1.20959 -4.11177 0
M  V30 6993 H 666.513 -2.11442 -4.49006 0
M  V30 6994 H 661.769 -3.39705 -5.08341 0
M  V30 6995 H 665.943 -4.30326 -5.47533 0
M  V30 6996 H 663.57 -4.95009 -5.76949 0
M  V30 6997 N 665.145 1.52092 -0.413018 0
M  V30 6998 C 666.093 2.28681 0.425199 0
M  V30 6999 C 667.087 1.3353 1.04241 0
M  V30 7000 O 668.293 1.50973 0.980166 0
M  V30 7001 H 664.668 0.735661 0.155906 0
M  V30 7002 H 666.639 2.97418 -0.241926 0
M  V30 7003 C 665.388 3.1235 1.5275 0
M  V30 7004 H 664.711 3.85439 1.06191 0
M  V30 7005 H 666.151 3.69038 2.08774 0
M  V30 7006 C 664.61 2.26161 2.49706 0
M  V30 7007 O 665.14 1.90452 3.53682 0
M  V30 7008 N 663.346 1.89854 2.20008 0
M  V30 7009 H 662.893 2.19092 1.35486 0
M  V30 7010 H 662.851 1.3248 2.85125 0
M  V30 7011 N 666.623 0.143563 1.56945 0
M  V30 7012 C 667.851 -0.515447 2.00377 0
M  V30 7013 C 668.266 -1.58643 1.02361 0
M  V30 7014 O 667.623 -1.82489 0.0201039 0
M  V30 7015 C 667.674 -1.11923 3.43737 0
M  V30 7016 O 667.395 -0.0910318 4.38005 0
M  V30 7017 C 668.896 -1.85918 4.02429 0
M  V30 7018 H 666.116 -0.134478 0.657386 0
M  V30 7019 H 668.66 0.237135 2.0312 0
M  V30 7020 H 666.815 -1.82245 3.41856 0
M  V30 7021 H 667.229 -0.532916 5.21786 0
M  V30 7022 H 668.703 -2.2346 5.04747 0
M  V30 7023 H 669.18 -2.7438 3.42947 0
M  V30 7024 H 669.786 -1.20303 4.07931 0
M  V30 7025 N 668.101 -1.57061 -0.130224 0
M  V30 7026 C 669.517 -1.52103 -0.483413 0
M  V30 7027 C 669.717 -0.854752 -1.82473 0
M  V30 7028 O 668.773 -0.432342 -2.48771 0
M  V30 7029 C 670.086 -2.96872 -0.47825 0
M  V30 7030 C 671.634 -3.07902 -0.562592 0
M  V30 7031 C 672.109 -4.54211 -0.587929 0
M  V30 7032 N 673.6 -4.58621 -0.649684 0
M  V30 7033 C 674.335 -5.69227 -0.690551 0
M  V30 7034 N 673.831 -6.89358 -0.689743 0
M  V30 7035 N 675.624 -5.57304 -0.732708 0
M  V30 7036 H 667.775 -1.98764 0.748779 0
M  V30 7037 H 670.038 -0.907248 0.274965 0
M  V30 7038 H 669.744 -3.48944 0.439444 0
M  V30 7039 H 669.618 -3.53716 -1.31013 0
M  V30 7040 H 672.005 -2.5584 -1.47071 0
M  V30 7041 H 672.086 -2.54073 0.296764 0
M  V30 7042 H 671.73 -5.06915 0.316096 0
M  V30 7043 H 671.66 -5.0584 -1.46401 0
M  V30 7044 H 674.151 -3.72146 -0.656927 0
M  V30 7045 H 674.464 -7.69408 -0.723239 0
M  V30 7046 H 672.809 -6.91884 -0.657347 0
M  V30 7047 H 676 -4.62363 -0.730625 0
M  V30 7048 H 676.173 -6.43515 -0.76109 0
M  V30 7049 N 669.579 0.400081 -1.52437 0
M  V30 7050 C 670.826 1.14619 -1.6694 0
M  V30 7051 C 671.154 1.90262 -0.403797 0
M  V30 7052 O 670.409 1.85835 0.61351 0
M  V30 7053 C 670.708 2.15914 -2.84808 0
M  V30 7054 C 670.374 1.57011 -4.2268 0
M  V30 7055 C 669.036 1.40672 -4.60179 0
M  V30 7056 C 671.388 1.14081 -5.08562 0
M  V30 7057 C 668.716 0.799335 -5.81229 0
M  V30 7058 C 671.068 0.547573 -6.30226 0
M  V30 7059 C 669.732 0.371389 -6.66466 0
M  V30 7060 H 669.002 0.419419 -0.610875 0
M  V30 7061 H 671.649 0.432227 -1.86558 0
M  V30 7062 H 669.954 2.93488 -2.59561 0
M  V30 7063 H 671.651 2.73533 -2.93225 0
M  V30 7064 H 668.241 1.70713 -3.93135 0
M  V30 7065 H 672.425 1.2551 -4.80168 0
M  V30 7066 H 667.681 0.65093 -6.07925 0
M  V30 7067 H 671.855 0.206575 -6.96094 0
M  V30 7068 H 669.482 -0.10135 -7.60132 0
M  V30 7069 N 671.057 1.43213 0.657864 0
M  V30 7070 C 672.303 1.44798 1.41991 0
M  V30 7071 C 672.636 0.070256 1.94073 0
M  V30 7072 O 671.911 -0.908177 1.71995 0
M  V30 7073 C 672.194 2.4865 2.60471 0
M  V30 7074 C 672.047 3.95679 2.13911 0
M  V30 7075 C 673.366 2.49292 3.62686 0
M  V30 7076 H 670.485 0.527244 0.514959 0
M  V30 7077 H 673.127 1.74733 0.74621 0
M  V30 7078 H 671.277 2.23254 3.17946 0
M  V30 7079 H 672.949 4.32116 1.61472 0
M  V30 7080 H 671.192 4.08733 1.45325 0
M  V30 7081 H 671.863 4.6395 2.99089 0
M  V30 7082 H 674.339 2.71917 3.14961 0
M  V30 7083 H 673.215 3.23907 4.43143 0
M  V30 7084 H 673.476 1.52502 4.14964 0
M  V30 7085 N 672.536 -0.895792 1.29666 0
M  V30 7086 C 673.469 -2.00238 1.09453 0
M  V30 7087 C 674.447 -1.62599 0.00527044 0
M  V30 7088 O 675.631 -1.87847 0.156729 0
M  V30 7089 C 672.758 -3.32066 0.667054 0
M  V30 7090 C 671.804 -3.88691 1.7556 0
M  V30 7091 S 672.637 -4.17317 3.35569 0
M  V30 7092 C 673.793 -5.52181 2.94698 0
M  V30 7093 H 674.026 -2.17076 2.03138 0
M  V30 7094 H 671.559 -1.04287 1.13858 0
M  V30 7095 H 673.517 -4.08272 0.427136 0
M  V30 7096 H 672.178 -3.13101 -0.250256 0
M  V30 7097 H 671.371 -4.83918 1.40853 0
M  V30 7098 H 670.973 -3.19187 1.94924 0
M  V30 7099 H 673.265 -6.3281 2.41986 0
M  V30 7100 H 674.208 -5.91817 3.88791 0
M  V30 7101 H 674.616 -5.14225 2.32879 0
M  V30 7102 N 674.014 -1.12206 -1.10668 0
M  V30 7103 C 674.961 -0.787716 -2.16942 0
M  V30 7104 C 675.931 0.244442 -1.64291 0
M  V30 7105 O 677.116 0.119558 -1.90425 0
M  V30 7106 C 674.256 -0.24584 -3.44223 0
M  V30 7107 C 673.369 -1.33552 -4.10838 0
M  V30 7108 C 672.504 -0.753337 -5.25831 0
M  V30 7109 C 671.543 -1.82231 -5.84344 0
M  V30 7110 N 670.68 -1.25902 -6.90719 0
M  V30 7111 H 675.52 -1.69809 -2.44885 0
M  V30 7112 H 673.057 -0.847862 -1.20207 0
M  V30 7113 H 675.015 0.0863639 -4.17111 0
M  V30 7114 H 673.645 0.627702 -3.16638 0
M  V30 7115 H 672.697 -1.78454 -3.35944 0
M  V30 7116 H 674.009 -2.14396 -4.50373 0
M  V30 7117 H 673.163 -0.37166 -6.05561 0
M  V30 7118 H 671.902 0.0863297 -4.87624 0
M  V30 7119 H 670.907 -2.2132 -5.03287 0
M  V30 7120 H 672.132 -2.66515 -6.24617 0
M  V30 7121 H 670.078 -0.44114 -6.54515 0
M  V30 7122 H 669.995 -2.00408 -7.28953 0
M  V30 7123 H 671.263 -0.904498 -7.74235 0
M  V30 7124 N 675.492 1.28418 -0.913599 0
M  V30 7125 C 676.72 1.99106 -0.562536 0
M  V30 7126 C 677.135 1.68273 0.856137 0
M  V30 7127 O 676.492 0.935401 1.56705 0
M  V30 7128 C 676.543 3.5338 -0.761903 0
M  V30 7129 O 676.264 3.83127 -2.12475 0
M  V30 7130 C 677.765 4.41328 -0.417651 0
M  V30 7131 H 674.985 0.635798 -0.214481 0
M  V30 7132 H 677.529 1.63618 -1.22676 0
M  V30 7133 H 675.684 3.8713 -0.144676 0
M  V30 7134 H 676.098 4.77763 -2.16431 0
M  V30 7135 H 677.572 5.48642 -0.607919 0
M  V30 7136 H 678.049 4.34422 0.646108 0
M  V30 7137 H 678.655 4.13074 -1.01241 0
M  V30 7138 N 676.97 0.677563 1.42291 0
M  V30 7139 C 677.9 0.014968 2.33495 0
M  V30 7140 C 678.881 -0.786376 1.50831 0
M  V30 7141 O 680.066 -0.742975 1.79426 0
M  V30 7142 C 677.196 -0.935023 3.34477 0
M  V30 7143 C 676.15 -0.242074 4.27315 0
M  V30 7144 C 675.476 -1.30519 5.18526 0
M  V30 7145 C 676.776 0.880604 5.14823 0
M  V30 7146 H 678.47 0.776671 2.89151 0
M  V30 7147 H 676.016 0.37494 1.39033 0
M  V30 7148 H 677.969 -1.40766 3.97194 0
M  V30 7149 H 676.693 -1.72818 2.77131 0
M  V30 7150 H 675.352 0.210351 3.65996 0
M  V30 7151 H 675 -2.09041 4.57505 0
M  V30 7152 H 674.7 -0.846652 5.81468 0
M  V30 7153 H 676.224 -1.7787 5.84119 0
M  V30 7154 H 677.638 0.489062 5.7121 0
M  V30 7155 H 676.035 1.26511 5.86613 0
M  V30 7156 H 677.105 1.72818 4.53059 0
M  V30 7157 N 678.448 -1.51871 0.421078 0
M  V30 7158 C 679.381 -2.23851 -0.443369 0
M  V30 7159 C 680.359 -1.25142 -1.03818 0
M  V30 7160 O 681.543 -1.5423 -1.08377 0
M  V30 7161 C 678.67 -2.97637 -1.61648 0
M  V30 7162 C 677.716 -4.10873 -1.14391 0
M  V30 7163 S 678.549 -5.35408 -0.0992403 0
M  V30 7164 C 679.705 -6.12726 -1.27739 0
M  V30 7165 H 679.938 -2.96826 0.167786 0
M  V30 7166 H 677.471 -1.53027 0.205461 0
M  V30 7167 H 679.429 -3.40751 -2.28909 0
M  V30 7168 H 678.09 -2.24282 -2.199 0
M  V30 7169 H 677.283 -4.61718 -2.02069 0
M  V30 7170 H 676.885 -3.69937 -0.549775 0
M  V30 7171 H 679.177 -6.40827 -2.19881 0
M  V30 7172 H 680.12 -7.03461 -0.809239 0
M  V30 7173 H 680.528 -5.43968 -1.5086 0
M  V30 7174 N 679.926 -0.151884 -1.56866 0
M  V30 7175 C 681.154 0.504813 -2.00647 0
M  V30 7176 C 681.569 1.58098 -1.03201 0
M  V30 7177 O 680.926 1.82476 -0.0297814 0
M  V30 7178 C 680.977 1.10099 -3.44326 0
M  V30 7179 O 680.698 0.0678021 -4.38048 0
M  V30 7180 C 682.199 1.83782 -4.03409 0
M  V30 7181 H 679.419 0.130989 -0.65809 0
M  V30 7182 H 681.963 -0.247903 -2.02992 0
M  V30 7183 H 680.118 1.8043 -3.42817 0
M  V30 7184 H 680.532 0.505237 -5.22061 0
M  V30 7185 H 682.006 2.2078 -5.05925 0
M  V30 7186 H 682.483 2.72557 -3.44397 0
M  V30 7187 H 683.089 1.18138 -4.08563 0
M  V30 7188 N 681.404 1.57128 0.121893 0
M  V30 7189 C 682.653 1.83888 0.828748 0
M  V30 7190 C 682.966 0.737087 1.81181 0
M  V30 7191 O 684.172 0.891007 2.56463 0
M  V30 7192 C 682.628 3.26014 1.52455 0
M  V30 7193 C 682.236 4.44195 0.58263 0
M  V30 7194 C 683.98 3.62025 2.21671 0
M  V30 7195 C 681.887 5.77349 1.28149 0
M  V30 7196 H 680.817 0.685856 0.313238 0
M  V30 7197 H 683.468 1.83319 0.0814851 0
M  V30 7198 H 681.85 3.21044 2.31834 0
M  V30 7199 H 683.024 4.60457 -0.177729 0
M  V30 7200 H 681.339 4.164 -0.00241228 0
M  V30 7201 H 683.936 4.58776 2.74643 0
M  V30 7202 H 684.279 2.89315 2.99337 0
M  V30 7203 H 684.812 3.68767 1.49184 0
M  V30 7204 H 681.551 6.53221 0.546189 0
M  V30 7205 H 681.071 5.64978 2.01394 0
M  V30 7206 H 682.75 6.21006 1.81549 0
M  V30 7207 N 682.882 -0.391992 1.52647 0
M  V30 7208 C 684.122 -1.1463 1.69232 0
M  V30 7209 C 684.486 -1.87312 0.421684 0
M  V30 7210 O 685.687 -2.64768 0.463852 0
M  V30 7211 C 683.958 -2.10088 2.89133 0
M  V30 7212 S 685.517 -2.93395 3.2629 0
M  V30 7213 H 682.335 -0.388076 0.59575 0
M  V30 7214 H 684.937 -0.431149 1.90687 0
M  V30 7215 H 683.641 -1.55408 3.79837 0
M  V30 7216 H 683.172 -2.86116 2.70003 0
M  V30 7217 H 685.187 -4.12193 2.76244 0
M  V30 7218 N 684.36 -1.4356 -0.65026 0
M  V30 7219 C 685.771 -1.40324 -1.2315 0
M  V30 7220 C 686.122 -0.108812 -1.95898 0
M  V30 7221 O 685.247 0.79163 -2.01401 0
M  V30 7222 C 685.842 -2.54195 -2.23987 0
M  V30 7223 C 684.401 -2.54215 -2.77582 0
M  V30 7224 C 683.548 -2.31752 -1.5227 0
M  V30 7225 H 686.499 -1.52418 -0.442095 0
M  V30 7226 H 686.52 -2.25854 -3.0622 0
M  V30 7227 H 686.032 -3.48392 -1.71011 0
M  V30 7228 H 684.133 -1.63907 -3.34612 0
M  V30 7229 H 684.246 -3.52081 -3.24925 0
M  V30 7230 H 682.61 -1.80476 -1.79723 0
M  V30 7231 H 683.393 -3.28037 -1.01225 0
M  V30 7232 N 685.838 0.888903 -1.30139 0
M  V30 7233 C 687.086 1.63713 -1.18501 0
M  V30 7234 C 687.407 1.9324 0.261399 0
M  V30 7235 O 686.677 1.56608 1.17689 0
M  V30 7236 H 685.257 0.606861 -0.435579 0
M  V30 7237 H 687.919 1.06525 -1.63213 0
M  V30 7238 H 687.015 2.58894 -1.743 0
M  V30 7239 N 687.317 1.12792 1.10072 0
M  V30 7240 C 688.545 0.908506 1.85886 0
M  V30 7241 C 688.96 -0.542408 1.80841 0
M  V30 7242 O 688.317 -1.37517 1.1998 0
M  V30 7243 C 688.368 1.37973 3.34134 0
M  V30 7244 O 688.089 2.77378 3.39106 0
M  V30 7245 C 689.59 1.1978 4.26811 0
M  V30 7246 H 686.81 0.3244 0.587372 0
M  V30 7247 H 689.354 1.49882 1.39125 0
M  V30 7248 H 687.509 0.832566 3.78348 0
M  V30 7249 H 687.923 2.98144 4.31521 0
M  V30 7250 H 689.397 1.57635 5.29014 0
M  V30 7251 H 689.874 0.138768 4.38981 0
M  V30 7252 H 690.48 1.73266 3.88406 0
M  V30 7253 N 688.795 -1.27931 0.920396 0
M  V30 7254 C 690.041 -1.94977 0.557832 0
M  V30 7255 C 690.374 -1.72224 -0.897365 0
M  V30 7256 O 689.649 -1.04705 -1.63912 0
M  V30 7257 C 689.932 -3.49289 0.875741 0
M  V30 7258 C 689.785 -3.81416 2.38416 0
M  V30 7259 C 691.104 -4.38486 0.376517 0
M  V30 7260 H 688.223 -0.708164 0.20414 0
M  V30 7261 H 690.865 -1.5118 1.15085 0
M  V30 7262 H 689.015 -3.86724 0.371062 0
M  V30 7263 H 690.687 -3.53813 2.95997 0
M  V30 7264 H 688.93 -3.28225 2.83639 0
M  V30 7265 H 689.601 -4.89198 2.55713 0
M  V30 7266 H 692.077 -4.08161 0.808945 0
M  V30 7267 H 690.953 -5.45296 0.627976 0
M  V30 7268 H 691.214 -4.36143 -0.723293 0
M  V30 7269 N 690.273 -0.685099 -1.4193 0
M  V30 7270 C 691.203 -0.0273506 -2.33484 0
M  V30 7271 C 692.184 0.778366 -1.51246 0
M  V30 7272 O 693.369 0.733449 -1.79817 0
M  V30 7273 C 690.499 0.917272 -3.34968 0
M  V30 7274 C 689.453 0.21941 -4.27437 0
M  V30 7275 C 688.779 1.27768 -5.1921 0
M  V30 7276 C 690.079 -0.907894 -5.14349 0
M  V30 7277 H 691.773 -0.791994 -2.88735 0
M  V30 7278 H 689.319 -0.382308 -1.38832 0
M  V30 7279 H 691.272 1.38657 -3.97935 0
M  V30 7280 H 689.996 1.71346 -2.78043 0
M  V30 7281 H 688.655 -0.229757 -3.65879 0
M  V30 7282 H 688.303 2.06612 -4.58607 0
M  V30 7283 H 688.003 0.815803 -5.81909 0
M  V30 7284 H 689.527 1.7477 -5.85054 0
M  V30 7285 H 690.941 -0.519348 -5.70943 0
M  V30 7286 H 689.338 -1.2962 -5.85934 0
M  V30 7287 H 690.408 -1.75218 -4.52136 0
M  V30 7288 N 691.751 1.51645 -0.429126 0
M  V30 7289 C 692.681 2.30434 0.377148 0
M  V30 7290 C 693.662 1.35493 1.02838 0
M  V30 7291 O 694.847 1.6441 1.03359 0
M  V30 7292 C 691.977 3.14038 1.48315 0
M  V30 7293 C 690.931 4.1719 0.955855 0
M  V30 7294 C 690.257 4.89263 2.15698 0
M  V30 7295 C 691.557 5.223 -0.00402136 0
M  V30 7296 H 693.251 2.98085 -0.280336 0
M  V30 7297 H 690.797 1.43354 -0.136265 0
M  V30 7298 H 692.75 3.67933 2.05435 0
M  V30 7299 H 691.474 2.44193 2.16881 0
M  V30 7300 H 690.133 3.64335 0.406929 0
M  V30 7301 H 689.781 4.15929 2.82864 0
M  V30 7302 H 689.481 5.59009 1.81059 0
M  V30 7303 H 691.005 5.45978 2.73387 0
M  V30 7304 H 692.419 5.71315 0.476607 0
M  V30 7305 H 690.816 5.99525 -0.26258 0
M  V30 7306 H 691.886 4.75638 -0.943236 0
M  V30 7307 N 693.229 0.160201 1.56784 0
M  V30 7308 C 694.475 -0.48831 1.96833 0
M  V30 7309 C 694.808 -1.63641 1.04571 0
M  V30 7310 O 694.083 -1.94289 0.0906481 0
M  V30 7311 C 694.366 -0.981908 3.46454 0
M  V30 7312 C 694.219 0.165607 4.49495 0
M  V30 7313 C 695.538 -1.85931 3.98896 0
M  V30 7314 H 692.657 -0.176027 0.71567 0
M  V30 7315 H 695.299 0.244093 1.88426 0
M  V30 7316 H 693.449 -1.60602 3.5375 0
M  V30 7317 H 695.121 0.802372 4.54268 0
M  V30 7318 H 693.364 0.822789 4.25926 0
M  V30 7319 H 694.035 -0.221699 5.51555 0
M  V30 7320 H 696.511 -1.33327 3.94161 0
M  V30 7321 H 695.387 -2.17373 5.04024 0
M  V30 7322 H 695.648 -2.80106 3.42042 0
M  V30 7323 N 694.707 -1.5719 -0.113559 0
M  V30 7324 C 695.954 -1.85138 -0.820382 0
M  V30 7325 C 696.282 -0.74608 -1.79622 0
M  V30 7326 O 695.537 0.262077 -1.93937 0
M  V30 7327 C 695.836 -3.19593 -1.59984 0
M  V30 7328 C 695.502 -4.44315 -0.767809 0
M  V30 7329 C 694.164 -4.78179 -0.538379 0
M  V30 7330 C 696.516 -5.2086 -0.188203 0
M  V30 7331 C 693.844 -5.86028 0.28082 0
M  V30 7332 C 696.196 -6.29572 0.618217 0
M  V30 7333 C 694.86 -6.61964 0.857912 0
M  V30 7334 H 694.13 -0.677467 -0.300199 0
M  V30 7335 H 696.777 -1.91322 -0.0825443 0
M  V30 7336 H 695.082 -3.0901 -2.40874 0
M  V30 7337 H 696.779 -3.3844 -2.1508 0
M  V30 7338 H 693.369 -4.17786 -0.956724 0
M  V30 7339 H 697.553 -4.95045 -0.352658 0
M  V30 7340 H 692.809 -6.09547 0.475693 0
M  V30 7341 H 696.983 -6.88064 1.0743 0
M  V30 7342 H 694.61 -7.45365 1.49451 0
M  V30 7343 N 696.185 0.383891 -1.52853 0
M  V30 7344 C 697.41 1.154 -1.7233 0
M  V30 7345 C 697.835 1.82809 -0.44298 0
M  V30 7346 O 697.193 1.71026 0.601645 0
M  V30 7347 C 697.241 2.17386 -2.87708 0
M  V30 7348 O 696.345 3.24082 -2.55038 0
M  V30 7349 H 695.686 0.335709 -0.572883 0
M  V30 7350 H 698.216 0.44662 -1.99666 0
M  V30 7351 H 698.226 2.61296 -3.1335 0
M  V30 7352 H 696.901 1.6771 -3.80587 0
M  V30 7353 H 695.478 2.85273 -2.40153 0
M  V30 7354 N 697.663 1.43903 0.642637 0
M  V30 7355 C 698.912 1.45362 1.39831 0
M  V30 7356 C 699.225 0.0856289 1.95412 0
M  V30 7357 O 700.431 -0.0222856 2.71491 0
M  V30 7358 C 698.887 2.55857 2.53111 0
M  V30 7359 C 698.495 3.98811 2.04092 0
M  V30 7360 C 700.239 2.66524 3.30402 0
M  V30 7361 C 698.146 5.00751 3.14647 0
M  V30 7362 H 697.076 0.540777 0.52543 0
M  V30 7363 H 699.727 1.69929 0.692559 0
M  V30 7364 H 698.109 2.2451 3.26207 0
M  V30 7365 H 699.283 4.3967 1.37938 0
M  V30 7366 H 697.598 3.92284 1.39651 0
M  V30 7367 H 700.195 3.39858 4.12796 0
M  V30 7368 H 700.538 1.71949 3.79129 0
M  V30 7369 H 701.071 2.97224 2.64392 0
M  V30 7370 H 697.81 5.96914 2.70876 0
M  V30 7371 H 697.33 4.64495 3.79479 0
M  V30 7372 H 699.009 5.23933 3.79609 0
M  V30 7373 N 699.141 -0.881989 1.30609 0
M  V30 7374 C 700.366 -1.67236 1.22665 0
M  V30 7375 C 700.791 -1.8696 -0.206777 0
M  V30 7376 O 700.149 -1.4027 -1.14865 0
M  V30 7377 C 700.197 -3.02446 1.96363 0
M  V30 7378 O 699.301 -3.91614 1.29276 0
M  V30 7379 H 698.642 -0.510902 0.424117 0
M  V30 7380 H 701.172 -1.10055 1.72479 0
M  V30 7381 H 701.182 -3.52468 2.055 0
M  V30 7382 H 699.857 -2.8741 3.00613 0
M  V30 7383 H 698.434 -3.50055 1.28514 0
M  V30 7384 N 700.619 -1.13374 -1.09472 0
M  V30 7385 C 701.549 -0.833268 -2.18126 0
M  V30 7386 C 702.53 0.207169 -1.68834 0
M  V30 7387 O 703.715 0.0662012 -1.94087 0
M  V30 7388 C 700.845 -0.297979 -3.46019 0
M  V30 7389 C 699.799 -1.27261 -4.08642 0
M  V30 7390 C 699.125 -0.597104 -5.31356 0
M  V30 7391 C 700.425 -2.63095 -4.51197 0
M  V30 7392 H 702.119 -1.74182 -2.43518 0
M  V30 7393 H 699.665 -0.838921 -1.17039 0
M  V30 7394 H 701.618 -0.0754444 -4.21332 0
M  V30 7395 H 700.342 0.645959 -3.20148 0
M  V30 7396 H 699.001 -1.48113 -3.35348 0
M  V30 7397 H 698.649 0.352293 -5.01765 0
M  V30 7398 H 698.349 -1.24734 -5.74208 0
M  V30 7399 H 699.873 -0.38384 -6.09392 0
M  V30 7400 H 701.287 -2.46214 -5.17737 0
M  V30 7401 H 699.684 -3.2429 -5.04932 0
M  V30 7402 H 700.754 -3.20793 -3.6362 0
M  V30 7403 N 702.098 1.27442 -0.927168 0
M  V30 7404 C 703.344 1.95025 -0.577651 0
M  V30 7405 C 703.699 1.71534 0.871421 0
M  V30 7406 O 702.992 1.03354 1.61333 0
M  V30 7407 C 703.186 3.47413 -0.838994 0
M  V30 7408 C 703.015 3.85721 -2.31192 0
M  V30 7409 C 701.785 4.09199 -2.96452 0
M  V30 7410 C 703.983 3.95352 -3.28939 0
M  V30 7411 N 701.965 4.34283 -4.33903 0
M  V30 7412 C 703.336 4.24805 -4.51598 0
M  V30 7413 C 705.391 3.77926 -3.24155 0
M  V30 7414 C 704.094 4.38645 -5.70073 0
M  V30 7415 C 706.12 3.9299 -4.41942 0
M  V30 7416 C 705.482 4.22829 -5.63379 0
M  V30 7417 H 701.581 0.736983 -0.261495 0
M  V30 7418 H 704.165 1.53816 -1.19368 0
M  V30 7419 H 702.336 3.87581 -0.252129 0
M  V30 7420 H 704.068 4.02166 -0.452158 0
M  V30 7421 H 700.823 4.04013 -2.47125 0
M  V30 7422 H 701.247 4.50883 -5.05008 0
M  V30 7423 H 705.889 3.53897 -2.31337 0
M  V30 7424 H 703.607 4.615 -6.63358 0
M  V30 7425 H 707.193 3.80926 -4.39757 0
M  V30 7426 H 706.073 4.34234 -6.53001 0
M  V30 7427 N 703.576 0.692616 1.41565 0
M  V30 7428 C 704.825 0.219452 2.00503 0
M  V30 7429 C 705.138 -1.18683 1.55479 0
M  V30 7430 O 706.344 -1.75731 2.06956 0
M  V30 7431 C 704.8 0.341451 3.58277 0
M  V30 7432 C 704.408 1.75291 4.12283 0
M  V30 7433 C 706.152 -0.0720899 4.24439 0
M  V30 7434 C 704.059 1.82673 5.62481 0
M  V30 7435 H 702.989 0.0782874 0.749925 0
M  V30 7436 H 705.64 0.860386 1.62079 0
M  V30 7437 H 704.022 -0.367683 3.94289 0
M  V30 7438 H 705.196 2.49057 3.87695 0
M  V30 7439 H 703.511 2.11587 3.58636 0
M  V30 7440 H 706.108 -0.0373385 5.34687 0
M  V30 7441 H 706.451 -1.11034 4.0122 0
M  V30 7442 H 706.984 0.586663 3.9345 0
M  V30 7443 H 703.723 2.84539 5.90523 0
M  V30 7444 H 703.243 1.13288 5.89004 0
M  V30 7445 H 704.922 1.58827 6.27203 0
M  V30 7446 N 705.054 -1.51416 0.437162 0
M  V30 7447 C 706.303 -2.01275 -0.130865 0
M  V30 7448 C 706.616 -1.32593 -1.438 0
M  V30 7449 O 707.822 -1.7342 -2.08897 0
M  V30 7450 C 706.278 -3.5878 -0.283763 0
M  V30 7451 C 705.886 -4.36399 1.01293 0
M  V30 7452 C 707.63 -4.16786 -0.805569 0
M  V30 7453 C 705.537 -5.85608 0.825687 0
M  V30 7454 H 704.467 -0.752157 -0.0526818 0
M  V30 7455 H 707.118 -1.74524 0.566896 0
M  V30 7456 H 705.5 -3.81976 -1.04452 0
M  V30 7457 H 706.674 -4.24948 1.78201 0
M  V30 7458 H 704.989 -3.89843 1.46326 0
M  V30 7459 H 707.586 -5.25972 -0.962146 0
M  V30 7460 H 707.929 -3.75949 -1.78796 0
M  V30 7461 H 708.462 -3.97666 -0.103125 0
M  V30 7462 H 705.201 -6.30857 1.78045 0
M  V30 7463 H 704.721 -5.99723 0.0964029 0
M  V30 7464 H 706.4 -6.45226 0.478815 0
M  V30 7465 N 706.532 -0.168513 -1.56696 0
M  V30 7466 C 707.495 0.748928 -2.16619 0
M  V30 7467 C 708.495 1.16007 -1.11351 0
M  V30 7468 O 709.685 1.07748 -1.3688 0
M  V30 7469 C 706.817 2.01904 -2.74677 0
M  V30 7470 H 708.01 0.227317 -2.99037 0
M  V30 7471 H 705.563 0.0810372 -1.5609 0
M  V30 7472 H 706.298 2.58381 -1.95985 0
M  V30 7473 H 706.083 1.73323 -3.51712 0
M  V30 7474 H 707.573 2.67383 -3.20774 0
M  V30 7475 N 708.01 1.57248 0.105221 0
M  V30 7476 C 708.973 2.00388 1.11252 0
M  V30 7477 C 709.973 0.89594 1.33527 0
M  V30 7478 O 711.163 1.16166 1.29811 0
M  V30 7479 C 708.295 2.35589 2.46395 0
M  V30 7480 H 709.488 2.90591 0.741424 0
M  V30 7481 H 707.041 1.52332 0.349956 0
M  V30 7482 H 707.776 1.4831 2.884 0
M  V30 7483 H 707.561 3.16408 2.31578 0
M  V30 7484 H 709.051 2.69658 3.18864 0
M  V30 7485 N 709.488 -0.375779 1.53054 0
M  V30 7486 C 710.734 -1.11767 1.6994 0
M  V30 7487 C 711.089 -1.87288 0.440574 0
M  V30 7488 O 710.382 -1.83045 -0.566146 0
M  V30 7489 C 710.576 -2.11356 2.88207 0
M  V30 7490 C 710.405 -1.45619 4.25471 0
M  V30 7491 C 709.175 -1.21464 4.90484 0
M  V30 7492 C 711.373 -0.899276 5.06377 0
M  V30 7493 N 709.355 -0.519705 6.11696 0
M  V30 7494 C 710.726 -0.333138 6.19104 0
M  V30 7495 C 712.781 -0.79697 4.9148 0
M  V30 7496 C 711.484 0.325316 7.18564 0
M  V30 7497 C 713.51 -0.152315 5.91204 0
M  V30 7498 C 712.872 0.402994 7.03246 0
M  V30 7499 H 708.971 -0.394489 0.675206 0
M  V30 7500 H 711.555 -0.40541 1.90432 0
M  V30 7501 H 709.726 -2.79905 2.69272 0
M  V30 7502 H 711.458 -2.78148 2.93966 0
M  V30 7503 H 708.213 -1.49319 4.49445 0
M  V30 7504 H 708.637 -0.187896 6.76739 0
M  V30 7505 H 713.279 -1.21208 4.05054 0
M  V30 7506 H 710.997 0.752399 8.0459 0
M  V30 7507 H 714.583 -0.074223 5.81753 0
M  V30 7508 H 713.463 0.89394 7.79088 0
M  V30 7509 N 710.966 -1.44241 -0.634997 0
M  V30 7510 C 712.194 -1.50296 -1.42193 0
M  V30 7511 C 712.609 -0.12658 -1.88375 0
M  V30 7512 O 711.966 0.86678 -1.60603 0
M  V30 7513 C 712.017 -2.46437 -2.64482 0
M  V30 7514 O 711.738 -3.78724 -2.20226 0
M  V30 7515 C 713.239 -2.61918 -3.57651 0
M  V30 7516 H 710.459 -0.509865 -0.43621 0
M  V30 7517 H 713.003 -1.89167 -0.776921 0
M  V30 7518 H 711.158 -2.10712 -3.25083 0
M  V30 7519 H 711.572 -4.30595 -2.9948 0
M  V30 7520 H 713.046 -3.33225 -4.40074 0
M  V30 7521 H 713.523 -1.67017 -4.06204 0
M  V30 7522 H 714.129 -2.98528 -3.02921 0
M  V30 7523 N 712.444 0.87505 -1.31075 0
M  V30 7524 C 713.69 1.63009 -1.20647 0
M  V30 7525 C 714.023 1.9276 0.236045 0
M  V30 7526 O 713.298 1.55559 1.16754 0
M  V30 7527 C 713.581 2.96357 -2.0456 0
M  V30 7528 C 713.434 2.73516 -3.57084 0
M  V30 7529 C 714.753 3.974 -1.89107 0
M  V30 7530 H 711.872 0.591518 -0.439631 0
M  V30 7531 H 714.514 1.0119 -1.60812 0
M  V30 7532 H 712.664 3.49119 -1.70435 0
M  V30 7533 H 714.336 2.27465 -4.01319 0
M  V30 7534 H 712.579 2.0784 -3.80769 0
M  V30 7535 H 713.25 3.68377 -4.11099 0
M  V30 7536 H 715.726 3.5383 -2.18961 0
M  V30 7537 H 714.602 4.88596 -2.5013 0
M  V30 7538 H 714.863 4.33794 -0.85296 0
M  V30 7539 N 713.922 1.13953 1.08869 0
M  V30 7540 C 715.338 0.878924 1.33218 0
M  V30 7541 C 715.538 -0.482478 1.95638 0
M  V30 7542 O 714.594 -1.22778 2.2064 0
M  V30 7543 C 715.907 2.00798 2.23832 0
M  V30 7544 C 717.455 2.04073 2.37325 0
M  V30 7545 C 717.93 3.16258 3.31278 0
M  V30 7546 N 719.421 3.15805 3.38853 0
M  V30 7547 C 720.156 3.99249 4.11567 0
M  V30 7548 N 719.652 4.92721 4.87029 0
M  V30 7549 N 721.445 3.87327 4.0735 0
M  V30 7550 H 713.596 2.01645 0.66731 0
M  V30 7551 H 715.859 0.878395 0.356547 0
M  V30 7552 H 715.565 2.98986 1.85203 0
M  V30 7553 H 715.439 1.92704 3.24261 0
M  V30 7554 H 717.826 1.06495 2.75214 0
M  V30 7555 H 717.907 2.16239 1.36654 0
M  V30 7556 H 717.551 4.14079 2.9411 0
M  V30 7557 H 717.481 3.0133 4.31866 0
M  V30 7558 H 719.972 2.48102 2.8505 0
M  V30 7559 H 720.285 5.52867 5.39961 0
M  V30 7560 H 718.63 4.96723 4.86098 0
M  V30 7561 H 721.821 3.13627 3.475 0
M  V30 7562 H 721.994 4.52585 4.63757 0
M  V30 7563 N 715.4 -1.26948 0.933913 0
M  V30 7564 C 716.646 -1.94374 0.57848 0
M  V30 7565 C 716.979 -1.73166 -0.879048 0
M  V30 7566 O 716.254 -1.06438 -1.62792 0
M  V30 7567 C 716.537 -3.4834 0.912739 0
M  V30 7568 C 716.39 -3.78866 2.42448 0
M  V30 7569 C 717.709 -4.38062 0.423003 0
M  V30 7570 H 714.828 -0.705959 0.211639 0
M  V30 7571 H 717.47 -1.49951 1.16682 0
M  V30 7572 H 715.62 -3.86309 0.412058 0
M  V30 7573 H 717.292 -3.50654 2.99733 0
M  V30 7574 H 715.535 -3.25198 2.87104 0
M  V30 7575 H 716.206 -4.86458 2.60887 0
M  V30 7576 H 718.682 -4.0728 0.852191 0
M  V30 7577 H 717.558 -5.44599 0.685776 0
M  V30 7578 H 717.819 -4.36886 -0.676994 0
M  V30 7579 N 716.879 -0.700114 -1.41195 0
M  V30 7580 C 718.119 -0.237223 -2.03019 0
M  V30 7581 C 718.483 1.14304 -1.54268 0
M  V30 7582 O 719.684 1.70204 -2.08048 0
M  V30 7583 C 717.955 -0.297442 -3.5616 0
M  V30 7584 S 719.514 0.0907367 -4.38706 0
M  V30 7585 H 716.332 -0.0952147 -0.704596 0
M  V30 7586 H 718.934 -0.918901 -1.72559 0
M  V30 7587 H 717.638 -1.30391 -3.89135 0
M  V30 7588 H 717.169 0.403233 -3.91328 0
M  V30 7589 H 719.184 1.31721 -4.78397 0
M  V30 7590 N 718.357 1.51182 -0.445186 0
M  V30 7591 C 719.267 2.31692 0.368255 0
M  V30 7592 C 720.283 1.40942 1.02036 0
M  V30 7593 O 721.459 1.74011 1.01401 0
M  V30 7594 C 718.524 3.14903 1.45041 0
M  V30 7595 C 717.585 4.21442 0.817615 0
M  V30 7596 C 716.818 5.00677 1.8482 0
M  V30 7597 O 717.041 4.80644 3.07145 0
M  V30 7598 O 715.975 5.84559 1.43438 0
M  V30 7599 H 719.801 3.0232 -0.289219 0
M  V30 7600 H 717.386 1.47951 -0.207555 0
M  V30 7601 H 719.268 3.66612 2.07783 0
M  V30 7602 H 717.943 2.47031 2.09182 0
M  V30 7603 H 716.85 3.73791 0.151931 0
M  V30 7604 H 718.183 4.9171 0.219564 0
M  V30 7605 N 719.835 0.176821 1.56605 0
M  V30 7606 C 721.251 -0.179278 1.5859 0
M  V30 7607 C 721.451 -1.62433 1.19238 0
M  V30 7608 O 720.507 -2.35665 0.906552 0
M  V30 7609 C 721.82 0.106524 3.00511 0
M  V30 7610 C 723.368 0.0451731 3.12967 0
M  V30 7611 C 723.843 0.304038 4.5699 0
M  V30 7612 N 725.334 0.252008 4.62514 0
M  V30 7613 C 726.069 0.426404 5.71812 0
M  V30 7614 N 725.565 0.660155 6.89648 0
M  V30 7615 N 727.358 0.361926 5.60934 0
M  V30 7616 H 719.509 1.12001 1.8047 0
M  V30 7617 H 721.772 0.445679 0.836704 0
M  V30 7618 H 721.478 1.10778 3.33798 0
M  V30 7619 H 721.352 -0.599337 3.72408 0
M  V30 7620 H 723.739 -0.946662 2.79504 0
M  V30 7621 H 723.82 0.78383 2.43495 0
M  V30 7622 H 723.464 1.29311 4.91163 0
M  V30 7623 H 723.394 -0.455294 5.24628 0
M  V30 7624 H 725.885 0.0772102 3.77821 0
M  V30 7625 H 726.198 0.782529 7.68828 0
M  V30 7626 H 724.543 0.696835 6.91498 0
M  V30 7627 H 727.734 0.17986 4.67754 0
M  V30 7628 H 727.907 0.501263 6.46058 0
M  V30 7629 N 721.313 -1.57302 -0.09688 0
M  V30 7630 C 722.543 -1.89926 -0.813114 0
M  V30 7631 C 722.951 -0.76852 -1.72888 0
M  V30 7632 O 722.294 0.268549 -1.81726 0
M  V30 7633 C 722.356 -3.17787 -1.68082 0
M  V30 7634 C 722.02 -4.4729 -0.937061 0
M  V30 7635 C 723.017 -5.1921 -0.267687 0
M  V30 7636 C 720.702 -4.93957 -0.911671 0
M  V30 7637 C 722.696 -6.36034 0.417129 0
M  V30 7638 C 720.383 -6.10693 -0.223068 0
M  V30 7639 C 721.381 -6.8158 0.440155 0
M  V30 7640 O 721.069 -7.96092 1.11772 0
M  V30 7641 H 720.801 -0.632783 -0.237828 0
M  V30 7642 H 723.355 -2.05248 -0.0790818 0
M  V30 7643 H 721.585 -2.98607 -2.45705 0
M  V30 7644 H 723.274 -3.36257 -2.27346 0
M  V30 7645 H 724.04 -4.84198 -0.278774 0
M  V30 7646 H 719.919 -4.38671 -1.41734 0
M  V30 7647 H 723.463 -6.91301 0.93537 0
M  V30 7648 H 719.36 -6.45159 -0.209821 0
M  V30 7649 H 720.128 -8.12064 1.02443 0
M  V30 7650 N 722.791 0.367657 -1.53252 0
M  V30 7651 C 723.741 1.45035 -1.75923 0
M  V30 7652 C 724.725 1.48736 -0.613719 0
M  V30 7653 O 725.917 1.54012 -0.872313 0
M  V30 7654 C 723.046 2.82493 -1.9507 0
M  V30 7655 C 722.132 2.83279 -3.15617 0
M  V30 7656 N 722.523 2.53712 -4.37566 0
M  V30 7657 C 720.821 3.1444 -3.16297 0
M  V30 7658 C 721.522 2.62123 -5.19294 0
M  V30 7659 N 720.498 2.96747 -4.55458 0
M  V30 7660 H 724.3 1.21035 -2.6782 0
M  V30 7661 H 721.814 0.575822 -1.51849 0
M  V30 7662 H 723.811 3.60473 -2.0944 0
M  V30 7663 H 722.471 3.07459 -1.044 0
M  V30 7664 H 723.482 2.27344 -4.65333 0
M  V30 7665 H 720.159 3.44733 -2.35511 0
M  V30 7666 H 721.549 2.42628 -6.26563 0
M  V30 7667 N 724.269 1.44576 0.627338 0
M  V30 7668 C 725.546 1.38033 1.38586 0
M  V30 7669 C 725.926 0.0409468 2.1106 0
M  V30 7670 O 725.274 -0.976582 2.0658 0
M  V30 7671 C 725.484 2.58102 2.34913 0
M  V30 7672 C 726.832 3.02332 2.98129 0
M  V30 7673 O 727.856 2.58334 2.45238 0
M  V30 7674 O 726.715 3.78628 3.94085 0
M  V30 7675 H 723.809 0.546801 0.620434 0
M  V30 7676 H 726.355 1.56672 0.652077 0
M  V30 7677 H 725.127 3.4719 1.80485 0
M  V30 7678 H 724.75 2.41696 3.15703 0
M  V30 7679 N 725.747 -0.868086 1.31537 0
M  V30 7680 C 726.679 -1.98165 1.15166 0
M  V30 7681 C 727.692 -1.6255 0.0902335 0
M  V30 7682 O 728.881 -1.75272 0.33791 0
M  V30 7683 C 725.981 -3.30772 0.737776 0
M  V30 7684 C 725.154 -3.94716 1.88462 0
M  V30 7685 C 724.213 -5.05641 1.45648 0
M  V30 7686 O 723.239 -5.2636 2.16642 0
M  V30 7687 N 724.441 -5.79474 0.34493 0
M  V30 7688 H 727.206 -2.12754 2.11083 0
M  V30 7689 H 724.767 -1.04217 1.23897 0
M  V30 7690 H 726.759 -4.02366 0.434032 0
M  V30 7691 H 725.329 -3.1233 -0.129834 0
M  V30 7692 H 724.549 -3.16079 2.35558 0
M  V30 7693 H 725.837 -4.34175 2.65273 0
M  V30 7694 H 725.235 -5.65164 -0.246259 0
M  V30 7695 H 723.792 -6.51722 0.100728 0
M  V30 7696 N 727.225 -1.14528 -1.08264 0
M  V30 7697 C 728.157 -0.791325 -2.15106 0
M  V30 7698 C 729.17 0.192449 -1.61659 0
M  V30 7699 O 730.359 -0.0294704 -1.78476 0
M  V30 7700 C 727.459 -0.154183 -3.38549 0
M  V30 7701 C 726.632 -1.17305 -4.21377 0
M  V30 7702 C 725.691 -0.559401 -5.23218 0
M  V30 7703 O 724.717 -1.22277 -5.55911 0
M  V30 7704 N 725.919 0.663159 -5.767 0
M  V30 7705 H 728.684 -1.71076 -2.46075 0
M  V30 7706 H 726.245 -1.0399 -1.24087 0
M  V30 7707 H 728.237 0.268884 -4.03806 0
M  V30 7708 H 726.807 0.668418 -3.0537 0
M  V30 7709 H 726.027 -1.773 -3.52077 0
M  V30 7710 H 727.315 -1.86128 -4.73533 0
M  V30 7711 H 726.713 1.22066 -5.52373 0
M  V30 7712 H 725.27 1.02871 -6.43631 0
M  V30 7713 N 728.703 1.26451 -0.940633 0
M  V30 7714 C 729.98 1.88947 -0.505811 0
M  V30 7715 C 730.36 1.85011 1.01657 0
M  V30 7716 O 729.708 1.30406 1.87634 0
M  V30 7717 C 729.918 3.32304 -1.06654 0
M  V30 7718 C 731.266 4.09153 -1.13486 0
M  V30 7719 O 732.29 3.41371 -1.01708 0
M  V30 7720 O 731.149 5.30369 -1.31797 0
M  V30 7721 H 728.243 0.810422 -0.164759 0
M  V30 7722 H 730.789 1.34625 -1.03316 0
M  V30 7723 H 729.561 3.29527 -2.11015 0
M  V30 7724 H 729.184 3.94164 -0.521603 0
M  V30 7725 N 730.181 0.707592 1.40822 0
M  V30 7726 C 731.427 0.244031 2.01326 0
M  V30 7727 C 731.76 -1.15722 1.55955 0
M  V30 7728 O 731.035 -1.78347 0.776044 0
M  V30 7729 C 731.318 0.315128 3.58718 0
M  V30 7730 C 731.171 1.75419 4.14184 0
M  V30 7731 C 732.49 -0.318251 4.38948 0
M  V30 7732 H 729.609 0.0901471 0.731466 0
M  V30 7733 H 732.251 0.898584 1.67408 0
M  V30 7734 H 730.401 -0.242176 3.87744 0
M  V30 7735 H 732.073 2.36626 3.95987 0
M  V30 7736 H 730.316 2.28449 3.68773 0
M  V30 7737 H 730.987 1.75538 5.23345 0
M  V30 7738 H 733.463 0.156514 4.15806 0
M  V30 7739 H 732.339 -0.238019 5.48384 0
M  V30 7740 H 732.6 -1.40067 4.19325 0
M  V30 7741 N 731.66 -1.50943 0.453197 0
M  V30 7742 C 732.888 -2.06628 -0.106135 0
M  V30 7743 C 733.303 -1.31901 -1.35084 0
M  V30 7744 O 732.66 -0.383074 -1.78434 0
M  V30 7745 C 732.711 -3.5914 -0.412368 0
M  V30 7746 O 732.432 -4.31047 0.782948 0
M  V30 7747 C 733.933 -4.31391 -1.02064 0
M  V30 7748 H 731.153 -0.670999 -0.000885896 0
M  V30 7749 H 733.697 -1.94331 0.63684 0
M  V30 7750 H 731.852 -3.71299 -1.10526 0
M  V30 7751 H 732.266 -5.21948 0.516736 0
M  V30 7752 H 733.74 -5.39135 -1.1848 0
M  V30 7753 H 734.217 -3.90714 -2.00598 0
M  V30 7754 H 734.823 -4.23716 -0.366664 0
M  V30 7755 N 733.138 -0.185124 -1.56509 0
M  V30 7756 C 734.363 0.465278 -2.02114 0
M  V30 7757 C 734.788 1.55083 -1.06447 0
M  V30 7758 O 734.146 1.81241 -0.0462852 0
M  V30 7759 C 734.194 1.00784 -3.46229 0
M  V30 7760 O 733.298 2.12123 -3.53663 0
M  V30 7761 H 732.639 0.109891 -0.654843 0
M  V30 7762 H 735.169 -0.293072 -2.0249 0
M  V30 7763 H 735.179 1.32697 -3.85818 0
M  V30 7764 H 733.854 0.213113 -4.15354 0
M  V30 7765 H 732.431 1.8115 -3.25943 0
M  V30 7766 N 734.616 1.57351 0.0885366 0
M  V30 7767 C 735.564 2.03542 1.12576 0
M  V30 7768 C 736.558 0.937668 1.41082 0
M  V30 7769 O 737.764 1.12283 1.40686 0
M  V30 7770 H 734.139 0.648752 0.380296 0
M  V30 7771 H 736.11 2.89833 0.709906 0
M  V30 7772 C 734.859 2.4811 2.43591 0
M  V30 7773 H 734.182 3.32164 2.22502 0
M  V30 7774 H 735.622 2.842 3.14653 0
M  V30 7775 C 734.081 1.35708 3.08359 0
M  V30 7776 O 734.611 0.689852 3.95732 0
M  V30 7777 N 732.817 1.10641 2.68713 0
M  V30 7778 H 732.364 1.6508 1.97753 0
M  V30 7779 H 732.322 0.356355 3.12374 0
M  V30 7780 N 736.094 -0.359525 1.53444 0
M  V30 7781 C 737.341 -1.10152 1.6992 0
M  V30 7782 C 737.669 -1.89125 0.4541 0
M  V30 7783 O 736.924 -1.87396 -0.564023 0
M  V30 7784 C 737.223 -2.08287 2.90433 0
M  V30 7785 C 736.889 -1.45749 4.26694 0
M  V30 7786 C 735.551 -1.28421 4.63747 0
M  V30 7787 C 737.903 -1.00557 5.11408 0
M  V30 7788 C 735.231 -0.644951 5.83144 0
M  V30 7789 C 737.583 -0.380288 6.31456 0
M  V30 7790 C 736.247 -0.194557 6.67216 0
M  V30 7791 H 735.517 -0.403076 0.621781 0
M  V30 7792 H 738.164 -0.382612 1.87639 0
M  V30 7793 H 736.469 -2.86503 2.67251 0
M  V30 7794 H 738.166 -2.65662 3.00374 0
M  V30 7795 H 734.756 -1.6023 3.97523 0
M  V30 7796 H 738.94 -1.12735 4.83326 0
M  V30 7797 H 734.196 -0.48952 6.09437 0
M  V30 7798 H 738.37 -0.0219455 6.96397 0
M  V30 7799 H 735.997 0.30285 7.59597 0
M  V30 7800 N 737.572 -1.44907 -0.619662 0
M  V30 7801 C 738.502 -1.55488 -1.742 0
M  V30 7802 C 739.483 -0.407143 -1.65156 0
M  V30 7803 O 740.668 -0.628743 -1.8374 0
M  V30 7804 C 737.798 -1.5097 -3.1277 0
M  V30 7805 C 736.752 -2.64337 -3.36615 0
M  V30 7806 C 736.078 -2.44872 -4.75333 0
M  V30 7807 C 737.378 -4.06423 -3.28051 0
M  V30 7808 H 739.072 -2.49432 -1.65602 0
M  V30 7809 H 736.618 -1.20047 -0.795281 0
M  V30 7810 H 738.571 -1.56971 -3.91073 0
M  V30 7811 H 737.295 -0.535486 -3.2218 0
M  V30 7812 H 735.954 -2.57744 -2.60698 0
M  V30 7813 H 735.602 -1.45617 -4.81461 0
M  V30 7814 H 735.302 -3.20888 -4.92244 0
M  V30 7815 H 736.826 -2.52709 -5.55851 0
M  V30 7816 H 738.24 -4.14324 -3.96243 0
M  V30 7817 H 736.637 -4.82733 -3.56495 0
M  V30 7818 H 737.707 -4.29183 -2.25676 0
M  V30 7819 N 739.05 0.861098 -1.31996 0
M  V30 7820 C 740.298 1.61162 -1.21947 0
M  V30 7821 C 740.619 1.93751 0.220351 0
M  V30 7822 O 739.889 1.59069 1.14341 0
M  V30 7823 H 738.469 0.597485 -0.448353 0
M  V30 7824 H 741.131 1.03039 -1.65436 0
M  V30 7825 H 740.227 2.55138 -1.79752 0
M  V30 7826 N 740.528 1.15101 1.07655 0
M  V30 7827 C 741.491 0.847625 2.12951 0
M  V30 7828 C 742.491 -0.151227 1.60087 0
M  V30 7829 O 743.681 0.0780399 1.74025 0
M  V30 7830 C 740.813 0.265 3.39868 0
M  V30 7831 H 742.006 1.7809 2.41296 0
M  V30 7832 H 739.559 0.958072 1.23494 0
M  V30 7833 H 740.294 -0.676625 3.17163 0
M  V30 7834 H 740.079 0.984554 3.79538 0
M  V30 7835 H 741.569 0.0702121 4.17541 0
M  V30 7836 N 742.006 -1.2595 0.947325 0
M  V30 7837 C 742.939 -2.24559 0.406009 0
M  V30 7838 C 743.917 -1.54441 -0.508598 0
M  V30 7839 O 745.101 -1.83181 -0.444644 0
M  V30 7840 C 742.228 -3.36136 -0.415987 0
M  V30 7841 C 741.274 -4.24245 0.437969 0
M  V30 7842 S 742.107 -5.01948 1.86572 0
M  V30 7843 C 743.263 -6.16997 1.05194 0
M  V30 7844 H 743.496 -2.70128 1.24171 0
M  V30 7845 H 741.029 -1.34912 0.750874 0
M  V30 7846 H 742.987 -4.00861 -0.88433 0
M  V30 7847 H 741.648 -2.89167 -1.22643 0
M  V30 7848 H 740.841 -5.03634 -0.192127 0
M  V30 7849 H 740.443 -3.64416 0.841235 0
M  V30 7850 H 742.735 -6.76848 0.297126 0
M  V30 7851 H 743.678 -6.84324 1.8195 0
M  V30 7852 H 744.086 -5.61458 0.585294 0
M  V30 7853 N 743.484 -0.715051 -1.40445 0
M  V30 7854 C 744.73 -0.263528 -2.01686 0
M  V30 7855 C 745.085 1.13052 -1.55683 0
M  V30 7856 O 744.378 1.75588 -0.766762 0
M  V30 7857 C 744.572 -0.281791 -3.56287 0
M  V30 7858 C 744.401 -1.67607 -4.17298 0
M  V30 7859 C 743.171 -2.2836 -4.50755 0
M  V30 7860 C 745.369 -2.62621 -4.42193 0
M  V30 7861 N 743.351 -3.6015 -4.97157 0
M  V30 7862 C 744.722 -3.79116 -4.90582 0
M  V30 7863 C 746.777 -2.60639 -4.24231 0
M  V30 7864 C 745.48 -4.93937 -5.22895 0
M  V30 7865 C 747.506 -3.74587 -4.57644 0
M  V30 7866 C 746.868 -4.89815 -5.06222 0
M  V30 7867 H 742.967 -0.142252 -0.768953 0
M  V30 7868 H 745.551 -0.936732 -1.70685 0
M  V30 7869 H 743.722 0.360975 -3.86719 0
M  V30 7870 H 745.454 0.186393 -4.04271 0
M  V30 7871 H 742.209 -1.80463 -4.3787 0
M  V30 7872 H 742.633 -4.27757 -5.24741 0
M  V30 7873 H 747.275 -1.72759 -3.85894 0
M  V30 7874 H 744.993 -5.82462 -5.60146 0
M  V30 7875 H 748.579 -3.74328 -4.45387 0
M  V30 7876 H 747.459 -5.76525 -5.3159 0
M  V30 7877 N 744.962 1.50701 -0.461195 0
M  V30 7878 C 745.892 2.31182 0.328184 0
M  V30 7879 C 746.873 1.37644 0.999408 0
M  V30 7880 O 748.058 1.66565 0.99848 0
M  V30 7881 C 745.188 3.17113 1.41621 0
M  V30 7882 C 744.142 4.19124 0.867148 0
M  V30 7883 C 743.468 4.93728 2.05272 0
M  V30 7884 C 744.768 5.22174 -0.114808 0
M  V30 7885 H 746.462 2.97423 -0.343501 0
M  V30 7886 H 744.008 1.43033 -0.166641 0
M  V30 7887 H 745.961 3.72208 1.97584 0
M  V30 7888 H 744.685 2.48739 2.11652 0
M  V30 7889 H 743.344 3.65116 0.329557 0
M  V30 7890 H 742.992 4.21835 2.73978 0
M  V30 7891 H 742.692 5.62724 1.69161 0
M  V30 7892 H 744.216 5.51654 2.61744 0
M  V30 7893 H 745.63 5.72198 0.355316 0
M  V30 7894 H 744.027 5.98833 -0.389689 0
M  V30 7895 H 745.097 4.7353 -1.04391 0
M  V30 7896 N 746.441 0.193421 1.56409 0
M  V30 7897 C 747.69 -0.445995 1.96707 0
M  V30 7898 C 748.003 -1.62876 1.08309 0
M  V30 7899 O 749.209 -2.33586 1.38383 0
M  V30 7900 C 747.665 -0.844863 3.49843 0
M  V30 7901 C 747.273 0.31352 4.46902 0
M  V30 7902 C 749.017 -1.45146 3.98915 0
M  V30 7903 C 746.924 -0.106214 5.91305 0
M  V30 7904 H 745.854 -0.170398 0.734493 0
M  V30 7905 H 748.505 0.285172 1.81271 0
M  V30 7906 H 746.887 -1.63265 3.60778 0
M  V30 7907 H 748.061 1.09103 4.47698 0
M  V30 7908 H 746.376 0.8315 4.08014 0
M  V30 7909 H 748.973 -1.77792 5.04276 0
M  V30 7910 H 749.316 -2.35734 3.43126 0
M  V30 7911 H 749.849 -0.727675 3.91088 0
M  V30 7912 H 746.588 0.765442 6.51016 0
M  V30 7913 H 746.108 -0.848623 5.93766 0
M  V30 7914 H 747.787 -0.542588 6.44721 0
M  V30 7915 N 747.919 -1.57396 -0.0801906 0
M  V30 7916 C 749.144 -1.91437 -0.797909 0
M  V30 7917 C 749.569 -0.789075 -1.70749 0
M  V30 7918 O 748.927 0.25857 -1.79447 0
M  V30 7919 C 748.975 -3.24402 -1.57467 0
M  V30 7920 O 748.079 -3.13043 -2.68473 0
M  V30 7921 H 747.42 -0.627109 -0.218243 0
M  V30 7922 H 749.95 -2.04537 -0.050949 0
M  V30 7923 H 749.96 -3.58072 -1.95571 0
M  V30 7924 H 748.635 -4.05884 -0.907229 0
M  V30 7925 H 747.212 -2.90915 -2.33287 0
M  V30 7926 N 749.397 0.351382 -1.53633 0
M  V30 7927 C 750.646 1.08988 -1.69719 0
M  V30 7928 C 750.959 1.90043 -0.462948 0
M  V30 7929 O 752.165 2.66769 -0.504613 0
M  V30 7930 C 750.621 1.98691 -3.00083 0
M  V30 7931 C 750.229 1.22881 -4.30818 0
M  V30 7932 C 751.973 2.72446 -3.25536 0
M  V30 7933 C 749.88 2.11568 -5.52262 0
M  V30 7934 H 748.81 0.410588 -0.632403 0
M  V30 7935 H 751.461 0.349886 -1.80133 0
M  V30 7936 H 749.843 2.76478 -2.83506 0
M  V30 7937 H 751.017 0.500582 -4.58073 0
M  V30 7938 H 749.332 0.60928 -4.11918 0
M  V30 7939 H 751.929 3.39055 -4.13456 0
M  V30 7940 H 752.272 3.38588 -2.42206 0
M  V30 7941 H 752.805 2.01735 -3.42852 0
M  V30 7942 H 749.544 1.4998 -6.38111 0
M  V30 7943 H 749.064 2.82201 -5.29266 0
M  V30 7944 H 750.743 2.70802 -5.87601 0
M  V30 7945 N 750.875 1.45233 0.611969 0
M  V30 7946 C 752.103 1.52539 1.39784 0
M  V30 7947 C 752.518 0.156533 1.8815 0
M  V30 7948 O 751.875 -0.84112 1.61961 0
M  V30 7949 C 751.926 2.50614 2.60528 0
M  V30 7950 O 751.647 3.8218 2.14173 0
M  V30 7951 C 753.148 2.67574 3.53439 0
M  V30 7952 H 750.368 0.51674 0.428043 0
M  V30 7953 H 752.912 1.90379 0.746727 0
M  V30 7954 H 751.067 2.15858 3.2169 0
M  V30 7955 H 751.481 4.35305 2.92592 0
M  V30 7956 H 752.955 3.40184 4.34717 0
M  V30 7957 H 753.432 1.73458 4.03496 0
M  V30 7958 H 754.038 3.0331 2.98133 0
M  V30 7959 N 752.353 -0.854086 1.3245 0
M  V30 7960 C 753.6 -1.60831 1.23043 0
M  V30 7961 C 753.928 -1.93389 -0.2076 0
M  V30 7962 O 753.183 -1.5756 -1.16075 0
M  V30 7963 C 753.482 -2.93746 2.03587 0
M  V30 7964 C 753.148 -2.80615 3.52939 0
M  V30 7965 C 751.81 -2.76742 3.93659 0
M  V30 7966 C 754.162 -2.66507 4.4791 0
M  V30 7967 C 751.49 -2.56638 5.27592 0
M  V30 7968 C 753.842 -2.47939 5.81987 0
M  V30 7969 C 752.506 -2.42458 6.21909 0
M  V30 7970 H 751.776 -0.588523 0.450247 0
M  V30 7971 H 754.423 -0.990699 1.63882 0
M  V30 7972 H 752.728 -3.5963 1.55478 0
M  V30 7973 H 754.425 -3.51127 1.93677 0
M  V30 7974 H 751.015 -2.84456 3.20598 0
M  V30 7975 H 755.199 -2.68544 4.1737 0
M  V30 7976 H 750.455 -2.50831 5.57579 0
M  V30 7977 H 754.629 -2.36002 6.55192 0
M  V30 7978 H 752.256 -2.2664 7.2563 0
M  V30 7979 N 753.831 -1.1567 -1.07043 0
M  V30 7980 C 754.761 -0.879348 -2.16309 0
M  V30 7981 C 755.742 0.171311 -1.69235 0
M  V30 7982 O 756.927 0.0250175 -1.94184 0
M  V30 7983 C 754.057 -0.371307 -3.45309 0
M  V30 7984 C 753.011 -1.359 -4.05851 0
M  V30 7985 C 752.337 -0.709678 -5.29969 0
M  V30 7986 C 753.637 -2.72606 -4.45514 0
M  V30 7987 H 755.331 -1.79308 -2.39768 0
M  V30 7988 H 752.877 -0.863558 -1.15233 0
M  V30 7989 H 754.83 -0.164798 -4.21078 0
M  V30 7990 H 753.554 0.577906 -3.21446 0
M  V30 7991 H 752.213 -1.55193 -3.32131 0
M  V30 7992 H 751.861 0.245782 -5.02399 0
M  V30 7993 H 751.561 -1.36886 -5.71433 0
M  V30 7994 H 753.085 -0.513015 -6.08441 0
M  V30 7995 H 754.499 -2.57141 -5.12398 0
M  V30 7996 H 752.896 -3.34927 -4.97939 0
M  V30 7997 H 753.966 -3.28434 -3.56734 0
M  V30 7998 N 755.309 1.25446 -0.953992 0
M  V30 7999 C 756.534 1.97755 -0.625129 0
M  V30 8000 C 756.959 1.70437 0.795787 0
M  V30 8001 O 756.317 0.95992 1.53803 0
M  V30 8002 C 756.365 3.49463 -0.889251 0
M  V30 8003 O 755.469 4.12387 0.0322757 0
M  V30 8004 H 754.81 0.61998 -0.237742 0
M  V30 8005 H 757.34 1.59582 -1.28041 0
M  V30 8006 H 757.35 3.99772 -0.815263 0
M  V30 8007 H 756.025 3.68676 -1.92487 0
M  V30 8008 H 754.602 3.72782 -0.0938625 0
M  V30 8009 N 756.787 0.722489 1.40064 0
M  V30 8010 C 758.036 0.261932 1.99992 0
M  V30 8011 C 758.349 -1.15358 1.57961 0
M  V30 8012 O 759.555 -1.71301 2.10637 0
M  V30 8013 C 758.011 0.41737 3.57472 0
M  V30 8014 C 757.619 1.83997 4.08472 0
M  V30 8015 C 759.363 0.0179561 4.24496 0
M  V30 8016 C 757.27 1.94563 5.5848 0
M  V30 8017 H 756.2 0.0941768 0.748095 0
M  V30 8018 H 758.851 0.894572 1.60218 0
M  V30 8019 H 757.233 -0.283965 3.94981 0
M  V30 8020 H 758.407 2.57224 3.82325 0
M  V30 8021 H 756.722 2.19147 3.54067 0
M  V30 8022 H 759.319 0.076085 5.34646 0
M  V30 8023 H 759.662 -1.02498 4.03485 0
M  V30 8024 H 760.195 0.669988 3.92117 0
M  V30 8025 H 756.934 2.97001 5.84355 0
M  V30 8026 H 756.454 1.25756 5.86469 0
M  V30 8027 H 758.133 1.72095 6.23692 0
M  V30 8028 N 758.265 -1.50454 0.469181 0
M  V30 8029 C 759.513 -2.01916 -0.0862982 0
M  V30 8030 C 759.834 -1.35337 -1.40388 0
M  V30 8031 O 759.104 -0.498096 -1.89462 0
M  V30 8032 H 757.684 -0.746185 -0.0348825 0
M  V30 8033 H 760.346 -1.84804 0.619167 0
M  V30 8034 H 759.442 -3.11182 -0.239189 0
M  V30 8035 N 759.743 -0.201713 -1.56304 0
M  V30 8036 C 760.973 0.440084 -2.01858 0
M  V30 8037 C 761.381 1.55279 -1.08098 0
M  V30 8038 O 760.724 1.83529 -0.0792216 0
M  V30 8039 C 760.786 1.05091 -3.43797 0
M  V30 8040 C 760.45 0.0761208 -4.56937 0
M  V30 8041 C 761.447 -0.716951 -5.14933 0
M  V30 8042 C 759.132 -0.0368815 -5.02286 0
M  V30 8043 C 761.126 -1.60993 -6.16733 0
M  V30 8044 C 758.813 -0.933409 -6.03929 0
M  V30 8045 C 759.811 -1.71849 -6.61027 0
M  V30 8046 O 759.499 -2.59998 -7.60695 0
M  V30 8047 H 759.231 0.114139 -0.666294 0
M  V30 8048 H 761.785 -0.309672 -2.03052 0
M  V30 8049 H 760.015 1.84938 -3.3961 0
M  V30 8050 H 761.704 1.59804 -3.73118 0
M  V30 8051 H 762.47 -0.63999 -4.80759 0
M  V30 8052 H 758.349 0.564034 -4.57537 0
M  V30 8053 H 761.893 -2.22315 -6.61227 0
M  V30 8054 H 757.79 -1.01146 -6.37526 0
M  V30 8055 H 758.558 -2.53851 -7.7814 0
M  V30 8056 N 761.222 1.57436 0.0718424 0
M  V30 8057 C 762.47 1.86878 0.769484 0
M  V30 8058 C 762.791 0.7937 1.78116 0
M  V30 8059 O 762.061 -0.177642 1.95093 0
M  V30 8060 H 760.641 0.689593 0.287177 0
M  V30 8061 H 763.303 1.94841 0.0479427 0
M  V30 8062 H 762.399 2.84387 1.28572 0
M  V30 8063 N 762.7 -0.34323 1.53817 0
M  V30 8064 C 763.977 -1.10047 1.61706 0
M  V30 8065 C 764.357 -2.06495 0.438514 0
M  V30 8066 O 763.705 -2.21297 -0.569188 0
M  V30 8067 C 763.915 -1.81985 2.97796 0
M  V30 8068 C 765.263 -2.35717 3.53161 0
M  V30 8069 O 766.287 -1.9208 2.99973 0
M  V30 8070 O 765.146 -3.15551 4.46195 0
M  V30 8071 H 762.24 -0.506096 0.654061 0
M  V30 8072 H 764.786 -0.344697 1.66162 0
M  V30 8073 H 763.558 -1.11722 3.75012 0
M  V30 8074 H 763.181 -2.64419 2.96931 0
M  V30 8075 N 764.178 -1.45556 -0.604258 0
M  V30 8076 C 765.111 -1.48975 -1.72863 0
M  V30 8077 C 766.089 -0.345803 -1.5888 0
M  V30 8078 O 767.273 -0.546796 -1.80395 0
M  V30 8079 C 764.4 -1.34794 -3.10722 0
M  V30 8080 C 763.446 -2.53096 -3.43285 0
M  V30 8081 S 764.279 -4.15551 -3.37754 0
M  V30 8082 C 765.435 -4.03842 -4.78187 0
M  V30 8083 H 765.668 -2.44108 -1.69701 0
M  V30 8084 H 763.201 -1.33179 -0.781194 0
M  V30 8085 H 765.159 -1.273 -3.90263 0
M  V30 8086 H 763.82 -0.411254 -3.11396 0
M  V30 8087 H 763.013 -2.39109 -4.4367 0
M  V30 8088 H 762.615 -2.57469 -2.71267 0
M  V30 8089 H 764.907 -3.69191 -5.6807 0
M  V30 8090 H 765.85 -5.0415 -4.97231 0
M  V30 8091 H 766.258 -3.35443 -4.54025 0
M  V30 8092 N 765.656 0.84705 -1.32902 0
M  V30 8093 C 766.902 1.60414 -1.24078 0
M  V30 8094 C 767.235 1.93217 0.195105 0
M  V30 8095 O 766.51 1.58001 1.13428 0
M  V30 8096 C 766.793 2.91951 -2.108 0
M  V30 8097 C 766.646 2.6588 -3.62805 0
M  V30 8098 C 767.965 3.93299 -1.97494 0
M  V30 8099 H 765.084 0.58206 -0.452079 0
M  V30 8100 H 767.726 0.977562 -1.62922 0
M  V30 8101 H 765.876 3.45425 -1.77802 0
M  V30 8102 H 767.548 2.18902 -4.06054 0
M  V30 8103 H 765.791 1.99716 -3.85092 0
M  V30 8104 H 766.462 3.59574 -4.1882 0
M  V30 8105 H 768.938 3.49105 -2.26417 0
M  V30 8106 H 767.814 4.8318 -2.60438 0
M  V30 8107 H 768.075 4.31887 -0.944782 0
M  V30 8108 N 767.134 1.16236 1.06428 0
M  V30 8109 C 768.545 0.950942 1.60667 0
M  V30 8110 C 768.896 -0.505491 1.89576 0
M  V30 8111 O 768.021 -1.37843 1.66818 0
M  V30 8112 C 768.616 1.71982 2.91904 0
M  V30 8113 C 767.175 1.55342 3.4285 0
M  V30 8114 C 766.322 1.72942 2.16763 0
M  V30 8115 H 769.273 1.31126 0.893959 0
M  V30 8116 H 769.294 1.19483 3.61253 0
M  V30 8117 H 768.806 2.77978 2.70831 0
M  V30 8118 H 766.907 0.5178 3.68985 0
M  V30 8119 H 767.02 2.33643 4.18267 0
M  V30 8120 H 765.384 1.15673 2.26918 0
M  V30 8121 H 766.167 2.80324 1.98175 0
M  V30 8122 N 768.612 -1.24939 0.960631 0
M  V30 8123 C 769.562 -2.23388 0.456266 0
M  V30 8124 C 770.546 -1.54249 -0.45782 0
M  V30 8125 O 771.738 -1.7461 -0.289894 0
M  V30 8126 C 768.867 -3.42321 -0.259024 0
M  V30 8127 C 767.953 -4.18718 0.673478 0
M  V30 8128 N 768.344 -4.72394 1.8077 0
M  V30 8129 C 766.642 -4.43378 0.482859 0
M  V30 8130 C 767.343 -5.30316 2.3904 0
M  V30 8131 N 766.319 -5.17109 1.67629 0
M  V30 8132 H 770.121 -2.62499 1.32179 0
M  V30 8133 H 767.635 -1.40245 0.818851 0
M  V30 8134 H 769.632 -4.11997 -0.637527 0
M  V30 8135 H 768.292 -3.04732 -1.12108 0
M  V30 8136 H 769.303 -4.69345 2.18942 0
M  V30 8137 H 765.98 -4.16147 -0.335821 0
M  V30 8138 H 767.37 -5.82594 3.34715 0
M  V30 8139 N 770.09 -0.729906 -1.39679 0
M  V30 8140 C 771.318 -0.285709 -2.04918 0
M  V30 8141 C 771.733 1.07765 -1.55023 0
M  V30 8142 O 771.09 1.67999 -0.712923 0
M  V30 8143 C 771.141 -0.272793 -3.60469 0
M  V30 8144 O 770.862 -1.58233 -4.08527 0
M  V30 8145 C 772.363 0.188199 -4.429 0
M  V30 8146 H 769.583 -0.125758 -0.65911 0
M  V30 8147 H 772.127 -0.992129 -1.78821 0
M  V30 8148 H 770.282 0.384699 -3.85485 0
M  V30 8149 H 770.696 -1.49245 -5.02818 0
M  V30 8150 H 772.17 0.14608 -5.51807 0
M  V30 8151 H 772.647 1.2326 -4.21549 0
M  V30 8152 H 773.253 -0.439541 -4.23023 0
M  V30 8153 N 771.568 1.50203 -0.477153 0
M  V30 8154 C 772.798 2.0647 0.0731427 0
M  V30 8155 C 773.206 1.3405 1.33518 0
M  V30 8156 O 772.549 0.405164 1.79176 0
M  V30 8157 C 772.611 3.57025 0.421121 0
M  V30 8158 C 772.275 4.50973 -0.739765 0
M  V30 8159 C 773.272 4.939 -1.62353 0
M  V30 8160 C 770.957 4.93581 -0.93181 0
M  V30 8161 C 772.951 5.78149 -2.6837 0
M  V30 8162 C 770.638 5.77612 -1.99519 0
M  V30 8163 C 771.636 6.19798 -2.86949 0
M  V30 8164 O 771.324 7.02152 -3.91456 0
M  V30 8165 H 771.056 0.675969 -0.00648243 0
M  V30 8166 H 773.61 1.94278 -0.66673 0
M  V30 8167 H 771.84 3.67141 1.21426 0
M  V30 8168 H 773.529 3.95632 0.907213 0
M  V30 8169 H 774.295 4.61646 -1.48687 0
M  V30 8170 H 770.174 4.60262 -0.260739 0
M  V30 8171 H 773.718 6.10997 -3.36643 0
M  V30 8172 H 769.615 6.09279 -2.13189 0
M  V30 8173 H 770.383 7.20414 -3.88518 0
M  V30 8174 N 773.046 0.209999 1.56195 0
M  V30 8175 C 774.286 -0.4268 1.99894 0
M  V30 8176 C 774.65 -1.57763 1.0943 0
M  V30 8177 O 775.851 -2.27964 1.42428 0
M  V30 8178 C 774.122 -0.861188 3.46869 0
M  V30 8179 S 775.681 -1.49372 4.12593 0
M  V30 8180 H 772.499 -0.135922 0.697887 0
M  V30 8181 H 775.101 0.316573 1.9292 0
M  V30 8182 H 773.805 -0.0137653 4.10398 0
M  V30 8183 H 773.336 -1.63766 3.57693 0
M  V30 8184 H 775.351 -2.7827 4.10829 0
M  V30 8185 N 774.524 -1.57472 -0.0634922 0
M  V30 8186 C 775.772 -1.87283 -0.759563 0
M  V30 8187 C 776.093 -0.803135 -1.77693 0
M  V30 8188 O 775.363 0.167293 -1.95184 0
M  V30 8189 H 773.943 -0.691106 -0.283516 0
M  V30 8190 H 776.605 -1.94864 -0.0376091 0
M  V30 8191 H 775.701 -2.85064 -1.27062 0
M  V30 8192 N 776.003 0.335068 -1.53997 0
M  V30 8193 C 776.95 1.41187 -1.82579 0
M  V30 8194 C 777.92 1.51897 -0.672061 0
M  V30 8195 O 779.105 1.673 -0.917346 0
M  V30 8196 C 776.245 2.77717 -2.0486 0
M  V30 8197 C 775.358 2.7573 -3.32561 0
M  V30 8198 C 774.493 4.04032 -3.44864 0
M  V30 8199 C 773.532 3.96308 -4.66483 0
M  V30 8200 N 772.669 5.16317 -4.75774 0
M  V30 8201 H 777.509 1.16113 -2.74448 0
M  V30 8202 H 775.046 0.562305 -1.35928 0
M  V30 8203 H 777.004 3.57071 -2.15768 0
M  V30 8204 H 775.634 3.01124 -1.16294 0
M  V30 8205 H 774.686 1.88432 -3.3045 0
M  V30 8206 H 775.998 2.65902 -4.22016 0
M  V30 8207 H 775.152 4.91814 -3.55251 0
M  V30 8208 H 773.891 4.16652 -2.53481 0
M  V30 8209 H 772.896 3.06911 -4.56164 0
M  V30 8210 H 774.121 3.85263 -5.5924 0
M  V30 8211 H 772.067 5.29464 -3.87303 0
M  V30 8212 H 771.984 5.08779 -5.59178 0
M  V30 8213 H 773.252 6.05846 -4.9048 0
M  V30 8214 N 777.481 1.45874 0.596531 0
M  V30 8215 C 778.729 1.5017 1.35253 0
M  V30 8216 C 779.05 0.149246 1.94428 0
M  V30 8217 O 778.32 -0.82268 1.77789 0
M  V30 8218 H 776.9 0.553052 0.502138 0
M  V30 8219 H 779.562 1.81908 0.699671 0
M  V30 8220 H 778.658 2.24671 2.16632 0
M  V30 8221 N 778.959 -0.83999 1.33349 0
M  V30 8222 C 780.205 -1.59753 1.24927 0
M  V30 8223 C 780.538 -1.93318 -0.184855 0
M  V30 8224 O 779.813 -1.586 -1.12589 0
M  V30 8225 C 780.096 -2.90829 2.12345 0
M  V30 8226 C 779.949 -2.63953 3.6421 0
M  V30 8227 C 781.268 -3.92246 1.99577 0
M  V30 8228 H 778.387 -0.579654 0.45516 0
M  V30 8229 H 781.029 -0.968909 1.63439 0
M  V30 8230 H 779.179 -3.44478 1.79631 0
M  V30 8231 H 780.851 -2.16745 4.07209 0
M  V30 8232 H 779.094 -1.97671 3.86146 0
M  V30 8233 H 779.765 -3.57348 4.20721 0
M  V30 8234 H 782.241 -3.479 2.28265 0
M  V30 8235 H 781.117 -4.81793 2.62996 0
M  V30 8236 H 781.378 -4.3138 0.967673 0
M  V30 8237 N 780.437 -1.16799 -1.0581 0
M  V30 8238 C 781.677 -0.963264 -1.80279 0
M  V30 8239 C 782.041 0.499671 -1.85384 0
M  V30 8240 O 783.242 0.823264 -2.55882 0
M  V30 8241 C 781.513 -1.57938 -3.20609 0
M  V30 8242 S 783.072 -1.51997 -4.11634 0
M  V30 8243 H 779.89 -0.346302 -0.620964 0
M  V30 8244 H 782.492 -1.48632 -1.26999 0
M  V30 8245 H 781.196 -2.63672 -3.14492 0
M  V30 8246 H 780.727 -1.05586 -3.78966 0
M  V30 8247 H 782.742 -0.523625 -4.93429 0
M  V30 8248 N 781.915 1.24427 -0.967243 0
M  V30 8249 C 782.845 2.2773 -0.515899 0
M  V30 8250 C 783.826 1.64197 0.444227 0
M  V30 8251 O 785.011 1.91193 0.340451 0
M  V30 8252 C 782.141 3.46751 0.195149 0
M  V30 8253 C 781.095 4.22548 -0.680953 0
M  V30 8254 C 780.421 5.34456 0.161561 0
M  V30 8255 C 781.721 4.83914 -1.96532 0
M  V30 8256 H 783.415 2.65735 -1.37933 0
M  V30 8257 H 780.961 1.27742 -0.664681 0
M  V30 8258 H 782.914 4.18153 0.522117 0
M  V30 8259 H 781.638 3.07771 1.09292 0
M  V30 8260 H 780.297 3.52946 -0.991186 0
M  V30 8261 H 779.945 4.91716 1.05947 0
M  V30 8262 H 779.645 5.86087 -0.421418 0
M  V30 8263 H 781.169 6.08685 0.483211 0
M  V30 8264 H 782.583 5.47392 -1.70396 0
M  V30 8265 H 780.98 5.45775 -2.49499 0
M  V30 8266 H 782.05 4.05393 -2.66053 0
M  V30 8267 N 783.393 0.737304 1.3929 0
M  V30 8268 C 784.323 0.113988 2.33222 0
M  V30 8269 C 785.304 -0.721695 1.54031 0
M  V30 8270 O 786.489 -0.666206 1.82415 0
M  V30 8271 C 783.619 -0.792319 3.38141 0
M  V30 8272 C 782.573 -0.0606178 4.27957 0
M  V30 8273 C 781.899 -1.08409 5.23595 0
M  V30 8274 C 783.199 1.09817 5.10625 0
M  V30 8275 H 784.893 0.898611 2.85596 0
M  V30 8276 H 782.439 0.433571 1.37318 0
M  V30 8277 H 784.392 -1.23793 4.02807 0
M  V30 8278 H 783.116 -1.60908 2.84211 0
M  V30 8279 H 781.775 0.365393 3.64775 0
M  V30 8280 H 781.423 -1.89449 4.6596 0
M  V30 8281 H 781.123 -0.599269 5.84536 0
M  V30 8282 H 782.647 -1.52936 5.91137 0
M  V30 8283 H 784.061 0.730892 5.68622 0
M  V30 8284 H 782.458 1.51278 5.80719 0
M  V30 8285 H 783.528 1.91878 4.45321 0
M  V30 8286 N 784.871 -1.49948 0.485112 0
M  V30 8287 C 786.099 -2.06806 -0.0622824 0
M  V30 8288 C 786.514 -1.34736 -1.32256 0
M  V30 8289 O 785.871 -0.420836 -1.77582 0
M  V30 8290 C 785.922 -3.59934 -0.336096 0
M  V30 8291 O 785.643 -4.29289 0.874203 0
M  V30 8292 C 787.144 -4.33459 -0.928903 0
M  V30 8293 H 784.364 -0.670867 0.0133472 0
M  V30 8294 H 786.908 -1.92937 0.677917 0
M  V30 8295 H 785.063 -3.7356 -1.02625 0
M  V30 8296 H 785.477 -5.20735 0.627332 0
M  V30 8297 H 786.951 -5.41527 -1.07017 0
M  V30 8298 H 787.428 -3.94881 -1.92265 0
M  V30 8299 H 788.034 -4.24399 -0.276705 0
M  V30 8300 N 786.349 -0.21828 -1.56081 0
M  V30 8301 C 787.597 0.413488 -1.97825 0
M  V30 8302 C 787.918 1.60527 -1.10707 0
M  V30 8303 O 787.188 1.9504 -0.183378 0
M  V30 8304 H 785.768 0.155757 -0.730581 0
M  V30 8305 H 788.43 -0.310413 -1.92412 0
M  V30 8306 H 787.526 0.742024 -3.03151 0
M  V30 8307 N 787.827 1.57504 0.0551401 0
M  V30 8308 C 789.076 1.87237 0.750009 0
M  V30 8309 C 789.389 0.813268 1.77891 0
M  V30 8310 O 790.595 0.99898 2.52453 0
M  V30 8311 C 789.051 3.32187 1.38491 0
M  V30 8312 C 788.659 4.46267 0.393707 0
M  V30 8313 C 790.403 3.71101 2.06117 0
M  V30 8314 C 788.31 5.82265 1.03547 0
M  V30 8315 H 787.24 0.698524 0.283866 0
M  V30 8316 H 789.891 1.835 0.00365997 0
M  V30 8317 H 788.273 3.30588 2.18008 0
M  V30 8318 H 789.447 4.59289 -0.372865 0
M  V30 8319 H 787.762 4.16015 -0.17902 0
M  V30 8320 H 790.359 4.70012 2.54937 0
M  V30 8321 H 790.702 3.01751 2.86796 0
M  V30 8322 H 791.235 3.74762 1.33409 0
M  V30 8323 H 787.974 6.54949 0.268644 0
M  V30 8324 H 787.494 5.73012 1.7725 0
M  V30 8325 H 789.173 6.28148 1.55047 0
M  V30 8326 N 789.305 -0.326896 1.54172 0
M  V30 8327 C 790.238 -1.42591 1.78166 0
M  V30 8328 C 791.216 -1.49837 0.631484 0
M  V30 8329 O 792.4 -1.67298 0.868544 0
M  V30 8330 C 789.527 -2.8071 1.89524 0
M  V30 8331 C 788.573 -2.91012 3.11792 0
M  V30 8332 S 789.406 -2.55763 4.70474 0
M  V30 8333 C 790.562 -3.9596 4.84733 0
M  V30 8334 H 790.795 -1.22024 2.71104 0
M  V30 8335 H 788.328 -0.523539 1.45253 0
M  V30 8336 H 790.286 -3.60276 1.96753 0
M  V30 8337 H 788.947 -2.98562 0.975696 0
M  V30 8338 H 788.14 -3.92258 3.16464 0
M  V30 8339 H 787.742 -2.19414 3.02876 0
M  V30 8340 H 790.034 -4.90676 4.67166 0
M  V30 8341 H 790.977 -3.96273 5.86833 0
M  V30 8342 H 791.385 -3.8476 4.13062 0
M  V30 8343 N 790.784 -1.46188 -0.588786 0
M  V30 8344 C 792.032 -1.50885 -1.34455 0
M  V30 8345 C 792.353 -0.159555 -1.94346 0
M  V30 8346 O 791.623 0.813239 -1.78222 0
M  V30 8347 H 790.203 -0.555707 -0.499198 0
M  V30 8348 H 792.865 -1.82277 -0.690014 0
M  V30 8349 H 791.961 -2.25816 -2.15438 0
M  V30 8350 N 792.262 0.832906 -1.33792 0
M  V30 8351 C 793.225 1.92471 -1.24449 0
M  V30 8352 C 794.225 1.59981 -0.162085 0
M  V30 8353 O 795.415 1.69208 -0.414029 0
M  V30 8354 C 792.547 3.28278 -0.919044 0
M  V30 8355 H 793.74 2.0218 -2.21502 0
M  V30 8356 H 791.293 1.0257 -1.17936 0
M  V30 8357 H 792.028 3.24263 0.048738 0
M  V30 8358 H 791.813 3.53241 -1.70187 0
M  V30 8359 H 793.303 4.08253 -0.878576 0
M  V30 8360 N 793.74 1.17359 1.05189 0
M  V30 8361 C 794.988 0.960087 1.77839 0
M  V30 8362 C 795.309 -0.512554 1.88143 0
M  V30 8363 O 794.579 -1.3721 1.39822 0
M  V30 8364 H 793.159 0.352234 0.658741 0
M  V30 8365 H 795.821 1.47834 1.27008 0
M  V30 8366 H 794.917 1.38843 2.79516 0
M  V30 8367 N 795.218 -1.23913 0.973828 0
M  V30 8368 C 796.458 -1.93889 0.647015 0
M  V30 8369 C 796.822 -1.74368 -0.803735 0
M  V30 8370 O 798.023 -2.38435 -1.24106 0
M  V30 8371 C 796.294 -3.4257 1.01885 0
M  V30 8372 S 797.853 -4.31306 0.807517 0
M  V30 8373 H 794.671 -0.670279 0.237165 0
M  V30 8374 H 797.273 -1.50144 1.25208 0
M  V30 8375 H 795.977 -3.54286 2.07146 0
M  V30 8376 H 795.508 -3.91312 0.404812 0
M  V30 8377 H 797.523 -4.95218 -0.311986 0
M  V30 8378 N 796.696 -0.74468 -1.38897 0
M  V30 8379 C 797.924 -0.307428 -2.04603 0
M  V30 8380 C 798.339 1.06115 -1.56157 0
M  V30 8381 O 797.696 1.67233 -0.730701 0
M  V30 8382 C 797.747 -0.31101 -3.6016 0
M  V30 8383 O 797.468 -1.62557 -4.06825 0
M  V30 8384 C 798.969 0.141213 -4.43075 0
M  V30 8385 H 796.189 -0.132741 -0.657739 0
M  V30 8386 H 798.733 -1.01104 -1.77759 0
M  V30 8387 H 796.888 0.343792 -3.85872 0
M  V30 8388 H 797.302 -1.54569 -5.01207 0
M  V30 8389 H 798.776 0.0875449 -5.51931 0
M  V30 8390 H 799.253 1.18782 -4.22833 0
M  V30 8391 H 799.859 -0.484383 -4.22533 0
M  V30 8392 N 798.174 1.49689 -0.493057 0
M  V30 8393 C 799.137 2.27502 0.278485 0
M  V30 8394 C 800.137 1.33184 0.901037 0
M  V30 8395 O 801.327 1.56415 0.766801 0
M  V30 8396 C 798.459 3.10881 1.39878 0
M  V30 8397 H 799.652 2.97163 -0.404219 0
M  V30 8398 H 797.205 1.54324 -0.247774 0
M  V30 8399 H 797.94 2.45767 2.11587 0
M  V30 8400 H 797.725 3.80219 0.957924 0
M  V30 8401 H 799.215 3.69673 1.94247 0
M  V30 8402 N 799.652 0.226554 1.55963 0
M  V30 8403 C 800.582 -0.676079 2.23498 0
M  V30 8404 C 801.563 -1.19718 1.20837 0
M  V30 8405 O 802.748 -1.24027 1.49436 0
M  V30 8406 C 799.878 -1.88217 2.91876 0
M  V30 8407 C 798.832 -1.4947 4.01052 0
M  V30 8408 C 798.158 -2.77997 4.56751 0
M  V30 8409 C 799.458 -0.680951 5.17842 0
M  V30 8410 H 801.152 -0.112989 2.99187 0
M  V30 8411 H 798.698 -0.0529046 1.43903 0
M  V30 8412 H 800.651 -2.51911 3.37815 0
M  V30 8413 H 799.375 -2.47031 2.13643 0
M  V30 8414 H 798.034 -0.881199 3.55852 0
M  V30 8415 H 797.682 -3.34966 3.75243 0
M  V30 8416 H 797.382 -2.52803 5.30438 0
M  V30 8417 H 798.906 -3.42625 5.05411 0
M  V30 8418 H 800.32 -1.22171 5.60131 0
M  V30 8419 H 798.717 -0.525898 5.97791 0
M  V30 8420 H 799.787 0.311346 4.83899 0
M  V30 8421 N 801.13 -1.57531 -0.0467866 0
M  V30 8422 C 802.376 -1.8873 -0.742218 0
M  V30 8423 C 802.709 -0.822084 -1.75941 0
M  V30 8424 O 801.984 0.164922 -1.938 0
M  V30 8425 C 802.267 -3.30586 -1.42776 0
M  V30 8426 C 802.12 -4.47785 -0.425285 0
M  V30 8427 C 803.439 -3.71068 -2.36636 0
M  V30 8428 H 800.558 -0.686406 -0.268359 0
M  V30 8429 H 803.2 -1.89999 -0.00511341 0
M  V30 8430 H 801.35 -3.29634 -2.05605 0
M  V30 8431 H 803.022 -4.60867 0.199721 0
M  V30 8432 H 801.265 -4.33037 0.25713 0
M  V30 8433 H 801.936 -5.43884 -0.943086 0
M  V30 8434 H 804.412 -3.73273 -1.83866 0
M  V30 8435 H 803.288 -4.71165 -2.81593 0
M  V30 8436 H 803.549 -3.02355 -3.22542 0
M  V30 8437 N 802.608 0.318715 -1.54344 0
M  V30 8438 C 803.854 1.05765 -1.73037 0
M  V30 8439 C 804.187 1.87514 -0.505181 0
M  V30 8440 O 803.462 1.88021 0.497838 0
M  V30 8441 C 803.745 1.97836 -3.00887 0
M  V30 8442 C 803.598 1.19384 -4.33668 0
M  V30 8443 C 804.917 2.97285 -3.24514 0
M  V30 8444 H 802.036 0.383104 -0.629603 0
M  V30 8445 H 804.678 0.333864 -1.87044 0
M  V30 8446 H 802.828 2.59552 -2.89076 0
M  V30 8447 H 804.5 0.600906 -4.57369 0
M  V30 8448 H 802.743 0.496198 -4.30953 0
M  V30 8449 H 803.414 1.87014 -5.19355 0
M  V30 8450 H 805.89 2.45693 -3.35819 0
M  V30 8451 H 804.766 3.58887 -4.15321 0
M  V30 8452 H 805.027 3.70003 -2.41971 0
M  V30 8453 N 804.086 1.46499 0.581025 0
M  V30 8454 C 805.049 1.5677 1.672 0
M  V30 8455 C 806.049 0.444716 1.54528 0
M  V30 8456 O 807.239 0.709074 1.59116 0
M  V30 8457 C 804.371 1.4896 3.06633 0
M  V30 8458 H 805.564 2.54 1.5945 0
M  V30 8459 H 803.117 1.34334 0.799003 0
M  V30 8460 H 803.852 0.530168 3.19937 0
M  V30 8461 H 803.637 2.30439 3.17239 0
M  V30 8462 H 805.127 1.59237 3.86048 0
M  V30 8463 N 805.565 -0.825799 1.34232 0
M  V30 8464 C 806.811 -1.58419 1.26614 0
M  V30 8465 C 807.144 -1.93503 -0.164341 0
M  V30 8466 O 806.419 -1.59785 -1.109 0
M  V30 8467 C 806.702 -2.8856 2.15418 0
M  V30 8468 C 806.555 -2.60075 3.66989 0
M  V30 8469 C 807.874 -3.90107 2.03726 0
M  V30 8470 H 804.993 -0.574794 0.461282 0
M  V30 8471 H 807.635 -0.951519 1.64457 0
M  V30 8472 H 805.785 -3.42553 1.83275 0
M  V30 8473 H 807.457 -2.12414 4.09485 0
M  V30 8474 H 805.7 -1.93565 3.88221 0
M  V30 8475 H 806.371 -3.52866 4.24488 0
M  V30 8476 H 808.847 -3.45459 2.31942 0
M  V30 8477 H 807.723 -4.78976 2.68092 0
M  V30 8478 H 807.984 -4.30329 1.01337 0
M  V30 8479 N 807.043 -1.17915 -1.04565 0
M  V30 8480 C 808.289 -0.972863 -1.77942 0
M  V30 8481 C 808.622 0.496753 -1.87739 0
M  V30 8482 O 807.897 1.3688 -1.38181 0
M  V30 8483 C 808.18 -1.62227 -3.21488 0
M  V30 8484 C 808.033 -3.16441 -3.19664 0
M  V30 8485 C 809.352 -1.33137 -4.19479 0
M  V30 8486 H 806.471 -0.354843 -0.645953 0
M  V30 8487 H 809.113 -1.45508 -1.22178 0
M  V30 8488 H 807.263 -1.21224 -3.69103 0
M  V30 8489 H 808.935 -3.66544 -2.80077 0
M  V30 8490 H 807.178 -3.48863 -2.57832 0
M  V30 8491 H 807.849 -3.57012 -4.21006 0
M  V30 8492 H 810.325 -1.68654 -3.80388 0
M  V30 8493 H 809.201 -1.81151 -5.18146 0
M  V30 8494 H 809.462 -0.253319 -4.41374 0
M  V30 8495 N 808.521 1.23394 -0.980386 0
M  V30 8496 C 809.484 2.23092 -0.525619 0
M  V30 8497 C 810.484 1.56129 0.384745 0
M  V30 8498 O 811.674 1.73284 0.178439 0
M  V30 8499 C 808.806 3.40074 0.23712 0
M  V30 8500 H 809.999 2.64839 -1.40714 0
M  V30 8501 H 807.552 1.36227 -0.766275 0
M  V30 8502 H 808.287 3.03783 1.13518 0
M  V30 8503 H 808.072 3.89883 -0.416356 0
M  V30 8504 H 809.562 4.14043 0.543892 0
M  V30 8505 N 809.999 0.752036 1.385 0
M  V30 8506 C 811.415 0.42946 1.53713 0
M  V30 8507 C 811.615 -1.0576 1.71514 0
M  V30 8508 O 810.671 -1.84366 1.72527 0
M  V30 8509 C 811.984 1.22735 2.74511 0
M  V30 8510 C 813.532 1.21727 2.8836 0
M  V30 8511 C 814.007 1.99809 4.12117 0
M  V30 8512 N 815.498 1.97062 4.19191 0
M  V30 8513 C 816.233 2.54274 5.13938 0
M  V30 8514 N 815.729 3.20193 6.14368 0
M  V30 8515 N 817.522 2.44212 5.06277 0
M  V30 8516 H 809.673 1.71581 1.25195 0
M  V30 8517 H 811.936 0.727293 0.60807 0
M  V30 8518 H 811.642 2.28032 2.67758 0
M  V30 8519 H 811.516 0.843186 3.67655 0
M  V30 8520 H 813.903 0.172367 2.94596 0
M  V30 8521 H 813.984 1.64094 1.96232 0
M  V30 8522 H 813.628 3.0431 4.06642 0
M  V30 8523 H 813.558 1.54837 5.03322 0
M  V30 8524 H 816.049 1.49054 3.47263 0
M  V30 8525 H 816.362 3.61272 6.83156 0
M  V30 8526 H 814.707 3.24287 6.14705 0
M  V30 8527 H 817.898 1.92343 4.26757 0
M  V30 8528 H 818.071 2.89096 5.79937 0
M  V30 8529 N 811.477 -1.49425 0.500989 0
M  V30 8530 C 812.424 -2.29126 -0.277443 0
M  V30 8531 C 813.394 -1.35522 -0.960363 0
M  V30 8532 O 814.579 -1.64479 -0.967027 0
M  V30 8533 C 811.719 -3.18193 -1.33593 0
M  V30 8534 C 810.832 -4.26854 -0.664791 0
M  V30 8535 C 809.967 -5.03137 -1.70372 0
M  V30 8536 C 809.006 -6.03635 -1.01445 0
M  V30 8537 N 808.143 -6.73083 -1.99758 0
M  V30 8538 H 812.983 -2.95187 0.408458 0
M  V30 8539 H 810.52 -1.45546 0.213275 0
M  V30 8540 H 812.478 -3.68207 -1.96161 0
M  V30 8541 H 811.108 -2.54116 -1.9906 0
M  V30 8542 H 810.16 -3.80328 0.0741708 0
M  V30 8543 H 811.472 -4.9865 -0.122197 0
M  V30 8544 H 810.626 -5.5702 -2.40445 0
M  V30 8545 H 809.365 -4.31114 -2.28017 0
M  V30 8546 H 808.37 -5.48984 -0.299496 0
M  V30 8547 H 809.595 -6.77644 -0.444497 0
M  V30 8548 H 807.541 -6.03832 -2.56365 0
M  V30 8549 H 807.458 -7.40855 -1.50565 0
M  V30 8550 H 808.726 -7.3157 -2.69119 0
M  V30 8551 N 812.955 -0.234822 -1.55841 0
M  V30 8552 C 813.885 0.664217 -2.23854 0
M  V30 8553 C 814.866 1.19076 -1.2147 0
M  V30 8554 O 816.051 1.23232 -1.50091 0
M  V30 8555 C 813.181 1.86666 -2.9287 0
M  V30 8556 C 812.135 1.47341 -4.01839 0
M  V30 8557 C 811.461 2.75571 -4.58219 0
M  V30 8558 C 812.761 0.653479 -5.18196 0
M  V30 8559 H 814.455 0.0971213 -2.99242 0
M  V30 8560 H 812.001 0.0452724 -1.43929 0
M  V30 8561 H 813.954 2.50116 -3.39146 0
M  V30 8562 H 812.678 2.45894 -2.1495 0
M  V30 8563 H 811.337 0.862314 -3.56314 0
M  V30 8564 H 810.985 3.32971 -3.77014 0
M  V30 8565 H 810.685 2.49987 -5.31771 0
M  V30 8566 H 812.209 3.39939 -5.07221 0
M  V30 8567 H 813.623 1.19198 -5.60771 0
M  V30 8568 H 812.02 0.494188 -5.98062 0
M  V30 8569 H 813.09 -0.337004 -4.83728 0
M  V30 8570 N 814.433 1.57553 0.0384317 0
M  V30 8571 C 815.343 2.09333 1.0591 0
M  V30 8572 C 816.359 1.0299 1.40247 0
M  V30 8573 O 817.535 1.34669 1.49754 0
M  V30 8574 C 814.6 2.55468 2.34386 0
M  V30 8575 C 813.661 3.76254 2.06716 0
M  V30 8576 C 812.894 4.20179 3.29067 0
M  V30 8577 O 813.117 3.637 4.39407 0
M  V30 8578 O 812.051 5.12697 3.15317 0
M  V30 8579 H 815.877 2.96683 0.649087 0
M  V30 8580 H 813.462 1.47211 0.254802 0
M  V30 8581 H 815.344 2.85514 3.09935 0
M  V30 8582 H 814.019 1.71234 2.74701 0
M  V30 8583 H 812.926 3.51241 1.28766 0
M  V30 8584 H 814.259 4.61443 1.71263 0
M  V30 8585 N 815.911 -0.310526 1.54511 0
M  V30 8586 C 816.841 -1.38757 1.878 0
M  V30 8587 C 817.822 -1.53353 0.735991 0
M  V30 8588 O 819.007 -1.67018 0.990887 0
M  V30 8589 C 816.137 -2.75327 2.11689 0
M  V30 8590 C 815.091 -2.75506 3.27537 0
M  V30 8591 C 814.417 -4.15275 3.36824 0
M  V30 8592 C 815.717 -2.38093 4.64875 0
M  V30 8593 H 817.411 -1.11146 2.78005 0
M  V30 8594 H 814.957 -0.533232 1.33763 0
M  V30 8595 H 816.91 -3.50752 2.33562 0
M  V30 8596 H 815.634 -3.04443 1.18245 0
M  V30 8597 H 814.293 -2.02538 3.05572 0
M  V30 8598 H 813.941 -4.41553 2.40915 0
M  V30 8599 H 813.641 -4.16299 4.14692 0
M  V30 8600 H 815.165 -4.92493 3.60947 0
M  V30 8601 H 816.579 -3.03232 4.86542 0
M  V30 8602 H 814.976 -2.50345 5.45387 0
M  V30 8603 H 816.046 -1.33227 4.66239 0
M  V30 8604 N 817.389 -1.46805 -0.573248 0
M  V30 8605 C 818.617 -1.56191 -1.3569 0
M  V30 8606 C 819.032 -0.206362 -1.87669 0
M  V30 8607 O 818.389 0.797883 -1.64134 0
M  V30 8608 C 818.44 -2.57433 -2.53792 0
M  V30 8609 O 818.161 -3.87724 -2.03965 0
M  V30 8610 C 819.662 -2.76851 -3.4622 0
M  V30 8611 H 816.882 -0.527907 -0.414192 0
M  V30 8612 H 819.426 -1.92292 -0.695989 0
M  V30 8613 H 817.581 -2.24311 -3.15854 0
M  V30 8614 H 817.995 -4.42909 -2.80948 0
M  V30 8615 H 819.469 -3.5159 -4.25545 0
M  V30 8616 H 819.946 -1.84095 -3.98755 0
M  V30 8617 H 820.552 -3.11107 -2.89987 0
M  V30 8618 N 818.867 0.818669 -1.34668 0
M  V30 8619 C 819.814 1.92983 -1.26595 0
M  V30 8620 C 820.784 1.65506 -0.140315 0
M  V30 8621 O 821.969 1.88063 -0.322005 0
M  V30 8622 C 819.109 3.2932 -1.03163 0
M  V30 8623 C 818.222 3.69061 -2.24539 0
M  V30 8624 C 817.357 4.94368 -1.94355 0
M  V30 8625 C 816.396 5.26702 -3.11851 0
M  V30 8626 N 815.533 6.43187 -2.81522 0
M  V30 8627 H 820.373 1.99219 -2.2162 0
M  V30 8628 H 817.91 0.974612 -1.1018 0
M  V30 8629 H 819.868 4.07897 -0.87613 0
M  V30 8630 H 818.498 3.22584 -0.118045 0
M  V30 8631 H 817.55 2.85842 -2.50995 0
M  V30 8632 H 818.862 3.88924 -3.12313 0
M  V30 8633 H 818.016 5.80742 -1.75566 0
M  V30 8634 H 816.755 4.76515 -1.03848 0
M  V30 8635 H 815.76 4.38823 -3.31231 0
M  V30 8636 H 816.985 5.46492 -4.03142 0
M  V30 8637 H 814.931 6.26783 -1.93596 0
M  V30 8638 H 814.848 6.63243 -3.62829 0
M  V30 8639 H 816.116 7.32621 -2.66247 0
M  V30 8640 N 820.346 1.18468 1.03938 0
M  V30 8641 C 821.309 0.914944 2.10146 0
M  V30 8642 C 822.309 -0.10022 1.60487 0
M  V30 8643 O 823.499 0.133365 1.73689 0
M  V30 8644 C 820.631 0.372993 3.38853 0
M  V30 8645 H 821.824 1.85677 2.35508 0
M  V30 8646 H 819.377 0.996876 1.20383 0
M  V30 8647 H 820.112 -0.57538 3.19155 0
M  V30 8648 H 819.897 1.1048 3.76213 0
M  V30 8649 H 821.387 0.203014 4.17106 0
M  V30 8650 N 821.824 -1.22873 0.986916 0
M  V30 8651 C 822.734 -2.28277 0.540978 0
M  V30 8652 C 823.75 -1.69164 -0.407363 0
M  V30 8653 O 824.926 -1.99504 -0.275674 0
M  V30 8654 C 821.991 -3.46404 -0.143181 0
M  V30 8655 C 821.052 -4.20854 0.847375 0
M  V30 8656 C 820.285 -5.33341 0.19577 0
M  V30 8657 O 820.508 -5.61356 -1.0117 0
M  V30 8658 O 819.442 -5.95169 0.897623 0
M  V30 8659 H 823.268 -2.68578 1.41773 0
M  V30 8660 H 820.853 -1.28927 0.754867 0
M  V30 8661 H 822.735 -4.18096 -0.526676 0
M  V30 8662 H 821.41 -3.08041 -0.994593 0
M  V30 8663 H 820.317 -3.51459 1.28169 0
M  V30 8664 H 821.65 -4.63082 1.6678 0
M  V30 8665 N 823.302 -0.75937 -1.38099 0
M  V30 8666 C 824.249 -0.135508 -2.30402 0
M  V30 8667 C 825.219 0.703356 -1.50473 0
M  V30 8668 O 826.404 0.658287 -1.79084 0
M  V30 8669 C 823.544 0.747228 -3.36913 0
M  V30 8670 C 822.657 -0.106893 -4.31868 0
M  V30 8671 C 821.792 0.779388 -5.25451 0
M  V30 8672 C 820.831 -0.0780179 -6.1205 0
M  V30 8673 N 819.968 0.765545 -6.97914 0
M  V30 8674 H 824.808 -0.9282 -2.83176 0
M  V30 8675 H 822.345 -0.46935 -1.39411 0
M  V30 8676 H 824.303 1.27371 -3.97281 0
M  V30 8677 H 822.933 1.50565 -2.85535 0
M  V30 8678 H 821.985 -0.751063 -3.72912 0
M  V30 8679 H 823.297 -0.768798 -4.9284 0
M  V30 8680 H 822.451 1.37282 -5.90964 0
M  V30 8681 H 821.19 1.47501 -4.6486 0
M  V30 8682 H 820.195 -0.684078 -5.45528 0
M  V30 8683 H 821.42 -0.770786 -6.74712 0
M  V30 8684 H 819.366 1.44601 -6.39864 0
M  V30 8685 H 819.283 0.160666 -7.55829 0
M  V30 8686 H 820.551 1.34377 -7.6783 0
M  V30 8687 N 824.78 1.49157 -0.508906 0
M  V30 8688 C 825.73 2.26215 0.284705 0
M  V30 8689 C 826.714 1.31401 0.928586 0
M  V30 8690 O 827.906 1.56073 0.834877 0
M  V30 8691 C 825.035 3.15906 1.34382 0
M  V30 8692 C 824.121 4.18186 0.705785 0
M  V30 8693 N 824.512 5.05419 -0.196214 0
M  V30 8694 C 822.81 4.35425 0.965457 0
M  V30 8695 C 823.511 5.78977 -0.562222 0
M  V30 8696 N 822.487 5.43553 0.0717389 0
M  V30 8697 H 826.289 2.91033 -0.409543 0
M  V30 8698 H 823.803 1.59104 -0.325508 0
M  V30 8699 H 825.8 3.6975 1.92589 0
M  V30 8700 H 824.46 2.52642 2.03966 0
M  V30 8701 H 825.471 5.14781 -0.567526 0
M  V30 8702 H 822.148 3.83363 1.65346 0
M  V30 8703 H 823.538 6.59192 -1.30062 0
M  V30 8704 N 826.258 0.243083 1.55714 0
M  V30 8705 C 827.504 -0.383287 1.99145 0
M  V30 8706 C 827.837 -1.57868 1.13098 0
M  V30 8707 O 827.112 -1.93535 0.193509 0
M  V30 8708 C 827.395 -0.796879 3.51172 0
M  V30 8709 C 827.248 0.403642 4.47985 0
M  V30 8710 C 828.567 -1.64525 4.08191 0
M  V30 8711 H 825.686 -0.137843 0.723995 0
M  V30 8712 H 828.328 0.343631 1.86867 0
M  V30 8713 H 826.478 -1.41625 3.61766 0
M  V30 8714 H 828.15 1.04204 4.49376 0
M  V30 8715 H 826.393 1.04741 4.20965 0
M  V30 8716 H 827.064 0.0709794 5.51954 0
M  V30 8717 H 829.54 -1.12246 4.00674 0
M  V30 8718 H 828.416 -1.9035 5.14838 0
M  V30 8719 H 828.677 -2.61582 3.56409 0
M  V30 8720 N 827.736 -1.57571 -0.0300757 0
M  V30 8721 C 828.686 -2.02958 -1.03885 0
M  V30 8722 C 829.67 -0.918723 -1.32092 0
M  V30 8723 O 830.862 -1.18262 -1.31694 0
M  V30 8724 C 827.991 -2.51169 -2.34028 0
M  V30 8725 C 827.077 -3.69073 -2.08915 0
M  V30 8726 N 827.468 -4.81831 -1.53858 0
M  V30 8727 C 825.766 -3.76427 -2.39204 0
M  V30 8728 C 826.467 -5.6346 -1.44526 0
M  V30 8729 N 825.443 -5.08545 -1.92048 0
M  V30 8730 H 829.245 -2.8756 -0.607157 0
M  V30 8731 H 826.759 -1.6067 -0.236399 0
M  V30 8732 H 828.756 -2.81944 -3.07104 0
M  V30 8733 H 827.416 -1.67972 -2.77876 0
M  V30 8734 H 828.427 -5.03291 -1.22142 0
M  V30 8735 H 825.104 -3.04029 -2.86134 0
M  V30 8736 H 826.494 -6.64042 -1.02456 0
M  V30 8737 N 829.214 0.302327 -1.54673 0
M  V30 8738 C 830.162 1.39286 -1.86285 0
M  V30 8739 C 831.156 1.52553 -0.736478 0
M  V30 8740 O 832.362 1.54686 -0.92045 0
M  V30 8741 H 828.737 0.465228 -0.590819 0
M  V30 8742 H 830.708 1.09859 -2.77441 0
M  V30 8743 C 829.457 2.75155 -2.12567 0
M  V30 8744 H 828.78 2.65728 -2.98712 0
M  V30 8745 H 830.22 3.50476 -2.38627 0
M  V30 8746 C 828.679 3.23987 -0.923813 0
M  V30 8747 O 829.209 4.01443 -0.143649 0
M  V30 8748 N 827.415 2.81293 -0.72956 0
M  V30 8749 H 826.962 2.18421 -1.36565 0
M  V30 8750 H 826.92 3.14315 0.0730351 0
M  V30 8751 N 830.692 1.47107 0.565454 0
M  V30 8752 C 831.939 1.53308 1.32299 0
M  V30 8753 C 832.267 0.1919 1.93551 0
M  V30 8754 O 831.522 -0.81435 1.77952 0
M  V30 8755 C 831.821 2.59309 2.45954 0
M  V30 8756 C 831.487 4.02827 2.02586 0
M  V30 8757 C 830.149 4.41897 1.90474 0
M  V30 8758 C 832.501 4.92913 1.6937 0
M  V30 8759 C 829.829 5.68898 1.4343 0
M  V30 8760 C 832.181 6.20368 1.238 0
M  V30 8761 C 830.845 6.58327 1.10278 0
M  V30 8762 H 830.115 0.560993 0.484116 0
M  V30 8763 H 832.762 1.80667 0.634965 0
M  V30 8764 H 831.067 2.25676 3.20277 0
M  V30 8765 H 832.764 2.61332 3.04149 0
M  V30 8766 H 829.354 3.71953 2.12952 0
M  V30 8767 H 833.538 4.63433 1.77605 0
M  V30 8768 H 828.794 5.97065 1.31618 0
M  V30 8769 H 832.968 6.89589 0.971586 0
M  V30 8770 H 830.595 7.56628 0.736027 0
M  V30 8771 N 832.17 -0.811516 1.35101 0
M  V30 8772 C 833.103 -1.92872 1.21966 0
M  V30 8773 C 834.081 -1.62236 0.108667 0
M  V30 8774 O 835.265 -1.8647 0.275875 0
M  V30 8775 C 832.392 -3.27152 0.876886 0
M  V30 8776 C 831.438 -3.7674 1.99924 0
M  V30 8777 S 832.271 -3.95132 3.61429 0
M  V30 8778 C 833.427 -5.32322 3.29218 0
M  V30 8779 H 833.66 -2.03718 2.16532 0
M  V30 8780 H 831.193 -0.968352 1.20259 0
M  V30 8781 H 833.151 -4.04729 0.685917 0
M  V30 8782 H 831.812 -3.14059 -0.0506289 0
M  V30 8783 H 831.005 -4.73981 1.71343 0
M  V30 8784 H 830.607 -3.06145 2.14829 0
M  V30 8785 H 832.899 -6.1614 2.8174 0
M  V30 8786 H 833.842 -5.65893 4.25641 0
M  V30 8787 H 834.25 -4.98374 2.65111 0
M  V30 8788 N 833.648 -1.19017 -1.03309 0
M  V30 8789 C 834.581 -0.867457 -2.1107 0
M  V30 8790 C 835.559 0.173752 -1.61669 0
M  V30 8791 O 836.743 0.0510077 -1.88431 0
M  V30 8792 C 833.87 -0.297459 -3.37391 0
M  V30 8793 C 832.916 -1.31706 -4.05655 0
M  V30 8794 S 833.749 -2.87591 -4.51721 0
M  V30 8795 C 834.905 -2.32122 -5.81266 0
M  V30 8796 H 835.138 -1.78008 -2.38119 0
M  V30 8797 H 832.671 -1.01686 -1.16187 0
M  V30 8798 H 834.629 0.0248889 -4.10492 0
M  V30 8799 H 833.29 0.5934 -3.08444 0
M  V30 8800 H 832.483 -0.867264 -4.96482 0
M  V30 8801 H 832.085 -1.58603 -3.38705 0
M  V30 8802 H 834.377 -1.70855 -6.55603 0
M  V30 8803 H 835.32 -3.2128 -6.31019 0
M  V30 8804 H 835.728 -1.74858 -5.36736 0
M  V30 8805 N 835.127 1.22348 -0.993418 0
M  V30 8806 C 836.404 1.86632 -0.585495 0
M  V30 8807 C 836.784 1.89156 0.937187 0
M  V30 8808 O 836.132 1.38247 1.81934 0
M  V30 8809 C 836.342 3.27481 -1.20652 0
M  V30 8810 C 837.69 4.03971 -1.30738 0
M  V30 8811 O 838.714 3.3675 -1.16096 0
M  V30 8812 O 837.573 5.24302 -1.54173 0
M  V30 8813 H 834.667 0.802704 -0.198984 0
M  V30 8814 H 837.213 1.30122 -1.08933 0
M  V30 8815 H 835.985 3.20281 -2.24802 0
M  V30 8816 H 835.608 3.91597 -0.688312 0
M  V30 8817 N 836.605 0.766683 1.37694 0
M  V30 8818 C 837.833 0.339939 2.04088 0
M  V30 8819 C 838.248 -1.03617 1.57826 0
M  V30 8820 O 837.605 -1.6605 0.757214 0
M  V30 8821 C 837.656 0.368269 3.59619 0
M  V30 8822 O 837.377 1.69009 4.04188 0
M  V30 8823 C 838.878 -0.0707053 4.43244 0
M  V30 8824 H 836.098 0.143189 0.655544 0
M  V30 8825 H 838.642 1.03919 1.76128 0
M  V30 8826 H 836.797 -0.282359 3.8637 0
M  V30 8827 H 837.211 1.62523 4.98685 0
M  V30 8828 H 838.685 0.000273538 5.52 0
M  V30 8829 H 839.162 -1.1204 4.24669 0
M  V30 8830 H 839.768 0.551543 4.21709 0
M  V30 8831 N 838.083 -1.48885 0.516809 0
M  V30 8832 C 839.015 -2.27357 -0.290061 0
M  V30 8833 C 840.028 -1.34558 -0.916406 0
M  V30 8834 O 841.217 -1.59715 -0.797073 0
M  V30 8835 C 838.317 -3.07496 -1.42476 0
M  V30 8836 C 837.49 -4.27982 -0.902793 0
M  V30 8837 C 836.549 -4.90038 -1.91701 0
M  V30 8838 O 835.575 -5.49643 -1.47922 0
M  V30 8839 N 836.777 -4.811 -3.24843 0
M  V30 8840 H 839.542 -2.97244 0.382884 0
M  V30 8841 H 837.103 -1.58064 0.35032 0
M  V30 8842 H 839.095 -3.45882 -2.10113 0
M  V30 8843 H 837.665 -2.40115 -2.00159 0
M  V30 8844 H 836.885 -3.94167 -0.0508272 0
M  V30 8845 H 838.173 -5.06003 -0.532723 0
M  V30 8846 H 837.571 -4.33801 -3.63088 0
M  V30 8847 H 836.128 -5.23625 -3.8815 0
M  V30 8848 N 839.561 -0.251338 -1.55583 0
M  V30 8849 C 840.491 0.640437 -2.24545 0
M  V30 8850 C 841.472 1.17781 -1.22726 0
M  V30 8851 O 842.657 1.21633 -1.5139 0
M  V30 8852 C 839.787 1.8355 -2.94834 0
M  V30 8853 C 838.741 1.4307 -4.03379 0
M  V30 8854 C 838.067 2.70695 -4.61116 0
M  V30 8855 C 839.367 0.59848 -5.1886 0
M  V30 8856 H 841.061 0.0653772 -2.99329 0
M  V30 8857 H 838.607 0.0300042 -1.43969 0
M  V30 8858 H 840.56 2.46505 -3.4178 0
M  V30 8859 H 839.284 2.43601 -2.17546 0
M  V30 8860 H 837.943 0.824474 -3.57209 0
M  V30 8861 H 837.591 3.28954 -3.80524 0
M  V30 8862 H 837.291 2.44332 -5.34393 0
M  V30 8863 H 838.815 3.34541 -5.10798 0
M  V30 8864 H 840.229 1.13244 -5.62004 0
M  V30 8865 H 838.626 0.430728 -5.98552 0
M  V30 8866 H 839.696 -0.38829 -4.83343 0
M  V30 8867 N 841.039 1.57585 0.0217189 0
M  V30 8868 C 842.267 1.93871 0.722619 0
M  V30 8869 C 842.682 0.851706 1.68498 0
M  V30 8870 O 842.039 -0.17127 1.81695 0
M  V30 8871 C 842.09 3.30114 1.47333 0
M  V30 8872 O 841.811 4.34639 0.549597 0
M  V30 8873 C 843.312 3.80727 2.27072 0
M  V30 8874 H 840.532 0.639671 0.202637 0
M  V30 8875 H 843.076 2.04487 -0.0229414 0
M  V30 8876 H 841.231 3.20872 2.17071 0
M  V30 8877 H 841.645 5.13326 1.07686 0
M  V30 8878 H 843.119 4.78547 2.75131 0
M  V30 8879 H 843.596 3.12301 3.08812 0
M  V30 8880 H 844.202 3.93075 1.62395 0
M  V30 8881 N 842.517 -0.29412 1.54831 0
M  V30 8882 C 843.464 -1.36296 1.86258 0
M  V30 8883 C 844.434 -1.50061 0.712097 0
M  V30 8884 O 845.619 -1.64809 0.961381 0
M  V30 8885 C 842.759 -2.72187 2.12151 0
M  V30 8886 C 841.872 -2.66816 3.39755 0
M  V30 8887 C 841.007 -3.94747 3.55455 0
M  V30 8888 C 840.046 -3.838 4.76827 0
M  V30 8889 N 839.183 -5.03521 4.89296 0
M  V30 8890 H 844.023 -1.08796 2.7743 0
M  V30 8891 H 841.56 -0.526069 1.37371 0
M  V30 8892 H 843.518 -3.51225 2.25159 0
M  V30 8893 H 842.148 -2.97934 1.24237 0
M  V30 8894 H 841.2 -1.79605 3.3533 0
M  V30 8895 H 842.512 -2.5462 4.28917 0
M  V30 8896 H 841.666 -4.82223 3.68166 0
M  V30 8897 H 840.405 -4.09785 2.64438 0
M  V30 8898 H 839.41 -2.94708 4.64141 0
M  V30 8899 H 840.635 -3.70301 5.69258 0
M  V30 8900 H 838.581 -5.1901 4.01204 0
M  V30 8901 H 838.498 -4.93775 5.72471 0
M  V30 8902 H 839.766 -5.92629 5.06371 0
M  V30 8903 N 843.995 -1.47404 -0.557645 0
M  V30 8904 C 845.411 -1.32913 -0.88353 0
M  V30 8905 C 845.611 -0.31929 -1.98954 0
M  V30 8906 O 844.667 0.26934 -2.51059 0
M  V30 8907 C 845.98 -2.72229 -1.27718 0
M  V30 8908 C 847.528 -2.8051 -1.38863 0
M  V30 8909 C 848.003 -4.20466 -1.81583 0
M  V30 8910 N 849.494 -4.23005 -1.88735 0
M  V30 8911 C 850.229 -5.2821 -2.23118 0
M  V30 8912 N 849.725 -6.4372 -2.56117 0
M  V30 8913 N 851.518 -5.15588 -2.23888 0
M  V30 8914 H 843.669 -2.11698 0.172557 0
M  V30 8915 H 845.932 -0.947889 0.0145334 0
M  V30 8916 H 845.638 -3.47556 -0.538329 0
M  V30 8917 H 845.512 -3.03971 -2.23342 0
M  V30 8918 H 847.899 -2.05457 -2.11829 0
M  V30 8919 H 847.98 -2.52423 -0.414274 0
M  V30 8920 H 847.624 -4.96025 -1.09187 0
M  V30 8921 H 847.554 -4.45977 -2.80021 0
M  V30 8922 H 850.045 -3.39674 -1.65621 0
M  V30 8923 H 850.358 -7.19754 -2.81378 0
M  V30 8924 H 848.703 -6.47041 -2.53698 0
M  V30 8925 H 851.894 -4.24374 -1.97546 0
M  V30 8926 H 852.067 -5.97685 -2.50353 0
M  V30 8927 N 845.473 0.80434 -1.35529 0
M  V30 8928 C 846.722 1.55665 -1.28263 0
M  V30 8929 C 847.035 1.95096 0.140352 0
M  V30 8930 O 848.241 2.69422 0.335303 0
M  V30 8931 C 846.697 2.80935 -2.24952 0
M  V30 8932 C 846.305 2.48733 -3.72607 0
M  V30 8933 C 848.049 3.5894 -2.26632 0
M  V30 8934 C 845.956 3.70308 -4.61114 0
M  V30 8935 H 844.886 0.584301 -0.476559 0
M  V30 8936 H 847.537 0.88395 -1.60806 0
M  V30 8937 H 845.919 3.49927 -1.85383 0
M  V30 8938 H 847.093 1.87733 -4.20824 0
M  V30 8939 H 845.408 1.83969 -3.73557 0
M  V30 8940 H 848.005 4.49244 -2.89973 0
M  V30 8941 H 848.348 3.96433 -1.27069 0
M  V30 8942 H 848.881 2.96912 -2.64742 0
M  V30 8943 H 845.62 3.37922 -5.61684 0
M  V30 8944 H 845.14 4.30526 -4.17621 0
M  V30 8945 H 846.819 4.37511 -4.76648 0
M  V30 8946 N 846.951 1.19563 1.02676 0
M  V30 8947 C 847.898 0.935291 2.11 0
M  V30 8948 C 848.868 -0.130685 1.65585 0
M  V30 8949 O 850.053 0.0119062 1.90796 0
M  V30 8950 C 847.193 0.482384 3.41712 0
M  V30 8951 C 846.306 1.61537 4.00662 0
M  V30 8952 C 845.441 1.11378 5.19392 0
M  V30 8953 C 844.48 2.22052 5.70403 0
M  V30 8954 N 843.617 1.73185 6.80405 0
M  V30 8955 H 848.457 1.86275 2.32606 0
M  V30 8956 H 845.994 0.928656 1.14081 0
M  V30 8957 H 847.952 0.20118 4.16715 0
M  V30 8958 H 846.582 -0.408086 3.2021 0
M  V30 8959 H 845.634 2.01173 3.22852 0
M  V30 8960 H 846.946 2.44912 4.34534 0
M  V30 8961 H 846.1 0.787935 6.01562 0
M  V30 8962 H 844.839 0.249789 4.8706 0
M  V30 8963 H 843.844 2.55465 4.86845 0
M  V30 8964 H 845.069 3.08911 6.04774 0
M  V30 8965 H 843.015 0.890973 6.49921 0
M  V30 8966 H 842.932 2.50148 7.13416 0
M  V30 8967 H 844.2 1.4357 7.66164 0
M  V30 8968 N 848.429 -1.21819 0.999893 0
M  V30 8969 C 849.377 -2.26027 0.549047 0
M  V30 8970 C 850.371 -1.64516 -0.403826 0
M  V30 8971 O 851.577 -1.77878 -0.275578 0
M  V30 8972 H 847.952 -0.734958 0.159185 0
M  V30 8973 H 849.923 -2.61398 1.43923 0
M  V30 8974 C 848.672 -3.47514 -0.11369 0
M  V30 8975 H 847.995 -3.95112 0.610482 0
M  V30 8976 H 849.435 -4.22179 -0.3925 0
M  V30 8977 C 847.894 -3.08614 -1.35126 0
M  V30 8978 O 848.424 -3.1864 -2.44605 0
M  V30 8979 N 846.63 -2.63327 -1.22911 0
M  V30 8980 H 846.177 -2.55369 -0.338288 0
M  V30 8981 H 846.135 -2.37668 -2.05818 0
M  V30 8982 N 849.908 -0.773975 -1.37286 0
M  V30 8983 C 850.871 -0.167974 -2.28584 0
M  V30 8984 C 851.871 0.625662 -1.48129 0
M  V30 8985 O 853.061 0.448924 -1.68316 0
M  V30 8986 C 850.193 0.769364 -3.32105 0
M  V30 8987 H 851.386 -0.972806 -2.83684 0
M  V30 8988 H 848.939 -0.542335 -1.46589 0
M  V30 8989 H 849.674 1.59912 -2.82132 0
M  V30 8990 H 849.459 0.202419 -3.91577 0
M  V30 8991 H 850.949 1.18872 -4.00324 0
M  V30 8992 N 851.386 1.48609 -0.524698 0
M  V30 8993 C 852.349 2.28041 0.230166 0
M  V30 8994 C 853.349 1.35065 0.872584 0
M  V30 8995 O 854.539 1.58007 0.73345 0
M  V30 8996 C 851.671 3.13778 1.33252 0
M  V30 8997 H 852.864 2.96239 -0.467161 0
M  V30 8998 H 850.417 1.53763 -0.280452 0
M  V30 8999 H 851.152 2.502 2.06327 0
M  V30 9000 H 850.937 3.82165 0.877058 0
M  V30 9001 H 852.427 3.7371 1.86362 0
M  V30 9002 N 852.864 0.259585 1.55447 0
M  V30 9003 C 853.827 -0.621359 2.20617 0
M  V30 9004 C 854.827 -1.09317 1.17925 0
M  V30 9005 O 856.017 -0.995842 1.42929 0
M  V30 9006 C 853.149 -1.85546 2.85982 0
M  V30 9007 H 854.342 -0.0525833 2.99854 0
M  V30 9008 H 851.895 0.0101055 1.56297 0
M  V30 9009 H 852.63 -2.46515 2.10715 0
M  V30 9010 H 852.415 -1.52523 3.61219 0
M  V30 9011 H 853.905 -2.48227 3.35817 0
M  V30 9012 N 854.342 -1.57594 -0.0133615 0
M  V30 9013 C 855.29 -2.08682 -1.02736 0
M  V30 9014 C 856.284 -1.00391 -1.36448 0
M  V30 9015 O 857.49 -1.18868 -1.35168 0
M  V30 9016 H 853.865 -0.666158 -0.34891 0
M  V30 9017 H 855.836 -2.9289 -0.570815 0
M  V30 9018 C 854.585 -2.5945 -2.31476 0
M  V30 9019 H 853.908 -3.42401 -2.06401 0
M  V30 9020 H 855.348 -2.98888 -3.00735 0
M  V30 9021 C 853.807 -1.50266 -3.01533 0
M  V30 9022 O 854.337 -0.877875 -3.9199 0
M  V30 9023 N 852.543 -1.23336 -2.63129 0
M  V30 9024 H 852.09 -1.74327 -1.89652 0
M  V30 9025 H 852.048 -0.504987 -3.10318 0
M  V30 9026 N 855.82 0.285905 -1.54985 0
M  V30 9027 C 857.066 1.02071 -1.75241 0
M  V30 9028 C 857.399 1.864 -0.544842 0
M  V30 9029 O 856.674 1.89034 0.457844 0
M  V30 9030 C 856.957 1.91409 -3.05016 0
M  V30 9031 C 856.81 1.10158 -4.36102 0
M  V30 9032 C 858.129 2.90335 -3.30747 0
M  V30 9033 H 855.248 0.369663 -0.637588 0
M  V30 9034 H 857.89 0.294114 -1.8771 0
M  V30 9035 H 856.04 2.53362 -2.94517 0
M  V30 9036 H 857.712 0.503756 -4.58541 0
M  V30 9037 H 855.955 0.404675 -4.31908 0
M  V30 9038 H 856.626 1.75956 -5.23205 0
M  V30 9039 H 859.102 2.38514 -3.40955 0
M  V30 9040 H 857.978 3.49997 -4.2284 0
M  V30 9041 H 858.239 3.64787 -2.49765 0
M  V30 9042 N 857.298 1.47698 0.54982 0
M  V30 9043 C 858.228 1.63622 1.66583 0
M  V30 9044 C 859.209 0.485477 1.63025 0
M  V30 9045 O 860.394 0.715692 1.80531 0
M  V30 9046 C 857.524 1.65721 3.05211 0
M  V30 9047 C 856.478 2.80097 3.2362 0
M  V30 9048 C 855.804 2.67272 4.63109 0
M  V30 9049 C 857.104 4.21612 3.08286 0
M  V30 9050 H 858.798 2.57049 1.53512 0
M  V30 9051 H 856.344 1.23705 0.737099 0
M  V30 9052 H 858.297 1.75451 3.83138 0
M  V30 9053 H 857.021 0.688593 3.19258 0
M  V30 9054 H 855.68 2.69889 2.48104 0
M  V30 9055 H 855.328 1.68422 4.73965 0
M  V30 9056 H 855.028 3.44008 4.76374 0
M  V30 9057 H 856.552 2.78942 5.43161 0
M  V30 9058 H 857.966 4.32758 3.76024 0
M  V30 9059 H 856.363 4.99193 3.33057 0
M  V30 9060 H 857.433 4.39462 2.04942 0
M  V30 9061 N 858.776 -0.797141 1.35954 0
M  V30 9062 C 860.192 -1.09408 1.16198 0
M  V30 9063 C 860.392 -2.01491 -0.0191682 0
M  V30 9064 O 859.448 -2.42977 -0.686902 0
M  V30 9065 C 860.761 -1.71597 2.46931 0
M  V30 9066 C 862.309 -1.83974 2.53224 0
M  V30 9067 C 862.784 -2.49579 3.84024 0
M  V30 9068 N 864.275 -2.57055 3.85327 0
M  V30 9069 C 865.01 -3.08608 4.83268 0
M  V30 9070 N 864.506 -3.60527 5.91601 0
M  V30 9071 N 866.299 -3.07249 4.70696 0
M  V30 9072 H 858.45 -0.185209 2.11591 0
M  V30 9073 H 860.713 -0.144768 0.936881 0
M  V30 9074 H 860.419 -1.11404 3.3359 0
M  V30 9075 H 860.293 -2.71193 2.62172 0
M  V30 9076 H 862.68 -2.43308 1.66988 0
M  V30 9077 H 862.761 -0.83207 2.41889 0
M  V30 9078 H 862.405 -1.90892 4.70662 0
M  V30 9079 H 862.335 -3.50902 3.92651 0
M  V30 9080 H 864.826 -2.20283 3.07057 0
M  V30 9081 H 865.139 -3.98192 6.62317 0
M  V30 9082 H 863.484 -3.587 5.95281 0
M  V30 9083 H 866.675 -2.65972 3.85197 0
M  V30 9084 H 866.848 -3.47119 5.47186 0
M  V30 9085 N 860.254 -1.20106 -1.0204 0
M  V30 9086 C 861.164 -0.962051 -2.13967 0
M  V30 9087 C 862.18 0.0808053 -1.73812 0
M  V30 9088 O 863.356 -0.105774 -2.01122 0
M  V30 9089 C 860.421 -0.513108 -3.42882 0
M  V30 9090 C 859.482 -1.62636 -3.97301 0
M  V30 9091 C 858.715 -1.19875 -5.20063 0
M  V30 9092 O 858.938 -0.0658423 -5.70362 0
M  V30 9093 O 857.872 -2.00467 -5.67536 0
M  V30 9094 H 861.698 -1.8991 -2.36998 0
M  V30 9095 H 859.283 -0.984608 -1.12365 0
M  V30 9096 H 861.165 -0.271797 -4.20523 0
M  V30 9097 H 859.84 0.395402 -3.21276 0
M  V30 9098 H 858.747 -1.92192 -3.20957 0
M  V30 9099 H 860.08 -2.51174 -4.23288 0
M  V30 9100 N 861.732 1.21287 -1.00634 0
M  V30 9101 C 862.96 1.94385 -0.708678 0
M  V30 9102 C 863.375 1.7416 0.728957 0
M  V30 9103 O 862.732 1.04906 1.49335 0
M  V30 9104 C 862.783 3.46755 -1.02193 0
M  V30 9105 O 862.504 3.6631 -2.40309 0
M  V30 9106 C 864.005 4.37014 -0.743867 0
M  V30 9107 H 861.225 0.618136 -0.261052 0
M  V30 9108 H 863.769 1.54067 -1.34475 0
M  V30 9109 H 861.924 3.8499 -0.431441 0
M  V30 9110 H 862.338 4.60393 -2.51274 0
M  V30 9111 H 863.812 5.42621 -1.01321 0
M  V30 9112 H 864.289 4.38017 0.322084 0
M  V30 9113 H 864.895 4.04426 -1.31603 0
M  V30 9114 N 863.21 0.781244 1.36873 0
M  V30 9115 C 864.456 0.359455 2.00199 0
M  V30 9116 C 864.811 -1.05495 1.60899 0
M  V30 9117 O 864.104 -1.7173 0.849664 0
M  V30 9118 C 864.298 0.45146 3.54537 0
M  V30 9119 C 864.127 1.87326 4.08826 0
M  V30 9120 C 862.897 2.49606 4.39346 0
M  V30 9121 C 865.095 2.8342 4.29159 0
M  V30 9122 N 863.077 3.8346 4.79408 0
M  V30 9123 C 864.448 4.02091 4.71935 0
M  V30 9124 C 866.503 2.80583 4.11312 0
M  V30 9125 C 865.206 5.18322 4.98733 0
M  V30 9126 C 867.232 3.95995 4.39251 0
M  V30 9127 C 866.594 5.13409 4.82276 0
M  V30 9128 H 862.693 0.178778 0.76129 0
M  V30 9129 H 865.277 1.0171 1.66022 0
M  V30 9130 H 863.448 -0.176055 3.88001 0
M  V30 9131 H 865.18 0.00670219 4.04699 0
M  V30 9132 H 861.935 2.01149 4.28761 0
M  V30 9133 H 862.359 4.52306 5.03735 0
M  V30 9134 H 867.001 1.90974 3.77212 0
M  V30 9135 H 864.719 6.08524 5.31718 0
M  V30 9136 H 868.305 3.95152 4.2702 0
M  V30 9137 H 867.185 6.01232 5.03478 0
M  V30 9138 N 864.689 -1.48329 0.532571 0
M  V30 9139 C 865.619 -2.32485 -0.217511 0
M  V30 9140 C 866.6 -1.42255 -0.932598 0
M  V30 9141 O 867.785 -1.7114 -0.917873 0
M  V30 9142 C 864.915 -3.23509 -1.26329 0
M  V30 9143 C 863.869 -4.22784 -0.666191 0
M  V30 9144 C 863.195 -5.0296 -1.81482 0
M  V30 9145 C 864.495 -5.21031 0.363813 0
M  V30 9146 H 866.189 -2.95445 0.485014 0
M  V30 9147 H 863.735 -1.42075 0.234694 0
M  V30 9148 H 865.688 -3.81211 -1.79601 0
M  V30 9149 H 864.412 -2.58554 -1.99543 0
M  V30 9150 H 863.071 -3.66272 -0.15498 0
M  V30 9151 H 862.719 -4.34427 -2.5354 0
M  V30 9152 H 862.419 -5.70154 -1.4212 0
M  V30 9153 H 863.943 -5.63514 -2.35126 0
M  V30 9154 H 865.357 -5.73241 -0.0819079 0
M  V30 9155 H 863.754 -5.96292 0.674956 0
M  V30 9156 H 864.824 -4.6801 1.26865 0
M  V30 9157 N 866.167 -0.267825 -1.55308 0
M  V30 9158 C 867.416 0.351635 -1.98611 0
M  V30 9159 C 867.729 1.57522 -1.15957 0
M  V30 9160 O 868.935 2.26717 -1.49371 0
M  V30 9161 C 867.391 0.676986 -3.53475 0
M  V30 9162 C 866.999 -0.526385 -4.44897 0
M  V30 9163 C 868.743 1.25948 -4.05386 0
M  V30 9164 C 866.65 -0.176026 -5.91138 0
M  V30 9165 H 865.58 0.13516 -0.741787 0
M  V30 9166 H 868.231 -0.371333 -1.79704 0
M  V30 9167 H 866.613 1.45866 -3.68156 0
M  V30 9168 H 867.787 -1.30339 -4.41982 0
M  V30 9169 H 866.102 -1.02522 -4.03582 0
M  V30 9170 H 868.699 1.53529 -5.12184 0
M  V30 9171 H 869.042 2.19094 -3.53982 0
M  V30 9172 H 869.575 0.540253 -3.94114 0
M  V30 9173 H 866.314 -1.07518 -6.46622 0
M  V30 9174 H 865.834 0.564363 -5.97139 0
M  V30 9175 H 867.513 0.234365 -6.46575 0
M  V30 9176 N 867.645 1.57599 0.00500368 0
M  V30 9177 C 868.875 1.94344 0.700998 0
M  V30 9178 C 869.283 0.868011 1.68114 0
M  V30 9179 O 868.626 -0.16214 1.82983 0
M  V30 9180 C 868.688 3.27046 1.49268 0
M  V30 9181 C 868.352 4.51992 0.674684 0
M  V30 9182 C 869.349 5.19888 -0.0354833 0
M  V30 9183 C 867.034 4.98432 0.622129 0
M  V30 9184 C 869.028 6.3252 -0.787246 0
M  V30 9185 C 866.715 6.10954 -0.133362 0
M  V30 9186 C 867.713 6.77855 -0.836788 0
M  V30 9187 O 867.401 7.88221 -1.57996 0
M  V30 9188 H 867.133 0.645572 0.20053 0
M  V30 9189 H 869.687 2.0536 -0.040718 0
M  V30 9190 H 867.917 3.12424 2.27877 0
M  V30 9191 H 869.606 3.4894 2.07355 0
M  V30 9192 H 870.372 4.85 -0.00400159 0
M  V30 9193 H 866.251 4.46189 1.15917 0
M  V30 9194 H 869.795 6.84671 -1.33683 0
M  V30 9195 H 865.692 6.45285 -0.166682 0
M  V30 9196 H 866.46 8.0471 -1.49615 0
M  V30 9197 N 869.123 -0.277682 1.55134 0
M  V30 9198 C 870.07 -1.34313 1.87693 0
M  V30 9199 C 871.04 -1.49298 0.727973 0
M  V30 9200 O 872.225 -1.6378 0.978807 0
M  V30 9201 C 869.365 -2.69922 2.15026 0
M  V30 9202 C 868.478 -2.63197 3.42565 0
M  V30 9203 C 867.613 -3.90955 3.59622 0
M  V30 9204 C 866.652 -3.78722 4.8087 0
M  V30 9205 N 865.789 -4.98303 4.94609 0
M  V30 9206 H 870.629 -1.05847 2.78569 0
M  V30 9207 H 868.166 -0.511469 1.37922 0
M  V30 9208 H 870.124 -3.48817 2.28872 0
M  V30 9209 H 868.754 -2.966 1.2739 0
M  V30 9210 H 867.806 -1.76038 3.37216 0
M  V30 9211 H 869.118 -2.50056 4.31594 0
M  V30 9212 H 868.272 -4.78291 3.7326 0
M  V30 9213 H 867.011 -4.06957 2.6877 0
M  V30 9214 H 866.016 -2.89769 4.67241 0
M  V30 9215 H 867.241 -3.64242 5.73153 0
M  V30 9216 H 865.187 -5.14725 4.06687 0
M  V30 9217 H 865.104 -4.87675 5.77676 0
M  V30 9218 H 866.372 -5.87225 5.12628 0
M  V30 9219 N 870.601 -1.47988 -0.541979 0
M  V30 9220 C 871.551 -1.58019 -1.64359 0
M  V30 9221 C 872.535 -0.438056 -1.54822 0
M  V30 9222 O 873.727 -0.688837 -1.63046 0
M  V30 9223 C 870.856 -1.61182 -3.03109 0
M  V30 9224 C 869.942 -2.80834 -3.17794 0
M  V30 9225 N 870.333 -4.05379 -3.02492 0
M  V30 9226 C 868.631 -2.77914 -3.48826 0
M  V30 9227 C 869.332 -4.85592 -3.20274 0
M  V30 9228 N 868.308 -4.18188 -3.47304 0
M  V30 9229 H 872.11 -2.52071 -1.5112 0
M  V30 9230 H 869.624 -1.44193 -0.747137 0
M  V30 9231 H 871.621 -1.66461 -3.82226 0
M  V30 9232 H 870.281 -0.682375 -3.17449 0
M  V30 9233 H 871.292 -4.36003 -2.79503 0
M  V30 9234 H 867.969 -1.94174 -3.69598 0
M  V30 9235 H 869.359 -5.94394 -3.13282 0
M  V30 9236 N 872.079 0.78992 -1.36375 0
M  V30 9237 C 873.307 1.57873 -1.3373 0
M  V30 9238 C 873.722 1.88624 0.0815544 0
M  V30 9239 O 873.079 1.50085 1.03831 0
M  V30 9240 C 873.13 2.90003 -2.15825 0
M  V30 9241 O 872.851 2.60578 -3.5218 0
M  V30 9242 C 874.352 3.84309 -2.20955 0
M  V30 9243 H 871.572 0.489685 -0.458748 0
M  V30 9244 H 874.116 0.980436 -1.79465 0
M  V30 9245 H 872.271 3.46303 -1.73646 0
M  V30 9246 H 872.685 3.4506 -3.95011 0
M  V30 9247 H 874.159 4.74081 -2.82756 0
M  V30 9248 H 874.636 4.22121 -1.21287 0
M  V30 9249 H 875.242 3.33942 -2.63368 0
M  V30 9250 N 873.557 1.20646 1.01402 0
M  V30 9251 C 874.504 0.957618 2.09996 0
M  V30 9252 C 875.474 -0.113115 1.65714 0
M  V30 9253 O 876.659 0.032142 1.90773 0
M  V30 9254 C 873.799 0.5186 3.41181 0
M  V30 9255 C 872.912 1.65777 3.98926 0
M  V30 9256 C 872.047 1.16881 5.18182 0
M  V30 9257 C 871.086 2.2809 5.68015 0
M  V30 9258 N 870.223 1.80392 6.7853 0
M  V30 9259 H 875.063 1.88732 2.30617 0
M  V30 9260 H 872.6 0.940703 1.13089 0
M  V30 9261 H 874.558 0.245367 4.16478 0
M  V30 9262 H 873.188 -0.3741 3.20625 0
M  V30 9263 H 872.24 2.04586 3.207 0
M  V30 9264 H 873.552 2.49507 4.31912 0
M  V30 9265 H 872.706 0.851694 6.00692 0
M  V30 9266 H 871.445 0.301434 4.86768 0
M  V30 9267 H 870.45 2.60614 4.84108 0
M  V30 9268 H 871.675 3.15308 6.01463 0
M  V30 9269 H 869.621 0.959856 6.4894 0
M  V30 9270 H 869.538 2.57701 7.10722 0
M  V30 9271 H 870.806 1.51688 7.64598 0
M  V30 9272 N 875.035 -1.20752 1.01276 0
M  V30 9273 C 875.965 -2.25658 0.600064 0
M  V30 9274 C 876.946 -1.65733 -0.38298 0
M  V30 9275 O 878.131 -1.92324 -0.269256 0
M  V30 9276 C 875.261 -3.47237 -0.0663197 0
M  V30 9277 C 874.215 -4.1973 0.83731 0
M  V30 9278 C 873.541 -5.34687 0.0369102 0
M  V30 9279 C 874.841 -4.76286 2.14357 0
M  V30 9280 H 876.535 -2.60432 1.477 0
M  V30 9281 H 874.081 -1.25187 0.711634 0
M  V30 9282 H 876.034 -4.19803 -0.366563 0
M  V30 9283 H 874.758 -3.11615 -0.977944 0
M  V30 9284 H 873.417 -3.49024 1.1215 0
M  V30 9285 H 873.065 -4.95309 -0.876244 0
M  V30 9286 H 872.765 -5.84119 0.63865 0
M  V30 9287 H 874.289 -6.10059 -0.256968 0
M  V30 9288 H 875.703 -5.40691 1.90595 0
M  V30 9289 H 874.1 -5.36139 2.69583 0
M  V30 9290 H 875.17 -3.9524 2.80916 0
M  V30 9291 N 876.513 -0.788492 -1.36457 0
M  V30 9292 C 877.443 -0.200468 -2.32638 0
M  V30 9293 C 878.424 0.664031 -1.56603 0
M  V30 9294 O 879.609 0.598045 -1.84762 0
M  V30 9295 C 876.739 0.666274 -3.40849 0
M  V30 9296 C 875.693 -0.0982574 -4.27887 0
M  V30 9297 C 875.019 0.889018 -5.27258 0
M  V30 9298 C 876.319 -1.28692 -5.06197 0
M  V30 9299 H 878.013 -1.00399 -2.82065 0
M  V30 9300 H 875.559 -0.484237 -1.35614 0
M  V30 9301 H 877.512 1.08757 -4.07124 0
M  V30 9302 H 876.236 1.50249 -2.89987 0
M  V30 9303 H 874.895 -0.500525 -3.63167 0
M  V30 9304 H 874.543 1.72024 -4.7267 0
M  V30 9305 H 874.243 0.381909 -5.86358 0
M  V30 9306 H 875.767 1.30891 -5.96406 0
M  V30 9307 H 877.181 -0.941429 -5.65517 0
M  V30 9308 H 875.578 -1.72726 -5.74705 0
M  V30 9309 H 876.648 -2.08273 -4.37893 0
M  V30 9310 N 877.991 1.48044 -0.54043 0
M  V30 9311 C 878.938 2.29781 0.216597 0
M  V30 9312 C 879.908 1.38021 0.924094 0
M  V30 9313 O 881.093 1.66985 0.923078 0
M  V30 9314 C 878.233 3.21623 1.2511 0
M  V30 9315 C 877.346 4.28467 0.551384 0
M  V30 9316 C 876.481 5.07477 1.56972 0
M  V30 9317 C 875.52 6.06113 0.854048 0
M  V30 9318 N 874.657 6.78143 1.81842 0
M  V30 9319 H 879.497 2.94001 -0.486578 0
M  V30 9320 H 877.034 1.44929 -0.251789 0
M  V30 9321 H 878.992 3.73279 1.8633 0
M  V30 9322 H 877.622 2.59305 1.92252 0
M  V30 9323 H 876.674 3.79997 -0.174982 0
M  V30 9324 H 877.986 4.98799 -0.0100542 0
M  V30 9325 H 877.14 5.63199 2.25592 0
M  V30 9326 H 875.879 4.37008 2.16507 0
M  V30 9327 H 874.884 5.49585 0.153838 0
M  V30 9328 H 876.109 6.78584 0.264675 0
M  V30 9329 H 874.055 6.10417 2.40265 0
M  V30 9330 H 873.972 7.44587 1.3087 0
M  V30 9331 H 875.24 7.38448 2.49628 0
M  V30 9332 N 879.47 0.276058 1.55163 0
M  V30 9333 C 880.417 -0.611006 2.22565 0
M  V30 9334 C 881.387 -1.14902 1.19945 0
M  V30 9335 O 882.572 -1.19815 1.48489 0
M  V30 9336 C 879.712 -1.78885 2.95117 0
M  V30 9337 C 878.825 -1.2846 4.12458 0
M  V30 9338 C 877.96 -2.42432 4.72652 0
M  V30 9339 C 876.999 -1.89015 5.82185 0
M  V30 9340 N 876.136 -2.96463 6.36439 0
M  V30 9341 H 880.976 -0.0295849 2.97985 0
M  V30 9342 H 878.513 -0.00283607 1.471 0
M  V30 9343 H 880.471 -2.48121 3.35398 0
M  V30 9344 H 879.101 -2.34229 2.22119 0
M  V30 9345 H 878.153 -0.485312 3.77292 0
M  V30 9346 H 879.465 -0.853358 4.91446 0
M  V30 9347 H 878.619 -3.19659 5.15658 0
M  V30 9348 H 877.358 -2.88872 3.92943 0
M  V30 9349 H 876.363 -1.10267 5.38629 0
M  V30 9350 H 877.588 -1.43509 6.63763 0
M  V30 9351 H 875.534 -3.42283 5.59623 0
M  V30 9352 H 875.451 -2.57759 7.10701 0
M  V30 9353 H 876.719 -3.73663 6.84103 0
M  V30 9354 N 880.948 -1.576 0.00335426 0
M  V30 9355 C 882.197 -1.89892 -0.680001 0
M  V30 9356 C 882.51 -0.878731 -1.7475 0
M  V30 9357 O 883.716 -1.09199 -2.48572 0
M  V30 9358 C 882.172 -3.37098 -1.26066 0
M  V30 9359 C 881.78 -4.4742 -0.227807 0
M  V30 9360 C 883.524 -3.78495 -1.92202 0
M  V30 9361 C 881.431 -5.85706 -0.81865 0
M  V30 9362 H 880.361 -0.708578 -0.257746 0
M  V30 9363 H 883.012 -1.83387 0.0644472 0
M  V30 9364 H 881.394 -3.38451 -2.05589 0
M  V30 9365 H 882.568 -4.57589 0.54307 0
M  V30 9366 H 880.883 -4.15064 0.333297 0
M  V30 9367 H 883.48 -4.7915 -2.37318 0
M  V30 9368 H 883.823 -3.12187 -2.75399 0
M  V30 9369 H 884.356 -3.79456 -1.19408 0
M  V30 9370 H 881.095 -6.55495 -0.0253787 0
M  V30 9371 H 880.615 -5.79196 -1.55861 0
M  V30 9372 H 882.294 -6.33469 -1.31627 0
M  V30 9373 N 882.426 0.269451 -1.5528 0
M  V30 9374 C 883.703 1.02207 -1.66773 0
M  V30 9375 C 884.083 2.04168 -0.536536 0
M  V30 9376 O 883.431 2.23761 0.462956 0
M  V30 9377 C 883.641 1.67569 -3.0614 0
M  V30 9378 C 884.989 2.18599 -3.64005 0
M  V30 9379 O 886.013 1.7755 -3.08795 0
M  V30 9380 O 884.872 2.93903 -4.60742 0
M  V30 9381 H 881.966 0.474314 -0.677462 0
M  V30 9382 H 884.512 0.265026 -1.67618 0
M  V30 9383 H 883.284 0.937029 -3.79915 0
M  V30 9384 H 882.907 2.49951 -3.09209 0
M  V30 9385 N 883.904 1.48273 0.534124 0
M  V30 9386 C 884.854 1.58889 1.63519 0
M  V30 9387 C 885.838 0.44626 1.54588 0
M  V30 9388 O 887.03 0.697474 1.62679 0
M  V30 9389 C 884.159 1.62787 3.0225 0
M  V30 9390 C 883.245 2.82515 3.16301 0
M  V30 9391 N 883.636 4.06977 3.00338 0
M  V30 9392 C 881.934 2.7976 3.47347 0
M  V30 9393 C 882.635 4.87283 3.17694 0
M  V30 9394 N 881.611 4.20024 3.45081 0
M  V30 9395 H 885.413 2.52869 1.49781 0
M  V30 9396 H 882.927 1.44587 0.739479 0
M  V30 9397 H 884.924 1.68486 3.81337 0
M  V30 9398 H 883.584 0.699201 3.17082 0
M  V30 9399 H 884.595 4.37479 2.77186 0
M  V30 9400 H 881.272 1.96132 3.68563 0
M  V30 9401 H 882.662 5.96047 3.10126 0
M  V30 9402 N 885.382 -0.782676 1.36792 0
M  V30 9403 C 886.345 -1.8772 1.31507 0
M  V30 9404 C 887.345 -1.59269 0.221349 0
M  V30 9405 O 888.535 -1.67555 0.476544 0
M  V30 9406 C 885.667 -3.24641 1.04025 0
M  V30 9407 H 886.86 -1.9382 2.28853 0
M  V30 9408 H 884.413 -0.981226 1.21662 0
M  V30 9409 H 885.148 -3.24221 0.0716439 0
M  V30 9410 H 884.933 -3.46681 1.8318 0
M  V30 9411 H 886.423 -4.04711 1.02949 0
M  V30 9412 N 886.86 -1.21182 -1.00761 0
M  V30 9413 C 887.807 -0.968741 -2.09485 0
M  V30 9414 C 888.777 0.104325 -1.65772 0
M  V30 9415 O 889.962 -0.0422587 -1.90753 0
M  V30 9416 C 887.102 -0.536686 -3.40901 0
M  V30 9417 C 886.215 -1.6789 -3.98041 0
M  V30 9418 C 885.35 -1.19627 -5.17555 0
M  V30 9419 C 884.389 -2.31099 -5.66798 0
M  V30 9420 N 883.526 -1.83988 -6.77564 0
M  V30 9421 H 888.366 -1.89952 -2.29613 0
M  V30 9422 H 885.903 -0.946688 -1.12589 0
M  V30 9423 H 887.861 -0.26745 -4.16342 0
M  V30 9424 H 886.491 0.357092 -3.20819 0
M  V30 9425 H 885.543 -2.06284 -3.19611 0
M  V30 9426 H 886.855 -2.51794 -4.30582 0
M  V30 9427 H 886.009 -0.883539 -6.00232 0
M  V30 9428 H 884.748 -0.327244 -4.86601 0
M  V30 9429 H 883.753 -2.63178 -4.82719 0
M  V30 9430 H 884.978 -3.18493 -5.99782 0
M  V30 9431 H 882.924 -0.994257 -6.48422 0
M  V30 9432 H 882.841 -2.61466 -7.09346 0
M  V30 9433 H 884.109 -1.55741 -7.63783 0
M  V30 9434 N 888.338 1.20213 -1.01915 0
M  V30 9435 C 889.584 1.89928 -0.711007 0
M  V30 9436 C 889.917 1.7881 0.75767 0
M  V30 9437 O 889.192 1.17399 1.55073 0
M  V30 9438 C 889.475 3.41225 -1.15053 0
M  V30 9439 C 889.328 3.61264 -2.67971 0
M  V30 9440 C 890.647 4.34108 -0.72377 0
M  V30 9441 H 887.766 0.689702 -0.259768 0
M  V30 9442 H 890.408 1.41557 -1.26734 0
M  V30 9443 H 888.558 3.82552 -0.677199 0
M  V30 9444 H 890.23 3.29173 -3.23176 0
M  V30 9445 H 888.473 3.04647 -3.08824 0
M  V30 9446 H 889.144 4.67331 -2.93779 0
M  V30 9447 H 891.62 4.00442 -1.13073 0
M  V30 9448 H 890.496 5.38581 -1.05931 0
M  V30 9449 H 890.757 4.40512 0.374424 0
M  V30 9450 N 889.816 0.795718 1.36037 0
M  V30 9451 C 891.232 0.478145 1.52269 0
M  V30 9452 C 891.432 -1.0025 1.74792 0
M  V30 9453 O 890.488 -1.78783 1.78305 0
M  V30 9454 C 891.801 1.31406 2.70468 0
M  V30 9455 C 893.349 1.3084 2.84341 0
M  V30 9456 C 893.824 2.12819 4.05551 0
M  V30 9457 N 895.315 2.10298 4.12709 0
M  V30 9458 C 896.05 2.70495 5.05589 0
M  V30 9459 N 895.546 3.39576 6.03871 0
M  V30 9460 N 897.339 2.60195 4.98252 0
M  V30 9461 H 889.49 1.75477 1.19673 0
M  V30 9462 H 891.753 0.74627 0.584624 0
M  V30 9463 H 891.459 2.36435 2.60368 0
M  V30 9464 H 891.333 0.959726 3.64786 0
M  V30 9465 H 893.72 0.266003 2.93899 0
M  V30 9466 H 893.801 1.70254 1.90912 0
M  V30 9467 H 893.445 3.17093 3.96755 0
M  V30 9468 H 893.375 1.70772 4.98141 0
M  V30 9469 H 895.866 1.60026 3.42345 0
M  V30 9470 H 896.179 3.82823 6.71317 0
M  V30 9471 H 894.524 3.43679 6.04077 0
M  V30 9472 H 897.715 2.05823 4.20422 0
M  V30 9473 H 897.888 3.074 5.70447 0
M  V30 9474 N 891.294 -1.47756 0.548274 0
M  V30 9475 C 892.241 -2.29893 -0.204408 0
M  V30 9476 C 893.211 -1.38509 -0.916761 0
M  V30 9477 O 894.396 -1.67472 -0.91421 0
M  V30 9478 C 891.536 -3.22282 -1.23403 0
M  V30 9479 C 890.649 -4.28753 -0.528654 0
M  V30 9480 C 889.784 -5.08303 -1.54279 0
M  V30 9481 C 888.823 -6.06557 -0.821893 0
M  V30 9482 N 887.96 -6.79098 -1.78243 0
M  V30 9483 H 892.8 -2.93739 0.502163 0
M  V30 9484 H 890.337 -1.44793 0.259471 0
M  V30 9485 H 892.295 -3.74262 -1.84348 0
M  V30 9486 H 890.925 -2.6032 -1.90875 0
M  V30 9487 H 889.977 -3.79899 0.195132 0
M  V30 9488 H 891.289 -4.98787 0.0365066 0
M  V30 9489 H 890.443 -5.64388 -2.22602 0
M  V30 9490 H 889.182 -4.3815 -2.14186 0
M  V30 9491 H 888.187 -5.49659 -0.12469 0
M  V30 9492 H 889.412 -6.78715 -0.228685 0
M  V30 9493 H 887.358 -6.11682 -2.37025 0
M  V30 9494 H 887.275 -7.4527 -1.26919 0
M  V30 9495 H 888.543 -7.39762 -2.45709 0
M  V30 9496 N 892.772 -0.284283 -1.55015 0
M  V30 9497 C 893.722 0.613913 -2.19579 0
M  V30 9498 C 894.706 1.11153 -1.16335 0
M  V30 9499 O 895.898 1.05508 -1.42116 0
M  V30 9500 C 893.027 1.79329 -2.92739 0
M  V30 9501 C 892.113 1.31242 -4.03282 0
M  V30 9502 N 892.504 0.548344 -5.02819 0
M  V30 9503 C 890.802 1.5946 -4.1652 0
M  V30 9504 C 891.503 0.294358 -5.80955 0
M  V30 9505 N 890.479 0.869406 -5.36603 0
M  V30 9506 H 894.281 0.0224088 -2.93891 0
M  V30 9507 H 891.795 -0.0882619 -1.6216 0
M  V30 9508 H 893.792 2.44814 -3.37449 0
M  V30 9509 H 892.452 2.38865 -2.1994 0
M  V30 9510 H 893.463 0.194812 -5.17533 0
M  V30 9511 H 890.14 2.19866 -3.54916 0
M  V30 9512 H 891.53 -0.318195 -6.71146 0
M  V30 9513 N 894.251 1.57596 -0.0117121 0
M  V30 9514 C 895.183 2.06025 1.0043 0
M  V30 9515 C 896.196 0.980348 1.29973 0
M  V30 9516 O 897.385 1.25691 1.26744 0
M  V30 9517 C 894.485 2.45514 2.33615 0
M  V30 9518 C 893.658 3.76378 2.22842 0
M  V30 9519 C 892.717 4.02606 3.38814 0
M  V30 9520 O 891.743 4.73108 3.16477 0
M  V30 9521 N 892.945 3.51416 4.62047 0
M  V30 9522 H 895.71 2.93811 0.591206 0
M  V30 9523 H 893.271 1.60947 0.175427 0
M  V30 9524 H 895.263 2.60166 3.09993 0
M  V30 9525 H 893.833 1.63186 2.66625 0
M  V30 9526 H 893.053 3.71691 1.313 0
M  V30 9527 H 894.341 4.62149 2.12829 0
M  V30 9528 H 893.739 2.94346 4.83091 0
M  V30 9529 H 892.296 3.71377 5.35651 0
M  V30 9530 N 895.729 -0.261212 1.5542 0
M  V30 9531 C 897.145 -0.609012 1.47524 0
M  V30 9532 C 897.345 -1.88986 0.699042 0
M  V30 9533 O 896.401 -2.51517 0.222628 0
M  V30 9534 C 897.714 -0.725025 2.91828 0
M  V30 9535 C 899.262 -0.818302 3.02114 0
M  V30 9536 C 899.737 -0.965996 4.47697 0
M  V30 9537 N 901.228 -1.03123 4.51575 0
M  V30 9538 C 901.963 -1.16451 5.6145 0
M  V30 9539 N 901.459 -1.26425 6.81167 0
M  V30 9540 N 903.252 -1.19655 5.49217 0
M  V30 9541 H 895.403 0.579807 2.04333 0
M  V30 9542 H 897.666 0.198072 0.927077 0
M  V30 9543 H 897.372 0.145871 3.51397 0
M  V30 9544 H 897.246 -1.60156 3.41511 0
M  V30 9545 H 899.633 -1.67966 2.42634 0
M  V30 9546 H 899.714 0.0830895 2.55665 0
M  V30 9547 H 899.358 -0.109251 5.07782 0
M  V30 9548 H 899.288 -1.88221 4.91813 0
M  V30 9549 H 901.779 -0.966072 3.65343 0
M  V30 9550 H 902.092 -1.36462 7.60656 0
M  V30 9551 H 900.437 -1.23408 6.83956 0
M  V30 9552 H 903.628 -1.11501 4.54626 0
M  V30 9553 H 903.801 -1.29698 6.34888 0
M  V30 9554 N 897.207 -1.48554 -0.526253 0
M  V30 9555 C 898.154 -1.63354 -1.63046 0
M  V30 9556 C 899.124 -0.475509 -1.59148 0
M  V30 9557 O 900.309 -0.699453 -1.77517 0
M  V30 9558 C 897.449 -1.68271 -3.01295 0
M  V30 9559 C 896.562 -2.95207 -3.15399 0
M  V30 9560 C 895.697 -2.91262 -4.4423 0
M  V30 9561 C 894.736 -4.12886 -4.51876 0
M  V30 9562 N 893.873 -4.06996 -5.721 0
M  V30 9563 H 898.713 -2.57649 -1.49737 0
M  V30 9564 H 896.25 -1.27769 -0.728938 0
M  V30 9565 H 898.208 -1.69104 -3.81392 0
M  V30 9566 H 896.838 -0.774641 -3.13367 0
M  V30 9567 H 895.89 -3.04102 -2.2853 0
M  V30 9568 H 897.202 -3.85187 -3.1691 0
M  V30 9569 H 896.356 -2.90516 -5.32621 0
M  V30 9570 H 895.095 -1.99016 -4.45246 0
M  V30 9571 H 894.1 -4.13902 -3.61891 0
M  V30 9572 H 895.325 -5.06294 -4.52596 0
M  V30 9573 H 893.271 -3.17573 -5.74006 0
M  V30 9574 H 893.188 -4.90685 -5.75121 0
M  V30 9575 H 894.456 -4.10315 -6.62768 0
M  V30 9576 N 898.685 0.775411 -1.37205 0
M  V30 9577 C 899.932 1.53384 -1.32211 0
M  V30 9578 C 900.26 1.9427 0.0944958 0
M  V30 9579 O 899.515 1.64059 1.06692 0
M  V30 9580 C 899.814 2.81377 -2.20367 0
M  V30 9581 C 899.48 2.59561 -3.68699 0
M  V30 9582 C 898.142 2.53319 -4.09124 0
M  V30 9583 C 900.494 2.39939 -4.62686 0
M  V30 9584 C 897.822 2.25442 -5.41658 0
M  V30 9585 C 900.174 2.13586 -5.95453 0
M  V30 9586 C 898.838 2.05786 -6.34987 0
M  V30 9587 H 898.108 0.561271 -0.483793 0
M  V30 9588 H 900.755 0.893466 -1.6938 0
M  V30 9589 H 899.06 3.49954 -1.76181 0
M  V30 9590 H 900.757 3.39238 -2.13819 0
M  V30 9591 H 897.347 2.6528 -3.36637 0
M  V30 9592 H 901.531 2.43753 -4.32317 0
M  V30 9593 H 896.787 2.17896 -5.71254 0
M  V30 9594 H 900.961 1.97401 -6.67837 0
M  V30 9595 H 898.588 1.83948 -7.37609 0
M  V30 9596 N 900.163 1.21714 1.00117 0
M  V30 9597 C 901.093 1.00397 2.10815 0
M  V30 9598 C 902.074 -0.0723502 1.69946 0
M  V30 9599 O 903.259 0.0882398 1.93999 0
M  V30 9600 C 900.389 0.572001 3.42557 0
M  V30 9601 C 899.343 1.59331 3.97237 0
M  V30 9602 C 898.669 1.01746 5.2493 0
M  V30 9603 C 899.969 2.98117 4.28863 0
M  V30 9604 H 901.663 1.92983 2.28906 0
M  V30 9605 H 899.209 0.929273 1.10002 0
M  V30 9606 H 901.162 0.410018 4.19401 0
M  V30 9607 H 899.886 -0.38951 3.24269 0
M  V30 9608 H 898.545 1.74293 3.22518 0
M  V30 9609 H 898.193 0.0475491 5.02978 0
M  V30 9610 H 897.893 1.69969 5.62481 0
M  V30 9611 H 899.417 0.866881 6.04415 0
M  V30 9612 H 900.831 2.86578 4.96534 0
M  V30 9613 H 899.228 3.63389 4.77565 0
M  V30 9614 H 900.298 3.48674 3.36979 0
M  V30 9615 N 901.641 -1.19671 1.02551 0
M  V30 9616 C 902.573 -2.22215 0.561517 0
M  V30 9617 C 903.586 -1.58751 -0.360821 0
M  V30 9618 O 904.775 -1.77802 -0.157749 0
M  V30 9619 C 901.875 -3.383 -0.201494 0
M  V30 9620 C 901.048 -4.3135 0.724952 0
M  V30 9621 C 900.107 -5.26199 0.00794334 0
M  V30 9622 O 899.133 -5.65665 0.633398 0
M  V30 9623 N 900.335 -5.66573 -1.26394 0
M  V30 9624 H 903.1 -2.6265 1.44343 0
M  V30 9625 H 900.661 -1.34303 0.904122 0
M  V30 9626 H 902.653 -3.98764 -0.690625 0
M  V30 9627 H 901.223 -2.96683 -0.98479 0
M  V30 9628 H 900.443 -3.6872 1.39423 0
M  V30 9629 H 901.731 -4.90433 1.35472 0
M  V30 9630 H 901.129 -5.36538 -1.79287 0
M  V30 9631 H 899.686 -6.29304 -1.69763 0
M  V30 9632 N 903.119 -0.802921 -1.35613 0
M  V30 9633 C 904.082 -0.216422 -2.28176 0
M  V30 9634 C 905.082 0.594101 -1.49422 0
M  V30 9635 O 906.272 0.41312 -1.6923 0
M  V30 9636 C 903.404 0.698746 -3.33662 0
M  V30 9637 H 904.597 -1.03276 -2.81557 0
M  V30 9638 H 902.15 -0.573307 -1.45406 0
M  V30 9639 H 902.885 1.53891 -2.85461 0
M  V30 9640 H 902.67 0.119314 -3.91918 0
M  V30 9641 H 904.16 1.10354 -4.02755 0
M  V30 9642 N 904.597 1.47463 -0.556102 0
M  V30 9643 C 905.846 2.01678 -0.029492 0
M  V30 9644 C 906.159 1.436 1.32809 0
M  V30 9645 O 907.365 1.89472 1.94455 0
M  V30 9646 C 905.821 3.599 -0.00223937 0
M  V30 9647 C 905.429 4.26969 -1.35651 0
M  V30 9648 C 907.173 4.2187 0.471822 0
M  V30 9649 C 905.08 5.77194 -1.28843 0
M  V30 9650 H 904.01 0.753965 -0.00725504 0
M  V30 9651 H 906.661 1.69467 -0.703789 0
M  V30 9652 H 905.043 3.89068 0.737682 0
M  V30 9653 H 906.217 4.09444 -2.11406 0
M  V30 9654 H 904.532 3.76983 -1.76842 0
M  V30 9655 H 907.129 5.31955 0.541139 0
M  V30 9656 H 907.472 3.88968 1.48356 0
M  V30 9657 H 908.005 3.97228 -0.213207 0
M  V30 9658 H 904.744 6.14713 -2.27613 0
M  V30 9659 H 904.264 5.9706 -0.572668 0
M  V30 9660 H 905.943 6.3938 -0.990031 0
M  V30 9661 N 906.075 0.2925 1.54862 0
M  V30 9662 C 907.025 -0.60226 2.19902 0
M  V30 9663 C 908.009 -1.10535 1.16923 0
M  V30 9664 O 909.201 -1.04753 1.42674 0
M  V30 9665 C 906.33 -1.77774 2.93686 0
M  V30 9666 C 905.416 -1.29101 4.03972 0
M  V30 9667 N 905.807 -0.521671 5.03103 0
M  V30 9668 C 904.105 -1.57248 4.17359 0
M  V30 9669 C 904.806 -0.263545 5.81103 0
M  V30 9670 N 903.782 -0.840937 5.37056 0
M  V30 9671 H 907.584 -0.00682274 2.93899 0
M  V30 9672 H 905.098 0.0968604 1.62111 0
M  V30 9673 H 907.095 -2.43021 3.38743 0
M  V30 9674 H 905.755 -2.37696 2.21203 0
M  V30 9675 H 906.766 -0.167364 5.1763 0
M  V30 9676 H 903.443 -2.1798 3.56077 0
M  V30 9677 H 904.833 0.353783 6.70968 0
M  V30 9678 N 907.553 -1.57587 0.0200696 0
M  V30 9679 C 908.485 -2.06555 -0.993359 0
M  V30 9680 C 909.498 -0.987227 -1.29451 0
M  V30 9681 O 910.687 -1.26361 -1.26075 0
M  V30 9682 C 907.787 -2.4675 -2.3231 0
M  V30 9683 C 906.96 -3.77554 -2.20843 0
M  V30 9684 C 906.019 -4.04397 -3.36674 0
M  V30 9685 O 905.045 -4.7478 -3.13963 0
M  V30 9686 N 906.247 -3.53861 -4.60176 0
M  V30 9687 H 909.012 -2.9412 -0.575617 0
M  V30 9688 H 906.573 -1.61038 -0.166889 0
M  V30 9689 H 908.565 -2.61806 -3.08609 0
M  V30 9690 H 907.135 -1.64598 -2.65756 0
M  V30 9691 H 906.355 -3.72382 -1.29327 0
M  V30 9692 H 907.643 -4.63271 -2.10375 0
M  V30 9693 H 907.041 -2.96904 -4.81523 0
M  V30 9694 H 905.598 -3.74213 -5.33674 0
M  V30 9695 N 909.032 0.252966 -1.55557 0
M  V30 9696 C 909.962 1.31691 -1.9282 0
M  V30 9697 C 910.943 1.50516 -0.7924 0
M  V30 9698 O 912.128 1.63225 -1.05219 0
M  V30 9699 C 909.258 2.67281 -2.21762 0
M  V30 9700 C 908.212 2.6316 -3.37536 0
M  V30 9701 C 907.538 4.02488 -3.52005 0
M  V30 9702 C 908.838 2.20675 -4.73392 0
M  V30 9703 H 910.532 1.00751 -2.81939 0
M  V30 9704 H 908.078 0.483219 -1.3565 0
M  V30 9705 H 910.031 3.41842 -2.46419 0
M  V30 9706 H 908.755 2.99845 -1.29463 0
M  V30 9707 H 907.414 1.91057 -3.12878 0
M  V30 9708 H 907.062 4.32307 -2.57137 0
M  V30 9709 H 906.762 4.00621 -4.29857 0
M  V30 9710 H 908.286 4.78758 -3.78977 0
M  V30 9711 H 909.7 2.84965 -4.97461 0
M  V30 9712 H 908.097 2.29931 -5.54303 0
M  V30 9713 H 909.167 1.15831 -4.70862 0
M  V30 9714 N 910.51 1.48831 0.518367 0
M  V30 9715 C 911.926 1.35209 0.847979 0
M  V30 9716 C 912.126 0.371927 1.98038 0
M  V30 9717 O 911.182 -0.202681 2.51685 0
M  V30 9718 C 912.495 2.7552 1.20455 0
M  V30 9719 C 914.043 2.84094 1.31377 0
M  V30 9720 C 914.518 4.25132 1.70372 0
M  V30 9721 N 916.009 4.27861 1.77453 0
M  V30 9722 C 916.744 5.3394 2.09035 0
M  V30 9723 N 916.24 6.50285 2.3896 0
M  V30 9724 N 918.033 5.21343 2.10139 0
M  V30 9725 H 910.184 2.11166 -0.228624 0
M  V30 9726 H 912.447 0.94717 -0.0396599 0
M  V30 9727 H 912.153 3.48861 0.445991 0
M  V30 9728 H 912.027 3.09785 2.15204 0
M  V30 9729 H 914.414 2.11001 2.06307 0
M  V30 9730 H 914.495 2.53433 0.347203 0
M  V30 9731 H 914.139 4.98745 0.959975 0
M  V30 9732 H 914.069 4.53245 2.68098 0
M  V30 9733 H 916.56 3.43945 1.56557 0
M  V30 9734 H 916.873 7.26961 2.62196 0
M  V30 9735 H 915.218 6.5354 2.36454 0
M  V30 9736 H 918.409 4.29462 1.86225 0
M  V30 9737 H 918.582 6.04112 2.34419 0
M  V30 9738 N 911.988 -0.768124 1.37614 0
M  V30 9739 C 913.213 -1.56239 1.36397 0
M  V30 9740 C 913.638 -1.8804 -0.0475839 0
M  V30 9741 O 912.996 -1.495 -1.02564 0
M  V30 9742 C 913.044 -2.84716 2.21289 0
M  V30 9743 O 912.148 -3.79249 1.62001 0
M  V30 9744 H 911.489 -0.473119 0.465891 0
M  V30 9745 H 914.019 -0.950415 1.81186 0
M  V30 9746 H 914.029 -3.33784 2.34632 0
M  V30 9747 H 912.704 -2.60899 3.2389 0
M  V30 9748 H 911.281 -3.37904 1.57719 0
M  V30 9749 N 913.466 -1.22244 -0.994698 0
M  V30 9750 C 914.712 -1.04746 -1.73655 0
M  V30 9751 C 915.045 0.41668 -1.89677 0
M  V30 9752 O 914.32 1.30897 -1.43862 0
M  V30 9753 C 914.603 -1.75716 -3.14318 0
M  V30 9754 C 914.456 -3.29714 -3.05955 0
M  V30 9755 C 915.775 -1.50809 -4.13455 0
M  V30 9756 H 912.894 -0.381921 -0.630322 0
M  V30 9757 H 915.536 -1.50559 -1.15897 0
M  V30 9758 H 913.686 -1.3677 -3.63629 0
M  V30 9759 H 915.358 -3.78093 -2.64279 0
M  V30 9760 H 913.601 -3.59484 -2.42804 0
M  V30 9761 H 914.272 -3.74547 -4.05485 0
M  V30 9762 H 916.748 -1.84636 -3.72892 0
M  V30 9763 H 915.624 -2.02964 -5.09997 0
M  V30 9764 H 915.885 -0.440292 -4.39902 0
M  V30 9765 N 914.944 1.19125 -1.03184 0
M  V30 9766 C 915.891 2.2245 -0.6152 0
M  V30 9767 C 916.861 1.61869 0.372502 0
M  V30 9768 O 918.046 1.88901 0.268491 0
M  V30 9769 C 915.186 3.45091 0.0248027 0
M  V30 9770 C 914.299 4.20044 -1.0093 0
M  V30 9771 C 913.434 5.30119 -0.338744 0
M  V30 9772 C 912.473 5.96833 -1.35855 0
M  V30 9773 N 911.61 6.98464 -0.713594 0
M  V30 9774 H 916.45 2.57445 -1.50086 0
M  V30 9775 H 913.987 1.26485 -0.751005 0
M  V30 9776 H 915.945 4.15149 0.413131 0
M  V30 9777 H 914.575 3.10742 0.874028 0
M  V30 9778 H 913.627 3.48901 -1.51566 0
M  V30 9779 H 914.939 4.65796 -1.78425 0
M  V30 9780 H 914.093 6.0661 0.104269 0
M  V30 9781 H 912.832 4.85446 0.468382 0
M  V30 9782 H 911.837 5.1909 -1.81179 0
M  V30 9783 H 913.062 6.4359 -2.16722 0
M  V30 9784 H 911.008 6.55959 0.0733863 0
M  V30 9785 H 910.925 7.42422 -1.42638 0
M  V30 9786 H 912.193 7.78943 -0.294681 0
M  V30 9787 N 916.422 0.810101 1.35185 0
M  V30 9788 C 917.355 0.168416 2.27578 0
M  V30 9789 C 918.333 -0.667664 1.4826 0
M  V30 9790 O 919.517 -0.634184 1.77512 0
M  V30 9791 C 916.644 -0.765994 3.29925 0
M  V30 9792 C 915.69 -0.00908802 4.26499 0
M  V30 9793 S 916.523 1.32936 5.18737 0
M  V30 9794 C 917.679 0.399485 6.24624 0
M  V30 9795 H 917.912 0.951753 2.81654 0
M  V30 9796 H 915.445 0.60534 1.42039 0
M  V30 9797 H 917.403 -1.2996 3.89385 0
M  V30 9798 H 916.064 -1.52275 2.7472 0
M  V30 9799 H 915.257 -0.718919 4.98846 0
M  V30 9800 H 914.859 0.454663 3.71226 0
M  V30 9801 H 917.151 -0.413904 6.76234 0
M  V30 9802 H 918.094 1.09225 6.99625 0
M  V30 9803 H 918.502 -0.00638358 5.645 0
M  V30 9804 N 917.9 -1.47166 0.563914 0
M  V30 9805 C 918.81 -2.33885 -0.182977 0
M  V30 9806 C 919.826 -1.48605 -0.905132 0
M  V30 9807 O 921.002 -1.81518 -0.872527 0
M  V30 9808 C 918.067 -3.25433 -1.19558 0
M  V30 9809 C 917.128 -4.26607 -0.480129 0
M  V30 9810 C 916.361 -5.1378 -1.44449 0
M  V30 9811 O 916.584 -5.03531 -2.67979 0
M  V30 9812 O 915.518 -5.94109 -0.965321 0
M  V30 9813 H 919.344 -2.99065 0.528544 0
M  V30 9814 H 916.929 -1.45834 0.324468 0
M  V30 9815 H 918.811 -3.81964 -1.77993 0
M  V30 9816 H 917.486 -2.62873 -1.8889 0
M  V30 9817 H 916.393 -3.73817 0.145583 0
M  V30 9818 H 917.726 -4.919 0.171868 0
M  V30 9819 N 919.378 -0.300708 -1.54705 0
M  V30 9820 C 920.31 0.609179 -2.20956 0
M  V30 9821 C 921.323 1.09776 -1.20221 0
M  V30 9822 O 922.512 1.01527 -1.46815 0
M  V30 9823 C 919.612 1.84595 -2.84214 0
M  V30 9824 C 918.785 1.49991 -4.10879 0
M  V30 9825 C 917.844 2.5918 -4.57943 0
M  V30 9826 O 916.87 2.24285 -5.23149 0
M  V30 9827 N 918.072 3.89714 -4.30236 0
M  V30 9828 H 920.837 0.0420111 -2.99671 0
M  V30 9829 H 918.398 -0.122896 -1.61433 0
M  V30 9830 H 920.39 2.56988 -3.12633 0
M  V30 9831 H 918.96 2.32152 -2.09342 0
M  V30 9832 H 918.18 0.608637 -3.89473 0
M  V30 9833 H 919.468 1.24409 -4.93356 0
M  V30 9834 H 918.866 4.20874 -3.77997 0
M  V30 9835 H 917.423 4.58406 -4.63365 0
M  V30 9836 N 920.856 1.57574 -0.0284266 0
M  V30 9837 C 922.272 1.56194 0.327958 0
M  V30 9838 C 922.472 1.03397 1.72949 0
M  V30 9839 O 921.528 0.680392 2.4316 0
M  V30 9840 C 922.841 3.00177 0.177196 0
M  V30 9841 C 924.389 3.12 0.250014 0
M  V30 9842 C 924.864 4.57821 0.128049 0
M  V30 9843 N 926.355 4.6283 0.185054 0
M  V30 9844 C 927.09 5.73286 0.114454 0
M  V30 9845 N 926.586 6.928 -0.00719225 0
M  V30 9846 N 928.379 5.61848 0.16839 0
M  V30 9847 H 920.53 1.90224 -0.944921 0
M  V30 9848 H 922.793 0.874987 -0.364832 0
M  V30 9849 H 922.499 3.42753 -0.788224 0
M  V30 9850 H 922.373 3.65101 0.94768 0
M  V30 9851 H 924.76 2.69337 1.20589 0
M  V30 9852 H 924.841 2.49799 -0.550835 0
M  V30 9853 H 924.485 5.01165 -0.824407 0
M  V30 9854 H 924.415 5.18001 0.947753 0
M  V30 9855 H 926.906 3.76867 0.279247 0
M  V30 9856 H 927.219 7.72781 -0.0543903 0
M  V30 9857 H 925.564 6.94987 -0.0419648 0
M  V30 9858 H 928.755 4.67367 0.261821 0
M  V30 9859 H 928.928 6.47907 0.109908 0
M  V30 9860 N 922.334 -0.244713 1.55689 0
M  V30 9861 C 923.281 -1.30301 1.905 0
M  V30 9862 C 924.251 -1.4772 0.759478 0
M  V30 9863 O 925.436 -1.61667 1.01333 0
M  V30 9864 C 922.576 -2.653 2.20703 0
M  V30 9865 C 921.689 -2.55872 3.48071 0
M  V30 9866 C 920.824 -3.83238 3.67834 0
M  V30 9867 C 919.863 -3.68436 4.88796 0
M  V30 9868 N 919 -4.877 5.05068 0
M  V30 9869 H 923.84 -0.999143 2.80751 0
M  V30 9870 H 921.377 -0.482099 1.38976 0
M  V30 9871 H 923.335 -3.43884 2.36219 0
M  V30 9872 H 921.965 -2.93831 1.33653 0
M  V30 9873 H 921.017 -1.68846 3.40874 0
M  V30 9874 H 922.329 -2.40845 4.36801 0
M  V30 9875 H 921.483 -4.70266 3.83321 0
M  V30 9876 H 920.222 -4.01165 2.77341 0
M  V30 9877 H 919.227 -2.79793 4.73282 0
M  V30 9878 H 920.452 -3.52003 5.8075 0
M  V30 9879 H 918.398 -5.05983 4.17513 0
M  V30 9880 H 918.315 -4.75312 5.8789 0
M  V30 9881 H 919.583 -5.76219 5.24969 0
M  V30 9882 N 923.813 -1.49104 -0.510467 0
M  V30 9883 C 924.743 -1.67981 -1.62187 0
M  V30 9884 C 925.724 -0.528529 -1.6168 0
M  V30 9885 O 926.909 -0.763305 -1.7857 0
M  V30 9886 C 924.039 -1.73755 -3.0071 0
M  V30 9887 C 922.993 -2.88579 -3.1608 0
M  V30 9888 C 922.319 -2.79457 -4.5586 0
M  V30 9889 C 923.619 -4.29638 -2.97 0
M  V30 9890 H 925.313 -2.61029 -1.46643 0
M  V30 9891 H 922.859 -1.25615 -0.704042 0
M  V30 9892 H 924.812 -1.85548 -3.78352 0
M  V30 9893 H 923.536 -0.772996 -3.17321 0
M  V30 9894 H 922.195 -2.76372 -2.40861 0
M  V30 9895 H 921.843 -1.80929 -4.69333 0
M  V30 9896 H 921.543 -3.56518 -4.67086 0
M  V30 9897 H 923.067 -2.93245 -5.35574 0
M  V30 9898 H 924.481 -4.42575 -3.64418 0
M  V30 9899 H 922.878 -5.07847 -3.19704 0
M  V30 9900 H 923.948 -4.44741 -1.93219 0
M  V30 9901 N 925.291 0.760815 -1.38019 0
M  V30 9902 C 926.516 1.55513 -1.37224 0
M  V30 9903 C 926.941 1.88062 0.037611 0
M  V30 9904 O 926.299 1.50042 1.0177 0
M  V30 9905 C 926.347 2.83539 -2.22796 0
M  V30 9906 O 925.451 3.78384 -1.64009 0
M  V30 9907 H 924.792 0.470642 -0.468393 0
M  V30 9908 H 927.322 0.940792 -1.81687 0
M  V30 9909 H 927.332 3.32535 -2.36399 0
M  V30 9910 H 926.007 2.59178 -3.25269 0
M  V30 9911 H 924.584 3.37063 -1.59508 0
M  V30 9912 N 926.769 1.22769 0.988202 0
M  V30 9913 C 928.046 0.9635 1.70223 0
M  V30 9914 C 928.426 -0.520102 2.04593 0
M  V30 9915 O 927.774 -1.48934 1.73295 0
M  V30 9916 C 927.984 1.86583 2.94937 0
M  V30 9917 C 929.332 2.12469 3.67616 0
M  V30 9918 O 930.356 1.84069 3.04954 0
M  V30 9919 O 929.215 2.60595 4.80367 0
M  V30 9920 H 926.309 0.362737 0.743203 0
M  V30 9921 H 928.855 1.33776 1.04412 0
M  V30 9922 H 927.627 2.86913 2.66077 0
M  V30 9923 H 927.25 1.49344 3.68486 0
M  V30 9924 N 928.247 -1.18576 1.03814 0
M  V30 9925 C 929.179 -2.21607 0.585055 0
M  V30 9926 C 930.192 -1.59125 -0.343963 0
M  V30 9927 O 931.381 -1.77959 -0.138882 0
M  V30 9928 C 928.481 -3.38495 -0.165602 0
M  V30 9929 C 927.654 -4.30557 0.770662 0
M  V30 9930 C 926.713 -5.26161 0.0637534 0
M  V30 9931 O 925.739 -5.64961 0.693359 0
M  V30 9932 N 926.941 -5.67882 -1.20377 0
M  V30 9933 H 929.706 -2.61104 1.47121 0
M  V30 9934 H 927.267 -1.33336 0.918316 0
M  V30 9935 H 929.259 -3.99474 -0.648292 0
M  V30 9936 H 927.829 -2.97711 -0.953268 0
M  V30 9937 H 927.049 -3.67221 1.43326 0
M  V30 9938 H 928.337 -4.88969 1.40667 0
M  V30 9939 H 927.735 -5.38409 -1.73586 0
M  V30 9940 H 926.292 -6.31069 -1.63079 0
M  V30 9941 N 929.725 -0.817259 -1.34754 0
M  V30 9942 C 930.688 -0.240611 -2.27934 0
M  V30 9943 C 931.688 0.578219 -1.50044 0
M  V30 9944 O 932.878 0.395148 -1.69659 0
M  V30 9945 C 930.01 0.663318 -3.34384 0
M  V30 9946 H 931.203 -1.06257 -2.80445 0
M  V30 9947 H 928.756 -0.588697 -1.4479 0
M  V30 9948 H 929.491 1.50855 -2.87077 0
M  V30 9949 H 929.276 0.0777388 -3.92023 0
M  V30 9950 H 930.766 1.06076 -4.03903 0
M  V30 9951 N 931.203 1.46865 -0.571711 0
M  V30 9952 C 932.151 2.31897 0.180714 0
M  V30 9953 C 933.145 1.43815 0.895191 0
M  V30 9954 O 934.351 1.60501 0.814828 0
M  V30 9955 H 930.726 0.748032 0.077148 0
M  V30 9956 H 932.697 2.93185 -0.555432 0
M  V30 9957 C 931.446 3.26766 1.18824 0
M  V30 9958 H 930.769 3.94515 0.64789 0
M  V30 9959 H 932.209 3.89067 1.68532 0
M  V30 9960 C 930.668 2.51325 2.2436 0
M  V30 9961 O 931.198 2.26825 3.31532 0
M  V30 9962 N 929.404 2.12079 1.98673 0
M  V30 9963 H 928.951 2.32204 1.1153 0
M  V30 9964 H 928.909 1.61921 2.69498 0
M  V30 9965 N 932.681 0.308908 1.54543 0
M  V30 9966 C 933.909 -0.300418 2.04707 0
M  V30 9967 C 934.324 -1.46915 1.18581 0
M  V30 9968 O 933.681 -1.81251 0.213186 0
M  V30 9969 C 933.732 -0.749038 3.53655 0
M  V30 9970 O 933.453 0.373181 4.36508 0
M  V30 9971 C 934.954 -1.4227 4.1985 0
M  V30 9972 H 932.174 -0.0641267 0.667929 0
M  V30 9973 H 934.718 0.450839 1.99469 0
M  V30 9974 H 932.873 -1.4503 3.59228 0
M  V30 9975 H 933.287 0.0224752 5.24495 0
M  V30 9976 H 934.761 -1.68768 5.25568 0
M  V30 9977 H 935.238 -2.36531 3.70067 0
M  V30 9978 H 935.844 -0.764404 4.18374 0
M  V30 9979 N 934.159 -1.57557 0.0367827 0
M  V30 9980 C 935.089 -2.13712 -0.940719 0
M  V30 9981 C 936.07 -1.05515 -1.33419 0
M  V30 9982 O 937.255 -1.33385 -1.41146 0
M  V30 9983 C 934.385 -2.67043 -2.22048 0
M  V30 9984 C 933.339 -3.80096 -1.96752 0
M  V30 9985 C 932.665 -4.19886 -3.31059 0
M  V30 9986 C 933.965 -5.05848 -1.30058 0
M  V30 9987 H 935.659 -2.9564 -0.473033 0
M  V30 9988 H 933.205 -1.42214 -0.226089 0
M  V30 9989 H 935.158 -3.04964 -2.90818 0
M  V30 9990 H 933.882 -1.82287 -2.70996 0
M  V30 9991 H 932.541 -3.42625 -1.30398 0
M  V30 9992 H 932.189 -3.32101 -3.77781 0
M  V30 9993 H 931.889 -4.96073 -3.14937 0
M  V30 9994 H 933.413 -4.60395 -4.01084 0
M  V30 9995 H 934.827 -5.41306 -1.8884 0
M  V30 9996 H 933.224 -5.87084 -1.24309 0
M  V30 9997 H 934.294 -4.84122 -0.274591 0
M  V30 9998 N 935.637 0.236453 -1.55816 0
M  V30 9999 C 936.883 0.964439 -1.784 0
M  V30 10000 C 937.216 1.84573 -0.603868 0
M  V30 10001 O 936.491 1.90395 0.397473 0
M  V30 10002 C 936.774 1.81608 -3.10951 0
M  V30 10003 C 936.627 0.962283 -4.39386 0
M  V30 10004 C 937.946 2.79665 -3.39817 0
M  V30 10005 H 935.065 0.349192 -0.649026 0
M  V30 10006 H 937.707 0.234247 -1.8855 0
M  V30 10007 H 935.857 2.43864 -3.02428 0
M  V30 10008 H 937.529 0.35762 -4.59912 0
M  V30 10009 H 935.772 0.267062 -4.32977 0
M  V30 10010 H 936.443 1.59222 -5.28538 0
M  V30 10011 H 938.919 2.27546 -3.4837 0
M  V30 10012 H 937.795 3.36367 -4.33761 0
M  V30 10013 H 938.056 3.56657 -2.61244 0
M  V30 10014 N 937.115 1.49373 0.502552 0
M  V30 10015 C 938.392 1.49282 1.26389 0
M  V30 10016 C 938.772 0.219674 2.09954 0
M  V30 10017 O 938.12 -0.797991 2.14113 0
M  V30 10018 C 938.33 2.77083 2.12194 0
M  V30 10019 C 939.678 3.26511 2.71433 0
M  V30 10020 O 940.702 2.78189 2.22462 0
M  V30 10021 O 939.561 4.10665 3.60578 0
M  V30 10022 H 936.655 0.597415 0.57186 0
M  V30 10023 H 939.201 1.61634 0.516951 0
M  V30 10024 H 937.973 3.61237 1.50411 0
M  V30 10025 H 937.596 2.67583 2.94084 0
M  V30 10026 N 938.594 -0.753485 1.38421 0
M  V30 10027 C 939.524 -1.8808 1.38377 0
M  V30 10028 C 940.505 -1.68258 0.249664 0
M  V30 10029 O 941.69 -1.88848 0.45276 0
M  V30 10030 C 938.82 -3.25608 1.20818 0
M  V30 10031 C 937.774 -3.60032 2.31433 0
M  V30 10032 C 937.1 -4.96297 1.9898 0
M  V30 10033 C 938.4 -3.64898 3.73694 0
M  V30 10034 H 940.094 -1.88375 2.32713 0
M  V30 10035 H 937.64 -0.90489 1.12017 0
M  V30 10036 H 939.593 -4.04127 1.19412 0
M  V30 10037 H 938.317 -3.25793 0.229433 0
M  V30 10038 H 936.976 -2.83831 2.32025 0
M  V30 10039 H 936.624 -4.93043 0.995889 0
M  V30 10040 H 936.324 -5.20298 2.73063 0
M  V30 10041 H 937.848 -5.77196 1.99193 0
M  V30 10042 H 939.262 -4.33531 3.75132 0
M  V30 10043 H 937.659 -4.00407 4.46983 0
M  V30 10044 H 938.729 -2.65124 4.06002 0
M  V30 10045 N 940.072 -1.23292 -0.981677 0
M  V30 10046 C 941.297 -1.09176 -1.76339 0
M  V30 10047 C 941.722 0.352726 -1.84763 0
M  V30 10048 O 941.08 1.25509 -1.30832 0
M  V30 10049 C 941.128 -1.72046 -3.16911 0
M  V30 10050 O 940.232 -0.98174 -4.00544 0
M  V30 10051 H 939.573 -0.382755 -0.542581 0
M  V30 10052 H 942.103 -1.63319 -1.23239 0
M  V30 10053 H 942.113 -1.77232 -3.67495 0
M  V30 10054 H 940.788 -2.77154 -3.10095 0
M  V30 10055 H 939.365 -1.00672 -3.59054 0
M  V30 10056 N 941.55 1.18024 -1.04442 0
M  V30 10057 C 942.497 2.21785 -0.638759 0
M  V30 10058 C 943.467 1.62255 0.355312 0
M  V30 10059 O 944.652 1.89176 0.24844 0
M  V30 10060 C 941.792 3.45098 -0.0118002 0
M  V30 10061 C 940.905 4.1895 -1.05379 0
M  V30 10062 C 940.04 5.2973 -0.394951 0
M  V30 10063 C 939.079 5.95359 -1.42178 0
M  V30 10064 N 938.216 6.97668 -0.787635 0
M  V30 10065 H 943.056 2.55839 -1.52808 0
M  V30 10066 H 940.593 1.25681 -0.764378 0
M  V30 10067 H 942.551 4.15564 0.369075 0
M  V30 10068 H 941.181 3.11652 0.84102 0
M  V30 10069 H 940.233 3.47274 -1.55258 0
M  V30 10070 H 941.545 4.63877 -1.83355 0
M  V30 10071 H 940.699 6.06687 0.0399244 0
M  V30 10072 H 939.438 4.85915 0.416867 0
M  V30 10073 H 938.443 5.17139 -1.86675 0
M  V30 10074 H 939.668 6.41255 -2.23536 0
M  V30 10075 H 937.614 6.56 0.00380893 0
M  V30 10076 H 937.531 7.40867 -1.50505 0
M  V30 10077 H 938.799 7.78586 -0.377282 0
M  V30 10078 N 943.028 0.824394 1.34319 0
M  V30 10079 C 943.961 0.192544 2.27386 0
M  V30 10080 C 944.939 -0.651901 1.4896 0
M  V30 10081 O 946.123 -0.615321 1.78174 0
M  V30 10082 C 943.25 -0.730958 3.30718 0
M  V30 10083 C 942.296 0.0361484 4.26485 0
M  V30 10084 S 943.129 1.3843 5.17298 0
M  V30 10085 C 944.285 0.465713 6.24165 0
M  V30 10086 H 944.518 0.981573 2.80629 0
M  V30 10087 H 942.051 0.620371 1.41389 0
M  V30 10088 H 944.009 -1.25822 3.90742 0
M  V30 10089 H 942.67 -1.49352 2.7632 0
M  V30 10090 H 941.863 -0.665969 4.99581 0
M  V30 10091 H 941.465 0.494011 3.70723 0
M  V30 10092 H 943.757 -0.342157 6.76635 0
M  V30 10093 H 944.7 1.16639 6.98427 0
M  V30 10094 H 945.108 0.0534895 5.64475 0
M  V30 10095 N 944.506 -1.46559 0.579492 0
M  V30 10096 C 945.438 -2.28383 -0.19337 0
M  V30 10097 C 946.451 -1.38324 -0.858511 0
M  V30 10098 O 947.64 -1.62952 -0.728615 0
M  V30 10099 C 944.74 -3.13262 -1.29306 0
M  V30 10100 C 943.913 -4.31426 -0.720459 0
M  V30 10101 C 942.972 -4.97728 -1.70744 0
M  V30 10102 O 941.998 -5.55423 -1.24476 0
M  V30 10103 N 943.2 -4.94445 -3.04146 0
M  V30 10104 H 945.965 -2.95353 0.508611 0
M  V30 10105 H 943.526 -1.56436 0.417046 0
M  V30 10106 H 945.518 -3.54483 -1.95254 0
M  V30 10107 H 944.088 -2.48388 -1.89795 0
M  V30 10108 H 943.308 -3.94028 0.116398 0
M  V30 10109 H 944.596 -5.07808 -0.31763 0
M  V30 10110 H 943.994 -4.4881 -3.44363 0
M  V30 10111 H 942.551 -5.39616 -3.65592 0
M  V30 10112 N 945.984 -0.3171 -1.54377 0
M  V30 10113 C 946.932 0.567371 -2.25574 0
M  V30 10114 C 947.926 1.12387 -1.2675 0
M  V30 10115 O 949.132 1.07266 -1.44548 0
M  V30 10116 H 945.507 0.201605 -0.724472 0
M  V30 10117 H 947.478 -0.0554644 -2.98348 0
M  V30 10118 C 946.227 1.71984 -3.02187 0
M  V30 10119 H 945.55 1.30086 -3.78044 0
M  V30 10120 H 946.99 2.31443 -3.5526 0
M  V30 10121 C 945.449 2.6336 -2.10103 0
M  V30 10122 O 945.979 3.64899 -1.67962 0
M  V30 10123 N 944.185 2.3145 -1.75725 0
M  V30 10124 H 943.732 1.48921 -2.10191 0
M  V30 10125 H 943.69 2.92852 -1.14391 0
M  V30 10126 N 947.462 1.57535 -0.0451378 0
M  V30 10127 C 948.708 1.92736 0.630921 0
M  V30 10128 C 949.041 0.923265 1.70849 0
M  V30 10129 O 948.316 -0.0516512 1.94431 0
M  V30 10130 C 948.599 3.38348 1.23259 0
M  V30 10131 C 948.452 4.49503 0.16349 0
M  V30 10132 C 949.771 3.84233 2.14599 0
M  V30 10133 H 946.89 0.700884 0.227883 0
M  V30 10134 H 949.532 1.89706 -0.10567 0
M  V30 10135 H 947.682 3.41061 1.86037 0
M  V30 10136 H 949.354 4.58919 -0.46808 0
M  V30 10137 H 947.597 4.30802 -0.509166 0
M  V30 10138 H 948.268 5.48457 0.624382 0
M  V30 10139 H 950.744 3.83358 1.6179 0
M  V30 10140 H 949.62 4.86781 2.53644 0
M  V30 10141 H 949.881 3.20646 3.04366 0
M  V30 10142 N 948.94 -0.228186 1.55939 0
M  V30 10143 C 949.873 -1.30971 1.86874 0
M  V30 10144 C 950.851 -1.45517 0.725496 0
M  V30 10145 O 952.035 -1.61436 0.973181 0
M  V30 10146 C 949.162 -2.68089 2.06992 0
M  V30 10147 C 948.208 -2.70594 3.29669 0
M  V30 10148 S 949.041 -2.25325 4.85787 0
M  V30 10149 C 950.197 -3.64331 5.08934 0
M  V30 10150 H 950.43 -1.04536 2.78315 0
M  V30 10151 H 947.963 -0.430103 1.48288 0
M  V30 10152 H 949.921 -3.47033 2.19267 0
M  V30 10153 H 948.582 -2.91752 1.16359 0
M  V30 10154 H 947.775 -3.71338 3.4077 0
M  V30 10155 H 947.377 -1.99708 3.16216 0
M  V30 10156 H 949.669 -4.59972 4.97425 0
M  V30 10157 H 950.612 -3.58151 6.10847 0
M  V30 10158 H 951.02 -3.57711 4.36695 0
M  V30 10159 N 950.418 -1.49637 -0.494624 0
M  V30 10160 C 951.648 -1.62928 -1.27036 0
M  V30 10161 C 952.056 -0.302464 -1.86767 0
M  V30 10162 O 951.399 0.722878 -1.68879 0
M  V30 10163 C 951.461 -2.64449 -2.43531 0
M  V30 10164 C 951.125 -4.08632 -2.0462 0
M  V30 10165 C 952.122 -4.95238 -1.58225 0
M  V30 10166 C 949.807 -4.54405 -2.1406 0
M  V30 10167 C 951.801 -6.25658 -1.21782 0
M  V30 10168 C 949.488 -5.84836 -1.77228 0
M  V30 10169 C 950.486 -6.70287 -1.31165 0
M  V30 10170 O 950.174 -7.98287 -0.948339 0
M  V30 10171 H 949.906 -0.551263 -0.391261 0
M  V30 10172 H 952.46 -1.96453 -0.599621 0
M  V30 10173 H 950.69 -2.26117 -3.137 0
M  V30 10174 H 952.379 -2.67203 -3.05545 0
M  V30 10175 H 953.145 -4.611 -1.50373 0
M  V30 10176 H 949.024 -3.88056 -2.48865 0
M  V30 10177 H 952.568 -6.92309 -0.857566 0
M  V30 10178 H 948.465 -6.18502 -1.84732 0
M  V30 10179 H 949.233 -8.11353 -1.07925 0
M  V30 10180 N 951.896 0.746133 -1.38819 0
M  V30 10181 C 953.173 1.49652 -1.25951 0
M  V30 10182 C 953.553 2.10663 0.135833 0
M  V30 10183 O 952.901 1.97682 1.14604 0
M  V30 10184 C 953.111 2.5569 -2.37537 0
M  V30 10185 C 954.459 3.22385 -2.76321 0
M  V30 10186 O 955.483 2.65998 -2.36904 0
M  V30 10187 O 954.342 4.2439 -3.44319 0
M  V30 10188 H 951.436 0.664019 -0.492958 0
M  V30 10189 H 953.982 0.780908 -1.50665 0
M  V30 10190 H 952.754 2.08908 -3.30867 0
M  V30 10191 H 952.377 3.34823 -2.14427 0
M  V30 10192 N 953.375 1.23811 0.975125 0
M  V30 10193 C 954.305 1.04846 2.08638 0
M  V30 10194 C 955.286 -0.0362859 1.70061 0
M  V30 10195 O 956.471 0.12937 1.93769 0
M  V30 10196 C 953.601 0.644534 3.41267 0
M  V30 10197 C 952.555 1.67722 3.93768 0
M  V30 10198 C 951.881 1.12857 5.22654 0
M  V30 10199 C 953.181 3.07147 4.22443 0
M  V30 10200 H 954.875 1.97795 2.24761 0
M  V30 10201 H 952.421 0.952397 1.08006 0
M  V30 10202 H 954.374 0.498887 4.18436 0
M  V30 10203 H 953.098 -0.320641 3.25022 0
M  V30 10204 H 951.757 1.81095 3.18748 0
M  V30 10205 H 951.405 0.154227 5.02764 0
M  V30 10206 H 951.105 1.81862 5.58749 0
M  V30 10207 H 952.629 0.994891 6.0244 0
M  V30 10208 H 954.043 2.97045 4.90344 0
M  V30 10209 H 952.44 3.73437 4.6975 0
M  V30 10210 H 953.51 3.55743 3.29507 0
M  V30 10211 N 954.853 -1.17469 1.05066 0
M  V30 10212 C 956.102 -1.87032 0.755114 0
M  V30 10213 C 956.415 -1.81844 -0.720572 0
M  V30 10214 O 957.621 -2.46866 -1.13002 0
M  V30 10215 C 956.077 -3.35581 1.30052 0
M  V30 10216 C 955.685 -3.49274 2.80556 0
M  V30 10217 C 957.429 -4.1048 1.08196 0
M  V30 10218 C 955.336 -4.91838 3.28404 0
M  V30 10219 H 954.266 -0.70057 0.278779 0
M  V30 10220 H 956.917 -1.32663 1.26779 0
M  V30 10221 H 955.299 -3.89479 0.715667 0
M  V30 10222 H 956.473 -3.05598 3.44886 0
M  V30 10223 H 954.788 -2.87793 3.00939 0
M  V30 10224 H 957.385 -5.15652 1.41447 0
M  V30 10225 H 957.728 -4.16295 0.0196603 0
M  V30 10226 H 958.261 -3.62784 1.63195 0
M  V30 10227 H 955 -4.91196 4.34058 0
M  V30 10228 H 954.52 -5.36189 2.68815 0
M  V30 10229 H 956.199 -5.60602 3.23009 0
M  V30 10230 N 956.331 -0.831506 -1.3388 0
M  V30 10231 C 957.559 -0.436925 -2.02234 0
M  V30 10232 C 957.974 0.959689 -1.6259 0
M  V30 10233 O 957.331 1.62248 -0.835576 0
M  V30 10234 C 957.382 -0.539429 -3.57453 0
M  V30 10235 O 957.103 -1.88101 -3.95664 0
M  V30 10236 C 958.604 -0.140852 -4.43076 0
M  V30 10237 H 955.824 -0.174302 -0.647966 0
M  V30 10238 H 958.368 -1.12204 -1.70969 0
M  V30 10239 H 956.523 0.0976959 -3.87277 0
M  V30 10240 H 956.937 -1.86131 -4.90363 0
M  V30 10241 H 958.411 -0.26364 -5.5137 0
M  V30 10242 H 958.888 0.916505 -4.29531 0
M  V30 10243 H 959.494 -0.752117 -4.18597 0
M  V30 10244 N 957.809 1.4625 -0.587256 0
M  V30 10245 C 958.719 2.34147 0.145744 0
M  V30 10246 C 959.735 1.50026 0.881376 0
M  V30 10247 O 960.911 1.82884 0.843539 0
M  V30 10248 C 957.976 3.27294 1.14366 0
M  V30 10249 C 957.037 4.27317 0.412199 0
M  V30 10250 C 956.27 5.16013 1.36257 0
M  V30 10251 O 956.493 5.0773 2.59934 0
M  V30 10252 O 955.427 5.95569 0.870681 0
M  V30 10253 H 959.253 2.98187 -0.576055 0
M  V30 10254 H 956.838 1.45299 -0.347628 0
M  V30 10255 H 958.72 3.84747 1.71894 0
M  V30 10256 H 957.395 2.65845 1.84684 0
M  V30 10257 H 956.302 3.73538 -0.205036 0
M  V30 10258 H 957.635 4.91564 -0.250104 0
M  V30 10259 N 959.287 0.325282 1.54207 0
M  V30 10260 C 960.217 -0.532574 2.27345 0
M  V30 10261 C 961.198 -1.11791 1.28206 0
M  V30 10262 O 962.383 -1.14272 1.57021 0
M  V30 10263 C 959.513 -1.69274 3.03255 0
M  V30 10264 C 958.467 -1.23662 4.09746 0
M  V30 10265 C 957.793 -2.48386 4.73506 0
M  V30 10266 C 959.093 -0.350244 5.21124 0
M  V30 10267 H 960.787 0.0775108 2.993 0
M  V30 10268 H 958.333 0.0387193 1.43948 0
M  V30 10269 H 960.286 -2.29917 3.53152 0
M  V30 10270 H 959.01 -2.32944 2.28921 0
M  V30 10271 H 957.669 -0.653106 3.60735 0
M  V30 10272 H 957.317 -3.10424 3.95786 0
M  V30 10273 H 957.017 -2.18558 5.45441 0
M  V30 10274 H 958.541 -3.09789 5.26178 0
M  V30 10275 H 959.955 -0.863011 5.66767 0
M  V30 10276 H 958.352 -0.14466 5.99926 0
M  V30 10277 H 959.422 0.618457 4.8094 0
M  V30 10278 N 960.765 -1.57509 0.0534917 0
M  V30 10279 C 961.713 -2.12851 -0.937931 0
M  V30 10280 C 962.707 -1.06088 -1.32067 0
M  V30 10281 O 963.913 -1.24494 -1.30005 0
M  V30 10282 H 960.288 -0.680357 -0.320342 0
M  V30 10283 H 962.259 -2.95047 -0.446077 0
M  V30 10284 C 961.008 -2.69034 -2.20264 0
M  V30 10285 H 960.331 -3.50848 -1.91693 0
M  V30 10286 H 961.771 -3.11375 -2.87788 0
M  V30 10287 C 960.23 -1.62919 -2.94888 0
M  V30 10288 O 960.76 -1.04334 -3.87914 0
M  V30 10289 N 958.966 -1.34385 -2.57661 0
M  V30 10290 H 958.513 -1.82214 -1.82088 0
M  V30 10291 H 958.471 -0.636149 -3.07897 0
M  V30 10292 N 962.243 0.219913 -1.56058 0
M  V30 10293 C 963.52 0.968493 -1.6994 0
M  V30 10294 C 963.9 2.02358 -0.601219 0
M  V30 10295 O 963.248 2.25121 0.391534 0
M  V30 10296 C 963.458 1.57745 -3.11316 0
M  V30 10297 C 964.806 2.06908 -3.70775 0
M  V30 10298 O 965.83 1.67636 -3.14288 0
M  V30 10299 O 964.689 2.79096 -4.69859 0
M  V30 10300 H 961.783 0.452521 -0.692209 0
M  V30 10301 H 964.329 0.211566 -1.68376 0
M  V30 10302 H 963.101 0.815687 -3.82704 0
M  V30 10303 H 962.724 2.39987 -3.17005 0
M  V30 10304 N 963.721 1.49897 0.486681 0
M  V30 10305 C 965.137 1.36977 0.819109 0
M  V30 10306 C 965.337 0.41385 1.97204 0
M  V30 10307 O 964.393 -0.149249 2.52059 0
M  V30 10308 C 965.706 2.78013 1.14584 0
M  V30 10309 C 967.254 2.86816 1.25321 0
M  V30 10310 C 967.729 4.28651 1.61316 0
M  V30 10311 N 969.22 4.31528 1.68337 0
M  V30 10312 C 969.955 5.38254 1.97662 0
M  V30 10313 N 969.451 6.55207 2.25113 0
M  V30 10314 N 971.244 5.25683 1.99033 0
M  V30 10315 H 963.395 2.10634 -0.273364 0
M  V30 10316 H 965.658 0.946116 -0.0597418 0
M  V30 10317 H 965.364 3.49728 0.371892 0
M  V30 10318 H 965.238 3.1428 2.08585 0
M  V30 10319 H 967.625 2.15329 2.01785 0
M  V30 10320 H 967.706 2.54112 0.293368 0
M  V30 10321 H 967.35 5.00669 0.853968 0
M  V30 10322 H 967.28 4.5883 2.58424 0
M  V30 10323 H 969.771 3.47189 1.49226 0
M  V30 10324 H 970.084 7.32359 2.46717 0
M  V30 10325 H 968.429 6.58408 2.22538 0
M  V30 10326 H 971.62 4.33316 1.77074 0
M  V30 10327 H 971.793 6.08949 2.21552 0
M  V30 10328 N 965.199 -0.738761 1.39212 0
M  V30 10329 C 966.424 -1.5331 1.39681 0
M  V30 10330 C 966.849 -1.88098 -0.00768715 0
M  V30 10331 O 966.207 -1.51642 -0.993699 0
M  V30 10332 C 966.255 -2.79958 2.27279 0
M  V30 10333 O 965.359 -3.75727 1.70008 0
M  V30 10334 H 964.7 -0.463131 0.475821 0
M  V30 10335 H 967.23 -0.911768 1.83161 0
M  V30 10336 H 967.24 -3.28732 2.41659 0
M  V30 10337 H 965.915 -2.5397 3.29351 0
M  V30 10338 H 964.492 -3.34483 1.64851 0
M  V30 10339 N 966.677 -1.24326 -0.968545 0
M  V30 10340 C 967.587 -1.05194 -2.09694 0
M  V30 10341 C 968.603 0.00701291 -1.73999 0
M  V30 10342 O 969.779 -0.190981 -2.00492 0
M  V30 10343 C 966.844 -0.658075 -3.40397 0
M  V30 10344 C 965.905 -1.79341 -3.90045 0
M  V30 10345 C 965.138 -1.41824 -5.14511 0
M  V30 10346 O 965.361 -0.307693 -5.69569 0
M  V30 10347 O 964.295 -2.24358 -5.58522 0
M  V30 10348 H 968.121 -1.99791 -2.2873 0
M  V30 10349 H 965.706 -1.03138 -1.08088 0
M  V30 10350 H 967.588 -0.449911 -4.18991 0
M  V30 10351 H 966.263 0.258782 -3.22664 0
M  V30 10352 H 965.17 -2.05632 -3.12516 0
M  V30 10353 H 966.503 -2.68901 -4.12254 0
M  V30 10354 N 968.156 1.1691 -1.05688 0
M  V30 10355 C 969.433 1.83266 -0.683601 0
M  V30 10356 C 969.813 1.93858 0.835602 0
M  V30 10357 O 969.161 1.47696 1.7435 0
M  V30 10358 C 969.371 3.20625 -1.37842 0
M  V30 10359 C 970.719 3.96473 -1.51967 0
M  V30 10360 O 971.743 3.30122 -1.33783 0
M  V30 10361 O 970.602 5.15393 -1.81749 0
M  V30 10362 H 967.696 0.791028 -0.241254 0
M  V30 10363 H 970.242 1.24165 -1.15677 0
M  V30 10364 H 969.014 3.07914 -2.41463 0
M  V30 10365 H 968.637 3.87398 -0.894921 0
M  V30 10366 N 969.634 0.838594 1.33437 0
M  V30 10367 C 970.564 0.286672 2.31734 0
M  V30 10368 C 971.545 -0.605451 1.5896 0
M  V30 10369 O 972.73 -0.529059 1.86854 0
M  V30 10370 C 969.86 -0.539311 3.43087 0
M  V30 10371 C 968.814 0.256997 4.27228 0
M  V30 10372 C 968.14 -0.692718 5.30194 0
M  V30 10373 C 969.44 1.47391 5.01072 0
M  V30 10374 H 971.134 1.10798 2.78144 0
M  V30 10375 H 968.68 0.534235 1.33723 0
M  V30 10376 H 970.633 -0.935724 4.1088 0
M  V30 10377 H 969.357 -1.39383 2.95364 0
M  V30 10378 H 968.016 0.634967 3.61059 0
M  V30 10379 H 967.664 -1.54363 4.78729 0
M  V30 10380 H 967.364 -0.164023 5.87371 0
M  V30 10381 H 968.888 -1.08665 6.00853 0
M  V30 10382 H 970.302 1.15067 5.61634 0
M  V30 10383 H 968.699 1.93937 5.67898 0
M  V30 10384 H 969.769 2.24382 4.29861 0
M  V30 10385 N 971.112 -1.45937 0.595003 0
M  V30 10386 C 972.022 -2.34221 -0.133325 0
M  V30 10387 C 973.038 -1.50491 -0.873407 0
M  V30 10388 O 974.214 -1.83328 -0.833828 0
M  V30 10389 C 971.279 -3.27896 -1.12628 0
M  V30 10390 C 970.34 -4.27529 -0.389532 0
M  V30 10391 C 969.573 -5.16729 -1.33519 0
M  V30 10392 O 969.796 -5.09102 -2.57238 0
M  V30 10393 O 968.73 -5.96023 -0.839084 0
M  V30 10394 H 972.556 -2.97877 0.591861 0
M  V30 10395 H 970.141 -1.45113 0.355329 0
M  V30 10396 H 972.023 -3.85654 -1.69851 0
M  V30 10397 H 970.698 -2.6682 -1.83272 0
M  V30 10398 H 969.605 -3.73424 0.224843 0
M  V30 10399 H 970.938 -4.91425 0.276169 0
M  V30 10400 N 972.59 -0.333456 -1.54032 0
M  V30 10401 C 973.537 0.527981 -2.2468 0
M  V30 10402 C 974.507 1.10371 -1.24127 0
M  V30 10403 O 975.692 1.14221 -1.52834 0
M  V30 10404 C 972.832 1.67808 -3.01553 0
M  V30 10405 C 971.945 1.13064 -4.16942 0
M  V30 10406 C 971.08 2.24722 -4.81325 0
M  V30 10407 C 970.119 1.67277 -5.88799 0
M  V30 10408 N 969.256 2.72638 -6.47003 0
M  V30 10409 H 974.096 -0.0810308 -2.9789 0
M  V30 10410 H 971.633 -0.051761 -1.47009 0
M  V30 10411 H 973.591 2.35502 -3.44376 0
M  V30 10412 H 972.221 2.25823 -2.30659 0
M  V30 10413 H 971.273 0.344948 -3.78833 0
M  V30 10414 H 972.585 0.670373 -4.94275 0
M  V30 10415 H 971.739 3.00301 -5.27166 0
M  V30 10416 H 970.478 2.74089 -4.03394 0
M  V30 10417 H 969.483 0.902002 -5.4235 0
M  V30 10418 H 970.708 1.18775 -6.68632 0
M  V30 10419 H 968.654 3.21277 -5.71941 0
M  V30 10420 H 968.571 2.31204 -7.19778 0
M  V30 10421 H 969.839 3.48015 -6.97499 0
M  V30 10422 N 974.068 1.57479 -0.061844 0
M  V30 10423 C 975 2.09116 0.938245 0
M  V30 10424 C 976.013 1.0212 1.26788 0
M  V30 10425 O 977.202 1.2966 1.22681 0
M  V30 10426 C 974.302 2.52822 2.25686 0
M  V30 10427 C 973.475 3.83277 2.10755 0
M  V30 10428 C 972.534 4.13182 3.25833 0
M  V30 10429 O 971.56 4.82937 3.01265 0
M  V30 10430 N 972.762 3.65938 4.50633 0
M  V30 10431 H 975.527 2.95543 0.497433 0
M  V30 10432 H 973.088 1.61423 0.124134 0
M  V30 10433 H 975.08 2.69896 3.01559 0
M  V30 10434 H 973.65 1.71586 2.61299 0
M  V30 10435 H 972.87 3.7568 1.19409 0
M  V30 10436 H 974.158 4.68686 1.98018 0
M  V30 10437 H 973.556 3.09566 4.73482 0
M  V30 10438 H 972.113 3.8823 5.23565 0
M  V30 10439 N 975.546 -0.211634 1.56173 0
M  V30 10440 C 976.795 -0.932647 1.78842 0
M  V30 10441 C 977.108 -1.85103 0.63217 0
M  V30 10442 O 978.314 -2.61143 0.742746 0
M  V30 10443 C 976.77 -1.70866 3.16753 0
M  V30 10444 C 976.378 -0.835934 4.40132 0
M  V30 10445 C 978.122 -2.4203 3.48743 0
M  V30 10446 C 976.029 -1.60987 5.69067 0
M  V30 10447 H 974.959 -0.351983 0.666801 0
M  V30 10448 H 977.61 -0.186284 1.82552 0
M  V30 10449 H 975.992 -2.4983 3.07247 0
M  V30 10450 H 977.166 -0.0861298 4.60719 0
M  V30 10451 H 975.481 -0.235941 4.15731 0
M  V30 10452 H 978.078 -3.00453 4.42303 0
M  V30 10453 H 978.421 -3.15406 2.71707 0
M  V30 10454 H 978.954 -1.70048 3.59623 0
M  V30 10455 H 975.693 -0.9192 6.49023 0
M  V30 10456 H 975.213 -2.33403 5.52524 0
M  V30 10457 H 976.892 -2.16798 6.09596 0
M  V30 10458 N 977.024 -1.50153 -0.478725 0
M  V30 10459 C 978.272 -1.60443 -1.22892 0
M  V30 10460 C 978.593 -0.303276 -1.92627 0
M  V30 10461 O 977.863 0.678798 -1.83764 0
M  V30 10462 H 976.443 -0.591205 -0.456602 0
M  V30 10463 H 979.105 -1.86893 -0.552905 0
M  V30 10464 H 978.201 -2.41175 -1.98094 0
M  V30 10465 N 978.502 0.731368 -1.39602 0
M  V30 10466 C 979.727 1.52567 -1.40492 0
M  V30 10467 C 980.152 1.881 -0.00228828 0
M  V30 10468 O 979.51 1.52167 0.985643 0
M  V30 10469 C 979.558 2.78749 -2.2876 0
M  V30 10470 O 978.662 3.7482 -1.71999 0
M  V30 10471 H 978.003 0.460601 -0.478271 0
M  V30 10472 H 980.533 0.902042 -1.83642 0
M  V30 10473 H 980.543 3.27446 -2.43399 0
M  V30 10474 H 979.218 2.5222 -3.30693 0
M  V30 10475 H 977.795 3.33604 -1.66622 0
M  V30 10476 N 979.98 1.24838 0.961938 0
M  V30 10477 C 980.91 1.07053 2.07514 0
M  V30 10478 C 981.891 -0.0182465 1.7009 0
M  V30 10479 O 983.076 0.149915 1.9362 0
M  V30 10480 C 980.206 0.680693 3.40564 0
M  V30 10481 C 979.16 1.71889 3.91967 0
M  V30 10482 C 978.486 1.18395 5.21428 0
M  V30 10483 C 979.786 3.1161 4.19161 0
M  V30 10484 H 981.48 2.00167 2.22651 0
M  V30 10485 H 979.026 0.963799 1.0699 0
M  V30 10486 H 980.979 0.54324 4.17884 0
M  V30 10487 H 979.703 -0.28615 3.25344 0
M  V30 10488 H 978.362 1.84465 3.16809 0
M  V30 10489 H 978.01 0.207543 5.02572 0
M  V30 10490 H 977.71 1.87778 5.56788 0
M  V30 10491 H 979.234 1.05873 6.01351 0
M  V30 10492 H 980.648 3.0223 4.87165 0
M  V30 10493 H 979.045 3.78398 4.65763 0
M  V30 10494 H 980.115 3.59218 3.25715 0
M  V30 10495 N 981.458 -1.16348 1.06306 0
M  V30 10496 C 982.368 -2.24375 0.685059 0
M  V30 10497 C 983.384 -1.71413 -0.298956 0
M  V30 10498 O 984.56 -2.00854 -0.148239 0
M  V30 10499 C 981.625 -3.46614 0.0774088 0
M  V30 10500 C 980.686 -4.14613 1.11331 0
M  V30 10501 C 979.919 -5.31016 0.534559 0
M  V30 10502 O 980.142 -5.66654 -0.65265 0
M  V30 10503 O 979.076 -5.88256 1.27431 0
M  V30 10504 H 982.902 -2.59018 1.58566 0
M  V30 10505 H 980.487 -1.23865 0.835332 0
M  V30 10506 H 982.369 -4.20599 -0.259716 0
M  V30 10507 H 981.044 -3.13743 -0.796677 0
M  V30 10508 H 979.951 -3.42597 1.50261 0
M  V30 10509 H 981.284 -4.51538 1.95893 0
M  V30 10510 N 982.937 -0.845659 -1.3299 0
M  V30 10511 C 984.162 -0.457435 -2.02293 0
M  V30 10512 C 984.587 0.935634 -1.63179 0
M  V30 10513 O 983.945 1.61297 -0.827835 0
M  V30 10514 C 983.993 -0.593665 -3.5568 0
M  V30 10515 O 983.097 0.37729 -4.10671 0
M  V30 10516 H 982.438 -0.185022 -0.637701 0
M  V30 10517 H 984.968 -1.14237 -1.69738 0
M  V30 10518 H 984.978 -0.477834 -4.05192 0
M  V30 10519 H 983.653 -1.60957 -3.83491 0
M  V30 10520 H 982.23 0.218448 -3.7226 0
M  V30 10521 N 984.415 1.45619 -0.602734 0
M  V30 10522 C 985.362 2.30493 0.118944 0
M  V30 10523 C 986.332 1.41816 0.864723 0
M  V30 10524 O 987.517 1.7075 0.851424 0
M  V30 10525 C 984.657 3.2664 1.11356 0
M  V30 10526 C 983.77 4.3042 0.369161 0
M  V30 10527 C 982.905 5.13678 1.35307 0
M  V30 10528 C 981.944 6.09189 0.596207 0
M  V30 10529 N 981.081 6.85245 1.52916 0
M  V30 10530 H 985.921 2.91672 -0.610836 0
M  V30 10531 H 983.458 1.43731 -0.313032 0
M  V30 10532 H 985.416 3.80846 1.7033 0
M  V30 10533 H 984.046 2.67225 1.81081 0
M  V30 10534 H 983.098 3.78913 -0.335994 0
M  V30 10535 H 984.41 4.98307 -0.221603 0
M  V30 10536 H 983.564 5.7226 2.01502 0
M  V30 10537 H 982.303 4.45798 1.97777 0
M  V30 10538 H 981.308 5.49743 -0.0793984 0
M  V30 10539 H 982.533 6.79096 -0.0233734 0
M  V30 10540 H 980.479 6.20058 2.14159 0
M  V30 10541 H 980.396 7.49467 0.991713 0
M  V30 10542 H 981.664 7.48371 2.18083 0
M  V30 10543 N 985.893 0.34162 1.53853 0
M  V30 10544 C 986.823 -0.508431 2.27897 0
M  V30 10545 C 987.804 -1.10425 1.29384 0
M  V30 10546 O 988.989 -1.126 1.58224 0
M  V30 10547 C 986.119 -1.66048 3.05034 0
M  V30 10548 C 985.073 -1.19309 4.11035 0
M  V30 10549 C 984.399 -2.4335 4.76114 0
M  V30 10550 C 985.699 -0.294952 5.21467 0
M  V30 10551 H 987.393 0.109251 2.99201 0
M  V30 10552 H 984.939 0.0539847 1.43899 0
M  V30 10553 H 986.892 -2.26158 3.5557 0
M  V30 10554 H 985.616 -2.30503 2.31379 0
M  V30 10555 H 984.275 -0.614809 3.61408 0
M  V30 10556 H 983.923 -3.06208 3.99056 0
M  V30 10557 H 983.623 -2.1276 5.47729 0
M  V30 10558 H 985.147 -3.0419 5.29434 0
M  V30 10559 H 986.561 -0.80285 5.67651 0
M  V30 10560 H 984.958 -0.0810221 6.00045 0
M  V30 10561 H 986.028 0.669433 4.80257 0
M  V30 10562 N 987.371 -1.57444 0.0701946 0
M  V30 10563 C 988.281 -2.16132 -0.912377 0
M  V30 10564 C 989.297 -1.12406 -1.32819 0
M  V30 10565 O 990.473 -1.44665 -1.40121 0
M  V30 10566 C 987.538 -2.71008 -2.16231 0
M  V30 10567 C 986.599 -3.896 -1.80306 0
M  V30 10568 C 985.832 -4.4185 -2.9934 0
M  V30 10569 O 986.055 -3.93106 -4.13309 0
M  V30 10570 O 984.989 -5.33201 -2.7925 0
M  V30 10571 H 988.815 -3.00449 -0.443167 0
M  V30 10572 H 986.4 -1.48617 -0.152786 0
M  V30 10573 H 988.282 -3.06186 -2.8953 0
M  V30 10574 H 986.957 -1.8975 -2.62253 0
M  V30 10575 H 985.864 -3.59277 -1.04264 0
M  V30 10576 H 987.197 -4.72145 -1.39068 0
M  V30 10577 N 988.849 0.203349 -1.56283 0
M  V30 10578 C 989.799 1.25595 -1.90289 0
M  V30 10579 C 990.783 1.41403 -0.767732 0
M  V30 10580 O 991.975 1.43912 -1.03046 0
M  V30 10581 C 989.104 2.60255 -2.23881 0
M  V30 10582 C 988.19 2.48274 -3.43833 0
M  V30 10583 N 988.581 2.05963 -4.61966 0
M  V30 10584 C 986.879 2.79188 -3.47808 0
M  V30 10585 C 987.58 2.05674 -5.44126 0
M  V30 10586 N 986.556 2.46862 -4.84314 0
M  V30 10587 H 990.358 0.920016 -2.79129 0
M  V30 10588 H 987.872 0.411829 -1.57091 0
M  V30 10589 H 989.869 3.36274 -2.46425 0
M  V30 10590 H 988.529 2.94678 -1.36363 0
M  V30 10591 H 989.54 1.76803 -4.86787 0
M  V30 10592 H 986.217 3.17863 -2.70684 0
M  V30 10593 H 987.607 1.74932 -6.48728 0
M  V30 10594 N 990.327 1.50405 0.470755 0
M  V30 10595 C 991.257 1.72222 1.57676 0
M  V30 10596 C 992.238 0.57121 1.60222 0
M  V30 10597 O 993.423 0.810381 1.76484 0
M  V30 10598 C 990.553 1.81666 2.95998 0
M  V30 10599 C 989.507 2.96857 3.08318 0
M  V30 10600 C 988.833 2.91445 4.4829 0
M  V30 10601 C 990.133 4.37361 2.85504 0
M  V30 10602 H 991.827 2.64825 1.39671 0
M  V30 10603 H 989.373 1.27438 0.67049 0
M  V30 10604 H 991.326 1.95514 3.73299 0
M  V30 10605 H 990.05 0.856856 3.1516 0
M  V30 10606 H 988.709 2.82661 2.33449 0
M  V30 10607 H 988.357 1.93309 4.64371 0
M  V30 10608 H 988.057 3.68776 4.57469 0
M  V30 10609 H 989.581 3.07341 5.27611 0
M  V30 10610 H 990.995 4.52081 3.52555 0
M  V30 10611 H 989.392 5.16145 3.06127 0
M  V30 10612 H 990.462 4.49708 1.81359 0
M  V30 10613 N 991.805 -0.723954 1.39988 0
M  V30 10614 C 993.033 -1.51313 1.4111 0
M  V30 10615 C 993.448 -1.88798 0.00853333 0
M  V30 10616 O 992.805 -1.54868 -0.965516 0
M  V30 10617 C 992.856 -2.79375 2.29416 0
M  V30 10618 O 992.577 -2.43478 3.64211 0
M  V30 10619 C 994.078 -3.7333 2.3904 0
M  V30 10620 H 991.298 -0.46724 0.481589 0
M  V30 10621 H 993.842 -0.893694 1.83938 0
M  V30 10622 H 991.997 -3.37624 1.89971 0
M  V30 10623 H 992.411 -3.25821 4.11024 0
M  V30 10624 H 993.885 -4.60051 3.05053 0
M  V30 10625 H 994.362 -4.15854 1.41289 0
M  V30 10626 H 994.968 -3.20996 2.79001 0
M  V30 10627 N 993.283 -1.25346 -0.955304 0
M  V30 10628 C 994.246 -1.05754 -2.03344 0
M  V30 10629 C 995.246 -0.0105743 -1.60797 0
M  V30 10630 O 996.436 -0.252699 -1.72357 0
M  V30 10631 C 993.568 -0.605536 -3.35479 0
M  V30 10632 H 994.761 -2.01459 -2.22158 0
M  V30 10633 H 992.314 -1.07744 -1.1323 0
M  V30 10634 H 993.049 0.354154 -3.2236 0
M  V30 10635 H 992.834 -1.36134 -3.67709 0
M  V30 10636 H 994.324 -0.489867 -4.14717 0
M  V30 10637 N 994.761 1.15782 -1.06922 0
M  V30 10638 C 995.986 1.90896 -0.810771 0
M  V30 10639 C 996.411 1.77246 0.629714 0
M  V30 10640 O 995.769 1.10215 1.43953 0
M  V30 10641 C 995.817 3.39397 -1.21829 0
M  V30 10642 O 994.921 4.10818 -0.360934 0
M  V30 10643 H 994.262 0.594497 -0.295752 0
M  V30 10644 H 996.792 1.46652 -1.42669 0
M  V30 10645 H 996.802 3.90181 -1.19259 0
M  V30 10646 H 995.477 3.4865 -2.2675 0
M  V30 10647 H 994.054 3.7019 -0.448748 0
M  V30 10648 N 996.239 0.8527 1.3254 0
M  V30 10649 C 997.486 0.455123 1.97319 0
M  V30 10650 C 997.814 -0.988814 1.67489 0
M  V30 10651 O 997.069 -1.70845 0.954483 0
M  V30 10652 C 997.368 0.638757 3.51646 0
M  V30 10653 C 997.034 2.05287 4.01458 0
M  V30 10654 C 995.696 2.43963 4.14771 0
M  V30 10655 C 998.048 2.9759 4.27889 0
M  V30 10656 C 995.376 3.7422 4.51859 0
M  V30 10657 C 997.728 4.27343 4.66434 0
M  V30 10658 C 996.392 4.65957 4.77954 0
M  V30 10659 H 995.662 0.166541 0.722042 0
M  V30 10660 H 998.309 1.08238 1.57977 0
M  V30 10661 H 996.614 -0.0717394 3.91734 0
M  V30 10662 H 998.311 0.311219 3.9979 0
M  V30 10663 H 994.901 1.74253 3.91579 0
M  V30 10664 H 999.085 2.68942 4.17114 0
M  V30 10665 H 994.341 4.03923 4.58973 0
M  V30 10666 H 998.515 4.9893 4.85841 0
M  V30 10667 H 996.142 5.66934 5.06449 0
M  V30 10668 N 997.718 -1.45297 0.610449 0
M  V30 10669 C 998.666 -2.32295 -0.119167 0
M  V30 10670 C 999.66 -1.46138 -0.856746 0
M  V30 10671 O 1000.87 -1.62605 -0.771988 0
M  V30 10672 H 997.241 -0.749815 -0.0572881 0
M  V30 10673 H 999.212 -2.91609 0.63297 0
M  V30 10674 C 997.961 -3.29802 -1.10119 0
M  V30 10675 H 997.284 -3.96095 -0.543063 0
M  V30 10676 H 998.724 -3.93398 -1.58158 0
M  V30 10677 C 997.183 -2.57185 -2.17617 0
M  V30 10678 O 997.713 -2.35535 -3.25401 0
M  V30 10679 N 995.919 -2.17272 -1.9298 0
M  V30 10680 H 995.466 -2.3508 -1.05334 0
M  V30 10681 H 995.424 -1.69009 -2.6511 0
M  V30 10682 N 999.196 -0.349774 -1.5367 0
M  V30 10683 C 1000.42 0.248692 -2.05904 0
M  V30 10684 C 1000.85 1.42942 -1.22267 0
M  V30 10685 O 1000.2 1.79732 -0.237899 0
M  V30 10686 C 1000.25 0.635639 -3.54953 0
M  V30 10687 O 999.356 1.7349 -3.74132 0
M  V30 10688 H 998.697 0.0399477 -0.662797 0
M  V30 10689 H 1001.23 -0.505795 -1.9825 0
M  V30 10690 H 1001.24 0.911064 -3.97698 0
M  V30 10691 H 999.912 -0.227805 -4.15276 0
M  V30 10692 H 998.489 1.45626 -3.43289 0
M  V30 10693 N 1000.67 1.57404 -0.0785433 0
M  V30 10694 C 1001.6 2.16131 0.883726 0
M  V30 10695 C 1002.58 1.09015 1.30575 0
M  V30 10696 O 1003.77 1.3708 1.37559 0
M  V30 10697 C 1000.9 2.72836 2.1489 0
M  V30 10698 C 999.854 3.85178 1.86605 0
M  V30 10699 C 999.18 4.28516 3.1981 0
M  V30 10700 C 1000.48 5.09118 1.16601 0
M  V30 10701 H 1002.17 2.9679 0.394484 0
M  V30 10702 H 999.72 1.42763 0.188304 0
M  V30 10703 H 1001.67 3.12567 2.8263 0
M  V30 10704 H 1000.4 1.89408 2.66068 0
M  V30 10705 H 999.056 3.45962 1.21268 0
M  V30 10706 H 998.704 3.42 3.68843 0
M  V30 10707 H 998.404 5.04249 3.01674 0
M  V30 10708 H 999.928 4.70868 3.88737 0
M  V30 10709 H 1001.34 5.46123 1.74422 0
M  V30 10710 H 999.739 5.90173 1.087 0
M  V30 10711 H 1000.81 4.8468 0.146138 0
M  V30 10712 N 1002.15 -0.195058 1.56388 0
M  V30 10713 C 1003.56 -0.75973 1.70543 0
M  V30 10714 C 1003.91 -1.83849 0.685118 0
M  V30 10715 O 1003.04 -2.15819 -0.158457 0
M  V30 10716 C 1003.63 -1.38485 3.09204 0
M  V30 10717 C 1002.19 -1.89661 3.25124 0
M  V30 10718 C 1001.34 -0.766563 2.66494 0
M  V30 10719 H 1004.29 0.0300148 1.58672 0
M  V30 10720 H 1004.31 -2.25424 3.06536 0
M  V30 10721 H 1003.82 -0.599479 3.83442 0
M  V30 10722 H 1001.92 -2.70917 2.55802 0
M  V30 10723 H 1002.04 -2.05837 4.32629 0
M  V30 10724 H 1000.4 -1.18086 2.25672 0
M  V30 10725 H 1001.18 0.00657102 3.43299 0
M  V30 10726 N 1003.63 -1.50653 -0.462772 0
M  V30 10727 C 1004.56 -1.73056 -1.5676 0
M  V30 10728 C 1005.54 -0.579699 -1.59917 0
M  V30 10729 O 1006.73 -0.819729 -1.76051 0
M  V30 10730 C 1003.86 -1.83234 -2.9503 0
M  V30 10731 C 1002.81 -2.98488 -3.06739 0
M  V30 10732 C 1002.14 -2.93818 -4.46738 0
M  V30 10733 C 1003.44 -4.38869 -2.83181 0
M  V30 10734 H 1005.13 -2.65562 -1.38265 0
M  V30 10735 H 1002.68 -1.27792 -0.663722 0
M  V30 10736 H 1004.63 -1.97491 -3.72257 0
M  V30 10737 H 1003.35 -0.873558 -3.14701 0
M  V30 10738 H 1002.01 -2.83895 -2.31946 0
M  V30 10739 H 1001.66 -1.95769 -4.63339 0
M  V30 10740 H 1001.36 -3.71197 -4.55507 0
M  V30 10741 H 1002.88 -3.10135 -5.25974 0
M  V30 10742 H 1004.3 -4.53945 -3.50153 0
M  V30 10743 H 1002.69 -5.17762 -3.03386 0
M  V30 10744 H 1003.76 -4.50663 -1.78972 0
M  V30 10745 N 1005.11 0.71652 -1.4037 0
M  V30 10746 C 1006.04 1.84345 -1.43315 0
M  V30 10747 C 1007.02 1.67537 -0.294186 0
M  V30 10748 O 1008.2 1.87582 -0.502671 0
M  V30 10749 C 1005.33 3.2229 -1.29408 0
M  V30 10750 C 1004.29 3.53769 -2.40897 0
M  V30 10751 C 1003.61 4.90847 -2.12068 0
M  V30 10752 C 1004.91 3.54862 -3.83237 0
M  V30 10753 H 1006.61 1.82138 -2.37626 0
M  V30 10754 H 1004.15 0.874873 -1.14376 0
M  V30 10755 H 1006.11 4.00819 -1.30085 0
M  V30 10756 H 1004.83 3.2507 -0.31573 0
M  V30 10757 H 1003.49 2.77579 -2.39469 0
M  V30 10758 H 1003.14 4.90229 -1.12626 0
M  V30 10759 H 1002.84 5.12875 -2.86762 0
M  V30 10760 H 1004.36 5.71711 -2.14426 0
M  V30 10761 H 1005.78 4.23432 -3.86494 0
M  V30 10762 H 1004.17 3.88416 -4.57442 0
M  V30 10763 H 1005.24 2.54266 -4.12888 0
M  V30 10764 N 1006.59 1.25851 0.948643 0
M  V30 10765 C 1007.84 1.10347 1.68838 0
M  V30 10766 C 1008.15 -0.354262 1.92365 0
M  V30 10767 O 1009.35 -0.629847 2.64093 0
M  V30 10768 C 1007.81 1.92659 3.03991 0
M  V30 10769 C 1007.42 3.42962 2.88238 0
M  V30 10770 C 1009.16 1.85743 3.81707 0
M  V30 10771 C 1007.07 4.17547 4.18818 0
M  V30 10772 H 1006 0.409342 0.63321 0
M  V30 10773 H 1008.65 1.50098 1.05559 0
M  V30 10774 H 1007.03 1.45736 3.68208 0
M  V30 10775 H 1008.21 3.97601 2.32917 0
M  V30 10776 H 1006.52 3.51035 2.23972 0
M  V30 10777 H 1009.12 2.38758 4.78434 0
M  V30 10778 H 1009.46 0.826568 4.08012 0
M  V30 10779 H 1009.99 2.30449 3.2425 0
M  V30 10780 H 1006.73 5.21072 3.97699 0
M  V30 10781 H 1006.25 3.6769 4.73882 0
M  V30 10782 H 1007.93 4.25589 4.87322 0
M  V30 10783 N 1008.06 -1.15214 1.07534 0
M  V30 10784 C 1009.03 -2.18209 0.701237 0
M  V30 10785 C 1010.03 -1.58693 -0.25946 0
M  V30 10786 O 1011.22 -1.74154 -0.0401744 0
M  V30 10787 C 1008.35 -3.40883 0.0338703 0
M  V30 10788 H 1009.54 -2.5282 1.61314 0
M  V30 10789 H 1007.1 -1.29707 0.872105 0
M  V30 10790 H 1007.83 -3.11843 -0.890187 0
M  V30 10791 H 1007.62 -3.85342 0.72486 0
M  V30 10792 H 1009.11 -4.17056 -0.213152 0
M  V30 10793 N 1009.54 -0.859717 -1.32086 0
M  V30 10794 C 1010.82 -0.386665 -1.9174 0
M  V30 10795 C 1011.2 1.13028 -1.78292 0
M  V30 10796 O 1010.55 1.95422 -1.18417 0
M  V30 10797 C 1010.76 -0.856648 -3.38323 0
M  V30 10798 C 1012.11 -0.87678 -4.15449 0
M  V30 10799 O 1013.13 -0.80162 -3.47063 0
M  V30 10800 O 1011.99 -0.98373 -5.37573 0
M  V30 10801 H 1009.08 -0.113758 -0.819139 0
M  V30 10802 H 1011.63 -0.946952 -1.40822 0
M  V30 10803 H 1010.4 -1.89996 -3.42078 0
M  V30 10804 H 1010.02 -0.274095 -3.96654 0
M  V30 10805 N 1011.02 1.44971 -0.618145 0
M  V30 10806 C 1012.25 2.06527 -0.124165 0
M  V30 10807 C 1012.66 1.46097 1.19588 0
M  V30 10808 O 1012.02 0.57901 1.73071 0
M  V30 10809 C 1012.07 3.61498 0.0106701 0
M  V30 10810 O 1011.79 4.19675 -1.25716 0
M  V30 10811 C 1013.29 4.40061 0.534872 0
M  V30 10812 H 1010.51 0.666941 -0.0736935 0
M  V30 10813 H 1013.06 1.8605 -0.848871 0
M  V30 10814 H 1011.21 3.81282 0.685752 0
M  V30 10815 H 1011.63 5.12972 -1.09362 0
M  V30 10816 H 1013.1 5.48963 0.57827 0
M  V30 10817 H 1013.58 4.10587 1.55931 0
M  V30 10818 H 1014.18 4.25167 -0.10652 0
M  V30 10819 N 1012.5 0.357919 1.53482 0
M  V30 10820 C 1013.43 -0.484231 2.28424 0
M  V30 10821 C 1014.41 -1.09046 1.30548 0
M  V30 10822 O 1015.59 -1.10916 1.59409 0
M  V30 10823 C 1012.72 -1.62803 3.06778 0
M  V30 10824 C 1011.68 -1.14943 4.12277 0
M  V30 10825 C 1011 -2.38287 4.78669 0
M  V30 10826 C 1012.3 -0.239627 5.2175 0
M  V30 10827 H 1014 0.140979 2.99068 0
M  V30 10828 H 1011.54 0.069244 1.43833 0
M  V30 10829 H 1013.5 -2.22374 3.57949 0
M  V30 10830 H 1012.22 -2.28036 2.3381 0
M  V30 10831 H 1010.88 -0.576442 3.6204 0
M  V30 10832 H 1010.53 -3.01959 4.02281 0
M  V30 10833 H 1010.23 -2.06939 5.49955 0
M  V30 10834 H 1011.75 -2.98558 5.32631 0
M  V30 10835 H 1013.17 -0.742597 5.6847 0
M  V30 10836 H 1011.56 -0.0173747 6.00097 0
M  V30 10837 H 1012.63 0.720333 4.7952 0
M  V30 10838 N 1013.98 -1.5736 0.0868897 0
M  V30 10839 C 1015.39 -1.57304 -0.269762 0
M  V30 10840 C 1015.59 -1.09745 -1.68992 0
M  V30 10841 O 1014.65 -0.77017 -2.40468 0
M  V30 10842 C 1015.96 -3.00628 -0.0656646 0
M  V30 10843 C 1017.51 -3.12713 -0.134045 0
M  V30 10844 C 1017.98 -4.57981 0.0419569 0
M  V30 10845 N 1019.48 -4.63198 -0.0131501 0
M  V30 10846 C 1020.21 -5.73316 0.0983964 0
M  V30 10847 N 1019.71 -6.92296 0.264315 0
M  V30 10848 N 1021.5 -5.62086 0.0402517 0
M  V30 10849 H 1013.65 -1.86585 1.01487 0
M  V30 10850 H 1015.91 -0.860843 0.397055 0
M  V30 10851 H 1015.62 -3.39592 0.914891 0
M  V30 10852 H 1015.49 -3.68367 -0.811522 0
M  V30 10853 H 1017.88 -2.73627 -1.1051 0
M  V30 10854 H 1017.96 -2.47582 0.643167 0
M  V30 10855 H 1017.61 -4.9776 1.00984 0
M  V30 10856 H 1017.54 -5.21162 -0.754847 0
M  V30 10857 H 1020.03 -3.77644 -0.139183 0
M  V30 10858 H 1020.34 -7.72047 0.341165 0
M  V30 10859 H 1018.68 -6.94353 0.299876 0
M  V30 10860 H 1021.88 -4.68017 -0.0881801 0
M  V30 10861 H 1022.05 -6.47868 0.130635 0
M  V30 10862 N 1015.45 0.186762 -1.56489 0
M  V30 10863 C 1016.39 1.25565 -1.91745 0
M  V30 10864 C 1017.4 1.4128 -0.80894 0
M  V30 10865 O 1018.59 1.41558 -1.08737 0
M  V30 10866 C 1015.69 2.62662 -2.14154 0
M  V30 10867 C 1014.86 2.68448 -3.45333 0
M  V30 10868 C 1013.92 3.86798 -3.56754 0
M  V30 10869 O 1012.95 3.73514 -4.29507 0
M  V30 10870 N 1014.15 5.02607 -2.90459 0
M  V30 10871 H 1016.91 0.956351 -2.84032 0
M  V30 10872 H 1014.47 0.376631 -1.57458 0
M  V30 10873 H 1016.47 3.40277 -2.19075 0
M  V30 10874 H 1015.04 2.85046 -1.28326 0
M  V30 10875 H 1014.26 1.77044 -3.52206 0
M  V30 10876 H 1015.54 2.69311 -4.31682 0
M  V30 10877 H 1014.94 5.163 -2.31194 0
M  V30 10878 H 1013.5 5.78139 -3.00996 0
M  V30 10879 N 1016.93 1.50896 0.454776 0
M  V30 10880 C 1017.86 1.6712 1.56855 0
M  V30 10881 C 1018.88 0.552223 1.53148 0
M  V30 10882 O 1020.07 0.825969 1.5824 0
M  V30 10883 C 1017.17 1.65464 2.95762 0
M  V30 10884 C 1016.34 2.93662 3.24163 0
M  V30 10885 C 1015.4 2.84428 4.42704 0
M  V30 10886 O 1014.42 3.58382 4.42211 0
M  V30 10887 N 1015.63 1.9909 5.45292 0
M  V30 10888 H 1018.39 2.63194 1.43349 0
M  V30 10889 H 1015.95 1.48564 0.643457 0
M  V30 10890 H 1017.94 1.56878 3.73057 0
M  V30 10891 H 1016.51 0.770568 3.02954 0
M  V30 10892 H 1015.73 3.16251 2.35328 0
M  V30 10893 H 1017.02 3.78558 3.39957 0
M  V30 10894 H 1016.42 1.3835 5.48521 0
M  V30 10895 H 1014.98 1.96396 6.21508 0
M  V30 10896 N 1018.41 -0.709066 1.40748 0
M  V30 10897 C 1019.34 -1.83412 1.37451 0
M  V30 10898 C 1020.36 -1.60394 0.27884 0
M  V30 10899 O 1021.54 -1.70147 0.539642 0
M  V30 10900 C 1018.64 -3.19935 1.1178 0
M  V30 10901 C 1017.82 -3.70095 2.33128 0
M  V30 10902 C 1016.88 -4.85249 2.03518 0
M  V30 10903 O 1015.9 -4.97563 2.76442 0
M  V30 10904 N 1017.1 -5.7152 1.01714 0
M  V30 10905 H 1019.87 -1.86736 2.34414 0
M  V30 10906 H 1017.43 -0.890863 1.35186 0
M  V30 10907 H 1019.42 -3.94578 0.899464 0
M  V30 10908 H 1017.99 -3.11718 0.234624 0
M  V30 10909 H 1017.21 -2.8651 2.70751 0
M  V30 10910 H 1018.5 -4.00344 3.1401 0
M  V30 10911 H 1017.9 -5.64188 0.413307 0
M  V30 10912 H 1016.46 -6.46119 0.858696 0
M  V30 10913 N 1019.89 -1.26353 -0.941956 0
M  V30 10914 C 1020.82 -1.03634 -2.04432 0
M  V30 10915 C 1021.83 0.00295864 -1.628 0
M  V30 10916 O 1023.02 -0.237029 -1.76919 0
M  V30 10917 C 1020.12 -0.547231 -3.34453 0
M  V30 10918 C 1019.3 -1.65559 -4.04857 0
M  V30 10919 C 1018.36 -1.16466 -5.13149 0
M  V30 10920 O 1017.38 -1.86158 -5.37898 0
M  V30 10921 N 1018.58 -0.0126703 -5.80499 0
M  V30 10922 H 1021.35 -1.98558 -2.24488 0
M  V30 10923 H 1018.91 -1.17728 -1.11138 0
M  V30 10924 H 1020.9 -0.203004 -4.04191 0
M  V30 10925 H 1019.47 0.308401 -3.11075 0
M  V30 10926 H 1018.69 -2.17079 -3.29044 0
M  V30 10927 H 1019.98 -2.39985 -4.48647 0
M  V30 10928 H 1019.38 0.569358 -5.62828 0
M  V30 10929 H 1017.93 0.272486 -6.5123 0
M  V30 10930 N 1021.37 1.14642 -1.08144 0
M  V30 10931 C 1022.3 2.19283 -0.6669 0
M  V30 10932 C 1023.31 1.60292 0.284668 0
M  V30 10933 O 1024.5 1.78352 0.0727383 0
M  V30 10934 C 1021.6 3.38877 0.0398572 0
M  V30 10935 C 1020.77 4.274 -0.929929 0
M  V30 10936 C 1019.83 5.25562 -0.258991 0
M  V30 10937 O 1018.86 5.61999 -0.902563 0
M  V30 10938 N 1020.06 5.71958 0.992177 0
M  V30 10939 H 1022.83 2.55464 -1.5671 0
M  V30 10940 H 1020.39 1.29836 -0.96717 0
M  V30 10941 H 1022.38 4.01605 0.499583 0
M  V30 10942 H 1020.95 3.01043 0.842118 0
M  V30 10943 H 1020.17 3.61649 -1.56857 0
M  V30 10944 H 1021.46 4.83411 -1.58717 0
M  V30 10945 H 1020.86 5.44481 1.53484 0
M  V30 10946 H 1019.41 6.36687 1.39544 0
M  V30 10947 N 1022.85 0.866709 1.31628 0
M  V30 10948 C 1023.78 0.335762 2.31073 0
M  V30 10949 C 1024.76 -0.571597 1.60209 0
M  V30 10950 O 1025.94 -0.489306 1.87935 0
M  V30 10951 C 1023.07 -0.466416 3.44154 0
M  V30 10952 C 1022.03 0.347561 4.26586 0
M  V30 10953 C 1021.35 -0.5801 5.31544 0
M  V30 10954 C 1022.65 1.57986 4.97833 0
M  V30 10955 H 1024.35 1.16673 2.75731 0
M  V30 10956 H 1021.89 0.56248 1.3256 0
M  V30 10957 H 1023.84 -0.84836 4.12772 0
M  V30 10958 H 1022.57 -1.33086 2.98254 0
M  V30 10959 H 1021.23 0.71141 3.59631 0
M  V30 10960 H 1020.88 -1.44174 4.81895 0
M  V30 10961 H 1020.58 -0.0393965 5.87587 0
M  V30 10962 H 1022.1 -0.958958 6.03023 0
M  V30 10963 H 1023.51 1.26954 5.59067 0
M  V30 10964 H 1021.91 2.05939 5.63657 0
M  V30 10965 H 1022.98 2.3345 4.25005 0
M  V30 10966 N 1024.32 -1.44642 0.625825 0
M  V30 10967 C 1025.25 -2.33397 -0.0692188 0
M  V30 10968 C 1026.23 -1.47898 -0.840241 0
M  V30 10969 O 1027.42 -1.7663 -0.807176 0
M  V30 10970 C 1024.55 -3.30888 -1.055 0
M  V30 10971 C 1023.5 -4.26164 -0.395968 0
M  V30 10972 C 1022.83 -5.13483 -1.49128 0
M  V30 10973 C 1024.13 -5.17663 0.694433 0
M  V30 10974 H 1025.82 -2.91763 0.671925 0
M  V30 10975 H 1023.37 -1.40294 0.324573 0
M  V30 10976 H 1025.32 -3.91861 -1.54993 0
M  V30 10977 H 1024.05 -2.7072 -1.82696 0
M  V30 10978 H 1022.71 -3.66516 0.0782691 0
M  V30 10979 H 1022.35 -4.49672 -2.25399 0
M  V30 10980 H 1022.05 -5.78038 -1.05573 0
M  V30 10981 H 1023.58 -5.77327 -1.98813 0
M  V30 10982 H 1024.99 -5.72602 0.282818 0
M  V30 10983 H 1023.39 -5.90793 1.05281 0
M  V30 10984 H 1024.46 -4.58994 1.56372 0
M  V30 10985 N 1025.8 -0.366053 -1.5329 0
M  V30 10986 C 1027.03 0.226839 -2.06156 0
M  V30 10987 C 1027.45 1.41637 -1.23776 0
M  V30 10988 O 1026.81 1.7947 -0.256948 0
M  V30 10989 C 1026.86 0.597956 -3.55608 0
M  V30 10990 O 1025.96 1.69512 -3.75951 0
M  V30 10991 H 1025.3 0.0329156 -0.663184 0
M  V30 10992 H 1027.83 -0.526793 -1.97702 0
M  V30 10993 H 1027.84 0.868831 -3.98642 0
M  V30 10994 H 1026.52 -0.271838 -4.15011 0
M  V30 10995 H 1025.09 1.41976 -3.44815 0
M  V30 10996 N 1027.28 1.57312 -0.0952337 0
M  V30 10997 C 1028.24 2.12889 0.849161 0
M  V30 10998 C 1029.24 1.05819 1.21075 0
M  V30 10999 O 1030.43 1.31704 1.14016 0
M  V30 11000 C 1027.56 2.6496 2.14498 0
M  V30 11001 H 1028.76 2.97651 0.366566 0
M  V30 11002 H 1026.31 1.55542 0.153762 0
M  V30 11003 H 1027.05 1.83718 2.67242 0
M  V30 11004 H 1026.83 3.43244 1.89542 0
M  V30 11005 H 1028.32 3.07952 2.82056 0
M  V30 11006 N 1028.76 -0.17846 1.56586 0
M  V30 11007 C 1030.01 -0.894502 1.8078 0
M  V30 11008 C 1030.32 -1.8372 0.67129 0
M  V30 11009 O 1031.53 -2.59509 0.797971 0
M  V30 11010 C 1029.98 -1.64109 3.20306 0
M  V30 11011 C 1029.59 -0.742387 4.41806 0
M  V30 11012 C 1031.33 -2.34578 3.53798 0
M  V30 11013 C 1029.24 -1.4888 5.72354 0
M  V30 11014 H 1028.17 -0.33776 0.674117 0
M  V30 11015 H 1030.82 -0.14752 1.82906 0
M  V30 11016 H 1029.2 -2.43257 3.12477 0
M  V30 11017 H 1030.38 0.011615 4.60799 0
M  V30 11018 H 1028.69 -0.147705 4.16138 0
M  V30 11019 H 1031.29 -2.91004 4.48577 0
M  V30 11020 H 1031.63 -3.09572 2.78336 0
M  V30 11021 H 1032.17 -1.62381 3.63149 0
M  V30 11022 H 1028.9 -0.781325 6.50827 0
M  V30 11023 H 1028.42 -2.21631 5.57351 0
M  V30 11024 H 1030.1 -2.03819 6.14058 0
M  V30 11025 N 1030.24 -1.51135 -0.446768 0
M  V30 11026 C 1031.48 -1.62571 -1.19388 0
M  V30 11027 C 1031.8 -0.3432 -1.92566 0
M  V30 11028 O 1033 -0.336804 -2.69403 0
M  V30 11029 C 1031.46 -2.87071 -2.17068 0
M  V30 11030 C 1031.07 -4.22291 -1.49581 0
M  V30 11031 C 1032.81 -3.07862 -2.9227 0
M  V30 11032 C 1030.72 -5.3795 -2.45689 0
M  V30 11033 H 1029.65 -0.60549 -0.449331 0
M  V30 11034 H 1032.3 -1.77593 -0.461846 0
M  V30 11035 H 1030.68 -2.65662 -2.93666 0
M  V30 11036 H 1031.86 -4.54046 -0.786054 0
M  V30 11037 H 1030.17 -4.07302 -0.865677 0
M  V30 11038 H 1032.77 -3.91444 -3.64246 0
M  V30 11039 H 1033.11 -2.20559 -3.53072 0
M  V30 11040 H 1033.64 -3.29566 -2.2278 0
M  V30 11041 H 1030.38 -6.27484 -1.89591 0
M  V30 11042 H 1029.9 -5.10583 -3.14746 0
M  V30 11043 H 1031.58 -5.69517 -3.07017 0
M  V30 11044 N 1031.71 0.701592 -1.41122 0
M  V30 11045 C 1032.62 1.84548 -1.44841 0
M  V30 11046 C 1033.64 1.70654 -0.339594 0
M  V30 11047 O 1034.82 1.92675 -0.586378 0
M  V30 11048 C 1031.88 3.20477 -1.3227 0
M  V30 11049 C 1030.94 3.46524 -2.53415 0
M  V30 11050 C 1030.17 4.75968 -2.41434 0
M  V30 11051 O 1030.4 5.52037 -1.43566 0
M  V30 11052 O 1029.33 5.02664 -3.31078 0
M  V30 11053 H 1033.16 1.84367 -2.41335 0
M  V30 11054 H 1030.74 0.853863 -1.22595 0
M  V30 11055 H 1032.62 4.01642 -1.2752 0
M  V30 11056 H 1031.3 3.21355 -0.388889 0
M  V30 11057 H 1030.21 2.65313 -2.63742 0
M  V30 11058 H 1031.54 3.50455 -3.45604 0
M  V30 11059 N 1033.19 1.2685 0.935242 0
M  V30 11060 C 1034.15 1.08975 2.01636 0
M  V30 11061 C 1035.15 0.0361543 1.60759 0
M  V30 11062 O 1036.34 0.280087 1.71934 0
M  V30 11063 C 1033.48 0.658831 3.34473 0
M  V30 11064 H 1034.67 2.04968 2.18925 0
M  V30 11065 H 1032.22 1.09531 1.11501 0
M  V30 11066 H 1032.96 -0.302824 3.22883 0
M  V30 11067 H 1032.74 1.41967 3.65497 0
M  V30 11068 H 1034.23 0.555783 4.13885 0
M  V30 11069 N 1034.67 -1.14067 1.0875 0
M  V30 11070 C 1036.09 -1.37173 0.815823 0
M  V30 11071 C 1036.29 -1.93175 -0.573215 0
M  V30 11072 O 1035.34 -2.14672 -1.32937 0
M  V30 11073 C 1036.66 -2.32955 1.90138 0
M  V30 11074 C 1038.2 -2.46586 1.9278 0
M  V30 11075 C 1038.68 -3.4567 3.0046 0
M  V30 11076 N 1040.17 -3.53216 2.99655 0
M  V30 11077 C 1040.9 -4.29743 3.79616 0
M  V30 11078 N 1040.4 -5.09484 4.69466 0
M  V30 11079 N 1042.19 -4.24975 3.67903 0
M  V30 11080 H 1034.34 -0.760648 1.98313 0
M  V30 11081 H 1036.61 -0.397135 0.860807 0
M  V30 11082 H 1036.31 -1.98949 2.90021 0
M  V30 11083 H 1036.19 -3.32897 1.77368 0
M  V30 11084 H 1038.57 -2.79882 0.935404 0
M  V30 11085 H 1038.66 -1.46593 2.09629 0
M  V30 11086 H 1038.3 -3.13106 3.99909 0
M  V30 11087 H 1038.23 -4.45452 2.80856 0
M  V30 11088 H 1040.72 -2.96314 2.34535 0
M  V30 11089 H 1041.03 -5.65163 5.27077 0
M  V30 11090 H 1039.38 -5.08741 4.73506 0
M  V30 11091 H 1042.57 -3.61751 2.97075 0
M  V30 11092 H 1042.74 -4.84364 4.30459 0
M  V30 11093 N 1036.15 -0.873678 -1.31166 0
M  V30 11094 C 1037.4 -0.485497 -1.96182 0
M  V30 11095 C 1037.72 0.96621 -1.69379 0
M  V30 11096 O 1036.99 1.67783 -1.01121 0
M  V30 11097 H 1035.57 -0.176547 -0.725838 0
M  V30 11098 H 1038.23 -1.11428 -1.59906 0
M  V30 11099 H 1037.33 -0.646325 -3.05334 0
M  V30 11100 N 1037.63 1.44308 -0.633487 0
M  V30 11101 C 1038.87 2.02322 -0.139123 0
M  V30 11102 C 1039.21 1.49733 1.23667 0
M  V30 11103 O 1038.48 0.682353 1.82138 0
M  V30 11104 C 1038.76 3.59871 -0.128366 0
M  V30 11105 C 1038.62 4.22737 -1.53667 0
M  V30 11106 C 1039.94 4.36702 0.545834 0
M  V30 11107 H 1037.05 0.735161 -0.0520293 0
M  V30 11108 H 1039.7 1.7185 -0.810411 0
M  V30 11109 H 1037.85 3.85963 0.443263 0
M  V30 11110 H 1039.52 4.07744 -2.15737 0
M  V30 11111 H 1037.76 3.80142 -2.08985 0
M  V30 11112 H 1038.43 5.31757 -1.48116 0
M  V30 11113 H 1040.91 4.16057 0.0596879 0
M  V30 11114 H 1039.78 5.46407 0.522557 0
M  V30 11115 H 1040.05 4.11483 1.6166 0
M  V30 11116 N 1039.1 0.374177 1.53094 0
M  V30 11117 C 1040.33 -0.215903 2.06273 0
M  V30 11118 C 1040.75 -1.40979 1.24526 0
M  V30 11119 O 1040.11 -1.79331 0.266462 0
M  V30 11120 C 1040.16 -0.579089 3.5592 0
M  V30 11121 O 1039.26 -1.67516 3.76845 0
M  V30 11122 H 1038.61 -0.0293981 0.663349 0
M  V30 11123 H 1041.14 0.537271 1.9742 0
M  V30 11124 H 1041.15 -0.847678 3.99097 0
M  V30 11125 H 1039.82 0.293843 4.14861 0
M  V30 11126 H 1038.4 -1.40146 3.45563 0
M  V30 11127 N 1040.58 -1.57259 0.103575 0
M  V30 11128 C 1041.83 -1.94945 -0.558953 0
M  V30 11129 C 1042.16 -0.986038 -1.67305 0
M  V30 11130 O 1041.44 -0.0205464 -1.94489 0
M  V30 11131 C 1041.72 -3.42689 -1.10617 0
M  V30 11132 C 1041.57 -4.498 0.00345246 0
M  V30 11133 C 1042.89 -3.91933 -2.00191 0
M  V30 11134 H 1040.01 -0.708859 -0.201713 0
M  V30 11135 H 1042.65 -1.89183 0.176006 0
M  V30 11136 H 1040.8 -3.4773 -1.73251 0
M  V30 11137 H 1042.47 -4.56866 0.638082 0
M  V30 11138 H 1040.72 -4.28615 0.668705 0
M  V30 11139 H 1041.39 -5.50397 -0.420396 0
M  V30 11140 H 1043.86 -3.89098 -1.4745 0
M  V30 11141 H 1042.74 -4.9586 -2.35402 0
M  V30 11142 H 1043 -3.31722 -2.92255 0
M  V30 11143 N 1042.06 0.170153 -1.56679 0
M  V30 11144 C 1043.02 1.19443 -1.95617 0
M  V30 11145 C 1044.02 1.37118 -0.83996 0
M  V30 11146 O 1045.21 1.34504 -1.10699 0
M  V30 11147 C 1042.35 2.55926 -2.25199 0
M  V30 11148 H 1043.54 0.86095 -2.87276 0
M  V30 11149 H 1041.09 0.412646 -1.50755 0
M  V30 11150 H 1041.83 2.94286 -1.36257 0
M  V30 11151 H 1041.61 2.44464 -3.06562 0
M  V30 11152 H 1043.1 3.29742 -2.56242 0
M  V30 11153 N 1043.54 1.5137 0.438746 0
M  V30 11154 C 1044.78 1.64211 1.19006 0
M  V30 11155 C 1045.12 0.356607 1.90898 0
M  V30 11156 O 1044.39 -0.643722 1.83539 0
M  V30 11157 C 1044.68 2.8445 2.20817 0
M  V30 11158 C 1044.53 4.22972 1.53018 0
M  V30 11159 C 1045.85 3.00207 3.21813 0
M  V30 11160 H 1042.97 0.597628 0.431288 0
M  V30 11161 H 1045.61 1.8385 0.479487 0
M  V30 11162 H 1043.76 2.67836 2.81418 0
M  V30 11163 H 1045.43 4.5125 0.957654 0
M  V30 11164 H 1043.67 4.25736 0.832556 0
M  V30 11165 H 1044.34 5.03094 2.27158 0
M  V30 11166 H 1046.82 3.15522 2.71266 0
M  V30 11167 H 1045.7 3.85904 3.90345 0
M  V30 11168 H 1045.96 2.12216 3.87836 0
M  V30 11169 N 1045.02 -0.694098 1.41492 0
M  V30 11170 C 1046.26 -1.45127 1.4065 0
M  V30 11171 C 1046.59 -1.94993 0.0170289 0
M  V30 11172 O 1045.86 -1.71799 -0.941372 0
M  V30 11173 H 1044.44 -0.538493 0.51772 0
M  V30 11174 H 1047.1 -0.821441 1.76744 0
M  V30 11175 H 1046.19 -2.31372 2.0946 0
M  V30 11176 N 1046.49 -1.27344 -0.928501 0
M  V30 11177 C 1047.72 -1.16447 -1.7102 0
M  V30 11178 C 1048.14 0.278799 -1.8673 0
M  V30 11179 O 1047.49 1.18989 -1.38376 0
M  V30 11180 C 1047.55 -1.84242 -3.11026 0
M  V30 11181 O 1047.27 -3.2293 -2.96054 0
M  V30 11182 C 1048.77 -1.7946 -4.05351 0
M  V30 11183 H 1045.99 -0.404898 -0.535069 0
M  V30 11184 H 1048.53 -1.68201 -1.16313 0
M  V30 11185 H 1046.69 -1.36395 -3.62595 0
M  V30 11186 H 1047.1 -3.5667 -3.8456 0
M  V30 11187 H 1048.57 -2.31511 -5.01105 0
M  V30 11188 H 1049.05 -0.763771 -4.32508 0
M  V30 11189 H 1049.66 -2.26918 -3.59706 0
M  V30 11190 N 1047.97 1.13488 -1.09353 0
M  V30 11191 C 1049.2 1.88592 -0.850915 0
M  V30 11192 C 1049.62 1.79087 0.597761 0
M  V30 11193 O 1048.97 1.15695 1.41142 0
M  V30 11194 C 1049.02 3.38219 -1.27633 0
M  V30 11195 O 1048.74 3.47476 -2.66819 0
M  V30 11196 C 1050.25 4.30293 -1.06598 0
M  V30 11197 H 1047.47 0.597069 -0.306185 0
M  V30 11198 H 1050.01 1.43668 -1.45533 0
M  V30 11199 H 1048.16 3.80729 -0.715828 0
M  V30 11200 H 1048.58 4.40485 -2.84733 0
M  V30 11201 H 1050.05 5.33611 -1.41293 0
M  V30 11202 H 1050.53 4.392 -0.0037135 0
M  V30 11203 H 1051.14 3.9355 -1.6124 0
M  V30 11204 N 1049.45 0.880621 1.30701 0
M  V30 11205 C 1050.4 0.315679 2.25804 0
M  V30 11206 C 1051.39 -0.553382 1.51084 0
M  V30 11207 O 1052.58 -0.398518 1.72455 0
M  V30 11208 C 1049.71 -0.472586 3.40032 0
M  V30 11209 C 1048.79 0.410318 4.2211 0
M  V30 11210 N 1049.18 1.50876 4.82773 0
M  V30 11211 C 1047.48 0.20465 4.4553 0
M  V30 11212 C 1048.18 2.05409 5.44226 0
M  V30 11213 N 1047.16 1.34964 5.26579 0
M  V30 11214 H 1050.96 1.15505 2.70251 0
M  V30 11215 H 1048.47 0.729547 1.45091 0
M  V30 11216 H 1050.47 -0.893918 4.07204 0
M  V30 11217 H 1049.13 -1.30945 2.97125 0
M  V30 11218 H 1050.14 1.89163 4.82118 0
M  V30 11219 H 1046.82 -0.595398 4.13233 0
M  V30 11220 H 1048.21 2.97627 6.02385 0
M  V30 11221 N 1050.93 -1.4397 0.641131 0
M  V30 11222 C 1052.16 -2.06303 0.157006 0
M  V30 11223 C 1052.57 -1.47981 -1.17248 0
M  V30 11224 O 1051.93 -0.606471 -1.72128 0
M  V30 11225 C 1051.98 -3.6147 0.0468425 0
M  V30 11226 O 1051.7 -4.17622 1.32376 0
M  V30 11227 C 1053.2 -4.40857 -0.464795 0
M  V30 11228 H 1050.42 -0.665684 0.0842946 0
M  V30 11229 H 1052.97 -1.84675 0.878363 0
M  V30 11230 H 1051.12 -3.82325 -0.625006 0
M  V30 11231 H 1051.54 -5.11167 1.17509 0
M  V30 11232 H 1053.01 -5.49813 -0.490862 0
M  V30 11233 H 1053.49 -4.13016 -1.4938 0
M  V30 11234 H 1054.09 -4.24943 0.174146 0
M  V30 11235 N 1052.41 -0.382291 -1.52893 0
M  V30 11236 C 1053.82 0.0932841 -1.86467 0
M  V30 11237 C 1054.17 1.4675 -1.30226 0
M  V30 11238 O 1053.29 2.07001 -0.63084 0
M  V30 11239 C 1053.89 0.176048 -3.38342 0
M  V30 11240 C 1052.45 0.595904 -3.71653 0
M  V30 11241 C 1051.6 -0.246511 -2.76202 0
M  V30 11242 H 1054.55 -0.600443 -1.46903 0
M  V30 11243 H 1054.57 0.996512 -3.67219 0
M  V30 11244 H 1054.08 -0.824264 -3.79246 0
M  V30 11245 H 1052.18 1.60384 -3.36315 0
M  V30 11246 H 1052.29 0.358919 -4.77754 0
M  V30 11247 H 1050.66 0.287162 -2.53076 0
M  V30 11248 H 1051.44 -1.24467 -3.19942 0
M  V30 11249 N 1053.89 1.57202 -0.111913 0
M  V30 11250 C 1055.13 1.94125 0.547573 0
M  V30 11251 C 1055.45 0.997026 1.68282 0
M  V30 11252 O 1056.65 1.26063 2.40459 0
M  V30 11253 C 1055.11 3.44982 1.02545 0
M  V30 11254 C 1054.72 4.47927 -0.0809529 0
M  V30 11255 C 1056.46 3.90837 1.65671 0
M  V30 11256 C 1054.37 5.89955 0.413224 0
M  V30 11257 H 1053.3 0.724651 0.208321 0
M  V30 11258 H 1055.95 1.82507 -0.190625 0
M  V30 11259 H 1054.33 3.5181 1.81785 0
M  V30 11260 H 1055.51 4.52761 -0.857003 0
M  V30 11261 H 1053.82 4.11782 -0.618434 0
M  V30 11262 H 1056.42 4.9436 2.03746 0
M  V30 11263 H 1056.76 3.30417 2.53239 0
M  V30 11264 H 1057.29 3.8678 0.929844 0
M  V30 11265 H 1054.03 6.54113 -0.426238 0
M  V30 11266 H 1053.55 5.88557 1.15591 0
M  V30 11267 H 1055.23 6.41032 0.876756 0
M  V30 11268 N 1055.36 -0.161842 1.56767 0
M  V30 11269 C 1056.59 -0.896274 1.87034 0
M  V30 11270 C 1057.01 -1.74617 0.699314 0
M  V30 11271 O 1056.37 -1.77861 -0.351435 0
M  V30 11272 C 1056.42 -1.74105 3.15784 0
M  V30 11273 O 1055.52 -2.84372 2.98674 0
M  V30 11274 H 1054.86 -0.250523 0.614926 0
M  V30 11275 H 1057.39 -0.157127 2.03996 0
M  V30 11276 H 1057.4 -2.13907 3.4743 0
M  V30 11277 H 1056.08 -1.11684 4.00624 0
M  V30 11278 H 1054.66 -2.48084 2.78404 0
M  V30 11279 N 1056.84 -1.516 -0.430713 0
M  V30 11280 C 1058.12 -1.55142 -1.19123 0
M  V30 11281 C 1058.5 -0.319596 -2.08667 0
M  V30 11282 O 1057.85 0.694927 -2.17676 0
M  V30 11283 C 1058.06 -2.86891 -1.98732 0
M  V30 11284 C 1059.4 -3.39089 -2.55546 0
M  V30 11285 O 1060.43 -2.88486 -2.08936 0
M  V30 11286 O 1059.29 -4.27401 -3.40574 0
M  V30 11287 H 1056.38 -0.624019 -0.542705 0
M  V30 11288 H 1058.93 -1.63917 -0.439244 0
M  V30 11289 H 1057.7 -3.68002 -1.33005 0
M  V30 11290 H 1057.32 -2.81309 -2.80982 0
M  V30 11291 N 1058.32 0.686584 -1.41858 0
M  V30 11292 C 1059.54 1.4802 -1.45275 0
M  V30 11293 C 1059.97 1.87997 -0.0621297 0
M  V30 11294 O 1059.33 1.55226 0.936733 0
M  V30 11295 C 1059.38 2.7133 -2.37513 0
M  V30 11296 O 1058.48 3.69159 -1.83836 0
M  V30 11297 H 1057.82 0.445152 -0.492682 0
M  V30 11298 H 1060.35 0.843161 -1.86419 0
M  V30 11299 H 1060.36 3.19537 -2.53693 0
M  V30 11300 H 1059.04 2.41571 -3.3855 0
M  V30 11301 H 1057.61 3.28134 -1.77151 0
M  V30 11302 N 1059.8 1.27835 0.921735 0
M  V30 11303 C 1061.21 1.13151 1.48505 0
M  V30 11304 C 1061.56 -0.281373 1.94172 0
M  V30 11305 O 1060.68 -1.17487 1.8173 0
M  V30 11306 C 1061.28 2.04792 2.69899 0
M  V30 11307 C 1059.84 1.94196 3.22436 0
M  V30 11308 C 1058.99 1.96999 1.95158 0
M  V30 11309 H 1061.94 1.40641 0.735241 0
M  V30 11310 H 1061.96 1.60724 3.44889 0
M  V30 11311 H 1061.47 3.07615 2.36631 0
M  V30 11312 H 1059.57 0.943805 3.60448 0
M  V30 11313 H 1059.68 2.80744 3.88226 0
M  V30 11314 H 1058.05 1.41301 2.11911 0
M  V30 11315 H 1058.83 3.01487 1.64196 0
M  V30 11316 N 1061.28 -1.12907 1.09954 0
M  V30 11317 C 1062.52 -1.83661 0.833761 0
M  V30 11318 C 1062.84 -1.84736 -0.642798 0
M  V30 11319 O 1064.04 -2.51437 -1.0243 0
M  V30 11320 C 1062.5 -3.29763 1.44168 0
M  V30 11321 C 1062.11 -3.3706 2.95118 0
M  V30 11322 C 1063.85 -4.05522 1.25509 0
M  V30 11323 C 1061.76 -4.77467 3.48969 0
M  V30 11324 H 1060.69 -0.688115 0.308242 0
M  V30 11325 H 1063.34 -1.27166 1.32291 0
M  V30 11326 H 1061.72 -3.86094 0.880215 0
M  V30 11327 H 1062.9 -2.90695 3.57537 0
M  V30 11328 H 1061.21 -2.7477 3.12874 0
M  V30 11329 H 1063.81 -5.09188 1.63191 0
M  V30 11330 H 1064.15 -4.15837 0.196208 0
M  V30 11331 H 1064.68 -3.55536 1.78435 0
M  V30 11332 H 1061.42 -4.72344 4.54501 0
M  V30 11333 H 1060.94 -5.24305 2.91315 0
M  V30 11334 H 1062.62 -5.46397 3.46495 0
M  V30 11335 N 1062.75 -0.88754 -1.30232 0
M  V30 11336 C 1064 -0.506277 -1.95656 0
M  V30 11337 C 1064.32 0.948191 -1.70395 0
M  V30 11338 O 1063.59 1.66701 -1.02895 0
M  V30 11339 H 1062.17 -0.184235 -0.723924 0
M  V30 11340 H 1064.83 -1.13118 -1.58715 0
M  V30 11341 H 1063.93 -0.678673 -3.04632 0
M  V30 11342 N 1064.23 1.43628 -0.648757 0
M  V30 11343 C 1065.48 2.02163 -0.160574 0
M  V30 11344 C 1065.81 1.51037 1.22072 0
M  V30 11345 O 1065.09 0.701633 1.81404 0
M  V30 11346 C 1065.37 3.59715 -0.166528 0
M  V30 11347 C 1065.22 4.21083 -1.58142 0
M  V30 11348 C 1066.54 4.37256 0.499485 0
M  V30 11349 H 1063.66 0.734568 -0.0598238 0
M  V30 11350 H 1066.3 1.70981 -0.828592 0
M  V30 11351 H 1064.45 3.86411 0.402302 0
M  V30 11352 H 1066.12 4.05433 -2.2005 0
M  V30 11353 H 1064.37 3.77904 -2.13005 0
M  V30 11354 H 1065.04 5.30156 -1.53748 0
M  V30 11355 H 1067.51 4.16097 0.0155561 0
M  V30 11356 H 1066.39 5.4693 0.464574 0
M  V30 11357 H 1066.65 4.13175 1.57286 0
M  V30 11358 N 1065.71 0.390394 1.52688 0
M  V30 11359 C 1066.94 -0.194013 2.06491 0
M  V30 11360 C 1067.36 -1.3965 1.26014 0
M  V30 11361 O 1066.72 -1.79038 0.285468 0
M  V30 11362 C 1066.77 -0.541306 3.56514 0
M  V30 11363 O 1065.87 -1.63509 3.78601 0
M  V30 11364 H 1065.21 -0.0223608 0.663623 0
M  V30 11365 H 1067.74 0.558179 1.96839 0
M  V30 11366 H 1067.75 -0.805301 3.99974 0
M  V30 11367 H 1066.43 0.337828 4.14526 0
M  V30 11368 H 1065 -1.36473 3.4703 0
M  V30 11369 N 1067.19 -1.57141 0.120249 0
M  V30 11370 C 1068.41 -2.00017 -0.548454 0
M  V30 11371 C 1068.84 -0.999433 -1.59352 0
M  V30 11372 O 1068.2 0.0286978 -1.81277 0
M  V30 11373 C 1068.24 -3.41766 -1.15015 0
M  V30 11374 O 1067.35 -3.44589 -2.26566 0
M  V30 11375 H 1066.69 -0.649739 -0.136875 0
M  V30 11376 H 1069.22 -2.03529 0.209092 0
M  V30 11377 H 1069.23 -3.80001 -1.48537 0
M  V30 11378 H 1067.9 -4.14117 -0.384681 0
M  V30 11379 H 1066.48 -3.18174 -1.94473 0
M  V30 11380 N 1068.67 0.153526 -1.5685 0
M  V30 11381 C 1069.89 0.882335 -1.87143 0
M  V30 11382 C 1070.31 1.75034 -0.707702 0
M  V30 11383 O 1069.67 1.79624 0.32273 0
M  V30 11384 C 1069.72 1.74444 -3.16625 0
M  V30 11385 O 1069.44 0.911419 -4.28515 0
M  V30 11386 C 1070.94 2.58139 -3.60388 0
M  V30 11387 H 1068.16 0.25546 -0.620469 0
M  V30 11388 H 1070.7 0.148275 -2.03962 0
M  V30 11389 H 1068.86 2.43163 -3.0158 0
M  V30 11390 H 1069.27 1.50268 -5.02513 0
M  V30 11391 H 1070.75 3.14215 -4.53842 0
M  V30 11392 H 1071.22 3.33865 -2.85361 0
M  V30 11393 H 1071.83 1.94721 -3.78105 0
M  V30 11394 N 1070.14 1.51827 0.422667 0
M  V30 11395 C 1071.37 1.69337 1.19748 0
M  V30 11396 C 1071.79 0.396312 1.83878 0
M  V30 11397 O 1071.15 -0.644976 1.6944 0
M  V30 11398 C 1071.2 2.82082 2.24637 0
M  V30 11399 O 1070.3 2.46708 3.30468 0
M  V30 11400 H 1069.65 0.564154 0.35018 0
M  V30 11401 H 1072.18 1.98465 0.497289 0
M  V30 11402 H 1072.19 3.06599 2.69186 0
M  V30 11403 H 1070.86 3.76195 1.77341 0
M  V30 11404 H 1069.44 2.32815 2.91293 0
M  V30 11405 N 1071.62 -0.679052 1.4222 0
M  V30 11406 C 1072.87 -1.43912 1.42463 0
M  V30 11407 C 1073.2 -1.9446 0.0395574 0
M  V30 11408 O 1072.45 -1.71019 -0.951365 0
M  V30 11409 C 1072.75 -2.65528 2.39227 0
M  V30 11410 C 1072.42 -2.33545 3.85704 0
M  V30 11411 C 1071.08 -2.24534 4.25603 0
M  V30 11412 C 1073.43 -2.07496 4.78116 0
M  V30 11413 C 1070.76 -1.87592 5.55901 0
M  V30 11414 C 1073.11 -1.72059 6.08752 0
M  V30 11415 C 1071.78 -1.61555 6.47654 0
M  V30 11416 H 1071.05 -0.52661 0.521309 0
M  V30 11417 H 1073.69 -0.774661 1.75132 0
M  V30 11418 H 1072 -3.36985 1.9987 0
M  V30 11419 H 1073.69 -3.23702 2.36681 0
M  V30 11420 H 1070.28 -2.4146 3.54112 0
M  V30 11421 H 1074.47 -2.13393 4.48082 0
M  V30 11422 H 1069.72 -1.78026 5.84908 0
M  V30 11423 H 1073.9 -1.50926 6.79849 0
M  V30 11424 H 1071.53 -1.32699 7.48529 0
M  V30 11425 N 1073.1 -1.28322 -0.914942 0
M  V30 11426 C 1074.51 -1.13937 -1.47903 0
M  V30 11427 C 1074.86 0.271072 -1.94318 0
M  V30 11428 O 1073.99 1.16522 -1.8235 0
M  V30 11429 C 1074.58 -2.06221 -2.68809 0
M  V30 11430 C 1073.14 -1.95903 -3.21402 0
M  V30 11431 C 1072.29 -1.98031 -1.94111 0
M  V30 11432 H 1075.24 -1.41029 -0.727772 0
M  V30 11433 H 1075.26 -1.6255 -3.44031 0
M  V30 11434 H 1074.77 -3.08866 -2.34997 0
M  V30 11435 H 1072.87 -0.962907 -3.59943 0
M  V30 11436 H 1072.99 -2.82799 -3.86732 0
M  V30 11437 H 1071.35 -1.42423 -2.11158 0
M  V30 11438 H 1072.13 -3.02354 -1.62595 0
M  V30 11439 N 1074.58 1.12322 -1.10551 0
M  V30 11440 C 1075.81 1.87679 -0.87087 0
M  V30 11441 C 1076.22 1.79711 0.578733 0
M  V30 11442 O 1075.58 1.17185 1.39907 0
M  V30 11443 C 1075.63 3.36846 -1.31213 0
M  V30 11444 O 1075.35 3.44626 -2.70489 0
M  V30 11445 C 1076.85 4.29138 -1.11156 0
M  V30 11446 H 1074.07 0.593788 -0.3125 0
M  V30 11447 H 1076.62 1.42116 -1.47048 0
M  V30 11448 H 1074.77 3.79948 -0.756169 0
M  V30 11449 H 1075.18 4.37441 -2.89389 0
M  V30 11450 H 1076.66 5.32082 -1.46944 0
M  V30 11451 H 1077.14 4.39171 -0.0502963 0
M  V30 11452 H 1077.74 3.91818 -1.65405 0
M  V30 11453 N 1076.06 0.894434 1.2976 0
M  V30 11454 C 1077.47 0.566892 1.77885 0
M  V30 11455 C 1077.82 -0.917289 1.73437 0
M  V30 11456 O 1076.94 -1.71707 1.31703 0
M  V30 11457 C 1077.54 1.02227 3.2301 0
M  V30 11458 C 1076.1 0.745978 3.68934 0
M  V30 11459 C 1075.24 1.19993 2.49994 0
M  V30 11460 H 1078.2 1.0777 1.16496 0
M  V30 11461 H 1078.22 0.355281 3.78838 0
M  V30 11462 H 1077.73 2.1025 3.26215 0
M  V30 11463 H 1075.83 -0.321866 3.71207 0
M  V30 11464 H 1075.94 1.34017 4.59974 0
M  V30 11465 H 1074.31 0.619047 2.47063 0
M  V30 11466 H 1075.09 2.28811 2.55931 0
M  V30 11467 N 1077.53 -1.43282 0.656365 0
M  V30 11468 C 1078.76 -2.05826 0.178619 0
M  V30 11469 C 1079.17 -1.493 -1.16216 0
M  V30 11470 O 1078.52 -0.620163 -1.72915 0
M  V30 11471 C 1078.58 -3.59496 0.0164101 0
M  V30 11472 C 1078.24 -4.38621 1.28298 0
M  V30 11473 C 1079.24 -4.70477 2.21241 0
M  V30 11474 C 1076.92 -4.78577 1.52544 0
M  V30 11475 C 1078.92 -5.412 3.36721 0
M  V30 11476 C 1076.6 -5.49044 2.68316 0
M  V30 11477 C 1077.6 -5.80279 3.6023 0
M  V30 11478 O 1077.29 -6.49306 4.7398 0
M  V30 11479 H 1077.02 -0.670158 0.0886814 0
M  V30 11480 H 1079.58 -1.84722 0.89816 0
M  V30 11481 H 1077.81 -3.79188 -0.758532 0
M  V30 11482 H 1079.5 -4.03731 -0.419096 0
M  V30 11483 H 1080.26 -4.40125 2.03753 0
M  V30 11484 H 1076.14 -4.5367 0.818816 0
M  V30 11485 H 1079.68 -5.65497 4.08483 0
M  V30 11486 H 1075.58 -5.78813 2.85738 0
M  V30 11487 H 1076.35 -6.67789 4.73286 0
M  V30 11488 N 1079.01 -0.398486 -1.52479 0
M  V30 11489 C 1080.24 0.180557 -2.06111 0
M  V30 11490 C 1080.66 1.39751 -1.26945 0
M  V30 11491 O 1080.01 1.79699 -0.318497 0
M  V30 11492 C 1080.06 0.541573 -3.5742 0
M  V30 11493 O 1079.79 -0.627043 -4.33589 0
M  V30 11494 C 1081.29 1.17549 -4.27431 0
M  V30 11495 H 1078.51 0.0250754 -0.670531 0
M  V30 11496 H 1081.05 -0.566368 -1.96501 0
M  V30 11497 H 1079.21 1.23839 -3.67073 0
M  V30 11498 H 1079.62 -0.328233 -5.23472 0
M  V30 11499 H 1081.09 1.37839 -5.34513 0
M  V30 11500 H 1081.57 2.14553 -3.83228 0
M  V30 11501 H 1082.18 0.51918 -4.22119 0
M  V30 11502 N 1080.49 1.57075 -0.12858 0
M  V30 11503 C 1081.72 2.00305 0.537839 0
M  V30 11504 C 1082.14 1.00787 1.58819 0
M  V30 11505 O 1081.5 -0.0190839 1.8129 0
M  V30 11506 C 1081.55 3.42371 1.13201 0
M  V30 11507 O 1080.65 3.45786 2.24735 0
M  V30 11508 H 1079.99 0.650456 0.133428 0
M  V30 11509 H 1082.52 2.03415 -0.219882 0
M  V30 11510 H 1082.53 3.80783 1.4652 0
M  V30 11511 H 1081.21 4.14315 0.362713 0
M  V30 11512 H 1079.78 3.19201 1.92783 0
M  V30 11513 N 1081.97 -0.145205 1.5693 0
M  V30 11514 C 1083.19 -0.876386 1.87974 0
M  V30 11515 C 1083.62 -1.73866 0.717795 0
M  V30 11516 O 1082.98 -1.78224 -0.332551 0
M  V30 11517 C 1083.03 -1.70746 3.17613 0
M  V30 11518 O 1082.13 -2.81188 3.01674 0
M  V30 11519 H 1081.47 -0.243987 0.617549 0
M  V30 11520 H 1084 -0.135482 2.04151 0
M  V30 11521 H 1084.01 -2.1021 3.49679 0
M  V30 11522 H 1082.69 -1.07429 4.01786 0
M  V30 11523 H 1081.26 -2.45117 2.81019 0
M  V30 11524 N 1083.45 -1.52049 -0.414609 0
M  V30 11525 C 1084.67 -1.6997 -1.18848 0
M  V30 11526 C 1085.1 -0.406058 -1.83665 0
M  V30 11527 O 1084.46 0.635981 -1.69779 0
M  V30 11528 C 1084.5 -2.8327 -2.23138 0
M  V30 11529 O 1083.61 -2.48457 -3.29155 0
M  V30 11530 H 1082.95 -0.566003 -0.347183 0
M  V30 11531 H 1085.48 -1.98726 -0.486757 0
M  V30 11532 H 1085.49 -3.08022 -2.67557 0
M  V30 11533 H 1084.16 -3.7713 -1.75344 0
M  V30 11534 H 1082.74 -2.34357 -2.90054 0
M  V30 11535 N 1084.93 0.6715 -1.42579 0
M  V30 11536 C 1086.15 1.46471 -1.46836 0
M  V30 11537 C 1086.58 1.87921 -0.0820658 0
M  V30 11538 O 1085.93 1.5621 0.920217 0
M  V30 11539 C 1085.98 2.68796 -2.40377 0
M  V30 11540 O 1085.09 3.67188 -1.87741 0
M  V30 11541 H 1084.43 0.439901 -0.497376 0
M  V30 11542 H 1086.96 0.823342 -1.87303 0
M  V30 11543 H 1086.97 3.16828 -2.57068 0
M  V30 11544 H 1085.64 2.37967 -3.41093 0
M  V30 11545 H 1084.22 3.26237 -1.80621 0
M  V30 11546 N 1086.4 1.28806 0.908124 0
M  V30 11547 C 1087.64 1.17546 1.67219 0
M  V30 11548 C 1088.01 -0.270396 1.90086 0
M  V30 11549 O 1089.21 -0.505808 2.63998 0
M  V30 11550 C 1087.48 1.95774 2.99011 0
M  V30 11551 S 1089.04 2.00953 3.90081 0
M  V30 11552 H 1085.86 0.419283 0.574215 0
M  V30 11553 H 1088.46 1.6298 1.07971 0
M  V30 11554 H 1087.16 2.99978 2.80074 0
M  V30 11555 H 1086.69 1.50911 3.63303 0
M  V30 11556 H 1088.71 1.1201 4.83392 0
M  V30 11557 O 1087.92 -1.04325 1.23282 0
M  V30 11558 H 1088.61 -1.65689 1.00334 0
M  V30 END ATOM
M  V30 BEGIN BOND
M  V30 END BOND
M  V30 END CTAB
M  END
$$$$
