drugbank_target|P30012 Nicotinate-nucleotide pyrophosphorylase [carboxylating] (DB01796)
 OpenBabel12092119523D

  0  0  0     0  0            999 V3000
M  V30 BEGIN CTAB
M  V30 COUNTS 4570 4604 0 0 0
M  V30 BEGIN ATOM
M  V30 1 H -0.908 1.98254 -0.117106 0
M  V30 2 N 0 1.576 0 0
M  V30 3 C 0.933 2.03868 1.02534 0
M  V30 4 C 1.911 0.928543 1.3348 0
M  V30 5 O 3.095 1.19667 1.45644 0
M  V30 6 C 0.222 2.43627 2.35294 0
M  V30 7 C -0.732 3.65373 2.2001 0
M  V30 8 S 0.101 5.13292 1.52614 0
M  V30 9 C 1.257 5.56322 2.86805 0
M  V30 10 H 1.49 2.90518 0.631377 0
M  V30 11 H -0.977 1.52953 0.210867 0
M  V30 12 H 0.981 2.67203 3.11629 0
M  V30 13 H -0.358 1.57376 2.7183 0
M  V30 14 H -1.165 3.90944 3.18086 0
M  V30 15 H -1.563 3.418 1.51819 0
M  V30 16 H 0.729 5.58782 3.83104 0
M  V30 17 H 1.672 6.56266 2.65933 0
M  V30 18 H 2.08 4.83886 2.90714 0
M  V30 19 N 1.4781 -0.272755 1.55222 0
M  V30 20 C 2.8891 -0.84378 1.66545 0
M  V30 21 C 3.2401 -1.87035 0.592641 0
M  V30 22 O 2.3651 -2.14761 -0.265818 0
M  V30 23 C 2.9601 -1.53723 3.01918 0
M  V30 24 C 1.5191 -2.05628 3.15268 0
M  V30 25 C 0.6661 -0.898424 2.62343 0
M  V30 26 H 3.6171 -0.0490998 1.58624 0
M  V30 27 H 3.6381 -2.40421 2.94921 0
M  V30 28 H 3.1501 -0.78983 3.79978 0
M  V30 29 H 1.2511 -2.83329 2.41983 0
M  V30 30 H 1.3641 -2.27142 4.21833 0
M  V30 31 H -0.2719 -1.29186 2.19506 0
M  V30 32 H 0.5111 -0.164528 3.42906 0
M  V30 33 N 2.9562 -1.48159 -0.537278 0
M  V30 34 C 4.3672 -1.49429 -1.11928 0
M  V30 35 C 4.7182 -0.26 -1.9447 0
M  V30 36 O 3.8432 0.633489 -2.0692 0
M  V30 37 C 4.4382 -2.70758 -2.03656 0
M  V30 38 C 2.9972 -2.74923 -2.57088 0
M  V30 39 C 2.1442 -2.42835 -1.3389 0
M  V30 40 H 5.0952 -1.55381 -0.322886 0
M  V30 41 H 5.1162 -2.48861 -2.87834 0
M  V30 42 H 4.6282 -3.60575 -1.43553 0
M  V30 43 H 2.7292 -1.89296 -3.20933 0
M  V30 44 H 2.8422 -3.76157 -2.9672 0
M  V30 45 H 1.2062 -1.93836 -1.65226 0
M  V30 46 H 1.9892 -3.34884 -0.755504 0
M  V30 47 N 4.4343 0.785586 -1.36625 0
M  V30 48 C 5.8503 1.08419 -1.17122 0
M  V30 49 C 6.0503 2.015 0.00208491 0
M  V30 50 O 5.1063 2.43551 0.666278 0
M  V30 51 C 6.4193 1.69498 -2.48377 0
M  V30 52 C 7.9673 1.81821 -2.54775 0
M  V30 53 C 8.4423 2.46315 -3.86126 0
M  V30 54 N 9.9333 2.53779 -3.87492 0
M  V30 55 C 10.6683 3.045 -4.85868 0
M  V30 56 N 10.1643 3.55499 -5.94637 0
M  V30 57 N 11.9573 3.03247 -4.73284 0
M  V30 58 H 4.1083 0.167264 -2.1174 0
M  V30 59 H 6.3713 0.13682 -0.938075 0
M  V30 60 H 6.0773 1.08571 -3.34522 0
M  V30 61 H 5.9513 2.6896 -2.64462 0
M  V30 62 H 8.3383 2.41884 -1.69045 0
M  V30 63 H 8.4193 0.811532 -2.42586 0
M  V30 64 H 8.0633 1.86895 -4.72263 0
M  V30 65 H 7.9933 3.47561 -3.95612 0
M  V30 66 H 10.4843 2.17672 -3.08913 0
M  V30 67 H 10.7973 3.92562 -6.65669 0
M  V30 68 H 9.1423 3.5364 -5.98301 0
M  V30 69 H 12.3333 2.62696 -3.87438 0
M  V30 70 H 12.5063 3.42467 -5.50109 0
M  V30 71 N 5.9124 1.20967 1.01018 0
M  V30 72 C 7.3284 0.965905 1.27053 0
M  V30 73 C 7.5284 -0.350785 1.98423 0
M  V30 74 O 6.5844 -1.07773 2.28344 0
M  V30 75 C 7.8974 2.15294 2.09926 0
M  V30 76 C 9.4454 2.19463 2.23171 0
M  V30 77 C 9.9204 3.3767 3.09424 0
M  V30 78 N 11.4114 3.37724 3.17012 0
M  V30 79 C 12.1464 4.25837 3.83993 0
M  V30 80 N 11.6424 5.24138 4.53047 0
M  V30 81 N 13.4354 4.1366 3.80581 0
M  V30 82 H 5.5864 2.0565 0.531194 0
M  V30 83 H 7.8494 0.90024 0.297106 0
M  V30 84 H 7.5554 3.10684 1.64828 0
M  V30 85 H 7.4294 2.13923 3.10672 0
M  V30 86 H 9.8164 1.24632 2.6749 0
M  V30 87 H 9.8974 2.2488 1.21912 0
M  V30 88 H 9.5414 4.32791 2.65808 0
M  V30 89 H 9.4714 3.29491 4.10784 0
M  V30 90 H 11.9624 2.6658 2.6785 0
M  V30 91 H 12.2754 5.87684 5.01844 0
M  V30 92 H 10.6204 5.28068 4.5185 0
M  V30 93 H 13.8114 3.36127 3.25785 0
M  V30 94 H 13.9844 4.82538 4.32505 0
M  V30 95 N 7.3905 -1.2043 1.01659 0
M  V30 96 C 8.6205 -1.93496 0.724081 0
M  V30 97 C 9.0285 -1.74998 -0.71918 0
M  V30 98 O 8.3715 -1.06118 -1.49949 0
M  V30 99 C 8.4335 -3.45886 0.97994 0
M  V30 100 C 8.0975 -3.88145 2.41232 0
M  V30 101 C 9.0945 -3.93907 3.39313 0
M  V30 102 C 6.7795 -4.20134 2.75305 0
M  V30 103 C 8.7735 -4.31069 4.6953 0
M  V30 104 C 6.4605 -4.56971 4.05735 0
M  V30 105 C 7.4585 -4.62411 5.02658 0
M  V30 106 O 7.1465 -4.98403 6.30754 0
M  V30 107 H 6.8785 -0.621824 0.265162 0
M  V30 108 H 9.4325 -1.53867 1.36066 0
M  V30 109 H 7.6625 -3.85639 0.286198 0
M  V30 110 H 9.3515 -4.0018 0.679021 0
M  V30 111 H 10.1175 -3.69357 3.14325 0
M  V30 112 H 5.9965 -4.1509 2.00551 0
M  V30 113 H 9.5405 -4.3523 5.45179 0
M  V30 114 H 5.4375 -4.80977 4.30502 0
M  V30 115 H 6.2055 -5.16395 6.35042 0
M  V30 116 N 8.8686 -0.792821 -1.36206 0
M  V30 117 C 9.8166 -0.181555 -2.3189 0
M  V30 118 C 10.8106 0.661025 -1.55971 0
M  V30 119 O 12.0166 0.555728 -1.71206 0
M  V30 120 H 8.3916 -0.0399382 -0.750939 0
M  V30 121 H 10.3626 -1.00394 -2.81005 0
M  V30 122 C 9.1116 0.666444 -3.41253 0
M  V30 123 H 8.4346 0.0274489 -3.99791 0
M  V30 124 H 9.8746 1.06076 -4.10517 0
M  V30 125 C 8.3336 1.82614 -2.83114 0
M  V30 126 O 8.8636 2.9229 -2.75553 0
M  V30 127 N 7.0696 1.63333 -2.40356 0
M  V30 128 H 6.6166 0.741217 -2.46706 0
M  V30 129 H 6.5746 2.41087 -2.01803 0
M  V30 130 N 10.3467 1.47872 -0.545128 0
M  V30 131 C 11.7577 1.86384 -0.108581 0
M  V30 132 C 12.1087 1.45309 1.31832 0
M  V30 133 O 11.2337 0.850641 1.9898 0
M  V30 134 C 11.8287 3.38265 -0.190274 0
M  V30 135 C 10.3877 3.75914 0.191164 0
M  V30 136 C 9.5347 2.71926 -0.543273 0
M  V30 137 H 12.4857 1.39561 -0.755537 0
M  V30 138 H 12.5067 3.75831 0.594217 0
M  V30 139 H 12.0187 3.6813 -1.2289 0
M  V30 140 H 10.1197 3.51665 1.23136 0
M  V30 141 H 10.2327 4.78836 -0.158987 0
M  V30 142 H 8.5967 2.54697 0.0122495 0
M  V30 143 H 9.3797 3.04634 -1.58282 0
M  V30 144 N 11.8248 0.280983 1.55075 0
M  V30 145 C 13.1018 -0.386207 1.91749 0
M  V30 146 C 13.4818 -1.73264 1.20594 0
M  V30 147 O 12.8298 -2.26034 0.334784 0
M  V30 148 C 13.0398 -0.520687 3.45094 0
M  V30 149 C 14.3878 -0.800865 4.16979 0
M  V30 150 O 15.4118 -0.605271 3.5102 0
M  V30 151 O 14.2708 -1.1753 5.33712 0
M  V30 152 H 11.3648 -0.212408 0.799257 0
M  V30 153 H 13.9108 0.327568 1.66509 0
M  V30 154 H 12.6828 0.426633 3.88967 0
M  V30 155 H 12.3058 -1.2837 3.76307 0
M  V30 156 N 13.3029 -1.57598 0.00835791 0
M  V30 157 C 14.5799 -1.82172 -0.712235 0
M  V30 158 C 14.9599 -0.887873 -1.9152 0
M  V30 159 O 14.3079 0.06146 -2.28417 0
M  V30 160 C 14.5179 -3.30875 -1.11008 0
M  V30 161 C 15.8659 -3.96826 -1.51044 0
M  V30 162 O 16.8899 -3.35248 -1.20364 0
M  V30 163 O 15.7489 -5.05318 -2.08125 0
M  V30 164 H 12.8429 -0.750435 -0.347529 0
M  V30 165 H 15.3889 -1.69665 0.0344523 0
M  V30 166 H 14.1609 -3.90481 -0.252982 0
M  V30 167 H 13.7839 -3.48412 -1.9156 0
M  V30 168 N 14.781 0.264519 -1.55364 0
M  V30 169 C 16.197 0.61215 -1.47394 0
M  V30 170 C 16.397 1.89134 -0.695018 0
M  V30 171 O 15.453 2.51563 -0.217275 0
M  V30 172 C 16.766 0.731235 -2.91674 0
M  V30 173 C 18.314 0.82473 -3.01939 0
M  V30 174 C 18.789 0.975522 -4.4749 0
M  V30 175 N 20.28 1.04083 -4.51354 0
M  V30 176 C 21.015 1.17646 -5.61201 0
M  V30 177 N 20.511 1.27874 -6.80896 0
M  V30 178 N 22.304 1.20823 -5.48961 0
M  V30 179 H 14.455 -0.575456 -2.04456 0
M  V30 180 H 16.718 -0.196099 -0.927496 0
M  V30 181 H 16.424 -0.138392 -3.51428 0
M  V30 182 H 16.298 1.60883 -3.41169 0
M  V30 183 H 18.685 1.68482 -2.42276 0
M  V30 184 H 18.766 -0.0776479 -2.55682 0
M  V30 185 H 18.41 0.120058 -5.07758 0
M  V30 186 H 18.34 1.89268 -4.91412 0
M  V30 187 H 20.831 0.973846 -3.65136 0
M  V30 188 H 21.144 1.38081 -7.60364 0
M  V30 189 H 19.489 1.24863 -6.83692 0
M  V30 190 H 22.68 1.12469 -4.54388 0
M  V30 191 H 22.853 1.31049 -6.3461 0
M  V30 192 N 16.2591 1.48442 0.529413 0
M  V30 193 C 17.6751 1.34575 0.858004 0
M  V30 194 C 17.8751 0.3572 1.98309 0
M  V30 195 O 16.9311 -0.221379 2.51528 0
M  V30 196 C 18.2441 2.74617 1.22499 0
M  V30 197 C 19.7921 2.83109 1.33484 0
M  V30 198 C 20.2671 4.23854 1.73526 0
M  V30 199 N 21.7581 4.2653 1.80628 0
M  V30 200 C 22.4931 5.32372 2.12997 0
M  V30 201 N 21.9891 6.48491 2.43786 0
M  V30 202 N 23.7821 5.19766 2.14008 0
M  V30 203 H 15.9331 2.1133 -0.212925 0
M  V30 204 H 18.1961 0.947439 -0.0326199 0
M  V30 205 H 17.9021 3.4852 0.471905 0
M  V30 206 H 17.7761 3.08177 2.17501 0
M  V30 207 H 20.1631 2.09462 2.0787 0
M  V30 208 H 20.2441 2.53168 0.366027 0
M  V30 209 H 19.8881 4.98018 0.997013 0
M  V30 210 H 19.8181 4.5124 2.71459 0
M  V30 211 H 22.3091 3.42772 1.59108 0
M  V30 212 H 22.6221 7.24993 2.67592 0
M  V30 213 H 20.9671 6.51765 2.41304 0
M  V30 214 H 24.1581 4.28066 1.89412 0
M  V30 215 H 24.3311 6.02354 2.38902 0
M  V30 216 N 17.7372 -0.778329 1.37039 0
M  V30 217 C 19.0142 -1.52551 1.22424 0
M  V30 218 C 19.3942 -2.10288 -0.184964 0
M  V30 219 O 18.7422 -1.94953 -1.19187 0
M  V30 220 C 18.9522 -2.61164 2.31504 0
M  V30 221 C 20.3002 -3.28746 2.68721 0
M  V30 222 O 21.3242 -2.71455 2.30631 0
M  V30 223 O 20.1832 -4.3231 3.3432 0
M  V30 224 H 17.2772 -0.675343 0.477326 0
M  V30 225 H 19.8232 -0.815859 1.48801 0
M  V30 226 H 18.5952 -2.16574 3.25901 0
M  V30 227 H 18.2182 -3.39737 2.06554 0
M  V30 228 N 19.2153 -1.21501 -1.00376 0
M  V30 229 C 20.1783 -0.976927 -2.07337 0
M  V30 230 C 21.1783 0.0525322 -1.60714 0
M  V30 231 O 22.3683 -0.184869 -1.73216 0
M  V30 232 C 19.5003 -0.473423 -3.37597 0
M  V30 233 H 20.6933 -1.92587 -2.29892 0
M  V30 234 H 18.2463 -1.03217 -1.17371 0
M  V30 235 H 18.9813 0.480379 -3.20722 0
M  V30 236 H 18.7663 -1.216 -3.72768 0
M  V30 237 H 20.2563 -0.32675 -4.1632 0
M  V30 238 N 20.6934 1.19889 -1.02296 0
M  V30 239 C 21.6234 2.25141 -0.619174 0
M  V30 240 C 22.6044 1.66051 0.368915 0
M  V30 241 O 23.7894 1.92546 0.252941 0
M  V30 242 C 20.9194 3.4728 0.0368783 0
M  V30 243 C 19.8734 4.19005 -0.872865 0
M  V30 244 C 19.1994 5.34637 -0.0822402 0
M  V30 245 C 20.4994 4.74452 -2.18387 0
M  V30 246 H 22.1934 2.59171 -1.49903 0
M  V30 247 H 19.7394 1.24579 -0.722222 0
M  V30 248 H 21.6924 4.20098 0.330958 0
M  V30 249 H 20.4164 3.12433 0.95149 0
M  V30 250 H 19.0754 3.48061 -1.15105 0
M  V30 251 H 18.7234 4.96034 0.83422 0
M  V30 252 H 18.4234 5.83557 -0.688149 0
M  V30 253 H 19.9474 6.10255 0.205238 0
M  V30 254 H 21.3614 5.39055 -1.95172 0
M  V30 255 H 19.7584 5.33834 -2.74119 0
M  V30 256 H 20.8284 3.92844 -2.84257 0
M  V30 257 N 22.1715 0.800033 1.35784 0
M  V30 258 C 23.1015 0.220184 2.3246 0
M  V30 259 C 24.0825 -0.65073 1.57161 0
M  V30 260 O 25.2675 -0.582359 1.85263 0
M  V30 261 C 22.3975 -0.637353 3.41402 0
M  V30 262 C 21.3515 0.134531 4.27789 0
M  V30 263 C 20.6775 -0.844285 5.27992 0
M  V30 264 C 21.9775 1.32979 5.05088 0
M  V30 265 H 23.6715 1.02787 2.81203 0
M  V30 266 H 21.2175 0.495717 1.35199 0
M  V30 267 H 23.1705 -1.05302 4.08031 0
M  V30 268 H 21.8945 -1.47785 2.91251 0
M  V30 269 H 20.5535 0.531296 3.6273 0
M  V30 270 H 20.2015 -1.68011 4.74111 0
M  V30 271 H 19.9015 -0.332184 5.8666 0
M  V30 272 H 21.4255 -1.2583 5.97494 0
M  V30 273 H 22.8395 0.98934 5.64699 0
M  V30 274 H 21.2365 1.77593 5.7322 0
M  V30 275 H 22.3065 2.11978 4.36111 0
M  V30 276 N 23.6496 -1.47581 0.552962 0
M  V30 277 C 24.5596 -2.33743 -0.200353 0
M  V30 278 C 25.5756 -1.47928 -0.916151 0
M  V30 279 O 26.7516 -1.80865 -0.885993 0
M  V30 280 C 23.8166 -3.24536 -1.21973 0
M  V30 281 C 22.8776 -4.26238 -0.511819 0
M  V30 282 C 22.1106 -5.12693 -1.48263 0
M  V30 283 O 22.3336 -5.01525 -2.71714 0
M  V30 284 O 21.2676 -5.93375 -1.00945 0
M  V30 285 H 25.0936 -2.9945 0.506304 0
M  V30 286 H 22.6786 -1.46071 0.313622 0
M  V30 287 H 24.5606 -3.80631 -1.80827 0
M  V30 288 H 23.2356 -2.61462 -1.90839 0
M  V30 289 H 22.1426 -3.73914 0.117799 0
M  V30 290 H 23.4756 -4.92014 0.135308 0
M  V30 291 N 25.1277 -0.289203 -1.54924 0
M  V30 292 C 26.5437 0.0645403 -1.59469 0
M  V30 293 C 26.7437 1.53419 -1.30632 0
M  V30 294 O 25.7997 2.2852 -1.074 0
M  V30 295 C 27.1127 -0.32278 -2.98963 0
M  V30 296 C 28.6607 -0.270564 -3.11828 0
M  V30 297 C 29.1357 -0.632532 -4.53611 0
M  V30 298 N 30.6267 -0.584617 -4.59496 0
M  V30 299 C 31.3617 -0.837314 -5.67254 0
M  V30 300 N 30.8577 -1.15536 -6.83098 0
M  V30 301 N 32.6507 -0.765166 -5.56868 0
M  V30 302 H 24.8017 -1.24714 -1.71931 0
M  V30 303 H 27.0647 -0.504809 -0.802416 0
M  V30 304 H 26.7707 -1.34541 -3.24948 0
M  V30 305 H 26.6447 0.32944 -3.75759 0
M  V30 306 H 29.0317 0.742805 -2.85598 0
M  V30 307 H 29.1127 -0.957242 -2.37214 0
M  V30 308 H 28.7567 -1.64365 -4.80569 0
M  V30 309 H 28.6867 0.07609 -5.26545 0
M  V30 310 H 31.1777 -0.349248 -3.76283 0
M  V30 311 H 31.4907 -1.33447 -7.61191 0
M  V30 312 H 29.8357 -1.19328 -6.84679 0
M  V30 313 H 33.0267 -0.516432 -4.65243 0
M  V30 314 H 33.1997 -0.965477 -6.40767 0
M  V30 315 N 26.6058 1.57591 -0.0167156 0
M  V30 316 C 27.8548 1.90461 0.663877 0
M  V30 317 C 28.1678 0.893515 1.73999 0
M  V30 318 O 29.3738 1.11302 2.47637 0
M  V30 319 C 27.8298 3.38155 1.23204 0
M  V30 320 C 27.4378 4.47597 0.189866 0
M  V30 321 C 29.1818 3.80111 1.88986 0
M  V30 322 C 27.0888 5.86379 0.768964 0
M  V30 323 H 26.0188 0.710738 0.251729 0
M  V30 324 H 28.6698 1.83326 -0.0799926 0
M  V30 325 H 27.0518 3.40182 2.02712 0
M  V30 326 H 28.2258 4.57112 -0.581846 0
M  V30 327 H 26.5408 4.14766 -0.368475 0
M  V30 328 H 29.1378 4.81145 2.33247 0
M  V30 329 H 29.4808 3.14511 2.72743 0
M  V30 330 H 30.0138 3.80454 1.16187 0
M  V30 331 H 26.7528 6.55493 -0.0301957 0
M  V30 332 H 26.2728 5.80496 1.50945 0
M  V30 333 H 27.9518 6.34563 1.26251 0
M  V30 334 N 28.0839 -0.256276 1.55502 0
M  V30 335 C 29.0319 -1.33694 1.90338 0
M  V30 336 C 30.0259 -1.50299 0.781441 0
M  V30 337 O 31.2319 -1.51885 0.965966 0
M  V30 338 H 27.6069 -0.447483 0.60437 0
M  V30 339 H 29.5779 -1.01574 2.8058 0
M  V30 340 C 28.3269 -2.68724 2.20642 0
M  V30 341 H 27.6499 -2.56743 3.06469 0
M  V30 342 H 29.0899 -3.43237 2.48926 0
M  V30 343 C 27.5489 -3.21101 1.01959 0
M  V30 344 O 28.0789 -4.0084 0.262762 0
M  V30 345 N 26.2849 -2.79003 0.812746 0
M  V30 346 H 25.8319 -2.14271 1.42989 0
M  V30 347 H 25.7899 -3.14393 0.0203076 0
M  V30 348 N 29.562 -1.4872 -0.521534 0
M  V30 349 C 30.492 -1.66771 -1.63431 0
M  V30 350 C 31.473 -0.516499 -1.62069 0
M  V30 351 O 32.658 -0.750013 -1.79132 0
M  V30 352 C 29.788 -1.71515 -3.01993 0
M  V30 353 C 28.742 -2.86222 -3.18216 0
M  V30 354 C 28.068 -2.76061 -4.57924 0
M  V30 355 C 29.368 -4.27419 -3.00184 0
M  V30 356 H 31.062 -2.59932 -1.48579 0
M  V30 357 H 28.608 -1.25089 -0.713358 0
M  V30 358 H 30.561 -1.82731 -3.7972 0
M  V30 359 H 29.285 -0.749393 -3.17886 0
M  V30 360 H 27.944 -2.74575 -2.42908 0
M  V30 361 H 27.592 -1.77437 -4.70665 0
M  V30 362 H 27.292 -3.53037 -4.69722 0
M  V30 363 H 28.816 -2.89256 -5.37739 0
M  V30 364 H 30.23 -4.39855 -3.67697 0
M  V30 365 H 28.627 -5.05458 -3.2347 0
M  V30 366 H 29.697 -4.43293 -1.96518 0
M  V30 367 N 31.0401 0.771051 -1.3745 0
M  V30 368 C 32.3171 1.519 -1.23231 0
M  V30 369 C 32.6971 2.10383 0.173809 0
M  V30 370 O 32.0451 1.95583 1.18151 0
M  V30 371 C 32.2551 2.59933 -2.32886 0
M  V30 372 C 33.6031 3.27316 -2.70461 0
M  V30 373 O 34.6271 2.70228 -2.32068 0
M  V30 374 O 33.4861 4.30531 -3.36608 0
M  V30 375 H 30.5801 0.672803 -0.480901 0
M  V30 376 H 33.1261 0.807957 -1.49232 0
M  V30 377 H 31.8981 2.14842 -3.27045 0
M  V30 378 H 31.5211 3.38637 -2.08353 0
M  V30 379 N 32.5182 1.22032 0.997298 0
M  V30 380 C 33.7672 1.03637 1.73038 0
M  V30 381 C 34.0802 -0.429475 1.90827 0
M  V30 382 O 35.2862 -0.732995 2.61418 0
M  V30 383 C 33.7422 1.80582 3.11317 0
M  V30 384 C 33.3502 3.31387 3.01474 0
M  V30 385 C 35.0942 1.70621 3.88701 0
M  V30 386 C 33.0012 4.00791 4.3488 0
M  V30 387 H 31.9312 0.384179 0.648785 0
M  V30 388 H 34.5822 1.4584 1.11368 0
M  V30 389 H 32.9642 1.31175 3.73643 0
M  V30 390 H 34.1382 3.88155 2.4834 0
M  V30 391 H 32.4532 3.41976 2.37575 0
M  V30 392 H 35.0502 2.19799 4.87434 0
M  V30 393 H 35.3932 0.665823 4.10941 0
M  V30 394 H 35.9262 2.17547 3.33044 0
M  V30 395 H 32.6652 5.05064 4.1784 0
M  V30 396 H 32.1852 3.48811 4.87945 0
M  V30 397 H 33.8642 4.06139 5.03647 0
M  V30 398 N 33.9963 -1.19345 1.0293 0
M  V30 399 C 35.4073 -1.70725 0.755633 0
M  V30 400 C 35.7583 -1.82326 -0.724676 0
M  V30 401 O 34.8833 -1.49471 -1.56484 0
M  V30 402 C 35.4783 -3.10084 1.36503 0
M  V30 403 C 34.0373 -3.58723 1.13994 0
M  V30 404 C 33.1843 -2.35577 1.46283 0
M  V30 405 H 36.1353 -1.0418 1.19718 0
M  V30 406 H 36.1563 -3.72787 0.762217 0
M  V30 407 H 35.6683 -3.01609 2.44241 0
M  V30 408 H 33.7693 -3.72512 0.0807901 0
M  V30 409 H 33.8823 -4.42816 1.82894 0
M  V30 410 H 32.2463 -2.38935 0.88217 0
M  V30 411 H 33.0293 -2.29731 2.55105 0
M  V30 412 N 35.4744 -0.807222 -1.35358 0
M  V30 413 C 36.4374 -0.223665 -2.28106 0
M  V30 414 C 37.4374 0.589354 -1.4961 0
M  V30 415 O 38.6274 0.407745 -1.69361 0
M  V30 416 C 35.7594 0.688149 -3.33882 0
M  V30 417 H 36.9524 -1.04169 -2.81227 0
M  V30 418 H 34.5054 -0.577921 -1.45223 0
M  V30 419 H 35.2404 1.52984 -2.85948 0
M  V30 420 H 35.0254 0.10687 -3.91954 0
M  V30 421 H 36.5154 1.09075 -4.03104 0
M  V30 422 N 36.9525 1.47285 -0.560781 0
M  V30 423 C 37.9155 2.28535 0.174488 0
M  V30 424 C 38.9155 1.37153 0.839388 0
M  V30 425 O 40.1055 1.59748 0.694702 0
M  V30 426 C 37.2375 3.16934 1.25561 0
M  V30 427 H 38.4305 2.95012 -0.539262 0
M  V30 428 H 35.9835 1.53034 -0.317865 0
M  V30 429 H 36.7185 2.55157 2.00164 0
M  V30 430 H 36.5035 3.8419 0.783604 0
M  V30 431 H 37.9935 3.78143 1.77193 0
M  V30 432 N 38.4306 0.297415 1.54768 0
M  V30 433 C 39.6766 -0.313376 2.00364 0
M  V30 434 C 40.0096 -1.53815 1.18553 0
M  V30 435 O 39.2846 -1.92739 0.261103 0
M  V30 436 C 39.5676 -0.673525 3.53745 0
M  V30 437 C 39.4206 0.560133 4.46299 0
M  V30 438 C 40.7396 -1.50143 4.13697 0
M  V30 439 H 37.8586 -0.112428 0.728374 0
M  V30 440 H 40.5006 0.4088 1.8555 0
M  V30 441 H 38.6506 -1.28881 3.665 0
M  V30 442 H 40.3226 1.19863 4.45455 0
M  V30 443 H 38.5656 1.19405 4.17043 0
M  V30 444 H 39.2366 0.26405 5.51368 0
M  V30 445 H 41.7126 -0.981588 4.04356 0
M  V30 446 H 40.5886 -1.72221 5.21182 0
M  V30 447 H 40.8496 -2.48952 3.65343 0
M  V30 448 N 39.9087 -1.5758 0.0250728 0
M  V30 449 C 40.8717 -2.08896 -0.943139 0
M  V30 450 C 41.8717 -1.00321 -1.25668 0
M  V30 451 O 43.0617 -1.26495 -1.19769 0
M  V30 452 C 40.1937 -2.55143 -2.26086 0
M  V30 453 H 41.3867 -2.95723 -0.498775 0
M  V30 454 H 38.9397 -1.54703 -0.222888 0
M  V30 455 H 39.6747 -1.71633 -2.75159 0
M  V30 456 H 39.4597 -3.34461 -2.04641 0
M  V30 457 H 40.9497 -2.95083 -2.95492 0
M  V30 458 N 41.3868 0.248026 -1.55636 0
M  V30 459 C 42.3188 1.32993 -1.8667 0
M  V30 460 C 43.3318 1.44345 -0.752877 0
M  V30 461 O 44.5208 1.45715 -1.03098 0
M  V30 462 C 41.6208 2.70863 -2.03682 0
M  V30 463 C 40.7938 2.81792 -3.34532 0
M  V30 464 C 39.8528 4.005 -3.41301 0
M  V30 465 O 38.8788 3.9008 -4.14519 0
M  V30 466 N 40.0808 5.13618 -2.70512 0
M  V30 467 H 42.8458 1.06707 -2.8006 0
M  V30 468 H 40.4068 0.438129 -1.55859 0
M  V30 469 H 42.3988 3.48612 -2.05553 0
M  V30 470 H 40.9688 2.89862 -1.17041 0
M  V30 471 H 40.1888 1.90729 -3.44987 0
M  V30 472 H 41.4768 2.86043 -4.20781 0
M  V30 473 H 40.8748 5.24975 -2.10755 0
M  V30 474 H 39.4318 5.89505 -2.78077 0
M  V30 475 N 42.8649 1.48995 0.513639 0
M  V30 476 C 43.8279 1.64229 1.59879 0
M  V30 477 C 44.8279 0.514696 1.5234 0
M  V30 478 O 46.0179 0.78087 1.55718 0
M  V30 479 C 43.1499 1.62783 2.99524 0
M  V30 480 H 44.3429 2.61004 1.47705 0
M  V30 481 H 41.8959 1.37837 0.736936 0
M  V30 482 H 42.6309 0.675461 3.17188 0
M  V30 483 H 42.4159 2.4466 3.06404 0
M  V30 484 H 43.9059 1.76669 3.78388 0
M  V30 485 N 44.343 -0.763751 1.37857 0
M  V30 486 C 45.273 -1.89103 1.36975 0
M  V30 487 C 46.254 -1.68439 0.237152 0
M  V30 488 O 47.439 -1.8918 0.438713 0
M  V30 489 C 44.569 -3.26496 1.18395 0
M  V30 490 C 43.523 -3.61741 2.28751 0
M  V30 491 C 42.849 -4.97762 1.95286 0
M  V30 492 C 44.149 -3.67665 3.70972 0
M  V30 493 H 45.843 -1.90099 2.31307 0
M  V30 494 H 43.389 -0.91319 1.11341 0
M  V30 495 H 45.342 -4.05003 1.16406 0
M  V30 496 H 44.066 -3.25955 0.205215 0
M  V30 497 H 42.725 -2.85547 2.29909 0
M  V30 498 H 42.373 -4.93769 0.959221 0
M  V30 499 H 42.073 -5.22313 2.69189 0
M  V30 500 H 43.597 -5.7866 1.94898 0
M  V30 501 H 45.011 -4.36307 3.719 0
M  V30 502 H 43.408 -4.03718 4.43995 0
M  V30 503 H 44.478 -2.68134 4.0402 0
M  V30 504 N 45.8211 -1.22559 -0.990812 0
M  V30 505 C 47.2371 -0.985996 -1.255 0
M  V30 506 C 47.4371 0.319173 -1.98956 0
M  V30 507 O 46.4931 1.04127 -2.3003 0
M  V30 508 C 47.8061 -2.18607 -2.06474 0
M  V30 509 C 49.3541 -2.22985 -2.19651 0
M  V30 510 C 49.8291 -3.4255 -3.04012 0
M  V30 511 N 51.3201 -3.42725 -3.11599 0
M  V30 512 C 52.0551 -4.31892 -3.7717 0
M  V30 513 N 51.5511 -5.31279 -4.44651 0
M  V30 514 N 53.3441 -4.19662 -3.73952 0
M  V30 515 H 45.4951 -2.06469 -0.49841 0
M  V30 516 H 47.7581 -0.904853 -0.282747 0
M  V30 517 H 47.4641 -3.13267 -1.59865 0
M  V30 518 H 47.3381 -2.18838 -3.07229 0
M  V30 519 H 49.7251 -1.28871 -2.65474 0
M  V30 520 H 49.8061 -2.26791 -1.18319 0
M  V30 521 H 49.4501 -4.36965 -2.58889 0
M  V30 522 H 49.3801 -3.35984 -4.0549 0
M  V30 523 H 51.8711 -2.70807 -2.63575 0
M  V30 524 H 52.1841 -5.95593 -4.92431 0
M  V30 525 H 50.5291 -5.3519 -4.43392 0
M  V30 526 H 53.7201 -3.41268 -3.20396 0
M  V30 527 H 53.8931 -4.89358 -4.24774 0
M  V30 528 N 47.2992 1.18797 -1.03562 0
M  V30 529 C 48.2092 2.25913 -0.632505 0
M  V30 530 C 49.2252 1.70668 0.338882 0
M  V30 531 O 50.4012 2.00453 0.195076 0
M  V30 532 C 47.4662 3.467 0.00350942 0
M  V30 533 C 46.5272 4.17098 -1.01624 0
M  V30 534 C 45.7602 5.32119 -0.410478 0
M  V30 535 O 45.9832 5.64976 0.784725 0
M  V30 536 O 44.9172 5.9107 -1.13667 0
M  V30 537 H 48.7432 2.62648 -1.52478 0
M  V30 538 H 46.3282 1.25781 -0.806195 0
M  V30 539 H 48.2102 4.19878 0.35781 0
M  V30 540 H 46.8852 3.11798 0.869686 0
M  V30 541 H 45.7922 3.4601 -1.42224 0
M  V30 542 H 47.1252 4.55987 -1.85301 0
M  V30 543 N 48.7773 0.814389 1.34928 0
M  V30 544 C 50.0543 0.321363 1.92942 0
M  V30 545 C 50.4343 -1.19014 1.74353 0
M  V30 546 O 49.7823 -1.99328 1.11716 0
M  V30 547 C 49.9923 0.741323 3.41036 0
M  V30 548 C 51.3403 0.735266 4.18185 0
M  V30 549 O 52.3643 0.68336 3.49584 0
M  V30 550 O 51.2233 0.800703 5.40602 0
M  V30 551 H 48.3173 0.0858893 0.822528 0
M  V30 552 H 50.8633 0.898609 1.43955 0
M  V30 553 H 49.6353 1.78276 3.4833 0
M  V30 554 H 49.2583 0.139307 3.97356 0
M  V30 555 N 50.2554 -1.46986 0.568584 0
M  V30 556 C 51.1854 -2.32946 -0.160753 0
M  V30 557 C 52.1664 -1.44487 -0.897631 0
M  V30 558 O 53.3514 -1.73327 -0.875867 0
M  V30 559 C 50.4814 -3.26494 -1.18403 0
M  V30 560 C 49.4354 -4.24282 -0.562895 0
M  V30 561 C 48.7614 -5.07236 -1.69163 0
M  V30 562 C 50.0614 -5.19989 0.490761 0
M  V30 563 H 51.7554 -2.94175 0.556916 0
M  V30 564 H 49.3014 -1.4146 0.26927 0
M  V30 565 H 51.2544 -3.85477 -1.70251 0
M  V30 566 H 49.9784 -2.63343 -1.93179 0
M  V30 567 H 48.6374 -3.66541 -0.0656164 0
M  V30 568 H 48.2854 -4.4048 -2.42871 0
M  V30 569 H 47.9854 -5.7345 -1.28174 0
M  V30 570 H 49.5094 -5.6908 -2.21314 0
M  V30 571 H 50.9234 -5.73271 0.0579047 0
M  V30 572 H 49.3204 -5.94469 0.820165 0
M  V30 573 H 50.3904 -4.64777 1.3824 0
M  V30 574 N 51.7335 -0.305618 -1.54608 0
M  V30 575 C 52.9815 0.301701 -1.99835 0
M  V30 576 C 53.3025 1.54054 -1.19551 0
M  V30 577 O 52.5725 1.93702 -0.292658 0
M  V30 578 H 51.1525 0.114468 -0.738178 0
M  V30 579 H 53.8145 -0.418016 -1.90364 0
M  V30 580 H 52.9105 0.570548 -3.06841 0
M  V30 581 N 53.2116 1.57565 -0.0334293 0
M  V30 582 C 54.4596 1.91598 0.642999 0
M  V30 583 C 54.7806 0.910847 1.7242 0
M  V30 584 O 54.0506 -0.0469931 1.95844 0
M  V30 585 H 52.6306 0.707228 0.240496 0
M  V30 586 H 55.2926 1.94726 -0.0822488 0
M  V30 587 H 54.3886 2.92336 1.09298 0
M  V30 588 N 54.6897 -0.239769 1.55765 0
M  V30 589 C 55.5997 -1.31831 1.94056 0
M  V30 590 C 56.6157 -1.52275 0.841925 0
M  V30 591 O 57.7917 -1.65759 1.14394 0
M  V30 592 C 54.8567 -2.65156 2.23368 0
M  V30 593 C 53.9177 -2.53173 3.46701 0
M  V30 594 C 53.1507 -3.8014 3.74606 0
M  V30 595 O 53.3737 -4.82343 3.04469 0
M  V30 596 O 52.3077 -3.78344 4.68123 0
M  V30 597 H 56.1337 -1.02347 2.85935 0
M  V30 598 H 53.7187 -0.441123 1.42739 0
M  V30 599 H 55.6007 -3.43929 2.43497 0
M  V30 600 H 54.2757 -2.94358 1.34666 0
M  V30 601 H 53.1827 -1.72662 3.31871 0
M  V30 602 H 54.5157 -2.28915 4.35728 0
M  V30 603 N 56.1678 -1.49265 -0.50573 0
M  V30 604 C 57.4138 -1.58748 -1.26202 0
M  V30 605 C 57.7468 -0.271227 -1.92297 0
M  V30 606 O 57.0218 0.724831 -1.80489 0
M  V30 607 C 57.3048 -2.74332 -2.33268 0
M  V30 608 C 57.1578 -4.15737 -1.71705 0
M  V30 609 C 58.4768 -2.85576 -3.34865 0
M  V30 610 H 55.5958 -0.577826 -0.457478 0
M  V30 611 H 58.2378 -1.81532 -0.560897 0
M  V30 612 H 56.3878 -2.55036 -2.93068 0
M  V30 613 H 58.0598 -4.46537 -1.15769 0
M  V30 614 H 56.3028 -4.21605 -1.02135 0
M  V30 615 H 56.9738 -4.92477 -2.49341 0
M  V30 616 H 59.4498 -3.03127 -2.8505 0
M  V30 617 H 58.3258 -3.68135 -4.07146 0
M  V30 618 H 58.5868 -1.94732 -3.96903 0
M  V30 619 N 57.6459 0.756429 -1.3826 0
M  V30 620 C 58.9229 1.50584 -1.24835 0
M  V30 621 C 59.3029 2.10556 0.151485 0
M  V30 622 O 58.6509 1.96825 1.1607 0
M  V30 623 C 58.8609 2.57448 -2.3563 0
M  V30 624 C 60.2089 3.24429 -2.73917 0
M  V30 625 O 61.2329 2.67751 -2.34921 0
M  V30 626 O 60.0919 4.26937 -3.41156 0
M  V30 627 H 57.1859 0.667664 -0.48801 0
M  V30 628 H 59.7319 0.792083 -1.5008 0
M  V30 629 H 58.5039 2.11362 -3.29305 0
M  V30 630 H 58.1269 3.36408 -2.11933 0
M  V30 631 N 59.124 1.23083 0.984299 0
M  V30 632 C 60.087 1.00979 2.05757 0
M  V30 633 C 61.087 -0.0269573 1.60777 0
M  V30 634 O 62.277 0.212403 1.729 0
M  V30 635 C 59.409 0.527072 3.36801 0
M  V30 636 H 60.602 1.9622 2.26799 0
M  V30 637 H 58.155 1.05072 1.15714 0
M  V30 638 H 58.89 -0.429294 3.21446 0
M  V30 639 H 58.675 1.27515 3.70786 0
M  V30 640 H 60.165 0.392942 4.15747 0
M  V30 641 N 60.6021 -1.18246 1.0419 0
M  V30 642 C 61.8501 -1.87886 0.744543 0
M  V30 643 C 62.1711 -1.8082 -0.730006 0
M  V30 644 O 61.4411 -1.22736 -1.52685 0
M  V30 645 H 60.0211 -0.695556 0.272417 0
M  V30 646 H 62.6831 -1.43494 1.31892 0
M  V30 647 H 61.7791 -2.9389 1.05049 0
M  V30 648 N 62.0802 -0.821533 -1.34494 0
M  V30 649 C 63.0282 -0.230702 -2.31453 0
M  V30 650 C 64.0222 0.627793 -1.57338 0
M  V30 651 O 65.2282 0.519288 -1.72347 0
M  V30 652 H 61.6032 -0.0558577 -0.749923 0
M  V30 653 H 63.5742 -1.06332 -2.78812 0
M  V30 654 C 62.3232 0.59391 -3.4259 0
M  V30 655 H 61.6462 -0.0573588 -3.99759 0
M  V30 656 H 63.0862 0.973446 -4.12674 0
M  V30 657 C 61.5452 1.76568 -2.86924 0
M  V30 658 O 62.0752 2.8638 -2.81691 0
M  V30 659 N 60.2812 1.58198 -2.43766 0
M  V30 660 H 59.8282 0.68872 -2.48222 0
M  V30 661 H 59.7862 2.36752 -2.06871 0
M  V30 662 N 63.5583 1.46682 -0.576371 0
M  V30 663 C 64.8353 1.95599 0.00703437 0
M  V30 664 C 65.2153 1.51904 1.46589 0
M  V30 665 O 64.5633 0.766755 2.15251 0
M  V30 666 C 64.7733 3.4864 -0.158404 0
M  V30 667 C 66.1213 4.24594 -0.0229439 0
M  V30 668 O 67.1453 3.56094 -0.0869173 0
M  V30 669 O 66.0043 5.46373 0.118015 0
M  V30 670 H 63.0983 0.825275 0.053384 0
M  V30 671 H 65.6443 1.56996 -0.644244 0
M  V30 672 H 64.4163 3.7331 -1.17282 0
M  V30 673 H 64.0393 3.94057 0.5296 0
M  V30 674 N 65.0364 0.313813 1.54444 0
M  V30 675 C 66.2854 -0.292519 1.99568 0
M  V30 676 C 66.5984 -1.54011 1.20582 0
M  V30 677 O 67.8044 -2.22183 1.56035 0
M  V30 678 C 66.2604 -0.571752 3.55329 0
M  V30 679 C 65.8684 0.658229 4.43138 0
M  V30 680 C 67.6124 -1.13857 4.08946 0
M  V30 681 C 65.5194 0.351439 5.90355 0
M  V30 682 H 64.4494 -0.113079 0.745472 0
M  V30 683 H 67.1004 0.424518 1.78522 0
M  V30 684 H 65.4824 -1.34872 3.72325 0
M  V30 685 H 66.6564 1.43403 4.37918 0
M  V30 686 H 64.9714 1.14458 4.0036 0
M  V30 687 H 67.5684 -1.38257 5.16516 0
M  V30 688 H 67.9114 -2.08489 3.6033 0
M  V30 689 H 68.4444 -0.423015 3.95544 0
M  V30 690 H 65.1834 1.26667 6.43145 0
M  V30 691 H 64.7034 -0.386842 5.98551 0
M  V30 692 H 66.3824 -0.0423134 6.46986 0
M  V30 693 N 66.5145 -1.57545 0.0417849 0
M  V30 694 C 67.7425 -1.96624 -0.643928 0
M  V30 695 C 68.1575 -0.918897 -1.64929 0
M  V30 696 O 67.5145 0.0979323 -1.82237 0
M  V30 697 C 67.5655 -3.35781 -1.33914 0
M  V30 698 O 67.2865 -4.365 -0.374048 0
M  V30 699 C 68.7875 -3.89566 -2.1155 0
M  V30 700 H 66.0075 -0.647316 -0.176702 0
M  V30 701 H 68.5515 -2.04229 0.105304 0
M  V30 702 H 66.7065 -3.29357 -2.03968 0
M  V30 703 H 67.1205 -5.17248 -0.869179 0
M  V30 704 H 68.5945 -4.89242 -2.55628 0
M  V30 705 H 69.0715 -3.24488 -2.9598 0
M  V30 706 H 69.6775 -3.99298 -1.46427 0
M  V30 707 N 67.9926 0.231505 -1.5589 0
M  V30 708 C 68.9556 1.27028 -1.90779 0
M  V30 709 C 69.9556 1.40308 -0.785507 0
M  V30 710 O 71.1456 1.38744 -1.05336 0
M  V30 711 C 68.2776 2.64566 -2.14983 0
M  V30 712 H 69.4706 0.973017 -2.83677 0
M  V30 713 H 67.0236 0.471486 -1.49019 0
M  V30 714 H 67.7586 2.99406 -1.24604 0
M  V30 715 H 67.5436 2.56305 -2.96732 0
M  V30 716 H 69.0336 3.39543 -2.43105 0
M  V30 717 N 69.4707 1.49531 0.497807 0
M  V30 718 C 70.4027 1.62559 1.61578 0
M  V30 719 C 71.4157 0.508134 1.54667 0
M  V30 720 O 72.6047 0.780309 1.60541 0
M  V30 721 C 69.7047 1.56925 3.00379 0
M  V30 722 C 68.8777 2.84257 3.3244 0
M  V30 723 C 67.9367 2.71632 4.50669 0
M  V30 724 O 66.9627 3.4557 4.52294 0
M  V30 725 N 68.1647 1.83391 5.5077 0
M  V30 726 H 70.9297 2.58981 1.50828 0
M  V30 727 H 68.4907 1.4666 0.685743 0
M  V30 728 H 70.4827 1.46129 3.77397 0
M  V30 729 H 69.0527 0.683483 3.05037 0
M  V30 730 H 68.2727 3.09381 2.44289 0
M  V30 731 H 69.5607 3.68666 3.5066 0
M  V30 732 H 68.9587 1.22583 5.52259 0
M  V30 733 H 67.5157 1.78515 6.26878 0
M  V30 734 N 70.9488 -0.749086 1.3866 0
M  V30 735 C 71.8788 -1.8764 1.38973 0
M  V30 736 C 72.8598 -1.68178 0.255004 0
M  V30 737 O 74.0448 -1.88704 0.458754 0
M  V30 738 C 71.1748 -3.25222 1.21851 0
M  V30 739 C 70.1288 -3.59295 2.32575 0
M  V30 740 C 69.4548 -4.95663 2.00555 0
M  V30 741 C 70.7548 -3.63709 3.7485 0
M  V30 742 H 72.4488 -1.87635 2.3331 0
M  V30 743 H 69.9948 -0.901329 1.12303 0
M  V30 744 H 71.9478 -4.03746 1.20695 0
M  V30 745 H 70.6718 -3.25719 0.239775 0
M  V30 746 H 69.3308 -2.83093 2.32925 0
M  V30 747 H 68.9788 -4.92724 1.01154 0
M  V30 748 H 68.6788 -5.19429 2.74714 0
M  V30 749 H 70.2028 -5.7656 2.01024 0
M  V30 750 H 71.6168 -4.32338 3.76506 0
M  V30 751 H 70.0138 -3.98986 4.48252 0
M  V30 752 H 71.0838 -2.63834 4.06841 0
M  V30 753 N 72.4269 -1.23603 -0.977757 0
M  V30 754 C 73.3569 -1.04401 -2.0886 0
M  V30 755 C 74.3379 0.0399052 -1.70053 0
M  V30 756 O 75.5229 -0.125246 -1.93796 0
M  V30 757 C 72.6529 -0.637269 -3.41403 0
M  V30 758 C 71.6069 -1.66883 -3.94124 0
M  V30 759 C 70.9329 -1.11745 -5.22893 0
M  V30 760 C 72.2329 -3.06247 -4.23096 0
M  V30 761 H 73.9269 -1.97316 -2.25182 0
M  V30 762 H 71.4729 -0.950096 -1.08209 0
M  V30 763 H 73.4259 -0.48998 -4.18542 0
M  V30 764 H 72.1499 0.327557 -3.24953 0
M  V30 765 H 70.8089 -1.80416 -3.19133 0
M  V30 766 H 70.4569 -0.143527 -5.02795 0
M  V30 767 H 70.1569 -1.80672 -5.59134 0
M  V30 768 H 71.6809 -0.982067 -6.02651 0
M  V30 769 H 73.0949 -2.96001 -4.90975 0
M  V30 770 H 71.4919 -3.72436 -4.70544 0
M  V30 771 H 72.5619 -3.55041 -3.30263 0
M  V30 772 N 73.905 1.17692 -1.04816 0
M  V30 773 C 75.316 1.69501 -0.782698 0
M  V30 774 C 75.667 1.83456 0.695577 0
M  V30 775 O 74.792 1.51942 1.54086 0
M  V30 776 C 75.387 3.07874 -1.41419 0
M  V30 777 C 73.946 3.56864 -1.19686 0
M  V30 778 C 73.093 2.3322 -1.50012 0
M  V30 779 H 76.044 1.02262 -1.2136 0
M  V30 780 H 76.065 3.71528 -0.821428 0
M  V30 781 H 75.577 2.97685 -2.49009 0
M  V30 782 H 73.678 3.72337 -0.140043 0
M  V30 783 H 73.791 4.39851 -1.89916 0
M  V30 784 H 72.155 2.37501 -0.920071 0
M  V30 785 H 72.938 2.25644 -2.58727 0
M  V30 786 N 75.3831 0.828654 1.34056 0
M  V30 787 C 76.3461 0.259927 2.27721 0
M  V30 788 C 77.3461 -0.565478 1.50529 0
M  V30 789 O 78.5361 -0.38075 1.69988 0
M  V30 790 C 75.6681 -0.634944 3.34935 0
M  V30 791 H 76.8611 1.0863 2.79534 0
M  V30 792 H 74.4141 0.600951 1.44285 0
M  V30 793 H 75.1491 -1.48416 2.88346 0
M  V30 794 H 74.9341 -0.0444999 3.92075 0
M  V30 795 H 76.4241 -1.02648 4.04788 0
M  V30 796 N 76.8612 -1.46375 0.584142 0
M  V30 797 C 78.1382 -1.956 0.0033388 0
M  V30 798 C 78.5182 -1.52679 -1.45782 0
M  V30 799 O 77.8662 -0.77816 -2.14842 0
M  V30 800 C 78.0762 -3.48551 0.176891 0
M  V30 801 C 79.4242 -4.24576 0.0454609 0
M  V30 802 O 80.4482 -3.56043 0.105801 0
M  V30 803 O 79.3072 -5.46427 -0.0890376 0
M  V30 804 H 76.4012 -0.825547 -0.0490066 0
M  V30 805 H 78.9472 -1.56652 0.65256 0
M  V30 806 H 77.7192 -3.72683 1.1926 0
M  V30 807 H 77.3422 -3.94332 -0.508695 0
M  V30 808 N 78.3393 -0.321999 -1.54275 0
M  V30 809 C 79.5673 0.283052 -2.04955 0
M  V30 810 C 79.9823 1.45904 -1.19823 0
M  V30 811 O 79.3393 1.81063 -0.228545 0
M  V30 812 C 79.3903 0.719028 -3.54277 0
M  V30 813 O 79.1113 -0.410175 -4.36176 0
M  V30 814 C 80.6123 1.38705 -4.21041 0
M  V30 815 H 77.8323 0.0584616 -0.668448 0
M  V30 816 H 80.3763 -0.467734 -1.99079 0
M  V30 817 H 78.5313 1.41979 -3.60445 0
M  V30 818 H 78.9453 -0.0669416 -5.24457 0
M  V30 819 H 80.4193 1.64306 -5.2698 0
M  V30 820 H 80.8963 2.33385 -3.72059 0
M  V30 821 H 81.5023 0.728906 -4.19007 0
M  V30 822 N 79.8174 1.5752 -0.0501392 0
M  V30 823 C 80.7494 2.08413 0.95376 0
M  V30 824 C 81.7624 1.01175 1.27544 0
M  V30 825 O 82.9514 1.28744 1.23641 0
M  V30 826 C 80.0514 2.51138 2.27559 0
M  V30 827 C 79.2244 3.817 2.13598 0
M  V30 828 C 78.2834 4.10749 3.28895 0
M  V30 829 O 77.3094 4.80685 3.04845 0
M  V30 830 N 78.5114 3.62579 4.5334 0
M  V30 831 H 81.2764 2.95165 0.519383 0
M  V30 832 H 78.8374 1.61327 0.136127 0
M  V30 833 H 80.8294 2.67648 3.03557 0
M  V30 834 H 79.3994 1.6964 2.62567 0
M  V30 835 H 78.6194 3.74782 1.22197 0
M  V30 836 H 79.9074 4.67201 2.01496 0
M  V30 837 H 79.3054 3.06039 4.75769 0
M  V30 838 H 77.8624 3.84329 5.26436 0
M  V30 839 N 81.2955 -0.223234 1.56011 0
M  V30 840 C 82.2585 -1.26014 1.9145 0
M  V30 841 C 83.2585 -1.3989 0.792937 0
M  V30 842 O 84.4485 -1.38184 1.0607 0
M  V30 843 C 81.5805 -2.63422 2.16383 0
M  V30 844 H 82.7735 -0.95796 2.84189 0
M  V30 845 H 80.3265 -0.463576 1.49267 0
M  V30 846 H 81.0615 -2.98741 1.2619 0
M  V30 847 H 80.8465 -2.54728 2.98088 0
M  V30 848 H 82.3365 -3.38249 2.44903 0
M  V30 849 N 82.7736 -1.49793 -0.48987 0
M  V30 850 C 83.7236 -1.63673 -1.5873 0
M  V30 851 C 84.7076 -0.491956 -1.53195 0
M  V30 852 O 85.8996 -0.745461 -1.60536 0
M  V30 853 C 83.0286 -1.71689 -2.97284 0
M  V30 854 C 82.1146 -2.91781 -3.07774 0
M  V30 855 N 82.5056 -4.15714 -2.88124 0
M  V30 856 C 80.8036 -2.89949 -3.38889 0
M  V30 857 C 81.5046 -4.965 -3.03088 0
M  V30 858 N 80.4806 -4.30083 -3.3246 0
M  V30 859 H 84.2826 -2.57204 -1.42208 0
M  V30 860 H 81.7966 -1.46719 -0.69623 0
M  V30 861 H 83.7936 -1.79732 -3.76168 0
M  V30 862 H 82.4536 -0.793024 -3.14867 0
M  V30 863 H 83.4646 -4.45515 -2.64077 0
M  V30 864 H 80.1416 -2.06987 -3.62578 0
M  V30 865 H 81.5316 -6.04991 -2.92294 0
M  V30 866 N 84.2517 0.741722 -1.39055 0
M  V30 867 C 85.2147 1.83733 -1.37021 0
M  V30 868 C 86.2147 1.58542 -0.268534 0
M  V30 869 O 87.4047 1.66067 -0.526076 0
M  V30 870 C 84.5367 3.2141 -1.13617 0
M  V30 871 H 85.7297 1.86941 -2.34506 0
M  V30 872 H 83.2827 0.944676 -1.24521 0
M  V30 873 H 84.0177 3.23865 -0.167863 0
M  V30 874 H 83.8027 3.4109 -1.93391 0
M  V30 875 H 85.2927 4.01477 -1.14918 0
M  V30 876 N 85.7298 1.2412 0.971189 0
M  V30 877 C 86.9578 1.10575 1.74874 0
M  V30 878 C 87.3728 -0.342017 1.85676 0
M  V30 879 O 86.7298 -1.23617 1.34258 0
M  V30 880 C 86.7808 1.73579 3.171 0
M  V30 881 O 86.5018 3.12695 3.06844 0
M  V30 882 C 88.0028 1.65598 4.11208 0
M  V30 883 H 85.2228 0.386504 0.548503 0
M  V30 884 H 87.7668 1.64156 1.21955 0
M  V30 885 H 85.9218 1.24009 3.67016 0
M  V30 886 H 86.3358 3.43412 3.96445 0
M  V30 887 H 87.8098 2.1437 5.08674 0
M  V30 888 H 88.2868 0.616532 4.34851 0
M  V30 889 H 88.8928 2.14578 3.67201 0
M  V30 890 N 87.2079 -1.17134 1.05439 0
M  V30 891 C 88.4539 -1.87733 0.767077 0
M  V30 892 C 88.7869 -1.8098 -0.704253 0
M  V30 893 O 88.0619 -1.21951 -1.5152 0
M  V30 894 C 88.3449 -3.37659 1.25133 0
M  V30 895 C 88.1979 -3.53149 2.78578 0
M  V30 896 C 89.5169 -4.31768 0.852324 0
M  V30 897 H 86.6359 -0.681687 0.280129 0
M  V30 898 H 89.2779 -1.37732 1.30881 0
M  V30 899 H 87.4279 -3.80373 0.790469 0
M  V30 900 H 89.0999 -3.19434 3.32806 0
M  V30 901 H 87.3429 -2.95345 3.17732 0
M  V30 902 H 88.0139 -4.58403 3.07523 0
M  V30 903 H 90.4899 -3.96909 1.24911 0
M  V30 904 H 89.3659 -5.35199 1.21873 0
M  V30 905 H 89.6269 -4.41429 -0.243485 0
M  V30 906 N 88.686 -0.835752 -1.33615 0
M  V30 907 C 89.935 -0.426289 -1.97144 0
M  V30 908 C 90.248 1.01912 -1.66953 0
M  V30 909 O 91.454 1.53311 -2.24072 0
M  V30 910 C 89.91 -0.711321 -3.52801 0
M  V30 911 C 89.518 -2.1712 -3.91871 0
M  V30 912 C 91.262 -0.368654 -4.22896 0
M  V30 913 C 89.169 -2.40044 -5.40493 0
M  V30 914 H 88.099 -0.15567 -0.737755 0
M  V30 915 H 90.75 -1.0239 -1.52278 0
M  V30 916 H 89.132 -0.0433766 -3.95976 0
M  V30 917 H 90.306 -2.87936 -3.59763 0
M  V30 918 H 88.621 -2.47654 -3.34749 0
M  V30 919 H 91.218 -0.517601 -5.32189 0
M  V30 920 H 91.561 0.688078 -4.10574 0
M  V30 921 H 92.094 -0.991702 -3.8524 0
M  V30 922 H 88.833 -3.44271 -5.57815 0
M  V30 923 H 88.353 -1.73785 -5.74072 0
M  V30 924 H 90.032 -2.23042 -6.0734 0
M  V30 925 N 90.1641 1.46063 -0.591896 0
M  V30 926 C 91.3921 2.06717 -0.0868936 0
M  V30 927 C 91.8071 1.43916 1.22203 0
M  V30 928 O 91.1641 0.547698 1.74088 0
M  V30 929 C 91.2151 3.6142 0.0758725 0
M  V30 930 O 90.9361 4.21874 -1.18126 0
M  V30 931 C 92.4371 4.39025 0.61416 0
M  V30 932 H 89.6571 0.668162 -0.0616518 0
M  V30 933 H 92.2011 1.8755 -0.815175 0
M  V30 934 H 90.3561 3.79983 0.754413 0
M  V30 935 H 90.7701 5.14861 -1.00092 0
M  V30 936 H 92.2441 5.4783 0.677193 0
M  V30 937 H 92.7211 4.07708 1.63312 0
M  V30 938 H 93.3271 4.2529 -0.0298142 0
M  V30 939 N 91.6422 0.330177 1.54103 0
M  V30 940 C 93.0582 -0.0222371 1.59585 0
M  V30 941 C 93.2582 -1.49902 1.34654 0
M  V30 942 O 92.3142 -2.25592 1.13421 0
M  V30 943 C 93.6272 0.401932 2.98002 0
M  V30 944 C 95.1752 0.353145 3.11001 0
M  V30 945 C 95.6502 0.752576 4.51775 0
M  V30 946 N 97.1412 0.706239 4.57784 0
M  V30 947 C 97.8762 0.987417 5.64834 0
M  V30 948 N 97.3722 1.33607 6.79795 0
M  V30 949 N 99.1652 0.91254 5.54643 0
M  V30 950 H 91.3162 1.29228 1.68564 0
M  V30 951 H 93.5792 0.525906 0.78875 0
M  V30 952 H 93.2852 1.4311 3.21267 0
M  V30 953 H 93.1592 -0.229699 3.765 0
M  V30 954 H 95.5462 -0.666822 2.87467 0
M  V30 955 H 95.6272 1.0198 2.34593 0
M  V30 956 H 95.2712 1.77049 4.76042 0
M  V30 957 H 95.2012 0.0635409 5.26562 0
M  V30 958 H 97.6922 0.44889 3.75224 0
M  V30 959 H 98.0052 1.53582 7.57385 0
M  V30 960 H 96.3502 1.37439 6.81275 0
M  V30 961 H 99.5412 0.639601 4.6371 0
M  V30 962 H 99.7142 1.13503 6.37982 0
M  V30 963 N 93.1203 -1.57491 0.0584922 0
M  V30 964 C 94.0303 -2.15448 -0.928414 0
M  V30 965 C 95.0463 -1.11416 -1.3365 0
M  V30 966 O 96.2223 -1.4362 -1.41193 0
M  V30 967 C 93.2873 -2.69393 -2.18239 0
M  V30 968 C 92.3483 -3.88249 -1.83196 0
M  V30 969 C 91.5813 -4.39613 -3.02616 0
M  V30 970 O 91.8043 -3.90023 -4.16219 0
M  V30 971 O 90.7383 -5.31111 -2.83204 0
M  V30 972 H 94.5643 -3.00112 -0.465483 0
M  V30 973 H 92.1493 -1.48499 -0.163826 0
M  V30 974 H 94.0313 -3.04026 -2.91798 0
M  V30 975 H 92.7063 -1.87796 -2.63656 0
M  V30 976 H 91.6133 -3.58492 -1.06931 0
M  V30 977 H 92.9463 -4.71098 -1.42573 0
M  V30 978 N 94.5984 0.214957 -1.56127 0
M  V30 979 C 95.8754 0.963093 -1.70247 0
M  V30 980 C 96.2554 2.02166 -0.60764 0
M  V30 981 O 95.6034 2.25244 0.384385 0
M  V30 982 C 95.8134 1.56756 -3.11815 0
M  V30 983 C 97.1614 2.0573 -3.7143 0
M  V30 984 O 98.1854 1.66637 -3.14818 0
M  V30 985 O 97.0444 2.77603 -4.70743 0
M  V30 986 H 94.1384 0.450321 -0.693643 0
M  V30 987 H 96.6844 0.206219 -1.68442 0
M  V30 988 H 95.4564 0.803533 -3.82961 0
M  V30 989 H 95.0794 2.3898 -3.17765 0
M  V30 990 N 96.0765 1.50051 0.48192 0
M  V30 991 C 97.3245 1.60181 1.23234 0
M  V30 992 C 97.6455 0.299176 1.92691 0
M  V30 993 O 96.9155 -0.682708 1.83619 0
M  V30 994 H 95.4955 0.590232 0.457859 0
M  V30 995 H 98.1575 1.86775 0.556881 0
M  V30 996 H 97.2535 2.40753 1.98607 0
M  V30 997 N 97.5546 -0.734337 1.39446 0
M  V30 998 C 98.8006 -1.49613 1.36908 0
M  V30 999 C 99.1336 -1.94169 -0.0347829 0
M  V30 1000 O 98.4086 -1.66833 -0.999847 0
M  V30 1001 C 98.6916 -2.73534 2.34203 0
M  V30 1002 C 98.5446 -2.34993 3.83534 0
M  V30 1003 C 99.8636 -3.75635 2.29317 0
M  V30 1004 H 96.9826 -0.542714 0.498629 0
M  V30 1005 H 99.6246 -0.839597 1.70443 0
M  V30 1006 H 97.7746 -3.29553 2.05736 0
M  V30 1007 H 99.4466 -1.84601 4.22753 0
M  V30 1008 H 97.6896 -1.67213 4.00278 0
M  V30 1009 H 98.3606 -3.23738 4.47099 0
M  V30 1010 H 100.837 -3.29203 2.54489 0
M  V30 1011 H 99.7126 -4.60008 2.99472 0
M  V30 1012 H 99.9736 -4.22603 1.29842 0
M  V30 1013 N 99.0327 -1.24633 -0.964593 0
M  V30 1014 C 100.28 -1.08788 -1.70796 0
M  V30 1015 C 100.608 0.372783 -1.90894 0
M  V30 1016 O 99.8627 1.29167 -1.47018 0
M  V30 1017 C 100.162 -1.7763 -3.10133 0
M  V30 1018 C 99.8277 -3.27557 -3.09866 0
M  V30 1019 C 98.4897 -3.6846 -3.09501 0
M  V30 1020 C 100.842 -4.23389 -3.03959 0
M  V30 1021 C 98.1697 -5.03624 -3.00965 0
M  V30 1022 C 100.522 -5.58565 -2.96965 0
M  V30 1023 C 99.1857 -5.98809 -2.9493 0
M  V30 1024 H 98.4557 -0.398084 -0.624988 0
M  V30 1025 H 101.103 -1.54777 -1.12767 0
M  V30 1026 H 99.4077 -1.24044 -3.71645 0
M  V30 1027 H 101.105 -1.62832 -3.66451 0
M  V30 1028 H 97.6947 -2.95006 -3.10917 0
M  V30 1029 H 101.879 -3.92787 -3.03368 0
M  V30 1030 H 97.1347 -5.33998 -2.97752 0
M  V30 1031 H 101.309 -6.32523 -2.91354 0
M  V30 1032 H 98.9357 -7.03505 -2.88071 0
M  V30 1033 N 100.511 1.16574 -1.06058 0
M  V30 1034 C 101.751 1.88723 -0.78504 0
M  V30 1035 C 102.115 1.79706 0.676006 0
M  V30 1036 O 103.316 2.46757 1.06603 0
M  V30 1037 C 101.587 3.34338 -1.26304 0
M  V30 1038 S 103.146 4.24366 -1.1162 0
M  V30 1039 H 99.9638 0.651448 -0.284846 0
M  V30 1040 H 102.566 1.40732 -1.35701 0
M  V30 1041 H 101.27 3.38439 -2.32136 0
M  V30 1042 H 100.801 3.87378 -0.685719 0
M  V30 1043 H 102.816 4.96179 -0.0456539 0
M  V30 1044 N 101.989 0.842826 1.3317 0
M  V30 1045 C 103.237 0.439577 1.97262 0
M  V30 1046 C 103.558 -1.00548 1.67078 0
M  V30 1047 O 102.828 -1.70098 0.971779 0
M  V30 1048 H 101.408 0.159558 0.72976 0
M  V30 1049 H 104.07 1.07665 1.62463 0
M  V30 1050 H 103.166 0.574886 3.0676 0
M  V30 1051 N 103.467 -1.45747 0.599634 0
M  V30 1052 C 104.414 -2.30467 -0.123849 0
M  V30 1053 C 105.384 -1.41632 -0.86774 0
M  V30 1054 O 106.569 -1.70568 -0.855056 0
M  V30 1055 C 103.709 -3.26402 -1.12051 0
M  V30 1056 C 102.822 -4.3034 -0.37832 0
M  V30 1057 C 101.957 -5.13389 -1.364 0
M  V30 1058 C 100.996 -6.09061 -0.609171 0
M  V30 1059 N 100.133 -6.84918 -1.54374 0
M  V30 1060 H 104.973 -2.91802 0.604627 0
M  V30 1061 H 102.51 -1.43797 0.309972 0
M  V30 1062 H 104.468 -3.80482 -1.7114 0
M  V30 1063 H 103.098 -2.66839 -1.8165 0
M  V30 1064 H 102.15 -3.78984 0.327929 0
M  V30 1065 H 103.462 -4.98354 0.210997 0
M  V30 1066 H 102.616 -5.7183 -2.02719 0
M  V30 1067 H 101.355 -4.45376 -1.98725 0
M  V30 1068 H 100.36 -5.49758 0.0676979 0
M  V30 1069 H 101.585 -6.79099 0.00891991 0
M  V30 1070 H 99.531 -6.19601 -2.15478 0
M  V30 1071 H 99.448 -7.49254 -1.00766 0
M  V30 1072 H 100.716 -7.47906 -2.19676 0
M  V30 1073 N 104.945 -0.338344 -1.53925 0
M  V30 1074 C 106.361 0.0137736 -1.59594 0
M  V30 1075 C 106.561 1.49186 -1.35447 0
M  V30 1076 O 105.617 2.24987 -1.14616 0
M  V30 1077 C 106.93 -0.41773 -2.97784 0
M  V30 1078 C 108.478 -0.369633 -3.1081 0
M  V30 1079 C 108.953 -0.776524 -4.51369 0
M  V30 1080 N 110.444 -0.730506 -4.57403 0
M  V30 1081 C 111.179 -1.01736 -5.64303 0
M  V30 1082 N 110.675 -1.3721 -6.79077 0
M  V30 1083 N 112.468 -0.941942 -5.54151 0
M  V30 1084 H 104.619 -1.3012 -1.67876 0
M  V30 1085 H 106.882 -0.530082 -0.78595 0
M  V30 1086 H 106.588 -1.44811 -3.20504 0
M  V30 1087 H 106.462 0.209729 -3.76616 0
M  V30 1088 H 108.849 0.651568 -2.87817 0
M  V30 1089 H 108.93 -1.03223 -2.34049 0
M  V30 1090 H 108.574 -1.79571 -4.75096 0
M  V30 1091 H 108.504 -0.0914649 -5.26521 0
M  V30 1092 H 110.995 -0.468783 -3.74981 0
M  V30 1093 H 111.308 -1.57597 -7.5656 0
M  V30 1094 H 109.653 -1.4105 -6.80536 0
M  V30 1095 H 112.844 -0.664184 -4.63364 0
M  V30 1096 H 113.017 -1.16884 -6.37371 0
M  V30 1097 N 106.423 1.57458 -0.0668435 0
M  V30 1098 C 107.669 1.94401 0.598316 0
M  V30 1099 C 108.024 0.946335 1.67518 0
M  V30 1100 O 107.317 -0.0321442 1.91573 0
M  V30 1101 C 107.511 3.35784 1.22409 0
M  V30 1102 C 107.34 4.49212 0.209367 0
M  V30 1103 C 106.11 5.04887 -0.204218 0
M  V30 1104 C 108.308 5.11335 -0.551431 0
M  V30 1105 N 106.29 6.01854 -1.21016 0
M  V30 1106 C 107.661 6.03754 -1.41 0
M  V30 1107 C 109.716 4.94173 -0.608038 0
M  V30 1108 C 108.419 6.80854 -2.32013 0
M  V30 1109 C 110.445 5.71912 -1.50566 0
M  V30 1110 C 109.807 6.63976 -2.35191 0
M  V30 1111 H 105.906 0.758538 0.190114 0
M  V30 1112 H 108.49 1.94175 -0.142832 0
M  V30 1113 H 106.661 3.36757 1.93518 0
M  V30 1114 H 108.393 3.59976 1.84931 0
M  V30 1115 H 105.148 4.73266 0.177908 0
M  V30 1116 H 105.572 6.55035 -1.71049 0
M  V30 1117 H 110.214 4.22788 0.032022 0
M  V30 1118 H 107.932 7.5152 -2.97057 0
M  V30 1119 H 111.518 5.60656 -1.55423 0
M  V30 1120 H 110.398 7.2308 -3.03522 0
M  V30 1121 N 107.901 -0.206675 1.56239 0
M  V30 1122 C 109.147 -0.930218 1.80208 0
M  V30 1123 C 109.48 -1.83387 0.638981 0
M  V30 1124 O 108.755 -1.91119 -0.361066 0
M  V30 1125 C 109.038 -1.75641 3.1436 0
M  V30 1126 C 108.891 -0.878257 4.41142 0
M  V30 1127 C 110.21 -2.73129 3.45092 0
M  V30 1128 H 107.329 -0.336742 0.655571 0
M  V30 1129 H 109.971 -0.198222 1.88963 0
M  V30 1130 H 108.121 -2.38048 3.07027 0
M  V30 1131 H 109.793 -0.269787 4.6051 0
M  V30 1132 H 108.036 -0.184385 4.33408 0
M  V30 1133 H 108.707 -1.49106 5.3148 0
M  V30 1134 H 111.183 -2.20856 3.52649 0
M  V30 1135 H 110.059 -3.28028 4.40101 0
M  V30 1136 H 110.32 -3.51606 2.68003 0
M  V30 1137 N 109.379 -1.50304 -0.473955 0
M  V30 1138 C 110.289 -1.7174 -1.5982 0
M  V30 1139 C 111.305 -0.600457 -1.63311 0
M  V30 1140 O 112.481 -0.878441 -1.81233 0
M  V30 1141 C 109.546 -1.80427 -2.96052 0
M  V30 1142 C 108.607 -3.04148 -3.02972 0
M  V30 1143 C 107.84 -3.12411 -4.32706 0
M  V30 1144 O 108.063 -2.27542 -5.23049 0
M  V30 1145 O 106.997 -4.05113 -4.45159 0
M  V30 1146 H 110.823 -2.67035 -1.44657 0
M  V30 1147 H 108.408 -1.34366 -0.653148 0
M  V30 1148 H 110.29 -1.88338 -3.7697 0
M  V30 1149 H 108.965 -0.883156 -3.11419 0
M  V30 1150 H 107.872 -3.0174 -2.21142 0
M  V30 1151 H 109.205 -3.95829 -2.92541 0
M  V30 1152 N 110.857 0.726932 -1.39834 0
M  V30 1153 C 111.767 1.87131 -1.41489 0
M  V30 1154 C 112.783 1.71239 -0.308757 0
M  V30 1155 O 113.959 1.93701 -0.551529 0
M  V30 1156 C 111.024 3.22811 -1.26468 0
M  V30 1157 C 110.085 3.51039 -2.47124 0
M  V30 1158 C 109.318 4.80245 -2.3281 0
M  V30 1159 O 109.541 5.54537 -1.33585 0
M  V30 1160 O 108.475 5.08554 -3.21957 0
M  V30 1161 H 112.301 1.8869 -2.3797 0
M  V30 1162 H 109.886 0.875837 -1.21035 0
M  V30 1163 H 111.768 4.03877 -1.20255 0
M  V30 1164 H 110.443 3.22005 -0.330862 0
M  V30 1165 H 109.35 2.70027 -2.58914 0
M  V30 1166 H 110.683 3.56632 -3.39227 0
M  V30 1167 N 112.336 1.25143 0.95797 0
M  V30 1168 C 113.582 1.09855 1.70469 0
M  V30 1169 C 113.915 -0.360187 1.90831 0
M  V30 1170 O 113.19 -1.26568 1.47685 0
M  V30 1171 C 113.473 1.8497 3.08963 0
M  V30 1172 C 113.326 3.38652 2.96032 0
M  V30 1173 C 114.645 1.63016 4.08795 0
M  V30 1174 H 111.764 0.400465 0.618706 0
M  V30 1175 H 114.406 1.53933 1.11376 0
M  V30 1176 H 112.556 1.47505 3.59409 0
M  V30 1177 H 114.228 3.85772 2.52938 0
M  V30 1178 H 112.471 3.66534 2.32025 0
M  V30 1179 H 113.142 3.8642 3.94187 0
M  V30 1180 H 115.618 1.95625 3.67247 0
M  V30 1181 H 114.494 2.18015 5.03747 0
M  V30 1182 H 114.755 0.570692 4.38401 0
M  V30 1183 N 113.814 -1.1601 1.06675 0
M  V30 1184 C 115.061 -1.86633 0.785781 0
M  V30 1185 C 115.389 -1.81929 -0.687896 0
M  V30 1186 O 114.644 -1.23253 -1.52011 0
M  V30 1187 C 114.943 -3.35547 1.23057 0
M  V30 1188 C 114.609 -3.60448 2.70902 0
M  V30 1189 C 113.271 -3.66954 3.11285 0
M  V30 1190 C 115.623 -3.7071 3.66365 0
M  V30 1191 C 112.951 -3.81225 4.45965 0
M  V30 1192 C 115.303 -3.86503 5.00797 0
M  V30 1193 C 113.967 -3.91252 5.40813 0
M  V30 1194 H 113.237 -0.682937 0.287538 0
M  V30 1195 H 115.884 -1.37146 1.33654 0
M  V30 1196 H 114.189 -3.87193 0.59907 0
M  V30 1197 H 115.886 -3.88583 0.990163 0
M  V30 1198 H 112.476 -3.56021 2.38636 0
M  V30 1199 H 116.66 -3.64991 3.36296 0
M  V30 1200 H 111.916 -3.83155 4.76447 0
M  V30 1201 H 116.09 -3.93385 5.74649 0
M  V30 1202 H 113.717 -4.02062 6.45174 0
M  V30 1203 N 115.292 -0.849877 -1.32721 0
M  V30 1204 C 116.541 -0.447175 -1.96681 0
M  V30 1205 C 116.854 1.00135 -1.68025 0
M  V30 1206 O 118.06 1.50926 -2.25685 0
M  V30 1207 C 116.516 -0.7487 -3.52026 0
M  V30 1208 C 116.124 -2.21264 -3.89546 0
M  V30 1209 C 117.868 -0.413487 -4.22481 0
M  V30 1210 C 115.775 -2.45763 -5.37917 0
M  V30 1211 H 114.705 -0.163486 -0.736063 0
M  V30 1212 H 117.356 -1.03999 -1.51183 0
M  V30 1213 H 115.738 -0.0853727 -3.95908 0
M  V30 1214 H 116.912 -2.91736 -3.56689 0
M  V30 1215 H 115.227 -2.5119 -3.32103 0
M  V30 1216 H 117.824 -0.574017 -5.3161 0
M  V30 1217 H 118.167 0.644492 -4.11281 0
M  V30 1218 H 118.7 -1.03251 -3.84167 0
M  V30 1219 H 115.439 -3.50168 -5.54132 0
M  V30 1220 H 114.959 -1.79864 -5.72197 0
M  V30 1221 H 116.638 -2.29471 -6.0494 0
M  V30 1222 N 116.77 1.45427 -0.607355 0
M  V30 1223 C 117.702 2.2871 0.149752 0
M  V30 1224 C 118.715 1.39937 0.831958 0
M  V30 1225 O 119.904 1.64313 0.697385 0
M  V30 1226 C 117.004 3.15673 1.23304 0
M  V30 1227 C 116.177 4.32722 0.637996 0
M  V30 1228 C 115.236 5.00895 1.61215 0
M  V30 1229 O 114.262 5.57697 1.13854 0
M  V30 1230 N 115.464 5.00159 2.94655 0
M  V30 1231 H 118.229 2.94328 -0.564882 0
M  V30 1232 H 115.79 1.55612 -0.446823 0
M  V30 1233 H 117.782 3.58144 1.88454 0
M  V30 1234 H 116.352 2.51965 1.8502 0
M  V30 1235 H 115.572 3.93734 -0.191572 0
M  V30 1236 H 116.86 5.08321 0.220665 0
M  V30 1237 H 116.258 4.553 3.35735 0
M  V30 1238 H 114.815 5.46495 3.55228 0
M  V30 1239 N 118.248 0.346503 1.53744 0
M  V30 1240 C 119.178 -0.501193 2.28058 0
M  V30 1241 C 120.159 -1.10014 1.29734 0
M  V30 1242 O 121.344 -1.12097 1.58581 0
M  V30 1243 C 118.474 -1.65078 3.05559 0
M  V30 1244 C 117.428 -1.18003 4.11411 0
M  V30 1245 C 116.754 -2.41837 4.76884 0
M  V30 1246 C 118.054 -0.278394 5.21558 0
M  V30 1247 H 119.748 0.11875 2.99164 0
M  V30 1248 H 117.294 0.0585531 1.43881 0
M  V30 1249 H 119.247 -2.25028 3.56287 0
M  V30 1250 H 117.971 -2.29767 2.32109 0
M  V30 1251 H 116.63 -0.603331 3.61601 0
M  V30 1252 H 116.278 -3.0494 4.00026 0
M  V30 1253 H 115.978 -2.1102 5.48402 0
M  V30 1254 H 117.502 -3.02508 5.30397 0
M  V30 1255 H 118.916 -0.784823 5.67903 0
M  V30 1256 H 117.313 -0.0619707 6.00068 0
M  V30 1257 H 118.383 0.684677 4.80042 0
M  V30 1258 N 119.726 -1.57421 0.075193 0
M  V30 1259 C 120.689 -2.11791 -0.876203 0
M  V30 1260 C 121.689 -1.04268 -1.22412 0
M  V30 1261 O 122.879 -1.30242 -1.15684 0
M  V30 1262 C 120.011 -2.62207 -2.17854 0
M  V30 1263 H 121.204 -2.9716 -0.40444 0
M  V30 1264 H 118.757 -1.55333 -0.173557 0
M  V30 1265 H 119.492 -1.803 -2.6956 0
M  V30 1266 H 119.277 -3.40802 -1.93897 0
M  V30 1267 H 120.767 -3.04335 -2.85955 0
M  V30 1268 N 121.204 0.198386 -1.56346 0
M  V30 1269 C 122.452 0.91747 -1.80075 0
M  V30 1270 C 122.773 1.83929 -0.647692 0
M  V30 1271 O 122.043 1.93029 0.334166 0
M  V30 1272 H 120.623 0.341774 -0.664228 0
M  V30 1273 H 123.285 0.204684 -1.93822 0
M  V30 1274 H 122.381 1.51055 -2.7311 0
M  V30 1275 N 122.682 1.50554 0.465978 0
M  V30 1276 C 123.959 1.5232 1.22712 0
M  V30 1277 C 124.339 0.270807 2.09356 0
M  V30 1278 O 123.687 -0.745541 2.15995 0
M  V30 1279 C 123.897 2.82175 2.05374 0
M  V30 1280 C 125.245 3.33033 2.6339 0
M  V30 1281 O 126.269 2.83531 2.15612 0
M  V30 1282 O 125.128 4.19336 3.50456 0
M  V30 1283 H 122.222 0.611183 0.557122 0
M  V30 1284 H 124.768 1.62847 0.477381 0
M  V30 1285 H 123.54 3.64797 1.41558 0
M  V30 1286 H 123.163 2.74675 2.87471 0
M  V30 1287 N 124.16 -0.719506 1.40217 0
M  V30 1288 C 125.437 -1.47221 1.28784 0
M  V30 1289 C 125.817 -2.10883 -0.0956067 0
M  V30 1290 O 125.165 -1.99833 -1.10811 0
M  V30 1291 C 125.375 -2.5111 2.42373 0
M  V30 1292 C 126.723 -3.17053 2.82423 0
M  V30 1293 O 127.747 -2.61429 2.41937 0
M  V30 1294 O 126.606 -4.17742 3.52355 0
M  V30 1295 H 123.7 -0.654491 0.50554 0
M  V30 1296 H 126.246 -0.752014 1.52128 0
M  V30 1297 H 125.018 -2.02556 3.34793 0
M  V30 1298 H 124.641 -3.3067 2.20778 0
M  V30 1299 N 125.638 -1.25649 -0.95132 0
M  V30 1300 C 126.884 -1.10757 -1.69884 0
M  V30 1301 C 127.217 0.350061 -1.91019 0
M  V30 1302 O 126.492 1.25783 -1.48354 0
M  V30 1303 C 126.775 -1.86606 -3.07978 0
M  V30 1304 C 126.628 -3.40217 -2.94232 0
M  V30 1305 C 127.947 -1.65182 -4.07925 0
M  V30 1306 H 125.066 -0.40374 -0.616574 0
M  V30 1307 H 127.708 -1.54521 -1.10558 0
M  V30 1308 H 125.858 -1.49409 -3.58621 0
M  V30 1309 H 127.53 -3.87108 -2.50889 0
M  V30 1310 H 125.773 -3.67759 -2.30078 0
M  V30 1311 H 126.444 -3.88505 -3.92133 0
M  V30 1312 H 128.92 -1.9757 -3.66204 0
M  V30 1313 H 127.796 -2.20683 -5.02583 0
M  V30 1314 H 128.057 -0.593933 -4.38092 0
M  V30 1315 N 127.117 1.15442 -1.07289 0
M  V30 1316 C 128.533 1.38201 -0.798288 0
M  V30 1317 C 128.733 1.92429 0.597769 0
M  V30 1318 O 127.789 2.12962 1.3566 0
M  V30 1319 C 129.102 2.35357 -1.87156 0
M  V30 1320 C 130.65 2.49021 -1.89624 0
M  V30 1321 C 131.125 3.49468 -2.96034 0
M  V30 1322 N 132.616 3.57003 -2.95132 0
M  V30 1323 C 133.351 4.34543 -3.74112 0
M  V30 1324 N 132.847 5.15421 -4.6294 0
M  V30 1325 N 134.64 4.29625 -3.62462 0
M  V30 1326 H 126.791 0.78584 -1.97328 0
M  V30 1327 H 129.054 0.408065 -0.855679 0
M  V30 1328 H 128.76 2.02626 -2.87464 0
M  V30 1329 H 128.634 3.35129 -1.73114 0
M  V30 1330 H 131.021 2.81051 -0.899687 0
M  V30 1331 H 131.102 1.4925 -2.07745 0
M  V30 1332 H 130.746 3.18173 -3.95889 0
M  V30 1333 H 130.676 4.48992 -2.75161 0
M  V30 1334 H 133.167 2.99276 -2.30743 0
M  V30 1335 H 133.48 5.7183 -5.19837 0
M  V30 1336 H 131.825 5.14729 -4.66989 0
M  V30 1337 H 135.016 3.65505 -2.92444 0
M  V30 1338 H 135.189 4.89807 -4.24256 0
M  V30 1339 N 128.595 0.856903 1.32268 0
M  V30 1340 C 129.525 0.31858 2.31316 0
M  V30 1341 C 130.506 -0.583487 1.59779 0
M  V30 1342 O 131.691 -0.503259 1.87566 0
M  V30 1343 C 128.821 -0.491979 3.43798 0
M  V30 1344 C 127.775 0.315849 4.26833 0
M  V30 1345 C 127.101 -0.619586 5.31098 0
M  V30 1346 C 128.401 1.54282 4.98993 0
M  V30 1347 H 130.095 1.14621 2.76591 0
M  V30 1348 H 127.641 0.552613 1.32974 0
M  V30 1349 H 129.594 -0.879012 4.1213 0
M  V30 1350 H 128.318 -1.35299 2.97257 0
M  V30 1351 H 126.977 0.684664 3.6015 0
M  V30 1352 H 126.625 -1.47751 4.8081 0
M  V30 1353 H 126.325 -0.0830621 5.87541 0
M  V30 1354 H 127.849 -1.00375 6.02293 0
M  V30 1355 H 129.263 1.22796 5.59995 0
M  V30 1356 H 127.66 2.01745 5.65172 0
M  V30 1357 H 128.73 2.30285 4.26728 0
M  V30 1358 N 130.073 -1.45103 0.615059 0
M  V30 1359 C 131.301 -2.06553 0.11977 0
M  V30 1360 C 131.716 -1.45842 -1.19898 0
M  V30 1361 O 131.073 -0.575325 -1.73194 0
M  V30 1362 C 131.124 -3.61495 -0.018364 0
M  V30 1363 O 130.845 -4.19942 1.24822 0
M  V30 1364 C 132.346 -4.39947 -0.544237 0
M  V30 1365 H 129.566 -0.667096 0.0722739 0
M  V30 1366 H 132.11 -1.8623 0.84491 0
M  V30 1367 H 130.265 -3.81135 -0.693865 0
M  V30 1368 H 130.679 -5.13204 1.0827 0
M  V30 1369 H 132.153 -5.48838 -0.589953 0
M  V30 1370 H 132.63 -4.10255 -1.56805 0
M  V30 1371 H 133.236 -4.25188 0.0974703 0
M  V30 1372 N 131.551 -0.354651 -1.53558 0
M  V30 1373 C 132.797 0.231422 -2.02079 0
M  V30 1374 C 133.152 1.47308 -1.23767 0
M  V30 1375 O 132.445 1.8891 -0.319947 0
M  V30 1376 C 132.639 0.587121 -3.52545 0
M  V30 1377 C 132.468 -0.618513 -4.45426 0
M  V30 1378 C 131.238 -1.12724 -4.92566 0
M  V30 1379 C 133.436 -1.48039 -4.92533 0
M  V30 1380 N 131.418 -2.29404 -5.69427 0
M  V30 1381 C 132.789 -2.49397 -5.67628 0
M  V30 1382 C 134.844 -1.50454 -4.74624 0
M  V30 1383 C 133.547 -3.53013 -6.26717 0
M  V30 1384 C 135.573 -2.52958 -5.34571 0
M  V30 1385 C 134.935 -3.5304 -6.09543 0
M  V30 1386 H 131.034 0.0476909 -0.780544 0
M  V30 1387 H 133.618 -0.496727 -1.88257 0
M  V30 1388 H 131.789 1.28436 -3.6655 0
M  V30 1389 H 133.521 1.15734 -3.87799 0
M  V30 1390 H 130.276 -0.693577 -4.68494 0
M  V30 1391 H 130.7 -2.88347 -6.12524 0
M  V30 1392 H 135.342 -0.744356 -4.16196 0
M  V30 1393 H 133.06 -4.2992 -6.84247 0
M  V30 1394 H 136.646 -2.55667 -5.22614 0
M  V30 1395 H 135.526 -4.31056 -6.55103 0
M  V30 1396 N 133.029 1.57378 -0.0835403 0
M  V30 1397 C 133.979 2.09916 0.889905 0
M  V30 1398 C 134.963 1.01151 1.25129 0
M  V30 1399 O 136.155 1.27443 1.2283 0
M  V30 1400 C 133.284 2.67379 2.15322 0
M  V30 1401 C 132.37 3.83167 1.81779 0
M  V30 1402 N 132.761 4.91665 1.18739 0
M  V30 1403 C 131.059 3.92685 2.11459 0
M  V30 1404 C 131.76 5.72409 1.0355 0
M  V30 1405 N 130.736 5.21062 1.54906 0
M  V30 1406 H 134.538 2.91188 0.398378 0
M  V30 1407 H 132.052 1.61956 0.120013 0
M  V30 1408 H 134.049 3.0334 2.8599 0
M  V30 1409 H 132.709 1.87558 2.65051 0
M  V30 1410 H 133.72 5.10784 0.855604 0
M  V30 1411 H 130.397 3.23856 2.63483 0
M  V30 1412 H 131.787 6.69699 0.543425 0
M  V30 1413 N 134.507 -0.190092 1.56449 0
M  V30 1414 C 135.753 -0.911052 1.81184 0
M  V30 1415 C 136.086 -1.82699 0.658396 0
M  V30 1416 O 135.361 -1.91491 -0.340775 0
M  V30 1417 C 135.644 -1.72297 3.16205 0
M  V30 1418 C 135.497 -0.831419 4.42049 0
M  V30 1419 C 136.816 -2.69454 3.47969 0
M  V30 1420 H 133.935 -0.32977 0.659106 0
M  V30 1421 H 136.577 -0.178169 1.89163 0
M  V30 1422 H 134.727 -2.34778 3.09534 0
M  V30 1423 H 136.399 -0.220929 4.60771 0
M  V30 1424 H 134.642 -0.138406 4.33579 0
M  V30 1425 H 135.313 -1.43461 5.33032 0
M  V30 1426 H 137.789 -2.17104 3.54972 0
M  V30 1427 H 136.665 -3.23342 4.43555 0
M  V30 1428 H 136.926 -3.48744 2.71717 0
M  V30 1429 N 135.985 -1.50799 -0.457987 0
M  V30 1430 C 137.262 -1.52968 -1.21902 0
M  V30 1431 C 137.642 -0.281906 -2.09209 0
M  V30 1432 O 136.99 0.734076 -2.16388 0
M  V30 1433 C 137.2 -2.8326 -2.03875 0
M  V30 1434 C 138.548 -3.34425 -2.6162 0
M  V30 1435 O 139.572 -2.8467 -2.14106 0
M  V30 1436 O 138.431 -4.21188 -3.48228 0
M  V30 1437 H 135.525 -0.614129 -0.553873 0
M  V30 1438 H 138.071 -1.63098 -0.468739 0
M  V30 1439 H 136.843 -3.65543 -1.39621 0
M  V30 1440 H 136.466 -2.76195 -2.8601 0
M  V30 1441 N 137.463 0.71206 -1.40597 0
M  V30 1442 C 138.74 1.46536 -1.29563 0
M  V30 1443 C 139.12 2.10931 0.0844217 0
M  V30 1444 O 138.468 2.00418 1.0975 0
M  V30 1445 C 138.678 2.49821 -2.43701 0
M  V30 1446 C 140.026 3.15551 -2.841 0
M  V30 1447 O 141.05 2.60142 -2.4332 0
M  V30 1448 O 139.909 4.15867 -3.54566 0
M  V30 1449 H 137.003 0.651801 -0.509004 0
M  V30 1450 H 139.549 0.743935 -1.52524 0
M  V30 1451 H 138.321 2.00778 -3.35863 0
M  V30 1452 H 137.944 3.29495 -2.22528 0
M  V30 1453 N 138.941 1.26152 0.944643 0
M  V30 1454 C 140.189 1.11271 1.6871 0
M  V30 1455 C 140.51 -0.345166 1.91921 0
M  V30 1456 O 139.78 -1.24387 1.51343 0
M  V30 1457 H 138.36 0.408783 0.625224 0
M  V30 1458 H 141.022 1.58427 1.1352 0
M  V30 1459 H 140.118 1.62879 2.66227 0
M  V30 1460 N 140.419 -1.14872 1.07899 0
M  V30 1461 C 141.696 -1.81928 0.71845 0
M  V30 1462 C 142.076 -1.95417 -0.798455 0
M  V30 1463 O 141.424 -1.50997 -1.715 0
M  V30 1464 C 141.634 -3.17937 1.43935 0
M  V30 1465 C 142.982 -3.93501 1.59506 0
M  V30 1466 O 144.006 -3.27509 1.40058 0
M  V30 1467 O 142.865 -5.1183 1.91551 0
M  V30 1468 H 139.959 -0.78628 0.256305 0
M  V30 1469 H 142.505 -1.21934 1.18026 0
M  V30 1470 H 141.277 -3.0325 2.47295 0
M  V30 1471 H 140.9 -3.85619 0.968687 0
M  V30 1472 N 141.898 -0.863906 -1.31812 0
M  V30 1473 C 142.861 -0.320212 -2.26952 0
M  V30 1474 C 143.861 0.525369 -1.51975 0
M  V30 1475 O 145.051 0.335547 -1.70938 0
M  V30 1476 C 142.183 0.545919 -3.365 0
M  V30 1477 H 143.376 -1.16004 -2.76556 0
M  V30 1478 H 140.929 -0.638995 -1.42641 0
M  V30 1479 H 141.664 1.40718 -2.92179 0
M  V30 1480 H 141.449 -0.0594674 -3.92055 0
M  V30 1481 H 142.939 0.918796 -4.07367 0
M  V30 1482 N 143.376 1.44774 -0.622745 0
M  V30 1483 C 144.625 2.01334 -0.121397 0
M  V30 1484 C 144.938 1.49505 1.26125 0
M  V30 1485 O 146.144 1.98139 1.85616 0
M  V30 1486 C 144.6 3.59516 -0.166298 0
M  V30 1487 C 144.208 4.20342 -1.54974 0
M  V30 1488 C 145.952 4.23582 0.279021 0
M  V30 1489 C 143.859 5.70721 -1.55021 0
M  V30 1490 H 142.789 0.752851 -0.0416172 0
M  V30 1491 H 145.44 1.66083 -0.780309 0
M  V30 1492 H 143.822 3.92027 0.559557 0
M  V30 1493 H 144.996 3.99381 -2.29851 0
M  V30 1494 H 143.311 3.68529 -1.93843 0
M  V30 1495 H 145.908 5.33868 0.298083 0
M  V30 1496 H 146.251 3.95327 1.30471 0
M  V30 1497 H 146.784 3.95843 -0.394063 0
M  V30 1498 H 143.523 6.03698 -2.55399 0
M  V30 1499 H 143.043 5.93829 -0.844245 0
M  V30 1500 H 144.722 6.34203 -1.28047 0
M  V30 1501 N 144.854 0.36279 1.53368 0
M  V30 1502 C 145.804 -0.501391 2.22419 0
M  V30 1503 C 146.788 -1.0509 1.2184 0
M  V30 1504 O 147.98 -0.981404 1.47301 0
M  V30 1505 C 145.109 -1.64201 3.01484 0
M  V30 1506 C 144.195 -1.10552 4.09438 0
M  V30 1507 N 144.586 -0.291788 5.04958 0
M  V30 1508 C 142.884 -1.3806 4.24094 0
M  V30 1509 C 143.585 0.00162655 5.817 0
M  V30 1510 N 142.561 -0.595244 5.40331 0
M  V30 1511 H 146.363 0.127159 2.93625 0
M  V30 1512 H 143.877 0.170658 1.61501 0
M  V30 1513 H 145.874 -2.27326 3.49469 0
M  V30 1514 H 144.534 -2.27365 2.31809 0
M  V30 1515 H 145.545 0.0687731 5.17854 0
M  V30 1516 H 142.222 -2.01522 3.65644 0
M  V30 1517 H 143.612 0.659278 6.68658 0
M  V30 1518 N 146.332 -1.57332 0.0918853 0
M  V30 1519 C 147.295 -2.12708 -0.85369 0
M  V30 1520 C 148.295 -1.05561 -1.213 0
M  V30 1521 O 149.485 -1.31461 -1.14296 0
M  V30 1522 C 146.617 -2.64503 -2.15061 0
M  V30 1523 H 147.81 -2.97573 -0.3729 0
M  V30 1524 H 145.363 -1.55509 -0.157072 0
M  V30 1525 H 146.098 -1.83149 -2.67632 0
M  V30 1526 H 145.883 -3.4284 -1.90272 0
M  V30 1527 H 147.373 -3.07351 -2.82711 0
M  V30 1528 N 147.81 0.181792 -1.56548 0
M  V30 1529 C 148.758 1.24461 -1.965 0
M  V30 1530 C 149.752 1.464 -0.852261 0
M  V30 1531 O 150.958 1.47103 -1.03733 0
M  V30 1532 H 147.333 0.418138 -0.625031 0
M  V30 1533 H 149.304 0.880714 -2.85107 0
M  V30 1534 C 148.053 2.57891 -2.33212 0
M  V30 1535 H 147.376 2.41829 -3.18369 0
M  V30 1536 H 148.816 3.3097 -2.65019 0
M  V30 1537 C 147.275 3.15871 -1.17163 0
M  V30 1538 O 147.805 3.9913 -0.453708 0
M  V30 1539 N 146.011 2.74808 -0.944936 0
M  V30 1540 H 145.558 2.07205 -1.53049 0
M  V30 1541 H 145.516 3.13939 -0.170286 0
M  V30 1542 N 149.288 1.51039 0.449983 0
M  V30 1543 C 150.22 1.67617 1.56324 0
M  V30 1544 C 151.233 0.557083 1.52972 0
M  V30 1545 O 152.422 0.830989 1.57977 0
M  V30 1546 C 149.522 1.66402 2.95235 0
M  V30 1547 C 148.695 2.9469 3.23229 0
M  V30 1548 C 147.754 2.85832 4.41799 0
M  V30 1549 O 146.78 3.59785 4.41071 0
M  V30 1550 N 147.982 2.00821 5.44657 0
M  V30 1551 H 150.747 2.63648 1.42512 0
M  V30 1552 H 148.308 1.48767 0.638737 0
M  V30 1553 H 150.3 1.58062 3.72557 0
M  V30 1554 H 148.87 0.780182 3.02708 0
M  V30 1555 H 148.09 3.16996 2.34323 0
M  V30 1556 H 149.378 3.79636 3.38754 0
M  V30 1557 H 148.776 1.40091 5.48079 0
M  V30 1558 H 147.333 1.98368 6.20881 0
M  V30 1559 N 150.766 -0.704594 1.40972 0
M  V30 1560 C 151.994 -1.49354 1.43182 0
M  V30 1561 C 152.409 -1.88768 0.0345508 0
M  V30 1562 O 151.766 -1.56184 -0.944081 0
M  V30 1563 C 151.817 -2.76187 2.33244 0
M  V30 1564 O 151.538 -2.38436 3.67532 0
M  V30 1565 C 153.039 -3.7 2.44162 0
M  V30 1566 H 150.259 -0.460559 0.487982 0
M  V30 1567 H 152.803 -0.868261 1.85153 0
M  V30 1568 H 150.958 -3.34974 1.94606 0
M  V30 1569 H 151.372 -3.20126 4.15475 0
M  V30 1570 H 152.846 -4.55803 3.11364 0
M  V30 1571 H 153.323 -4.13867 1.47006 0
M  V30 1572 H 153.929 -3.17121 2.83398 0
M  V30 1573 N 152.244 -1.26651 -0.937939 0
M  V30 1574 C 153.49 -1.12553 -1.687 0
M  V30 1575 C 153.823 0.329782 -1.91379 0
M  V30 1576 O 153.098 1.24202 -1.4968 0
M  V30 1577 C 153.381 -1.89862 -3.05981 0
M  V30 1578 C 153.234 -3.43318 -2.90607 0
M  V30 1579 C 154.553 -1.69499 -4.0615 0
M  V30 1580 H 151.672 -0.410257 -0.612257 0
M  V30 1581 H 154.314 -1.55685 -1.08913 0
M  V30 1582 H 152.464 -1.53204 -3.57017 0
M  V30 1583 H 154.136 -3.89747 -2.46769 0
M  V30 1584 H 152.379 -3.70179 -2.26164 0
M  V30 1585 H 153.05 -3.92642 -3.8799 0
M  V30 1586 H 155.526 -2.01442 -3.64088 0
M  V30 1587 H 154.402 -2.26002 -5.00214 0
M  V30 1588 H 154.663 -0.640365 -4.37438 0
M  V30 1589 N 153.722 1.14298 -1.08507 0
M  V30 1590 C 154.969 1.85359 -0.815373 0
M  V30 1591 C 155.297 1.83001 0.658865 0
M  V30 1592 O 154.552 1.25655 1.50031 0
M  V30 1593 C 154.851 3.33547 -1.28379 0
M  V30 1594 C 154.517 3.56093 -2.76602 0
M  V30 1595 C 153.179 3.61955 -3.17084 0
M  V30 1596 C 155.531 3.64834 -3.72217 0
M  V30 1597 C 152.859 3.74082 -4.51973 0
M  V30 1598 C 155.211 3.78487 -5.06883 0
M  V30 1599 C 153.875 3.82598 -5.46969 0
M  V30 1600 H 153.145 0.678276 -0.298366 0
M  V30 1601 H 155.792 1.35002 -1.35819 0
M  V30 1602 H 154.097 3.86191 -0.660593 0
M  V30 1603 H 155.794 3.86959 -1.05186 0
M  V30 1604 H 152.384 3.52179 -2.4427 0
M  V30 1605 H 156.568 3.59595 -3.42061 0
M  V30 1606 H 151.824 3.75527 -4.82483 0
M  V30 1607 H 155.998 3.84193 -5.80834 0
M  V30 1608 H 153.625 3.91747 -6.51489 0
M  V30 1609 N 155.201 0.870884 1.31352 0
M  V30 1610 C 156.111 0.330783 2.32256 0
M  V30 1611 C 157.127 -0.559767 1.6475 0
M  V30 1612 O 158.303 -0.456263 1.96164 0
M  V30 1613 C 155.368 -0.458137 3.4366 0
M  V30 1614 C 154.429 0.460482 4.26823 0
M  V30 1615 C 153.662 -0.290881 5.32907 0
M  V30 1616 O 153.885 -1.51885 5.49806 0
M  V30 1617 O 152.819 0.351732 6.00871 0
M  V30 1618 H 156.645 1.16718 2.80376 0
M  V30 1619 H 154.23 0.634285 1.35267 0
M  V30 1620 H 156.112 -0.905343 4.1156 0
M  V30 1621 H 154.787 -1.27106 2.97701 0
M  V30 1622 H 153.694 0.956207 3.61673 0
M  V30 1623 H 155.027 1.23903 4.7635 0
M  V30 1624 N 156.679 -1.44442 0.630414 0
M  V30 1625 C 157.609 -2.33418 -0.0618083 0
M  V30 1626 C 158.59 -1.48165 -0.835541 0
M  V30 1627 O 159.775 -1.76886 -0.801564 0
M  V30 1628 C 156.905 -3.31222 -1.04449 0
M  V30 1629 C 155.859 -4.26288 -0.382436 0
M  V30 1630 C 155.185 -5.13954 -1.47497 0
M  V30 1631 C 156.485 -5.1744 0.710865 0
M  V30 1632 H 158.179 -2.91548 0.681184 0
M  V30 1633 H 155.725 -1.40191 0.329026 0
M  V30 1634 H 157.678 -3.92351 -1.53748 0
M  V30 1635 H 156.402 -2.71299 -1.81836 0
M  V30 1636 H 155.061 -3.6649 0.0899054 0
M  V30 1637 H 154.709 -4.50385 -2.2397 0
M  V30 1638 H 154.409 -5.7837 -1.03737 0
M  V30 1639 H 155.933 -5.77955 -1.96979 0
M  V30 1640 H 157.347 -5.72509 0.300996 0
M  V30 1641 H 155.744 -5.90455 1.07156 0
M  V30 1642 H 156.814 -4.58496 1.57829 0
M  V30 1643 N 158.157 -0.370918 -1.53173 0
M  V30 1644 C 159.105 0.488101 -2.27421 0
M  V30 1645 C 160.099 1.07884 -1.30604 0
M  V30 1646 O 161.305 1.02143 -1.48212 0
M  V30 1647 H 157.68 0.176134 -0.731082 0
M  V30 1648 H 159.651 -0.159815 -2.97972 0
M  V30 1649 C 158.4 1.61306 -3.08019 0
M  V30 1650 H 157.723 1.1678 -3.82364 0
M  V30 1651 H 159.163 2.18872 -3.63141 0
M  V30 1652 C 157.622 2.55848 -2.19188 0
M  V30 1653 O 158.152 3.58799 -1.80626 0
M  V30 1654 N 156.358 2.2516 -1.83715 0
M  V30 1655 H 155.905 1.41476 -2.15273 0
M  V30 1656 H 155.863 2.8867 -1.24567 0
M  V30 1657 N 159.635 1.57281 -0.100228 0
M  V30 1658 C 160.883 1.94153 0.561157 0
M  V30 1659 C 161.204 0.983157 1.68401 0
M  V30 1660 O 160.474 0.0361132 1.95867 0
M  V30 1661 H 159.054 0.716791 0.210283 0
M  V30 1662 H 161.716 1.94202 -0.164765 0
M  V30 1663 H 160.812 2.96709 0.968008 0
M  V30 1664 N 161.113 -0.173488 1.56642 0
M  V30 1665 C 162.524 -0.736155 1.71574 0
M  V30 1666 C 162.875 -1.82888 0.710389 0
M  V30 1667 O 162 -2.16017 -0.1287 0
M  V30 1668 C 162.595 -1.34211 3.11083 0
M  V30 1669 C 161.154 -1.85162 3.27707 0
M  V30 1670 C 160.301 -0.729765 2.67525 0
M  V30 1671 H 163.252 0.0518786 1.58615 0
M  V30 1672 H 163.273 -2.21178 3.09613 0
M  V30 1673 H 162.785 -0.546579 3.84232 0
M  V30 1674 H 160.886 -2.67366 2.59512 0
M  V30 1675 H 160.999 -1.99855 4.35425 0
M  V30 1676 H 159.363 -1.14965 2.27278 0
M  V30 1677 H 160.146 0.0538806 3.43258 0
M  V30 1678 N 162.591 -1.51276 -0.441967 0
M  V30 1679 C 163.554 -1.7167 -1.51862 0
M  V30 1680 C 164.554 -0.586793 -1.49711 0
M  V30 1681 O 165.744 -0.854276 -1.51815 0
M  V30 1682 C 162.876 -1.76889 -2.91416 0
M  V30 1683 H 164.069 -2.67754 -1.35084 0
M  V30 1684 H 161.622 -1.41196 -0.670333 0
M  V30 1685 H 162.357 -0.826026 -3.13604 0
M  V30 1686 H 162.142 -2.59001 -2.94382 0
M  V30 1687 H 163.632 -1.94522 -3.69528 0
M  V30 1688 N 164.069 0.697108 -1.41344 0
M  V30 1689 C 165.485 1.00751 -1.2378 0
M  V30 1690 C 165.685 2.01105 -0.126066 0
M  V30 1691 O 164.741 2.47295 0.51004 0
M  V30 1692 C 166.054 1.53359 -2.58653 0
M  V30 1693 C 167.602 1.6525 -2.65822 0
M  V30 1694 C 168.077 2.2126 -4.01009 0
M  V30 1695 N 169.568 2.28622 -4.02847 0
M  V30 1696 C 170.303 2.72984 -5.04249 0
M  V30 1697 N 169.799 3.16962 -6.16041 0
M  V30 1698 N 171.592 2.72534 -4.91611 0
M  V30 1699 H 163.743 0.0322662 -2.12375 0
M  V30 1700 H 166.006 0.0768853 -0.944877 0
M  V30 1701 H 165.712 0.870773 -3.4075 0
M  V30 1702 H 165.586 2.51597 -2.81032 0
M  V30 1703 H 167.973 2.30644 -1.84086 0
M  V30 1704 H 168.054 0.655614 -2.47256 0
M  V30 1705 H 167.698 1.56482 -4.83193 0
M  V30 1706 H 167.628 3.21698 -4.16915 0
M  V30 1707 H 170.119 1.97585 -3.22131 0
M  V30 1708 H 170.432 3.49434 -6.89287 0
M  V30 1709 H 168.777 3.14875 -6.1958 0
M  V30 1710 H 171.968 2.37525 -4.0336 0
M  V30 1711 H 172.141 3.06789 -5.70775 0
M  V30 1712 N 165.547 1.27147 0.931209 0
M  V30 1713 C 166.793 1.13446 1.68101 0
M  V30 1714 C 167.126 -0.319628 1.91552 0
M  V30 1715 O 166.401 -1.23407 1.50336 0
M  V30 1716 C 166.684 1.91482 3.0497 0
M  V30 1717 C 166.537 3.44855 2.88782 0
M  V30 1718 C 167.856 1.71651 4.05246 0
M  V30 1719 H 164.975 0.413498 0.610072 0
M  V30 1720 H 167.617 1.56261 1.08086 0
M  V30 1721 H 165.767 1.55095 3.56199 0
M  V30 1722 H 167.439 3.9105 2.44698 0
M  V30 1723 H 165.682 3.71373 2.24198 0
M  V30 1724 H 166.353 3.94694 3.85902 0
M  V30 1725 H 168.829 2.0337 3.63015 0
M  V30 1726 H 167.705 2.28651 4.99009 0
M  V30 1727 H 167.966 0.663555 4.37092 0
M  V30 1728 N 167.025 -1.13721 1.09112 0
M  V30 1729 C 167.955 -2.21148 0.749385 0
M  V30 1730 C 168.936 -1.6792 -0.271475 0
M  V30 1731 O 170.121 -1.93693 -0.140251 0
M  V30 1732 C 167.251 -3.46905 0.165659 0
M  V30 1733 C 166.205 -4.13203 1.11567 0
M  V30 1734 C 165.531 -5.33248 0.393809 0
M  V30 1735 C 166.831 -4.60912 2.45678 0
M  V30 1736 H 168.525 -2.4999 1.64758 0
M  V30 1737 H 166.071 -1.20156 0.793626 0
M  V30 1738 H 168.024 -4.21313 -0.085466 0
M  V30 1739 H 166.748 -3.17449 -0.767714 0
M  V30 1740 H 165.407 -3.40758 1.35202 0
M  V30 1741 H 165.055 -5.00054 -0.543599 0
M  V30 1742 H 164.755 -5.78552 1.02721 0
M  V30 1743 H 166.279 -6.10413 0.150908 0
M  V30 1744 H 167.693 -5.26759 2.26269 0
M  V30 1745 H 166.09 -5.16944 3.04776 0
M  V30 1746 H 167.16 -3.75603 3.06677 0
M  V30 1747 N 168.503 -0.877838 -1.30888 0
M  V30 1748 C 169.433 -0.35534 -2.3078 0
M  V30 1749 C 170.414 0.557994 -1.60687 0
M  V30 1750 O 171.599 0.473355 -1.88343 0
M  V30 1751 C 168.729 0.437221 -3.44537 0
M  V30 1752 C 167.683 -0.383715 -4.26276 0
M  V30 1753 C 167.009 0.535014 -5.32017 0
M  V30 1754 C 168.309 -1.62201 -4.96476 0
M  V30 1755 H 170.003 -1.19007 -2.74732 0
M  V30 1756 H 167.549 -0.573698 -1.32078 0
M  V30 1757 H 169.502 0.813334 -4.13477 0
M  V30 1758 H 168.226 1.30553 -2.99372 0
M  V30 1759 H 166.885 -0.741874 -3.59015 0
M  V30 1760 H 166.533 1.40083 -4.831 0
M  V30 1761 H 166.233 -0.0104211 -5.87599 0
M  V30 1762 H 167.757 0.907799 -6.03814 0
M  V30 1763 H 169.171 -1.31689 -5.5797 0
M  V30 1764 H 167.568 -2.10711 -5.61891 0
M  V30 1765 H 168.638 -2.37044 -4.23011 0
M  V30 1766 N 169.982 1.44106 -0.638065 0
M  V30 1767 C 171.21 2.06336 -0.152615 0
M  V30 1768 C 171.625 1.47731 1.17563 0
M  V30 1769 O 170.982 0.602806 1.72257 0
M  V30 1770 C 171.033 3.61479 -0.0391491 0
M  V30 1771 O 170.754 4.17903 -1.31487 0
M  V30 1772 C 172.255 4.40757 0.474176 0
M  V30 1773 H 169.475 0.665862 -0.0828776 0
M  V30 1774 H 172.019 1.84862 -0.87443 0
M  V30 1775 H 170.174 3.82191 0.633142 0
M  V30 1776 H 170.588 5.11416 -1.16421 0
M  V30 1777 H 172.062 5.49707 0.502562 0
M  V30 1778 H 172.539 4.12697 1.50258 0
M  V30 1779 H 173.145 4.24979 -0.165102 0
M  V30 1780 N 171.46 0.379036 1.52974 0
M  V30 1781 C 172.708 -0.206014 2.01047 0
M  V30 1782 C 173.029 -1.48175 1.26765 0
M  V30 1783 O 172.299 -1.92085 0.384743 0
M  V30 1784 H 170.879 -0.0791184 0.742798 0
M  V30 1785 H 173.541 0.508366 1.88153 0
M  V30 1786 H 172.637 -0.423501 3.09213 0
M  V30 1787 N 172.938 -1.57226 0.108567 0
M  V30 1788 C 173.848 -2.18292 -0.859401 0
M  V30 1789 C 174.864 -1.15612 -1.30038 0
M  V30 1790 O 176.04 -1.48039 -1.36552 0
M  V30 1791 C 173.105 -2.762 -2.09558 0
M  V30 1792 C 172.166 -3.93881 -1.70752 0
M  V30 1793 C 171.399 -4.49018 -2.88477 0
M  V30 1794 O 171.622 -4.03068 -4.036 0
M  V30 1795 O 170.556 -5.39852 -2.66164 0
M  V30 1796 H 174.382 -3.01441 -0.369769 0
M  V30 1797 H 171.967 -1.48945 -0.1165 0
M  V30 1798 H 173.849 -3.13156 -2.81978 0
M  V30 1799 H 172.524 -1.96089 -2.57548 0
M  V30 1800 H 171.431 -3.61713 -0.954714 0
M  V30 1801 H 172.764 -4.75396 -1.27513 0
M  V30 1802 N 174.416 0.165178 -1.56732 0
M  V30 1803 C 175.832 0.517174 -1.50988 0
M  V30 1804 C 176.032 1.84331 -0.813894 0
M  V30 1805 O 175.088 2.49672 -0.37682 0
M  V30 1806 C 176.401 0.544261 -2.95733 0
M  V30 1807 C 177.949 0.631039 -3.06573 0
M  V30 1808 C 178.424 0.68896 -4.52788 0
M  V30 1809 N 179.915 0.751683 -4.5706 0
M  V30 1810 C 180.65 0.817177 -5.67547 0
M  V30 1811 N 180.146 0.843129 -6.8765 0
M  V30 1812 N 181.939 0.856668 -5.55534 0
M  V30 1813 H 174.09 -0.704318 -2.00382 0
M  V30 1814 H 176.353 -0.254687 -0.913148 0
M  V30 1815 H 176.059 -0.361607 -3.49836 0
M  V30 1816 H 175.933 1.3886 -3.5071 0
M  V30 1817 H 178.32 1.52733 -2.52501 0
M  V30 1818 H 178.401 -0.240095 -2.54671 0
M  V30 1819 H 178.045 -0.2031 -5.07494 0
M  V30 1820 H 177.975 1.57633 -5.02454 0
M  V30 1821 H 180.466 0.739661 -3.70591 0
M  V30 1822 H 180.779 0.894448 -7.67606 0
M  V30 1823 H 179.124 0.811304 -6.90248 0
M  V30 1824 H 182.315 0.833437 -4.60621 0
M  V30 1825 H 182.488 0.904247 -6.4166 0
M  V30 1826 N 175.894 1.51508 0.433938 0
M  V30 1827 C 177.122 1.68157 1.20543 0
M  V30 1828 C 177.537 0.380362 1.84929 0
M  V30 1829 O 176.894 -0.641446 1.70856 0
M  V30 1830 C 176.945 2.79965 2.28696 0
M  V30 1831 O 176.666 4.05045 1.66943 0
M  V30 1832 C 178.167 3.07912 3.18912 0
M  V30 1833 H 175.387 0.56421 0.363191 0
M  V30 1834 H 177.931 1.97941 0.513754 0
M  V30 1835 H 176.086 2.5277 2.93574 0
M  V30 1836 H 176.5 4.67165 2.38448 0
M  V30 1837 H 177.974 3.89719 3.90926 0
M  V30 1838 H 178.451 2.20456 3.79863 0
M  V30 1839 H 179.057 3.36779 2.59731 0
M  V30 1840 N 177.372 -0.689602 1.41712 0
M  V30 1841 C 178.335 -1.78521 1.43746 0
M  V30 1842 C 179.335 -1.57436 0.327191 0
M  V30 1843 O 180.525 -1.64 0.587348 0
M  V30 1844 C 177.657 -3.16971 1.25467 0
M  V30 1845 H 178.85 -1.78108 2.41283 0
M  V30 1846 H 176.403 -0.89781 1.27942 0
M  V30 1847 H 177.138 -3.23019 0.287948 0
M  V30 1848 H 176.923 -3.33678 2.05917 0
M  V30 1849 H 178.413 -3.96935 1.2974 0
M  V30 1850 N 178.85 -1.27639 -0.924453 0
M  V30 1851 C 179.78 -1.13166 -2.04244 0
M  V30 1852 C 180.761 -0.032256 -1.70069 0
M  V30 1853 O 181.946 -0.207328 -1.9309 0
M  V30 1854 C 179.076 -0.781496 -3.38393 0
M  V30 1855 C 178.03 -1.83449 -3.86692 0
M  V30 1856 C 177.356 -1.33822 -5.17683 0
M  V30 1857 C 178.656 -3.23917 -4.09726 0
M  V30 1858 H 180.35 -2.06689 -2.1661 0
M  V30 1859 H 177.896 -0.995136 -1.04082 0
M  V30 1860 H 179.849 -0.667057 -4.16087 0
M  V30 1861 H 178.573 0.189439 -3.2605 0
M  V30 1862 H 177.232 -1.93789 -3.11193 0
M  V30 1863 H 176.88 -0.35665 -5.01734 0
M  V30 1864 H 176.58 -2.04224 -5.50968 0
M  V30 1865 H 178.104 -1.23679 -5.97943 0
M  V30 1866 H 179.518 -3.16559 -4.77978 0
M  V30 1867 H 177.915 -3.92059 -4.54324 0
M  V30 1868 H 178.985 -3.68729 -3.14908 0
M  V30 1869 N 180.328 1.1314 -1.09713 0
M  V30 1870 C 181.276 2.20717 -0.733934 0
M  V30 1871 C 182.27 1.6729 0.266506 0
M  V30 1872 O 183.476 1.79547 0.127656 0
M  V30 1873 H 179.851 0.719292 -0.21937 0
M  V30 1874 H 181.822 2.48611 -1.6503 0
M  V30 1875 C 180.571 3.47265 -0.173849 0
M  V30 1876 H 179.894 3.88716 -0.934873 0
M  V30 1877 H 181.334 4.23979 0.0423126 0
M  V30 1878 C 179.793 3.18724 1.09164 0
M  V30 1879 O 180.323 3.37762 2.17439 0
M  V30 1880 N 178.529 2.72583 1.00732 0
M  V30 1881 H 178.076 2.57291 0.126121 0
M  V30 1882 H 178.034 2.53862 1.85476 0
M  V30 1883 N 181.806 0.884767 1.30421 0
M  V30 1884 C 183.053 0.503105 1.96151 0
M  V30 1885 C 183.381 -0.947676 1.69851 0
M  V30 1886 O 182.636 -1.68467 0.995861 0
M  V30 1887 C 182.935 0.724318 3.49983 0
M  V30 1888 C 182.601 2.15015 3.96332 0
M  V30 1889 C 181.263 2.54005 4.08699 0
M  V30 1890 C 183.615 3.07936 4.20505 0
M  V30 1891 C 180.943 3.85128 4.42599 0
M  V30 1892 C 183.295 4.3859 4.55874 0
M  V30 1893 C 181.959 4.77474 4.66449 0
M  V30 1894 H 181.229 0.184099 0.717766 0
M  V30 1895 H 183.876 1.12058 1.55291 0
M  V30 1896 H 182.181 0.0238086 3.91793 0
M  V30 1897 H 183.878 0.408617 3.98913 0
M  V30 1898 H 180.468 1.8375 3.87213 0
M  V30 1899 H 184.652 2.79033 4.10431 0
M  V30 1900 H 179.908 4.14996 4.48986 0
M  V30 1901 H 184.082 5.10629 4.7353 0
M  V30 1902 H 181.709 5.79115 4.92473 0
M  V30 1903 N 183.284 -1.43765 0.645699 0
M  V30 1904 C 184.53 -2.02197 0.156271 0
M  V30 1905 C 184.863 -1.50776 -1.22393 0
M  V30 1906 O 184.138 -0.697771 -1.81553 0
M  V30 1907 C 184.421 -3.59749 0.158872 0
M  V30 1908 C 184.274 -4.21419 1.57245 0
M  V30 1909 C 185.593 -4.37149 -0.50879 0
M  V30 1910 H 182.712 -0.734694 0.0582602 0
M  V30 1911 H 185.354 -1.71157 0.824951 0
M  V30 1912 H 183.504 -3.86325 -0.410525 0
M  V30 1913 H 185.176 -4.059 2.19186 0
M  V30 1914 H 183.419 -3.78356 2.122 0
M  V30 1915 H 184.09 -5.30482 1.52619 0
M  V30 1916 H 186.566 -4.16093 -0.024412 0
M  V30 1917 H 185.442 -5.4683 -0.476213 0
M  V30 1918 H 185.703 -4.12839 -1.58165 0
M  V30 1919 N 184.763 -0.387143 -1.52771 0
M  V30 1920 C 185.695 0.484089 -2.2403 0
M  V30 1921 C 186.708 1.02849 -1.26198 0
M  V30 1922 O 187.897 0.931186 -1.52286 0
M  V30 1923 C 184.997 1.68337 -2.94136 0
M  V30 1924 C 184.17 1.26672 -4.18656 0
M  V30 1925 C 183.229 2.33045 -4.7178 0
M  V30 1926 O 182.255 1.94541 -5.34923 0
M  V30 1927 N 183.457 3.64929 -4.5145 0
M  V30 1928 H 186.222 -0.126404 -2.99433 0
M  V30 1929 H 183.783 -0.213392 -1.60488 0
M  V30 1930 H 185.775 2.39019 -3.26577 0
M  V30 1931 H 184.345 2.20025 -2.22053 0
M  V30 1932 H 183.565 0.388878 -3.92277 0
M  V30 1933 H 184.853 0.964964 -4.99566 0
M  V30 1934 H 184.251 3.98974 -4.01044 0
M  V30 1935 H 182.808 4.31651 -4.88386 0
M  V30 1936 N 186.241 1.57166 -0.116904 0
M  V30 1937 C 187.469 1.99473 0.549383 0
M  V30 1938 C 187.884 0.996541 1.60357 0
M  V30 1939 O 187.241 -0.0108731 1.82497 0
M  V30 1940 C 187.292 3.41788 1.17741 0
M  V30 1941 O 187.013 4.37788 0.165362 0
M  V30 1942 C 188.514 3.99216 1.92722 0
M  V30 1943 H 185.734 0.655009 0.145616 0
M  V30 1944 H 188.278 2.03494 -0.202625 0
M  V30 1945 H 186.433 3.38713 1.88021 0
M  V30 1946 H 186.847 5.20806 0.621403 0
M  V30 1947 H 188.321 5.00882 2.31995 0
M  V30 1948 H 188.798 3.3824 2.80161 0
M  V30 1949 H 189.404 4.0583 1.27209 0
M  V30 1950 N 187.719 -0.156864 1.56817 0
M  V30 1951 C 188.649 -1.19589 2.00551 0
M  V30 1952 C 189.63 -1.4536 0.883426 0
M  V30 1953 O 190.815 -1.56449 1.15054 0
M  V30 1954 C 187.945 -2.53143 2.37773 0
M  V30 1955 C 186.899 -2.41913 3.53075 0
M  V30 1956 C 186.225 -3.80088 3.76081 0
M  V30 1957 C 187.525 -1.91157 4.86062 0
M  V30 1958 H 189.219 -0.832293 2.87599 0
M  V30 1959 H 186.765 -0.398918 1.38364 0
M  V30 1960 H 188.718 -3.26047 2.66967 0
M  V30 1961 H 187.442 -2.91319 1.4765 0
M  V30 1962 H 186.101 -1.71462 3.24031 0
M  V30 1963 H 185.749 -4.15683 2.83225 0
M  V30 1964 H 185.449 -3.73439 4.53671 0
M  V30 1965 H 186.973 -4.54556 4.0769 0
M  V30 1966 H 188.387 -2.53846 5.14038 0
M  V30 1967 H 186.784 -1.95422 5.67389 0
M  V30 1968 H 187.854 -0.866673 4.77092 0
M  V30 1969 N 189.197 -1.51736 -0.425897 0
M  V30 1970 C 190.422 -1.69082 -1.20108 0
M  V30 1971 C 190.847 -0.392398 -1.83962 0
M  V30 1972 O 190.205 0.64858 -1.69302 0
M  V30 1973 C 190.253 -2.81604 -2.25237 0
M  V30 1974 O 189.357 -2.46004 -3.30992 0
M  V30 1975 H 188.698 -0.563408 -0.35138 0
M  V30 1976 H 191.228 -1.98358 -0.501512 0
M  V30 1977 H 191.238 -3.06025 -2.69838 0
M  V30 1978 H 189.913 -3.75817 -1.78142 0
M  V30 1979 H 188.49 -2.32195 -2.91787 0
M  V30 1980 N 190.675 0.682077 -1.42076 0
M  V30 1981 C 191.923 1.4393 -1.41876 0
M  V30 1982 C 192.244 1.94971 -0.0335599 0
M  V30 1983 O 191.514 1.72591 0.926773 0
M  V30 1984 H 190.094 0.534085 -0.522267 0
M  V30 1985 H 192.756 0.806427 -1.77434 0
M  V30 1986 H 191.852 2.29588 -2.11414 0
M  V30 1987 N 192.153 1.28127 0.917671 0
M  V30 1988 C 193.399 1.15223 1.66888 0
M  V30 1989 C 193.732 -0.299293 1.9188 0
M  V30 1990 O 193.007 -1.21805 1.51637 0
M  V30 1991 C 193.29 1.94706 3.02922 0
M  V30 1992 C 193.143 3.47898 2.85109 0
M  V30 1993 C 194.462 1.75939 4.03402 0
M  V30 1994 H 191.581 0.419946 0.605652 0
M  V30 1995 H 194.223 1.57398 1.06423 0
M  V30 1996 H 192.373 1.58864 3.54534 0
M  V30 1997 H 194.045 3.93624 2.40537 0
M  V30 1998 H 192.288 3.7373 2.20246 0
M  V30 1999 H 192.959 3.98765 3.81694 0
M  V30 2000 H 195.435 2.07209 3.60837 0
M  V30 2001 H 194.311 2.33931 4.96556 0
M  V30 2002 H 194.572 0.709877 4.36364 0
M  V30 2003 N 193.631 -1.12557 1.10312 0
M  V30 2004 C 194.594 -2.16434 0.75424 0
M  V30 2005 C 195.594 -1.59278 -0.220685 0
M  V30 2006 O 196.784 -1.742 0.00230591 0
M  V30 2007 C 193.916 -3.40699 0.116987 0
M  V30 2008 H 195.109 -2.48811 1.67431 0
M  V30 2009 H 192.662 -1.27542 0.903475 0
M  V30 2010 H 193.397 -3.13921 -0.813877 0
M  V30 2011 H 193.182 -3.83459 0.818613 0
M  V30 2012 H 194.672 -4.17451 -0.111387 0
M  V30 2013 N 195.109 -0.891671 -1.2995 0
M  V30 2014 C 196.334 -0.527932 -2.00568 0
M  V30 2015 C 196.759 0.877969 -1.66353 0
M  V30 2016 O 196.117 1.58301 -0.883762 0
M  V30 2017 C 196.165 -0.717745 -3.53385 0
M  V30 2018 O 195.269 0.233376 -4.11739 0
M  V30 2019 H 194.61 -0.20722 -0.630837 0
M  V30 2020 H 197.14 -1.20105 -1.65638 0
M  V30 2021 H 197.15 -0.619307 -4.03272 0
M  V30 2022 H 195.825 -1.74276 -3.77625 0
M  V30 2023 H 194.402 0.0880706 -3.72796 0
M  V30 2024 N 196.587 1.43421 -0.653314 0
M  V30 2025 C 197.497 2.34568 0.0388565 0
M  V30 2026 C 198.513 1.53888 0.81207 0
M  V30 2027 O 199.689 1.86539 0.759294 0
M  V30 2028 C 196.754 3.32167 0.993269 0
M  V30 2029 C 195.815 4.28751 0.216977 0
M  V30 2030 C 195.048 5.21688 1.12593 0
M  V30 2031 O 195.271 5.19052 2.36519 0
M  V30 2032 O 194.205 5.98919 0.598284 0
M  V30 2033 H 198.031 2.95251 -0.711386 0
M  V30 2034 H 195.616 1.43564 -0.413502 0
M  V30 2035 H 197.498 3.92183 1.54176 0
M  V30 2036 H 196.173 2.73987 1.72374 0
M  V30 2037 H 195.08 3.72215 -0.375101 0
M  V30 2038 H 196.413 4.89913 -0.473924 0
M  V30 2039 N 198.065 0.39524 1.52563 0
M  V30 2040 C 199.311 -0.185318 2.01952 0
M  V30 2041 C 199.644 -1.45964 1.28095 0
M  V30 2042 O 198.919 -1.90689 0.38315 0
M  V30 2043 C 199.202 -0.447193 3.57312 0
M  V30 2044 C 199.055 0.842828 4.41833 0
M  V30 2045 C 200.374 -1.23529 4.22408 0
M  V30 2046 H 197.493 -0.0658788 0.73405 0
M  V30 2047 H 200.135 0.525975 1.82575 0
M  V30 2048 H 198.285 -1.05312 3.73954 0
M  V30 2049 H 199.957 1.4795 4.36931 0
M  V30 2050 H 198.2 1.45686 4.08605 0
M  V30 2051 H 198.871 0.614165 5.48573 0
M  V30 2052 H 201.347 -0.722445 4.0978 0
M  V30 2053 H 200.223 -1.38727 5.3108 0
M  V30 2054 H 200.484 -2.25213 3.80436 0
M  V30 2055 N 199.544 -1.57102 0.125237 0
M  V30 2056 C 200.96 -1.57915 -0.231322 0
M  V30 2057 C 201.16 -1.13833 -1.66266 0
M  V30 2058 O 200.216 -0.828581 -2.38518 0
M  V30 2059 C 201.529 -3.00699 0.00766489 0
M  V30 2060 C 203.077 -3.12947 -0.0577483 0
M  V30 2061 C 203.552 -4.57742 0.153626 0
M  V30 2062 N 205.043 -4.63092 0.0998073 0
M  V30 2063 C 205.778 -5.72905 0.238174 0
M  V30 2064 N 205.274 -6.91445 0.433057 0
M  V30 2065 N 207.067 -5.6182 0.177308 0
M  V30 2066 H 199.218 -1.84055 1.06007 0
M  V30 2067 H 201.481 -0.850905 0.417929 0
M  V30 2068 H 201.187 -3.3726 0.997431 0
M  V30 2069 H 201.061 -3.70236 -0.721452 0
M  V30 2070 H 203.448 -2.7624 -1.03804 0
M  V30 2071 H 203.529 -2.4594 0.70335 0
M  V30 2072 H 203.173 -4.95149 1.13092 0
M  V30 2073 H 203.103 -5.22848 -0.627534 0
M  V30 2074 H 205.594 -3.77871 -0.047051 0
M  V30 2075 H 205.907 -7.70985 0.529332 0
M  V30 2076 H 204.252 -6.93415 0.469109 0
M  V30 2077 H 207.443 -4.68093 0.0259748 0
M  V30 2078 H 207.616 -6.47357 0.288582 0
M  V30 2079 N 201.022 0.148545 -1.56898 0
M  V30 2080 C 202.438 0.501131 -1.51528 0
M  V30 2081 C 202.638 1.83458 -0.833399 0
M  V30 2082 O 201.694 2.49259 -0.40328 0
M  V30 2083 C 203.007 0.512864 -2.96294 0
M  V30 2084 C 204.555 0.598487 -3.07225 0
M  V30 2085 C 205.03 0.640897 -4.53494 0
M  V30 2086 N 206.521 0.703163 -4.57832 0
M  V30 2087 C 207.256 0.756935 -5.68382 0
M  V30 2088 N 206.752 0.770147 -6.88506 0
M  V30 2089 N 208.545 0.797698 -5.56411 0
M  V30 2090 H 200.696 -0.725532 -1.99624 0
M  V30 2091 H 202.959 -0.264358 -0.910395 0
M  V30 2092 H 202.665 -0.398691 -3.49433 0
M  V30 2093 H 202.539 1.35133 -3.52163 0
M  V30 2094 H 204.926 1.50046 -2.54106 0
M  V30 2095 H 205.007 -0.267093 -2.54402 0
M  V30 2096 H 204.651 -0.256915 -5.0725 0
M  V30 2097 H 204.581 1.52295 -5.04097 0
M  V30 2098 H 207.072 0.700314 -3.71354 0
M  V30 2099 H 207.385 0.812983 -7.68512 0
M  V30 2100 H 205.73 0.738049 -6.9107 0
M  V30 2101 H 208.921 0.784535 -4.61479 0
M  V30 2102 H 209.094 0.83614 -6.42583 0
M  V30 2103 N 202.5 1.5196 0.417844 0
M  V30 2104 C 203.73 1.69181 1.18581 0
M  V30 2105 C 204.138 0.397104 1.84986 0
M  V30 2106 O 203.481 -0.636011 1.72339 0
M  V30 2107 C 203.543 2.76497 2.29759 0
M  V30 2108 C 203.207 4.18514 1.83563 0
M  V30 2109 C 204.204 5.02648 1.32821 0
M  V30 2110 C 201.889 4.64708 1.90661 0
M  V30 2111 C 203.883 6.31044 0.897894 0
M  V30 2112 C 201.57 5.93096 1.47241 0
M  V30 2113 C 202.568 6.76093 0.968891 0
M  V30 2114 O 202.256 8.02078 0.540924 0
M  V30 2115 H 201.988 0.570457 0.362705 0
M  V30 2116 H 204.542 1.99249 0.498885 0
M  V30 2117 H 202.772 2.41786 3.01789 0
M  V30 2118 H 204.461 2.82403 2.91553 0
M  V30 2119 H 205.227 4.68154 1.26716 0
M  V30 2120 H 201.106 4.00216 2.28797 0
M  V30 2121 H 204.65 6.95776 0.504192 0
M  V30 2122 H 200.547 6.271 1.53022 0
M  V30 2123 H 201.315 8.15794 0.66502 0
M  V30 2124 N 203.978 -0.674533 1.42435 0
M  V30 2125 C 205.224 -1.43671 1.43131 0
M  V30 2126 C 205.557 -1.94142 0.0476021 0
M  V30 2127 O 204.832 -1.70924 -0.928188 0
M  V30 2128 C 205.115 -2.63355 2.45594 0
M  V30 2129 C 204.968 -2.18514 3.93156 0
M  V30 2130 C 206.287 -3.65571 2.45043 0
M  V30 2131 H 203.406 -0.521077 0.521198 0
M  V30 2132 H 206.048 -0.766551 1.7385 0
M  V30 2133 H 204.198 -3.2053 2.19528 0
M  V30 2134 H 205.87 -1.66504 4.30202 0
M  V30 2135 H 204.113 -1.50086 4.07009 0
M  V30 2136 H 204.784 -3.04484 4.60428 0
M  V30 2137 H 207.26 -3.18113 2.68223 0
M  V30 2138 H 206.136 -4.46893 3.18713 0
M  V30 2139 H 206.397 -4.16716 1.47649 0
M  V30 2140 N 205.456 -1.28612 -0.910864 0
M  V30 2141 C 206.704 -1.15705 -1.65701 0
M  V30 2142 C 207.025 0.29416 -1.92769 0
M  V30 2143 O 206.295 1.20331 -1.54588 0
M  V30 2144 H 204.875 -0.425216 -0.614167 0
M  V30 2145 H 207.537 -1.61381 -1.0928 0
M  V30 2146 H 206.633 -1.6988 -2.61815 0
M  V30 2147 N 206.934 1.1197 -1.10907 0
M  V30 2148 C 207.864 2.19928 -0.784473 0
M  V30 2149 C 208.845 1.6833 0.244726 0
M  V30 2150 O 210.03 1.93892 0.109418 0
M  V30 2151 C 207.16 3.46597 -0.220827 0
M  V30 2152 C 206.114 4.11376 -1.18127 0
M  V30 2153 C 205.44 5.32554 -0.478594 0
M  V30 2154 C 206.74 4.56945 -2.52979 0
M  V30 2155 H 208.434 2.47337 -1.68715 0
M  V30 2156 H 205.98 1.18879 -0.812642 0
M  V30 2157 H 207.933 4.21396 0.0184278 0
M  V30 2158 H 206.657 3.1863 0.717113 0
M  V30 2159 H 205.316 3.38564 -1.40606 0
M  V30 2160 H 204.964 5.00856 0.463976 0
M  V30 2161 H 204.664 5.76844 -1.11912 0
M  V30 2162 H 206.188 6.10096 -0.248 0
M  V30 2163 H 207.602 5.23093 -2.3462 0
M  V30 2164 H 205.999 5.1203 -3.12962 0
M  V30 2165 H 207.069 3.70676 -3.12614 0
M  V30 2166 N 208.412 0.89855 1.29475 0
M  V30 2167 C 209.342 0.39201 2.30186 0
M  V30 2168 C 210.323 -0.532359 1.61555 0
M  V30 2169 O 211.508 -0.443331 1.89072 0
M  V30 2170 C 208.638 -0.382353 3.45189 0
M  V30 2171 C 207.592 0.451483 4.25612 0
M  V30 2172 C 206.918 -0.450307 5.328 0
M  V30 2173 C 208.218 1.70079 4.93832 0
M  V30 2174 H 209.912 1.23362 2.72804 0
M  V30 2175 H 207.458 0.594638 1.31149 0
M  V30 2176 H 209.411 -0.747451 4.14718 0
M  V30 2177 H 208.135 -1.25774 3.01411 0
M  V30 2178 H 206.794 0.798897 3.57789 0
M  V30 2179 H 206.442 -1.32379 4.85268 0
M  V30 2180 H 206.142 0.103902 5.87508 0
M  V30 2181 H 207.666 -0.811623 6.05182 0
M  V30 2182 H 209.08 1.40549 5.55805 0
M  V30 2183 H 207.477 2.19623 5.58467 0
M  V30 2184 H 208.547 2.43744 4.19186 0
M  V30 2185 N 209.89 -1.43072 0.660911 0
M  V30 2186 C 210.853 -2.29194 -0.0166406 0
M  V30 2187 C 211.853 -1.42609 -0.742912 0
M  V30 2188 O 213.043 -1.64155 -0.583004 0
M  V30 2189 C 210.175 -3.24831 -1.0343 0
M  V30 2190 H 211.368 -2.90596 0.741208 0
M  V30 2191 H 208.921 -1.5048 0.422532 0
M  V30 2192 H 209.656 -2.68339 -1.82111 0
M  V30 2193 H 209.441 -3.88676 -0.517082 0
M  V30 2194 H 210.931 -3.89451 -1.50723 0
M  V30 2195 N 211.368 -0.403325 -1.52352 0
M  V30 2196 C 212.616 0.174003 -2.0135 0
M  V30 2197 C 212.937 1.46139 -1.29106 0
M  V30 2198 O 212.207 1.91448 -0.415253 0
M  V30 2199 H 210.787 0.0672911 -0.743963 0
M  V30 2200 H 213.449 -0.538235 -1.87321 0
M  V30 2201 H 212.545 0.374254 -3.09848 0
M  V30 2202 N 212.846 1.57033 -0.133567 0
M  V30 2203 C 214.074 2.00044 0.528195 0
M  V30 2204 C 214.489 1.01349 1.59291 0
M  V30 2205 O 213.846 0.00848369 1.82498 0
M  V30 2206 C 213.897 3.43018 1.1411 0
M  V30 2207 O 213.618 4.37939 0.11892 0
M  V30 2208 C 215.119 4.01237 1.88477 0
M  V30 2209 H 212.339 0.656517 0.138661 0
M  V30 2210 H 214.883 2.03267 -0.224196 0
M  V30 2211 H 213.038 3.40688 1.84418 0
M  V30 2212 H 213.452 5.21436 0.56613 0
M  V30 2213 H 214.926 5.03314 2.26669 0
M  V30 2214 H 215.403 3.41193 2.76558 0
M  V30 2215 H 216.009 4.07156 1.22898 0
M  V30 2216 N 214.325 -0.140222 1.56975 0
M  V30 2217 C 215.257 -1.19818 1.95388 0
M  V30 2218 C 216.27 -1.38816 0.850525 0
M  V30 2219 O 217.459 -1.38267 1.12891 0
M  V30 2220 C 214.559 -2.56189 2.21857 0
M  V30 2221 C 213.732 -2.58077 3.5315 0
M  V30 2222 C 212.791 -3.76037 3.6808 0
M  V30 2223 O 211.817 -3.60598 4.40406 0
M  V30 2224 N 213.019 -4.93763 3.05251 0
M  V30 2225 H 215.784 -0.871609 2.86746 0
M  V30 2226 H 213.345 -0.32972 1.58507 0
M  V30 2227 H 215.337 -3.33623 2.2908 0
M  V30 2228 H 213.907 -2.81111 1.36731 0
M  V30 2229 H 213.127 -1.6651 3.57307 0
M  V30 2230 H 214.415 -2.56377 4.39486 0
M  V30 2231 H 213.813 -5.09209 2.46419 0
M  V30 2232 H 212.37 -5.68949 3.18026 0
M  V30 2233 N 215.803 -1.52179 -0.40978 0
M  V30 2234 C 217.031 -1.70054 -1.17853 0
M  V30 2235 C 217.446 -0.409735 -1.843 0
M  V30 2236 O 216.803 0.614183 -1.71855 0
M  V30 2237 C 216.854 -2.83568 -2.24213 0
M  V30 2238 O 216.575 -4.0765 -1.60478 0
M  V30 2239 C 218.076 -3.12947 -3.13973 0
M  V30 2240 H 215.296 -0.569917 -0.354169 0
M  V30 2241 H 217.84 -1.98734 -0.482198 0
M  V30 2242 H 215.995 -2.57409 -2.89516 0
M  V30 2243 H 216.409 -4.70899 -2.30986 0
M  V30 2244 H 217.883 -3.95889 -3.84677 0
M  V30 2245 H 218.36 -2.26472 -3.76307 0
M  V30 2246 H 218.966 -3.40868 -2.5434 0
M  V30 2247 N 217.281 0.66697 -1.42791 0
M  V30 2248 C 218.213 1.7925 -1.42836 0
M  V30 2249 C 219.226 1.59496 -0.326333 0
M  V30 2250 O 220.415 1.6847 -0.589916 0
M  V30 2251 C 217.515 3.16476 -1.21229 0
M  V30 2252 C 216.688 3.63011 -2.44013 0
M  V30 2253 C 215.747 4.78993 -2.17834 0
M  V30 2254 O 214.773 4.89137 -2.91091 0
M  V30 2255 N 215.975 5.68248 -1.18635 0
M  V30 2256 H 218.74 1.79695 -2.39854 0
M  V30 2257 H 216.301 0.850338 -1.37771 0
M  V30 2258 H 218.293 3.91734 -1.01621 0
M  V30 2259 H 216.863 3.10884 -0.32706 0
M  V30 2260 H 216.083 2.78346 -2.79137 0
M  V30 2261 H 217.371 3.90845 -3.25757 0
M  V30 2262 H 216.769 5.62712 -0.580615 0
M  V30 2263 H 215.326 6.43285 -1.05013 0
M  V30 2264 N 218.759 1.29093 0.90403 0
M  V30 2265 C 219.689 1.16401 2.02418 0
M  V30 2266 C 220.67 0.0593085 1.69997 0
M  V30 2267 O 221.855 0.238021 1.92736 0
M  V30 2268 C 218.985 0.835233 3.37107 0
M  V30 2269 C 217.939 1.89578 3.83724 0
M  V30 2270 C 217.265 1.42041 5.15489 0
M  V30 2271 C 218.565 3.30394 4.04521 0
M  V30 2272 H 220.259 2.10109 2.13295 0
M  V30 2273 H 217.805 1.01157 1.02486 0
M  V30 2274 H 219.758 0.733169 4.14973 0
M  V30 2275 H 218.482 -0.137543 3.2631 0
M  V30 2276 H 217.141 1.98715 3.08071 0
M  V30 2277 H 216.789 0.436426 5.01103 0
M  V30 2278 H 216.489 2.12964 5.4765 0
M  V30 2279 H 218.013 1.33176 5.959 0
M  V30 2280 H 219.427 3.24123 4.72882 0
M  V30 2281 H 217.824 3.99237 4.48029 0
M  V30 2282 H 218.894 3.73692 3.09002 0
M  V30 2283 N 220.237 -1.11381 1.11499 0
M  V30 2284 C 221.167 -2.19509 0.796125 0
M  V30 2285 C 222.148 -1.68458 -0.235796 0
M  V30 2286 O 223.333 -1.93947 -0.0991344 0
M  V30 2287 C 220.463 -3.46475 0.239205 0
M  V30 2288 C 219.417 -4.10744 1.20307 0
M  V30 2289 C 218.743 -5.32293 0.50683 0
M  V30 2290 C 220.043 -4.55597 2.55399 0
M  V30 2291 H 221.737 -2.46439 1.70024 0
M  V30 2292 H 219.283 -1.18446 0.818935 0
M  V30 2293 H 221.236 -4.214 0.00392006 0
M  V30 2294 H 219.96 -3.19006 -0.700206 0
M  V30 2295 H 218.619 -3.37813 1.42399 0
M  V30 2296 H 218.267 -5.01095 -0.437408 0
M  V30 2297 H 217.967 -5.76243 1.1497 0
M  V30 2298 H 219.491 -6.09956 0.280351 0
M  V30 2299 H 220.905 -5.21841 2.37391 0
M  V30 2300 H 219.302 -5.10363 3.15673 0
M  V30 2301 H 220.372 -3.69013 3.14575 0
M  V30 2302 N 221.715 -0.905404 -1.28997 0
M  V30 2303 C 222.992 -0.453513 -1.9027 0
M  V30 2304 C 223.372 1.06721 -1.82137 0
M  V30 2305 O 222.72 1.91159 -1.25182 0
M  V30 2306 C 222.93 -0.974494 -3.35119 0
M  V30 2307 C 224.278 -1.0216 -4.12127 0
M  V30 2308 O 225.302 -0.922557 -3.44046 0
M  V30 2309 O 224.161 -1.17121 -5.33802 0
M  V30 2310 H 221.255 -0.142347 -0.814657 0
M  V30 2311 H 223.801 -0.995642 -1.37423 0
M  V30 2312 H 222.573 -2.01848 -3.35221 0
M  V30 2313 H 222.196 -0.412706 -3.95452 0
M  V30 2314 N 223.193 1.4272 -0.668489 0
M  V30 2315 C 224.421 2.05966 -0.196348 0
M  V30 2316 C 224.836 1.50191 1.14403 0
M  V30 2317 O 224.193 0.639208 1.7094 0
M  V30 2318 C 224.244 3.61314 -0.115815 0
M  V30 2319 O 223.965 4.1502 -1.40322 0
M  V30 2320 C 225.466 4.41663 0.380579 0
M  V30 2321 H 222.686 0.663954 -0.0969829 0
M  V30 2322 H 225.23 1.82966 -0.913446 0
M  V30 2323 H 223.385 3.83448 0.551931 0
M  V30 2324 H 223.799 5.08832 -1.27243 0
M  V30 2325 H 225.273 5.5065 0.385848 0
M  V30 2326 H 225.75 4.15792 1.41471 0
M  V30 2327 H 226.356 4.24534 -0.255209 0
M  V30 2328 N 224.671 0.411399 1.52136 0
M  V30 2329 C 226.087 0.0623865 1.59478 0
M  V30 2330 C 226.287 -1.42554 1.4241 0
M  V30 2331 O 225.343 -2.19263 1.2522 0
M  V30 2332 C 226.656 0.559331 2.95452 0
M  V30 2333 C 228.204 0.517503 3.08692 0
M  V30 2334 C 228.679 0.990994 4.4715 0
M  V30 2335 N 230.17 0.947908 4.53397 0
M  V30 2336 C 230.905 1.28544 5.58806 0
M  V30 2337 N 230.401 1.69454 6.71757 0
M  V30 2338 N 232.194 1.20526 5.49026 0
M  V30 2339 H 224.345 1.37982 1.61477 0
M  V30 2340 H 226.608 0.566977 0.759764 0
M  V30 2341 H 226.314 1.59938 3.1323 0
M  V30 2342 H 226.188 -0.0298014 3.77188 0
M  V30 2343 H 228.575 -0.513505 2.90598 0
M  V30 2344 H 228.656 1.14272 2.28857 0
M  V30 2345 H 228.3 2.02034 4.65988 0
M  V30 2346 H 228.23 0.34257 5.25485 0
M  V30 2347 H 230.721 0.647157 3.72317 0
M  V30 2348 H 231.034 1.93513 7.48179 0
M  V30 2349 H 229.379 1.73359 6.73032 0
M  V30 2350 H 232.57 0.884505 4.59667 0
M  V30 2351 H 232.743 1.47161 6.31069 0
M  V30 2352 N 226.149 -1.5696 0.141893 0
M  V30 2353 C 227.096 -2.16501 -0.799737 0
M  V30 2354 C 228.066 -1.09643 -1.24771 0
M  V30 2355 O 229.251 -1.3766 -1.32115 0
M  V30 2356 C 226.391 -2.78679 -2.03549 0
M  V30 2357 C 225.504 -3.99914 -1.6338 0
M  V30 2358 C 224.639 -4.50106 -2.82096 0
M  V30 2359 C 223.678 -5.63819 -2.38275 0
M  V30 2360 N 222.815 -6.08651 -3.49983 0
M  V30 2361 H 227.655 -2.96632 -0.285179 0
M  V30 2362 H 225.192 -1.46533 -0.129053 0
M  V30 2363 H 227.15 -3.1287 -2.75986 0
M  V30 2364 H 225.78 -2.012 -2.52425 0
M  V30 2365 H 224.832 -3.71735 -0.807279 0
M  V30 2366 H 226.144 -4.82311 -1.27192 0
M  V30 2367 H 225.298 -4.86325 -3.62729 0
M  V30 2368 H 224.037 -3.66706 -3.21525 0
M  V30 2369 H 223.042 -5.2718 -1.56081 0
M  V30 2370 H 224.267 -6.49 -1.99938 0
M  V30 2371 H 222.213 -5.28188 -3.89042 0
M  V30 2372 H 222.13 -6.85961 -3.17794 0
M  V30 2373 H 223.398 -6.49515 -4.30988 0
M  V30 2374 N 227.627 0.131896 -1.57047 0
M  V30 2375 C 228.855 0.856461 -1.88341 0
M  V30 2376 C 229.27 1.74042 -0.731757 0
M  V30 2377 O 228.627 1.80051 0.297945 0
M  V30 2378 C 228.678 1.70064 -3.18999 0
M  V30 2379 O 228.399 0.852278 -4.2973 0
M  V30 2380 C 229.9 2.53148 -3.63911 0
M  V30 2381 H 227.12 0.246885 -0.62393 0
M  V30 2382 H 229.664 0.120152 -2.04147 0
M  V30 2383 H 227.819 2.38984 -3.04902 0
M  V30 2384 H 228.233 1.43329 -5.04537 0
M  V30 2385 H 229.707 3.07931 -4.58129 0
M  V30 2386 H 230.184 3.29901 -2.89935 0
M  V30 2387 H 230.79 1.89492 -3.80753 0
M  V30 2388 N 229.106 1.52395 0.401703 0
M  V30 2389 C 230.036 1.79231 1.49661 0
M  V30 2390 C 231.017 0.643654 1.57452 0
M  V30 2391 O 232.202 0.889989 1.72606 0
M  V30 2392 C 229.332 1.94971 2.87409 0
M  V30 2393 C 228.286 3.10604 2.94465 0
M  V30 2394 C 227.612 3.11577 4.34538 0
M  V30 2395 C 228.912 4.49921 2.6527 0
M  V30 2396 H 230.606 2.70917 1.27454 0
M  V30 2397 H 228.152 1.30362 0.6117 0
M  V30 2398 H 230.105 2.12328 3.63999 0
M  V30 2399 H 228.829 0.999632 3.10926 0
M  V30 2400 H 227.488 2.93009 2.20321 0
M  V30 2401 H 227.136 2.14277 4.55076 0
M  V30 2402 H 226.836 3.89247 4.40183 0
M  V30 2403 H 228.36 3.31073 5.13053 0
M  V30 2404 H 229.774 4.67683 3.31581 0
M  V30 2405 H 228.171 5.29564 2.82281 0
M  V30 2406 H 229.241 4.57507 1.60671 0
M  V30 2407 N 230.584 -0.659388 1.43143 0
M  V30 2408 C 231.995 -1.24041 1.39537 0
M  V30 2409 C 232.346 -1.95963 0.0963364 0
M  V30 2410 O 231.471 -2.00892 -0.804438 0
M  V30 2411 C 232.066 -2.25601 2.52764 0
M  V30 2412 C 230.625 -2.79195 2.52443 0
M  V30 2413 C 229.772 -1.53743 2.30778 0
M  V30 2414 H 232.723 -0.451792 1.52133 0
M  V30 2415 H 232.744 -3.07651 2.23899 0
M  V30 2416 H 232.256 -1.73226 3.47296 0
M  V30 2417 H 230.357 -3.35649 1.61773 0
M  V30 2418 H 230.47 -3.2716 3.50004 0
M  V30 2419 H 228.834 -1.80869 1.79328 0
M  V30 2420 H 229.617 -1.03312 3.27386 0
M  V30 2421 N 232.062 -1.29571 -0.897171 0
M  V30 2422 C 233.31 -1.17456 -1.64464 0
M  V30 2423 C 233.631 0.273698 -1.9307 0
M  V30 2424 O 232.901 1.18684 -1.55855 0
M  V30 2425 H 231.481 -0.431706 -0.609622 0
M  V30 2426 H 234.143 -1.62531 -1.07562 0
M  V30 2427 H 233.239 -1.72648 -2.59998 0
M  V30 2428 N 233.54 1.10788 -1.12088 0
M  V30 2429 C 234.47 2.19083 -0.807755 0
M  V30 2430 C 235.451 1.6858 0.226859 0
M  V30 2431 O 236.636 1.93997 0.0888475 0
M  V30 2432 C 233.766 3.46344 -0.257576 0
M  V30 2433 C 232.72 4.101 -1.22483 0
M  V30 2434 C 232.046 5.32016 -0.535052 0
M  V30 2435 C 233.346 4.54236 -2.57811 0
M  V30 2436 H 235.04 2.45534 -1.71328 0
M  V30 2437 H 232.586 1.1801 -0.825205 0
M  V30 2438 H 234.539 4.21392 -0.0262679 0
M  V30 2439 H 233.263 3.19373 0.683278 0
M  V30 2440 H 231.922 3.37054 -1.44189 0
M  V30 2441 H 231.57 5.01319 0.410827 0
M  V30 2442 H 231.27 5.75625 -1.18024 0
M  V30 2443 H 232.794 6.09799 -0.312695 0
M  V30 2444 H 234.208 5.20575 -2.40155 0
M  V30 2445 H 232.605 5.08682 -3.18375 0
M  V30 2446 H 233.675 3.6734 -3.16528 0
M  V30 2447 N 235.018 0.912232 1.28515 0
M  V30 2448 C 236.434 0.610159 1.47476 0
M  V30 2449 C 236.634 -0.844955 1.82928 0
M  V30 2450 O 235.69 -1.62416 1.93332 0
M  V30 2451 C 237.003 1.54675 2.57868 0
M  V30 2452 C 238.551 1.55331 2.71738 0
M  V30 2453 C 239.026 2.47649 3.85272 0
M  V30 2454 N 240.517 2.45767 3.92623 0
M  V30 2455 C 241.252 3.13896 4.79851 0
M  V30 2456 N 240.748 3.9135 5.71679 0
M  V30 2457 N 242.541 3.02991 4.73448 0
M  V30 2458 H 234.692 1.85318 1.03783 0
M  V30 2459 H 236.955 0.794777 0.516753 0
M  V30 2460 H 236.661 2.5841 2.38574 0
M  V30 2461 H 236.535 1.27671 3.54937 0
M  V30 2462 H 238.922 0.52335 2.90422 0
M  V30 2463 H 239.003 1.86378 1.75205 0
M  V30 2464 H 238.647 3.50745 3.67342 0
M  V30 2465 H 238.577 2.13904 4.81199 0
M  V30 2466 H 241.068 1.89503 3.26951 0
M  V30 2467 H 241.381 4.40359 6.35062 0
M  V30 2468 H 239.726 3.95455 5.71524 0
M  V30 2469 H 242.917 2.41987 4.007 0
M  V30 2470 H 243.09 3.5636 5.41213 0
M  V30 2471 N 236.496 -1.42363 0.676048 0
M  V30 2472 C 237.724 -2.05859 0.207268 0
M  V30 2473 C 238.139 -1.50796 -1.13605 0
M  V30 2474 O 237.496 -0.648265 -1.70598 0
M  V30 2475 C 237.547 -3.61248 0.134975 0
M  V30 2476 O 237.268 -4.1427 1.42521 0
M  V30 2477 C 238.769 -4.41859 -0.357151 0
M  V30 2478 H 235.989 -0.663431 0.100503 0
M  V30 2479 H 238.533 -1.82479 0.923136 0
M  V30 2480 H 236.688 -3.83735 -0.531588 0
M  V30 2481 H 237.102 -5.0815 1.29939 0
M  V30 2482 H 238.576 -5.50847 -0.356641 0
M  V30 2483 H 239.053 -4.16536 -1.39264 0
M  V30 2484 H 239.659 -4.24392 0.27772 0
M  V30 2485 N 237.974 -0.419461 -1.51915 0
M  V30 2486 C 238.937 0.389116 -2.25873 0
M  V30 2487 C 239.937 0.964924 -1.28631 0
M  V30 2488 O 241.127 0.842179 -1.52489 0
M  V30 2489 C 238.259 1.54874 -3.03689 0
M  V30 2490 H 239.452 -0.258799 -2.98781 0
M  V30 2491 H 237.005 -0.172209 -1.55348 0
M  V30 2492 H 237.74 2.23323 -2.35154 0
M  V30 2493 H 237.525 1.14223 -3.75094 0
M  V30 2494 H 239.015 2.12046 -3.59759 0
M  V30 2495 N 239.452 1.56882 -0.150215 0
M  V30 2496 C 240.382 2.19935 0.784284 0
M  V30 2497 C 241.363 1.14854 1.25469 0
M  V30 2498 O 242.548 1.43209 1.31168 0
M  V30 2499 C 239.678 2.82349 2.02229 0
M  V30 2500 C 238.632 3.93285 1.68853 0
M  V30 2501 C 237.958 4.42649 2.99944 0
M  V30 2502 C 239.258 5.13904 0.932714 0
M  V30 2503 H 240.952 2.9828 0.258781 0
M  V30 2504 H 238.498 1.43473 0.123029 0
M  V30 2505 H 240.451 3.25126 2.68088 0
M  V30 2506 H 239.175 2.0134 2.57157 0
M  V30 2507 H 237.834 3.5113 1.05371 0
M  V30 2508 H 237.482 3.58458 3.52869 0
M  V30 2509 H 237.182 5.17476 2.78374 0
M  V30 2510 H 238.706 4.88099 3.66868 0
M  V30 2511 H 240.12 5.53506 1.49345 0
M  V30 2512 H 238.517 5.94515 0.81684 0
M  V30 2513 H 239.587 4.84842 -0.0749568 0
M  V30 2514 N 240.93 -0.123565 1.57115 0
M  V30 2515 C 241.877 -1.15177 2.00007 0
M  V30 2516 C 242.847 -1.41403 0.871454 0
M  V30 2517 O 244.032 -1.53346 1.13533 0
M  V30 2518 C 241.172 -2.47436 2.40561 0
M  V30 2519 C 240.285 -2.28184 3.66819 0
M  V30 2520 C 239.42 -3.53641 3.96373 0
M  V30 2521 C 238.459 -3.29528 5.15827 0
M  V30 2522 N 237.596 -4.47175 5.41275 0
M  V30 2523 H 242.436 -0.779008 2.87638 0
M  V30 2524 H 239.973 -0.373166 1.42288 0
M  V30 2525 H 241.931 -3.24584 2.62109 0
M  V30 2526 H 240.561 -2.82614 1.55978 0
M  V30 2527 H 239.613 -1.41976 3.52912 0
M  V30 2528 H 240.925 -2.0634 4.5412 0
M  V30 2529 H 240.079 -4.39209 4.18545 0
M  V30 2530 H 238.818 -3.78512 3.07538 0
M  V30 2531 H 237.823 -2.42349 4.93505 0
M  V30 2532 H 239.048 -3.06031 6.06236 0
M  V30 2533 H 236.994 -4.72175 4.55397 0
M  V30 2534 H 236.911 -4.28419 6.22891 0
M  V30 2535 H 238.179 -5.3389 5.67963 0
M  V30 2536 N 242.408 -1.52605 -0.393616 0
M  V30 2537 C 243.638 -1.71046 -1.15874 0
M  V30 2538 C 244.046 -0.426483 -1.84331 0
M  V30 2539 O 243.389 0.608513 -1.73329 0
M  V30 2540 C 243.451 -2.80118 -2.25332 0
M  V30 2541 C 243.115 -4.21381 -1.76881 0
M  V30 2542 C 244.112 -5.04697 -1.24808 0
M  V30 2543 C 241.797 -4.67683 -1.83244 0
M  V30 2544 C 243.791 -6.32393 -0.797387 0
M  V30 2545 C 241.478 -5.95364 -1.37787 0
M  V30 2546 C 242.476 -6.77549 -0.861208 0
M  V30 2547 O 242.164 -8.02837 -0.413252 0
M  V30 2548 H 241.896 -0.576155 -0.353583 0
M  V30 2549 H 244.45 -2.00018 -0.467123 0
M  V30 2550 H 242.68 -2.46557 -2.97904 0
M  V30 2551 H 244.369 -2.87006 -2.87023 0
M  V30 2552 H 245.135 -4.70111 -1.19252 0
M  V30 2553 H 241.014 -4.03805 -2.22401 0
M  V30 2554 H 244.558 -6.9649 -0.393437 0
M  V30 2555 H 240.455 -6.29455 -1.43026 0
M  V30 2556 H 241.223 -8.16749 -0.53515 0
M  V30 2557 N 243.887 0.651787 -1.4349 0
M  V30 2558 C 244.85 1.74647 -1.48429 0
M  V30 2559 C 245.85 1.56513 -0.368817 0
M  V30 2560 O 247.04 1.62385 -0.630623 0
M  V30 2561 C 244.172 3.13533 -1.33827 0
M  V30 2562 H 245.365 1.71649 -2.4592 0
M  V30 2563 H 242.918 0.863573 -1.30277 0
M  V30 2564 H 243.653 3.22142 -0.37349 0
M  V30 2565 H 243.438 3.28101 -2.14691 0
M  V30 2566 H 244.928 3.93356 -1.40218 0
M  V30 2567 N 245.365 1.30045 0.890287 0
M  V30 2568 C 246.611 1.18737 1.64406 0
M  V30 2569 C 246.944 -0.258525 1.92472 0
M  V30 2570 O 246.219 -1.18562 1.54186 0
M  V30 2571 C 246.502 2.01087 2.98724 0
M  V30 2572 C 246.355 3.53867 2.77665 0
M  V30 2573 C 247.674 1.84457 3.9958 0
M  V30 2574 H 244.793 0.432698 0.596608 0
M  V30 2575 H 247.435 1.5962 1.0306 0
M  V30 2576 H 245.585 1.66349 3.51084 0
M  V30 2577 H 247.257 3.98637 2.32133 0
M  V30 2578 H 245.5 3.78318 2.12269 0
M  V30 2579 H 246.171 4.06772 3.7315 0
M  V30 2580 H 248.647 2.14817 3.56361 0
M  V30 2581 H 247.523 2.44411 4.91482 0
M  V30 2582 H 247.784 0.802276 4.3476 0
M  V30 2583 N 246.843 -1.10192 1.12674 0
M  V30 2584 C 247.773 -2.18652 0.819362 0
M  V30 2585 C 248.754 -1.68698 -0.217915 0
M  V30 2586 O 249.939 -1.94041 -0.0785581 0
M  V30 2587 C 247.069 -3.46202 0.27594 0
M  V30 2588 C 246.023 -4.09444 1.24656 0
M  V30 2589 C 245.349 -5.31725 0.563258 0
M  V30 2590 C 246.649 -4.52863 2.60217 0
M  V30 2591 H 248.343 -2.44622 1.72628 0
M  V30 2592 H 245.889 -1.17571 0.831451 0
M  V30 2593 H 247.842 -4.21372 0.0486149 0
M  V30 2594 H 246.566 -3.1973 -0.666331 0
M  V30 2595 H 245.225 -3.36284 1.45974 0
M  V30 2596 H 244.873 -5.0153 -0.384235 0
M  V30 2597 H 244.573 -5.74991 1.21075 0
M  V30 2598 H 246.097 -6.09624 0.34503 0
M  V30 2599 H 247.511 -5.19294 2.42913 0
M  V30 2600 H 245.908 -5.06986 3.21068 0
M  V30 2601 H 246.978 -3.65656 3.18471 0
M  V30 2602 N 248.321 -0.919034 -1.28029 0
M  V30 2603 C 249.561 -0.562107 -1.96519 0
M  V30 2604 C 249.925 0.878784 -1.70708 0
M  V30 2605 O 251.126 1.34355 -2.32813 0
M  V30 2606 C 249.397 -0.868953 -3.46676 0
M  V30 2607 S 250.956 -0.619237 -4.34409 0
M  V30 2608 H 247.774 -0.2078 -0.679956 0
M  V30 2609 H 250.376 -1.18562 -1.55446 0
M  V30 2610 H 249.08 -1.91547 -3.62957 0
M  V30 2611 H 248.611 -0.234301 -3.92702 0
M  V30 2612 H 250.626 0.526995 -4.93394 0
M  V30 2613 N 249.799 1.42003 -0.683588 0
M  V30 2614 C 251.047 2.01015 -0.209101 0
M  V30 2615 C 251.368 1.54365 1.19149 0
M  V30 2616 O 250.638 0.769083 1.80172 0
M  V30 2617 H 249.218 0.743294 -0.074315 0
M  V30 2618 H 251.88 1.73798 -0.882066 0
M  V30 2619 H 250.976 3.11343 -0.2172 0
M  V30 2620 N 251.277 0.427512 1.51691 0
M  V30 2621 C 252.525 -0.141948 2.01601 0
M  V30 2622 C 252.846 -1.44067 1.31414 0
M  V30 2623 O 252.116 -1.90763 0.445658 0
M  V30 2624 H 250.696 -0.0554468 0.744939 0
M  V30 2625 H 253.358 0.567968 1.86441 0
M  V30 2626 H 252.454 -0.324913 3.10404 0
M  V30 2627 N 252.755 -1.56801 0.158532 0
M  V30 2628 C 254.003 -1.96102 -0.488712 0
M  V30 2629 C 254.324 -1.04498 -1.64636 0
M  V30 2630 O 253.594 -0.108783 -1.95598 0
M  V30 2631 H 252.174 -0.724102 -0.183535 0
M  V30 2632 H 254.836 -1.93457 0.236728 0
M  V30 2633 H 253.932 -3.00097 -0.857219 0
M  V30 2634 N 254.233 0.115231 -1.57178 0
M  V30 2635 C 255.196 1.12526 -1.99676 0
M  V30 2636 C 256.196 1.34095 -0.88742 0
M  V30 2637 O 257.386 1.30548 -1.15337 0
M  V30 2638 C 254.518 2.4789 -2.34015 0
M  V30 2639 H 255.711 0.759912 -2.90113 0
M  V30 2640 H 253.264 0.359648 -1.52106 0
M  V30 2641 H 253.999 2.89339 -1.4647 0
M  V30 2642 H 253.784 2.33588 -3.14927 0
M  V30 2643 H 255.274 3.20575 -2.67622 0
M  V30 2644 N 255.711 1.52812 0.385517 0
M  V30 2645 C 256.659 1.78482 1.49155 0
M  V30 2646 C 257.653 0.652914 1.56312 0
M  V30 2647 O 258.859 0.835464 1.59436 0
M  V30 2648 H 255.234 0.5648 0.496493 0
M  V30 2649 H 257.205 2.71095 1.24699 0
M  V30 2650 C 255.954 1.97378 2.86247 0
M  V30 2651 H 255.277 2.83907 2.81491 0
M  V30 2652 H 256.717 2.19327 3.62866 0
M  V30 2653 C 255.176 0.74728 3.28508 0
M  V30 2654 O 255.706 -0.0736232 4.01633 0
M  V30 2655 N 253.912 0.576396 2.84826 0
M  V30 2656 H 253.459 1.24555 2.25486 0
M  V30 2657 H 253.417 -0.24288 3.1346 0
M  V30 2658 N 257.189 -0.644168 1.43834 0
M  V30 2659 C 258.139 -1.7501 1.46135 0
M  V30 2660 C 259.123 -1.57507 0.328685 0
M  V30 2661 O 260.315 -1.67465 0.5731 0
M  V30 2662 C 257.444 -3.13641 1.39585 0
M  V30 2663 C 256.53 -3.3666 2.57916 0
M  V30 2664 N 256.921 -3.30107 3.83227 0
M  V30 2665 C 255.219 -3.67411 2.52834 0
M  V30 2666 C 255.92 -3.53456 4.61999 0
M  V30 2667 N 254.896 -3.75705 3.9287 0
M  V30 2668 H 258.698 -1.68382 2.40883 0
M  V30 2669 H 256.212 -0.846169 1.38614 0
M  V30 2670 H 258.209 -3.92933 1.39317 0
M  V30 2671 H 256.869 -3.21444 0.45865 0
M  V30 2672 H 257.88 -3.09316 4.15384 0
M  V30 2673 H 254.557 -3.82275 1.67845 0
M  V30 2674 H 255.947 -3.54093 5.71024 0
M  V30 2675 N 258.668 -1.30515 -0.883378 0
M  V30 2676 C 260.084 -1.08881 -1.16692 0
M  V30 2677 C 260.284 0.149409 -2.00945 0
M  V30 2678 O 259.34 0.84257 -2.38027 0
M  V30 2679 C 260.653 -2.35319 -1.87204 0
M  V30 2680 C 262.201 -2.40799 -1.99962 0
M  V30 2681 C 262.676 -3.67083 -2.73887 0
M  V30 2682 N 264.167 -3.679 -2.81432 0
M  V30 2683 C 264.902 -4.62303 -3.3921 0
M  V30 2684 N 264.398 -5.67052 -3.98025 0
M  V30 2685 N 266.191 -4.49845 -3.3704 0
M  V30 2686 H 258.342 -2.09951 -0.321633 0
M  V30 2687 H 260.605 -0.92556 -0.205043 0
M  V30 2688 H 260.311 -3.25689 -1.3274 0
M  V30 2689 H 260.185 -2.44089 -2.87577 0
M  V30 2690 H 262.572 -1.50907 -2.53597 0
M  V30 2691 H 262.653 -2.36003 -0.98673 0
M  V30 2692 H 262.297 -4.57334 -2.20925 0
M  V30 2693 H 262.227 -3.69141 -3.75556 0
M  V30 2694 H 264.718 -2.92171 -2.39676 0
M  V30 2695 H 265.031 -6.35184 -4.40183 0
M  V30 2696 H 263.376 -5.70842 -3.96439 0
M  V30 2697 H 266.567 -3.67194 -2.90321 0
M  V30 2698 H 266.74 -5.23597 -3.81772 0
M  V30 2699 N 260.146 1.09593 -1.13257 0
M  V30 2700 C 261.076 2.18214 -0.830946 0
M  V30 2701 C 262.057 1.68812 0.208966 0
M  V30 2702 O 263.242 1.9408 0.0682666 0
M  V30 2703 C 260.372 3.46051 -0.294296 0
M  V30 2704 C 259.326 4.08778 -1.26826 0
M  V30 2705 C 258.652 5.31419 -0.591449 0
M  V30 2706 C 259.952 4.51476 -2.62615 0
M  V30 2707 H 261.646 2.43703 -1.73923 0
M  V30 2708 H 259.192 1.17128 -0.837675 0
M  V30 2709 H 261.145 4.2134 -0.0709606 0
M  V30 2710 H 259.869 3.20079 0.649366 0
M  V30 2711 H 258.528 3.35505 -1.47756 0
M  V30 2712 H 258.176 5.01727 0.357633 0
M  V30 2713 H 257.876 5.74341 -1.24123 0
M  V30 2714 H 259.4 6.09433 -0.377355 0
M  V30 2715 H 260.814 5.17999 -2.45663 0
M  V30 2716 H 259.211 5.05277 -3.23752 0
M  V30 2717 H 260.281 3.63962 -3.20406 0
M  V30 2718 N 261.624 0.925811 1.2754 0
M  V30 2719 C 262.872 0.564138 1.94067 0
M  V30 2720 C 263.193 -0.897188 1.73134 0
M  V30 2721 O 262.463 -1.63573 1.07799 0
M  V30 2722 H 261.043 0.205645 0.718136 0
M  V30 2723 H 263.705 1.1778 1.55287 0
M  V30 2724 H 262.801 0.76881 3.02483 0
M  V30 2725 N 263.102 -1.41638 0.69111 0
M  V30 2726 C 264.032 -2.3347 0.037248 0
M  V30 2727 C 265.013 -1.51575 -0.771947 0
M  V30 2728 O 266.198 -1.80126 -0.72582 0
M  V30 2729 C 263.328 -3.35354 -0.903064 0
M  V30 2730 C 262.282 -4.27526 -0.201288 0
M  V30 2731 C 261.608 -5.19747 -1.25565 0
M  V30 2732 C 262.908 -5.13959 0.929689 0
M  V30 2733 H 264.602 -2.88397 0.804227 0
M  V30 2734 H 262.148 -1.38669 0.388189 0
M  V30 2735 H 264.101 -3.98519 -1.36969 0
M  V30 2736 H 262.825 -2.78767 -1.70166 0
M  V30 2737 H 261.484 -3.65779 0.245265 0
M  V30 2738 H 261.132 -4.59479 -2.04666 0
M  V30 2739 H 260.832 -5.8225 -0.791128 0
M  V30 2740 H 262.356 -5.85789 -1.72288 0
M  V30 2741 H 263.77 -5.70718 0.543546 0
M  V30 2742 H 262.167 -5.85379 1.32103 0
M  V30 2743 H 263.237 -4.51389 1.77133 0
M  V30 2744 N 264.58 -0.43555 -1.51462 0
M  V30 2745 C 265.808 0.130242 -2.0649 0
M  V30 2746 C 266.223 1.36614 -1.30315 0
M  V30 2747 O 265.58 1.78869 -0.362223 0
M  V30 2748 C 265.631 0.454253 -3.58635 0
M  V30 2749 O 265.352 -0.73259 -4.31931 0
M  V30 2750 C 266.853 1.07091 -4.3017 0
M  V30 2751 H 264.073 0.00871669 -0.670943 0
M  V30 2752 H 266.617 -0.614117 -1.95061 0
M  V30 2753 H 264.772 1.14851 -3.69984 0
M  V30 2754 H 265.186 -0.455787 -5.22516 0
M  V30 2755 H 266.66 1.24764 -5.37716 0
M  V30 2756 H 267.137 2.05144 -3.88346 0
M  V30 2757 H 267.743 0.416089 -4.2326 0
M  V30 2758 N 266.058 1.56714 -0.166846 0
M  V30 2759 C 267.335 1.88412 0.525373 0
M  V30 2760 C 267.715 1.07602 1.81618 0
M  V30 2761 O 267.063 0.168621 2.27877 0
M  V30 2762 C 267.273 3.40363 0.771613 0
M  V30 2763 C 268.621 4.10007 1.1036 0
M  V30 2764 O 269.645 3.45655 0.860304 0
M  V30 2765 O 268.504 5.2369 1.56239 0
M  V30 2766 H 265.598 0.781587 0.270278 0
M  V30 2767 H 268.144 1.68458 -0.204946 0
M  V30 2768 H 266.916 3.91046 -0.141093 0
M  V30 2769 H 266.539 3.65914 1.55541 0
M  V30 2770 N 267.536 -0.106894 1.57237 0
M  V30 2771 C 268.499 -1.11466 2.0027 0
M  V30 2772 C 269.499 -1.33623 0.894519 0
M  V30 2773 O 270.689 -1.29935 1.16028 0
M  V30 2774 C 267.821 -2.46646 2.35327 0
M  V30 2775 H 269.014 -0.744516 2.90512 0
M  V30 2776 H 266.567 -0.351576 1.52295 0
M  V30 2777 H 267.302 -2.88558 1.48003 0
M  V30 2778 H 267.087 -2.31915 3.16161 0
M  V30 2779 H 268.577 -3.19151 2.69318 0
M  V30 2780 N 269.014 -1.53014 -0.377408 0
M  V30 2781 C 270.261 -1.68623 -1.12128 0
M  V30 2782 C 270.589 -0.431997 -1.89642 0
M  V30 2783 O 269.844 0.585855 -1.86725 0
M  V30 2784 C 270.143 -2.87982 -2.11663 0
M  V30 2785 C 269.809 -4.24964 -1.50719 0
M  V30 2786 C 268.471 -4.62217 -1.33825 0
M  V30 2787 C 270.823 -5.10199 -1.06519 0
M  V30 2788 C 268.151 -5.82352 -0.712963 0
M  V30 2789 C 270.503 -6.30969 -0.453955 0
M  V30 2790 C 269.167 -6.66944 -0.272411 0
M  V30 2791 H 268.437 -0.617034 -0.410305 0
M  V30 2792 H 271.084 -1.8718 -0.404484 0
M  V30 2793 H 269.389 -2.63889 -2.89603 0
M  V30 2794 H 271.086 -2.97253 -2.6915 0
M  V30 2795 H 267.676 -3.95626 -1.64858 0
M  V30 2796 H 271.86 -4.81978 -1.18368 0
M  V30 2797 H 267.116 -6.08824 -0.560611 0
M  V30 2798 H 271.29 -6.96324 -0.103217 0
M  V30 2799 H 268.917 -7.59898 0.214181 0
M  V30 2800 N 270.492 0.636531 -1.44174 0
M  V30 2801 C 271.422 1.76003 -1.53444 0
M  V30 2802 C 272.403 1.65619 -0.387841 0
M  V30 2803 O 273.588 1.84461 -0.607257 0
M  V30 2804 C 270.718 3.14511 -1.4731 0
M  V30 2805 C 269.672 3.39677 -2.60391 0
M  V30 2806 C 268.998 4.78159 -2.39308 0
M  V30 2807 C 270.298 3.32772 -4.02567 0
M  V30 2808 H 271.992 1.68501 -2.47483 0
M  V30 2809 H 269.538 0.809237 -1.19111 0
M  V30 2810 H 271.491 3.92878 -1.52397 0
M  V30 2811 H 270.215 3.22783 -0.49785 0
M  V30 2812 H 268.874 2.63688 -2.54684 0
M  V30 2813 H 268.522 4.83128 -1.39988 0
M  V30 2814 H 268.222 4.95956 -3.15122 0
M  V30 2815 H 269.746 5.58762 -2.46205 0
M  V30 2816 H 271.16 4.01051 -4.09672 0
M  V30 2817 H 269.557 3.62104 -4.7854 0
M  V30 2818 H 270.627 2.30669 -4.2652 0
M  V30 2819 N 271.97 1.30982 0.876444 0
M  V30 2820 C 273.219 1.19658 1.62373 0
M  V30 2821 C 273.532 -0.245636 1.94052 0
M  V30 2822 O 274.738 -0.48049 2.67214 0
M  V30 2823 C 273.194 2.09433 2.92687 0
M  V30 2824 C 272.802 3.58613 2.68516 0
M  V30 2825 C 274.546 2.06893 3.70669 0
M  V30 2826 C 272.453 4.40416 3.94699 0
M  V30 2827 H 271.383 0.444268 0.609214 0
M  V30 2828 H 274.034 1.55791 0.969605 0
M  V30 2829 H 272.416 1.66191 3.59439 0
M  V30 2830 H 273.59 4.10058 2.10212 0
M  V30 2831 H 271.905 3.63063 2.03898 0
M  V30 2832 H 274.502 2.65258 4.64265 0
M  V30 2833 H 274.845 1.05448 4.02724 0
M  V30 2834 H 275.378 2.48301 3.10792 0
M  V30 2835 H 272.117 5.42591 3.67798 0
M  V30 2836 H 271.637 3.93731 4.52477 0
M  V30 2837 H 273.316 4.52294 4.62644 0
M  V30 2838 N 273.449 -1.08991 1.13837 0
M  V30 2839 C 274.396 -2.15748 0.819835 0
M  V30 2840 C 275.366 -1.64636 -0.220026 0
M  V30 2841 O 276.551 -1.90582 -0.0912757 0
M  V30 2842 C 273.691 -3.4382 0.296913 0
M  V30 2843 C 272.804 -4.0881 1.39636 0
M  V30 2844 C 271.939 -5.24655 0.831314 0
M  V30 2845 C 270.978 -5.81575 1.90886 0
M  V30 2846 N 270.115 -6.88774 1.36142 0
M  V30 2847 H 274.955 -2.42338 1.73426 0
M  V30 2848 H 272.492 -1.18935 0.865613 0
M  V30 2849 H 274.45 -4.17193 -0.0244339 0
M  V30 2850 H 273.08 -3.17535 -0.580628 0
M  V30 2851 H 272.132 -3.33258 1.83422 0
M  V30 2852 H 273.444 -4.47141 2.21058 0
M  V30 2853 H 272.598 -6.04942 0.461515 0
M  V30 2854 H 271.337 -4.87698 -0.013932 0
M  V30 2855 H 270.342 -4.99946 2.28767 0
M  V30 2856 H 271.567 -6.20592 2.75758 0
M  V30 2857 H 269.513 -6.53788 0.538254 0
M  V30 2858 H 269.43 -7.25898 2.11208 0
M  V30 2859 H 270.698 -7.72806 1.01933 0
M  V30 2860 N 274.927 -0.932562 -1.27047 0
M  V30 2861 C 275.837 -0.441219 -2.30414 0
M  V30 2862 C 276.853 0.480525 -1.67233 0
M  V30 2863 O 278.029 0.362151 -1.98117 0
M  V30 2864 C 275.094 0.293651 -3.45454 0
M  V30 2865 C 274.155 -0.663601 -4.2414 0
M  V30 2866 C 273.388 0.0362932 -5.33688 0
M  V30 2867 O 273.611 1.2548 -5.56427 0
M  V30 2868 O 272.545 -0.638015 -5.98509 0
M  V30 2869 H 276.371 -1.29962 -2.74488 0
M  V30 2870 H 273.956 -0.6981 -1.32087 0
M  V30 2871 H 275.838 0.707951 -4.15411 0
M  V30 2872 H 274.513 1.12758 -3.03426 0
M  V30 2873 H 273.42 -1.12768 -3.56699 0
M  V30 2874 H 274.753 -1.46489 -4.69896 0
M  V30 2875 N 276.405 1.4127 -0.698611 0
M  V30 2876 C 277.353 2.32588 -0.023855 0
M  V30 2877 C 278.347 1.51128 0.765292 0
M  V30 2878 O 279.553 1.67043 0.670571 0
M  V30 2879 H 275.928 0.751918 0.0110871 0
M  V30 2880 H 277.899 2.87167 -0.811031 0
M  V30 2881 C 276.648 3.35947 0.896369 0
M  V30 2882 H 275.971 3.98684 0.298548 0
M  V30 2883 H 277.411 4.02376 1.33676 0
M  V30 2884 C 275.87 2.70076 2.01396 0
M  V30 2885 O 276.4 2.55093 3.10307 0
M  V30 2886 N 274.606 2.28724 1.79259 0
M  V30 2887 H 274.153 2.4111 0.906841 0
M  V30 2888 H 274.111 1.84986 2.54219 0
M  V30 2889 N 277.883 0.443576 1.51229 0
M  V30 2890 C 278.833 -0.382787 2.24764 0
M  V30 2891 C 279.817 -0.984836 1.27239 0
M  V30 2892 O 281.009 -0.901943 1.52296 0
M  V30 2893 C 278.138 -1.47989 3.09765 0
M  V30 2894 C 277.224 -0.886931 4.14722 0
M  V30 2895 N 277.615 -0.0237103 5.05794 0
M  V30 2896 C 275.913 -1.15385 4.30816 0
M  V30 2897 C 276.614 0.309971 5.80874 0
M  V30 2898 N 275.59 -0.307989 5.42727 0
M  V30 2899 H 279.392 0.282624 2.92538 0
M  V30 2900 H 276.906 0.256027 1.60369 0
M  V30 2901 H 278.903 -2.08482 3.61027 0
M  V30 2902 H 277.563 -2.14758 2.43535 0
M  V30 2903 H 278.574 0.34318 5.16762 0
M  V30 2904 H 275.251 -1.81857 3.75812 0
M  V30 2905 H 276.641 1.01279 6.64223 0
M  V30 2906 N 279.361 -1.56624 0.175154 0
M  V30 2907 C 280.61 -1.96173 -0.468921 0
M  V30 2908 C 280.923 -1.06401 -1.64128 0
M  V30 2909 O 282.129 -1.35648 -2.35185 0
M  V30 2910 C 280.585 -3.48833 -0.885633 0
M  V30 2911 C 280.193 -4.47237 0.261343 0
M  V30 2912 C 281.937 -3.97194 -1.49791 0
M  V30 2913 C 279.844 -5.9114 -0.175214 0
M  V30 2914 H 278.774 -0.732455 -0.178958 0
M  V30 2915 H 281.425 -1.81591 0.263997 0
M  V30 2916 H 279.807 -3.58848 -1.67464 0
M  V30 2917 H 280.981 -4.4894 1.03871 0
M  V30 2918 H 279.296 -4.08956 0.783827 0
M  V30 2919 H 281.893 -5.02167 -1.83665 0
M  V30 2920 H 282.236 -3.40351 -2.39722 0
M  V30 2921 H 282.769 -3.90212 -0.773267 0
M  V30 2922 H 279.508 -6.51865 0.689414 0
M  V30 2923 H 279.028 -5.92735 -0.91786 0
M  V30 2924 H 280.707 -6.44044 -0.617792 0
M  V30 2925 N 280.839 0.0985539 -1.57292 0
M  V30 2926 C 282.088 0.801358 -1.85098 0
M  V30 2927 C 282.401 1.80066 -0.763902 0
M  V30 2928 O 283.607 2.55112 -0.928981 0
M  V30 2929 C 282.063 1.47599 -3.28242 0
M  V30 2930 C 281.671 0.516624 -4.45011 0
M  V30 2931 C 283.415 2.16272 -3.65276 0
M  V30 2932 C 281.322 1.19564 -5.79188 0
M  V30 2933 H 280.252 0.303022 -0.69043 0
M  V30 2934 H 282.903 0.0542623 -1.8342 0
M  V30 2935 H 281.285 2.27042 -3.2445 0
M  V30 2936 H 282.459 -0.246065 -4.60143 0
M  V30 2937 H 280.774 -0.064227 -4.1635 0
M  V30 2938 H 283.371 2.67802 -4.62803 0
M  V30 2939 H 283.714 2.95009 -2.93727 0
M  V30 2940 H 284.247 1.43693 -3.70941 0
M  V30 2941 H 280.986 0.449157 -6.53959 0
M  V30 2942 H 280.506 1.92984 -5.67906 0
M  V30 2943 H 282.185 1.7231 -6.23633 0
M  V30 2944 N 282.317 1.53212 0.369288 0
M  V30 2945 C 283.28 1.7872 1.43498 0
M  V30 2946 C 284.28 0.657554 1.46741 0
M  V30 2947 O 285.47 0.925736 1.47566 0
M  V30 2948 C 282.602 1.90591 2.82645 0
M  V30 2949 H 283.795 2.73894 1.22156 0
M  V30 2950 H 281.348 1.44233 0.602203 0
M  V30 2951 H 282.083 0.974709 3.09306 0
M  V30 2952 H 281.868 2.72751 2.8169 0
M  V30 2953 H 283.358 2.11931 3.59826 0
M  V30 2954 N 283.795 -0.628877 1.44509 0
M  V30 2955 C 285.02 -1.42048 1.5112 0
M  V30 2956 C 285.445 -1.87594 0.137818 0
M  V30 2957 O 284.803 -1.58873 -0.873437 0
M  V30 2958 C 284.851 -2.61541 2.48251 0
M  V30 2959 O 283.955 -3.61453 1.98559 0
M  V30 2960 H 283.296 -0.424942 0.510216 0
M  V30 2961 H 285.826 -0.767374 1.89664 0
M  V30 2962 H 285.836 -3.09057 2.66361 0
M  V30 2963 H 284.511 -2.27736 3.48007 0
M  V30 2964 H 283.088 -3.20731 1.90227 0
M  V30 2965 N 285.273 -1.31445 -0.869486 0
M  V30 2966 C 286.521 -1.20918 -1.61936 0
M  V30 2967 C 286.842 0.232683 -1.93607 0
M  V30 2968 O 286.112 1.15352 -1.58338 0
M  V30 2969 H 284.692 -0.44454 -0.600328 0
M  V30 2970 H 287.354 -1.64776 -1.0409 0
M  V30 2971 H 286.45 -1.78124 -2.56278 0
M  V30 2972 N 286.751 1.08385 -1.14413 0
M  V30 2973 C 287.976 1.85057 -0.936413 0
M  V30 2974 C 288.401 1.81055 0.509971 0
M  V30 2975 O 287.759 1.1958 1.36273 0
M  V30 2976 C 287.807 3.30505 -1.44217 0
M  V30 2977 O 286.911 4.07491 -0.634409 0
M  V30 2978 H 286.252 0.573425 -0.334784 0
M  V30 2979 H 288.782 1.36799 -1.52142 0
M  V30 2980 H 288.792 3.81348 -1.45043 0
M  V30 2981 H 287.467 3.32734 -2.49522 0
M  V30 2982 H 286.044 3.66368 -0.694902 0
M  V30 2983 N 288.23 0.939286 1.26551 0
M  V30 2984 C 289.476 0.586715 1.94128 0
M  V30 2985 C 289.809 -0.8717 1.73537 0
M  V30 2986 O 289.084 -1.62339 1.07127 0
M  V30 2987 C 289.367 0.927497 3.4795 0
M  V30 2988 C 289.22 2.44052 3.77834 0
M  V30 2989 C 290.539 0.441569 4.37879 0
M  V30 2990 H 287.658 0.21463 0.705055 0
M  V30 2991 H 290.3 1.17316 1.49455 0
M  V30 2992 H 288.45 0.428431 3.8613 0
M  V30 2993 H 290.122 3.01216 3.4938 0
M  V30 2994 H 288.365 2.8848 3.23978 0
M  V30 2995 H 289.036 2.62947 4.85348 0
M  V30 2996 H 291.512 0.869448 4.06915 0
M  V30 2997 H 290.388 0.708856 5.44304 0
M  V30 2998 H 290.649 -0.658467 4.37169 0
M  V30 2999 N 289.708 -1.40897 0.706093 0
M  V30 3000 C 291.124 -1.55042 0.37869 0
M  V30 3001 C 291.324 -1.67944 -1.11342 0
M  V30 3002 O 290.38 -1.66372 -1.89938 0
M  V30 3003 C 291.693 -2.78398 1.13643 0
M  V30 3004 C 293.241 -2.92206 1.12181 0
M  V30 3005 C 293.716 -4.18463 1.86152 0
M  V30 3006 N 295.207 -4.25443 1.83173 0
M  V30 3007 C 295.942 -5.2202 2.37239 0
M  V30 3008 N 295.438 -6.24563 2.99821 0
M  V30 3009 N 297.231 -5.14033 2.27435 0
M  V30 3010 H 289.382 -1.30769 1.67372 0
M  V30 3011 H 291.645 -0.631653 0.706907 0
M  V30 3012 H 291.351 -2.7511 2.19106 0
M  V30 3013 H 291.225 -3.70228 0.721853 0
M  V30 3014 H 293.612 -2.95004 0.0754171 0
M  V30 3015 H 293.693 -2.01521 1.57554 0
M  V30 3016 H 293.337 -4.16427 2.90776 0
M  V30 3017 H 293.267 -5.08141 1.38206 0
M  V30 3018 H 295.758 -3.51976 1.37556 0
M  V30 3019 H 296.071 -6.94665 3.38616 0
M  V30 3020 H 294.416 -6.25035 3.03902 0
M  V30 3021 H 297.607 -4.3285 1.78208 0
M  V30 3022 H 297.78 -5.89129 2.69873 0
M  V30 3023 N 291.186 -0.45159 -1.50991 0
M  V30 3024 C 292.118 0.388634 -2.25881 0
M  V30 3025 C 293.131 0.974041 -1.30446 0
M  V30 3026 O 294.32 0.865758 -1.56099 0
M  V30 3027 C 291.42 1.5571 -3.01011 0
M  V30 3028 C 290.593 1.08801 -4.23652 0
M  V30 3029 C 289.652 2.12825 -4.8124 0
M  V30 3030 O 288.678 1.71678 -5.42693 0
M  V30 3031 N 289.88 3.45453 -4.66522 0
M  V30 3032 H 292.645 -0.25329 -2.98628 0
M  V30 3033 H 290.206 -0.281268 -1.59438 0
M  V30 3034 H 292.198 2.24952 -3.3642 0
M  V30 3035 H 290.768 2.10409 -2.31186 0
M  V30 3036 H 289.988 0.22215 -3.93574 0
M  V30 3037 H 291.276 0.752213 -5.03209 0
M  V30 3038 H 290.674 3.81605 -4.17605 0
M  V30 3039 H 289.231 4.10549 -5.06254 0
M  V30 3040 N 292.664 1.56529 -0.183458 0
M  V30 3041 C 293.627 2.17324 0.728223 0
M  V30 3042 C 294.627 1.12453 1.14939 0
M  V30 3043 O 295.817 1.37902 1.06437 0
M  V30 3044 C 292.949 2.76591 1.99274 0
M  V30 3045 H 294.142 2.99241 0.198772 0
M  V30 3046 H 291.695 1.5616 0.0661391 0
M  V30 3047 H 292.43 1.98441 2.56499 0
M  V30 3048 H 292.215 3.5335 1.69959 0
M  V30 3049 H 293.705 3.23311 2.6431 0
M  V30 3050 N 294.142 -0.090211 1.57342 0
M  V30 3051 C 295.388 -0.793982 1.86611 0
M  V30 3052 C 295.721 -1.78142 0.773252 0
M  V30 3053 O 294.996 -1.93271 -0.218304 0
M  V30 3054 C 295.279 -1.51839 3.26523 0
M  V30 3055 C 295.132 -0.548609 4.46442 0
M  V30 3056 C 296.451 -2.46779 3.64401 0
M  V30 3057 H 293.57 -0.287186 0.678744 0
M  V30 3058 H 296.212 -0.0575076 1.89913 0
M  V30 3059 H 294.362 -2.14617 3.23839 0
M  V30 3060 H 296.034 0.0725513 4.61243 0
M  V30 3061 H 294.277 0.137614 4.33582 0
M  V30 3062 H 294.948 -1.09271 5.41076 0
M  V30 3063 H 297.424 -1.94089 3.68061 0
M  V30 3064 H 296.3 -2.94479 4.63221 0
M  V30 3065 H 296.561 -3.30758 2.93346 0
M  V30 3066 N 295.62 -1.53406 -0.361157 0
M  V30 3067 C 296.53 -1.83122 -1.4664 0
M  V30 3068 C 297.546 -0.719943 -1.58407 0
M  V30 3069 O 298.722 -1.01046 -1.74218 0
M  V30 3070 C 295.787 -2.01891 -2.81853 0
M  V30 3071 C 294.848 -3.25784 -2.79577 0
M  V30 3072 C 294.081 -3.43648 -4.0834 0
M  V30 3073 O 294.304 -2.65714 -5.0473 0
M  V30 3074 O 293.238 -4.37018 -4.13883 0
M  V30 3075 H 297.064 -2.7703 -1.24451 0
M  V30 3076 H 294.649 -1.38841 -0.551678 0
M  V30 3077 H 296.531 -2.15782 -3.61962 0
M  V30 3078 H 295.206 -1.11173 -3.0401 0
M  V30 3079 H 294.113 -3.17312 -1.98151 0
M  V30 3080 H 295.446 -4.16439 -2.62373 0
M  V30 3081 N 297.098 0.621204 -1.44841 0
M  V30 3082 C 298.045 1.73267 -1.5247 0
M  V30 3083 C 299.015 1.6189 -0.371611 0
M  V30 3084 O 300.2 1.81668 -0.58321 0
M  V30 3085 C 297.34 3.11545 -1.48438 0
M  V30 3086 C 296.453 3.33827 -2.74196 0
M  V30 3087 C 295.588 4.62133 -2.61929 0
M  V30 3088 C 294.627 4.77627 -3.82804 0
M  V30 3089 N 293.764 5.97219 -3.69153 0
M  V30 3090 H 298.604 1.66082 -2.47428 0
M  V30 3091 H 296.141 0.810026 -1.22788 0
M  V30 3092 H 298.099 3.91528 -1.4409 0
M  V30 3093 H 296.729 3.1772 -0.570402 0
M  V30 3094 H 295.781 2.47715 -2.88689 0
M  V30 3095 H 297.093 3.41153 -3.6389 0
M  V30 3096 H 296.247 5.50291 -2.5547 0
M  V30 3097 H 294.986 4.57182 -1.69811 0
M  V30 3098 H 293.991 3.87896 -3.89637 0
M  V30 3099 H 295.216 4.84385 -4.75971 0
M  V30 3100 H 293.162 5.93339 -2.79794 0
M  V30 3101 H 293.079 6.05644 -4.52472 0
M  V30 3102 H 294.347 6.87912 -3.66603 0
M  V30 3103 N 298.576 1.31904 0.862503 0
M  V30 3104 C 299.539 1.20131 1.95195 0
M  V30 3105 C 300.539 0.126409 1.60302 0
M  V30 3106 O 301.729 0.376234 1.70089 0
M  V30 3107 C 298.861 0.845691 3.30244 0
M  V30 3108 H 300.054 2.16943 2.07064 0
M  V30 3109 H 297.607 1.15622 1.05172 0
M  V30 3110 H 298.342 -0.120957 3.24074 0
M  V30 3111 H 298.127 1.62276 3.56944 0
M  V30 3112 H 299.617 0.787418 4.10109 0
M  V30 3113 N 300.054 -1.07777 1.14986 0
M  V30 3114 C 301.301 -1.8029 0.922056 0
M  V30 3115 C 301.629 -1.86531 -0.55105 0
M  V30 3116 O 300.884 -1.34189 -1.42449 0
M  V30 3117 C 301.183 -3.25495 1.47608 0
M  V30 3118 C 300.849 -3.39361 2.96893 0
M  V30 3119 C 299.511 -3.42852 3.37647 0
M  V30 3120 C 301.863 -3.42512 3.92854 0
M  V30 3121 C 299.191 -3.47094 4.73015 0
M  V30 3122 C 301.543 -3.4829 5.28088 0
M  V30 3123 C 300.207 -3.50058 5.68345 0
M  V30 3124 H 299.477 -0.659727 0.337404 0
M  V30 3125 H 302.124 -1.26854 1.43459 0
M  V30 3126 H 300.429 -3.81683 0.88463 0
M  V30 3127 H 302.126 -3.80168 1.27568 0
M  V30 3128 H 298.716 -3.37339 2.64387 0
M  V30 3129 H 302.9 -3.3904 3.62444 0
M  V30 3130 H 298.156 -3.46758 5.03556 0
M  V30 3131 H 302.33 -3.49675 6.02246 0
M  V30 3132 H 299.957 -3.53097 6.73221 0
M  V30 3133 N 301.532 -0.945985 -1.26051 0
M  V30 3134 C 302.778 -0.606539 -1.94146 0
M  V30 3135 C 303.133 0.84586 -1.72809 0
M  V30 3136 O 302.426 1.59781 -1.05738 0
M  V30 3137 C 302.62 -0.890475 -3.46129 0
M  V30 3138 C 302.449 -2.36892 -3.82246 0
M  V30 3139 C 301.219 -3.02494 -4.04753 0
M  V30 3140 C 303.417 -3.34772 -3.90425 0
M  V30 3141 N 301.399 -4.40302 -4.27794 0
M  V30 3142 C 302.77 -4.57855 -4.18054 0
M  V30 3143 C 304.825 -3.2973 -3.73072 0
M  V30 3144 C 303.528 -5.76522 -4.30134 0
M  V30 3145 C 305.554 -4.47727 -3.86386 0
M  V30 3146 C 304.916 -5.69593 -4.14419 0
M  V30 3147 H 301.015 -0.272407 -0.73302 0
M  V30 3148 H 303.599 -1.21638 -1.52027 0
M  V30 3149 H 301.77 -0.309638 -3.87164 0
M  V30 3150 H 303.502 -0.51181 -4.01451 0
M  V30 3151 H 300.257 -2.53095 -4.003 0
M  V30 3152 H 300.681 -5.11646 -4.43337 0
M  V30 3153 H 305.323 -2.36565 -3.50424 0
M  V30 3154 H 303.041 -6.70136 -4.51601 0
M  V30 3155 H 306.627 -4.45363 -3.74356 0
M  V30 3156 H 305.507 -6.59375 -4.24493 0
M  V30 3157 N 303.011 1.40521 -0.713556 0
M  V30 3158 C 303.941 2.33381 -0.0743864 0
M  V30 3159 C 304.922 1.52784 0.747735 0
M  V30 3160 O 306.107 1.81258 0.697071 0
M  V30 3161 C 303.237 3.36748 0.849598 0
M  V30 3162 C 302.191 4.27793 0.133247 0
M  V30 3163 C 301.517 5.21679 1.17281 0
M  V30 3164 C 302.817 5.12415 -1.01134 0
M  V30 3165 H 304.511 2.87081 -0.850007 0
M  V30 3166 H 302.057 1.38034 -0.410201 0
M  V30 3167 H 304.01 4.00648 1.30612 0
M  V30 3168 H 302.734 2.81439 1.65709 0
M  V30 3169 H 301.393 3.65342 -0.303426 0
M  V30 3170 H 301.041 4.62677 1.9733 0
M  V30 3171 H 300.741 5.83435 0.698397 0
M  V30 3172 H 302.265 5.88456 1.62947 0
M  V30 3173 H 303.679 5.69781 -0.634274 0
M  V30 3174 H 302.076 5.83203 -1.41399 0
M  V30 3175 H 303.146 4.48514 -1.84292 0
M  V30 3176 N 304.489 0.459591 1.5075 0
M  V30 3177 C 305.439 -0.358926 2.25157 0
M  V30 3178 C 306.423 -0.971285 1.28276 0
M  V30 3179 O 307.615 -0.885739 1.53244 0
M  V30 3180 C 304.744 -1.44695 3.11317 0
M  V30 3181 C 303.83 -0.842894 4.15639 0
M  V30 3182 N 304.221 0.0299373 5.05791 0
M  V30 3183 C 302.519 -1.10809 4.32015 0
M  V30 3184 C 303.22 0.371563 5.80512 0
M  V30 3185 N 302.196 -0.250409 5.43023 0
M  V30 3186 H 305.998 0.313636 2.92222 0
M  V30 3187 H 303.512 0.273021 1.60089 0
M  V30 3188 H 305.509 -2.04641 3.63218 0
M  V30 3189 H 304.169 -2.12162 2.45799 0
M  V30 3190 H 305.18 0.39797 5.16369 0
M  V30 3191 H 301.857 -1.7786 3.77719 0
M  V30 3192 H 303.247 1.08319 6.63111 0
M  V30 3193 N 305.967 -1.56429 0.191757 0
M  V30 3194 C 307.378 -1.83912 -0.321428 0
M  V30 3195 C 307.729 -1.11231 -1.61623 0
M  V30 3196 O 306.854 -0.37202 -2.13178 0
M  V30 3197 C 307.449 -3.33624 -0.589961 0
M  V30 3198 C 306.008 -3.6153 -1.04753 0
M  V30 3199 C 305.155 -2.7714 -0.0943327 0
M  V30 3200 H 308.106 -1.53161 0.415612 0
M  V30 3201 H 308.127 -3.52213 -1.43966 0
M  V30 3202 H 307.639 -3.86495 0.352588 0
M  V30 3203 H 305.74 -3.14089 -2.00447 0
M  V30 3204 H 305.853 -4.69737 -0.942549 0
M  V30 3205 H 304.217 -2.47638 -0.595589 0
M  V30 3206 H 305 -3.32799 0.842601 0
M  V30 3207 N 307.445 0.0818655 -1.57387 0
M  V30 3208 C 308.722 0.815343 -1.77796 0
M  V30 3209 C 309.102 1.96289 -0.77679 0
M  V30 3210 O 308.45 2.27691 0.192106 0
M  V30 3211 C 308.66 1.29765 -3.23978 0
M  V30 3212 C 310.008 1.7351 -3.8753 0
M  V30 3213 O 311.032 1.39356 -3.27808 0
M  V30 3214 O 309.891 2.36708 -4.92576 0
M  V30 3215 H 306.985 0.389914 -0.729312 0
M  V30 3216 H 309.531 0.0627213 -1.69584 0
M  V30 3217 H 308.303 0.47608 -3.88393 0
M  V30 3218 H 307.926 2.11189 -3.36875 0
M  V30 3219 N 308.923 1.53595 0.353017 0
M  V30 3220 C 310.169 1.70638 1.09593 0
M  V30 3221 C 310.502 0.463286 1.88593 0
M  V30 3222 O 309.777 -0.539597 1.86865 0
M  V30 3223 C 310.06 2.96406 2.04489 0
M  V30 3224 C 309.913 4.30901 1.29014 0
M  V30 3225 C 311.232 3.17812 3.0444 0
M  V30 3226 H 308.351 0.620913 0.397034 0
M  V30 3227 H 310.993 1.86254 0.375446 0
M  V30 3228 H 309.143 2.83223 2.65927 0
M  V30 3229 H 310.815 4.55917 0.702638 0
M  V30 3230 H 309.058 4.29741 0.592071 0
M  V30 3231 H 309.729 5.1506 1.98537 0
M  V30 3232 H 312.205 3.30263 2.53112 0
M  V30 3233 H 311.081 4.07223 3.6805 0
M  V30 3234 H 311.342 2.33669 3.75301 0
M  V30 3235 N 310.401 -0.613514 1.45168 0
M  V30 3236 C 311.812 -1.19539 1.43413 0
M  V30 3237 C 312.163 -1.95558 0.158632 0
M  V30 3238 O 311.288 -2.0335 -0.740119 0
M  V30 3239 C 311.883 -2.17445 2.59813 0
M  V30 3240 C 310.442 -2.71022 2.61197 0
M  V30 3241 C 309.589 -1.46323 2.35552 0
M  V30 3242 H 312.54 -0.403163 1.53494 0
M  V30 3243 H 312.561 -3.00373 2.33574 0
M  V30 3244 H 312.073 -1.62089 3.52631 0
M  V30 3245 H 310.174 -3.30332 1.7237 0
M  V30 3246 H 310.287 -3.15859 3.60236 0
M  V30 3247 H 308.651 -1.75072 1.84992 0
M  V30 3248 H 309.434 -0.92844 3.30507 0
M  V30 3249 N 311.879 -1.3236 -0.855495 0
M  V30 3250 C 313.125 -1.23054 -1.612 0
M  V30 3251 C 313.458 0.207404 -1.93089 0
M  V30 3252 O 312.733 1.14432 -1.57275 0
M  V30 3253 C 313.016 -2.08937 -2.93287 0
M  V30 3254 C 312.869 -3.61105 -2.68185 0
M  V30 3255 C 314.188 -1.94986 -3.94549 0
M  V30 3256 H 311.307 -0.448364 -0.584926 0
M  V30 3257 H 313.949 -1.62297 -0.987917 0
M  V30 3258 H 312.099 -1.75599 -3.46551 0
M  V30 3259 H 313.771 -4.04652 -2.21483 0
M  V30 3260 H 312.014 -3.83813 -2.02164 0
M  V30 3261 H 312.685 -4.16522 -3.62234 0
M  V30 3262 H 315.161 -2.24189 -3.5054 0
M  V30 3263 H 314.037 -2.57356 -4.84829 0
M  V30 3264 H 314.298 -0.917263 -4.3248 0
M  V30 3265 N 313.357 1.07166 -1.15556 0
M  V30 3266 C 314.267 2.17947 -0.868116 0
M  V30 3267 C 315.283 1.73297 0.156297 0
M  V30 3268 O 316.459 2.01392 -0.0182327 0
M  V30 3269 C 313.524 3.44789 -0.36355 0
M  V30 3270 C 312.585 4.03996 -1.45209 0
M  V30 3271 C 311.818 5.24783 -0.971508 0
M  V30 3272 O 312.041 5.70109 0.182194 0
M  V30 3273 O 310.975 5.75715 -1.75603 0
M  V30 3274 H 314.801 2.4503 -1.79427 0
M  V30 3275 H 312.386 1.16539 -0.934824 0
M  V30 3276 H 314.268 4.21307 -0.0887113 0
M  V30 3277 H 312.943 3.19253 0.534708 0
M  V30 3278 H 311.85 3.29009 -1.78056 0
M  V30 3279 H 313.183 4.33808 -2.32533 0
M  V30 3280 N 314.835 0.952656 1.25548 0
M  V30 3281 C 316.081 0.607272 1.93494 0
M  V30 3282 C 316.414 -0.853245 1.74452 0
M  V30 3283 O 315.689 -1.61194 1.08843 0
M  V30 3284 C 315.972 0.96435 3.46947 0
M  V30 3285 C 315.825 2.48045 3.75225 0
M  V30 3286 C 317.144 0.487987 4.37386 0
M  V30 3287 H 314.263 0.222096 0.702739 0
M  V30 3288 H 316.905 1.18895 1.48203 0
M  V30 3289 H 315.055 0.469361 3.85654 0
M  V30 3290 H 316.727 3.04905 3.46166 0
M  V30 3291 H 314.97 2.919 3.209 0
M  V30 3292 H 315.641 2.6808 4.82532 0
M  V30 3293 H 318.117 0.912558 4.0597 0
M  V30 3294 H 316.993 0.766547 5.43521 0
M  V30 3295 H 317.254 -0.612063 4.37843 0
M  V30 3296 N 316.313 -1.40141 0.720998 0
M  V30 3297 C 317.223 -2.34486 0.0731031 0
M  V30 3298 C 318.239 -1.57587 -0.737723 0
M  V30 3299 O 319.415 -1.89949 -0.669429 0
M  V30 3300 C 316.48 -3.36528 -0.833656 0
M  V30 3301 C 315.541 -4.29298 -0.0121673 0
M  V30 3302 C 314.774 -5.26466 -0.875742 0
M  V30 3303 O 314.997 -5.29745 -2.11485 0
M  V30 3304 O 313.931 -6.01092 -0.31185 0
M  V30 3305 H 317.757 -2.9152 0.851444 0
M  V30 3306 H 315.342 -1.41427 0.481527 0
M  V30 3307 H 317.224 -3.99093 -1.35289 0
M  V30 3308 H 315.899 -2.81899 -1.59105 0
M  V30 3309 H 314.806 -3.70001 0.552262 0
M  V30 3310 H 316.139 -4.87094 0.707129 0
M  V30 3311 N 317.792 -0.46758 -1.50504 0
M  V30 3312 C 319.038 0.0887532 -2.02606 0
M  V30 3313 C 319.371 1.39686 -1.34913 0
M  V30 3314 O 318.646 1.88644 -0.473694 0
M  V30 3315 C 318.929 0.276206 -3.59039 0
M  V30 3316 C 318.782 -1.05267 -4.37309 0
M  V30 3317 C 320.101 1.03235 -4.27821 0
M  V30 3318 H 317.22 0.0307814 -0.736357 0
M  V30 3319 H 319.862 -0.612485 -1.79857 0
M  V30 3320 H 318.012 0.8735 -3.78553 0
M  V30 3321 H 319.684 -1.68628 -4.29374 0
M  V30 3322 H 317.927 -1.65015 -4.01189 0
M  V30 3323 H 318.598 -0.875197 -5.45018 0
M  V30 3324 H 321.074 0.526111 -4.12761 0
M  V30 3325 H 319.95 1.1323 -5.37094 0
M  V30 3326 H 320.211 2.06806 -3.90748 0
M  V30 3327 N 319.27 1.56325 -0.20005 0
M  V30 3328 C 320.18 2.22931 0.730668 0
M  V30 3329 C 321.196 1.22997 1.23076 0
M  V30 3330 O 322.372 1.55748 1.27689 0
M  V30 3331 C 319.437 2.87948 1.93098 0
M  V30 3332 C 318.498 4.03166 1.47497 0
M  V30 3333 C 317.731 4.65073 2.61807 0
M  V30 3334 O 317.954 4.25913 3.79413 0
M  V30 3335 O 316.888 5.54452 2.34237 0
M  V30 3336 H 320.714 3.03084 0.193391 0
M  V30 3337 H 318.299 1.49371 0.0294621 0
M  V30 3338 H 320.181 3.29063 2.6324 0
M  V30 3339 H 318.856 2.10771 2.45677 0
M  V30 3340 H 317.763 3.66664 0.742201 0
M  V30 3341 H 319.096 4.82022 0.995796 0
M  V30 3342 N 320.748 -0.0735177 1.57428 0
M  V30 3343 C 321.696 -1.10628 2.04607 0
M  V30 3344 C 322.69 -1.40181 0.951088 0
M  V30 3345 O 323.896 -1.39608 1.1362 0
M  V30 3346 H 320.271 -0.374088 0.652351 0
M  V30 3347 H 322.242 -0.682218 2.90497 0
M  V30 3348 C 320.991 -2.41212 2.50423 0
M  V30 3349 H 320.314 -2.19322 3.34272 0
M  V30 3350 H 321.754 -3.11927 2.87189 0
M  V30 3351 C 320.213 -3.0705 1.38644 0
M  V30 3352 O 320.743 -3.95056 0.727582 0
M  V30 3353 N 318.949 -2.67645 1.132 0
M  V30 3354 H 318.496 -1.96169 1.66959 0
M  V30 3355 H 318.454 -3.1202 0.386147 0
M  V30 3356 N 322.226 -1.5378 -0.344866 0
M  V30 3357 C 323.156 -1.84662 -1.42906 0
M  V30 3358 C 324.137 -0.701648 -1.54955 0
M  V30 3359 O 325.322 -0.953438 -1.69184 0
M  V30 3360 C 322.452 -2.05503 -2.79974 0
M  V30 3361 C 321.406 -3.21318 -2.82734 0
M  V30 3362 C 320.732 -3.2749 -4.22675 0
M  V30 3363 C 322.032 -4.59456 -2.48389 0
M  V30 3364 H 323.726 -2.75461 -1.17311 0
M  V30 3365 H 321.272 -1.32542 -0.562896 0
M  V30 3366 H 323.225 -2.25691 -3.55867 0
M  V30 3367 H 321.949 -1.11434 -3.07002 0
M  V30 3368 H 320.608 -3.00984 -2.09294 0
M  V30 3369 H 320.256 -2.31019 -4.4681 0
M  V30 3370 H 319.956 -4.05316 -4.25433 0
M  V30 3371 H 321.48 -3.49887 -5.00412 0
M  V30 3372 H 322.894 -4.79667 -3.13995 0
M  V30 3373 H 321.291 -5.39675 -2.62432 0
M  V30 3374 H 322.361 -4.63155 -1.4358 0
M  V30 3375 N 323.704 0.605807 -1.45491 0
M  V30 3376 C 324.981 1.36522 -1.40075 0
M  V30 3377 C 325.361 2.10976 -0.0722744 0
M  V30 3378 O 324.709 2.08007 0.945808 0
M  V30 3379 C 324.919 2.31056 -2.61561 0
M  V30 3380 C 326.267 2.93608 -3.06724 0
M  V30 3381 O 327.291 2.41376 -2.61946 0
M  V30 3382 O 326.15 3.88421 -3.84437 0
M  V30 3383 H 323.244 0.612248 -0.555951 0
M  V30 3384 H 325.79 0.628747 -1.57623 0
M  V30 3385 H 324.562 1.75311 -3.49831 0
M  V30 3386 H 324.185 3.12081 -2.46356 0
M  V30 3387 N 325.182 1.32811 0.848464 0
M  V30 3388 C 326.092 1.24278 1.98978 0
M  V30 3389 C 327.108 0.155176 1.73307 0
M  V30 3390 O 328.284 0.376999 1.9784 0
M  V30 3391 C 325.349 0.972444 3.32783 0
M  V30 3392 C 324.41 2.14911 3.71634 0
M  V30 3393 C 323.643 1.89157 4.99054 0
M  V30 3394 O 323.866 0.837165 5.64223 0
M  V30 3395 O 322.8 2.75433 5.35183 0
M  V30 3396 H 326.626 2.20238 2.09115 0
M  V30 3397 H 324.211 1.12762 0.980052 0
M  V30 3398 H 326.093 0.838432 4.12975 0
M  V30 3399 H 324.768 0.043051 3.23671 0
M  V30 3400 H 323.675 2.33862 2.91992 0
M  V30 3401 H 325.008 3.06151 3.85399 0
M  V30 3402 N 326.66 -1.06551 1.16123 0
M  V30 3403 C 327.59 -2.15935 0.88851 0
M  V30 3404 C 328.571 -1.69306 -0.164135 0
M  V30 3405 O 329.756 -1.94193 -0.0167857 0
M  V30 3406 C 326.886 -3.45149 0.385942 0
M  V30 3407 C 325.84 -4.05271 1.3762 0
M  V30 3408 C 325.166 -5.29664 0.732137 0
M  V30 3409 C 326.466 -4.44355 2.74493 0
M  V30 3410 H 328.16 -2.39006 1.80323 0
M  V30 3411 H 325.706 -1.14866 0.868435 0
M  V30 3412 H 327.659 -4.21004 0.182647 0
M  V30 3413 H 326.383 -3.21689 -0.564274 0
M  V30 3414 H 325.042 -3.3147 1.56599 0
M  V30 3415 H 324.69 -5.02499 -0.224483 0
M  V30 3416 H 324.39 -5.70848 1.39307 0
M  V30 3417 H 325.914 -6.08218 0.538802 0
M  V30 3418 H 327.328 -5.11303 2.59311 0
M  V30 3419 H 325.725 -4.96515 3.37035 0
M  V30 3420 H 326.795 -3.55339 3.29943 0
M  V30 3421 N 328.138 -0.959301 -1.25041 0
M  V30 3422 C 329.415 -0.533805 -1.88175 0
M  V30 3423 C 329.795 0.988994 -1.865 0
M  V30 3424 O 329.143 1.85677 -1.33177 0
M  V30 3425 C 329.353 -1.11575 -3.30684 0
M  V30 3426 C 330.701 -1.19548 -4.07423 0
M  V30 3427 O 331.725 -1.06765 -3.39823 0
M  V30 3428 O 330.584 -1.39656 -5.28354 0
M  V30 3429 H 327.678 -0.176772 -0.807887 0
M  V30 3430 H 330.224 -1.05303 -1.33076 0
M  V30 3431 H 328.996 -2.15884 -3.26358 0
M  V30 3432 H 328.619 -0.580059 -3.93346 0
M  V30 3433 N 329.616 1.39756 -0.72842 0
M  V30 3434 C 330.893 1.94574 -0.200079 0
M  V30 3435 C 331.273 1.66569 1.29684 0
M  V30 3436 O 330.621 0.990326 2.05924 0
M  V30 3437 C 330.831 3.45004 -0.526608 0
M  V30 3438 C 332.179 4.21965 -0.472318 0
M  V30 3439 O 333.203 3.53173 -0.463413 0
M  V30 3440 O 332.062 5.44552 -0.461075 0
M  V30 3441 H 329.156 0.826289 -0.0342851 0
M  V30 3442 H 331.702 1.49293 -0.806829 0
M  V30 3443 H 330.474 3.58796 -1.56144 0
M  V30 3444 H 330.097 3.97449 0.109449 0
M  V30 3445 N 331.094 0.475555 1.50254 0
M  V30 3446 C 332.057 -0.305016 2.27161 0
M  V30 3447 C 333.057 -0.916519 1.32123 0
M  V30 3448 O 334.247 -0.785003 1.5551 0
M  V30 3449 C 331.379 -1.43496 3.09227 0
M  V30 3450 H 332.572 0.369511 2.97615 0
M  V30 3451 H 330.125 0.229747 1.54602 0
M  V30 3452 H 330.86 -2.14441 2.43281 0
M  V30 3453 H 330.645 -1.00223 3.79075 0
M  V30 3454 H 332.135 -1.98548 3.67381 0
M  V30 3455 N 332.573 -1.56217 0.208337 0
M  V30 3456 C 333.503 -2.22694 -0.702116 0
M  V30 3457 C 334.484 -1.19432 -1.2112 0
M  V30 3458 O 335.669 -1.47978 -1.25762 0
M  V30 3459 C 332.799 -2.8966 -1.9161 0
M  V30 3460 C 331.753 -3.9928 -1.5414 0
M  V30 3461 C 331.079 -4.53476 -2.83308 0
M  V30 3462 C 332.379 -5.17012 -0.741339 0
M  V30 3463 H 334.073 -2.99034 -0.147898 0
M  V30 3464 H 331.619 -1.43831 -0.0696951 0
M  V30 3465 H 333.572 -3.34852 -2.55836 0
M  V30 3466 H 332.296 -2.10746 -2.49507 0
M  V30 3467 H 330.955 -3.54799 -0.922668 0
M  V30 3468 H 330.603 -3.71308 -3.39322 0
M  V30 3469 H 330.303 -5.27451 -2.58976 0
M  V30 3470 H 331.827 -5.01378 -3.485 0
M  V30 3471 H 333.241 -5.58667 -1.28699 0
M  V30 3472 H 331.638 -5.97137 -0.595627 0
M  V30 3473 H 332.708 -4.8423 0.254851 0
M  V30 3474 N 334.051 0.0651679 -1.57465 0
M  V30 3475 C 334.998 1.07675 -2.04144 0
M  V30 3476 C 335.968 1.38071 -0.923335 0
M  V30 3477 O 337.153 1.49026 -1.19146 0
M  V30 3478 C 334.293 2.38337 -2.49579 0
M  V30 3479 C 333.406 2.14413 -3.75035 0
M  V30 3480 C 332.541 3.38686 -4.09225 0
M  V30 3481 C 331.58 3.10156 -5.27702 0
M  V30 3482 N 330.717 4.26778 -5.57499 0
M  V30 3483 H 335.557 0.671716 -2.90331 0
M  V30 3484 H 333.094 0.3201 -1.43575 0
M  V30 3485 H 335.052 3.14632 -2.73975 0
M  V30 3486 H 333.682 2.7663 -1.6636 0
M  V30 3487 H 332.734 1.2878 -3.57939 0
M  V30 3488 H 334.046 1.89344 -4.61466 0
M  V30 3489 H 333.2 4.23373 -4.34558 0
M  V30 3490 H 331.939 3.66837 -3.21374 0
M  V30 3491 H 330.944 2.23866 -5.02159 0
M  V30 3492 H 332.169 2.8332 -6.17176 0
M  V30 3493 H 330.115 4.54948 -4.72608 0
M  V30 3494 H 330.032 4.05005 -6.38362 0
M  V30 3495 H 331.3 5.12443 -5.87386 0
M  V30 3496 N 335.529 1.53961 0.336706 0
M  V30 3497 C 336.492 1.81724 1.39675 0
M  V30 3498 C 337.492 0.688532 1.45313 0
M  V30 3499 O 338.682 0.956829 1.45569 0
M  V30 3500 C 335.814 1.96543 2.78538 0
M  V30 3501 H 337.007 2.76424 1.16318 0
M  V30 3502 H 334.56 1.45478 0.571474 0
M  V30 3503 H 335.295 1.0401 3.07168 0
M  V30 3504 H 335.08 2.78665 2.75841 0
M  V30 3505 H 336.57 2.19516 3.5525 0
M  V30 3506 N 337.007 -0.598083 1.45811 0
M  V30 3507 C 338.255 -1.35413 1.50026 0
M  V30 3508 C 338.576 -1.94444 0.147177 0
M  V30 3509 O 337.846 -1.77701 -0.824571 0
M  V30 3510 H 336.426 -0.502727 0.552517 0
M  V30 3511 H 339.088 -0.701606 1.81834 0
M  V30 3512 H 338.184 -2.16871 2.2444 0
M  V30 3513 N 338.485 -1.33259 -0.841409 0
M  V30 3514 C 339.448 -1.23221 -1.9326 0
M  V30 3515 C 340.448 -0.151895 -1.60081 0
M  V30 3516 O 341.638 -0.403246 -1.69468 0
M  V30 3517 C 338.77 -0.898123 -3.28856 0
M  V30 3518 H 339.963 -2.2021 -2.03587 0
M  V30 3519 H 337.516 -1.17281 -1.03319 0
M  V30 3520 H 338.251 0.0693841 -3.24226 0
M  V30 3521 H 338.036 -1.67934 -3.54317 0
M  V30 3522 H 339.526 -0.852563 -4.08805 0
M  V30 3523 N 339.963 1.05934 -1.16686 0
M  V30 3524 C 341.24 1.75643 -0.860747 0
M  V30 3525 C 341.62 2.01144 0.640641 0
M  V30 3526 O 340.968 1.64147 1.58959 0
M  V30 3527 C 341.178 3.05493 -1.68745 0
M  V30 3528 C 342.526 3.79581 -1.90271 0
M  V30 3529 O 343.55 3.15344 -1.65641 0
M  V30 3530 O 342.409 4.9499 -2.31618 0
M  V30 3531 H 339.503 0.763426 -0.317977 0
M  V30 3532 H 342.049 1.1217 -1.27342 0
M  V30 3533 H 340.821 2.8264 -2.70611 0
M  V30 3534 H 340.444 3.76702 -1.27206 0
M  V30 3535 N 341.441 0.965919 1.2453 0
M  V30 3536 C 342.69 0.622437 1.91856 0
M  V30 3537 C 343.003 -0.846006 1.76358 0
M  V30 3538 O 344.209 -1.29993 2.38357 0
M  V30 3539 C 342.665 1.0626 3.43856 0
M  V30 3540 C 342.273 2.55437 3.68043 0
M  V30 3541 C 344.017 0.792183 4.17043 0
M  V30 3542 C 341.924 2.93196 5.13605 0
M  V30 3543 H 340.854 0.229092 0.718354 0
M  V30 3544 H 343.505 1.17189 1.41206 0
M  V30 3545 H 341.887 0.441476 3.93531 0
M  V30 3546 H 343.061 3.22665 3.28974 0
M  V30 3547 H 341.376 2.8007 3.08139 0
M  V30 3548 H 343.973 1.05031 5.24283 0
M  V30 3549 H 344.316 -0.271584 4.15413 0
M  V30 3550 H 344.849 1.37419 3.73311 0
M  V30 3551 H 341.588 3.98636 5.20355 0
M  V30 3552 H 341.108 2.30651 5.53679 0
M  V30 3553 H 342.787 2.83004 5.81823 0
M  V30 3554 N 342.919 -1.39368 0.735821 0
M  V30 3555 C 344.168 -1.99733 0.281004 0
M  V30 3556 C 344.481 -1.59055 -1.13846 0
M  V30 3557 O 345.687 -2.12262 -1.69284 0
M  V30 3558 C 344.143 -3.57057 0.451462 0
M  V30 3559 C 343.751 -4.06697 1.87886 0
M  V30 3560 C 345.495 -4.2446 0.0584616 0
M  V30 3561 C 343.402 -5.56598 1.99883 0
M  V30 3562 H 342.332 -0.747163 0.101311 0
M  V30 3563 H 344.983 -1.59357 0.909819 0
M  V30 3564 H 343.365 -3.95234 -0.246263 0
M  V30 3565 H 344.539 -3.79853 2.60861 0
M  V30 3566 H 342.854 -3.5196 2.22515 0
M  V30 3567 H 345.451 -5.34549 0.127099 0
M  V30 3568 H 345.794 -4.04444 -0.986433 0
M  V30 3569 H 346.327 -3.9146 0.707374 0
M  V30 3570 H 343.066 -5.81494 3.02564 0
M  V30 3571 H 342.586 -5.85242 1.31346 0
M  V30 3572 H 344.265 -6.22022 1.78039 0
M  V30 3573 N 344.397 -0.483516 -1.5 0
M  V30 3574 C 345.33 0.350427 -2.25493 0
M  V30 3575 C 346.308 0.985549 -1.29328 0
M  V30 3576 O 347.492 1.01906 -1.58579 0
M  V30 3577 C 344.619 1.49202 -3.04066 0
M  V30 3578 C 343.665 0.973036 -4.15252 0
M  V30 3579 S 344.498 -0.122237 -5.3536 0
M  V30 3580 C 345.654 1.02294 -6.17484 0
M  V30 3581 H 345.887 -0.290381 -2.95878 0
M  V30 3582 H 343.42 -0.268562 -1.52046 0
M  V30 3583 H 345.378 2.14623 -3.49925 0
M  V30 3584 H 344.039 2.10438 -2.33183 0
M  V30 3585 H 343.232 1.82804 -4.69679 0
M  V30 3586 H 342.834 0.396335 -3.71894 0
M  V30 3587 H 345.126 1.93195 -6.49371 0
M  V30 3588 H 346.069 0.517664 -7.06205 0
M  V30 3589 H 346.477 1.28238 -5.49741 0
M  V30 3590 N 345.875 1.56104 -0.216619 0
M  V30 3591 C 346.805 2.23063 0.690296 0
M  V30 3592 C 347.786 1.20072 1.20485 0
M  V30 3593 O 348.971 1.48643 1.24976 0
M  V30 3594 C 346.101 2.90672 1.90072 0
M  V30 3595 C 345.055 4.00092 1.5202 0
M  V30 3596 C 344.381 4.54972 2.80899 0
M  V30 3597 C 345.681 5.17398 0.71391 0
M  V30 3598 H 347.375 2.99109 0.132038 0
M  V30 3599 H 344.921 1.43866 0.0620664 0
M  V30 3600 H 346.874 3.36204 2.54057 0
M  V30 3601 H 345.598 2.12066 2.48386 0
M  V30 3602 H 344.257 3.55283 0.903839 0
M  V30 3603 H 343.905 3.73102 3.37348 0
M  V30 3604 H 343.605 5.28817 2.56176 0
M  V30 3605 H 345.129 5.0322 3.45836 0
M  V30 3606 H 346.543 5.59342 1.25735 0
M  V30 3607 H 344.94 5.97444 0.563951 0
M  V30 3608 H 346.01 4.84088 -0.280527 0
M  V30 3609 N 347.353 -0.0568162 1.57498 0
M  V30 3610 C 348.63 -0.786954 1.79071 0
M  V30 3611 C 349.01 -1.95028 0.80792 0
M  V30 3612 O 348.358 -2.27968 -0.155858 0
M  V30 3613 C 348.568 -1.24594 3.26002 0
M  V30 3614 C 349.916 -1.67323 3.90241 0
M  V30 3615 O 350.94 -1.34124 3.29984 0
M  V30 3616 O 349.799 -2.28842 4.9628 0
M  V30 3617 H 346.893 -0.378262 0.735423 0
M  V30 3618 H 349.439 -0.035734 1.69662 0
M  V30 3619 H 348.211 -0.41423 3.89101 0
M  V30 3620 H 347.834 -2.05803 3.40192 0
M  V30 3621 N 348.832 -1.54138 -0.328536 0
M  V30 3622 C 349.78 -1.83894 -1.42428 0
M  V30 3623 C 350.774 -0.710478 -1.53781 0
M  V30 3624 O 351.98 -0.894062 -1.56226 0
M  V30 3625 H 348.355 -0.582837 -0.475189 0
M  V30 3626 H 350.326 -2.75537 -1.14552 0
M  V30 3627 C 349.075 -2.07866 -2.78724 0
M  V30 3628 H 348.398 -2.94158 -2.7076 0
M  V30 3629 H 349.838 -2.32644 -3.54476 0
M  V30 3630 C 348.297 -0.868689 -3.25508 0
M  V30 3631 O 348.827 -0.0754908 -4.01629 0
M  V30 3632 N 347.033 -0.681711 -2.82491 0
M  V30 3633 H 346.58 -1.32838 -2.20708 0
M  V30 3634 H 346.538 0.126374 -3.14146 0
M  V30 3635 N 350.31 0.590341 -1.46126 0
M  V30 3636 C 351.557 1.34882 -1.5104 0
M  V30 3637 C 351.885 1.93849 -0.159021 0
M  V30 3638 O 351.14 1.76544 0.844436 0
M  V30 3639 C 351.439 2.5032 -2.55097 0
M  V30 3640 C 351.105 2.09394 -3.99331 0
M  V30 3641 C 349.767 1.97947 -4.38601 0
M  V30 3642 C 352.119 1.77712 -4.89967 0
M  V30 3643 C 349.447 1.53065 -5.66381 0
M  V30 3644 C 351.799 1.34312 -6.18177 0
M  V30 3645 C 350.463 1.21436 -6.56361 0
M  V30 3646 H 349.733 0.493568 -0.552695 0
M  V30 3647 H 352.38 0.665539 -1.79563 0
M  V30 3648 H 350.685 3.24062 -2.20207 0
M  V30 3649 H 352.382 3.08541 -2.56132 0
M  V30 3650 H 348.972 2.19235 -3.68285 0
M  V30 3651 H 353.156 1.85445 -4.60352 0
M  V30 3652 H 348.412 1.41733 -5.94745 0
M  V30 3653 H 352.586 1.08849 -6.87841 0
M  V30 3654 H 350.213 0.864345 -7.5527 0
M  V30 3655 N 351.788 1.33704 0.83433 0
M  V30 3656 C 352.736 1.24323 1.96587 0
M  V30 3657 C 353.73 0.143659 1.6879 0
M  V30 3658 O 354.936 0.30791 1.77347 0
M  V30 3659 H 351.311 0.385925 0.645419 0
M  V30 3660 H 353.282 2.19978 2.01624 0
M  V30 3661 C 352.031 1.00394 3.32891 0
M  V30 3662 H 351.354 1.84231 3.54822 0
M  V30 3663 H 352.794 0.97862 4.12552 0
M  V30 3664 C 351.253 -0.293047 3.35623 0
M  V30 3665 O 351.783 -1.29823 3.80143 0
M  V30 3666 N 349.989 -0.322174 2.88809 0
M  V30 3667 H 349.536 0.496379 2.52772 0
M  V30 3668 H 349.494 -1.18977 2.91019 0
M  V30 3669 N 353.266 -1.05314 1.17247 0
M  V30 3670 C 354.494 -1.81971 0.984593 0
M  V30 3671 C 354.909 -1.82929 -0.467166 0
M  V30 3672 O 354.266 -1.25564 -1.32438 0
M  V30 3673 C 354.317 -3.28143 1.51672 0
M  V30 3674 O 354.038 -3.27347 2.91163 0
M  V30 3675 C 355.539 -4.21493 1.37326 0
M  V30 3676 H 352.759 -0.573455 0.348411 0
M  V30 3677 H 355.303 -1.32808 1.55506 0
M  V30 3678 H 353.458 -3.74582 0.988302 0
M  V30 3679 H 353.872 -4.18824 3.15732 0
M  V30 3680 H 355.346 -5.22043 1.79375 0
M  V30 3681 H 355.823 -4.38031 0.320169 0
M  V30 3682 H 356.429 -3.80909 1.89178 0
M  V30 3683 N 354.744 -0.972509 -1.24016 0
M  V30 3684 C 356.021 -0.553733 -1.87598 0
M  V30 3685 C 356.401 0.969158 -1.87538 0
M  V30 3686 O 355.749 1.84255 -1.35139 0
M  V30 3687 C 355.959 -1.15076 -3.29482 0
M  V30 3688 C 357.307 -1.23862 -4.06132 0
M  V30 3689 O 358.331 -1.10363 -3.38672 0
M  V30 3690 O 357.19 -1.45252 -5.26844 0
M  V30 3691 H 354.284 -0.185331 -0.805966 0
M  V30 3692 H 356.83 -1.06709 -1.31952 0
M  V30 3693 H 355.602 -2.19333 -3.2405 0
M  V30 3694 H 355.225 -0.621746 -3.92709 0
M  V30 3695 N 356.222 1.38976 -0.743202 0
M  V30 3696 C 357.154 2.29096 -0.0689228 0
M  V30 3697 C 358.167 1.47229 0.694791 0
M  V30 3698 O 359.356 1.70212 0.537597 0
M  V30 3699 C 356.456 3.25988 0.926548 0
M  V30 3700 C 355.629 4.36833 0.222647 0
M  V30 3701 C 354.688 5.13981 1.12739 0
M  V30 3702 O 353.714 5.6601 0.601795 0
M  V30 3703 N 354.916 5.25966 2.45641 0
M  V30 3704 H 357.681 2.87604 -0.842846 0
M  V30 3705 H 355.242 1.50645 -0.593109 0
M  V30 3706 H 357.234 3.74476 1.5346 0
M  V30 3707 H 355.804 2.68453 1.60162 0
M  V30 3708 H 355.024 3.90116 -0.565983 0
M  V30 3709 H 356.312 5.0811 -0.264841 0
M  V30 3710 H 355.71 4.85228 2.9081 0
M  V30 3711 H 354.267 5.77865 3.01522 0
M  V30 3712 N 357.7 0.491464 1.49741 0
M  V30 3713 C 358.633 -0.338464 2.25676 0
M  V30 3714 C 359.611 -0.978676 1.29849 0
M  V30 3715 O 360.795 -1.01064 1.59117 0
M  V30 3716 C 357.922 -1.47588 3.04853 0
M  V30 3717 C 356.968 -0.951 4.15762 0
M  V30 3718 S 357.801 0.150626 5.35288 0
M  V30 3719 C 358.957 -0.990178 6.18018 0
M  V30 3720 H 359.19 0.306068 2.9572 0
M  V30 3721 H 356.723 0.276622 1.51902 0
M  V30 3722 H 358.681 -2.12764 3.51058 0
M  V30 3723 H 357.342 -2.09199 2.34296 0
M  V30 3724 H 356.535 -1.80311 4.70642 0
M  V30 3725 H 356.137 -0.376607 3.72099 0
M  V30 3726 H 358.429 -1.89748 6.50386 0
M  V30 3727 H 359.372 -0.480205 7.0647 0
M  V30 3728 H 359.78 -1.25321 5.50413 0
M  V30 3729 N 359.178 -1.55987 0.224894 0
M  V30 3730 C 360.594 -1.59066 -0.130426 0
M  V30 3731 C 360.794 -1.24176 -1.5869 0
M  V30 3732 O 359.85 -0.978592 -2.32766 0
M  V30 3733 C 361.163 -3.00042 0.198883 0
M  V30 3734 C 362.711 -3.1268 0.141391 0
M  V30 3735 C 363.186 -4.55839 0.444422 0
M  V30 3736 N 364.677 -4.6152 0.394115 0
M  V30 3737 C 365.412 -5.70231 0.602038 0
M  V30 3738 N 364.908 -6.87291 0.871914 0
M  V30 3739 N 366.701 -5.59555 0.534245 0
M  V30 3740 H 358.852 -1.76941 1.17497 0
M  V30 3741 H 361.115 -0.822604 0.471197 0
M  V30 3742 H 360.821 -3.30234 1.2099 0
M  V30 3743 H 360.695 -3.74075 -0.484535 0
M  V30 3744 H 363.082 -2.82283 -0.860265 0
M  V30 3745 H 363.163 -2.40969 0.858335 0
M  V30 3746 H 362.807 -4.86954 1.44353 0
M  V30 3747 H 362.737 -5.2578 -0.293752 0
M  V30 3748 H 365.228 -3.77405 0.193356 0
M  V30 3749 H 365.541 -7.66058 1.01858 0
M  V30 3750 H 363.886 -6.89028 0.909145 0
M  V30 3751 H 367.077 -4.6698 0.323612 0
M  V30 3752 H 367.25 -6.44211 0.699693 0
M  V30 3753 N 360.656 0.0484629 -1.57525 0
M  V30 3754 C 361.566 1.07241 -2.08654 0
M  V30 3755 C 362.582 1.409 -1.02095 0
M  V30 3756 O 363.758 1.50609 -1.33712 0
M  V30 3757 C 360.823 2.36008 -2.5397 0
M  V30 3758 C 359.884 2.09108 -3.7493 0
M  V30 3759 C 359.117 3.31736 -4.18075 0
M  V30 3760 O 359.34 4.41714 -3.60895 0
M  V30 3761 O 358.274 3.18576 -5.10679 0
M  V30 3762 H 362.1 0.667965 -2.96263 0
M  V30 3763 H 359.685 0.26417 -1.47046 0
M  V30 3764 H 361.567 3.11747 -2.83535 0
M  V30 3765 H 360.242 2.75786 -1.69481 0
M  V30 3766 H 359.149 1.31 -3.50414 0
M  V30 3767 H 360.482 1.74198 -4.60343 0
M  V30 3768 N 362.134 1.5431 0.320358 0
M  V30 3769 C 363.097 1.83195 1.3774 0
M  V30 3770 C 364.097 0.703906 1.44575 0
M  V30 3771 O 365.287 0.972214 1.44546 0
M  V30 3772 C 362.419 1.99487 2.76438 0
M  V30 3773 H 363.612 2.77642 1.1338 0
M  V30 3774 H 361.165 1.46076 0.556012 0
M  V30 3775 H 361.9 1.07262 3.06048 0
M  V30 3776 H 361.685 2.81575 2.7287 0
M  V30 3777 H 363.175 2.23271 3.52902 0
M  V30 3778 N 363.613 -0.582584 1.46437 0
M  V30 3779 C 364.859 -1.34278 1.51978 0
M  V30 3780 C 365.192 -1.93446 0.170973 0
M  V30 3781 O 364.467 -1.76481 -0.817608 0
M  V30 3782 C 364.75 -2.47203 2.61845 0
M  V30 3783 C 364.603 -1.93069 4.06257 0
M  V30 3784 C 365.922 -3.49247 2.67795 0
M  V30 3785 H 363.041 -0.486876 0.553282 0
M  V30 3786 H 365.683 -0.654437 1.78374 0
M  V30 3787 H 363.833 -3.0592 2.39469 0
M  V30 3788 H 365.505 -1.38808 4.3992 0
M  V30 3789 H 363.748 -1.23898 4.1573 0
M  V30 3790 H 364.419 -2.74586 4.7886 0
M  V30 3791 H 366.895 -3.00411 2.8791 0
M  V30 3792 H 365.771 -4.25719 3.46489 0
M  V30 3793 H 366.032 -4.06482 1.73852 0
M  V30 3794 N 365.091 -1.34144 -0.827227 0
M  V30 3795 C 366.038 -1.25364 -1.93785 0
M  V30 3796 C 367.008 -0.129774 -1.65592 0
M  V30 3797 O 368.193 -0.310024 -1.88264 0
M  V30 3798 C 365.333 -1.01064 -3.2997 0
M  V30 3799 C 364.446 -2.22185 -3.70484 0
M  V30 3800 C 363.581 -1.91203 -4.95595 0
M  V30 3801 C 362.62 -3.08491 -5.28677 0
M  V30 3802 N 361.757 -2.77421 -6.44967 0
M  V30 3803 H 366.597 -2.20347 -2.00627 0
M  V30 3804 H 364.134 -1.09558 -0.981608 0
M  V30 3805 H 366.092 -0.850139 -4.08446 0
M  V30 3806 H 364.722 -0.0975026 -3.22653 0
M  V30 3807 H 363.774 -2.4917 -2.87434 0
M  V30 3808 H 365.086 -3.0983 -3.90905 0
M  V30 3809 H 364.24 -1.71864 -5.81848 0
M  V30 3810 H 362.979 -1.00812 -4.77167 0
M  V30 3811 H 361.984 -3.28431 -4.40923 0
M  V30 3812 H 363.209 -3.99655 -5.49047 0
M  V30 3813 H 361.155 -1.89601 -6.28003 0
M  V30 3814 H 361.072 -3.58598 -6.6554 0
M  V30 3815 H 362.34 -2.61577 -7.34301 0
M  V30 3816 N 366.569 1.04691 -1.17803 0
M  V30 3817 C 367.985 1.29963 -0.926379 0
M  V30 3818 C 368.185 1.97251 0.411635 0
M  V30 3819 O 367.241 2.24922 1.14744 0
M  V30 3820 C 368.554 2.16447 -2.08737 0
M  V30 3821 C 370.102 2.29814 -2.12496 0
M  V30 3822 C 370.577 3.19661 -3.27995 0
M  V30 3823 N 372.068 3.27247 -3.27816 0
M  V30 3824 C 372.803 3.96906 -4.13827 0
M  V30 3825 N 372.299 4.6895 -5.09959 0
M  V30 3826 N 374.092 3.93122 -4.01761 0
M  V30 3827 H 366.243 0.594182 -2.0392 0
M  V30 3828 H 368.506 0.324649 -0.890678 0
M  V30 3829 H 368.212 1.74304 -3.05469 0
M  V30 3830 H 368.086 3.17103 -2.04268 0
M  V30 3831 H 370.473 2.71196 -1.16347 0
M  V30 3832 H 370.554 1.2877 -2.21025 0
M  V30 3833 H 370.198 2.78991 -4.24413 0
M  V30 3834 H 370.128 4.20722 -3.16703 0
M  V30 3835 H 372.619 2.75921 -2.58217 0
M  V30 3836 H 372.932 5.19679 -5.71974 0
M  V30 3837 H 371.277 4.67875 -5.13924 0
M  V30 3838 H 374.468 3.35967 -3.2595 0
M  V30 3839 H 374.641 4.47139 -4.6901 0
M  V30 3840 N 368.047 0.979072 1.23499 0
M  V30 3841 C 369.293 0.648178 1.92163 0
M  V30 3842 C 369.626 -0.816049 1.76222 0
M  V30 3843 O 368.901 -1.58849 1.12237 0
M  V30 3844 C 369.184 1.03773 3.44824 0
M  V30 3845 C 369.037 2.55948 3.69879 0
M  V30 3846 C 370.356 0.580653 4.36253 0
M  V30 3847 H 367.475 0.236952 0.69787 0
M  V30 3848 H 370.117 1.22012 1.45647 0
M  V30 3849 H 368.267 0.551058 3.84572 0
M  V30 3850 H 369.939 3.12179 3.3962 0
M  V30 3851 H 368.182 2.98641 3.14636 0
M  V30 3852 H 368.853 2.78255 4.76737 0
M  V30 3853 H 371.329 0.998465 4.03943 0
M  V30 3854 H 370.205 0.881663 5.41773 0
M  V30 3855 H 370.466 -0.519052 4.39042 0
M  V30 3856 N 369.525 -1.3858 0.750561 0
M  V30 3857 C 370.473 -2.32339 0.110162 0
M  V30 3858 C 371.467 -1.53864 -0.708674 0
M  V30 3859 O 372.673 -1.69417 -0.608112 0
M  V30 3860 H 369.048 -0.751812 0.0168275 0
M  V30 3861 H 371.019 -2.83959 0.917053 0
M  V30 3862 C 369.768 -3.39043 -0.771067 0
M  V30 3863 H 369.091 -3.99517 -0.150374 0
M  V30 3864 H 370.531 -4.07061 -1.1865 0
M  V30 3865 C 368.99 -2.77365 -1.91234 0
M  V30 3866 O 369.52 -2.66434 -3.00626 0
M  V30 3867 N 367.726 -2.35219 -1.70646 0
M  V30 3868 H 367.273 -2.4431 -0.81673 0
M  V30 3869 H 367.231 -1.94294 -2.47178 0
M  V30 3870 N 371.003 -0.499398 -1.49478 0
M  V30 3871 C 372.251 0.0455996 -2.02049 0
M  V30 3872 C 372.572 1.37633 -1.38138 0
M  V30 3873 O 371.842 1.8842 -0.536166 0
M  V30 3874 H 370.422 0.0198416 -0.746736 0
M  V30 3875 H 373.084 -0.656274 -1.83519 0
M  V30 3876 H 372.18 0.176445 -3.11601 0
M  V30 3877 N 372.481 1.55866 -0.233164 0
M  V30 3878 C 373.413 2.18099 0.704668 0
M  V30 3879 C 374.426 1.15334 1.14899 0
M  V30 3880 O 375.615 1.42262 1.07814 0
M  V30 3881 C 372.715 2.7592 1.96777 0
M  V30 3882 C 371.888 4.03969 1.67713 0
M  V30 3883 C 370.947 4.46242 2.78845 0
M  V30 3884 O 369.973 5.12903 2.46818 0
M  V30 3885 N 371.175 4.12886 4.08051 0
M  V30 3886 H 373.94 2.99205 0.172258 0
M  V30 3887 H 371.501 1.61815 -0.0525945 0
M  V30 3888 H 373.493 3.01165 2.70337 0
M  V30 3889 H 372.063 1.99051 2.41034 0
M  V30 3890 H 371.283 3.86459 0.777391 0
M  V30 3891 H 372.571 4.8748 1.4574 0
M  V30 3892 H 371.969 3.59342 4.3691 0
M  V30 3893 H 370.526 4.42997 4.78118 0
M  V30 3894 N 373.959 -0.0401083 1.57549 0
M  V30 3895 C 374.922 -1.02871 2.04817 0
M  V30 3896 C 375.922 -1.29708 0.950388 0
M  V30 3897 O 377.112 -1.24897 1.21435 0
M  V30 3898 C 374.244 -2.36443 2.45576 0
M  V30 3899 H 375.437 -0.620631 2.93408 0
M  V30 3900 H 372.99 -0.286667 1.53649 0
M  V30 3901 H 373.725 -2.82021 1.60108 0
M  V30 3902 H 373.51 -2.18296 3.25713 0
M  V30 3903 H 375 -3.07441 2.82612 0
M  V30 3904 N 375.437 -1.54477 -0.31217 0
M  V30 3905 C 376.853 -1.45442 -0.657185 0
M  V30 3906 C 377.053 -0.63653 -1.91182 0
M  V30 3907 O 376.109 -0.139815 -2.52113 0
M  V30 3908 C 377.422 -2.89287 -0.82058 0
M  V30 3909 C 378.97 -2.9926 -0.917188 0
M  V30 3910 C 379.445 -4.44279 -1.11267 0
M  V30 3911 N 380.936 -4.4794 -1.17914 0
M  V30 3912 C 381.671 -5.57318 -1.34848 0
M  V30 3913 N 381.167 -6.76642 -1.48752 0
M  V30 3914 N 382.96 -5.44986 -1.37647 0
M  V30 3915 H 375.111 -2.06129 0.512313 0
M  V30 3916 H 377.374 -0.933088 0.167485 0
M  V30 3917 H 377.08 -3.51687 0.0302604 0
M  V30 3918 H 376.954 -3.36061 -1.71298 0
M  V30 3919 H 379.341 -2.36981 -1.75852 0
M  V30 3920 H 379.422 -2.558 -0.00101257 0
M  V30 3921 H 379.066 -5.07149 -0.27614 0
M  V30 3922 H 378.996 -4.85359 -2.04289 0
M  V30 3923 H 381.487 -3.61969 -1.08567 0
M  V30 3924 H 381.8 -7.55758 -1.61397 0
M  V30 3925 H 380.145 -6.79529 -1.45828 0
M  V30 3926 H 383.336 -4.50715 -1.26388 0
M  V30 3927 H 383.509 -6.3028 -1.50501 0
M  V30 3928 N 376.915 0.57481 -1.46744 0
M  V30 3929 C 377.845 1.69337 -1.60771 0
M  V30 3930 C 378.826 1.63825 -0.457736 0
M  V30 3931 O 380.011 1.8172 -0.684947 0
M  V30 3932 C 377.141 3.0798 -1.60517 0
M  V30 3933 C 376.095 3.28327 -2.74564 0
M  V30 3934 C 375.421 4.67578 -2.59373 0
M  V30 3935 C 376.721 3.15398 -4.16319 0
M  V30 3936 H 378.415 1.57853 -2.54407 0
M  V30 3937 H 375.961 0.75799 -1.22436 0
M  V30 3938 H 377.914 3.86061 -1.68923 0
M  V30 3939 H 376.638 3.20381 -0.634305 0
M  V30 3940 H 375.297 2.52649 -2.65639 0
M  V30 3941 H 374.945 4.76755 -1.60353 0
M  V30 3942 H 374.645 4.82144 -3.35873 0
M  V30 3943 H 376.169 5.47817 -2.69682 0
M  V30 3944 H 377.583 3.83315 -4.26313 0
M  V30 3945 H 375.98 3.41482 -4.93468 0
M  V30 3946 H 377.05 2.12372 -4.3592 0
M  V30 3947 N 378.394 1.34581 0.820102 0
M  V30 3948 C 379.304 1.28471 1.96297 0
M  V30 3949 C 380.32 0.191902 1.72939 0
M  V30 3950 O 381.496 0.418879 1.96996 0
M  V30 3951 C 378.561 1.04281 3.30645 0
M  V30 3952 C 377.622 2.22745 3.66992 0
M  V30 3953 C 376.855 1.997 4.9493 0
M  V30 3954 O 377.078 0.956656 5.6232 0
M  V30 3955 O 376.012 2.86723 5.2922 0
M  V30 3956 H 379.838 2.24624 2.04396 0
M  V30 3957 H 377.423 1.14816 0.955913 0
M  V30 3958 H 379.305 0.925841 4.11104 0
M  V30 3959 H 377.98 0.111697 3.23507 0
M  V30 3960 H 376.887 2.40003 2.86966 0
M  V30 3961 H 378.22 3.14257 3.78819 0
M  V30 3962 N 379.872 -1.04064 1.18357 0
M  V30 3963 C 381.118 -1.77528 0.980397 0
M  V30 3964 C 381.451 -1.87948 -0.48879 0
M  V30 3965 O 380.726 -1.3876 -1.36293 0
M  V30 3966 C 381.009 -3.20797 1.63588 0
M  V30 3967 C 380.862 -3.1832 3.17793 0
M  V30 3968 C 382.181 -4.18911 1.34914 0
M  V30 3969 H 379.3 -0.644443 0.357578 0
M  V30 3970 H 381.942 -1.2156 1.46024 0
M  V30 3971 H 380.092 -3.68586 1.22788 0
M  V30 3972 H 381.764 -2.78521 3.67728 0
M  V30 3973 H 380.007 -2.56351 3.49952 0
M  V30 3974 H 380.678 -4.19489 3.58794 0
M  V30 3975 H 383.154 -3.7967 1.70265 0
M  V30 3976 H 382.03 -5.17374 1.83346 0
M  V30 3977 H 382.291 -4.41262 0.272027 0
M  V30 3978 N 381.35 -0.985608 -1.22978 0
M  V30 3979 C 382.575 -0.675254 -1.961 0
M  V30 3980 C 383 0.752154 -1.72407 0
M  V30 3981 O 382.358 1.5131 -0.998751 0
M  V30 3982 C 382.406 -0.977899 -3.47087 0
M  V30 3983 O 381.51 -0.072685 -4.12336 0
M  V30 3984 H 380.851 -0.253443 -0.613728 0
M  V30 3985 H 383.381 -1.32061 -1.56272 0
M  V30 3986 H 383.391 -0.916739 -3.97567 0
M  V30 3987 H 382.066 -2.01807 -3.63657 0
M  V30 3988 H 380.643 -0.188703 -3.72422 0
M  V30 3989 N 382.828 1.3818 -0.7579 0
M  V30 3990 C 384.076 1.99624 -0.315361 0
M  V30 3991 C 384.397 1.60464 1.10799 0
M  V30 3992 O 383.667 0.863507 1.75842 0
M  V30 3993 H 382.247 0.73831 -0.113611 0
M  V30 3994 H 384.909 1.68878 -0.972952 0
M  V30 3995 H 384.005 3.09754 -0.381931 0
M  V30 3996 N 384.306 0.507319 1.49211 0
M  V30 3997 C 385.254 -0.281364 2.30892 0
M  V30 3998 C 386.248 -0.95687 1.39787 0
M  V30 3999 O 387.454 -0.883838 1.56807 0
M  V30 4000 H 383.829 -0.109597 0.743971 0
M  V30 4001 H 385.8 0.42744 2.95323 0
M  V30 4002 C 384.549 -1.32918 3.21291 0
M  V30 4003 H 383.872 -0.818799 3.91326 0
M  V30 4004 H 385.312 -1.85288 3.81372 0
M  V30 4005 C 383.771 -2.35074 2.41333 0
M  V30 4006 O 384.301 -3.4108 2.12197 0
M  V30 4007 N 382.507 -2.07705 2.03241 0
M  V30 4008 H 382.054 -1.2152 2.27136 0
M  V30 4009 H 382.012 -2.76283 1.50051 0
M  V30 4010 N 385.784 -1.5574 0.241426 0
M  V30 4011 C 387.03 -1.99104 -0.385406 0
M  V30 4012 C 387.363 -1.1293 -1.57988 0
M  V30 4013 O 386.638 -0.191449 -1.93555 0
M  V30 4014 C 386.921 -3.51087 -0.800616 0
M  V30 4015 C 386.774 -4.48028 0.398874 0
M  V30 4016 C 388.093 -4.08015 -1.64959 0
M  V30 4017 H 385.212 -0.723848 -0.138614 0
M  V30 4018 H 387.854 -1.86903 0.341642 0
M  V30 4019 H 386.004 -3.61615 -1.4201 0
M  V30 4020 H 387.676 -4.49487 1.03726 0
M  V30 4021 H 385.919 -4.21077 1.04293 0
M  V30 4022 H 386.59 -5.51962 0.0651056 0
M  V30 4023 H 389.066 -4.00555 -1.12672 0
M  V30 4024 H 387.942 -5.14635 -1.90898 0
M  V30 4025 H 388.203 -3.56131 -2.61961 0
M  V30 4026 N 387.262 0.0317525 -1.57568 0
M  V30 4027 C 388.49 0.734949 -1.93407 0
M  V30 4028 C 388.905 1.69036 -0.84096 0
M  V30 4029 O 388.262 1.81582 0.182836 0
M  V30 4030 C 388.313 1.49432 -3.29169 0
M  V30 4031 O 388.034 0.577261 -4.3428 0
M  V30 4032 C 389.535 2.29492 -3.79273 0
M  V30 4033 H 386.755 0.206706 -0.638368 0
M  V30 4034 H 389.299 -0.00992046 -2.04498 0
M  V30 4035 H 387.454 2.1911 -3.19483 0
M  V30 4036 H 387.868 1.10952 -5.1263 0
M  V30 4037 H 389.342 2.78172 -4.76785 0
M  V30 4038 H 389.819 3.10794 -3.10328 0
M  V30 4039 H 390.425 1.64894 -3.92033 0
M  V30 4040 N 388.74 1.54641 0.303973 0
M  V30 4041 C 389.703 1.84646 1.35789 0
M  V30 4042 C 390.703 0.7192 1.4382 0
M  V30 4043 O 391.893 0.987491 1.43507 0
M  V30 4044 C 389.025 2.02407 2.74307 0
M  V30 4045 H 390.218 2.78829 1.10429 0
M  V30 4046 H 387.771 1.46658 0.540487 0
M  V30 4047 H 388.506 1.10502 3.04893 0
M  V30 4048 H 388.291 2.84453 2.69868 0
M  V30 4049 H 389.781 2.27002 3.50514 0
M  V30 4050 N 390.218 -0.567019 1.47046 0
M  V30 4051 C 391.128 -1.70247 1.6141 0
M  V30 4052 C 392.144 -1.66746 0.497157 0
M  V30 4053 O 393.32 -1.86371 0.763389 0
M  V30 4054 C 390.385 -3.06756 1.61561 0
M  V30 4055 C 389.446 -3.21399 2.84607 0
M  V30 4056 C 388.679 -4.51396 2.84741 0
M  V30 4057 O 388.902 -5.36255 1.94388 0
M  V30 4058 O 387.836 -4.69621 3.76483 0
M  V30 4059 H 391.662 -1.61073 2.57467 0
M  V30 4060 H 389.247 -0.735894 1.30019 0
M  V30 4061 H 391.129 -3.8801 1.64396 0
M  V30 4062 H 389.804 -3.16333 0.686684 0
M  V30 4063 H 388.711 -2.39579 2.8732 0
M  V30 4064 H 390.044 -3.16721 3.76761 0
M  V30 4065 N 391.696 -1.35014 -0.812953 0
M  V30 4066 C 392.924 -1.31031 -1.6012 0
M  V30 4067 C 393.339 0.113558 -1.88458 0
M  V30 4068 O 392.696 1.06363 -1.48301 0
M  V30 4069 C 392.747 -2.10872 -2.93624 0
M  V30 4070 O 392.468 -3.47706 -2.66518 0
M  V30 4071 C 393.969 -2.14401 -3.88004 0
M  V30 4072 H 391.189 -0.45037 -0.497401 0
M  V30 4073 H 393.733 -1.77775 -1.01076 0
M  V30 4074 H 391.888 -1.67744 -3.492 0
M  V30 4075 H 392.302 -3.89097 -3.51715 0
M  V30 4076 H 393.776 -2.74669 -4.78812 0
M  V30 4077 H 394.253 -1.14105 -4.24119 0
M  V30 4078 H 394.859 -2.57662 -3.38364 0
M  V30 4079 N 393.175 1.03435 -1.18907 0
M  V30 4080 C 394.105 2.13503 -0.945448 0
M  V30 4081 C 395.086 1.69682 0.119189 0
M  V30 4082 O 396.271 1.94169 -0.034707 0
M  V30 4083 C 393.401 3.44004 -0.477316 0
M  V30 4084 C 392.355 4.0148 -1.48316 0
M  V30 4085 C 391.681 5.27537 -0.872311 0
M  V30 4086 C 392.981 4.36921 -2.86177 0
M  V30 4087 H 394.675 2.34141 -1.86597 0
M  V30 4088 H 392.221 1.12523 -0.898584 0
M  V30 4089 H 394.174 4.20372 -0.294204 0
M  V30 4090 H 392.898 3.23072 0.478786 0
M  V30 4091 H 391.557 3.27201 -1.65332 0
M  V30 4092 H 391.205 5.02917 0.0911752 0
M  V30 4093 H 390.905 5.66954 -1.54393 0
M  V30 4094 H 392.429 6.06576 -0.699871 0
M  V30 4095 H 393.843 5.04248 -2.72776 0
M  V30 4096 H 392.24 4.87405 -3.50081 0
M  V30 4097 H 393.31 3.46466 -3.39248 0
M  V30 4098 N 394.653 0.992116 1.22453 0
M  V30 4099 C 396.069 0.702713 1.43297 0
M  V30 4100 C 396.269 -0.726909 1.87932 0
M  V30 4101 O 395.325 -1.49792 2.0327 0
M  V30 4102 C 396.638 1.70762 2.47509 0
M  V30 4103 C 398.186 1.72298 2.61309 0
M  V30 4104 C 398.661 2.71649 3.68742 0
M  V30 4105 N 400.152 2.70239 3.76199 0
M  V30 4106 C 400.887 3.43778 4.58917 0
M  V30 4107 N 400.383 4.26914 5.45633 0
M  V30 4108 N 402.176 3.32487 4.5322 0
M  V30 4109 H 394.327 1.91543 0.917871 0
M  V30 4110 H 396.59 0.826031 0.465162 0
M  V30 4111 H 396.296 2.73059 2.21657 0
M  V30 4112 H 396.17 1.49985 3.46099 0
M  V30 4113 H 398.557 0.706989 2.86506 0
M  V30 4114 H 398.638 1.97143 1.62997 0
M  V30 4115 H 398.282 3.73397 3.44292 0
M  V30 4116 H 398.212 2.44074 4.66622 0
M  V30 4117 H 400.703 2.09912 3.14237 0
M  V30 4118 H 401.016 4.79855 6.05771 0
M  V30 4119 H 399.361 4.31002 5.45218 0
M  V30 4120 H 402.552 2.6698 3.84499 0
M  V30 4121 H 402.725 3.90058 5.17454 0
M  V30 4122 N 396.131 -1.37776 0.765217 0
M  V30 4123 C 397.041 -2.34135 0.147666 0
M  V30 4124 C 398.057 -1.59854 -0.687215 0
M  V30 4125 O 399.233 -1.91983 -0.608659 0
M  V30 4126 C 396.298 -3.3901 -0.72617 0
M  V30 4127 C 395.359 -4.2912 0.124417 0
M  V30 4128 C 394.592 -5.28986 -0.707807 0
M  V30 4129 O 394.815 -5.36205 -1.94525 0
M  V30 4130 O 393.749 -6.01779 -0.12046 0
M  V30 4131 H 397.575 -2.88664 0.943758 0
M  V30 4132 H 395.16 -1.39824 0.526277 0
M  V30 4133 H 397.042 -4.03195 -1.22524 0
M  V30 4134 H 395.717 -2.86819 -1.50056 0
M  V30 4135 H 394.624 -3.68057 0.669696 0
M  V30 4136 H 395.957 -4.84598 0.861736 0
M  V30 4137 N 397.609 -0.515225 -1.4894 0
M  V30 4138 C 398.856 0.024215 -2.02486 0
M  V30 4139 C 399.184 1.35671 -1.39368 0
M  V30 4140 O 398.439 1.88566 -0.523574 0
M  V30 4141 C 398.738 0.210595 -3.56779 0
M  V30 4142 C 398.404 -1.04569 -4.38607 0
M  V30 4143 C 397.066 -1.39002 -4.60686 0
M  V30 4144 C 399.418 -1.88008 -4.86109 0
M  V30 4145 C 396.746 -2.568 -5.27514 0
M  V30 4146 C 399.098 -3.04972 -5.54234 0
M  V30 4147 C 397.762 -3.39768 -5.74555 0
M  V30 4148 H 397.032 0.00886088 -0.740947 0
M  V30 4149 H 399.679 -0.678263 -1.79086 0
M  V30 4150 H 397.984 0.99572 -3.78936 0
M  V30 4151 H 399.681 0.642659 -3.95817 0
M  V30 4152 H 396.271 -0.767497 -4.21672 0
M  V30 4153 H 400.455 -1.62719 -4.68867 0
M  V30 4154 H 395.711 -2.8398 -5.41447 0
M  V30 4155 H 399.885 -3.69943 -5.90013 0
M  V30 4156 H 397.512 -4.31148 -6.26112 0
M  V30 4157 N 399.087 1.5561 -0.249682 0
M  V30 4158 C 400.05 2.20217 0.635394 0
M  V30 4159 C 401.05 1.17227 1.10066 0
M  V30 4160 O 402.24 1.42292 1.00492 0
M  V30 4161 C 399.372 2.84794 1.87363 0
M  V30 4162 H 400.565 2.99814 0.0716752 0
M  V30 4163 H 398.118 1.563 -0.000153234 0
M  V30 4164 H 398.853 2.09142 2.47851 0
M  V30 4165 H 398.638 3.60241 1.5482 0
M  V30 4166 H 400.128 3.3423 2.5036 0
M  V30 4167 N 400.565 -0.0233959 1.57583 0
M  V30 4168 C 401.475 -1.03907 2.10334 0
M  V30 4169 C 402.491 -1.39257 1.04323 0
M  V30 4170 O 403.667 -1.48462 1.36091 0
M  V30 4171 C 400.732 -2.31938 2.57693 0
M  V30 4172 C 399.793 -2.03117 3.78209 0
M  V30 4173 C 399.026 -3.25043 4.233 0
M  V30 4174 O 399.249 -4.35916 3.67876 0
M  V30 4175 O 398.183 -3.10411 5.15683 0
M  V30 4176 H 402.009 -0.620748 2.97288 0
M  V30 4177 H 399.594 -0.240743 1.47448 0
M  V30 4178 H 401.476 -3.07196 2.88458 0
M  V30 4179 H 400.151 -2.73055 1.73847 0
M  V30 4180 H 399.058 -1.25408 3.52454 0
M  V30 4181 H 400.391 -1.66852 4.63056 0
M  V30 4182 N 402.043 -1.548 -0.295768 0
M  V30 4183 C 403.271 -1.78327 -1.04914 0
M  V30 4184 C 403.686 -0.545316 -1.80753 0
M  V30 4185 O 403.043 0.485013 -1.75937 0
M  V30 4186 C 403.094 -2.99418 -2.02561 0
M  V30 4187 O 402.815 -4.18431 -1.29798 0
M  V30 4188 C 404.316 -3.35375 -2.89895 0
M  V30 4189 H 401.536 -0.594618 -0.310918 0
M  V30 4190 H 404.08 -2.01763 -0.333454 0
M  V30 4191 H 402.235 -2.78175 -2.69624 0
M  V30 4192 H 402.649 -4.86736 -1.95419 0
M  V30 4193 H 404.123 -4.23332 -3.54251 0
M  V30 4194 H 404.6 -2.53761 -3.58472 0
M  V30 4195 H 405.206 -3.58796 -2.28355 0
M  V30 4196 N 403.521 0.559213 -1.47345 0
M  V30 4197 C 404.769 1.31388 -1.53563 0
M  V30 4198 C 405.09 1.93985 -0.198678 0
M  V30 4199 O 404.36 1.79825 0.777167 0
M  V30 4200 H 402.94 0.487901 -0.565652 0
M  V30 4201 H 405.602 0.65315 -1.8363 0
M  V30 4202 H 404.698 2.10844 -2.30111 0
M  V30 4203 N 404.999 1.35443 0.805782 0
M  V30 4204 C 406.245 1.28952 1.56522 0
M  V30 4205 C 406.578 -0.135597 1.93726 0
M  V30 4206 O 405.853 -1.08516 1.61414 0
M  V30 4207 C 406.136 2.19678 2.85331 0
M  V30 4208 C 405.989 3.7081 2.54598 0
M  V30 4209 C 407.308 2.09495 3.8704 0
M  V30 4210 H 404.427 0.469764 0.567883 0
M  V30 4211 H 407.069 1.65851 0.927001 0
M  V30 4212 H 405.219 1.8834 3.39795 0
M  V30 4213 H 406.891 4.12593 2.06312 0
M  V30 4214 H 405.134 3.91051 1.8778 0
M  V30 4215 H 405.805 4.29679 3.46525 0
M  V30 4216 H 408.281 2.37045 3.41978 0
M  V30 4217 H 407.157 2.75173 4.74943 0
M  V30 4218 H 407.418 1.07714 4.28777 0
M  V30 4219 N 406.477 -1.02803 1.19454 0
M  V30 4220 C 407.754 -1.73299 0.907013 0
M  V30 4221 C 408.134 -2.02772 -0.587086 0
M  V30 4222 O 407.482 -1.68304 -1.54551 0
M  V30 4223 C 407.692 -3.00912 1.76785 0
M  V30 4224 C 409.04 -3.74403 2.00268 0
M  V30 4225 O 410.064 -3.10841 1.73943 0
M  V30 4226 O 408.923 -4.88675 2.4466 0
M  V30 4227 H 406.017 -0.754727 0.338106 0
M  V30 4228 H 408.563 -1.08754 1.30271 0
M  V30 4229 H 407.335 -2.75366 2.7801 0
M  V30 4230 H 406.958 -3.73197 1.37149 0
M  V30 4231 N 407.956 -0.998596 -1.21925 0
M  V30 4232 C 409.203 -0.677663 -1.90824 0
M  V30 4233 C 409.531 0.790905 -1.77693 0
M  V30 4234 O 408.786 1.58817 -1.14349 0
M  V30 4235 C 409.085 -1.03648 -3.42041 0
M  V30 4236 C 408.751 -2.49825 -3.75364 0
M  V30 4237 C 407.413 -2.8977 -3.8417 0
M  V30 4238 C 409.765 -3.44545 -3.91073 0
M  V30 4239 C 407.093 -4.23412 -4.06127 0
M  V30 4240 C 409.445 -4.77853 -4.14535 0
M  V30 4241 C 408.109 -5.17531 -4.21566 0
M  V30 4242 H 407.379 -0.247975 -0.698276 0
M  V30 4243 H 410.026 -1.25584 -1.44571 0
M  V30 4244 H 408.331 -0.376457 -3.89987 0
M  V30 4245 H 410.028 -0.766113 -3.93614 0
M  V30 4246 H 406.618 -2.17866 -3.69097 0
M  V30 4247 H 410.802 -3.14853 -3.83642 0
M  V30 4248 H 406.058 -4.53734 -4.09799 0
M  V30 4249 H 410.232 -5.51189 -4.25633 0
M  V30 4250 H 407.859 -6.21102 -4.38333 0
M  V30 4251 N 409.434 1.37368 -0.772513 0
M  V30 4252 C 410.683 1.98918 -0.333861 0
M  V30 4253 C 410.996 1.62017 1.09589 0
M  V30 4254 O 412.202 2.16676 1.63596 0
M  V30 4255 C 410.658 3.55735 -0.545971 0
M  V30 4256 C 410.266 4.01573 -1.98603 0
M  V30 4257 C 412.01 4.24156 -0.170979 0
M  V30 4258 C 409.917 5.51102 -2.1457 0
M  V30 4259 H 408.847 0.744214 -0.121085 0
M  V30 4260 H 411.498 1.56888 -0.95175 0
M  V30 4261 H 409.88 3.95748 0.141387 0
M  V30 4262 H 411.054 3.72803 -2.7084 0
M  V30 4263 H 409.369 3.45937 -2.31769 0
M  V30 4264 H 411.966 5.34024 -0.26878 0
M  V30 4265 H 412.309 4.06917 0.878855 0
M  V30 4266 H 412.842 3.89447 -0.810914 0
M  V30 4267 H 409.581 5.73268 -3.17875 0
M  V30 4268 H 409.101 5.81554 -1.46817 0
M  V30 4269 H 410.78 6.17083 -1.94468 0
M  V30 4270 N 410.912 0.523116 1.48665 0
M  V30 4271 C 412.137 -0.0117284 2.07397 0
M  V30 4272 C 412.562 -1.28031 1.37803 0
M  V30 4273 O 411.92 -1.75836 0.441762 0
M  V30 4274 C 411.968 -0.225786 3.59892 0
M  V30 4275 O 411.072 -1.29592 3.91509 0
M  V30 4276 H 410.413 0.0360673 0.66302 0
M  V30 4277 H 412.943 0.729066 1.9117 0
M  V30 4278 H 412.953 -0.450552 4.05505 0
M  V30 4279 H 411.628 0.700944 4.09951 0
M  V30 4280 H 410.205 -1.05436 3.57684 0
M  V30 4281 N 412.39 -1.55475 0.257931 0
M  V30 4282 C 413.636 -1.99502 -0.364266 0
M  V30 4283 C 413.969 -1.146 -1.56782 0
M  V30 4284 O 413.244 -0.211968 -1.93342 0
M  V30 4285 C 413.527 -3.51917 -0.763333 0
M  V30 4286 C 413.38 -4.4758 0.446371 0
M  V30 4287 C 414.699 -4.09742 -1.60623 0
M  V30 4288 H 411.818 -0.725277 -0.130929 0
M  V30 4289 H 414.46 -1.8653 0.361446 0
M  V30 4290 H 412.61 -3.63101 -1.38166 0
M  V30 4291 H 414.282 -4.48362 1.08487 0
M  V30 4292 H 412.525 -4.19947 1.08753 0
M  V30 4293 H 413.196 -5.51862 0.123645 0
M  V30 4294 H 415.672 -4.01727 -1.08418 0
M  V30 4295 H 414.548 -5.16631 -1.85429 0
M  V30 4296 H 414.809 -3.58889 -2.58169 0
M  V30 4297 N 413.868 0.0150385 -1.57593 0
M  V30 4298 C 415.116 0.701613 -1.8953 0
M  V30 4299 C 415.437 1.75139 -0.857396 0
M  V30 4300 O 414.707 1.95607 0.107194 0
M  V30 4301 H 413.287 0.26213 -0.699498 0
M  V30 4302 H 415.949 -0.0223304 -1.94887 0
M  V30 4303 H 415.045 1.18236 -2.88837 0
M  V30 4304 N 415.346 1.54954 0.287554 0
M  V30 4305 C 416.309 1.86076 1.33823 0
M  V30 4306 C 417.309 0.734414 1.43049 0
M  V30 4307 O 418.499 1.00266 1.42452 0
M  V30 4308 C 415.631 2.05305 2.72144 0
M  V30 4309 H 416.824 2.79984 1.07465 0
M  V30 4310 H 414.377 1.47223 0.524902 0
M  V30 4311 H 415.112 1.1373 3.03704 0
M  V30 4312 H 414.897 2.873 2.66836 0
M  V30 4313 H 416.387 2.30706 3.48087 0
M  V30 4314 N 416.824 -0.551391 1.4764 0
M  V30 4315 C 417.754 -1.66757 1.63445 0
M  V30 4316 C 418.735 -1.63077 0.483742 0
M  V30 4317 O 419.92 -1.80607 0.71377 0
M  V30 4318 C 417.05 -3.05387 1.65396 0
M  V30 4319 C 416.004 -3.23918 2.79752 0
M  V30 4320 C 415.33 -4.63393 2.66779 0
M  V30 4321 C 416.63 -3.08735 4.21284 0
M  V30 4322 H 418.324 -1.53786 2.56886 0
M  V30 4323 H 415.87 -0.738415 1.23626 0
M  V30 4324 H 417.823 -3.83325 1.75043 0
M  V30 4325 H 416.547 -3.19332 0.685195 0
M  V30 4326 H 415.206 -2.48391 2.69625 0
M  V30 4327 H 414.854 -4.74144 1.67918 0
M  V30 4328 H 414.554 -4.7674 3.43501 0
M  V30 4329 H 416.078 -5.43458 2.78364 0
M  V30 4330 H 417.492 -3.76484 4.32357 0
M  V30 4331 H 415.889 -3.33588 4.98838 0
M  V30 4332 H 416.959 -2.0541 4.39243 0
M  V30 4333 N 418.302 -1.35869 -0.798587 0
M  V30 4334 C 419.53 -1.32722 -1.58722 0
M  V30 4335 C 419.945 0.0935631 -1.88568 0
M  V30 4336 O 419.302 1.04784 -1.49421 0
M  V30 4337 C 419.353 -2.13974 -2.91371 0
M  V30 4338 O 419.074 -3.50514 -2.62815 0
M  V30 4339 C 420.575 -2.18504 -3.85708 0
M  V30 4340 H 417.795 -0.45562 -0.492596 0
M  V30 4341 H 420.339 -1.78837 -0.991843 0
M  V30 4342 H 418.494 -1.71438 -3.47402 0
M  V30 4343 H 418.908 -3.92806 -3.47568 0
M  V30 4344 H 420.382 -2.79732 -4.75872 0
M  V30 4345 H 420.859 -1.18597 -4.22885 0
M  V30 4346 H 421.465 -2.61236 -3.35612 0
M  V30 4347 N 419.78 1.02168 -1.19998 0
M  V30 4348 C 420.727 2.10601 -0.944228 0
M  V30 4349 C 421.697 1.65639 0.123664 0
M  V30 4350 O 422.882 1.9079 -0.0199941 0
M  V30 4351 C 420.022 3.41504 -0.496865 0
M  V30 4352 C 419.135 3.99973 -1.63234 0
M  V30 4353 C 418.27 5.18915 -1.13579 0
M  V30 4354 C 417.309 5.69456 -2.24468 0
M  V30 4355 N 416.446 6.79665 -1.76068 0
M  V30 4356 H 421.286 2.31814 -1.8726 0
M  V30 4357 H 418.823 1.13686 -0.933483 0
M  V30 4358 H 420.781 4.16626 -0.218843 0
M  V30 4359 H 419.411 3.2038 0.394508 0
M  V30 4360 H 418.463 3.21997 -2.0254 0
M  V30 4361 H 419.775 4.33492 -2.46752 0
M  V30 4362 H 418.929 6.01222 -0.813429 0
M  V30 4363 H 417.668 4.8695 -0.270434 0
M  V30 4364 H 416.673 4.85757 -2.57526 0
M  V30 4365 H 417.898 6.03459 -3.11472 0
M  V30 4366 H 415.844 6.49538 -0.918516 0
M  V30 4367 H 415.761 7.12349 -2.5317 0
M  V30 4368 H 417.029 7.65549 -1.46817 0
M  V30 4369 N 421.258 1.00505 1.21394 0
M  V30 4370 C 422.208 0.536503 2.21598 0
M  V30 4371 C 423.192 -0.401914 1.55799 0
M  V30 4372 O 424.384 -0.226757 1.75541 0
M  V30 4373 C 421.513 -0.135446 3.43033 0
M  V30 4374 C 420.599 0.823992 4.16018 0
M  V30 4375 N 420.99 1.97683 4.6557 0
M  V30 4376 C 419.288 0.642387 4.4135 0
M  V30 4377 C 419.989 2.58003 5.21354 0
M  V30 4378 N 418.965 1.86162 5.1073 0
M  V30 4379 H 422.767 1.41557 2.57563 0
M  V30 4380 H 420.281 0.868878 1.37202 0
M  V30 4381 H 422.278 -0.488584 4.14027 0
M  V30 4382 H 420.938 -1.01049 3.08576 0
M  V30 4383 H 421.949 2.3572 4.61147 0
M  V30 4384 H 418.626 -0.185578 4.17087 0
M  V30 4385 H 420.016 3.555 5.70149 0
M  V30 4386 N 422.737 -1.36956 0.779787 0
M  V30 4387 C 423.983 -1.99787 0.348281 0
M  V30 4388 C 424.316 -1.61756 -1.07465 0
M  V30 4389 O 423.591 -0.867639 -1.74075 0
M  V30 4390 C 423.874 -3.56597 0.50104 0
M  V30 4391 C 423.727 -4.04513 1.96697 0
M  V30 4392 C 425.046 -4.40008 -0.0898097 0
M  V30 4393 H 422.165 -0.725796 0.128022 0
M  V30 4394 H 424.807 -1.62514 0.984331 0
M  V30 4395 H 422.957 -3.88479 -0.0404347 0
M  V30 4396 H 424.629 -3.83161 2.56876 0
M  V30 4397 H 422.872 -3.56408 2.47297 0
M  V30 4398 H 423.543 -5.1352 2.02486 0
M  V30 4399 H 426.019 -4.14431 0.372293 0
M  V30 4400 H 424.895 -5.4888 0.0471605 0
M  V30 4401 H 425.156 -4.26035 -1.18096 0
M  V30 4402 N 424.215 -0.530993 -1.48385 0
M  V30 4403 C 425.631 -0.188919 -1.58478 0
M  V30 4404 C 425.831 1.30786 -1.53288 0
M  V30 4405 O 424.887 2.08619 -1.42248 0
M  V30 4406 C 426.2 -0.792343 -2.90073 0
M  V30 4407 C 427.748 -0.76117 -3.03604 0
M  V30 4408 C 428.223 -1.34319 -4.37861 0
M  V30 4409 N 429.714 -1.3052 -4.44431 0
M  V30 4410 C 430.449 -1.72543 -5.46824 0
M  V30 4411 N 429.945 -2.22299 -6.56167 0
M  V30 4412 N 431.738 -1.63773 -5.37712 0
M  V30 4413 H 423.889 -1.50377 -1.50002 0
M  V30 4414 H 426.152 -0.625559 -0.712306 0
M  V30 4415 H 425.858 -1.84323 -2.99529 0
M  V30 4416 H 425.732 -0.270026 -3.76232 0
M  V30 4417 H 428.119 0.280957 -2.93759 0
M  V30 4418 H 428.2 -1.32097 -2.19053 0
M  V30 4419 H 427.844 -2.38425 -4.4846 0
M  V30 4420 H 427.774 -0.759064 -5.21101 0
M  V30 4421 H 430.265 -0.940973 -3.65997 0
M  V30 4422 H 430.578 -2.52356 -7.30436 0
M  V30 4423 H 428.923 -2.26293 -6.57127 0
M  V30 4424 H 432.114 -1.24698 -4.51185 0
M  V30 4425 H 432.287 -1.96844 -6.17379 0
M  V30 4426 N 425.693 1.55336 -0.266172 0
M  V30 4427 C 426.656 2.20878 0.612001 0
M  V30 4428 C 427.656 1.18388 1.08816 0
M  V30 4429 O 428.846 1.4335 0.989774 0
M  V30 4430 C 425.978 2.86765 1.84332 0
M  V30 4431 H 427.171 2.99873 0.0398718 0
M  V30 4432 H 424.724 1.56291 -0.0167309 0
M  V30 4433 H 425.459 2.11759 2.45619 0
M  V30 4434 H 425.244 3.61862 1.5099 0
M  V30 4435 H 426.734 3.36867 2.46801 0
M  V30 4436 N 427.171 -0.0066808 1.57599 0
M  V30 4437 C 428.101 -0.999296 2.11036 0
M  V30 4438 C 429.082 -1.36278 1.01795 0
M  V30 4439 O 430.267 -1.4477 1.29442 0
M  V30 4440 C 427.397 -2.29328 2.60818 0
M  V30 4441 C 426.351 -2.07159 3.74525 0
M  V30 4442 C 425.677 -3.42512 4.10596 0
M  V30 4443 C 426.977 -1.43959 5.02069 0
M  V30 4444 H 428.671 -0.554382 2.94223 0
M  V30 4445 H 426.217 -0.265221 1.41536 0
M  V30 4446 H 428.17 -2.99117 2.96828 0
M  V30 4447 H 426.894 -2.7592 1.74745 0
M  V30 4448 H 425.553 -1.39797 3.38899 0
M  V30 4449 H 425.201 -3.86795 3.21556 0
M  V30 4450 H 424.901 -3.28498 4.87199 0
M  V30 4451 H 426.425 -4.13628 4.4916 0
M  V30 4452 H 427.839 -2.03696 5.35893 0
M  V30 4453 H 426.236 -1.40452 5.83432 0
M  V30 4454 H 427.306 -0.407992 4.83181 0
M  V30 4455 N 428.649 -1.55105 -0.279332 0
M  V30 4456 C 429.926 -1.66119 -1.03267 0
M  V30 4457 C 430.306 -0.523525 -2.04505 0
M  V30 4458 O 429.654 0.477194 -2.23462 0
M  V30 4459 C 429.864 -3.05067 -1.69515 0
M  V30 4460 C 431.212 -3.62606 -2.20912 0
M  V30 4461 O 432.236 -3.07659 -1.79512 0
M  V30 4462 O 431.095 -4.58861 -2.96831 0
M  V30 4463 H 428.189 -0.674429 -0.478618 0
M  V30 4464 H 430.735 -1.67446 -0.275694 0
M  V30 4465 H 429.507 -3.79311 -0.9612 0
M  V30 4466 H 429.13 -3.07611 -2.51915 0
M  V30 4467 N 430.127 0.543554 -1.4793 0
M  V30 4468 C 431.057 1.65888 -1.64327 0
M  V30 4469 C 432.038 1.62818 -0.492383 0
M  V30 4470 O 433.223 1.80226 -0.723338 0
M  V30 4471 C 430.353 3.04506 -1.67013 0
M  V30 4472 C 429.307 3.2243 -2.81466 0
M  V30 4473 C 428.633 4.61972 -2.69233 0
M  V30 4474 C 429.933 3.06496 -4.22915 0
M  V30 4475 H 431.627 1.52421 -2.57698 0
M  V30 4476 H 429.173 0.731849 -1.24016 0
M  V30 4477 H 431.126 3.82391 -1.77074 0
M  V30 4478 H 429.85 3.18964 -0.70212 0
M  V30 4479 H 428.509 2.46957 -2.70938 0
M  V30 4480 H 428.157 4.73247 -1.7043 0
M  V30 4481 H 427.857 4.74911 -3.46025 0
M  V30 4482 H 429.381 5.41974 -2.81242 0
M  V30 4483 H 430.795 3.74186 -4.34348 0
M  V30 4484 H 429.192 3.30938 -5.006 0
M  V30 4485 H 430.262 2.03077 -4.40327 0
M  V30 4486 N 431.605 1.3629 0.791371 0
M  V30 4487 C 432.83 1.33726 1.58531 0
M  V30 4488 C 433.255 -0.0794933 1.87932 0
M  V30 4489 O 432.613 -1.05087 1.47738 0
M  V30 4490 C 432.661 2.16425 2.88431 0
M  V30 4491 O 431.765 1.5554 3.81944 0
M  V30 4492 H 431.106 0.457793 0.480959 0
M  V30 4493 H 433.636 1.79547 0.981031 0
M  V30 4494 H 433.646 2.28933 3.37718 0
M  V30 4495 H 432.321 3.19415 2.66359 0
M  V30 4496 H 430.898 1.51961 3.40532 0
M  V30 4497 N 433.083 -1.0153 1.20538 0
M  V30 4498 C 434.016 -2.09759 0.898695 0
M  V30 4499 C 434.994 -1.61909 -0.149733 0
M  V30 4500 O 436.178 -1.88486 -0.0230293 0
M  V30 4501 C 433.305 -3.36913 0.347512 0
M  V30 4502 C 432.351 -4.03655 1.37713 0
M  V30 4503 S 433.184 -4.47402 2.94265 0
M  V30 4504 C 434.34 -5.77756 2.40726 0
M  V30 4505 H 434.573 -2.3545 1.81523 0
M  V30 4506 H 432.106 -1.14665 1.03399 0
M  V30 4507 H 434.064 -4.10484 0.0360518 0
M  V30 4508 H 432.725 -3.09291 -0.547546 0
M  V30 4509 H 431.918 -4.9514 0.940872 0
M  V30 4510 H 431.52 -3.36313 1.63614 0
M  V30 4511 H 433.812 -6.52994 1.80569 0
M  V30 4512 H 434.755 -6.2618 3.30612 0
M  V30 4513 H 435.163 -5.34081 1.82806 0
M  V30 4514 N 434.561 -1.01147 -1.20859 0
M  V30 4515 C 435.977 -0.725422 -1.42161 0
M  V30 4516 C 436.177 0.696919 -1.89064 0
M  V30 4517 O 435.233 1.46539 -2.05627 0
M  V30 4518 C 436.546 -1.74678 -2.44761 0
M  V30 4519 C 438.094 -1.76433 -2.58535 0
M  V30 4520 C 438.569 -2.77481 -3.64374 0
M  V30 4521 N 440.06 -2.76189 -3.71852 0
M  V30 4522 C 440.795 -3.51035 -4.53389 0
M  V30 4523 N 440.291 -4.35541 -5.38773 0
M  V30 4524 N 442.084 -3.39655 -4.47873 0
M  V30 4525 H 434.235 -1.92979 -0.887282 0
M  V30 4526 H 436.498 -0.833327 -0.451962 0
M  V30 4527 H 436.204 -2.76551 -2.17285 0
M  V30 4528 H 436.078 -1.55472 -3.43669 0
M  V30 4529 H 438.465 -0.75248 -2.85345 0
M  V30 4530 H 438.546 -1.99712 -1.5984 0
M  V30 4531 H 438.19 -3.78827 -3.38308 0
M  V30 4532 H 438.12 -2.51466 -4.6268 0
M  V30 4533 H 440.611 -2.14885 -3.10858 0
M  V30 4534 H 440.924 -4.89432 -5.98061 0
M  V30 4535 H 439.269 -4.39621 -5.38292 0
M  V30 4536 H 442.46 -2.73063 -3.80203 0
M  V30 4537 H 442.633 -3.9824 -5.11184 0
M  V30 4538 N 436.039 1.36541 -0.78704 0
M  V30 4539 C 437.286 1.99304 -0.358341 0
M  V30 4540 C 437.614 1.62467 1.06933 0
M  V30 4541 O 436.869 0.870019 1.75297 0
M  V30 4542 C 437.168 3.54343 -0.466485 0
M  V30 4543 C 436.834 4.10993 -1.85461 0
M  V30 4544 C 435.496 4.26177 -2.23443 0
M  V30 4545 C 437.848 4.41895 -2.76366 0
M  V30 4546 C 435.176 4.69573 -3.51736 0
M  V30 4547 C 437.528 4.86722 -4.04084 0
M  V30 4548 C 436.192 5.00112 -4.42091 0
M  V30 4549 H 435.462 0.729306 -0.131126 0
M  V30 4550 H 438.109 1.63068 -1.00404 0
M  V30 4551 H 436.414 3.90918 0.262719 0
M  V30 4552 H 438.111 4.00833 -0.115854 0
M  V30 4553 H 434.701 3.99612 -1.54946 0
M  V30 4554 H 438.885 4.29735 -2.48277 0
M  V30 4555 H 434.141 4.78127 -3.81057 0
M  V30 4556 H 438.315 5.09598 -4.7464 0
M  V30 4557 H 435.942 5.33498 -5.41557 0
M  V30 4558 N 437.518 0.538854 1.48102 0
M  V30 4559 C 438.758 0.0101209 2.04397 0
M  V30 4560 C 439.122 -1.30741 1.40609 0
M  V30 4561 O 440.323 -1.92272 1.87843 0
M  V30 4562 C 438.594 -0.100232 3.57259 0
M  V30 4563 S 440.153 -0.577746 4.3498 0
M  V30 4564 H 436.971 0.0163171 0.710813 0
M  V30 4565 H 439.573 0.721429 1.81702 0
M  V30 4566 H 438.277 0.863351 4.01216 0
M  V30 4567 H 437.808 -0.835651 3.84422 0
M  V30 4568 H 439.823 -1.84073 4.60794 0
M  V30 4569 O 439.035 -1.56041 0.416352 0
M  V30 4570 H 439.726 -1.93313 -0.122438 0
M  V30 END ATOM
M  V30 BEGIN BOND
M  V30 END BOND
M  V30 END CTAB
M  END
$$$$
