drugbank_target|Q16836 Hydroxyacyl-coenzyme A dehydrogenase, mitochondrial (DB00157; DB03059; DB03612; DB09568)
 OpenBabel12092119303D

  0  0  0     0  0            999 V3000
M  V30 BEGIN CTAB
M  V30 COUNTS 4882 4925 0 0 0
M  V30 BEGIN ATOM
M  V30 1 H -0.908 1.98254 -0.117106 0
M  V30 2 N 0 1.576 0 0
M  V30 3 C 0.933 2.03868 1.02534 0
M  V30 4 C 1.911 0.928543 1.3348 0
M  V30 5 O 3.095 1.19667 1.45644 0
M  V30 6 C 0.222 2.43627 2.35294 0
M  V30 7 C -0.732 3.65373 2.2001 0
M  V30 8 S 0.101 5.13292 1.52614 0
M  V30 9 C 1.257 5.56322 2.86805 0
M  V30 10 H 1.49 2.90518 0.631377 0
M  V30 11 H -0.977 1.52953 0.210867 0
M  V30 12 H 0.981 2.67203 3.11629 0
M  V30 13 H -0.358 1.57376 2.7183 0
M  V30 14 H -1.165 3.90944 3.18086 0
M  V30 15 H -1.563 3.418 1.51819 0
M  V30 16 H 0.729 5.58782 3.83104 0
M  V30 17 H 1.672 6.56266 2.65933 0
M  V30 18 H 2.08 4.83886 2.90714 0
M  V30 19 N 1.4781 -0.272755 1.55222 0
M  V30 20 C 2.4411 -1.32041 1.87344 0
M  V30 21 C 3.4411 -1.42342 0.74803 0
M  V30 22 O 4.6311 -1.41488 1.0162 0
M  V30 23 C 1.7631 -2.70173 2.07893 0
M  V30 24 H 2.9561 -1.04789 2.80997 0
M  V30 25 H 0.5091 -0.51083 1.47717 0
M  V30 26 H 1.2441 -3.02605 1.16622 0
M  V30 27 H 1.0291 -2.64082 2.89833 0
M  V30 28 H 2.5191 -3.45869 2.34017 0
M  V30 29 N 2.9562 -1.48159 -0.537278 0
M  V30 30 C 4.2032 -1.55804 -1.29349 0
M  V30 31 C 4.5312 -0.228802 -1.9315 0
M  V30 32 O 3.7862 0.780242 -1.79473 0
M  V30 33 C 4.0852 -2.63956 -2.40961 0
M  V30 34 C 3.7512 -4.0662 -1.94861 0
M  V30 35 C 2.4132 -4.45452 -1.82006 0
M  V30 36 C 4.7652 -4.96055 -1.59933 0
M  V30 37 C 2.0932 -5.71531 -1.32547 0
M  V30 38 C 4.4452 -6.22617 -1.11939 0
M  V30 39 C 3.1092 -6.60312 -0.976951 0
M  V30 40 H 2.3792 -0.570129 -0.473322 0
M  V30 41 H 5.0262 -1.81845 -0.600372 0
M  V30 42 H 3.3312 -2.31747 -3.15912 0
M  V30 43 H 5.0282 -2.67089 -2.99107 0
M  V30 44 H 1.6182 -3.75949 -2.05815 0
M  V30 45 H 5.8022 -4.66738 -1.68728 0
M  V30 46 H 1.0582 -5.99468 -1.202 0
M  V30 47 H 5.2322 -6.91318 -0.839811 0
M  V30 48 H 2.8592 -7.57895 -0.591501 0
M  V30 49 N 4.4343 0.785586 -1.36625 0
M  V30 50 C 5.6803 1.54591 -1.31261 0
M  V30 51 C 6.0133 1.93906 0.106823 0
M  V30 52 O 5.2883 1.63007 1.06108 0
M  V30 53 C 5.5713 2.82038 -2.23889 0
M  V30 54 C 5.4243 2.49066 -3.74548 0
M  V30 55 C 6.7433 3.83887 -2.15217 0
M  V30 56 H 3.8623 0.560846 -0.478143 0
M  V30 57 H 6.5043 0.902278 -1.67209 0
M  V30 58 H 4.6543 3.36961 -1.93363 0
M  V30 59 H 6.3263 2.00164 -4.15611 0
M  V30 60 H 4.5693 1.81954 -3.93796 0
M  V30 61 H 5.2403 3.40109 -4.34776 0
M  V30 62 H 7.7163 3.38421 -2.42096 0
M  V30 63 H 6.5923 4.70806 -2.82193 0
M  V30 64 H 6.8533 4.27131 -1.14068 0
M  V30 65 N 5.9124 1.20967 1.01018 0
M  V30 66 C 7.1404 1.04956 1.78303 0
M  V30 67 C 7.5554 -0.400915 1.84494 0
M  V30 68 O 6.9124 -1.27826 1.30257 0
M  V30 69 C 6.9634 1.63403 3.22462 0
M  V30 70 O 6.6844 3.02775 3.16637 0
M  V30 71 C 8.1854 1.52432 4.16268 0
M  V30 72 H 5.4054 0.368858 0.560522 0
M  V30 73 H 7.9494 1.60193 1.27116 0
M  V30 74 H 6.1044 1.1227 3.70775 0
M  V30 75 H 6.5184 3.30626 4.07169 0
M  V30 76 H 7.9924 1.98078 5.15237 0
M  V30 77 H 8.4694 0.477875 4.36592 0
M  V30 78 H 9.0754 2.02787 3.73841 0
M  V30 79 N 7.3905 -1.2043 1.01659 0
M  V30 80 C 8.8065 -1.41852 0.731442 0
M  V30 81 C 9.0065 -1.89358 -0.688898 0
M  V30 82 O 8.0625 -2.06247 -1.45666 0
M  V30 83 C 9.3755 -2.44019 1.75714 0
M  V30 84 C 10.9235 -2.57785 1.77527 0
M  V30 85 C 11.3985 -3.63194 2.79023 0
M  V30 86 N 12.8895 -3.70678 2.77763 0
M  V30 87 C 13.6245 -4.51897 3.52954 0
M  V30 88 N 13.1205 -5.36921 4.37821 0
M  V30 89 N 14.9135 -4.4643 3.41551 0
M  V30 90 H 7.0645 -0.879093 1.93354 0
M  V30 91 H 9.3275 -0.448425 0.835236 0
M  V30 92 H 9.0335 -2.1611 2.77469 0
M  V30 93 H 8.9075 -3.43007 1.56927 0
M  V30 94 H 11.2945 -2.85023 0.764569 0
M  V30 95 H 11.3755 -1.58992 2.00387 0
M  V30 96 H 11.0195 -3.36699 3.80258 0
M  V30 97 H 10.9495 -4.61609 2.53425 0
M  V30 98 H 13.4405 -3.09944 2.16201 0
M  V30 99 H 13.7535 -5.95981 4.91962 0
M  V30 100 H 12.0985 -5.36424 4.41899 0
M  V30 101 H 15.2895 -3.79042 2.74672 0
M  V30 102 H 15.4625 -5.09491 4.00404 0
M  V30 103 N 8.8686 -0.792821 -1.36206 0
M  V30 104 C 9.8006 -0.151469 -2.28699 0
M  V30 105 C 10.8136 0.641262 -1.49638 0
M  V30 106 O 12.0026 0.475885 -1.72039 0
M  V30 107 C 9.1026 0.808424 -3.29117 0
M  V30 108 C 8.2756 0.0650202 -4.37352 0
M  V30 109 C 7.3346 0.941358 -5.17711 0
M  V30 110 O 6.3606 0.397352 -5.67811 0
M  V30 111 N 7.5626 2.2652 -5.3448 0
M  V30 112 H 10.3276 -0.945982 -2.84379 0
M  V30 113 H 7.8886 -0.647032 -1.48409 0
M  V30 114 H 9.8806 1.3986 -3.79765 0
M  V30 115 H 8.4506 1.5038 -2.74052 0
M  V30 116 H 7.6706 -0.706255 -3.87822 0
M  V30 117 H 8.9586 -0.447847 -5.06825 0
M  V30 118 H 8.3566 2.73128 -4.95396 0
M  V30 119 H 6.9136 2.80493 -5.88359 0
M  V30 120 N 10.3467 1.47872 -0.545128 0
M  V30 121 C 11.5937 2.02493 -0.0165858 0
M  V30 122 C 11.9217 1.42073 1.32836 0
M  V30 123 O 11.1767 0.561459 1.87473 0
M  V30 124 C 11.4757 3.57131 0.13867 0
M  V30 125 C 11.1417 4.36411 -1.13384 0
M  V30 126 C 9.8037 4.57792 -1.48256 0
M  V30 127 C 12.1557 4.82223 -1.97764 0
M  V30 128 C 9.4837 5.22233 -2.67376 0
M  V30 129 C 11.8357 5.47977 -3.16076 0
M  V30 130 C 10.4997 5.67593 -3.51275 0
M  V30 131 H 9.7697 0.740975 -0.00606918 0
M  V30 132 H 12.4167 1.77683 -0.714207 0
M  V30 133 H 10.7217 3.80865 0.919172 0
M  V30 134 H 12.4187 3.97031 0.562782 0
M  V30 135 H 9.0087 4.2004 -0.852297 0
M  V30 136 H 13.1927 4.65493 -1.72132 0
M  V30 137 H 8.4487 5.35616 -2.94831 0
M  V30 138 H 12.6227 5.8244 -3.81755 0
M  V30 139 H 10.2497 6.17298 -4.43675 0
M  V30 140 N 11.8248 0.280983 1.55075 0
M  V30 141 C 12.7578 -0.645439 2.18882 0
M  V30 142 C 13.7358 -1.14786 1.15165 0
M  V30 143 O 14.9198 -1.21975 1.43716 0
M  V30 144 C 12.0468 -1.88088 2.81674 0
M  V30 145 C 11.0928 -1.51343 3.98745 0
M  V30 146 S 11.9258 -0.586548 5.32278 0
M  V30 147 C 13.0818 -1.83024 5.98543 0
M  V30 148 H 13.3148 -0.1033 2.9712 0
M  V30 149 H 10.8478 0.0652099 1.54262 0
M  V30 150 H 12.8058 -2.58997 3.18482 0
M  V30 151 H 11.4668 -2.39417 2.03318 0
M  V30 152 H 10.6598 -2.43289 4.41392 0
M  V30 153 H 10.2618 -0.884477 3.63391 0
M  V30 154 H 12.5538 -2.77342 6.18133 0
M  V30 155 H 13.4968 -1.44668 6.93164 0
M  V30 156 H 13.9048 -1.99785 5.27964 0
M  V30 157 N 13.3029 -1.57598 0.00835791 0
M  V30 158 C 14.7189 -1.55764 -0.347822 0
M  V30 159 C 14.9189 -1.01186 -1.74252 0
M  V30 160 O 13.9749 -0.649371 -2.44007 0
M  V30 161 C 15.2879 -2.99927 -0.215407 0
M  V30 162 C 16.8359 -3.11656 -0.289725 0
M  V30 163 C 17.3109 -4.57621 -0.18634 0
M  V30 164 N 18.8019 -4.62557 -0.243978 0
M  V30 165 C 19.5369 -5.73094 -0.18745 0
M  V30 166 N 19.0329 -6.92753 -0.0810331 0
M  V30 167 N 20.8259 -5.61588 -0.239925 0
M  V30 168 H 12.9769 -1.91411 0.92062 0
M  V30 169 H 15.2399 -0.879562 0.353659 0
M  V30 170 H 14.9459 -3.43729 0.744512 0
M  V30 171 H 14.8199 -3.63865 -0.994097 0
M  V30 172 H 17.2069 -2.67779 -1.24009 0
M  V30 173 H 17.2879 -2.5048 0.51898 0
M  V30 174 H 16.9319 -5.02174 0.760519 0
M  V30 175 H 16.8619 -5.16752 -1.01364 0
M  V30 176 H 19.3529 -3.76481 -0.327217 0
M  V30 177 H 19.6659 -7.72787 -0.0440241 0
M  V30 178 H 18.0109 -6.94984 -0.0465419 0
M  V30 179 H 21.2019 -4.66996 -0.321317 0
M  V30 180 H 21.3749 -6.47714 -0.192407 0
M  V30 181 N 14.781 0.264519 -1.55364 0
M  V30 182 C 16.006 1.01726 -1.80739 0
M  V30 183 C 16.431 1.78836 -0.583044 0
M  V30 184 O 15.789 1.75167 0.467566 0
M  V30 185 C 15.837 1.94482 -3.03659 0
M  V30 186 O 14.941 3.03386 -2.7934 0
M  V30 187 H 14.282 0.290395 -0.597132 0
M  V30 188 H 16.812 0.290854 -2.02522 0
M  V30 189 H 16.822 2.36278 -3.32621 0
M  V30 190 H 15.497 1.37772 -3.92418 0
M  V30 191 H 14.074 2.65844 -2.61498 0
M  V30 192 N 16.2591 1.48442 0.529413 0
M  V30 193 C 17.5051 1.5672 1.28711 0
M  V30 194 C 17.8381 0.2406 1.92704 0
M  V30 195 O 17.1131 -0.753454 1.79313 0
M  V30 196 C 17.3961 2.70587 2.37603 0
M  V30 197 C 17.2491 4.12953 1.78297 0
M  V30 198 C 18.5681 2.80212 3.39366 0
M  V30 199 H 15.6871 0.570474 0.466613 0
M  V30 200 H 18.3291 1.80617 0.589706 0
M  V30 201 H 16.4791 2.50342 2.97088 0
M  V30 202 H 18.1511 4.44639 1.22858 0
M  V30 203 H 16.3941 4.19927 1.0883 0
M  V30 204 H 17.0651 4.88448 2.57144 0
M  V30 205 H 19.5411 2.98553 2.89836 0
M  V30 206 H 18.4171 3.61611 4.12951 0
M  V30 207 H 18.6781 1.88393 3.99951 0
M  V30 208 N 17.7372 -0.778329 1.37039 0
M  V30 209 C 18.9622 -1.57248 1.35233 0
M  V30 210 C 19.3872 -1.87999 -0.0615568 0
M  V30 211 O 18.7452 -1.48734 -1.03672 0
M  V30 212 C 18.7932 -2.86353 2.19167 0
M  V30 213 O 17.8972 -3.80442 1.59178 0
M  V30 214 H 17.2382 -0.476569 0.462362 0
M  V30 215 H 19.7682 -0.963853 1.80474 0
M  V30 216 H 19.7782 -3.35519 2.32145 0
M  V30 217 H 18.4532 -2.63299 3.21942 0
M  V30 218 H 17.0302 -3.39067 1.55203 0
M  V30 219 N 19.2153 -1.21501 -1.00376 0
M  V30 220 C 20.4403 -1.05977 -1.78279 0
M  V30 221 C 20.8653 0.385994 -1.84097 0
M  V30 222 O 20.2233 1.27849 -1.28547 0
M  V30 223 C 20.2713 -1.66302 -3.19963 0
M  V30 224 O 19.3753 -0.909333 -4.0225 0
M  V30 225 H 18.7163 -0.372906 -0.549397 0
M  V30 226 H 21.2463 -1.6107 -1.26165 0
M  V30 227 H 21.2563 -1.70574 -3.70632 0
M  V30 228 H 19.9313 -2.71515 -3.15043 0
M  V30 229 H 18.5083 -0.941795 -3.60811 0
M  V30 230 N 20.6934 1.19889 -1.02296 0
M  V30 231 C 21.9184 1.9393 -0.735237 0
M  V30 232 C 22.3434 1.74639 0.698782 0
M  V30 233 O 21.7014 1.04481 1.48167 0
M  V30 234 C 21.7494 3.43916 -1.08417 0
M  V30 235 O 20.8534 4.11917 -0.199446 0
M  V30 236 H 20.1944 0.605645 -0.272196 0
M  V30 237 H 22.7244 1.52137 -1.36804 0
M  V30 238 H 22.7344 3.9456 -1.03856 0
M  V30 239 H 21.4094 3.5728 -2.12894 0
M  V30 240 H 19.9864 3.71666 -0.303136 0
M  V30 241 N 22.1715 0.800033 1.35784 0
M  V30 242 C 23.3965 0.388511 2.03729 0
M  V30 243 C 23.8215 -0.990481 1.5991 0
M  V30 244 O 23.1795 -1.64013 0.772612 0
M  V30 245 C 23.2275 0.4726 3.5749 0
M  V30 246 O 22.3315 -0.51646 4.09153 0
M  V30 247 H 21.6725 0.163271 0.643614 0
M  V30 248 H 24.2025 1.0841 1.73518 0
M  V30 249 H 24.2125 0.34003 4.06581 0
M  V30 250 H 22.8875 1.47848 3.88734 0
M  V30 251 H 21.4645 -0.344673 3.71304 0
M  V30 252 N 23.6496 -1.47581 0.552962 0
M  V30 253 C 24.8776 -2.06875 0.0320556 0
M  V30 254 C 25.2926 -1.40625 -1.25976 0
M  V30 255 O 24.6496 -0.501349 -1.75479 0
M  V30 256 C 24.7006 -3.61092 -0.17167 0
M  V30 257 O 24.4216 -4.24858 1.06899 0
M  V30 258 C 25.9226 -4.37242 -0.730344 0
M  V30 259 H 23.1426 -0.669561 0.043915 0
M  V30 260 H 25.6866 -1.89646 0.765163 0
M  V30 261 H 23.8416 -3.7785 -0.854894 0
M  V30 262 H 24.2556 -5.17334 0.864059 0
M  V30 263 H 25.7296 -5.45842 -0.822203 0
M  V30 264 H 26.2066 -4.03235 -1.74064 0
M  V30 265 H 26.8126 -4.25219 -0.0829543 0
M  V30 266 N 25.1277 -0.289203 -1.54924 0
M  V30 267 C 26.0907 0.579144 -2.21762 0
M  V30 268 C 27.0907 1.07047 -1.1999 0
M  V30 269 O 28.2807 0.968384 -1.44803 0
M  V30 270 C 25.4127 1.80055 -2.8947 0
M  V30 271 H 26.6057 -0.00464908 -2.999 0
M  V30 272 H 24.1587 -0.0399306 -1.56249 0
M  V30 273 H 24.8937 2.42449 -2.15381 0
M  V30 274 H 24.6787 1.45602 -3.64064 0
M  V30 275 H 26.1687 2.41773 -3.40493 0
M  V30 276 N 26.6058 1.57591 -0.0167156 0
M  V30 277 C 27.8308 1.9598 0.67872 0
M  V30 278 C 28.2558 0.892546 1.65575 0
M  V30 279 O 27.6138 -0.147772 1.80697 0
M  V30 280 C 27.6618 3.33468 1.37227 0
M  V30 281 O 26.7658 3.28954 2.48722 0
M  V30 282 H 26.1068 0.639339 0.17928 0
M  V30 283 H 28.6368 2.04463 -0.0748802 0
M  V30 284 H 28.6468 3.69417 1.7319 0
M  V30 285 H 27.3218 4.10694 0.656007 0
M  V30 286 H 25.8988 3.04705 2.14963 0
M  V30 287 N 28.0839 -0.256276 1.55502 0
M  V30 288 C 29.0469 -1.30047 1.88734 0
M  V30 289 C 30.0469 -1.4154 0.763086 0
M  V30 290 O 31.2369 -1.40403 1.03115 0
M  V30 291 C 28.3689 -2.67953 2.10747 0
M  V30 292 H 29.5619 -1.01802 2.82093 0
M  V30 293 H 27.1149 -0.495134 1.4825 0
M  V30 294 H 27.8499 -3.01351 1.19825 0
M  V30 295 H 27.6349 -2.60993 2.92617 0
M  V30 296 H 29.1249 -3.43368 2.37673 0
M  V30 297 N 29.562 -1.4872 -0.521534 0
M  V30 298 C 30.787 -1.61101 -1.30618 0
M  V30 299 C 31.212 -0.274611 -1.86085 0
M  V30 300 O 30.57 0.754937 -1.64834 0
M  V30 301 C 30.618 -2.66709 -2.4269 0
M  V30 302 O 29.722 -2.24456 -3.45967 0
M  V30 303 H 29.063 -0.539921 -0.386499 0
M  V30 304 H 31.593 -1.94767 -0.626645 0
M  V30 305 H 31.603 -2.88245 -2.88754 0
M  V30 306 H 30.278 -3.63727 -2.01682 0
M  V30 307 H 28.855 -2.13168 -3.05964 0
M  V30 308 N 31.0401 0.771051 -1.3745 0
M  V30 309 C 32.0031 1.86598 -1.33093 0
M  V30 310 C 33.0031 1.59076 -0.234845 0
M  V30 311 O 34.1931 1.67145 -0.490732 0
M  V30 312 C 31.3251 3.23747 -1.06773 0
M  V30 313 H 32.5181 1.91873 -2.30488 0
M  V30 314 H 30.0711 0.970876 -1.2249 0
M  V30 315 H 30.8061 3.24148 -0.099129 0
M  V30 316 H 30.5911 3.45115 -1.86112 0
M  V30 317 H 32.0811 4.03824 -1.06377 0
M  V30 318 N 32.5182 1.22032 0.997298 0
M  V30 319 C 33.4652 0.986467 2.08656 0
M  V30 320 C 34.4352 -0.0902671 1.65855 0
M  V30 321 O 35.6202 0.0584294 1.90711 0
M  V30 322 C 32.7602 0.565569 3.40434 0
M  V30 323 C 31.8732 1.71259 3.96604 0
M  V30 324 C 31.0082 1.24011 5.16522 0
M  V30 325 C 30.0472 2.35896 5.64818 0
M  V30 326 N 29.1842 1.89726 6.7598 0
M  V30 327 H 34.0242 1.91892 2.27994 0
M  V30 328 H 31.5612 0.956199 1.11782 0
M  V30 329 H 33.5192 0.302738 4.161 0
M  V30 330 H 32.1492 -0.329879 3.2111 0
M  V30 331 H 31.2012 2.08986 3.17851 0
M  V30 332 H 32.5132 2.55436 4.28432 0
M  V30 333 H 31.6672 0.934395 5.99461 0
M  V30 334 H 30.4062 0.368487 4.86306 0
M  V30 335 H 29.4112 2.67261 4.8047 0
M  V30 336 H 30.6362 3.23567 5.97061 0
M  V30 337 H 28.5822 1.0492 6.47555 0
M  V30 338 H 28.4992 2.67471 7.07103 0
M  V30 339 H 29.7672 1.62211 7.62435 0
M  V30 340 N 33.9963 -1.19345 1.0293 0
M  V30 341 C 34.9433 -2.2258 0.610464 0
M  V30 342 C 35.9133 -1.6179 -0.375946 0
M  V30 343 O 37.0983 -1.88844 -0.272511 0
M  V30 344 C 34.2383 -3.45085 -0.0321473 0
M  V30 345 C 33.3513 -4.20258 1.00035 0
M  V30 346 C 32.4863 -5.3019 0.32746 0
M  V30 347 C 31.5253 -5.97121 1.34584 0
M  V30 348 N 30.6623 -6.98615 0.698726 0
M  V30 349 H 35.5023 -2.57764 1.49538 0
M  V30 350 H 33.0393 -1.26644 0.748311 0
M  V30 351 H 34.9973 -4.15061 -0.421966 0
M  V30 352 H 33.6273 -3.10555 -0.88064 0
M  V30 353 H 32.6793 -3.49223 1.50823 0
M  V30 354 H 33.9913 -4.66175 1.77433 0
M  V30 355 H 33.1453 -6.06587 -0.11718 0
M  V30 356 H 31.8843 -4.85345 -0.478713 0
M  V30 357 H 30.8893 -5.19474 1.80074 0
M  V30 358 H 32.1143 -6.4405 2.15352 0
M  V30 359 H 30.0603 -6.55942 -0.0873471 0
M  V30 360 H 29.9773 -7.42724 1.41058 0
M  V30 361 H 31.2453 -7.79004 0.278102 0
M  V30 362 N 35.4744 -0.807222 -1.35358 0
M  V30 363 C 36.7234 -0.384376 -1.98004 0
M  V30 364 C 37.0364 1.0543 -1.64754 0
M  V30 365 O 38.2424 1.58029 -2.20769 0
M  V30 366 C 36.6984 -0.636326 -3.5423 0
M  V30 367 C 36.3064 -2.08759 -3.96388 0
M  V30 368 C 38.0504 -0.278869 -4.23583 0
M  V30 369 C 35.9574 -2.28525 -5.45463 0
M  V30 370 H 34.8874 -0.139986 -0.740891 0
M  V30 371 H 37.5384 -0.991369 -1.54415 0
M  V30 372 H 35.9204 0.0406256 -3.95979 0
M  V30 373 H 37.0944 -2.8024 -3.6579 0
M  V30 374 H 35.4094 -2.40497 -3.39926 0
M  V30 375 H 38.0064 -0.404599 -5.33167 0
M  V30 376 H 38.3494 0.775012 -4.09022 0
M  V30 377 H 38.8824 -0.909764 -3.87257 0
M  V30 378 H 35.6214 -3.32361 -5.64992 0
M  V30 379 H 35.1414 -1.61569 -5.77629 0
M  V30 380 H 36.8204 -2.10109 -6.11934 0
M  V30 381 N 36.9525 1.47285 -0.560781 0
M  V30 382 C 38.2015 2.01668 -0.035895 0
M  V30 383 C 38.5145 1.44021 1.32353 0
M  V30 384 O 39.7205 1.90088 1.93853 0
M  V30 385 C 38.1765 3.59897 -0.0136659 0
M  V30 386 C 37.7845 4.26536 -1.37006 0
M  V30 387 C 39.5285 4.22017 0.458425 0
M  V30 388 C 37.4355 5.76782 -1.30675 0
M  V30 389 H 36.3655 0.753938 -0.00964879 0
M  V30 390 H 39.0165 1.69243 -0.709166 0
M  V30 391 H 37.3985 3.89301 0.725325 0
M  V30 392 H 38.5725 4.0877 -2.12705 0
M  V30 393 H 36.8875 3.76419 -1.78038 0
M  V30 394 H 39.4845 5.32124 0.524247 0
M  V30 395 H 39.8275 3.89437 1.4712 0
M  V30 396 H 40.3605 3.97159 -0.225818 0
M  V30 397 H 37.0995 6.13988 -2.29564 0
M  V30 398 H 36.6195 5.96875 -0.591622 0
M  V30 399 H 38.2985 6.39063 -1.01033 0
M  V30 400 N 38.4306 0.297415 1.54768 0
M  V30 401 C 39.6766 -0.313376 2.00364 0
M  V30 402 C 40.0096 -1.53815 1.18553 0
M  V30 403 O 39.2846 -1.92739 0.261103 0
M  V30 404 C 39.5676 -0.673525 3.53745 0
M  V30 405 C 39.4206 0.560133 4.46299 0
M  V30 406 C 40.7396 -1.50143 4.13697 0
M  V30 407 H 37.8586 -0.112428 0.728374 0
M  V30 408 H 40.5006 0.4088 1.8555 0
M  V30 409 H 38.6506 -1.28881 3.665 0
M  V30 410 H 40.3226 1.19863 4.45455 0
M  V30 411 H 38.5656 1.19405 4.17043 0
M  V30 412 H 39.2366 0.26405 5.51368 0
M  V30 413 H 41.7126 -0.981588 4.04356 0
M  V30 414 H 40.5886 -1.72221 5.21182 0
M  V30 415 H 40.8496 -2.48952 3.65343 0
M  V30 416 N 39.9087 -1.5758 0.0250728 0
M  V30 417 C 40.8557 -2.09973 -0.958129 0
M  V30 418 C 41.8257 -1.00085 -1.3256 0
M  V30 419 O 43.0107 -1.27481 -1.41962 0
M  V30 420 C 40.1507 -2.62812 -2.2366 0
M  V30 421 C 39.2637 -3.86693 -1.92594 0
M  V30 422 C 38.3987 -4.27941 -3.14707 0
M  V30 423 C 37.4377 -5.44591 -2.79442 0
M  V30 424 N 36.5747 -5.81014 -3.94167 0
M  V30 425 H 41.4147 -2.937 -0.504428 0
M  V30 426 H 38.9517 -1.45172 -0.237392 0
M  V30 427 H 40.9097 -2.91536 -2.98434 0
M  V30 428 H 39.5397 -1.81922 -2.66654 0
M  V30 429 H 38.5917 -3.64723 -1.0808 0
M  V30 430 H 39.9037 -4.71547 -1.62619 0
M  V30 431 H 39.0577 -4.58079 -3.97804 0
M  V30 432 H 37.7967 -3.41845 -3.4784 0
M  V30 433 H 36.8017 -5.1415 -1.94755 0
M  V30 434 H 38.0267 -6.32382 -2.47528 0
M  V30 435 H 35.9727 -4.97874 -4.2715 0
M  V30 436 H 35.8897 -6.60498 -3.67801 0
M  V30 437 H 37.1577 -6.15756 -4.7798 0
M  V30 438 N 41.3868 0.248026 -1.55636 0
M  V30 439 C 42.3368 1.30994 -1.86614 0
M  V30 440 C 43.3208 1.43543 -0.726918 0
M  V30 441 O 44.5128 1.46804 -0.988818 0
M  V30 442 C 41.6418 2.6656 -2.16335 0
M  V30 443 C 40.7278 2.58019 -3.36581 0
M  V30 444 N 41.1188 2.1911 -4.55878 0
M  V30 445 C 39.4168 2.89035 -3.39669 0
M  V30 446 C 40.1178 2.21174 -5.38012 0
M  V30 447 N 39.0938 2.60632 -4.77045 0
M  V30 448 H 42.8958 0.999583 -2.76379 0
M  V30 449 H 40.4098 0.456652 -1.55848 0
M  V30 450 H 42.4068 3.43194 -2.36692 0
M  V30 451 H 41.0668 2.98463 -1.27867 0
M  V30 452 H 42.0778 1.90672 -4.81523 0
M  V30 453 H 38.7548 3.25485 -2.61469 0
M  V30 454 H 40.1448 1.9344 -6.43452 0
M  V30 455 N 42.8649 1.48995 0.513639 0
M  V30 456 C 44.1109 1.58076 1.27042 0
M  V30 457 C 44.4439 0.261026 1.92438 0
M  V30 458 O 43.7189 -0.734393 1.80103 0
M  V30 459 C 44.0019 2.73091 2.34719 0
M  V30 460 C 43.8549 4.14821 1.73907 0
M  V30 461 C 45.1739 2.83796 3.36375 0
M  V30 462 H 42.2929 0.575391 0.460536 0
M  V30 463 H 44.9349 1.81232 0.570516 0
M  V30 464 H 43.0849 2.53479 2.94416 0
M  V30 465 H 44.7569 4.45917 1.18135 0
M  V30 466 H 42.9999 4.21058 1.0437 0
M  V30 467 H 43.6709 4.91147 2.51949 0
M  V30 468 H 46.1469 3.01611 2.86653 0
M  V30 469 H 45.0229 3.65971 4.09093 0
M  V30 470 H 45.2839 1.92624 3.9793 0
M  V30 471 N 44.343 -0.763751 1.37857 0
M  V30 472 C 45.571 -1.55293 1.36718 0
M  V30 473 C 45.986 -1.88745 -0.0455434 0
M  V30 474 O 45.343 -1.52039 -1.00947 0
M  V30 475 C 45.394 -2.85831 2.2132 0
M  V30 476 O 45.115 -2.5381 3.57089 0
M  V30 477 C 46.616 -3.80023 2.28249 0
M  V30 478 H 43.836 -0.480841 0.468009 0
M  V30 479 H 46.38 -0.946009 1.81303 0
M  V30 480 H 44.535 -3.42926 1.80223 0
M  V30 481 H 44.949 -3.37459 4.01524 0
M  V30 482 H 46.423 -4.68599 2.91752 0
M  V30 483 H 46.9 -4.1973 1.2932 0
M  V30 484 H 47.506 -3.28855 2.69693 0
M  V30 485 N 45.8211 -1.22559 -0.990812 0
M  V30 486 C 47.0671 -1.05297 -1.73322 0
M  V30 487 C 47.4001 0.410655 -1.89808 0
M  V30 488 O 46.6751 1.30439 -1.44277 0
M  V30 489 C 46.9581 -1.76713 -3.13759 0
M  V30 490 C 46.8111 -3.30684 -3.04907 0
M  V30 491 C 48.1301 -1.52121 -4.12974 0
M  V30 492 H 45.2491 -0.38392 -0.629106 0
M  V30 493 H 47.8911 -1.50926 -1.15418 0
M  V30 494 H 46.0411 -1.37924 -3.63193 0
M  V30 495 H 47.7131 -3.7893 -2.63077 0
M  V30 496 H 45.9561 -3.60253 -2.41661 0
M  V30 497 H 46.6271 -3.75833 -4.04294 0
M  V30 498 H 49.1031 -1.85819 -3.72304 0
M  V30 499 H 47.9791 -2.04582 -5.0935 0
M  V30 500 H 48.2401 -0.454257 -4.3976 0
M  V30 501 N 47.2992 1.18797 -1.03562 0
M  V30 502 C 48.5482 1.87978 -0.731235 0
M  V30 503 C 48.8612 1.80911 0.743671 0
M  V30 504 O 50.0672 2.45407 1.16137 0
M  V30 505 C 48.5232 3.3721 -1.25768 0
M  V30 506 C 48.1312 3.52818 -2.76085 0
M  V30 507 C 49.8752 4.11825 -1.0296 0
M  V30 508 C 47.7822 4.9598 -3.22114 0
M  V30 509 H 46.7122 0.704063 -0.269835 0
M  V30 510 H 49.3632 1.34266 -1.25079 0
M  V30 511 H 47.7452 3.90359 -0.666011 0
M  V30 512 H 48.9192 3.09965 -3.40966 0
M  V30 513 H 47.2342 2.91602 -2.97249 0
M  V30 514 H 49.8312 5.17411 -1.34869 0
M  V30 515 H 50.1742 4.16287 0.0333546 0
M  V30 516 H 50.7072 3.64833 -1.58562 0
M  V30 517 H 47.4462 4.96684 -4.27768 0
M  V30 518 H 46.9662 5.39569 -2.61965 0
M  V30 519 H 48.6452 5.6467 -3.15844 0
M  V30 520 N 48.7773 0.814389 1.34928 0
M  V30 521 C 50.0253 0.397636 1.9815 0
M  V30 522 C 50.3463 -1.04069 1.64908 0
M  V30 523 O 49.6163 -1.72121 0.93548 0
M  V30 524 H 48.1963 0.144043 0.732981 0
M  V30 525 H 50.8583 1.04195 1.6471 0
M  V30 526 H 49.9543 0.509688 3.0791 0
M  V30 527 N 50.2554 -1.46986 0.568584 0
M  V30 528 C 51.5034 -2.02041 0.0487022 0
M  V30 529 C 51.8244 -1.44408 -1.31039 0
M  V30 530 O 51.0944 -0.623477 -1.85714 0
M  V30 531 H 49.6744 -0.746849 0.015014 0
M  V30 532 H 52.3364 -1.80257 0.741168 0
M  V30 533 H 51.4324 -3.12085 -0.0308961 0
M  V30 534 N 51.7335 -0.305618 -1.54608 0
M  V30 535 C 52.9815 0.301701 -1.99835 0
M  V30 536 C 53.3025 1.54054 -1.19551 0
M  V30 537 O 52.5725 1.93702 -0.292658 0
M  V30 538 H 51.1525 0.114468 -0.738178 0
M  V30 539 H 53.8145 -0.418016 -1.90364 0
M  V30 540 H 52.9105 0.570548 -3.06841 0
M  V30 541 N 53.2116 1.57565 -0.0334293 0
M  V30 542 C 54.1416 2.13511 0.945265 0
M  V30 543 C 55.1226 1.05231 1.33643 0
M  V30 544 O 56.3076 1.33084 1.41429 0
M  V30 545 C 53.4376 2.6657 2.22616 0
M  V30 546 C 52.3916 3.79676 1.97561 0
M  V30 547 C 51.7176 4.1918 3.31952 0
M  V30 548 C 53.0176 5.0557 1.31135 0
M  V30 549 H 54.7116 2.95538 0.479325 0
M  V30 550 H 52.2576 1.42166 0.229115 0
M  V30 551 H 54.2106 3.04344 2.91466 0
M  V30 552 H 52.9346 1.8171 2.71384 0
M  V30 553 H 51.5936 3.42347 1.31127 0
M  V30 554 H 51.2416 3.31296 3.78487 0
M  V30 555 H 50.9416 4.95402 3.15992 0
M  V30 556 H 52.4656 4.59541 4.02063 0
M  V30 557 H 53.8796 5.40903 1.89992 0
M  V30 558 H 52.2766 5.86818 1.25559 0
M  V30 559 H 53.3466 4.84062 0.284894 0
M  V30 560 N 54.6897 -0.239769 1.55765 0
M  V30 561 C 55.6227 -1.32356 1.85895 0
M  V30 562 C 56.6007 -1.46053 0.714662 0
M  V30 563 O 57.7847 -1.62154 0.961157 0
M  V30 564 C 54.9117 -2.6962 2.04994 0
M  V30 565 C 53.9577 -2.73036 3.27648 0
M  V30 566 S 54.7907 -2.28929 4.84099 0
M  V30 567 C 55.9467 -3.68103 5.06212 0
M  V30 568 H 56.1797 -1.06601 2.77531 0
M  V30 569 H 53.7127 -0.441112 1.47965 0
M  V30 570 H 55.6707 -3.48653 2.16682 0
M  V30 571 H 54.3317 -2.92609 1.14188 0
M  V30 572 H 53.5247 -3.7386 3.38 0
M  V30 573 H 53.1267 -2.02052 3.14723 0
M  V30 574 H 55.4187 -4.63656 4.93993 0
M  V30 575 H 56.3617 -3.6268 6.08168 0
M  V30 576 H 56.7697 -3.60947 4.34025 0
M  V30 577 N 56.1678 -1.49265 -0.50573 0
M  V30 578 C 57.4158 -1.582 -1.25766 0
M  V30 579 C 57.7368 -0.268482 -1.93143 0
M  V30 580 O 57.0068 0.711833 -1.8251 0
M  V30 581 H 55.5868 -0.582873 -0.467191 0
M  V30 582 H 58.2488 -1.85865 -0.586525 0
M  V30 583 H 57.3448 -2.37563 -2.02412 0
M  V30 584 N 57.6459 0.756429 -1.3826 0
M  V30 585 C 58.6089 1.85176 -1.35065 0
M  V30 586 C 59.6089 1.58818 -0.251703 0
M  V30 587 O 60.7989 1.66615 -0.508433 0
M  V30 588 C 57.9309 3.22596 -1.10201 0
M  V30 589 H 59.1239 1.89417 -2.3251 0
M  V30 590 H 56.6769 0.95783 -1.23512 0
M  V30 591 H 57.4119 3.24025 -0.133504 0
M  V30 592 H 57.1969 3.43122 -1.89762 0
M  V30 593 H 58.6869 4.02673 -1.10654 0
M  V30 594 N 59.124 1.23083 0.984299 0
M  V30 595 C 60.372 1.05848 1.72165 0
M  V30 596 C 60.693 -0.406049 1.90726 0
M  V30 597 O 59.963 -1.29139 1.47309 0
M  V30 598 H 58.543 0.388685 0.637913 0
M  V30 599 H 61.205 1.54736 1.18503 0
M  V30 600 H 60.301 1.54327 2.71274 0
M  V30 601 N 60.6021 -1.18246 1.0419 0
M  V30 602 C 61.8511 -1.87588 0.741194 0
M  V30 603 C 62.1641 -1.81303 -0.734066 0
M  V30 604 O 63.3701 -2.46019 -1.14834 0
M  V30 605 C 61.8261 -3.36538 1.27555 0
M  V30 606 C 61.4341 -3.51349 2.77953 0
M  V30 607 C 63.1781 -4.11273 1.05143 0
M  V30 608 C 61.0851 -4.94265 3.2474 0
M  V30 609 H 60.0151 -0.702622 0.273565 0
M  V30 610 H 62.6661 -1.33601 1.25789 0
M  V30 611 H 61.0481 -3.9 0.686703 0
M  V30 612 H 62.2221 -3.08153 3.42605 0
M  V30 613 H 60.5371 -2.90022 2.98791 0
M  V30 614 H 63.1341 -5.16689 1.37611 0
M  V30 615 H 63.4771 -4.16298 -0.0112774 0
M  V30 616 H 64.0101 -3.63987 1.60495 0
M  V30 617 H 60.7491 -4.94408 4.30396 0
M  V30 618 H 60.2691 -5.38172 2.64823 0
M  V30 619 H 61.9481 -5.62987 3.18834 0
M  V30 620 N 62.0802 -0.821533 -1.34494 0
M  V30 621 C 63.0432 -0.247847 -2.27856 0
M  V30 622 C 64.0432 0.573453 -1.50227 0
M  V30 623 O 65.2332 0.389759 -1.69784 0
M  V30 624 C 62.3652 0.652698 -3.34593 0
M  V30 625 H 63.5582 -1.07146 -2.80107 0
M  V30 626 H 61.1112 -0.593291 -1.44602 0
M  V30 627 H 61.8462 1.49943 -2.87555 0
M  V30 628 H 61.6312 0.065292 -3.92046 0
M  V30 629 H 63.1212 1.04793 -4.04238 0
M  V30 630 N 63.5583 1.46682 -0.576371 0
M  V30 631 C 64.4903 2.28341 0.198231 0
M  V30 632 C 65.5033 1.38141 0.861453 0
M  V30 633 O 66.6923 1.62797 0.732082 0
M  V30 634 C 63.7923 3.12986 1.29972 0
M  V30 635 C 62.9653 4.31271 0.729639 0
M  V30 636 C 62.0243 4.97363 1.71803 0
M  V30 637 O 61.0503 5.55156 1.25658 0
M  V30 638 N 62.2523 4.93796 3.05198 0
M  V30 639 H 65.0173 2.9546 -0.502324 0
M  V30 640 H 62.5783 1.56525 -0.413715 0
M  V30 641 H 64.5703 3.54066 1.96008 0
M  V30 642 H 63.1403 2.47984 1.90323 0
M  V30 643 H 62.3603 3.94052 -0.108012 0
M  V30 644 H 63.6483 5.07739 0.328438 0
M  V30 645 H 63.0463 4.48077 3.45317 0
M  V30 646 H 61.6033 5.38837 3.6674 0
M  V30 647 N 65.0364 0.313813 1.54444 0
M  V30 648 C 66.2824 -0.292108 2.00685 0
M  V30 649 C 66.6154 -1.52548 1.20177 0
M  V30 650 O 65.8904 -1.92452 0.281531 0
M  V30 651 C 66.1734 -0.635968 3.5444 0
M  V30 652 C 66.0264 0.607437 4.4568 0
M  V30 653 C 67.3454 -1.45747 4.15266 0
M  V30 654 H 64.4644 -0.104697 0.729526 0
M  V30 655 H 67.1064 0.428457 1.85106 0
M  V30 656 H 65.2564 -1.24986 3.67846 0
M  V30 657 H 66.9284 1.24581 4.44159 0
M  V30 658 H 65.1714 1.23822 4.15753 0
M  V30 659 H 65.8424 0.322515 5.51057 0
M  V30 660 H 68.3184 -0.938645 4.05375 0
M  V30 661 H 67.1944 -1.66683 5.2298 0
M  V30 662 H 67.4554 -2.45063 3.67963 0
M  V30 663 N 66.5145 -1.57545 0.0417849 0
M  V30 664 C 67.4775 -2.09885 -0.92093 0
M  V30 665 C 68.4775 -1.01648 -1.24596 0
M  V30 666 O 69.6675 -1.27759 -1.1842 0
M  V30 667 C 66.7995 -2.57527 -2.23367 0
M  V30 668 H 67.9925 -2.96236 -0.467382 0
M  V30 669 H 65.5455 -1.5493 -0.206467 0
M  V30 670 H 66.2805 -1.74542 -2.73323 0
M  V30 671 H 66.0655 -3.36613 -2.01083 0
M  V30 672 H 67.5555 -2.98201 -2.92346 0
M  V30 673 N 67.9926 0.231505 -1.5589 0
M  V30 674 C 68.9556 1.27028 -1.90779 0
M  V30 675 C 69.9556 1.40308 -0.785507 0
M  V30 676 O 71.1456 1.38744 -1.05336 0
M  V30 677 C 68.2776 2.64566 -2.14983 0
M  V30 678 H 69.4706 0.973017 -2.83677 0
M  V30 679 H 67.0236 0.471486 -1.49019 0
M  V30 680 H 67.7586 2.99406 -1.24604 0
M  V30 681 H 67.5436 2.56305 -2.96732 0
M  V30 682 H 69.0336 3.39543 -2.43105 0
M  V30 683 N 69.4707 1.49531 0.497807 0
M  V30 684 C 70.4337 1.65916 1.58128 0
M  V30 685 C 71.4337 0.530825 1.51786 0
M  V30 686 O 72.6237 0.797342 1.54881 0
M  V30 687 C 69.7557 1.65951 2.9778 0
M  V30 688 H 70.9487 2.62556 1.44929 0
M  V30 689 H 68.5017 1.38611 0.722275 0
M  V30 690 H 69.2367 0.709065 3.16453 0
M  V30 691 H 69.0217 2.47897 3.03792 0
M  V30 692 H 70.5117 1.80673 3.76493 0
M  V30 693 N 70.9488 -0.749086 1.3866 0
M  V30 694 C 72.1768 -1.53834 1.38358 0
M  V30 695 C 72.5918 -1.88783 -0.0255219 0
M  V30 696 O 71.9488 -1.53101 -0.993292 0
M  V30 697 C 71.9998 -2.83468 2.2434 0
M  V30 698 O 71.7208 -2.50008 3.5976 0
M  V30 699 C 73.2218 -3.7758 2.32267 0
M  V30 700 H 70.4418 -0.47585 0.473083 0
M  V30 701 H 72.9858 -0.926726 1.82297 0
M  V30 702 H 71.1408 -3.40995 1.83851 0
M  V30 703 H 71.5548 -3.33182 4.05081 0
M  V30 704 H 73.0288 -4.65478 2.96706 0
M  V30 705 H 73.5058 -4.18334 1.33765 0
M  V30 706 H 74.1118 -3.25976 2.73166 0
M  V30 707 N 72.4269 -1.23603 -0.977757 0
M  V30 708 C 73.6749 -1.06759 -1.71601 0
M  V30 709 C 73.9959 0.395929 -1.90938 0
M  V30 710 O 73.2659 1.28356 -1.47992 0
M  V30 711 H 71.8459 -0.392062 -0.635843 0
M  V30 712 H 74.5079 -1.55362 -1.1768 0
M  V30 713 H 73.6039 -1.55763 -2.70452 0
M  V30 714 N 73.905 1.17692 -1.04816 0
M  V30 715 C 74.855 2.1952 -0.616042 0
M  V30 716 C 75.839 1.57147 0.345485 0
M  V30 717 O 77.031 1.76245 0.163325 0
M  V30 718 C 74.16 3.43298 0.0116917 0
M  V30 719 C 73.246 4.12777 -0.973435 0
M  V30 720 N 73.637 4.5814 -2.14339 0
M  V30 721 C 71.935 4.38747 -0.80108 0
M  V30 722 C 72.636 5.11713 -2.7663 0
M  V30 723 N 71.612 5.03686 -2.04453 0
M  V30 724 H 75.414 2.52293 -1.5075 0
M  V30 725 H 72.928 1.3398 -0.917776 0
M  V30 726 H 74.925 4.15519 0.339006 0
M  V30 727 H 73.585 3.12018 0.898593 0
M  V30 728 H 74.596 4.52349 -2.52191 0
M  V30 729 H 71.273 4.17485 0.0350934 0
M  V30 730 H 72.663 5.56962 -3.75823 0
M  V30 731 N 75.3831 0.828654 1.34056 0
M  V30 732 C 76.6111 0.43262 2.02326 0
M  V30 733 C 77.0261 -0.963147 1.62385 0
M  V30 734 O 76.3831 -1.62425 0.832121 0
M  V30 735 C 76.4341 0.53182 3.57567 0
M  V30 736 O 76.1551 1.87258 3.96063 0
M  V30 737 C 77.6561 0.131422 4.43105 0
M  V30 738 H 74.8761 0.172923 0.648335 0
M  V30 739 H 77.4201 1.1184 1.71208 0
M  V30 740 H 75.5751 -0.105938 3.87255 0
M  V30 741 H 75.9891 1.85087 4.90758 0
M  V30 742 H 77.4631 0.251904 5.51425 0
M  V30 743 H 77.9401 -0.925645 4.29335 0
M  V30 744 H 78.5461 0.743207 4.18756 0
M  V30 745 N 76.8612 -1.46375 0.584142 0
M  V30 746 C 78.1072 -2.02678 0.0703716 0
M  V30 747 C 78.4402 -1.4545 -1.28678 0
M  V30 748 O 77.7152 -0.62014 -1.84349 0
M  V30 749 C 77.9982 -3.60099 0.00614674 0
M  V30 750 C 77.8512 -4.27709 1.3923 0
M  V30 751 C 79.1702 -4.34598 -0.693742 0
M  V30 752 H 76.2892 -0.736504 0.027047 0
M  V30 753 H 78.9312 -1.74501 0.751615 0
M  V30 754 H 77.0812 -3.84236 -0.574009 0
M  V30 755 H 78.7532 -4.14832 2.01773 0
M  V30 756 H 76.9962 -3.87016 1.95962 0
M  V30 757 H 77.6672 -5.36478 1.29982 0
M  V30 758 H 80.1432 -4.15615 -0.200869 0
M  V30 759 H 79.0192 -5.44318 -0.707714 0
M  V30 760 H 79.2802 -4.05759 -1.75533 0
M  V30 761 N 78.3393 -0.321999 -1.54275 0
M  V30 762 C 79.5853 0.281461 -2.00837 0
M  V30 763 C 79.9183 1.51909 -1.20985 0
M  V30 764 O 79.1933 1.923 -0.291733 0
M  V30 765 C 79.4763 0.617162 -3.54772 0
M  V30 766 C 79.3293 -0.631064 -4.45351 0
M  V30 767 C 80.6483 1.43542 -4.16033 0
M  V30 768 H 77.7673 0.100826 -0.730071 0
M  V30 769 H 80.4093 -0.438268 -1.84876 0
M  V30 770 H 78.5593 1.23034 -3.68504 0
M  V30 771 H 80.2313 -1.26934 -4.43492 0
M  V30 772 H 78.4743 -1.26025 -4.15091 0
M  V30 773 H 79.1453 -0.351735 -5.50878 0
M  V30 774 H 81.6213 0.917134 -4.05867 0
M  V30 775 H 80.4973 1.63907 -5.23856 0
M  V30 776 H 80.7583 2.43108 -3.69257 0
M  V30 777 N 79.8174 1.5752 -0.0501392 0
M  V30 778 C 80.7474 2.14502 0.922566 0
M  V30 779 C 81.7284 1.06642 1.3252 0
M  V30 780 O 82.9134 1.34577 1.4001 0
M  V30 781 C 80.0434 2.68916 2.19776 0
M  V30 782 C 78.9974 3.8175 1.93523 0
M  V30 783 C 78.3234 4.22677 3.27487 0
M  V30 784 C 79.6234 5.06932 1.25765 0
M  V30 785 H 81.3174 2.9603 0.447952 0
M  V30 786 H 78.8634 1.42401 0.214024 0
M  V30 787 H 80.8164 3.07419 2.88222 0
M  V30 788 H 79.5404 1.84578 2.69441 0
M  V30 789 H 78.1994 3.43718 1.27489 0
M  V30 790 H 77.8474 3.35291 3.74952 0
M  V30 791 H 77.5474 4.98725 3.1072 0
M  V30 792 H 79.0714 4.63779 3.97166 0
M  V30 793 H 80.4854 5.42888 1.84244 0
M  V30 794 H 78.8824 5.88116 1.19328 0
M  V30 795 H 79.9524 4.84337 0.233536 0
M  V30 796 N 81.2955 -0.223234 1.56011 0
M  V30 797 C 82.5415 -0.949279 1.79211 0
M  V30 798 C 82.8745 -1.84054 0.619494 0
M  V30 799 O 82.1495 -1.90726 -0.381317 0
M  V30 800 C 82.4325 -1.78965 3.12479 0
M  V30 801 C 82.2855 -0.924997 4.40186 0
M  V30 802 C 83.6045 -2.76774 3.42175 0
M  V30 803 H 80.7235 -0.343676 0.651963 0
M  V30 804 H 83.3655 -0.218253 1.88742 0
M  V30 805 H 81.5155 -2.41291 3.04485 0
M  V30 806 H 83.1875 -0.318615 4.60198 0
M  V30 807 H 81.4305 -0.230344 4.33188 0
M  V30 808 H 82.1015 -1.54735 5.29869 0
M  V30 809 H 84.5775 -2.24584 3.50287 0
M  V30 810 H 83.4535 -3.32678 4.36597 0
M  V30 811 H 83.7145 -3.54429 2.64258 0
M  V30 812 N 82.7736 -1.49793 -0.48987 0
M  V30 813 C 84.0506 -1.50348 -1.25119 0
M  V30 814 C 84.4306 -0.237466 -2.0976 0
M  V30 815 O 83.7786 0.77981 -2.14782 0
M  V30 816 C 83.9886 -2.78872 -2.09837 0
M  V30 817 C 85.3366 -3.288 -2.68655 0
M  V30 818 O 86.3606 -2.80065 -2.20096 0
M  V30 819 O 85.2196 -4.13707 -3.57083 0
M  V30 820 H 82.3136 -0.602242 -0.566775 0
M  V30 821 H 84.8596 -1.62067 -0.503229 0
M  V30 822 H 83.6316 -3.62499 -1.47343 0
M  V30 823 H 83.2546 -2.70066 -2.91805 0
M  V30 824 N 84.2517 0.741722 -1.39055 0
M  V30 825 C 85.1837 1.8657 -1.33133 0
M  V30 826 C 86.1967 1.61001 -0.241329 0
M  V30 827 O 87.3857 1.7136 -0.499784 0
M  V30 828 C 84.4857 3.22457 -1.04283 0
M  V30 829 C 83.6587 3.75435 -2.24427 0
M  V30 830 C 82.7177 4.89867 -1.92138 0
M  V30 831 O 81.7437 5.03879 -2.64754 0
M  V30 832 N 82.9457 5.73738 -0.88347 0
M  V30 833 H 85.7107 1.92156 -2.29991 0
M  V30 834 H 83.2717 0.922172 -1.3307 0
M  V30 835 H 85.2637 3.9657 -0.807128 0
M  V30 836 H 83.8337 3.12181 -0.161807 0
M  V30 837 H 83.0537 2.92751 -2.6399 0
M  V30 838 H 84.3417 4.07563 -3.04581 0
M  V30 839 H 83.7397 5.64999 -0.281517 0
M  V30 840 H 82.2967 6.47947 -0.707662 0
M  V30 841 N 85.7298 1.2412 0.971189 0
M  V30 842 C 86.9578 1.10575 1.74874 0
M  V30 843 C 87.3728 -0.342017 1.85676 0
M  V30 844 O 86.7298 -1.23617 1.34258 0
M  V30 845 C 86.7808 1.73579 3.171 0
M  V30 846 O 86.5018 3.12695 3.06844 0
M  V30 847 C 88.0028 1.65598 4.11208 0
M  V30 848 H 85.2228 0.386504 0.548503 0
M  V30 849 H 87.7668 1.64156 1.21955 0
M  V30 850 H 85.9218 1.24009 3.67016 0
M  V30 851 H 86.3358 3.43412 3.96445 0
M  V30 852 H 87.8098 2.1437 5.08674 0
M  V30 853 H 88.2868 0.616532 4.34851 0
M  V30 854 H 88.8928 2.14578 3.67201 0
M  V30 855 N 87.2079 -1.17134 1.05439 0
M  V30 856 C 88.1179 -2.24878 0.668365 0
M  V30 857 C 89.1339 -1.71186 -0.311687 0
M  V30 858 O 90.3099 -2.00738 -0.163161 0
M  V30 859 C 87.3749 -3.46662 0.051648 0
M  V30 860 C 86.4359 -4.15429 1.08246 0
M  V30 861 C 85.6689 -5.31399 0.495082 0
M  V30 862 O 85.8919 -5.66153 -0.694743 0
M  V30 863 O 84.8259 -5.89187 1.23056 0
M  V30 864 H 88.6519 -2.60189 1.56637 0
M  V30 865 H 86.2369 -1.24482 0.826104 0
M  V30 866 H 88.1189 -4.20394 -0.290966 0
M  V30 867 H 86.7939 -3.13142 -0.819971 0
M  V30 868 H 85.7009 -3.43704 1.47711 0
M  V30 869 H 87.0339 -4.52982 1.92532 0
M  V30 870 N 88.686 -0.835752 -1.33615 0
M  V30 871 C 89.963 -0.352017 -1.92406 0
M  V30 872 C 90.343 1.16225 -1.76224 0
M  V30 873 O 89.691 1.97526 -1.14873 0
M  V30 874 C 89.901 -0.795485 -3.39813 0
M  V30 875 C 91.249 -0.801703 -4.16963 0
M  V30 876 O 92.273 -0.738889 -3.48452 0
M  V30 877 O 91.132 -0.886607 -5.3926 0
M  V30 878 H 88.226 -0.0989641 -0.821057 0
M  V30 879 H 90.772 -0.921397 -1.42507 0
M  V30 880 H 89.544 -1.83795 -3.45449 0
M  V30 881 H 89.167 -0.202505 -3.97084 0
M  V30 882 N 90.1641 1.46063 -0.591896 0
M  V30 883 C 91.4131 2.01547 -0.0786637 0
M  V30 884 C 91.7261 1.46796 1.29268 0
M  V30 885 O 92.9321 1.94157 1.89777 0
M  V30 886 C 91.3881 3.59787 -0.0900024 0
M  V30 887 C 90.9961 4.23534 -1.46023 0
M  V30 888 C 92.7401 4.22895 0.368806 0
M  V30 889 C 90.6471 5.73881 -1.4288 0
M  V30 890 H 89.5771 0.753564 -0.0256388 0
M  V30 891 H 92.2281 1.677 -0.744905 0
M  V30 892 H 90.6101 3.90752 0.642586 0
M  V30 893 H 91.7841 4.04167 -2.21328 0
M  V30 894 H 90.0991 3.72558 -1.85982 0
M  V30 895 H 92.6961 5.33116 0.411258 0
M  V30 896 H 93.0391 3.9247 1.38827 0
M  V30 897 H 93.5721 3.9659 -0.31001 0
M  V30 898 H 90.3111 6.0898 -2.42536 0
M  V30 899 H 89.8311 5.95486 -0.718095 0
M  V30 900 H 91.5101 6.36776 -1.14565 0
M  V30 901 N 91.6422 0.330177 1.54103 0
M  V30 902 C 92.5722 -0.525353 2.27513 0
M  V30 903 C 93.5532 -1.11383 1.2856 0
M  V30 904 O 94.7382 -1.13773 1.57383 0
M  V30 905 C 91.8682 -1.6831 3.03791 0
M  V30 906 C 90.8222 -1.2236 4.10137 0
M  V30 907 C 90.1482 -2.46882 4.74293 0
M  V30 908 C 91.4482 -0.333697 5.21233 0
M  V30 909 H 93.1422 0.087013 2.99274 0
M  V30 910 H 90.6882 0.0432893 1.43935 0
M  V30 911 H 92.6412 -2.28795 3.5388 0
M  V30 912 H 91.3652 -2.32216 2.29659 0
M  V30 913 H 90.0242 -0.64165 3.60941 0
M  V30 914 H 89.6722 -3.09165 3.96769 0
M  V30 915 H 89.3722 -2.16825 5.46133 0
M  V30 916 H 90.8962 -3.08117 5.27159 0
M  V30 917 H 92.3102 -0.845013 5.67038 0
M  V30 918 H 90.7072 -0.125612 5.99969 0
M  V30 919 H 91.7772 0.633724 4.80741 0
M  V30 920 N 93.1203 -1.57491 0.0584922 0
M  V30 921 C 94.0833 -2.1085 -0.898617 0
M  V30 922 C 95.0833 -1.02964 -1.23511 0
M  V30 923 O 96.2733 -1.29007 -1.17059 0
M  V30 924 C 93.4053 -2.59881 -2.20623 0
M  V30 925 H 94.5983 -2.96715 -0.435936 0
M  V30 926 H 92.1513 -1.55141 -0.190023 0
M  V30 927 H 92.8863 -1.77431 -2.71457 0
M  V30 928 H 92.6713 -3.38727 -1.97501 0
M  V30 929 H 94.1613 -3.01285 -2.89166 0
M  V30 930 N 94.5984 0.214957 -1.56127 0
M  V30 931 C 95.5454 1.26642 -1.92952 0
M  V30 932 C 96.5154 1.46244 -0.78753 0
M  V30 933 O 97.7004 1.59704 -1.04399 0
M  V30 934 C 94.8404 2.6104 -2.25726 0
M  V30 935 C 93.9534 2.49183 -3.52891 0
M  V30 936 C 93.0884 3.76149 -3.7508 0
M  V30 937 C 92.1274 3.59041 -4.95738 0
M  V30 938 N 91.2644 4.77972 -5.14283 0
M  V30 939 H 96.1044 0.945384 -2.82607 0
M  V30 940 H 93.6414 0.455489 -1.3987 0
M  V30 941 H 95.5994 3.39313 -2.42739 0
M  V30 942 H 94.2294 2.91227 -1.39236 0
M  V30 943 H 93.2814 1.6231 -3.44034 0
M  V30 944 H 94.5934 2.32466 -4.41318 0
M  V30 945 H 93.7474 4.62865 -3.92226 0
M  V30 946 H 92.4864 3.95799 -2.84947 0
M  V30 947 H 91.4914 2.7071 -4.78535 0
M  V30 948 H 92.7164 3.40856 -5.87362 0
M  V30 949 H 90.6624 4.97923 -4.27093 0
M  V30 950 H 90.5794 4.64006 -5.96853 0
M  V30 951 H 91.8474 5.66096 -5.35869 0
M  V30 952 N 96.0765 1.50051 0.48192 0
M  V30 953 C 97.3015 1.64508 1.26301 0
M  V30 954 C 97.7265 0.323851 1.85291 0
M  V30 955 O 97.0845 -0.710969 1.66778 0
M  V30 956 C 97.1325 2.7305 2.35533 0
M  V30 957 O 96.2365 2.3355 3.39895 0
M  V30 958 H 95.5775 0.549978 0.372048 0
M  V30 959 H 98.1075 1.9636 0.574786 0
M  V30 960 H 98.1175 2.95799 2.8101 0
M  V30 961 H 96.7925 3.68946 1.91967 0
M  V30 962 H 95.3695 2.21205 3.00204 0
M  V30 963 N 97.5546 -0.734337 1.39446 0
M  V30 964 C 98.5016 -1.84835 1.38219 0
M  V30 965 C 99.4716 -1.64331 0.24179 0
M  V30 966 O 100.657 -1.85728 0.437002 0
M  V30 967 C 97.7966 -3.22355 1.23212 0
M  V30 968 C 96.9096 -3.5456 2.46801 0
M  V30 969 C 96.0446 -4.81485 2.24377 0
M  V30 970 C 95.0836 -5.06536 3.43639 0
M  V30 971 N 94.2206 -6.24665 3.20528 0
M  V30 972 H 99.0606 -1.85219 2.33448 0
M  V30 973 H 96.5976 -0.905039 1.15963 0
M  V30 974 H 98.5556 -4.0174 1.12522 0
M  V30 975 H 97.1856 -3.21248 0.316121 0
M  V30 976 H 96.2376 -2.69872 2.68092 0
M  V30 977 H 97.5496 -3.6899 3.3563 0
M  V30 978 H 96.7036 -5.68852 2.10933 0
M  V30 979 H 95.4426 -4.6923 1.32944 0
M  V30 980 H 94.4476 -4.17632 3.5758 0
M  V30 981 H 95.6726 -5.20676 4.35974 0
M  V30 982 H 93.6186 -6.13696 2.3176 0
M  V30 983 H 93.5356 -6.39685 4.02913 0
M  V30 984 H 94.8036 -7.14868 3.10779 0
M  V30 985 N 99.0327 -1.24633 -0.964593 0
M  V30 986 C 99.9797 -1.04144 -2.05968 0
M  V30 987 C 100.95 0.046262 -1.66036 0
M  V30 988 O 102.135 -0.108972 -1.90489 0
M  V30 989 C 99.2747 -0.65563 -3.38815 0
M  V30 990 C 98.3877 -1.81714 -3.91923 0
M  V30 991 C 97.5227 -1.37662 -5.13052 0
M  V30 992 C 96.5617 -2.50788 -5.58365 0
M  V30 993 N 95.6987 -2.07582 -6.70712 0
M  V30 994 H 100.539 -1.9787 -2.22827 0
M  V30 995 H 98.0757 -0.9855 -1.09208 0
M  V30 996 H 100.034 -0.412954 -4.15151 0
M  V30 997 H 98.6637 0.244627 -3.21872 0
M  V30 998 H 97.7157 -2.1734 -3.12198 0
M  V30 999 H 99.0277 -2.66705 -4.21509 0
M  V30 1000 H 98.1817 -1.093 -5.96773 0
M  V30 1001 H 96.9207 -0.497293 -4.85158 0
M  V30 1002 H 95.9257 -2.79906 -4.73215 0
M  V30 1003 H 97.1507 -3.39283 -5.88272 0
M  V30 1004 H 95.0967 -1.22051 -6.44546 0
M  V30 1005 H 95.0137 -2.86125 -6.99763 0
M  V30 1006 H 96.2817 -1.82369 -7.57867 0
M  V30 1007 N 100.511 1.16574 -1.06058 0
M  V30 1008 C 101.759 1.86677 -0.77434 0
M  V30 1009 C 102.08 1.81959 0.701147 0
M  V30 1010 O 101.35 1.2515 1.50713 0
M  V30 1011 H 99.9298 0.691134 -0.283449 0
M  V30 1012 H 102.592 1.41378 -1.34158 0
M  V30 1013 H 101.688 2.92181 -1.09711 0
M  V30 1014 N 101.989 0.842826 1.3317 0
M  V30 1015 C 103.238 0.436738 1.96915 0
M  V30 1016 C 103.551 -1.01025 1.67491 0
M  V30 1017 O 104.757 -1.5212 2.24881 0
M  V30 1018 C 103.213 0.730021 3.52418 0
M  V30 1019 C 102.821 2.19195 3.90714 0
M  V30 1020 C 104.565 0.391076 4.22695 0
M  V30 1021 C 102.472 2.42907 5.39212 0
M  V30 1022 H 101.402 0.15958 0.736919 0
M  V30 1023 H 104.053 1.03196 1.51733 0
M  V30 1024 H 102.435 0.0643755 3.95948 0
M  V30 1025 H 103.609 2.8984 3.58231 0
M  V30 1026 H 101.924 2.49425 3.33431 0
M  V30 1027 H 104.521 0.545817 5.31907 0
M  V30 1028 H 104.864 -0.666294 4.10933 0
M  V30 1029 H 105.397 1.01212 3.84709 0
M  V30 1030 H 102.136 3.47224 5.55982 0
M  V30 1031 H 101.656 1.76827 5.73142 0
M  V30 1032 H 103.335 2.2626 6.06148 0
M  V30 1033 N 103.467 -1.45747 0.599634 0
M  V30 1034 C 104.377 -2.34262 -0.125888 0
M  V30 1035 C 105.393 -1.50768 -0.868625 0
M  V30 1036 O 106.569 -1.83592 -0.828003 0
M  V30 1037 C 103.634 -3.28252 -1.11587 0
M  V30 1038 C 102.695 -4.27651 -0.375956 0
M  V30 1039 C 101.928 -5.1715 -1.31877 0
M  V30 1040 O 102.151 -5.09916 -2.55621 0
M  V30 1041 O 101.085 -5.96286 -0.820157 0
M  V30 1042 H 104.911 -2.97688 0.601315 0
M  V30 1043 H 102.496 -1.44999 0.359934 0
M  V30 1044 H 104.378 -3.86191 -1.68626 0
M  V30 1045 H 103.053 -2.67401 -1.82424 0
M  V30 1046 H 101.96 -3.7335 0.236698 0
M  V30 1047 H 103.293 -4.91334 0.29177 0
M  V30 1048 N 104.945 -0.338344 -1.53925 0
M  V30 1049 C 105.855 0.529421 -2.28548 0
M  V30 1050 C 106.871 1.11645 -1.3346 0
M  V30 1051 O 108.047 1.13325 -1.66492 0
M  V30 1052 C 105.112 1.66713 -3.03987 0
M  V30 1053 C 104.173 1.11041 -4.14691 0
M  V30 1054 C 103.406 2.19389 -4.86522 0
M  V30 1055 O 103.629 3.40013 -4.57982 0
M  V30 1056 O 102.563 1.83976 -5.73094 0
M  V30 1057 H 106.389 -0.0770399 -3.03602 0
M  V30 1058 H 103.974 -0.103555 -1.49041 0
M  V30 1059 H 105.856 2.32918 -3.5118 0
M  V30 1060 H 104.531 2.25949 -2.31794 0
M  V30 1061 H 103.438 0.413024 -3.71813 0
M  V30 1062 H 104.771 0.562975 -4.8897 0
M  V30 1063 N 106.423 1.57458 -0.0668435 0
M  V30 1064 C 107.648 1.9804 0.616027 0
M  V30 1065 C 108.073 0.944771 1.62652 0
M  V30 1066 O 107.431 -0.0902094 1.81075 0
M  V30 1067 C 107.479 3.37665 1.26549 0
M  V30 1068 O 106.583 3.36701 2.38131 0
M  V30 1069 H 105.924 0.644719 0.158849 0
M  V30 1070 H 108.454 2.04121 -0.139891 0
M  V30 1071 H 108.464 3.7474 1.6135 0
M  V30 1072 H 107.139 4.12573 0.525016 0
M  V30 1073 H 105.716 3.1139 2.0516 0
M  V30 1074 N 107.901 -0.206675 1.56239 0
M  V30 1075 C 108.831 -1.25909 1.96645 0
M  V30 1076 C 109.812 -1.48097 0.836734 0
M  V30 1077 O 110.997 -1.6003 1.10019 0
M  V30 1078 C 108.127 -2.6058 2.29599 0
M  V30 1079 C 107.081 -2.53024 3.452 0
M  V30 1080 C 106.407 -3.91861 3.63798 0
M  V30 1081 C 107.707 -2.06524 4.79734 0
M  V30 1082 H 109.401 -0.923369 2.84806 0
M  V30 1083 H 106.947 -0.442735 1.37025 0
M  V30 1084 H 108.9 -3.34375 2.56459 0
M  V30 1085 H 107.624 -2.95869 1.38307 0
M  V30 1086 H 106.283 -1.81684 3.18412 0
M  V30 1087 H 105.931 -4.24483 2.69857 0
M  V30 1088 H 105.631 -3.87683 4.4156 0
M  V30 1089 H 107.155 -4.67296 3.93022 0
M  V30 1090 H 108.569 -2.70072 5.05702 0
M  V30 1091 H 106.966 -2.13374 5.60885 0
M  V30 1092 H 108.036 -1.01802 4.74093 0
M  V30 1093 N 109.379 -1.50304 -0.473955 0
M  V30 1094 C 110.795 -1.37667 -0.807466 0
M  V30 1095 C 110.995 -0.430555 -1.96846 0
M  V30 1096 O 110.051 0.127874 -2.52176 0
M  V30 1097 C 111.364 -2.78974 -1.12223 0
M  V30 1098 C 112.912 -2.87868 -1.22885 0
M  V30 1099 C 113.387 -4.30003 -1.57676 0
M  V30 1100 N 114.878 -4.3294 -1.64673 0
M  V30 1101 C 115.613 -5.3991 -1.93091 0
M  V30 1102 N 115.109 -6.57092 -2.1955 0
M  V30 1103 N 116.902 -5.27351 -1.94569 0
M  V30 1104 H 109.053 -2.10394 0.291212 0
M  V30 1105 H 111.316 -0.945575 0.0677609 0
M  V30 1106 H 111.022 -3.50031 -0.342229 0
M  V30 1107 H 110.896 -3.16038 -2.05913 0
M  V30 1108 H 113.283 -2.17032 -1.99953 0
M  V30 1109 H 113.364 -2.54352 -0.271814 0
M  V30 1110 H 113.008 -5.01375 -0.81149 0
M  V30 1111 H 112.938 -4.61004 -2.54525 0
M  V30 1112 H 115.429 -3.48441 -1.46277 0
M  V30 1113 H 115.742 -7.34425 -2.405 0
M  V30 1114 H 114.087 -6.60272 -2.16948 0
M  V30 1115 H 117.278 -4.34801 -1.73394 0
M  V30 1116 H 117.451 -6.10805 -2.16381 0
M  V30 1117 N 110.857 0.726932 -1.39834 0
M  V30 1118 C 111.804 1.841 -1.39197 0
M  V30 1119 C 112.774 1.642 -0.250502 0
M  V30 1120 O 113.959 1.85494 -0.446846 0
M  V30 1121 C 111.099 3.21697 -1.24919 0
M  V30 1122 C 110.212 3.53247 -2.48678 0
M  V30 1123 C 109.347 4.80289 -2.26928 0
M  V30 1124 C 108.386 5.04707 -3.4632 0
M  V30 1125 N 107.523 6.22956 -3.23836 0
M  V30 1126 H 112.363 1.83979 -2.34427 0
M  V30 1127 H 109.9 0.898876 -1.16442 0
M  V30 1128 H 111.858 4.01137 -1.1465 0
M  V30 1129 H 110.488 3.21076 -0.333153 0
M  V30 1130 H 109.54 2.68447 -2.69519 0
M  V30 1131 H 110.852 3.67205 -3.37582 0
M  V30 1132 H 110.006 5.67725 -2.13947 0
M  V30 1133 H 108.745 4.68519 -1.35431 0
M  V30 1134 H 107.75 4.1573 -3.5979 0
M  V30 1135 H 108.975 5.18357 -4.38729 0
M  V30 1136 H 106.921 6.12459 -2.35011 0
M  V30 1137 H 106.838 6.37539 -4.063 0
M  V30 1138 H 108.106 7.1321 -3.14566 0
M  V30 1139 N 112.336 1.25143 0.95797 0
M  V30 1140 C 113.582 1.09855 1.70469 0
M  V30 1141 C 113.915 -0.360187 1.90831 0
M  V30 1142 O 113.19 -1.26568 1.47685 0
M  V30 1143 C 113.473 1.8497 3.08963 0
M  V30 1144 C 113.326 3.38652 2.96032 0
M  V30 1145 C 114.645 1.63016 4.08795 0
M  V30 1146 H 111.764 0.400465 0.618706 0
M  V30 1147 H 114.406 1.53933 1.11376 0
M  V30 1148 H 112.556 1.47505 3.59409 0
M  V30 1149 H 114.228 3.85772 2.52938 0
M  V30 1150 H 112.471 3.66534 2.32025 0
M  V30 1151 H 113.142 3.8642 3.94187 0
M  V30 1152 H 115.618 1.95625 3.67247 0
M  V30 1153 H 114.494 2.18015 5.03747 0
M  V30 1154 H 114.755 0.570692 4.38401 0
M  V30 1155 N 113.814 -1.1601 1.06675 0
M  V30 1156 C 114.777 -2.18724 0.685001 0
M  V30 1157 C 115.777 -1.58496 -0.271246 0
M  V30 1158 O 116.967 -1.74119 -0.0531156 0
M  V30 1159 C 114.099 -3.40899 0.00853648 0
M  V30 1160 H 115.292 -2.54011 1.59431 0
M  V30 1161 H 112.845 -1.30352 0.862441 0
M  V30 1162 H 113.58 -3.11173 -0.913337 0
M  V30 1163 H 113.365 -3.8587 0.696204 0
M  V30 1164 H 114.855 -4.16886 -0.24414 0
M  V30 1165 N 115.292 -0.849877 -1.32721 0
M  V30 1166 C 116.239 -0.289033 -2.28983 0
M  V30 1167 C 117.209 0.601324 -1.54833 0
M  V30 1168 O 118.394 0.537253 -1.8308 0
M  V30 1169 C 115.534 0.520623 -3.4115 0
M  V30 1170 C 114.647 -0.394989 -4.3019 0
M  V30 1171 C 113.782 0.426834 -5.29482 0
M  V30 1172 C 112.821 -0.486476 -6.10164 0
M  V30 1173 N 111.958 0.297879 -7.01468 0
M  V30 1174 H 116.798 -1.11519 -2.76347 0
M  V30 1175 H 114.335 -0.56138 -1.35967 0
M  V30 1176 H 116.293 1.00563 -4.04899 0
M  V30 1177 H 114.923 1.31165 -2.9495 0
M  V30 1178 H 113.975 -0.99836 -3.67065 0
M  V30 1179 H 115.287 -1.09612 -4.86607 0
M  V30 1180 H 114.441 0.975205 -5.98811 0
M  V30 1181 H 113.18 1.16136 -4.73671 0
M  V30 1182 H 112.185 -1.04677 -5.39743 0
M  V30 1183 H 113.41 -1.21953 -6.6806 0
M  V30 1184 H 111.356 1.01558 -6.48091 0
M  V30 1185 H 111.273 -0.344318 -7.55216 0
M  V30 1186 H 112.541 0.828131 -7.75089 0
M  V30 1187 N 116.77 1.45427 -0.607355 0
M  V30 1188 C 117.717 2.3053 0.111625 0
M  V30 1189 C 118.687 1.4209 0.860216 0
M  V30 1190 O 119.872 1.71019 0.845998 0
M  V30 1191 C 117.012 3.26992 1.10319 0
M  V30 1192 C 116.125 4.30535 0.355493 0
M  V30 1193 C 115.26 5.14105 1.33676 0
M  V30 1194 C 114.299 6.09376 0.576862 0
M  V30 1195 N 113.436 6.85727 1.5074 0
M  V30 1196 H 118.276 2.91477 -0.620093 0
M  V30 1197 H 115.813 1.43631 -0.317594 0
M  V30 1198 H 117.771 3.81385 1.6912 0
M  V30 1199 H 116.401 2.67799 1.80232 0
M  V30 1200 H 115.453 3.78805 -0.348023 0
M  V30 1201 H 116.765 4.98235 -0.237423 0
M  V30 1202 H 115.919 5.72897 1.99684 0
M  V30 1203 H 114.658 4.46423 1.9636 0
M  V30 1204 H 113.663 5.49715 -0.0968519 0
M  V30 1205 H 114.888 6.79085 -0.0449341 0
M  V30 1206 H 112.834 6.20735 2.12189 0
M  V30 1207 H 112.751 7.49778 0.967913 0
M  V30 1208 H 114.019 7.4906 2.15706 0
M  V30 1209 N 118.248 0.346503 1.53744 0
M  V30 1210 C 119.195 -0.508914 2.25119 0
M  V30 1211 C 120.165 -1.09315 1.25058 0
M  V30 1212 O 121.35 -1.12921 1.53797 0
M  V30 1213 C 118.49 -1.65246 3.02965 0
M  V30 1214 C 117.603 -1.09525 4.17886 0
M  V30 1215 C 116.738 -2.20634 4.83212 0
M  V30 1216 C 115.777 -1.62279 5.90196 0
M  V30 1217 N 114.914 -2.67143 6.49291 0
M  V30 1218 H 119.754 0.106283 2.9781 0
M  V30 1219 H 117.291 0.0642227 1.4696 0
M  V30 1220 H 119.249 -2.32574 3.4636 0
M  V30 1221 H 117.879 -2.2386 2.32565 0
M  V30 1222 H 116.931 -0.312818 3.79112 0
M  V30 1223 H 118.243 -0.628444 4.94825 0
M  V30 1224 H 117.397 -2.95821 5.29693 0
M  V30 1225 H 116.136 -2.70659 4.05703 0
M  V30 1226 H 115.141 -0.855989 5.43096 0
M  V30 1227 H 116.366 -1.13102 6.69615 0
M  V30 1228 H 114.312 -3.16417 5.74645 0
M  V30 1229 H 114.229 -2.25093 7.21713 0
M  V30 1230 H 115.497 -3.4209 7.00425 0
M  V30 1231 N 119.726 -1.57421 0.075193 0
M  V30 1232 C 120.973 -1.93618 -0.593146 0
M  V30 1233 C 121.301 -0.955484 -1.69413 0
M  V30 1234 O 120.556 0.0283251 -1.9568 0
M  V30 1235 C 120.855 -3.36428 -1.20626 0
M  V30 1236 C 120.521 -4.50307 -0.231078 0
M  V30 1237 C 119.183 -4.81186 0.0371936 0
M  V30 1238 C 121.535 -5.19374 0.435888 0
M  V30 1239 C 118.863 -5.78466 0.979461 0
M  V30 1240 C 121.215 -6.17665 1.3665 0
M  V30 1241 C 119.879 -6.46958 1.6432 0
M  V30 1242 H 119.149 -0.708499 -0.217047 0
M  V30 1243 H 121.796 -1.90937 0.146793 0
M  V30 1244 H 120.101 -3.35592 -2.02201 0
M  V30 1245 H 121.798 -3.61727 -1.73073 0
M  V30 1246 H 118.388 -4.26227 -0.450357 0
M  V30 1247 H 122.572 -4.95711 0.241748 0
M  V30 1248 H 117.828 -5.99487 1.20106 0
M  V30 1249 H 122.002 -6.70284 1.88924 0
M  V30 1250 H 119.629 -7.2215 2.37494 0
M  V30 1251 N 121.204 0.198386 -1.56346 0
M  V30 1252 C 122.167 1.22952 -1.93431 0
M  V30 1253 C 123.167 1.38611 -0.815092 0
M  V30 1254 O 124.357 1.36479 -1.08255 0
M  V30 1255 C 121.489 2.59946 -2.20546 0
M  V30 1256 H 122.682 0.912626 -2.85677 0
M  V30 1257 H 120.235 0.43977 -1.49986 0
M  V30 1258 H 120.97 2.96696 -1.30927 0
M  V30 1259 H 120.755 2.49953 -3.02102 0
M  V30 1260 H 122.245 3.3431 -2.50253 0
M  V30 1261 N 122.682 1.50554 0.465978 0
M  V30 1262 C 123.592 1.72585 1.58907 0
M  V30 1263 C 124.608 0.60911 1.6299 0
M  V30 1264 O 125.784 0.88804 1.80765 0
M  V30 1265 C 122.849 1.81995 2.95091 0
M  V30 1266 C 121.91 3.05751 3.01355 0
M  V30 1267 C 121.143 3.14702 4.31043 0
M  V30 1268 O 121.366 2.30313 5.21835 0
M  V30 1269 O 120.3 4.07468 4.43005 0
M  V30 1270 H 124.126 2.67799 1.43239 0
M  V30 1271 H 121.711 1.34711 0.646013 0
M  V30 1272 H 123.593 1.90335 3.75966 0
M  V30 1273 H 122.268 0.899659 3.10947 0
M  V30 1274 H 121.175 3.02908 2.19539 0
M  V30 1275 H 122.508 3.97375 2.90437 0
M  V30 1276 N 124.16 -0.719506 1.40217 0
M  V30 1277 C 125.108 -1.85493 1.40339 0
M  V30 1278 C 126.102 -1.66995 0.284415 0
M  V30 1279 O 127.308 -1.74148 0.455252 0
M  V30 1280 H 123.683 -0.610857 0.438586 0
M  V30 1281 H 125.654 -1.82506 2.36081 0
M  V30 1282 C 124.403 -3.23321 1.27901 0
M  V30 1283 H 123.726 -3.38159 2.1328 0
M  V30 1284 H 125.166 -4.02914 1.32045 0
M  V30 1285 C 123.625 -3.36898 -0.0111355 0
M  V30 1286 O 124.155 -3.89674 -0.975538 0
M  V30 1287 N 122.361 -2.90492 -0.0793393 0
M  V30 1288 H 121.908 -2.47731 0.706183 0
M  V30 1289 H 121.866 -2.99955 -0.942038 0
M  V30 1290 N 125.638 -1.25649 -0.95132 0
M  V30 1291 C 126.568 -1.08808 -2.06599 0
M  V30 1292 C 127.549 0.00382547 -1.701 0
M  V30 1293 O 128.734 -0.166325 -1.93486 0
M  V30 1294 C 125.864 -0.709542 -3.39975 0
M  V30 1295 C 124.818 -1.75206 -3.90496 0
M  V30 1296 C 124.144 -1.22811 -5.20405 0
M  V30 1297 C 125.444 -3.15153 -4.16504 0
M  V30 1298 H 127.138 -2.02048 -2.20946 0
M  V30 1299 H 124.684 -0.972835 -1.06169 0
M  V30 1300 H 126.637 -0.578649 -4.17408 0
M  V30 1301 H 125.361 0.258556 -3.25575 0
M  V30 1302 H 124.02 -1.87145 -3.15234 0
M  V30 1303 H 123.668 -0.250145 -5.02378 0
M  V30 1304 H 123.368 -1.92492 -5.55176 0
M  V30 1305 H 124.892 -1.10968 -6.00432 0
M  V30 1306 H 126.306 -3.06349 -4.84586 0
M  V30 1307 H 124.703 -3.82333 -4.62538 0
M  V30 1308 H 125.773 -3.61966 -3.22658 0
M  V30 1309 N 127.117 1.15442 -1.07289 0
M  V30 1310 C 128.064 2.20161 -0.692653 0
M  V30 1311 C 129.034 1.63073 0.31564 0
M  V30 1312 O 130.219 1.89725 0.202235 0
M  V30 1313 C 127.359 3.44967 -0.0959509 0
M  V30 1314 C 126.472 4.16256 -1.15564 0
M  V30 1315 C 125.607 5.28609 -0.524011 0
M  V30 1316 C 124.646 5.91715 -1.56653 0
M  V30 1317 N 123.783 6.9554 -0.957531 0
M  V30 1318 H 128.623 2.52037 -1.59002 0
M  V30 1319 H 126.16 1.2378 -0.794798 0
M  V30 1320 H 128.118 4.16341 0.267628 0
M  V30 1321 H 126.748 3.1361 0.764772 0
M  V30 1322 H 125.8 3.43385 -1.6368 0
M  V30 1323 H 127.112 4.59268 -1.94613 0
M  V30 1324 H 126.266 6.06604 -0.108032 0
M  V30 1325 H 125.005 4.86787 0.29825 0
M  V30 1326 H 124.01 5.12433 -1.9923 0
M  V30 1327 H 125.235 6.35614 -2.39107 0
M  V30 1328 H 123.181 6.55814 -0.156162 0
M  V30 1329 H 123.098 7.36977 -1.68526 0
M  V30 1330 H 124.366 7.77435 -0.567032 0
M  V30 1331 N 128.595 0.856903 1.32268 0
M  V30 1332 C 129.558 0.308171 2.27119 0
M  V30 1333 C 130.558 -0.533421 1.51695 0
M  V30 1334 O 131.748 -0.344607 1.70757 0
M  V30 1335 C 128.88 -0.563757 3.36206 0
M  V30 1336 H 130.073 1.14535 2.77167 0
M  V30 1337 H 127.626 0.631421 1.42978 0
M  V30 1338 H 128.361 -1.42266 2.91429 0
M  V30 1339 H 128.146 0.0386749 3.92081 0
M  V30 1340 H 129.636 -0.940386 4.06874 0
M  V30 1341 N 130.073 -1.45103 0.615059 0
M  V30 1342 C 131.321 -2.01784 0.112955 0
M  V30 1343 C 131.642 -1.48504 -1.26378 0
M  V30 1344 O 130.912 -0.682245 -1.83636 0
M  V30 1345 H 129.492 -0.745993 0.0387668 0
M  V30 1346 H 132.154 -1.77808 0.798141 0
M  V30 1347 H 131.25 -3.12025 0.0684069 0
M  V30 1348 N 131.551 -0.354651 -1.53558 0
M  V30 1349 C 132.828 0.294281 -1.93374 0
M  V30 1350 C 133.208 1.67313 -1.28723 0
M  V30 1351 O 132.556 2.24179 -0.442247 0
M  V30 1352 C 132.766 0.355445 -3.47185 0
M  V30 1353 C 134.114 0.601007 -4.20325 0
M  V30 1354 O 135.138 0.437106 -3.53508 0
M  V30 1355 O 133.997 0.919322 -5.38712 0
M  V30 1356 H 131.091 0.174033 -0.808481 0
M  V30 1357 H 133.637 -0.406638 -1.64756 0
M  V30 1358 H 132.409 -0.611729 -3.86489 0
M  V30 1359 H 132.032 1.1027 -3.82003 0
M  V30 1360 N 133.029 1.57378 -0.0835403 0
M  V30 1361 C 133.939 2.16897 0.894021 0
M  V30 1362 C 134.955 1.13528 1.31861 0
M  V30 1363 O 136.131 1.45848 1.3889 0
M  V30 1364 C 133.196 2.72831 2.13925 0
M  V30 1365 C 132.257 3.91115 1.76997 0
M  V30 1366 C 131.49 4.44371 2.95584 0
M  V30 1367 O 131.713 3.96596 4.09961 0
M  V30 1368 O 130.647 5.35549 2.74719 0
M  V30 1369 H 134.473 3.00814 0.417679 0
M  V30 1370 H 132.058 1.48741 0.140181 0
M  V30 1371 H 133.94 3.0863 2.86924 0
M  V30 1372 H 132.615 1.91967 2.60635 0
M  V30 1373 H 131.522 3.60148 1.01214 0
M  V30 1374 H 132.855 4.73307 1.3506 0
M  V30 1375 N 134.507 -0.190092 1.56449 0
M  V30 1376 C 135.754 -0.909705 1.80916 0
M  V30 1377 C 136.082 -1.83047 0.657583 0
M  V30 1378 O 135.337 -1.92428 -0.356356 0
M  V30 1379 C 135.636 -1.75382 3.1141 0
M  V30 1380 C 135.302 -0.983606 4.40041 0
M  V30 1381 C 133.964 -0.770967 4.74984 0
M  V30 1382 C 136.316 -0.442024 5.19322 0
M  V30 1383 C 133.644 -0.0053448 5.867 0
M  V30 1384 C 135.996 0.310412 6.31838 0
M  V30 1385 C 134.66 0.534023 6.6536 0
M  V30 1386 H 133.93 -0.332885 0.662019 0
M  V30 1387 H 136.577 -0.175762 1.90692 0
M  V30 1388 H 134.882 -2.55659 2.96893 0
M  V30 1389 H 136.579 -2.31331 3.27547 0
M  V30 1390 H 133.169 -1.15936 4.12622 0
M  V30 1391 H 137.353 -0.593693 4.92736 0
M  V30 1392 H 132.609 0.177825 6.11141 0
M  V30 1393 H 136.783 0.737419 6.92485 0
M  V30 1394 H 134.41 1.12918 7.51767 0
M  V30 1395 N 135.985 -1.50799 -0.457987 0
M  V30 1396 C 137.231 -1.62683 -1.21088 0
M  V30 1397 C 137.564 -0.332268 -1.91336 0
M  V30 1398 O 136.839 0.667043 -1.82704 0
M  V30 1399 C 137.122 -2.81615 -2.24422 0
M  V30 1400 C 136.975 -4.20989 -1.58392 0
M  V30 1401 C 138.294 -2.96085 -3.2561 0
M  V30 1402 H 135.413 -0.592087 -0.438864 0
M  V30 1403 H 138.055 -1.83225 -0.50286 0
M  V30 1404 H 136.205 -2.64231 -2.84806 0
M  V30 1405 H 137.877 -4.49994 -1.01504 0
M  V30 1406 H 136.12 -4.24641 -0.886704 0
M  V30 1407 H 136.791 -5.0016 -2.33547 0
M  V30 1408 H 139.267 -3.12042 -2.75262 0
M  V30 1409 H 138.143 -3.80902 -3.95228 0
M  V30 1410 H 138.404 -2.0726 -3.90507 0
M  V30 1411 N 137.463 0.71206 -1.40597 0
M  V30 1412 C 138.373 1.8562 -1.43466 0
M  V30 1413 C 139.389 1.70902 -0.326902 0
M  V30 1414 O 140.565 1.93105 -0.572043 0
M  V30 1415 C 137.63 3.21451 -1.29884 0
M  V30 1416 C 136.691 3.48398 -2.50833 0
M  V30 1417 C 135.924 4.77749 -2.3789 0
M  V30 1418 O 136.147 5.53089 -1.39459 0
M  V30 1419 O 135.081 5.05111 -3.27333 0
M  V30 1420 H 138.907 1.86155 -2.39958 0
M  V30 1421 H 136.492 0.86295 -1.21957 0
M  V30 1422 H 138.374 4.02579 -1.24531 0
M  V30 1423 H 137.049 3.21636 -0.364997 0
M  V30 1424 H 135.956 2.67265 -2.61763 0
M  V30 1425 H 137.289 3.53014 -3.4299 0
M  V30 1426 N 138.941 1.26152 0.944643 0
M  V30 1427 C 139.888 1.07408 2.04285 0
M  V30 1428 C 140.858 -0.0198413 1.66088 0
M  V30 1429 O 142.043 0.139264 1.90291 0
M  V30 1430 C 139.183 0.70945 3.37729 0
M  V30 1431 C 138.296 1.87926 3.88983 0
M  V30 1432 C 137.431 1.45807 5.10797 0
M  V30 1433 C 136.47 2.5964 5.54305 0
M  V30 1434 N 135.607 2.18226 6.67324 0
M  V30 1435 H 140.447 2.01389 2.1965 0
M  V30 1436 H 137.984 1.00275 1.07626 0
M  V30 1437 H 139.942 0.478948 4.14442 0
M  V30 1438 H 138.572 -0.193389 3.2222 0
M  V30 1439 H 137.624 2.22279 3.08701 0
M  V30 1440 H 138.936 2.73377 4.17213 0
M  V30 1441 H 138.09 1.18781 5.94959 0
M  V30 1442 H 136.829 0.574414 4.84305 0
M  V30 1443 H 135.834 2.87399 4.68702 0
M  V30 1444 H 137.059 3.48599 5.828 0
M  V30 1445 H 135.005 1.3229 6.42523 0
M  V30 1446 H 134.922 2.97221 6.95123 0
M  V30 1447 H 136.19 1.94403 7.54869 0
M  V30 1448 N 140.419 -1.14872 1.07899 0
M  V30 1449 C 141.647 -1.89661 0.82683 0
M  V30 1450 C 142.062 -1.78312 -0.620519 0
M  V30 1451 O 141.419 -1.13888 -1.42604 0
M  V30 1452 C 141.47 -3.39817 1.23316 0
M  V30 1453 O 141.191 -3.50845 2.62372 0
M  V30 1454 C 142.692 -4.31615 1.0111 0
M  V30 1455 H 139.912 -0.60092 0.298557 0
M  V30 1456 H 142.456 -1.4551 1.43691 0
M  V30 1457 H 140.611 -3.8161 0.667286 0
M  V30 1458 H 141.025 -4.44076 2.79101 0
M  V30 1459 H 142.499 -5.35367 1.34486 0
M  V30 1460 H 142.976 -4.39169 -0.0522168 0
M  V30 1461 H 143.582 -3.95572 1.56215 0
M  V30 1462 N 141.898 -0.863906 -1.31812 0
M  V30 1463 C 142.828 -0.330843 -2.31144 0
M  V30 1464 C 143.809 0.575005 -1.60087 0
M  V30 1465 O 144.994 0.493304 -1.8783 0
M  V30 1466 C 142.124 0.47374 -3.44054 0
M  V30 1467 C 141.078 -0.338481 -4.26659 0
M  V30 1468 C 140.404 0.591412 -5.31419 0
M  V30 1469 C 141.704 -1.56926 -4.98168 0
M  V30 1470 H 143.398 -1.16086 -2.75979 0
M  V30 1471 H 140.944 -0.559657 -1.32679 0
M  V30 1472 H 142.897 0.857143 -4.12591 0
M  V30 1473 H 141.621 1.33721 -2.9797 0
M  V30 1474 H 140.28 -0.703754 -3.59782 0
M  V30 1475 H 139.928 1.45199 -4.81587 0
M  V30 1476 H 139.628 0.0519022 -5.87577 0
M  V30 1477 H 141.152 0.97179 -6.02817 0
M  V30 1478 H 142.566 -1.25764 -5.59336 0
M  V30 1479 H 140.963 -2.04739 -5.64094 0
M  V30 1480 H 142.033 -2.32544 -4.25501 0
M  V30 1481 N 143.376 1.44774 -0.622745 0
M  V30 1482 C 144.601 2.06999 -0.128968 0
M  V30 1483 C 145.026 1.4617 1.1839 0
M  V30 1484 O 144.384 0.560007 1.72434 0
M  V30 1485 C 144.432 3.60595 -0.0188351 0
M  V30 1486 O 143.536 3.99398 1.02739 0
M  V30 1487 H 142.877 0.659047 -0.0809544 0
M  V30 1488 H 145.407 1.85784 -0.85705 0
M  V30 1489 H 145.417 4.07627 0.174476 0
M  V30 1490 H 144.092 4.04252 -0.977384 0
M  V30 1491 H 142.669 3.64011 0.809326 0
M  V30 1492 N 144.854 0.36279 1.53368 0
M  V30 1493 C 146.082 -0.228613 2.05633 0
M  V30 1494 C 146.497 -1.42676 1.23649 0
M  V30 1495 O 145.854 -1.80394 0.27647 0
M  V30 1496 C 145.905 -0.624845 3.56059 0
M  V30 1497 O 145.626 0.525675 4.34935 0
M  V30 1498 C 147.127 -1.27493 4.24571 0
M  V30 1499 H 144.347 -0.0407183 0.669763 0
M  V30 1500 H 146.891 0.520352 1.97769 0
M  V30 1501 H 145.046 -1.32373 3.64083 0
M  V30 1502 H 145.46 0.205969 5.24095 0
M  V30 1503 H 146.934 -1.50277 5.31151 0
M  V30 1504 H 147.411 -2.23439 3.78116 0
M  V30 1505 H 148.017 -0.617558 4.20792 0
M  V30 1506 N 146.332 -1.57332 0.0918853 0
M  V30 1507 C 147.581 -1.93412 -0.572249 0
M  V30 1508 C 147.894 -0.975515 -1.69538 0
M  V30 1509 O 149.1 -1.22991 -2.42045 0
M  V30 1510 C 147.556 -3.43648 -1.0693 0
M  V30 1511 C 147.164 -4.47994 0.0239049 0
M  V30 1512 C 148.908 -3.88695 -1.70635 0
M  V30 1513 C 146.815 -5.89381 -0.488319 0
M  V30 1514 H 145.745 -0.721939 -0.217532 0
M  V30 1515 H 148.396 -1.82735 0.167369 0
M  V30 1516 H 146.778 -3.49466 -1.8625 0
M  V30 1517 H 147.952 -4.53815 0.799277 0
M  V30 1518 H 146.267 -4.12536 0.565946 0
M  V30 1519 H 148.864 -4.91725 -2.10025 0
M  V30 1520 H 149.207 -3.27166 -2.57426 0
M  V30 1521 H 149.74 -3.85564 -0.979023 0
M  V30 1522 H 146.479 -6.54602 0.342906 0
M  V30 1523 H 145.999 -5.87037 -1.23077 0
M  V30 1524 H 147.678 -6.39863 -0.958317 0
M  V30 1525 N 147.81 0.181792 -1.56548 0
M  V30 1526 C 148.773 1.20894 -1.94724 0
M  V30 1527 C 149.773 1.37738 -0.829747 0
M  V30 1528 O 150.963 1.35323 -1.09697 0
M  V30 1529 C 148.095 2.57593 -2.23291 0
M  V30 1530 H 149.288 0.882275 -2.86629 0
M  V30 1531 H 146.841 0.423838 -1.50444 0
M  V30 1532 H 147.576 2.95291 -1.34067 0
M  V30 1533 H 147.361 2.46735 -3.04736 0
M  V30 1534 H 148.851 3.31637 -2.53785 0
M  V30 1535 N 149.288 1.51039 0.449983 0
M  V30 1536 C 150.516 1.66869 1.2232 0
M  V30 1537 C 150.931 0.360727 1.85322 0
M  V30 1538 O 150.288 -0.659531 1.70166 0
M  V30 1539 C 150.339 2.77524 2.31652 0
M  V30 1540 O 150.06 4.03252 1.7123 0
M  V30 1541 C 151.561 3.04512 3.2216 0
M  V30 1542 H 148.781 0.560326 0.369155 0
M  V30 1543 H 151.325 1.97385 0.534719 0
M  V30 1544 H 149.48 2.49642 2.96239 0
M  V30 1545 H 149.894 4.64609 2.43389 0
M  V30 1546 H 151.368 3.85551 3.95038 0
M  V30 1547 H 151.845 2.16415 3.8218 0
M  V30 1548 H 152.451 3.34005 2.63288 0
M  V30 1549 N 150.766 -0.704594 1.40972 0
M  V30 1550 C 151.991 -1.49858 1.43378 0
M  V30 1551 C 152.416 -1.88061 0.038184 0
M  V30 1552 O 151.774 -1.5402 -0.956425 0
M  V30 1553 C 151.822 -2.74333 2.34038 0
M  V30 1554 O 150.926 -3.7147 1.7912 0
M  V30 1555 H 150.267 -0.45139 0.486974 0
M  V30 1556 H 152.797 -0.866832 1.8533 0
M  V30 1557 H 152.807 -3.22741 2.49604 0
M  V30 1558 H 151.482 -2.45863 3.35446 0
M  V30 1559 H 150.059 -3.30363 1.72958 0
M  V30 1560 N 152.244 -1.26651 -0.937939 0
M  V30 1561 C 153.472 -1.15173 -1.7188 0
M  V30 1562 C 153.887 0.292668 -1.86518 0
M  V30 1563 O 153.244 1.20014 -1.37488 0
M  V30 1564 C 153.295 -1.81925 -3.12387 0
M  V30 1565 O 153.016 -3.2072 -2.98446 0
M  V30 1566 C 154.517 -1.76442 -4.06673 0
M  V30 1567 H 151.737 -0.400911 -0.538063 0
M  V30 1568 H 154.281 -1.67332 -1.1756 0
M  V30 1569 H 152.436 -1.33696 -3.63599 0
M  V30 1570 H 152.85 -3.53802 -3.872 0
M  V30 1571 H 154.324 -2.27781 -5.02812 0
M  V30 1572 H 154.801 -0.731608 -4.33064 0
M  V30 1573 H 155.407 -2.24238 -3.61382 0
M  V30 1574 N 153.722 1.14298 -1.08507 0
M  V30 1575 C 154.999 1.81544 -0.728088 0
M  V30 1576 C 155.379 1.95838 0.78808 0
M  V30 1577 O 154.727 1.51904 1.70697 0
M  V30 1578 C 154.937 3.17169 -1.45619 0
M  V30 1579 C 156.285 3.9265 -1.61591 0
M  V30 1580 O 157.309 3.26762 -1.41793 0
M  V30 1581 O 156.168 5.10807 -1.94263 0
M  V30 1582 H 153.262 0.78491 -0.260471 0
M  V30 1583 H 155.808 1.21307 -1.18671 0
M  V30 1584 H 154.58 3.01934 -2.489 0
M  V30 1585 H 154.203 3.851 -0.989124 0
M  V30 1586 N 155.201 0.870884 1.31352 0
M  V30 1587 C 156.164 0.332243 2.26779 0
M  V30 1588 C 157.164 -0.517302 1.52252 0
M  V30 1589 O 158.354 -0.326477 1.71113 0
M  V30 1590 C 155.486 -0.528066 3.36785 0
M  V30 1591 H 156.679 1.17469 2.75937 0
M  V30 1592 H 154.232 0.64655 1.423 0
M  V30 1593 H 154.967 -1.39167 2.92922 0
M  V30 1594 H 154.752 0.0802582 3.92018 0
M  V30 1595 H 156.242 -0.897179 4.07849 0
M  V30 1596 N 156.679 -1.44442 0.630414 0
M  V30 1597 C 157.642 -2.29107 -0.0652523 0
M  V30 1598 C 158.642 -1.41002 -0.772995 0
M  V30 1599 O 159.832 -1.62881 -0.617692 0
M  V30 1600 C 156.964 -3.22564 -1.10296 0
M  V30 1601 H 158.157 -2.92103 0.679401 0
M  V30 1602 H 155.71 -1.51343 0.390517 0
M  V30 1603 H 156.445 -2.64416 -1.87762 0
M  V30 1604 H 156.23 -3.87491 -0.59941 0
M  V30 1605 H 157.72 -3.86167 -1.5895 0
M  V30 1606 N 158.157 -0.370918 -1.53173 0
M  V30 1607 C 159.382 0.220293 -2.06227 0
M  V30 1608 C 159.807 1.41243 -1.24225 0
M  V30 1609 O 159.165 1.79387 -0.262645 0
M  V30 1610 C 159.213 0.586663 -3.55796 0
M  V30 1611 O 158.317 1.68317 -3.76488 0
M  V30 1612 H 157.658 0.0308099 -0.663285 0
M  V30 1613 H 160.188 -0.533068 -1.97534 0
M  V30 1614 H 160.198 0.85617 -3.98916 0
M  V30 1615 H 158.873 -0.285013 -4.14922 0
M  V30 1616 H 157.45 1.40881 -3.45264 0
M  V30 1617 N 159.635 1.57281 -0.100228 0
M  V30 1618 C 160.881 1.94826 0.563101 0
M  V30 1619 C 161.214 0.982475 1.67514 0
M  V30 1620 O 160.489 0.0164069 1.94493 0
M  V30 1621 C 160.772 3.42453 1.11346 0
M  V30 1622 C 160.625 4.498 0.00612081 0
M  V30 1623 C 161.944 3.91506 2.01024 0
M  V30 1624 H 159.063 0.708428 0.203221 0
M  V30 1625 H 161.705 1.8922 -0.171979 0
M  V30 1626 H 159.855 3.47361 1.7399 0
M  V30 1627 H 161.527 4.57 -0.628357 0
M  V30 1628 H 159.77 4.28756 -0.659581 0
M  V30 1629 H 160.441 5.50306 0.432109 0
M  V30 1630 H 162.917 3.88784 1.48278 0
M  V30 1631 H 161.793 4.95358 2.36457 0
M  V30 1632 H 162.054 3.31099 2.92961 0
M  V30 1633 N 161.113 -0.173488 1.56642 0
M  V30 1634 C 162.359 -0.891784 1.8214 0
M  V30 1635 C 162.692 -1.8199 0.677736 0
M  V30 1636 O 161.967 -1.91842 -0.320446 0
M  V30 1637 C 162.25 -1.68933 3.18015 0
M  V30 1638 C 162.103 -0.784487 4.42906 0
M  V30 1639 C 163.422 -2.65748 3.50808 0
M  V30 1640 H 160.541 -0.322761 0.662567 0
M  V30 1641 H 163.183 -0.158095 1.89341 0
M  V30 1642 H 161.333 -2.31482 3.12007 0
M  V30 1643 H 163.005 -0.172046 4.60979 0
M  V30 1644 H 161.248 -0.0924117 4.33702 0
M  V30 1645 H 161.919 -1.37799 5.34524 0
M  V30 1646 H 164.395 -2.13327 3.57255 0
M  V30 1647 H 163.271 -3.18619 4.4696 0
M  V30 1648 H 163.532 -3.45842 2.75401 0
M  V30 1649 N 162.591 -1.51276 -0.441967 0
M  V30 1650 C 163.541 -1.6864 -1.53442 0
M  V30 1651 C 164.525 -0.540444 -1.51552 0
M  V30 1652 O 165.717 -0.796157 -1.58083 0
M  V30 1653 C 162.846 -1.8106 -2.91672 0
M  V30 1654 C 161.932 -3.01424 -2.98336 0
M  V30 1655 N 162.323 -4.2467 -2.74752 0
M  V30 1656 C 160.621 -3.00584 -3.29493 0
M  V30 1657 C 161.322 -5.05891 -2.87139 0
M  V30 1658 N 160.298 -4.40442 -3.18609 0
M  V30 1659 H 164.1 -2.61598 -1.33954 0
M  V30 1660 H 161.614 -1.4886 -0.6492 0
M  V30 1661 H 163.611 -1.91609 -3.70259 0
M  V30 1662 H 162.271 -0.892795 -3.12185 0
M  V30 1663 H 163.282 -4.53691 -2.49769 0
M  V30 1664 H 159.959 -2.18417 -3.55809 0
M  V30 1665 H 161.349 -6.13983 -2.72899 0
M  V30 1666 N 164.069 0.697108 -1.41344 0
M  V30 1667 C 165.294 1.49096 -1.44171 0
M  V30 1668 C 165.719 1.88038 -0.0481568 0
M  V30 1669 O 165.077 1.54525 0.948243 0
M  V30 1670 C 165.125 2.73088 -2.3549 0
M  V30 1671 O 164.229 3.70514 -1.81088 0
M  V30 1672 H 163.57 0.448801 -0.489361 0
M  V30 1673 H 166.1 0.856992 -1.85787 0
M  V30 1674 H 166.11 3.21413 -2.51312 0
M  V30 1675 H 164.785 2.44081 -3.36745 0
M  V30 1676 H 163.362 3.29441 -1.74708 0
M  V30 1677 N 165.547 1.27147 0.931209 0
M  V30 1678 C 166.775 1.16082 1.71267 0
M  V30 1679 C 167.19 -0.282772 1.8667 0
M  V30 1680 O 166.547 -1.19283 1.38122 0
M  V30 1681 C 166.598 1.8358 3.11417 0
M  V30 1682 O 166.319 3.22299 2.96741 0
M  V30 1683 C 167.82 1.78597 4.05732 0
M  V30 1684 H 165.04 0.403758 0.535929 0
M  V30 1685 H 167.584 1.67953 1.16671 0
M  V30 1686 H 165.739 1.35623 3.62885 0
M  V30 1687 H 166.153 3.55851 3.85319 0
M  V30 1688 H 167.627 2.30444 5.01597 0
M  V30 1689 H 168.104 0.754564 4.3267 0
M  V30 1690 H 168.71 2.26152 3.60188 0
M  V30 1691 N 167.025 -1.13721 1.09112 0
M  V30 1692 C 168.302 -1.81155 0.737706 0
M  V30 1693 C 168.682 -1.96253 -0.777683 0
M  V30 1694 O 168.03 -1.52807 -1.69889 0
M  V30 1695 C 168.24 -3.16392 1.47299 0
M  V30 1696 C 169.588 -3.91787 1.63671 0
M  V30 1697 O 170.612 -3.26005 1.43524 0
M  V30 1698 O 169.471 -5.0977 1.96969 0
M  V30 1699 H 166.565 -0.783518 0.26463 0
M  V30 1700 H 169.111 -1.20676 1.19312 0
M  V30 1701 H 167.883 -3.0061 2.50498 0
M  V30 1702 H 167.506 -3.8457 1.00953 0
M  V30 1703 N 168.503 -0.877838 -1.30888 0
M  V30 1704 C 169.433 -0.35534 -2.3078 0
M  V30 1705 C 170.414 0.557994 -1.60687 0
M  V30 1706 O 171.599 0.473355 -1.88343 0
M  V30 1707 C 168.729 0.437221 -3.44537 0
M  V30 1708 C 167.683 -0.383715 -4.26276 0
M  V30 1709 C 167.009 0.535014 -5.32017 0
M  V30 1710 C 168.309 -1.62201 -4.96476 0
M  V30 1711 H 170.003 -1.19007 -2.74732 0
M  V30 1712 H 167.549 -0.573698 -1.32078 0
M  V30 1713 H 169.502 0.813334 -4.13477 0
M  V30 1714 H 168.226 1.30553 -2.99372 0
M  V30 1715 H 166.885 -0.741874 -3.59015 0
M  V30 1716 H 166.533 1.40083 -4.831 0
M  V30 1717 H 166.233 -0.0104211 -5.87599 0
M  V30 1718 H 167.757 0.907799 -6.03814 0
M  V30 1719 H 169.171 -1.31689 -5.5797 0
M  V30 1720 H 167.568 -2.10711 -5.61891 0
M  V30 1721 H 168.638 -2.37044 -4.23011 0
M  V30 1722 N 169.982 1.44106 -0.638065 0
M  V30 1723 C 171.228 2.02277 -0.145546 0
M  V30 1724 C 171.561 1.50125 1.23191 0
M  V30 1725 O 170.836 0.688133 1.8192 0
M  V30 1726 C 171.119 3.59829 -0.139791 0
M  V30 1727 C 170.972 4.22247 -1.55008 0
M  V30 1728 C 172.291 4.36873 0.531966 0
M  V30 1729 H 169.41 0.734992 -0.0543632 0
M  V30 1730 H 172.052 1.71592 -0.815863 0
M  V30 1731 H 170.202 3.86102 0.431007 0
M  V30 1732 H 171.874 4.07057 -2.1703 0
M  V30 1733 H 170.117 3.79476 -2.10191 0
M  V30 1734 H 170.788 5.31284 -1.49804 0
M  V30 1735 H 173.264 4.16074 0.0464781 0
M  V30 1736 H 172.14 5.4657 0.505206 0
M  V30 1737 H 172.401 4.11995 1.60352 0
M  V30 1738 N 171.46 0.379036 1.52974 0
M  V30 1739 C 172.706 -0.206727 2.01744 0
M  V30 1740 C 173.039 -1.47314 1.26539 0
M  V30 1741 O 172.314 -1.91084 0.362903 0
M  V30 1742 C 172.597 -0.485066 3.56818 0
M  V30 1743 C 172.45 0.795919 4.42702 0
M  V30 1744 C 173.769 -1.28003 4.21074 0
M  V30 1745 H 170.888 -0.0736607 0.73331 0
M  V30 1746 H 173.53 0.506581 1.83122 0
M  V30 1747 H 171.68 -1.09272 3.72816 0
M  V30 1748 H 173.352 1.43307 4.38476 0
M  V30 1749 H 171.595 1.41344 4.10127 0
M  V30 1750 H 172.266 0.555947 5.49193 0
M  V30 1751 H 174.742 -0.765867 4.08991 0
M  V30 1752 H 173.618 -1.44352 5.29579 0
M  V30 1753 H 173.879 -2.29236 3.78026 0
M  V30 1754 N 172.938 -1.57226 0.108567 0
M  V30 1755 C 173.848 -2.18292 -0.859401 0
M  V30 1756 C 174.864 -1.15612 -1.30038 0
M  V30 1757 O 176.04 -1.48039 -1.36552 0
M  V30 1758 C 173.105 -2.762 -2.09558 0
M  V30 1759 C 172.166 -3.93881 -1.70752 0
M  V30 1760 C 171.399 -4.49018 -2.88477 0
M  V30 1761 O 171.622 -4.03068 -4.036 0
M  V30 1762 O 170.556 -5.39852 -2.66164 0
M  V30 1763 H 174.382 -3.01441 -0.369769 0
M  V30 1764 H 171.967 -1.48945 -0.1165 0
M  V30 1765 H 173.849 -3.13156 -2.81978 0
M  V30 1766 H 172.524 -1.96089 -2.57548 0
M  V30 1767 H 171.431 -3.61713 -0.954714 0
M  V30 1768 H 172.764 -4.75396 -1.27513 0
M  V30 1769 N 174.416 0.165178 -1.56732 0
M  V30 1770 C 175.379 1.18822 -1.95995 0
M  V30 1771 C 176.379 1.3685 -0.84431 0
M  V30 1772 O 177.569 1.34152 -1.11126 0
M  V30 1773 C 174.701 2.5521 -2.26011 0
M  V30 1774 H 175.894 0.851825 -2.87548 0
M  V30 1775 H 173.447 0.407857 -1.50885 0
M  V30 1776 H 174.182 2.93852 -1.37191 0
M  V30 1777 H 173.967 2.43489 -3.07336 0
M  V30 1778 H 175.457 3.28927 -2.57288 0
M  V30 1779 N 175.894 1.51508 0.433938 0
M  V30 1780 C 177.143 1.63578 1.18005 0
M  V30 1781 C 177.456 0.359514 1.92268 0
M  V30 1782 O 178.662 0.359632 2.69108 0
M  V30 1783 C 177.118 2.88901 2.14626 0
M  V30 1784 C 176.726 4.23544 1.45995 0
M  V30 1785 C 178.47 3.10328 2.89649 0
M  V30 1786 C 176.377 5.40014 2.4112 0
M  V30 1787 H 175.307 0.609277 0.444182 0
M  V30 1788 H 177.958 1.77978 0.446773 0
M  V30 1789 H 176.34 2.68142 2.91403 0
M  V30 1790 H 177.514 4.54696 0.747532 0
M  V30 1791 H 175.829 4.08021 0.831115 0
M  V30 1792 H 178.426 3.94518 3.60915 0
M  V30 1793 H 178.769 2.23544 3.51189 0
M  V30 1794 H 179.302 3.31443 2.19978 0
M  V30 1795 H 176.041 6.29068 1.84264 0
M  V30 1796 H 175.561 5.13233 3.10406 0
M  V30 1797 H 177.24 5.72099 3.02177 0
M  V30 1798 N 177.372 -0.689602 1.41712 0
M  V30 1799 C 178.618 -1.45181 1.41599 0
M  V30 1800 C 178.951 -1.94181 0.0270081 0
M  V30 1801 O 178.226 -1.6993 -0.946265 0
M  V30 1802 C 178.509 -2.65945 2.42787 0
M  V30 1803 C 178.362 -2.22672 3.90816 0
M  V30 1804 C 179.681 -3.68149 2.41151 0
M  V30 1805 H 176.8 -0.526576 0.515642 0
M  V30 1806 H 179.442 -0.784947 1.73028 0
M  V30 1807 H 177.592 -3.2284 2.16116 0
M  V30 1808 H 179.264 -1.71058 4.28412 0
M  V30 1809 H 177.507 -1.54394 4.05395 0
M  V30 1810 H 178.178 -3.0935 4.57172 0
M  V30 1811 H 180.654 -3.2094 2.64834 0
M  V30 1812 H 179.53 -4.50248 3.13955 0
M  V30 1813 H 179.791 -4.18259 1.43221 0
M  V30 1814 N 178.85 -1.27639 -0.924453 0
M  V30 1815 C 179.76 -1.12466 -2.05885 0
M  V30 1816 C 180.776 -0.053869 -1.73917 0
M  V30 1817 O 181.952 -0.261012 -1.99702 0
M  V30 1818 C 179.017 -0.776768 -3.37886 0
M  V30 1819 C 178.078 -1.92878 -3.83532 0
M  V30 1820 C 177.311 -1.59739 -5.09234 0
M  V30 1821 O 177.534 -0.506782 -5.68144 0
M  V30 1822 O 176.468 -2.43761 -5.50331 0
M  V30 1823 H 180.294 -2.07671 -2.21599 0
M  V30 1824 H 177.879 -1.06857 -1.04413 0
M  V30 1825 H 179.761 -0.596229 -4.17161 0
M  V30 1826 H 178.436 0.145732 -3.23372 0
M  V30 1827 H 177.343 -2.1644 -3.0513 0
M  V30 1828 H 178.676 -2.8316 -4.02593 0
M  V30 1829 N 180.328 1.1314 -1.09713 0
M  V30 1830 C 181.276 2.20717 -0.733934 0
M  V30 1831 C 182.27 1.6729 0.266506 0
M  V30 1832 O 183.476 1.79547 0.127656 0
M  V30 1833 H 179.851 0.719292 -0.21937 0
M  V30 1834 H 181.822 2.48611 -1.6503 0
M  V30 1835 C 180.571 3.47265 -0.173849 0
M  V30 1836 H 179.894 3.88716 -0.934873 0
M  V30 1837 H 181.334 4.23979 0.0423126 0
M  V30 1838 C 179.793 3.18724 1.09164 0
M  V30 1839 O 180.323 3.37762 2.17439 0
M  V30 1840 N 178.529 2.72583 1.00732 0
M  V30 1841 H 178.076 2.57291 0.126121 0
M  V30 1842 H 178.034 2.53862 1.85476 0
M  V30 1843 N 181.806 0.884767 1.30421 0
M  V30 1844 C 182.736 0.367574 2.30589 0
M  V30 1845 C 183.717 -0.549464 1.60981 0
M  V30 1846 O 184.902 -0.46336 1.88591 0
M  V30 1847 C 182.032 -0.418944 3.44764 0
M  V30 1848 C 180.986 0.406316 4.26067 0
M  V30 1849 C 180.312 -0.506793 5.32293 0
M  V30 1850 C 181.612 1.64832 4.95608 0
M  V30 1851 H 183.306 1.20462 2.74097 0
M  V30 1852 H 180.852 0.580695 1.31772 0
M  V30 1853 H 182.805 -0.791395 4.13902 0
M  V30 1854 H 181.529 -1.28964 3.0006 0
M  V30 1855 H 180.188 0.760903 3.58617 0
M  V30 1856 H 179.836 -1.37519 4.83836 0
M  V30 1857 H 179.536 0.0415828 5.87585 0
M  V30 1858 H 181.06 -0.875764 6.04287 0
M  V30 1859 H 182.474 1.34646 5.57264 0
M  V30 1860 H 180.871 2.13688 5.60765 0
M  V30 1861 H 181.941 2.39284 4.21748 0
M  V30 1862 N 183.284 -1.43765 0.645699 0
M  V30 1863 C 184.231 -2.30745 -0.0504648 0
M  V30 1864 C 185.201 -1.4432 -0.822241 0
M  V30 1865 O 186.386 -1.73202 -0.800358 0
M  V30 1866 C 183.526 -3.29802 -1.0161 0
M  V30 1867 C 182.639 -4.31326 -0.241219 0
M  V30 1868 C 181.774 -5.17469 -1.19998 0
M  V30 1869 C 180.813 -6.10691 -0.415094 0
M  V30 1870 N 179.95 -6.89483 -1.32506 0
M  V30 1871 H 184.79 -2.8973 0.697155 0
M  V30 1872 H 182.327 -1.42738 0.355563 0
M  V30 1873 H 184.285 -3.85734 -1.58949 0
M  V30 1874 H 182.915 -2.72483 -1.73069 0
M  V30 1875 H 181.967 -3.77749 0.448334 0
M  V30 1876 H 183.279 -4.9743 0.369437 0
M  V30 1877 H 182.433 -5.7799 -1.84424 0
M  V30 1878 H 181.172 -4.51473 -1.84455 0
M  V30 1879 H 180.177 -5.49265 0.242565 0
M  V30 1880 H 181.402 -6.78727 0.224966 0
M  V30 1881 H 179.348 -6.26142 -1.95657 0
M  V30 1882 H 179.265 -7.52081 -0.768783 0
M  V30 1883 H 180.533 -7.54516 -1.9577 0
M  V30 1884 N 184.763 -0.387143 -1.52771 0
M  V30 1885 C 186.009 0.196025 -2.0185 0
M  V30 1886 C 186.342 1.46641 -1.27319 0
M  V30 1887 O 185.617 1.90889 -0.373032 0
M  V30 1888 C 185.9 0.466136 -3.5707 0
M  V30 1889 C 185.753 -0.819385 -4.42274 0
M  V30 1890 C 187.072 1.25768 -4.21747 0
M  V30 1891 H 184.191 0.0697708 -0.73369 0
M  V30 1892 H 186.833 -0.516286 -1.82851 0
M  V30 1893 H 184.983 1.07293 -3.7339 0
M  V30 1894 H 186.655 -1.4563 -4.37709 0
M  V30 1895 H 184.898 -1.43517 -4.09372 0
M  V30 1896 H 185.569 -0.585065 -5.48891 0
M  V30 1897 H 188.045 0.744167 -4.09391 0
M  V30 1898 H 186.921 1.41541 -5.30337 0
M  V30 1899 H 187.182 2.27228 -3.79236 0
M  V30 1900 N 186.241 1.57166 -0.116904 0
M  V30 1901 C 187.188 2.15202 0.83408 0
M  V30 1902 C 188.158 1.07644 1.26499 0
M  V30 1903 O 189.343 1.35541 1.34288 0
M  V30 1904 C 186.483 2.75405 2.07957 0
M  V30 1905 C 185.596 3.97264 1.69721 0
M  V30 1906 C 184.731 4.45561 2.89221 0
M  V30 1907 C 183.77 5.59956 2.47215 0
M  V30 1908 N 182.907 6.03006 3.59622 0
M  V30 1909 H 187.747 2.96141 0.332335 0
M  V30 1910 H 185.284 1.46309 0.152349 0
M  V30 1911 H 187.242 3.08439 2.80929 0
M  V30 1912 H 185.872 1.97159 2.55594 0
M  V30 1913 H 184.924 3.70404 0.866316 0
M  V30 1914 H 186.236 4.80226 1.34849 0
M  V30 1915 H 185.39 4.80493 3.7042 0
M  V30 1916 H 184.129 3.61544 3.27318 0
M  V30 1917 H 183.134 5.2463 1.64448 0
M  V30 1918 H 184.359 6.45738 2.10238 0
M  V30 1919 H 182.305 5.21931 3.97396 0
M  V30 1920 H 182.222 6.80819 3.28667 0
M  V30 1921 H 183.49 6.42576 4.41267 0
M  V30 1922 N 187.719 -0.156864 1.56817 0
M  V30 1923 C 188.667 -1.21319 1.98455 0
M  V30 1924 C 189.661 -1.45025 0.875444 0
M  V30 1925 O 190.867 -1.45435 1.0606 0
M  V30 1926 H 187.242 -0.408142 0.631605 0
M  V30 1927 H 189.213 -0.835244 2.86472 0
M  V30 1928 C 187.962 -2.54148 2.37285 0
M  V30 1929 H 187.285 -2.36733 3.22176 0
M  V30 1930 H 188.725 -3.26712 2.70251 0
M  V30 1931 C 187.184 -3.13967 1.22173 0
M  V30 1932 O 187.714 -3.98357 0.517149 0
M  V30 1933 N 185.92 -2.7327 0.988536 0
M  V30 1934 H 185.467 -2.04744 1.56326 0
M  V30 1935 H 185.425 -3.13628 0.220209 0
M  V30 1936 N 189.197 -1.51736 -0.425897 0
M  V30 1937 C 190.107 -1.76738 -1.54275 0
M  V30 1938 C 191.123 -0.65211 -1.61318 0
M  V30 1939 O 192.299 -0.935654 -1.78346 0
M  V30 1940 C 189.364 -1.89755 -2.90162 0
M  V30 1941 C 188.425 -3.13633 -2.93143 0
M  V30 1942 C 187.658 -3.2602 -4.22548 0
M  V30 1943 O 187.881 -2.44067 -5.15546 0
M  V30 1944 O 186.815 -4.19071 -4.32046 0
M  V30 1945 H 190.641 -2.71502 -1.36089 0
M  V30 1946 H 188.226 -1.36376 -0.610069 0
M  V30 1947 H 190.108 -2.00236 -3.70788 0
M  V30 1948 H 188.783 -0.981785 -3.08452 0
M  V30 1949 H 187.69 -3.08622 -2.11431 0
M  V30 1950 H 189.023 -4.04936 -2.798 0
M  V30 1951 N 190.675 0.682077 -1.42076 0
M  V30 1952 C 191.605 1.80796 -1.47767 0
M  V30 1953 C 192.586 1.6677 -0.334954 0
M  V30 1954 O 193.771 1.863 -0.548264 0
M  V30 1955 C 190.901 3.19038 -1.37229 0
M  V30 1956 C 189.855 3.47789 -2.49453 0
M  V30 1957 C 189.181 4.8553 -2.23975 0
M  V30 1958 C 190.481 3.45411 -3.91776 0
M  V30 1959 H 192.175 1.7629 -2.41997 0
M  V30 1960 H 189.721 0.846721 -1.16476 0
M  V30 1961 H 191.674 3.97528 -1.39821 0
M  V30 1962 H 190.398 3.24204 -0.394907 0
M  V30 1963 H 189.057 2.71657 -2.46166 0
M  V30 1964 H 188.705 4.87337 -1.24547 0
M  V30 1965 H 188.405 5.0573 -2.99184 0
M  V30 1966 H 189.929 5.66312 -2.28304 0
M  V30 1967 H 191.343 4.13882 -3.96705 0
M  V30 1968 H 189.74 3.77145 -4.66778 0
M  V30 1969 H 190.81 2.44122 -4.18966 0
M  V30 1970 N 192.153 1.28127 0.917671 0
M  V30 1971 C 193.4 1.15052 1.66641 0
M  V30 1972 C 193.728 -0.301677 1.92146 0
M  V30 1973 O 192.983 -1.23622 1.51711 0
M  V30 1974 C 193.282 1.89018 3.03327 0
M  V30 1975 C 192.948 3.38832 2.97496 0
M  V30 1976 C 191.61 3.79693 2.95613 0
M  V30 1977 C 193.962 4.34378 2.88036 0
M  V30 1978 C 191.29 5.14447 2.82066 0
M  V30 1979 C 193.642 5.69201 2.7603 0
M  V30 1980 C 192.306 6.09343 2.72502 0
M  V30 1981 H 191.576 0.421006 0.609783 0
M  V30 1982 H 194.223 1.58855 1.06945 0
M  V30 1983 H 192.528 1.37752 3.66785 0
M  V30 1984 H 194.225 1.76321 3.60156 0
M  V30 1985 H 190.815 3.06342 2.99754 0
M  V30 1986 H 194.999 4.03775 2.88581 0
M  V30 1987 H 190.255 5.44681 2.77728 0
M  V30 1988 H 194.429 6.42901 2.67678 0
M  V30 1989 H 192.056 7.13712 2.61762 0
M  V30 1990 N 193.631 -1.12557 1.10312 0
M  V30 1991 C 194.578 -2.18247 0.750781 0
M  V30 1992 C 195.548 -1.63853 -0.272293 0
M  V30 1993 O 196.733 -1.90195 -0.151862 0
M  V30 1994 C 193.873 -3.44591 0.187379 0
M  V30 1995 C 192.986 -4.13046 1.2656 0
M  V30 1996 C 192.121 -5.27034 0.663978 0
M  V30 1997 C 191.16 -5.87353 1.72287 0
M  V30 1998 N 190.297 -6.92757 1.1416 0
M  V30 1999 H 195.137 -2.47732 1.65628 0
M  V30 2000 H 192.674 -1.21629 0.827337 0
M  V30 2001 H 194.632 -4.16904 -0.157148 0
M  V30 2002 H 193.262 -3.15527 -0.681355 0
M  V30 2003 H 192.314 -3.38924 1.72727 0
M  V30 2004 H 193.626 -4.53947 2.06721 0
M  V30 2005 H 192.78 -6.06104 0.268824 0
M  V30 2006 H 191.519 -4.87407 -0.169082 0
M  V30 2007 H 190.524 -5.06971 2.12746 0
M  V30 2008 H 191.749 -6.29051 2.55875 0
M  V30 2009 H 189.695 -6.5517 0.329984 0
M  V30 2010 H 189.612 -7.3225 1.88007 0
M  V30 2011 H 190.88 -7.75658 0.772956 0
M  V30 2012 N 195.109 -0.891671 -1.2995 0
M  V30 2013 C 196.525 -0.58662 -1.48428 0
M  V30 2014 C 196.725 0.873951 -1.81561 0
M  V30 2015 O 195.781 1.65471 -1.90724 0
M  V30 2016 C 197.094 -1.50553 -2.60296 0
M  V30 2017 C 198.642 -1.50988 -2.74175 0
M  V30 2018 C 199.117 -2.41488 -3.89163 0
M  V30 2019 N 200.608 -2.39489 -3.96483 0
M  V30 2020 C 201.343 -3.06223 -4.84784 0
M  V30 2021 N 200.839 -3.82206 -5.77833 0
M  V30 2022 N 202.632 -2.95421 -4.78208 0
M  V30 2023 H 194.783 -1.83644 -1.06718 0
M  V30 2024 H 197.046 -0.786455 -0.529332 0
M  V30 2025 H 196.752 -2.54581 -2.42654 0
M  V30 2026 H 196.626 -1.22008 -3.56923 0
M  V30 2027 H 199.013 -0.47708 -2.91218 0
M  V30 2028 H 199.094 -1.83567 -1.78148 0
M  V30 2029 H 198.738 -3.44857 -3.72876 0
M  V30 2030 H 198.668 -2.06222 -4.84541 0
M  V30 2031 H 201.159 -1.84278 -3.29924 0
M  V30 2032 H 201.472 -4.302 -6.41988 0
M  V30 2033 H 199.817 -3.86313 -5.77743 0
M  V30 2034 H 203.008 -2.35581 -4.04499 0
M  V30 2035 H 203.181 -3.47704 -5.46814 0
M  V30 2036 N 196.587 1.43421 -0.653314 0
M  V30 2037 C 197.517 2.33487 0.0246656 0
M  V30 2038 C 198.498 1.49475 0.811863 0
M  V30 2039 O 199.683 1.78139 0.773322 0
M  V30 2040 C 196.813 3.32841 0.99166 0
M  V30 2041 C 195.767 4.26842 0.314568 0
M  V30 2042 C 195.093 5.16236 1.39302 0
M  V30 2043 C 196.393 5.16243 -0.793095 0
M  V30 2044 H 198.087 2.90427 -0.727481 0
M  V30 2045 H 195.633 1.39649 -0.351287 0
M  V30 2046 H 197.586 3.94747 1.47487 0
M  V30 2047 H 196.31 2.74158 1.77497 0
M  V30 2048 H 194.969 3.663 -0.148199 0
M  V30 2049 H 194.617 4.53891 2.16776 0
M  V30 2050 H 194.317 5.79948 0.945223 0
M  V30 2051 H 195.841 5.81015 1.87759 0
M  V30 2052 H 197.255 5.71958 -0.392039 0
M  V30 2053 H 195.652 5.88676 -1.16536 0
M  V30 2054 H 196.722 4.55927 -1.65103 0
M  V30 2055 N 198.065 0.39524 1.52563 0
M  V30 2056 C 199.342 -0.242908 1.94086 0
M  V30 2057 C 199.722 -1.63841 1.33114 0
M  V30 2058 O 199.07 -2.22928 0.501529 0
M  V30 2059 C 199.28 -0.26327 3.48006 0
M  V30 2060 C 200.628 -0.489354 4.21771 0
M  V30 2061 O 201.652 -0.343226 3.54543 0
M  V30 2062 O 200.511 -0.776169 5.4096 0
M  V30 2063 H 197.605 -0.152536 0.812811 0
M  V30 2064 H 200.151 0.450178 1.6362 0
M  V30 2065 H 198.923 0.713985 3.84731 0
M  V30 2066 H 198.546 -1.00103 3.84792 0
M  V30 2067 N 199.544 -1.57102 0.125237 0
M  V30 2068 C 200.491 -2.15641 -0.822655 0
M  V30 2069 C 201.461 -1.08313 -1.25927 0
M  V30 2070 O 202.646 -1.36251 -1.33567 0
M  V30 2071 C 199.786 -2.76504 -2.06494 0
M  V30 2072 C 198.899 -3.98158 -1.67612 0
M  V30 2073 C 198.034 -4.47088 -2.86854 0
M  V30 2074 C 197.073 -5.6126 -2.44242 0
M  V30 2075 N 196.21 -6.04905 -3.56419 0
M  V30 2076 H 201.05 -2.96313 -0.316625 0
M  V30 2077 H 198.587 -1.46388 -0.144588 0
M  V30 2078 H 200.545 -3.09925 -2.79289 0
M  V30 2079 H 199.175 -1.98512 -2.54545 0
M  V30 2080 H 198.227 -3.70858 -0.846661 0
M  V30 2081 H 199.539 -4.80934 -1.32301 0
M  V30 2082 H 198.693 -4.82451 -3.67867 0
M  V30 2083 H 197.432 -3.63275 -3.25396 0
M  V30 2084 H 196.437 -5.25495 -1.61663 0
M  V30 2085 H 197.662 -6.46843 -2.0681 0
M  V30 2086 H 195.608 -5.24032 -3.94623 0
M  V30 2087 H 195.525 -6.82552 -3.25051 0
M  V30 2088 H 196.793 -6.44907 -4.37853 0
M  V30 2089 N 201.022 0.148545 -1.56898 0
M  V30 2090 C 202.269 0.861418 -1.83264 0
M  V30 2091 C 202.597 1.81239 -0.705883 0
M  V30 2092 O 201.852 1.93305 0.305212 0
M  V30 2093 C 202.151 1.67064 -3.1595 0
M  V30 2094 C 201.817 0.866591 -4.42494 0
M  V30 2095 C 200.479 0.644762 -4.76861 0
M  V30 2096 C 202.831 0.30418 -5.20312 0
M  V30 2097 C 200.159 -0.15021 -5.86508 0
M  V30 2098 C 202.511 -0.477824 -6.30793 0
M  V30 2099 C 201.175 -0.710244 -6.63711 0
M  V30 2100 H 200.445 0.315215 -0.670612 0
M  V30 2101 H 203.092 0.125142 -1.91091 0
M  V30 2102 H 201.397 2.47698 -3.03567 0
M  V30 2103 H 203.094 2.22566 -3.33565 0
M  V30 2104 H 199.684 1.04955 -4.15551 0
M  V30 2105 H 203.868 0.462844 -4.94137 0
M  V30 2106 H 199.124 -0.339796 -6.10455 0
M  V30 2107 H 203.298 -0.92076 -6.90286 0
M  V30 2108 H 200.925 -1.3281 -7.48509 0
M  V30 2109 N 202.5 1.5196 0.417844 0
M  V30 2110 C 203.463 1.74065 1.49111 0
M  V30 2111 C 204.463 0.610537 1.48758 0
M  V30 2112 O 205.653 0.87832 1.50437 0
M  V30 2113 C 202.785 1.81502 2.88565 0
M  V30 2114 H 203.978 2.69869 1.30807 0
M  V30 2115 H 201.531 1.42244 0.647785 0
M  V30 2116 H 202.266 0.875813 3.1225 0
M  V30 2117 H 202.051 2.63651 2.90225 0
M  V30 2118 H 203.541 2.00376 3.66387 0
M  V30 2119 N 203.978 -0.674533 1.42435 0
M  V30 2120 C 204.941 -1.76986 1.45632 0
M  V30 2121 C 205.941 -1.5708 0.343871 0
M  V30 2122 O 207.131 -1.63367 0.604709 0
M  V30 2123 C 204.263 -3.15623 1.28822 0
M  V30 2124 H 205.456 -1.75539 2.43158 0
M  V30 2125 H 203.009 -0.884189 1.28887 0
M  V30 2126 H 203.744 -3.22696 0.322193 0
M  V30 2127 H 203.529 -3.31475 2.09444 0
M  V30 2128 H 205.019 -3.95537 1.33942 0
M  V30 2129 N 205.456 -1.28612 -0.910864 0
M  V30 2130 C 206.366 -1.14643 -2.0468 0
M  V30 2131 C 207.382 -0.0723121 -1.7385 0
M  V30 2132 O 208.558 -0.282178 -1.99413 0
M  V30 2133 C 205.623 -0.812561 -3.37044 0
M  V30 2134 C 204.684 -1.96935 -3.81465 0
M  V30 2135 C 203.917 -1.65131 -5.07511 0
M  V30 2136 O 204.14 -0.567013 -5.67575 0
M  V30 2137 O 203.074 -2.49585 -5.47714 0
M  V30 2138 H 206.9 -2.1001 -2.19384 0
M  V30 2139 H 204.485 -1.07958 -1.03274 0
M  V30 2140 H 206.367 -0.640441 -4.16505 0
M  V30 2141 H 205.042 0.111426 -3.23508 0
M  V30 2142 H 203.949 -2.19664 -3.02818 0
M  V30 2143 H 205.282 -2.87414 -3.99567 0
M  V30 2144 N 206.934 1.1197 -1.10907 0
M  V30 2145 C 207.884 2.15946 -0.731538 0
M  V30 2146 C 208.868 1.58758 0.261699 0
M  V30 2147 O 210.06 1.76863 0.0696722 0
M  V30 2148 C 207.189 3.42877 -0.170299 0
M  V30 2149 C 206.275 4.07037 -1.19087 0
M  V30 2150 N 206.666 4.46135 -2.38322 0
M  V30 2151 C 204.964 4.33884 -1.03252 0
M  V30 2152 C 205.665 4.96331 -3.03366 0
M  V30 2153 N 204.641 4.9214 -2.30865 0
M  V30 2154 H 208.443 2.43947 -1.63912 0
M  V30 2155 H 205.957 1.28927 -0.987505 0
M  V30 2156 H 207.954 4.16732 0.118271 0
M  V30 2157 H 206.614 3.16343 0.731935 0
M  V30 2158 H 207.625 4.38345 -2.75815 0
M  V30 2159 H 204.302 4.17084 -0.186256 0
M  V30 2160 H 205.692 5.36257 -4.04818 0
M  V30 2161 N 208.412 0.89855 1.29475 0
M  V30 2162 C 209.64 0.539261 1.99749 0
M  V30 2163 C 210.055 -0.875716 1.67262 0
M  V30 2164 O 209.412 -1.57786 0.917049 0
M  V30 2165 C 209.463 0.72061 3.54245 0
M  V30 2166 O 209.184 2.07989 3.8558 0
M  V30 2167 C 210.685 0.366118 4.41786 0
M  V30 2168 H 207.905 0.207047 0.638258 0
M  V30 2169 H 210.449 1.20758 1.65039 0
M  V30 2170 H 208.604 0.0994862 3.87272 0
M  V30 2171 H 209.018 2.10841 4.80257 0
M  V30 2172 H 210.492 0.543848 5.49314 0
M  V30 2173 H 210.969 -0.696763 4.33638 0
M  V30 2174 H 211.575 0.964135 4.14228 0
M  V30 2175 N 209.89 -1.43072 0.660911 0
M  V30 2176 C 211.139 -2.00942 0.174735 0
M  V30 2177 C 211.452 -1.52797 -1.22117 0
M  V30 2178 O 212.658 -2.02991 -1.80297 0
M  V30 2179 C 211.114 -3.58948 0.261559 0
M  V30 2180 C 210.722 -4.16085 1.66064 0
M  V30 2181 C 212.466 -4.24173 -0.166617 0
M  V30 2182 C 210.373 -5.6641 1.70098 0
M  V30 2183 H 209.303 -0.751483 0.0615631 0
M  V30 2184 H 211.954 -1.63955 0.824069 0
M  V30 2185 H 210.336 -3.93372 -0.455421 0
M  V30 2186 H 211.51 -3.93147 2.40359 0
M  V30 2187 H 209.825 -3.6326 2.03546 0
M  V30 2188 H 212.422 -5.34471 -0.156433 0
M  V30 2189 H 212.765 -3.98647 -1.19943 0
M  V30 2190 H 213.298 -3.94659 0.498875 0
M  V30 2191 H 210.037 -5.96715 2.71315 0
M  V30 2192 H 209.557 -5.91382 1.00139 0
M  V30 2193 H 211.236 -6.30585 1.44816 0
M  V30 2194 N 211.368 -0.403325 -1.52352 0
M  V30 2195 C 212.615 0.174347 -2.01748 0
M  V30 2196 C 212.943 1.45636 -1.2892 0
M  V30 2197 O 212.198 1.9193 -0.382258 0
M  V30 2198 C 212.497 0.474665 -3.54234 0
M  V30 2199 C 212.163 -0.717458 -4.45155 0
M  V30 2200 C 210.825 -1.04447 -4.69728 0
M  V30 2201 C 213.177 -1.51432 -4.98716 0
M  V30 2202 C 210.505 -2.16963 -5.45109 0
M  V30 2203 C 212.857 -2.6302 -5.75329 0
M  V30 2204 C 211.521 -2.96213 -5.98175 0
M  V30 2205 H 210.791 0.0637981 -0.738248 0
M  V30 2206 H 213.438 -0.543553 -1.83624 0
M  V30 2207 H 211.743 1.27406 -3.70506 0
M  V30 2208 H 213.44 0.934496 -3.89959 0
M  V30 2209 H 210.03 -0.452596 -4.26204 0
M  V30 2210 H 214.214 -1.27491 -4.79645 0
M  V30 2211 H 209.47 -2.43034 -5.61021 0
M  V30 2212 H 213.644 -3.25158 -6.15829 0
M  V30 2213 H 211.271 -3.83516 -6.56368 0
M  V30 2214 N 212.846 1.57033 -0.133567 0
M  V30 2215 C 213.809 2.14897 0.796995 0
M  V30 2216 C 214.809 1.0874 1.18458 0
M  V30 2217 O 215.999 1.34446 1.1077 0
M  V30 2218 C 213.131 2.70112 2.07973 0
M  V30 2219 H 214.324 2.98457 0.293873 0
M  V30 2220 H 211.877 1.55871 0.115787 0
M  V30 2221 H 212.612 1.9018 2.62682 0
M  V30 2222 H 212.397 3.47764 1.81115 0
M  V30 2223 H 213.887 3.14738 2.74462 0
M  V30 2224 N 214.325 -0.140222 1.56975 0
M  V30 2225 C 215.55 -0.870414 1.88251 0
M  V30 2226 C 215.975 -1.73637 0.723312 0
M  V30 2227 O 215.333 -1.78329 -0.32689 0
M  V30 2228 C 215.381 -1.69737 3.18154 0
M  V30 2229 O 214.485 -2.80229 3.02565 0
M  V30 2230 H 213.826 -0.242025 0.61832 0
M  V30 2231 H 216.356 -0.128999 2.04193 0
M  V30 2232 H 216.366 -2.09099 3.50345 0
M  V30 2233 H 215.041 -1.06152 4.02125 0
M  V30 2234 H 213.618 -2.44224 2.81796 0
M  V30 2235 N 215.803 -1.52179 -0.40978 0
M  V30 2236 C 216.751 -1.76086 -1.51975 0
M  V30 2237 C 217.745 -0.627964 -1.57331 0
M  V30 2238 O 218.951 -0.809993 -1.60745 0
M  V30 2239 H 215.326 -0.556829 -0.505416 0
M  V30 2240 H 217.297 -2.69077 -1.28996 0
M  V30 2241 C 216.046 -1.92799 -2.8935 0
M  V30 2242 H 215.369 -2.79392 -2.85972 0
M  V30 2243 H 216.809 -2.13527 -3.66309 0
M  V30 2244 C 215.268 -0.694923 -3.29655 0
M  V30 2245 O 215.798 0.13751 -4.01465 0
M  V30 2246 N 214.004 -0.53101 -2.85707 0
M  V30 2247 H 213.551 -1.20952 -2.27439 0
M  V30 2248 H 213.509 0.292718 -3.13034 0
M  V30 2249 N 217.281 0.66697 -1.42791 0
M  V30 2250 C 218.509 1.45505 -1.47091 0
M  V30 2251 C 218.924 1.8861 -0.0845873 0
M  V30 2252 O 218.281 1.58632 0.90234 0
M  V30 2253 C 218.332 2.69906 -2.40485 0
M  V30 2254 O 218.053 2.28608 -3.73725 0
M  V30 2255 C 219.554 3.63396 -2.53886 0
M  V30 2256 H 216.774 0.447459 -0.500022 0
M  V30 2257 H 219.318 0.818866 -1.8739 0
M  V30 2258 H 217.473 3.29696 -2.03419 0
M  V30 2259 H 217.887 3.08997 -4.23817 0
M  V30 2260 H 219.361 4.47387 -3.2334 0
M  V30 2261 H 219.838 4.09824 -1.57927 0
M  V30 2262 H 220.444 3.09495 -2.91706 0
M  V30 2263 N 218.759 1.29093 0.90403 0
M  V30 2264 C 219.984 1.19809 1.69294 0
M  V30 2265 C 220.409 -0.238481 1.86582 0
M  V30 2266 O 219.767 -1.1723 1.383 0
M  V30 2267 C 219.815 1.91202 3.05736 0
M  V30 2268 O 218.919 1.22611 3.93752 0
M  V30 2269 H 218.26 0.415385 0.518027 0
M  V30 2270 H 220.79 1.70586 1.12967 0
M  V30 2271 H 220.8 1.99487 3.55906 0
M  V30 2272 H 219.475 2.95692 2.92471 0
M  V30 2273 H 218.052 1.22554 3.52186 0
M  V30 2274 N 220.237 -1.11381 1.11499 0
M  V30 2275 C 221.462 -1.87475 0.887019 0
M  V30 2276 C 221.887 -1.79639 -0.557796 0
M  V30 2277 O 221.245 -1.15924 -1.39396 0
M  V30 2278 C 221.293 -3.34213 1.35403 0
M  V30 2279 O 220.397 -4.0903 0.526146 0
M  V30 2280 H 219.738 -0.582099 0.319463 0
M  V30 2281 H 222.268 -1.40785 1.48461 0
M  V30 2282 H 222.278 -3.8506 1.34881 0
M  V30 2283 H 220.953 -3.39232 2.40612 0
M  V30 2284 H 219.53 -3.68082 0.597522 0
M  V30 2285 N 221.715 -0.905404 -1.28997 0
M  V30 2286 C 222.645 -0.404212 -2.29975 0
M  V30 2287 C 223.626 0.523784 -1.61835 0
M  V30 2288 O 224.811 0.433298 -1.89304 0
M  V30 2289 C 221.941 0.364042 -3.45387 0
M  V30 2290 C 220.895 -0.474048 -4.25367 0
M  V30 2291 C 220.221 0.422045 -5.33032 0
M  V30 2292 C 221.521 -1.72696 -4.92923 0
M  V30 2293 H 223.215 -1.24807 -2.72146 0
M  V30 2294 H 220.761 -0.601585 -1.30832 0
M  V30 2295 H 222.714 0.725447 -4.15109 0
M  V30 2296 H 221.438 1.24174 -3.02074 0
M  V30 2297 H 220.097 -0.81786 -3.57361 0
M  V30 2298 H 219.745 1.29804 -4.85963 0
M  V30 2299 H 219.445 -0.135057 -5.87445 0
M  V30 2300 H 220.969 0.779517 -6.05604 0
M  V30 2301 H 222.383 -1.43495 -5.55051 0
M  V30 2302 H 220.78 -2.22582 -5.57295 0
M  V30 2303 H 221.85 -2.45964 -4.17887 0
M  V30 2304 N 223.193 1.4272 -0.668489 0
M  V30 2305 C 224.125 2.2914 0.052613 0
M  V30 2306 C 225.138 1.43339 0.771857 0
M  V30 2307 O 226.327 1.67123 0.627067 0
M  V30 2308 C 223.427 3.20618 1.09804 0
M  V30 2309 C 222.6 4.35039 0.45389 0
M  V30 2310 C 221.659 5.07282 1.39825 0
M  V30 2311 O 220.685 5.62024 0.900978 0
M  V30 2312 N 221.887 5.12206 2.73176 0
M  V30 2313 H 224.652 2.91668 -0.689209 0
M  V30 2314 H 222.213 1.53577 -0.512422 0
M  V30 2315 H 224.205 3.65815 1.73094 0
M  V30 2316 H 222.775 2.59585 1.74167 0
M  V30 2317 H 221.995 3.92567 -0.358396 0
M  V30 2318 H 223.283 5.088 0.00486972 0
M  V30 2319 H 222.681 4.6913 3.16122 0
M  V30 2320 H 221.238 5.61069 3.31729 0
M  V30 2321 N 224.671 0.411399 1.52136 0
M  V30 2322 C 225.92 -0.165009 2.01024 0
M  V30 2323 C 226.233 -1.4603 1.30133 0
M  V30 2324 O 227.439 -2.1181 1.69849 0
M  V30 2325 C 225.895 -0.344618 3.58246 0
M  V30 2326 C 225.503 0.938716 4.38055 0
M  V30 2327 C 227.247 -0.876195 4.15359 0
M  V30 2328 C 225.154 0.726172 5.86925 0
M  V30 2329 H 224.084 -0.0654407 0.751155 0
M  V30 2330 H 226.735 0.537192 1.75461 0
M  V30 2331 H 225.117 -1.10921 3.80148 0
M  V30 2332 H 226.291 1.70963 4.27912 0
M  V30 2333 H 224.606 1.39688 3.92271 0
M  V30 2334 H 227.203 -1.05128 5.24263 0
M  V30 2335 H 227.546 -1.85152 3.7286 0
M  V30 2336 H 228.079 -0.170607 3.97434 0
M  V30 2337 H 224.818 1.67312 6.33788 0
M  V30 2338 H 224.338 -0.00540283 5.998 0
M  V30 2339 H 226.017 0.369231 6.45946 0
M  V30 2340 N 226.149 -1.5696 0.141893 0
M  V30 2341 C 227.377 -2.00322 -0.517579 0
M  V30 2342 C 227.792 -1.02193 -1.58752 0
M  V30 2343 O 227.149 -0.0181619 -1.82491 0
M  V30 2344 C 227.2 -3.43618 -1.12289 0
M  V30 2345 O 226.921 -4.37995 -0.0956929 0
M  V30 2346 C 228.422 -4.02231 -1.86347 0
M  V30 2347 H 225.642 -0.657243 -0.135177 0
M  V30 2348 H 228.186 -2.03146 0.234973 0
M  V30 2349 H 226.341 -3.41662 -1.82609 0
M  V30 2350 H 226.755 -5.21729 -0.538469 0
M  V30 2351 H 228.229 -5.04509 -2.23997 0
M  V30 2352 H 228.706 -3.42655 -2.74744 0
M  V30 2353 H 229.312 -4.07802 -1.20737 0
M  V30 2354 N 227.627 0.131896 -1.57047 0
M  V30 2355 C 228.852 0.860418 -1.8871 0
M  V30 2356 C 229.277 1.73251 -0.73251 0
M  V30 2357 O 228.635 1.785 0.317429 0
M  V30 2358 C 228.683 1.68047 -3.19049 0
M  V30 2359 O 227.787 2.7862 -3.04047 0
M  V30 2360 H 227.128 0.238743 -0.619595 0
M  V30 2361 H 229.658 0.118169 -2.04258 0
M  V30 2362 H 229.668 2.07238 -3.51449 0
M  V30 2363 H 228.343 1.04018 -4.02682 0
M  V30 2364 H 226.92 2.42726 -2.83088 0
M  V30 2365 N 229.106 1.52395 0.401703 0
M  V30 2366 C 230.355 1.66044 1.14509 0
M  V30 2367 C 230.668 0.400216 1.91462 0
M  V30 2368 O 231.874 0.416632 2.68284 0
M  V30 2369 C 230.33 2.93388 2.0845 0
M  V30 2370 C 229.938 4.26545 1.36978 0
M  V30 2371 C 231.682 3.16402 2.83001 0
M  V30 2372 C 229.589 5.45007 2.29611 0
M  V30 2373 H 228.519 0.618562 0.431158 0
M  V30 2374 H 231.17 1.78886 0.40892 0
M  V30 2375 H 229.552 2.74263 2.8565 0
M  V30 2376 H 230.726 4.56179 0.650916 0
M  V30 2377 H 229.041 4.09692 0.74438 0
M  V30 2378 H 231.638 4.02085 3.52465 0
M  V30 2379 H 231.981 2.30943 3.46368 0
M  V30 2380 H 232.514 3.36034 2.12898 0
M  V30 2381 H 229.253 6.32835 1.70879 0
M  V30 2382 H 228.773 5.19702 2.9945 0
M  V30 2383 H 230.452 5.7838 2.89974 0
M  V30 2384 N 230.584 -0.659388 1.43143 0
M  V30 2385 C 231.547 -1.75432 1.47501 0
M  V30 2386 C 232.547 -1.56707 0.360512 0
M  V30 2387 O 233.737 -1.62717 0.622002 0
M  V30 2388 C 230.869 -3.14239 1.32162 0
M  V30 2389 H 232.062 -1.7295 2.45006 0
M  V30 2390 H 229.615 -0.870469 1.29817 0
M  V30 2391 H 230.35 -3.22336 0.356401 0
M  V30 2392 H 230.135 -3.29235 2.12948 0
M  V30 2393 H 231.625 -3.94094 1.3813 0
M  V30 2394 N 232.062 -1.29571 -0.897171 0
M  V30 2395 C 233.01 -1.14802 -2.02295 0
M  V30 2396 C 234.004 -0.0629637 -1.69283 0
M  V30 2397 O 235.21 -0.222945 -1.78614 0
M  V30 2398 H 231.585 -0.354692 -0.663097 0
M  V30 2399 H 233.556 -2.10108 -2.11889 0
M  V30 2400 C 232.305 -0.843966 -3.37302 0
M  V30 2401 H 231.628 -1.67093 -3.63208 0
M  V30 2402 H 233.068 -0.780672 -4.16751 0
M  V30 2403 C 231.527 0.452843 -3.33843 0
M  V30 2404 O 232.057 1.47813 -3.73516 0
M  V30 2405 N 230.263 0.459601 -2.86943 0
M  V30 2406 H 229.81 -0.375213 -2.54853 0
M  V30 2407 H 229.768 1.32726 -2.85011 0
M  V30 2408 N 233.54 1.10788 -1.12088 0
M  V30 2409 C 234.503 2.15207 -0.788577 0
M  V30 2410 C 235.503 1.59609 0.195317 0
M  V30 2411 O 236.693 1.74174 -0.0300193 0
M  V30 2412 C 233.825 3.4047 -0.171174 0
M  V30 2413 H 235.018 2.46116 -1.71368 0
M  V30 2414 H 232.571 1.26089 -0.923652 0
M  V30 2415 H 233.306 3.15176 0.763832 0
M  V30 2416 H 233.091 3.82109 -0.879514 0
M  V30 2417 H 234.581 4.17576 0.04496 0
M  V30 2418 N 235.018 0.912232 1.28515 0
M  V30 2419 C 236.246 0.560416 1.99166 0
M  V30 2420 C 236.661 -0.857927 1.68182 0
M  V30 2421 O 236.018 -1.56805 0.933733 0
M  V30 2422 C 236.069 0.758142 3.53461 0
M  V30 2423 O 235.79 2.12067 3.83352 0
M  V30 2424 C 237.291 0.412954 4.41372 0
M  V30 2425 H 234.511 0.213805 0.636026 0
M  V30 2426 H 237.055 1.22502 1.63749 0
M  V30 2427 H 235.21 0.140556 3.87145 0
M  V30 2428 H 235.624 2.15923 4.77993 0
M  V30 2429 H 237.098 0.60208 5.48707 0
M  V30 2430 H 237.575 -0.65073 4.34353 0
M  V30 2431 H 238.181 1.00802 4.13182 0
M  V30 2432 N 236.496 -1.42363 0.676048 0
M  V30 2433 C 237.724 -2.05859 0.207268 0
M  V30 2434 C 238.139 -1.50796 -1.13605 0
M  V30 2435 O 237.496 -0.648265 -1.70598 0
M  V30 2436 C 237.547 -3.61248 0.134975 0
M  V30 2437 O 237.268 -4.1427 1.42521 0
M  V30 2438 C 238.769 -4.41859 -0.357151 0
M  V30 2439 H 235.989 -0.663431 0.100503 0
M  V30 2440 H 238.533 -1.82479 0.923136 0
M  V30 2441 H 236.688 -3.83735 -0.531588 0
M  V30 2442 H 237.102 -5.0815 1.29939 0
M  V30 2443 H 238.576 -5.50847 -0.356641 0
M  V30 2444 H 239.053 -4.16536 -1.39264 0
M  V30 2445 H 239.659 -4.24392 0.27772 0
M  V30 2446 N 237.974 -0.419461 -1.51915 0
M  V30 2447 C 239.39 -0.0708431 -1.59443 0
M  V30 2448 C 239.59 1.41796 -1.43164 0
M  V30 2449 O 238.646 2.18596 -1.26381 0
M  V30 2450 C 239.959 -0.574991 -2.95151 0
M  V30 2451 C 241.507 -0.533867 -3.08413 0
M  V30 2452 C 241.982 -1.01469 -4.46618 0
M  V30 2453 N 243.473 -0.971939 -4.52888 0
M  V30 2454 C 244.208 -1.31505 -5.58116 0
M  V30 2455 N 243.704 -1.73014 -6.70849 0
M  V30 2456 N 245.497 -1.23436 -5.48379 0
M  V30 2457 H 237.648 -1.38836 -1.60743 0
M  V30 2458 H 239.911 -0.570998 -0.756747 0
M  V30 2459 H 239.617 -1.61597 -3.12377 0
M  V30 2460 H 239.491 0.00979777 -3.77199 0
M  V30 2461 H 241.878 0.498086 -2.90866 0
M  V30 2462 H 241.959 -1.15484 -2.28248 0
M  V30 2463 H 241.603 -2.04502 -4.6491 0
M  V30 2464 H 241.533 -0.370433 -5.25295 0
M  V30 2465 H 244.024 -0.666893 -3.71969 0
M  V30 2466 H 244.337 -1.97479 -7.47143 0
M  V30 2467 H 242.682 -1.76926 -6.72103 0
M  V30 2468 H 245.873 -0.908869 -4.59192 0
M  V30 2469 H 246.046 -1.50506 -6.30279 0
M  V30 2470 N 239.452 1.56882 -0.150215 0
M  V30 2471 C 240.384 2.14057 0.819286 0
M  V30 2472 C 241.397 1.09082 1.20851 0
M  V30 2473 O 242.586 1.36347 1.15203 0
M  V30 2474 C 239.686 2.65102 2.11127 0
M  V30 2475 C 238.859 3.94511 1.88891 0
M  V30 2476 C 237.918 4.30834 3.02107 0
M  V30 2477 O 236.944 4.99099 2.73659 0
M  V30 2478 N 238.146 3.90676 4.29363 0
M  V30 2479 H 240.911 2.97871 0.330618 0
M  V30 2480 H 238.472 1.61866 0.0332538 0
M  V30 2481 H 240.464 2.86411 2.85921 0
M  V30 2482 H 239.034 1.85994 2.51247 0
M  V30 2483 H 238.254 3.81795 0.981152 0
M  V30 2484 H 239.542 4.7907 1.71376 0
M  V30 2485 H 238.94 3.35677 4.55343 0
M  V30 2486 H 237.497 4.1703 5.00928 0
M  V30 2487 N 240.93 -0.123565 1.57115 0
M  V30 2488 C 242.207 -0.862196 1.75572 0
M  V30 2489 C 242.587 -1.98279 0.724475 0
M  V30 2490 O 241.935 -2.27102 -0.252407 0
M  V30 2491 C 242.145 -1.38309 3.20424 0
M  V30 2492 C 243.493 -1.83724 3.82793 0
M  V30 2493 O 244.517 -1.47999 3.23998 0
M  V30 2494 O 243.376 -2.49685 4.86127 0
M  V30 2495 H 240.47 -0.409113 0.718718 0
M  V30 2496 H 243.016 -0.107661 1.69358 0
M  V30 2497 H 241.788 -0.578889 3.86994 0
M  V30 2498 H 241.411 -2.20046 3.31158 0
M  V30 2499 N 242.408 -1.52605 -0.393616 0
M  V30 2500 C 243.824 -1.41753 -0.733357 0
M  V30 2501 C 244.024 -0.534293 -1.94287 0
M  V30 2502 O 243.08 -0.0059787 -2.52499 0
M  V30 2503 C 244.393 -2.84531 -0.972772 0
M  V30 2504 C 245.941 -2.93978 -1.07453 0
M  V30 2505 C 246.416 -4.37756 -1.3466 0
M  V30 2506 N 247.907 -4.4106 -1.41492 0
M  V30 2507 C 248.642 -5.49387 -1.642 0
M  V30 2508 N 248.138 -6.67806 -1.8441 0
M  V30 2509 N 249.931 -5.36923 -1.66342 0
M  V30 2510 H 242.082 -2.08555 0.402328 0
M  V30 2511 H 244.345 -0.940654 0.117789 0
M  V30 2512 H 244.051 -3.51353 -0.156204 0
M  V30 2513 H 243.925 -3.26508 -1.88871 0
M  V30 2514 H 246.312 -2.27326 -1.88167 0
M  V30 2515 H 246.393 -2.55435 -0.136605 0
M  V30 2516 H 246.037 -5.04972 -0.544581 0
M  V30 2517 H 245.967 -4.73848 -2.2973 0
M  V30 2518 H 248.458 -3.55705 -1.27601 0
M  V30 2519 H 248.771 -7.46141 -2.01231 0
M  V30 2520 H 247.116 -6.70843 -1.81644 0
M  V30 2521 H 250.307 -4.43381 -1.50102 0
M  V30 2522 H 250.48 -6.21416 -1.837 0
M  V30 2523 N 243.887 0.651787 -1.4349 0
M  V30 2524 C 245.134 1.41167 -1.45183 0
M  V30 2525 C 245.462 1.94349 -0.0766601 0
M  V30 2526 O 244.717 1.72804 0.918555 0
M  V30 2527 C 245.016 2.60914 -2.44251 0
M  V30 2528 C 244.682 2.26142 -3.9009 0
M  V30 2529 C 243.344 2.16371 -4.2981 0
M  V30 2530 C 245.696 1.98334 -4.81989 0
M  V30 2531 C 243.024 1.7695 -5.5938 0
M  V30 2532 C 245.376 1.6041 -6.11924 0
M  V30 2533 C 244.04 1.49166 -6.5062 0
M  V30 2534 H 243.31 0.516566 -0.531263 0
M  V30 2535 H 245.957 0.741099 -1.76579 0
M  V30 2536 H 244.262 3.3311 -2.06265 0
M  V30 2537 H 245.959 3.19127 -2.42815 0
M  V30 2538 H 242.549 2.34658 -3.58655 0
M  V30 2539 H 246.733 2.04803 -4.52072 0
M  V30 2540 H 241.989 1.66831 -5.88198 0
M  V30 2541 H 246.163 1.37925 -6.82605 0
M  V30 2542 H 243.79 1.1839 -7.50925 0
M  V30 2543 N 245.365 1.30045 0.890287 0
M  V30 2544 C 246.328 1.15963 1.977 0
M  V30 2545 C 247.328 0.0923777 1.60534 0
M  V30 2546 O 248.518 0.340071 1.70848 0
M  V30 2547 C 245.65 0.775451 3.31963 0
M  V30 2548 H 246.843 2.12502 2.11619 0
M  V30 2549 H 244.396 1.13366 1.07601 0
M  V30 2550 H 245.131 -0.189671 3.23745 0
M  V30 2551 H 244.916 1.54668 3.60306 0
M  V30 2552 H 246.406 0.700251 4.11687 0
M  V30 2553 N 246.843 -1.10192 1.12674 0
M  V30 2554 C 248.091 -1.81845 0.881861 0
M  V30 2555 C 248.412 -1.85737 -0.593867 0
M  V30 2556 O 247.682 -1.33724 -1.4316 0
M  V30 2557 H 246.262 -0.673432 0.323261 0
M  V30 2558 H 248.924 -1.33316 1.42172 0
M  V30 2559 H 248.02 -2.85288 1.2656 0
M  V30 2560 N 248.321 -0.919034 -1.28029 0
M  V30 2561 C 249.251 -0.428581 -2.29533 0
M  V30 2562 C 250.232 0.50659 -1.62381 0
M  V30 2563 O 251.417 0.413195 -1.89753 0
M  V30 2564 C 248.547 0.327388 -3.45753 0
M  V30 2565 C 247.501 -0.519137 -4.2484 0
M  V30 2566 C 246.827 0.365486 -5.33449 0
M  V30 2567 C 248.127 -1.77914 -4.91064 0
M  V30 2568 H 249.821 -1.27687 -2.70807 0
M  V30 2569 H 247.367 -0.615428 -1.30186 0
M  V30 2570 H 249.32 0.681378 -4.15855 0
M  V30 2571 H 248.044 1.20963 -3.03374 0
M  V30 2572 H 246.703 -0.855717 -3.56473 0
M  V30 2573 H 246.351 1.24642 -4.87312 0
M  V30 2574 H 246.051 -0.197356 -5.87268 0
M  V30 2575 H 247.575 0.715241 -6.06396 0
M  V30 2576 H 248.989 -1.49374 -5.53498 0
M  V30 2577 H 247.386 -2.2848 -5.54903 0
M  V30 2578 H 248.456 -2.50382 -4.15255 0
M  V30 2579 N 249.799 1.42003 -0.683588 0
M  V30 2580 C 250.749 2.27997 0.0121992 0
M  V30 2581 C 251.733 1.4156 0.764822 0
M  V30 2582 O 252.925 1.64935 0.642287 0
M  V30 2583 C 250.054 3.29706 0.956482 0
M  V30 2584 C 249.14 4.23625 0.200739 0
M  V30 2585 N 249.531 4.99448 -0.799087 0
M  V30 2586 C 247.829 4.43845 0.437937 0
M  V30 2587 C 248.53 5.68102 -1.25041 0
M  V30 2588 N 247.506 5.40511 -0.578648 0
M  V30 2589 H 251.308 2.84048 -0.754564 0
M  V30 2590 H 248.822 1.54071 -0.513398 0
M  V30 2591 H 250.819 3.90124 1.47 0
M  V30 2592 H 249.479 2.75216 1.72297 0
M  V30 2593 H 250.49 5.04303 -1.17893 0
M  V30 2594 H 247.167 4.00382 1.18325 0
M  V30 2595 H 248.557 6.38913 -2.07942 0
M  V30 2596 N 251.277 0.427512 1.51691 0
M  V30 2597 C 252.524 -0.142229 2.02 0
M  V30 2598 C 252.852 -1.43566 1.31221 0
M  V30 2599 O 252.107 -1.91298 0.412744 0
M  V30 2600 C 252.406 -0.418249 3.54944 0
M  V30 2601 C 252.072 0.788187 4.43958 0
M  V30 2602 C 250.734 1.11906 4.68007 0
M  V30 2603 C 253.086 1.59347 4.96244 0
M  V30 2604 C 250.414 2.25608 5.41588 0
M  V30 2605 C 252.766 2.7214 5.71072 0
M  V30 2606 C 251.43 3.05692 5.93387 0
M  V30 2607 H 250.7 -0.0520451 0.73917 0
M  V30 2608 H 253.347 0.572697 1.82736 0
M  V30 2609 H 251.652 -1.21496 3.72486 0
M  V30 2610 H 253.349 -0.872339 3.91397 0
M  V30 2611 H 249.939 0.520344 4.2543 0
M  V30 2612 H 254.123 1.35106 4.77556 0
M  V30 2613 H 249.379 2.51929 5.57083 0
M  V30 2614 H 253.553 3.34914 6.10578 0
M  V30 2615 H 251.18 3.9391 6.50184 0
M  V30 2616 N 252.755 -1.56801 0.158532 0
M  V30 2617 C 254.002 -1.9649 -0.489679 0
M  V30 2618 C 254.33 -1.04394 -1.6411 0
M  V30 2619 O 253.585 -0.0754401 -1.95555 0
M  V30 2620 C 253.884 -3.4235 -1.02623 0
M  V30 2621 C 253.55 -4.50899 0.00794526 0
M  V30 2622 C 252.212 -4.80312 0.292207 0
M  V30 2623 C 254.564 -5.16333 0.710584 0
M  V30 2624 C 251.892 -5.72461 1.28472 0
M  V30 2625 C 254.244 -6.09553 1.69199 0
M  V30 2626 C 252.908 -6.37339 1.98383 0
M  V30 2627 H 252.178 -0.719009 -0.179186 0
M  V30 2628 H 254.825 -1.8989 0.247798 0
M  V30 2629 H 253.13 -3.45838 -1.84128 0
M  V30 2630 H 254.827 -3.70393 -1.53656 0
M  V30 2631 H 251.417 -4.28015 -0.22379 0
M  V30 2632 H 255.601 -4.93732 0.504174 0
M  V30 2633 H 250.857 -5.92278 1.51714 0
M  V30 2634 H 255.031 -6.59327 2.24189 0
M  V30 2635 H 252.658 -7.08546 2.7544 0
M  V30 2636 N 254.233 0.115231 -1.57178 0
M  V30 2637 C 255.181 1.16014 -2.01602 0
M  V30 2638 C 256.175 1.42653 -0.913587 0
M  V30 2639 O 257.381 1.42571 -1.09879 0
M  V30 2640 H 253.756 0.391252 -0.642204 0
M  V30 2641 H 255.727 0.758998 -2.88586 0
M  V30 2642 C 254.476 2.47767 -2.4394 0
M  V30 2643 H 253.799 2.28108 -3.28339 0
M  V30 2644 H 255.239 3.19432 -2.78818 0
M  V30 2645 C 253.698 3.10617 -1.30455 0
M  V30 2646 O 254.228 3.96846 -0.622585 0
M  V30 2647 N 252.434 2.70553 -1.06064 0
M  V30 2648 H 251.981 2.00527 -1.61699 0
M  V30 2649 H 251.939 3.12934 -0.303284 0
M  V30 2650 N 255.711 1.52812 0.385517 0
M  V30 2651 C 257.122 1.5993 0.963293 0
M  V30 2652 C 257.473 0.454302 1.90868 0
M  V30 2653 O 256.598 -0.422132 2.12243 0
M  V30 2654 C 257.193 2.89871 1.75387 0
M  V30 2655 C 255.752 2.99389 2.28129 0
M  V30 2656 C 254.899 2.55071 1.08783 0
M  V30 2657 H 257.85 1.5784 0.164948 0
M  V30 2658 H 257.871 2.76553 2.61341 0
M  V30 2659 H 257.383 3.73186 1.06554 0
M  V30 2660 H 255.484 2.20619 3.00263 0
M  V30 2661 H 255.597 4.04096 2.57377 0
M  V30 2662 H 253.961 2.09473 1.4489 0
M  V30 2663 H 254.744 3.40785 0.414807 0
M  V30 2664 N 257.189 -0.644168 1.43834 0
M  V30 2665 C 258.435 -1.40603 1.46146 0
M  V30 2666 C 258.768 -1.93997 0.0887717 0
M  V30 2667 O 258.043 -1.72854 -0.891724 0
M  V30 2668 C 258.326 -2.58086 2.51124 0
M  V30 2669 C 258.179 -2.10126 3.97702 0
M  V30 2670 C 259.498 -3.60291 2.52742 0
M  V30 2671 H 256.617 -0.509905 0.532134 0
M  V30 2672 H 259.259 -0.729502 1.75437 0
M  V30 2673 H 257.409 -3.15801 2.26278 0
M  V30 2674 H 259.081 -1.57342 4.33637 0
M  V30 2675 H 257.324 -1.41419 4.10101 0
M  V30 2676 H 257.995 -2.94649 4.66783 0
M  V30 2677 H 260.471 -3.12352 2.7491 0
M  V30 2678 H 259.347 -4.40032 3.28121 0
M  V30 2679 H 259.608 -4.1349 1.56455 0
M  V30 2680 N 258.668 -1.30515 -0.883378 0
M  V30 2681 C 260.079 -1.17509 -1.45081 0
M  V30 2682 C 260.43 0.223605 -1.94922 0
M  V30 2683 O 259.555 1.12041 -1.85137 0
M  V30 2684 C 260.15 -2.12715 -2.63701 0
M  V30 2685 C 258.709 -2.03682 -3.16529 0
M  V30 2686 C 257.856 -2.02706 -1.89224 0
M  V30 2687 H 260.807 -1.42762 -0.693165 0
M  V30 2688 H 260.828 -1.70891 -3.39965 0
M  V30 2689 H 260.34 -3.14505 -2.27395 0
M  V30 2690 H 258.441 -1.05039 -3.57488 0
M  V30 2691 H 258.554 -2.92146 -3.7972 0
M  V30 2692 H 256.918 -1.4753 -2.07622 0
M  V30 2693 H 257.701 -3.06229 -1.55174 0
M  V30 2694 N 260.146 1.09593 -1.13257 0
M  V30 2695 C 261.392 1.82003 -0.89458 0
M  V30 2696 C 261.725 1.85402 0.577906 0
M  V30 2697 O 261 1.32099 1.42759 0
M  V30 2698 C 261.283 3.28237 -1.48096 0
M  V30 2699 C 261.136 3.3312 -3.02244 0
M  V30 2700 C 262.455 4.24871 -1.14774 0
M  V30 2701 H 259.574 0.66077 -0.326424 0
M  V30 2702 H 262.216 1.28389 -1.40058 0
M  V30 2703 H 260.366 3.74024 -1.05062 0
M  V30 2704 H 262.038 2.95748 -3.54021 0
M  V30 2705 H 260.281 2.72756 -3.37323 0
M  V30 2706 H 260.952 4.3613 -3.38371 0
M  V30 2707 H 263.428 3.87361 -1.51957 0
M  V30 2708 H 262.304 5.25532 -1.58452 0
M  V30 2709 H 262.565 4.42058 -0.0611849 0
M  V30 2710 N 261.624 0.925811 1.2754 0
M  V30 2711 C 262.557 0.367836 2.25216 0
M  V30 2712 C 263.535 -0.534738 1.53556 0
M  V30 2713 O 264.719 -0.475672 1.824 0
M  V30 2714 C 261.846 -0.47298 3.35381 0
M  V30 2715 C 260.892 0.365898 4.24928 0
M  V30 2716 S 261.725 1.78025 5.05042 0
M  V30 2717 C 262.881 0.947068 6.18693 0
M  V30 2718 H 263.114 1.19568 2.72196 0
M  V30 2719 H 260.647 0.727867 1.36167 0
M  V30 2720 H 262.605 -0.952242 3.99303 0
M  V30 2721 H 261.266 -1.27533 2.87044 0
M  V30 2722 H 260.459 -0.277582 5.03235 0
M  V30 2723 H 260.061 0.779261 3.65792 0
M  V30 2724 H 262.353 0.182201 6.77255 0
M  V30 2725 H 263.296 1.70309 6.87314 0
M  V30 2726 H 263.704 0.489913 5.6237 0
M  V30 2727 N 263.102 -1.41638 0.69111 0
M  V30 2728 C 264.049 -2.30789 0.0229705 0
M  V30 2729 C 265.019 -1.46863 -0.775911 0
M  V30 2730 O 266.204 -1.75661 -0.74485 0
M  V30 2731 C 263.344 -3.32868 -0.910666 0
M  V30 2732 C 262.457 -4.31875 -0.103874 0
M  V30 2733 C 261.592 -5.21024 -1.03475 0
M  V30 2734 C 260.631 -6.11702 -0.220598 0
M  V30 2735 N 259.768 -6.93349 -1.10504 0
M  V30 2736 H 264.608 -2.87366 0.788978 0
M  V30 2737 H 262.145 -1.41535 0.400794 0
M  V30 2738 H 264.103 -3.90596 -1.46597 0
M  V30 2739 H 262.733 -2.77851 -1.64312 0
M  V30 2740 H 261.785 -3.76131 0.568285 0
M  V30 2741 H 263.097 -4.96003 0.527504 0
M  V30 2742 H 262.251 -5.83565 -1.65943 0
M  V30 2743 H 260.99 -4.57112 -1.69999 0
M  V30 2744 H 259.995 -5.48215 0.417187 0
M  V30 2745 H 261.22 -6.77668 0.440784 0
M  V30 2746 H 259.166 -6.3205 -1.75638 0
M  V30 2747 H 259.083 -7.54146 -0.529125 0
M  V30 2748 H 260.351 -7.60362 -1.71667 0
M  V30 2749 N 264.58 -0.43555 -1.51462 0
M  V30 2750 C 265.51 0.367376 -2.30592 0
M  V30 2751 C 266.491 1.02263 -1.35928 0
M  V30 2752 O 267.676 1.02661 -1.64847 0
M  V30 2753 C 264.806 1.46983 -3.14664 0
M  V30 2754 C 263.76 0.938161 -4.17591 0
M  V30 2755 C 263.086 2.13622 -4.90173 0
M  V30 2756 C 264.386 -0.0261621 -5.22293 0
M  V30 2757 H 266.08 -0.292969 -2.97963 0
M  V30 2758 H 263.626 -0.14234 -1.43295 0
M  V30 2759 H 265.579 2.03873 -3.688 0
M  V30 2760 H 264.303 2.15843 -2.4511 0
M  V30 2761 H 262.962 0.391481 -3.64504 0
M  V30 2762 H 262.61 2.81098 -4.17124 0
M  V30 2763 H 262.31 1.78688 -5.59772 0
M  V30 2764 H 263.834 2.7107 -5.47132 0
M  V30 2765 H 265.248 0.452384 -5.71512 0
M  V30 2766 H 263.645 -0.287992 -5.99409 0
M  V30 2767 H 264.715 -0.963391 -4.75233 0
M  V30 2768 N 266.058 1.56714 -0.166846 0
M  V30 2769 C 267.304 1.97039 0.479962 0
M  V30 2770 C 267.637 1.05264 1.63197 0
M  V30 2771 O 266.912 0.0988833 1.94248 0
M  V30 2772 C 267.195 3.46867 0.967212 0
M  V30 2773 C 267.048 4.49421 -0.18466 0
M  V30 2774 C 268.367 3.9968 1.84238 0
M  V30 2775 H 265.486 0.71641 0.172992 0
M  V30 2776 H 268.128 1.8832 -0.252079 0
M  V30 2777 H 266.278 3.54428 1.59101 0
M  V30 2778 H 267.95 4.53924 -0.821621 0
M  V30 2779 H 266.193 4.25573 -0.840837 0
M  V30 2780 H 266.864 5.51644 0.198317 0
M  V30 2781 H 269.34 3.94723 1.31655 0
M  V30 2782 H 268.216 5.04941 2.15234 0
M  V30 2783 H 268.477 3.43226 2.78654 0
M  V30 2784 N 267.536 -0.106894 1.57237 0
M  V30 2785 C 268.446 -1.14911 2.0453 0
M  V30 2786 C 269.462 -1.44592 0.96795 0
M  V30 2787 O 270.638 -1.55468 1.2803 0
M  V30 2788 C 267.703 -2.45272 2.45036 0
M  V30 2789 C 266.764 -2.22879 3.66911 0
M  V30 2790 C 265.997 -3.47024 4.05475 0
M  V30 2791 O 266.22 -4.54804 3.44252 0
M  V30 2792 O 265.154 -3.3731 4.98504 0
M  V30 2793 H 268.98 -0.777461 2.9358 0
M  V30 2794 H 266.565 -0.318563 1.45964 0
M  V30 2795 H 268.447 -3.22055 2.71769 0
M  V30 2796 H 267.122 -2.81886 1.59129 0
M  V30 2797 H 266.029 -1.43915 3.45311 0
M  V30 2798 H 267.362 -1.91163 4.53561 0
M  V30 2799 N 269.014 -1.53014 -0.377408 0
M  V30 2800 C 270.26 -1.68872 -1.12294 0
M  V30 2801 C 270.593 -0.433224 -1.89306 0
M  V30 2802 O 269.868 0.569258 -1.85983 0
M  V30 2803 C 270.151 -2.93115 -2.09179 0
M  V30 2804 C 270.004 -4.28794 -1.35853 0
M  V30 2805 C 271.323 -3.12928 -3.09458 0
M  V30 2806 H 268.442 -0.614518 -0.406862 0
M  V30 2807 H 271.084 -1.85633 -0.40503 0
M  V30 2808 H 269.234 -2.78956 -2.70399 0
M  V30 2809 H 270.906 -4.54742 -0.775082 0
M  V30 2810 H 269.149 -4.28744 -0.660364 0
M  V30 2811 H 269.82 -5.11837 -2.06706 0
M  V30 2812 H 272.296 -3.26194 -2.58334 0
M  V30 2813 H 271.172 -4.01316 -3.74482 0
M  V30 2814 H 271.433 -2.27669 -3.78971 0
M  V30 2815 N 270.492 0.636531 -1.44174 0
M  V30 2816 C 271.741 1.39213 -1.45954 0
M  V30 2817 C 272.054 1.95374 -0.0939119 0
M  V30 2818 O 273.26 2.71498 0.0107767 0
M  V30 2819 C 271.716 2.52025 -2.56927 0
M  V30 2820 C 271.324 2.024 -3.99673 0
M  V30 2821 C 273.068 3.29269 -2.67922 0
M  V30 2822 C 270.975 3.12521 -5.0208 0
M  V30 2823 H 269.905 0.523132 -0.542999 0
M  V30 2824 H 272.556 0.685349 -1.70221 0
M  V30 2825 H 270.938 3.25253 -2.25891 0
M  V30 2826 H 272.112 1.36073 -4.40251 0
M  V30 2827 H 270.427 1.37987 -3.92872 0
M  V30 2828 H 273.024 4.11352 -3.41605 0
M  V30 2829 H 273.367 3.78397 -1.73555 0
M  V30 2830 H 273.9 2.63129 -2.98342 0
M  V30 2831 H 270.639 2.68343 -5.98057 0
M  V30 2832 H 270.159 3.77507 -4.66099 0
M  V30 2833 H 271.838 3.77385 -5.25538 0
M  V30 2834 N 271.97 1.30982 0.876444 0
M  V30 2835 C 272.917 1.18085 1.98304 0
M  V30 2836 C 273.887 0.0682263 1.6596 0
M  V30 2837 O 275.072 0.239937 1.89285 0
M  V30 2838 C 272.212 0.887475 3.33493 0
M  V30 2839 C 271.325 2.08281 3.78475 0
M  V30 2840 C 270.46 1.72678 5.0235 0
M  V30 2841 C 269.499 2.88657 5.39762 0
M  V30 2842 N 268.636 2.53292 6.54819 0
M  V30 2843 H 273.476 2.1275 2.08666 0
M  V30 2844 H 271.013 1.05839 1.02159 0
M  V30 2845 H 272.971 0.697961 4.1132 0
M  V30 2846 H 271.601 -0.022315 3.22792 0
M  V30 2847 H 270.653 2.3833 2.96484 0
M  V30 2848 H 271.965 2.95108 4.02135 0
M  V30 2849 H 271.119 1.50151 5.87826 0
M  V30 2850 H 269.858 0.830327 4.8058 0
M  V30 2851 H 268.863 3.1184 4.52809 0
M  V30 2852 H 270.088 3.79002 5.63502 0
M  V30 2853 H 268.034 1.66163 6.34607 0
M  V30 2854 H 267.951 3.3365 6.7839 0
M  V30 2855 H 269.219 2.34143 7.43503 0
M  V30 2856 N 273.449 -1.08991 1.13837 0
M  V30 2857 C 274.677 -1.85011 0.926202 0
M  V30 2858 C 275.092 -1.8135 -0.525127 0
M  V30 2859 O 274.449 -1.21287 -1.36366 0
M  V30 2860 C 274.5 -3.32802 1.41155 0
M  V30 2861 O 274.221 -3.36444 2.80601 0
M  V30 2862 C 275.722 -4.25649 1.23847 0
M  V30 2863 H 272.942 -0.584249 0.32999 0
M  V30 2864 H 275.486 -1.37688 1.51202 0
M  V30 2865 H 273.641 -3.77536 0.868631 0
M  V30 2866 H 274.055 -4.28657 3.02248 0
M  V30 2867 H 275.529 -5.27485 1.62675 0
M  V30 2868 H 276.006 -4.38828 0.18065 0
M  V30 2869 H 276.612 -3.86735 1.76964 0
M  V30 2870 N 274.927 -0.932562 -1.27047 0
M  V30 2871 C 276.338 -0.619451 -1.76124 0
M  V30 2872 C 276.689 0.865397 -1.76083 0
M  V30 2873 O 275.814 1.67722 -1.36742 0
M  V30 2874 C 276.409 -1.11771 -3.19832 0
M  V30 2875 C 274.968 -0.855174 -3.66557 0
M  V30 2876 C 274.115 -1.27362 -2.46321 0
M  V30 2877 H 277.066 -1.11181 -1.13245 0
M  V30 2878 H 277.087 -0.46759 -3.77616 0
M  V30 2879 H 276.599 -2.19842 -3.1983 0
M  V30 2880 H 274.7 0.211524 -3.71999 0
M  V30 2881 H 274.813 -1.47613 -4.55793 0
M  V30 2882 H 273.177 -0.692119 -2.45116 0
M  V30 2883 H 273.96 -2.36307 -2.49025 0
M  V30 2884 N 276.405 1.4127 -0.698611 0
M  V30 2885 C 277.338 2.28195 0.0153898 0
M  V30 2886 C 278.316 1.42402 0.784883 0
M  V30 2887 O 279.5 1.71828 0.775067 0
M  V30 2888 C 276.627 3.22685 1.02918 0
M  V30 2889 C 275.673 4.25041 0.352501 0
M  V30 2890 S 276.506 5.27757 -0.907322 0
M  V30 2891 C 277.662 6.25812 0.104796 0
M  V30 2892 H 277.895 2.88403 -0.721858 0
M  V30 2893 H 275.428 1.46452 -0.488996 0
M  V30 2894 H 277.386 3.77655 1.60893 0
M  V30 2895 H 276.047 2.61566 1.73902 0
M  V30 2896 H 275.24 4.91437 1.11828 0
M  V30 2897 H 274.842 3.73682 -0.154254 0
M  V30 2898 H 277.134 6.70705 0.957103 0
M  V30 2899 H 278.077 7.06149 -0.525323 0
M  V30 2900 H 278.485 5.62615 0.460931 0
M  V30 2901 N 277.883 0.443576 1.51229 0
M  V30 2902 C 279.111 -0.11929 2.06556 0
M  V30 2903 C 279.526 -1.35921 1.31038 0
M  V30 2904 O 278.883 -1.78675 0.371704 0
M  V30 2905 C 278.934 -0.435228 3.5887 0
M  V30 2906 O 278.655 0.755486 4.31537 0
M  V30 2907 C 280.156 -1.04808 4.30732 0
M  V30 2908 H 277.376 -0.0051584 0.67098 0
M  V30 2909 H 279.92 0.624453 1.94733 0
M  V30 2910 H 278.075 -1.12887 3.70588 0
M  V30 2911 H 278.489 0.483491 5.22267 0
M  V30 2912 H 279.963 -1.2191 5.3837 0
M  V30 2913 H 280.44 -2.03081 3.89429 0
M  V30 2914 H 281.046 -0.393637 4.23474 0
M  V30 2915 N 279.361 -1.56624 0.175154 0
M  V30 2916 C 280.586 -2.01813 -0.478137 0
M  V30 2917 C 281.011 -1.05457 -1.55757 0
M  V30 2918 O 280.369 -0.0347439 -1.81267 0
M  V30 2919 C 280.417 -3.45581 -1.02987 0
M  V30 2920 O 279.521 -3.52305 -2.14371 0
M  V30 2921 H 278.862 -0.65413 -0.114059 0
M  V30 2922 H 281.392 -2.02673 0.280173 0
M  V30 2923 H 281.402 -3.84965 -1.35151 0
M  V30 2924 H 280.077 -4.1521 -0.239556 0
M  V30 2925 H 278.654 -3.24783 -1.83222 0
M  V30 2926 N 280.839 0.0985539 -1.57292 0
M  V30 2927 C 281.771 1.14595 -1.98496 0
M  V30 2928 C 282.784 1.36512 -0.887031 0
M  V30 2929 O 283.973 1.35225 -1.16518 0
M  V30 2930 C 281.073 2.50216 -2.28572 0
M  V30 2931 C 280.246 2.48624 -3.59868 0
M  V30 2932 C 279.305 3.66146 -3.7792 0
M  V30 2933 O 278.331 3.48795 -4.49812 0
M  V30 2934 N 279.533 4.85496 -3.18235 0
M  V30 2935 H 282.298 0.795277 -2.88956 0
M  V30 2936 H 279.859 0.287579 -1.59325 0
M  V30 2937 H 281.851 3.27432 -2.37845 0
M  V30 2938 H 280.421 2.77387 -1.44136 0
M  V30 2939 H 279.641 1.56978 -3.61596 0
M  V30 2940 H 280.929 2.44635 -4.46129 0
M  V30 2941 H 280.327 5.02497 -2.59833 0
M  V30 2942 H 278.884 5.60317 -3.32999 0
M  V30 2943 N 282.317 1.53212 0.369288 0
M  V30 2944 C 283.264 1.79388 1.45219 0
M  V30 2945 C 284.234 0.638059 1.53356 0
M  V30 2946 O 285.419 0.879852 1.69302 0
M  V30 2947 C 282.559 1.98623 2.82211 0
M  V30 2948 C 281.672 3.26337 2.8307 0
M  V30 2949 C 280.807 3.35779 4.11614 0
M  V30 2950 C 279.846 4.5754 4.06601 0
M  V30 2951 N 278.983 4.64155 5.26787 0
M  V30 2952 H 283.823 2.71794 1.22198 0
M  V30 2953 H 281.36 1.34642 0.592444 0
M  V30 2954 H 283.318 2.07761 3.61789 0
M  V30 2955 H 281.948 1.09558 3.03639 0
M  V30 2956 H 281 3.26171 1.95747 0
M  V30 2957 H 282.312 4.15988 2.75237 0
M  V30 2958 H 281.466 3.44208 4.99606 0
M  V30 2959 H 280.205 2.44137 4.22195 0
M  V30 2960 H 279.21 4.49215 3.16996 0
M  V30 2961 H 280.435 5.50519 3.97625 0
M  V30 2962 H 278.381 3.75413 5.3796 0
M  V30 2963 H 278.298 5.47706 5.21109 0
M  V30 2964 H 279.566 4.76863 6.16621 0
M  V30 2965 N 283.795 -0.628877 1.44509 0
M  V30 2966 C 285.023 -1.41554 1.50897 0
M  V30 2967 C 285.438 -1.8832 0.134564 0
M  V30 2968 O 284.795 -1.60969 -0.859965 0
M  V30 2969 C 284.846 -2.63435 2.47556 0
M  V30 2970 O 284.567 -2.18619 3.79654 0
M  V30 2971 C 286.068 -3.56537 2.63431 0
M  V30 2972 H 283.288 -0.434044 0.511709 0
M  V30 2973 H 285.832 -0.768895 1.89495 0
M  V30 2974 H 283.987 -3.24187 2.12089 0
M  V30 2975 H 284.401 -2.97652 4.31861 0
M  V30 2976 H 285.875 -4.38657 3.35088 0
M  V30 2977 H 286.352 -4.05493 1.68738 0
M  V30 2978 H 286.958 -3.01653 2.9981 0
M  V30 2979 N 285.273 -1.31445 -0.869486 0
M  V30 2980 C 286.52 -1.21158 -1.62256 0
M  V30 2981 C 286.848 0.230155 -1.93133 0
M  V30 2982 O 286.103 1.17906 -1.56194 0
M  V30 2983 C 286.402 -2.00145 -2.96102 0
M  V30 2984 C 286.068 -3.4964 -2.84715 0
M  V30 2985 C 284.73 -3.90403 -2.81317 0
M  V30 2986 C 287.082 -4.44769 -2.71716 0
M  V30 2987 C 284.41 -5.24561 -2.62778 0
M  V30 2988 C 286.762 -5.79054 -2.54714 0
M  V30 2989 C 285.426 -6.19037 -2.49699 0
M  V30 2990 H 284.696 -0.443348 -0.593737 0
M  V30 2991 H 287.343 -1.62715 -1.00976 0
M  V30 2992 H 285.648 -1.5127 -3.6142 0
M  V30 2993 H 287.345 -1.89566 -3.53363 0
M  V30 2994 H 283.935 -3.17256 -2.88178 0
M  V30 2995 H 288.119 -4.14208 -2.73397 0
M  V30 2996 H 283.375 -5.54613 -2.57321 0
M  V30 2997 H 287.549 -6.52393 -2.43632 0
M  V30 2998 H 285.176 -7.22935 -2.35093 0
M  V30 2999 N 286.751 1.08385 -1.14413 0
M  V30 3000 C 287.661 2.18856 -0.844951 0
M  V30 3001 C 288.677 1.73121 0.174668 0
M  V30 3002 O 289.853 2.014 0.00312857 0
M  V30 3003 C 286.918 3.45155 -0.32696 0
M  V30 3004 C 285.979 4.05513 -1.40916 0
M  V30 3005 C 285.212 5.25784 -0.915793 0
M  V30 3006 O 285.435 5.69884 0.242651 0
M  V30 3007 O 284.369 5.77545 -1.69487 0
M  V30 3008 H 288.195 2.46919 -1.76818 0
M  V30 3009 H 285.78 1.17524 -0.922411 0
M  V30 3010 H 287.662 4.21377 -0.0440211 0
M  V30 3011 H 286.337 3.18668 0.568539 0
M  V30 3012 H 285.244 3.30879 -1.74556 0
M  V30 3013 H 286.577 4.3625 -2.27919 0
M  V30 3014 N 288.23 0.939286 1.26551 0
M  V30 3015 C 289.455 0.602008 1.98471 0
M  V30 3016 C 289.88 -0.815624 1.69497 0
M  V30 3017 O 289.238 -1.54912 0.941905 0
M  V30 3018 C 289.286 0.848407 3.50477 0
M  V30 3019 O 288.39 -0.0804009 4.12322 0
M  V30 3020 H 287.731 0.23049 0.622712 0
M  V30 3021 H 290.261 1.2617 1.61066 0
M  V30 3022 H 290.271 0.768553 4.00696 0
M  V30 3023 H 288.946 1.88171 3.70897 0
M  V30 3024 H 287.523 0.0503508 3.72866 0
M  V30 3025 N 289.708 -1.40897 0.706093 0
M  V30 3026 C 290.638 -2.33418 0.0620085 0
M  V30 3027 C 291.619 -1.52385 -0.755827 0
M  V30 3028 O 292.804 -1.80886 -0.706674 0
M  V30 3029 C 289.934 -3.36293 -0.867445 0
M  V30 3030 C 288.888 -4.27716 -0.155932 0
M  V30 3031 C 288.214 -5.2105 -1.20046 0
M  V30 3032 C 289.514 -5.12944 0.984149 0
M  V30 3033 H 291.208 -2.87527 0.83477 0
M  V30 3034 H 288.754 -1.38249 0.402875 0
M  V30 3035 H 290.707 -3.99949 -1.32735 0
M  V30 3036 H 289.431 -2.80556 -1.67199 0
M  V30 3037 H 288.09 -3.65498 0.284047 0
M  V30 3038 H 287.738 -4.61624 -1.99781 0
M  V30 3039 H 287.438 -5.83056 -0.729328 0
M  V30 3040 H 288.962 -5.87584 -1.66066 0
M  V30 3041 H 290.376 -5.70109 0.604048 0
M  V30 3042 H 288.773 -5.83945 1.38304 0
M  V30 3043 H 289.843 -4.49485 1.81911 0
M  V30 3044 N 291.186 -0.45159 -1.50991 0
M  V30 3045 C 292.432 0.110237 -2.025 0
M  V30 3046 C 292.765 1.41109 -1.33424 0
M  V30 3047 O 292.04 1.89135 -0.453659 0
M  V30 3048 C 292.323 0.314271 -3.58726 0
M  V30 3049 C 292.176 -1.00623 -4.38401 0
M  V30 3050 C 293.495 1.07767 -4.26702 0
M  V30 3051 H 290.614 0.0385897 -0.735989 0
M  V30 3052 H 293.256 -0.593374 -1.80497 0
M  V30 3053 H 291.406 0.913601 -3.77605 0
M  V30 3054 H 293.078 -1.64064 -4.31139 0
M  V30 3055 H 291.321 -1.6075 -4.02917 0
M  V30 3056 H 291.992 -0.817341 -5.45915 0
M  V30 3057 H 294.468 0.56986 -4.12179 0
M  V30 3058 H 293.344 1.18921 -5.35863 0
M  V30 3059 H 293.605 2.10939 -3.88532 0
M  V30 3060 N 292.664 1.56529 -0.183458 0
M  V30 3061 C 293.941 1.88959 0.50536 0
M  V30 3062 C 294.321 1.09523 1.80466 0
M  V30 3063 O 293.669 0.19278 2.27685 0
M  V30 3064 C 293.879 3.41162 0.73547 0
M  V30 3065 C 295.227 4.11155 1.06005 0
M  V30 3066 O 296.251 3.46548 0.823594 0
M  V30 3067 O 295.11 5.25318 1.50675 0
M  V30 3068 H 292.204 0.78441 0.261973 0
M  V30 3069 H 294.75 1.68231 -0.222802 0
M  V30 3070 H 293.522 3.90874 -0.182561 0
M  V30 3071 H 293.145 3.67543 1.51651 0
M  V30 3072 N 294.142 -0.090211 1.57342 0
M  V30 3073 C 295.389 -0.792807 1.86335 0
M  V30 3074 C 295.717 -1.78494 0.772662 0
M  V30 3075 O 294.972 -1.94305 -0.233258 0
M  V30 3076 C 295.271 -1.55222 3.21933 0
M  V30 3077 C 294.937 -0.701765 4.45406 0
M  V30 3078 C 293.599 -0.467334 4.78925 0
M  V30 3079 C 295.951 -0.11086 5.21082 0
M  V30 3080 C 293.279 0.367785 5.85546 0
M  V30 3081 C 295.631 0.711609 6.28585 0
M  V30 3082 C 294.295 0.956086 6.60617 0
M  V30 3083 H 293.565 -0.290109 0.681849 0
M  V30 3084 H 296.212 -0.0541332 1.91423 0
M  V30 3085 H 294.517 -2.3626 3.12551 0
M  V30 3086 H 296.214 -2.10032 3.41595 0
M  V30 3087 H 292.804 -0.894598 4.1916 0
M  V30 3088 H 296.988 -0.279129 4.95514 0
M  V30 3089 H 292.244 0.566128 6.08773 0
M  V30 3090 H 296.418 1.17632 6.86393 0
M  V30 3091 H 294.045 1.60499 7.43064 0
M  V30 3092 N 295.62 -1.53406 -0.361157 0
M  V30 3093 C 296.845 -1.74024 -1.12829 0
M  V30 3094 C 297.27 -0.470069 -1.82132 0
M  V30 3095 O 296.628 0.57619 -1.719 0
M  V30 3096 C 296.676 -2.90903 -2.13091 0
M  V30 3097 O 295.78 -2.59821 -3.20261 0
M  V30 3098 H 295.121 -0.577804 -0.327168 0
M  V30 3099 H 297.651 -2.00307 -0.41693 0
M  V30 3100 H 297.661 -3.17194 -2.56616 0
M  V30 3101 H 296.336 -3.83034 -1.62042 0
M  V30 3102 H 294.913 -2.44362 -2.81677 0
M  V30 3103 N 297.098 0.621204 -1.44841 0
M  V30 3104 C 298.045 1.73267 -1.5247 0
M  V30 3105 C 299.015 1.6189 -0.371611 0
M  V30 3106 O 300.2 1.81668 -0.58321 0
M  V30 3107 C 297.34 3.11545 -1.48438 0
M  V30 3108 C 296.453 3.33827 -2.74196 0
M  V30 3109 C 295.588 4.62133 -2.61929 0
M  V30 3110 C 294.627 4.77627 -3.82804 0
M  V30 3111 N 293.764 5.97219 -3.69153 0
M  V30 3112 H 298.604 1.66082 -2.47428 0
M  V30 3113 H 296.141 0.810026 -1.22788 0
M  V30 3114 H 298.099 3.91528 -1.4409 0
M  V30 3115 H 296.729 3.1772 -0.570402 0
M  V30 3116 H 295.781 2.47715 -2.88689 0
M  V30 3117 H 297.093 3.41153 -3.6389 0
M  V30 3118 H 296.247 5.50291 -2.5547 0
M  V30 3119 H 294.986 4.57182 -1.69811 0
M  V30 3120 H 293.991 3.87896 -3.89637 0
M  V30 3121 H 295.216 4.84385 -4.75971 0
M  V30 3122 H 293.162 5.93339 -2.79794 0
M  V30 3123 H 293.079 6.05644 -4.52472 0
M  V30 3124 H 294.347 6.87912 -3.66603 0
M  V30 3125 N 298.576 1.31904 0.862503 0
M  V30 3126 C 299.539 1.20131 1.95195 0
M  V30 3127 C 300.539 0.126409 1.60302 0
M  V30 3128 O 301.729 0.376234 1.70089 0
M  V30 3129 C 298.861 0.845691 3.30244 0
M  V30 3130 H 300.054 2.16943 2.07064 0
M  V30 3131 H 297.607 1.15622 1.05172 0
M  V30 3132 H 298.342 -0.120957 3.24074 0
M  V30 3133 H 298.127 1.62276 3.56944 0
M  V30 3134 H 299.617 0.787418 4.10109 0
M  V30 3135 N 300.054 -1.07777 1.14986 0
M  V30 3136 C 300.984 -2.16865 0.865557 0
M  V30 3137 C 301.965 -1.69123 -0.182083 0
M  V30 3138 O 303.15 -1.94164 -0.0373815 0
M  V30 3139 C 300.28 -3.45539 0.349313 0
M  V30 3140 C 299.234 -4.06708 1.33313 0
M  V30 3141 C 298.56 -5.30411 0.675918 0
M  V30 3142 C 299.86 -4.47241 2.69764 0
M  V30 3143 H 301.554 -2.40905 1.77778 0
M  V30 3144 H 299.1 -1.15781 0.856203 0
M  V30 3145 H 301.053 -4.21174 0.137983 0
M  V30 3146 H 299.777 -3.21072 -0.598362 0
M  V30 3147 H 298.436 -3.33112 1.53075 0
M  V30 3148 H 298.084 -5.02232 -0.277767 0
M  V30 3149 H 297.784 -5.72293 1.33244 0
M  V30 3150 H 299.308 -6.08755 0.474262 0
M  V30 3151 H 300.722 -5.14025 2.53873 0
M  V30 3152 H 299.119 -5.00062 3.3175 0
M  V30 3153 H 300.189 -3.58818 3.26156 0
M  V30 3154 N 301.532 -0.945985 -1.26051 0
M  V30 3155 C 302.78 -0.594941 -1.93145 0
M  V30 3156 C 303.101 0.86953 -1.7454 0
M  V30 3157 O 302.371 1.61838 -1.10387 0
M  V30 3158 H 300.951 -0.217044 -0.714773 0
M  V30 3159 H 303.613 -1.20235 -1.53393 0
M  V30 3160 H 302.709 -0.816835 -3.01221 0
M  V30 3161 N 303.011 1.40521 -0.713556 0
M  V30 3162 C 303.958 2.30723 -0.059684 0
M  V30 3163 C 304.928 1.48079 0.752448 0
M  V30 3164 O 306.113 1.76823 0.71681 0
M  V30 3165 C 303.253 3.34274 0.857594 0
M  V30 3166 C 302.366 4.31986 0.0351536 0
M  V30 3167 C 301.501 5.22605 0.951724 0
M  V30 3168 C 300.54 6.11976 0.123253 0
M  V30 3169 N 299.677 6.9502 0.99459 0
M  V30 3170 H 304.517 2.86074 -0.834596 0
M  V30 3171 H 302.054 1.40879 -0.42326 0
M  V30 3172 H 304.012 3.92879 1.40364 0
M  V30 3173 H 302.642 2.8043 1.59871 0
M  V30 3174 H 301.694 3.7518 -0.628052 0
M  V30 3175 H 303.006 4.95101 -0.606347 0
M  V30 3176 H 302.16 5.86131 1.56638 0
M  V30 3177 H 300.899 4.59759 1.62705 0
M  V30 3178 H 299.904 5.47482 -0.50435 0
M  V30 3179 H 301.129 6.76881 -0.548539 0
M  V30 3180 H 299.075 6.34764 1.6556 0
M  V30 3181 H 298.992 7.54892 0.40908 0
M  V30 3182 H 300.26 7.62997 1.59549 0
M  V30 3183 N 304.489 0.459591 1.5075 0
M  V30 3184 C 305.439 -0.358926 2.25157 0
M  V30 3185 C 306.423 -0.971285 1.28276 0
M  V30 3186 O 307.615 -0.885739 1.53244 0
M  V30 3187 C 304.744 -1.44695 3.11317 0
M  V30 3188 C 303.83 -0.842894 4.15639 0
M  V30 3189 N 304.221 0.0299373 5.05791 0
M  V30 3190 C 302.519 -1.10809 4.32015 0
M  V30 3191 C 303.22 0.371563 5.80512 0
M  V30 3192 N 302.196 -0.250409 5.43023 0
M  V30 3193 H 305.998 0.313636 2.92222 0
M  V30 3194 H 303.512 0.273021 1.60089 0
M  V30 3195 H 305.509 -2.04641 3.63218 0
M  V30 3196 H 304.169 -2.12162 2.45799 0
M  V30 3197 H 305.18 0.39797 5.16369 0
M  V30 3198 H 301.857 -1.7786 3.77719 0
M  V30 3199 H 303.247 1.08319 6.63111 0
M  V30 3200 N 305.967 -1.56429 0.191757 0
M  V30 3201 C 307.378 -1.83912 -0.321428 0
M  V30 3202 C 307.729 -1.11231 -1.61623 0
M  V30 3203 O 306.854 -0.37202 -2.13178 0
M  V30 3204 C 307.449 -3.33624 -0.589961 0
M  V30 3205 C 306.008 -3.6153 -1.04753 0
M  V30 3206 C 305.155 -2.7714 -0.0943327 0
M  V30 3207 H 308.106 -1.53161 0.415612 0
M  V30 3208 H 308.127 -3.52213 -1.43966 0
M  V30 3209 H 307.639 -3.86495 0.352588 0
M  V30 3210 H 305.74 -3.14089 -2.00447 0
M  V30 3211 H 305.853 -4.69737 -0.942549 0
M  V30 3212 H 304.217 -2.47638 -0.595589 0
M  V30 3213 H 305 -3.32799 0.842601 0
M  V30 3214 N 307.445 0.0818655 -1.57387 0
M  V30 3215 C 308.691 0.784074 -1.8703 0
M  V30 3216 C 309.024 1.77729 -0.782689 0
M  V30 3217 O 308.299 1.93384 0.208051 0
M  V30 3218 C 308.582 1.50105 -3.27323 0
M  V30 3219 C 308.435 0.524925 -4.46727 0
M  V30 3220 C 309.754 2.44843 -3.65705 0
M  V30 3221 H 306.873 0.283582 -0.680257 0
M  V30 3222 H 309.515 0.0474352 -1.89941 0
M  V30 3223 H 307.665 2.12897 -3.24972 0
M  V30 3224 H 309.337 -0.0970111 -4.61198 0
M  V30 3225 H 307.58 -0.160606 -4.33503 0
M  V30 3226 H 308.251 1.064 -5.41648 0
M  V30 3227 H 310.727 1.92135 -3.69085 0
M  V30 3228 H 309.603 2.92018 -4.64776 0
M  V30 3229 H 309.864 3.29197 -2.95096 0
M  V30 3230 N 308.923 1.53595 0.353017 0
M  V30 3231 C 310.148 1.7462 1.11904 0
M  V30 3232 C 310.573 0.479721 1.8188 0
M  V30 3233 O 309.931 -0.567066 1.72204 0
M  V30 3234 C 309.979 2.92029 2.11545 0
M  V30 3235 O 309.083 2.61516 3.18878 0
M  V30 3236 H 308.424 0.579531 0.324099 0
M  V30 3237 H 310.954 2.00525 0.406301 0
M  V30 3238 H 310.964 3.18551 2.5493 0
M  V30 3239 H 309.639 3.83888 1.60008 0
M  V30 3240 H 308.216 2.45852 2.80377 0
M  V30 3241 N 310.401 -0.613514 1.45168 0
M  V30 3242 C 311.641 -1.38405 1.5041 0
M  V30 3243 C 312.005 -1.91489 0.139922 0
M  V30 3244 O 313.206 -2.68716 0.067033 0
M  V30 3245 C 311.477 -2.50552 2.5487 0
M  V30 3246 S 313.036 -3.38439 2.79292 0
M  V30 3247 H 309.854 -0.471945 0.531779 0
M  V30 3248 H 312.456 -0.708518 1.82209 0
M  V30 3249 H 311.16 -2.09894 3.52665 0
M  V30 3250 H 310.691 -3.22913 2.24701 0
M  V30 3251 H 312.706 -4.48527 2.12222 0
M  V30 3252 N 311.879 -1.3236 -0.855495 0
M  V30 3253 C 312.826 -1.21225 -1.964 0
M  V30 3254 C 313.796 -0.0946204 -1.6583 0
M  V30 3255 O 314.981 -0.27002 -1.8888 0
M  V30 3256 C 312.121 -0.940419 -3.32039 0
M  V30 3257 C 311.234 -2.14276 -3.75113 0
M  V30 3258 C 310.369 -1.80648 -4.9954 0
M  V30 3259 C 309.408 -2.97208 -5.35102 0
M  V30 3260 N 308.545 -2.63678 -6.50706 0
M  V30 3261 H 313.385 -2.16042 -2.05255 0
M  V30 3262 H 310.922 -1.07451 -1.00463 0
M  V30 3263 H 312.88 -0.763311 -4.10158 0
M  V30 3264 H 311.51 -0.0290413 -3.22787 0
M  V30 3265 H 310.562 -2.43017 -2.92655 0
M  V30 3266 H 311.874 -3.01468 -3.97389 0
M  V30 3267 H 311.028 -1.59484 -5.85363 0
M  V30 3268 H 309.767 -0.906678 -4.79198 0
M  V30 3269 H 308.772 -3.19004 -4.47791 0
M  V30 3270 H 309.997 -3.87918 -5.57401 0
M  V30 3271 H 307.943 -1.76238 -6.31883 0
M  V30 3272 H 307.86 -3.444 -6.72997 0
M  V30 3273 H 309.128 -2.45942 -7.39684 0
M  V30 3274 N 313.357 1.07166 -1.15556 0
M  V30 3275 C 314.634 1.76546 -0.842069 0
M  V30 3276 C 315.014 2.00453 0.661939 0
M  V30 3277 O 314.362 1.62452 1.60691 0
M  V30 3278 C 314.572 3.07266 -1.65495 0
M  V30 3279 C 315.92 3.81578 -1.86234 0
M  V30 3280 O 316.944 3.17083 -1.62287 0
M  V30 3281 O 315.803 4.97419 -2.26355 0
M  V30 3282 H 312.897 0.766756 -0.309862 0
M  V30 3283 H 315.443 1.13514 -1.26145 0
M  V30 3284 H 314.215 2.85494 -2.67598 0
M  V30 3285 H 313.838 3.7803 -1.23203 0
M  V30 3286 N 314.835 0.952656 1.25548 0
M  V30 3287 C 316.063 0.623496 1.97282 0
M  V30 3288 C 316.478 -0.803987 1.70826 0
M  V30 3289 O 315.835 -1.53755 0.983147 0
M  V30 3290 C 315.886 0.870209 3.5087 0
M  V30 3291 O 315.607 2.24156 3.76412 0
M  V30 3292 C 317.108 0.553164 4.39835 0
M  V30 3293 H 314.328 0.233931 0.628902 0
M  V30 3294 H 316.872 1.27649 1.59768 0
M  V30 3295 H 315.027 0.263652 3.86502 0
M  V30 3296 H 315.441 2.31021 4.70882 0
M  V30 3297 H 316.915 0.776342 5.46513 0
M  V30 3298 H 317.392 -0.512215 4.36203 0
M  V30 3299 H 317.998 1.13896 4.09766 0
M  V30 3300 N 316.313 -1.40141 0.720998 0
M  V30 3301 C 317.724 -1.83678 0.334553 0
M  V30 3302 C 318.075 -1.6027 -1.13173 0
M  V30 3303 O 317.2 -1.08643 -1.87152 0
M  V30 3304 C 317.795 -3.33437 0.600437 0
M  V30 3305 C 316.354 -3.75447 0.267642 0
M  V30 3306 C 315.501 -2.63296 0.870097 0
M  V30 3307 H 318.452 -1.29331 0.919732 0
M  V30 3308 H 318.473 -3.80269 -0.132517 0
M  V30 3309 H 317.985 -3.50442 1.66768 0
M  V30 3310 H 316.086 -3.64035 -0.794329 0
M  V30 3311 H 316.199 -4.73344 0.74042 0
M  V30 3312 H 314.563 -2.52954 0.297739 0
M  V30 3313 H 315.346 -2.83112 1.94172 0
M  V30 3314 N 317.792 -0.46758 -1.50504 0
M  V30 3315 C 319.04 0.0884469 -2.01906 0
M  V30 3316 C 319.361 1.40532 -1.35188 0
M  V30 3317 O 318.631 1.89515 -0.496079 0
M  V30 3318 H 317.211 0.0356765 -0.746148 0
M  V30 3319 H 319.873 -0.6172 -1.84869 0
M  V30 3320 H 318.969 0.2425 -3.11156 0
M  V30 3321 N 319.27 1.56325 -0.20005 0
M  V30 3322 C 320.517 1.97719 0.437411 0
M  V30 3323 C 320.845 1.08709 1.61284 0
M  V30 3324 O 320.1 0.127261 1.95286 0
M  V30 3325 C 320.399 3.4495 0.935103 0
M  V30 3326 C 320.065 4.5072 -0.12749 0
M  V30 3327 C 318.727 4.79368 -0.419451 0
M  V30 3328 C 321.079 5.14268 -0.847231 0
M  V30 3329 C 318.407 5.68854 -1.43604 0
M  V30 3330 C 320.759 6.04852 -1.85301 0
M  V30 3331 C 319.423 6.31855 -2.15211 0
M  V30 3332 H 318.693 0.723507 0.16006 0
M  V30 3333 H 321.34 1.89166 -0.298056 0
M  V30 3334 H 319.645 3.50599 1.74894 0
M  V30 3335 H 321.342 3.74337 1.43781 0
M  V30 3336 H 317.932 4.28458 0.11023 0
M  V30 3337 H 322.116 4.92222 -0.634901 0
M  V30 3338 H 317.372 5.88047 -1.67364 0
M  V30 3339 H 321.546 6.53152 -2.41591 0
M  V30 3340 H 319.173 7.00994 -2.94129 0
M  V30 3341 N 320.748 -0.0735177 1.57428 0
M  V30 3342 C 321.997 -0.771809 1.86349 0
M  V30 3343 C 322.31 -1.78828 0.792452 0
M  V30 3344 O 323.516 -2.53602 0.96945 0
M  V30 3345 C 321.972 -1.42358 3.30548 0
M  V30 3346 C 321.58 -0.445761 4.45777 0
M  V30 3347 C 323.324 -2.10434 3.6867 0
M  V30 3348 C 321.231 -1.10335 5.81016 0
M  V30 3349 H 320.161 -0.291999 0.695164 0
M  V30 3350 H 322.812 -0.0250749 1.83483 0
M  V30 3351 H 321.194 -2.21852 3.28021 0
M  V30 3352 H 322.368 0.319239 4.59693 0
M  V30 3353 H 320.683 0.130457 4.16196 0
M  V30 3354 H 323.28 -2.60405 4.67004 0
M  V30 3355 H 323.623 -2.90298 2.98383 0
M  V30 3356 H 324.156 -1.37773 3.7318 0
M  V30 3357 H 320.895 -0.345061 6.54591 0
M  V30 3358 H 320.415 -1.83925 5.70904 0
M  V30 3359 H 322.094 -1.62367 6.26295 0
M  V30 3360 N 322.226 -1.5378 -0.344866 0
M  V30 3361 C 323.472 -1.71216 -1.08687 0
M  V30 3362 C 323.805 -0.473281 -1.88345 0
M  V30 3363 O 323.08 0.52968 -1.87149 0
M  V30 3364 C 323.363 -2.97486 -2.02914 0
M  V30 3365 C 323.216 -4.31579 -1.26727 0
M  V30 3366 C 324.535 -3.19422 -3.0275 0
M  V30 3367 H 321.654 -0.62301 -0.393735 0
M  V30 3368 H 324.296 -1.8645 -0.365563 0
M  V30 3369 H 322.446 -2.84629 -2.64421 0
M  V30 3370 H 324.118 -4.56284 -0.67845 0
M  V30 3371 H 322.361 -4.30049 -0.569273 0
M  V30 3372 H 323.032 -5.16106 -1.95803 0
M  V30 3373 H 325.508 -3.316 -2.51357 0
M  V30 3374 H 324.384 -4.09169 -3.65885 0
M  V30 3375 H 324.645 -2.35656 -3.74057 0
M  V30 3376 N 323.704 0.605807 -1.45491 0
M  V30 3377 C 324.652 1.73754 -1.54636 0
M  V30 3378 C 325.646 1.64207 -0.416219 0
M  V30 3379 O 326.852 1.69979 -0.592199 0
M  V30 3380 H 323.227 0.574073 -0.485741 0
M  V30 3381 H 325.198 1.63169 -2.49837 0
M  V30 3382 C 323.947 3.12135 -1.53189 0
M  V30 3383 H 323.27 3.20141 -2.39478 0
M  V30 3384 H 324.71 3.91147 -1.63645 0
M  V30 3385 C 323.169 3.35921 -0.256616 0
M  V30 3386 O 323.699 3.96194 0.662798 0
M  V30 3387 N 321.905 2.90204 -0.151751 0
M  V30 3388 H 321.452 2.41336 -0.90081 0
M  V30 3389 H 321.41 3.06492 0.700699 0
M  V30 3390 N 325.182 1.32811 0.848464 0
M  V30 3391 C 326.598 1.11937 1.13764 0
M  V30 3392 C 326.798 -0.0960789 2.01271 0
M  V30 3393 O 325.854 -0.779165 2.40178 0
M  V30 3394 C 327.167 2.402 1.809 0
M  V30 3395 C 328.715 2.46016 1.93508 0
M  V30 3396 C 329.19 3.74215 2.64059 0
M  V30 3397 N 330.681 3.75232 2.71579 0
M  V30 3398 C 331.416 4.71134 3.26833 0
M  V30 3399 N 330.912 5.77406 3.8285 0
M  V30 3400 N 332.705 4.58623 3.24995 0
M  V30 3401 H 324.856 2.1073 0.265855 0
M  V30 3402 H 327.119 0.930671 0.180431 0
M  V30 3403 H 326.825 3.29093 1.24058 0
M  V30 3404 H 326.699 2.51628 2.81004 0
M  V30 3405 H 329.086 1.57577 2.49506 0
M  V30 3406 H 329.167 2.38536 0.923811 0
M  V30 3407 H 328.811 4.63031 2.08722 0
M  V30 3408 H 328.741 3.78968 3.65637 0
M  V30 3409 H 331.232 2.98423 2.31845 0
M  V30 3410 H 331.545 6.46632 4.23187 0
M  V30 3411 H 329.89 5.81152 3.81165 0
M  V30 3412 H 333.081 3.74762 2.80484 0
M  V30 3413 H 333.254 5.33535 3.67756 0
M  V30 3414 N 326.66 -1.06551 1.16123 0
M  V30 3415 C 327.59 -2.15935 0.88851 0
M  V30 3416 C 328.571 -1.69306 -0.164135 0
M  V30 3417 O 329.756 -1.94193 -0.0167857 0
M  V30 3418 C 326.886 -3.45149 0.385942 0
M  V30 3419 C 325.84 -4.05271 1.3762 0
M  V30 3420 C 325.166 -5.29664 0.732137 0
M  V30 3421 C 326.466 -4.44355 2.74493 0
M  V30 3422 H 328.16 -2.39006 1.80323 0
M  V30 3423 H 325.706 -1.14866 0.868435 0
M  V30 3424 H 327.659 -4.21004 0.182647 0
M  V30 3425 H 326.383 -3.21689 -0.564274 0
M  V30 3426 H 325.042 -3.3147 1.56599 0
M  V30 3427 H 324.69 -5.02499 -0.224483 0
M  V30 3428 H 324.39 -5.70848 1.39307 0
M  V30 3429 H 325.914 -6.08218 0.538802 0
M  V30 3430 H 327.328 -5.11303 2.59311 0
M  V30 3431 H 325.725 -4.96515 3.37035 0
M  V30 3432 H 326.795 -3.55339 3.29943 0
M  V30 3433 N 328.138 -0.959301 -1.25041 0
M  V30 3434 C 329.068 -0.501388 -2.28053 0
M  V30 3435 C 330.049 0.454673 -1.63911 0
M  V30 3436 O 331.234 0.352618 -1.90972 0
M  V30 3437 C 328.364 0.217224 -3.4662 0
M  V30 3438 C 327.318 -0.654034 -4.22973 0
M  V30 3439 C 326.644 0.195589 -5.34342 0
M  V30 3440 C 327.944 -1.93447 -4.85155 0
M  V30 3441 H 329.638 -1.36238 -2.66608 0
M  V30 3442 H 327.184 -0.656534 -1.28163 0
M  V30 3443 H 329.137 0.548732 -4.17812 0
M  V30 3444 H 327.861 1.1125 -3.07068 0
M  V30 3445 H 326.52 -0.968693 -3.5357 0
M  V30 3446 H 326.168 1.09076 -4.91031 0
M  V30 3447 H 325.868 -0.384091 -5.86343 0
M  V30 3448 H 327.392 0.521958 -6.08365 0
M  V30 3449 H 328.806 -1.66908 -5.48466 0
M  V30 3450 H 327.203 -2.46018 -5.47353 0
M  V30 3451 H 328.273 -2.63466 -4.07079 0
M  V30 3452 N 329.616 1.39756 -0.72842 0
M  V30 3453 C 330.862 2.00942 -0.273892 0
M  V30 3454 C 331.195 1.57656 1.13394 0
M  V30 3455 O 330.47 0.802434 1.77176 0
M  V30 3456 C 330.753 3.58211 -0.368346 0
M  V30 3457 C 330.606 4.11534 -1.81548 0
M  V30 3458 C 331.925 4.39372 0.253054 0
M  V30 3459 H 329.044 0.730047 -0.100996 0
M  V30 3460 H 331.686 1.66056 -0.923337 0
M  V30 3461 H 329.836 3.88061 0.184588 0
M  V30 3462 H 331.508 3.92431 -2.42478 0
M  V30 3463 H 329.751 3.65341 -2.33898 0
M  V30 3464 H 330.422 5.20682 -1.83288 0
M  V30 3465 H 332.898 4.15527 -0.218224 0
M  V30 3466 H 331.774 5.48677 0.156585 0
M  V30 3467 H 332.035 4.21358 1.33826 0
M  V30 3468 N 331.094 0.475555 1.50254 0
M  V30 3469 C 332.505 0.0215174 1.86688 0
M  V30 3470 C 332.856 -1.38467 1.39001 0
M  V30 3471 O 331.981 -2.02732 0.756894 0
M  V30 3472 C 332.576 0.0322715 3.38785 0
M  V30 3473 C 331.135 -0.366314 3.74613 0
M  V30 3474 C 330.282 0.415832 2.74164 0
M  V30 3475 H 333.233 0.689612 1.42934 0
M  V30 3476 H 333.254 -0.76889 3.7265 0
M  V30 3477 H 332.766 1.05584 3.73462 0
M  V30 3478 H 330.867 -1.39406 3.45538 0
M  V30 3479 H 330.98 -0.064555 4.79057 0
M  V30 3480 H 329.344 -0.131048 2.54363 0
M  V30 3481 H 330.127 1.43899 3.11686 0
M  V30 3482 N 332.573 -1.56217 0.208337 0
M  V30 3483 C 333.803 -2.02043 -0.431523 0
M  V30 3484 C 334.211 -1.08755 -1.54819 0
M  V30 3485 O 333.554 -0.0870009 -1.83494 0
M  V30 3486 C 333.616 -3.44239 -1.03633 0
M  V30 3487 C 333.28 -4.56965 -0.0567502 0
M  V30 3488 C 334.277 -5.14624 0.738773 0
M  V30 3489 C 331.962 -5.02266 0.0581736 0
M  V30 3490 C 333.956 -6.16045 1.63605 0
M  V30 3491 C 331.643 -6.03528 0.959001 0
M  V30 3492 C 332.641 -6.60293 1.7465 0
M  V30 3493 O 332.329 -7.59586 2.6322 0
M  V30 3494 H 332.061 -0.666772 -0.111313 0
M  V30 3495 H 334.615 -2.02919 0.318277 0
M  V30 3496 H 332.845 -3.40391 -1.83497 0
M  V30 3497 H 334.534 -3.73793 -1.58221 0
M  V30 3498 H 335.3 -4.80483 0.660364 0
M  V30 3499 H 331.179 -4.57771 -0.544633 0
M  V30 3500 H 334.723 -6.60279 2.25116 0
M  V30 3501 H 330.62 -6.37092 1.03848 0
M  V30 3502 H 331.388 -7.77057 2.57148 0
M  V30 3503 N 334.051 0.0651679 -1.57465 0
M  V30 3504 C 334.981 1.07693 -2.07182 0
M  V30 3505 C 335.962 1.39962 -0.966673 0
M  V30 3506 O 337.147 1.49475 -1.2398 0
M  V30 3507 C 334.277 2.3885 -2.52127 0
M  V30 3508 C 333.231 2.20917 -3.66579 0
M  V30 3509 C 332.557 3.57515 -3.97601 0
M  V30 3510 C 333.857 1.62493 -4.9638 0
M  V30 3511 H 335.551 0.663199 -2.91962 0
M  V30 3512 H 333.097 0.317569 -1.40455 0
M  V30 3513 H 335.05 3.09928 -2.85522 0
M  V30 3514 H 333.774 2.82215 -1.64384 0
M  V30 3515 H 332.433 1.52279 -3.33477 0
M  V30 3516 H 332.081 3.98463 -3.06979 0
M  V30 3517 H 331.781 3.46353 -4.74672 0
M  V30 3518 H 333.305 4.30013 -4.33499 0
M  V30 3519 H 334.719 2.23445 -5.27963 0
M  V30 3520 H 333.116 1.62009 -5.77818 0
M  V30 3521 H 334.186 0.587041 -4.81333 0
M  V30 3522 N 335.529 1.53961 0.336706 0
M  V30 3523 C 336.462 1.77255 1.43722 0
M  V30 3524 C 337.44 0.62193 1.50236 0
M  V30 3525 O 338.624 0.857874 1.67847 0
M  V30 3526 C 335.751 1.87733 2.81912 0
M  V30 3527 C 334.797 3.09933 2.92991 0
M  V30 3528 S 335.63 4.68836 2.58753 0
M  V30 3529 C 336.786 4.82202 3.99039 0
M  V30 3530 H 337.019 2.70322 1.23748 0
M  V30 3531 H 334.552 1.44917 0.532777 0
M  V30 3532 H 336.51 1.94455 3.61521 0
M  V30 3533 H 335.171 0.956666 2.99177 0
M  V30 3534 H 334.364 3.1396 3.94265 0
M  V30 3535 H 333.966 3.01472 2.21338 0
M  V30 3536 H 336.258 4.64032 4.9364 0
M  V30 3537 H 337.201 5.84298 4.00002 0
M  V30 3538 H 337.609 4.10604 3.87382 0
M  V30 3539 N 337.007 -0.598083 1.45811 0
M  V30 3540 C 337.917 -1.73632 1.57763 0
M  V30 3541 C 338.933 -1.67763 0.461676 0
M  V30 3542 O 340.109 -1.87949 0.723685 0
M  V30 3543 C 337.174 -3.10114 1.55018 0
M  V30 3544 C 336.235 -3.27364 2.77726 0
M  V30 3545 C 335.468 -4.57334 2.75102 0
M  V30 3546 O 335.691 -5.40258 1.8297 0
M  V30 3547 O 334.625 -4.77502 3.66437 0
M  V30 3548 H 338.451 -1.66498 2.53992 0
M  V30 3549 H 336.036 -0.763308 1.28429 0
M  V30 3550 H 337.918 -3.9141 1.56129 0
M  V30 3551 H 336.593 -3.17718 0.619431 0
M  V30 3552 H 335.5 -2.45619 2.82174 0
M  V30 3553 H 336.833 -3.24641 3.69958 0
M  V30 3554 N 338.485 -1.33259 -0.841409 0
M  V30 3555 C 339.448 -1.23221 -1.9326 0
M  V30 3556 C 340.448 -0.151895 -1.60081 0
M  V30 3557 O 341.638 -0.403246 -1.69468 0
M  V30 3558 C 338.77 -0.898123 -3.28856 0
M  V30 3559 H 339.963 -2.2021 -2.03587 0
M  V30 3560 H 337.516 -1.17281 -1.03319 0
M  V30 3561 H 338.251 0.0693841 -3.24226 0
M  V30 3562 H 338.036 -1.67934 -3.54317 0
M  V30 3563 H 339.526 -0.852563 -4.08805 0
M  V30 3564 N 339.963 1.05934 -1.16686 0
M  V30 3565 C 341.212 1.78188 -0.945085 0
M  V30 3566 C 341.525 1.88338 0.528021 0
M  V30 3567 O 342.731 2.57258 0.867799 0
M  V30 3568 C 341.187 3.20277 -1.64167 0
M  V30 3569 C 340.795 3.18281 -3.15279 0
M  V30 3570 C 342.539 3.97039 -1.502 0
M  V30 3571 C 340.446 4.55112 -3.7766 0
M  V30 3572 H 339.376 0.667866 -0.349959 0
M  V30 3573 H 342.027 1.18794 -1.39858 0
M  V30 3574 H 340.409 3.79952 -1.11589 0
M  V30 3575 H 341.583 2.68167 -3.74731 0
M  V30 3576 H 339.898 2.55018 -3.29173 0
M  V30 3577 H 342.495 4.98194 -1.94183 0
M  V30 3578 H 342.838 4.13845 -0.451461 0
M  V30 3579 H 343.371 3.43894 -1.99954 0
M  V30 3580 H 340.11 4.43512 -4.82677 0
M  V30 3581 H 339.63 5.05406 -3.22994 0
M  V30 3582 H 341.309 5.24064 -3.79428 0
M  V30 3583 N 341.441 0.965919 1.2453 0
M  V30 3584 C 342.857 0.67216 1.44756 0
M  V30 3585 C 343.057 -0.766609 1.86347 0
M  V30 3586 O 342.113 -1.5407 2.00047 0
M  V30 3587 C 343.426 1.65473 2.51076 0
M  V30 3588 C 344.974 1.66716 2.64905 0
M  V30 3589 C 345.449 2.63766 3.74421 0
M  V30 3590 N 346.94 2.62198 3.81846 0
M  V30 3591 C 347.675 3.33966 4.66106 0
M  V30 3592 N 347.171 4.15245 5.54566 0
M  V30 3593 N 348.964 3.22799 4.60171 0
M  V30 3594 H 341.115 1.89553 0.958293 0
M  V30 3595 H 343.378 0.815979 0.482579 0
M  V30 3596 H 343.084 2.68296 2.27399 0
M  V30 3597 H 342.958 1.4261 3.49202 0
M  V30 3598 H 345.345 0.646057 2.87941 0
M  V30 3599 H 345.426 1.93642 1.67142 0
M  V30 3600 H 345.07 3.6601 3.52135 0
M  V30 3601 H 345 2.34121 4.71694 0
M  V30 3602 H 347.491 2.032 3.18619 0
M  V30 3603 H 347.804 4.66898 6.15814 0
M  V30 3604 H 346.149 4.1934 5.54237 0
M  V30 3605 H 349.34 2.58764 3.90075 0
M  V30 3606 H 349.513 3.78994 5.25612 0
M  V30 3607 N 342.919 -1.39368 0.735821 0
M  V30 3608 C 343.849 -2.33234 0.111506 0
M  V30 3609 C 344.83 -1.53954 -0.723334 0
M  V30 3610 O 346.015 -1.82344 -0.668147 0
M  V30 3611 C 343.145 -3.38057 -0.795917 0
M  V30 3612 C 342.099 -4.2795 -0.065172 0
M  V30 3613 C 341.425 -5.23479 -1.08967 0
M  V30 3614 C 342.725 -5.10741 1.09273 0
M  V30 3615 H 344.419 -2.85692 0.895571 0
M  V30 3616 H 341.965 -1.37364 0.432109 0
M  V30 3617 H 343.918 -4.02675 -1.24221 0
M  V30 3618 H 342.642 -2.8404 -1.61211 0
M  V30 3619 H 341.301 -3.64813 0.361511 0
M  V30 3620 H 340.949 -4.65758 -1.89944 0
M  V30 3621 H 340.649 -5.84472 -0.605489 0
M  V30 3622 H 342.173 -5.90974 -1.53565 0
M  V30 3623 H 343.587 -5.68699 0.724841 0
M  V30 3624 H 341.984 -5.8088 1.50659 0
M  V30 3625 H 343.054 -4.45525 1.91404 0
M  V30 3626 N 344.397 -0.483516 -1.5 0
M  V30 3627 C 345.627 0.0643896 -2.065 0
M  V30 3628 C 346.035 1.32949 -1.34615 0
M  V30 3629 O 345.378 1.79003 -0.412756 0
M  V30 3630 C 345.44 0.405983 -3.572 0
M  V30 3631 C 345.104 -0.758875 -4.50655 0
M  V30 3632 C 346.101 -1.64445 -4.93208 0
M  V30 3633 C 343.786 -0.952725 -4.93182 0
M  V30 3634 C 345.78 -2.70818 -5.77006 0
M  V30 3635 C 343.467 -2.01966 -5.76761 0
M  V30 3636 C 344.465 -2.89574 -6.18576 0
M  V30 3637 O 344.153 -3.94429 -7.00486 0
M  V30 3638 H 343.885 -0.00934786 -0.675935 0
M  V30 3639 H 346.439 -0.674959 -1.93993 0
M  V30 3640 H 344.669 1.19869 -3.67652 0
M  V30 3641 H 346.358 0.890433 -3.96013 0
M  V30 3642 H 347.124 -1.50643 -4.61012 0
M  V30 3643 H 343.003 -0.280247 -4.60147 0
M  V30 3644 H 346.547 -3.3923 -6.09565 0
M  V30 3645 H 342.444 -2.1577 -6.0837 0
M  V30 3646 H 343.212 -3.91568 -7.1876 0
M  V30 3647 N 345.875 1.56104 -0.216619 0
M  V30 3648 C 346.785 2.23694 0.706982 0
M  V30 3649 C 347.801 1.24295 1.21765 0
M  V30 3650 O 348.977 1.57094 1.2603 0
M  V30 3651 C 346.042 2.8998 1.90033 0
M  V30 3652 C 345.103 4.04708 1.43213 0
M  V30 3653 C 344.336 4.67824 2.56859 0
M  V30 3654 O 344.559 4.29913 3.74874 0
M  V30 3655 O 343.493 5.56905 2.28343 0
M  V30 3656 H 347.319 3.03272 0.161235 0
M  V30 3657 H 344.904 1.49394 0.0136177 0
M  V30 3658 H 346.786 3.31837 2.59735 0
M  V30 3659 H 345.461 2.13365 2.43428 0
M  V30 3660 H 344.368 3.6743 0.70327 0
M  V30 3661 H 345.701 4.83051 0.944615 0
M  V30 3662 N 347.353 -0.0568162 1.57498 0
M  V30 3663 C 348.769 -0.411933 1.54192 0
M  V30 3664 C 348.969 -1.78287 0.938942 0
M  V30 3665 O 348.025 -2.46483 0.547919 0
M  V30 3666 C 349.338 -0.339244 2.9878 0
M  V30 3667 C 350.886 -0.418348 3.10192 0
M  V30 3668 C 351.361 -0.375407 4.56459 0
M  V30 3669 N 352.852 -0.435038 4.61153 0
M  V30 3670 C 353.587 -0.424265 5.71828 0
M  V30 3671 N 353.083 -0.367418 6.91825 0
M  V30 3672 N 354.876 -0.471938 5.60115 0
M  V30 3673 H 347.027 0.840684 1.95055 0
M  V30 3674 H 349.29 0.316987 0.893433 0
M  V30 3675 H 348.996 0.601742 3.46514 0
M  V30 3676 H 348.87 -1.14371 3.59443 0
M  V30 3677 H 351.257 -1.34976 2.62422 0
M  V30 3678 H 351.338 0.414962 2.52412 0
M  V30 3679 H 350.982 0.552219 5.04889 0
M  V30 3680 H 350.912 -1.22645 5.12119 0
M  V30 3681 H 353.403 -0.482612 3.74806 0
M  V30 3682 H 353.716 -0.363535 7.71944 0
M  V30 3683 H 352.061 -0.333879 6.94198 0
M  V30 3684 H 355.252 -0.514145 4.65268 0
M  V30 3685 H 355.425 -0.460073 6.46365 0
M  V30 3686 N 348.832 -1.54138 -0.328536 0
M  V30 3687 C 350.08 -1.71765 -1.06496 0
M  V30 3688 C 350.401 -0.49149 -1.88704 0
M  V30 3689 O 349.671 0.494539 -1.89555 0
M  V30 3690 H 348.251 -0.633295 -0.396164 0
M  V30 3691 H 350.913 -1.91429 -0.366176 0
M  V30 3692 H 350.009 -2.5951 -1.73381 0
M  V30 3693 N 350.31 0.590341 -1.46126 0
M  V30 3694 C 351.587 1.35029 -1.41515 0
M  V30 3695 C 351.967 2.10888 -0.0946472 0
M  V30 3696 O 351.315 2.08998 0.923693 0
M  V30 3697 C 351.525 2.28269 -2.63997 0
M  V30 3698 C 352.873 2.90338 -3.09821 0
M  V30 3699 O 353.897 2.38585 -2.64492 0
M  V30 3700 O 352.756 3.84321 -3.88535 0
M  V30 3701 H 349.85 0.606317 -0.562413 0
M  V30 3702 H 352.396 0.611994 -1.58281 0
M  V30 3703 H 351.168 1.71591 -3.51671 0
M  V30 3704 H 350.791 3.0945 -2.49652 0
M  V30 3705 N 351.788 1.33704 0.83433 0
M  V30 3706 C 352.751 1.24244 1.92603 0
M  V30 3707 C 353.751 0.160383 1.59998 0
M  V30 3708 O 354.941 0.412228 1.69252 0
M  V30 3709 C 352.073 0.91555 3.28376 0
M  V30 3710 H 353.266 2.21287 2.02416 0
M  V30 3711 H 350.819 1.17827 1.02696 0
M  V30 3712 H 351.554 -0.0521886 3.24258 0
M  V30 3713 H 351.339 1.69811 3.53422 0
M  V30 3714 H 352.829 0.874231 4.08347 0
M  V30 3715 N 353.266 -1.05314 1.17247 0
M  V30 3716 C 354.491 -1.82509 0.985148 0
M  V30 3717 C 354.916 -1.82343 -0.461788 0
M  V30 3718 O 354.274 -1.23151 -1.33055 0
M  V30 3719 C 354.322 -3.26566 1.52929 0
M  V30 3720 O 353.426 -4.05666 0.742225 0
M  V30 3721 H 352.767 -0.564347 0.349869 0
M  V30 3722 H 355.297 -1.32718 1.55715 0
M  V30 3723 H 355.307 -3.77369 1.55103 0
M  V30 3724 H 353.982 -3.26001 2.58256 0
M  V30 3725 H 352.559 -3.64397 0.791794 0
M  V30 3726 N 354.744 -0.972509 -1.24016 0
M  V30 3727 C 355.691 -0.505969 -2.25186 0
M  V30 3728 C 356.661 0.451009 -1.5986 0
M  V30 3729 O 357.846 0.360307 -1.87367 0
M  V30 3730 C 354.986 0.193089 -3.44559 0
M  V30 3731 C 354.099 -0.803222 -4.24467 0
M  V30 3732 C 353.234 -0.0797793 -5.3114 0
M  V30 3733 C 352.273 -1.06583 -6.02749 0
M  V30 3734 N 351.41 -0.372074 -7.01113 0
M  V30 3735 H 356.25 -1.37351 -2.64459 0
M  V30 3736 H 353.787 -0.688419 -1.29997 0
M  V30 3737 H 355.745 0.615125 -4.1264 0
M  V30 3738 H 354.375 1.02455 -3.06109 0
M  V30 3739 H 353.427 -1.34368 -3.55878 0
M  V30 3740 H 354.739 -1.55494 -4.73944 0
M  V30 3741 H 353.893 0.400015 -6.0538 0
M  V30 3742 H 352.632 0.704597 -4.82583 0
M  V30 3743 H 351.637 -1.55645 -5.27309 0
M  V30 3744 H 352.862 -1.85074 -6.53395 0
M  V30 3745 H 350.808 0.393238 -6.5482 0
M  V30 3746 H 350.725 -1.06258 -7.48495 0
M  V30 3747 H 351.993 0.0855932 -7.79453 0
M  V30 3748 N 356.222 1.38976 -0.743202 0
M  V30 3749 C 357.132 2.3434 -0.110399 0
M  V30 3750 C 358.148 1.58741 0.712559 0
M  V30 3751 O 359.324 1.9099 0.639125 0
M  V30 3752 C 356.389 3.37812 0.780012 0
M  V30 3753 C 355.45 4.29263 -0.0561319 0
M  V30 3754 C 354.683 5.27793 0.791875 0
M  V30 3755 O 354.906 5.33043 2.03031 0
M  V30 3756 O 353.84 6.01512 0.216183 0
M  V30 3757 H 357.666 2.90129 -0.897714 0
M  V30 3758 H 355.251 1.40643 -0.503966 0
M  V30 3759 H 357.133 4.01194 1.28923 0
M  V30 3760 H 355.808 2.84395 1.546 0
M  V30 3761 H 354.715 3.69076 -0.611056 0
M  V30 3762 H 356.048 4.85907 -0.784531 0
M  V30 3763 N 357.7 0.491464 1.49741 0
M  V30 3764 C 358.977 -0.118984 1.95238 0
M  V30 3765 C 359.357 -1.55044 1.43264 0
M  V30 3766 O 358.705 -2.19287 0.642287 0
M  V30 3767 C 358.915 -0.0414187 3.48975 0
M  V30 3768 C 360.263 -0.220133 4.24029 0
M  V30 3769 O 361.287 -0.117055 3.56008 0
M  V30 3770 O 360.146 -0.430567 5.44801 0
M  V30 3771 H 357.24 -0.100536 0.820866 0
M  V30 3772 H 359.786 0.553322 1.60426 0
M  V30 3773 H 358.558 0.957214 3.79412 0
M  V30 3774 H 358.181 -0.754292 3.9038 0
M  V30 3775 N 359.178 -1.55987 0.224894 0
M  V30 3776 C 360.427 -1.97566 -0.406273 0
M  V30 3777 C 360.74 -1.11569 -1.6066 0
M  V30 3778 O 361.946 -1.43062 -2.3075 0
M  V30 3779 C 360.402 -3.51474 -0.774207 0
M  V30 3780 C 360.01 -4.46179 0.403496 0
M  V30 3781 C 361.754 -4.01758 -1.37079 0
M  V30 3782 C 359.661 -5.91399 0.0129412 0
M  V30 3783 H 358.591 -0.737777 -0.155565 0
M  V30 3784 H 361.242 -1.80659 0.321635 0
M  V30 3785 H 359.624 -3.63994 -1.55963 0
M  V30 3786 H 360.798 -4.45409 1.18101 0
M  V30 3787 H 359.113 -4.06255 0.913536 0
M  V30 3788 H 361.71 -5.07756 -1.67596 0
M  V30 3789 H 362.053 -3.47805 -2.28773 0
M  V30 3790 H 362.586 -3.92475 -0.648733 0
M  V30 3791 H 359.325 -6.49341 0.896451 0
M  V30 3792 H 358.845 -5.95356 -0.728821 0
M  V30 3793 H 360.524 -6.45683 -0.412582 0
M  V30 3794 N 360.656 0.0484629 -1.57525 0
M  V30 3795 C 361.933 0.777447 -1.79486 0
M  V30 3796 C 362.313 1.94597 -0.818251 0
M  V30 3797 O 361.661 2.28047 0.143767 0
M  V30 3798 C 361.871 1.22864 -3.26658 0
M  V30 3799 C 363.219 1.65251 -3.91123 0
M  V30 3800 O 364.243 1.32372 -3.3069 0
M  V30 3801 O 363.102 2.26207 -4.97486 0
M  V30 3802 H 360.196 0.374357 -0.737419 0
M  V30 3803 H 362.742 0.0267359 -1.69679 0
M  V30 3804 H 361.514 0.393589 -3.89316 0
M  V30 3805 H 361.137 2.03996 -3.41279 0
M  V30 3806 N 362.134 1.5431 0.320358 0
M  V30 3807 C 363.362 1.76636 1.07738 0
M  V30 3808 C 363.777 0.51649 1.81598 0
M  V30 3809 O 363.134 -0.512942 1.75143 0
M  V30 3810 C 363.185 2.96158 2.07299 0
M  V30 3811 O 362.906 4.16313 1.36438 0
M  V30 3812 C 364.407 3.3072 2.95193 0
M  V30 3813 H 361.627 0.589597 0.320339 0
M  V30 3814 H 364.171 2.01207 0.36551 0
M  V30 3815 H 362.326 2.73851 2.74016 0
M  V30 3816 H 362.74 4.83565 2.03138 0
M  V30 3817 H 364.214 4.17643 3.60941 0
M  V30 3818 H 364.691 2.48026 3.62463 0
M  V30 3819 H 365.297 3.55117 2.34034 0
M  V30 3820 N 363.613 -0.582584 1.46437 0
M  V30 3821 C 364.576 -1.67366 1.56592 0
M  V30 3822 C 365.576 -1.54575 0.443072 0
M  V30 3823 O 366.766 -1.59191 0.707381 0
M  V30 3824 C 363.898 -3.06791 1.48634 0
M  V30 3825 H 365.091 -1.5972 2.5383 0
M  V30 3826 H 362.644 -0.800432 1.34249 0
M  V30 3827 H 363.379 -3.19993 0.526763 0
M  V30 3828 H 363.164 -3.17484 2.30101 0
M  V30 3829 H 364.654 -3.86218 1.58826 0
M  V30 3830 N 365.091 -1.34144 -0.827227 0
M  V30 3831 C 366.024 -1.19707 -1.94282 0
M  V30 3832 C 367.002 -0.0897256 -1.62352 0
M  V30 3833 O 368.186 -0.254095 -1.8678 0
M  V30 3834 C 365.313 -0.838646 -3.28153 0
M  V30 3835 C 364.359 -1.95514 -3.79047 0
M  V30 3836 S 365.192 -3.56793 -3.99323 0
M  V30 3837 C 366.348 -3.22983 -5.36127 0
M  V30 3838 H 366.581 -2.1414 -2.06231 0
M  V30 3839 H 364.114 -1.19121 -0.982321 0
M  V30 3840 H 366.072 -0.638637 -4.05502 0
M  V30 3841 H 364.733 0.0872776 -3.13979 0
M  V30 3842 H 363.926 -1.658 -4.75948 0
M  V30 3843 H 363.528 -2.11241 -3.08631 0
M  V30 3844 H 365.82 -2.74531 -6.19386 0
M  V30 3845 H 366.763 -4.19008 -5.70822 0
M  V30 3846 H 367.171 -2.59276 -5.01434 0
M  V30 3847 N 366.569 1.04691 -1.17803 0
M  V30 3848 C 367.516 2.12557 -0.899343 0
M  V30 3849 C 368.486 1.65339 0.158771 0
M  V30 3850 O 369.671 1.90789 0.0204797 0
M  V30 3851 C 366.811 3.42481 -0.424315 0
M  V30 3852 C 365.924 4.03346 -1.54713 0
M  V30 3853 C 365.059 5.21208 -1.02546 0
M  V30 3854 C 364.098 5.74089 -2.12339 0
M  V30 3855 N 363.235 6.83247 -1.61612 0
M  V30 3856 H 368.075 2.35734 -1.823 0
M  V30 3857 H 365.612 1.1564 -0.909159 0
M  V30 3858 H 367.57 4.16996 -0.130421 0
M  V30 3859 H 366.2 3.19471 0.462377 0
M  V30 3860 H 365.252 3.2622 -1.95664 0
M  V30 3861 H 366.564 4.38628 -2.37501 0
M  V30 3862 H 365.718 6.02812 -0.685718 0
M  V30 3863 H 364.457 4.87414 -0.167084 0
M  V30 3864 H 363.462 4.91111 -2.47165 0
M  V30 3865 H 364.687 6.0993 -2.98601 0
M  V30 3866 H 362.633 6.5134 -0.780533 0
M  V30 3867 H 362.55 7.17559 -2.38003 0
M  V30 3868 H 363.818 7.68491 -1.30545 0
M  V30 3869 N 368.047 0.979072 1.23499 0
M  V30 3870 C 368.977 0.537606 2.27227 0
M  V30 3871 C 369.958 -0.428539 1.64613 0
M  V30 3872 O 371.143 -0.322191 1.91509 0
M  V30 3873 C 368.273 -0.162052 3.46922 0
M  V30 3874 C 367.227 0.721242 4.21879 0
M  V30 3875 C 366.553 -0.110555 5.34586 0
M  V30 3876 C 367.853 2.01141 4.82016 0
M  V30 3877 H 369.547 1.40462 2.64406 0
M  V30 3878 H 367.093 0.67684 1.27102 0
M  V30 3879 H 369.046 -0.482192 4.18632 0
M  V30 3880 H 367.77 -1.06351 3.08799 0
M  V30 3881 H 366.429 1.02482 3.51984 0
M  V30 3882 H 366.077 -1.0125 4.92704 0
M  V30 3883 H 365.777 0.477325 5.85658 0
M  V30 3884 H 367.301 -0.425107 6.09118 0
M  V30 3885 H 368.715 1.75612 5.45741 0
M  V30 3886 H 367.112 2.54695 5.43369 0
M  V30 3887 H 368.182 2.69909 4.02836 0
M  V30 3888 N 369.525 -1.3858 0.750561 0
M  V30 3889 C 370.773 -1.99789 0.30477 0
M  V30 3890 C 371.094 -1.59874 -1.11649 0
M  V30 3891 O 370.364 -0.85417 -1.76297 0
M  V30 3892 H 368.944 -0.738902 0.109694 0
M  V30 3893 H 371.606 -1.69391 0.963983 0
M  V30 3894 H 370.702 -3.09952 0.365499 0
M  V30 3895 N 371.003 -0.499398 -1.49478 0
M  V30 3896 C 371.966 0.268838 -2.27618 0
M  V30 3897 C 372.966 0.895383 -1.33565 0
M  V30 3898 O 374.156 0.760164 -1.56739 0
M  V30 3899 C 371.288 1.38559 -3.11471 0
M  V30 3900 H 372.481 -0.416812 -2.96989 0
M  V30 3901 H 370.034 -0.254313 -1.54217 0
M  V30 3902 H 370.769 2.10544 -2.46661 0
M  V30 3903 H 370.554 0.941797 -3.80621 0
M  V30 3904 H 372.044 1.92678 -3.70493 0
M  V30 3905 N 372.481 1.55866 -0.233164 0
M  V30 3906 C 373.729 1.9821 0.394593 0
M  V30 3907 C 374.05 1.12234 1.59463 0
M  V30 3908 O 373.32 0.201981 1.94856 0
M  V30 3909 H 371.9 0.732034 0.148778 0
M  V30 3910 H 374.562 1.92107 -0.32876 0
M  V30 3911 H 373.658 3.03845 0.713063 0
M  V30 3912 N 373.959 -0.0401083 1.57549 0
M  V30 3913 C 375.189 -0.744115 1.92734 0
M  V30 3914 C 375.597 -1.70005 0.830348 0
M  V30 3915 O 374.94 -1.82576 -0.20286 0
M  V30 3916 C 375.002 -1.56516 3.2364 0
M  V30 3917 C 374.666 -0.7752 4.50377 0
M  V30 3918 C 375.663 -0.0803326 5.19838 0
M  V30 3919 C 373.348 -0.733002 4.96923 0
M  V30 3920 C 375.342 0.646154 6.34116 0
M  V30 3921 C 373.029 -0.00276321 6.111 0
M  V30 3922 C 374.027 0.685585 6.7955 0
M  V30 3923 O 373.715 1.40399 7.91545 0
M  V30 3924 H 373.447 -0.214861 0.640945 0
M  V30 3925 H 376.001 -0.00503675 2.05399 0
M  V30 3926 H 374.231 -2.3478 3.07271 0
M  V30 3927 H 375.92 -2.15076 3.44234 0
M  V30 3928 H 376.686 -0.104035 4.84888 0
M  V30 3929 H 372.565 -1.25827 4.43496 0
M  V30 3930 H 376.109 1.18398 6.87479 0
M  V30 3931 H 372.006 0.0229012 6.45496 0
M  V30 3932 H 372.774 1.31653 8.07843 0
M  V30 3933 N 375.437 -1.54477 -0.31217 0
M  V30 3934 C 376.848 -1.64344 -0.885891 0
M  V30 3935 C 377.199 -0.54485 -1.88483 0
M  V30 3936 O 376.324 0.320387 -2.14015 0
M  V30 3937 C 376.919 -2.97908 -1.61357 0
M  V30 3938 C 375.478 -3.09933 -2.13585 0
M  V30 3939 C 374.625 -2.59971 -0.964897 0
M  V30 3940 H 377.576 -1.58448 -0.0894528 0
M  V30 3941 H 377.597 -2.88706 -2.47848 0
M  V30 3942 H 377.109 -3.77845 -0.886277 0
M  V30 3943 H 375.21 -2.34694 -2.89395 0
M  V30 3944 H 375.323 -4.15916 -2.37804 0
M  V30 3945 H 373.687 -2.16147 -1.34731 0
M  V30 3946 H 374.47 -3.42376 -0.251742 0
M  V30 3947 N 376.915 0.57481 -1.46744 0
M  V30 3948 C 377.848 1.69827 -1.52427 0
M  V30 3949 C 378.826 1.58151 -0.377744 0
M  V30 3950 O 380.01 1.79257 -0.58303 0
M  V30 3951 C 377.137 3.07943 -1.41027 0
M  V30 3952 C 376.183 3.38116 -2.59961 0
M  V30 3953 S 377.016 3.29313 -4.22272 0
M  V30 3954 C 378.172 4.69953 -4.13394 0
M  V30 3955 H 378.405 1.64748 -2.47478 0
M  V30 3956 H 375.938 0.754203 -1.34726 0
M  V30 3957 H 377.896 3.87619 -1.35137 0
M  V30 3958 H 376.557 3.10504 -0.473909 0
M  V30 3959 H 375.75 4.38762 -2.47999 0
M  V30 3960 H 375.352 2.66024 -2.62882 0
M  V30 3961 H 377.644 5.60517 -3.80562 0
M  V30 3962 H 378.587 4.86972 -5.14066 0
M  V30 3963 H 378.995 4.47174 -3.44522 0
M  V30 3964 N 378.394 1.34581 0.820102 0
M  V30 3965 C 379.642 1.26845 1.57336 0
M  V30 3966 C 379.963 -0.160667 1.94337 0
M  V30 3967 O 379.233 -1.09396 1.6251 0
M  V30 3968 H 377.813 0.466514 0.583415 0
M  V30 3969 H 380.475 1.68526 0.979027 0
M  V30 3970 H 379.571 1.87513 2.4949 0
M  V30 3971 N 379.872 -1.04064 1.18357 0
M  V30 3972 C 381.283 -1.58719 0.98312 0
M  V30 3973 C 381.634 -1.90556 -0.467193 0
M  V30 3974 O 380.759 -1.69561 -1.34454 0
M  V30 3975 C 381.354 -2.88379 1.77828 0
M  V30 3976 C 379.913 -3.3965 1.62218 0
M  V30 3977 C 379.06 -2.13235 1.77274 0
M  V30 3978 H 382.011 -0.867359 1.32901 0
M  V30 3979 H 382.032 -3.58773 1.26737 0
M  V30 3980 H 381.544 -2.65176 2.83379 0
M  V30 3981 H 379.645 -3.67866 0.592036 0
M  V30 3982 H 379.758 -4.13475 2.42023 0
M  V30 3983 H 378.122 -2.24542 1.20221 0
M  V30 3984 H 378.905 -1.92487 2.8426 0
M  V30 3985 N 381.35 -0.985608 -1.22978 0
M  V30 3986 C 382.597 -0.657386 -1.91532 0
M  V30 3987 C 382.925 0.809707 -1.76845 0
M  V30 3988 O 382.18 1.60021 -1.12658 0
M  V30 3989 C 382.479 -1.00014 -3.43121 0
M  V30 3990 C 382.145 -2.4583 -3.77993 0
M  V30 3991 C 380.807 -2.85679 -3.87222 0
M  V30 3992 C 383.159 -3.40378 -3.94705 0
M  V30 3993 C 380.487 -4.19081 -4.10595 0
M  V30 3994 C 382.839 -4.73429 -4.1958 0
M  V30 3995 C 381.503 -5.1303 -4.27032 0
M  V30 3996 H 380.773 -0.240555 -0.700867 0
M  V30 3997 H 383.42 -1.24044 -1.45895 0
M  V30 3998 H 381.725 -0.335072 -3.90365 0
M  V30 3999 H 383.422 -0.724322 -3.94404 0
M  V30 4000 H 380.012 -2.13939 -3.71387 0
M  V30 4001 H 384.196 -3.10766 -3.8696 0
M  V30 4002 H 379.452 -4.49362 -4.14589 0
M  V30 4003 H 383.626 -5.46644 -4.31455 0
M  V30 4004 H 381.253 -6.16418 -4.44896 0
M  V30 4005 N 382.828 1.3818 -0.7579 0
M  V30 4006 C 383.738 2.3421 -0.135247 0
M  V30 4007 C 384.754 1.59487 0.695683 0
M  V30 4008 O 385.93 1.91657 0.618832 0
M  V30 4009 C 382.995 3.3862 0.744139 0
M  V30 4010 C 382.056 4.2918 -0.101658 0
M  V30 4011 C 381.289 5.28603 0.735851 0
M  V30 4012 O 381.512 5.35166 1.97366 0
M  V30 4013 O 380.446 6.01707 0.152372 0
M  V30 4014 H 384.272 2.8916 -0.928436 0
M  V30 4015 H 381.857 1.40101 -0.518855 0
M  V30 4016 H 383.739 4.02539 1.2466 0
M  V30 4017 H 382.414 2.86019 1.51575 0
M  V30 4018 H 381.321 3.68407 -0.650167 0
M  V30 4019 H 382.654 4.85048 -0.836024 0
M  V30 4020 N 384.306 0.507319 1.49211 0
M  V30 4021 C 385.236 -0.256939 2.32082 0
M  V30 4022 C 386.217 -0.956609 1.40652 0
M  V30 4023 O 387.402 -0.946788 1.69557 0
M  V30 4024 C 384.532 -1.31802 3.21318 0
M  V30 4025 C 383.486 -0.737855 4.21592 0
M  V30 4026 C 382.812 -1.89992 4.99807 0
M  V30 4027 C 384.112 0.275325 5.21574 0
M  V30 4028 H 385.806 0.434798 2.96226 0
M  V30 4029 H 383.352 0.210546 1.42452 0
M  V30 4030 H 385.305 -1.86045 3.78107 0
M  V30 4031 H 384.029 -2.03903 2.5513 0
M  V30 4032 H 382.688 -0.217126 3.65956 0
M  V30 4033 H 382.336 -2.60877 4.30061 0
M  V30 4034 H 382.036 -1.51777 5.6766 0
M  V30 4035 H 383.56 -2.44657 5.59442 0
M  V30 4036 H 384.974 -0.179193 5.7302 0
M  V30 4037 H 383.371 0.573649 5.97352 0
M  V30 4038 H 384.441 1.18903 4.70096 0
M  V30 4039 N 385.784 -1.5574 0.241426 0
M  V30 4040 C 386.714 -2.24133 -0.654722 0
M  V30 4041 C 387.695 -1.21974 -1.1856 0
M  V30 4042 O 388.88 -1.50612 -1.22595 0
M  V30 4043 C 386.01 -2.93659 -1.85423 0
M  V30 4044 C 384.964 -4.0246 -1.45636 0
M  V30 4045 C 384.29 -4.59383 -2.73626 0
M  V30 4046 C 385.59 -5.18468 -0.631506 0
M  V30 4047 H 387.284 -2.99281 -0.0844353 0
M  V30 4048 H 384.83 -1.43947 -0.0391707 0
M  V30 4049 H 386.783 -3.40203 -2.48676 0
M  V30 4050 H 385.507 -2.15991 -2.44981 0
M  V30 4051 H 384.166 -3.56676 -0.847202 0
M  V30 4052 H 383.814 -3.78422 -3.3137 0
M  V30 4053 H 383.514 -5.32826 -2.4773 0
M  V30 4054 H 385.038 -5.08658 -3.37786 0
M  V30 4055 H 386.452 -5.61272 -1.1682 0
M  V30 4056 H 384.849 -5.98266 -0.468831 0
M  V30 4057 H 385.919 -4.8358 0.357506 0
M  V30 4058 N 387.262 0.0317525 -1.57568 0
M  V30 4059 C 388.539 0.758366 -1.803 0
M  V30 4060 C 388.919 1.93718 -0.838845 0
M  V30 4061 O 388.267 2.28187 0.119571 0
M  V30 4062 C 388.477 1.19392 -3.27943 0
M  V30 4063 C 389.825 1.61094 -3.92854 0
M  V30 4064 O 390.849 1.28857 -3.32076 0
M  V30 4065 O 389.708 2.20918 -4.99858 0
M  V30 4066 H 386.802 0.366514 -0.741348 0
M  V30 4067 H 389.348 0.00873765 -1.69698 0
M  V30 4068 H 388.12 0.352275 -3.89711 0
M  V30 4069 H 387.743 2.00365 -3.43424 0
M  V30 4070 N 388.74 1.54641 0.303973 0
M  V30 4071 C 389.97 1.77511 1.05705 0
M  V30 4072 C 390.378 0.533228 1.81531 0
M  V30 4073 O 389.721 -0.506423 1.76582 0
M  V30 4074 C 389.783 2.92779 2.08617 0
M  V30 4075 C 389.447 4.30977 1.52013 0
M  V30 4076 C 390.444 5.11115 0.9517 0
M  V30 4077 C 388.129 4.77571 1.55665 0
M  V30 4078 C 390.123 6.35966 0.427327 0
M  V30 4079 C 387.81 6.02384 1.02841 0
M  V30 4080 C 388.808 6.81417 0.464713 0
M  V30 4081 O 388.496 8.03881 -0.0555283 0
M  V30 4082 H 388.228 0.59579 0.319391 0
M  V30 4083 H 390.782 2.02401 0.349712 0
M  V30 4084 H 389.012 2.63506 2.83022 0
M  V30 4085 H 390.701 3.03252 2.69802 0
M  V30 4086 H 391.467 4.76264 0.916407 0
M  V30 4087 H 387.346 4.16085 1.9848 0
M  V30 4088 H 390.89 6.97599 -0.0133062 0
M  V30 4089 H 386.787 6.36723 1.06084 0
M  V30 4090 H 387.555 8.18479 0.0580522 0
M  V30 4091 N 390.218 -0.567019 1.47046 0
M  V30 4092 C 391.464 -1.32658 1.53394 0
M  V30 4093 C 391.797 -1.93254 0.19148 0
M  V30 4094 O 391.072 -1.77338 -0.798844 0
M  V30 4095 C 391.355 -2.44412 2.64452 0
M  V30 4096 C 391.208 -1.88749 4.08282 0
M  V30 4097 C 392.527 -3.46387 2.71485 0
M  V30 4098 H 389.646 -0.48098 0.558415 0
M  V30 4099 H 392.288 -0.635481 1.79058 0
M  V30 4100 H 390.438 -3.03363 2.427 0
M  V30 4101 H 392.11 -1.34134 4.41368 0
M  V30 4102 H 390.353 -1.19481 4.17021 0
M  V30 4103 H 391.024 -2.69491 4.81745 0
M  V30 4104 H 393.5 -2.9734 2.91081 0
M  V30 4105 H 392.376 -4.2202 3.50985 0
M  V30 4106 H 392.637 -4.04616 1.78153 0
M  V30 4107 N 391.696 -1.35014 -0.812953 0
M  V30 4108 C 392.944 -1.27678 -1.56661 0
M  V30 4109 C 393.265 0.150359 -1.94419 0
M  V30 4110 O 392.535 1.08532 -1.63088 0
M  V30 4111 H 391.115 -0.469602 -0.580933 0
M  V30 4112 H 393.777 -1.69043 -0.970076 0
M  V30 4113 H 392.873 -1.88833 -2.48492 0
M  V30 4114 N 393.175 1.03435 -1.18907 0
M  V30 4115 C 394.105 2.13503 -0.945448 0
M  V30 4116 C 395.086 1.69682 0.119189 0
M  V30 4117 O 396.271 1.94169 -0.034707 0
M  V30 4118 C 393.401 3.44004 -0.477316 0
M  V30 4119 C 392.355 4.0148 -1.48316 0
M  V30 4120 C 391.681 5.27537 -0.872311 0
M  V30 4121 C 392.981 4.36921 -2.86177 0
M  V30 4122 H 394.675 2.34141 -1.86597 0
M  V30 4123 H 392.221 1.12523 -0.898584 0
M  V30 4124 H 394.174 4.20372 -0.294204 0
M  V30 4125 H 392.898 3.23072 0.478786 0
M  V30 4126 H 391.557 3.27201 -1.65332 0
M  V30 4127 H 391.205 5.02917 0.0911752 0
M  V30 4128 H 390.905 5.66954 -1.54393 0
M  V30 4129 H 392.429 6.06576 -0.699871 0
M  V30 4130 H 393.843 5.04248 -2.72776 0
M  V30 4131 H 392.24 4.87405 -3.50081 0
M  V30 4132 H 393.31 3.46466 -3.39248 0
M  V30 4133 N 394.653 0.992116 1.22453 0
M  V30 4134 C 395.93 0.583508 1.86694 0
M  V30 4135 C 396.31 -0.9392 1.89056 0
M  V30 4136 O 395.658 -1.82081 1.38053 0
M  V30 4137 C 395.868 1.20304 3.2761 0
M  V30 4138 C 397.216 1.30308 4.0411 0
M  V30 4139 O 398.24 1.15737 3.36873 0
M  V30 4140 O 397.099 1.53615 5.24466 0
M  V30 4141 H 394.193 0.198129 0.802916 0
M  V30 4142 H 396.739 1.08794 1.30238 0
M  V30 4143 H 395.511 2.24461 3.2052 0
M  V30 4144 H 395.134 0.684144 3.9167 0
M  V30 4145 N 396.131 -1.37776 0.765217 0
M  V30 4146 C 397.359 -2.04124 0.337767 0
M  V30 4147 C 397.774 -1.57715 -1.03785 0
M  V30 4148 O 397.131 -0.755447 -1.6613 0
M  V30 4149 C 397.182 -3.59658 0.364442 0
M  V30 4150 O 396.903 -4.04367 1.68579 0
M  V30 4151 C 398.404 -4.43236 -0.0754221 0
M  V30 4152 H 395.624 -0.655696 0.142491 0
M  V30 4153 H 398.168 -1.76238 1.03732 0
M  V30 4154 H 396.323 -3.86339 -0.286471 0
M  V30 4155 H 396.737 -4.98857 1.61993 0
M  V30 4156 H 398.211 -5.52 -0.00560067 0
M  V30 4157 H 398.688 -4.2455 -1.12491 0
M  V30 4158 H 399.294 -4.21767 0.547055 0
M  V30 4159 N 397.609 -0.515225 -1.4894 0
M  V30 4160 C 398.837 0.0206034 -2.0689 0
M  V30 4161 C 399.252 1.29514 -1.37374 0
M  V30 4162 O 398.609 1.76698 -0.456529 0
M  V30 4163 C 398.66 0.26351 -3.60538 0
M  V30 4164 O 398.381 -0.960517 -4.27441 0
M  V30 4165 C 399.882 0.841383 -4.35242 0
M  V30 4166 H 397.102 -0.0268608 -0.670462 0
M  V30 4167 H 399.646 -0.716651 -1.91532 0
M  V30 4168 H 397.801 0.950777 -3.75552 0
M  V30 4169 H 398.215 -0.73212 -5.19365 0
M  V30 4170 H 399.689 0.96085 -5.43573 0
M  V30 4171 H 400.166 1.8427 -3.98674 0
M  V30 4172 H 400.772 0.191143 -4.2487 0
M  V30 4173 N 399.087 1.5561 -0.249682 0
M  V30 4174 C 400.034 2.21496 0.648694 0
M  V30 4175 C 401.004 1.17977 1.16921 0
M  V30 4176 O 402.189 1.46434 1.22318 0
M  V30 4177 C 399.329 2.92039 1.83868 0
M  V30 4178 C 398.442 4.10219 1.35442 0
M  V30 4179 C 397.577 4.6847 2.50419 0
M  V30 4180 C 396.616 5.78893 1.98869 0
M  V30 4181 N 395.753 6.31315 3.07223 0
M  V30 4182 H 400.593 2.97892 0.0801582 0
M  V30 4183 H 398.13 1.47074 0.0278031 0
M  V30 4184 H 400.088 3.31138 2.53778 0
M  V30 4185 H 398.718 2.18111 2.37965 0
M  V30 4186 H 397.77 3.76413 0.54928 0
M  V30 4187 H 399.082 4.89927 0.936649 0
M  V30 4188 H 398.236 5.10158 3.28366 0
M  V30 4189 H 396.975 3.87984 2.95499 0
M  V30 4190 H 395.98 5.3668 1.19393 0
M  V30 4191 H 397.205 6.61232 1.54755 0
M  V30 4192 H 395.151 5.53733 3.51732 0
M  V30 4193 H 395.068 7.06224 2.69784 0
M  V30 4194 H 396.336 6.77662 3.8522 0
M  V30 4195 N 400.565 -0.0233959 1.57583 0
M  V30 4196 C 401.812 -0.713063 1.8953 0
M  V30 4197 C 402.14 -1.75056 0.847673 0
M  V30 4198 O 401.395 -1.95119 -0.150636 0
M  V30 4199 C 401.694 -1.41428 3.28227 0
M  V30 4200 C 401.36 -0.512222 4.47981 0
M  V30 4201 C 400.022 -0.263785 4.80476 0
M  V30 4202 C 402.374 0.110248 5.21083 0
M  V30 4203 C 399.702 0.615804 5.83459 0
M  V30 4204 C 402.054 0.977573 6.25001 0
M  V30 4205 C 400.718 1.23542 6.55968 0
M  V30 4206 H 399.988 -0.260928 0.69354 0
M  V30 4207 H 402.635 0.0271047 1.91481 0
M  V30 4208 H 400.94 -2.22791 3.22291 0
M  V30 4209 H 402.637 -1.95355 3.50196 0
M  V30 4210 H 399.227 -0.716013 4.22577 0
M  V30 4211 H 403.411 -0.0687137 4.96252 0
M  V30 4212 H 398.667 0.82382 6.05824 0
M  V30 4213 H 402.841 1.46638 6.80786 0
M  V30 4214 H 400.468 1.91871 7.35588 0
M  V30 4215 N 402.043 -1.548 -0.295768 0
M  V30 4216 C 403.292 -1.73538 -1.02798 0
M  V30 4217 C 403.605 -0.531159 -1.8825 0
M  V30 4218 O 404.811 -0.600458 -2.64777 0
M  V30 4219 C 403.267 -3.07051 -1.87744 0
M  V30 4220 C 402.875 -4.34968 -1.07269 0
M  V30 4221 C 404.619 -3.35146 -2.60533 0
M  V30 4222 C 402.526 -5.5953 -1.91521 0
M  V30 4223 H 401.456 -0.646794 -0.387522 0
M  V30 4224 H 404.107 -1.81278 -0.284718 0
M  V30 4225 H 402.489 -2.93289 -2.66078 0
M  V30 4226 H 403.663 -4.5958 -0.335117 0
M  V30 4227 H 401.978 -4.13847 -0.460384 0
M  V30 4228 H 404.575 -4.2541 -3.23929 0
M  V30 4229 H 404.918 -2.54255 -3.29636 0
M  V30 4230 H 405.451 -3.49902 -1.89244 0
M  V30 4231 H 402.19 -6.43103 -1.26878 0
M  V30 4232 H 401.71 -5.39096 -2.62937 0
M  V30 4233 H 403.389 -5.96982 -2.49442 0
M  V30 4234 N 403.521 0.559213 -1.47345 0
M  V30 4235 C 404.767 1.31843 -1.54095 0
M  V30 4236 C 405.1 1.93149 -0.201726 0
M  V30 4237 O 404.375 1.77759 0.789428 0
M  V30 4238 C 404.658 2.43006 -2.65744 0
M  V30 4239 C 404.511 1.86581 -4.09277 0
M  V30 4240 C 405.83 3.44943 -2.73318 0
M  V30 4241 H 402.949 0.478012 -0.560957 0
M  V30 4242 H 405.591 0.625977 -1.79392 0
M  V30 4243 H 403.741 3.02072 -2.44305 0
M  V30 4244 H 405.413 1.31792 -4.42073 0
M  V30 4245 H 403.656 1.17268 -4.17649 0
M  V30 4246 H 404.327 2.66933 -4.83168 0
M  V30 4247 H 406.803 2.95793 -2.92653 0
M  V30 4248 H 405.679 4.20153 -3.53218 0
M  V30 4249 H 405.94 4.03665 -1.80296 0
M  V30 4250 N 404.999 1.35443 0.805782 0
M  V30 4251 C 406.276 1.19325 1.54987 0
M  V30 4252 C 406.656 -0.227294 2.09873 0
M  V30 4253 O 406.004 -1.2309 1.92512 0
M  V30 4254 C 406.214 2.26196 2.65775 0
M  V30 4255 C 407.562 2.62043 3.34094 0
M  V30 4256 O 408.586 2.25115 2.76046 0
M  V30 4257 O 407.445 3.25542 4.38958 0
M  V30 4258 H 404.539 0.463623 0.684823 0
M  V30 4259 H 407.085 1.47127 0.845674 0
M  V30 4260 H 405.857 3.21471 2.23096 0
M  V30 4261 H 405.48 1.99667 3.43829 0
M  V30 4262 N 406.477 -1.02803 1.19454 0
M  V30 4263 C 407.725 -1.75869 0.995722 0
M  V30 4264 C 408.046 -1.89138 -0.474543 0
M  V30 4265 O 407.316 -1.42558 -1.34366 0
M  V30 4266 H 405.896 -0.651511 0.365435 0
M  V30 4267 H 408.558 -1.24004 1.50363 0
M  V30 4268 H 407.654 -2.76661 1.44447 0
M  V30 4269 N 407.956 -0.998596 -1.21925 0
M  V30 4270 C 409.202 -0.688337 -1.91399 0
M  V30 4271 C 409.557 0.771805 -1.76241 0
M  V30 4272 O 408.85 1.55153 -1.1242 0
M  V30 4273 C 409.044 -1.03648 -3.42041 0
M  V30 4274 C 408.873 -2.52892 -3.71855 0
M  V30 4275 C 407.643 -3.19389 -3.91559 0
M  V30 4276 C 409.841 -3.5103 -3.75875 0
M  V30 4277 N 407.823 -4.5805 -4.08734 0
M  V30 4278 C 409.194 -4.75174 -3.98259 0
M  V30 4279 C 411.249 -3.45257 -3.58751 0
M  V30 4280 C 409.952 -5.94247 -4.05294 0
M  V30 4281 C 411.978 -4.63712 -3.67049 0
M  V30 4282 C 411.34 -5.86658 -3.89887 0
M  V30 4283 H 407.439 -0.303251 -0.720807 0
M  V30 4284 H 410.023 -1.27977 -1.46731 0
M  V30 4285 H 408.194 -0.473569 -3.85502 0
M  V30 4286 H 409.926 -0.681619 -3.98919 0
M  V30 4287 H 406.681 -2.69846 -3.89205 0
M  V30 4288 H 407.105 -5.29989 -4.21237 0
M  V30 4289 H 411.747 -2.51215 -3.40075 0
M  V30 4290 H 409.465 -6.88687 -4.22772 0
M  V30 4291 H 413.051 -4.6084 -3.5513 0
M  V30 4292 H 411.931 -6.76786 -3.96144 0
M  V30 4293 N 409.434 1.37368 -0.772513 0
M  V30 4294 C 410.384 2.27613 -0.132823 0
M  V30 4295 C 411.368 1.46138 0.673247 0
M  V30 4296 O 412.56 1.68686 0.536095 0
M  V30 4297 C 409.689 3.35122 0.744864 0
M  V30 4298 C 408.775 4.24044 -0.0690771 0
M  V30 4299 N 409.166 4.93355 -1.1151 0
M  V30 4300 C 407.464 4.45731 0.154782 0
M  V30 4301 C 408.165 5.59 -1.60917 0
M  V30 4302 N 407.141 5.35737 -0.921222 0
M  V30 4303 H 410.943 2.78675 -0.933681 0
M  V30 4304 H 408.457 1.50494 -0.610342 0
M  V30 4305 H 410.454 3.98683 1.21892 0
M  V30 4306 H 409.114 2.85616 1.54446 0
M  V30 4307 H 410.125 4.95785 -1.49726 0
M  V30 4308 H 406.802 4.07096 0.926224 0
M  V30 4309 H 408.192 6.24395 -2.48153 0
M  V30 4310 N 410.912 0.523116 1.48665 0
M  V30 4311 C 411.822 -0.247406 2.33292 0
M  V30 4312 C 412.838 -0.945769 1.46052 0
M  V30 4313 O 414.014 -0.922253 1.79043 0
M  V30 4314 C 411.079 -1.28487 3.22012 0
M  V30 4315 C 410.14 -0.597592 4.2512 0
M  V30 4316 C 409.373 -1.58563 5.09601 0
M  V30 4317 O 409.596 -2.81763 4.95949 0
M  V30 4318 O 408.53 -1.12879 5.91221 0
M  V30 4319 H 412.356 0.445869 3.00409 0
M  V30 4320 H 409.941 0.284128 1.46673 0
M  V30 4321 H 411.823 -1.88459 3.7691 0
M  V30 4322 H 410.498 -1.96068 2.57564 0
M  V30 4323 H 409.405 0.0424407 3.74076 0
M  V30 4324 H 410.738 0.0361517 4.92187 0
M  V30 4325 N 412.39 -1.55475 0.257931 0
M  V30 4326 C 413.323 -2.179 -0.677862 0
M  V30 4327 C 414.301 -1.13448 -1.16483 0
M  V30 4328 O 415.485 -1.41889 -1.24095 0
M  V30 4329 C 412.612 -2.78851 -1.92249 0
M  V30 4330 C 411.658 -3.96454 -1.57246 0
M  V30 4331 S 412.491 -5.31349 -0.665501 0
M  V30 4332 C 413.647 -5.9576 -1.91889 0
M  V30 4333 H 413.88 -2.96934 -0.147396 0
M  V30 4334 H 411.413 -1.54342 0.0423023 0
M  V30 4335 H 413.371 -3.14602 -2.63697 0
M  V30 4336 H 412.032 -1.99742 -2.42409 0
M  V30 4337 H 411.225 -4.37731 -2.49814 0
M  V30 4338 H 410.827 -3.62038 -0.938325 0
M  V30 4339 H 413.119 -6.13947 -2.86487 0
M  V30 4340 H 414.062 -6.9094 -1.54942 0
M  V30 4341 H 414.47 -5.2494 -2.076 0
M  V30 4342 N 413.868 0.0150385 -1.57593 0
M  V30 4343 C 415.145 0.7392 -1.81094 0
M  V30 4344 C 415.525 1.92817 -0.859344 0
M  V30 4345 O 414.873 2.28301 0.095362 0
M  V30 4346 C 415.083 1.15907 -3.29191 0
M  V30 4347 C 416.431 1.56918 -3.9454 0
M  V30 4348 O 417.455 1.25328 -3.33424 0
M  V30 4349 O 416.314 2.15604 -5.02173 0
M  V30 4350 H 413.408 0.358631 -0.745193 0
M  V30 4351 H 415.954 -0.00926156 -1.69697 0
M  V30 4352 H 414.726 0.310921 -3.90063 0
M  V30 4353 H 414.349 1.96711 -3.45529 0
M  V30 4354 N 415.346 1.54954 0.287554 0
M  V30 4355 C 416.309 1.86076 1.33823 0
M  V30 4356 C 417.309 0.734414 1.43049 0
M  V30 4357 O 418.499 1.00266 1.42452 0
M  V30 4358 C 415.631 2.05305 2.72144 0
M  V30 4359 H 416.824 2.79984 1.07465 0
M  V30 4360 H 414.377 1.47223 0.524902 0
M  V30 4361 H 415.112 1.1373 3.03704 0
M  V30 4362 H 414.897 2.873 2.66836 0
M  V30 4363 H 416.387 2.30706 3.48087 0
M  V30 4364 N 416.824 -0.551391 1.4764 0
M  V30 4365 C 417.734 -1.68525 1.63207 0
M  V30 4366 C 418.75 -1.6621 0.514815 0
M  V30 4367 O 419.926 -1.85551 0.783113 0
M  V30 4368 C 416.991 -3.05025 1.64805 0
M  V30 4369 C 416.052 -3.18362 2.88 0
M  V30 4370 C 415.285 -4.4835 2.89513 0
M  V30 4371 O 415.508 -5.34163 2.00065 0
M  V30 4372 O 414.442 -4.65602 3.81443 0
M  V30 4373 H 418.268 -1.58333 2.59161 0
M  V30 4374 H 415.853 -0.722063 1.30792 0
M  V30 4375 H 417.735 -3.86245 1.68502 0
M  V30 4376 H 416.41 -3.15587 0.720197 0
M  V30 4377 H 415.317 -2.36518 2.89845 0
M  V30 4378 H 416.65 -3.12707 3.80099 0
M  V30 4379 N 418.302 -1.35869 -0.798587 0
M  V30 4380 C 419.25 -1.29491 -1.93222 0
M  V30 4381 C 420.244 -0.18836 -1.6835 0
M  V30 4382 O 421.45 -0.354822 -1.76468 0
M  V30 4383 H 417.825 -0.402901 -0.63496 0
M  V30 4384 H 419.796 -2.25247 -1.9572 0
M  V30 4385 C 418.545 -1.09184 -3.30112 0
M  V30 4386 H 417.868 -1.93574 -3.49813 0
M  V30 4387 H 419.308 -1.08766 -4.09812 0
M  V30 4388 C 417.767 0.203959 -3.36282 0
M  V30 4389 O 418.297 1.19699 -3.83451 0
M  V30 4390 N 416.503 0.245488 -2.89561 0
M  V30 4391 H 416.05 -0.563223 -2.51367 0
M  V30 4392 H 416.008 1.11219 -2.94071 0
M  V30 4393 N 419.78 1.02168 -1.19998 0
M  V30 4394 C 421.191 1.57135 -1.00825 0
M  V30 4395 C 421.542 1.91276 0.436818 0
M  V30 4396 O 420.667 1.71679 1.3174 0
M  V30 4397 C 421.262 2.85514 -1.82393 0
M  V30 4398 C 419.821 3.37027 -1.67601 0
M  V30 4399 C 418.968 2.10388 -1.80644 0
M  V30 4400 H 421.919 0.846106 -1.34264 0
M  V30 4401 H 421.94 3.56711 -1.32429 0
M  V30 4402 H 421.452 2.60634 -2.87561 0
M  V30 4403 H 419.553 3.66878 -0.650485 0
M  V30 4404 H 419.666 4.09572 -2.4857 0
M  V30 4405 H 418.03 2.22601 -1.23778 0
M  V30 4406 H 418.813 1.8794 -2.87286 0
M  V30 4407 N 421.258 1.00505 1.21394 0
M  V30 4408 C 422.188 0.585684 2.26035 0
M  V30 4409 C 423.169 -0.393525 1.65485 0
M  V30 4410 O 424.354 -0.281497 1.92149 0
M  V30 4411 C 421.484 -0.0884283 3.47187 0
M  V30 4412 C 420.438 0.810567 4.20254 0
M  V30 4413 C 419.764 0.00286382 5.347 0
M  V30 4414 C 421.064 2.1132 4.77641 0
M  V30 4415 H 422.758 1.46039 2.61368 0
M  V30 4416 H 420.304 0.703648 1.25638 0
M  V30 4417 H 422.257 -0.393286 4.19561 0
M  V30 4418 H 420.981 -0.997766 3.10986 0
M  V30 4419 H 419.64 1.09925 3.49731 0
M  V30 4420 H 419.288 -0.907765 4.94741 0
M  V30 4421 H 418.988 0.601444 5.84514 0
M  V30 4422 H 420.512 -0.295808 6.09883 0
M  V30 4423 H 421.926 1.87148 5.41893 0
M  V30 4424 H 420.323 2.66164 5.37845 0
M  V30 4425 H 421.393 2.78393 3.9702 0
M  V30 4426 N 422.737 -1.36956 0.779787 0
M  V30 4427 C 423.687 -2.27539 0.144892 0
M  V30 4428 C 424.671 -1.46493 -0.665488 0
M  V30 4429 O 425.863 -1.68968 -0.527141 0
M  V30 4430 C 422.992 -3.35512 -0.727082 0
M  V30 4431 C 422.078 -4.24001 0.0915642 0
M  V30 4432 N 422.469 -4.92757 1.14125 0
M  V30 4433 C 420.767 -4.45807 -0.131141 0
M  V30 4434 C 421.468 -5.58138 1.6388 0
M  V30 4435 N 420.444 -5.35241 0.94962 0
M  V30 4436 H 424.246 -2.78176 0.948446 0
M  V30 4437 H 421.76 -1.50169 0.618315 0
M  V30 4438 H 423.757 -3.99324 -1.19776 0
M  V30 4439 H 422.417 -2.86431 -1.52929 0
M  V30 4440 H 423.428 -4.94984 1.52353 0
M  V30 4441 H 420.105 -4.07582 -0.904621 0
M  V30 4442 H 421.495 -6.23071 2.51461 0
M  V30 4443 N 424.215 -0.530993 -1.48385 0
M  V30 4444 C 425.147 0.268353 -2.27624 0
M  V30 4445 C 426.16 0.903525 -1.35426 0
M  V30 4446 O 427.349 0.781796 -1.60469 0
M  V30 4447 C 424.449 1.39535 -3.08842 0
M  V30 4448 C 423.622 0.861913 -4.28824 0
M  V30 4449 C 422.681 1.87016 -4.91845 0
M  V30 4450 O 421.707 1.4267 -5.5103 0
M  V30 4451 N 422.909 3.20238 -4.84178 0
M  V30 4452 H 425.674 -0.41123 -2.96865 0
M  V30 4453 H 423.235 -0.365387 -1.57723 0
M  V30 4454 H 425.227 2.06803 -3.47871 0
M  V30 4455 H 423.797 1.97859 -2.42014 0
M  V30 4456 H 423.017 0.0132126 -3.94198 0
M  V30 4457 H 424.305 0.484415 -5.06489 0
M  V30 4458 H 423.703 3.58932 -4.37246 0
M  V30 4459 H 422.26 3.83136 -5.27305 0
M  V30 4460 N 425.693 1.55336 -0.266172 0
M  V30 4461 C 427.104 1.85236 0.233315 0
M  V30 4462 C 427.455 1.18816 1.56132 0
M  V30 4463 O 426.58 0.473307 2.11161 0
M  V30 4464 C 427.175 3.36059 0.430113 0
M  V30 4465 C 425.734 3.66116 0.873842 0
M  V30 4466 C 424.881 2.77274 -0.0380016 0
M  V30 4467 H 427.832 1.51004 -0.488214 0
M  V30 4468 H 427.853 3.58681 1.26998 0
M  V30 4469 H 427.365 3.84373 -0.536588 0
M  V30 4470 H 425.466 3.23295 1.85233 0
M  V30 4471 H 425.579 4.73699 0.717358 0
M  V30 4472 H 423.943 2.50198 0.476759 0
M  V30 4473 H 424.726 3.284 -1.00042 0
M  V30 4474 N 427.171 -0.0066808 1.57599 0
M  V30 4475 C 428.396 -0.707738 1.94951 0
M  V30 4476 C 428.821 -1.66882 0.867868 0
M  V30 4477 O 428.179 -1.80457 -0.17458 0
M  V30 4478 C 428.227 -1.42162 3.31394 0
M  V30 4479 O 427.331 -2.53578 3.25226 0
M  V30 4480 H 426.672 -0.188752 0.636607 0
M  V30 4481 H 429.202 0.0445193 2.04552 0
M  V30 4482 H 429.212 -1.78655 3.66806 0
M  V30 4483 H 427.887 -0.716903 4.09675 0
M  V30 4484 H 426.464 -2.19463 3.01481 0
M  V30 4485 N 428.649 -1.55105 -0.279332 0
M  V30 4486 C 430.06 -1.66186 -0.850832 0
M  V30 4487 C 430.411 -0.584707 -1.87285 0
M  V30 4488 O 429.536 0.274919 -2.14647 0
M  V30 4489 C 430.131 -3.01264 -1.55001 0
M  V30 4490 C 428.69 -3.14394 -2.06963 0
M  V30 4491 C 427.837 -2.61959 -0.909536 0
M  V30 4492 H 430.788 -1.58602 -0.0558235 0
M  V30 4493 H 430.809 -2.93899 -2.41669 0
M  V30 4494 H 430.321 -3.7964 -0.805931 0
M  V30 4495 H 428.422 -2.4078 -2.84352 0
M  V30 4496 H 428.535 -4.20867 -2.28928 0
M  V30 4497 H 426.899 -2.18957 -1.30116 0
M  V30 4498 H 427.682 -3.42833 -0.179062 0
M  V30 4499 N 430.127 0.543554 -1.4793 0
M  V30 4500 C 431.352 1.32995 -1.59145 0
M  V30 4501 C 431.777 1.86472 -0.246956 0
M  V30 4502 O 431.135 1.63696 0.779324 0
M  V30 4503 C 431.183 2.46623 -2.63077 0
M  V30 4504 O 430.287 3.49261 -2.19295 0
M  V30 4505 H 429.628 0.394472 -0.534124 0
M  V30 4506 H 432.158 0.655489 -1.93816 0
M  V30 4507 H 432.168 2.93001 -2.83926 0
M  V30 4508 H 430.843 2.07059 -3.60693 0
M  V30 4509 H 429.42 3.09094 -2.08603 0
M  V30 4510 N 431.605 1.3629 0.791371 0
M  V30 4511 C 432.535 1.33137 1.91825 0
M  V30 4512 C 433.516 0.203168 1.68882 0
M  V30 4513 O 434.701 0.400509 1.90025 0
M  V30 4514 C 431.831 1.11793 3.28816 0
M  V30 4515 C 430.785 2.21417 3.66277 0
M  V30 4516 C 430.111 1.85218 5.01596 0
M  V30 4517 C 431.411 3.63489 3.75064 0
M  V30 4518 H 433.105 2.2743 1.9472 0
M  V30 4519 H 430.651 1.09479 0.935437 0
M  V30 4520 H 432.604 1.08222 4.07266 0
M  V30 4521 H 431.328 0.139501 3.26302 0
M  V30 4522 H 429.987 2.2411 2.90121 0
M  V30 4523 H 429.635 0.859544 4.95602 0
M  V30 4524 H 429.335 2.58611 5.27631 0
M  V30 4525 H 430.859 1.832 5.82469 0
M  V30 4526 H 432.273 3.63034 4.43711 0
M  V30 4527 H 430.67 4.35771 4.12582 0
M  V30 4528 H 431.74 3.98536 2.76219 0
M  V30 4529 N 433.083 -1.0153 1.20538 0
M  V30 4530 C 434.031 -2.12215 0.952235 0
M  V30 4531 C 435.025 -1.69123 -0.0968735 0
M  V30 4532 O 436.231 -1.7992 0.0536006 0
M  V30 4533 H 432.606 -0.693576 0.290613 0
M  V30 4534 H 434.577 -2.3075 1.89201 0
M  V30 4535 C 433.326 -3.43755 0.522287 0
M  V30 4536 H 432.649 -3.7734 1.32115 0
M  V30 4537 H 434.089 -4.22254 0.384389 0
M  V30 4538 C 432.548 -3.28088 -0.765489 0
M  V30 4539 O 433.078 -3.57921 -1.8236 0
M  V30 4540 N 431.284 -2.81333 -0.728011 0
M  V30 4541 H 430.831 -2.57255 0.133332 0
M  V30 4542 H 430.789 -2.71232 -1.58999 0
M  V30 4543 N 434.561 -1.01147 -1.20859 0
M  V30 4544 C 435.508 -0.577354 -2.23462 0
M  V30 4545 C 436.478 0.399922 -1.61214 0
M  V30 4546 O 437.663 0.300515 -1.88419 0
M  V30 4547 C 434.803 0.083372 -3.44999 0
M  V30 4548 C 433.916 -0.937856 -4.21697 0
M  V30 4549 C 433.051 -0.248717 -5.30617 0
M  V30 4550 C 432.09 -1.25705 -5.99053 0
M  V30 4551 N 431.227 -0.594939 -6.99575 0
M  V30 4552 H 436.067 -1.45695 -2.59956 0
M  V30 4553 H 433.604 -0.729428 -1.27741 0
M  V30 4554 H 435.562 0.483535 -4.14388 0
M  V30 4555 H 434.192 0.926645 -3.09214 0
M  V30 4556 H 433.244 -1.45622 -3.51423 0
M  V30 4557 H 434.556 -1.70493 -4.68757 0
M  V30 4558 H 433.71 0.207215 -6.06346 0
M  V30 4559 H 432.449 0.55071 -4.84581 0
M  V30 4560 H 431.454 -1.72343 -5.2209 0
M  V30 4561 H 432.679 -2.05767 -6.47176 0
M  V30 4562 H 430.625 0.184713 -6.5574 0
M  V30 4563 H 430.542 -1.30017 -7.44736 0
M  V30 4564 H 431.81 -0.162427 -7.79331 0
M  V30 4565 N 436.039 1.36541 -0.78704 0
M  V30 4566 C 436.969 2.32659 -0.197992 0
M  V30 4567 C 437.95 1.56533 0.665697 0
M  V30 4568 O 439.135 1.84698 0.60001 0
M  V30 4569 C 436.265 3.40778 0.669901 0
M  V30 4570 C 435.219 4.27897 -0.0937039 0
M  V30 4571 C 434.545 5.27163 0.894629 0
M  V30 4572 C 435.845 5.06334 -1.28154 0
M  V30 4573 H 437.539 2.82171 -1.00099 0
M  V30 4574 H 435.085 1.35665 -0.482793 0
M  V30 4575 H 437.038 4.07008 1.09191 0
M  V30 4576 H 435.762 2.89827 1.50558 0
M  V30 4577 H 434.421 3.6322 -0.49666 0
M  V30 4578 H 434.069 4.72486 1.72527 0
M  V30 4579 H 433.769 5.86317 0.388149 0
M  V30 4580 H 435.293 5.96266 1.31525 0
M  V30 4581 H 436.707 5.65617 -0.93541 0
M  V30 4582 H 435.104 5.74888 -1.72115 0
M  V30 4583 H 436.174 4.38114 -2.07807 0
M  V30 4584 N 437.518 0.538854 1.48102 0
M  V30 4585 C 438.764 0.00801365 2.02798 0
M  V30 4586 C 439.097 -1.3309 1.41424 0
M  V30 4587 O 438.372 -1.86169 0.563158 0
M  V30 4588 C 438.655 -0.104589 3.59948 0
M  V30 4589 C 438.508 1.26012 4.31788 0
M  V30 4590 C 439.827 -0.827055 4.32259 0
M  V30 4591 H 436.946 0.00438624 0.736987 0
M  V30 4592 H 439.588 0.6976 1.7673 0
M  V30 4593 H 437.738 -0.691893 3.82289 0
M  V30 4594 H 439.41 1.88922 4.2084 0
M  V30 4595 H 437.653 1.83968 3.92859 0
M  V30 4596 H 438.324 1.13424 5.40221 0
M  V30 4597 H 440.8 -0.328578 4.14801 0
M  V30 4598 H 439.676 -0.87476 5.41885 0
M  V30 4599 H 439.937 -1.87927 4.0017 0
M  V30 4600 N 438.996 -1.55193 0.274407 0
M  V30 4601 C 439.959 -2.212 -0.600279 0
M  V30 4602 C 440.959 -1.18963 -1.08187 0
M  V30 4603 O 442.149 -1.43873 -0.982158 0
M  V30 4604 C 439.281 -2.87739 -1.82809 0
M  V30 4605 H 440.474 -2.9989 -0.0239682 0
M  V30 4606 H 438.027 -1.5628 0.0250192 0
M  V30 4607 H 438.762 -2.13058 -2.44493 0
M  V30 4608 H 438.547 -3.62658 -1.49069 0
M  V30 4609 H 440.037 -3.38171 -2.45011 0
M  V30 4610 N 440.474 -0.00167713 -1.576 0
M  V30 4611 C 441.384 1.00548 -2.1196 0
M  V30 4612 C 442.4 1.3758 -1.06526 0
M  V30 4613 O 443.576 1.46278 -1.38436 0
M  V30 4614 C 440.641 2.27809 -2.6135 0
M  V30 4615 C 439.702 1.97074 -3.81393 0
M  V30 4616 C 438.935 3.18267 -4.28417 0
M  V30 4617 O 439.158 4.30009 -3.74765 0
M  V30 4618 O 438.092 3.02167 -5.20556 0
M  V30 4619 H 441.918 0.573373 -2.98238 0
M  V30 4620 H 439.503 0.217255 -1.47812 0
M  V30 4621 H 441.385 3.02568 -2.93309 0
M  V30 4622 H 440.06 2.70254 -1.78169 0
M  V30 4623 H 438.967 1.19785 -3.54404 0
M  V30 4624 H 440.3 1.59464 -4.65652 0
M  V30 4625 N 441.952 1.55251 0.271103 0
M  V30 4626 C 442.9 1.89054 1.35504 0
M  V30 4627 C 443.894 0.767064 1.51038 0
M  V30 4628 O 445.1 0.951429 1.528 0
M  V30 4629 H 441.475 0.600072 0.45323 0
M  V30 4630 H 443.446 2.79598 1.04247 0
M  V30 4631 C 442.195 2.18068 2.70817 0
M  V30 4632 H 441.518 3.04005 2.59656 0
M  V30 4633 H 442.958 2.4564 3.45597 0
M  V30 4634 C 441.417 0.988901 3.2206 0
M  V30 4635 O 441.947 0.224501 4.01072 0
M  V30 4636 N 440.153 0.786085 2.79766 0
M  V30 4637 H 439.7 1.40937 2.15626 0
M  V30 4638 H 439.658 -0.00969349 3.14399 0
M  V30 4639 N 443.43 -0.535701 1.48216 0
M  V30 4640 C 444.377 -1.64083 1.62312 0
M  V30 4641 C 445.347 -1.59448 0.465365 0
M  V30 4642 O 446.532 -1.77959 0.688135 0
M  V30 4643 C 443.672 -3.0236 1.66349 0
M  V30 4644 C 442.785 -3.17273 2.93193 0
M  V30 4645 C 441.92 -4.46075 2.88427 0
M  V30 4646 C 440.959 -4.54496 4.1 0
M  V30 4647 N 440.096 -5.7468 4.03345 0
M  V30 4648 H 444.936 -1.51374 2.5669 0
M  V30 4649 H 442.473 -0.737059 1.27302 0
M  V30 4650 H 444.431 -3.82461 1.66672 0
M  V30 4651 H 443.061 -3.13854 0.754672 0
M  V30 4652 H 442.113 -2.30462 3.02641 0
M  V30 4653 H 443.425 -3.19357 3.83162 0
M  V30 4654 H 442.579 -5.3446 2.87119 0
M  V30 4655 H 441.318 -4.46504 1.96177 0
M  V30 4656 H 440.323 -3.64519 4.11589 0
M  V30 4657 H 441.548 -4.5581 5.03402 0
M  V30 4658 H 439.494 -5.76017 3.13912 0
M  V30 4659 H 439.411 -5.78234 4.87013 0
M  V30 4660 H 440.679 -6.65367 4.06087 0
M  V30 4661 N 444.908 -1.36708 -0.784132 0
M  V30 4662 C 446.155 -1.31231 -1.54222 0
M  V30 4663 C 446.483 0.106864 -1.94206 0
M  V30 4664 O 445.738 1.07734 -1.63376 0
M  V30 4665 C 446.037 -2.18571 -2.82774 0
M  V30 4666 C 445.703 -3.67039 -2.61903 0
M  V30 4667 C 444.365 -4.07503 -2.55919 0
M  V30 4668 C 446.717 -4.61149 -2.4288 0
M  V30 4669 C 444.045 -5.40211 -2.28886 0
M  V30 4670 C 446.397 -5.94081 -2.17373 0
M  V30 4671 C 445.061 -6.33664 -2.09825 0
M  V30 4672 H 444.331 -0.48021 -0.56434 0
M  V30 4673 H 446.978 -1.68807 -0.904233 0
M  V30 4674 H 445.283 -1.73949 -3.51068 0
M  V30 4675 H 446.98 -2.11655 -3.40592 0
M  V30 4676 H 443.57 -3.34941 -2.67418 0
M  V30 4677 H 447.754 -4.30756 -2.46501 0
M  V30 4678 H 443.01 -5.69855 -2.21529 0
M  V30 4679 H 447.184 -6.66566 -2.01649 0
M  V30 4680 H 444.811 -7.36423 -1.88641 0
M  V30 4681 N 446.386 1.0089 -1.21074 0
M  V30 4682 C 447.634 1.74262 -1.02358 0
M  V30 4683 C 447.955 1.89869 0.444393 0
M  V30 4684 O 447.225 1.44677 1.32081 0
M  V30 4685 H 445.805 0.645615 -0.375754 0
M  V30 4686 H 448.467 1.21596 -1.52317 0
M  V30 4687 H 447.563 2.74328 -1.4883 0
M  V30 4688 N 447.864 1.01787 1.20321 0
M  V30 4689 C 448.811 0.589197 2.23153 0
M  V30 4690 C 449.781 -0.391367 1.61423 0
M  V30 4691 O 450.966 -0.290518 1.88575 0
M  V30 4692 C 448.106 -0.0650747 3.45039 0
M  V30 4693 C 447.219 0.960207 4.21194 0
M  V30 4694 C 446.354 0.276854 5.30478 0
M  V30 4695 C 445.393 1.2888 5.98378 0
M  V30 4696 N 444.53 0.632031 6.99249 0
M  V30 4697 H 449.37 1.47071 2.59179 0
M  V30 4698 H 446.907 0.736192 1.27352 0
M  V30 4699 H 448.865 -0.461552 4.14639 0
M  V30 4700 H 447.495 -0.910233 3.09701 0
M  V30 4701 H 446.547 1.47484 3.50646 0
M  V30 4702 H 447.859 1.72977 4.67847 0
M  V30 4703 H 447.013 -0.175056 6.06447 0
M  V30 4704 H 445.752 -0.525004 4.84866 0
M  V30 4705 H 444.757 1.75109 5.21169 0
M  V30 4706 H 445.982 2.09196 6.46076 0
M  V30 4707 H 443.928 -0.149935 6.55829 0
M  V30 4708 H 443.845 1.33964 7.44036 0
M  V30 4709 H 445.113 0.203755 7.79234 0
M  V30 4710 N 449.342 -1.36122 0.79427 0
M  V30 4711 C 450.289 -2.29982 0.194101 0
M  V30 4712 C 451.259 -1.52214 -0.664833 0
M  V30 4713 O 452.444 -1.80702 -0.612498 0
M  V30 4714 C 449.584 -3.38706 -0.661244 0
M  V30 4715 C 448.697 -4.31456 0.216766 0
M  V30 4716 C 447.832 -5.27265 -0.645411 0
M  V30 4717 C 446.871 -6.11653 0.233756 0
M  V30 4718 N 446.008 -6.99636 -0.587682 0
M  V30 4719 H 450.848 -2.80722 0.999965 0
M  V30 4720 H 448.385 -1.38172 0.504677 0
M  V30 4721 H 450.343 -4.00394 -1.17219 0
M  V30 4722 H 448.973 -2.89274 -1.43249 0
M  V30 4723 H 448.025 -3.7088 0.845724 0
M  V30 4724 H 449.337 -4.90724 0.893973 0
M  V30 4725 H 448.491 -5.94266 -1.22198 0
M  V30 4726 H 447.23 -4.68463 -1.35623 0
M  V30 4727 H 446.235 -5.4361 0.82269 0
M  V30 4728 H 447.46 -6.72531 0.942247 0
M  V30 4729 H 445.406 -6.43337 -1.2827 0
M  V30 4730 H 445.323 -7.55993 0.0317402 0
M  V30 4731 H 446.591 -7.71001 -1.14792 0
M  V30 4732 N 450.82 -0.546701 -1.47814 0
M  V30 4733 C 452.048 -0.0232857 -2.06887 0
M  V30 4734 C 452.463 1.26571 -1.4009 0
M  V30 4735 O 451.82 1.7569 -0.493906 0
M  V30 4736 C 451.871 0.186975 -3.61016 0
M  V30 4737 O 451.592 -1.05097 -4.25307 0
M  V30 4738 C 453.093 0.748872 -4.36929 0
M  V30 4739 H 450.313 -0.0410763 -0.669742 0
M  V30 4740 H 452.857 -0.757117 -1.89968 0
M  V30 4741 H 451.012 0.870903 -3.77484 0
M  V30 4742 H 451.426 -0.842121 -5.17695 0
M  V30 4743 H 452.9 0.845334 -5.45489 0
M  V30 4744 H 453.377 1.75772 -4.02493 0
M  V30 4745 H 453.983 0.100979 -4.2518 0
M  V30 4746 N 452.299 1.55045 -0.282633 0
M  V30 4747 C 453.547 1.99365 0.331334 0
M  V30 4748 C 453.868 1.1725 1.55812 0
M  V30 4749 O 453.138 0.263871 1.94115 0
M  V30 4750 H 451.718 0.736397 0.125414 0
M  V30 4751 H 454.38 1.90964 -0.389711 0
M  V30 4752 H 453.476 3.0596 0.616036 0
M  V30 4753 N 453.777 0.010035 1.57597 0
M  V30 4754 C 454.687 -0.994226 2.12491 0
M  V30 4755 C 455.703 -1.37013 1.07254 0
M  V30 4756 O 456.879 -1.45542 1.3921 0
M  V30 4757 C 453.944 -2.2642 2.62555 0
M  V30 4758 C 453.005 -1.95049 3.82432 0
M  V30 4759 C 452.238 -3.15991 4.30099 0
M  V30 4760 O 452.461 -4.28015 3.7704 0
M  V30 4761 O 451.395 -2.99403 5.22151 0
M  V30 4762 H 455.221 -0.557549 2.98538 0
M  V30 4763 H 452.806 -0.209413 1.47925 0
M  V30 4764 H 454.688 -3.01009 2.9491 0
M  V30 4765 H 453.363 -2.69306 1.796 0
M  V30 4766 H 452.27 -1.17904 3.55034 0
M  V30 4767 H 453.603 -1.56992 4.66491 0
M  V30 4768 N 455.255 -1.55392 -0.262866 0
M  V30 4769 C 456.503 -1.76127 -0.991147 0
M  V30 4770 C 456.824 -0.571083 -1.8645 0
M  V30 4771 O 456.094 0.413698 -1.91482 0
M  V30 4772 H 454.674 -0.649528 -0.368948 0
M  V30 4773 H 457.336 -1.9281 -0.284655 0
M  V30 4774 H 456.432 -2.6663 -1.62219 0
M  V30 4775 N 456.733 0.527833 -1.48498 0
M  V30 4776 C 457.98 1.28354 -1.56625 0
M  V30 4777 C 458.308 1.93 -0.241096 0
M  V30 4778 O 457.563 1.79967 0.768798 0
M  V30 4779 C 457.862 2.39275 -2.65485 0
M  V30 4780 C 457.528 1.92268 -4.07853 0
M  V30 4781 C 456.19 1.79166 -4.46602 0
M  V30 4782 C 458.542 1.56771 -4.97064 0
M  V30 4783 C 455.87 1.28905 -5.72364 0
M  V30 4784 C 458.222 1.07972 -6.23318 0
M  V30 4785 C 456.886 0.934887 -6.60921 0
M  V30 4786 H 456.156 0.469682 -0.573131 0
M  V30 4787 H 458.803 0.588781 -1.82224 0
M  V30 4788 H 457.108 3.1443 -2.33754 0
M  V30 4789 H 458.805 2.974 -2.68988 0
M  V30 4790 H 455.395 2.03417 -3.77252 0
M  V30 4791 H 459.579 1.65753 -4.67803 0
M  V30 4792 H 454.835 1.16381 -6.00221 0
M  V30 4793 H 459.009 0.795775 -6.91838 0
M  V30 4794 H 456.636 0.543231 -7.58257 0
M  V30 4795 N 458.211 1.37122 0.776871 0
M  V30 4796 C 459.441 1.35034 1.56363 0
M  V30 4797 C 459.849 -0.0674681 1.8908 0
M  V30 4798 O 459.192 -1.03826 1.51545 0
M  V30 4799 C 459.254 2.11894 2.90415 0
M  V30 4800 C 458.918 3.60897 2.80362 0
M  V30 4801 C 459.915 4.54887 2.51742 0
M  V30 4802 C 457.6 4.03951 2.98545 0
M  V30 4803 C 459.594 5.89909 2.41426 0
M  V30 4804 C 457.281 5.3906 2.87849 0
M  V30 4805 C 458.279 6.31852 2.5933 0
M  V30 4806 O 457.967 7.64479 2.48651 0
M  V30 4807 H 457.699 0.464402 0.49123 0
M  V30 4808 H 460.253 1.80992 0.971127 0
M  V30 4809 H 458.483 1.60618 3.51765 0
M  V30 4810 H 460.172 2.02505 3.51776 0
M  V30 4811 H 460.938 4.22934 2.37385 0
M  V30 4812 H 456.817 3.3209 3.19746 0
M  V30 4813 H 460.361 6.62304 2.19086 0
M  V30 4814 H 456.258 5.70617 3.01773 0
M  V30 4815 H 457.026 7.74742 2.64039 0
M  V30 4816 N 459.689 -1.00246 1.21608 0
M  V30 4817 C 460.636 -2.09073 0.977613 0
M  V30 4818 C 461.606 -1.65815 -0.097297 0
M  V30 4819 O 462.791 -1.90734 0.0503445 0
M  V30 4820 C 459.931 -3.40671 0.551133 0
M  V30 4821 C 459.044 -3.97326 1.69576 0
M  V30 4822 C 458.179 -5.17043 1.2182 0
M  V30 4823 C 457.218 -5.65813 2.335 0
M  V30 4824 N 456.355 -6.76778 1.86859 0
M  V30 4825 H 461.195 -2.28806 1.90924 0
M  V30 4826 H 458.732 -1.12186 0.951452 0
M  V30 4827 H 460.69 -4.16225 0.285097 0
M  V30 4828 H 459.32 -3.20967 -0.343489 0
M  V30 4829 H 458.372 -3.18734 2.07637 0
M  V30 4830 H 459.684 -4.29511 2.53617 0
M  V30 4831 H 458.838 -5.99852 0.908975 0
M  V30 4832 H 457.577 -4.86458 0.347869 0
M  V30 4833 H 456.582 -4.81599 2.65222 0
M  V30 4834 H 457.807 -5.98427 3.21033 0
M  V30 4835 H 455.753 -6.47994 1.02174 0
M  V30 4836 H 455.67 -7.08231 2.64471 0
M  V30 4837 H 456.938 -7.63116 1.58978 0
M  V30 4838 N 461.167 -1.02423 -1.1978 0
M  V30 4839 C 462.397 -0.736387 -1.93031 0
M  V30 4840 C 462.805 0.708023 -1.75453 0
M  V30 4841 O 462.148 1.4927 -1.07071 0
M  V30 4842 C 462.21 -1.00194 -3.45255 0
M  V30 4843 C 461.874 -2.43698 -3.86601 0
M  V30 4844 C 462.871 -3.41814 -3.91738 0
M  V30 4845 C 460.556 -2.77975 -4.18372 0
M  V30 4846 C 462.55 -4.72265 -4.28071 0
M  V30 4847 C 460.237 -4.08636 -4.54378 0
M  V30 4848 C 461.235 -5.05592 -4.59201 0
M  V30 4849 O 460.923 -6.33914 -4.94376 0
M  V30 4850 H 460.655 -0.269116 -0.620123 0
M  V30 4851 H 463.209 -1.37043 -1.52998 0
M  V30 4852 H 461.439 -0.310747 -3.85449 0
M  V30 4853 H 463.128 -0.704488 -3.9974 0
M  V30 4854 H 463.894 -3.16671 -3.67348 0
M  V30 4855 H 459.773 -2.0319 -4.13805 0
M  V30 4856 H 463.317 -5.4794 -4.3175 0
M  V30 4857 H 459.214 -4.33556 -4.78226 0
M  V30 4858 H 459.982 -6.38317 -5.12341 0
M  V30 4859 N 462.645 1.35699 -0.801477 0
M  V30 4860 C 463.592 2.29876 -0.206294 0
M  V30 4861 C 464.562 1.52565 0.656752 0
M  V30 4862 O 465.747 1.81024 0.602906 0
M  V30 4863 C 462.887 3.39052 0.643272 0
M  V30 4864 C 462 4.31335 -0.239644 0
M  V30 4865 C 461.135 5.27599 0.61744 0
M  V30 4866 C 460.174 6.11521 -0.26619 0
M  V30 4867 N 459.311 6.99938 0.550571 0
M  V30 4868 H 464.151 2.80187 -1.01484 0
M  V30 4869 H 461.688 1.37902 -0.511997 0
M  V30 4870 H 463.646 4.0101 1.15094 0
M  V30 4871 H 462.276 2.9003 1.41713 0
M  V30 4872 H 461.328 3.70426 -0.865381 0
M  V30 4873 H 462.64 4.90243 -0.919985 0
M  V30 4874 H 461.794 5.94906 1.19045 0
M  V30 4875 H 460.533 4.69176 1.33137 0
M  V30 4876 H 459.538 5.43166 -0.851507 0
M  V30 4877 H 460.763 6.72022 -0.9779 0
M  V30 4878 H 458.709 6.44008 1.24856 0
M  V30 4879 H 458.626 7.55966 -0.071832 0
M  V30 4880 H 459.894 7.71599 1.10702 0
M  V30 4881 O 464.162 0.695624 1.45751 0
M  V30 4882 H 464.853 0.234379 1.92277 0
M  V30 END ATOM
M  V30 BEGIN BOND
M  V30 END BOND
M  V30 END CTAB
M  END
$$$$
