drugbank_target|P08183 Multidrug resistance protein 1 (DB00171; DB00603; DB00778; DB00813; DB04877; DB04881; DB04905; DB05449; DB06191; DB06240; DB09031; DB11635; DB14061; DB14062; DB14063; DB14064; DB14065; DB14066; DB14067; DB14068; DB14069; DB14070; DB14071; DB14072)
 OpenBabel12092119463D

  0  0  0     0  0            999 V3000
M  V30 BEGIN CTAB
M  V30 COUNTS 20144 20318 0 0 0
M  V30 BEGIN ATOM
M  V30 1 H -0.908 1.98254 -0.117106 0
M  V30 2 N 0 1.576 0 0
M  V30 3 C 0.933 2.03868 1.02534 0
M  V30 4 C 1.911 0.928543 1.3348 0
M  V30 5 O 3.095 1.19667 1.45644 0
M  V30 6 C 0.222 2.43627 2.35294 0
M  V30 7 C -0.732 3.65373 2.2001 0
M  V30 8 S 0.101 5.13292 1.52614 0
M  V30 9 C 1.257 5.56322 2.86805 0
M  V30 10 H 1.49 2.90518 0.631377 0
M  V30 11 H -0.977 1.52953 0.210867 0
M  V30 12 H 0.981 2.67203 3.11629 0
M  V30 13 H -0.358 1.57376 2.7183 0
M  V30 14 H -1.165 3.90944 3.18086 0
M  V30 15 H -1.563 3.418 1.51819 0
M  V30 16 H 0.729 5.58782 3.83104 0
M  V30 17 H 1.672 6.56266 2.65933 0
M  V30 18 H 2.08 4.83886 2.90714 0
M  V30 19 N 1.4781 -0.272755 1.55222 0
M  V30 20 C 2.7551 -1.02562 1.66555 0
M  V30 21 C 3.1351 -2.04282 0.532189 0
M  V30 22 O 2.4831 -2.23662 -0.467717 0
M  V30 23 C 2.6931 -1.6822 3.05782 0
M  V30 24 C 4.0411 -2.19373 3.63539 0
M  V30 25 O 5.0651 -1.78206 3.08417 0
M  V30 26 O 3.9241 -2.94883 4.60115 0
M  V30 27 H 1.0181 -0.475755 0.676451 0
M  V30 28 H 3.5641 -0.268593 1.67561 0
M  V30 29 H 2.3361 -0.945112 3.79715 0
M  V30 30 H 1.9591 -2.50609 3.08676 0
M  V30 31 N 2.9562 -1.48159 -0.537278 0
M  V30 32 C 3.8862 -1.65029 -1.6519 0
M  V30 33 C 4.8672 -0.499281 -1.62607 0
M  V30 34 O 6.0522 -0.730972 -1.79918 0
M  V30 35 C 3.1822 -1.68303 -3.03795 0
M  V30 36 C 2.1362 -2.8283 -3.21234 0
M  V30 37 C 1.4622 -2.71189 -4.60826 0
M  V30 38 C 2.7622 -4.24211 -3.04701 0
M  V30 39 H 4.4562 -2.58341 -1.51328 0
M  V30 40 H 2.0022 -1.24325 -0.726585 0
M  V30 41 H 3.9552 -1.78693 -3.81637 0
M  V30 42 H 2.6792 -0.715635 -3.18663 0
M  V30 43 H 1.3382 -2.71983 -2.45807 0
M  V30 44 H 0.9862 -1.72435 -4.7252 0
M  V30 45 H 0.6862 -3.48035 -4.7344 0
M  V30 46 H 2.2102 -2.83537 -5.40777 0
M  V30 47 H 3.6242 -4.3593 -3.72341 0
M  V30 48 H 2.0212 -5.01998 -3.28813 0
M  V30 49 H 3.0912 -4.41184 -2.01209 0
M  V30 50 N 4.4343 0.785586 -1.36625 0
M  V30 51 C 5.3443 1.92964 -1.33425 0
M  V30 52 C 6.3603 1.72394 -0.235851 0
M  V30 53 O 7.5363 1.95866 -0.468878 0
M  V30 54 C 4.6013 3.27884 -1.12662 0
M  V30 55 C 3.6623 3.61204 -2.32013 0
M  V30 56 C 2.8953 4.89687 -2.12231 0
M  V30 57 O 3.1183 5.59704 -1.09945 0
M  V30 58 O 2.0523 5.21752 -3.00098 0
M  V30 59 H 5.8783 1.98613 -2.29753 0
M  V30 60 H 3.4633 0.926384 -1.17211 0
M  V30 61 H 5.3453 4.08614 -1.03016 0
M  V30 62 H 4.0203 3.23118 -0.193991 0
M  V30 63 H 2.9273 2.80765 -2.47228 0
M  V30 64 H 4.2603 3.70698 -3.23796 0
M  V30 65 N 5.9124 1.20967 1.01018 0
M  V30 66 C 7.1604 1.02172 1.74371 0
M  V30 67 C 7.4814 -0.446414 1.89821 0
M  V30 68 O 6.7514 -1.32234 1.44537 0
M  V30 69 H 5.3314 0.375066 0.646014 0
M  V30 70 H 7.9934 1.52187 1.21758 0
M  V30 71 H 7.0894 1.48538 2.74487 0
M  V30 72 N 7.3905 -1.2043 1.01659 0
M  V30 73 C 8.6675 -1.8548 0.621004 0
M  V30 74 C 9.0475 -1.9091 -0.900919 0
M  V30 75 O 8.3955 -1.41694 -1.79263 0
M  V30 76 C 8.6055 -3.25119 1.2688 0
M  V30 77 C 9.9535 -4.01403 1.38423 0
M  V30 78 O 10.9775 -3.34473 1.22501 0
M  V30 79 O 9.8365 -5.21265 1.64151 0
M  V30 80 H 6.9305 -0.798761 0.214266 0
M  V30 81 H 9.4765 -1.28019 1.11396 0
M  V30 82 H 8.2485 -3.15932 2.30873 0
M  V30 83 H 7.8715 -3.90212 0.762917 0
M  V30 84 N 8.8686 -0.792821 -1.36206 0
M  V30 85 C 10.2846 -0.474903 -1.52371 0
M  V30 86 C 10.4846 1.00622 -1.74578 0
M  V30 87 O 9.5406 1.79162 -1.77924 0
M  V30 88 C 10.8536 -1.3083 -2.70747 0
M  V30 89 C 12.4016 -1.30234 -2.84619 0
M  V30 90 C 12.8766 -2.11956 -4.06004 0
M  V30 91 N 14.3676 -2.09419 -4.13156 0
M  V30 92 C 15.1026 -2.69419 -5.06163 0
M  V30 93 N 14.5986 -3.3829 -6.04592 0
M  V30 94 N 16.3916 -2.59134 -4.98804 0
M  V30 95 H 8.5426 -1.75222 -1.20046 0
M  V30 96 H 10.8056 -0.745024 -0.586211 0
M  V30 97 H 10.5116 -2.35881 -2.6087 0
M  V30 98 H 10.3856 -0.95196 -3.6499 0
M  V30 99 H 12.7726 -0.259748 -2.93955 0
M  V30 100 H 12.8536 -1.69847 -1.91274 0
M  V30 101 H 12.4976 -3.16248 -3.97429 0
M  V30 102 H 12.4276 -1.69711 -4.98503 0
M  V30 103 H 14.9186 -1.59297 -3.42685 0
M  V30 104 H 15.2316 -3.81394 -6.7213 0
M  V30 105 H 13.5766 -3.42393 -6.04807 0
M  V30 106 H 16.7676 -2.04927 -4.20859 0
M  V30 107 H 16.9406 -3.06185 -5.711 0
M  V30 108 N 10.3467 1.47872 -0.545128 0
M  V30 109 C 11.2947 2.31533 0.222512 0
M  V30 110 C 12.2887 1.42177 0.920985 0
M  V30 111 O 13.4947 1.59005 0.843645 0
M  V30 112 H 9.8697 0.746519 0.0906278 0
M  V30 113 H 11.8407 2.94139 -0.50246 0
M  V30 114 C 10.5897 3.2457 1.24699 0
M  V30 115 H 9.9127 3.93283 0.718944 0
M  V30 116 H 11.3527 3.85963 1.75523 0
M  V30 117 C 9.8117 2.47237 2.28856 0
M  V30 118 O 10.3417 2.20808 3.35569 0
M  V30 119 N 8.5477 2.08461 2.02466 0
M  V30 120 H 8.0947 2.30155 1.157 0
M  V30 121 H 8.0527 1.57033 2.72375 0
M  V30 122 N 11.8248 0.280983 1.55075 0
M  V30 123 C 13.0728 -0.333455 1.9933 0
M  V30 124 C 13.3938 -1.55937 1.17085 0
M  V30 125 O 12.6638 -1.94143 0.261805 0
M  V30 126 H 11.2438 -0.126197 0.736263 0
M  V30 127 H 13.9058 0.387678 1.91005 0
M  V30 128 H 13.0018 -0.619292 3.05894 0
M  V30 129 N 13.3029 -1.57598 0.00835791 0
M  V30 130 C 14.5509 -1.90551 -0.6734 0
M  V30 131 C 14.8719 -0.883301 -1.73847 0
M  V30 132 O 14.1419 0.0781442 -1.95744 0
M  V30 133 H 12.7219 -0.703312 -0.251717 0
M  V30 134 H 15.3839 -1.94833 0.0512592 0
M  V30 135 H 14.4799 -2.9056 -1.13935 0
M  V30 136 N 14.781 0.264519 -1.55364 0
M  V30 137 C 15.744 1.31046 -1.88042 0
M  V30 138 C 16.744 1.41943 -0.755569 0
M  V30 139 O 17.934 1.40947 -1.02369 0
M  V30 140 C 15.066 2.69067 -2.09323 0
M  V30 141 H 16.259 1.03297 -2.81549 0
M  V30 142 H 13.812 0.502989 -1.47986 0
M  V30 143 H 14.547 3.01982 -1.18226 0
M  V30 144 H 14.332 2.62542 -2.91229 0
M  V30 145 H 15.822 3.44623 -2.35848 0
M  V30 146 N 16.2591 1.48442 0.529413 0
M  V30 147 C 17.2061 1.63007 1.63394 0
M  V30 148 C 18.1761 0.47212 1.59249 0
M  V30 149 O 19.3611 0.695673 1.77666 0
M  V30 150 C 16.5011 1.6763 3.01653 0
M  V30 151 C 15.6141 2.94535 3.16027 0
M  V30 152 C 14.7491 2.90316 4.44849 0
M  V30 153 C 13.7881 4.11923 4.52754 0
M  V30 154 N 12.9251 4.05777 5.72965 0
M  V30 155 H 17.7651 2.5733 1.50285 0
M  V30 156 H 15.3021 1.27613 0.731656 0
M  V30 157 H 17.2601 1.68292 3.81751 0
M  V30 158 H 15.8901 0.76797 3.13532 0
M  V30 159 H 14.9421 3.03615 2.29177 0
M  V30 160 H 16.2541 3.84512 3.17729 0
M  V30 161 H 15.4081 2.89382 5.33238 0
M  V30 162 H 14.1471 1.98068 4.45668 0
M  V30 163 H 13.1521 4.13131 3.62771 0
M  V30 164 H 14.3771 5.0533 4.53672 0
M  V30 165 H 12.3231 3.16351 5.74681 0
M  V30 166 H 12.2401 4.8946 5.76164 0
M  V30 167 H 13.5081 4.08904 6.6364 0
M  V30 168 N 17.7372 -0.778329 1.37039 0
M  V30 169 C 18.6842 -1.89139 1.32269 0
M  V30 170 C 19.6542 -1.65017 0.189387 0
M  V30 171 O 20.8392 -1.87024 0.377693 0
M  V30 172 C 17.9792 -3.26112 1.12894 0
M  V30 173 C 17.0922 -3.62233 2.35396 0
M  V30 174 C 16.2272 -4.8838 2.08946 0
M  V30 175 C 15.2662 -5.17212 3.2735 0
M  V30 176 N 14.4032 -6.34546 3.00492 0
M  V30 177 H 19.2432 -1.92552 2.27437 0
M  V30 178 H 16.7802 -0.941473 1.13025 0
M  V30 179 H 18.7382 -4.05116 0.996835 0
M  V30 180 H 17.3682 -3.22091 0.213758 0
M  V30 181 H 16.4202 -2.78265 2.5937 0
M  V30 182 H 17.7322 -3.79481 3.23721 0
M  V30 183 H 16.8862 -5.75274 1.92729 0
M  V30 184 H 15.6252 -4.73222 1.17949 0
M  V30 185 H 14.6302 -4.28796 3.44113 0
M  V30 186 H 15.8552 -5.34283 4.19188 0
M  V30 187 H 13.8012 -6.20759 2.12118 0
M  V30 188 H 13.7182 -6.52179 3.82358 0
M  V30 189 H 14.9862 -7.24394 2.87879 0
M  V30 190 N 19.2153 -1.21501 -1.00376 0
M  V30 191 C 20.1623 -0.975387 -2.09177 0
M  V30 192 C 21.1323 0.0990615 -1.65804 0
M  V30 193 O 22.3173 -0.0483147 -1.90739 0
M  V30 194 C 19.4573 -0.547507 -3.40729 0
M  V30 195 C 18.5703 -1.69153 -3.97506 0
M  V30 196 C 17.7053 -1.2127 -5.17172 0
M  V30 197 C 16.7443 -2.32897 -5.66061 0
M  V30 198 N 15.8813 -1.86138 -6.76976 0
M  V30 199 H 20.7213 -1.9068 -2.29009 0
M  V30 200 H 18.2583 -0.950257 -1.12288 0
M  V30 201 H 20.2163 -0.280667 -4.16255 0
M  V30 202 H 18.8463 0.346904 -3.20931 0
M  V30 203 H 17.8983 -2.07298 -3.18954 0
M  V30 204 H 19.2103 -2.5316 -4.29781 0
M  V30 205 H 18.3643 -0.902591 -5.99948 0
M  V30 206 H 17.1033 -0.342692 -4.86495 0
M  V30 207 H 16.1083 -2.64709 -4.81881 0
M  V30 208 H 17.3333 -3.20396 -5.98768 0
M  V30 209 H 15.2793 -1.01484 -6.48103 0
M  V30 210 H 15.1963 -2.63717 -7.08512 0
M  V30 211 H 16.4643 -1.58165 -7.63285 0
M  V30 212 N 20.6934 1.19889 -1.02296 0
M  V30 213 C 21.6414 2.24938 -0.592081 0
M  V30 214 C 22.6354 1.65257 0.372357 0
M  V30 215 O 23.8414 1.78371 0.241583 0
M  V30 216 H 20.2164 0.731787 -0.173182 0
M  V30 217 H 22.1874 2.58603 -1.48885 0
M  V30 218 C 20.9364 3.47668 0.047351 0
M  V30 219 H 20.2594 3.93875 -0.685772 0
M  V30 220 H 21.6994 4.22852 0.311862 0
M  V30 221 C 20.1584 3.11136 1.29212 0
M  V30 222 O 20.6884 3.2325 2.38479 0
M  V30 223 N 18.8944 2.65625 1.17863 0
M  V30 224 H 18.4414 2.55968 0.289493 0
M  V30 225 H 18.3994 2.41553 2.01245 0
M  V30 226 N 22.1715 0.800033 1.35784 0
M  V30 227 C 23.4185 0.377342 1.98953 0
M  V30 228 C 23.7465 -1.05378 1.6348 0
M  V30 229 O 23.0015 -1.74459 0.886707 0
M  V30 230 C 23.3005 0.500276 3.53881 0
M  V30 231 C 22.9665 1.89375 4.09204 0
M  V30 232 C 21.6285 2.27499 4.24025 0
M  V30 233 C 23.9805 2.8057 4.39238 0
M  V30 234 C 21.3085 3.562 4.66195 0
M  V30 235 C 23.6605 4.0871 4.82844 0
M  V30 236 C 22.3245 4.46843 4.95871 0
M  V30 237 H 21.5945 0.138079 0.728021 0
M  V30 238 H 24.2415 1.01955 1.62103 0
M  V30 239 H 22.5465 -0.225405 3.91151 0
M  V30 240 H 24.2435 0.154097 4.00704 0
M  V30 241 H 20.8335 1.58753 3.98115 0
M  V30 242 H 25.0175 2.52367 4.27346 0
M  V30 243 H 20.2735 3.85602 4.74469 0
M  V30 244 H 24.4475 4.79481 5.05046 0
M  V30 245 H 22.0745 5.46623 5.28306 0
M  V30 246 N 23.6496 -1.47581 0.552962 0
M  V30 247 C 24.8966 -2.02482 0.0273243 0
M  V30 248 C 25.2246 -1.42776 -1.32081 0
M  V30 249 O 24.4796 -0.571393 -1.87173 0
M  V30 250 C 24.7786 -3.57199 -0.119728 0
M  V30 251 C 24.4446 -4.35804 1.15697 0
M  V30 252 C 23.1066 -4.57 1.50681 0
M  V30 253 C 25.4586 -4.81167 2.00319 0
M  V30 254 C 22.7866 -5.20807 2.70142 0
M  V30 255 C 25.1386 -5.46293 3.18978 0
M  V30 256 C 23.8026 -5.65722 3.54281 0
M  V30 257 H 23.0726 -0.740933 0.00999866 0
M  V30 258 H 25.7196 -1.77302 0.72362 0
M  V30 259 H 24.0246 -3.81348 -0.89896 0
M  V30 260 H 25.7216 -3.97324 -0.541718 0
M  V30 261 H 22.3116 -4.19582 0.874561 0
M  V30 262 H 26.4956 -4.64574 1.74599 0
M  V30 263 H 21.7516 -5.34045 2.97668 0
M  V30 264 H 25.9256 -5.80407 3.84838 0
M  V30 265 H 23.5526 -6.14936 4.46942 0
M  V30 266 N 25.1277 -0.289203 -1.54924 0
M  V30 267 C 26.0747 0.592115 -2.23075 0
M  V30 268 C 27.0447 1.13881 -1.20915 0
M  V30 269 O 28.2297 1.18551 -1.495 0
M  V30 270 C 25.3697 1.76376 -2.96623 0
M  V30 271 C 24.4827 1.24959 -4.13533 0
M  V30 272 C 23.6177 2.38416 -4.74691 0
M  V30 273 C 22.6567 1.84072 -5.83767 0
M  V30 274 N 21.7937 2.91057 -6.38929 0
M  V30 275 H 26.6337 0.00432038 -2.98 0
M  V30 276 H 24.1707 -0.00963529 -1.47097 0
M  V30 277 H 26.1287 2.45268 -3.3749 0
M  V30 278 H 24.7587 2.32337 -2.24097 0
M  V30 279 H 23.8107 0.453307 -3.77689 0
M  V30 280 H 25.1227 0.811662 -4.92152 0
M  V30 281 H 24.2767 3.15276 -5.18349 0
M  V30 282 H 23.0157 2.8553 -3.95378 0
M  V30 283 H 22.0207 1.05697 -5.39545 0
M  V30 284 H 23.2457 1.37877 -6.64956 0
M  V30 285 H 21.1917 3.37526 -5.62505 0
M  V30 286 H 21.1087 2.51724 -7.12861 0
M  V30 287 H 22.3767 3.6785 -6.87246 0
M  V30 288 N 26.6058 1.57591 -0.0167156 0
M  V30 289 C 27.5358 2.12496 0.967858 0
M  V30 290 C 28.5168 1.03807 1.34752 0
M  V30 291 O 29.7018 1.31577 1.42833 0
M  V30 292 C 26.8318 2.64194 2.25431 0
M  V30 293 C 25.7858 3.77559 2.01576 0
M  V30 294 C 25.1118 4.15636 3.36379 0
M  V30 295 C 26.4118 5.04151 1.36489 0
M  V30 296 H 28.1058 2.95013 0.510643 0
M  V30 297 H 25.6518 1.41915 0.244181 0
M  V30 298 H 27.6048 3.01236 2.94678 0
M  V30 299 H 26.3288 1.78821 2.73296 0
M  V30 300 H 24.9878 3.40937 1.34751 0
M  V30 301 H 24.6358 3.27263 3.81979 0
M  V30 302 H 24.3358 4.92022 3.21229 0
M  V30 303 H 25.8598 4.5525 4.06915 0
M  V30 304 H 27.2738 5.38857 1.95718 0
M  V30 305 H 25.6708 5.85453 1.31776 0
M  V30 306 H 26.7408 4.83733 0.336219 0
M  V30 307 N 28.0839 -0.256276 1.55502 0
M  V30 308 C 29.0319 -1.33694 1.90338 0
M  V30 309 C 30.0259 -1.50299 0.781441 0
M  V30 310 O 31.2319 -1.51885 0.965966 0
M  V30 311 H 27.6069 -0.447483 0.60437 0
M  V30 312 H 29.5779 -1.01574 2.8058 0
M  V30 313 C 28.3269 -2.68724 2.20642 0
M  V30 314 H 27.6499 -2.56743 3.06469 0
M  V30 315 H 29.0899 -3.43237 2.48926 0
M  V30 316 C 27.5489 -3.21101 1.01959 0
M  V30 317 O 28.0789 -4.0084 0.262762 0
M  V30 318 N 26.2849 -2.79003 0.812746 0
M  V30 319 H 25.8319 -2.14271 1.42989 0
M  V30 320 H 25.7899 -3.14393 0.0203076 0
M  V30 321 N 29.562 -1.4872 -0.521534 0
M  V30 322 C 30.51 -1.64328 -1.64618 0
M  V30 323 C 31.504 -0.50953 -1.61555 0
M  V30 324 O 32.71 -0.688525 -1.66311 0
M  V30 325 H 29.085 -0.517805 -0.545328 0
M  V30 326 H 31.056 -2.58767 -1.48601 0
M  V30 327 C 29.805 -1.70805 -3.02855 0
M  V30 328 H 29.128 -2.5741 -3.05909 0
M  V30 329 H 30.568 -1.85766 -3.81139 0
M  V30 330 C 29.027 -0.448479 -3.33902 0
M  V30 331 O 29.557 0.434928 -3.99339 0
M  V30 332 N 27.763 -0.317616 -2.88859 0
M  V30 333 H 27.31 -1.03748 -2.35784 0
M  V30 334 H 27.268 0.524113 -3.10001 0
M  V30 335 N 31.0401 0.771051 -1.3745 0
M  V30 336 C 31.9871 1.88435 -1.3327 0
M  V30 337 C 32.9571 1.64914 -0.198136 0
M  V30 338 O 34.1421 1.86821 -0.387606 0
M  V30 339 C 31.2821 3.25509 -1.14622 0
M  V30 340 C 30.3951 3.60979 -2.37314 0
M  V30 341 C 29.5301 4.87265 -2.11533 0
M  V30 342 C 28.5691 5.15469 -3.30088 0
M  V30 343 N 27.7061 6.32944 -3.03853 0
M  V30 344 H 32.5461 1.91344 -2.28455 0
M  V30 345 H 30.0831 0.935466 -1.13523 0
M  V30 346 H 32.0411 4.04582 -1.01831 0
M  V30 347 H 30.6711 3.21974 -0.230837 0
M  V30 348 H 29.7231 2.76885 -2.60842 0
M  V30 349 H 31.0351 3.77759 -3.25729 0
M  V30 350 H 30.1891 5.74244 -1.95777 0
M  V30 351 H 28.9281 4.7259 -1.20457 0
M  V30 352 H 27.9331 4.26966 -3.46382 0
M  V30 353 H 29.1581 5.32052 -4.22016 0
M  V30 354 H 27.1041 6.19625 -2.15407 0
M  V30 355 H 27.0211 6.50143 -3.85812 0
M  V30 356 H 28.2891 7.22857 -2.91716 0
M  V30 357 N 32.5182 1.22032 0.997298 0
M  V30 358 C 33.7432 1.06921 1.77715 0
M  V30 359 C 34.1682 -0.376226 1.84299 0
M  V30 360 O 33.5262 -1.27165 1.29223 0
M  V30 361 C 33.5742 1.67996 3.19076 0
M  V30 362 O 32.6782 0.930653 4.01762 0
M  V30 363 H 32.0192 0.375814 0.547412 0
M  V30 364 H 34.5492 1.61737 1.25309 0
M  V30 365 H 34.5592 1.72538 3.69723 0
M  V30 366 H 33.2342 2.73182 3.13599 0
M  V30 367 H 31.8112 0.960917 3.60307 0
M  V30 368 N 33.9963 -1.19345 1.0293 0
M  V30 369 C 34.9063 -2.26245 0.620515 0
M  V30 370 C 35.9223 -1.70486 -0.347928 0
M  V30 371 O 37.0983 -2.00347 -0.205704 0
M  V30 372 C 34.1633 -3.46693 -0.0218957 0
M  V30 373 C 33.2243 -4.17632 0.994102 0
M  V30 374 C 32.4573 -5.32329 0.382253 0
M  V30 375 O 32.6803 -5.64552 -0.814676 0
M  V30 376 O 31.6143 -5.91664 1.10531 0
M  V30 377 H 35.4403 -2.63453 1.51083 0
M  V30 378 H 33.0253 -1.26207 0.799513 0
M  V30 379 H 34.9073 -4.19683 -0.380072 0
M  V30 380 H 33.5823 -3.11333 -0.886209 0
M  V30 381 H 32.4893 -3.4676 1.40387 0
M  V30 382 H 33.8223 -4.56964 1.8288 0
M  V30 383 N 35.4744 -0.807222 -1.35358 0
M  V30 384 C 36.4214 -0.216037 -2.29787 0
M  V30 385 C 37.3914 0.650278 -1.52842 0
M  V30 386 O 38.5764 0.595227 -1.81278 0
M  V30 387 C 35.7164 0.628893 -3.39321 0
M  V30 388 C 34.8294 -0.257927 -4.31229 0
M  V30 389 C 33.9644 0.595069 -5.27856 0
M  V30 390 C 33.0034 -0.292111 -6.11403 0
M  V30 391 N 32.1404 0.520895 -7.00165 0
M  V30 392 H 36.9804 -1.02671 -2.79755 0
M  V30 393 H 34.5174 -0.517839 -1.37684 0
M  V30 394 H 36.4754 1.13393 -4.01494 0
M  V30 395 H 35.1054 1.40482 -2.90628 0
M  V30 396 H 34.1574 -0.881076 -3.70056 0
M  V30 397 H 35.4694 -0.940759 -4.89848 0
M  V30 398 H 34.6234 1.16522 -5.95405 0
M  V30 399 H 33.3624 1.31146 -4.69736 0
M  V30 400 H 32.3674 -0.874525 -5.428 0
M  V30 401 H 33.5924 -1.00638 -6.71602 0
M  V30 402 H 31.5384 1.22125 -6.44532 0
M  V30 403 H 31.4554 -0.103877 -7.55929 0
M  V30 404 H 32.7234 1.0743 -7.72062 0
M  V30 405 N 36.9525 1.47285 -0.560781 0
M  V30 406 C 38.2295 1.9558 0.0277798 0
M  V30 407 C 38.6095 1.5034 1.48192 0
M  V30 408 O 37.9575 0.743882 2.16052 0
M  V30 409 C 38.1675 3.48789 -0.121418 0
M  V30 410 C 39.5155 4.24594 0.0220912 0
M  V30 411 O 40.5395 3.56166 -0.0491439 0
M  V30 412 O 39.3985 5.46217 0.175958 0
M  V30 413 H 36.4925 0.824663 0.0621342 0
M  V30 414 H 39.0385 1.5767 -0.627556 0
M  V30 415 H 37.8105 3.74533 -1.13316 0
M  V30 416 H 37.4335 3.93473 0.571366 0
M  V30 417 N 38.4306 0.297415 1.54768 0
M  V30 418 C 39.3776 -0.580276 2.23386 0
M  V30 419 C 40.3476 -1.13238 1.21517 0
M  V30 420 O 41.5326 -1.17757 1.50126 0
M  V30 421 C 38.6726 -1.74801 2.97555 0
M  V30 422 C 37.7856 -1.22764 4.1419 0
M  V30 423 C 36.9206 -2.35895 4.75949 0
M  V30 424 C 35.9596 -1.80974 5.84735 0
M  V30 425 N 35.0966 -2.87664 6.40464 0
M  V30 426 H 39.9366 0.0114833 2.97998 0
M  V30 427 H 37.4736 0.0174361 1.4709 0
M  V30 428 H 39.4316 -2.43475 3.38786 0
M  V30 429 H 38.0616 -2.31145 2.25326 0
M  V30 430 H 37.1136 -0.433271 3.77924 0
M  V30 431 H 38.4256 -0.785551 4.92575 0
M  V30 432 H 37.5796 -3.12523 5.20014 0
M  V30 433 H 36.3186 -2.83429 3.96887 0
M  V30 434 H 35.3236 -1.02834 5.40097 0
M  V30 435 H 36.5486 -1.34348 6.65678 0
M  V30 436 H 34.4946 -3.34538 5.64287 0
M  V30 437 H 34.4116 -2.4794 7.14186 0
M  V30 438 H 35.6796 -3.642 6.89187 0
M  V30 439 N 39.9087 -1.5758 0.0250728 0
M  V30 440 C 40.8557 -2.09973 -0.958129 0
M  V30 441 C 41.8257 -1.00085 -1.3256 0
M  V30 442 O 43.0107 -1.27481 -1.41962 0
M  V30 443 C 40.1507 -2.62812 -2.2366 0
M  V30 444 C 39.2637 -3.86693 -1.92594 0
M  V30 445 C 38.3987 -4.27941 -3.14707 0
M  V30 446 C 37.4377 -5.44591 -2.79442 0
M  V30 447 N 36.5747 -5.81014 -3.94167 0
M  V30 448 H 41.4147 -2.937 -0.504428 0
M  V30 449 H 38.9517 -1.45172 -0.237392 0
M  V30 450 H 40.9097 -2.91536 -2.98434 0
M  V30 451 H 39.5397 -1.81922 -2.66654 0
M  V30 452 H 38.5917 -3.64723 -1.0808 0
M  V30 453 H 39.9037 -4.71547 -1.62619 0
M  V30 454 H 39.0577 -4.58079 -3.97804 0
M  V30 455 H 37.7967 -3.41845 -3.4784 0
M  V30 456 H 36.8017 -5.1415 -1.94755 0
M  V30 457 H 38.0267 -6.32382 -2.47528 0
M  V30 458 H 35.9727 -4.97874 -4.2715 0
M  V30 459 H 35.8897 -6.60498 -3.67801 0
M  V30 460 H 37.1577 -6.15756 -4.7798 0
M  V30 461 N 41.3868 0.248026 -1.55636 0
M  V30 462 C 42.2968 1.32859 -1.93354 0
M  V30 463 C 43.3128 1.52719 -0.833838 0
M  V30 464 O 44.4888 1.66363 -1.13513 0
M  V30 465 C 41.5538 2.66337 -2.21958 0
M  V30 466 C 40.6148 2.55008 -3.45354 0
M  V30 467 C 39.8478 3.82121 -3.72584 0
M  V30 468 O 40.0708 4.83951 -3.01907 0
M  V30 469 O 39.0048 3.80822 -4.6611 0
M  V30 470 H 42.8308 1.03862 -2.85388 0
M  V30 471 H 40.4158 0.448686 -1.42503 0
M  V30 472 H 42.2978 3.45216 -2.4167 0
M  V30 473 H 40.9728 2.95068 -1.33103 0
M  V30 474 H 39.8798 1.7442 -3.30951 0
M  V30 475 H 41.2128 2.31222 -4.34508 0
M  V30 476 N 42.8649 1.48995 0.513639 0
M  V30 477 C 43.8119 1.6473 1.61656 0
M  V30 478 C 44.7819 0.488984 1.58739 0
M  V30 479 O 45.9669 0.714478 1.76918 0
M  V30 480 C 43.1069 1.7082 2.99858 0
M  V30 481 C 42.2199 2.9787 3.12885 0
M  V30 482 C 41.3549 2.95017 4.41744 0
M  V30 483 C 40.3939 4.16702 4.48359 0
M  V30 484 N 39.5309 4.11832 5.68629 0
M  V30 485 H 44.3709 2.58909 1.47547 0
M  V30 486 H 41.9079 1.28382 0.71808 0
M  V30 487 H 43.8659 1.72331 3.79944 0
M  V30 488 H 42.4959 0.801181 3.12699 0
M  V30 489 H 41.5479 3.06029 2.25944 0
M  V30 490 H 42.8599 3.8786 3.13633 0
M  V30 491 H 42.0139 2.95021 5.30139 0
M  V30 492 H 40.7529 2.02784 4.43542 0
M  V30 493 H 39.7579 4.16955 3.58369 0
M  V30 494 H 40.9829 5.10113 4.48287 0
M  V30 495 H 38.9289 3.22428 5.71293 0
M  V30 496 H 38.8459 4.95543 5.7094 0
M  V30 497 H 40.1139 4.1592 6.59266 0
M  V30 498 N 44.343 -0.763751 1.37857 0
M  V30 499 C 45.29 -1.87726 1.34267 0
M  V30 500 C 46.26 -1.64807 0.206879 0
M  V30 501 O 47.445 -1.86613 0.397508 0
M  V30 502 C 44.585 -3.24896 1.16346 0
M  V30 503 C 43.698 -3.59716 2.39225 0
M  V30 504 C 42.833 -4.86137 2.14114 0
M  V30 505 C 41.872 -5.13711 3.32817 0
M  V30 506 N 41.009 -6.31323 3.07206 0
M  V30 507 H 45.849 -1.90129 2.29466 0
M  V30 508 H 43.386 -0.929433 1.14017 0
M  V30 509 H 45.344 -4.04036 1.03975 0
M  V30 510 H 43.974 -3.21847 0.247909 0
M  V30 511 H 43.026 -2.75498 2.62307 0
M  V30 512 H 44.338 -3.76027 3.27728 0
M  V30 513 H 43.492 -5.73198 1.9882 0
M  V30 514 H 42.231 -4.71945 1.22961 0
M  V30 515 H 41.236 -4.25123 3.48641 0
M  V30 516 H 42.461 -5.29807 4.24832 0
M  V30 517 H 40.407 -6.18474 2.1869 0
M  V30 518 H 40.324 -6.48087 3.89254 0
M  V30 519 H 41.592 -7.213 2.95546 0
M  V30 520 N 45.8211 -1.22559 -0.990812 0
M  V30 521 C 47.2321 -1.04791 -1.54518 0
M  V30 522 C 47.5831 0.387998 -1.92325 0
M  V30 523 O 46.7081 1.27328 -1.74976 0
M  V30 524 C 47.3031 -1.896 -2.80779 0
M  V30 525 C 45.8621 -1.76124 -3.32652 0
M  V30 526 C 45.0091 -1.8594 -2.05722 0
M  V30 527 H 47.9601 -1.36374 -0.811662 0
M  V30 528 H 47.9811 -1.41464 -3.53225 0
M  V30 529 H 47.4931 -2.94101 -2.53231 0
M  V30 530 H 45.5941 -0.743643 -3.65104 0
M  V30 531 H 45.7071 -2.58913 -4.03114 0
M  V30 532 H 44.0711 -1.29403 -2.19379 0
M  V30 533 H 44.8541 -2.91976 -1.80568 0
M  V30 534 N 47.2992 1.18797 -1.03562 0
M  V30 535 C 48.5272 1.92599 -0.755869 0
M  V30 536 C 48.9422 1.75886 0.686271 0
M  V30 537 O 48.2992 1.08517 1.46732 0
M  V30 538 C 48.3502 3.44159 -1.10619 0
M  V30 539 O 48.0712 3.60341 -2.4917 0
M  V30 540 C 49.5722 4.3507 -0.850214 0
M  V30 541 H 46.7922 0.611587 -0.276048 0
M  V30 542 H 49.3362 1.50742 -1.38192 0
M  V30 543 H 47.4912 3.83823 -0.525194 0
M  V30 544 H 47.9052 4.54128 -2.62427 0
M  V30 545 H 49.3792 5.39989 -1.14523 0
M  V30 546 H 49.8562 4.38673 0.215176 0
M  V30 547 H 50.4622 4.01097 -1.41426 0
M  V30 548 N 48.7773 0.814389 1.34928 0
M  V30 549 C 50.0233 0.399013 1.98836 0
M  V30 550 C 50.3563 -1.03314 1.64438 0
M  V30 551 O 49.6313 -1.71811 0.911659 0
M  V30 552 C 49.9143 0.591629 3.55207 0
M  V30 553 C 49.7673 2.06928 3.99376 0
M  V30 554 C 51.0863 0.022199 4.40094 0
M  V30 555 H 48.2053 0.146451 0.722303 0
M  V30 556 H 50.8473 1.02537 1.59957 0
M  V30 557 H 48.9973 0.0584441 3.88456 0
M  V30 558 H 50.6693 2.66544 3.76499 0
M  V30 559 H 48.9123 2.56287 3.49999 0
M  V30 560 H 49.5833 2.1549 5.08201 0
M  V30 561 H 52.0593 0.477643 4.13349 0
M  V30 562 H 50.9353 0.186832 5.48582 0
M  V30 563 H 51.1963 -1.07215 4.28902 0
M  V30 564 N 50.2554 -1.46986 0.568584 0
M  V30 565 C 51.4804 -2.07335 0.0520528 0
M  V30 566 C 51.9054 -1.41675 -1.23733 0
M  V30 567 O 51.2634 -0.495623 -1.74394 0
M  V30 568 C 51.3114 -3.60417 -0.11501 0
M  V30 569 O 50.4154 -3.95309 -1.17492 0
M  V30 570 H 49.7564 -0.661597 0.0564385 0
M  V30 571 H 52.2864 -1.88837 0.787507 0
M  V30 572 H 52.2964 -4.06698 -0.325644 0
M  V30 573 H 50.9714 -4.07601 0.826675 0
M  V30 574 H 49.5484 -3.60757 -0.943869 0
M  V30 575 N 51.7335 -0.305618 -1.54608 0
M  V30 576 C 52.9795 0.302746 -2.00528 0
M  V30 577 C 53.3125 1.53184 -1.19367 0
M  V30 578 O 52.5875 1.92598 -0.271321 0
M  V30 579 C 52.8705 0.654756 -3.54097 0
M  V30 580 C 52.7235 -0.583793 -4.45995 0
M  V30 581 C 54.0425 1.47947 -4.14487 0
M  V30 582 H 51.1615 0.108564 -0.72896 0
M  V30 583 H 53.8035 -0.418634 -1.85331 0
M  V30 584 H 51.9535 1.26935 -3.67178 0
M  V30 585 H 53.6255 -1.22224 -4.44814 0
M  V30 586 H 51.8685 -1.21615 -4.16404 0
M  V30 587 H 52.5395 -0.293287 -5.5122 0
M  V30 588 H 55.0155 0.96013 -4.04871 0
M  V30 589 H 53.8915 1.69454 -5.22088 0
M  V30 590 H 54.1525 2.47011 -3.66658 0
M  V30 591 N 53.2116 1.57565 -0.0334293 0
M  V30 592 C 54.4586 1.91978 0.644272 0
M  V30 593 C 54.7866 0.910231 1.71887 0
M  V30 594 O 54.0416 -0.0801961 1.95536 0
M  V30 595 C 54.3406 3.33112 1.29504 0
M  V30 596 C 54.0066 4.49537 0.350388 0
M  V30 597 C 52.6686 4.81115 0.0903974 0
M  V30 598 C 55.0206 5.20347 -0.298032 0
M  V30 599 C 52.3486 5.8086 -0.825746 0
M  V30 600 C 54.7006 6.2107 -1.20226 0
M  V30 601 C 53.3646 6.51088 -1.4711 0
M  V30 602 H 52.6346 0.702496 0.235756 0
M  V30 603 H 55.2816 1.91259 -0.0961176 0
M  V30 604 H 53.5866 3.30113 2.11028 0
M  V30 605 H 55.2836 3.57011 1.82603 0
M  V30 606 H 51.8736 4.24883 0.563205 0
M  V30 607 H 56.0576 4.96178 -0.110234 0
M  V30 608 H 51.3136 6.02461 -1.04169 0
M  V30 609 H 55.4876 6.75057 -1.71086 0
M  V30 610 H 53.1146 7.28193 -2.18264 0
M  V30 611 N 54.6897 -0.239769 1.55765 0
M  V30 612 C 55.9147 -0.988373 1.82335 0
M  V30 613 C 56.3397 -1.77886 0.611421 0
M  V30 614 O 55.6977 -1.75889 -0.439639 0
M  V30 615 C 55.7457 -1.89627 3.06715 0
M  V30 616 O 54.8497 -2.98904 2.84131 0
M  V30 617 H 54.1907 -0.280858 0.601677 0
M  V30 618 H 56.7207 -0.258597 2.02959 0
M  V30 619 H 56.7307 -2.30957 3.36338 0
M  V30 620 H 55.4057 -1.31511 3.9456 0
M  V30 621 H 53.9827 -2.61651 2.65694 0
M  V30 622 N 56.1678 -1.49265 -0.50573 0
M  V30 623 C 57.1008 -1.60183 -1.62532 0
M  V30 624 C 58.0788 -0.451107 -1.56217 0
M  V30 625 O 59.2628 -0.666016 -1.76342 0
M  V30 626 C 56.3898 -1.55238 -3.01029 0
M  V30 627 C 55.4358 -2.7545 -3.25621 0
M  V30 628 S 56.2688 -4.37174 -3.09256 0
M  V30 629 C 57.4248 -4.34866 -4.50158 0
M  V30 630 H 57.6578 -2.54894 -1.53025 0
M  V30 631 H 55.1908 -1.38098 -0.690535 0
M  V30 632 H 57.1488 -1.53071 -3.80893 0
M  V30 633 H 55.8098 -0.618238 -3.07956 0
M  V30 634 H 55.0028 -2.68197 -4.26716 0
M  V30 635 H 54.6048 -2.75005 -2.53472 0
M  V30 636 H 56.8968 -4.06295 -5.42154 0
M  V30 637 H 57.8398 -5.36223 -4.62462 0
M  V30 638 H 58.2478 -3.65007 -4.30616 0
M  V30 639 N 57.6459 0.756429 -1.3826 0
M  V30 640 C 58.8929 1.51547 -1.34312 0
M  V30 641 C 59.2209 1.94382 0.0677144 0
M  V30 642 O 58.4759 1.65514 1.04421 0
M  V30 643 C 58.7749 2.78313 -2.24224 0
M  V30 644 C 58.4409 2.54455 -3.72241 0
M  V30 645 C 57.1029 2.47657 -4.12576 0
M  V30 646 C 59.4549 2.3354 -4.65949 0
M  V30 647 C 56.7829 2.17956 -5.44713 0
M  V30 648 C 59.1349 2.05359 -5.9834 0
M  V30 649 C 57.7989 1.97016 -6.37762 0
M  V30 650 H 57.0689 0.55455 -0.491482 0
M  V30 651 H 59.7159 0.870039 -1.70595 0
M  V30 652 H 58.0209 3.47492 -1.80987 0
M  V30 653 H 59.7179 3.36259 -2.18474 0
M  V30 654 H 56.3079 2.60616 -3.40261 0
M  V30 655 H 60.4919 2.37772 -4.35635 0
M  V30 656 H 55.7479 2.10003 -5.74203 0
M  V30 657 H 59.9219 1.88179 -6.70494 0
M  V30 658 H 57.5489 1.73766 -7.40074 0
M  V30 659 N 59.124 1.23083 0.984299 0
M  V30 660 C 60.54 0.992637 1.24975 0
M  V30 661 C 60.74 -0.308618 1.99123 0
M  V30 662 O 59.796 -1.02905 2.30579 0
M  V30 663 C 61.109 2.19698 2.05312 0
M  V30 664 C 62.657 2.24147 2.18465 0
M  V30 665 C 63.132 3.44157 3.02192 0
M  V30 666 N 64.623 3.44372 3.09777 0
M  V30 667 C 65.358 4.33886 3.74874 0
M  V30 668 N 64.854 5.3363 4.41827 0
M  V30 669 N 66.647 4.21639 3.71721 0
M  V30 670 H 58.798 2.06731 0.487453 0
M  V30 671 H 61.061 0.906339 0.277944 0
M  V30 672 H 60.767 3.1411 1.58201 0
M  V30 673 H 60.641 2.20465 3.06064 0
M  V30 674 H 63.028 1.30277 2.64786 0
M  V30 675 H 63.109 2.27415 1.17115 0
M  V30 676 H 62.753 4.38332 2.56568 0
M  V30 677 H 62.683 3.3813 4.03702 0
M  V30 678 H 65.174 2.72201 2.62135 0
M  V30 679 H 65.487 5.98196 4.89266 0
M  V30 680 H 63.832 5.37534 4.40548 0
M  V30 681 H 67.023 3.42962 3.18582 0
M  V30 682 H 67.196 4.91604 4.22173 0
M  V30 683 N 60.6021 -1.18246 1.0419 0
M  V30 684 C 61.8321 -1.91916 0.764961 0
M  V30 685 C 62.2401 -1.76485 -0.681898 0
M  V30 686 O 61.5831 -1.09275 -1.47664 0
M  V30 687 C 61.6451 -3.4373 1.05309 0
M  V30 688 C 61.3091 -3.8294 2.4941 0
M  V30 689 C 62.3061 -3.86621 3.47592 0
M  V30 690 C 59.9911 -4.142 2.84155 0
M  V30 691 C 61.9851 -4.21013 4.78568 0
M  V30 692 C 59.6721 -4.48262 4.15337 0
M  V30 693 C 60.6701 -4.51645 5.12353 0
M  V30 694 O 60.3581 -4.84911 6.41183 0
M  V30 695 H 60.0901 -0.61606 0.278292 0
M  V30 696 H 62.6441 -1.50947 1.39299 0
M  V30 697 H 60.8741 -3.84946 0.367933 0
M  V30 698 H 62.5631 -3.9865 0.763752 0
M  V30 699 H 63.3291 -3.62607 3.22089 0
M  V30 700 H 59.2081 -4.10743 2.09311 0
M  V30 701 H 62.7521 -4.23568 5.54289 0
M  V30 702 H 58.6491 -4.71737 4.40607 0
M  V30 703 H 59.4171 -5.02809 6.45852 0
M  V30 704 N 62.0802 -0.821533 -1.34494 0
M  V30 705 C 63.3052 -0.420873 -2.03085 0
M  V30 706 C 63.7302 0.964915 -1.61465 0
M  V30 707 O 63.0882 1.62763 -0.798607 0
M  V30 708 C 63.1362 -0.529414 -3.56693 0
M  V30 709 O 62.2402 0.451302 -4.09923 0
M  V30 710 H 61.5812 -0.173489 -0.640935 0
M  V30 711 H 64.1112 -1.11157 -1.71771 0
M  V30 712 H 64.1212 -0.404671 -4.05988 0
M  V30 713 H 62.7962 -1.54014 -3.86332 0
M  V30 714 H 61.3732 0.285558 -3.71805 0
M  V30 715 N 63.5583 1.46682 -0.576371 0
M  V30 716 C 64.5063 2.31953 0.17335 0
M  V30 717 C 65.5003 1.44098 0.89062 0
M  V30 718 O 66.7063 1.60759 0.809728 0
M  V30 719 H 63.0813 0.748273 0.0747727 0
M  V30 720 H 65.0523 2.93007 -0.564738 0
M  V30 721 C 63.8013 3.27142 1.17786 0
M  V30 722 H 63.1243 3.94719 0.635361 0
M  V30 723 H 64.5643 3.896 1.67296 0
M  V30 724 C 63.0233 2.52036 2.23561 0
M  V30 725 O 63.5533 2.27877 3.3081 0
M  V30 726 N 61.7593 2.12709 1.97998 0
M  V30 727 H 61.3063 2.32557 1.10792 0
M  V30 728 H 61.2643 1.62776 2.68982 0
M  V30 729 N 65.0364 0.313813 1.54444 0
M  V30 730 C 66.2824 -0.284918 2.01395 0
M  V30 731 C 66.6374 -1.50537 1.19818 0
M  V30 732 O 65.9304 -1.89692 0.269748 0
M  V30 733 C 66.1244 -0.680386 3.50864 0
M  V30 734 C 65.9534 0.500198 4.4691 0
M  V30 735 C 64.7234 0.996248 4.95382 0
M  V30 736 C 66.9214 1.34928 4.96285 0
M  V30 737 N 64.9034 2.14226 5.75309 0
M  V30 738 C 66.2744 2.3426 5.7404 0
M  V30 739 C 68.3294 1.37818 4.78446 0
M  V30 740 C 67.0324 3.36272 6.35856 0
M  V30 741 C 69.0584 2.38695 5.4109 0
M  V30 742 C 68.4204 3.36755 6.18688 0
M  V30 743 H 64.5194 -0.0683689 0.779006 0
M  V30 744 H 67.1034 0.44664 1.89508 0
M  V30 745 H 65.2744 -1.38109 3.63016 0
M  V30 746 H 67.0064 -1.25975 3.84594 0
M  V30 747 H 63.7614 0.56912 4.70168 0
M  V30 748 H 64.1854 2.72005 6.19953 0
M  V30 749 H 68.8274 0.633747 4.18023 0
M  V30 750 H 66.5454 4.11627 6.95405 0
M  V30 751 H 70.1314 2.41721 5.29209 0
M  V30 752 H 69.0114 4.13535 6.66302 0
M  V30 753 N 66.5145 -1.57545 0.0417849 0
M  V30 754 C 67.4445 -2.14009 -0.933929 0
M  V30 755 C 68.4255 -1.05938 -1.33083 0
M  V30 756 O 69.6105 -1.33833 -1.40721 0
M  V30 757 C 66.7405 -2.67747 -2.21199 0
M  V30 758 C 65.6945 -3.80718 -1.95544 0
M  V30 759 C 65.0205 -4.20935 -3.29724 0
M  V30 760 C 66.3205 -5.06258 -1.28452 0
M  V30 761 H 68.0145 -2.95788 -0.463645 0
M  V30 762 H 65.5605 -1.42285 -0.221573 0
M  V30 763 H 67.5135 -3.05886 -2.89848 0
M  V30 764 H 66.2375 -1.83147 -2.70416 0
M  V30 765 H 64.8965 -3.43037 -1.2931 0
M  V30 766 H 64.5445 -3.33298 -3.76724 0
M  V30 767 H 64.2445 -4.9707 -3.13361 0
M  V30 768 H 65.7685 -4.61666 -3.9962 0
M  V30 769 H 67.1825 -5.41903 -1.8712 0
M  V30 770 H 65.5795 -5.87475 -1.22445 0
M  V30 771 H 66.6495 -4.84207 -0.259219 0
M  V30 772 N 67.9926 0.231505 -1.5589 0
M  V30 773 C 69.2696 0.981096 -1.69215 0
M  V30 774 C 69.6496 2.02799 -0.586164 0
M  V30 775 O 68.9976 2.24823 0.408253 0
M  V30 776 C 69.2076 1.60054 -3.10135 0
M  V30 777 C 70.5556 2.09658 -3.69227 0
M  V30 778 O 71.5796 1.69967 -3.13033 0
M  V30 779 O 70.4386 2.8258 -4.67772 0
M  V30 780 H 67.5326 0.457653 -0.688827 0
M  V30 781 H 70.0786 0.224073 -1.68214 0
M  V30 782 H 68.8506 0.844105 -3.82087 0
M  V30 783 H 68.4736 2.42336 -3.15212 0
M  V30 784 N 69.4707 1.49531 0.497807 0
M  V30 785 C 70.4177 1.66436 1.59899 0
M  V30 786 C 71.3877 0.505793 1.58212 0
M  V30 787 O 72.5727 0.733202 1.7615 0
M  V30 788 C 69.7127 1.7399 2.98029 0
M  V30 789 C 68.8257 3.01172 3.09708 0
M  V30 790 C 67.9607 2.99686 4.38591 0
M  V30 791 C 66.9997 4.21434 4.43914 0
M  V30 792 N 66.1367 4.1784 5.64229 0
M  V30 793 H 70.9767 2.60459 1.44793 0
M  V30 794 H 68.5137 1.29137 0.704423 0
M  V30 795 H 70.4717 1.76352 3.78095 0
M  V30 796 H 69.1017 0.834301 3.11832 0
M  V30 797 H 68.1537 3.08408 2.22685 0
M  V30 798 H 69.4657 3.91165 3.09502 0
M  V30 799 H 68.6197 3.00628 5.2698 0
M  V30 800 H 67.3587 2.07477 4.41367 0
M  V30 801 H 66.3637 4.20733 3.53926 0
M  V30 802 H 67.5887 5.14839 4.42851 0
M  V30 803 H 65.5347 3.28469 5.67841 0
M  V30 804 H 65.4517 5.01571 5.65652 0
M  V30 805 H 66.7197 4.22889 6.54817 0
M  V30 806 N 70.9488 -0.749086 1.3866 0
M  V30 807 C 71.8788 -1.8764 1.38973 0
M  V30 808 C 72.8598 -1.68178 0.255004 0
M  V30 809 O 74.0448 -1.88704 0.458754 0
M  V30 810 C 71.1748 -3.25222 1.21851 0
M  V30 811 C 70.1288 -3.59295 2.32575 0
M  V30 812 C 69.4548 -4.95663 2.00555 0
M  V30 813 C 70.7548 -3.63709 3.7485 0
M  V30 814 H 72.4488 -1.87635 2.3331 0
M  V30 815 H 69.9948 -0.901329 1.12303 0
M  V30 816 H 71.9478 -4.03746 1.20695 0
M  V30 817 H 70.6718 -3.25719 0.239775 0
M  V30 818 H 69.3308 -2.83093 2.32925 0
M  V30 819 H 68.9788 -4.92724 1.01154 0
M  V30 820 H 68.6788 -5.19429 2.74714 0
M  V30 821 H 70.2028 -5.7656 2.01024 0
M  V30 822 H 71.6168 -4.32338 3.76506 0
M  V30 823 H 70.0138 -3.98986 4.48252 0
M  V30 824 H 71.0838 -2.63834 4.06841 0
M  V30 825 N 72.4269 -1.23603 -0.977757 0
M  V30 826 C 73.6569 -1.09487 -1.75203 0
M  V30 827 C 74.0649 0.356321 -1.85814 0
M  V30 828 O 73.4079 1.25816 -1.33851 0
M  V30 829 C 73.4699 -1.64905 -3.19447 0
M  V30 830 C 73.1339 -3.13688 -3.32338 0
M  V30 831 C 74.1309 -4.10953 -3.18455 0
M  V30 832 C 71.8159 -3.53449 -3.56902 0
M  V30 833 C 73.8099 -5.45962 -3.28944 0
M  V30 834 C 71.4969 -4.88602 -3.6703 0
M  V30 835 C 72.4949 -5.84668 -3.53062 0
M  V30 836 O 72.1829 -7.17365 -3.62826 0
M  V30 837 H 71.9149 -0.38367 -0.556573 0
M  V30 838 H 74.4689 -1.6398 -1.23693 0
M  V30 839 H 72.6989 -1.04835 -3.72218 0
M  V30 840 H 74.3879 -1.46226 -3.78646 0
M  V30 841 H 75.1539 -3.81577 -2.99372 0
M  V30 842 H 71.0329 -2.79188 -3.66844 0
M  V30 843 H 74.5769 -6.20925 -3.17958 0
M  V30 844 H 70.4739 -5.17653 -3.85623 0
M  V30 845 H 71.2419 -7.2515 -3.79605 0
M  V30 846 N 73.905 1.17692 -1.04816 0
M  V30 847 C 74.838 2.20436 -0.590173 0
M  V30 848 C 75.816 1.58115 0.379244 0
M  V30 849 O 77 1.86228 0.291762 0
M  V30 850 C 74.127 3.38424 0.136817 0
M  V30 851 C 73.173 4.19176 -0.787023 0
M  V30 852 S 74.006 4.84815 -2.27409 0
M  V30 853 C 75.162 6.06195 -1.55817 0
M  V30 854 H 75.395 2.58944 -1.46067 0
M  V30 855 H 72.928 1.28246 -0.859784 0
M  V30 856 H 74.886 4.06798 0.550076 0
M  V30 857 H 73.547 2.98312 0.983299 0
M  V30 858 H 72.74 5.03499 -0.224681 0
M  V30 859 H 72.342 3.56219 -1.13947 0
M  V30 860 H 74.634 6.72078 -0.855387 0
M  V30 861 H 75.577 6.6695 -2.37873 0
M  V30 862 H 75.985 5.54701 -1.04722 0
M  V30 863 N 75.3831 0.828654 1.34056 0
M  V30 864 C 76.6291 0.42008 1.98402 0
M  V30 865 C 76.9621 -1.01564 1.65525 0
M  V30 866 O 76.2371 -1.70834 0.929831 0
M  V30 867 C 76.5201 0.62927 3.54559 0
M  V30 868 C 76.3731 2.11152 3.97159 0
M  V30 869 C 77.6921 0.0688756 4.40046 0
M  V30 870 H 74.8111 0.154104 0.720709 0
M  V30 871 H 77.4531 1.04228 1.5886 0
M  V30 872 H 75.6031 0.0996418 3.88372 0
M  V30 873 H 77.2751 2.70522 3.73651 0
M  V30 874 H 75.5181 2.59985 3.47261 0
M  V30 875 H 76.1891 2.20868 5.05887 0
M  V30 876 H 78.6651 0.521458 4.1282 0
M  V30 877 H 77.5411 0.245006 5.48353 0
M  V30 878 H 77.8021 -1.0266 4.30015 0
M  V30 879 N 76.8612 -1.46375 0.584142 0
M  V30 880 C 78.1072 -2.02678 0.0703716 0
M  V30 881 C 78.4402 -1.4545 -1.28678 0
M  V30 882 O 77.7152 -0.62014 -1.84349 0
M  V30 883 C 77.9982 -3.60099 0.00614674 0
M  V30 884 C 77.8512 -4.27709 1.3923 0
M  V30 885 C 79.1702 -4.34598 -0.693742 0
M  V30 886 H 76.2892 -0.736504 0.027047 0
M  V30 887 H 78.9312 -1.74501 0.751615 0
M  V30 888 H 77.0812 -3.84236 -0.574009 0
M  V30 889 H 78.7532 -4.14832 2.01773 0
M  V30 890 H 76.9962 -3.87016 1.95962 0
M  V30 891 H 77.6672 -5.36478 1.29982 0
M  V30 892 H 80.1432 -4.15615 -0.200869 0
M  V30 893 H 79.0192 -5.44318 -0.707714 0
M  V30 894 H 79.2802 -4.05759 -1.75533 0
M  V30 895 N 78.3393 -0.321999 -1.54275 0
M  V30 896 C 79.5873 0.280489 -2.00144 0
M  V30 897 C 79.9083 1.52777 -1.21178 0
M  V30 898 O 79.1783 1.9338 -0.313187 0
M  V30 899 H 77.7583 0.106632 -0.73935 0
M  V30 900 H 80.4203 -0.438184 -1.8991 0
M  V30 901 H 79.5163 0.537972 -3.07428 0
M  V30 902 N 79.8174 1.5752 -0.0501392 0
M  V30 903 C 81.0454 1.96963 0.633492 0
M  V30 904 C 81.4604 0.927631 1.6444 0
M  V30 905 O 80.8174 -0.0882665 1.82286 0
M  V30 906 C 80.8684 3.36487 1.32132 0
M  V30 907 O 80.5894 4.36693 0.350894 0
M  V30 908 C 82.0904 3.90682 2.09481 0
M  V30 909 H 79.3104 0.648244 0.173266 0
M  V30 910 H 81.8544 2.0417 -0.116134 0
M  V30 911 H 80.0094 3.30434 2.02218 0
M  V30 912 H 80.4234 5.17702 0.841735 0
M  V30 913 H 81.8974 4.90591 2.5303 0
M  V30 914 H 82.3744 3.26053 2.94255 0
M  V30 915 H 82.9804 4.00069 1.44307 0
M  V30 916 N 81.2955 -0.223234 1.56011 0
M  V30 917 C 82.2255 -1.27988 1.95298 0
M  V30 918 C 83.2065 -1.48976 0.820979 0
M  V30 919 O 84.3915 -1.61188 1.08315 0
M  V30 920 C 81.5215 -2.63 2.26822 0
M  V30 921 C 80.4755 -2.56671 3.42497 0
M  V30 922 C 79.8015 -3.95697 3.59622 0
M  V30 923 C 81.1015 -2.11601 4.77517 0
M  V30 924 H 82.7955 -0.953525 2.8381 0
M  V30 925 H 80.3415 -0.457244 1.36548 0
M  V30 926 H 82.2945 -3.37077 2.52898 0
M  V30 927 H 81.0185 -2.9732 1.35161 0
M  V30 928 H 79.6775 -1.85051 3.16467 0
M  V30 929 H 79.3255 -4.27322 2.6534 0
M  V30 930 H 79.0255 -3.92345 4.37424 0
M  V30 931 H 80.5495 -4.71438 3.88044 0
M  V30 932 H 81.9635 -2.7542 5.02809 0
M  V30 933 H 80.3605 -2.19311 5.5859 0
M  V30 934 H 81.4305 -1.06824 4.72987 0
M  V30 935 N 82.7736 -1.49793 -0.48987 0
M  V30 936 C 83.7366 -1.66752 -1.57246 0
M  V30 937 C 84.7366 -0.538867 -1.51502 0
M  V30 938 O 85.9266 -0.805545 -1.54456 0
M  V30 939 C 83.0586 -1.67528 -2.96896 0
M  V30 940 H 84.2516 -2.63321 -1.43534 0
M  V30 941 H 81.8046 -1.38992 -0.714914 0
M  V30 942 H 82.5396 -0.725837 -3.16073 0
M  V30 943 H 82.3246 -2.49504 -3.02473 0
M  V30 944 H 83.8146 -1.82667 -3.7553 0
M  V30 945 N 84.2517 0.741722 -1.39055 0
M  V30 946 C 85.2147 1.83733 -1.37021 0
M  V30 947 C 86.2147 1.58542 -0.268534 0
M  V30 948 O 87.4047 1.66067 -0.526076 0
M  V30 949 C 84.5367 3.2141 -1.13617 0
M  V30 950 H 85.7297 1.86941 -2.34506 0
M  V30 951 H 83.2827 0.944676 -1.24521 0
M  V30 952 H 84.0177 3.23865 -0.167863 0
M  V30 953 H 83.8027 3.4109 -1.93391 0
M  V30 954 H 85.2927 4.01477 -1.14918 0
M  V30 955 N 85.7298 1.2412 0.971189 0
M  V30 956 C 86.9788 1.07284 1.70801 0
M  V30 957 C 87.2918 -0.388902 1.91695 0
M  V30 958 O 88.4978 -0.677379 2.62914 0
M  V30 959 C 86.9538 1.87145 3.07416 0
M  V30 960 C 86.5618 3.37707 2.94377 0
M  V30 961 C 88.3058 1.78828 3.84995 0
M  V30 962 C 86.2128 4.09925 4.26281 0
M  V30 963 H 85.1428 0.397854 0.64049 0
M  V30 964 H 87.7938 1.4817 1.0825 0
M  V30 965 H 86.1758 1.39071 3.70777 0
M  V30 966 H 87.3498 3.93335 2.4005 0
M  V30 967 H 85.6648 3.46938 2.30267 0
M  V30 968 H 88.2618 2.30089 4.82662 0
M  V30 969 H 88.6048 0.75284 4.09436 0
M  V30 970 H 89.1378 2.24563 3.28354 0
M  V30 971 H 85.8768 5.13813 4.07033 0
M  V30 972 H 85.3968 3.59083 4.80437 0
M  V30 973 H 87.0758 4.1673 4.94919 0
M  V30 974 N 87.2079 -1.17134 1.05439 0
M  V30 975 C 88.4569 -1.86791 0.761049 0
M  V30 976 C 88.7699 -1.82072 -0.714795 0
M  V30 977 O 89.9759 -2.47223 -1.12218 0
M  V30 978 C 88.4319 -3.35166 1.31117 0
M  V30 979 C 88.0399 -3.48381 2.81664 0
M  V30 980 C 89.7839 -4.10134 1.09499 0
M  V30 981 C 87.6909 -4.90793 3.29964 0
M  V30 982 H 86.6209 -0.699681 0.281002 0
M  V30 983 H 89.2719 -1.3226 1.27199 0
M  V30 984 H 87.6539 -3.8925 0.72803 0
M  V30 985 H 88.8279 -3.04502 3.45855 0
M  V30 986 H 87.1429 -2.86836 3.01851 0
M  V30 987 H 89.7399 -5.152 1.43084 0
M  V30 988 H 90.0829 -4.16287 0.0328772 0
M  V30 989 H 90.6159 -3.62264 1.64346 0
M  V30 990 H 87.3549 -4.89816 4.35616 0
M  V30 991 H 86.8749 -5.35333 2.70516 0
M  V30 992 H 88.5539 -5.59573 3.24787 0
M  V30 993 N 88.686 -0.835752 -1.33615 0
M  V30 994 C 89.636 -0.238856 -2.26745 0
M  V30 995 C 90.62 0.604343 -1.49119 0
M  V30 996 O 91.812 0.456822 -1.71003 0
M  V30 997 C 88.941 0.587725 -3.38232 0
M  V30 998 C 88.027 -0.266811 -4.2326 0
M  V30 999 N 88.418 -1.34403 -4.87616 0
M  V30 1000 C 86.716 -0.0533131 -4.45968 0
M  V30 1001 C 87.417 -1.86819 -5.50884 0
M  V30 1002 N 86.393 -1.17013 -5.30857 0
M  V30 1003 H 90.195 -1.06266 -2.74016 0
M  V30 1004 H 87.709 -0.679881 -1.47483 0
M  V30 1005 H 89.706 1.03161 -4.03935 0
M  V30 1006 H 88.366 1.40954 -2.9251 0
M  V30 1007 H 89.377 -1.7269 -4.88261 0
M  V30 1008 H 86.054 0.735312 -4.10974 0
M  V30 1009 H 87.444 -2.7701 -6.1214 0
M  V30 1010 N 90.1641 1.46063 -0.591896 0
M  V30 1011 C 91.4121 2.01938 -0.0808391 0
M  V30 1012 C 91.7331 1.46475 1.28725 0
M  V30 1013 O 91.0031 0.652944 1.84698 0
M  V30 1014 H 89.5831 0.746516 -0.0268938 0
M  V30 1015 H 92.2451 1.79055 -0.769752 0
M  V30 1016 H 91.3411 3.12094 -0.0187578 0
M  V30 1017 N 91.6422 0.330177 1.54103 0
M  V30 1018 C 92.6052 -0.520144 2.2322 0
M  V30 1019 C 93.6052 -1.03828 1.22786 0
M  V30 1020 O 94.7952 -0.929652 1.4732 0
M  V30 1021 C 91.9272 -1.72317 2.94142 0
M  V30 1022 H 93.1202 0.0841605 2.99782 0
M  V30 1023 H 90.6732 0.0813433 1.56088 0
M  V30 1024 H 91.4082 -2.36653 2.21734 0
M  V30 1025 H 91.1932 -1.35898 3.67796 0
M  V30 1026 H 92.6832 -2.3266 3.46784 0
M  V30 1027 N 93.1203 -1.57491 0.0584922 0
M  V30 1028 C 94.3683 -1.92597 -0.612436 0
M  V30 1029 C 94.6893 -0.938162 -1.70949 0
M  V30 1030 O 93.9593 0.0158301 -1.95894 0
M  V30 1031 H 92.5393 -0.710964 -0.229214 0
M  V30 1032 H 95.2013 -1.94571 0.113218 0
M  V30 1033 H 94.2973 -2.94038 -1.04633 0
M  V30 1034 N 94.5984 0.214957 -1.56127 0
M  V30 1035 C 95.5284 1.2695 -1.95974 0
M  V30 1036 C 96.5094 1.48539 -0.828868 0
M  V30 1037 O 97.6944 1.60611 -1.09168 0
M  V30 1038 C 94.8244 2.61794 -2.28214 0
M  V30 1039 C 93.7784 2.54851 -3.43853 0
M  V30 1040 C 93.1044 3.93785 -3.61715 0
M  V30 1041 C 94.4044 2.09065 -4.78632 0
M  V30 1042 H 96.0984 0.93846 -2.84312 0
M  V30 1043 H 93.6444 0.449996 -1.36788 0
M  V30 1044 H 95.5974 3.35731 -2.54682 0
M  V30 1045 H 94.3214 2.96599 -1.36736 0
M  V30 1046 H 92.9804 1.8337 -3.17444 0
M  V30 1047 H 92.6284 4.25908 -2.67602 0
M  V30 1048 H 92.3284 3.90019 -4.39498 0
M  V30 1049 H 93.8524 4.69374 -3.90539 0
M  V30 1050 H 95.2664 2.7275 -5.04262 0
M  V30 1051 H 93.6634 2.16346 -5.59745 0
M  V30 1052 H 94.7334 1.04315 -4.73547 0
M  V30 1053 N 96.0765 1.50051 0.48192 0
M  V30 1054 C 97.4875 1.5348 1.06305 0
M  V30 1055 C 97.8385 0.331997 1.93371 0
M  V30 1056 O 96.9635 -0.556256 2.09129 0
M  V30 1057 C 97.5585 2.7813 1.93466 0
M  V30 1058 C 96.1175 2.84275 2.46707 0
M  V30 1059 C 95.2645 2.47637 1.24785 0
M  V30 1060 H 98.2155 1.56472 0.264995 0
M  V30 1061 H 98.2365 2.59372 2.78399 0
M  V30 1062 H 97.7485 3.65654 1.30072 0
M  V30 1063 H 95.8495 2.01077 3.13686 0
M  V30 1064 H 95.9625 3.8691 2.82555 0
M  V30 1065 H 94.3265 1.99835 1.57918 0
M  V30 1066 H 95.1095 3.37457 0.630694 0
M  V30 1067 N 97.5546 -0.734337 1.39446 0
M  V30 1068 C 98.4846 -1.86155 1.40955 0
M  V30 1069 C 99.4656 -1.67898 0.272827 0
M  V30 1070 O 100.651 -1.88207 0.478743 0
M  V30 1071 C 97.7806 -3.23912 1.25294 0
M  V30 1072 C 96.7346 -3.56808 2.36373 0
M  V30 1073 C 96.0606 -4.93508 2.058 0
M  V30 1074 C 97.3606 -3.59713 3.78687 0
M  V30 1075 H 99.0546 -1.8515 2.35287 0
M  V30 1076 H 96.6006 -0.889367 1.13253 0
M  V30 1077 H 98.5536 -4.02443 1.2497 0
M  V30 1078 H 97.2776 -3.25446 0.274308 0
M  V30 1079 H 95.9366 -2.80606 2.35914 0
M  V30 1080 H 95.5846 -4.91623 1.06374 0
M  V30 1081 H 95.2846 -5.16486 2.80208 0
M  V30 1082 H 96.8086 -5.74396 2.07128 0
M  V30 1083 H 98.2226 -4.2832 3.81071 0
M  V30 1084 H 96.6196 -3.94209 4.52459 0
M  V30 1085 H 97.6896 -2.59504 4.09617 0
M  V30 1086 N 99.0327 -1.24633 -0.964593 0
M  V30 1087 C 99.9657 -0.984662 -2.05863 0
M  V30 1088 C 100.944 0.0826554 -1.6239 0
M  V30 1089 O 102.128 -0.0549296 -1.8842 0
M  V30 1090 C 99.2547 -0.486529 -3.35187 0
M  V30 1091 C 98.3007 -1.54286 -3.97615 0
M  V30 1092 S 99.1337 -3.12513 -4.34851 0
M  V30 1093 C 100.29 -2.6441 -5.67308 0
M  V30 1094 H 100.523 -1.91104 -2.27743 0
M  V30 1095 H 98.0557 -1.08052 -1.10291 0
M  V30 1096 H 100.014 -0.205757 -4.09984 0
M  V30 1097 H 98.6747 0.419186 -3.1129 0
M  V30 1098 H 97.8677 -1.14481 -4.90826 0
M  V30 1099 H 97.4697 -1.7738 -3.2926 0
M  V30 1100 H 99.7617 -2.07416 -6.44969 0
M  V30 1101 H 100.705 -3.56222 -6.11973 0
M  V30 1102 H 101.113 -2.04734 -5.26065 0
M  V30 1103 N 100.511 1.16574 -1.06058 0
M  V30 1104 C 101.444 2.19798 -0.61352 0
M  V30 1105 C 102.422 1.58509 0.362453 0
M  V30 1106 O 103.606 1.86527 0.271994 0
M  V30 1107 C 100.733 3.3855 0.100915 0
M  V30 1108 C 99.7788 4.18317 -0.831438 0
M  V30 1109 S 100.612 4.82375 -2.32539 0
M  V30 1110 C 101.768 6.04508 -1.62238 0
M  V30 1111 H 102.001 2.5738 -1.48805 0
M  V30 1112 H 99.5338 1.27327 -0.873338 0
M  V30 1113 H 101.492 4.07358 0.506898 0
M  V30 1114 H 100.153 2.99338 0.951604 0
M  V30 1115 H 99.3458 5.03232 -0.278071 0
M  V30 1116 H 98.9478 3.5499 -1.17719 0
M  V30 1117 H 101.24 6.71133 -0.926622 0
M  V30 1118 H 102.183 6.64389 -2.44934 0
M  V30 1119 H 102.591 5.53559 -1.106 0
M  V30 1120 N 101.989 0.842826 1.3317 0
M  V30 1121 C 102.919 0.294028 2.31641 0
M  V30 1122 C 103.9 -0.600401 1.59151 0
M  V30 1123 O 105.085 -0.523124 1.87022 0
M  V30 1124 C 102.215 -0.528416 3.43257 0
M  V30 1125 C 101.169 0.27056 4.27144 0
M  V30 1126 C 100.495 -0.675881 5.30411 0
M  V30 1127 C 101.795 1.48981 5.00602 0
M  V30 1128 H 103.489 1.11681 2.77791 0
M  V30 1129 H 101.035 0.538478 1.33553 0
M  V30 1130 H 102.988 -0.922674 4.11175 0
M  V30 1131 H 101.712 -1.38445 2.95805 0
M  V30 1132 H 100.371 0.646427 3.60856 0
M  V30 1133 H 100.019 -1.52842 4.79216 0
M  V30 1134 H 99.7189 -0.145374 5.8742 0
M  V30 1135 H 101.243 -1.06757 6.01195 0
M  V30 1136 H 102.657 1.16849 5.61266 0
M  V30 1137 H 101.054 1.95739 5.6728 0
M  V30 1138 H 102.124 2.25746 4.29147 0
M  V30 1139 N 103.467 -1.45747 0.599634 0
M  V30 1140 C 104.713 -2.02592 0.0918643 0
M  V30 1141 C 105.046 -1.46806 -1.27128 0
M  V30 1142 O 104.321 -0.639658 -1.83681 0
M  V30 1143 C 104.604 -3.60073 0.0443398 0
M  V30 1144 C 104.457 -4.26208 1.43759 0
M  V30 1145 C 105.776 -4.35309 -0.647608 0
M  V30 1146 H 102.895 -0.736175 0.034857 0
M  V30 1147 H 105.537 -1.73694 0.770081 0
M  V30 1148 H 103.687 -3.84823 -0.533224 0
M  V30 1149 H 105.359 -4.12668 2.06162 0
M  V30 1150 H 103.602 -3.84916 2.00056 0
M  V30 1151 H 104.273 -5.35069 1.35665 0
M  V30 1152 H 106.749 -4.15805 -0.156776 0
M  V30 1153 H 105.625 -5.45038 -0.649942 0
M  V30 1154 H 105.886 -4.07598 -1.71219 0
M  V30 1155 N 104.945 -0.338344 -1.53925 0
M  V30 1156 C 106.192 0.259758 -2.00827 0
M  V30 1157 C 106.52 1.50973 -1.22628 0
M  V30 1158 O 105.775 1.93379 -0.300509 0
M  V30 1159 C 106.074 0.62448 -3.51902 0
M  V30 1160 C 105.74 -0.528006 -4.47798 0
M  V30 1161 C 104.402 -0.844298 -4.73735 0
M  V30 1162 C 106.754 -1.30143 -5.0469 0
M  V30 1163 C 104.082 -1.93648 -5.53821 0
M  V30 1164 C 106.434 -2.38382 -5.85967 0
M  V30 1165 C 105.098 -2.70576 -6.10201 0
M  V30 1166 H 104.368 0.0950523 -0.734878 0
M  V30 1167 H 107.015 -0.465182 -1.85764 0
M  V30 1168 H 105.32 1.43006 -3.64769 0
M  V30 1169 H 107.017 1.09905 -3.85645 0
M  V30 1170 H 103.607 -0.271421 -4.2774 0
M  V30 1171 H 107.791 -1.07033 -4.84621 0
M  V30 1172 H 103.047 -2.19021 -5.70824 0
M  V30 1173 H 107.221 -2.98746 -6.29066 0
M  V30 1174 H 104.848 -3.55333 -6.72044 0
M  V30 1175 N 106.423 1.57458 -0.0668435 0
M  V30 1176 C 107.671 1.92919 0.602214 0
M  V30 1177 C 107.992 0.947215 1.70449 0
M  V30 1178 O 107.262 -0.00544117 1.95899 0
M  V30 1179 H 105.842 0.71217 0.22544 0
M  V30 1180 H 108.504 1.94508 -0.123535 0
M  V30 1181 H 107.6 2.94589 1.03073 0
M  V30 1182 N 107.901 -0.206675 1.56239 0
M  V30 1183 C 108.811 -1.27686 1.96808 0
M  V30 1184 C 109.827 -1.50455 0.874035 0
M  V30 1185 O 111.003 -1.63295 1.17884 0
M  V30 1186 C 108.068 -2.60358 2.28942 0
M  V30 1187 C 107.129 -2.45762 3.51994 0
M  V30 1188 C 106.362 -3.72108 3.82585 0
M  V30 1189 O 106.585 -4.75776 3.14631 0
M  V30 1190 O 105.519 -3.6833 4.76043 0
M  V30 1191 H 109.345 -0.962593 2.88041 0
M  V30 1192 H 106.93 -0.410746 1.43643 0
M  V30 1193 H 108.812 -3.38687 2.50737 0
M  V30 1194 H 107.487 -2.91435 1.4088 0
M  V30 1195 H 106.394 -1.65584 3.35459 0
M  V30 1196 H 107.727 -2.19621 4.40486 0
M  V30 1197 N 109.379 -1.50304 -0.473955 0
M  V30 1198 C 110.312 -1.63595 -1.59097 0
M  V30 1199 C 111.29 -0.484142 -1.55225 0
M  V30 1200 O 112.474 -0.703271 -1.7489 0
M  V30 1201 C 109.601 -1.61589 -2.97669 0
M  V30 1202 C 108.647 -2.82295 -3.19705 0
M  V30 1203 S 109.48 -4.43635 -2.99913 0
M  V30 1204 C 110.636 -4.44317 -4.40832 0
M  V30 1205 H 110.869 -2.58082 -1.47583 0
M  V30 1206 H 108.402 -1.39531 -0.661087 0
M  V30 1207 H 110.36 -1.61116 -3.7756 0
M  V30 1208 H 109.021 -0.683421 -3.06575 0
M  V30 1209 H 108.214 -2.77188 -4.20931 0
M  V30 1210 H 107.816 -2.8032 -2.47582 0
M  V30 1211 H 110.108 -4.17703 -5.33414 0
M  V30 1212 H 111.051 -5.45911 -4.50984 0
M  V30 1213 H 111.459 -3.74059 -4.22777 0
M  V30 1214 N 110.857 0.726932 -1.39834 0
M  V30 1215 C 112.085 1.51613 -1.40787 0
M  V30 1216 C 112.5 1.88799 -0.00451505 0
M  V30 1217 O 111.857 1.54662 0.968809 0
M  V30 1218 C 111.908 2.79863 -2.28821 0
M  V30 1219 O 111.629 2.44253 -3.63692 0
M  V30 1220 C 113.13 3.73837 -2.38245 0
M  V30 1221 H 110.35 0.468264 -0.480593 0
M  V30 1222 H 112.894 0.897607 -1.83748 0
M  V30 1223 H 111.049 3.38027 -1.89252 0
M  V30 1224 H 111.463 3.26695 -4.1033 0
M  V30 1225 H 112.937 4.60699 -3.04073 0
M  V30 1226 H 113.414 4.16153 -1.40403 0
M  V30 1227 H 114.02 3.21589 -2.78317 0
M  V30 1228 N 112.336 1.25143 0.95797 0
M  V30 1229 C 113.613 1.00472 1.67823 0
M  V30 1230 C 113.993 -0.470056 2.058 0
M  V30 1231 O 113.341 -1.44663 1.76875 0
M  V30 1232 C 113.551 1.9372 2.90299 0
M  V30 1233 C 114.899 2.21371 3.62326 0
M  V30 1234 O 115.923 1.91451 3.00375 0
M  V30 1235 O 114.782 2.72231 4.7387 0
M  V30 1236 H 111.876 0.380752 0.734137 0
M  V30 1237 H 114.422 1.36283 1.01119 0
M  V30 1238 H 113.194 2.93316 2.59001 0
M  V30 1239 H 112.817 1.58286 3.64735 0
M  V30 1240 N 113.814 -1.1601 1.06675 0
M  V30 1241 C 115.063 -1.85973 0.780818 0
M  V30 1242 C 115.376 -1.82819 -0.695444 0
M  V30 1243 O 116.582 -2.484 -1.09589 0
M  V30 1244 C 115.038 -3.33757 1.34665 0
M  V30 1245 C 114.646 -3.45374 2.85343 0
M  V30 1246 C 116.39 -4.0895 1.13843 0
M  V30 1247 C 114.297 -4.87266 3.35151 0
M  V30 1248 H 113.227 -0.696661 0.288407 0
M  V30 1249 H 115.878 -1.30903 1.28595 0
M  V30 1250 H 114.26 -3.88456 0.769274 0
M  V30 1251 H 115.434 -3.00816 3.49065 0
M  V30 1252 H 113.749 -2.83619 3.04876 0
M  V30 1253 H 116.346 -5.13654 1.4854 0
M  V30 1254 H 116.689 -4.16229 0.0770282 0
M  V30 1255 H 117.222 -3.605 1.68179 0
M  V30 1256 H 113.961 -4.85168 4.40786 0
M  V30 1257 H 113.481 -5.32433 2.76179 0
M  V30 1258 H 115.16 -5.56097 3.30704 0
M  V30 1259 N 115.292 -0.849877 -1.32721 0
M  V30 1260 C 116.539 -0.450923 -1.97416 0
M  V30 1261 C 116.867 0.992376 -1.67279 0
M  V30 1262 O 116.122 1.71048 -0.950845 0
M  V30 1263 C 116.421 -0.631272 -3.51781 0
M  V30 1264 C 116.087 -2.04432 -4.01894 0
M  V30 1265 C 114.749 -2.4308 -4.1529 0
M  V30 1266 C 117.101 -2.96679 -4.28522 0
M  V30 1267 C 114.429 -3.73257 -4.52654 0
M  V30 1268 C 116.781 -4.26349 -4.67343 0
M  V30 1269 C 115.445 -4.64939 -4.78945 0
M  V30 1270 H 114.715 -0.165004 -0.722395 0
M  V30 1271 H 117.362 -1.07901 -1.58207 0
M  V30 1272 H 115.667 0.0800767 -3.91718 0
M  V30 1273 H 117.364 -0.302709 -3.99856 0
M  V30 1274 H 113.954 -1.73419 -3.91949 0
M  V30 1275 H 118.138 -2.68054 -4.17685 0
M  V30 1276 H 113.394 -4.02946 -4.59831 0
M  V30 1277 H 117.568 -4.97895 -4.86902 0
M  V30 1278 H 115.195 -5.65855 -5.07654 0
M  V30 1279 N 116.77 1.45427 -0.607355 0
M  V30 1280 C 117.733 2.28974 0.101693 0
M  V30 1281 C 118.733 1.39754 0.795329 0
M  V30 1282 O 119.923 1.61878 0.643527 0
M  V30 1283 C 117.055 3.20768 1.15414 0
M  V30 1284 H 118.248 2.93147 -0.632844 0
M  V30 1285 H 115.801 1.51945 -0.366391 0
M  V30 1286 H 116.536 2.61395 1.91945 0
M  V30 1287 H 116.321 3.86489 0.66098 0
M  V30 1288 H 117.811 3.83589 1.65073 0
M  V30 1289 N 118.248 0.346503 1.53744 0
M  V30 1290 C 119.196 -0.52422 2.26616 0
M  V30 1291 C 120.19 -1.09948 1.28871 0
M  V30 1292 O 121.396 -1.04488 1.46568 0
M  V30 1293 H 117.771 -0.187743 0.728187 0
M  V30 1294 H 119.742 0.11239 2.98188 0
M  V30 1295 C 118.491 -1.66186 3.05414 0
M  V30 1296 H 117.814 -1.22848 3.80458 0
M  V30 1297 H 119.254 -2.24622 3.59612 0
M  V30 1298 C 117.713 -2.59302 2.1509 0
M  V30 1299 O 118.243 -3.61628 1.74895 0
M  V30 1300 N 116.449 -2.28055 1.8011 0
M  V30 1301 H 115.996 -1.44883 2.12994 0
M  V30 1302 H 115.954 -2.90615 1.19958 0
M  V30 1303 N 119.726 -1.57421 0.075193 0
M  V30 1304 C 120.689 -2.11791 -0.876203 0
M  V30 1305 C 121.689 -1.04268 -1.22412 0
M  V30 1306 O 122.879 -1.30242 -1.15684 0
M  V30 1307 C 120.011 -2.62207 -2.17854 0
M  V30 1308 H 121.204 -2.9716 -0.40444 0
M  V30 1309 H 118.757 -1.55333 -0.173557 0
M  V30 1310 H 119.492 -1.803 -2.6956 0
M  V30 1311 H 119.277 -3.40802 -1.93897 0
M  V30 1312 H 120.767 -3.04335 -2.85955 0
M  V30 1313 N 121.204 0.198386 -1.56346 0
M  V30 1314 C 122.452 0.91747 -1.80075 0
M  V30 1315 C 122.773 1.83929 -0.647692 0
M  V30 1316 O 122.043 1.93029 0.334166 0
M  V30 1317 H 120.623 0.341774 -0.664228 0
M  V30 1318 H 123.285 0.204684 -1.93822 0
M  V30 1319 H 122.381 1.51055 -2.7311 0
M  V30 1320 N 122.682 1.50554 0.465978 0
M  V30 1321 C 123.63 1.70324 1.58406 0
M  V30 1322 C 124.624 0.569139 1.59553 0
M  V30 1323 O 125.83 0.749776 1.63641 0
M  V30 1324 H 122.205 0.537688 0.525734 0
M  V30 1325 H 124.176 2.64104 1.38894 0
M  V30 1326 C 122.925 1.81928 2.96307 0
M  V30 1327 H 122.248 2.68586 2.96144 0
M  V30 1328 H 123.688 1.99784 3.73982 0
M  V30 1329 C 122.147 0.572095 3.32007 0
M  V30 1330 O 122.677 -0.286416 4.00678 0
M  V30 1331 N 120.883 0.424606 2.87481 0
M  V30 1332 H 120.43 1.12427 2.31771 0
M  V30 1333 H 120.388 -0.408697 3.11732 0
M  V30 1334 N 124.16 -0.719506 1.40217 0
M  V30 1335 C 125.09 -1.8465 1.42922 0
M  V30 1336 C 126.071 -1.67599 0.29062 0
M  V30 1337 O 127.256 -1.87688 0.498677 0
M  V30 1338 C 124.386 -3.22565 1.28722 0
M  V30 1339 C 123.34 -3.54281 2.40144 0
M  V30 1340 C 122.666 -4.91298 2.11023 0
M  V30 1341 C 123.966 -3.55676 3.82481 0
M  V30 1342 H 125.66 -1.82644 2.37237 0
M  V30 1343 H 123.206 -0.877305 1.1419 0
M  V30 1344 H 125.159 -4.01095 1.29232 0
M  V30 1345 H 123.883 -3.25137 0.308811 0
M  V30 1346 H 122.542 -2.78088 2.38877 0
M  V30 1347 H 122.19 -4.90468 1.11582 0
M  V30 1348 H 121.89 -5.13485 2.8567 0
M  V30 1349 H 123.414 -5.72166 2.13209 0
M  V30 1350 H 124.828 -4.24254 3.85592 0
M  V30 1351 H 123.225 -3.89388 4.56614 0
M  V30 1352 H 124.295 -2.55144 4.12346 0
M  V30 1353 N 125.638 -1.25649 -0.95132 0
M  V30 1354 C 126.548 -1.08073 -2.08224 0
M  V30 1355 C 127.564 -0.0169666 -1.73992 0
M  V30 1356 O 128.74 -0.218593 -2.0021 0
M  V30 1357 C 125.805 -0.704922 -3.39458 0
M  V30 1358 C 124.866 -1.84699 -3.87537 0
M  V30 1359 C 124.099 -1.48902 -5.12508 0
M  V30 1360 O 124.322 -0.386156 -5.69091 0
M  V30 1361 O 123.256 -2.32033 -5.55378 0
M  V30 1362 H 127.082 -2.02924 -2.25954 0
M  V30 1363 H 124.667 -1.04618 -1.06656 0
M  V30 1364 H 126.549 -0.507609 -4.18332 0
M  V30 1365 H 125.224 0.214291 -3.2299 0
M  V30 1366 H 124.131 -2.09919 -3.09653 0
M  V30 1367 H 125.464 -2.74557 -4.08509 0
M  V30 1368 N 127.117 1.15442 -1.07289 0
M  V30 1369 C 128.394 1.82306 -0.708792 0
M  V30 1370 C 128.774 1.94991 0.808807 0
M  V30 1371 O 128.122 1.50085 1.72298 0
M  V30 1372 C 128.332 3.18695 -1.42247 0
M  V30 1373 C 129.68 3.94341 -1.57417 0
M  V30 1374 O 130.704 3.28247 -1.38319 0
M  V30 1375 O 129.563 5.12839 -1.88834 0
M  V30 1376 H 126.657 0.787628 -0.252132 0
M  V30 1377 H 129.203 1.22559 -1.17377 0
M  V30 1378 H 127.975 3.04557 -2.45684 0
M  V30 1379 H 127.598 3.86128 -0.948223 0
M  V30 1380 N 128.595 0.856903 1.32268 0
M  V30 1381 C 129.525 0.31858 2.31316 0
M  V30 1382 C 130.506 -0.583487 1.59779 0
M  V30 1383 O 131.691 -0.503259 1.87566 0
M  V30 1384 C 128.821 -0.491979 3.43798 0
M  V30 1385 C 127.775 0.315849 4.26833 0
M  V30 1386 C 127.101 -0.619586 5.31098 0
M  V30 1387 C 128.401 1.54282 4.98993 0
M  V30 1388 H 130.095 1.14621 2.76591 0
M  V30 1389 H 127.641 0.552613 1.32974 0
M  V30 1390 H 129.594 -0.879012 4.1213 0
M  V30 1391 H 128.318 -1.35299 2.97257 0
M  V30 1392 H 126.977 0.684664 3.6015 0
M  V30 1393 H 126.625 -1.47751 4.8081 0
M  V30 1394 H 126.325 -0.0830621 5.87541 0
M  V30 1395 H 127.849 -1.00375 6.02293 0
M  V30 1396 H 129.263 1.22796 5.59995 0
M  V30 1397 H 127.66 2.01745 5.65172 0
M  V30 1398 H 128.73 2.30285 4.26728 0
M  V30 1399 N 130.073 -1.45103 0.615059 0
M  V30 1400 C 131.006 -2.27717 -0.148408 0
M  V30 1401 C 131.984 -1.37584 -0.866572 0
M  V30 1402 O 133.168 -1.67017 -0.87393 0
M  V30 1403 C 130.295 -3.16136 -1.21557 0
M  V30 1404 C 129.341 -4.22263 -0.599712 0
M  V30 1405 S 130.174 -5.3215 0.598081 0
M  V30 1406 C 131.33 -6.24137 -0.469484 0
M  V30 1407 H 131.563 -2.92121 0.552483 0
M  V30 1408 H 129.096 -1.49054 0.402778 0
M  V30 1409 H 131.054 -3.67633 -1.82638 0
M  V30 1410 H 129.715 -2.50982 -1.88857 0
M  V30 1411 H 128.908 -4.84081 -1.4029 0
M  V30 1412 H 128.51 -3.73945 -0.063876 0
M  V30 1413 H 130.802 -6.63984 -1.34652 0
M  V30 1414 H 131.745 -7.0801 0.112725 0
M  V30 1415 H 132.153 -5.58971 -0.788168 0
M  V30 1416 N 131.551 -0.354651 -1.53558 0
M  V30 1417 C 132.776 0.242153 -2.05981 0
M  V30 1418 C 133.201 1.42553 -1.2272 0
M  V30 1419 O 132.559 1.79656 -0.243604 0
M  V30 1420 C 132.607 0.624367 -3.55154 0
M  V30 1421 O 131.711 1.72301 -3.74681 0
M  V30 1422 H 131.052 0.0378432 -0.662921 0
M  V30 1423 H 133.582 -0.512087 -1.98088 0
M  V30 1424 H 133.592 0.898433 -3.97985 0
M  V30 1425 H 132.267 -0.240989 -4.15201 0
M  V30 1426 H 130.844 1.44535 -3.4375 0
M  V30 1427 N 133.029 1.57378 -0.0835403 0
M  V30 1428 C 133.977 2.14602 0.89714 0
M  V30 1429 C 134.971 1.08589 1.30018 0
M  V30 1430 O 136.177 1.26952 1.27606 0
M  V30 1431 H 132.552 0.686346 0.3073 0
M  V30 1432 H 134.523 2.95845 0.38969 0
M  V30 1433 C 133.272 2.73188 2.15089 0
M  V30 1434 H 132.595 3.54442 1.84962 0
M  V30 1435 H 134.035 3.1681 2.81793 0
M  V30 1436 C 132.494 1.68517 2.91725 0
M  V30 1437 O 133.024 1.11718 3.85852 0
M  V30 1438 N 131.23 1.39277 2.55049 0
M  V30 1439 H 130.777 1.85655 1.78577 0
M  V30 1440 H 130.735 0.694791 3.06627 0
M  V30 1441 N 134.507 -0.190092 1.56449 0
M  V30 1442 C 135.756 -0.907912 1.80111 0
M  V30 1443 C 136.069 -1.84214 0.657619 0
M  V30 1444 O 137.275 -2.60094 0.778663 0
M  V30 1445 C 135.731 -1.66485 3.19078 0
M  V30 1446 C 135.339 -0.7752 4.41242 0
M  V30 1447 C 137.083 -2.37201 3.52045 0
M  V30 1448 C 134.99 -1.53129 5.71231 0
M  V30 1449 H 133.92 -0.34276 0.671589 0
M  V30 1450 H 136.571 -0.161109 1.82791 0
M  V30 1451 H 134.953 -2.45572 3.10661 0
M  V30 1452 H 136.127 -0.0226298 4.60794 0
M  V30 1453 H 134.442 -0.178627 4.16017 0
M  V30 1454 H 137.039 -2.94329 4.46402 0
M  V30 1455 H 137.382 -3.11632 2.76028 0
M  V30 1456 H 137.915 -1.65075 3.61932 0
M  V30 1457 H 134.654 -0.82967 6.50228 0
M  V30 1458 H 134.174 -2.25767 5.55688 0
M  V30 1459 H 135.853 -2.08377 6.12526 0
M  V30 1460 N 135.985 -1.50799 -0.457987 0
M  V30 1461 C 137.213 -1.66218 -1.23203 0
M  V30 1462 C 137.628 -0.350894 -1.85511 0
M  V30 1463 O 136.985 0.668546 -1.69814 0
M  V30 1464 C 137.036 -2.76291 -2.33121 0
M  V30 1465 O 136.757 -4.02338 -1.73366 0
M  V30 1466 C 138.258 -3.028 -3.2377 0
M  V30 1467 H 135.478 -0.558361 -0.372121 0
M  V30 1468 H 138.022 -1.97099 -0.545179 0
M  V30 1469 H 136.177 -2.48068 -2.97558 0
M  V30 1470 H 136.591 -4.63312 -2.4585 0
M  V30 1471 H 138.065 -3.8345 -3.97077 0
M  V30 1472 H 138.542 -2.14385 -3.83322 0
M  V30 1473 H 139.148 -3.32604 -2.65056 0
M  V30 1474 N 137.463 0.71206 -1.40597 0
M  V30 1475 C 138.411 1.84746 -1.41321 0
M  V30 1476 C 139.405 1.66842 -0.293268 0
M  V30 1477 O 140.611 1.73904 -0.464481 0
M  V30 1478 H 136.986 0.608522 -0.441819 0
M  V30 1479 H 138.957 1.81252 -2.37045 0
M  V30 1480 C 137.706 3.22638 -1.29614 0
M  V30 1481 H 137.029 3.37023 -2.15071 0
M  V30 1482 H 138.469 4.02209 -1.3418 0
M  V30 1483 C 136.928 3.36899 -0.00673121 0
M  V30 1484 O 137.458 3.90186 0.954859 0
M  V30 1485 N 135.664 2.9053 0.0639327 0
M  V30 1486 H 135.211 2.47353 -0.719311 0
M  V30 1487 H 135.169 3.0045 0.926118 0
M  V30 1488 N 138.941 1.26152 0.944643 0
M  V30 1489 C 140.357 1.03189 1.21754 0
M  V30 1490 C 140.557 -0.245112 2.00004 0
M  V30 1491 O 139.613 -0.955176 2.33736 0
M  V30 1492 C 140.926 2.26119 1.98219 0
M  V30 1493 C 142.474 2.30984 2.11224 0
M  V30 1494 C 142.949 3.53597 2.91089 0
M  V30 1495 N 144.44 3.54053 2.98664 0
M  V30 1496 C 145.175 4.45593 3.60881 0
M  V30 1497 N 144.671 5.47416 4.24626 0
M  V30 1498 N 146.464 4.33252 3.58119 0
M  V30 1499 H 138.615 2.08177 0.421437 0
M  V30 1500 H 140.878 0.914723 0.248969 0
M  V30 1501 H 140.584 3.18984 1.48128 0
M  V30 1502 H 140.458 2.3009 2.98895 0
M  V30 1503 H 142.845 1.38635 2.60508 0
M  V30 1504 H 142.926 2.31026 1.09821 0
M  V30 1505 H 142.57 4.46273 2.42493 0
M  V30 1506 H 142.5 3.50802 3.92741 0
M  V30 1507 H 144.991 2.80403 2.53343 0
M  V30 1508 H 145.304 6.13459 4.69987 0
M  V30 1509 H 143.649 5.51278 4.23223 0
M  V30 1510 H 146.84 3.52924 3.0751 0
M  V30 1511 H 147.013 5.04786 4.06319 0
M  V30 1512 N 140.419 -1.14872 1.07899 0
M  V30 1513 C 141.644 -1.90202 0.826926 0
M  V30 1514 C 142.069 -1.77774 -0.614664 0
M  V30 1515 O 141.427 -1.11431 -1.43013 0
M  V30 1516 C 141.475 -3.38352 1.24702 0
M  V30 1517 O 140.579 -4.10497 0.39575 0
M  V30 1518 H 139.92 -0.591968 0.300782 0
M  V30 1519 H 142.45 -1.45437 1.43907 0
M  V30 1520 H 142.46 -3.89156 1.22563 0
M  V30 1521 H 141.135 -3.46715 2.29698 0
M  V30 1522 H 139.712 -3.69796 0.480117 0
M  V30 1523 N 141.898 -0.863906 -1.31812 0
M  V30 1524 C 143.175 -0.39275 -1.91616 0
M  V30 1525 C 143.555 1.12461 -1.7865 0
M  V30 1526 O 142.903 1.95045 -1.19037 0
M  V30 1527 C 143.113 -0.867385 -3.38049 0
M  V30 1528 C 144.461 -0.889966 -4.15168 0
M  V30 1529 O 145.485 -0.812635 -3.46806 0
M  V30 1530 O 144.344 -1.00079 -5.37258 0
M  V30 1531 H 141.438 -0.116358 -0.818773 0
M  V30 1532 H 143.984 -0.951418 -1.40521 0
M  V30 1533 H 142.756 -1.91081 -3.41473 0
M  V30 1534 H 142.379 -0.286687 -3.96565 0
M  V30 1535 N 143.376 1.44774 -0.622745 0
M  V30 1536 C 144.625 2.01334 -0.121397 0
M  V30 1537 C 144.938 1.49505 1.26125 0
M  V30 1538 O 146.144 1.98139 1.85616 0
M  V30 1539 C 144.6 3.59516 -0.166298 0
M  V30 1540 C 144.208 4.20342 -1.54974 0
M  V30 1541 C 145.952 4.23582 0.279021 0
M  V30 1542 C 143.859 5.70721 -1.55021 0
M  V30 1543 H 142.789 0.752851 -0.0416172 0
M  V30 1544 H 145.44 1.66083 -0.780309 0
M  V30 1545 H 143.822 3.92027 0.559557 0
M  V30 1546 H 144.996 3.99381 -2.29851 0
M  V30 1547 H 143.311 3.68529 -1.93843 0
M  V30 1548 H 145.908 5.33868 0.298083 0
M  V30 1549 H 146.251 3.95327 1.30471 0
M  V30 1550 H 146.784 3.95843 -0.394063 0
M  V30 1551 H 143.523 6.03698 -2.55399 0
M  V30 1552 H 143.043 5.93829 -0.844245 0
M  V30 1553 H 144.722 6.34203 -1.28047 0
M  V30 1554 N 144.854 0.36279 1.53368 0
M  V30 1555 C 145.802 -0.500155 2.27159 0
M  V30 1556 C 146.796 -1.08575 1.3003 0
M  V30 1557 O 148.002 -1.02927 1.47668 0
M  V30 1558 H 144.377 -0.180009 0.730138 0
M  V30 1559 H 146.348 0.14401 2.98052 0
M  V30 1560 C 145.097 -1.62937 3.07159 0
M  V30 1561 H 144.42 -1.18806 3.8174 0
M  V30 1562 H 145.86 -2.20795 3.61975 0
M  V30 1563 C 144.319 -2.57007 2.17829 0
M  V30 1564 O 144.849 -3.59752 1.78721 0
M  V30 1565 N 143.055 -2.26131 1.82518 0
M  V30 1566 H 142.602 -1.42616 2.14519 0
M  V30 1567 H 142.56 -2.89327 1.23034 0
M  V30 1568 N 146.332 -1.57332 0.0918853 0
M  V30 1569 C 147.609 -1.85691 -0.614668 0
M  V30 1570 C 147.989 -0.988146 -1.86545 0
M  V30 1571 O 147.337 -0.0597055 -2.28422 0
M  V30 1572 C 147.547 -3.36294 -0.933126 0
M  V30 1573 C 148.895 -4.04275 -1.29796 0
M  V30 1574 O 149.919 -3.41157 -1.02424 0
M  V30 1575 O 148.778 -5.1564 -1.81047 0
M  V30 1576 H 145.872 -0.767802 -0.307261 0
M  V30 1577 H 148.418 -1.69244 0.12434 0
M  V30 1578 H 147.19 -3.91273 -0.0456404 0
M  V30 1579 H 146.813 -3.58076 -1.72822 0
M  V30 1580 N 147.81 0.181792 -1.56548 0
M  V30 1581 C 149.038 0.915947 -1.85521 0
M  V30 1582 C 149.453 1.76282 -0.676016 0
M  V30 1583 O 148.81 1.79012 0.355077 0
M  V30 1584 C 148.861 1.80126 -3.13427 0
M  V30 1585 O 148.582 0.988562 -4.26801 0
M  V30 1586 C 150.083 2.64597 -3.55673 0
M  V30 1587 H 147.303 0.26661 -0.61576 0
M  V30 1588 H 149.847 0.185039 -2.03661 0
M  V30 1589 H 148.002 2.48563 -2.97145 0
M  V30 1590 H 148.416 1.59308 -4.99721 0
M  V30 1591 H 149.89 3.2235 -4.48101 0
M  V30 1592 H 150.367 3.38958 -2.79292 0
M  V30 1593 H 150.973 2.0151 -3.74532 0
M  V30 1594 N 149.288 1.51039 0.449983 0
M  V30 1595 C 150.536 1.62759 1.19808 0
M  V30 1596 C 150.857 0.339981 1.92013 0
M  V30 1597 O 150.127 -0.643606 1.85026 0
M  V30 1598 H 148.707 0.599811 0.445237 0
M  V30 1599 H 151.369 1.87914 0.517138 0
M  V30 1600 H 150.465 2.44911 1.93455 0
M  V30 1601 N 150.766 -0.704594 1.40972 0
M  V30 1602 C 152.013 -1.46458 1.39844 0
M  V30 1603 C 152.341 -1.94499 0.00447594 0
M  V30 1604 O 151.596 -1.69275 -0.982057 0
M  V30 1605 C 151.895 -2.698 2.34399 0
M  V30 1606 C 151.561 -2.40464 3.81429 0
M  V30 1607 C 150.223 -2.32174 4.21484 0
M  V30 1608 C 152.575 -2.16086 4.74296 0
M  V30 1609 C 149.903 -1.97589 5.52427 0
M  V30 1610 C 152.255 -1.83011 6.05549 0
M  V30 1611 C 150.919 -1.7321 6.44635 0
M  V30 1612 H 150.189 -0.535927 0.511725 0
M  V30 1613 H 152.836 -0.806124 1.73706 0
M  V30 1614 H 151.141 -3.40536 1.93759 0
M  V30 1615 H 152.838 -3.27919 2.30804 0
M  V30 1616 H 149.428 -2.47808 3.49699 0
M  V30 1617 H 153.612 -2.2144 4.4416 0
M  V30 1618 H 148.868 -1.88547 5.81601 0
M  V30 1619 H 153.042 -1.63164 6.77016 0
M  V30 1620 H 150.669 -1.46179 7.46013 0
M  V30 1621 N 152.244 -1.26651 -0.937939 0
M  V30 1622 C 153.491 -1.12387 -1.6845 0
M  V30 1623 C 153.819 0.332208 -1.91642 0
M  V30 1624 O 153.074 1.2602 -1.49725 0
M  V30 1625 C 153.373 -1.84168 -3.06295 0
M  V30 1626 C 153.039 -3.34056 -3.02849 0
M  V30 1627 C 151.701 -3.74942 -3.01616 0
M  V30 1628 C 154.053 -4.29741 -2.9491 0
M  V30 1629 C 151.381 -5.09894 -2.90215 0
M  V30 1630 C 153.733 -5.64738 -2.8505 0
M  V30 1631 C 152.397 -6.0493 -2.82162 0
M  V30 1632 H 151.667 -0.411252 -0.616403 0
M  V30 1633 H 154.314 -1.57134 -1.09459 0
M  V30 1634 H 152.619 -1.319 -3.6893 0
M  V30 1635 H 154.316 -1.70569 -3.62915 0
M  V30 1636 H 150.906 -3.01534 -3.0459 0
M  V30 1637 H 155.09 -3.99133 -2.94969 0
M  V30 1638 H 150.346 -5.40194 -2.86358 0
M  V30 1639 H 154.52 -6.38561 -2.77872 0
M  V30 1640 H 152.147 -7.09457 -2.73084 0
M  V30 1641 N 153.722 1.14298 -1.08507 0
M  V30 1642 C 154.655 2.18447 -0.660004 0
M  V30 1643 C 155.633 1.59242 0.328749 0
M  V30 1644 O 156.817 1.87062 0.232367 0
M  V30 1645 C 153.944 3.38688 0.0290807 0
M  V30 1646 C 152.99 4.1646 -0.919982 0
M  V30 1647 S 153.823 4.77334 -2.42718 0
M  V30 1648 C 154.979 6.00931 -1.75024 0
M  V30 1649 H 155.212 2.54166 -1.54231 0
M  V30 1650 H 152.745 1.25446 -0.900149 0
M  V30 1651 H 154.703 4.08342 0.420378 0
M  V30 1652 H 153.364 3.01289 0.887895 0
M  V30 1653 H 152.557 5.02529 -0.384751 0
M  V30 1654 H 152.159 3.52414 -1.25223 0
M  V30 1655 H 154.451 6.69017 -1.06877 0
M  V30 1656 H 155.394 6.59044 -2.58971 0
M  V30 1657 H 155.802 5.51089 -1.22317 0
M  V30 1658 N 155.201 0.870884 1.31352 0
M  V30 1659 C 156.149 0.316445 2.30437 0
M  V30 1660 C 157.143 -0.568965 1.59559 0
M  V30 1661 O 158.349 -0.454964 1.74155 0
M  V30 1662 H 154.724 0.0836521 0.747333 0
M  V30 1663 H 156.695 1.16606 2.74673 0
M  V30 1664 C 155.444 -0.46635 3.44558 0
M  V30 1665 H 154.767 0.205687 3.99271 0
M  V30 1666 H 156.207 -0.819614 4.16003 0
M  V30 1667 C 154.666 -1.65797 2.9328 0
M  V30 1668 O 155.196 -2.75728 2.92125 0
M  V30 1669 N 153.402 -1.49041 2.4947 0
M  V30 1670 H 152.949 -0.59612 2.50608 0
M  V30 1671 H 152.907 -2.28911 2.15516 0
M  V30 1672 N 156.679 -1.44442 0.630414 0
M  V30 1673 C 157.609 -2.33418 -0.0618083 0
M  V30 1674 C 158.59 -1.48165 -0.835541 0
M  V30 1675 O 159.775 -1.76886 -0.801564 0
M  V30 1676 C 156.905 -3.31222 -1.04449 0
M  V30 1677 C 155.859 -4.26288 -0.382436 0
M  V30 1678 C 155.185 -5.13954 -1.47497 0
M  V30 1679 C 156.485 -5.1744 0.710865 0
M  V30 1680 H 158.179 -2.91548 0.681184 0
M  V30 1681 H 155.725 -1.40191 0.329026 0
M  V30 1682 H 157.678 -3.92351 -1.53748 0
M  V30 1683 H 156.402 -2.71299 -1.81836 0
M  V30 1684 H 155.061 -3.6649 0.0899054 0
M  V30 1685 H 154.709 -4.50385 -2.2397 0
M  V30 1686 H 154.409 -5.7837 -1.03737 0
M  V30 1687 H 155.933 -5.77955 -1.96979 0
M  V30 1688 H 157.347 -5.72509 0.300996 0
M  V30 1689 H 155.744 -5.90455 1.07156 0
M  V30 1690 H 156.814 -4.58496 1.57829 0
M  V30 1691 N 158.157 -0.370918 -1.53173 0
M  V30 1692 C 159.067 0.480823 -2.2962 0
M  V30 1693 C 160.083 1.08789 -1.35798 0
M  V30 1694 O 161.259 1.09768 -1.68858 0
M  V30 1695 C 158.324 1.60227 -3.07454 0
M  V30 1696 C 157.385 1.0222 -4.16953 0
M  V30 1697 C 156.618 2.0902 -4.91066 0
M  V30 1698 O 156.841 3.30222 -4.65091 0
M  V30 1699 O 155.775 1.71778 -5.76867 0
M  V30 1700 H 159.601 -0.141421 -3.03371 0
M  V30 1701 H 157.186 -0.135146 -1.48787 0
M  V30 1702 H 159.068 2.25417 -3.56041 0
M  V30 1703 H 157.743 2.20982 -2.36535 0
M  V30 1704 H 156.65 0.334064 -3.72605 0
M  V30 1705 H 157.983 0.459131 -4.90054 0
M  V30 1706 N 159.635 1.57281 -0.100228 0
M  V30 1707 C 160.545 2.17833 0.870965 0
M  V30 1708 C 161.561 1.14921 1.30649 0
M  V30 1709 O 162.737 1.47313 1.37335 0
M  V30 1710 C 159.802 2.75085 2.1102 0
M  V30 1711 C 158.863 3.9297 1.72838 0
M  V30 1712 C 158.096 4.47482 2.90854 0
M  V30 1713 O 158.319 4.00922 4.05731 0
M  V30 1714 O 157.253 5.38433 2.69023 0
M  V30 1715 H 161.079 3.0124 0.38575 0
M  V30 1716 H 158.664 1.48881 0.124397 0
M  V30 1717 H 160.546 3.11656 2.83634 0
M  V30 1718 H 159.221 1.94721 2.58584 0
M  V30 1719 H 158.128 3.61201 0.973883 0
M  V30 1720 H 159.461 4.74713 1.30033 0
M  V30 1721 N 161.113 -0.173488 1.56642 0
M  V30 1722 C 162.39 -0.917617 1.7274 0
M  V30 1723 C 162.77 -2.00484 0.661027 0
M  V30 1724 O 162.118 -2.26184 -0.32453 0
M  V30 1725 C 162.328 -1.48433 3.15862 0
M  V30 1726 C 163.676 -1.95809 3.76754 0
M  V30 1727 O 164.7 -1.58231 3.19126 0
M  V30 1728 O 163.559 -2.65024 4.77938 0
M  V30 1729 H 160.653 -0.431772 0.705338 0
M  V30 1730 H 163.199 -0.161487 1.6893 0
M  V30 1731 H 161.971 -0.701715 3.84957 0
M  V30 1732 H 161.594 -2.30471 3.23989 0
M  V30 1733 N 162.591 -1.51276 -0.441967 0
M  V30 1734 C 163.524 -1.66933 -1.55591 0
M  V30 1735 C 164.502 -0.516958 -1.54163 0
M  V30 1736 O 165.686 -0.740209 -1.73358 0
M  V30 1737 C 162.813 -1.67866 -2.94174 0
M  V30 1738 C 161.859 -2.89013 -3.13646 0
M  V30 1739 S 162.692 -4.49897 -2.90436 0
M  V30 1740 C 163.848 -4.53568 -4.31308 0
M  V30 1741 H 164.081 -2.61155 -1.42076 0
M  V30 1742 H 161.614 -1.40902 -0.631341 0
M  V30 1743 H 163.572 -1.69089 -3.74058 0
M  V30 1744 H 162.233 -0.748296 -3.05056 0
M  V30 1745 H 161.426 -2.86054 -4.14957 0
M  V30 1746 H 161.028 -2.85509 -2.4158 0
M  V30 1747 H 163.32 -4.28924 -5.24434 0
M  V30 1748 H 164.263 -5.55355 -4.39303 0
M  V30 1749 H 164.671 -3.82943 -4.14747 0
M  V30 1750 N 164.069 0.697108 -1.41344 0
M  V30 1751 C 165.297 1.48593 -1.43972 0
M  V30 1752 C 165.712 1.88747 -0.0445612 0
M  V30 1753 O 165.069 1.56682 0.935785 0
M  V30 1754 C 165.12 2.74946 -2.34706 0
M  V30 1755 O 164.841 2.36484 -3.68791 0
M  V30 1756 C 166.342 3.687 -2.46121 0
M  V30 1757 H 163.562 0.457964 -0.490418 0
M  V30 1758 H 166.106 0.858429 -1.8561 0
M  V30 1759 H 164.261 3.33937 -1.9638 0
M  V30 1760 H 164.675 3.17918 -4.17167 0
M  V30 1761 H 166.149 4.54145 -3.13777 0
M  V30 1762 H 166.626 4.13081 -1.49199 0
M  V30 1763 H 167.232 3.15613 -2.85076 0
M  V30 1764 N 165.547 1.27147 0.931209 0
M  V30 1765 C 166.963 1.04475 1.20653 0
M  V30 1766 C 167.163 -0.223885 2.00252 0
M  V30 1767 O 166.219 -0.930332 2.34736 0
M  V30 1768 C 167.532 2.28209 1.95809 0
M  V30 1769 C 169.08 2.33211 2.08762 0
M  V30 1770 C 169.555 3.56665 2.87323 0
M  V30 1771 N 171.046 3.57201 2.94892 0
M  V30 1772 C 171.781 4.49395 3.56134 0
M  V30 1773 N 171.277 5.51889 4.18796 0
M  V30 1774 N 173.07 4.37026 3.53504 0
M  V30 1775 H 165.221 2.08612 0.399333 0
M  V30 1776 H 167.484 0.917312 0.239253 0
M  V30 1777 H 167.19 3.20538 1.44736 0
M  V30 1778 H 167.064 2.33247 2.96438 0
M  V30 1779 H 169.451 1.41391 2.59023 0
M  V30 1780 H 169.532 2.32178 1.07364 0
M  V30 1781 H 169.176 4.4882 2.37746 0
M  V30 1782 H 169.106 3.54948 3.88998 0
M  V30 1783 H 171.597 2.83074 2.50354 0
M  V30 1784 H 171.91 6.18409 4.63454 0
M  V30 1785 H 170.255 5.55735 4.17353 0
M  V30 1786 H 173.446 3.56166 3.03749 0
M  V30 1787 H 173.619 5.09067 4.00942 0
M  V30 1788 N 167.025 -1.13721 1.09112 0
M  V30 1789 C 168.255 -1.88499 0.845671 0
M  V30 1790 C 168.663 -1.79218 -0.606432 0
M  V30 1791 O 168.006 -1.1544 -1.42896 0
M  V30 1792 C 168.068 -3.38954 1.19793 0
M  V30 1793 C 167.732 -3.72018 2.65428 0
M  V30 1794 C 168.729 -3.7153 3.63677 0
M  V30 1795 C 166.414 -4.01775 3.01467 0
M  V30 1796 C 168.408 -4.00336 4.95994 0
M  V30 1797 C 166.095 -4.30243 4.33975 0
M  V30 1798 C 167.093 -4.29508 5.31048 0
M  V30 1799 O 166.781 -4.5728 6.61173 0
M  V30 1800 H 166.513 -0.603702 0.304171 0
M  V30 1801 H 169.067 -1.44903 1.45576 0
M  V30 1802 H 167.297 -3.83039 0.530871 0
M  V30 1803 H 168.986 -3.95052 0.932146 0
M  V30 1804 H 169.752 -3.4862 3.37179 0
M  V30 1805 H 165.631 -4.01496 2.26544 0
M  V30 1806 H 169.175 -3.99678 5.71755 0
M  V30 1807 H 165.072 -4.52625 4.60219 0
M  V30 1808 H 165.84 -4.74964 6.66597 0
M  V30 1809 N 168.503 -0.877838 -1.30888 0
M  V30 1810 C 169.466 -0.344265 -2.266 0
M  V30 1811 C 170.466 0.50922 -1.52524 0
M  V30 1812 O 171.656 0.317398 -1.71284 0
M  V30 1813 C 168.788 0.510198 -3.37061 0
M  V30 1814 H 169.981 -1.1893 -2.7531 0
M  V30 1815 H 167.534 -0.654088 -1.41956 0
M  V30 1816 H 168.269 1.37612 -2.93655 0
M  V30 1817 H 168.054 -0.101047 -3.9197 0
M  V30 1818 H 169.544 0.875537 -4.08319 0
M  V30 1819 N 169.982 1.44106 -0.638065 0
M  V30 1820 C 171.212 2.06037 -0.152394 0
M  V30 1821 C 171.62 1.47808 1.18108 0
M  V30 1822 O 170.963 0.598092 1.73691 0
M  V30 1823 C 171.025 3.59488 0.0293714 0
M  V30 1824 C 170.689 4.4022 -1.22702 0
M  V30 1825 C 171.686 4.73256 -2.15232 0
M  V30 1826 C 169.371 4.8048 -1.46437 0
M  V30 1827 C 171.365 5.45444 -3.29802 0
M  V30 1828 C 169.052 5.52417 -2.61303 0
M  V30 1829 C 170.05 5.84819 -3.52811 0
M  V30 1830 O 169.738 6.55289 -4.65673 0
M  V30 1831 H 169.47 0.671233 -0.0801401 0
M  V30 1832 H 172.024 1.85851 -0.874563 0
M  V30 1833 H 170.254 3.78191 0.806758 0
M  V30 1834 H 171.943 4.03164 0.470475 0
M  V30 1835 H 172.709 4.42684 -1.98131 0
M  V30 1836 H 168.588 4.54676 -0.760977 0
M  V30 1837 H 172.132 5.70653 -4.01249 0
M  V30 1838 H 168.029 5.82404 -2.78344 0
M  V30 1839 H 168.797 6.73762 -4.64744 0
M  V30 1840 N 171.46 0.379036 1.52974 0
M  V30 1841 C 172.69 -0.20649 2.05566 0
M  V30 1842 C 173.098 -1.41906 1.25137 0
M  V30 1843 O 172.441 -1.81421 0.288464 0
M  V30 1844 C 172.503 -0.651086 3.53555 0
M  V30 1845 C 172.167 0.446626 4.54812 0
M  V30 1846 C 173.164 1.30079 5.03364 0
M  V30 1847 C 170.849 0.610719 4.98573 0
M  V30 1848 C 172.843 2.30426 5.94292 0
M  V30 1849 C 170.53 1.61754 5.89304 0
M  V30 1850 C 171.528 2.46274 6.37054 0
M  V30 1851 O 171.216 3.45237 7.25994 0
M  V30 1852 H 170.948 -0.0372381 0.674974 0
M  V30 1853 H 173.502 0.539718 1.98182 0
M  V30 1854 H 171.732 -1.44911 3.58522 0
M  V30 1855 H 173.421 -1.16112 3.88938 0
M  V30 1856 H 174.187 1.18527 4.70294 0
M  V30 1857 H 170.066 -0.0374044 4.60985 0
M  V30 1858 H 173.61 2.96432 6.31485 0
M  V30 1859 H 169.507 1.73348 6.21788 0
M  V30 1860 H 170.275 3.41124 7.44027 0
M  V30 1861 N 172.938 -1.57226 0.108567 0
M  V30 1862 C 174.168 -1.9889 -0.559142 0
M  V30 1863 C 174.576 -0.986889 -1.61422 0
M  V30 1864 O 173.919 0.0298705 -1.83676 0
M  V30 1865 C 173.981 -3.36952 -1.25315 0
M  V30 1866 C 173.645 -4.55679 -0.347248 0
M  V30 1867 C 174.642 -5.18281 0.409996 0
M  V30 1868 C 172.327 -5.0162 -0.261367 0
M  V30 1869 C 174.321 -6.25203 1.24096 0
M  V30 1870 C 172.008 -6.08405 0.573238 0
M  V30 1871 C 173.006 -6.70063 1.32304 0
M  V30 1872 O 172.694 -7.74788 2.14381 0
M  V30 1873 H 172.426 -0.658343 -0.153492 0
M  V30 1874 H 174.98 -2.04532 0.188584 0
M  V30 1875 H 173.21 -3.28032 -2.04773 0
M  V30 1876 H 174.899 -3.62974 -1.81673 0
M  V30 1877 H 175.665 -4.8371 0.353457 0
M  V30 1878 H 171.544 -4.53381 -0.834656 0
M  V30 1879 H 175.088 -6.73259 1.82669 0
M  V30 1880 H 170.985 -6.42406 0.631208 0
M  V30 1881 H 171.753 -7.91837 2.07209 0
M  V30 1882 N 174.416 0.165178 -1.56732 0
M  V30 1883 C 175.641 0.900253 -1.86843 0
M  V30 1884 C 176.066 1.74766 -0.695596 0
M  V30 1885 O 175.424 1.77786 0.35522 0
M  V30 1886 C 175.472 1.74777 -3.15413 0
M  V30 1887 O 174.576 2.85007 -2.98068 0
M  V30 1888 H 173.917 0.251832 -0.614391 0
M  V30 1889 H 176.447 0.161468 -2.03962 0
M  V30 1890 H 176.457 2.14646 -3.46974 0
M  V30 1891 H 175.132 1.12537 -4.00385 0
M  V30 1892 H 173.709 2.48676 -2.77875 0
M  V30 1893 N 175.894 1.51508 0.433938 0
M  V30 1894 C 177.142 1.6402 1.18075 0
M  V30 1895 C 177.463 0.360328 1.91642 0
M  V30 1896 O 176.733 -0.623945 1.85698 0
M  V30 1897 H 175.313 0.6045 0.43885 0
M  V30 1898 H 177.975 1.88452 0.497178 0
M  V30 1899 H 177.071 2.46949 1.90847 0
M  V30 1900 N 177.372 -0.689602 1.41712 0
M  V30 1901 C 178.621 -1.44534 1.40686 0
M  V30 1902 C 178.934 -1.95588 0.0213352 0
M  V30 1903 O 180.14 -2.71271 -0.111534 0
M  V30 1904 C 178.596 -2.61387 2.47396 0
M  V30 1905 C 178.204 -2.17094 3.91885 0
M  V30 1906 C 179.948 -3.38986 2.55517 0
M  V30 1907 C 177.855 -3.3094 4.90135 0
M  V30 1908 H 176.785 -0.542925 0.52321 0
M  V30 1909 H 179.436 -0.748054 1.6756 0
M  V30 1910 H 177.818 -3.33412 2.13664 0
M  V30 1911 H 178.992 -1.52318 4.34897 0
M  V30 1912 H 177.307 -1.52473 3.8748 0
M  V30 1913 H 179.904 -4.23747 3.26102 0
M  V30 1914 H 180.247 -3.84578 1.59391 0
M  V30 1915 H 180.78 -2.74021 2.8837 0
M  V30 1916 H 177.519 -2.90355 5.87685 0
M  V30 1917 H 177.039 -3.94546 4.51767 0
M  V30 1918 H 178.718 -3.9663 5.11169 0
M  V30 1919 N 178.85 -1.27639 -0.924453 0
M  V30 1920 C 180.098 -1.13941 -1.66918 0
M  V30 1921 C 180.419 0.314589 -1.92446 0
M  V30 1922 O 179.689 1.21964 -1.53303 0
M  V30 1923 H 178.269 -0.418678 -0.618642 0
M  V30 1924 H 180.931 -1.60213 -1.10985 0
M  V30 1925 H 180.027 -1.67094 -2.63602 0
M  V30 1926 N 180.328 1.1314 -1.09713 0
M  V30 1927 C 181.291 2.16831 -0.742751 0
M  V30 1928 C 182.291 1.59159 0.229129 0
M  V30 1929 O 183.481 1.74199 0.00693237 0
M  V30 1930 C 180.613 3.40756 -0.0989168 0
M  V30 1931 H 181.806 2.49695 -1.66109 0
M  V30 1932 H 179.359 1.2802 -0.896699 0
M  V30 1933 H 180.094 3.13485 0.830514 0
M  V30 1934 H 179.879 3.83888 -0.798265 0
M  V30 1935 H 181.369 4.17386 0.133524 0
M  V30 1936 N 181.806 0.884767 1.30421 0
M  V30 1937 C 183.054 0.502112 1.95763 0
M  V30 1938 C 183.375 -0.951815 1.70192 0
M  V30 1939 O 182.645 -1.6692 1.0254 0
M  V30 1940 H 181.225 0.182694 0.724315 0
M  V30 1941 H 183.887 1.1278 1.58955 0
M  V30 1942 H 182.983 0.672188 3.04775 0
M  V30 1943 N 183.284 -1.43765 0.645699 0
M  V30 1944 C 184.53 -2.02197 0.156271 0
M  V30 1945 C 184.863 -1.50776 -1.22393 0
M  V30 1946 O 184.138 -0.697771 -1.81553 0
M  V30 1947 C 184.421 -3.59749 0.158872 0
M  V30 1948 C 184.274 -4.21419 1.57245 0
M  V30 1949 C 185.593 -4.37149 -0.50879 0
M  V30 1950 H 182.712 -0.734694 0.0582602 0
M  V30 1951 H 185.354 -1.71157 0.824951 0
M  V30 1952 H 183.504 -3.86325 -0.410525 0
M  V30 1953 H 185.176 -4.059 2.19186 0
M  V30 1954 H 183.419 -3.78356 2.122 0
M  V30 1955 H 184.09 -5.30482 1.52619 0
M  V30 1956 H 186.566 -4.16093 -0.024412 0
M  V30 1957 H 185.442 -5.4683 -0.476213 0
M  V30 1958 H 185.703 -4.12839 -1.58165 0
M  V30 1959 N 184.763 -0.387143 -1.52771 0
M  V30 1960 C 185.693 0.440551 -2.29306 0
M  V30 1961 C 186.674 1.06535 -1.32606 0
M  V30 1962 O 187.859 1.07853 -1.61497 0
M  V30 1963 C 184.989 1.56919 -3.09829 0
M  V30 1964 C 183.943 1.07054 -4.14395 0
M  V30 1965 C 183.269 2.29109 -4.83129 0
M  V30 1966 C 184.569 0.140015 -5.22112 0
M  V30 1967 H 186.263 -0.198026 -2.98744 0
M  V30 1968 H 183.809 -0.09668 -1.43675 0
M  V30 1969 H 185.762 2.15503 -3.62128 0
M  V30 1970 H 184.486 2.23532 -2.3812 0
M  V30 1971 H 183.145 0.507247 -3.63074 0
M  V30 1972 H 182.793 2.94227 -4.0797 0
M  V30 1973 H 182.493 1.96406 -5.53804 0
M  V30 1974 H 184.017 2.88339 -5.38231 0
M  V30 1975 H 185.431 0.633978 -5.69784 0
M  V30 1976 H 183.828 -0.0971485 -6.00021 0
M  V30 1977 H 184.898 -0.811711 -4.78058 0
M  V30 1978 N 186.241 1.57166 -0.116904 0
M  V30 1979 C 187.487 1.95412 0.542405 0
M  V30 1980 C 187.82 1.00019 1.66463 0
M  V30 1981 O 187.095 0.0370346 1.94465 0
M  V30 1982 C 187.378 3.43615 1.07708 0
M  V30 1983 C 187.231 4.49781 -0.0415868 0
M  V30 1984 C 188.55 3.93616 1.96861 0
M  V30 1985 H 185.669 0.710543 0.195696 0
M  V30 1986 H 188.311 1.89027 -0.192038 0
M  V30 1987 H 186.461 3.49187 1.70296 0
M  V30 1988 H 188.133 4.56308 -0.676793 0
M  V30 1989 H 186.376 4.28033 -0.705019 0
M  V30 1990 H 187.047 5.50733 0.373717 0
M  V30 1991 H 189.523 3.90335 1.44146 0
M  V30 1992 H 188.399 4.97838 2.3119 0
M  V30 1993 H 188.66 3.34188 2.89432 0
M  V30 1994 N 187.719 -0.156864 1.56817 0
M  V30 1995 C 188.682 -1.17781 1.96622 0
M  V30 1996 C 189.682 -1.36401 0.851555 0
M  V30 1997 O 190.872 -1.33561 1.11836 0
M  V30 1998 C 188.004 -2.54008 2.27361 0
M  V30 1999 H 189.197 -0.836564 2.87996 0
M  V30 2000 H 186.75 -0.39985 1.51099 0
M  V30 2001 H 187.485 -2.9312 1.38748 0
M  V30 2002 H 187.27 -2.41856 3.08623 0
M  V30 2003 H 188.76 -3.27558 2.59029 0
M  V30 2004 N 189.197 -1.51736 -0.425897 0
M  V30 2005 C 190.16 -1.73271 -1.50032 0
M  V30 2006 C 191.16 -0.602639 -1.4908 0
M  V30 2007 O 192.35 -0.87033 -1.509 0
M  V30 2008 C 189.482 -1.79969 -2.89523 0
M  V30 2009 H 190.675 -2.69172 -1.32237 0
M  V30 2010 H 188.228 -1.41899 -0.65532 0
M  V30 2011 H 188.963 -0.859241 -3.1271 0
M  V30 2012 H 188.748 -2.62109 -2.91619 0
M  V30 2013 H 190.238 -1.9843 -3.67444 0
M  V30 2014 N 190.675 0.682077 -1.42076 0
M  V30 2015 C 191.905 1.46844 -1.45329 0
M  V30 2016 C 192.313 1.89102 -0.0609328 0
M  V30 2017 O 191.656 1.58238 0.933082 0
M  V30 2018 C 191.718 2.75375 -2.31104 0
M  V30 2019 C 191.382 2.55238 -3.79081 0
M  V30 2020 C 192.379 2.20309 -4.70914 0
M  V30 2021 C 190.064 2.70459 -4.2327 0
M  V30 2022 C 192.058 2.00859 -6.04925 0
M  V30 2023 C 189.745 2.50624 -5.57343 0
M  V30 2024 C 190.743 2.15876 -6.47986 0
M  V30 2025 O 190.431 1.96227 -7.79583 0
M  V30 2026 H 190.163 0.4586 -0.496651 0
M  V30 2027 H 192.717 0.846131 -1.87162 0
M  V30 2028 H 190.947 3.40061 -1.84107 0
M  V30 2029 H 192.636 3.37231 -2.25898 0
M  V30 2030 H 193.402 2.08153 -4.38061 0
M  V30 2031 H 189.281 2.96485 -3.53012 0
M  V30 2032 H 192.825 1.7366 -6.75639 0
M  V30 2033 H 188.722 2.62375 -5.89771 0
M  V30 2034 H 189.49 2.10883 -7.90867 0
M  V30 2035 N 192.153 1.28127 0.917671 0
M  V30 2036 C 193.402 1.14432 1.66097 0
M  V30 2037 C 193.715 -0.307247 1.93172 0
M  V30 2038 O 194.921 -0.565259 2.65551 0
M  V30 2039 C 193.377 2.00015 2.99202 0
M  V30 2040 C 192.985 3.49889 2.79789 0
M  V30 2041 C 194.729 1.94996 3.77064 0
M  V30 2042 C 192.636 4.27636 4.08511 0
M  V30 2043 H 191.566 0.424662 0.62304 0
M  V30 2044 H 194.217 1.52628 1.01868 0
M  V30 2045 H 192.599 1.54672 3.64544 0
M  V30 2046 H 193.773 4.03162 2.23152 0
M  V30 2047 H 192.088 3.56392 2.15345 0
M  V30 2048 H 194.685 2.50354 4.72469 0
M  V30 2049 H 195.028 0.925819 4.05875 0
M  V30 2050 H 195.561 2.38287 3.18534 0
M  V30 2051 H 192.3 5.30615 3.84874 0
M  V30 2052 H 191.82 3.79137 4.64774 0
M  V30 2053 H 193.499 4.37346 4.76799 0
M  V30 2054 N 193.631 -1.12557 1.10312 0
M  V30 2055 C 194.563 -2.17971 0.708625 0
M  V30 2056 C 195.576 -1.60806 -0.254027 0
M  V30 2057 O 196.765 -1.78458 -0.0386891 0
M  V30 2058 C 193.865 -3.38891 0.0248198 0
M  V30 2059 C 193.038 -4.25548 1.01132 0
M  V30 2060 C 192.097 -5.24972 0.35924 0
M  V30 2061 O 191.123 -5.60174 1.00965 0
M  V30 2062 N 192.325 -5.73747 -0.882847 0
M  V30 2063 H 195.09 -2.52427 1.61557 0
M  V30 2064 H 192.651 -1.27967 0.991771 0
M  V30 2065 H 194.643 -4.02485 -0.422852 0
M  V30 2066 H 193.213 -3.02596 -0.784514 0
M  V30 2067 H 192.433 -3.58589 1.6373 0
M  V30 2068 H 193.721 -4.80294 1.67914 0
M  V30 2069 H 193.119 -5.4731 -1.43065 0
M  V30 2070 H 191.676 -6.39234 -1.27369 0
M  V30 2071 N 195.109 -0.891671 -1.2995 0
M  V30 2072 C 196.355 -0.514261 -1.96171 0
M  V30 2073 C 196.688 0.935506 -1.70182 0
M  V30 2074 O 195.963 1.66204 -1.01028 0
M  V30 2075 C 196.246 -0.797719 -3.51153 0
M  V30 2076 C 196.099 -2.2986 -3.86632 0
M  V30 2077 C 197.418 -0.278749 -4.39216 0
M  V30 2078 H 194.537 -0.188314 -0.712535 0
M  V30 2079 H 197.179 -1.11689 -1.53706 0
M  V30 2080 H 195.329 -0.284826 -3.87455 0
M  V30 2081 H 197.001 -2.88042 -3.60319 0
M  V30 2082 H 195.244 -2.76257 -3.34462 0
M  V30 2083 H 195.915 -2.44753 -4.94773 0
M  V30 2084 H 198.391 -0.717825 -4.09862 0
M  V30 2085 H 197.267 -0.506353 -5.46559 0
M  V30 2086 H 197.528 0.820266 -4.34424 0
M  V30 2087 N 196.587 1.43421 -0.653314 0
M  V30 2088 C 197.812 2.06678 -0.172846 0
M  V30 2089 C 198.237 1.48648 1.15262 0
M  V30 2090 O 197.595 0.596457 1.71208 0
M  V30 2091 C 197.643 3.60474 -0.0953184 0
M  V30 2092 O 196.747 4.01487 0.942442 0
M  V30 2093 H 196.088 0.657181 -0.0949155 0
M  V30 2094 H 198.618 1.83925 -0.896265 0
M  V30 2095 H 198.628 4.07905 0.0879728 0
M  V30 2096 H 197.303 4.02088 -1.06291 0
M  V30 2097 H 195.88 3.65646 0.731932 0
M  V30 2098 N 198.065 0.39524 1.52563 0
M  V30 2099 C 199.312 -0.185044 2.01653 0
M  V30 2100 C 199.64 -1.46317 1.28146 0
M  V30 2101 O 198.895 -1.9213 0.372074 0
M  V30 2102 C 199.194 -0.493444 3.53977 0
M  V30 2103 C 198.86 0.69384 4.4553 0
M  V30 2104 C 197.522 1.01954 4.70275 0
M  V30 2105 C 199.874 1.48785 4.99512 0
M  V30 2106 C 197.202 2.14069 5.46252 0
M  V30 2107 C 199.554 2.59965 5.76716 0
M  V30 2108 C 198.218 2.93037 5.99738 0
M  V30 2109 H 197.488 -0.0677123 0.7379 0
M  V30 2110 H 200.135 0.533807 1.8391 0
M  V30 2111 H 198.44 -1.29369 3.69825 0
M  V30 2112 H 200.137 -0.955163 3.89458 0
M  V30 2113 H 196.727 0.429987 4.26438 0
M  V30 2114 H 200.911 1.24946 4.80315 0
M  V30 2115 H 196.167 2.40056 5.62302 0
M  V30 2116 H 200.341 3.21887 6.17545 0
M  V30 2117 H 197.968 3.8003 6.58393 0
M  V30 2118 N 199.544 -1.57102 0.125237 0
M  V30 2119 C 200.79 -1.96488 -0.525753 0
M  V30 2120 C 201.145 -1.00786 -1.6389 0
M  V30 2121 O 200.438 -0.038979 -1.9156 0
M  V30 2122 C 200.632 -3.40096 -1.09862 0
M  V30 2123 C 200.461 -4.4968 -0.0425004 0
M  V30 2124 C 199.231 -5.03781 0.391463 0
M  V30 2125 C 201.429 -5.08936 0.740829 0
M  V30 2126 N 199.411 -5.96948 1.4327 0
M  V30 2127 C 200.782 -5.98105 1.6331 0
M  V30 2128 C 202.837 -4.91576 0.791029 0
M  V30 2129 C 201.54 -6.71774 2.57122 0
M  V30 2130 C 203.566 -5.6593 1.71688 0
M  V30 2131 C 202.928 -6.5479 2.59672 0
M  V30 2132 H 199.027 -0.765072 -0.161831 0
M  V30 2133 H 201.611 -1.93511 0.214801 0
M  V30 2134 H 199.782 -3.43707 -1.80887 0
M  V30 2135 H 201.514 -3.66591 -1.71444 0
M  V30 2136 H 198.269 -4.736 -0.00213584 0
M  V30 2137 H 198.693 -6.48236 1.95243 0
M  V30 2138 H 203.335 -4.22615 0.124915 0
M  V30 2139 H 201.053 -7.39977 3.24744 0
M  V30 2140 H 204.639 -5.54501 1.76125 0
M  V30 2141 H 203.519 -7.11316 3.30149 0
M  V30 2142 N 201.022 0.148545 -1.56898 0
M  V30 2143 C 202.262 0.86765 -1.85071 0
M  V30 2144 C 202.626 1.78417 -0.709317 0
M  V30 2145 O 203.827 2.54261 -0.872049 0
M  V30 2146 C 202.098 1.62306 -3.1842 0
M  V30 2147 S 203.657 2.3878 -3.68143 0
M  V30 2148 H 200.475 0.290174 -0.649092 0
M  V30 2149 H 203.077 0.127755 -1.95082 0
M  V30 2150 H 201.781 0.941192 -3.99462 0
M  V30 2151 H 201.312 2.4039 -3.1141 0
M  V30 2152 H 203.327 3.63942 -3.37285 0
M  V30 2153 N 202.5 1.5196 0.417844 0
M  V30 2154 C 203.43 1.77634 1.51554 0
M  V30 2155 C 204.411 0.626918 1.58126 0
M  V30 2156 O 205.596 0.871632 1.7354 0
M  V30 2157 C 202.726 1.91911 2.8946 0
M  V30 2158 C 201.68 3.07463 2.97743 0
M  V30 2159 C 201.006 3.06951 4.37819 0
M  V30 2160 C 202.306 4.47082 2.70027 0
M  V30 2161 H 204 2.6955 1.3032 0
M  V30 2162 H 201.546 1.29706 0.625492 0
M  V30 2163 H 203.499 2.08455 3.6623 0
M  V30 2164 H 202.223 0.966598 3.11969 0
M  V30 2165 H 200.882 2.90656 2.23416 0
M  V30 2166 H 200.53 2.09438 4.57323 0
M  V30 2167 H 200.23 3.84556 4.44286 0
M  V30 2168 H 201.754 3.25613 5.16535 0
M  V30 2169 H 203.168 4.6414 3.36522 0
M  V30 2170 H 201.565 5.2654 2.87881 0
M  V30 2171 H 202.635 4.55777 1.65514 0
M  V30 2172 N 203.978 -0.674533 1.42435 0
M  V30 2173 C 204.941 -1.76986 1.45632 0
M  V30 2174 C 205.941 -1.5708 0.343871 0
M  V30 2175 O 207.131 -1.63367 0.604709 0
M  V30 2176 C 204.263 -3.15623 1.28822 0
M  V30 2177 H 205.456 -1.75539 2.43158 0
M  V30 2178 H 203.009 -0.884189 1.28887 0
M  V30 2179 H 203.744 -3.22696 0.322193 0
M  V30 2180 H 203.529 -3.31475 2.09444 0
M  V30 2181 H 205.019 -3.95537 1.33942 0
M  V30 2182 N 205.456 -1.28612 -0.910864 0
M  V30 2183 C 206.419 -1.12803 -1.9952 0
M  V30 2184 C 207.419 -0.0668264 -1.60661 0
M  V30 2185 O 208.609 -0.312847 -1.71368 0
M  V30 2186 C 205.741 -0.72254 -3.33155 0
M  V30 2187 H 206.934 -2.09109 -2.14973 0
M  V30 2188 H 204.487 -1.11639 -1.09391 0
M  V30 2189 H 205.222 0.241152 -3.23402 0
M  V30 2190 H 205.007 -1.48916 -3.62721 0
M  V30 2191 H 206.497 -0.634666 -4.12749 0
M  V30 2192 N 206.934 1.1197 -1.10907 0
M  V30 2193 C 208.182 1.83225 -0.852819 0
M  V30 2194 C 208.503 1.84769 0.623341 0
M  V30 2195 O 207.773 1.3143 1.45269 0
M  V30 2196 H 206.353 0.67849 -0.312507 0
M  V30 2197 H 209.015 1.3556 -1.40033 0
M  V30 2198 H 208.111 2.87265 -1.22005 0
M  V30 2199 N 208.412 0.89855 1.29475 0
M  V30 2200 C 209.828 0.594483 1.48115 0
M  V30 2201 C 210.028 -0.86431 1.82022 0
M  V30 2202 O 209.084 -1.64457 1.91599 0
M  V30 2203 C 210.397 1.51932 2.59494 0
M  V30 2204 C 211.945 1.5244 2.7337 0
M  V30 2205 C 212.42 2.43548 3.87877 0
M  V30 2206 N 213.911 2.41589 3.95208 0
M  V30 2207 C 214.646 3.08789 4.83153 0
M  V30 2208 N 214.142 3.85265 5.75798 0
M  V30 2209 N 215.935 2.97952 4.76635 0
M  V30 2210 H 208.086 1.84207 1.05742 0
M  V30 2211 H 210.349 0.789251 0.525154 0
M  V30 2212 H 210.055 2.55865 2.41301 0
M  V30 2213 H 209.929 1.23899 3.56271 0
M  V30 2214 H 212.316 0.492518 2.90961 0
M  V30 2215 H 212.397 1.8451 1.77172 0
M  V30 2216 H 212.041 3.46829 3.71041 0
M  V30 2217 H 211.971 2.08788 4.83441 0
M  V30 2218 H 214.462 1.86025 3.28943 0
M  V30 2219 H 214.775 4.33598 6.39697 0
M  V30 2220 H 213.12 3.89371 5.75687 0
M  V30 2221 H 216.311 2.37723 4.03244 0
M  V30 2222 H 216.484 3.50599 5.44962 0
M  V30 2223 N 209.89 -1.43072 0.660911 0
M  V30 2224 C 210.822 -2.29108 -0.0647641 0
M  V30 2225 C 211.835 -1.42928 -0.779448 0
M  V30 2226 O 213.024 -1.66788 -0.635921 0
M  V30 2227 C 210.124 -3.20032 -1.11503 0
M  V30 2228 C 209.297 -4.34792 -0.476955 0
M  V30 2229 C 208.356 -5.06534 -1.42513 0
M  V30 2230 O 207.382 -5.61538 -0.930771 0
M  V30 2231 N 208.584 -5.1075 -2.75889 0
M  V30 2232 H 211.349 -2.92029 0.673731 0
M  V30 2233 H 208.91 -1.53846 0.50427 0
M  V30 2234 H 210.902 -3.64892 -1.75032 0
M  V30 2235 H 209.472 -2.58658 -1.75541 0
M  V30 2236 H 208.692 -3.92752 0.337572 0
M  V30 2237 H 209.98 -5.0879 -0.0318525 0
M  V30 2238 H 209.378 -4.67447 -3.18606 0
M  V30 2239 H 207.935 -5.59302 -3.347 0
M  V30 2240 N 211.368 -0.403325 -1.52352 0
M  V30 2241 C 212.617 0.175668 -2.00934 0
M  V30 2242 C 212.93 1.46718 -1.29356 0
M  V30 2243 O 214.136 2.12708 -1.68724 0
M  V30 2244 C 212.592 0.363612 -3.58058 0
M  V30 2245 C 212.2 -0.915472 -4.38547 0
M  V30 2246 C 213.944 0.89821 -4.14888 0
M  V30 2247 C 211.851 -0.695035 -5.87302 0
M  V30 2248 H 210.781 0.0694234 -0.750797 0
M  V30 2249 H 213.432 -0.527879 -1.75743 0
M  V30 2250 H 211.814 1.12935 -3.79555 0
M  V30 2251 H 212.988 -1.68691 -4.28812 0
M  V30 2252 H 211.303 -1.37606 -3.93006 0
M  V30 2253 H 213.9 1.07907 -5.23699 0
M  V30 2254 H 214.243 1.87126 -3.71873 0
M  V30 2255 H 214.776 0.191681 -3.97338 0
M  V30 2256 H 211.515 -1.63948 -6.34666 0
M  V30 2257 H 211.035 0.0372116 -5.99788 0
M  V30 2258 H 212.714 -0.33497 -6.46132 0
M  V30 2259 N 212.846 1.57033 -0.133567 0
M  V30 2260 C 213.796 2.12641 0.822671 0
M  V30 2261 C 214.78 1.05081 1.21847 0
M  V30 2262 O 215.972 1.31287 1.18713 0
M  V30 2263 C 213.101 2.74094 2.06706 0
M  V30 2264 C 212.187 3.88757 1.69497 0
M  V30 2265 N 212.578 4.95194 1.03037 0
M  V30 2266 C 210.876 3.99213 1.98859 0
M  V30 2267 C 211.577 5.75414 0.852873 0
M  V30 2268 N 210.553 5.25726 1.3825 0
M  V30 2269 H 214.355 2.92308 0.305537 0
M  V30 2270 H 211.869 1.62256 0.0684276 0
M  V30 2271 H 213.866 3.12285 2.76195 0
M  V30 2272 H 212.526 1.95896 2.5895 0
M  V30 2273 H 213.537 5.13247 0.692669 0
M  V30 2274 H 210.214 3.32075 2.53047 0
M  V30 2275 H 211.604 6.71089 0.330091 0
M  V30 2276 N 214.325 -0.140222 1.56975 0
M  V30 2277 C 215.272 -1.17292 1.98774 0
M  V30 2278 C 216.242 -1.4232 0.856408 0
M  V30 2279 O 217.427 -1.54541 1.119 0
M  V30 2280 C 214.567 -2.49973 2.37923 0
M  V30 2281 C 213.68 -2.32062 3.64378 0
M  V30 2282 C 212.815 -3.57825 3.926 0
M  V30 2283 C 211.854 -3.3498 5.12303 0
M  V30 2284 N 210.991 -4.52891 5.36502 0
M  V30 2285 H 215.831 -0.809472 2.86795 0
M  V30 2286 H 213.368 -0.388237 1.41884 0
M  V30 2287 H 215.326 -3.27346 2.58652 0
M  V30 2288 H 213.956 -2.84252 1.52972 0
M  V30 2289 H 213.008 -1.45711 3.51387 0
M  V30 2290 H 214.32 -2.11145 4.51906 0
M  V30 2291 H 213.474 -4.43624 4.13863 0
M  V30 2292 H 212.213 -3.81753 3.03506 0
M  V30 2293 H 211.218 -2.4757 4.90906 0
M  V30 2294 H 212.443 -3.12444 6.02956 0
M  V30 2295 H 210.389 -4.76979 4.50363 0
M  V30 2296 H 210.306 -4.35001 6.18312 0
M  V30 2297 H 211.574 -5.39884 5.62268 0
M  V30 2298 N 215.803 -1.52179 -0.40978 0
M  V30 2299 C 217.052 -1.65434 -1.15388 0
M  V30 2300 C 217.365 -0.390056 -1.91671 0
M  V30 2301 O 218.571 -0.402399 -2.68501 0
M  V30 2302 C 217.027 -2.92279 -2.10003 0
M  V30 2303 C 216.635 -4.25813 -1.39239 0
M  V30 2304 C 218.379 -3.14897 -2.84675 0
M  V30 2305 C 216.286 -5.43782 -2.32498 0
M  V30 2306 H 215.216 -0.616267 -0.434432 0
M  V30 2307 H 217.867 -1.78666 -0.418401 0
M  V30 2308 H 216.249 -2.72744 -2.871 0
M  V30 2309 H 217.423 -4.55828 -0.675099 0
M  V30 2310 H 215.738 -4.09292 -0.766097 0
M  V30 2311 H 218.335 -4.0021 -3.54593 0
M  V30 2312 H 218.678 -2.29103 -3.47588 0
M  V30 2313 H 219.211 -3.34901 -2.14677 0
M  V30 2314 H 215.95 -6.3192 -1.74233 0
M  V30 2315 H 215.47 -5.18106 -3.02201 0
M  V30 2316 H 217.149 -5.76834 -2.93038 0
M  V30 2317 N 217.281 0.66697 -1.42791 0
M  V30 2318 C 218.697 0.981027 -1.25889 0
M  V30 2319 C 218.897 2.00793 -0.168695 0
M  V30 2320 O 217.953 2.48321 0.45747 0
M  V30 2321 C 219.266 1.47838 -2.61848 0
M  V30 2322 C 220.814 1.59575 -2.69267 0
M  V30 2323 C 221.289 2.12704 -4.05612 0
M  V30 2324 N 222.78 2.20026 -4.07606 0
M  V30 2325 C 223.515 2.62227 -5.09926 0
M  V30 2326 N 223.011 3.03824 -6.22626 0
M  V30 2327 N 224.804 2.62045 -4.97281 0
M  V30 2328 H 216.955 -0.0127891 -2.12396 0
M  V30 2329 H 219.218 0.0568258 -0.946295 0
M  V30 2330 H 218.924 0.798299 -3.4252 0
M  V30 2331 H 218.798 2.45579 -2.86305 0
M  V30 2332 H 221.185 2.26687 -1.88936 0
M  V30 2333 H 221.266 0.60302 -2.48591 0
M  V30 2334 H 220.91 1.46198 -4.86404 0
M  V30 2335 H 220.84 3.12782 -4.23645 0
M  V30 2336 H 223.331 1.90708 -3.2625 0
M  V30 2337 H 223.644 3.34734 -6.96544 0
M  V30 2338 H 221.989 3.01662 -6.26119 0
M  V30 2339 H 225.18 2.28916 -4.08308 0
M  V30 2340 H 225.353 2.94613 -5.77154 0
M  V30 2341 N 218.759 1.29093 0.90403 0
M  V30 2342 C 219.706 1.13853 2.00764 0
M  V30 2343 C 220.676 0.0330084 1.66067 0
M  V30 2344 O 221.861 0.199733 1.89752 0
M  V30 2345 C 219.001 0.816537 3.35301 0
M  V30 2346 C 218.114 2.00206 3.82807 0
M  V30 2347 C 217.249 1.61983 5.059 0
M  V30 2348 C 216.288 2.77143 5.45764 0
M  V30 2349 N 215.425 2.39346 6.60044 0
M  V30 2350 H 220.265 2.08276 2.13132 0
M  V30 2351 H 217.802 1.03648 1.04381 0
M  V30 2352 H 219.76 0.610557 4.12708 0
M  V30 2353 H 218.39 -0.090779 3.22672 0
M  V30 2354 H 217.442 2.31988 3.01473 0
M  V30 2355 H 218.754 2.86512 4.08304 0
M  V30 2356 H 217.908 1.37649 5.90879 0
M  V30 2357 H 216.647 0.728202 4.82233 0
M  V30 2358 H 215.652 3.02165 4.59322 0
M  V30 2359 H 216.877 3.66964 5.71414 0
M  V30 2360 H 214.823 1.52665 6.37989 0
M  V30 2361 H 214.74 3.19185 6.85315 0
M  V30 2362 H 216.008 2.1832 7.48303 0
M  V30 2363 N 220.237 -1.11381 1.11499 0
M  V30 2364 C 221.169 -2.17207 0.731704 0
M  V30 2365 C 222.182 -1.61066 -0.236957 0
M  V30 2366 O 223.371 -1.78489 -0.0197591 0
M  V30 2367 C 220.471 -3.38846 0.0607624 0
M  V30 2368 C 219.644 -4.24451 1.0564 0
M  V30 2369 C 218.703 -5.24562 0.4149 0
M  V30 2370 O 217.729 -5.59071 1.069 0
M  V30 2371 N 218.931 -5.74651 -0.821943 0
M  V30 2372 H 221.696 -2.50699 1.64225 0
M  V30 2373 H 219.257 -1.26908 1.00529 0
M  V30 2374 H 221.249 -4.02911 -0.380139 0
M  V30 2375 H 219.819 -3.03411 -0.752376 0
M  V30 2376 H 219.039 -3.56833 1.67524 0
M  V30 2377 H 220.327 -4.78486 1.72998 0
M  V30 2378 H 219.725 -5.48797 -1.37252 0
M  V30 2379 H 218.282 -6.40549 -1.20582 0
M  V30 2380 N 221.715 -0.905404 -1.28997 0
M  V30 2381 C 222.962 -0.534248 -1.95325 0
M  V30 2382 C 223.29 0.920535 -1.71337 0
M  V30 2383 O 222.545 1.66861 -1.02254 0
M  V30 2384 C 222.844 -0.779906 -3.48787 0
M  V30 2385 C 222.51 -2.21293 -3.92861 0
M  V30 2386 C 221.172 -2.60475 -4.04606 0
M  V30 2387 C 223.524 -3.14587 -4.15553 0
M  V30 2388 C 220.852 -3.9212 -4.36416 0
M  V30 2389 C 223.204 -4.45787 -4.48839 0
M  V30 2390 C 221.868 -4.84834 -4.58794 0
M  V30 2391 H 221.138 -0.195495 -0.714747 0
M  V30 2392 H 223.785 -1.14514 -1.53488 0
M  V30 2393 H 222.09 -0.0861365 -3.91705 0
M  V30 2394 H 223.787 -0.472029 -3.98212 0
M  V30 2395 H 220.377 -1.89887 -3.84241 0
M  V30 2396 H 224.561 -2.85528 -4.0594 0
M  V30 2397 H 219.817 -4.22086 -4.42327 0
M  V30 2398 H 223.991 -5.18098 -4.65346 0
M  V30 2399 H 221.618 -5.86877 -4.83197 0
M  V30 2400 N 223.193 1.4272 -0.668489 0
M  V30 2401 C 224.44 2.01624 -0.18814 0
M  V30 2402 C 224.768 1.5282 1.20317 0
M  V30 2403 O 224.023 0.718323 1.8204 0
M  V30 2404 C 224.322 3.57021 -0.164499 0
M  V30 2405 C 223.988 4.25232 -1.49962 0
M  V30 2406 C 222.65 4.4358 -1.8652 0
M  V30 2407 C 225.002 4.63727 -2.37921 0
M  V30 2408 C 222.33 4.97694 -3.10674 0
M  V30 2409 C 224.682 5.19218 -3.6138 0
M  V30 2410 C 223.346 5.3578 -3.98115 0
M  V30 2411 H 222.616 0.737795 -0.0688454 0
M  V30 2412 H 225.263 1.70991 -0.862225 0
M  V30 2413 H 223.568 3.87285 0.593079 0
M  V30 2414 H 225.265 4.00372 0.224271 0
M  V30 2415 H 221.855 4.11306 -1.20522 0
M  V30 2416 H 226.039 4.4923 -2.10964 0
M  V30 2417 H 221.295 5.08702 -3.39164 0
M  V30 2418 H 225.469 5.4799 -4.29743 0
M  V30 2419 H 223.096 5.77475 -4.94395 0
M  V30 2420 N 224.671 0.411399 1.52136 0
M  V30 2421 C 225.621 -0.430376 2.23901 0
M  V30 2422 C 226.605 -1.0116 1.25121 0
M  V30 2423 O 227.797 -0.934044 1.50348 0
M  V30 2424 C 224.926 -1.54527 3.06556 0
M  V30 2425 C 224.012 -0.9747 4.12747 0
M  V30 2426 N 224.403 -0.130991 5.0563 0
M  V30 2427 C 222.701 -1.24497 4.28271 0
M  V30 2428 C 223.402 0.186689 5.814 0
M  V30 2429 N 222.378 -0.42304 5.41951 0
M  V30 2430 H 226.18 0.220509 2.93072 0
M  V30 2431 H 223.694 0.221952 1.60876 0
M  V30 2432 H 225.691 -2.16093 3.56524 0
M  V30 2433 H 224.351 -2.19875 2.38925 0
M  V30 2434 H 225.362 0.23349 5.17373 0
M  V30 2435 H 222.039 -1.89787 3.7187 0
M  V30 2436 H 223.429 0.871673 6.66222 0
M  V30 2437 N 226.149 -1.5696 0.141893 0
M  V30 2438 C 227.112 -2.15316 -0.785587 0
M  V30 2439 C 228.112 -1.09366 -1.1788 0
M  V30 2440 O 229.302 -1.35031 -1.10056 0
M  V30 2441 C 226.434 -2.71211 -2.06537 0
M  V30 2442 H 227.627 -2.98608 -0.278041 0
M  V30 2443 H 225.18 -1.5593 -0.107519 0
M  V30 2444 H 225.915 -1.91571 -2.6167 0
M  V30 2445 H 225.7 -3.4872 -1.79268 0
M  V30 2446 H 227.19 -3.16189 -2.72789 0
M  V30 2447 N 227.627 0.131896 -1.57047 0
M  V30 2448 C 228.876 0.84044 -1.83356 0
M  V30 2449 C 229.189 1.81646 -0.725535 0
M  V30 2450 O 230.395 2.57025 -0.874659 0
M  V30 2451 C 228.851 1.54528 -3.25037 0
M  V30 2452 C 228.459 0.610902 -4.43815 0
M  V30 2453 C 230.203 2.23972 -3.60606 0
M  V30 2454 C 228.11 1.31823 -5.76521 0
M  V30 2455 H 227.04 0.317599 -0.683847 0
M  V30 2456 H 229.691 0.0931561 -1.83263 0
M  V30 2457 H 228.073 2.33873 -3.19561 0
M  V30 2458 H 229.247 -0.148407 -4.60561 0
M  V30 2459 H 227.562 0.0241016 -4.16393 0
M  V30 2460 H 230.159 2.77558 -4.57018 0
M  V30 2461 H 230.502 3.01173 -2.87403 0
M  V30 2462 H 231.035 1.51529 -3.6781 0
M  V30 2463 H 227.774 0.587771 -6.52859 0
M  V30 2464 H 227.294 2.04987 -5.63685 0
M  V30 2465 H 228.973 1.855 -6.19838 0
M  V30 2466 N 229.106 1.52395 0.401703 0
M  V30 2467 C 230.039 1.70999 1.51111 0
M  V30 2468 C 231.017 0.55765 1.52738 0
M  V30 2469 O 232.201 0.785912 1.71335 0
M  V30 2470 C 229.328 1.75607 2.8962 0
M  V30 2471 C 228.374 2.97227 3.05873 0
M  V30 2472 S 229.207 4.57439 2.78405 0
M  V30 2473 C 230.363 4.64844 4.19131 0
M  V30 2474 H 230.596 2.6483 1.35102 0
M  V30 2475 H 228.129 1.42527 0.593762 0
M  V30 2476 H 230.087 1.78947 3.69443 0
M  V30 2477 H 228.748 0.828914 3.02965 0
M  V30 2478 H 227.941 2.96955 4.07227 0
M  V30 2479 H 227.543 2.91813 2.33925 0
M  V30 2480 H 229.835 4.42677 5.12877 0
M  V30 2481 H 230.778 5.66807 4.24424 0
M  V30 2482 H 231.186 3.93804 4.04448 0
M  V30 2483 N 230.584 -0.659388 1.43143 0
M  V30 2484 C 232 -0.974337 1.26407 0
M  V30 2485 C 232.2 -2.007 0.179341 0
M  V30 2486 O 231.256 -2.4856 -0.444295 0
M  V30 2487 C 232.569 -1.46447 2.62628 0
M  V30 2488 C 234.117 -1.58144 2.7011 0
M  V30 2489 C 234.592 -2.1055 4.06734 0
M  V30 2490 N 236.083 -2.17861 4.08767 0
M  V30 2491 C 236.818 -2.59519 5.1131 0
M  V30 2492 N 236.314 -3.00518 6.24228 0
M  V30 2493 N 238.107 -2.59404 4.98664 0
M  V30 2494 H 230.258 0.0240528 2.12386 0
M  V30 2495 H 232.521 -0.0518065 0.946583 0
M  V30 2496 H 232.227 -0.780123 3.42939 0
M  V30 2497 H 232.101 -2.44058 2.87603 0
M  V30 2498 H 234.488 -2.25682 1.90136 0
M  V30 2499 H 234.569 -0.589828 2.48907 0
M  V30 2500 H 234.213 -1.43616 4.87172 0
M  V30 2501 H 234.143 -3.10531 4.25298 0
M  V30 2502 H 236.634 -1.88975 3.27257 0
M  V30 2503 H 236.947 -3.31036 6.98309 0
M  V30 2504 H 235.292 -2.98337 6.2771 0
M  V30 2505 H 238.483 -2.26747 4.09516 0
M  V30 2506 H 238.656 -2.91548 5.78709 0
M  V30 2507 N 232.062 -1.29571 -0.897171 0
M  V30 2508 C 232.994 -1.10724 -2.00681 0
M  V30 2509 C 234.007 -0.0540026 -1.6271 0
M  V30 2510 O 235.196 -0.298783 -1.75982 0
M  V30 2511 C 232.296 -0.663912 -3.32333 0
M  V30 2512 C 231.469 -1.79622 -3.98816 0
M  V30 2513 C 230.528 -1.34349 -5.0876 0
M  V30 2514 O 229.554 -2.04864 -5.31055 0
M  V30 2515 N 230.756 -0.215764 -5.80099 0
M  V30 2516 H 233.521 -2.06291 -2.17403 0
M  V30 2517 H 231.082 -1.21544 -1.06951 0
M  V30 2518 H 233.074 -0.344295 -4.03233 0
M  V30 2519 H 231.644 0.199375 -3.11964 0
M  V30 2520 H 230.864 -2.28459 -3.21248 0
M  V30 2521 H 232.152 -2.55535 -4.39976 0
M  V30 2522 H 231.55 0.372091 -5.64475 0
M  V30 2523 H 230.107 0.0444707 -6.51785 0
M  V30 2524 N 233.54 1.10788 -1.12088 0
M  V30 2525 C 234.45 2.20599 -0.798338 0
M  V30 2526 C 235.466 1.72712 0.21135 0
M  V30 2527 O 236.642 2.01348 0.0458477 0
M  V30 2528 C 233.707 3.45771 -0.253674 0
M  V30 2529 C 232.768 4.08411 -1.32283 0
M  V30 2530 C 232.001 5.27608 -0.80406 0
M  V30 2531 O 232.224 5.69241 0.363478 0
M  V30 2532 O 231.158 5.8101 -1.57198 0
M  V30 2533 H 234.984 2.50614 -1.7154 0
M  V30 2534 H 232.569 1.19454 -0.897275 0
M  V30 2535 H 234.451 4.21376 0.0453691 0
M  V30 2536 H 233.126 3.1739 0.636005 0
M  V30 2537 H 232.033 3.34507 -1.67499 0
M  V30 2538 H 233.366 4.40986 -2.18614 0
M  V30 2539 N 235.018 0.912232 1.28515 0
M  V30 2540 C 236.267 0.540504 1.94323 0
M  V30 2541 C 236.58 -0.920044 1.72611 0
M  V30 2542 O 237.786 -1.39986 2.32629 0
M  V30 2543 C 236.242 0.915803 3.48053 0
M  V30 2544 C 235.85 2.39598 3.78546 0
M  V30 2545 C 237.594 0.614588 4.20027 0
M  V30 2546 C 235.501 2.71148 5.25578 0
M  V30 2547 H 234.431 0.198418 0.727424 0
M  V30 2548 H 237.082 1.11094 1.46049 0
M  V30 2549 H 235.464 0.274168 3.9505 0
M  V30 2550 H 236.638 3.08422 3.42364 0
M  V30 2551 H 234.953 2.66749 3.1974 0
M  V30 2552 H 237.55 0.827002 5.28266 0
M  V30 2553 H 237.893 -0.447531 4.13887 0
M  V30 2554 H 238.426 1.21462 3.78803 0
M  V30 2555 H 235.165 3.76207 5.36794 0
M  V30 2556 H 234.685 2.0696 5.62963 0
M  V30 2557 H 236.364 2.58072 5.93302 0
M  V30 2558 N 236.496 -1.42363 0.676048 0
M  V30 2559 C 237.744 -2.01123 0.198437 0
M  V30 2560 C 238.065 -1.53731 -1.19966 0
M  V30 2561 O 237.335 -0.759518 -1.80577 0
M  V30 2562 H 235.915 -0.743678 0.0703721 0
M  V30 2563 H 238.577 -1.74263 0.872837 0
M  V30 2564 H 237.673 -3.11454 0.200686 0
M  V30 2565 N 237.974 -0.419461 -1.51915 0
M  V30 2566 C 239.22 0.145505 -2.02879 0
M  V30 2567 C 239.575 1.41926 -1.29903 0
M  V30 2568 O 238.868 1.87383 -0.399782 0
M  V30 2569 C 239.062 0.437067 -3.54717 0
M  V30 2570 C 238.891 -0.806877 -4.42402 0
M  V30 2571 C 237.661 -1.33514 -4.87342 0
M  V30 2572 C 239.859 -1.68796 -4.85811 0
M  V30 2573 N 237.841 -2.53349 -5.59185 0
M  V30 2574 C 239.212 -2.73247 -5.56539 0
M  V30 2575 C 241.267 -1.70449 -4.67816 0
M  V30 2576 C 239.97 -3.79276 -6.11181 0
M  V30 2577 C 241.996 -2.75403 -5.23361 0
M  V30 2578 C 241.358 -3.78575 -5.9402 0
M  V30 2579 H 237.457 0.0145424 -0.781865 0
M  V30 2580 H 240.041 -0.576126 -1.85981 0
M  V30 2581 H 238.212 1.12774 -3.71667 0
M  V30 2582 H 239.944 0.99182 -3.92358 0
M  V30 2583 H 236.699 -0.891657 -4.65131 0
M  V30 2584 H 237.123 -3.14066 -5.99743 0
M  V30 2585 H 241.765 -0.920209 -4.12664 0
M  V30 2586 H 239.483 -4.58554 -6.65397 0
M  V30 2587 H 243.069 -2.77603 -5.113 0
M  V30 2588 H 241.949 -4.58453 -6.36231 0
M  V30 2589 N 239.452 1.56882 -0.150215 0
M  V30 2590 C 240.699 1.96228 0.500093 0
M  V30 2591 C 241.027 1.03522 1.64661 0
M  V30 2592 O 240.282 0.0650683 1.95592 0
M  V30 2593 C 240.581 3.41801 1.04437 0
M  V30 2594 C 240.247 4.50897 0.0159671 0
M  V30 2595 C 238.909 4.8046 -0.266731 0
M  V30 2596 C 241.261 5.16703 -0.683192 0
M  V30 2597 C 238.589 5.73135 -1.25434 0
M  V30 2598 C 240.941 6.10441 -1.65964 0
M  V30 2599 C 239.605 6.38382 -1.95 0
M  V30 2600 H 238.875 0.718048 0.182997 0
M  V30 2601 H 241.522 1.90019 -0.237724 0
M  V30 2602 H 239.827 3.44857 1.85959 0
M  V30 2603 H 241.524 3.69573 1.55618 0
M  V30 2604 H 238.114 4.27891 0.246485 0
M  V30 2605 H 242.298 4.93993 -0.477983 0
M  V30 2606 H 237.554 5.93074 -1.48571 0
M  V30 2607 H 241.728 6.60507 -2.20689 0
M  V30 2608 H 239.355 7.09996 -2.71679 0
M  V30 2609 N 240.93 -0.123565 1.57115 0
M  V30 2610 C 242.207 -0.862196 1.75572 0
M  V30 2611 C 242.587 -1.98279 0.724475 0
M  V30 2612 O 241.935 -2.27102 -0.252407 0
M  V30 2613 C 242.145 -1.38309 3.20424 0
M  V30 2614 C 243.493 -1.83724 3.82793 0
M  V30 2615 O 244.517 -1.47999 3.23998 0
M  V30 2616 O 243.376 -2.49685 4.86127 0
M  V30 2617 H 240.47 -0.409113 0.718718 0
M  V30 2618 H 243.016 -0.107661 1.69358 0
M  V30 2619 H 241.788 -0.578889 3.86994 0
M  V30 2620 H 241.411 -2.20046 3.31158 0
M  V30 2621 N 242.408 -1.52605 -0.393616 0
M  V30 2622 C 243.654 -1.67672 -1.14079 0
M  V30 2623 C 243.987 -0.413121 -1.89755 0
M  V30 2624 O 243.262 0.588952 -1.85369 0
M  V30 2625 C 243.545 -2.9088 -2.12276 0
M  V30 2626 C 243.398 -4.27329 -1.40394 0
M  V30 2627 C 244.717 -3.09628 -3.12759 0
M  V30 2628 H 241.836 -0.610168 -0.413356 0
M  V30 2629 H 244.478 -1.85193 -0.424696 0
M  V30 2630 H 242.628 -2.76073 -2.73342 0
M  V30 2631 H 244.3 -4.53894 -0.82327 0
M  V30 2632 H 242.543 -4.2802 -0.705801 0
M  V30 2633 H 243.214 -5.09615 -2.12123 0
M  V30 2634 H 245.69 -3.23436 -2.61779 0
M  V30 2635 H 244.566 -3.97322 -3.78717 0
M  V30 2636 H 244.827 -2.23637 -3.81365 0
M  V30 2637 N 243.887 0.651787 -1.4349 0
M  V30 2638 C 244.837 1.75783 -1.45205 0
M  V30 2639 C 245.821 1.57679 -0.320328 0
M  V30 2640 O 247.013 1.67767 -0.564211 0
M  V30 2641 C 244.142 3.14377 -1.3792 0
M  V30 2642 C 243.228 3.38023 -2.56127 0
M  V30 2643 N 243.619 3.32135 -3.81471 0
M  V30 2644 C 241.917 3.68747 -2.50882 0
M  V30 2645 C 242.618 3.55902 -4.60118 0
M  V30 2646 N 241.594 3.77783 -3.90872 0
M  V30 2647 H 245.396 1.69657 -2.39987 0
M  V30 2648 H 242.91 0.853508 -1.38163 0
M  V30 2649 H 244.907 3.93666 -1.37231 0
M  V30 2650 H 243.567 3.21683 -0.441596 0
M  V30 2651 H 244.578 3.11515 -4.13738 0
M  V30 2652 H 241.255 3.8316 -1.65816 0
M  V30 2653 H 242.645 3.57116 -5.69138 0
M  V30 2654 N 245.365 1.30045 0.890287 0
M  V30 2655 C 246.642 1.09227 1.62262 0
M  V30 2656 C 247.022 -0.360305 2.08002 0
M  V30 2657 O 246.37 -1.35084 1.84295 0
M  V30 2658 C 246.58 2.08835 2.79623 0
M  V30 2659 C 247.928 2.40266 3.50082 0
M  V30 2660 O 248.952 2.07104 2.89804 0
M  V30 2661 O 247.811 2.96967 4.58773 0
M  V30 2662 H 244.905 0.419132 0.712922 0
M  V30 2663 H 247.451 1.41451 0.937529 0
M  V30 2664 H 246.223 3.06633 2.43089 0
M  V30 2665 H 245.846 1.77397 3.55832 0
M  V30 2666 N 246.843 -1.10192 1.12674 0
M  V30 2667 C 248.089 -1.82475 0.884915 0
M  V30 2668 C 248.422 -1.85093 -0.58773 0
M  V30 2669 O 247.697 -1.3134 -1.43457 0
M  V30 2670 C 247.98 -3.29018 1.46353 0
M  V30 2671 C 247.833 -3.34718 3.00473 0
M  V30 2672 C 249.152 -4.25473 1.12519 0
M  V30 2673 H 246.271 -0.662492 0.322915 0
M  V30 2674 H 248.913 -1.2913 1.39375 0
M  V30 2675 H 247.063 -3.74576 1.03077 0
M  V30 2676 H 248.735 -2.97622 3.52447 0
M  V30 2677 H 246.978 -2.74541 3.35872 0
M  V30 2678 H 247.649 -4.37918 3.36053 0
M  V30 2679 H 250.125 -3.88161 1.499 0
M  V30 2680 H 249.001 -5.26365 1.55663 0
M  V30 2681 H 249.262 -4.42084 0.0377407 0
M  V30 2682 N 248.321 -0.919034 -1.28029 0
M  V30 2683 C 249.569 -0.553838 -1.94363 0
M  V30 2684 C 249.89 0.906357 -1.72656 0
M  V30 2685 O 249.16 1.64143 -1.0693 0
M  V30 2686 H 247.74 -0.201834 -0.719216 0
M  V30 2687 H 250.402 -1.16954 -1.55909 0
M  V30 2688 H 249.498 -0.752758 -3.02886 0
M  V30 2689 N 249.799 1.42003 -0.683588 0
M  V30 2690 C 250.709 2.34597 -0.0109075 0
M  V30 2691 C 251.725 1.55576 0.779245 0
M  V30 2692 O 252.901 1.88107 0.719555 0
M  V30 2693 C 249.966 3.34199 0.922588 0
M  V30 2694 C 249.027 4.29115 0.125984 0
M  V30 2695 C 248.26 5.23959 1.01502 0
M  V30 2696 O 248.483 5.23952 2.25456 0
M  V30 2697 O 247.417 6.00053 0.47111 0
M  V30 2698 H 251.243 2.93675 -0.773853 0
M  V30 2699 H 248.828 1.42654 -0.443861 0
M  V30 2700 H 250.71 3.95365 1.45823 0
M  V30 2701 H 249.385 2.77582 1.66523 0
M  V30 2702 H 248.292 3.71335 -0.453969 0
M  V30 2703 H 249.625 4.88798 -0.577736 0
M  V30 2704 N 251.277 0.427512 1.51691 0
M  V30 2705 C 252.207 -0.3796 2.30394 0
M  V30 2706 C 253.188 -1.02982 1.35384 0
M  V30 2707 O 254.373 -1.03534 1.643 0
M  V30 2708 C 251.503 -1.48649 3.1388 0
M  V30 2709 C 250.457 -0.960294 4.17088 0
M  V30 2710 C 249.783 -2.16219 4.89033 0
M  V30 2711 C 251.083 -0.00153679 5.223 0
M  V30 2712 H 252.777 0.277164 2.98114 0
M  V30 2713 H 250.323 0.134739 1.43368 0
M  V30 2714 H 252.276 -2.05826 3.67714 0
M  V30 2715 H 251 -2.1714 2.43962 0
M  V30 2716 H 249.659 -0.410806 3.64291 0
M  V30 2717 H 249.307 -2.83307 4.15628 0
M  V30 2718 H 249.007 -1.81654 5.58816 0
M  V30 2719 H 250.531 -2.73968 5.45687 0
M  V30 2720 H 251.945 -0.482687 5.71264 0
M  V30 2721 H 250.342 0.256199 5.99553 0
M  V30 2722 H 251.412 0.938174 4.75738 0
M  V30 2723 N 252.755 -1.56801 0.158532 0
M  V30 2724 C 253.703 -2.18638 -0.793729 0
M  V30 2725 C 254.697 -1.14669 -1.24689 0
M  V30 2726 O 255.903 -1.32895 -1.21403 0
M  V30 2727 H 252.278 -0.700226 -0.274204 0
M  V30 2728 H 254.249 -2.97367 -0.248095 0
M  V30 2729 C 252.998 -2.83139 -2.0181 0
M  V30 2730 H 252.321 -3.62863 -1.67841 0
M  V30 2731 H 253.761 -3.29894 -2.66357 0
M  V30 2732 C 252.22 -1.82244 -2.83353 0
M  V30 2733 O 252.75 -1.3 -3.80083 0
M  V30 2734 N 250.956 -1.51288 -2.48114 0
M  V30 2735 H 250.503 -1.93964 -1.69516 0
M  V30 2736 H 250.461 -0.840296 -3.02963 0
M  V30 2737 N 254.233 0.115231 -1.57178 0
M  V30 2738 C 255.461 0.836437 -1.89239 0
M  V30 2739 C 255.876 1.73256 -0.750175 0
M  V30 2740 O 255.233 1.80357 0.278832 0
M  V30 2741 C 255.284 1.66671 -3.20785 0
M  V30 2742 O 255.005 0.806652 -4.3061 0
M  V30 2743 C 256.506 2.49274 -3.66575 0
M  V30 2744 H 253.726 0.240253 -0.626514 0
M  V30 2745 H 256.27 0.0984932 -2.04263 0
M  V30 2746 H 254.425 2.35737 -3.0742 0
M  V30 2747 H 254.839 1.37969 -5.06028 0
M  V30 2748 H 256.313 3.03055 -4.6137 0
M  V30 2749 H 256.79 3.26807 -2.93417 0
M  V30 2750 H 257.396 1.85443 -3.82741 0
M  V30 2751 N 255.711 1.52812 0.385517 0
M  V30 2752 C 257.127 1.4214 0.725829 0
M  V30 2753 C 257.327 0.544589 1.94001 0
M  V30 2754 O 256.383 0.0193693 2.52493 0
M  V30 2755 C 257.696 2.85042 0.957668 0
M  V30 2756 C 259.244 2.94543 1.05892 0
M  V30 2757 C 259.719 4.38464 1.32337 0
M  V30 2758 N 261.21 4.41804 1.39151 0
M  V30 2759 C 261.945 5.5025 1.61285 0
M  V30 2760 N 261.441 6.68775 1.80866 0
M  V30 2761 N 263.234 5.37798 1.63492 0
M  V30 2762 H 255.385 2.08338 -0.413383 0
M  V30 2763 H 257.648 0.940016 -0.122775 0
M  V30 2764 H 257.354 3.51431 0.137568 0
M  V30 2765 H 257.228 3.27505 1.87137 0
M  V30 2766 H 259.615 2.28321 1.86959 0
M  V30 2767 H 259.696 2.55504 0.123057 0
M  V30 2768 H 259.34 5.05254 0.517793 0
M  V30 2769 H 259.27 4.75059 2.27214 0
M  V30 2770 H 261.761 3.56377 1.25713 0
M  V30 2771 H 262.074 7.47197 1.97271 0
M  V30 2772 H 260.419 6.71797 1.78083 0
M  V30 2773 H 263.61 4.44171 1.47749 0
M  V30 2774 H 263.783 6.22382 1.80402 0
M  V30 2775 N 257.189 -0.644168 1.43834 0
M  V30 2776 C 258.119 -1.76814 1.52509 0
M  V30 2777 C 259.1 -1.65823 0.379052 0
M  V30 2778 O 260.285 -1.84781 0.597466 0
M  V30 2779 C 257.415 -3.15288 1.4564 0
M  V30 2780 C 256.369 -3.41053 2.58586 0
M  V30 2781 C 255.695 -4.79421 2.36769 0
M  V30 2782 C 256.995 -3.34902 4.00797 0
M  V30 2783 H 258.689 -1.69812 2.46586 0
M  V30 2784 H 256.235 -0.815542 1.1868 0
M  V30 2785 H 258.188 -3.93681 1.50311 0
M  V30 2786 H 256.912 -3.23043 0.480725 0
M  V30 2787 H 255.571 -2.65035 2.53282 0
M  V30 2788 H 255.219 -4.83863 1.37424 0
M  V30 2789 H 254.919 -4.9762 3.12487 0
M  V30 2790 H 256.443 -5.6006 2.43238 0
M  V30 2791 H 257.857 -4.03218 4.07539 0
M  V30 2792 H 256.254 -3.64637 4.76613 0
M  V30 2793 H 257.324 -2.32928 4.25291 0
M  V30 2794 N 258.668 -1.30515 -0.883378 0
M  V30 2795 C 259.896 -1.22359 -1.66841 0
M  V30 2796 C 260.311 0.213296 -1.87591 0
M  V30 2797 O 259.668 1.14075 -1.42454 0
M  V30 2798 C 259.719 -1.95011 -3.04389 0
M  V30 2799 O 259.44 -3.3309 -2.84575 0
M  V30 2800 C 260.941 -1.93532 -3.98824 0
M  V30 2801 H 258.161 -0.423371 -0.520575 0
M  V30 2802 H 260.705 -1.72167 -1.10357 0
M  V30 2803 H 258.86 -1.48997 -3.57601 0
M  V30 2804 H 259.274 -3.69907 -3.71846 0
M  V30 2805 H 260.748 -2.48902 -4.92699 0
M  V30 2806 H 261.225 -0.914627 -4.29571 0
M  V30 2807 H 261.831 -2.39364 -3.51547 0
M  V30 2808 N 260.146 1.09593 -1.13257 0
M  V30 2809 C 261.423 1.78293 -0.804432 0
M  V30 2810 C 261.803 1.99004 0.70431 0
M  V30 2811 O 261.151 1.59007 1.641 0
M  V30 2812 C 261.361 3.10707 -1.5894 0
M  V30 2813 C 262.709 3.85443 -1.78099 0
M  V30 2814 O 263.733 3.20454 -1.55525 0
M  V30 2815 O 262.592 5.02108 -2.15753 0
M  V30 2816 H 259.686 0.773156 -0.293528 0
M  V30 2817 H 262.232 1.16164 -1.23709 0
M  V30 2818 H 261.004 2.91106 -2.61482 0
M  V30 2819 H 260.627 3.80558 -1.15157 0
M  V30 2820 N 261.624 0.925811 1.2754 0
M  V30 2821 C 262.901 0.483726 1.89524 0
M  V30 2822 C 263.281 -1.03809 1.83812 0
M  V30 2823 O 262.629 -1.89143 1.28207 0
M  V30 2824 C 262.839 1.02769 3.33526 0
M  V30 2825 C 264.187 1.08703 4.10449 0
M  V30 2826 O 265.211 0.977175 3.42534 0
M  V30 2827 O 264.07 1.25599 5.31871 0
M  V30 2828 H 261.164 0.15529 0.812289 0
M  V30 2829 H 263.71 1.01738 1.35822 0
M  V30 2830 H 262.482 2.07155 3.31967 0
M  V30 2831 H 262.105 0.475567 3.94746 0
M  V30 2832 N 263.102 -1.41638 0.69111 0
M  V30 2833 C 264.348 -2.01598 0.220519 0
M  V30 2834 C 264.681 -1.54594 -1.17535 0
M  V30 2835 O 263.956 -0.755177 -1.79241 0
M  V30 2836 C 264.239 -3.59062 0.273243 0
M  V30 2837 C 264.092 -4.16203 1.70573 0
M  V30 2838 C 265.411 -4.38546 -0.369457 0
M  V30 2839 H 262.53 -0.732468 0.0816045 0
M  V30 2840 H 265.172 -1.68445 0.878986 0
M  V30 2841 H 263.322 -3.87435 -0.287411 0
M  V30 2842 H 264.994 -3.98722 2.31989 0
M  V30 2843 H 263.237 -3.71414 2.2413 0
M  V30 2844 H 263.908 -5.25358 1.69419 0
M  V30 2845 H 266.384 -4.1596 0.107977 0
M  V30 2846 H 265.26 -5.48069 -0.302002 0
M  V30 2847 H 265.521 -4.17662 -1.44951 0
M  V30 2848 N 264.58 -0.43555 -1.51462 0
M  V30 2849 C 265.805 0.132627 -2.06976 0
M  V30 2850 C 266.23 1.35848 -1.30104 0
M  V30 2851 O 265.588 1.78112 -0.338493 0
M  V30 2852 C 265.636 0.43523 -3.57964 0
M  V30 2853 O 264.74 1.52198 -3.83288 0
M  V30 2854 H 264.081 0.00265 -0.663995 0
M  V30 2855 H 266.611 -0.616369 -1.95095 0
M  V30 2856 H 266.621 0.686206 -4.02188 0
M  V30 2857 H 265.296 -0.460739 -4.1334 0
M  V30 2858 H 263.873 1.2611 -3.50928 0
M  V30 2859 N 266.058 1.56714 -0.166846 0
M  V30 2860 C 267.005 2.17746 0.765193 0
M  V30 2861 C 267.975 1.11614 1.23011 0
M  V30 2862 O 269.16 1.39745 1.29908 0
M  V30 2863 C 266.3 2.81882 1.9909 0
M  V30 2864 C 265.413 4.02462 1.56997 0
M  V30 2865 C 264.548 4.54537 2.749 0
M  V30 2866 C 263.587 5.67538 2.29275 0
M  V30 2867 N 262.724 6.14142 3.40255 0
M  V30 2868 H 267.564 2.97048 0.237952 0
M  V30 2869 H 265.101 1.4672 0.105725 0
M  V30 2870 H 267.059 3.17221 2.70974 0
M  V30 2871 H 265.689 2.05191 2.49192 0
M  V30 2872 H 264.741 3.72973 0.748037 0
M  V30 2873 H 266.053 4.84273 1.19503 0
M  V30 2874 H 265.207 4.92035 3.54946 0
M  V30 2875 H 263.946 3.71774 3.1565 0
M  V30 2876 H 262.951 5.29597 1.47674 0
M  V30 2877 H 264.176 6.52099 1.89588 0
M  V30 2878 H 262.122 5.3431 3.8059 0
M  V30 2879 H 262.039 6.9093 3.06841 0
M  V30 2880 H 263.307 6.56289 4.206 0
M  V30 2881 N 267.536 -0.106894 1.57237 0
M  V30 2882 C 268.785 -0.811163 1.8467 0
M  V30 2883 C 269.098 -1.80469 0.754342 0
M  V30 2884 O 270.304 -2.55601 0.915439 0
M  V30 2885 C 268.76 -1.49337 3.27454 0
M  V30 2886 C 268.368 -0.540217 4.44731 0
M  V30 2887 C 270.112 -2.18206 3.64124 0
M  V30 2888 C 268.019 -1.22634 5.78545 0
M  V30 2889 H 266.949 -0.306679 0.688813 0
M  V30 2890 H 269.6 -0.0639887 1.83388 0
M  V30 2891 H 267.982 -2.2876 3.23241 0
M  V30 2892 H 269.156 0.221659 4.60267 0
M  V30 2893 H 267.471 0.042146 4.16379 0
M  V30 2894 H 270.068 -2.70253 4.61376 0
M  V30 2895 H 270.411 -2.96562 2.92158 0
M  V30 2896 H 270.944 -1.45658 3.70174 0
M  V30 2897 H 267.683 -0.483832 6.53712 0
M  V30 2898 H 267.203 -1.95993 5.66874 0
M  V30 2899 H 268.882 -1.75615 6.2271 0
M  V30 2900 N 269.014 -1.53014 -0.377408 0
M  V30 2901 C 269.962 -1.7927 -1.48206 0
M  V30 2902 C 270.956 -0.661195 -1.55963 0
M  V30 2903 O 272.162 -0.843908 -1.58991 0
M  V30 2904 H 268.537 -0.567425 -0.493491 0
M  V30 2905 H 270.508 -2.71753 -1.2326 0
M  V30 2906 C 269.257 -1.98894 -2.85196 0
M  V30 2907 H 268.58 -2.85395 -2.79981 0
M  V30 2908 H 270.02 -2.21249 -3.61698 0
M  V30 2909 C 268.479 -0.764691 -3.28107 0
M  V30 2910 O 269.009 0.0523226 -4.01666 0
M  V30 2911 N 267.215 -0.591493 -2.84517 0
M  V30 2912 H 266.762 -1.25749 -2.24822 0
M  V30 2913 H 266.72 0.226253 -3.13585 0
M  V30 2914 N 270.492 0.636531 -1.44174 0
M  V30 2915 C 271.402 1.77754 -1.53103 0
M  V30 2916 C 272.418 1.68928 -0.417034 0
M  V30 2917 O 273.594 1.89801 -0.6736 0
M  V30 2918 C 270.659 3.14115 -1.46741 0
M  V30 2919 C 269.72 3.34612 -2.68948 0
M  V30 2920 C 268.953 4.64467 -2.6288 0
M  V30 2921 O 269.176 5.44919 -1.68581 0
M  V30 2922 O 268.11 4.87049 -3.53648 0
M  V30 2923 H 271.936 1.73174 -2.49489 0
M  V30 2924 H 269.521 0.79709 -1.2636 0
M  V30 2925 H 271.403 3.95412 -1.45696 0
M  V30 2926 H 270.078 3.19249 -0.534975 0
M  V30 2927 H 268.985 2.53014 -2.75562 0
M  V30 2928 H 270.318 3.34336 -3.61221 0
M  V30 2929 N 271.97 1.30982 0.876444 0
M  V30 2930 C 273.218 1.20058 1.62575 0
M  V30 2931 C 273.539 -0.242947 1.93481 0
M  V30 2932 O 272.809 -1.1619 1.57724 0
M  V30 2933 H 271.389 0.44135 0.602677 0
M  V30 2934 H 274.051 1.64222 1.04962 0
M  V30 2935 H 273.147 1.76762 2.57219 0
M  V30 2936 N 273.449 -1.08991 1.13837 0
M  V30 2937 C 274.698 -1.80631 0.897509 0
M  V30 2938 C 275.011 -1.86872 -0.57777 0
M  V30 2939 O 276.217 -2.54866 -0.935701 0
M  V30 2940 C 274.673 -3.24517 1.55618 0
M  V30 2941 C 274.281 -3.26529 3.0673 0
M  V30 2942 C 276.025 -4.00882 1.3962 0
M  V30 2943 C 273.932 -4.64965 3.65461 0
M  V30 2944 H 272.862 -0.67691 0.332129 0
M  V30 2945 H 275.513 -1.2246 1.3666 0
M  V30 2946 H 273.895 -3.82778 1.01476 0
M  V30 2947 H 275.069 -2.78008 3.67489 0
M  V30 2948 H 273.384 -2.63656 3.22296 0
M  V30 2949 H 275.981 -5.03167 1.80906 0
M  V30 2950 H 276.324 -4.14896 0.341578 0
M  V30 2951 H 276.857 -3.49075 1.90766 0
M  V30 2952 H 273.596 -4.56153 4.70749 0
M  V30 2953 H 273.116 -5.13792 3.09481 0
M  V30 2954 H 274.795 -5.3394 3.654 0
M  V30 2955 N 274.927 -0.932562 -1.27047 0
M  V30 2956 C 276.175 -0.574422 -1.93765 0
M  V30 2957 C 276.496 0.887993 -1.73608 0
M  V30 2958 O 275.766 1.62999 -1.08665 0
M  V30 2959 H 274.346 -0.209451 -0.717035 0
M  V30 2960 H 277.008 -1.18601 -1.5466 0
M  V30 2961 H 276.104 -0.784841 -3.02071 0
M  V30 2962 N 276.405 1.4127 -0.698611 0
M  V30 2963 C 277.682 1.94955 -0.158762 0
M  V30 2964 C 278.062 1.63781 1.33188 0
M  V30 2965 O 277.41 0.946423 2.07979 0
M  V30 2966 C 277.62 3.46044 -0.453309 0
M  V30 2967 C 278.968 4.22872 -0.382707 0
M  V30 2968 O 279.992 3.54076 -0.388396 0
M  V30 2969 O 278.851 5.45407 -0.345463 0
M  V30 2970 H 275.945 0.82683 -0.0167505 0
M  V30 2971 H 278.491 1.50971 -0.77498 0
M  V30 2972 H 277.263 3.62028 -1.48498 0
M  V30 2973 H 276.886 3.97128 0.19373 0
M  V30 2974 N 277.883 0.443576 1.51229 0
M  V30 2975 C 278.83 -0.364716 2.279 0
M  V30 2976 C 279.8 -1.0114 1.31757 0
M  V30 2977 O 280.985 -1.02912 1.60667 0
M  V30 2978 C 278.125 -1.45644 3.12861 0
M  V30 2979 C 277.238 -0.827269 4.24005 0
M  V30 2980 C 276.373 -1.89456 4.96266 0
M  V30 2981 C 275.412 -1.24416 5.99322 0
M  V30 2982 N 274.549 -2.25309 6.64966 0
M  V30 2983 H 279.389 0.295464 2.96532 0
M  V30 2984 H 276.926 0.157554 1.46254 0
M  V30 2985 H 278.884 -2.10076 3.6045 0
M  V30 2986 H 277.514 -2.08616 2.46331 0
M  V30 2987 H 276.566 -0.0710839 3.80334 0
M  V30 2988 H 277.878 -0.312481 4.9782 0
M  V30 2989 H 277.032 -2.61535 5.47434 0
M  V30 2990 H 275.771 -2.4431 4.22095 0
M  V30 2991 H 274.776 -0.508868 5.4744 0
M  V30 2992 H 276.001 -0.702882 6.75453 0
M  V30 2993 H 273.947 -2.79231 5.93604 0
M  V30 2994 H 273.864 -1.78739 7.34567 0
M  V30 2995 H 275.132 -2.96853 7.20763 0
M  V30 2996 N 279.361 -1.56624 0.175154 0
M  V30 2997 C 280.61 -1.96173 -0.468921 0
M  V30 2998 C 280.923 -1.06401 -1.64128 0
M  V30 2999 O 282.129 -1.35648 -2.35185 0
M  V30 3000 C 280.585 -3.48833 -0.885633 0
M  V30 3001 C 280.193 -4.47237 0.261343 0
M  V30 3002 C 281.937 -3.97194 -1.49791 0
M  V30 3003 C 279.844 -5.9114 -0.175214 0
M  V30 3004 H 278.774 -0.732455 -0.178958 0
M  V30 3005 H 281.425 -1.81591 0.263997 0
M  V30 3006 H 279.807 -3.58848 -1.67464 0
M  V30 3007 H 280.981 -4.4894 1.03871 0
M  V30 3008 H 279.296 -4.08956 0.783827 0
M  V30 3009 H 281.893 -5.02167 -1.83665 0
M  V30 3010 H 282.236 -3.40351 -2.39722 0
M  V30 3011 H 282.769 -3.90212 -0.773267 0
M  V30 3012 H 279.508 -6.51865 0.689414 0
M  V30 3013 H 279.028 -5.92735 -0.91786 0
M  V30 3014 H 280.707 -6.44044 -0.617792 0
M  V30 3015 N 280.839 0.0985539 -1.57292 0
M  V30 3016 C 282.087 0.801092 -1.85545 0
M  V30 3017 C 282.408 1.79438 -0.763353 0
M  V30 3018 O 281.678 1.94763 0.21073 0
M  V30 3019 H 280.258 0.29884 -0.684619 0
M  V30 3020 H 282.92 0.0810064 -1.94732 0
M  V30 3021 H 282.016 1.3338 -2.82163 0
M  V30 3022 N 282.317 1.53212 0.369288 0
M  V30 3023 C 283.25 1.74166 1.4745 0
M  V30 3024 C 284.228 0.589923 1.51521 0
M  V30 3025 O 285.412 0.822078 1.69629 0
M  V30 3026 C 282.539 1.81711 2.8583 0
M  V30 3027 C 281.585 3.03649 2.99499 0
M  V30 3028 S 282.418 4.63242 2.6864 0
M  V30 3029 C 283.574 4.7363 4.09177 0
M  V30 3030 H 283.807 2.67636 1.29454 0
M  V30 3031 H 281.34 1.43754 0.563396 0
M  V30 3032 H 283.298 1.86743 3.65564 0
M  V30 3033 H 281.959 0.89299 3.01139 0
M  V30 3034 H 281.152 3.05526 4.00836 0
M  V30 3035 H 280.754 2.9671 2.27683 0
M  V30 3036 H 283.046 4.53456 5.03372 0
M  V30 3037 H 283.989 5.75682 4.12306 0
M  V30 3038 H 284.397 4.02295 3.96004 0
M  V30 3039 N 283.795 -0.628877 1.44509 0
M  V30 3040 C 285.042 -1.38839 1.47411 0
M  V30 3041 C 285.37 -1.94202 0.10757 0
M  V30 3042 O 284.625 -1.74243 -0.890947 0
M  V30 3043 C 284.924 -2.56995 2.48371 0
M  V30 3044 C 284.59 -2.19908 3.93639 0
M  V30 3045 C 283.252 -2.09506 4.33198 0
M  V30 3046 C 285.604 -1.9064 4.85083 0
M  V30 3047 C 282.932 -1.68028 5.62124 0
M  V30 3048 C 285.284 -1.50655 6.14399 0
M  V30 3049 C 283.948 -1.38796 6.5291 0
M  V30 3050 H 283.218 -0.508048 0.539414 0
M  V30 3051 H 285.865 -0.712913 1.77735 0
M  V30 3052 H 284.17 -3.29786 2.11538 0
M  V30 3053 H 285.867 -3.15223 2.47861 0
M  V30 3054 H 282.457 -2.28922 3.62343 0
M  V30 3055 H 286.641 -1.97585 4.55273 0
M  V30 3056 H 281.897 -1.57452 5.90778 0
M  V30 3057 H 286.071 -1.27048 6.84713 0
M  V30 3058 H 283.698 -1.06429 7.52713 0
M  V30 3059 N 285.273 -1.31445 -0.869486 0
M  V30 3060 C 286.52 -1.21158 -1.62256 0
M  V30 3061 C 286.848 0.230155 -1.93133 0
M  V30 3062 O 286.103 1.17906 -1.56194 0
M  V30 3063 C 286.402 -2.00145 -2.96102 0
M  V30 3064 C 286.068 -3.4964 -2.84715 0
M  V30 3065 C 284.73 -3.90403 -2.81317 0
M  V30 3066 C 287.082 -4.44769 -2.71716 0
M  V30 3067 C 284.41 -5.24561 -2.62778 0
M  V30 3068 C 286.762 -5.79054 -2.54714 0
M  V30 3069 C 285.426 -6.19037 -2.49699 0
M  V30 3070 H 284.696 -0.443348 -0.593737 0
M  V30 3071 H 287.343 -1.62715 -1.00976 0
M  V30 3072 H 285.648 -1.5127 -3.6142 0
M  V30 3073 H 287.345 -1.89566 -3.53363 0
M  V30 3074 H 283.935 -3.17256 -2.88178 0
M  V30 3075 H 288.119 -4.14208 -2.73397 0
M  V30 3076 H 283.375 -5.54613 -2.57321 0
M  V30 3077 H 287.549 -6.52393 -2.43632 0
M  V30 3078 H 285.176 -7.22935 -2.35093 0
M  V30 3079 N 286.751 1.08385 -1.14413 0
M  V30 3080 C 287.683 2.1519 -0.789036 0
M  V30 3081 C 288.696 1.61638 0.19417 0
M  V30 3082 O 289.885 1.78479 -0.0275711 0
M  V30 3083 C 286.985 3.38565 -0.15058 0
M  V30 3084 C 286.158 4.21501 -1.16857 0
M  V30 3085 C 285.217 5.23277 -0.553832 0
M  V30 3086 O 284.243 5.56041 -1.21686 0
M  V30 3087 N 285.445 5.76629 0.669296 0
M  V30 3088 H 288.21 2.46257 -1.70814 0
M  V30 3089 H 285.771 1.24198 -1.03858 0
M  V30 3090 H 287.763 4.03777 0.273181 0
M  V30 3091 H 286.333 3.05299 0.671667 0
M  V30 3092 H 285.553 3.52265 -1.76926 0
M  V30 3093 H 286.841 4.73731 -1.85624 0
M  V30 3094 H 286.239 5.52243 1.22654 0
M  V30 3095 H 284.796 6.43521 1.03556 0
M  V30 3096 N 288.23 0.939286 1.26551 0
M  V30 3097 C 289.455 0.602008 1.98471 0
M  V30 3098 C 289.88 -0.815624 1.69497 0
M  V30 3099 O 289.238 -1.54912 0.941905 0
M  V30 3100 C 289.286 0.848407 3.50477 0
M  V30 3101 O 288.39 -0.0804009 4.12322 0
M  V30 3102 H 287.731 0.23049 0.622712 0
M  V30 3103 H 290.261 1.2617 1.61066 0
M  V30 3104 H 290.271 0.768553 4.00696 0
M  V30 3105 H 288.946 1.88171 3.70897 0
M  V30 3106 H 287.523 0.0503508 3.72866 0
M  V30 3107 N 289.708 -1.40897 0.706093 0
M  V30 3108 C 290.641 -2.282 -0.00328781 0
M  V30 3109 C 291.619 -1.42816 -0.77732 0
M  V30 3110 O 292.803 -1.72237 -0.765944 0
M  V30 3111 C 289.93 -3.23226 -1.01205 0
M  V30 3112 C 288.976 -4.25222 -0.329955 0
M  V30 3113 S 289.809 -5.27269 0.935298 0
M  V30 3114 C 290.965 -6.25859 -0.0716061 0
M  V30 3115 H 291.198 -2.88016 0.737143 0
M  V30 3116 H 288.731 -1.46191 0.496756 0
M  V30 3117 H 290.689 -3.78503 -1.58888 0
M  V30 3118 H 289.35 -2.62485 -1.72513 0
M  V30 3119 H 288.543 -4.92023 -1.09221 0
M  V30 3120 H 288.145 -3.73595 0.174069 0
M  V30 3121 H 290.437 -6.71204 -0.921521 0
M  V30 3122 H 291.38 -7.0586 0.562765 0
M  V30 3123 H 291.788 -5.62852 -0.431088 0
M  V30 3124 N 291.186 -0.45159 -1.50991 0
M  V30 3125 C 292.149 0.341117 -2.26647 0
M  V30 3126 C 293.149 0.937422 -1.30649 0
M  V30 3127 O 294.339 0.809644 -1.54241 0
M  V30 3128 C 291.471 1.48398 -3.06905 0
M  V30 3129 H 292.664 -0.322117 -2.98165 0
M  V30 3130 H 290.217 -0.205122 -1.54948 0
M  V30 3131 H 290.952 2.18284 -2.39838 0
M  V30 3132 H 290.737 1.06241 -3.77432 0
M  V30 3133 H 292.227 2.04367 -3.64176 0
M  V30 3134 N 292.664 1.56529 -0.183458 0
M  V30 3135 C 293.892 2.01623 0.464285 0
M  V30 3136 C 294.307 1.06366 1.55986 0
M  V30 3137 O 293.664 0.0665398 1.82379 0
M  V30 3138 C 293.715 3.46475 1.03139 0
M  V30 3139 O 293.436 4.38095 -0.0204675 0
M  V30 3140 C 294.937 4.0703 1.75617 0
M  V30 3141 H 292.157 0.660596 0.117704 0
M  V30 3142 H 294.701 2.02451 -0.288751 0
M  V30 3143 H 292.856 3.46383 1.73486 0
M  V30 3144 H 293.27 5.22973 0.399952 0
M  V30 3145 H 294.744 5.10271 2.10542 0
M  V30 3146 H 295.221 3.49819 2.65563 0
M  V30 3147 H 295.827 4.1086 1.09882 0
M  V30 3148 N 294.142 -0.090211 1.57342 0
M  V30 3149 C 295.389 -0.792807 1.86335 0
M  V30 3150 C 295.717 -1.78494 0.772662 0
M  V30 3151 O 294.972 -1.94305 -0.233258 0
M  V30 3152 C 295.271 -1.55222 3.21933 0
M  V30 3153 C 294.937 -0.701765 4.45406 0
M  V30 3154 C 293.599 -0.467334 4.78925 0
M  V30 3155 C 295.951 -0.11086 5.21082 0
M  V30 3156 C 293.279 0.367785 5.85546 0
M  V30 3157 C 295.631 0.711609 6.28585 0
M  V30 3158 C 294.295 0.956086 6.60617 0
M  V30 3159 H 293.565 -0.290109 0.681849 0
M  V30 3160 H 296.212 -0.0541332 1.91423 0
M  V30 3161 H 294.517 -2.3626 3.12551 0
M  V30 3162 H 296.214 -2.10032 3.41595 0
M  V30 3163 H 292.804 -0.894598 4.1916 0
M  V30 3164 H 296.988 -0.279129 4.95514 0
M  V30 3165 H 292.244 0.566128 6.08773 0
M  V30 3166 H 296.418 1.17632 6.86393 0
M  V30 3167 H 294.045 1.60499 7.43064 0
M  V30 3168 N 295.62 -1.53406 -0.361157 0
M  V30 3169 C 296.867 -1.69802 -1.10333 0
M  V30 3170 C 297.195 -0.452087 -1.89173 0
M  V30 3171 O 296.45 0.566017 -1.87336 0
M  V30 3172 C 296.749 -2.90211 -2.08596 0
M  V30 3173 C 296.415 -4.26539 -1.46203 0
M  V30 3174 C 295.077 -4.6361 -1.28915 0
M  V30 3175 C 297.429 -5.113 -1.01101 0
M  V30 3176 C 294.757 -5.83075 -0.651157 0
M  V30 3177 C 297.109 -6.31415 -0.387007 0
M  V30 3178 C 295.773 -6.67195 -0.201657 0
M  V30 3179 H 295.043 -0.621351 -0.403737 0
M  V30 3180 H 297.69 -1.87598 -0.384609 0
M  V30 3181 H 295.995 -2.66946 -2.86788 0
M  V30 3182 H 297.692 -3.00091 -2.65982 0
M  V30 3183 H 294.282 -3.97352 -1.60653 0
M  V30 3184 H 298.466 -4.83206 -1.13249 0
M  V30 3185 H 293.722 -6.09385 -0.496006 0
M  V30 3186 H 297.896 -6.96394 -0.0293563 0
M  V30 3187 H 295.523 -7.59628 0.294766 0
M  V30 3188 N 297.098 0.621204 -1.44841 0
M  V30 3189 C 298.326 1.40752 -1.51646 0
M  V30 3190 C 298.741 1.88246 -0.144549 0
M  V30 3191 O 298.098 1.61422 0.851416 0
M  V30 3192 C 298.149 2.62119 -2.4895 0
M  V30 3193 O 297.87 2.16602 -3.80808 0
M  V30 3194 C 299.371 3.55135 -2.65319 0
M  V30 3195 H 296.591 0.431325 -0.514004 0
M  V30 3196 H 299.135 0.758835 -1.899 0
M  V30 3197 H 297.29 3.23058 -2.13805 0
M  V30 3198 H 297.704 2.95358 -4.33433 0
M  V30 3199 H 299.178 4.36874 -3.37409 0
M  V30 3200 H 299.655 4.04592 -1.70886 0
M  V30 3201 H 300.261 3.00058 -3.01405 0
M  V30 3202 N 298.576 1.31904 0.862503 0
M  V30 3203 C 299.824 1.21776 1.61292 0
M  V30 3204 C 300.145 -0.222413 1.93727 0
M  V30 3205 O 299.415 -1.1451 1.58947 0
M  V30 3206 H 297.995 0.447717 0.597962 0
M  V30 3207 H 300.657 1.65326 1.03215 0
M  V30 3208 H 299.753 1.7948 2.5533 0
M  V30 3209 N 300.054 -1.07777 1.14986 0
M  V30 3210 C 301.301 -1.8029 0.922056 0
M  V30 3211 C 301.629 -1.86531 -0.55105 0
M  V30 3212 O 300.884 -1.34189 -1.42449 0
M  V30 3213 C 301.183 -3.25495 1.47608 0
M  V30 3214 C 300.849 -3.39361 2.96893 0
M  V30 3215 C 299.511 -3.42852 3.37647 0
M  V30 3216 C 301.863 -3.42512 3.92854 0
M  V30 3217 C 299.191 -3.47094 4.73015 0
M  V30 3218 C 301.543 -3.4829 5.28088 0
M  V30 3219 C 300.207 -3.50058 5.68345 0
M  V30 3220 H 299.477 -0.659727 0.337404 0
M  V30 3221 H 302.124 -1.26854 1.43459 0
M  V30 3222 H 300.429 -3.81683 0.88463 0
M  V30 3223 H 302.126 -3.80168 1.27568 0
M  V30 3224 H 298.716 -3.37339 2.64387 0
M  V30 3225 H 302.9 -3.3904 3.62444 0
M  V30 3226 H 298.156 -3.46758 5.03556 0
M  V30 3227 H 302.33 -3.49675 6.02246 0
M  V30 3228 H 299.957 -3.53097 6.73221 0
M  V30 3229 N 301.532 -0.945985 -1.26051 0
M  V30 3230 C 302.781 -0.591836 -1.92822 0
M  V30 3231 C 303.094 0.873956 -1.7499 0
M  V30 3232 O 304.3 1.33769 -2.36259 0
M  V30 3233 C 302.756 -1.00776 -3.45503 0
M  V30 3234 C 302.364 -2.4955 -3.7206 0
M  V30 3235 C 304.108 -0.725735 -4.1825 0
M  V30 3236 C 302.015 -2.84988 -5.18205 0
M  V30 3237 H 300.945 -0.217635 -0.721908 0
M  V30 3238 H 303.596 -1.14927 -1.43052 0
M  V30 3239 H 301.978 -0.378812 -3.94184 0
M  V30 3240 H 303.152 -3.1739 -3.34066 0
M  V30 3241 H 301.467 -2.75133 -3.12555 0
M  V30 3242 H 304.064 -0.966771 -5.25887 0
M  V30 3243 H 304.407 0.337639 -4.14929 0
M  V30 3244 H 304.94 -1.31463 -3.7545 0
M  V30 3245 H 301.679 -3.90307 -5.26631 0
M  V30 3246 H 301.199 -2.21813 -5.57278 0
M  V30 3247 H 302.878 -2.73712 -5.86252 0
M  V30 3248 N 303.011 1.40521 -0.713556 0
M  V30 3249 C 304.257 2.01221 -0.252564 0
M  V30 3250 C 304.59 1.56444 1.1506 0
M  V30 3251 O 303.865 0.783597 1.78017 0
M  V30 3252 C 304.148 3.58582 -0.330332 0
M  V30 3253 C 304.001 4.13437 -1.77173 0
M  V30 3254 C 305.32 4.39079 0.299641 0
M  V30 3255 H 302.439 0.731077 -0.0932471 0
M  V30 3256 H 305.081 1.67026 -0.905673 0
M  V30 3257 H 303.231 3.87844 0.225737 0
M  V30 3258 H 304.903 3.9498 -2.38303 0
M  V30 3259 H 303.146 3.67801 -2.3001 0
M  V30 3260 H 303.817 5.22597 -1.77755 0
M  V30 3261 H 306.293 4.15735 -0.174139 0
M  V30 3262 H 305.169 5.4848 0.214771 0
M  V30 3263 H 305.43 4.19915 1.38288 0
M  V30 3264 N 304.489 0.459591 1.5075 0
M  V30 3265 C 305.737 -0.0991532 2.01857 0
M  V30 3266 C 306.058 -1.41247 1.34441 0
M  V30 3267 O 305.328 -1.89775 0.486022 0
M  V30 3268 H 303.908 -0.039633 0.745948 0
M  V30 3269 H 306.57 0.607387 1.85194 0
M  V30 3270 H 305.666 -0.258998 3.11023 0
M  V30 3271 N 305.967 -1.56429 0.191757 0
M  V30 3272 C 307.214 -1.97485 -0.447891 0
M  V30 3273 C 307.542 -1.07852 -1.61859 0
M  V30 3274 O 306.797 -0.116903 -1.95351 0
M  V30 3275 C 307.096 -3.44449 -0.953384 0
M  V30 3276 C 306.762 -4.50781 0.103586 0
M  V30 3277 C 305.424 -4.79584 0.394023 0
M  V30 3278 C 307.776 -5.1471 0.819946 0
M  V30 3279 C 305.104 -5.69607 1.40585 0
M  V30 3280 C 307.456 -6.05827 1.8209 0
M  V30 3281 C 306.12 -6.32987 2.11857 0
M  V30 3282 H 305.39 -0.722648 -0.163895 0
M  V30 3283 H 308.037 -1.89322 0.28802 0
M  V30 3284 H 306.342 -3.49666 -1.76751 0
M  V30 3285 H 308.039 -3.73569 -1.45765 0
M  V30 3286 H 304.629 -4.28394 -0.132951 0
M  V30 3287 H 308.813 -4.92552 0.608789 0
M  V30 3288 H 304.069 -5.88926 1.64243 0
M  V30 3289 H 308.243 -6.54424 2.38123 0
M  V30 3290 H 305.87 -7.02544 2.90407 0
M  V30 3291 N 307.445 0.0818655 -1.57387 0
M  V30 3292 C 308.673 0.796108 -1.9097 0
M  V30 3293 C 309.088 1.71626 -0.786757 0
M  V30 3294 O 308.445 1.80908 0.240513 0
M  V30 3295 C 308.496 1.59829 -3.24248 0
M  V30 3296 O 308.217 0.715131 -4.32224 0
M  V30 3297 C 309.718 2.41442 -3.7178 0
M  V30 3298 H 306.938 0.22691 -0.631469 0
M  V30 3299 H 309.482 0.0551439 -2.04426 0
M  V30 3300 H 307.637 2.29163 -3.12351 0
M  V30 3301 H 308.051 1.27205 -5.08841 0
M  V30 3302 H 309.525 2.932 -4.67694 0
M  V30 3303 H 310.002 3.2051 -3.00283 0
M  V30 3304 H 310.608 1.77283 -3.86589 0
M  V30 3305 N 308.923 1.53595 0.353017 0
M  V30 3306 C 310.339 1.43648 0.695516 0
M  V30 3307 C 310.539 0.585617 1.92802 0
M  V30 3308 O 309.595 0.0729223 2.52395 0
M  V30 3309 C 310.908 2.8701 0.896991 0
M  V30 3310 C 312.456 2.96723 0.996209 0
M  V30 3311 C 312.931 4.41173 1.23007 0
M  V30 3312 N 314.422 4.44657 1.29749 0
M  V30 3313 C 315.157 5.53547 1.49577 0
M  V30 3314 N 314.653 6.72461 1.66639 0
M  V30 3315 N 316.446 5.41145 1.52048 0
M  V30 3316 H 308.597 2.07415 -0.457481 0
M  V30 3317 H 310.86 0.9372 -0.142687 0
M  V30 3318 H 310.566 3.51644 0.0629938 0
M  V30 3319 H 310.44 3.31401 1.80148 0
M  V30 3320 H 312.827 2.32235 1.82074 0
M  V30 3321 H 312.908 2.55707 0.0688331 0
M  V30 3322 H 312.552 5.06238 0.410505 0
M  V30 3323 H 312.482 4.79772 2.17086 0
M  V30 3324 H 314.973 3.58963 1.18126 0
M  V30 3325 H 315.286 7.51214 1.81378 0
M  V30 3326 H 313.631 6.75423 1.63794 0
M  V30 3327 H 316.822 4.47205 1.38294 0
M  V30 3328 H 316.995 6.26068 1.67159 0
M  V30 3329 N 310.401 -0.613514 1.45168 0
M  V30 3330 C 311.649 -1.36997 1.48581 0
M  V30 3331 C 311.97 -1.94589 0.126545 0
M  V30 3332 O 311.24 -1.76816 -0.843372 0
M  V30 3333 H 309.82 -0.508558 0.547154 0
M  V30 3334 H 312.482 -0.720853 1.81079 0
M  V30 3335 H 311.578 -2.1924 2.22127 0
M  V30 3336 N 311.879 -1.3236 -0.855495 0
M  V30 3337 C 313.125 -1.24064 -1.61182 0
M  V30 3338 C 313.48 0.195914 -1.914 0
M  V30 3339 O 312.773 1.13345 -1.54478 0
M  V30 3340 C 312.967 -2.03275 -2.93963 0
M  V30 3341 C 312.796 -3.54486 -2.76712 0
M  V30 3342 C 311.566 -4.23824 -2.75139 0
M  V30 3343 C 313.764 -4.49154 -2.50531 0
M  V30 3344 N 311.746 -5.61095 -2.4909 0
M  V30 3345 C 313.117 -5.74195 -2.3388 0
M  V30 3346 C 315.172 -4.3842 -2.35992 0
M  V30 3347 C 313.875 -6.89716 -2.04168 0
M  V30 3348 C 315.901 -5.53739 -2.0767 0
M  V30 3349 C 315.263 -6.77779 -1.9182 0
M  V30 3350 H 311.362 -0.509139 -0.59355 0
M  V30 3351 H 313.946 -1.66715 -1.00569 0
M  V30 3352 H 312.117 -1.6297 -3.52555 0
M  V30 3353 H 313.849 -1.86881 -3.58967 0
M  V30 3354 H 310.604 -3.75934 -2.88047 0
M  V30 3355 H 311.028 -6.33411 -2.38996 0
M  V30 3356 H 315.67 -3.43172 -2.46967 0
M  V30 3357 H 313.388 -7.84977 -1.9193 0
M  V30 3358 H 316.974 -5.4736 -1.97201 0
M  V30 3359 H 315.854 -7.65504 -1.70217 0
M  V30 3360 N 313.357 1.07166 -1.15556 0
M  V30 3361 C 314.304 2.14417 -0.854055 0
M  V30 3362 C 315.274 1.64965 0.193806 0
M  V30 3363 O 316.459 1.90703 0.0609443 0
M  V30 3364 C 313.599 3.43304 -0.351574 0
M  V30 3365 C 312.712 4.06537 -1.46123 0
M  V30 3366 C 311.847 5.23266 -0.914677 0
M  V30 3367 C 310.886 5.78464 -2.00114 0
M  V30 3368 N 310.023 6.86521 -1.47083 0
M  V30 3369 H 314.863 2.39548 -1.77259 0
M  V30 3370 H 312.4 1.17543 -0.884425 0
M  V30 3371 H 314.358 4.17179 -0.0419409 0
M  V30 3372 H 312.988 3.18419 0.530037 0
M  V30 3373 H 312.04 3.30297 -1.88701 0
M  V30 3374 H 313.352 4.43567 -2.28144 0
M  V30 3375 H 312.506 6.04131 -0.557698 0
M  V30 3376 H 311.245 4.87658 -0.0636583 0
M  V30 3377 H 310.25 4.96243 -2.36692 0
M  V30 3378 H 311.475 6.16126 -2.85597 0
M  V30 3379 H 309.421 6.52849 -0.642198 0
M  V30 3380 H 309.338 7.22446 -2.22729 0
M  V30 3381 H 310.606 7.71087 -1.14215 0
M  V30 3382 N 314.835 0.952656 1.25548 0
M  V30 3383 C 315.765 0.489287 2.28316 0
M  V30 3384 C 316.746 -0.463359 1.63667 0
M  V30 3385 O 317.931 -0.36274 1.90782 0
M  V30 3386 C 315.061 -0.235603 3.465 0
M  V30 3387 C 314.015 0.631593 4.23314 0
M  V30 3388 C 313.341 -0.223923 5.34231 0
M  V30 3389 C 314.641 1.90871 4.86174 0
M  V30 3390 H 316.335 1.34822 2.67326 0
M  V30 3391 H 313.881 0.649728 1.28509 0
M  V30 3392 H 315.834 -0.570882 4.17515 0
M  V30 3393 H 314.558 -1.12877 3.06474 0
M  V30 3394 H 313.217 0.949929 3.54079 0
M  V30 3395 H 312.865 -1.11678 4.90446 0
M  V30 3396 H 312.565 0.35299 5.86539 0
M  V30 3397 H 314.089 -0.554214 6.0808 0
M  V30 3398 H 315.503 1.63997 5.49343 0
M  V30 3399 H 313.9 2.43112 5.4865 0
M  V30 3400 H 314.97 2.61304 4.08471 0
M  V30 3401 N 316.313 -1.40141 0.720998 0
M  V30 3402 C 317.541 -2.05096 0.272656 0
M  V30 3403 C 317.956 -1.54334 -1.0875 0
M  V30 3404 O 317.313 -0.702211 -1.6845 0
M  V30 3405 C 317.364 -3.60636 0.249835 0
M  V30 3406 O 317.085 -4.09526 1.55629 0
M  V30 3407 C 318.586 -4.42772 -0.216396 0
M  V30 3408 H 315.806 -0.659897 0.121558 0
M  V30 3409 H 318.35 -1.79449 0.980723 0
M  V30 3410 H 316.505 -3.85232 -0.409237 0
M  V30 3411 H 316.919 -5.03758 1.4604 0
M  V30 3412 H 318.393 -5.51702 -0.181212 0
M  V30 3413 H 318.87 -4.20756 -1.25941 0
M  V30 3414 H 319.476 -4.23294 0.412596 0
M  V30 3415 N 317.792 -0.46758 -1.50504 0
M  V30 3416 C 318.722 0.318381 -2.31319 0
M  V30 3417 C 319.703 0.993564 -1.38066 0
M  V30 3418 O 320.888 0.991411 -1.66987 0
M  V30 3419 C 318.018 1.40275 -3.17711 0
M  V30 3420 C 316.972 0.849373 -4.19487 0
M  V30 3421 C 316.298 2.03177 -4.94594 0
M  V30 3422 C 317.598 -0.136942 -5.2212 0
M  V30 3423 H 319.292 -0.356106 -2.97275 0
M  V30 3424 H 316.838 -0.172703 -1.42961 0
M  V30 3425 H 318.791 1.96004 -3.73042 0
M  V30 3426 H 317.515 2.10596 -2.49634 0
M  V30 3427 H 316.174 0.314076 -3.65252 0
M  V30 3428 H 315.822 2.72187 -4.22993 0
M  V30 3429 H 315.522 1.66774 -5.63436 0
M  V30 3430 H 317.046 2.59403 -5.52759 0
M  V30 3431 H 318.46 0.331056 -5.72343 0
M  V30 3432 H 316.857 -0.41507 -5.98663 0
M  V30 3433 H 317.927 -1.06398 -4.73083 0
M  V30 3434 N 319.27 1.56325 -0.20005 0
M  V30 3435 C 320.516 1.98012 0.438059 0
M  V30 3436 C 320.849 1.08702 1.60927 0
M  V30 3437 O 320.124 0.140064 1.93995 0
M  V30 3438 C 320.407 3.48841 0.893419 0
M  V30 3439 C 320.26 4.48928 -0.279947 0
M  V30 3440 C 321.579 4.03498 1.75719 0
M  V30 3441 H 318.698 0.719918 0.157757 0
M  V30 3442 H 321.34 1.87743 -0.291968 0
M  V30 3443 H 319.49 3.57723 1.51547 0
M  V30 3444 H 321.162 4.52079 -0.91772 0
M  V30 3445 H 319.405 4.23694 -0.930919 0
M  V30 3446 H 320.076 5.5194 0.0812601 0
M  V30 3447 H 322.552 3.97427 1.23253 0
M  V30 3448 H 321.428 5.09393 2.04476 0
M  V30 3449 H 321.689 3.4906 2.71311 0
M  V30 3450 N 320.748 -0.0735177 1.57428 0
M  V30 3451 C 321.997 -0.771809 1.86349 0
M  V30 3452 C 322.31 -1.78828 0.792452 0
M  V30 3453 O 323.516 -2.53602 0.96945 0
M  V30 3454 C 321.972 -1.42358 3.30548 0
M  V30 3455 C 321.58 -0.445761 4.45777 0
M  V30 3456 C 323.324 -2.10434 3.6867 0
M  V30 3457 C 321.231 -1.10335 5.81016 0
M  V30 3458 H 320.161 -0.291999 0.695164 0
M  V30 3459 H 322.812 -0.0250749 1.83483 0
M  V30 3460 H 321.194 -2.21852 3.28021 0
M  V30 3461 H 322.368 0.319239 4.59693 0
M  V30 3462 H 320.683 0.130457 4.16196 0
M  V30 3463 H 323.28 -2.60405 4.67004 0
M  V30 3464 H 323.623 -2.90298 2.98383 0
M  V30 3465 H 324.156 -1.37773 3.7318 0
M  V30 3466 H 320.895 -0.345061 6.54591 0
M  V30 3467 H 320.415 -1.83925 5.70904 0
M  V30 3468 H 322.094 -1.62367 6.26295 0
M  V30 3469 N 322.226 -1.5378 -0.344866 0
M  V30 3470 C 323.156 -1.84662 -1.42906 0
M  V30 3471 C 324.137 -0.701648 -1.54955 0
M  V30 3472 O 325.322 -0.953438 -1.69184 0
M  V30 3473 C 322.452 -2.05503 -2.79974 0
M  V30 3474 C 321.406 -3.21318 -2.82734 0
M  V30 3475 C 320.732 -3.2749 -4.22675 0
M  V30 3476 C 322.032 -4.59456 -2.48389 0
M  V30 3477 H 323.726 -2.75461 -1.17311 0
M  V30 3478 H 321.272 -1.32542 -0.562896 0
M  V30 3479 H 323.225 -2.25691 -3.55867 0
M  V30 3480 H 321.949 -1.11434 -3.07002 0
M  V30 3481 H 320.608 -3.00984 -2.09294 0
M  V30 3482 H 320.256 -2.31019 -4.4681 0
M  V30 3483 H 319.956 -4.05316 -4.25433 0
M  V30 3484 H 321.48 -3.49887 -5.00412 0
M  V30 3485 H 322.894 -4.79667 -3.13995 0
M  V30 3486 H 321.291 -5.39675 -2.62432 0
M  V30 3487 H 322.361 -4.63155 -1.4358 0
M  V30 3488 N 323.704 0.605807 -1.45491 0
M  V30 3489 C 324.667 1.69836 -1.5391 0
M  V30 3490 C 325.667 1.55261 -0.418424 0
M  V30 3491 O 326.857 1.60296 -0.681965 0
M  V30 3492 C 323.989 3.09117 -1.43734 0
M  V30 3493 H 325.182 1.63738 -2.51257 0
M  V30 3494 H 322.735 0.821689 -1.32959 0
M  V30 3495 H 323.47 3.20791 -0.475788 0
M  V30 3496 H 323.255 3.21104 -2.25021 0
M  V30 3497 H 324.745 3.88696 -1.52661 0
M  V30 3498 N 325.182 1.32811 0.848464 0
M  V30 3499 C 326.431 1.23075 1.59798 0
M  V30 3500 C 326.744 -0.204419 1.94529 0
M  V30 3501 O 327.95 -0.423701 2.68173 0
M  V30 3502 C 326.406 2.15594 2.88179 0
M  V30 3503 C 326.014 3.64228 2.60849 0
M  V30 3504 C 327.758 2.14709 3.66197 0
M  V30 3505 C 325.665 4.48689 3.85269 0
M  V30 3506 H 324.595 0.457091 0.599653 0
M  V30 3507 H 327.246 1.57813 0.936342 0
M  V30 3508 H 325.628 1.73778 3.55833 0
M  V30 3509 H 326.802 4.14424 2.01467 0
M  V30 3510 H 325.117 3.67306 1.96151 0
M  V30 3511 H 327.714 2.75046 4.58534 0
M  V30 3512 H 328.057 1.13966 4.00397 0
M  V30 3513 H 328.59 2.54837 3.05455 0
M  V30 3514 H 325.329 5.5027 3.56207 0
M  V30 3515 H 324.849 4.03241 4.44024 0
M  V30 3516 H 326.528 4.62006 4.52946 0
M  V30 3517 N 326.66 -1.06551 1.16123 0
M  V30 3518 C 327.885 -1.83544 0.965735 0
M  V30 3519 C 328.31 -1.81843 -0.481102 0
M  V30 3520 O 327.668 -1.21732 -1.34354 0
M  V30 3521 C 327.716 -3.28169 1.49457 0
M  V30 3522 O 326.82 -4.0643 0.699157 0
M  V30 3523 H 326.161 -0.568026 0.343864 0
M  V30 3524 H 328.691 -1.34362 1.54299 0
M  V30 3525 H 328.701 -3.78992 1.51092 0
M  V30 3526 H 327.376 -3.28722 2.54784 0
M  V30 3527 H 325.953 -3.65216 0.7531 0
M  V30 3528 N 328.138 -0.959301 -1.25041 0
M  V30 3529 C 329.549 -0.65667 -1.74771 0
M  V30 3530 C 329.9 0.827852 -1.77879 0
M  V30 3531 O 329.025 1.64783 -1.40269 0
M  V30 3532 C 329.62 -1.1853 -3.1739 0
M  V30 3533 C 328.179 -0.932734 -3.6466 0
M  V30 3534 C 327.326 -1.32558 -2.43564 0
M  V30 3535 H 330.277 -1.13558 -1.10862 0
M  V30 3536 H 330.298 -0.547582 -3.76539 0
M  V30 3537 H 329.81 -2.26576 -3.15095 0
M  V30 3538 H 327.911 0.13257 -3.72364 0
M  V30 3539 H 328.024 -1.57248 -4.52559 0
M  V30 3540 H 326.388 -0.743956 -2.43593 0
M  V30 3541 H 327.171 -2.41537 -2.43957 0
M  V30 3542 N 329.616 1.39756 -0.72842 0
M  V30 3543 C 330.862 2.00942 -0.273892 0
M  V30 3544 C 331.195 1.57656 1.13394 0
M  V30 3545 O 330.47 0.802434 1.77176 0
M  V30 3546 C 330.753 3.58211 -0.368346 0
M  V30 3547 C 330.606 4.11534 -1.81548 0
M  V30 3548 C 331.925 4.39372 0.253054 0
M  V30 3549 H 329.044 0.730047 -0.100996 0
M  V30 3550 H 331.686 1.66056 -0.923337 0
M  V30 3551 H 329.836 3.88061 0.184588 0
M  V30 3552 H 331.508 3.92431 -2.42478 0
M  V30 3553 H 329.751 3.65341 -2.33898 0
M  V30 3554 H 330.422 5.20682 -1.83288 0
M  V30 3555 H 332.898 4.15527 -0.218224 0
M  V30 3556 H 331.774 5.48677 0.156585 0
M  V30 3557 H 332.035 4.21358 1.33826 0
M  V30 3558 N 331.094 0.475555 1.50254 0
M  V30 3559 C 332.024 -0.30611 2.31485 0
M  V30 3560 C 333.005 -0.986228 1.38591 0
M  V30 3561 O 334.19 -0.982541 1.67511 0
M  V30 3562 C 331.32 -1.38588 3.1845 0
M  V30 3563 C 330.274 -0.827115 4.19932 0
M  V30 3564 C 329.6 -2.00551 4.95665 0
M  V30 3565 C 330.9 0.16463 5.2204 0
M  V30 3566 H 332.594 0.371866 2.97082 0
M  V30 3567 H 330.14 0.180282 1.42867 0
M  V30 3568 H 332.093 -1.94023 3.74076 0
M  V30 3569 H 330.817 -2.09269 2.50747 0
M  V30 3570 H 329.476 -0.294702 3.65414 0
M  V30 3571 H 329.124 -2.6994 4.2443 0
M  V30 3572 H 328.824 -1.63784 5.64313 0
M  V30 3573 H 330.348 -2.56468 5.54127 0
M  V30 3574 H 331.762 -0.300699 5.72511 0
M  V30 3575 H 330.159 0.446813 5.98434 0
M  V30 3576 H 331.229 1.08905 4.72512 0
M  V30 3577 N 332.573 -1.56217 0.208337 0
M  V30 3578 C 333.821 -1.97558 -0.426076 0
M  V30 3579 C 334.142 -1.09683 -1.61229 0
M  V30 3580 O 333.412 -0.170956 -1.95153 0
M  V30 3581 H 331.992 -0.729575 -0.160405 0
M  V30 3582 H 334.654 -1.92606 0.298155 0
M  V30 3583 H 333.75 -3.02672 -0.761312 0
M  V30 3584 N 334.051 0.0651679 -1.57465 0
M  V30 3585 C 334.981 1.07693 -2.07182 0
M  V30 3586 C 335.962 1.39962 -0.966673 0
M  V30 3587 O 337.147 1.49475 -1.2398 0
M  V30 3588 C 334.277 2.3885 -2.52127 0
M  V30 3589 C 333.231 2.20917 -3.66579 0
M  V30 3590 C 332.557 3.57515 -3.97601 0
M  V30 3591 C 333.857 1.62493 -4.9638 0
M  V30 3592 H 335.551 0.663199 -2.91962 0
M  V30 3593 H 333.097 0.317569 -1.40455 0
M  V30 3594 H 335.05 3.09928 -2.85522 0
M  V30 3595 H 333.774 2.82215 -1.64384 0
M  V30 3596 H 332.433 1.52279 -3.33477 0
M  V30 3597 H 332.081 3.98463 -3.06979 0
M  V30 3598 H 331.781 3.46353 -4.74672 0
M  V30 3599 H 333.305 4.30013 -4.33499 0
M  V30 3600 H 334.719 2.23445 -5.27963 0
M  V30 3601 H 333.116 1.62009 -5.77818 0
M  V30 3602 H 334.186 0.587041 -4.81333 0
M  V30 3603 N 335.529 1.53961 0.336706 0
M  V30 3604 C 336.754 1.75797 1.10046 0
M  V30 3605 C 337.179 0.498985 1.81361 0
M  V30 3606 O 336.537 -0.548769 1.72795 0
M  V30 3607 C 336.585 2.94257 2.08436 0
M  V30 3608 O 335.689 2.64883 3.16087 0
M  V30 3609 H 335.03 0.582936 0.317934 0
M  V30 3610 H 337.56 2.00945 0.38501 0
M  V30 3611 H 337.57 3.21237 2.51537 0
M  V30 3612 H 336.245 3.85564 1.55927 0
M  V30 3613 H 334.822 2.48812 2.77753 0
M  V30 3614 N 337.007 -0.598083 1.45811 0
M  V30 3615 C 337.97 -1.69018 1.54808 0
M  V30 3616 C 338.97 -1.55037 0.426652 0
M  V30 3617 O 340.16 -1.59932 0.690456 0
M  V30 3618 C 337.292 -3.0835 1.45371 0
M  V30 3619 H 338.485 -1.62403 2.52121 0
M  V30 3620 H 336.038 -0.814626 1.33392 0
M  V30 3621 H 336.773 -3.20534 0.492793 0
M  V30 3622 H 336.558 -3.19907 2.26721 0
M  V30 3623 H 338.048 -3.8788 1.54721 0
M  V30 3624 N 338.485 -1.33259 -0.841409 0
M  V30 3625 C 339.448 -1.23221 -1.9326 0
M  V30 3626 C 340.448 -0.151895 -1.60081 0
M  V30 3627 O 341.638 -0.403246 -1.69468 0
M  V30 3628 C 338.77 -0.898123 -3.28856 0
M  V30 3629 H 339.963 -2.2021 -2.03587 0
M  V30 3630 H 337.516 -1.17281 -1.03319 0
M  V30 3631 H 338.251 0.0693841 -3.24226 0
M  V30 3632 H 338.036 -1.67934 -3.54317 0
M  V30 3633 H 339.526 -0.852563 -4.08805 0
M  V30 3634 N 339.963 1.05934 -1.16686 0
M  V30 3635 C 341.209 1.79065 -0.95203 0
M  V30 3636 C 341.542 1.87147 0.518629 0
M  V30 3637 O 340.817 1.36574 1.38484 0
M  V30 3638 C 341.1 3.23359 -1.58464 0
M  V30 3639 C 340.953 3.23336 -3.12689 0
M  V30 3640 C 342.272 4.21004 -1.28232 0
M  V30 3641 H 339.391 0.65005 -0.34728 0
M  V30 3642 H 342.033 1.23868 -1.44072 0
M  V30 3643 H 340.183 3.70493 -1.16908 0
M  V30 3644 H 341.855 2.84336 -3.6325 0
M  V30 3645 H 340.098 2.61886 -3.4583 0
M  V30 3646 H 340.769 4.25144 -3.52075 0
M  V30 3647 H 343.245 3.8233 -1.64203 0
M  V30 3648 H 342.121 5.20225 -1.75092 0
M  V30 3649 H 342.382 4.41639 -0.201791 0
M  V30 3650 N 341.441 0.965919 1.2453 0
M  V30 3651 C 342.687 0.637349 1.93156 0
M  V30 3652 C 343.042 -0.818261 1.74133 0
M  V30 3653 O 342.335 -1.58079 1.08266 0
M  V30 3654 C 342.529 0.945428 3.44669 0
M  V30 3655 C 342.358 2.42944 3.78429 0
M  V30 3656 C 341.128 3.08895 3.9989 0
M  V30 3657 C 343.326 3.40941 3.8505 0
M  V30 3658 N 341.308 4.47052 4.20735 0
M  V30 3659 C 342.679 4.64448 4.10717 0
M  V30 3660 C 344.734 3.35624 3.67779 0
M  V30 3661 C 343.437 5.83292 4.20907 0
M  V30 3662 C 345.463 4.53818 3.79214 0
M  V30 3663 C 344.825 5.76114 4.05304 0
M  V30 3664 H 340.924 0.284034 0.728594 0
M  V30 3665 H 343.508 1.24041 1.50073 0
M  V30 3666 H 341.679 0.371193 3.86622 0
M  V30 3667 H 343.411 0.575613 4.00586 0
M  V30 3668 H 340.166 2.59432 3.96222 0
M  V30 3669 H 340.59 5.18634 4.35141 0
M  V30 3670 H 345.232 2.4211 3.46616 0
M  V30 3671 H 342.95 6.77236 4.40883 0
M  V30 3672 H 346.536 4.51263 3.67224 0
M  V30 3673 H 345.416 6.66045 4.13949 0
M  V30 3674 N 342.919 -1.39368 0.735821 0
M  V30 3675 C 343.882 -2.2896 0.104874 0
M  V30 3676 C 344.882 -1.46347 -0.666274 0
M  V30 3677 O 346.072 -1.67014 -0.49517 0
M  V30 3678 C 343.204 -3.29857 -0.860656 0
M  V30 3679 H 344.397 -2.86259 0.894205 0
M  V30 3680 H 341.95 -1.48029 0.501704 0
M  V30 3681 H 342.685 -2.77615 -1.67631 0
M  V30 3682 H 342.47 -3.9087 -0.310327 0
M  V30 3683 H 343.96 -3.96893 -1.29867 0
M  V30 3684 N 344.397 -0.483516 -1.5 0
M  V30 3685 C 345.344 0.304164 -2.28787 0
M  V30 3686 C 346.314 0.976114 -1.34392 0
M  V30 3687 O 347.499 0.986156 -1.63339 0
M  V30 3688 C 344.639 1.37298 -3.16612 0
M  V30 3689 C 343.752 0.714561 -4.26049 0
M  V30 3690 C 342.887 1.76232 -5.01114 0
M  V30 3691 C 341.926 1.08483 -6.0241 0
M  V30 3692 N 341.063 2.076 -6.70706 0
M  V30 3693 H 345.903 -0.373981 -2.95644 0
M  V30 3694 H 343.44 -0.196275 -1.45785 0
M  V30 3695 H 345.398 2.00445 -3.65893 0
M  V30 3696 H 344.028 2.02012 -2.51776 0
M  V30 3697 H 343.08 -0.0297798 -3.80388 0
M  V30 3698 H 344.392 0.180383 -4.98474 0
M  V30 3699 H 343.546 2.46929 -5.54176 0
M  V30 3700 H 342.285 2.33033 -4.28424 0
M  V30 3701 H 341.29 0.363545 -5.48597 0
M  V30 3702 H 342.515 0.523551 -6.77079 0
M  V30 3703 H 340.461 2.63394 -6.00799 0
M  V30 3704 H 340.378 1.59201 -7.39047 0
M  V30 3705 H 341.646 2.77639 -7.2838 0
M  V30 3706 N 345.875 1.56104 -0.216619 0
M  V30 3707 C 347.124 1.97348 0.416744 0
M  V30 3708 C 347.437 1.10715 1.6125 0
M  V30 3709 O 348.643 1.41836 2.31506 0
M  V30 3710 C 347.099 3.51059 0.792835 0
M  V30 3711 C 346.707 4.46387 -0.379828 0
M  V30 3712 C 348.451 4.01026 1.39208 0
M  V30 3713 C 346.358 5.91397 0.0184223 0
M  V30 3714 H 345.288 0.736942 0.159475 0
M  V30 3715 H 347.939 1.80827 -0.31205 0
M  V30 3716 H 346.321 3.63162 1.57891 0
M  V30 3717 H 347.495 4.46029 -1.15737 0
M  V30 3718 H 345.81 4.06734 -0.891979 0
M  V30 3719 H 348.407 5.0686 1.70286 0
M  V30 3720 H 348.75 3.46587 2.30614 0
M  V30 3721 H 349.283 3.92125 0.669537 0
M  V30 3722 H 346.022 6.49807 -0.862002 0
M  V30 3723 H 345.542 5.94961 0.760384 0
M  V30 3724 H 347.221 6.45455 0.446818 0
M  V30 3725 N 347.353 -0.0568162 1.57498 0
M  V30 3726 C 348.283 -1.06593 2.0775 0
M  V30 3727 C 349.264 -1.39448 0.974082 0
M  V30 3728 O 350.449 -1.48815 1.24771 0
M  V30 3729 C 347.579 -2.37509 2.5339 0
M  V30 3730 C 346.533 -2.1897 3.67745 0
M  V30 3731 C 345.859 -3.55402 3.99492 0
M  V30 3732 C 347.159 -1.59859 4.97235 0
M  V30 3733 H 348.853 -0.647706 2.9231 0
M  V30 3734 H 346.399 -0.310116 1.40621 0
M  V30 3735 H 348.352 -3.08409 2.87162 0
M  V30 3736 H 347.076 -2.8134 1.65878 0
M  V30 3737 H 345.735 -1.50508 3.3428 0
M  V30 3738 H 345.383 -3.9683 3.09088 0
M  V30 3739 H 345.083 -3.43831 4.76502 0
M  V30 3740 H 346.607 -4.27708 4.35773 0
M  V30 3741 H 348.021 -2.20642 5.29141 0
M  V30 3742 H 346.418 -1.58942 5.78669 0
M  V30 3743 H 347.488 -0.561506 4.81638 0
M  V30 3744 N 348.832 -1.54138 -0.328536 0
M  V30 3745 C 350.057 -1.76378 -1.09112 0
M  V30 3746 C 350.482 -0.508596 -1.81094 0
M  V30 3747 O 349.84 0.539598 -1.73084 0
M  V30 3748 C 349.888 -2.95358 -2.06872 0
M  V30 3749 O 348.992 -2.66556 -3.14677 0
M  V30 3750 H 348.333 -0.584614 -0.314838 0
M  V30 3751 H 350.863 -2.01146 -0.374348 0
M  V30 3752 H 350.873 -3.22566 -2.4983 0
M  V30 3753 H 349.548 -3.86385 -1.5388 0
M  V30 3754 H 348.125 -2.50282 -2.7643 0
M  V30 3755 N 350.31 0.590341 -1.46126 0
M  V30 3756 C 351.535 1.37991 -1.54833 0
M  V30 3757 C 351.96 1.87163 -0.187506 0
M  V30 3758 O 351.318 1.61133 0.831008 0
M  V30 3759 C 351.366 2.54867 -2.55098 0
M  V30 3760 O 350.47 3.56061 -2.08073 0
M  V30 3761 H 349.811 0.411265 -0.521303 0
M  V30 3762 H 352.341 0.716819 -1.91632 0
M  V30 3763 H 352.351 3.01886 -2.74461 0
M  V30 3764 H 351.026 2.18429 -3.53923 0
M  V30 3765 H 349.603 3.15574 -1.98664 0
M  V30 3766 N 351.788 1.33704 0.83433 0
M  V30 3767 C 353.035 1.25417 1.58987 0
M  V30 3768 C 353.363 -0.178869 1.93676 0
M  V30 3769 O 352.618 -1.13723 1.59265 0
M  V30 3770 C 352.917 2.07926 2.90692 0
M  V30 3771 C 352.583 3.57066 2.75345 0
M  V30 3772 C 351.245 3.97724 2.70867 0
M  V30 3773 C 353.597 4.51817 2.59828 0
M  V30 3774 C 350.925 5.31344 2.48778 0
M  V30 3775 C 353.277 5.85604 2.39272 0
M  V30 3776 C 351.941 6.25439 2.33199 0
M  V30 3777 H 351.211 0.458934 0.581774 0
M  V30 3778 H 353.858 1.65335 0.966261 0
M  V30 3779 H 352.163 1.608 3.57282 0
M  V30 3780 H 353.86 1.98868 3.48213 0
M  V30 3781 H 350.45 3.24785 2.79665 0
M  V30 3782 H 354.634 4.21311 2.62319 0
M  V30 3783 H 349.89 5.61241 2.42526 0
M  V30 3784 H 354.064 6.58623 2.2625 0
M  V30 3785 H 351.691 7.28914 2.15843 0
M  V30 3786 N 353.266 -1.05314 1.17247 0
M  V30 3787 C 354.494 -1.81971 0.984593 0
M  V30 3788 C 354.909 -1.82929 -0.467166 0
M  V30 3789 O 354.266 -1.25564 -1.32438 0
M  V30 3790 C 354.317 -3.28143 1.51672 0
M  V30 3791 O 354.038 -3.27347 2.91163 0
M  V30 3792 C 355.539 -4.21493 1.37326 0
M  V30 3793 H 352.759 -0.573455 0.348411 0
M  V30 3794 H 355.303 -1.32808 1.55506 0
M  V30 3795 H 353.458 -3.74582 0.988302 0
M  V30 3796 H 353.872 -4.18824 3.15732 0
M  V30 3797 H 355.346 -5.22043 1.79375 0
M  V30 3798 H 355.823 -4.38031 0.320169 0
M  V30 3799 H 356.429 -3.80909 1.89178 0
M  V30 3800 N 354.744 -0.972509 -1.24016 0
M  V30 3801 C 356.021 -0.553733 -1.87598 0
M  V30 3802 C 356.401 0.969158 -1.87538 0
M  V30 3803 O 355.749 1.84255 -1.35139 0
M  V30 3804 C 355.959 -1.15076 -3.29482 0
M  V30 3805 C 357.307 -1.23862 -4.06132 0
M  V30 3806 O 358.331 -1.10363 -3.38672 0
M  V30 3807 O 357.19 -1.45252 -5.26844 0
M  V30 3808 H 354.284 -0.185331 -0.805966 0
M  V30 3809 H 356.83 -1.06709 -1.31952 0
M  V30 3810 H 355.602 -2.19333 -3.2405 0
M  V30 3811 H 355.225 -0.621746 -3.92709 0
M  V30 3812 N 356.222 1.38976 -0.743202 0
M  V30 3813 C 357.169 2.30544 -0.10861 0
M  V30 3814 C 358.139 1.49642 0.720869 0
M  V30 3815 O 359.324 1.78304 0.679142 0
M  V30 3816 C 356.464 3.36018 0.786496 0
M  V30 3817 C 355.577 4.31963 -0.0564849 0
M  V30 3818 C 354.712 5.24506 0.840657 0
M  V30 3819 C 353.751 6.121 -0.00658363 0
M  V30 3820 N 352.888 6.96973 0.846943 0
M  V30 3821 H 357.728 2.8424 -0.895088 0
M  V30 3822 H 355.265 1.3995 -0.453048 0
M  V30 3823 H 357.223 3.95768 1.31999 0
M  V30 3824 H 355.853 2.83758 1.53887 0
M  V30 3825 H 354.905 3.73763 -0.707492 0
M  V30 3826 H 356.217 4.93703 -0.711229 0
M  V30 3827 H 355.371 5.89322 1.4417 0
M  V30 3828 H 354.11 4.63107 1.52916 0
M  V30 3829 H 353.115 5.46289 -0.620366 0
M  V30 3830 H 354.34 6.75565 -0.691992 0
M  V30 3831 H 352.286 6.38133 1.52059 0
M  V30 3832 H 352.203 7.5559 0.248864 0
M  V30 3833 H 353.471 7.6621 1.43328 0
M  V30 3834 N 357.7 0.491464 1.49741 0
M  V30 3835 C 358.61 -0.296835 2.32715 0
M  V30 3836 C 359.626 -0.976536 1.44013 0
M  V30 3837 O 360.802 -0.960023 1.77047 0
M  V30 3838 C 357.867 -1.35288 3.19215 0
M  V30 3839 C 356.928 -0.687632 4.23757 0
M  V30 3840 C 356.161 -1.69336 5.06123 0
M  V30 3841 O 356.384 -2.92219 4.89861 0
M  V30 3842 O 355.318 -1.25394 5.88693 0
M  V30 3843 H 359.144 0.382048 3.01287 0
M  V30 3844 H 356.729 0.252953 1.47243 0
M  V30 3845 H 358.611 -1.96411 3.72828 0
M  V30 3846 H 357.286 -2.01487 2.53347 0
M  V30 3847 H 356.193 -0.0369159 3.74082 0
M  V30 3848 H 357.526 -0.0682566 4.92153 0
M  V30 3849 N 359.178 -1.55987 0.224894 0
M  V30 3850 C 360.108 -2.23426 -0.678457 0
M  V30 3851 C 361.089 -1.20709 -1.19847 0
M  V30 3852 O 362.274 -1.49304 -1.24186 0
M  V30 3853 C 359.404 -2.91676 -1.88527 0
M  V30 3854 C 358.358 -4.00893 -1.49896 0
M  V30 3855 C 357.684 -4.56455 -2.78483 0
M  V30 3856 C 358.984 -5.17769 -0.686461 0
M  V30 3857 H 360.678 -2.99175 -0.116173 0
M  V30 3858 H 358.224 -1.43897 -0.054436 0
M  V30 3859 H 360.177 -3.37547 -2.5227 0
M  V30 3860 H 358.901 -2.1338 -2.47258 0
M  V30 3861 H 357.56 -3.55758 -0.884985 0
M  V30 3862 H 357.208 -3.74886 -3.35365 0
M  V30 3863 H 356.908 -5.30169 -2.53368 0
M  V30 3864 H 358.432 -5.05047 -3.43162 0
M  V30 3865 H 359.846 -5.60001 -1.22767 0
M  V30 3866 H 358.243 -5.97735 -0.532259 0
M  V30 3867 H 359.313 -4.83932 0.306196 0
M  V30 3868 N 360.656 0.0484629 -1.57525 0
M  V30 3869 C 361.586 1.0549 -2.08313 0
M  V30 3870 C 362.567 1.38929 -0.981463 0
M  V30 3871 O 363.752 1.48151 -1.25558 0
M  V30 3872 C 360.882 2.36162 -2.54646 0
M  V30 3873 C 359.836 2.17016 -3.68901 0
M  V30 3874 C 359.162 3.53278 -4.01371 0
M  V30 3875 C 360.462 1.57219 -4.98076 0
M  V30 3876 H 362.156 0.632195 -2.92649 0
M  V30 3877 H 359.702 0.302654 -1.40784 0
M  V30 3878 H 361.655 3.06882 -2.88793 0
M  V30 3879 H 360.379 2.80456 -1.67368 0
M  V30 3880 H 359.038 1.48733 -3.35073 0
M  V30 3881 H 358.686 3.95185 -3.11188 0
M  V30 3882 H 358.386 3.41299 -4.78318 0
M  V30 3883 H 359.91 4.25391 -4.38035 0
M  V30 3884 H 361.324 2.17832 -5.30304 0
M  V30 3885 H 359.721 1.55871 -5.79503 0
M  V30 3886 H 360.791 0.535956 -4.81929 0
M  V30 3887 N 362.134 1.5431 0.320358 0
M  V30 3888 C 363.097 1.83195 1.3774 0
M  V30 3889 C 364.097 0.703906 1.44575 0
M  V30 3890 O 365.287 0.972214 1.44546 0
M  V30 3891 C 362.419 1.99487 2.76438 0
M  V30 3892 H 363.612 2.77642 1.1338 0
M  V30 3893 H 361.165 1.46076 0.556012 0
M  V30 3894 H 361.9 1.07262 3.06048 0
M  V30 3895 H 361.685 2.81575 2.7287 0
M  V30 3896 H 363.175 2.23271 3.52902 0
M  V30 3897 N 363.613 -0.582584 1.46437 0
M  V30 3898 C 364.843 -1.36484 1.55099 0
M  V30 3899 C 365.251 -1.88233 0.191056 0
M  V30 3900 O 364.594 -1.6429 -0.821858 0
M  V30 3901 C 364.656 -2.588 2.49525 0
M  V30 3902 C 364.32 -2.28517 3.95764 0
M  V30 3903 C 365.317 -1.87346 4.84972 0
M  V30 3904 C 363.002 -2.40658 4.40896 0
M  V30 3905 C 364.996 -1.5871 6.17325 0
M  V30 3906 C 362.683 -2.11635 5.73284 0
M  V30 3907 C 363.681 -1.70725 6.61318 0
M  V30 3908 O 363.369 -1.42057 7.91249 0
M  V30 3909 H 363.101 -0.423297 0.527063 0
M  V30 3910 H 365.655 -0.715188 1.92547 0
M  V30 3911 H 363.885 -3.26571 2.07095 0
M  V30 3912 H 365.574 -3.20868 2.48593 0
M  V30 3913 H 366.34 -1.77481 4.5136 0
M  V30 3914 H 362.219 -2.71463 3.72598 0
M  V30 3915 H 365.763 -1.26704 6.85997 0
M  V30 3916 H 361.66 -2.21124 6.06444 0
M  V30 3917 H 362.428 -1.55901 8.03515 0
M  V30 3918 N 365.091 -1.34144 -0.827227 0
M  V30 3919 C 366.054 -1.25264 -1.91942 0
M  V30 3920 C 367.054 -0.168866 -1.59911 0
M  V30 3921 O 368.244 -0.421198 -1.69031 0
M  V30 3922 C 365.376 -0.932952 -3.27885 0
M  V30 3923 H 366.569 -2.22357 -2.0124 0
M  V30 3924 H 364.122 -1.1837 -1.0207 0
M  V30 3925 H 364.857 0.0349917 -3.24281 0
M  V30 3926 H 364.642 -1.71682 -3.52516 0
M  V30 3927 H 366.132 -0.895874 -4.07877 0
M  V30 3928 N 366.569 1.04691 -1.17803 0
M  V30 3929 C 367.516 2.12557 -0.899343 0
M  V30 3930 C 368.486 1.65339 0.158771 0
M  V30 3931 O 369.671 1.90789 0.0204797 0
M  V30 3932 C 366.811 3.42481 -0.424315 0
M  V30 3933 C 365.924 4.03346 -1.54713 0
M  V30 3934 C 365.059 5.21208 -1.02546 0
M  V30 3935 C 364.098 5.74089 -2.12339 0
M  V30 3936 N 363.235 6.83247 -1.61612 0
M  V30 3937 H 368.075 2.35734 -1.823 0
M  V30 3938 H 365.612 1.1564 -0.909159 0
M  V30 3939 H 367.57 4.16996 -0.130421 0
M  V30 3940 H 366.2 3.19471 0.462377 0
M  V30 3941 H 365.252 3.2622 -1.95664 0
M  V30 3942 H 366.564 4.38628 -2.37501 0
M  V30 3943 H 365.718 6.02812 -0.685718 0
M  V30 3944 H 364.457 4.87414 -0.167084 0
M  V30 3945 H 363.462 4.91111 -2.47165 0
M  V30 3946 H 364.687 6.0993 -2.98601 0
M  V30 3947 H 362.633 6.5134 -0.780533 0
M  V30 3948 H 362.55 7.17559 -2.38003 0
M  V30 3949 H 363.818 7.68491 -1.30545 0
M  V30 3950 N 368.047 0.979072 1.23499 0
M  V30 3951 C 369.01 0.523244 2.23147 0
M  V30 3952 C 370.01 -0.386406 1.56088 0
M  V30 3953 O 371.2 -0.180283 1.73265 0
M  V30 3954 C 368.332 -0.240739 3.40049 0
M  V30 3955 H 369.525 1.40432 2.64989 0
M  V30 3956 H 367.078 0.764824 1.36309 0
M  V30 3957 H 367.813 -1.13841 3.03662 0
M  V30 3958 H 367.598 0.412207 3.89927 0
M  V30 3959 H 369.088 -0.548297 4.13985 0
M  V30 3960 N 369.525 -1.3858 0.750561 0
M  V30 3961 C 370.773 -1.99789 0.30477 0
M  V30 3962 C 371.094 -1.59874 -1.11649 0
M  V30 3963 O 370.364 -0.85417 -1.76297 0
M  V30 3964 H 368.944 -0.738902 0.109694 0
M  V30 3965 H 371.606 -1.69391 0.963983 0
M  V30 3966 H 370.702 -3.09952 0.365499 0
M  V30 3967 N 371.003 -0.499398 -1.49478 0
M  V30 3968 C 371.966 0.268838 -2.27618 0
M  V30 3969 C 372.966 0.895383 -1.33565 0
M  V30 3970 O 374.156 0.760164 -1.56739 0
M  V30 3971 C 371.288 1.38559 -3.11471 0
M  V30 3972 H 372.481 -0.416812 -2.96989 0
M  V30 3973 H 370.034 -0.254313 -1.54217 0
M  V30 3974 H 370.769 2.10544 -2.46661 0
M  V30 3975 H 370.554 0.941797 -3.80621 0
M  V30 3976 H 372.044 1.92678 -3.70493 0
M  V30 3977 N 372.481 1.55866 -0.233164 0
M  V30 3978 C 373.727 1.98897 0.395959 0
M  V30 3979 C 374.06 1.12091 1.58585 0
M  V30 3980 O 373.335 0.181182 1.93654 0
M  V30 3981 C 373.618 3.50658 0.819224 0
M  V30 3982 C 373.471 4.48233 -0.375109 0
M  V30 3983 C 374.79 4.07135 1.67121 0
M  V30 3984 H 371.909 0.723102 0.142451 0
M  V30 3985 H 374.551 1.87082 -0.331725 0
M  V30 3986 H 372.701 3.60857 1.43925 0
M  V30 3987 H 374.373 4.50031 -1.01341 0
M  V30 3988 H 372.616 4.21624 -1.02058 0
M  V30 3989 H 373.287 5.51988 -0.0358328 0
M  V30 3990 H 375.763 3.99952 1.14795 0
M  V30 3991 H 374.639 5.13615 1.93625 0
M  V30 3992 H 374.9 3.54736 2.63846 0
M  V30 3993 N 373.959 -0.0401083 1.57549 0
M  V30 3994 C 374.922 -1.02871 2.04817 0
M  V30 3995 C 375.922 -1.29708 0.950388 0
M  V30 3996 O 377.112 -1.24897 1.21435 0
M  V30 3997 C 374.244 -2.36443 2.45576 0
M  V30 3998 H 375.437 -0.620631 2.93408 0
M  V30 3999 H 372.99 -0.286667 1.53649 0
M  V30 4000 H 373.725 -2.82021 1.60108 0
M  V30 4001 H 373.51 -2.18296 3.25713 0
M  V30 4002 H 375 -3.07441 2.82612 0
M  V30 4003 N 375.437 -1.54477 -0.31217 0
M  V30 4004 C 376.347 -1.87695 -1.4074 0
M  V30 4005 C 377.363 -0.769975 -1.56036 0
M  V30 4006 O 378.539 -1.06537 -1.70915 0
M  V30 4007 C 375.604 -2.10755 -2.75287 0
M  V30 4008 C 374.665 -3.34514 -2.69071 0
M  V30 4009 C 373.898 -3.56465 -3.97201 0
M  V30 4010 O 374.121 -2.81637 -4.96021 0
M  V30 4011 O 373.055 -4.49964 -3.9977 0
M  V30 4012 H 376.881 -2.80849 -1.15574 0
M  V30 4013 H 374.466 -1.40526 -0.507228 0
M  V30 4014 H 376.348 -2.27188 -3.54913 0
M  V30 4015 H 375.023 -1.20788 -3.0032 0
M  V30 4016 H 373.93 -3.23456 -1.87955 0
M  V30 4017 H 375.263 -4.24575 -2.48992 0
M  V30 4018 N 376.915 0.57481 -1.46744 0
M  V30 4019 C 377.825 1.711 -1.60505 0
M  V30 4020 C 378.841 1.67008 -0.488307 0
M  V30 4021 O 380.017 1.86774 -0.753495 0
M  V30 4022 C 377.082 3.07608 -1.59932 0
M  V30 4023 C 376.143 3.22904 -2.82898 0
M  V30 4024 C 375.376 4.529 -2.82343 0
M  V30 4025 O 375.599 5.37278 -1.91542 0
M  V30 4026 O 374.533 4.71611 -3.73987 0
M  V30 4027 H 378.359 1.62436 -2.56609 0
M  V30 4028 H 375.944 0.742779 -1.29627 0
M  V30 4029 H 377.826 3.88877 -1.62336 0
M  V30 4030 H 376.501 3.16692 -0.669898 0
M  V30 4031 H 375.408 2.41099 -2.86046 0
M  V30 4032 H 376.741 3.18715 -3.75076 0
M  V30 4033 N 378.394 1.34581 0.820102 0
M  V30 4034 C 379.64 1.27285 1.57881 0
M  V30 4035 C 379.973 -0.156137 1.93571 0
M  V30 4036 O 379.248 -1.10222 1.60254 0
M  V30 4037 C 379.531 2.16639 2.87645 0
M  V30 4038 C 379.384 3.68088 2.58517 0
M  V30 4039 C 380.703 2.05378 3.8924 0
M  V30 4040 H 377.822 0.463714 0.572833 0
M  V30 4041 H 380.464 1.64859 0.944539 0
M  V30 4042 H 378.614 1.84725 3.41773 0
M  V30 4043 H 380.286 4.10382 2.10676 0
M  V30 4044 H 378.529 3.89038 1.91917 0
M  V30 4045 H 379.2 4.2598 3.51063 0
M  V30 4046 H 381.676 2.33404 3.44473 0
M  V30 4047 H 380.552 2.7012 4.77835 0
M  V30 4048 H 380.813 1.0316 4.29896 0
M  V30 4049 N 379.872 -1.04064 1.18357 0
M  V30 4050 C 380.802 -2.14001 0.934113 0
M  V30 4051 C 381.783 -1.69616 -0.128186 0
M  V30 4052 O 382.968 -1.94185 0.0244093 0
M  V30 4053 C 380.098 -3.44253 0.459066 0
M  V30 4054 C 379.052 -4.02261 1.46185 0
M  V30 4055 C 378.378 -5.27992 0.844322 0
M  V30 4056 C 379.678 -4.38432 2.83856 0
M  V30 4057 H 381.372 -2.35127 1.85352 0
M  V30 4058 H 378.918 -1.12998 0.892604 0
M  V30 4059 H 380.871 -4.20522 0.271907 0
M  V30 4060 H 379.595 -3.22813 -0.495912 0
M  V30 4061 H 378.254 -3.28074 1.63595 0
M  V30 4062 H 377.902 -5.02862 -0.117845 0
M  V30 4063 H 377.602 -5.67765 1.51384 0
M  V30 4064 H 379.126 -6.06938 0.667693 0
M  V30 4065 H 380.54 -5.05688 2.70098 0
M  V30 4066 H 378.937 -4.89254 3.47491 0
M  V30 4067 H 380.007 -3.4826 3.37406 0
M  V30 4068 N 381.35 -0.985608 -1.22978 0
M  V30 4069 C 382.313 -0.535071 -2.22867 0
M  V30 4070 C 383.313 0.378123 -1.56291 0
M  V30 4071 O 384.503 0.171092 -1.73358 0
M  V30 4072 C 381.635 0.222702 -3.40172 0
M  V30 4073 H 382.828 -1.41835 -2.6424 0
M  V30 4074 H 380.381 -0.772042 -1.35901 0
M  V30 4075 H 381.116 1.12229 -3.04262 0
M  V30 4076 H 380.901 -0.43288 -3.89703 0
M  V30 4077 H 382.391 0.526335 -4.1427 0
M  V30 4078 N 382.828 1.3818 -0.7579 0
M  V30 4079 C 383.791 2.28764 -0.141286 0
M  V30 4080 C 384.791 1.47388 0.642907 0
M  V30 4081 O 385.981 1.67781 0.468536 0
M  V30 4082 C 383.113 3.31184 0.808069 0
M  V30 4083 H 384.306 2.848 -0.939633 0
M  V30 4084 H 381.859 1.47212 -0.525191 0
M  V30 4085 H 382.594 2.80247 1.63193 0
M  V30 4086 H 382.379 3.91314 0.248104 0
M  V30 4087 H 383.869 3.98909 1.23536 0
M  V30 4088 N 384.306 0.507319 1.49211 0
M  V30 4089 C 385.555 -0.0368315 2.01666 0
M  V30 4090 C 385.868 -1.37459 1.39156 0
M  V30 4091 O 387.074 -2.00579 1.82976 0
M  V30 4092 C 385.53 -0.116089 3.59713 0
M  V30 4093 C 385.138 1.2154 4.31198 0
M  V30 4094 C 386.882 -0.610268 4.2009 0
M  V30 4095 C 384.789 1.09796 5.81119 0
M  V30 4096 H 383.719 -0.0175376 0.753796 0
M  V30 4097 H 386.37 0.647691 1.71689 0
M  V30 4098 H 384.752 -0.8652 3.86433 0
M  V30 4099 H 385.926 1.9783 4.16173 0
M  V30 4100 H 384.241 1.64352 3.82593 0
M  V30 4101 H 386.838 -0.715742 5.29888 0
M  V30 4102 H 387.181 -1.61064 3.8388 0
M  V30 4103 H 387.714 0.0824916 3.97714 0
M  V30 4104 H 384.453 2.0728 6.21864 0
M  V30 4105 H 383.973 0.376058 5.9862 0
M  V30 4106 H 385.652 0.779281 6.4229 0
M  V30 4107 N 385.784 -1.5574 0.241426 0
M  V30 4108 C 387.2 -1.59196 -0.113548 0
M  V30 4109 C 387.4 -1.25852 -1.57364 0
M  V30 4110 O 386.456 -1.00322 -2.31715 0
M  V30 4111 C 387.769 -2.99814 0.230695 0
M  V30 4112 C 389.317 -3.12513 0.174547 0
M  V30 4113 C 389.792 -4.55342 0.492744 0
M  V30 4114 N 391.283 -4.61076 0.443043 0
M  V30 4115 C 392.018 -5.6956 0.662484 0
M  V30 4116 N 391.514 -6.86328 0.944761 0
M  V30 4117 N 393.307 -5.58957 0.593564 0
M  V30 4118 H 385.458 -1.75685 1.19368 0
M  V30 4119 H 387.721 -0.81756 0.479896 0
M  V30 4120 H 387.427 -3.28932 1.24485 0
M  V30 4121 H 387.301 -3.74568 -0.444833 0
M  V30 4122 H 389.688 -2.83179 -0.830277 0
M  V30 4123 H 389.769 -2.40045 0.883845 0
M  V30 4124 H 389.413 -4.85396 1.4951 0
M  V30 4125 H 389.343 -5.26062 -0.23797 0
M  V30 4126 H 391.834 -3.77179 0.233374 0
M  V30 4127 H 392.147 -7.64935 1.09977 0
M  V30 4128 H 390.492 -6.88025 0.982175 0
M  V30 4129 H 393.683 -4.66611 0.373123 0
M  V30 4130 H 393.856 -6.43433 0.767981 0
M  V30 4131 N 387.262 0.0317525 -1.57568 0
M  V30 4132 C 388.49 0.734949 -1.93407 0
M  V30 4133 C 388.905 1.69036 -0.84096 0
M  V30 4134 O 388.262 1.81582 0.182836 0
M  V30 4135 C 388.313 1.49432 -3.29169 0
M  V30 4136 O 388.034 0.577261 -4.3428 0
M  V30 4137 C 389.535 2.29492 -3.79273 0
M  V30 4138 H 386.755 0.206706 -0.638368 0
M  V30 4139 H 389.299 -0.00992046 -2.04498 0
M  V30 4140 H 387.454 2.1911 -3.19483 0
M  V30 4141 H 387.868 1.10952 -5.1263 0
M  V30 4142 H 389.342 2.78172 -4.76785 0
M  V30 4143 H 389.819 3.10794 -3.10328 0
M  V30 4144 H 390.425 1.64894 -3.92033 0
M  V30 4145 N 388.74 1.54641 0.303973 0
M  V30 4146 C 389.986 1.74038 1.04109 0
M  V30 4147 C 390.319 0.523051 1.87024 0
M  V30 4148 O 389.594 -0.479874 1.88487 0
M  V30 4149 C 389.877 3.02761 1.94955 0
M  V30 4150 C 389.73 4.34787 1.1524 0
M  V30 4151 C 391.049 3.27336 2.94175 0
M  V30 4152 H 388.168 0.63323 0.377079 0
M  V30 4153 H 390.81 1.87354 0.316001 0
M  V30 4154 H 388.96 2.9154 2.56782 0
M  V30 4155 H 390.632 4.57922 0.557236 0
M  V30 4156 H 388.875 4.31407 0.455053 0
M  V30 4157 H 389.546 5.21116 1.8205 0
M  V30 4158 H 392.022 3.38148 2.42477 0
M  V30 4159 H 390.898 4.18726 3.54908 0
M  V30 4160 H 391.159 2.45491 3.67677 0
M  V30 4161 N 390.218 -0.567019 1.47046 0
M  V30 4162 C 391.467 -1.32091 1.5243 0
M  V30 4163 C 391.78 -1.94704 0.187021 0
M  V30 4164 O 392.986 -2.7124 0.118771 0
M  V30 4165 C 391.442 -2.39479 2.68659 0
M  V30 4166 C 391.05 -1.831 4.08874 0
M  V30 4167 C 392.794 -3.16111 2.83327 0
M  V30 4168 C 390.701 -2.8821 5.16419 0
M  V30 4169 H 389.631 -0.496629 0.56734 0
M  V30 4170 H 392.282 -0.603354 1.73297 0
M  V30 4171 H 390.664 -3.14105 2.41152 0
M  V30 4172 H 391.838 -1.14913 4.46242 0
M  V30 4173 H 390.153 -1.19085 3.99008 0
M  V30 4174 H 392.75 -3.94585 3.60842 0
M  V30 4175 H 393.093 -3.69686 1.91411 0
M  V30 4176 H 393.626 -2.48595 3.10556 0
M  V30 4177 H 390.365 -2.39504 6.10179 0
M  V30 4178 H 389.885 -3.54839 4.8358 0
M  V30 4179 H 391.564 -3.51881 5.42945 0
M  V30 4180 N 391.696 -1.35014 -0.812953 0
M  V30 4181 C 392.659 -1.27292 -1.90602 0
M  V30 4182 C 393.659 -0.185817 -1.59723 0
M  V30 4183 O 394.849 -0.439102 -1.68575 0
M  V30 4184 C 391.981 -0.967676 -3.26877 0
M  V30 4185 H 393.174 -2.24479 -1.9887 0
M  V30 4186 H 390.727 -1.19446 -1.00808 0
M  V30 4187 H 391.462 0.0005954 -3.243 0
M  V30 4188 H 391.247 -1.75412 -3.50675 0
M  V30 4189 H 392.737 -0.939085 -4.06904 0
M  V30 4190 N 393.175 1.03435 -1.18907 0
M  V30 4191 C 394.422 1.76743 -0.988334 0
M  V30 4192 C 394.75 1.88447 0.481441 0
M  V30 4193 O 394.005 1.39383 1.37371 0
M  V30 4194 C 394.304 3.19792 -1.59586 0
M  V30 4195 C 393.97 3.28108 -3.09283 0
M  V30 4196 C 392.632 3.30084 -3.5014 0
M  V30 4197 C 394.984 3.27696 -4.05296 0
M  V30 4198 C 392.312 3.29299 -4.85571 0
M  V30 4199 C 394.664 3.28451 -5.4065 0
M  V30 4200 C 393.328 3.28723 -5.80946 0
M  V30 4201 H 392.598 0.64675 -0.361657 0
M  V30 4202 H 395.245 1.21442 -1.48068 0
M  V30 4203 H 393.55 3.78136 -1.02568 0
M  V30 4204 H 395.247 3.75171 -1.41589 0
M  V30 4205 H 391.837 3.27294 -2.76725 0
M  V30 4206 H 396.021 3.25354 -3.74778 0
M  V30 4207 H 391.277 3.2783 -5.16079 0
M  V30 4208 H 395.451 3.27082 -6.14809 0
M  V30 4209 H 393.078 3.27868 -6.85862 0
M  V30 4210 N 394.653 0.992116 1.22453 0
M  V30 4211 C 395.901 0.666215 1.90804 0
M  V30 4212 C 396.222 -0.804152 1.77647 0
M  V30 4213 O 395.492 -1.57629 1.16318 0
M  V30 4214 H 394.072 0.243423 0.706225 0
M  V30 4215 H 396.734 1.25845 1.48825 0
M  V30 4216 H 395.83 0.928069 2.97982 0
M  V30 4217 N 396.131 -1.37776 0.765217 0
M  V30 4218 C 397.379 -1.99454 0.325943 0
M  V30 4219 C 397.7 -1.61049 -1.09947 0
M  V30 4220 O 396.97 -0.872821 -1.75381 0
M  V30 4221 H 395.55 -0.737697 0.117525 0
M  V30 4222 H 398.212 -1.68359 0.981895 0
M  V30 4223 H 397.308 -3.09547 0.398353 0
M  V30 4224 N 397.609 -0.515225 -1.4894 0
M  V30 4225 C 398.541 0.292481 -2.27326 0
M  V30 4226 C 399.554 0.917838 -1.3446 0
M  V30 4227 O 400.743 0.798772 -1.5963 0
M  V30 4228 C 397.843 1.42803 -3.07344 0
M  V30 4229 C 397.016 0.907347 -4.27885 0
M  V30 4230 C 396.075 1.92222 -4.89834 0
M  V30 4231 O 395.101 1.48506 -5.49486 0
M  V30 4232 N 396.303 3.25355 -4.80754 0
M  V30 4233 H 399.068 -0.379721 -2.97285 0
M  V30 4234 H 396.629 -0.348638 -1.58102 0
M  V30 4235 H 398.621 2.10481 -3.45658 0
M  V30 4236 H 397.191 2.00414 -2.39902 0
M  V30 4237 H 396.411 0.0550218 -3.94162 0
M  V30 4238 H 397.699 0.538108 -5.05946 0
M  V30 4239 H 397.097 3.6355 -4.33414 0
M  V30 4240 H 395.654 3.88707 -5.23211 0
M  V30 4241 N 399.087 1.5561 -0.249682 0
M  V30 4242 C 400.034 2.21496 0.648694 0
M  V30 4243 C 401.004 1.17977 1.16921 0
M  V30 4244 O 402.189 1.46434 1.22318 0
M  V30 4245 C 399.329 2.92039 1.83868 0
M  V30 4246 C 398.442 4.10219 1.35442 0
M  V30 4247 C 397.577 4.6847 2.50419 0
M  V30 4248 C 396.616 5.78893 1.98869 0
M  V30 4249 N 395.753 6.31315 3.07223 0
M  V30 4250 H 400.593 2.97892 0.0801582 0
M  V30 4251 H 398.13 1.47074 0.0278031 0
M  V30 4252 H 400.088 3.31138 2.53778 0
M  V30 4253 H 398.718 2.18111 2.37965 0
M  V30 4254 H 397.77 3.76413 0.54928 0
M  V30 4255 H 399.082 4.89927 0.936649 0
M  V30 4256 H 398.236 5.10158 3.28366 0
M  V30 4257 H 396.975 3.87984 2.95499 0
M  V30 4258 H 395.98 5.3668 1.19393 0
M  V30 4259 H 397.205 6.61232 1.54755 0
M  V30 4260 H 395.151 5.53733 3.51732 0
M  V30 4261 H 395.068 7.06224 2.69784 0
M  V30 4262 H 396.336 6.77662 3.8522 0
M  V30 4263 N 400.565 -0.0233959 1.57583 0
M  V30 4264 C 401.512 -1.02224 2.06927 0
M  V30 4265 C 402.482 -1.35575 0.959617 0
M  V30 4266 O 403.667 -1.45815 1.23055 0
M  V30 4267 C 400.807 -2.31636 2.5581 0
M  V30 4268 C 399.92 -2.04394 3.80588 0
M  V30 4269 C 399.055 -3.27717 4.18061 0
M  V30 4270 C 398.094 -2.96056 5.3574 0
M  V30 4271 N 397.231 -4.11847 5.68618 0
M  V30 4272 H 402.071 -0.594504 2.9201 0
M  V30 4273 H 399.608 -0.281921 1.44373 0
M  V30 4274 H 401.566 -3.07258 2.82221 0
M  V30 4275 H 400.196 -2.72122 1.73636 0
M  V30 4276 H 399.248 -1.19244 3.61227 0
M  V30 4277 H 400.56 -1.77042 4.66323 0
M  V30 4278 H 399.714 -4.11702 4.4563 0
M  V30 4279 H 398.453 -3.58188 3.30988 0
M  V30 4280 H 397.458 -2.10474 5.07918 0
M  V30 4281 H 398.683 -2.66857 6.24471 0
M  V30 4282 H 396.629 -4.42258 4.84504 0
M  V30 4283 H 396.546 -3.87938 6.48876 0
M  V30 4284 H 397.814 -4.96689 6.00766 0
M  V30 4285 N 402.043 -1.548 -0.295768 0
M  V30 4286 C 402.953 -1.89177 -1.38742 0
M  V30 4287 C 403.969 -0.786481 -1.55211 0
M  V30 4288 O 405.145 -1.08344 -1.69775 0
M  V30 4289 C 402.21 -2.13663 -2.73036 0
M  V30 4290 C 401.271 -3.37349 -2.65508 0
M  V30 4291 C 400.504 -3.60658 -3.93398 0
M  V30 4292 O 400.727 -2.86882 -4.93006 0
M  V30 4293 O 399.661 -4.54179 -3.94975 0
M  V30 4294 H 403.487 -2.82059 -1.12589 0
M  V30 4295 H 401.072 -1.41056 -0.492295 0
M  V30 4296 H 402.954 -2.3094 -3.52484 0
M  V30 4297 H 401.629 -1.23967 -2.99022 0
M  V30 4298 H 400.536 -3.25431 -1.84514 0
M  V30 4299 H 401.869 -4.27192 -2.44474 0
M  V30 4300 N 403.521 0.559213 -1.47345 0
M  V30 4301 C 404.451 1.67622 -1.62558 0
M  V30 4302 C 405.432 1.63331 -0.475087 0
M  V30 4303 O 406.617 1.80983 -0.704182 0
M  V30 4304 C 403.747 3.0626 -1.63774 0
M  V30 4305 C 402.701 3.25397 -2.7803 0
M  V30 4306 C 402.027 4.64801 -2.64318 0
M  V30 4307 C 403.327 3.10965 -4.19641 0
M  V30 4308 H 405.021 1.55146 -2.56067 0
M  V30 4309 H 402.567 0.744961 -1.23233 0
M  V30 4310 H 404.52 3.84247 -1.73008 0
M  V30 4311 H 403.244 3.1969 -0.66825 0
M  V30 4312 H 401.903 2.49817 -2.68304 0
M  V30 4313 H 401.551 4.75028 -1.65401 0
M  V30 4314 H 401.251 4.78555 -3.40968 0
M  V30 4315 H 402.775 5.44926 -2.75478 0
M  V30 4316 H 404.189 3.78772 -4.30354 0
M  V30 4317 H 402.586 3.36229 -4.97062 0
M  V30 4318 H 403.656 2.07736 -4.38148 0
M  V30 4319 N 404.999 1.35443 0.805782 0
M  V30 4320 C 405.909 1.30546 1.94923 0
M  V30 4321 C 406.925 0.210233 1.72725 0
M  V30 4322 O 408.101 0.43975 1.9654 0
M  V30 4323 C 405.166 1.07782 3.29521 0
M  V30 4324 C 404.227 2.26625 3.64609 0
M  V30 4325 C 403.46 2.04938 4.92784 0
M  V30 4326 O 403.683 1.01624 5.61274 0
M  V30 4327 O 402.617 2.9232 5.26149 0
M  V30 4328 H 406.443 2.26779 2.02002 0
M  V30 4329 H 404.028 1.15823 0.943682 0
M  V30 4330 H 405.91 0.969392 4.10098 0
M  V30 4331 H 404.585 0.146003 3.23371 0
M  V30 4332 H 403.492 2.43033 2.84404 0
M  V30 4333 H 404.825 3.18257 3.75464 0
M  V30 4334 N 406.477 -1.02803 1.19454 0
M  V30 4335 C 407.893 -1.28473 0.946937 0
M  V30 4336 C 408.093 -1.97881 -0.380202 0
M  V30 4337 O 407.149 -2.26719 -1.11151 0
M  V30 4338 C 408.462 -2.13099 2.12154 0
M  V30 4339 C 410.01 -2.26404 2.16126 0
M  V30 4340 C 410.485 -3.14402 3.33039 0
M  V30 4341 N 411.976 -3.21991 3.32981 0
M  V30 4342 C 412.711 -3.90272 4.20089 0
M  V30 4343 N 412.207 -4.60777 5.17355 0
M  V30 4344 N 414 -3.8668 4.07964 0
M  V30 4345 H 406.151 -0.561665 2.04839 0
M  V30 4346 H 408.414 -0.310438 0.89573 0
M  V30 4347 H 408.12 -1.69422 3.08203 0
M  V30 4348 H 407.994 -3.13813 2.09287 0
M  V30 4349 H 410.381 -2.69311 1.20647 0
M  V30 4350 H 410.462 -1.25237 2.23045 0
M  V30 4351 H 410.106 -2.72204 4.28798 0
M  V30 4352 H 410.036 -4.1563 3.23356 0
M  V30 4353 H 412.527 -2.71778 2.62574 0
M  V30 4354 H 412.84 -5.10513 5.80169 0
M  V30 4355 H 411.185 -4.5964 5.21302 0
M  V30 4356 H 414.376 -3.30739 3.31254 0
M  V30 4357 H 414.549 -4.39621 4.76064 0
M  V30 4358 N 407.956 -0.998596 -1.21925 0
M  V30 4359 C 409.186 -0.695276 -1.94549 0
M  V30 4360 C 409.594 0.745079 -1.73911 0
M  V30 4361 O 408.937 1.51507 -1.03881 0
M  V30 4362 C 408.999 -0.928485 -3.47303 0
M  V30 4363 C 408.663 -2.35443 -3.91683 0
M  V30 4364 C 409.66 -3.33428 -3.98901 0
M  V30 4365 C 407.345 -2.69038 -4.24174 0
M  V30 4366 C 409.339 -4.63079 -4.37992 0
M  V30 4367 C 407.026 -3.98906 -4.62944 0
M  V30 4368 C 408.024 -4.95738 -4.69822 0
M  V30 4369 O 407.712 -6.23285 -5.07711 0
M  V30 4370 H 407.444 -0.255902 -0.625692 0
M  V30 4371 H 409.998 -1.33767 -1.5587 0
M  V30 4372 H 408.228 -0.228917 -3.86022 0
M  V30 4373 H 409.917 -0.619539 -4.01144 0
M  V30 4374 H 410.683 -3.08807 -3.73983 0
M  V30 4375 H 406.562 -1.94367 -4.18022 0
M  V30 4376 H 410.106 -5.38658 -4.43275 0
M  V30 4377 H 406.003 -4.23314 -4.87314 0
M  V30 4378 H 406.771 -6.27306 -5.25766 0
M  V30 4379 N 409.434 1.37368 -0.772513 0
M  V30 4380 C 410.382 2.32134 -0.147111 0
M  V30 4381 C 411.376 1.54972 0.684106 0
M  V30 4382 O 412.582 1.70363 0.581083 0
M  V30 4383 H 408.957 0.751449 -0.028786 0
M  V30 4384 H 410.928 2.82464 -0.962112 0
M  V30 4385 C 409.677 3.40226 0.71703 0
M  V30 4386 H 409 3.99706 0.0867951 0
M  V30 4387 H 410.44 4.08897 1.12159 0
M  V30 4388 C 408.899 2.80372 1.86797 0
M  V30 4389 O 409.429 2.71183 2.96349 0
M  V30 4390 N 407.635 2.37904 1.66883 0
M  V30 4391 H 407.182 2.45578 0.777759 0
M  V30 4392 H 407.14 1.98202 2.44056 0
M  V30 4393 N 410.912 0.523116 1.48665 0
M  V30 4394 C 411.859 -0.243398 2.29513 0
M  V30 4395 C 412.829 -0.940139 1.36933 0
M  V30 4396 O 414.014 -0.942503 1.65896 0
M  V30 4397 C 411.154 -1.28855 3.20141 0
M  V30 4398 C 410.267 -0.60135 4.27794 0
M  V30 4399 C 409.402 -1.62884 5.05611 0
M  V30 4400 C 408.441 -0.924726 6.05075 0
M  V30 4401 N 407.578 -1.89744 6.75975 0
M  V30 4402 H 412.418 0.452234 2.94549 0
M  V30 4403 H 409.955 0.234858 1.45213 0
M  V30 4404 H 411.913 -1.90674 3.71079 0
M  V30 4405 H 410.543 -1.95266 2.57043 0
M  V30 4406 H 409.595 0.130623 3.80176 0
M  V30 4407 H 410.907 -0.0481585 4.98777 0
M  V30 4408 H 410.061 -2.32149 5.60528 0
M  V30 4409 H 408.8 -2.21592 4.34452 0
M  V30 4410 H 407.805 -0.217966 5.49368 0
M  V30 4411 H 409.03 -0.343851 6.78229 0
M  V30 4412 H 406.976 -2.47373 6.07571 0
M  V30 4413 H 406.893 -1.3955 7.43009 0
M  V30 4414 H 408.161 -2.58229 7.35485 0
M  V30 4415 N 412.39 -1.55475 0.257931 0
M  V30 4416 C 413.338 -2.23244 -0.653076 0
M  V30 4417 C 414.332 -1.22366 -1.17144 0
M  V30 4418 O 415.538 -1.40347 -1.12706 0
M  V30 4419 H 411.913 -0.716247 -0.229117 0
M  V30 4420 H 413.884 -2.98343 -0.0584788 0
M  V30 4421 C 412.633 -2.95401 -1.83395 0
M  V30 4422 H 411.956 -3.72802 -1.44424 0
M  V30 4423 H 413.396 -3.46165 -2.44838 0
M  V30 4424 C 411.855 -1.99895 -2.71189 0
M  V30 4425 O 412.385 -1.53909 -3.71046 0
M  V30 4426 N 410.591 -1.6676 -2.3799 0
M  V30 4427 H 410.138 -2.04352 -1.56837 0
M  V30 4428 H 410.096 -1.03127 -2.97005 0
M  V30 4429 N 413.868 0.0150385 -1.57593 0
M  V30 4430 C 414.798 1.01047 -2.10503 0
M  V30 4431 C 415.779 1.36816 -1.01071 0
M  V30 4432 O 416.964 1.45455 -1.28672 0
M  V30 4433 C 414.094 2.30708 -2.59598 0
M  V30 4434 C 413.048 2.09142 -3.73421 0
M  V30 4435 C 412.374 3.44685 -4.08774 0
M  V30 4436 C 413.674 1.46619 -5.01298 0
M  V30 4437 H 415.368 0.569978 -2.93925 0
M  V30 4438 H 412.914 0.272724 -1.41394 0
M  V30 4439 H 414.867 3.00687 -2.95238 0
M  V30 4440 H 413.591 2.76843 -1.73279 0
M  V30 4441 H 412.25 1.41592 -3.38153 0
M  V30 4442 H 411.898 3.88495 -3.195 0
M  V30 4443 H 411.598 3.31077 -4.8545 0
M  V30 4444 H 413.122 4.16004 -4.4696 0
M  V30 4445 H 414.536 2.06535 -5.34805 0
M  V30 4446 H 412.933 1.43544 -5.82679 0
M  V30 4447 H 414.003 0.433611 -4.82957 0
M  V30 4448 N 415.346 1.54954 0.287554 0
M  V30 4449 C 416.256 1.8991 1.37736 0
M  V30 4450 C 417.272 0.794701 1.54792 0
M  V30 4451 O 418.448 1.09243 1.69198 0
M  V30 4452 C 415.513 2.15108 2.71899 0
M  V30 4453 C 414.574 3.38752 2.63715 0
M  V30 4454 C 413.807 3.62739 3.91479 0
M  V30 4455 O 414.03 2.89492 4.91478 0
M  V30 4456 O 412.964 4.56267 3.92561 0
M  V30 4457 H 416.79 2.82652 1.11092 0
M  V30 4458 H 414.375 1.41315 0.484807 0
M  V30 4459 H 416.257 2.32806 3.51254 0
M  V30 4460 H 414.932 1.25551 2.9836 0
M  V30 4461 H 413.839 3.26405 1.82786 0
M  V30 4462 H 415.172 4.28483 2.42205 0
M  V30 4463 N 416.824 -0.551391 1.4764 0
M  V30 4464 C 417.734 -1.68525 1.63207 0
M  V30 4465 C 418.75 -1.6621 0.514815 0
M  V30 4466 O 419.926 -1.85551 0.783113 0
M  V30 4467 C 416.991 -3.05025 1.64805 0
M  V30 4468 C 416.052 -3.18362 2.88 0
M  V30 4469 C 415.285 -4.4835 2.89513 0
M  V30 4470 O 415.508 -5.34163 2.00065 0
M  V30 4471 O 414.442 -4.65602 3.81443 0
M  V30 4472 H 418.268 -1.58333 2.59161 0
M  V30 4473 H 415.853 -0.722063 1.30792 0
M  V30 4474 H 417.735 -3.86245 1.68502 0
M  V30 4475 H 416.41 -3.15587 0.720197 0
M  V30 4476 H 415.317 -2.36518 2.89845 0
M  V30 4477 H 416.65 -3.12707 3.80099 0
M  V30 4478 N 418.302 -1.35869 -0.798587 0
M  V30 4479 C 419.265 -1.29307 -1.89242 0
M  V30 4480 C 420.265 -0.202747 -1.59517 0
M  V30 4481 O 421.455 -0.456957 -1.681 0
M  V30 4482 C 418.587 -1.00229 -3.25833 0
M  V30 4483 H 419.78 -2.26576 -1.96478 0
M  V30 4484 H 417.333 -1.20509 -0.995358 0
M  V30 4485 H 418.068 -0.033801 -3.24282 0
M  V30 4486 H 417.853 -1.79121 -3.48795 0
M  V30 4487 H 419.343 -0.98219 -4.05885 0
M  V30 4488 N 419.78 1.02168 -1.19998 0
M  V30 4489 C 420.727 2.10601 -0.944228 0
M  V30 4490 C 421.697 1.65639 0.123664 0
M  V30 4491 O 422.882 1.9079 -0.0199941 0
M  V30 4492 C 420.022 3.41504 -0.496865 0
M  V30 4493 C 419.135 3.99973 -1.63234 0
M  V30 4494 C 418.27 5.18915 -1.13579 0
M  V30 4495 C 417.309 5.69456 -2.24468 0
M  V30 4496 N 416.446 6.79665 -1.76068 0
M  V30 4497 H 421.286 2.31814 -1.8726 0
M  V30 4498 H 418.823 1.13686 -0.933483 0
M  V30 4499 H 420.781 4.16626 -0.218843 0
M  V30 4500 H 419.411 3.2038 0.394508 0
M  V30 4501 H 418.463 3.21997 -2.0254 0
M  V30 4502 H 419.775 4.33492 -2.46752 0
M  V30 4503 H 418.929 6.01222 -0.813429 0
M  V30 4504 H 417.668 4.8695 -0.270434 0
M  V30 4505 H 416.673 4.85757 -2.57526 0
M  V30 4506 H 417.898 6.03459 -3.11472 0
M  V30 4507 H 415.844 6.49538 -0.918516 0
M  V30 4508 H 415.761 7.12349 -2.5317 0
M  V30 4509 H 417.029 7.65549 -1.46817 0
M  V30 4510 N 421.258 1.00505 1.21394 0
M  V30 4511 C 422.674 0.717873 1.42544 0
M  V30 4512 C 422.874 -0.706936 1.88692 0
M  V30 4513 O 421.93 -1.47627 2.04847 0
M  V30 4514 C 423.243 1.73377 2.45684 0
M  V30 4515 C 424.791 1.75059 2.59467 0
M  V30 4516 C 425.266 2.75545 3.6584 0
M  V30 4517 N 426.757 2.74213 3.73311 0
M  V30 4518 C 427.492 3.48626 4.55245 0
M  V30 4519 N 426.988 4.32678 5.41075 0
M  V30 4520 N 428.781 3.37276 4.49668 0
M  V30 4521 H 420.932 1.92506 0.897503 0
M  V30 4522 H 423.195 0.830919 0.456375 0
M  V30 4523 H 422.901 2.75395 2.18748 0
M  V30 4524 H 422.775 1.53647 3.44489 0
M  V30 4525 H 425.162 0.737337 2.8574 0
M  V30 4526 H 425.243 1.98861 1.60897 0
M  V30 4527 H 424.887 3.77028 3.40313 0
M  V30 4528 H 424.817 2.49009 4.64007 0
M  V30 4529 H 427.308 2.13234 3.11993 0
M  V30 4530 H 427.621 4.86253 6.00648 0
M  V30 4531 H 425.966 4.3676 5.40616 0
M  V30 4532 H 429.157 2.71043 3.81646 0
M  V30 4533 H 429.33 3.95524 5.13288 0
M  V30 4534 N 422.737 -1.36956 0.779787 0
M  V30 4535 C 423.986 -1.98738 0.344405 0
M  V30 4536 C 424.299 -1.62596 -1.08728 0
M  V30 4537 O 425.505 -2.1754 -1.62445 0
M  V30 4538 C 423.961 -3.5544 0.564829 0
M  V30 4539 C 423.569 -4.00514 2.0073 0
M  V30 4540 C 425.313 -4.24059 0.193471 0
M  V30 4541 C 423.22 -5.49957 2.17489 0
M  V30 4542 H 422.15 -0.743561 0.12503 0
M  V30 4543 H 424.801 -1.56381 0.960057 0
M  V30 4544 H 423.183 -3.95817 -0.120397 0
M  V30 4545 H 424.357 -3.71362 2.72814 0
M  V30 4546 H 422.672 -3.44703 2.336 0
M  V30 4547 H 425.269 -5.33874 0.297097 0
M  V30 4548 H 425.612 -4.07378 -0.857263 0
M  V30 4549 H 426.145 -3.89012 0.831556 0
M  V30 4550 H 422.884 -5.71574 3.2091 0
M  V30 4551 H 422.404 -5.80767 1.49899 0
M  V30 4552 H 424.083 -6.16043 1.97738 0
M  V30 4553 N 424.215 -0.530993 -1.48385 0
M  V30 4554 C 425.463 0.00273189 -2.021 0
M  V30 4555 C 425.784 1.34672 -1.41027 0
M  V30 4556 O 425.054 1.8724 -0.576012 0
M  V30 4557 H 423.634 0.00399774 -0.746989 0
M  V30 4558 H 426.296 -0.695054 -1.82085 0
M  V30 4559 H 425.392 0.11031 -3.11905 0
M  V30 4560 N 425.693 1.55336 -0.266172 0
M  V30 4561 C 426.942 1.98574 0.353749 0
M  V30 4562 C 427.255 1.15789 1.57646 0
M  V30 4563 O 428.461 1.49129 2.26876 0
M  V30 4564 C 426.917 3.53403 0.680747 0
M  V30 4565 C 426.525 4.44953 -0.52165 0
M  V30 4566 C 428.269 4.05251 1.26379 0
M  V30 4567 C 426.176 5.91156 -0.169736 0
M  V30 4568 H 425.106 0.741643 0.135949 0
M  V30 4569 H 427.757 1.79743 -0.369421 0
M  V30 4570 H 426.139 3.68001 1.46257 0
M  V30 4571 H 427.313 4.42121 -1.29869 0
M  V30 4572 H 425.628 4.03691 -1.02093 0
M  V30 4573 H 428.225 5.12021 1.54074 0
M  V30 4574 H 428.568 3.53749 2.19471 0
M  V30 4575 H 429.101 3.94057 0.544447 0
M  V30 4576 H 425.84 6.46736 -1.0683 0
M  V30 4577 H 425.36 5.97079 0.570717 0
M  V30 4578 H 427.039 6.4655 0.241245 0
M  V30 4579 N 427.171 -0.0066808 1.57599 0
M  V30 4580 C 428.118 -1.00024 2.08 0
M  V30 4581 C 429.088 -1.34549 0.973943 0
M  V30 4582 O 430.273 -1.44502 1.24595 0
M  V30 4583 C 427.413 -2.2891 2.58252 0
M  V30 4584 C 426.526 -2.00346 3.82734 0
M  V30 4585 C 425.661 -3.23265 4.21513 0
M  V30 4586 C 424.7 -2.90357 5.3885 0
M  V30 4587 N 423.837 -4.05793 5.72954 0
M  V30 4588 H 428.677 -0.563499 2.92624 0
M  V30 4589 H 426.214 -0.266592 1.44664 0
M  V30 4590 H 428.172 -3.04247 2.85464 0
M  V30 4591 H 426.802 -2.70265 1.76512 0
M  V30 4592 H 425.854 -1.15406 3.62471 0
M  V30 4593 H 427.166 -1.72086 4.68175 0
M  V30 4594 H 426.32 -4.06953 4.49971 0
M  V30 4595 H 425.059 -3.54657 3.34768 0
M  V30 4596 H 424.064 -2.05075 5.10122 0
M  V30 4597 H 425.289 -2.60219 6.27266 0
M  V30 4598 H 423.235 -4.37094 4.89167 0
M  V30 4599 H 423.152 -3.81034 6.52954 0
M  V30 4600 H 424.42 -4.90289 6.06001 0
M  V30 4601 N 428.649 -1.55105 -0.279332 0
M  V30 4602 C 429.596 -1.8755 -1.34513 0
M  V30 4603 C 430.566 -0.726384 -1.49375 0
M  V30 4604 O 431.751 -0.977063 -1.63884 0
M  V30 4605 C 428.891 -2.14738 -2.70151 0
M  V30 4606 C 428.004 -3.42285 -2.63562 0
M  V30 4607 C 427.139 -3.59206 -3.91337 0
M  V30 4608 C 426.178 -4.80467 -3.79233 0
M  V30 4609 N 425.315 -4.94079 -4.98829 0
M  V30 4610 H 430.155 -2.78456 -1.06143 0
M  V30 4611 H 427.692 -1.37867 -0.512936 0
M  V30 4612 H 429.65 -2.28501 -3.49061 0
M  V30 4613 H 428.28 -1.27075 -2.96735 0
M  V30 4614 H 427.332 -3.37029 -1.76397 0
M  V30 4615 H 428.644 -4.31328 -2.50515 0
M  V30 4616 H 427.798 -3.72751 -4.78687 0
M  V30 4617 H 426.537 -2.68337 -4.07243 0
M  V30 4618 H 425.542 -4.66932 -2.90266 0
M  V30 4619 H 426.767 -5.72765 -3.64852 0
M  V30 4620 H 424.713 -4.06139 -5.15158 0
M  V30 4621 H 424.63 -5.77156 -4.8829 0
M  V30 4622 H 425.898 -5.12003 -5.8777 0
M  V30 4623 N 430.127 0.543554 -1.4793 0
M  V30 4624 C 431.09 1.63156 -1.60975 0
M  V30 4625 C 432.09 1.53346 -0.483899 0
M  V30 4626 O 433.28 1.5726 -0.749339 0
M  V30 4627 C 430.412 3.02743 -1.56716 0
M  V30 4628 H 431.605 1.52934 -2.57975 0
M  V30 4629 H 429.158 0.764557 -1.36324 0
M  V30 4630 H 429.893 3.18484 -0.611418 0
M  V30 4631 H 429.678 3.11272 -2.38438 0
M  V30 4632 H 431.168 3.81871 -1.6901 0
M  V30 4633 N 431.605 1.3629 0.791371 0
M  V30 4634 C 432.854 1.29742 1.54434 0
M  V30 4635 C 433.167 -0.121729 1.95221 0
M  V30 4636 O 434.373 -0.309579 2.69729 0
M  V30 4637 C 432.829 2.27623 2.78776 0
M  V30 4638 C 432.437 3.74963 2.45166 0
M  V30 4639 C 434.181 2.30047 3.56761 0
M  V30 4640 C 432.088 4.64626 3.65891 0
M  V30 4641 H 431.018 0.482113 0.579727 0
M  V30 4642 H 433.669 1.61642 0.868565 0
M  V30 4643 H 432.051 1.88714 3.48142 0
M  V30 4644 H 433.225 4.22596 1.83709 0
M  V30 4645 H 431.54 3.75295 1.80396 0
M  V30 4646 H 434.137 2.94247 4.46456 0
M  V30 4647 H 434.48 1.30846 3.95203 0
M  V30 4648 H 435.013 2.67563 2.94372 0
M  V30 4649 H 431.752 5.64883 3.32547 0
M  V30 4650 H 431.272 4.2171 4.26521 0
M  V30 4651 H 432.951 4.80801 4.32943 0
M  V30 4652 N 433.083 -1.0153 1.20538 0
M  V30 4653 C 434.311 -1.78746 1.04199 0
M  V30 4654 C 434.726 -1.84323 -0.408733 0
M  V30 4655 O 434.083 -1.29714 -1.28377 0
M  V30 4656 C 434.134 -3.23152 1.62035 0
M  V30 4657 O 433.855 -3.17918 3.0143 0
M  V30 4658 C 435.356 -4.16911 1.50666 0
M  V30 4659 H 432.576 -0.56208 0.366479 0
M  V30 4660 H 435.12 -1.27794 1.59653 0
M  V30 4661 H 433.275 -3.71248 1.10697 0
M  V30 4662 H 433.689 -4.08567 3.28897 0
M  V30 4663 H 435.163 -5.16072 1.95892 0
M  V30 4664 H 435.64 -4.36791 0.459363 0
M  V30 4665 H 436.246 -3.74698 2.01201 0
M  V30 4666 N 434.561 -1.01147 -1.20859 0
M  V30 4667 C 435.524 -0.582224 -2.21682 0
M  V30 4668 C 436.524 0.344887 -1.57058 0
M  V30 4669 O 437.714 0.134281 -1.73682 0
M  V30 4670 C 434.846 0.150496 -3.40568 0
M  V30 4671 H 436.039 -1.47408 -2.61172 0
M  V30 4672 H 433.592 -0.800695 -1.34233 0
M  V30 4673 H 434.327 1.0575 -3.06574 0
M  V30 4674 H 434.112 -0.515444 -3.88697 0
M  V30 4675 H 435.602 0.438344 -4.15293 0
M  V30 4676 N 436.039 1.36541 -0.78704 0
M  V30 4677 C 436.987 2.31965 -0.171724 0
M  V30 4678 C 437.981 1.55689 0.667631 0
M  V30 4679 O 439.187 1.70969 0.562981 0
M  V30 4680 H 435.562 0.751101 -0.0367545 0
M  V30 4681 H 437.533 2.81428 -0.992017 0
M  V30 4682 C 436.282 3.40968 0.680904 0
M  V30 4683 H 435.605 3.99775 0.0443961 0
M  V30 4684 H 437.045 4.10063 1.07815 0
M  V30 4685 C 435.504 2.82338 1.83813 0
M  V30 4686 O 436.034 2.74311 2.93456 0
M  V30 4687 N 434.24 2.39661 1.6435 0
M  V30 4688 H 433.787 2.46389 0.751668 0
M  V30 4689 H 433.745 2.00779 2.4194 0
M  V30 4690 N 437.518 0.538854 1.48102 0
M  V30 4691 C 438.767 0.0059532 2.01699 0
M  V30 4692 C 439.08 -1.34476 1.42041 0
M  V30 4693 O 440.286 -1.96653 1.87189 0
M  V30 4694 C 438.742 -0.0397627 3.59878 0
M  V30 4695 C 438.35 1.30659 4.28523 0
M  V30 4696 C 440.094 -0.521024 4.2129 0
M  V30 4697 C 438.001 1.22098 5.78659 0
M  V30 4698 H 436.931 -0.00154456 0.753998 0
M  V30 4699 H 439.582 0.683963 1.70277 0
M  V30 4700 H 437.964 -0.783037 3.88181 0
M  V30 4701 H 439.138 2.06613 4.11883 0
M  V30 4702 H 437.453 1.7243 3.79021 0
M  V30 4703 H 440.05 -0.603184 5.31287 0
M  V30 4704 H 440.393 -1.52885 3.8721 0
M  V30 4705 H 440.926 0.166834 3.9745 0
M  V30 4706 H 437.665 2.20424 6.17328 0
M  V30 4707 H 437.185 0.50295 5.97688 0
M  V30 4708 H 438.864 0.915345 6.40492 0
M  V30 4709 N 438.996 -1.55193 0.274407 0
M  V30 4710 C 440.221 -2.04446 -0.348824 0
M  V30 4711 C 440.646 -1.15149 -1.48735 0
M  V30 4712 O 440.004 -0.149952 -1.80679 0
M  V30 4713 C 440.052 -3.51431 -0.808009 0
M  V30 4714 O 439.156 -3.65225 -1.91531 0
M  V30 4715 H 438.497 -0.66006 -0.0722276 0
M  V30 4716 H 441.027 -2.00481 0.408498 0
M  V30 4717 H 441.037 -3.92781 -1.10395 0
M  V30 4718 H 439.712 -4.15892 0.0249865 0
M  V30 4719 H 438.289 -3.35778 -1.62196 0
M  V30 4720 N 440.474 -0.00167713 -1.576 0
M  V30 4721 C 441.723 0.682021 -1.89819 0
M  V30 4722 C 442.036 1.74844 -0.876871 0
M  V30 4723 O 443.242 2.48688 -1.08934 0
M  V30 4724 C 441.698 1.26425 -3.36964 0
M  V30 4725 C 441.306 0.232568 -4.47396 0
M  V30 4726 C 443.05 1.92604 -3.78291 0
M  V30 4727 C 440.957 0.824882 -5.85619 0
M  V30 4728 H 439.887 0.258499 -0.708304 0
M  V30 4729 H 442.538 -0.0624957 -1.83394 0
M  V30 4730 H 440.92 2.05949 -3.38232 0
M  V30 4731 H 442.094 -0.5382 -4.57646 0
M  V30 4732 H 440.409 -0.32888 -4.15099 0
M  V30 4733 H 443.006 2.37827 -4.78897 0
M  V30 4734 H 443.349 2.75732 -3.11894 0
M  V30 4735 H 443.882 1.19812 -3.79328 0
M  V30 4736 H 440.621 0.0323542 -6.55492 0
M  V30 4737 H 440.141 1.56477 -5.79029 0
M  V30 4738 H 441.82 1.32301 -6.33329 0
M  V30 4739 N 441.952 1.55251 0.271103 0
M  V30 4740 C 443.2 1.75599 1.00047 0
M  V30 4741 C 443.521 0.561188 1.8675 0
M  V30 4742 O 442.791 -0.423846 1.9126 0
M  V30 4743 H 441.371 0.647562 0.372387 0
M  V30 4744 H 444.033 1.92656 0.294876 0
M  V30 4745 H 443.129 2.65766 1.6363 0
M  V30 4746 N 443.43 -0.535701 1.48216 0
M  V30 4747 C 444.393 -1.623 1.61838 0
M  V30 4748 C 445.393 -1.53087 0.492024 0
M  V30 4749 O 446.583 -1.5686 0.757668 0
M  V30 4750 C 443.715 -3.01907 1.58319 0
M  V30 4751 H 444.908 -1.51564 2.58783 0
M  V30 4752 H 442.461 -0.757317 1.36727 0
M  V30 4753 H 443.196 -3.18155 0.628299 0
M  V30 4754 H 442.981 -3.10003 2.40085 0
M  V30 4755 H 444.471 -3.80969 1.71033 0
M  V30 4756 N 444.908 -1.36708 -0.784132 0
M  V30 4757 C 445.871 -1.31307 -1.87859 0
M  V30 4758 C 446.871 -0.219654 -1.59293 0
M  V30 4759 O 448.061 -0.47476 -1.67606 0
M  V30 4760 C 445.193 -1.03679 -3.24751 0
M  V30 4761 H 446.386 -2.28647 -1.94064 0
M  V30 4762 H 443.939 -1.21558 -0.98252 0
M  V30 4763 H 444.674 -0.0681936 -3.24228 0
M  V30 4764 H 444.459 -1.82811 -3.46876 0
M  V30 4765 H 445.949 -1.02518 -4.04821 0
M  V30 4766 N 446.386 1.0089 -1.21074 0
M  V30 4767 C 447.633 1.74607 -1.0256 0
M  V30 4768 C 447.961 1.89426 0.44136 0
M  V30 4769 O 447.216 1.42266 1.34384 0
M  V30 4770 C 447.515 3.16335 -1.66334 0
M  V30 4771 C 447.181 3.21474 -3.16173 0
M  V30 4772 C 445.843 3.22583 -3.57062 0
M  V30 4773 C 448.195 3.19025 -4.12156 0
M  V30 4774 C 445.523 3.18925 -4.92446 0
M  V30 4775 C 447.875 3.16909 -5.47496 0
M  V30 4776 C 446.539 3.16326 -5.87787 0
M  V30 4777 H 445.809 0.638933 -0.375294 0
M  V30 4778 H 448.456 1.18274 -1.50611 0
M  V30 4779 H 446.761 3.75876 -1.10566 0
M  V30 4780 H 448.458 3.72083 -1.49516 0
M  V30 4781 H 445.048 3.2135 -2.83605 0
M  V30 4782 H 449.232 3.17332 -3.81595 0
M  V30 4783 H 444.488 3.16809 -5.22917 0
M  V30 4784 H 448.662 3.13968 -6.21609 0
M  V30 4785 H 446.289 3.13246 -6.92662 0
M  V30 4786 N 447.864 1.01787 1.20321 0
M  V30 4787 C 448.794 0.609625 2.25401 0
M  V30 4788 C 449.775 -0.375951 1.65893 0
M  V30 4789 O 450.96 -0.261101 1.92437 0
M  V30 4790 C 448.09 -0.0515995 3.47262 0
M  V30 4791 C 447.044 0.855095 4.19371 0
M  V30 4792 C 446.37 0.0595757 5.34667 0
M  V30 4793 C 447.67 2.16374 4.75373 0
M  V30 4794 H 449.364 1.48803 2.59804 0
M  V30 4795 H 446.91 0.716934 1.24884 0
M  V30 4796 H 448.863 -0.348764 4.19954 0
M  V30 4797 H 447.587 -0.964726 3.12027 0
M  V30 4798 H 446.246 1.13628 3.48546 0
M  V30 4799 H 445.894 -0.85524 4.95676 0
M  V30 4800 H 445.594 0.663406 5.83843 0
M  V30 4801 H 447.118 -0.231105 6.10162 0
M  V30 4802 H 448.532 1.92885 5.39878 0
M  V30 4803 H 446.929 2.71853 5.34991 0
M  V30 4804 H 447.999 2.82589 3.94045 0
M  V30 4805 N 449.342 -1.36122 0.79427 0
M  V30 4806 C 450.272 -2.32551 0.210328 0
M  V30 4807 C 451.253 -1.56884 -0.657386 0
M  V30 4808 O 452.438 -1.85014 -0.590207 0
M  V30 4809 C 449.568 -3.41128 -0.651819 0
M  V30 4810 C 448.522 -4.27842 0.116395 0
M  V30 4811 C 447.848 -5.2763 -0.86666 0
M  V30 4812 C 449.148 -5.05647 1.30837 0
M  V30 4813 H 450.842 -2.81636 1.01594 0
M  V30 4814 H 448.388 -1.35407 0.489981 0
M  V30 4815 H 450.341 -4.07581 -1.07031 0
M  V30 4816 H 449.065 -2.90622 -1.49019 0
M  V30 4817 H 447.724 -3.62952 0.515915 0
M  V30 4818 H 447.372 -4.73395 -1.70019 0
M  V30 4819 H 447.072 -5.86514 -0.35705 0
M  V30 4820 H 448.596 -5.96955 -1.28361 0
M  V30 4821 H 450.01 -5.65113 0.965393 0
M  V30 4822 H 448.407 -5.73967 1.75161 0
M  V30 4823 H 449.477 -4.37006 2.10128 0
M  V30 4824 N 450.82 -0.546701 -1.47814 0
M  V30 4825 C 452.069 -0.0166497 -2.01693 0
M  V30 4826 C 452.382 1.33721 -1.42752 0
M  V30 4827 O 453.588 1.95658 -1.8823 0
M  V30 4828 C 452.044 0.0206769 -3.59894 0
M  V30 4829 C 451.652 -1.3293 -4.27824 0
M  V30 4830 C 453.396 0.498674 -4.21561 0
M  V30 4831 C 451.303 -1.25165 -5.78003 0
M  V30 4832 H 450.233 -0.0024541 -0.753996 0
M  V30 4833 H 452.884 -0.692984 -1.69912 0
M  V30 4834 H 451.266 0.76244 -3.88591 0
M  V30 4835 H 452.44 -2.08795 -4.10781 0
M  V30 4836 H 450.755 -1.74438 -3.78101 0
M  V30 4837 H 453.352 0.575 -5.31599 0
M  V30 4838 H 453.695 1.5083 -3.88016 0
M  V30 4839 H 454.228 -0.18791 -3.97356 0
M  V30 4840 H 450.967 -2.23695 -6.1615 0
M  V30 4841 H 450.487 -0.53464 -5.97412 0
M  V30 4842 H 452.166 -0.949299 -6.39998 0
M  V30 4843 N 452.299 1.55045 -0.282633 0
M  V30 4844 C 453.529 2.03872 0.334635 0
M  V30 4845 C 453.937 1.16018 1.49454 0
M  V30 4846 O 453.28 0.174449 1.8287 0
M  V30 4847 C 453.342 3.48791 0.870905 0
M  V30 4848 C 453.006 4.56715 -0.161338 0
M  V30 4849 C 454.003 5.10513 -0.983466 0
M  V30 4850 C 451.688 5.01417 -0.297745 0
M  V30 4851 C 453.682 6.07538 -1.92811 0
M  V30 4852 C 451.369 5.98265 -1.24586 0
M  V30 4853 C 452.367 6.51208 -2.05954 0
M  V30 4854 O 452.055 7.46162 -2.99162 0
M  V30 4855 H 451.787 0.671324 0.0793742 0
M  V30 4856 H 454.341 2.01169 -0.41473 0
M  V30 4857 H 452.571 3.48758 1.67047 0
M  V30 4858 H 454.26 3.80916 1.40207 0
M  V30 4859 H 455.026 4.76785 -0.888856 0
M  V30 4860 H 450.905 4.59849 0.325604 0
M  V30 4861 H 454.449 6.48787 -2.56363 0
M  V30 4862 H 450.346 6.31412 -1.34126 0
M  V30 4863 H 451.114 7.63903 -2.93929 0
M  V30 4864 N 453.777 0.010035 1.57597 0
M  V30 4865 C 454.74 -0.963029 2.07986 0
M  V30 4866 C 455.74 -1.26619 0.991173 0
M  V30 4867 O 456.93 -1.2097 1.25347 0
M  V30 4868 C 454.062 -2.2851 2.52974 0
M  V30 4869 H 455.255 -0.526971 2.95234 0
M  V30 4870 H 452.808 -0.237639 1.54483 0
M  V30 4871 H 453.543 -2.76784 1.69 0
M  V30 4872 H 453.328 -2.07824 3.32493 0
M  V30 4873 H 454.818 -2.98294 2.9225 0
M  V30 4874 N 455.255 -1.55392 -0.262866 0
M  V30 4875 C 456.48 -1.80847 -1.01533 0
M  V30 4876 C 456.905 -0.584946 -1.78774 0
M  V30 4877 O 456.263 0.465701 -1.75217 0
M  V30 4878 C 456.311 -3.03866 -1.94159 0
M  V30 4879 O 455.415 -2.79662 -3.03089 0
M  V30 4880 H 454.756 -0.597441 -0.289759 0
M  V30 4881 H 457.286 -2.02553 -0.288698 0
M  V30 4882 H 457.296 -3.32872 -2.35924 0
M  V30 4883 H 455.971 -3.92564 -1.37354 0
M  V30 4884 H 454.548 -2.61781 -2.65566 0
M  V30 4885 N 456.733 0.527833 -1.48498 0
M  V30 4886 C 457.963 1.30633 -1.60058 0
M  V30 4887 C 458.371 1.87394 -0.260786 0
M  V30 4888 O 457.714 1.67227 0.760317 0
M  V30 4889 C 457.776 2.49361 -2.58958 0
M  V30 4890 C 457.44 2.13671 -4.03972 0
M  V30 4891 C 458.437 1.69217 -4.91591 0
M  V30 4892 C 456.122 2.24129 -4.49524 0
M  V30 4893 C 458.116 1.35689 -6.2279 0
M  V30 4894 C 455.803 1.90212 -5.80743 0
M  V30 4895 C 456.801 1.46063 -6.67199 0
M  V30 4896 O 456.489 1.12593 -7.95976 0
M  V30 4897 H 456.221 0.403444 -0.54241 0
M  V30 4898 H 458.775 0.643233 -1.95068 0
M  V30 4899 H 457.005 3.18659 -2.19073 0
M  V30 4900 H 458.694 3.11421 -2.6033 0
M  V30 4901 H 459.46 1.60607 -4.57636 0
M  V30 4902 H 455.339 2.57447 -3.82416 0
M  V30 4903 H 458.883 1.01157 -6.90227 0
M  V30 4904 H 454.78 1.98464 -6.14233 0
M  V30 4905 H 455.548 1.25972 -8.08748 0
M  V30 4906 N 458.211 1.37122 0.776871 0
M  V30 4907 C 459.174 1.32301 1.8716 0
M  V30 4908 C 460.174 0.228099 1.59174 0
M  V30 4909 O 461.364 0.483642 1.67352 0
M  V30 4910 C 458.496 1.054 3.24197 0
M  V30 4911 H 459.689 2.29673 1.92848 0
M  V30 4912 H 457.242 1.22077 0.97606 0
M  V30 4913 H 457.977 0.0853872 3.24188 0
M  V30 4914 H 457.762 1.84648 3.45901 0
M  V30 4915 H 459.252 1.04664 4.04271 0
M  V30 4916 N 459.689 -1.00246 1.21608 0
M  V30 4917 C 460.619 -2.10921 1.00172 0
M  V30 4918 C 461.6 -1.69938 -0.0741587 0
M  V30 4919 O 462.785 -1.94009 0.0861753 0
M  V30 4920 C 459.915 -3.42618 0.568355 0
M  V30 4921 C 458.869 -3.97407 1.58909 0
M  V30 4922 C 458.195 -5.25038 1.01187 0
M  V30 4923 C 459.495 -4.2918 2.97661 0
M  V30 4924 H 461.189 -2.29112 1.92739 0
M  V30 4925 H 458.735 -1.10101 0.928102 0
M  V30 4926 H 460.688 -4.19444 0.405555 0
M  V30 4927 H 459.412 -3.24227 -0.392961 0
M  V30 4928 H 458.071 -3.22703 1.73949 0
M  V30 4929 H 457.719 -5.02982 0.0421965 0
M  V30 4930 H 457.419 -5.62661 1.6937 0
M  V30 4931 H 458.943 -6.04507 0.860448 0
M  V30 4932 H 460.357 -4.96839 2.86049 0
M  V30 4933 H 458.754 -4.77952 3.6288 0
M  V30 4934 H 459.824 -3.3735 3.48315 0
M  V30 4935 N 461.167 -1.02423 -1.1978 0
M  V30 4936 C 462.13 -0.605703 -2.21052 0
M  V30 4937 C 463.13 0.328209 -1.57415 0
M  V30 4938 O 464.32 0.115853 -1.73814 0
M  V30 4939 C 461.452 0.114366 -3.40708 0
M  V30 4940 H 462.645 -1.5017 -2.59594 0
M  V30 4941 H 460.198 -0.814888 -1.33376 0
M  V30 4942 H 460.933 1.02492 -3.07678 0
M  V30 4943 H 460.718 -0.556641 -3.88129 0
M  V30 4944 H 462.208 0.394272 -4.15735 0
M  V30 4945 N 462.645 1.35699 -0.801477 0
M  V30 4946 C 463.892 1.98913 -0.379459 0
M  V30 4947 C 464.22 1.63592 1.05204 0
M  V30 4948 O 463.475 0.888563 1.74365 0
M  V30 4949 C 463.774 3.53828 -0.504041 0
M  V30 4950 C 463.44 4.09002 -1.8981 0
M  V30 4951 C 462.102 4.23783 -2.27951 0
M  V30 4952 C 464.454 4.38939 -2.81038 0
M  V30 4953 C 461.782 4.65816 -3.56696 0
M  V30 4954 C 464.134 4.82409 -4.09224 0
M  V30 4955 C 462.798 4.95395 -4.4737 0
M  V30 4956 H 462.068 0.727874 -0.138854 0
M  V30 4957 H 464.715 1.61994 -1.02128 0
M  V30 4958 H 463.02 3.91175 0.221242 0
M  V30 4959 H 464.717 4.00687 -0.158361 0
M  V30 4960 H 461.307 3.97946 -1.59176 0
M  V30 4961 H 465.491 4.27077 -2.52821 0
M  V30 4962 H 460.747 4.74059 -3.86106 0
M  V30 4963 H 464.921 5.04535 -4.80018 0
M  V30 4964 H 462.548 5.27724 -5.47185 0
M  V30 4965 N 464.123 0.554532 1.47522 0
M  V30 4966 C 465.369 0.0377449 2.03365 0
M  V30 4967 C 465.724 -1.29654 1.42154 0
M  V30 4968 O 465.017 -1.83022 0.566865 0
M  V30 4969 C 465.211 -0.115927 3.57212 0
M  V30 4970 C 465.04 1.20191 4.33341 0
M  V30 4971 C 463.81 1.76849 4.73342 0
M  V30 4972 C 466.008 2.11849 4.68641 0
M  V30 4973 N 463.99 3.02665 5.34104 0
M  V30 4974 C 465.361 3.22245 5.29677 0
M  V30 4975 C 467.416 2.11876 4.5057 0
M  V30 4976 C 466.119 4.32763 5.74551 0
M  V30 4977 C 468.145 3.21405 4.9644 0
M  V30 4978 C 467.507 4.30519 5.57523 0
M  V30 4979 H 463.606 0.0559107 0.779999 0
M  V30 4980 H 466.19 0.741232 1.80038 0
M  V30 4981 H 464.361 -0.788533 3.80311 0
M  V30 4982 H 466.093 -0.634538 3.99695 0
M  V30 4983 H 462.848 1.30681 4.55214 0
M  V30 4984 H 463.272 3.66788 5.69031 0
M  V30 4985 H 467.914 1.28801 4.02704 0
M  V30 4986 H 465.632 5.166 6.2141 0
M  V30 4987 H 469.218 3.22509 4.8423 0
M  V30 4988 H 468.098 5.13873 5.92371 0
M  V30 4989 N 465.601 -1.54893 0.290851 0
M  V30 4990 C 466.831 -2.04047 -0.323818 0
M  V30 4991 C 467.239 -1.16809 -1.48837 0
M  V30 4992 O 466.582 -0.184145 -1.82775 0
M  V30 4993 C 466.644 -3.49248 -0.852395 0
M  V30 4994 C 466.308 -4.56623 0.185557 0
M  V30 4995 C 467.305 -5.09985 1.01053 0
M  V30 4996 C 464.99 -5.01252 0.324332 0
M  V30 4997 C 466.984 -6.06507 1.96031 0
M  V30 4998 C 464.671 -5.97596 1.27757 0
M  V30 4999 C 465.669 -6.50107 2.09405 0
M  V30 5000 O 465.357 -7.44565 3.03114 0
M  V30 5001 H 465.089 -0.671735 -0.0758129 0
M  V30 5002 H 467.643 -2.00947 0.425393 0
M  V30 5003 H 465.873 -3.49639 -1.65195 0
M  V30 5004 H 467.562 -3.81654 -1.38185 0
M  V30 5005 H 468.328 -4.76307 0.914129 0
M  V30 5006 H 464.207 -4.60015 -0.301213 0
M  V30 5007 H 467.751 -6.47418 2.598 0
M  V30 5008 H 463.648 -6.30691 1.37473 0
M  V30 5009 H 464.416 -7.62334 2.97976 0
M  V30 5010 N 467.08 -0.0183926 -1.57589 0
M  V30 5011 C 468.328 0.661253 -1.90976 0
M  V30 5012 C 468.649 1.73281 -0.894353 0
M  V30 5013 O 467.919 1.9579 0.0656788 0
M  V30 5014 H 466.499 0.247233 -0.704901 0
M  V30 5015 H 469.161 -0.0636639 -1.94796 0
M  V30 5016 H 468.257 1.12083 -2.9128 0
M  V30 5017 N 468.558 1.5553 0.254621 0
M  V30 5018 C 469.786 1.81046 1.00149 0
M  V30 5019 C 470.201 0.593047 1.79244 0
M  V30 5020 O 469.558 -0.438196 1.77161 0
M  V30 5021 C 469.609 3.04684 1.94551 0
M  V30 5022 O 469.33 4.21725 1.18658 0
M  V30 5023 C 470.831 3.42943 2.80901 0
M  V30 5024 H 468.051 0.602653 0.295044 0
M  V30 5025 H 470.595 2.02576 0.279842 0
M  V30 5026 H 468.75 2.85226 2.62154 0
M  V30 5027 H 469.164 4.91746 1.82445 0
M  V30 5028 H 470.638 4.32576 3.42902 0
M  V30 5029 H 471.115 2.63176 3.51617 0
M  V30 5030 H 471.721 3.64724 2.18762 0
M  V30 5031 N 470.036 -0.519951 1.48776 0
M  V30 5032 C 471.264 -1.29971 1.60982 0
M  V30 5033 C 471.679 -1.86803 0.273885 0
M  V30 5034 O 471.036 -1.66904 -0.738193 0
M  V30 5035 C 471.087 -2.44346 2.66415 0
M  V30 5036 O 470.808 -1.89855 3.94825 0
M  V30 5037 C 472.309 -3.36014 2.89153 0
M  V30 5038 H 469.529 -0.394891 0.542496 0
M  V30 5039 H 472.073 -0.626214 1.94676 0
M  V30 5040 H 470.228 -3.07562 2.35552 0
M  V30 5041 H 470.642 -2.64798 4.5275 0
M  V30 5042 H 472.116 -4.12593 3.66703 0
M  V30 5043 H 472.593 -3.91859 1.98351 0
M  V30 5044 H 473.199 -2.78582 3.21359 0
M  V30 5045 N 471.514 -1.37532 -0.769588 0
M  V30 5046 C 472.444 -1.36172 -1.89682 0
M  V30 5047 C 473.425 -0.23001 -1.68538 0
M  V30 5048 O 474.61 -0.43069 -1.89364 0
M  V30 5049 C 471.74 -1.1701 -3.26995 0
M  V30 5050 C 470.694 -2.27216 -3.62708 0
M  V30 5051 C 470.02 -1.93174 -4.98586 0
M  V30 5052 C 471.32 -3.6941 -3.69234 0
M  V30 5053 H 473.014 -2.30499 -1.91078 0
M  V30 5054 H 470.56 -1.10953 -0.917902 0
M  V30 5055 H 472.513 -1.14688 -4.05493 0
M  V30 5056 H 471.237 -0.191395 -3.26039 0
M  V30 5057 H 469.896 -2.28697 -2.86519 0
M  V30 5058 H 469.544 -0.938281 -4.94171 0
M  V30 5059 H 469.244 -2.66973 -5.23449 0
M  V30 5060 H 470.768 -1.92443 -5.79481 0
M  V30 5061 H 472.182 -3.70047 -4.37879 0
M  V30 5062 H 470.579 -4.4228 -4.05597 0
M  V30 5063 H 471.649 -4.0288 -2.69844 0
M  V30 5064 N 472.992 0.995999 -1.22138 0
M  V30 5065 C 474.238 1.73767 -1.04561 0
M  V30 5066 C 474.571 1.89633 0.418698 0
M  V30 5067 O 473.846 1.43723 1.3105 0
M  V30 5068 C 474.129 3.14505 -1.75382 0
M  V30 5069 C 473.982 3.06306 -3.29388 0
M  V30 5070 C 475.301 4.13615 -1.50369 0
M  V30 5071 H 472.42 0.630728 -0.38125 0
M  V30 5072 H 475.062 1.16057 -1.50435 0
M  V30 5073 H 473.212 3.63775 -1.36383 0
M  V30 5074 H 474.884 2.64681 -3.77812 0
M  V30 5075 H 473.127 2.43186 -3.59226 0
M  V30 5076 H 473.798 4.05884 -3.74116 0
M  V30 5077 H 476.274 3.73089 -1.84239 0
M  V30 5078 H 475.15 5.10212 -2.02421 0
M  V30 5079 H 475.411 4.39949 -0.435611 0
M  V30 5080 N 474.47 1.03057 1.19235 0
M  V30 5081 C 475.4 0.633497 2.24742 0
M  V30 5082 C 476.381 -0.358335 1.66283 0
M  V30 5083 O 477.566 -0.240676 1.92703 0
M  V30 5084 C 474.696 -0.0147648 3.47297 0
M  V30 5085 C 473.65 0.899527 4.18441 0
M  V30 5086 C 472.976 0.116281 5.34574 0
M  V30 5087 C 474.276 2.21404 4.73051 0
M  V30 5088 H 475.97 1.5155 2.58211 0
M  V30 5089 H 473.516 0.73014 1.24117 0
M  V30 5090 H 475.469 -0.304202 4.20301 0
M  V30 5091 H 474.193 -0.931577 3.13032 0
M  V30 5092 H 472.852 1.17319 3.47321 0
M  V30 5093 H 472.5 -0.802619 4.96555 0
M  V30 5094 H 472.2 0.725293 5.83107 0
M  V30 5095 H 473.724 -0.166376 6.10373 0
M  V30 5096 H 475.138 1.98601 5.37802 0
M  V30 5097 H 473.535 2.77512 5.32078 0
M  V30 5098 H 474.605 2.86752 3.91026 0
M  V30 5099 N 475.948 -1.35272 0.808662 0
M  V30 5100 C 477.173 -2.03477 0.401475 0
M  V30 5101 C 477.598 -1.60537 -0.980279 0
M  V30 5102 O 476.956 -0.78304 -1.63518 0
M  V30 5103 C 477.004 -3.57181 0.495354 0
M  V30 5104 O 476.108 -4.09474 -0.490397 0
M  V30 5105 H 475.449 -0.642561 0.167366 0
M  V30 5106 H 477.979 -1.72824 1.09512 0
M  V30 5107 H 477.989 -4.06356 0.365912 0
M  V30 5108 H 476.664 -3.87784 1.5032 0
M  V30 5109 H 475.241 -3.71516 -0.321023 0
M  V30 5110 N 477.426 -0.562348 -1.47226 0
M  V30 5111 C 478.674 -0.0401371 -2.0206 0
M  V30 5112 C 478.995 1.3165 -1.43852 0
M  V30 5113 O 478.265 1.85976 -0.615599 0
M  V30 5114 H 476.845 -0.0118479 -0.746906 0
M  V30 5115 H 479.507 -0.73352 -1.8057 0
M  V30 5116 H 478.603 0.0441254 -3.12069 0
M  V30 5117 N 478.904 1.54736 -0.299062 0
M  V30 5118 C 479.814 2.27127 0.587413 0
M  V30 5119 C 480.83 1.30575 1.15005 0
M  V30 5120 O 482.006 1.63554 1.17525 0
M  V30 5121 C 479.071 2.99645 1.74395 0
M  V30 5122 C 478.132 4.11731 1.21559 0
M  V30 5123 C 477.365 4.80781 2.317 0
M  V30 5124 O 477.588 4.4918 3.51558 0
M  V30 5125 O 476.522 5.68226 1.98501 0
M  V30 5126 H 480.348 3.037 0.000250109 0
M  V30 5127 H 477.933 1.49256 -0.0655919 0
M  V30 5128 H 479.815 3.45138 2.4178 0
M  V30 5129 H 478.49 2.25969 2.31775 0
M  V30 5130 H 477.397 3.70641 0.507514 0
M  V30 5131 H 478.73 4.87379 0.687233 0
M  V30 5132 N 480.382 0.0267497 1.57577 0
M  V30 5133 C 481.612 -0.6617 1.95717 0
M  V30 5134 C 482.02 -1.66331 0.901706 0
M  V30 5135 O 481.363 -1.83273 -0.125241 0
M  V30 5136 C 481.425 -1.42649 3.29987 0
M  V30 5137 C 481.089 -0.583482 4.5326 0
M  V30 5138 C 482.086 0.140221 5.19711 0
M  V30 5139 C 479.771 -0.521581 4.99585 0
M  V30 5140 C 481.765 0.914523 6.30805 0
M  V30 5141 C 479.452 0.256428 6.10562 0
M  V30 5142 C 480.45 0.973189 6.76031 0
M  V30 5143 O 480.138 1.73845 7.84878 0
M  V30 5144 H 479.87 -0.187483 0.649481 0
M  V30 5145 H 482.424 0.0820847 2.05236 0
M  V30 5146 H 480.654 -2.21536 3.16952 0
M  V30 5147 H 482.343 -2.00282 3.53047 0
M  V30 5148 H 483.109 0.101716 4.84893 0
M  V30 5149 H 478.988 -1.06904 4.48433 0
M  V30 5150 H 482.532 1.4745 6.81839 0
M  V30 5151 H 478.429 0.296657 6.44818 0
M  V30 5152 H 479.197 1.65797 8.01532 0
M  V30 5153 N 481.861 -1.55662 -0.24637 0
M  V30 5154 C 483.086 -1.81914 -0.996093 0
M  V30 5155 C 483.511 -0.603875 -1.78143 0
M  V30 5156 O 482.869 0.447091 -1.75701 0
M  V30 5157 C 482.917 -3.05908 -1.90925 0
M  V30 5158 O 482.021 -2.82861 -3.00105 0
M  V30 5159 H 481.362 -0.600481 -0.283406 0
M  V30 5160 H 483.892 -2.02848 -0.267199 0
M  V30 5161 H 483.902 -3.35356 -2.3238 0
M  V30 5162 H 482.577 -3.93999 -1.33183 0
M  V30 5163 H 481.154 -2.64583 -2.62775 0
M  V30 5164 N 483.339 0.512053 -1.4905 0
M  V30 5165 C 484.588 1.26343 -1.57227 0
M  V30 5166 C 484.901 1.93876 -0.259155 0
M  V30 5167 O 486.107 2.70612 -0.219358 0
M  V30 5168 C 484.563 2.29343 -2.77362 0
M  V30 5169 C 484.171 1.67799 -4.15388 0
M  V30 5170 C 485.915 3.05378 -2.94864 0
M  V30 5171 C 483.822 2.68845 -5.2676 0
M  V30 5172 H 482.752 0.475231 -0.585382 0
M  V30 5173 H 485.403 0.53862 -1.75417 0
M  V30 5174 H 483.785 3.04938 -2.52643 0
M  V30 5175 H 484.959 0.982715 -4.50199 0
M  V30 5176 H 483.274 1.04194 -4.03153 0
M  V30 5177 H 485.871 3.80921 -3.75238 0
M  V30 5178 H 486.214 3.62327 -2.05 0
M  V30 5179 H 486.747 2.36898 -3.19569 0
M  V30 5180 H 483.486 2.16692 -6.18647 0
M  V30 5181 H 483.006 3.36647 -4.96416 0
M  V30 5182 H 484.685 3.31487 -5.5563 0
M  V30 5183 N 484.817 1.37938 0.762283 0
M  V30 5184 C 486.065 1.33404 1.51815 0
M  V30 5185 C 486.386 -0.0780975 1.94844 0
M  V30 5186 O 485.656 -1.02405 1.67003 0
M  V30 5187 H 484.236 0.490839 0.563104 0
M  V30 5188 H 486.898 1.72527 0.906669 0
M  V30 5189 H 485.994 1.97926 2.41313 0
M  V30 5190 N 486.295 -0.989507 1.22664 0
M  V30 5191 C 487.227 -2.0824 0.957542 0
M  V30 5192 C 488.24 -1.6267 -0.0651098 0
M  V30 5193 O 489.429 -1.77695 0.169312 0
M  V30 5194 C 486.529 -3.36298 0.419145 0
M  V30 5195 C 485.702 -4.10882 1.49982 0
M  V30 5196 C 484.761 -5.17221 0.967904 0
M  V30 5197 O 483.787 -5.44613 1.65487 0
M  V30 5198 N 484.989 -5.80124 -0.20896 0
M  V30 5199 H 487.754 -2.31904 1.89843 0
M  V30 5200 H 485.315 -1.15552 1.13399 0
M  V30 5201 H 487.307 -4.04671 0.0485451 0
M  V30 5202 H 485.877 -3.09671 -0.426937 0
M  V30 5203 H 485.097 -3.37092 2.04359 0
M  V30 5204 H 486.385 -4.57482 2.22682 0
M  V30 5205 H 485.783 -5.60244 -0.783818 0
M  V30 5206 H 484.34 -6.49715 -0.520913 0
M  V30 5207 N 487.773 -1.03688 -1.18687 0
M  V30 5208 C 489.019 -0.739123 -1.88851 0
M  V30 5209 C 489.352 0.731042 -1.79915 0
M  V30 5210 O 488.627 1.53313 -1.19688 0
M  V30 5211 C 488.91 -1.20106 -3.3948 0
M  V30 5212 C 488.763 -2.73304 -3.57246 0
M  V30 5213 C 490.082 -0.788134 -4.32986 0
M  V30 5214 H 487.201 -0.269978 -0.68577 0
M  V30 5215 H 489.843 -1.28822 -1.3966 0
M  V30 5216 H 487.993 -0.733915 -3.81505 0
M  V30 5217 H 489.665 -3.28027 -3.24339 0
M  V30 5218 H 487.908 -3.13313 -3.00029 0
M  V30 5219 H 488.579 -3.00684 -4.62918 0
M  V30 5220 H 491.055 -1.19005 -3.98719 0
M  V30 5221 H 489.931 -1.13915 -5.36949 0
M  V30 5222 H 490.192 0.308988 -4.41019 0
M  V30 5223 N 489.251 1.34841 -0.815825 0
M  V30 5224 C 490.181 2.32187 -0.247298 0
M  V30 5225 C 491.162 1.5791 0.632344 0
M  V30 5226 O 492.347 1.8593 0.560698 0
M  V30 5227 C 489.477 3.42122 0.597466 0
M  V30 5228 C 488.431 4.27602 -0.184446 0
M  V30 5229 C 487.757 5.28942 0.782609 0
M  V30 5230 C 489.057 5.03502 -1.38865 0
M  V30 5231 H 490.751 2.79985 -1.06061 0
M  V30 5232 H 488.297 1.34611 -0.511461 0
M  V30 5233 H 490.25 4.09232 1.00533 0
M  V30 5234 H 488.974 2.92956 1.44376 0
M  V30 5235 H 487.633 3.62085 -0.573592 0
M  V30 5236 H 487.281 4.7604 1.62466 0
M  V30 5237 H 486.981 5.87008 0.263695 0
M  V30 5238 H 488.505 5.98922 1.18848 0
M  V30 5239 H 489.919 5.63506 -1.05518 0
M  V30 5240 H 488.316 5.71108 -1.8427 0
M  V30 5241 H 489.386 4.33608 -2.17054 0
M  V30 5242 N 490.729 0.570148 1.46925 0
M  V30 5243 C 491.957 0.0561966 2.06824 0
M  V30 5244 C 492.372 -1.24326 1.42086 0
M  V30 5245 O 491.729 -1.74882 0.521794 0
M  V30 5246 C 491.78 -0.129517 3.61268 0
M  V30 5247 O 491.501 1.1185 4.23581 0
M  V30 5248 C 493.002 -0.679266 4.38065 0
M  V30 5249 H 490.222 0.0517261 0.669003 0
M  V30 5250 H 492.766 0.787243 1.8874 0
M  V30 5251 H 490.921 -0.810739 3.78822 0
M  V30 5252 H 491.335 0.924375 5.1629 0
M  V30 5253 H 492.809 -0.758445 5.46765 0
M  V30 5254 H 493.286 -1.69346 4.05239 0
M  V30 5255 H 493.892 -0.0333237 4.25287 0
M  V30 5256 N 492.207 -1.54576 0.307264 0
M  V30 5257 C 493.453 -2.0056 -0.300612 0
M  V30 5258 C 493.786 -1.1953 -1.53057 0
M  V30 5259 O 493.061 -0.27337 -1.92569 0
M  V30 5260 C 493.344 -3.54167 -0.650987 0
M  V30 5261 C 493.197 -4.45933 0.588539 0
M  V30 5262 C 494.516 -4.14645 -1.47506 0
M  V30 5263 H 491.635 -0.729075 -0.107788 0
M  V30 5264 H 494.277 -1.85286 0.420606 0
M  V30 5265 H 492.427 -3.67313 -1.26544 0
M  V30 5266 H 494.099 -4.44683 1.22697 0
M  V30 5267 H 492.342 -4.16274 1.22058 0
M  V30 5268 H 493.013 -5.51189 0.299153 0
M  V30 5269 H 495.489 -4.04973 -0.955821 0
M  V30 5270 H 494.365 -5.22269 -1.68899 0
M  V30 5271 H 494.626 -3.66921 -2.4662 0
M  V30 5272 N 493.685 -0.035106 -1.57561 0
M  V30 5273 C 494.932 0.642229 -1.92046 0
M  V30 5274 C 495.26 1.7179 -0.91206 0
M  V30 5275 O 494.515 1.95544 0.0781153 0
M  V30 5276 C 494.814 1.29149 -3.3325 0
M  V30 5277 C 494.48 0.345604 -4.49574 0
M  V30 5278 C 493.142 0.0852775 -4.81124 0
M  V30 5279 C 495.494 -0.303569 -5.20315 0
M  V30 5280 C 492.822 -0.831927 -5.80772 0
M  V30 5281 C 495.174 -1.20886 -6.20942 0
M  V30 5282 C 493.838 -1.47802 -6.50931 0
M  V30 5283 H 493.108 0.235008 -0.702746 0
M  V30 5284 H 495.755 -0.0981529 -1.91248 0
M  V30 5285 H 494.06 2.10676 -3.30337 0
M  V30 5286 H 495.757 1.82223 -3.57205 0
M  V30 5287 H 492.347 0.558683 -4.24943 0
M  V30 5288 H 496.531 -0.115515 -4.96166 0
M  V30 5289 H 491.787 -1.0481 -6.02349 0
M  V30 5290 H 495.961 -1.71804 -6.74875 0
M  V30 5291 H 493.588 -2.19039 -7.2796 0
M  V30 5292 N 495.163 1.55791 0.238111 0
M  V30 5293 C 496.41 1.78033 0.964907 0
M  V30 5294 C 496.738 0.600984 1.84982 0
M  V30 5295 O 495.993 -0.41536 1.91241 0
M  V30 5296 C 496.292 3.05869 1.84875 0
M  V30 5297 C 495.958 4.36808 1.11846 0
M  V30 5298 C 494.62 4.72388 0.916662 0
M  V30 5299 C 496.972 5.17717 0.60151 0
M  V30 5300 C 494.3 5.86406 0.185756 0
M  V30 5301 C 496.652 6.32494 -0.115972 0
M  V30 5302 C 495.316 6.66688 -0.329168 0
M  V30 5303 H 494.586 0.651469 0.353085 0
M  V30 5304 H 497.233 1.90061 0.234318 0
M  V30 5305 H 495.538 2.88891 2.64668 0
M  V30 5306 H 497.235 3.20278 2.41294 0
M  V30 5307 H 493.825 4.08862 1.28569 0
M  V30 5308 H 498.009 4.90678 0.744932 0
M  V30 5309 H 493.265 6.11399 0.0101886 0
M  V30 5310 H 497.439 6.94425 -0.524127 0
M  V30 5311 H 495.066 7.54884 -0.897474 0
M  V30 5312 N 496.642 -0.504142 1.49319 0
M  V30 5313 C 497.867 -1.28729 1.62615 0
M  V30 5314 C 498.292 -1.85752 0.296309 0
M  V30 5315 O 497.65 -1.65704 -0.735649 0
M  V30 5316 C 497.698 -2.39561 2.69524 0
M  V30 5317 O 496.802 -3.43324 2.28478 0
M  V30 5318 H 496.143 -0.380172 0.544395 0
M  V30 5319 H 498.673 -0.603872 1.95485 0
M  V30 5320 H 498.683 -2.8537 2.91595 0
M  V30 5321 H 497.358 -1.97423 3.66056 0
M  V30 5322 H 495.935 -3.03455 2.16725 0
M  V30 5323 N 498.12 -1.38341 -0.754957 0
M  V30 5324 C 499.366 -1.34672 -1.51628 0
M  V30 5325 C 499.699 0.0636036 -1.94096 0
M  V30 5326 O 498.974 1.0245 -1.6533 0
M  V30 5327 C 499.257 -2.30116 -2.76981 0
M  V30 5328 C 499.11 -3.80003 -2.4066 0
M  V30 5329 C 500.429 -2.23715 -3.78998 0
M  V30 5330 H 497.548 -0.490517 -0.550056 0
M  V30 5331 H 500.19 -1.69178 -0.864807 0
M  V30 5332 H 498.34 -2.00821 -3.3257 0
M  V30 5333 H 500.012 -4.19966 -1.90856 0
M  V30 5334 H 498.255 -3.97751 -1.73137 0
M  V30 5335 H 498.926 -4.42244 -3.30339 0
M  V30 5336 H 501.402 -2.49574 -3.32945 0
M  V30 5337 H 500.278 -2.9261 -4.64403 0
M  V30 5338 H 500.539 -1.23554 -4.24484 0
M  V30 5339 N 499.598 0.982988 -1.23187 0
M  V30 5340 C 500.528 2.09301 -1.03515 0
M  V30 5341 C 501.509 1.70035 0.0471136 0
M  V30 5342 O 502.694 1.93847 -0.117029 0
M  V30 5343 C 499.824 3.4167 -0.622791 0
M  V30 5344 C 498.778 3.94828 -1.65211 0
M  V30 5345 C 498.104 5.23362 -1.09527 0
M  V30 5346 C 499.404 4.2439 -3.04451 0
M  V30 5347 H 501.098 2.26016 -1.96359 0
M  V30 5348 H 498.644 1.08611 -0.945501 0
M  V30 5349 H 500.597 4.18746 -0.472233 0
M  V30 5350 H 499.321 3.24811 0.341329 0
M  V30 5351 H 497.98 3.19895 -1.79061 0
M  V30 5352 H 497.628 5.02852 -0.122211 0
M  V30 5353 H 497.328 5.59895 -1.783 0
M  V30 5354 H 498.852 6.03062 -0.956511 0
M  V30 5355 H 500.266 4.92225 -2.93917 0
M  V30 5356 H 498.663 4.72118 -3.70438 0
M  V30 5357 H 499.733 3.31765 -3.53638 0
M  V30 5358 N 501.076 1.04316 1.18135 0
M  V30 5359 C 502.325 0.74319 1.87509 0
M  V30 5360 C 502.638 -0.732136 1.81381 0
M  V30 5361 O 503.844 -1.14572 2.46141 0
M  V30 5362 C 502.3 1.27913 3.36402 0
M  V30 5363 C 501.908 2.78326 3.51053 0
M  V30 5364 C 503.652 1.0558 4.11161 0
M  V30 5365 C 501.559 3.25266 4.93919 0
M  V30 5366 H 500.489 0.274313 0.702331 0
M  V30 5367 H 503.14 1.25931 1.33467 0
M  V30 5368 H 501.522 0.690853 3.89927 0
M  V30 5369 H 502.696 3.42933 3.07788 0
M  V30 5370 H 501.011 2.991 2.89704 0
M  V30 5371 H 503.608 1.38161 5.16542 0
M  V30 5372 H 503.951 -0.00684729 4.16299 0
M  V30 5373 H 504.484 1.60882 3.63816 0
M  V30 5374 H 501.223 4.30922 4.9395 0
M  V30 5375 H 500.743 2.65396 5.3789 0
M  V30 5376 H 502.422 3.19433 5.62647 0
M  V30 5377 N 502.554 -1.34406 0.822964 0
M  V30 5378 C 503.802 -1.97892 0.410245 0
M  V30 5379 C 504.123 -1.65567 -1.03017 0
M  V30 5380 O 503.393 -0.94642 -1.71522 0
M  V30 5381 H 501.973 -0.732049 0.148707 0
M  V30 5382 H 504.635 -1.64043 1.05242 0
M  V30 5383 H 503.731 -3.07579 0.529284 0
M  V30 5384 N 504.032 -0.577932 -1.46621 0
M  V30 5385 C 504.995 0.147805 -2.28723 0
M  V30 5386 C 505.995 0.823325 -1.38123 0
M  V30 5387 O 507.185 0.676011 -1.60548 0
M  V30 5388 C 504.317 1.21853 -3.18378 0
M  V30 5389 H 505.51 -0.573654 -2.94362 0
M  V30 5390 H 503.063 -0.335703 -1.52652 0
M  V30 5391 H 503.798 1.97173 -2.57475 0
M  V30 5392 H 503.583 0.738714 -3.85078 0
M  V30 5393 H 505.073 1.72768 -3.80186 0
M  V30 5394 N 505.51 1.54411 -0.315457 0
M  V30 5395 C 506.757 2.00419 0.289543 0
M  V30 5396 C 507.085 1.20373 1.52776 0
M  V30 5397 O 506.34 0.271769 1.93804 0
M  V30 5398 C 506.639 3.50936 0.676652 0
M  V30 5399 C 506.305 4.48532 -0.461472 0
M  V30 5400 C 504.967 4.74936 -0.773879 0
M  V30 5401 C 507.319 5.06567 -1.22637 0
M  V30 5402 C 504.647 5.56634 -1.85405 0
M  V30 5403 C 506.999 5.89441 -2.29657 0
M  V30 5404 C 505.663 6.1415 -2.61488 0
M  V30 5405 H 504.933 0.733386 0.105951 0
M  V30 5406 H 507.58 1.86434 -0.437554 0
M  V30 5407 H 505.885 3.62606 1.48405 0
M  V30 5408 H 507.582 3.83971 1.15618 0
M  V30 5409 H 504.172 4.28096 -0.207893 0
M  V30 5410 H 508.356 4.86157 -0.998271 0
M  V30 5411 H 503.612 5.74012 -2.10523 0
M  V30 5412 H 507.786 6.33432 -2.89374 0
M  V30 5413 H 505.413 6.77245 -3.45317 0
M  V30 5414 N 506.988 0.0434614 1.5754 0
M  V30 5415 C 508.213 -0.645358 1.97104 0
M  V30 5416 C 508.638 -1.64037 0.920521 0
M  V30 5417 O 507.996 -1.80922 -0.11708 0
M  V30 5418 C 508.044 -1.31547 3.35749 0
M  V30 5419 O 507.148 -2.43103 3.33129 0
M  V30 5420 H 506.489 -0.168403 0.64229 0
M  V30 5421 H 509.019 0.109573 2.04306 0
M  V30 5422 H 509.029 -1.66895 3.72304 0
M  V30 5423 H 507.704 -0.586205 4.11748 0
M  V30 5424 H 506.281 -2.0976 3.0831 0
M  V30 5425 N 508.466 -1.55915 -0.229846 0
M  V30 5426 C 509.712 -1.78807 -0.956868 0
M  V30 5427 C 510.045 -0.611687 -1.84315 0
M  V30 5428 O 509.32 0.389398 -1.90562 0
M  V30 5429 C 509.603 -3.11718 -1.80288 0
M  V30 5430 C 509.456 -4.3979 -0.943649 0
M  V30 5431 C 510.775 -3.40999 -2.78222 0
M  V30 5432 H 507.894 -0.6505 -0.346437 0
M  V30 5433 H 510.536 -1.88648 -0.226252 0
M  V30 5434 H 508.686 -3.03459 -2.42579 0
M  V30 5435 H 510.358 -4.60059 -0.338121 0
M  V30 5436 H 508.601 -4.33086 -0.248705 0
M  V30 5437 H 509.272 -5.29208 -1.5698 0
M  V30 5438 H 511.748 -3.49332 -2.26067 0
M  V30 5439 H 510.624 -4.35183 -3.34526 0
M  V30 5440 H 510.885 -2.62754 -3.55546 0
M  V30 5441 N 509.944 0.496216 -1.49584 0
M  V30 5442 C 511.192 1.24756 -1.58998 0
M  V30 5443 C 511.513 1.92968 -0.280775 0
M  V30 5444 O 510.783 1.82959 0.700198 0
M  V30 5445 H 509.363 0.463471 -0.585836 0
M  V30 5446 H 512.025 0.574678 -1.86235 0
M  V30 5447 H 511.121 2.00895 -2.38847 0
M  V30 5448 N 511.423 1.38739 0.74761 0
M  V30 5449 C 512.355 1.32341 1.87132 0
M  V30 5450 C 513.368 0.234502 1.61102 0
M  V30 5451 O 514.557 0.492516 1.71571 0
M  V30 5452 C 511.657 1.02915 3.22896 0
M  V30 5453 C 510.83 2.22834 3.76383 0
M  V30 5454 C 509.889 1.90059 4.90677 0
M  V30 5455 O 508.915 2.62615 5.04997 0
M  V30 5456 N 510.117 0.859141 5.74107 0
M  V30 5457 H 512.882 2.29175 1.93129 0
M  V30 5458 H 510.443 1.32678 0.927805 0
M  V30 5459 H 512.435 0.79031 3.96908 0
M  V30 5460 H 511.005 0.148572 3.12247 0
M  V30 5461 H 510.225 2.62747 2.93867 0
M  V30 5462 H 511.513 3.02851 4.08851 0
M  V30 5463 H 510.911 0.257564 5.65113 0
M  V30 5464 H 509.468 0.680189 6.48241 0
M  V30 5465 N 512.901 -0.976442 1.23707 0
M  V30 5466 C 513.864 -2.0511 1.02287 0
M  V30 5467 C 514.864 -1.60791 -0.0167195 0
M  V30 5468 O 516.054 -1.72761 0.223408 0
M  V30 5469 C 513.186 -3.36458 0.548507 0
M  V30 5470 H 514.379 -2.25545 1.9766 0
M  V30 5471 H 511.932 -1.15042 1.05806 0
M  V30 5472 H 512.667 -3.21713 -0.408818 0
M  V30 5473 H 512.452 -3.69967 1.29874 0
M  V30 5474 H 513.942 -4.15489 0.419406 0
M  V30 5475 N 514.379 -1.04941 -1.1758 0
M  V30 5476 C 515.604 -0.778253 -1.92245 0
M  V30 5477 C 516.029 0.659707 -1.76152 0
M  V30 5478 O 515.387 1.45803 -1.07755 0
M  V30 5479 C 515.435 -1.16051 -3.41416 0
M  V30 5480 O 514.539 -0.291153 -4.11371 0
M  V30 5481 H 513.88 -0.285619 -0.599431 0
M  V30 5482 H 516.41 -1.40159 -1.49052 0
M  V30 5483 H 516.42 -1.12619 -3.92149 0
M  V30 5484 H 515.095 -2.208 -3.52449 0
M  V30 5485 H 513.672 -0.385851 -3.70898 0
M  V30 5486 N 515.857 1.33968 -0.830081 0
M  V30 5487 C 517.268 1.80439 -0.479455 0
M  V30 5488 C 517.619 1.68756 1.00079 0
M  V30 5489 O 516.744 1.23171 1.77927 0
M  V30 5490 C 517.339 3.27611 -0.863505 0
M  V30 5491 C 515.898 3.72133 -0.565145 0
M  V30 5492 C 515.045 2.55549 -1.07657 0
M  V30 5493 H 517.996 1.21614 -1.0196 0
M  V30 5494 H 518.017 3.8012 -0.170083 0
M  V30 5495 H 517.529 3.36082 -1.94089 0
M  V30 5496 H 515.63 3.69196 0.502536 0
M  V30 5497 H 515.743 4.65963 -1.11422 0
M  V30 5498 H 514.107 2.49788 -0.497807 0
M  V30 5499 H 514.89 2.66786 -2.16055 0
M  V30 5500 N 517.335 0.585699 1.46312 0
M  V30 5501 C 518.56 0.0762461 2.0726 0
M  V30 5502 C 518.985 -1.22071 1.43109 0
M  V30 5503 O 518.343 -1.73804 0.515942 0
M  V30 5504 C 518.391 -0.0729404 3.60526 0
M  V30 5505 O 517.495 -1.1287 3.96654 0
M  V30 5506 H 516.836 0.0641558 0.660893 0
M  V30 5507 H 519.366 0.809492 1.87905 0
M  V30 5508 H 519.376 -0.278158 4.07051 0
M  V30 5509 H 518.051 0.874188 4.06609 0
M  V30 5510 H 516.628 -0.901703 3.61834 0
M  V30 5511 N 518.813 -1.54241 0.323641 0
M  V30 5512 C 520.062 -1.9975 -0.279806 0
M  V30 5513 C 520.375 -1.2156 -1.5324 0
M  V30 5514 O 521.581 -1.57447 -2.21185 0
M  V30 5515 C 520.037 -3.55686 -0.549115 0
M  V30 5516 C 519.645 -4.4271 0.686432 0
M  V30 5517 C 521.389 -4.09663 -1.11251 0
M  V30 5518 C 519.296 -5.90119 0.389022 0
M  V30 5519 H 518.226 -0.746177 -0.10833 0
M  V30 5520 H 520.877 -1.78248 0.435877 0
M  V30 5521 H 519.259 -3.73176 -1.32499 0
M  V30 5522 H 520.433 -4.36996 1.46188 0
M  V30 5523 H 518.748 -3.99623 1.17005 0
M  V30 5524 H 521.345 -5.17386 -1.34965 0
M  V30 5525 H 521.688 -3.61651 -2.06191 0
M  V30 5526 H 522.221 -3.95806 -0.39782 0
M  V30 5527 H 518.96 -6.42326 1.30759 0
M  V30 5528 H 518.48 -5.98785 -0.348722 0
M  V30 5529 H 520.159 -6.47 -0.0011164 0
M  V30 5530 N 520.291 -0.0518155 -1.57515 0
M  V30 5531 C 521.201 0.937539 -2.15052 0
M  V30 5532 C 522.217 1.34121 -1.10849 0
M  V30 5533 O 523.393 1.418 -1.4302 0
M  V30 5534 C 520.458 2.19379 -2.68466 0
M  V30 5535 C 519.519 1.84841 -3.87469 0
M  V30 5536 C 518.752 3.04477 -4.38326 0
M  V30 5537 O 518.975 4.17868 -3.88256 0
M  V30 5538 O 517.909 2.85453 -5.29906 0
M  V30 5539 H 521.735 0.478201 -2.99912 0
M  V30 5540 H 519.32 0.17012 -1.48428 0
M  V30 5541 H 521.202 2.93084 -3.02787 0
M  V30 5542 H 519.877 2.64449 -1.86677 0
M  V30 5543 H 518.784 1.08449 -3.58036 0
M  V30 5544 H 520.117 1.44569 -4.7049 0
M  V30 5545 N 521.769 1.56035 0.221574 0
M  V30 5546 C 522.732 1.91584 1.2581 0
M  V30 5547 C 523.732 0.794425 1.39805 0
M  V30 5548 O 524.922 1.06217 1.38071 0
M  V30 5549 C 522.054 2.16663 2.63192 0
M  V30 5550 H 523.247 2.8429 0.954935 0
M  V30 5551 H 520.8 1.49316 0.461988 0
M  V30 5552 H 521.535 1.26508 2.98607 0
M  V30 5553 H 521.32 2.98358 2.5441 0
M  V30 5554 H 522.81 2.45262 3.37988 0
M  V30 5555 N 523.247 -0.488276 1.49845 0
M  V30 5556 C 524.494 -1.24157 1.59973 0
M  V30 5557 C 524.822 -1.92293 0.292182 0
M  V30 5558 O 524.077 -1.81942 -0.720813 0
M  V30 5559 C 524.376 -2.32152 2.71735 0
M  V30 5560 C 524.042 -1.81387 4.12807 0
M  V30 5561 C 522.704 -1.67262 4.51195 0
M  V30 5562 C 525.056 -1.43537 5.01045 0
M  V30 5563 C 522.384 -1.13685 5.7558 0
M  V30 5564 C 524.736 -0.914081 6.25961 0
M  V30 5565 C 523.4 -0.759327 6.63167 0
M  V30 5566 H 522.67 -0.454322 0.585383 0
M  V30 5567 H 525.317 -0.540261 1.83721 0
M  V30 5568 H 523.622 -3.08122 2.42008 0
M  V30 5569 H 525.319 -2.90164 2.76778 0
M  V30 5570 H 521.909 -1.93344 3.82513 0
M  V30 5571 H 526.093 -1.53292 4.72033 0
M  V30 5572 H 521.349 -1.00426 6.03096 0
M  V30 5573 H 525.523 -0.612066 6.93705 0
M  V30 5574 H 523.15 -0.342002 7.5943 0
M  V30 5575 N 524.725 -1.39134 -0.740242 0
M  V30 5576 C 525.688 -1.37217 -1.83587 0
M  V30 5577 C 526.688 -0.270221 -1.58513 0
M  V30 5578 O 527.878 -0.527843 -1.6601 0
M  V30 5579 C 525.01 -1.13959 -3.21288 0
M  V30 5580 H 526.203 -2.34705 -1.86691 0
M  V30 5581 H 523.756 -1.24622 -0.94335 0
M  V30 5582 H 524.491 -0.17131 -3.23847 0
M  V30 5583 H 524.276 -1.93754 -3.40884 0
M  V30 5584 H 525.766 -1.15346 -4.01354 0
M  V30 5585 N 526.204 0.969867 -1.24223 0
M  V30 5586 C 527.152 2.08535 -1.03034 0
M  V30 5587 C 528.146 1.69366 0.0340379 0
M  V30 5588 O 529.352 1.79597 -0.12034 0
M  V30 5589 H 525.727 0.682313 -0.316154 0
M  V30 5590 H 527.698 2.23569 -1.97635 0
M  V30 5591 C 526.447 3.4158 -0.649509 0
M  V30 5592 H 525.77 3.72177 -1.46028 0
M  V30 5593 H 527.21 4.20536 -0.540841 0
M  V30 5594 C 525.669 3.30703 0.643194 0
M  V30 5595 O 526.199 3.64443 1.68951 0
M  V30 5596 N 524.405 2.83841 0.623095 0
M  V30 5597 H 523.952 2.56583 -0.228719 0
M  V30 5598 H 523.91 2.76946 1.48823 0
M  V30 5599 N 527.682 1.05563 1.17022 0
M  V30 5600 C 528.645 0.664098 2.19368 0
M  V30 5601 C 529.645 -0.286358 1.5823 0
M  V30 5602 O 530.835 -0.069728 1.7406 0
M  V30 5603 C 527.967 -0.0239932 3.40892 0
M  V30 5604 H 529.16 1.57 2.55521 0
M  V30 5605 H 526.713 0.849964 1.31169 0
M  V30 5606 H 527.448 -0.942988 3.10287 0
M  V30 5607 H 527.233 0.659351 3.86516 0
M  V30 5608 H 528.723 -0.283909 4.16634 0
M  V30 5609 N 529.16 -1.33526 0.837174 0
M  V30 5610 C 530.576 -1.50727 0.524743 0
M  V30 5611 C 530.776 -1.77792 -0.948279 0
M  V30 5612 O 529.832 -1.83719 -1.73216 0
M  V30 5613 C 531.145 -2.66299 1.39661 0
M  V30 5614 C 532.693 -2.80183 1.39521 0
M  V30 5615 C 533.168 -3.98815 2.25189 0
M  V30 5616 N 534.659 -4.06047 2.2289 0
M  V30 5617 C 535.394 -4.97032 2.85915 0
M  V30 5618 N 534.89 -5.93143 3.57985 0
M  V30 5619 N 536.683 -4.90015 2.75394 0
M  V30 5620 H 528.834 -1.1422 1.79074 0
M  V30 5621 H 531.097 -0.561399 0.763894 0
M  V30 5622 H 530.803 -2.52974 2.4433 0
M  V30 5623 H 530.677 -3.61663 1.07145 0
M  V30 5624 H 533.064 -2.92942 0.356253 0
M  V30 5625 H 533.145 -1.85586 1.76044 0
M  V30 5626 H 532.789 -3.86817 3.29143 0
M  V30 5627 H 532.719 -4.92654 1.86009 0
M  V30 5628 H 535.21 -3.37262 1.70478 0
M  V30 5629 H 535.523 -6.59227 4.03286 0
M  V30 5630 H 533.868 -5.93223 3.62093 0
M  V30 5631 H 537.059 -4.13894 2.18654 0
M  V30 5632 H 537.232 -5.60724 3.24796 0
M  V30 5633 N 530.638 -0.59345 -1.46 0
M  V30 5634 C 531.886 -0.082988 -2.0193 0
M  V30 5635 C 532.207 1.28569 -1.46612 0
M  V30 5636 O 531.477 1.84629 -0.654909 0
M  V30 5637 H 530.057 -0.0276882 -0.746487 0
M  V30 5638 H 532.719 -0.771657 -1.78973 0
M  V30 5639 H 531.815 -0.022079 -3.12092 0
M  V30 5640 N 532.116 1.54067 -0.331816 0
M  V30 5641 C 533.079 2.23275 0.517768 0
M  V30 5642 C 534.079 1.22897 1.03697 0
M  V30 5643 O 535.269 1.47419 0.928084 0
M  V30 5644 C 532.401 2.94326 1.72004 0
M  V30 5645 H 533.594 2.99773 -0.0873507 0
M  V30 5646 H 531.147 1.56079 -0.0830042 0
M  V30 5647 H 531.882 2.21986 2.36417 0
M  V30 5648 H 531.667 3.67941 1.35507 0
M  V30 5649 H 533.157 3.47031 2.32291 0
M  V30 5650 N 533.594 0.0601682 1.57485 0
M  V30 5651 C 534.557 -0.896373 2.10945 0
M  V30 5652 C 535.557 -1.23402 1.03095 0
M  V30 5653 O 536.747 -1.16921 1.29132 0
M  V30 5654 C 533.879 -2.20346 2.60116 0
M  V30 5655 H 535.072 -0.432778 2.96761 0
M  V30 5656 H 532.625 -0.188372 1.55161 0
M  V30 5657 H 533.36 -2.71268 1.7772 0
M  V30 5658 H 533.145 -1.9714 3.38937 0
M  V30 5659 H 534.635 -2.88846 3.01592 0
M  V30 5660 N 535.072 -1.5615 -0.213296 0
M  V30 5661 C 536.302 -1.83372 -0.951757 0
M  V30 5662 C 536.71 -0.638158 -1.78113 0
M  V30 5663 O 536.053 0.402609 -1.79234 0
M  V30 5664 C 536.115 -3.04444 -1.91192 0
M  V30 5665 C 535.779 -4.39107 -1.26627 0
M  V30 5666 C 536.776 -5.15794 -0.652087 0
M  V30 5667 C 534.461 -4.85834 -1.27556 0
M  V30 5668 C 536.455 -6.37376 -0.055814 0
M  V30 5669 C 534.142 -6.07356 -0.675451 0
M  V30 5670 C 535.14 -6.82967 -0.0666367 0
M  V30 5671 O 534.828 -8.0219 0.524119 0
M  V30 5672 H 534.56 -0.613398 -0.284111 0
M  V30 5673 H 537.114 -2.04096 -0.231112 0
M  V30 5674 H 535.344 -2.79559 -2.67178 0
M  V30 5675 H 537.033 -3.18466 -2.51662 0
M  V30 5676 H 537.799 -4.80796 -0.637172 0
M  V30 5677 H 533.678 -4.26949 -1.73883 0
M  V30 5678 H 537.222 -6.96334 0.420004 0
M  V30 5679 H 533.119 -6.41825 -0.687806 0
M  V30 5680 H 533.887 -8.17426 0.419243 0
M  V30 5681 N 536.55 0.480323 -1.50102 0
M  V30 5682 C 537.46 1.60547 -1.71061 0
M  V30 5683 C 538.476 1.63564 -0.593529 0
M  V30 5684 O 539.652 1.81604 -0.870751 0
M  V30 5685 C 536.717 2.96814 -1.79171 0
M  V30 5686 C 535.778 3.04259 -3.02861 0
M  V30 5687 C 535.011 4.34027 -3.10574 0
M  V30 5688 O 535.234 5.24009 -2.25323 0
M  V30 5689 O 534.168 4.46873 -4.03223 0
M  V30 5690 H 537.994 1.45788 -2.6642 0
M  V30 5691 H 535.579 0.658838 -1.34088 0
M  V30 5692 H 537.461 3.77765 -1.86738 0
M  V30 5693 H 536.136 3.11791 -0.869947 0
M  V30 5694 H 535.043 2.22419 -3.008 0
M  V30 5695 H 536.376 2.94216 -3.94586 0
M  V30 5696 N 538.028 1.39524 0.732853 0
M  V30 5697 C 539.277 1.36175 1.48792 0
M  V30 5698 C 539.59 -0.0388195 1.95561 0
M  V30 5699 O 540.796 -0.194899 2.708 0
M  V30 5700 C 539.252 2.39242 2.68871 0
M  V30 5701 C 538.86 3.85024 2.29042 0
M  V30 5702 C 540.604 2.44972 3.46683 0
M  V30 5703 C 538.511 4.79727 3.45856 0
M  V30 5704 H 537.441 0.506267 0.558757 0
M  V30 5705 H 540.092 1.65181 0.799226 0
M  V30 5706 H 538.474 2.0331 3.39825 0
M  V30 5707 H 539.648 4.30008 1.6562 0
M  V30 5708 H 537.963 3.82609 1.64316 0
M  V30 5709 H 540.56 3.12918 4.33574 0
M  V30 5710 H 540.903 1.4749 3.89297 0
M  V30 5711 H 541.436 2.79808 2.82759 0
M  V30 5712 H 538.175 5.78479 3.08289 0
M  V30 5713 H 537.695 4.39421 4.08251 0
M  V30 5714 H 539.374 4.98731 4.12161 0
M  V30 5715 N 539.506 -0.963266 1.24736 0
M  V30 5716 C 540.753 -1.7068 1.0897 0
M  V30 5717 C 541.081 -1.90934 -0.370751 0
M  V30 5718 O 540.336 -1.47155 -1.29011 0
M  V30 5719 C 540.635 -3.09944 1.7796 0
M  V30 5720 C 540.301 -3.09518 3.27887 0
M  V30 5721 C 538.963 -3.09109 3.68789 0
M  V30 5722 C 541.315 -3.03509 4.23712 0
M  V30 5723 C 538.643 -3.00429 5.03944 0
M  V30 5724 C 540.995 -2.96371 5.5888 0
M  V30 5725 C 539.659 -2.94293 5.99123 0
M  V30 5726 H 538.929 -0.624564 0.398749 0
M  V30 5727 H 541.576 -1.12603 1.54896 0
M  V30 5728 H 539.881 -3.71513 1.2444 0
M  V30 5729 H 541.578 -3.66278 1.63222 0
M  V30 5730 H 538.168 -3.10603 2.95337 0
M  V30 5731 H 542.352 -3.0295 3.93109 0
M  V30 5732 H 537.608 -2.97183 5.34314 0
M  V30 5733 H 541.782 -2.90681 6.32833 0
M  V30 5734 H 539.409 -2.87322 7.03811 0
M  V30 5735 N 540.985 -1.06182 -1.16461 0
M  V30 5736 C 541.932 -0.671613 -2.20812 0
M  V30 5737 C 542.902 0.331186 -1.62765 0
M  V30 5738 O 544.087 0.22033 -1.89524 0
M  V30 5739 C 541.227 -0.063029 -3.45042 0
M  V30 5740 C 540.34 -1.11587 -4.1734 0
M  V30 5741 C 539.475 -0.473546 -5.29085 0
M  V30 5742 C 538.514 -1.51 -5.93182 0
M  V30 5743 N 537.651 -0.891118 -6.96422 0
M  V30 5744 H 542.491 -1.56589 -2.53542 0
M  V30 5745 H 540.028 -0.782951 -1.24532 0
M  V30 5746 H 541.986 0.307344 -4.16066 0
M  V30 5747 H 540.616 0.794663 -3.12866 0
M  V30 5748 H 539.668 -1.60396 -3.44931 0
M  V30 5749 H 540.98 -1.90221 -4.61104 0
M  V30 5750 H 540.134 -0.0501432 -6.06679 0
M  V30 5751 H 538.873 0.344687 -4.8648 0
M  V30 5752 H 537.878 -1.94331 -5.14311 0
M  V30 5753 H 539.103 -2.33031 -6.37866 0
M  V30 5754 H 537.049 -0.0935753 -6.55933 0
M  V30 5755 H 536.966 -1.61486 -7.38551 0
M  V30 5756 H 538.234 -0.492822 -7.77941 0
M  V30 5757 N 542.463 1.3308 -0.844243 0
M  V30 5758 C 543.712 1.96868 -0.438833 0
M  V30 5759 C 544.025 1.67599 1.00846 0
M  V30 5760 O 545.231 2.25043 1.51881 0
M  V30 5761 C 543.687 3.5234 -0.73377 0
M  V30 5762 C 543.295 3.90481 -2.1961 0
M  V30 5763 C 545.039 4.22653 -0.395574 0
M  V30 5764 C 542.946 5.38954 -2.43481 0
M  V30 5765 H 541.876 0.736749 -0.160364 0
M  V30 5766 H 544.527 1.51623 -1.03358 0
M  V30 5767 H 542.909 3.95941 -0.068589 0
M  V30 5768 H 544.083 3.57922 -2.90221 0
M  V30 5769 H 542.398 3.33165 -2.4978 0
M  V30 5770 H 544.995 5.31848 -0.551477 0
M  V30 5771 H 545.338 4.11004 0.661921 0
M  V30 5772 H 545.871 3.84601 -1.01621 0
M  V30 5773 H 542.61 5.55612 -3.47816 0
M  V30 5774 H 542.13 5.72954 -1.77437 0
M  V30 5775 H 543.809 6.05907 -2.26905 0
M  V30 5776 N 543.941 0.601185 1.45683 0
M  V30 5777 C 545.19 0.0914953 2.01492 0
M  V30 5778 C 545.503 -1.28331 1.47616 0
M  V30 5779 O 546.709 -1.88537 1.95362 0
M  V30 5780 C 545.165 0.11291 3.59723 0
M  V30 5781 C 544.773 1.48717 4.22596 0
M  V30 5782 C 546.517 -0.341871 4.23121 0
M  V30 5783 C 544.424 1.46531 5.7296 0
M  V30 5784 H 543.354 0.0304365 0.753385 0
M  V30 5785 H 546.005 0.755568 1.67223 0
M  V30 5786 H 544.387 -0.617692 3.91153 0
M  V30 5787 H 545.561 2.23897 4.02749 0
M  V30 5788 H 543.876 1.88351 3.71366 0
M  V30 5789 H 546.473 -0.377304 5.33367 0
M  V30 5790 H 546.816 -1.36325 3.93346 0
M  V30 5791 H 547.349 0.335256 3.96385 0
M  V30 5792 H 544.088 2.46408 6.07423 0
M  V30 5793 H 543.608 0.755997 5.95017 0
M  V30 5794 H 545.287 1.18618 6.36034 0
M  V30 5795 N 545.419 -1.53889 0.339982 0
M  V30 5796 C 546.696 -1.93084 -0.312719 0
M  V30 5797 C 547.076 -1.2712 -1.68534 0
M  V30 5798 O 546.424 -0.420835 -2.24591 0
M  V30 5799 C 546.634 -3.4683 -0.388558 0
M  V30 5800 C 547.982 -4.19732 -0.641088 0
M  V30 5801 O 549.006 -3.53075 -0.470818 0
M  V30 5802 O 547.865 -5.3781 -0.970685 0
M  V30 5803 H 544.959 -0.806784 -0.18174 0
M  V30 5804 H 547.505 -1.65137 0.390898 0
M  V30 5805 H 546.277 -3.87055 0.574821 0
M  V30 5806 H 545.9 -3.80933 -1.1391 0
M  V30 5807 N 546.897 -0.0685191 -1.57451 0
M  V30 5808 C 547.845 0.917577 -2.13736 0
M  V30 5809 C 548.839 1.31049 -1.07344 0
M  V30 5810 O 550.045 1.28811 -1.25728 0
M  V30 5811 H 546.42 0.313835 -0.683382 0
M  V30 5812 H 548.391 0.417903 -2.95459 0
M  V30 5813 C 547.14 2.17686 -2.71123 0
M  V30 5814 H 546.463 1.88336 -3.52661 0
M  V30 5815 H 547.903 2.84803 -3.14107 0
M  V30 5816 C 546.362 2.9332 -1.65726 0
M  V30 5817 O 546.892 3.86901 -1.08031 0
M  V30 5818 N 545.098 2.56367 -1.36837 0
M  V30 5819 H 544.645 1.80341 -1.83943 0
M  V30 5820 H 544.603 3.07276 -0.665501 0
M  V30 5821 N 548.375 1.56261 0.205012 0
M  V30 5822 C 549.322 1.93754 1.25411 0
M  V30 5823 C 550.292 0.796826 1.45739 0
M  V30 5824 O 551.477 1.05414 1.59036 0
M  V30 5825 C 548.617 2.27383 2.59598 0
M  V30 5826 C 547.73 3.5447 2.46931 0
M  V30 5827 C 546.865 3.77468 3.73753 0
M  V30 5828 C 545.904 4.98014 3.55877 0
M  V30 5829 N 545.041 5.17316 4.74688 0
M  V30 5830 H 549.881 2.83203 0.92737 0
M  V30 5831 H 547.418 1.40158 0.446574 0
M  V30 5832 H 549.376 2.44895 3.37761 0
M  V30 5833 H 548.006 1.41088 2.90335 0
M  V30 5834 H 547.058 3.45061 1.60116 0
M  V30 5835 H 548.37 4.42789 2.29651 0
M  V30 5836 H 547.524 3.95165 4.60358 0
M  V30 5837 H 546.263 2.87461 3.93976 0
M  V30 5838 H 545.268 4.80249 2.67657 0
M  V30 5839 H 546.493 5.8952 3.37109 0
M  V30 5840 H 544.439 4.30255 4.95194 0
M  V30 5841 H 544.356 5.99796 4.60197 0
M  V30 5842 H 545.624 5.39463 5.62672 0
M  V30 5843 N 549.853 -0.472356 1.50355 0
M  V30 5844 C 551.264 -1.05326 1.54154 0
M  V30 5845 C 551.615 -1.93155 0.344303 0
M  V30 5846 O 550.74 -2.09479 -0.542928 0
M  V30 5847 C 551.335 -1.91691 2.79356 0
M  V30 5848 C 549.894 -2.44892 2.8584 0
M  V30 5849 C 549.041 -1.23205 2.48426 0
M  V30 5850 H 551.992 -0.255027 1.56637 0
M  V30 5851 H 552.013 -2.76742 2.6114 0
M  V30 5852 H 551.525 -1.27741 3.66475 0
M  V30 5853 H 549.626 -3.12399 2.0307 0
M  V30 5854 H 549.739 -2.80086 3.88701 0
M  V30 5855 H 548.103 -1.56643 2.00836 0
M  V30 5856 H 548.886 -0.609194 3.37852 0
M  V30 5857 N 551.331 -1.39911 -0.725443 0
M  V30 5858 C 552.556 -1.41137 -1.5197 0
M  V30 5859 C 552.981 -0.010262 -1.88097 0
M  V30 5860 O 552.339 0.979184 -1.52583 0
M  V30 5861 C 552.387 -2.2994 -2.77777 0
M  V30 5862 O 551.491 -1.73586 -3.74088 0
M  V30 5863 H 550.832 -0.480219 -0.458569 0
M  V30 5864 H 553.362 -1.84023 -0.894249 0
M  V30 5865 H 553.372 -2.44785 -3.26411 0
M  V30 5866 H 552.047 -3.31759 -2.50816 0
M  V30 5867 H 550.624 -1.68035 -3.32894 0
M  V30 5868 N 552.809 0.956637 -1.25245 0
M  V30 5869 C 554.058 1.69537 -1.0927 0
M  V30 5870 C 554.371 1.92136 0.366503 0
M  V30 5871 O 555.577 2.63687 0.64665 0
M  V30 5872 C 554.033 3.05211 -1.9072 0
M  V30 5873 C 553.641 2.90416 -3.41119 0
M  V30 5874 C 555.385 3.82882 -1.83308 0
M  V30 5875 C 553.292 4.21468 -4.14872 0
M  V30 5876 H 552.222 0.635804 -0.405302 0
M  V30 5877 H 554.873 1.06513 -1.49423 0
M  V30 5878 H 553.255 3.69128 -1.43389 0
M  V30 5879 H 554.429 2.35444 -3.9611 0
M  V30 5880 H 552.744 2.26203 -3.49602 0
M  V30 5881 H 555.341 4.79944 -2.35706 0
M  V30 5882 H 555.684 4.0853 -0.800572 0
M  V30 5883 H 556.217 3.25711 -2.28379 0
M  V30 5884 H 552.956 4.01009 -5.18529 0
M  V30 5885 H 552.476 4.76213 -3.64665 0
M  V30 5886 H 554.155 4.90022 -4.22478 0
M  V30 5887 N 554.287 1.06798 1.15896 0
M  V30 5888 C 555.564 0.701057 1.82605 0
M  V30 5889 C 555.944 -0.817066 1.94646 0
M  V30 5890 O 555.292 -1.72933 1.49353 0
M  V30 5891 C 555.502 1.40895 3.19296 0
M  V30 5892 C 556.85 1.55744 3.95005 0
M  V30 5893 O 557.874 1.36927 3.28831 0
M  V30 5894 O 556.733 1.86658 5.13635 0
M  V30 5895 H 553.827 0.248791 0.78869 0
M  V30 5896 H 556.373 1.16857 1.23055 0
M  V30 5897 H 555.145 2.4439 3.05596 0
M  V30 5898 H 554.768 0.931847 3.86526 0
M  V30 5899 N 555.766 -1.3263 0.851289 0
M  V30 5900 C 556.991 -2.02097 0.466006 0
M  V30 5901 C 557.416 -1.63574 -0.928709 0
M  V30 5902 O 556.774 -0.834665 -1.60944 0
M  V30 5903 C 556.822 -3.55425 0.608737 0
M  V30 5904 O 555.926 -4.10827 -0.359878 0
M  V30 5905 H 555.267 -0.636911 0.187724 0
M  V30 5906 H 557.797 -1.69253 1.14955 0
M  V30 5907 H 557.807 -4.04986 0.495006 0
M  V30 5908 H 556.482 -3.82806 1.62581 0
M  V30 5909 H 555.059 -3.72349 -0.202666 0
M  V30 5910 N 557.244 -0.608902 -1.45362 0
M  V30 5911 C 558.474 -0.110852 -2.06302 0
M  V30 5912 C 558.882 1.21062 -1.45398 0
M  V30 5913 O 558.225 1.74861 -0.562976 0
M  V30 5914 C 558.287 0.101793 -3.59356 0
M  V30 5915 C 557.951 -1.13808 -4.42602 0
M  V30 5916 C 558.948 -2.05653 -4.77496 0
M  V30 5917 C 556.633 -1.36727 -4.83333 0
M  V30 5918 C 558.627 -3.18745 -5.51978 0
M  V30 5919 C 556.314 -2.5012 -5.57569 0
M  V30 5920 C 557.312 -3.40957 -5.91809 0
M  V30 5921 O 557 -4.52376 -6.64538 0
M  V30 5922 H 556.732 -0.0666001 -0.672711 0
M  V30 5923 H 559.286 -0.836942 -1.87575 0
M  V30 5924 H 557.516 0.88279 -3.76489 0
M  V30 5925 H 559.205 0.551607 -4.02134 0
M  V30 5926 H 559.971 -1.89172 -4.46586 0
M  V30 5927 H 555.85 -0.669216 -4.56117 0
M  V30 5928 H 559.394 -3.8967 -5.78622 0
M  V30 5929 H 555.291 -2.66553 -5.87894 0
M  V30 5930 H 556.059 -4.51075 -6.82989 0
M  V30 5931 N 558.722 1.53707 -0.348139 0
M  V30 5932 C 559.947 2.05877 0.250883 0
M  V30 5933 C 560.372 1.22115 1.43072 0
M  V30 5934 O 559.73 0.235986 1.79758 0
M  V30 5935 C 559.778 3.54886 0.639416 0
M  V30 5936 O 558.882 3.73948 1.73888 0
M  V30 5937 H 558.223 0.662754 0.040653 0
M  V30 5938 H 560.753 1.98303 -0.503685 0
M  V30 5939 H 560.763 3.97601 0.915295 0
M  V30 5940 H 559.438 4.153 -0.223386 0
M  V30 5941 H 558.015 3.43134 1.45991 0
M  V30 5942 N 560.2 0.0768682 1.57412 0
M  V30 5943 C 561.147 -0.888577 2.13009 0
M  V30 5944 C 562.117 -1.29198 1.0439 0
M  V30 5945 O 563.302 -1.37694 1.3208 0
M  V30 5946 C 560.442 -2.14899 2.70023 0
M  V30 5947 C 559.555 -1.79777 3.92816 0
M  V30 5948 C 558.69 -3.00467 4.38056 0
M  V30 5949 C 557.729 -2.61385 5.53484 0
M  V30 5950 N 556.866 -3.74851 5.93659 0
M  V30 5951 H 561.706 -0.407593 2.95199 0
M  V30 5952 H 559.243 -0.189534 1.45874 0
M  V30 5953 H 561.201 -2.88688 3.0119 0
M  V30 5954 H 559.831 -2.60529 1.9059 0
M  V30 5955 H 558.883 -0.960301 3.68079 0
M  V30 5956 H 560.195 -1.47027 4.76639 0
M  V30 5957 H 559.349 -3.82529 4.7091 0
M  V30 5958 H 558.088 -3.36413 3.53097 0
M  V30 5959 H 557.093 -1.77746 5.20275 0
M  V30 5960 H 558.318 -2.26603 6.40178 0
M  V30 5961 H 556.264 -4.1055 5.11649 0
M  V30 5962 H 556.181 -3.45887 6.72234 0
M  V30 5963 H 557.449 -4.57477 6.31138 0
M  V30 5964 N 561.678 -1.56367 -0.196722 0
M  V30 5965 C 562.903 -1.84991 -0.937714 0
M  V30 5966 C 563.328 -0.660244 -1.76132 0
M  V30 5967 O 562.686 0.390967 -1.77034 0
M  V30 5968 C 562.734 -3.11828 -1.81096 0
M  V30 5969 O 561.838 -2.92266 -2.90955 0
M  V30 5970 H 561.179 -0.609193 -0.264159 0
M  V30 5971 H 563.709 -2.03595 -0.202529 0
M  V30 5972 H 563.719 -3.42579 -2.21594 0
M  V30 5973 H 562.394 -3.98037 -1.2058 0
M  V30 5974 H 560.971 -2.72809 -2.54224 0
M  V30 5975 N 563.156 0.464375 -1.50603 0
M  V30 5976 C 564.404 1.21356 -1.61608 0
M  V30 5977 C 564.725 1.92329 -0.321643 0
M  V30 5978 O 563.995 1.84403 0.661232 0
M  V30 5979 H 562.575 0.45094 -0.595535 0
M  V30 5980 H 565.237 0.535046 -1.87412 0
M  V30 5981 H 564.333 1.95783 -2.43054 0
M  V30 5982 N 564.634 1.40294 0.718013 0
M  V30 5983 C 565.584 1.36847 1.82365 0
M  V30 5984 C 566.568 0.246424 1.59002 0
M  V30 5985 O 567.76 0.485336 1.70216 0
M  V30 5986 C 564.889 1.23105 3.20469 0
M  V30 5987 C 563.975 2.4008 3.49603 0
M  V30 5988 N 564.366 3.65562 3.49568 0
M  V30 5989 C 562.664 2.33407 3.80049 0
M  V30 5990 C 563.365 4.43015 3.76978 0
M  V30 5991 N 562.341 3.72823 3.95606 0
M  V30 5992 H 566.143 2.31811 1.80668 0
M  V30 5993 H 563.657 1.34031 0.91703 0
M  V30 5994 H 565.654 1.18718 3.9964 0
M  V30 5995 H 564.314 0.291056 3.23393 0
M  V30 5996 H 565.325 3.98756 3.30476 0
M  V30 5997 H 562.002 1.47762 3.90478 0
M  V30 5998 H 563.392 5.51859 3.83276 0
M  V30 5999 N 566.112 -0.949982 1.2575 0
M  V30 6000 C 567.059 -2.04738 1.06541 0
M  V30 6001 C 568.029 -1.66078 -0.0268818 0
M  V30 6002 O 569.214 -1.90348 0.131196 0
M  V30 6003 C 566.354 -3.38027 0.695127 0
M  V30 6004 C 565.467 -3.89776 1.86276 0
M  V30 6005 C 564.602 -5.11411 1.4364 0
M  V30 6006 C 563.641 -5.554 2.57287 0
M  V30 6007 N 562.778 -6.68244 2.15395 0
M  V30 6008 H 567.618 -2.20502 2.00457 0
M  V30 6009 H 565.155 -1.0805 0.998178 0
M  V30 6010 H 567.113 -4.14641 0.461375 0
M  V30 6011 H 565.743 -3.22135 -0.207046 0
M  V30 6012 H 564.795 -3.0964 2.20969 0
M  V30 6013 H 566.107 -4.18368 2.71606 0
M  V30 6014 H 565.261 -5.95457 1.16257 0
M  V30 6015 H 564 -4.84545 0.553879 0
M  V30 6016 H 563.005 -4.69916 2.85409 0
M  V30 6017 H 564.23 -5.84272 3.46125 0
M  V30 6018 H 562.176 -6.43078 1.29565 0
M  V30 6019 H 562.093 -6.96377 2.94272 0
M  V30 6020 H 563.361 -7.55687 1.91201 0
M  V30 6021 N 567.59 -1.07411 -1.15328 0
M  V30 6022 C 569.001 -0.820261 -1.67716 0
M  V30 6023 C 569.352 0.654539 -1.8496 0
M  V30 6024 O 568.477 1.50664 -1.55337 0
M  V30 6025 C 569.072 -1.48242 -3.04647 0
M  V30 6026 C 567.631 -1.27606 -3.5411 0
M  V30 6027 C 566.778 -1.5517 -2.29821 0
M  V30 6028 H 569.729 -1.23608 -0.995332 0
M  V30 6029 H 569.75 -0.903984 -3.69606 0
M  V30 6030 H 569.262 -2.55578 -2.92064 0
M  V30 6031 H 567.363 -0.222948 -3.71932 0
M  V30 6032 H 567.476 -1.99667 -4.35511 0
M  V30 6033 H 565.84 -0.972747 -2.35393 0
M  V30 6034 H 566.623 -2.63689 -2.19824 0
M  V30 6035 N 569.068 1.32177 -0.85831 0
M  V30 6036 C 570.345 1.91781 -0.384624 0
M  V30 6037 C 570.725 1.78171 1.13217 0
M  V30 6038 O 570.073 1.18209 1.95548 0
M  V30 6039 C 570.283 3.38414 -0.853047 0
M  V30 6040 C 571.631 4.15542 -0.872359 0
M  V30 6041 O 572.655 3.47148 -0.797926 0
M  V30 6042 O 571.514 5.37678 -0.978009 0
M  V30 6043 H 568.608 0.819259 -0.112886 0
M  V30 6044 H 571.154 1.40923 -0.945453 0
M  V30 6045 H 569.926 3.4228 -1.89632 0
M  V30 6046 H 569.549 3.96683 -0.269874 0
M  V30 6047 N 570.547 0.616602 1.45037 0
M  V30 6048 C 571.495 -0.109318 2.32343 0
M  V30 6049 C 572.489 -0.850543 1.465 0
M  V30 6050 O 573.695 -0.765088 1.62931 0
M  V30 6051 H 570.07 -0.0541091 0.750051 0
M  V30 6052 H 572.041 0.645326 2.91338 0
M  V30 6053 C 570.79 -1.0872 3.30266 0
M  V30 6054 H 570.113 -0.526267 3.96321 0
M  V30 6055 H 571.553 -1.56489 3.94065 0
M  V30 6056 C 570.012 -2.16525 2.58105 0
M  V30 6057 O 570.542 -3.244 2.36913 0
M  V30 6058 N 568.748 -1.92057 2.18088 0
M  V30 6059 H 568.295 -1.04337 2.35524 0
M  V30 6060 H 568.253 -2.64391 1.70131 0
M  V30 6061 N 572.025 -1.5352 0.356285 0
M  V30 6062 C 573.274 -2.00298 -0.237373 0
M  V30 6063 C 573.587 -1.24784 -1.50627 0
M  V30 6064 O 574.793 -1.62103 -2.17795 0
M  V30 6065 C 573.249 -3.56771 -0.473545 0
M  V30 6066 C 572.857 -4.41154 0.780183 0
M  V30 6067 C 574.601 -4.1193 -1.02537 0
M  V30 6068 C 572.508 -5.89161 0.514108 0
M  V30 6069 H 571.438 -0.748307 -0.092478 0
M  V30 6070 H 574.089 -1.77283 0.473588 0
M  V30 6071 H 572.471 -3.75902 -1.24553 0
M  V30 6072 H 573.645 -4.33797 1.55425 0
M  V30 6073 H 571.96 -3.97052 1.25455 0
M  V30 6074 H 574.557 -5.20133 -1.2396 0
M  V30 6075 H 574.9 -3.65943 -1.98473 0
M  V30 6076 H 575.433 -3.96561 -0.313775 0
M  V30 6077 H 572.172 -6.39408 1.44355 0
M  V30 6078 H 571.692 -5.9939 -0.221632 0
M  V30 6079 H 573.371 -6.46857 0.136122 0
M  V30 6080 N 573.503 -0.0852151 -1.57369 0
M  V30 6081 C 574.45 0.877268 -2.13478 0
M  V30 6082 C 575.42 1.28642 -1.05073 0
M  V30 6083 O 576.605 1.36992 -1.32808 0
M  V30 6084 C 573.745 2.13464 -2.71159 0
M  V30 6085 C 572.858 1.77691 -3.93764 0
M  V30 6086 C 571.993 2.98139 -4.39643 0
M  V30 6087 C 571.032 2.58447 -5.54862 0
M  V30 6088 N 570.169 3.71698 -5.95639 0
M  V30 6089 H 575.009 0.391933 -2.95411 0
M  V30 6090 H 572.546 0.181796 -1.45972 0
M  V30 6091 H 574.504 2.87086 -3.02717 0
M  V30 6092 H 573.134 2.59514 -1.91969 0
M  V30 6093 H 572.186 0.940768 -3.68583 0
M  V30 6094 H 573.498 1.44497 -4.77412 0
M  V30 6095 H 572.652 3.80026 -4.72933 0
M  V30 6096 H 571.391 3.34536 -3.54876 0
M  V30 6097 H 570.396 1.74984 -5.21211 0
M  V30 6098 H 571.621 2.23205 -6.41371 0
M  V30 6099 H 569.567 4.07831 -5.13819 0
M  V30 6100 H 569.484 3.42317 -6.74059 0
M  V30 6101 H 570.752 4.54123 -6.33555 0
M  V30 6102 N 574.981 1.5647 0.188427 0
M  V30 6103 C 576.229 1.80655 0.905986 0
M  V30 6104 C 576.55 0.659391 1.83513 0
M  V30 6105 O 575.82 -0.321868 1.93238 0
M  V30 6106 H 574.4 0.666391 0.337538 0
M  V30 6107 H 577.062 1.93949 0.192339 0
M  V30 6108 H 576.158 2.74066 1.49313 0
M  V30 6109 N 576.459 -0.456382 1.50847 0
M  V30 6110 C 577.407 -1.57318 1.71329 0
M  V30 6111 C 578.401 -1.59187 0.579287 0
M  V30 6112 O 579.607 -1.6316 0.76018 0
M  V30 6113 H 575.982 -0.5223 0.541024 0
M  V30 6114 H 577.953 -1.3721 2.64983 0
M  V30 6115 C 576.702 -2.95142 1.83811 0
M  V30 6116 H 576.025 -2.94428 2.70467 0
M  V30 6117 H 577.465 -3.72702 2.02161 0
M  V30 6118 C 575.924 -3.31636 0.593224 0
M  V30 6119 O 576.454 -4.00852 -0.260898 0
M  V30 6120 N 574.66 -2.87205 0.442902 0
M  V30 6121 H 574.207 -2.31051 1.13901 0
M  V30 6122 H 574.165 -3.11986 -0.38884 0
M  V30 6123 N 577.937 -1.40673 -0.710563 0
M  V30 6124 C 578.867 -1.44095 -1.83736 0
M  V30 6125 C 579.848 -0.301286 -1.67411 0
M  V30 6126 O 581.033 -0.510618 -1.87367 0
M  V30 6127 C 578.163 -1.30773 -3.21738 0
M  V30 6128 C 577.117 -2.42395 -3.52745 0
M  V30 6129 C 576.443 -2.14147 -4.89944 0
M  V30 6130 C 577.743 -3.84738 -3.53234 0
M  V30 6131 H 579.437 -2.38396 -1.81129 0
M  V30 6132 H 576.983 -1.14746 -0.870017 0
M  V30 6133 H 578.936 -1.31783 -4.00264 0
M  V30 6134 H 577.66 -0.329507 -3.24934 0
M  V30 6135 H 576.319 -2.40643 -2.76562 0
M  V30 6136 H 575.967 -1.14703 -4.89747 0
M  V30 6137 H 575.667 -2.88934 -5.11655 0
M  V30 6138 H 577.191 -2.16848 -5.70797 0
M  V30 6139 H 578.605 -3.88286 -4.2179 0
M  V30 6140 H 577.002 -4.59085 -3.86473 0
M  V30 6141 H 578.072 -4.13962 -2.52514 0
M  V30 6142 N 579.415 0.9433 -1.26252 0
M  V30 6143 C 580.325 2.07532 -1.09397 0
M  V30 6144 C 581.341 1.73977 -0.0280449 0
M  V30 6145 O 582.517 2.00067 -0.231337 0
M  V30 6146 C 579.582 3.39002 -0.726523 0
M  V30 6147 C 578.643 3.86353 -1.87163 0
M  V30 6148 C 577.876 5.11549 -1.52162 0
M  V30 6149 O 578.099 5.68834 -0.422385 0
M  V30 6150 O 577.033 5.53889 -2.35565 0
M  V30 6151 H 580.859 2.24658 -2.04359 0
M  V30 6152 H 578.444 1.05988 -1.05295 0
M  V30 6153 H 580.326 4.18 -0.534236 0
M  V30 6154 H 579.001 3.2312 0.193721 0
M  V30 6155 H 577.908 3.0831 -2.11886 0
M  V30 6156 H 579.241 4.06752 -2.77152 0
M  V30 6157 N 580.893 1.08022 1.14757 0
M  V30 6158 C 582.14 0.807509 1.85703 0
M  V30 6159 C 582.468 -0.666617 1.8272 0
M  V30 6160 O 581.723 -1.50562 1.25018 0
M  V30 6161 C 582.022 1.26964 3.34088 0
M  V30 6162 C 581.688 2.7509 3.57262 0
M  V30 6163 C 580.35 3.15547 3.63296 0
M  V30 6164 C 582.702 3.70667 3.66409 0
M  V30 6165 C 580.03 4.50384 3.75994 0
M  V30 6166 C 582.382 5.05274 3.80632 0
M  V30 6167 C 581.046 5.45342 3.84913 0
M  V30 6168 H 580.316 0.295488 0.679535 0
M  V30 6169 H 582.963 1.35245 1.35577 0
M  V30 6170 H 581.268 0.644216 3.86467 0
M  V30 6171 H 582.965 1.03544 3.87401 0
M  V30 6172 H 579.555 2.42775 3.53212 0
M  V30 6173 H 583.739 3.40533 3.61041 0
M  V30 6174 H 578.995 4.80886 3.77569 0
M  V30 6175 H 583.169 5.79201 3.86652 0
M  V30 6176 H 580.796 6.49823 3.94505 0
M  V30 6177 N 582.371 -1.3172 0.865308 0
M  V30 6178 C 583.787 -1.4958 0.556596 0
M  V30 6179 C 583.987 -1.79763 -0.910353 0
M  V30 6180 O 583.043 -1.87351 -1.6928 0
M  V30 6181 C 584.356 -2.63277 1.45279 0
M  V30 6182 C 585.904 -2.77161 1.45433 0
M  V30 6183 C 586.379 -3.93949 2.33598 0
M  V30 6184 N 587.87 -4.01228 2.31453 0
M  V30 6185 C 588.605 -4.90855 2.96393 0
M  V30 6186 N 588.101 -5.85416 3.70486 0
M  V30 6187 N 589.894 -4.84063 2.85726 0
M  V30 6188 H 582.045 -1.10396 1.81456 0
M  V30 6189 H 584.308 -0.54507 0.775631 0
M  V30 6190 H 584.014 -2.47734 2.49641 0
M  V30 6191 H 583.888 -3.59309 1.14792 0
M  V30 6192 H 586.275 -2.9212 0.41831 0
M  V30 6193 H 586.356 -1.8181 1.79941 0
M  V30 6194 H 586 -3.79748 3.37274 0
M  V30 6195 H 585.93 -4.88598 1.96417 0
M  V30 6196 H 588.421 -3.3357 1.77593 0
M  V30 6197 H 588.734 -6.50525 4.17178 0
M  V30 6198 H 587.079 -5.85409 3.74594 0
M  V30 6199 H 590.27 -4.09163 2.27384 0
M  V30 6200 H 590.443 -5.53708 3.36617 0
M  V30 6201 N 583.85 -0.624285 -1.44708 0
M  V30 6202 C 584.798 0.0969952 -2.32398 0
M  V30 6203 C 585.792 0.842762 -1.46949 0
M  V30 6204 O 586.998 0.756436 -1.63334 0
M  V30 6205 H 583.373 0.0501306 -0.750327 0
M  V30 6206 H 585.344 -0.660767 -2.90992 0
M  V30 6207 C 584.093 1.06967 -3.30837 0
M  V30 6208 H 583.416 0.505242 -3.96595 0
M  V30 6209 H 584.856 1.54397 -3.94889 0
M  V30 6210 C 583.315 2.15153 -2.5925 0
M  V30 6211 O 583.845 3.23139 -2.3863 0
M  V30 6212 N 582.051 1.90898 -2.19103 0
M  V30 6213 H 581.598 1.03086 -2.36074 0
M  V30 6214 H 581.556 2.63485 -1.71531 0
M  V30 6215 N 585.328 1.53329 -0.364422 0
M  V30 6216 C 586.574 2.01537 0.225969 0
M  V30 6217 C 586.907 1.25128 1.48515 0
M  V30 6218 O 586.182 0.344653 1.91422 0
M  V30 6219 C 586.465 3.56339 0.519092 0
M  V30 6220 C 586.318 4.43441 -0.753639 0
M  V30 6221 C 587.637 4.19833 1.32015 0
M  V30 6222 H 584.756 0.732573 0.0806548 0
M  V30 6223 H 587.398 1.83597 -0.489084 0
M  V30 6224 H 585.548 3.71756 1.12825 0
M  V30 6225 H 587.22 4.39823 -1.39116 0
M  V30 6226 H 585.463 4.11457 -1.37424 0
M  V30 6227 H 586.134 5.49699 -0.503517 0
M  V30 6228 H 588.61 4.08242 0.804859 0
M  V30 6229 H 587.486 5.28177 1.49399 0
M  V30 6230 H 587.747 3.75821 2.32832 0
M  V30 6231 N 586.806 0.0935595 1.57322 0
M  V30 6232 C 587.756 -0.876521 2.10478 0
M  V30 6233 C 588.74 -1.24482 1.01946 0
M  V30 6234 O 589.932 -1.22016 1.28223 0
M  V30 6235 C 587.061 -2.13615 2.68745 0
M  V30 6236 C 586.147 -1.79335 3.84317 0
M  V30 6237 N 586.538 -1.15606 4.92411 0
M  V30 6238 C 584.836 -2.08954 3.94023 0
M  V30 6239 C 585.537 -0.999036 5.73057 0
M  V30 6240 N 584.513 -1.51585 5.22037 0
M  V30 6241 H 588.315 -0.379829 2.91435 0
M  V30 6242 H 585.829 -0.109699 1.62029 0
M  V30 6243 H 587.826 -2.84053 3.05155 0
M  V30 6244 H 586.486 -2.63851 1.89242 0
M  V30 6245 H 587.497 -0.823063 5.11318 0
M  V30 6246 H 584.174 -2.61416 3.25527 0
M  V30 6247 H 585.564 -0.500772 6.70031 0
M  V30 6248 N 588.284 -1.56567 -0.180126 0
M  V30 6249 C 589.531 -1.81492 -0.898167 0
M  V30 6250 C 589.859 -0.669225 -1.82624 0
M  V30 6251 O 589.114 0.344096 -1.92651 0
M  V30 6252 C 589.413 -3.1252 -1.73395 0
M  V30 6253 C 589.079 -4.40658 -0.955567 0
M  V30 6254 C 587.741 -4.75465 -0.740707 0
M  V30 6255 C 590.093 -5.19593 -0.408948 0
M  V30 6256 C 587.421 -5.86691 0.0320128 0
M  V30 6257 C 589.773 -6.31627 0.350638 0
M  V30 6258 C 588.437 -6.65007 0.576378 0
M  V30 6259 H 587.707 -0.664125 -0.328662 0
M  V30 6260 H 590.354 -1.908 -0.163616 0
M  V30 6261 H 588.659 -2.98515 -2.53763 0
M  V30 6262 H 590.356 -3.29013 -2.29241 0
M  V30 6263 H 586.946 -4.13352 -1.13306 0
M  V30 6264 H 591.13 -4.93104 -0.562307 0
M  V30 6265 H 586.386 -6.11016 0.216735 0
M  V30 6266 H 590.56 -6.92001 0.781497 0
M  V30 6267 H 588.187 -7.51033 1.17703 0
M  V30 6268 N 589.762 0.448376 -1.51087 0
M  V30 6269 C 590.987 1.22605 -1.6728 0
M  V30 6270 C 591.412 1.84524 -0.365045 0
M  V30 6271 O 590.77 1.6832 0.673642 0
M  V30 6272 C 590.818 2.29393 -2.78229 0
M  V30 6273 O 589.922 3.34608 -2.41063 0
M  V30 6274 H 589.263 0.359705 -0.558129 0
M  V30 6275 H 591.793 0.530903 -1.97592 0
M  V30 6276 H 591.803 2.74352 -3.01986 0
M  V30 6277 H 590.478 1.83701 -3.73131 0
M  V30 6278 H 589.055 2.95202 -2.27838 0
M  V30 6279 N 591.24 1.41047 0.703093 0
M  V30 6280 C 592.47 1.43133 1.48985 0
M  V30 6281 C 592.878 0.0328537 1.89171 0
M  V30 6282 O 592.221 -0.956469 1.56835 0
M  V30 6283 C 592.283 2.26991 2.78775 0
M  V30 6284 C 591.947 3.7525 2.60837 0
M  V30 6285 C 592.944 4.67591 2.27276 0
M  V30 6286 C 590.629 4.19208 2.76712 0
M  V30 6287 C 592.623 6.01877 2.09817 0
M  V30 6288 C 590.31 5.53561 2.5887 0
M  V30 6289 C 591.308 6.4471 2.25472 0
M  V30 6290 O 590.996 7.76584 2.07778 0
M  V30 6291 H 590.728 0.489788 0.465922 0
M  V30 6292 H 593.282 1.85886 0.873822 0
M  V30 6293 H 591.512 1.79038 3.42757 0
M  V30 6294 H 593.201 2.20867 3.40547 0
M  V30 6295 H 593.967 4.34923 2.14633 0
M  V30 6296 H 589.846 3.48572 3.01693 0
M  V30 6297 H 593.39 6.72986 1.83671 0
M  V30 6298 H 589.287 5.85811 2.71102 0
M  V30 6299 H 590.055 7.87649 2.22601 0
M  V30 6300 N 592.718 -0.936591 1.26751 0
M  V30 6301 C 594.129 -1.49816 1.1141 0
M  V30 6302 C 594.48 -1.9383 -0.304015 0
M  V30 6303 O 593.605 -1.80346 -1.196 0
M  V30 6304 C 594.2 -2.72271 2.01629 0
M  V30 6305 C 592.759 -3.2468 1.9042 0
M  V30 6306 C 591.906 -1.97444 1.94708 0
M  V30 6307 H 594.857 -0.751604 1.39773 0
M  V30 6308 H 594.878 -3.46741 1.56688 0
M  V30 6309 H 594.39 -2.40205 3.04833 0
M  V30 6310 H 592.491 -3.61525 0.901674 0
M  V30 6311 H 592.604 -3.91476 2.76195 0
M  V30 6312 H 590.968 -2.13545 1.38818 0
M  V30 6313 H 591.751 -1.67703 2.9955 0
M  V30 6314 N 594.196 -1.08629 -1.14182 0
M  V30 6315 C 595.421 -0.83902 -1.89671 0
M  V30 6316 C 595.846 0.603332 -1.78161 0
M  V30 6317 O 595.204 1.42301 -1.12339 0
M  V30 6318 C 595.252 -1.26854 -3.37551 0
M  V30 6319 O 594.356 -0.42188 -4.10236 0
M  V30 6320 H 593.697 -0.304545 -0.590041 0
M  V30 6321 H 596.227 -1.4483 -1.44518 0
M  V30 6322 H 596.237 -1.25038 -3.88368 0
M  V30 6323 H 594.912 -2.31901 -3.45246 0
M  V30 6324 H 593.489 -0.503654 -3.69483 0
M  V30 6325 N 595.674 1.31259 -0.872281 0
M  V30 6326 C 597.09 1.49283 -0.564521 0
M  V30 6327 C 597.29 1.80243 0.900807 0
M  V30 6328 O 596.346 1.88246 1.68284 0
M  V30 6329 C 597.659 2.62503 -1.46673 0
M  V30 6330 C 599.207 2.76386 -1.46901 0
M  V30 6331 C 599.682 3.92705 -2.35684 0
M  V30 6332 N 601.173 3.99995 -2.33577 0
M  V30 6333 C 601.908 4.89276 -2.98992 0
M  V30 6334 N 601.404 5.83443 -3.73585 0
M  V30 6335 N 603.197 4.82541 -2.88289 0
M  V30 6336 H 595.348 1.09432 -1.82039 0
M  V30 6337 H 597.611 0.540949 -0.77851 0
M  V30 6338 H 597.317 2.46407 -2.50951 0
M  V30 6339 H 597.191 3.58695 -1.16696 0
M  V30 6340 H 599.578 2.91894 -0.433796 0
M  V30 6341 H 599.659 1.80853 -1.80903 0
M  V30 6342 H 599.303 3.77954 -3.39283 0
M  V30 6343 H 599.233 4.87549 -1.99006 0
M  V30 6344 H 601.724 3.32624 -1.7936 0
M  V30 6345 H 602.037 6.48303 -4.20622 0
M  V30 6346 H 600.382 5.83415 -3.77694 0
M  V30 6347 H 603.573 4.07951 -2.2955 0
M  V30 6348 H 603.746 5.51916 -3.39549 0
M  V30 6349 N 597.152 0.631951 1.44375 0
M  V30 6350 C 598.099 -0.0724807 2.30686 0
M  V30 6351 C 599.069 -0.835975 1.43529 0
M  V30 6352 O 600.254 -0.816849 1.7243 0
M  V30 6353 C 597.394 -1.04753 3.28817 0
M  V30 6354 C 596.507 -0.282367 4.31076 0
M  V30 6355 C 595.642 -1.2493 5.163 0
M  V30 6356 C 594.681 -0.473349 6.10267 0
M  V30 6357 N 593.818 -1.39079 6.88187 0
M  V30 6358 H 598.658 0.669477 2.90383 0
M  V30 6359 H 596.195 0.341927 1.43071 0
M  V30 6360 H 598.153 -1.62623 3.842 0
M  V30 6361 H 596.783 -1.75661 2.70819 0
M  V30 6362 H 595.835 0.412268 3.78159 0
M  V30 6363 H 597.147 0.321955 4.9776 0
M  V30 6364 H 596.301 -1.89931 5.76204 0
M  V30 6365 H 595.04 -1.88755 4.49692 0
M  V30 6366 H 594.045 0.190142 5.49471 0
M  V30 6367 H 595.27 0.16019 6.78911 0
M  V30 6368 H 593.216 -2.01623 6.24247 0
M  V30 6369 H 593.133 -0.840513 7.51313 0
M  V30 6370 H 594.401 -2.02961 7.52613 0
M  V30 6371 N 598.631 -1.53133 0.372548 0
M  V30 6372 C 599.541 -2.29671 -0.478379 0
M  V30 6373 C 600.557 -1.35913 -1.08644 0
M  V30 6374 O 601.733 -1.68975 -1.09588 0
M  V30 6375 C 598.798 -3.07625 -1.599 0
M  V30 6376 C 597.859 -4.17061 -1.01776 0
M  V30 6377 C 597.092 -4.91289 -2.08497 0
M  V30 6378 O 597.315 -4.65442 -3.29727 0
M  V30 6379 O 596.249 -5.7705 -1.71164 0
M  V30 6380 H 600.075 -3.03355 0.144649 0
M  V30 6381 H 597.66 -1.48773 0.136729 0
M  V30 6382 H 599.542 -3.56281 -2.25038 0
M  V30 6383 H 598.217 -2.3677 -2.2073 0
M  V30 6384 H 597.124 -3.72641 -0.330098 0
M  V30 6385 H 598.457 -4.90102 -0.453915 0
M  V30 6386 N 600.109 -0.101901 -1.5727 0
M  V30 6387 C 601.355 0.561027 -1.94885 0
M  V30 6388 C 601.688 1.6741 -0.984258 0
M  V30 6389 O 600.963 1.94491 -0.0184767 0
M  V30 6390 C 601.246 1.10982 -3.42571 0
M  V30 6391 C 601.099 0.00133418 -4.498 0
M  V30 6392 C 602.418 2.00608 -3.9172 0
M  V30 6393 H 599.537 0.202467 -0.708644 0
M  V30 6394 H 602.179 -0.173992 -1.89202 0
M  V30 6395 H 600.329 1.73621 -3.47546 0
M  V30 6396 H 602.001 -0.63322 -4.56933 0
M  V30 6397 H 600.244 -0.664143 -4.28686 0
M  V30 6398 H 600.915 0.426253 -5.50352 0
M  V30 6399 H 603.391 1.47864 -3.88941 0
M  V30 6400 H 602.267 2.3593 -4.95609 0
M  V30 6401 H 602.528 2.92608 -3.3141 0
M  V30 6402 N 601.587 1.56661 0.17182 0
M  V30 6403 C 602.534 1.96371 1.21273 0
M  V30 6404 C 603.504 0.82756 1.44016 0
M  V30 6405 O 604.689 1.08764 1.56764 0
M  V30 6406 C 601.829 2.32838 2.54716 0
M  V30 6407 C 600.942 3.59628 2.39356 0
M  V30 6408 C 600.077 3.85311 3.65662 0
M  V30 6409 C 599.116 5.0545 3.45234 0
M  V30 6410 N 598.253 5.27268 4.63608 0
M  V30 6411 H 603.093 2.85106 0.86709 0
M  V30 6412 H 600.63 1.41073 0.416744 0
M  V30 6413 H 602.588 2.52004 3.3249 0
M  V30 6414 H 601.218 1.47214 2.87277 0
M  V30 6415 H 600.27 3.4838 1.52761 0
M  V30 6416 H 601.582 4.4756 2.20207 0
M  V30 6417 H 600.736 4.04841 4.51872 0
M  V30 6418 H 599.475 2.95753 3.8779 0
M  V30 6419 H 598.48 4.85819 2.5741 0
M  V30 6420 H 599.705 5.96538 3.24529 0
M  V30 6421 H 597.651 4.40662 4.85956 0
M  V30 6422 H 597.568 6.09422 4.4737 0
M  V30 6423 H 598.836 5.51277 5.51103 0
M  V30 6424 N 603.065 -0.440357 1.51323 0
M  V30 6425 C 604.314 -1.18697 1.63076 0
M  V30 6426 C 604.627 -1.92418 0.35136 0
M  V30 6427 O 605.833 -2.69258 0.348221 0
M  V30 6428 C 604.289 -2.15849 2.87988 0
M  V30 6429 C 603.897 -1.47789 4.22921 0
M  V30 6430 C 605.641 -2.90962 3.09098 0
M  V30 6431 C 603.548 -2.43407 5.38987 0
M  V30 6432 H 602.478 -0.44676 0.607389 0
M  V30 6433 H 605.129 -0.454313 1.77787 0
M  V30 6434 H 603.511 -2.92537 2.66905 0
M  V30 6435 H 604.685 -0.7668 4.54375 0
M  V30 6436 H 603 -0.848404 4.07665 0
M  V30 6437 H 605.597 -3.62584 3.92985 0
M  V30 6438 H 605.94 -3.52133 2.22053 0
M  V30 6439 H 606.473 -2.21381 3.30507 0
M  V30 6440 H 603.212 -1.86929 6.28282 0
M  V30 6441 H 602.732 -3.12579 5.11913 0
M  V30 6442 H 604.411 -3.046 5.70813 0
M  V30 6443 N 604.543 -1.41418 -0.695603 0
M  V30 6444 C 605.473 -1.46035 -1.82197 0
M  V30 6445 C 606.454 -0.319025 -1.67082 0
M  V30 6446 O 607.639 -0.530462 -1.86815 0
M  V30 6447 C 604.769 -1.34179 -3.20333 0
M  V30 6448 C 603.723 -2.46123 -3.50154 0
M  V30 6449 C 603.049 -2.19332 -4.87645 0
M  V30 6450 C 604.349 -3.88463 -3.49133 0
M  V30 6451 H 606.043 -2.40303 -1.78591 0
M  V30 6452 H 603.589 -1.15663 -0.857797 0
M  V30 6453 H 605.542 -1.36021 -3.98844 0
M  V30 6454 H 604.266 -0.363952 -3.24566 0
M  V30 6455 H 602.925 -2.43563 -2.73994 0
M  V30 6456 H 602.573 -1.19891 -4.88503 0
M  V30 6457 H 602.273 -2.94344 -5.08562 0
M  V30 6458 H 603.797 -2.22889 -5.68465 0
M  V30 6459 H 605.211 -3.92738 -4.17648 0
M  V30 6460 H 603.608 -4.63158 -3.81582 0
M  V30 6461 H 604.678 -4.16617 -2.48109 0
M  V30 6462 N 606.021 0.929856 -1.27246 0
M  V30 6463 C 606.968 2.03017 -1.09785 0
M  V30 6464 C 607.938 1.661 0.000456744 0
M  V30 6465 O 609.123 1.90116 -0.161462 0
M  V30 6466 C 606.263 3.36878 -0.748816 0
M  V30 6467 C 605.376 3.86763 -1.92453 0
M  V30 6468 C 604.511 5.09061 -1.51758 0
M  V30 6469 C 603.55 5.51237 -2.66091 0
M  V30 6470 N 602.687 6.64732 -2.25999 0
M  V30 6471 H 607.527 2.17285 -2.03939 0
M  V30 6472 H 605.064 1.06448 -1.01524 0
M  V30 6473 H 607.022 4.13855 -0.527283 0
M  V30 6474 H 605.652 3.22424 0.155771 0
M  V30 6475 H 604.704 3.06086 -2.25867 0
M  V30 6476 H 606.016 4.13994 -2.78227 0
M  V30 6477 H 605.17 5.93532 -1.25716 0
M  V30 6478 H 603.909 4.83602 -0.630896 0
M  V30 6479 H 602.914 4.65316 -2.92849 0
M  V30 6480 H 604.139 5.78692 -3.55377 0
M  V30 6481 H 602.085 6.40935 -1.3978 0
M  V30 6482 H 602.002 6.91607 -3.05313 0
M  V30 6483 H 603.27 7.52549 -2.03199 0
M  V30 6484 N 607.499 1.09233 1.13605 0
M  V30 6485 C 608.747 0.825525 1.84471 0
M  V30 6486 C 609.068 -0.650702 1.83823 0
M  V30 6487 O 608.338 -1.47204 1.29259 0
M  V30 6488 H 606.918 0.3024 0.683054 0
M  V30 6489 H 609.58 1.38006 1.37624 0
M  V30 6490 H 608.676 1.17727 2.89045 0
M  V30 6491 N 608.977 -1.30795 0.87923 0
M  V30 6492 C 609.907 -2.30742 0.357796 0
M  V30 6493 C 610.888 -1.60747 -0.556283 0
M  V30 6494 O 612.073 -1.88393 -0.47135 0
M  V30 6495 C 609.203 -3.44583 -0.433555 0
M  V30 6496 C 608.157 -4.26235 0.388251 0
M  V30 6497 C 607.483 -5.32073 -0.529352 0
M  V30 6498 C 608.783 -4.96303 1.62729 0
M  V30 6499 H 610.477 -2.74605 1.19299 0
M  V30 6500 H 608.023 -1.32017 0.575104 0
M  V30 6501 H 609.976 -4.13563 -0.808934 0
M  V30 6502 H 608.7 -2.99511 -1.30234 0
M  V30 6503 H 607.359 -3.58936 0.745695 0
M  V30 6504 H 607.007 -4.83249 -1.39569 0
M  V30 6505 H 606.707 -5.87598 0.0166741 0
M  V30 6506 H 608.231 -6.0391 -0.901373 0
M  V30 6507 H 609.645 -5.5783 1.32283 0
M  V30 6508 H 608.042 -5.61666 2.11309 0
M  V30 6509 H 609.112 -4.22758 2.37494 0
M  V30 6510 N 610.455 -0.639598 -1.44038 0
M  V30 6511 C 611.403 0.0723409 -2.32487 0
M  V30 6512 C 612.397 0.827129 -1.47834 0
M  V30 6513 O 613.603 0.73907 -1.64127 0
M  V30 6514 H 609.978 0.0421696 -0.750817 0
M  V30 6515 H 611.949 -0.691593 -2.90275 0
M  V30 6516 C 610.698 1.03452 -3.31953 0
M  V30 6517 H 610.021 0.46315 -3.97108 0
M  V30 6518 H 611.461 1.502 -3.96505 0
M  V30 6519 C 609.92 2.12392 -2.61518 0
M  V30 6520 O 610.45 3.2059 -2.42044 0
M  V30 6521 N 608.656 1.88563 -2.21116 0
M  V30 6522 H 608.203 1.00577 -2.37154 0
M  V30 6523 H 608.161 2.61651 -1.74316 0
M  V30 6524 N 611.933 1.52934 -0.380664 0
M  V30 6525 C 612.863 2.29118 0.450268 0
M  V30 6526 C 613.844 1.32153 1.07096 0
M  V30 6527 O 615.029 1.61038 1.08537 0
M  V30 6528 C 612.159 3.09161 1.58231 0
M  V30 6529 C 611.113 4.13938 1.0881 0
M  V30 6530 C 610.439 4.82153 2.31155 0
M  V30 6531 C 611.739 5.22048 0.162146 0
M  V30 6532 H 613.433 2.98826 -0.185361 0
M  V30 6533 H 610.979 1.43715 -0.0905886 0
M  V30 6534 H 612.932 3.61211 2.17036 0
M  V30 6535 H 611.656 2.3717 2.2454 0
M  V30 6536 H 610.315 3.62855 0.522633 0
M  V30 6537 H 609.963 4.06719 2.95953 0
M  V30 6538 H 609.663 5.52966 1.98752 0
M  V30 6539 H 611.187 5.37004 2.90618 0
M  V30 6540 H 612.601 5.6951 0.658126 0
M  V30 6541 H 610.998 6.00057 -0.0717122 0
M  V30 6542 H 612.068 4.78398 -0.791438 0
M  V30 6543 N 613.412 0.11024 1.57214 0
M  V30 6544 C 614.359 -0.843195 2.14846 0
M  V30 6545 C 615.329 -1.26954 1.07107 0
M  V30 6546 O 616.514 -1.34861 1.34971 0
M  V30 6547 C 613.654 -2.09123 2.74521 0
M  V30 6548 C 612.767 -1.71404 3.96541 0
M  V30 6549 C 611.902 -2.91107 4.44331 0
M  V30 6550 C 610.941 -2.49586 5.58903 0
M  V30 6551 N 610.078 -3.62175 6.01477 0
M  V30 6552 H 614.918 -0.344886 2.95998 0
M  V30 6553 H 612.455 -0.15855 1.46243 0
M  V30 6554 H 614.413 -2.82234 3.07246 0
M  V30 6555 H 613.043 -2.56427 1.96074 0
M  V30 6556 H 612.095 -0.88201 3.70033 0
M  V30 6557 H 613.407 -1.36884 4.7965 0
M  V30 6558 H 612.561 -3.72454 4.78919 0
M  V30 6559 H 611.3 -3.28848 3.60153 0
M  V30 6560 H 610.305 -1.6667 5.23929 0
M  V30 6561 H 611.53 -2.12973 6.4484 0
M  V30 6562 H 609.476 -3.99605 5.20242 0
M  V30 6563 H 609.393 -3.3155 6.79419 0
M  V30 6564 H 610.661 -4.43987 6.407 0
M  V30 6565 N 614.89 -1.56749 -0.16351 0
M  V30 6566 C 616.136 -1.82704 -0.880168 0
M  V30 6567 C 616.469 -0.689311 -1.81555 0
M  V30 6568 O 615.744 0.308224 -1.92042 0
M  V30 6569 C 616.027 -3.19084 -1.66905 0
M  V30 6570 C 615.88 -4.43397 -0.756269 0
M  V30 6571 C 617.199 -3.52493 -2.63509 0
M  V30 6572 H 614.318 -0.664608 -0.318535 0
M  V30 6573 H 616.96 -1.89438 -0.146036 0
M  V30 6574 H 615.11 -3.13475 -2.2949 0
M  V30 6575 H 616.782 -4.61079 -0.14269 0
M  V30 6576 H 615.025 -4.33752 -0.0647944 0
M  V30 6577 H 615.696 -5.3539 -1.34393 0
M  V30 6578 H 618.172 -3.58606 -2.11047 0
M  V30 6579 H 617.048 -4.48979 -3.15767 0
M  V30 6580 H 617.309 -2.77597 -3.44082 0
M  V30 6581 N 616.368 0.432326 -1.51554 0
M  V30 6582 C 617.3 1.54357 -1.6943 0
M  V30 6583 C 618.313 1.52311 -0.574897 0
M  V30 6584 O 619.502 1.56997 -0.849369 0
M  V30 6585 C 616.602 2.93273 -1.69836 0
M  V30 6586 C 615.775 3.19768 -2.98442 0
M  V30 6587 C 614.834 4.38433 -2.90969 0
M  V30 6588 O 613.86 4.36842 -3.64908 0
M  V30 6589 N 615.062 5.42276 -2.07163 0
M  V30 6590 H 617.827 1.39426 -2.65293 0
M  V30 6591 H 615.388 0.621331 -1.49503 0
M  V30 6592 H 617.38 3.70687 -1.62399 0
M  V30 6593 H 615.95 3.01777 -0.815456 0
M  V30 6594 H 615.17 2.30607 -3.19709 0
M  V30 6595 H 616.458 3.343 -3.83563 0
M  V30 6596 H 615.856 5.46407 -1.46477 0
M  V30 6597 H 614.413 6.18524 -2.05601 0
M  V30 6598 N 617.846 1.41785 0.688094 0
M  V30 6599 C 619.071 1.45117 1.48175 0
M  V30 6600 C 619.496 0.060129 1.88004 0
M  V30 6601 O 618.854 -0.938385 1.55126 0
M  V30 6602 C 618.902 2.37224 2.71583 0
M  V30 6603 O 618.006 1.83443 3.69354 0
M  V30 6604 H 617.347 0.492208 0.445676 0
M  V30 6605 H 619.877 1.86329 0.845145 0
M  V30 6606 H 619.887 2.53353 3.19806 0
M  V30 6607 H 618.562 3.38293 2.41931 0
M  V30 6608 H 617.139 1.76802 3.28322 0
M  V30 6609 N 619.324 -0.923095 1.27737 0
M  V30 6610 C 620.572 -1.66797 1.14119 0
M  V30 6611 C 620.893 -1.92479 -0.312541 0
M  V30 6612 O 620.163 -1.53432 -1.218 0
M  V30 6613 H 618.743 -0.618196 0.419336 0
M  V30 6614 H 621.405 -1.10815 1.60331 0
M  V30 6615 H 620.501 -2.63424 1.67374 0
M  V30 6616 N 620.802 -1.09834 -1.13024 0
M  V30 6617 C 621.734 -0.699379 -2.18269 0
M  V30 6618 C 622.747 0.260841 -1.60697 0
M  V30 6619 O 623.936 0.0462538 -1.7844 0
M  V30 6620 C 621.036 -0.0104537 -3.38898 0
M  V30 6621 C 620.209 -0.993275 -4.25973 0
M  V30 6622 C 619.268 -0.336982 -5.2512 0
M  V30 6623 O 618.294 -0.985892 -5.60597 0
M  V30 6624 N 619.496 0.90716 -5.73368 0
M  V30 6625 H 622.261 -1.60486 -2.5311 0
M  V30 6626 H 619.822 -0.986337 -1.28386 0
M  V30 6627 H 621.814 0.43991 -4.02302 0
M  V30 6628 H 620.384 0.797335 -3.0226 0
M  V30 6629 H 619.604 -1.62208 -3.5928 0
M  V30 6630 H 620.892 -1.65876 -4.81002 0
M  V30 6631 H 620.29 1.45384 -5.46699 0
M  V30 6632 H 618.847 1.30077 -6.38689 0
M  V30 6633 N 622.28 1.30327 -0.886154 0
M  V30 6634 C 623.508 2.00254 -0.520176 0
M  V30 6635 C 623.923 1.66419 0.891637 0
M  V30 6636 O 623.28 0.901951 1.58654 0
M  V30 6637 C 623.331 3.54916 -0.686775 0
M  V30 6638 O 623.052 3.87547 -2.04301 0
M  V30 6639 C 624.553 4.42115 -0.323945 0
M  V30 6640 H 621.773 0.640204 -0.200947 0
M  V30 6641 H 624.317 1.66183 -1.19178 0
M  V30 6642 H 622.472 3.8735 -0.0625273 0
M  V30 6643 H 622.886 4.82247 -2.06249 0
M  V30 6644 H 624.36 5.49808 -0.491407 0
M  V30 6645 H 624.837 4.32953 0.73811 0
M  V30 6646 H 625.443 4.15129 -0.924565 0
M  V30 6647 N 623.758 0.647228 1.43697 0
M  V30 6648 C 625.004 0.158422 2.0218 0
M  V30 6649 C 625.337 -1.22233 1.50907 0
M  V30 6650 O 624.612 -1.81478 0.699702 0
M  V30 6651 C 624.895 0.1627 3.59732 0
M  V30 6652 C 624.748 1.57694 4.21251 0
M  V30 6653 C 626.067 -0.504138 4.37203 0
M  V30 6654 H 623.186 0.059042 0.734631 0
M  V30 6655 H 625.828 0.826772 1.71069 0
M  V30 6656 H 623.978 -0.406414 3.86368 0
M  V30 6657 H 625.65 2.19618 4.05667 0
M  V30 6658 H 623.893 2.12603 3.7813 0
M  V30 6659 H 624.564 1.53183 5.3032 0
M  V30 6660 H 627.04 -0.0199841 4.16095 0
M  V30 6661 H 625.916 -0.470394 5.46881 0
M  V30 6662 H 626.177 -1.57726 4.13007 0
M  V30 6663 N 625.236 -1.5273 0.388769 0
M  V30 6664 C 626.199 -2.25043 -0.434544 0
M  V30 6665 C 627.199 -1.26661 -0.990644 0
M  V30 6666 O 628.389 -1.50762 -0.872731 0
M  V30 6667 C 625.521 -3.00507 -1.60961 0
M  V30 6668 H 626.714 -2.99242 0.198549 0
M  V30 6669 H 624.267 -1.55664 0.140875 0
M  V30 6670 H 625.002 -2.30607 -2.28015 0
M  V30 6671 H 624.787 -3.72716 -1.21757 0
M  V30 6672 H 626.277 -3.55413 -2.19251 0
M  V30 6673 N 626.714 -0.118576 -1.57153 0
M  V30 6674 C 627.644 0.828436 -2.1831 0
M  V30 6675 C 628.625 1.27758 -1.12303 0
M  V30 6676 O 629.81 1.34026 -1.40537 0
M  V30 6677 C 626.94 2.07876 -2.78217 0
M  V30 6678 C 625.894 1.76742 -3.89803 0
M  V30 6679 C 625.22 3.08801 -4.36516 0
M  V30 6680 C 626.52 1.03606 -5.11921 0
M  V30 6681 H 628.214 0.318824 -2.97698 0
M  V30 6682 H 625.76 0.151911 -1.43196 0
M  V30 6683 H 627.713 2.74584 -3.19659 0
M  V30 6684 H 626.437 2.61161 -1.96118 0
M  V30 6685 H 625.096 1.12424 -3.48936 0
M  V30 6686 H 624.744 3.6002 -3.51276 0
M  V30 6687 H 624.444 2.88743 -5.11763 0
M  V30 6688 H 625.968 3.76627 -4.80608 0
M  V30 6689 H 627.382 1.60467 -5.50385 0
M  V30 6690 H 625.779 0.936454 -5.92748 0
M  V30 6691 H 626.849 0.0227421 -4.84895 0
M  V30 6692 N 628.193 1.56834 0.155195 0
M  V30 6693 C 629.439 1.83169 0.870467 0
M  V30 6694 C 629.772 0.698929 1.81187 0
M  V30 6695 O 629.047 -0.298035 1.92203 0
M  V30 6696 C 629.33 3.19965 1.65211 0
M  V30 6697 C 629.183 4.43792 0.732744 0
M  V30 6698 C 630.502 3.53885 2.61636 0
M  V30 6699 H 627.621 0.666288 0.315006 0
M  V30 6700 H 630.263 1.89513 0.135988 0
M  V30 6701 H 628.413 3.14687 2.27825 0
M  V30 6702 H 630.085 4.61148 0.118236 0
M  V30 6703 H 628.328 4.3378 0.0417906 0
M  V30 6704 H 628.999 5.36095 1.31552 0
M  V30 6705 H 631.475 3.5972 2.09143 0
M  V30 6706 H 630.351 4.50648 3.13381 0
M  V30 6707 H 630.612 2.79418 3.42605 0
M  V30 6708 N 629.671 -0.424282 1.51781 0
M  V30 6709 C 630.919 -1.17028 1.64769 0
M  V30 6710 C 631.24 -1.91409 0.372523 0
M  V30 6711 O 630.51 -1.86091 -0.612108 0
M  V30 6712 H 629.09 -0.434992 0.607282 0
M  V30 6713 H 631.752 -0.485169 1.88765 0
M  V30 6714 H 630.848 -1.8927 2.4816 0
M  V30 6715 N 631.149 -1.42148 -0.680565 0
M  V30 6716 C 632.097 -1.45401 -1.81552 0
M  V30 6717 C 633.091 -0.33036 -1.66147 0
M  V30 6718 O 634.297 -0.503103 -1.72826 0
M  V30 6719 H 630.672 -0.455265 -0.59853 0
M  V30 6720 H 632.643 -2.41024 -1.75926 0
M  V30 6721 C 631.392 -1.36769 -3.19671 0
M  V30 6722 H 630.715 -2.22525 -3.32149 0
M  V30 6723 H 632.155 -1.43106 -3.9912 0
M  V30 6724 C 630.614 -0.0817752 -3.36801 0
M  V30 6725 O 631.144 0.867707 -3.92216 0
M  V30 6726 N 629.35 -0.000799811 -2.906 0
M  V30 6727 H 628.897 -0.774231 -2.4569 0
M  V30 6728 H 628.855 0.858961 -3.02439 0
M  V30 6729 N 632.627 0.916307 -1.28225 0
M  V30 6730 C 633.852 1.7043 -1.18188 0
M  V30 6731 C 634.277 1.86346 0.256274 0
M  V30 6732 O 633.635 1.37175 1.18544 0
M  V30 6733 C 633.683 3.07546 -1.88275 0
M  V30 6734 O 632.787 3.94904 -1.18848 0
M  V30 6735 H 632.128 0.521967 -0.410423 0
M  V30 6736 H 634.658 1.14589 -1.69501 0
M  V30 6737 H 634.668 3.57793 -1.96082 0
M  V30 6738 H 633.343 2.95279 -2.92887 0
M  V30 6739 H 631.92 3.53339 -1.19187 0
M  V30 6740 N 634.105 1.10431 1.1244 0
M  V30 6741 C 635.353 0.845045 1.83585 0
M  V30 6742 C 635.674 -0.631168 1.84503 0
M  V30 6743 O 634.944 -1.45825 1.30813 0
M  V30 6744 H 633.524 0.309628 0.679809 0
M  V30 6745 H 636.186 1.39458 1.36153 0
M  V30 6746 H 635.282 1.20786 2.8778 0
M  V30 6747 N 635.583 -1.29855 0.893053 0
M  V30 6748 C 636.823 -1.97612 0.522399 0
M  V30 6749 C 637.187 -1.68903 -0.913 0
M  V30 6750 O 638.388 -2.30059 -1.39019 0
M  V30 6751 C 636.659 -3.48356 0.79893 0
M  V30 6752 S 638.218 -4.35568 0.531588 0
M  V30 6753 H 635.036 -0.684005 0.194058 0
M  V30 6754 H 637.638 -1.57803 1.15406 0
M  V30 6755 H 636.342 -3.66743 1.84196 0
M  V30 6756 H 635.873 -3.93094 0.155133 0
M  V30 6757 H 637.888 -4.92232 -0.626295 0
M  V30 6758 N 637.061 -0.65484 -1.43351 0
M  V30 6759 C 638.309 -0.168559 -2.01396 0
M  V30 6760 C 638.63 1.22235 -1.51933 0
M  V30 6761 O 637.9 1.81685 -0.732627 0
M  V30 6762 H 636.48 -0.0593244 -0.744641 0
M  V30 6763 H 639.142 -0.846871 -1.75539 0
M  V30 6764 H 638.238 -0.154428 -3.11718 0
M  V30 6765 N 638.539 1.52521 -0.396863 0
M  V30 6766 C 639.486 2.26671 0.434624 0
M  V30 6767 C 640.456 1.28584 1.05144 0
M  V30 6768 O 641.641 1.57426 1.07804 0
M  V30 6769 C 638.781 3.08234 1.55196 0
M  V30 6770 C 637.894 4.21261 0.957262 0
M  V30 6771 C 637.029 4.90205 2.04627 0
M  V30 6772 C 636.068 5.95213 1.42787 0
M  V30 6773 N 635.205 6.57723 2.45651 0
M  V30 6774 H 640.045 2.973 -0.204139 0
M  V30 6775 H 637.582 1.46669 -0.112505 0
M  V30 6776 H 639.54 3.53819 2.2106 0
M  V30 6777 H 638.17 2.398 2.16092 0
M  V30 6778 H 637.222 3.79935 0.188005 0
M  V30 6779 H 638.534 4.96624 0.465416 0
M  V30 6780 H 637.688 5.39133 2.78246 0
M  V30 6781 H 636.427 4.14383 2.57174 0
M  V30 6782 H 635.432 5.45616 0.676968 0
M  V30 6783 H 636.657 6.72972 0.910255 0
M  V30 6784 H 634.603 5.84737 2.97353 0
M  V30 6785 H 634.52 7.28723 2.01243 0
M  V30 6786 H 635.788 7.11293 3.18876 0
M  V30 6787 N 640.017 0.126909 1.57088 0
M  V30 6788 C 641.242 -0.53997 2.00248 0
M  V30 6789 C 641.667 -1.58927 1.00618 0
M  V30 6790 O 641.025 -1.81288 -0.0210131 0
M  V30 6791 C 641.073 -1.13565 3.4225 0
M  V30 6792 O 640.177 -2.25103 3.45547 0
M  V30 6793 H 639.518 -0.13412 0.650314 0
M  V30 6794 H 642.048 0.217718 2.03438 0
M  V30 6795 H 642.058 -1.46925 3.80627 0
M  V30 6796 H 640.733 -0.367122 4.14277 0
M  V30 6797 H 639.31 -1.93123 3.18995 0
M  V30 6798 N 641.495 -1.56914 -0.146875 0
M  V30 6799 C 642.723 -1.87515 -0.874394 0
M  V30 6800 C 643.138 -0.715116 -1.74733 0
M  V30 6801 O 642.495 0.315113 -1.79759 0
M  V30 6802 C 642.546 -3.17362 -1.731 0
M  V30 6803 O 642.267 -4.28897 -0.893245 0
M  V30 6804 C 643.768 -3.61479 -2.56609 0
M  V30 6805 H 640.988 -0.621546 -0.252827 0
M  V30 6806 H 643.532 -2.04023 -0.139627 0
M  V30 6807 H 641.687 -3.02608 -2.41883 0
M  V30 6808 H 642.101 -5.03146 -1.48137 0
M  V30 6809 H 643.575 -4.5517 -3.12289 0
M  V30 6810 H 644.052 -2.86773 -3.32653 0
M  V30 6811 H 644.658 -3.78927 -1.93117 0
M  V30 6812 N 642.974 0.416227 -1.52004 0
M  V30 6813 C 644.202 1.18573 -1.69553 0
M  V30 6814 C 644.617 1.84472 -0.401919 0
M  V30 6815 O 643.974 1.71593 0.621463 0
M  V30 6816 C 644.025 2.25413 -2.82615 0
M  V30 6817 O 643.746 1.62205 -4.06966 0
M  V30 6818 C 645.247 3.15297 -3.11613 0
M  V30 6819 H 642.467 0.356582 -0.56841 0
M  V30 6820 H 645.011 0.490618 -1.98528 0
M  V30 6821 H 643.166 2.90604 -2.56179 0
M  V30 6822 H 643.58 2.3298 -4.69916 0
M  V30 6823 H 645.054 3.86351 -3.94255 0
M  V30 6824 H 645.531 3.77264 -2.24874 0
M  V30 6825 H 646.137 2.55783 -3.39787 0
M  V30 6826 N 644.452 1.42507 0.673017 0
M  V30 6827 C 645.698 1.43284 1.43519 0
M  V30 6828 C 646.031 0.049668 1.94136 0
M  V30 6829 O 645.306 -0.926369 1.71022 0
M  V30 6830 C 645.589 2.45874 2.63093 0
M  V30 6831 C 645.442 3.93388 2.18096 0
M  V30 6832 C 646.761 2.45431 3.6531 0
M  V30 6833 H 643.88 0.521752 0.520522 0
M  V30 6834 H 646.522 1.73932 0.764701 0
M  V30 6835 H 644.672 2.19869 3.20296 0
M  V30 6836 H 646.344 4.30379 1.66046 0
M  V30 6837 H 644.587 4.07169 1.49652 0
M  V30 6838 H 645.258 4.60752 3.03993 0
M  V30 6839 H 647.734 2.68561 3.17827 0
M  V30 6840 H 646.61 3.19189 4.46553 0
M  V30 6841 H 646.871 1.48092 4.16559 0
M  V30 6842 N 645.93 -0.909495 1.28709 0
M  V30 6843 C 646.862 -2.01729 1.08804 0
M  V30 6844 C 647.875 -1.62755 0.0384739 0
M  V30 6845 O 649.064 -1.76259 0.281977 0
M  V30 6846 C 646.164 -3.32952 0.63217 0
M  V30 6847 C 645.337 -4.00512 1.75809 0
M  V30 6848 C 644.396 -5.10019 1.29488 0
M  V30 6849 O 643.422 -5.32986 1.99787 0
M  V30 6850 N 644.624 -5.80278 0.1604 0
M  V30 6851 H 647.389 -2.19362 2.04207 0
M  V30 6852 H 644.95 -1.08106 1.20518 0
M  V30 6853 H 646.942 -4.03543 0.305802 0
M  V30 6854 H 645.512 -3.11759 -0.229134 0
M  V30 6855 H 644.732 -3.23413 2.25383 0
M  V30 6856 H 646.02 -4.42395 2.51325 0
M  V30 6857 H 645.418 -5.64094 -0.425937 0
M  V30 6858 H 643.975 -6.51713 -0.106663 0
M  V30 6859 N 647.408 -1.11026 -1.11852 0
M  V30 6860 C 648.338 -0.786812 -2.19844 0
M  V30 6861 C 649.319 0.242935 -1.68356 0
M  V30 6862 O 650.504 0.107355 -1.93903 0
M  V30 6863 C 647.634 -0.224516 -3.46574 0
M  V30 6864 C 646.588 -1.18564 -4.1125 0
M  V30 6865 C 645.914 -0.484261 -5.32503 0
M  V30 6866 C 647.214 -2.53465 -4.56676 0
M  V30 6867 H 648.908 -1.68978 -2.47158 0
M  V30 6868 H 646.454 -0.813906 -1.18792 0
M  V30 6869 H 648.407 0.0139435 -4.21398 0
M  V30 6870 H 647.131 0.713722 -3.18706 0
M  V30 6871 H 645.79 -1.40966 -3.38414 0
M  V30 6872 H 645.438 0.458646 -5.00905 0
M  V30 6873 H 645.138 -1.12526 -5.76725 0
M  V30 6874 H 646.662 -0.254492 -6.10069 0
M  V30 6875 H 648.076 -2.35177 -5.22843 0
M  V30 6876 H 646.473 -3.13507 -5.11697 0
M  V30 6877 H 647.543 -3.13008 -3.70343 0
M  V30 6878 N 648.886 1.2938 -0.899927 0
M  V30 6879 C 649.819 2.25911 -0.322386 0
M  V30 6880 C 650.797 1.52447 0.565567 0
M  V30 6881 O 651.981 1.81404 0.512324 0
M  V30 6882 C 649.108 3.3436 0.540455 0
M  V30 6883 C 648.154 4.25579 -0.280211 0
M  V30 6884 S 648.987 5.08526 -1.67814 0
M  V30 6885 C 650.143 6.20476 -0.822224 0
M  V30 6886 H 650.376 2.7455 -1.1406 0
M  V30 6887 H 647.909 1.37606 -0.700285 0
M  V30 6888 H 649.867 3.97303 1.0325 0
M  V30 6889 H 648.528 2.84416 1.33291 0
M  V30 6890 H 647.721 5.02574 0.378915 0
M  V30 6891 H 647.323 3.67287 -0.705405 0
M  V30 6892 H 649.615 6.77485 -0.0457138 0
M  V30 6893 H 650.558 6.90606 -1.56426 0
M  V30 6894 H 650.966 5.63243 -0.37651 0
M  V30 6895 N 650.364 0.662433 1.43002 0
M  V30 6896 C 651.296 -0.062326 2.29115 0
M  V30 6897 C 652.309 -0.777926 1.43011 0
M  V30 6898 O 653.498 -0.634146 1.66856 0
M  V30 6899 C 650.598 -1.11163 3.2015 0
M  V30 6900 C 649.771 -0.472327 4.34842 0
M  V30 6901 C 648.83 -1.41974 5.06685 0
M  V30 6902 O 647.856 -0.924795 5.61637 0
M  V30 6903 N 649.058 -2.75345 5.11043 0
M  V30 6904 H 651.823 0.676838 2.91957 0
M  V30 6905 H 649.384 0.505907 1.53793 0
M  V30 6906 H 651.376 -1.74643 3.65078 0
M  V30 6907 H 649.946 -1.75266 2.58845 0
M  V30 6908 H 649.166 0.341751 3.92716 0
M  V30 6909 H 650.454 -0.0264381 5.08793 0
M  V30 6910 H 649.852 -3.18108 4.67786 0
M  V30 6911 H 648.409 -3.34105 5.59658 0
M  V30 6912 N 651.842 -1.52309 0.404946 0
M  V30 6913 C 653.258 -1.59503 0.0556255 0
M  V30 6914 C 653.458 -1.41805 -1.43156 0
M  V30 6915 O 652.514 -1.2429 -2.19792 0
M  V30 6916 C 653.827 -2.95687 0.546801 0
M  V30 6917 C 655.375 -3.08909 0.504413 0
M  V30 6918 C 655.85 -4.47566 0.97203 0
M  V30 6919 N 657.341 -4.53795 0.928679 0
M  V30 6920 C 658.076 -5.59346 1.26174 0
M  V30 6921 N 657.572 -6.72469 1.66604 0
M  V30 6922 N 659.365 -5.49532 1.18198 0
M  V30 6923 H 651.516 -1.6206 1.37296 0
M  V30 6924 H 653.779 -0.762161 0.563751 0
M  V30 6925 H 653.485 -3.13905 1.58609 0
M  V30 6926 H 653.359 -3.77172 -0.0457905 0
M  V30 6927 H 655.746 -2.90378 -0.525819 0
M  V30 6928 H 655.827 -2.2934 1.13301 0
M  V30 6929 H 655.471 -4.6684 2.00057 0
M  V30 6930 H 655.401 -5.25625 0.320292 0
M  V30 6931 H 657.892 -3.72588 0.631369 0
M  V30 6932 H 658.205 -7.48993 1.9034 0
M  V30 6933 H 656.55 -6.73761 1.70504 0
M  V30 6934 H 659.741 -4.60038 0.865011 0
M  V30 6935 H 659.914 -6.31687 1.44485 0
M  V30 6936 N 653.32 -0.135238 -1.57019 0
M  V30 6937 C 654.25 0.805235 -2.19176 0
M  V30 6938 C 655.231 1.2656 -1.13651 0
M  V30 6939 O 656.416 1.32528 -1.4195 0
M  V30 6940 C 653.546 2.04914 -2.80406 0
M  V30 6941 C 652.5 1.72598 -3.91655 0
M  V30 6942 C 651.826 3.04154 -4.39766 0
M  V30 6943 C 653.126 0.981709 -5.12991 0
M  V30 6944 H 654.82 0.287232 -2.98019 0
M  V30 6945 H 652.366 0.136714 -1.4335 0
M  V30 6946 H 654.319 2.71178 -3.22553 0
M  V30 6947 H 653.043 2.59067 -1.98877 0
M  V30 6948 H 651.702 1.08717 -3.50109 0
M  V30 6949 H 651.35 3.56274 -3.55075 0
M  V30 6950 H 651.05 2.83299 -5.14796 0
M  V30 6951 H 652.574 3.71509 -4.84576 0
M  V30 6952 H 653.988 1.5462 -5.52056 0
M  V30 6953 H 652.385 0.873533 -5.93708 0
M  V30 6954 H 653.455 -0.0286887 -4.84892 0
M  V30 6955 N 654.798 1.5699 0.138552 0
M  V30 6956 C 656.028 1.87704 0.863184 0
M  V30 6957 C 656.436 0.722411 1.74865 0
M  V30 6958 O 655.779 -0.316636 1.80951 0
M  V30 6959 C 655.841 3.13219 1.76449 0
M  V30 6960 C 655.505 4.44648 1.05532 0
M  V30 6961 C 656.502 5.18318 0.405252 0
M  V30 6962 C 654.187 4.91367 1.04231 0
M  V30 6963 C 656.181 6.36916 -0.24835 0
M  V30 6964 C 653.868 6.09887 0.384904 0
M  V30 6965 C 654.866 6.82508 -0.259292 0
M  V30 6966 O 654.554 7.98775 -0.906258 0
M  V30 6967 H 654.286 0.626255 0.254521 0
M  V30 6968 H 656.84 2.04966 0.133472 0
M  V30 6969 H 655.07 2.91988 2.53535 0
M  V30 6970 H 656.759 3.30111 2.36181 0
M  V30 6971 H 657.525 4.83289 0.407053 0
M  V30 6972 H 653.404 4.34759 1.53315 0
M  V30 6973 H 656.948 6.93538 -0.751755 0
M  V30 6974 H 652.845 6.44376 0.380799 0
M  V30 6975 H 653.613 8.14494 -0.80877 0
M  V30 6976 N 656.276 -0.40816 1.52223 0
M  V30 6977 C 657.553 -1.16807 1.56893 0
M  V30 6978 C 657.933 -2.08169 0.350537 0
M  V30 6979 O 657.281 -2.18684 -0.662536 0
M  V30 6980 C 657.491 -1.94451 2.8981 0
M  V30 6981 C 658.839 -2.50484 3.42845 0
M  V30 6982 O 659.863 -2.0463 2.91556 0
M  V30 6983 O 658.722 -3.34192 4.3241 0
M  V30 6984 H 655.816 -0.533382 0.632007 0
M  V30 6985 H 658.362 -0.414862 1.64551 0
M  V30 6986 H 657.134 -1.27527 3.69936 0
M  V30 6987 H 656.757 -2.76775 2.85449 0
M  V30 6988 N 657.755 -1.42862 -0.66545 0
M  V30 6989 C 659.166 -1.3901 -1.24632 0
M  V30 6990 C 659.517 -0.0880285 -1.96002 0
M  V30 6991 O 658.642 0.812947 -2.0055 0
M  V30 6992 C 659.237 -2.51806 -2.2667 0
M  V30 6993 C 657.796 -2.51257 -2.80262 0
M  V30 6994 C 656.943 -2.30124 -1.5472 0
M  V30 6995 H 659.894 -1.5194 -0.458237 0
M  V30 6996 H 659.915 -2.22593 -3.08598 0
M  V30 6997 H 659.427 -3.46558 -1.74697 0
M  V30 6998 H 657.528 -1.60349 -3.36332 0
M  V30 6999 H 657.641 -3.48614 -3.28641 0
M  V30 7000 H 656.005 -1.7856 -1.81627 0
M  V30 7001 H 656.788 -3.26945 -1.04699 0
M  V30 7002 N 659.233 0.902656 -1.29189 0
M  V30 7003 C 660.461 1.68639 -1.19869 0
M  V30 7004 C 660.876 1.87254 0.241121 0
M  V30 7005 O 660.233 1.40745 1.16177 0
M  V30 7006 C 660.284 3.07251 -1.90471 0
M  V30 7007 O 660.005 2.89488 -3.28829 0
M  V30 7008 C 661.506 4.01653 -1.8759 0
M  V30 7009 H 658.726 0.526802 -0.415596 0
M  V30 7010 H 661.27 1.12901 -1.7051 0
M  V30 7011 H 659.425 3.59774 -1.43672 0
M  V30 7012 H 659.839 3.77296 -3.64346 0
M  V30 7013 H 661.313 4.96339 -2.4156 0
M  V30 7014 H 661.79 4.30881 -0.850756 0
M  V30 7015 H 662.396 3.55061 -2.34119 0
M  V30 7016 N 660.711 1.11618 1.11262 0
M  V30 7017 C 661.621 0.78898 2.20935 0
M  V30 7018 C 662.637 -0.21867 1.7262 0
M  V30 7019 O 663.813 -0.0543826 2.01327 0
M  V30 7020 C 660.878 0.239014 3.45875 0
M  V30 7021 C 659.939 1.3055 4.08968 0
M  V30 7022 C 659.172 0.781687 5.27944 0
M  V30 7023 O 659.395 -0.387605 5.69082 0
M  V30 7024 O 658.329 1.54734 5.81671 0
M  V30 7025 H 662.155 1.70477 2.51339 0
M  V30 7026 H 659.74 0.892203 1.19834 0
M  V30 7027 H 661.622 -0.0632312 4.21353 0
M  V30 7028 H 660.297 -0.649454 3.17118 0
M  V30 7029 H 659.204 1.66079 3.35214 0
M  V30 7030 H 660.537 2.16743 4.41909 0
M  V30 7031 N 662.189 -1.289 0.906776 0
M  V30 7032 C 663.437 -1.94883 0.535266 0
M  V30 7033 C 663.758 -1.71784 -0.922791 0
M  V30 7034 O 663.028 -1.05359 -1.65156 0
M  V30 7035 H 661.608 -0.721109 0.194962 0
M  V30 7036 H 664.27 -1.57018 1.15461 0
M  V30 7037 H 663.366 -3.03591 0.723821 0
M  V30 7038 N 663.667 -0.670007 -1.42649 0
M  V30 7039 C 664.6 0.0613623 -2.28117 0
M  V30 7040 C 665.578 0.813414 -1.40792 0
M  V30 7041 O 666.762 0.809529 -1.70232 0
M  V30 7042 C 663.889 1.09399 -3.20546 0
M  V30 7043 C 662.935 0.438064 -4.24244 0
M  V30 7044 S 663.768 -0.800808 -5.29478 0
M  V30 7045 C 664.924 0.23086 -6.25474 0
M  V30 7046 H 665.157 -0.663606 -2.89799 0
M  V30 7047 H 662.69 -0.45939 -1.47407 0
M  V30 7048 H 664.648 1.68469 -3.74337 0
M  V30 7049 H 663.309 1.79137 -2.58009 0
M  V30 7050 H 662.502 1.21707 -4.89084 0
M  V30 7051 H 662.104 -0.0789346 -3.73917 0
M  V30 7052 H 664.396 1.09204 -6.68641 0
M  V30 7053 H 665.339 -0.382945 -7.07064 0
M  V30 7054 H 665.747 0.574191 -5.61572 0
M  V30 7055 N 665.145 1.52092 -0.413018 0
M  V30 7056 C 666.391 2.02154 0.161737 0
M  V30 7057 C 666.724 1.29789 1.44459 0
M  V30 7058 O 665.999 0.405378 1.90229 0
M  V30 7059 C 666.282 3.5781 0.405463 0
M  V30 7060 C 666.135 4.40819 -0.894335 0
M  V30 7061 C 667.454 4.23821 1.18591 0
M  V30 7062 H 664.573 0.734769 0.0573077 0
M  V30 7063 H 667.215 1.81948 -0.547247 0
M  V30 7064 H 665.365 3.75158 1.0094 0
M  V30 7065 H 667.037 4.35175 -1.53039 0
M  V30 7066 H 665.28 4.06877 -1.50444 0
M  V30 7067 H 665.951 5.47819 -0.678144 0
M  V30 7068 H 668.427 4.10596 0.674573 0
M  V30 7069 H 667.303 5.32663 1.3252 0
M  V30 7070 H 667.564 3.83038 2.20758 0
M  V30 7071 N 666.623 0.143563 1.56945 0
M  V30 7072 C 667.848 -0.518701 2.00809 0
M  V30 7073 C 668.273 -1.5785 1.02298 0
M  V30 7074 O 667.631 -1.813 -0.0017839 0
M  V30 7075 C 667.679 -1.09929 3.43436 0
M  V30 7076 O 666.783 -2.21425 3.47915 0
M  V30 7077 H 666.124 -0.127215 0.6517 0
M  V30 7078 H 668.654 0.239283 2.03196 0
M  V30 7079 H 668.664 -1.4288 3.82164 0
M  V30 7080 H 667.339 -0.323162 4.14643 0
M  V30 7081 H 665.916 -1.89728 3.21026 0
M  V30 7082 N 668.101 -1.57061 -0.130224 0
M  V30 7083 C 669.347 -1.8453 -0.841216 0
M  V30 7084 C 669.68 -0.727666 -1.80052 0
M  V30 7085 O 668.955 0.267419 -1.92653 0
M  V30 7086 C 669.238 -3.22553 -1.60099 0
M  V30 7087 C 669.091 -4.44901 -0.662048 0
M  V30 7088 C 670.41 -3.58003 -2.55973 0
M  V30 7089 H 667.529 -0.671215 -0.304366 0
M  V30 7090 H 670.171 -1.89705 -0.105821 0
M  V30 7091 H 668.321 -3.18272 -2.22789 0
M  V30 7092 H 669.993 -4.61278 -0.0448559 0
M  V30 7093 H 668.236 -4.33791 0.0272253 0
M  V30 7094 H 668.907 -5.3812 -1.23006 0
M  V30 7095 H 671.383 -3.63002 -2.03393 0
M  V30 7096 H 670.259 -4.55576 -3.06172 0
M  V30 7097 H 670.52 -2.84833 -3.38116 0
M  V30 7098 N 669.579 0.400081 -1.52437 0
M  V30 7099 C 670.856 1.15973 -1.57511 0
M  V30 7100 C 671.236 2.0798 -0.361572 0
M  V30 7101 O 670.584 2.19032 0.650929 0
M  V30 7102 C 670.794 1.92912 -2.90837 0
M  V30 7103 C 672.142 2.48662 -3.44169 0
M  V30 7104 O 673.166 2.03081 -2.92637 0
M  V30 7105 O 672.025 3.31894 -4.34176 0
M  V30 7106 H 669.119 0.530023 -0.634827 0
M  V30 7107 H 671.665 0.40613 -1.64769 0
M  V30 7108 H 670.437 1.25564 -3.70607 0
M  V30 7109 H 670.06 2.75257 -2.86913 0
M  V30 7110 N 671.057 1.43213 0.657864 0
M  V30 7111 C 672.305 1.44298 1.41501 0
M  V30 7112 C 672.626 0.0666478 1.94886 0
M  V30 7113 O 671.896 -0.897345 1.74139 0
M  V30 7114 H 670.476 0.531257 0.525143 0
M  V30 7115 H 673.138 1.78777 0.776195 0
M  V30 7116 H 672.234 2.1528 2.25966 0
M  V30 7117 N 672.536 -0.895792 1.29666 0
M  V30 7118 C 673.468 -2.00563 1.10937 0
M  V30 7119 C 674.481 -1.62705 0.055734 0
M  V30 7120 O 675.67 -1.7595 0.300656 0
M  V30 7121 C 672.77 -3.32262 0.667448 0
M  V30 7122 C 671.943 -3.98625 1.80047 0
M  V30 7123 C 671.002 -5.08617 1.3489 0
M  V30 7124 O 670.028 -5.30837 2.05429 0
M  V30 7125 N 671.23 -5.80076 0.221937 0
M  V30 7126 H 673.995 -2.17184 2.06522 0
M  V30 7127 H 671.556 -1.06822 1.21658 0
M  V30 7128 H 673.548 -4.03196 0.348586 0
M  V30 7129 H 672.118 -3.11985 -0.196055 0
M  V30 7130 H 671.338 -3.21005 2.28801 0
M  V30 7131 H 672.626 -4.39704 2.56003 0
M  V30 7132 H 672.024 -5.64514 -0.366084 0
M  V30 7133 H 670.581 -6.51789 -0.0375346 0
M  V30 7134 N 674.014 -1.12206 -1.10668 0
M  V30 7135 C 675.291 -0.787382 -1.79052 0
M  V30 7136 C 675.671 0.723267 -1.98323 0
M  V30 7137 O 675.019 1.6561 -1.57434 0
M  V30 7138 C 675.229 -1.55968 -3.1221 0
M  V30 7139 C 676.577 -1.74413 -3.87125 0
M  V30 7140 O 677.601 -1.5246 -3.21923 0
M  V30 7141 O 676.46 -2.10952 -5.04144 0
M  V30 7142 H 673.554 -0.286137 -0.775922 0
M  V30 7143 H 676.1 -1.22595 -1.1734 0
M  V30 7144 H 674.872 -2.58692 -2.93588 0
M  V30 7145 H 674.495 -1.1152 -3.8164 0
M  V30 7146 N 675.492 1.28418 -0.913599 0
M  V30 7147 C 676.741 1.94265 -0.542572 0
M  V30 7148 C 677.054 1.72709 0.918207 0
M  V30 7149 O 678.26 2.32778 1.39738 0
M  V30 7150 C 676.716 3.47956 -0.919507 0
M  V30 7151 C 676.324 3.78291 -2.4 0
M  V30 7152 C 678.068 4.19962 -0.619057 0
M  V30 7153 C 675.975 5.2529 -2.71707 0
M  V30 7154 H 674.905 0.727213 -0.199192 0
M  V30 7155 H 677.556 1.45931 -1.11249 0
M  V30 7156 H 675.938 3.9502 -0.278372 0
M  V30 7157 H 677.112 3.42035 -3.08786 0
M  V30 7158 H 675.427 3.19456 -2.67089 0
M  V30 7159 H 678.024 5.28178 -0.832623 0
M  V30 7160 H 678.367 4.13935 0.443126 0
M  V30 7161 H 678.9 3.78674 -1.21865 0
M  V30 7162 H 675.639 5.36394 -3.76778 0
M  V30 7163 H 675.159 5.62743 -2.07559 0
M  V30 7164 H 676.838 5.93027 -2.58703 0
M  V30 7165 N 676.97 0.677563 1.42291 0
M  V30 7166 C 678.386 0.347376 1.55774 0
M  V30 7167 C 678.586 -1.14703 1.65667 0
M  V30 7168 O 677.642 -1.93252 1.62512 0
M  V30 7169 C 678.955 1.08011 2.80631 0
M  V30 7170 C 680.503 1.06271 2.94407 0
M  V30 7171 C 680.978 1.77683 4.22129 0
M  V30 7172 N 682.469 1.74564 4.29047 0
M  V30 7173 C 683.204 2.26673 5.26694 0
M  V30 7174 N 682.7 2.87176 6.30477 0
M  V30 7175 N 684.493 2.17032 5.18511 0
M  V30 7176 H 676.644 1.64703 1.34114 0
M  V30 7177 H 678.907 0.694038 0.645768 0
M  V30 7178 H 678.613 2.13518 2.79469 0
M  V30 7179 H 678.487 0.647115 3.71608 0
M  V30 7180 H 680.874 0.0159658 2.95096 0
M  V30 7181 H 680.955 1.53461 2.04654 0
M  V30 7182 H 680.599 2.82327 4.22201 0
M  V30 7183 H 680.529 1.2794 5.10822 0
M  V30 7184 H 683.02 1.30436 3.54676 0
M  V30 7185 H 683.333 3.24551 7.01346 0
M  V30 7186 H 681.678 2.91247 6.31031 0
M  V30 7187 H 684.869 1.69451 4.36353 0
M  V30 7188 H 685.042 2.57948 5.94446 0
M  V30 7189 N 678.448 -1.51871 0.421078 0
M  V30 7190 C 679.676 -2.06356 -0.14994 0
M  V30 7191 C 680.091 -1.29006 -1.37851 0
M  V30 7192 O 679.448 -0.345139 -1.79207 0
M  V30 7193 C 679.499 -3.58185 -0.488454 0
M  V30 7194 O 679.22 -4.32611 0.691341 0
M  V30 7195 C 680.721 -4.29129 -1.11191 0
M  V30 7196 H 677.941 -0.67083 -0.0151186 0
M  V30 7197 H 680.485 -1.95638 0.595476 0
M  V30 7198 H 678.64 -3.68871 -1.18376 0
M  V30 7199 H 679.054 -5.22927 0.405906 0
M  V30 7200 H 680.528 -5.36501 -1.29889 0
M  V30 7201 H 681.005 -3.86371 -2.0884 0
M  V30 7202 H 681.611 -4.22843 -0.456458 0
M  V30 7203 N 679.926 -0.151884 -1.56866 0
M  V30 7204 C 681.175 0.497992 -1.95456 0
M  V30 7205 C 681.488 1.6569 -1.03953 0
M  V30 7206 O 682.694 2.37173 -1.32142 0
M  V30 7207 C 681.15 0.93732 -3.4748 0
M  V30 7208 C 680.758 -0.194921 -4.47576 0
M  V30 7209 C 682.502 1.55671 -3.94926 0
M  V30 7210 C 680.409 0.26295 -5.90815 0
M  V30 7211 H 679.339 0.189811 -0.729717 0
M  V30 7212 H 681.99 -0.237011 -1.81963 0
M  V30 7213 H 680.372 1.72773 -3.56322 0
M  V30 7214 H 681.546 -0.971951 -4.50433 0
M  V30 7215 H 679.861 -0.72303 -4.10075 0
M  V30 7216 H 682.458 1.91099 -4.99385 0
M  V30 7217 H 682.801 2.44748 -3.36755 0
M  V30 7218 H 683.334 0.831109 -3.89021 0
M  V30 7219 H 680.073 -0.592568 -6.52816 0
M  V30 7220 H 679.593 1.00575 -5.91308 0
M  V30 7221 H 681.272 0.713333 -6.43056 0
M  V30 7222 N 681.404 1.57128 0.121893 0
M  V30 7223 C 682.352 2.01109 1.16868 0
M  V30 7224 C 683.346 0.907532 1.43039 0
M  V30 7225 O 684.552 1.09274 1.43036 0
M  V30 7226 H 680.927 0.640539 0.393971 0
M  V30 7227 H 682.898 2.88261 0.771224 0
M  V30 7228 C 681.647 2.42887 2.48799 0
M  V30 7229 H 680.97 3.2737 2.29498 0
M  V30 7230 H 682.41 2.77461 3.20611 0
M  V30 7231 C 680.869 1.29137 3.11168 0
M  V30 7232 O 681.399 0.605756 3.97106 0
M  V30 7233 N 679.605 1.04916 2.71 0
M  V30 7234 H 679.152 1.60848 2.01211 0
M  V30 7235 H 679.11 0.290016 3.1306 0
M  V30 7236 N 682.882 -0.391992 1.52647 0
M  V30 7237 C 684.128 -1.139 1.67793 0
M  V30 7238 C 684.461 -1.89711 0.41514 0
M  V30 7239 O 683.736 -1.85431 -0.586979 0
M  V30 7240 C 684.019 -2.11966 2.91105 0
M  V30 7241 C 683.872 -1.39939 4.27478 0
M  V30 7242 C 685.191 -3.1243 3.09961 0
M  V30 7243 H 682.31 -0.412707 0.610608 0
M  V30 7244 H 684.952 -0.422725 1.85238 0
M  V30 7245 H 683.102 -2.73048 2.76364 0
M  V30 7246 H 684.774 -0.818439 4.53982 0
M  V30 7247 H 683.017 -0.701246 4.28095 0
M  V30 7248 H 683.688 -2.1158 5.09841 0
M  V30 7249 H 686.164 -2.61435 3.23714 0
M  V30 7250 H 685.04 -3.78294 3.97725 0
M  V30 7251 H 685.301 -3.81127 2.24042 0
M  V30 7252 N 684.36 -1.4356 -0.65026 0
M  V30 7253 C 685.776 -1.27025 -0.966269 0
M  V30 7254 C 685.976 -0.192117 -2.00582 0
M  V30 7255 O 685.032 0.428459 -2.48838 0
M  V30 7256 C 686.345 -2.63556 -1.44772 0
M  V30 7257 C 687.893 -2.71111 -1.56421 0
M  V30 7258 C 688.368 -4.08067 -2.07956 0
M  V30 7259 N 689.859 -4.10146 -2.15254 0
M  V30 7260 C 690.594 -5.12952 -2.56258 0
M  V30 7261 N 690.09 -6.26129 -2.96537 0
M  V30 7262 N 691.883 -5.00306 -2.56224 0
M  V30 7263 H 684.034 -2.12367 0.0375758 0
M  V30 7264 H 686.297 -0.946894 -0.0457782 0
M  V30 7265 H 686.003 -3.43429 -0.758271 0
M  V30 7266 H 685.877 -2.89152 -2.42221 0
M  V30 7267 H 688.264 -1.91569 -2.24467 0
M  V30 7268 H 688.345 -2.49277 -0.573967 0
M  V30 7269 H 687.989 -4.88077 -1.40511 0
M  V30 7270 H 687.919 -4.27266 -3.07817 0
M  V30 7271 H 690.41 -3.28453 -1.86887 0
M  V30 7272 H 690.723 -7.00403 -3.26582 0
M  V30 7273 H 689.068 -6.29597 -2.94334 0
M  V30 7274 H 692.259 -4.10952 -2.24135 0
M  V30 7275 H 692.432 -5.80553 -2.87857 0
M  V30 7276 N 685.838 0.888903 -1.30139 0
M  V30 7277 C 687.085 1.64037 -1.18736 0
M  V30 7278 C 687.413 1.92771 0.258801 0
M  V30 7279 O 686.668 1.54427 1.20212 0
M  V30 7280 C 686.967 2.99041 -1.95728 0
M  V30 7281 C 686.633 2.89874 -3.45375 0
M  V30 7282 C 685.295 2.87082 -3.86183 0
M  V30 7283 C 687.647 2.78289 -4.40687 0
M  V30 7284 C 684.975 2.70536 -5.20603 0
M  V30 7285 C 687.327 2.63282 -5.75209 0
M  V30 7286 C 685.991 2.58861 -6.15262 0
M  V30 7287 H 685.261 0.600253 -0.434485 0
M  V30 7288 H 687.908 1.0338 -1.61198 0
M  V30 7289 H 686.213 3.63626 -1.45888 0
M  V30 7290 H 687.91 3.56139 -1.843 0
M  V30 7291 H 684.5 2.92856 -3.12943 0
M  V30 7292 H 688.684 2.79516 -4.10103 0
M  V30 7293 H 683.94 2.65526 -5.50732 0
M  V30 7294 H 688.114 2.5329 -6.48704 0
M  V30 7295 H 685.741 2.45799 -7.19366 0
M  V30 7296 N 687.317 1.12792 1.10072 0
M  V30 7297 C 688.247 0.821688 2.18565 0
M  V30 7298 C 689.228 -0.21612 1.68721 0
M  V30 7299 O 690.413 -0.0764932 1.94049 0
M  V30 7300 C 687.543 0.279624 3.46172 0
M  V30 7301 C 686.497 1.25092 4.09312 0
M  V30 7302 C 685.823 0.568916 5.31665 0
M  V30 7303 C 687.123 2.60699 4.52585 0
M  V30 7304 H 688.817 1.72888 2.44438 0
M  V30 7305 H 686.363 0.832702 1.17482 0
M  V30 7306 H 688.316 0.053099 4.21367 0
M  V30 7307 H 687.04 -0.662929 3.19801 0
M  V30 7308 H 685.699 1.46332 3.36129 0
M  V30 7309 H 685.347 -0.378898 5.01571 0
M  V30 7310 H 685.047 1.21687 5.74862 0
M  V30 7311 H 686.571 0.351517 6.09587 0
M  V30 7312 H 687.985 2.43465 5.19035 0
M  V30 7313 H 686.382 3.21608 5.06644 0
M  V30 7314 H 687.452 3.1886 3.65317 0
M  V30 7315 N 688.795 -1.27931 0.920396 0
M  V30 7316 C 690.211 -1.47085 0.619537 0
M  V30 7317 C 690.411 -1.83463 -0.833291 0
M  V30 7318 O 689.467 -1.94363 -1.61181 0
M  V30 7319 C 690.78 -2.56878 1.56314 0
M  V30 7320 C 692.328 -2.70743 1.57058 0
M  V30 7321 C 692.803 -3.83687 2.50097 0
M  V30 7322 N 694.294 -3.9105 2.48262 0
M  V30 7323 C 695.029 -4.77842 3.16945 0
M  V30 7324 N 694.525 -5.69176 3.94982 0
M  V30 7325 N 696.318 -4.71509 3.06 0
M  V30 7326 H 688.469 -1.02601 1.85975 0
M  V30 7327 H 690.732 -0.511682 0.798051 0
M  V30 7328 H 690.438 -2.36923 2.59923 0
M  V30 7329 H 690.312 -3.54117 1.29928 0
M  V30 7330 H 692.699 -2.90083 0.541832 0
M  V30 7331 H 692.78 -1.74015 1.8749 0
M  V30 7332 H 692.424 -3.65101 3.53077 0
M  V30 7333 H 692.354 -4.79827 2.16964 0
M  V30 7334 H 694.845 -3.25738 1.91581 0
M  V30 7335 H 695.158 -6.32245 4.44394 0
M  V30 7336 H 693.503 -5.68995 3.99086 0
M  V30 7337 H 696.694 -3.99151 2.44533 0
M  V30 7338 H 696.867 -5.38933 3.59799 0
M  V30 7339 N 690.273 -0.685099 -1.4193 0
M  V30 7340 C 691.183 -0.013404 -2.34596 0
M  V30 7341 C 692.199 0.777589 -1.55658 0
M  V30 7342 O 693.375 0.717553 -1.88184 0
M  V30 7343 C 690.44 0.919031 -3.34297 0
M  V30 7344 C 689.501 0.121417 -4.29128 0
M  V30 7345 C 688.734 1.00944 -5.24067 0
M  V30 7346 O 688.957 2.24898 -5.24192 0
M  V30 7347 O 687.891 0.464724 -6.00103 0
M  V30 7348 H 691.717 -0.776978 -2.93593 0
M  V30 7349 H 689.302 -0.445379 -1.42607 0
M  V30 7350 H 691.184 1.45402 -3.9552 0
M  V30 7351 H 689.859 1.66228 -2.77759 0
M  V30 7352 H 688.766 -0.45792 -3.71287 0
M  V30 7353 H 690.099 -0.582937 -4.88736 0
M  V30 7354 N 691.751 1.51645 -0.429126 0
M  V30 7355 C 693 2.01203 0.141538 0
M  V30 7356 C 693.313 1.31828 1.44502 0
M  V30 7357 O 694.519 1.7231 2.09813 0
M  V30 7358 C 692.975 3.58624 0.302786 0
M  V30 7359 C 692.583 4.3693 -0.989775 0
M  V30 7360 C 694.327 4.16353 0.827661 0
M  V30 7361 C 692.234 5.86037 -0.794619 0
M  V30 7362 H 691.164 0.751867 0.05667 0
M  V30 7363 H 693.815 1.74822 -0.557633 0
M  V30 7364 H 692.197 3.81417 1.06476 0
M  V30 7365 H 693.371 4.25887 -1.75945 0
M  V30 7366 H 691.686 3.90614 -1.44256 0
M  V30 7367 H 694.283 5.25455 0.990026 0
M  V30 7368 H 694.626 3.74995 1.80787 0
M  V30 7369 H 695.159 3.97606 0.124213 0
M  V30 7370 H 691.898 6.31792 -1.74697 0
M  V30 7371 H 691.418 5.99765 -0.0645968 0
M  V30 7372 H 693.097 6.45471 -0.444591 0
M  V30 7373 N 693.229 0.160201 1.56784 0
M  V30 7374 C 694.478 -0.487619 1.95717 0
M  V30 7375 C 694.791 -1.65136 1.0483 0
M  V30 7376 O 695.997 -2.36468 1.33398 0
M  V30 7377 C 694.453 -0.91888 3.47972 0
M  V30 7378 C 694.061 0.218655 4.47466 0
M  V30 7379 C 695.805 -1.53575 3.95746 0
M  V30 7380 C 693.712 -0.231614 5.90946 0
M  V30 7381 H 692.642 -0.185939 0.730714 0
M  V30 7382 H 695.293 0.246657 1.81835 0
M  V30 7383 H 693.675 -1.70881 3.57234 0
M  V30 7384 H 694.849 0.995825 4.49911 0
M  V30 7385 H 693.164 0.744767 4.09685 0
M  V30 7386 H 695.761 -1.88448 5.00391 0
M  V30 7387 H 696.104 -2.42959 3.38048 0
M  V30 7388 H 696.637 -0.810467 3.89456 0
M  V30 7389 H 693.376 0.62718 6.52493 0
M  V30 7390 H 692.896 -0.974379 5.91833 0
M  V30 7391 H 694.575 -0.67922 6.43425 0
M  V30 7392 N 694.707 -1.5719 -0.113559 0
M  V30 7393 C 695.955 -1.84772 -0.818761 0
M  V30 7394 C 696.276 -0.746196 -1.80158 0
M  V30 7395 O 695.546 0.229305 -1.94553 0
M  V30 7396 H 694.126 -0.681737 -0.305359 0
M  V30 7397 H 696.788 -1.94645 -0.0995845 0
M  V30 7398 H 695.884 -2.80878 -1.36067 0
M  V30 7399 N 696.185 0.383891 -1.52853 0
M  V30 7400 C 697.431 1.13009 -1.68395 0
M  V30 7401 C 697.764 1.89488 -0.425195 0
M  V30 7402 O 697.039 1.8574 0.577136 0
M  V30 7403 C 697.322 2.10419 -2.92226 0
M  V30 7404 C 697.175 1.3767 -4.28214 0
M  V30 7405 C 698.494 3.10781 -3.11614 0
M  V30 7406 H 695.613 0.409463 -0.612788 0
M  V30 7407 H 698.255 0.412895 -1.85459 0
M  V30 7408 H 696.405 2.71579 -2.77808 0
M  V30 7409 H 698.077 0.794352 -4.54409 0
M  V30 7410 H 696.32 0.678533 -4.2846 0
M  V30 7411 H 696.991 2.08874 -5.10956 0
M  V30 7412 H 699.467 2.59715 -3.25096 0
M  V30 7413 H 698.343 3.76179 -3.99725 0
M  V30 7414 H 698.604 3.79933 -2.2606 0
M  V30 7415 N 697.663 1.43903 0.642637 0
M  V30 7416 C 698.909 1.46296 1.40447 0
M  V30 7417 C 699.242 0.0908361 1.93987 0
M  V30 7418 O 698.517 -0.889884 1.72949 0
M  V30 7419 C 698.8 2.51399 2.57819 0
M  V30 7420 C 698.653 3.97926 2.09702 0
M  V30 7421 C 699.972 2.53125 3.60022 0
M  V30 7422 H 697.091 0.532676 0.509338 0
M  V30 7423 H 699.733 1.75515 0.727635 0
M  V30 7424 H 697.883 2.26614 3.1556 0
M  V30 7425 H 699.555 4.33804 1.5688 0
M  V30 7426 H 697.798 4.10252 1.40982 0
M  V30 7427 H 698.469 4.67096 2.94152 0
M  V30 7428 H 700.945 2.75242 3.12059 0
M  V30 7429 H 699.821 3.28589 4.39682 0
M  V30 7430 H 700.082 1.56895 4.13324 0
M  V30 7431 N 699.141 -0.881989 1.30609 0
M  V30 7432 C 700.366 -1.67236 1.22665 0
M  V30 7433 C 700.791 -1.8696 -0.206777 0
M  V30 7434 O 700.149 -1.4027 -1.14865 0
M  V30 7435 C 700.197 -3.02446 1.96363 0
M  V30 7436 O 699.301 -3.91614 1.29276 0
M  V30 7437 H 698.642 -0.510902 0.424117 0
M  V30 7438 H 701.172 -1.10055 1.72479 0
M  V30 7439 H 701.182 -3.52468 2.055 0
M  V30 7440 H 699.857 -2.8741 3.00613 0
M  V30 7441 H 698.434 -3.50055 1.28514 0
M  V30 7442 N 700.619 -1.13374 -1.09472 0
M  V30 7443 C 701.551 -0.768466 -2.15933 0
M  V30 7444 C 702.564 0.209585 -1.61445 0
M  V30 7445 O 703.753 -0.010539 -1.78497 0
M  V30 7446 C 700.853 -0.118266 -3.38694 0
M  V30 7447 C 700.026 -1.12829 -4.22597 0
M  V30 7448 C 699.085 -0.503875 -5.23782 0
M  V30 7449 O 698.111 -1.16374 -5.57177 0
M  V30 7450 N 699.313 0.724288 -5.75964 0
M  V30 7451 H 702.078 -1.68457 -2.47876 0
M  V30 7452 H 699.639 -1.02668 -1.25183 0
M  V30 7453 H 701.631 0.311698 -4.03498 0
M  V30 7454 H 700.201 0.700769 -3.04644 0
M  V30 7455 H 699.421 -1.73556 -3.53938 0
M  V30 7456 H 700.709 -1.81095 -4.75481 0
M  V30 7457 H 700.107 1.27918 -5.51048 0
M  V30 7458 H 698.664 1.09692 -6.42504 0
M  V30 7459 N 702.098 1.27442 -0.927168 0
M  V30 7460 C 703.008 2.30599 -0.431448 0
M  V30 7461 C 704.024 1.67028 0.48761 0
M  V30 7462 O 705.2 1.97962 0.370546 0
M  V30 7463 C 702.265 3.45327 0.308292 0
M  V30 7464 C 701.326 4.24418 -0.645615 0
M  V30 7465 C 700.559 5.33667 0.0589164 0
M  V30 7466 O 700.782 5.5589 1.27838 0
M  V30 7467 O 699.716 5.98774 -0.612638 0
M  V30 7468 H 703.542 2.75036 -1.28797 0
M  V30 7469 H 701.127 1.32382 -0.692495 0
M  V30 7470 H 703.009 4.15107 0.725555 0
M  V30 7471 H 701.684 3.02945 1.14043 0
M  V30 7472 H 700.591 3.57174 -1.11255 0
M  V30 7473 H 701.924 4.70512 -1.44496 0
M  V30 7474 N 703.576 0.692616 1.41565 0
M  V30 7475 C 704.987 0.297478 1.84315 0
M  V30 7476 C 705.338 -1.16379 1.57957 0
M  V30 7477 O 704.463 -1.89303 1.0485 0
M  V30 7478 C 705.058 0.533136 3.34579 0
M  V30 7479 C 703.617 0.191944 3.7591 0
M  V30 7480 C 702.764 0.816873 2.64995 0
M  V30 7481 H 705.715 0.893488 1.31158 0
M  V30 7482 H 705.736 -0.209105 3.79925 0
M  V30 7483 H 705.248 1.59674 3.53731 0
M  V30 7484 H 703.349 -0.867512 3.6236 0
M  V30 7485 H 703.462 0.644902 4.7474 0
M  V30 7486 H 701.826 0.246715 2.53502 0
M  V30 7487 H 702.609 1.88429 2.86966 0
M  V30 7488 N 705.054 -1.51416 0.437162 0
M  V30 7489 C 706.3 -2.02386 -0.129555 0
M  V30 7490 C 706.633 -1.32071 -1.42376 0
M  V30 7491 O 705.908 -0.43559 -1.8956 0
M  V30 7492 C 706.191 -3.5841 -0.348487 0
M  V30 7493 C 706.044 -4.39341 0.964352 0
M  V30 7494 C 707.363 -4.25654 -1.11834 0
M  V30 7495 H 704.482 -0.735587 -0.0456109 0
M  V30 7496 H 707.124 -1.81055 0.576124 0
M  V30 7497 H 705.274 -3.76716 -0.949592 0
M  V30 7498 H 706.946 -4.32685 1.59942 0
M  V30 7499 H 705.189 -4.04432 1.56898 0
M  V30 7500 H 705.86 -5.4667 0.765212 0
M  V30 7501 H 708.336 -4.11617 -0.609165 0
M  V30 7502 H 707.212 -5.34704 -1.24029 0
M  V30 7503 H 707.473 -3.86502 -2.14636 0
M  V30 7504 N 706.532 -0.168513 -1.56696 0
M  V30 7505 C 707.462 0.758563 -2.20835 0
M  V30 7506 C 708.443 1.24121 -1.1631 0
M  V30 7507 O 709.628 1.29487 -1.4473 0
M  V30 7508 C 706.758 1.9892 -2.8469 0
M  V30 7509 C 705.712 1.64252 -3.95228 0
M  V30 7510 C 705.038 2.94757 -4.46119 0
M  V30 7511 C 706.338 0.872675 -5.14958 0
M  V30 7512 H 708.032 0.223953 -2.98561 0
M  V30 7513 H 705.578 0.106277 -1.43607 0
M  V30 7514 H 707.531 2.64275 -3.28233 0
M  V30 7515 H 706.255 2.5479 -2.04327 0
M  V30 7516 H 704.914 1.01266 -3.52336 0
M  V30 7517 H 704.562 3.48662 -3.62552 0
M  V30 7518 H 704.262 2.72316 -5.2069 0
M  V30 7519 H 705.786 3.61147 -4.92347 0
M  V30 7520 H 707.2 1.42875 -5.55211 0
M  V30 7521 H 705.597 0.747402 -5.95428 0
M  V30 7522 H 706.667 -0.131535 -4.84722 0
M  V30 7523 N 708.01 1.57248 0.105221 0
M  V30 7524 C 709.257 1.8557 0.810552 0
M  V30 7525 C 709.585 0.755595 1.79223 0
M  V30 7526 O 708.84 -0.251788 1.94073 0
M  V30 7527 C 709.139 3.20437 1.58287 0
M  V30 7528 C 708.805 4.44716 0.744235 0
M  V30 7529 C 707.467 4.78458 0.513013 0
M  V30 7530 C 709.819 5.20953 0.160578 0
M  V30 7531 C 707.147 5.8587 -0.311894 0
M  V30 7532 C 709.499 6.29235 -0.651596 0
M  V30 7533 C 708.163 6.615 -0.893005 0
M  V30 7534 H 707.433 0.67905 0.296602 0
M  V30 7535 H 710.08 1.91363 0.0723968 0
M  V30 7536 H 708.385 3.10283 2.39232 0
M  V30 7537 H 710.082 3.39576 2.13282 0
M  V30 7538 H 706.672 4.18287 0.934555 0
M  V30 7539 H 710.856 4.95226 0.3264 0
M  V30 7540 H 706.112 6.09286 -0.508012 0
M  V30 7541 H 710.286 6.87484 -1.11077 0
M  V30 7542 H 707.913 7.44562 -1.53401 0
M  V30 7543 N 709.488 -0.375779 1.53054 0
M  V30 7544 C 710.451 -1.44254 1.7811 0
M  V30 7545 C 711.451 -1.47018 0.651328 0
M  V30 7546 O 712.641 -1.47957 0.919472 0
M  V30 7547 C 709.773 -2.8345 1.89391 0
M  V30 7548 H 710.966 -1.23316 2.73374 0
M  V30 7549 H 708.519 -0.608312 1.43977 0
M  V30 7550 H 709.254 -3.09716 0.961589 0
M  V30 7551 H 709.039 -2.82844 2.71555 0
M  V30 7552 H 710.529 -3.60722 2.10404 0
M  V30 7553 N 710.966 -1.44241 -0.634997 0
M  V30 7554 C 712.194 -1.50296 -1.42193 0
M  V30 7555 C 712.609 -0.12658 -1.88375 0
M  V30 7556 O 711.966 0.86678 -1.60603 0
M  V30 7557 C 712.017 -2.46437 -2.64482 0
M  V30 7558 O 711.738 -3.78724 -2.20226 0
M  V30 7559 C 713.239 -2.61918 -3.57651 0
M  V30 7560 H 710.459 -0.509865 -0.43621 0
M  V30 7561 H 713.003 -1.89167 -0.776921 0
M  V30 7562 H 711.158 -2.10712 -3.25083 0
M  V30 7563 H 711.572 -4.30595 -2.9948 0
M  V30 7564 H 713.046 -3.33225 -4.40074 0
M  V30 7565 H 713.523 -1.67017 -4.06204 0
M  V30 7566 H 714.129 -2.98528 -3.02921 0
M  V30 7567 N 712.444 0.87505 -1.31075 0
M  V30 7568 C 713.672 1.66058 -1.23419 0
M  V30 7569 C 714.087 1.87723 0.201347 0
M  V30 7570 O 713.444 1.43178 1.13165 0
M  V30 7571 C 713.495 3.03142 -1.96945 0
M  V30 7572 O 713.216 2.82448 -3.34895 0
M  V30 7573 C 714.717 3.97583 -1.96067 0
M  V30 7574 H 711.937 0.517868 -0.426677 0
M  V30 7575 H 714.481 1.09258 -1.72867 0
M  V30 7576 H 712.636 3.56645 -1.51271 0
M  V30 7577 H 713.05 3.69483 -3.72267 0
M  V30 7578 H 714.524 4.91104 -2.52034 0
M  V30 7579 H 715.001 4.2898 -0.941961 0
M  V30 7580 H 715.607 3.50015 -2.41597 0
M  V30 7581 N 713.922 1.13953 1.08869 0
M  V30 7582 C 715.171 0.899431 1.80536 0
M  V30 7583 C 715.484 -0.575781 1.86933 0
M  V30 7584 O 716.69 -0.932988 2.54966 0
M  V30 7585 C 715.146 1.55963 3.24351 0
M  V30 7586 C 714.754 3.07077 3.26202 0
M  V30 7587 C 716.498 1.40046 4.00733 0
M  V30 7588 C 714.405 3.65955 4.64576 0
M  V30 7589 H 713.335 0.332849 0.676556 0
M  V30 7590 H 715.986 1.3679 1.22314 0
M  V30 7591 H 714.368 1.01883 3.82669 0
M  V30 7592 H 715.542 3.67785 2.77617 0
M  V30 7593 H 713.857 3.22576 2.63312 0
M  V30 7594 H 716.454 1.81441 5.02974 0
M  V30 7595 H 716.797 0.345993 4.1486 0
M  V30 7596 H 717.33 1.91137 3.48872 0
M  V30 7597 H 714.069 4.71234 4.55652 0
M  V30 7598 H 713.589 3.10027 5.13462 0
M  V30 7599 H 715.268 3.65968 5.33551 0
M  V30 7600 N 715.4 -1.26948 0.933913 0
M  V30 7601 C 716.363 -2.24889 0.442457 0
M  V30 7602 C 717.363 -1.54594 -0.442426 0
M  V30 7603 O 718.553 -1.72502 -0.242629 0
M  V30 7604 C 715.685 -3.3896 -0.363173 0
M  V30 7605 H 716.878 -2.69879 1.30787 0
M  V30 7606 H 714.431 -1.38978 0.715187 0
M  V30 7607 H 715.166 -2.99361 -1.24714 0
M  V30 7608 H 714.951 -3.9116 0.271366 0
M  V30 7609 H 716.441 -4.11739 -0.697186 0
M  V30 7610 N 716.879 -0.700114 -1.41195 0
M  V30 7611 C 717.789 -0.0382854 -2.34569 0
M  V30 7612 C 718.805 0.761036 -1.56474 0
M  V30 7613 O 719.981 0.697553 -1.88934 0
M  V30 7614 C 717.046 0.883522 -3.35253 0
M  V30 7615 C 716.107 0.0758957 -4.29233 0
M  V30 7616 C 715.34 0.9538 -5.25108 0
M  V30 7617 O 715.563 2.19326 -5.26547 0
M  V30 7618 O 714.497 0.401049 -6.00562 0
M  V30 7619 H 718.323 -0.808073 -2.92752 0
M  V30 7620 H 715.908 -0.460479 -1.42127 0
M  V30 7621 H 717.79 1.41199 -3.9704 0
M  V30 7622 H 716.465 1.63272 -2.79506 0
M  V30 7623 H 715.372 -0.497274 -3.7078 0
M  V30 7624 H 716.705 -0.634741 -4.8809 0
M  V30 7625 N 718.357 1.51182 -0.445186 0
M  V30 7626 C 719.305 2.29531 0.376597 0
M  V30 7627 C 720.299 1.35711 1.01385 0
M  V30 7628 O 721.505 1.53018 0.947922 0
M  V30 7629 H 717.88 0.738803 0.140267 0
M  V30 7630 H 719.851 2.96838 -0.304958 0
M  V30 7631 C 718.6 3.1552 1.4609 0
M  V30 7632 H 717.923 3.87605 0.979912 0
M  V30 7633 H 719.363 3.73384 2.009 0
M  V30 7634 C 717.822 2.31406 2.44852 0
M  V30 7635 O 718.352 1.97912 3.49562 0
M  V30 7636 N 716.558 1.94478 2.15932 0
M  V30 7637 H 716.105 2.21917 1.30808 0
M  V30 7638 H 716.063 1.38498 2.82251 0
M  V30 7639 N 719.835 0.176821 1.56605 0
M  V30 7640 C 721.084 -0.466833 1.96223 0
M  V30 7641 C 721.397 -1.64015 1.06576 0
M  V30 7642 O 722.603 -2.3504 1.35898 0
M  V30 7643 C 721.059 -0.881921 3.48927 0
M  V30 7644 C 720.667 0.266102 4.47209 0
M  V30 7645 C 722.411 -1.49368 3.97353 0
M  V30 7646 C 720.318 -0.168923 5.91159 0
M  V30 7647 H 719.248 -0.178178 0.732645 0
M  V30 7648 H 721.899 0.265929 1.81563 0
M  V30 7649 H 720.281 -1.67082 3.59026 0
M  V30 7650 H 721.455 1.04349 4.4883 0
M  V30 7651 H 719.77 0.788178 4.08872 0
M  V30 7652 H 722.367 -1.8313 5.02362 0
M  V30 7653 H 722.71 -2.3936 3.40606 0
M  V30 7654 H 723.243 -0.769114 3.90294 0
M  V30 7655 H 719.982 0.696351 6.51791 0
M  V30 7656 H 719.502 -0.911552 5.92833 0
M  V30 7657 H 721.181 -0.610938 6.44109 0
M  V30 7658 N 721.313 -1.57302 -0.09688 0
M  V30 7659 C 722.729 -1.53094 -0.451041 0
M  V30 7660 C 722.929 -0.893265 -1.80618 0
M  V30 7661 O 721.985 -0.485013 -2.47798 0
M  V30 7662 C 723.298 -2.9782 -0.415172 0
M  V30 7663 C 724.846 -3.09026 -0.497155 0
M  V30 7664 C 725.321 -4.55356 -0.491452 0
M  V30 7665 N 726.812 -4.59896 -0.552258 0
M  V30 7666 C 727.547 -5.70563 -0.569654 0
M  V30 7667 N 727.043 -6.90666 -0.543365 0
M  V30 7668 N 728.836 -5.58733 -0.614331 0
M  V30 7669 H 720.987 -1.97131 0.790771 0
M  V30 7670 H 723.25 -0.901211 0.294147 0
M  V30 7671 H 722.956 -3.47933 0.513362 0
M  V30 7672 H 722.83 -3.56416 -1.23481 0
M  V30 7673 H 725.217 -2.58902 -1.41611 0
M  V30 7674 H 725.298 -2.53386 0.35059 0
M  V30 7675 H 724.942 -5.06131 0.423549 0
M  V30 7676 H 724.872 -5.08832 -1.35639 0
M  V30 7677 H 727.363 -3.73456 -0.577842 0
M  V30 7678 H 727.676 -7.70769 -0.559873 0
M  V30 7679 H 726.021 -6.93123 -0.510441 0
M  V30 7680 H 729.212 -4.63809 -0.632387 0
M  V30 7681 H 729.385 -6.44984 -0.62442 0
M  V30 7682 N 722.791 0.367657 -1.53252 0
M  V30 7683 C 724.021 1.12955 -1.72988 0
M  V30 7684 C 724.429 1.8358 -0.457708 0
M  V30 7685 O 723.772 1.74336 0.579006 0
M  V30 7686 C 723.834 2.20545 -2.83902 0
M  V30 7687 C 723.498 1.69704 -4.24323 0
M  V30 7688 C 724.495 1.16223 -5.06743 0
M  V30 7689 C 722.18 1.7528 -4.70725 0
M  V30 7690 C 724.174 0.689935 -6.33655 0
M  V30 7691 C 721.861 1.27662 -5.97617 0
M  V30 7692 C 722.859 0.746083 -6.78913 0
M  V30 7693 O 722.547 0.276925 -8.03423 0
M  V30 7694 H 722.279 0.343753 -0.582074 0
M  V30 7695 H 724.833 0.433106 -2.00782 0
M  V30 7696 H 723.063 2.93676 -2.51577 0
M  V30 7697 H 724.752 2.82111 -2.91836 0
M  V30 7698 H 725.518 1.11256 -4.72067 0
M  V30 7699 H 721.397 2.15515 -4.07522 0
M  V30 7700 H 724.941 0.275164 -6.97057 0
M  V30 7701 H 720.838 1.32322 -6.31792 0
M  V30 7702 H 721.606 0.396445 -8.17539 0
M  V30 7703 N 724.269 1.44576 0.627338 0
M  V30 7704 C 725.517 1.47267 1.38408 0
M  V30 7705 C 725.838 0.107971 1.94701 0
M  V30 7706 O 725.108 -0.860206 1.76004 0
M  V30 7707 H 723.688 0.542276 0.513756 0
M  V30 7708 H 726.35 1.80383 0.738099 0
M  V30 7709 H 725.446 2.20025 2.21349 0
M  V30 7710 N 725.747 -0.868086 1.31537 0
M  V30 7711 C 727.163 -1.15414 1.10235 0
M  V30 7712 C 727.363 -2.01106 -0.125947 0
M  V30 7713 O 726.419 -2.38994 -0.814734 0
M  V30 7714 C 727.732 -1.84445 2.37488 0
M  V30 7715 C 729.28 -1.97139 2.43116 0
M  V30 7716 C 729.755 -2.69585 3.70254 0
M  V30 7717 N 731.246 -2.77119 3.71159 0
M  V30 7718 C 731.981 -3.33791 4.6623 0
M  V30 7719 N 731.477 -3.9138 5.71659 0
M  V30 7720 N 733.27 -3.31767 4.53747 0
M  V30 7721 H 725.421 -0.297109 2.10312 0
M  V30 7722 H 727.684 -0.194227 0.92789 0
M  V30 7723 H 727.39 -1.2893 3.27215 0
M  V30 7724 H 727.264 -2.84709 2.47428 0
M  V30 7725 H 729.651 -2.51818 1.53856 0
M  V30 7726 H 729.732 -0.95912 2.37138 0
M  V30 7727 H 729.376 -2.15572 4.59881 0
M  V30 7728 H 729.306 -3.71223 3.73499 0
M  V30 7729 H 731.797 -2.3625 2.94948 0
M  V30 7730 H 732.11 -4.3274 6.40278 0
M  V30 7731 H 730.455 -3.8975 5.7543 0
M  V30 7732 H 733.646 -2.86016 3.70557 0
M  V30 7733 H 733.819 -3.75636 5.28017 0
M  V30 7734 N 727.225 -1.14528 -1.08264 0
M  V30 7735 C 728.135 -0.84728 -2.18765 0
M  V30 7736 C 729.151 0.172826 -1.7314 0
M  V30 7737 O 730.327 0.000985336 -2.014 0
M  V30 7738 C 727.392 -0.330633 -3.4512 0
M  V30 7739 C 726.453 -1.41348 -4.05363 0
M  V30 7740 C 725.686 -0.921387 -5.25686 0
M  V30 7741 O 725.909 0.236587 -5.69909 0
M  V30 7742 O 724.843 -1.70101 -5.77364 0
M  V30 7743 H 728.669 -1.7708 -2.46731 0
M  V30 7744 H 726.254 -0.923661 -1.17426 0
M  V30 7745 H 728.136 -0.0485053 -4.21372 0
M  V30 7746 H 726.811 0.565147 -3.18728 0
M  V30 7747 H 725.718 -1.74908 -3.30693 0
M  V30 7748 H 727.051 -2.28383 -4.36007 0
M  V30 7749 N 728.703 1.26451 -0.940633 0
M  V30 7750 C 729.651 2.28389 -0.440581 0
M  V30 7751 C 730.645 1.62402 0.481859 0
M  V30 7752 O 731.851 1.76361 0.360132 0
M  V30 7753 H 728.226 0.741716 -0.123938 0
M  V30 7754 H 730.197 2.67967 -1.31288 0
M  V30 7755 C 728.946 3.46576 0.279364 0
M  V30 7756 H 728.269 3.97574 -0.421274 0
M  V30 7757 H 729.709 4.19826 0.59348 0
M  V30 7758 C 728.168 3.01815 1.49697 0
M  V30 7759 O 728.698 3.06607 2.59529 0
M  V30 7760 N 726.904 2.57163 1.35334 0
M  V30 7761 H 726.451 2.53464 0.459743 0
M  V30 7762 H 726.409 2.27578 2.16923 0
M  V30 7763 N 730.181 0.707592 1.40822 0
M  V30 7764 C 731.427 0.244031 2.01326 0
M  V30 7765 C 731.76 -1.15722 1.55955 0
M  V30 7766 O 731.035 -1.78347 0.776044 0
M  V30 7767 C 731.318 0.315128 3.58718 0
M  V30 7768 C 731.171 1.75419 4.14184 0
M  V30 7769 C 732.49 -0.318251 4.38948 0
M  V30 7770 H 729.609 0.0901471 0.731466 0
M  V30 7771 H 732.251 0.898584 1.67408 0
M  V30 7772 H 730.401 -0.242176 3.87744 0
M  V30 7773 H 732.073 2.36626 3.95987 0
M  V30 7774 H 730.316 2.28449 3.68773 0
M  V30 7775 H 730.987 1.75538 5.23345 0
M  V30 7776 H 733.463 0.156514 4.15806 0
M  V30 7777 H 732.339 -0.238019 5.48384 0
M  V30 7778 H 732.6 -1.40067 4.19325 0
M  V30 7779 N 731.66 -1.50943 0.453197 0
M  V30 7780 C 732.888 -2.06628 -0.106135 0
M  V30 7781 C 733.303 -1.31901 -1.35084 0
M  V30 7782 O 732.66 -0.383074 -1.78434 0
M  V30 7783 C 732.711 -3.5914 -0.412368 0
M  V30 7784 O 732.432 -4.31047 0.782948 0
M  V30 7785 C 733.933 -4.31391 -1.02064 0
M  V30 7786 H 731.153 -0.670999 -0.000885896 0
M  V30 7787 H 733.697 -1.94331 0.63684 0
M  V30 7788 H 731.852 -3.71299 -1.10526 0
M  V30 7789 H 732.266 -5.21948 0.516736 0
M  V30 7790 H 733.74 -5.39135 -1.1848 0
M  V30 7791 H 734.217 -3.90714 -2.00598 0
M  V30 7792 H 734.823 -4.23716 -0.366664 0
M  V30 7793 N 733.138 -0.185124 -1.56509 0
M  V30 7794 C 734.071 0.77877 -2.145 0
M  V30 7795 C 735.049 1.21649 -1.07891 0
M  V30 7796 O 736.233 1.30579 -1.35946 0
M  V30 7797 C 733.36 2.05048 -2.69579 0
M  V30 7798 C 732.406 1.75569 -3.88687 0
M  V30 7799 S 733.239 0.912642 -5.27666 0
M  V30 7800 C 734.395 2.19471 -5.8616 0
M  V30 7801 H 734.628 0.285751 -2.95924 0
M  V30 7802 H 732.161 0.0297417 -1.54371 0
M  V30 7803 H 734.119 2.78085 -3.01958 0
M  V30 7804 H 732.78 2.51462 -1.88216 0
M  V30 7805 H 731.973 2.69962 -4.25601 0
M  V30 7806 H 731.575 1.10619 -3.57267 0
M  V30 7807 H 733.867 3.14815 -5.99915 0
M  V30 7808 H 734.81 1.87005 -6.8296 0
M  V30 7809 H 735.218 2.31862 -5.14685 0
M  V30 7810 N 734.616 1.57351 0.0885366 0
M  V30 7811 C 735.893 1.77449 0.822873 0
M  V30 7812 C 736.273 0.768463 1.96616 0
M  V30 7813 O 735.621 -0.201757 2.27608 0
M  V30 7814 C 735.831 3.23425 1.31137 0
M  V30 7815 C 737.179 3.86791 1.75152 0
M  V30 7816 O 738.203 3.27215 1.40745 0
M  V30 7817 O 737.062 4.91568 2.38794 0
M  V30 7818 H 734.156 0.727653 0.393002 0
M  V30 7819 H 736.702 1.69556 0.0699095 0
M  V30 7820 H 735.474 3.88188 0.49254 0
M  V30 7821 H 735.097 3.35977 2.12615 0
M  V30 7822 N 736.094 -0.359525 1.53444 0
M  V30 7823 C 737.004 -1.46445 1.83278 0
M  V30 7824 C 738.02 -1.5833 0.721629 0
M  V30 7825 O 739.196 -1.7411 1.01231 0
M  V30 7826 C 736.261 -2.81638 2.02191 0
M  V30 7827 C 735.322 -2.7923 3.26082 0
M  V30 7828 C 734.555 -4.07974 3.44082 0
M  V30 7829 O 734.778 -5.04447 2.66251 0
M  V30 7830 O 733.712 -4.13417 4.37458 0
M  V30 7831 H 737.538 -1.24156 2.77162 0
M  V30 7832 H 735.123 -0.550201 1.389 0
M  V30 7833 H 737.005 -3.61732 2.16167 0
M  V30 7834 H 735.68 -3.03892 1.11496 0
M  V30 7835 H 734.587 -1.97813 3.17523 0
M  V30 7836 H 735.92 -2.6193 4.16718 0
M  V30 7837 N 737.572 -1.44907 -0.619662 0
M  V30 7838 C 738.821 -1.47569 -1.37501 0
M  V30 7839 C 739.134 -0.116707 -1.95252 0
M  V30 7840 O 740.34 -0.020909 -2.71492 0
M  V30 7841 C 738.796 -2.59851 -2.49009 0
M  V30 7842 C 738.404 -4.02008 -1.97722 0
M  V30 7843 C 740.148 -2.71746 -3.2612 0
M  V30 7844 C 738.055 -5.05693 -3.0664 0
M  V30 7845 H 736.985 -0.549068 -0.51676 0
M  V30 7846 H 739.636 -1.71009 -0.665437 0
M  V30 7847 H 738.018 -2.29671 -3.22594 0
M  V30 7848 H 739.192 -4.41809 -1.30925 0
M  V30 7849 H 737.507 -3.94456 -1.33392 0
M  V30 7850 H 740.104 -3.46382 -4.07337 0
M  V30 7851 H 740.447 -1.77959 -3.76346 0
M  V30 7852 H 740.98 -3.01392 -2.5963 0
M  V30 7853 H 737.719 -6.01148 -2.61345 0
M  V30 7854 H 737.239 -4.70473 -3.72042 0
M  V30 7855 H 738.918 -5.29906 -3.71226 0
M  V30 7856 N 739.05 0.861098 -1.31996 0
M  V30 7857 C 739.96 2.00154 -1.22374 0
M  V30 7858 C 740.976 1.73447 -0.138631 0
M  V30 7859 O 742.152 1.98191 -0.358104 0
M  V30 7860 C 739.217 3.33696 -0.940645 0
M  V30 7861 C 738.278 3.73668 -2.11355 0
M  V30 7862 C 737.511 5.00837 -1.84386 0
M  V30 7863 O 737.734 5.64996 -0.783287 0
M  V30 7864 O 736.668 5.37787 -2.70313 0
M  V30 7865 H 740.494 2.11207 -2.18233 0
M  V30 7866 H 738.079 0.990768 -1.11822 0
M  V30 7867 H 739.961 4.13756 -0.798987 0
M  V30 7868 H 738.636 3.23698 -0.0121636 0
M  V30 7869 H 737.543 2.94211 -2.31065 0
M  V30 7870 H 738.876 3.88303 -3.02459 0
M  V30 7871 N 740.528 1.15101 1.07655 0
M  V30 7872 C 741.475 0.844958 2.14777 0
M  V30 7873 C 742.445 -0.200798 1.64882 0
M  V30 7874 O 743.63 -0.0690278 1.90675 0
M  V30 7875 C 740.77 0.337018 3.4345 0
M  V30 7876 C 739.883 1.44398 4.07153 0
M  V30 7877 C 739.018 0.892487 5.23649 0
M  V30 7878 C 738.057 1.9766 5.79307 0
M  V30 7879 N 737.194 1.44171 6.87138 0
M  V30 7880 H 742.034 1.76242 2.40297 0
M  V30 7881 H 739.571 0.879435 1.17917 0
M  V30 7882 H 741.529 0.024256 4.17193 0
M  V30 7883 H 740.159 -0.543531 3.18191 0
M  V30 7884 H 739.211 1.87299 3.31094 0
M  V30 7885 H 740.523 2.26262 4.4453 0
M  V30 7886 H 739.677 0.532083 6.04362 0
M  V30 7887 H 738.416 0.0429854 4.87681 0
M  V30 7888 H 737.421 2.34586 4.97242 0
M  V30 7889 H 738.646 2.82982 6.17331 0
M  V30 7890 H 736.592 0.614518 6.53115 0
M  V30 7891 H 736.509 2.19665 7.23383 0
M  V30 7892 H 737.777 1.10945 7.71564 0
M  V30 7893 N 742.006 -1.2595 0.947325 0
M  V30 7894 C 742.969 -2.24407 0.466285 0
M  V30 7895 C 743.969 -1.55054 -0.426005 0
M  V30 7896 O 745.159 -1.7275 -0.224319 0
M  V30 7897 C 742.291 -3.39326 -0.327201 0
M  V30 7898 H 743.484 -2.68477 1.33642 0
M  V30 7899 H 741.037 -1.38211 0.729887 0
M  V30 7900 H 741.772 -3.00667 -1.21532 0
M  V30 7901 H 741.557 -3.9085 0.312839 0
M  V30 7902 H 743.047 -4.12455 -0.653477 0
M  V30 7903 N 743.484 -0.715051 -1.40445 0
M  V30 7904 C 744.73 -0.254705 -2.01194 0
M  V30 7905 C 745.063 1.14894 -1.56567 0
M  V30 7906 O 744.338 1.77933 -0.785491 0
M  V30 7907 C 744.621 -0.334148 -3.58546 0
M  V30 7908 C 744.474 -1.77613 -4.13248 0
M  V30 7909 C 745.793 0.294968 -4.3911 0
M  V30 7910 H 742.912 -0.094025 -0.730978 0
M  V30 7911 H 745.554 -0.907449 -1.66929 0
M  V30 7912 H 743.704 0.221609 -3.87867 0
M  V30 7913 H 745.376 -2.38723 -3.94727 0
M  V30 7914 H 743.619 -2.30402 -3.67556 0
M  V30 7915 H 744.29 -1.78311 -5.22407 0
M  V30 7916 H 746.766 -0.178563 -4.15717 0
M  V30 7917 H 745.642 0.208934 -5.48502 0
M  V30 7918 H 745.903 1.37841 -4.20062 0
M  V30 7919 N 744.962 1.50701 -0.461195 0
M  V30 7920 C 745.909 2.2831 0.338094 0
M  V30 7921 C 746.879 1.32928 0.995957 0
M  V30 7922 O 748.064 1.61857 1.0103 0
M  V30 7923 C 745.204 3.14539 1.41983 0
M  V30 7924 C 744.317 4.24942 0.77773 0
M  V30 7925 C 743.452 4.98443 1.83652 0
M  V30 7926 C 742.491 6.00733 1.17413 0
M  V30 7927 N 741.628 6.6755 2.17533 0
M  V30 7928 H 746.468 2.96167 -0.330051 0
M  V30 7929 H 744.005 1.4606 -0.174611 0
M  V30 7930 H 745.963 3.62877 2.05855 0
M  V30 7931 H 744.593 2.48749 2.05727 0
M  V30 7932 H 743.645 3.80391 0.0266924 0
M  V30 7933 H 744.957 4.98151 0.254362 0
M  V30 7934 H 744.111 5.50449 2.55129 0
M  V30 7935 H 742.85 4.24917 2.39367 0
M  V30 7936 H 741.855 5.47997 0.444944 0
M  V30 7937 H 743.08 6.76227 0.624006 0
M  V30 7938 H 741.026 5.96823 2.72284 0
M  V30 7939 H 740.943 7.36603 1.70154 0
M  V30 7940 H 742.211 7.24178 2.88421 0
M  V30 7941 N 746.441 0.193421 1.56409 0
M  V30 7942 C 747.351 -0.740112 2.2262 0
M  V30 7943 C 748.367 -1.23597 1.22474 0
M  V30 7944 O 749.543 -1.28348 1.55206 0
M  V30 7945 C 746.608 -1.94317 2.87127 0
M  V30 7946 C 745.669 -1.49205 4.02538 0
M  V30 7947 C 744.902 -2.63776 4.63959 0
M  V30 7948 O 745.125 -3.81215 4.24301 0
M  V30 7949 O 744.059 -2.36585 5.53454 0
M  V30 7950 H 747.885 -0.206238 3.02999 0
M  V30 7951 H 745.47 -0.0357938 1.49357 0
M  V30 7952 H 747.352 -2.64633 3.27944 0
M  V30 7953 H 746.027 -2.46568 2.09728 0
M  V30 7954 H 744.934 -0.757738 3.66346 0
M  V30 7955 H 746.267 -1.01622 4.81595 0
M  V30 7956 N 747.919 -1.57396 -0.0801906 0
M  V30 7957 C 748.882 -2.02133 -1.0805 0
M  V30 7958 C 749.882 -0.91707 -1.32085 0
M  V30 7959 O 751.072 -1.18217 -1.27947 0
M  V30 7960 C 748.204 -2.39479 -2.42616 0
M  V30 7961 H 749.397 -2.91733 -0.6951 0
M  V30 7962 H 746.95 -1.52869 -0.325677 0
M  V30 7963 H 747.685 -1.52879 -2.86004 0
M  V30 7964 H 747.47 -3.20052 -2.26515 0
M  V30 7965 H 748.96 -2.74697 -3.14534 0
M  V30 7966 N 749.397 0.351382 -1.53633 0
M  V30 7967 C 750.345 1.45142 -1.8176 0
M  V30 7968 C 751.339 1.54819 -0.687571 0
M  V30 7969 O 752.545 1.57536 -0.870772 0
M  V30 7970 H 748.92 0.483789 -0.575719 0
M  V30 7971 H 750.891 1.1863 -2.73806 0
M  V30 7972 C 749.64 2.81779 -2.03706 0
M  V30 7973 H 748.963 2.75097 -2.90107 0
M  V30 7974 H 750.403 3.5789 -2.27356 0
M  V30 7975 C 748.862 3.26762 -0.820271 0
M  V30 7976 O 749.392 4.01697 -0.0158603 0
M  V30 7977 N 747.598 2.83472 -0.639699 0
M  V30 7978 H 747.145 2.22655 -1.29547 0
M  V30 7979 H 747.103 3.13924 0.172995 0
M  V30 7980 N 750.875 1.45233 0.611969 0
M  V30 7981 C 751.838 1.53189 1.70487 0
M  V30 7982 C 752.838 0.411839 1.55437 0
M  V30 7983 O 754.028 0.675164 1.60584 0
M  V30 7984 C 751.16 1.42422 3.09723 0
M  V30 7985 H 752.353 2.5056 1.64802 0
M  V30 7986 H 749.906 1.32609 0.827318 0
M  V30 7987 H 750.641 0.462185 3.2099 0
M  V30 7988 H 750.426 2.23658 3.22055 0
M  V30 7989 H 751.916 1.51012 3.89339 0
M  V30 7990 N 752.353 -0.854086 1.3245 0
M  V30 7991 C 753.583 -1.63836 1.25862 0
M  V30 7992 C 753.991 -1.88383 -0.175588 0
M  V30 7993 O 753.334 -1.45353 -1.1233 0
M  V30 7994 C 753.396 -3.02068 1.94923 0
M  V30 7995 C 753.06 -3.0056 3.44257 0
M  V30 7996 C 754.057 -2.77368 4.39731 0
M  V30 7997 C 751.742 -3.21177 3.862 0
M  V30 7998 C 753.736 -2.74797 5.75122 0
M  V30 7999 C 751.423 -3.18234 5.217 0
M  V30 8000 C 752.421 -2.95072 6.15972 0
M  V30 8001 O 752.109 -2.92003 7.48992 0
M  V30 8002 H 751.841 -0.517007 0.435523 0
M  V30 8003 H 754.395 -1.07314 1.75137 0
M  V30 8004 H 752.625 -3.60382 1.40219 0
M  V30 8005 H 754.314 -3.62791 1.82037 0
M  V30 8006 H 755.08 -2.61205 4.08653 0
M  V30 8007 H 750.959 -3.38231 3.13243 0
M  V30 8008 H 754.503 -2.56638 6.48678 0
M  V30 8009 H 750.4 -3.33941 5.52407 0
M  V30 8010 H 751.168 -3.07953 7.58358 0
M  V30 8011 N 753.831 -1.1567 -1.07043 0
M  V30 8012 C 755.108 -0.843948 -1.76456 0
M  V30 8013 C 755.488 0.659806 -2.00524 0
M  V30 8014 O 754.836 1.60518 -1.62623 0
M  V30 8015 C 755.046 -1.65822 -3.0709 0
M  V30 8016 C 756.394 -1.8664 -3.8138 0
M  V30 8017 O 757.418 -1.62624 -3.1691 0
M  V30 8018 O 756.277 -2.26884 -4.97178 0
M  V30 8019 H 753.371 -0.310677 -0.766426 0
M  V30 8020 H 755.917 -1.26266 -1.1338 0
M  V30 8021 H 754.689 -2.67902 -2.85209 0
M  V30 8022 H 754.312 -1.23605 -3.77899 0
M  V30 8023 N 755.309 1.25446 -0.953992 0
M  V30 8024 C 756.556 1.93143 -0.608429 0
M  V30 8025 C 756.884 1.74727 0.854451 0
M  V30 8026 O 756.139 1.0855 1.62836 0
M  V30 8027 C 756.438 3.45555 -0.912496 0
M  V30 8028 C 756.104 3.84126 -2.36131 0
M  V30 8029 C 754.766 3.94367 -2.75732 0
M  V30 8030 C 757.118 4.0324 -3.30223 0
M  V30 8031 C 754.446 4.21127 -4.08496 0
M  V30 8032 C 756.798 4.31493 -4.62598 0
M  V30 8033 C 755.462 4.3995 -5.01996 0
M  V30 8034 H 754.732 0.706762 -0.22264 0
M  V30 8035 H 757.379 1.49005 -1.20291 0
M  V30 8036 H 755.684 3.91091 -0.235618 0
M  V30 8037 H 757.381 3.9612 -0.623714 0
M  V30 8038 H 753.971 3.76711 -2.04418 0
M  V30 8039 H 758.155 3.94744 -3.00817 0
M  V30 8040 H 753.411 4.2589 -4.38665 0
M  V30 8041 H 757.585 4.45227 -5.35486 0
M  V30 8042 H 755.212 4.60439 -6.04896 0
M  V30 8043 N 756.787 0.722489 1.40064 0
M  V30 8044 C 758.036 0.261932 1.99992 0
M  V30 8045 C 758.349 -1.15358 1.57961 0
M  V30 8046 O 759.555 -1.71301 2.10637 0
M  V30 8047 C 758.011 0.41737 3.57472 0
M  V30 8048 C 757.619 1.83997 4.08472 0
M  V30 8049 C 759.363 0.0179561 4.24496 0
M  V30 8050 C 757.27 1.94563 5.5848 0
M  V30 8051 H 756.2 0.0941768 0.748095 0
M  V30 8052 H 758.851 0.894572 1.60218 0
M  V30 8053 H 757.233 -0.283965 3.94981 0
M  V30 8054 H 758.407 2.57224 3.82325 0
M  V30 8055 H 756.722 2.19147 3.54067 0
M  V30 8056 H 759.319 0.076085 5.34646 0
M  V30 8057 H 759.662 -1.02498 4.03485 0
M  V30 8058 H 760.195 0.669988 3.92117 0
M  V30 8059 H 756.934 2.97001 5.84355 0
M  V30 8060 H 756.454 1.25756 5.86469 0
M  V30 8061 H 758.133 1.72095 6.23692 0
M  V30 8062 N 758.265 -1.50454 0.469181 0
M  V30 8063 C 759.198 -2.25149 -0.371928 0
M  V30 8064 C 760.176 -1.28382 -0.997845 0
M  V30 8065 O 761.36 -1.57599 -1.03415 0
M  V30 8066 C 758.487 -3.02629 -1.52097 0
M  V30 8067 C 757.533 -4.14305 -1.01262 0
M  V30 8068 S 758.366 -5.35453 0.0711459 0
M  V30 8069 C 759.522 -6.1648 -1.08181 0
M  V30 8070 H 759.755 -2.96142 0.262134 0
M  V30 8071 H 757.288 -1.52296 0.254042 0
M  V30 8072 H 759.246 -3.47861 -2.17952 0
M  V30 8073 H 757.907 -2.31165 -2.12654 0
M  V30 8074 H 757.1 -4.67913 -1.87278 0
M  V30 8075 H 756.702 -3.71499 -0.431804 0
M  V30 8076 H 758.994 -6.47497 -1.99382 0
M  V30 8077 H 759.937 -7.05679 -0.585028 0
M  V30 8078 H 760.345 -5.48492 -1.33478 0
M  V30 8079 N 759.743 -0.201713 -1.56304 0
M  V30 8080 C 760.69 0.716499 -2.19397 0
M  V30 8081 C 761.66 1.20494 -1.14326 0
M  V30 8082 O 762.845 1.26763 -1.42604 0
M  V30 8083 C 759.985 1.92762 -2.86246 0
M  V30 8084 C 759.098 1.47993 -4.0586 0
M  V30 8085 C 758.233 2.64706 -4.60547 0
M  V30 8086 C 757.272 2.16576 -5.72504 0
M  V30 8087 N 756.409 3.26491 -6.21569 0
M  V30 8088 H 761.249 0.171724 -2.97505 0
M  V30 8089 H 758.786 0.073016 -1.46919 0
M  V30 8090 H 760.744 2.6384 -3.23178 0
M  V30 8091 H 759.374 2.44559 -2.10691 0
M  V30 8092 H 758.426 0.66477 -3.74546 0
M  V30 8093 H 759.738 1.08686 -4.86815 0
M  V30 8094 H 758.892 3.43898 -4.99819 0
M  V30 8095 H 757.631 3.0729 -3.78713 0
M  V30 8096 H 756.636 1.3584 -5.32755 0
M  V30 8097 H 757.861 1.75015 -6.56161 0
M  V30 8098 H 755.807 3.68594 -5.42655 0
M  V30 8099 H 755.724 2.91374 -6.97594 0
M  V30 8100 H 756.992 4.05877 -6.65495 0
M  V30 8101 N 761.222 1.57436 0.0718424 0
M  V30 8102 C 762.152 2.06724 1.08571 0
M  V30 8103 C 763.133 0.960731 1.40371 0
M  V30 8104 O 764.318 1.23345 1.49999 0
M  V30 8105 C 761.448 2.51112 2.39916 0
M  V30 8106 C 760.402 3.65639 2.22469 0
M  V30 8107 C 759.728 3.96082 3.59198 0
M  V30 8108 C 761.028 4.95687 1.64596 0
M  V30 8109 H 762.722 2.91679 0.675569 0
M  V30 8110 H 760.268 1.40319 0.32352 0
M  V30 8111 H 762.221 2.84206 3.11135 0
M  V30 8112 H 760.945 1.63186 2.8291 0
M  V30 8113 H 759.604 3.32828 1.53691 0
M  V30 8114 H 759.252 3.05287 3.99761 0
M  V30 8115 H 758.952 4.73199 3.48362 0
M  V30 8116 H 760.476 4.31672 4.31847 0
M  V30 8117 H 761.89 5.27011 2.25681 0
M  V30 8118 H 760.287 5.77126 1.64457 0
M  V30 8119 H 761.357 4.8108 0.60744 0
M  V30 8120 N 762.7 -0.34323 1.53817 0
M  V30 8121 C 764.111 -0.918823 1.62525 0
M  V30 8122 C 764.462 -1.89542 0.506765 0
M  V30 8123 O 763.587 -2.13326 -0.363441 0
M  V30 8124 C 764.182 -1.67326 2.94597 0
M  V30 8125 C 762.741 -2.19786 3.05567 0
M  V30 8126 C 761.888 -1.01708 2.57974 0
M  V30 8127 H 764.839 -0.121358 1.58235 0
M  V30 8128 H 764.86 -2.53615 2.83654 0
M  V30 8129 H 764.372 -0.962223 3.75983 0
M  V30 8130 H 762.473 -2.94065 2.28816 0
M  V30 8131 H 762.586 -2.46135 4.1104 0
M  V30 8132 H 760.95 -1.39058 2.13389 0
M  V30 8133 H 761.733 -0.320671 3.41799 0
M  V30 8134 N 764.178 -1.45556 -0.604258 0
M  V30 8135 C 765.128 -1.50906 -1.70913 0
M  V30 8136 C 766.112 -0.371996 -1.56541 0
M  V30 8137 O 767.304 -0.619064 -1.65821 0
M  V30 8138 C 764.433 -1.48181 -3.09673 0
M  V30 8139 C 763.519 -2.67102 -3.2942 0
M  V30 8140 N 763.91 -3.92184 -3.19414 0
M  V30 8141 C 762.208 -2.6287 -3.60299 0
M  V30 8142 C 762.909 -4.71571 -3.40581 0
M  V30 8143 N 761.885 -4.03081 -3.64728 0
M  V30 8144 H 765.687 -2.45435 -1.61675 0
M  V30 8145 H 763.201 -1.40894 -0.807622 0
M  V30 8146 H 765.198 -1.501 -3.88942 0
M  V30 8147 H 763.858 -0.54712 -3.20057 0
M  V30 8148 H 764.869 -4.23756 -2.97743 0
M  V30 8149 H 761.546 -1.78324 -3.77501 0
M  V30 8150 H 762.936 -5.80571 -3.38211 0
M  V30 8151 N 765.656 0.84705 -1.32902 0
M  V30 8152 C 766.603 1.95624 -1.22473 0
M  V30 8153 C 767.573 1.65767 -0.105178 0
M  V30 8154 O 768.758 1.88704 -0.282042 0
M  V30 8155 C 765.898 3.31434 -0.961542 0
M  V30 8156 C 765.011 3.73741 -2.1666 0
M  V30 8157 C 764.146 4.98379 -1.83825 0
M  V30 8158 C 763.185 5.33199 -3.00609 0
M  V30 8159 N 762.322 6.49014 -2.67816 0
M  V30 8160 H 767.162 2.03875 -2.17345 0
M  V30 8161 H 764.699 0.997764 -1.08088 0
M  V30 8162 H 766.657 4.09663 -0.789411 0
M  V30 8163 H 765.287 3.22762 -0.0495938 0
M  V30 8164 H 764.339 2.91102 -2.44875 0
M  V30 8165 H 765.651 3.95462 -3.03993 0
M  V30 8166 H 764.805 5.84336 -1.63208 0
M  V30 8167 H 763.544 4.78611 -0.937172 0
M  V30 8168 H 762.549 4.4575 -3.21849 0
M  V30 8169 H 763.774 5.5492 -3.9146 0
M  V30 8170 H 761.72 6.30748 -1.80258 0
M  V30 8171 H 761.637 6.7079 -3.48679 0
M  V30 8172 H 762.905 7.38103 -2.50647 0
M  V30 8173 N 767.134 1.16236 1.06428 0
M  V30 8174 C 768.381 0.943034 1.79201 0
M  V30 8175 C 768.709 -0.529243 1.87161 0
M  V30 8176 O 767.964 -1.40874 1.35842 0
M  V30 8177 C 768.263 1.51396 3.2375 0
M  V30 8178 C 767.929 3.00833 3.35873 0
M  V30 8179 C 766.591 3.41626 3.38888 0
M  V30 8180 C 768.943 3.96825 3.37904 0
M  V30 8181 C 766.271 4.77033 3.4155 0
M  V30 8182 C 768.623 5.32116 3.42104 0
M  V30 8183 C 767.287 5.72392 3.43401 0
M  V30 8184 H 766.557 0.34508 0.655744 0
M  V30 8185 H 769.204 1.44929 1.25171 0
M  V30 8186 H 767.509 0.929114 3.80624 0
M  V30 8187 H 769.206 1.31996 3.78653 0
M  V30 8188 H 765.796 2.68306 3.3423 0
M  V30 8189 H 769.98 3.66376 3.34787 0
M  V30 8190 H 765.236 5.07569 3.40858 0
M  V30 8191 H 769.41 6.06286 3.42623 0
M  V30 8192 H 767.037 6.77296 3.45216 0
M  V30 8193 N 768.612 -1.24939 0.960631 0
M  V30 8194 C 769.889 -1.88118 0.535807 0
M  V30 8195 C 770.269 -1.86605 -0.987009 0
M  V30 8196 O 769.617 -1.33375 -1.85536 0
M  V30 8197 C 769.827 -3.30565 1.11927 0
M  V30 8198 C 771.175 -4.07296 1.19981 0
M  V30 8199 O 772.199 -3.39709 1.07126 0
M  V30 8200 O 771.058 -5.28206 1.40218 0
M  V30 8201 H 768.152 -0.807698 0.177631 0
M  V30 8202 H 770.698 -1.32964 1.05445 0
M  V30 8203 H 769.47 -3.26128 2.16231 0
M  V30 8204 H 769.093 -3.93284 0.584245 0
M  V30 8205 N 770.09 -0.729906 -1.39679 0
M  V30 8206 C 771.318 -0.285709 -2.04918 0
M  V30 8207 C 771.733 1.07765 -1.55023 0
M  V30 8208 O 771.09 1.67999 -0.712923 0
M  V30 8209 C 771.141 -0.272793 -3.60469 0
M  V30 8210 O 770.862 -1.58233 -4.08527 0
M  V30 8211 C 772.363 0.188199 -4.429 0
M  V30 8212 H 769.583 -0.125758 -0.65911 0
M  V30 8213 H 772.127 -0.992129 -1.78821 0
M  V30 8214 H 770.282 0.384699 -3.85485 0
M  V30 8215 H 770.696 -1.49245 -5.02818 0
M  V30 8216 H 772.17 0.14608 -5.51807 0
M  V30 8217 H 772.647 1.2326 -4.21549 0
M  V30 8218 H 773.253 -0.439541 -4.23023 0
M  V30 8219 N 771.568 1.50203 -0.477153 0
M  V30 8220 C 772.498 2.31517 0.303646 0
M  V30 8221 C 773.479 1.38696 0.984753 0
M  V30 8222 O 774.664 1.67615 0.980758 0
M  V30 8223 C 771.794 3.18598 1.38249 0
M  V30 8224 C 770.748 4.2002 0.822645 0
M  V30 8225 C 770.074 4.95878 2.00024 0
M  V30 8226 C 771.374 5.22023 -0.170185 0
M  V30 8227 H 773.068 2.97042 -0.375027 0
M  V30 8228 H 770.614 1.42848 -0.181802 0
M  V30 8229 H 772.567 3.74282 1.93625 0
M  V30 8230 H 771.291 2.5097 2.09002 0
M  V30 8231 H 769.95 3.65445 0.290813 0
M  V30 8232 H 769.598 4.24717 2.69489 0
M  V30 8233 H 769.298 5.64487 1.63183 0
M  V30 8234 H 770.822 5.54399 2.55878 0
M  V30 8235 H 772.236 5.72543 0.294606 0
M  V30 8236 H 770.633 5.98386 -0.453181 0
M  V30 8237 H 771.703 4.72396 -1.09408 0
M  V30 8238 N 773.046 0.209999 1.56195 0
M  V30 8239 C 774.292 -0.425442 1.98287 0
M  V30 8240 C 774.625 -1.60232 1.09724 0
M  V30 8241 O 773.9 -1.93902 0.152414 0
M  V30 8242 C 774.183 -0.871189 3.49403 0
M  V30 8243 C 774.036 0.308527 4.48741 0
M  V30 8244 C 775.355 -1.73146 4.04609 0
M  V30 8245 H 772.474 -0.153169 0.720908 0
M  V30 8246 H 775.116 0.303916 1.87554 0
M  V30 8247 H 773.266 -1.49266 3.58681 0
M  V30 8248 H 774.938 0.946487 4.51486 0
M  V30 8249 H 773.181 0.957878 4.23092 0
M  V30 8250 H 773.852 -0.0461143 5.51981 0
M  V30 8251 H 776.328 -1.2072 3.98203 0
M  V30 8252 H 775.204 -2.01228 5.10684 0
M  V30 8253 H 775.465 -2.69083 3.5078 0
M  V30 8254 N 774.524 -1.57472 -0.0634922 0
M  V30 8255 C 775.772 -1.87283 -0.759563 0
M  V30 8256 C 776.093 -0.803135 -1.77693 0
M  V30 8257 O 775.363 0.167293 -1.95184 0
M  V30 8258 H 773.943 -0.691106 -0.283516 0
M  V30 8259 H 776.605 -1.94864 -0.0376091 0
M  V30 8260 H 775.701 -2.85064 -1.27062 0
M  V30 8261 N 776.003 0.335068 -1.53997 0
M  V30 8262 C 776.913 1.43511 -1.85585 0
M  V30 8263 C 777.929 1.57162 -0.746726 0
M  V30 8264 O 779.105 1.72477 -1.03988 0
M  V30 8265 C 776.17 2.78386 -2.06646 0
M  V30 8266 C 775.231 2.74007 -3.30483 0
M  V30 8267 C 774.464 4.02449 -3.50529 0
M  V30 8268 O 774.687 5.00147 -2.74242 0
M  V30 8269 O 773.621 4.06405 -4.4398 0
M  V30 8270 H 777.447 1.19731 -2.79102 0
M  V30 8271 H 775.032 0.528033 -1.39758 0
M  V30 8272 H 776.914 3.58247 -2.21894 0
M  V30 8273 H 775.589 3.0208 -1.16317 0
M  V30 8274 H 774.496 1.92736 -3.2063 0
M  V30 8275 H 775.829 2.55267 -4.20832 0
M  V30 8276 N 777.481 1.45874 0.596531 0
M  V30 8277 C 778.897 1.30524 0.918459 0
M  V30 8278 C 779.097 0.266429 1.99731 0
M  V30 8279 O 778.153 -0.335809 2.50257 0
M  V30 8280 C 779.466 2.68747 1.3489 0
M  V30 8281 C 781.014 2.7673 1.46251 0
M  V30 8282 C 781.489 4.15504 1.92667 0
M  V30 8283 N 782.98 4.17853 1.99883 0
M  V30 8284 C 783.715 5.22109 2.37044 0
M  V30 8285 N 783.211 6.36704 2.73094 0
M  V30 8286 N 785.004 5.09471 2.37479 0
M  V30 8287 H 777.155 2.12081 -0.116368 0
M  V30 8288 H 779.418 0.947941 0.0106033 0
M  V30 8289 H 779.124 3.46006 0.630288 0
M  V30 8290 H 778.998 2.97942 2.31323 0
M  V30 8291 H 781.385 1.99768 2.17202 0
M  V30 8292 H 781.466 2.51236 0.481054 0
M  V30 8293 H 781.11 4.92956 1.223 0
M  V30 8294 H 781.04 4.38396 2.91747 0
M  V30 8295 H 783.531 3.35163 1.74568 0
M  V30 8296 H 783.844 7.12041 3.00362 0
M  V30 8297 H 782.189 6.40087 2.70764 0
M  V30 8298 H 785.38 4.18987 2.08728 0
M  V30 8299 H 785.553 5.90837 2.66112 0
M  V30 8300 N 778.959 -0.83999 1.33349 0
M  V30 8301 C 780.207 -1.59202 1.24496 0
M  V30 8302 C 780.528 -1.94077 -0.189499 0
M  V30 8303 O 779.798 -1.60868 -1.11796 0
M  V30 8304 H 778.378 -0.590276 0.457802 0
M  V30 8305 H 781.04 -1.00394 1.67054 0
M  V30 8306 H 780.136 -2.52247 1.83788 0
M  V30 8307 N 780.437 -1.16799 -1.0581 0
M  V30 8308 C 781.4 -0.881396 -2.11575 0
M  V30 8309 C 782.4 0.12574 -1.60308 0
M  V30 8310 O 783.59 -0.105716 -1.73879 0
M  V30 8311 C 780.722 -0.319037 -3.39404 0
M  V30 8312 H 781.915 -1.81907 -2.38432 0
M  V30 8313 H 779.468 -0.977597 -1.21954 0
M  V30 8314 H 780.203 0.626082 -3.18199 0
M  V30 8315 H 779.988 -1.04481 -3.77923 0
M  V30 8316 H 781.478 -0.13663 -4.17376 0
M  V30 8317 N 781.915 1.24427 -0.967243 0
M  V30 8318 C 782.847 2.24641 -0.454856 0
M  V30 8319 C 783.86 1.56849 0.436152 0
M  V30 8320 O 785.049 1.76846 0.242401 0
M  V30 8321 C 782.149 3.36954 0.362672 0
M  V30 8322 C 781.322 4.34318 -0.518324 0
M  V30 8323 C 780.381 5.25638 0.243122 0
M  V30 8324 O 779.407 5.68043 -0.362791 0
M  V30 8325 N 780.609 5.59897 1.53282 0
M  V30 8326 H 783.374 2.69238 -1.31648 0
M  V30 8327 H 780.935 1.38464 -0.839015 0
M  V30 8328 H 782.927 3.95014 0.880094 0
M  V30 8329 H 781.497 2.91646 1.12522 0
M  V30 8330 H 780.717 3.74953 -1.21672 0
M  V30 8331 H 782.005 4.96338 -1.11919 0
M  V30 8332 H 781.403 5.27373 2.04682 0
M  V30 8333 H 779.96 6.20488 1.99594 0
M  V30 8334 N 783.393 0.737304 1.3929 0
M  V30 8335 C 784.323 0.113988 2.33222 0
M  V30 8336 C 785.304 -0.721695 1.54031 0
M  V30 8337 O 786.489 -0.666206 1.82415 0
M  V30 8338 C 783.619 -0.792319 3.38141 0
M  V30 8339 C 782.573 -0.0606178 4.27957 0
M  V30 8340 C 781.899 -1.08409 5.23595 0
M  V30 8341 C 783.199 1.09817 5.10625 0
M  V30 8342 H 784.893 0.898611 2.85596 0
M  V30 8343 H 782.439 0.433571 1.37318 0
M  V30 8344 H 784.392 -1.23793 4.02807 0
M  V30 8345 H 783.116 -1.60908 2.84211 0
M  V30 8346 H 781.775 0.365393 3.64775 0
M  V30 8347 H 781.423 -1.89449 4.6596 0
M  V30 8348 H 781.123 -0.599269 5.84536 0
M  V30 8349 H 782.647 -1.52936 5.91137 0
M  V30 8350 H 784.061 0.730892 5.68622 0
M  V30 8351 H 782.458 1.51278 5.80719 0
M  V30 8352 H 783.528 1.91878 4.45321 0
M  V30 8353 N 784.871 -1.49948 0.485112 0
M  V30 8354 C 786.096 -2.073 -0.0645059 0
M  V30 8355 C 786.521 -1.345 -1.31497 0
M  V30 8356 O 785.879 -0.39687 -1.76903 0
M  V30 8357 C 785.927 -3.59201 -0.317304 0
M  V30 8358 O 785.031 -3.88085 -1.39514 0
M  V30 8359 H 784.372 -0.663723 0.0191822 0
M  V30 8360 H 786.902 -1.92963 0.680179 0
M  V30 8361 H 786.912 -4.04227 -0.553604 0
M  V30 8362 H 785.587 -4.11602 0.596387 0
M  V30 8363 H 784.164 -3.54885 -1.14504 0
M  V30 8364 N 786.349 -0.21828 -1.56081 0
M  V30 8365 C 787.597 0.413488 -1.97825 0
M  V30 8366 C 787.918 1.60527 -1.10707 0
M  V30 8367 O 787.188 1.9504 -0.183378 0
M  V30 8368 H 785.768 0.155757 -0.730581 0
M  V30 8369 H 788.43 -0.310413 -1.92412 0
M  V30 8370 H 787.526 0.742024 -3.03151 0
M  V30 8371 N 787.827 1.57504 0.0551401 0
M  V30 8372 C 789.075 1.87684 0.74962 0
M  V30 8373 C 789.396 0.812547 1.77264 0
M  V30 8374 O 788.666 -0.15694 1.9527 0
M  V30 8375 H 787.246 0.6926 0.279846 0
M  V30 8376 H 789.908 1.94881 0.0272745 0
M  V30 8377 H 789.004 2.85734 1.25548 0
M  V30 8378 N 789.305 -0.326896 1.54172 0
M  V30 8379 C 790.237 -1.42319 1.79661 0
M  V30 8380 C 791.25 -1.47989 0.678456 0
M  V30 8381 O 792.439 -1.50773 0.955503 0
M  V30 8382 C 789.539 -2.80876 1.89636 0
M  V30 8383 C 788.712 -2.98449 3.19761 0
M  V30 8384 C 787.771 -4.17347 3.2048 0
M  V30 8385 O 786.797 -4.10667 3.94134 0
M  V30 8386 N 787.999 -5.26717 2.44027 0
M  V30 8387 H 790.764 -1.20819 2.74268 0
M  V30 8388 H 788.325 -0.516866 1.53428 0
M  V30 8389 H 790.317 -3.58619 1.87549 0
M  V30 8390 H 788.887 -2.95442 1.02141 0
M  V30 8391 H 788.107 -2.08035 3.34836 0
M  V30 8392 H 789.395 -3.07083 4.05681 0
M  V30 8393 H 788.793 -5.35019 1.8377 0
M  V30 8394 H 787.35 -6.02891 2.47721 0
M  V30 8395 N 790.784 -1.46188 -0.588786 0
M  V30 8396 C 791.731 -1.56292 -1.69828 0
M  V30 8397 C 792.701 -0.407581 -1.61022 0
M  V30 8398 O 793.886 -0.623532 -1.80324 0
M  V30 8399 C 791.026 -1.55341 -3.08161 0
M  V30 8400 C 790.139 -2.81564 -3.27636 0
M  V30 8401 C 789.274 -2.72158 -4.56183 0
M  V30 8402 C 788.313 -3.93348 -4.68981 0
M  V30 8403 N 787.45 -3.82365 -5.88848 0
M  V30 8404 H 792.29 -2.51066 -1.6053 0
M  V30 8405 H 789.827 -1.24562 -0.782474 0
M  V30 8406 H 791.785 -1.52776 -3.88221 0
M  V30 8407 H 790.415 -0.641034 -3.16371 0
M  V30 8408 H 789.467 -2.94136 -2.41223 0
M  V30 8409 H 790.779 -3.714 -3.32962 0
M  V30 8410 H 789.933 -2.67665 -5.44464 0
M  V30 8411 H 788.672 -1.79953 -4.53286 0
M  V30 8412 H 787.677 -3.98181 -3.7912 0
M  V30 8413 H 788.902 -4.86643 -4.73662 0
M  V30 8414 H 786.848 -2.92942 -5.86959 0
M  V30 8415 H 786.765 -4.65851 -5.95415 0
M  V30 8416 H 788.033 -3.81836 -6.79575 0
M  V30 8417 N 792.262 0.832906 -1.33792 0
M  V30 8418 C 793.194 1.95042 -1.2038 0
M  V30 8419 C 794.207 1.62253 -0.133299 0
M  V30 8420 O 795.396 1.74315 -0.384261 0
M  V30 8421 C 792.496 3.287 -0.825215 0
M  V30 8422 C 791.669 3.89581 -1.98861 0
M  V30 8423 C 790.728 5.01602 -1.59003 0
M  V30 8424 O 789.754 5.20431 -2.30522 0
M  V30 8425 N 790.956 5.78356 -0.498446 0
M  V30 8426 H 793.721 2.07083 -2.16649 0
M  V30 8427 H 791.282 1.00896 -1.26616 0
M  V30 8428 H 793.274 4.01074 -0.540559 0
M  V30 8429 H 791.844 3.12565 0.0469796 0
M  V30 8430 H 791.064 3.09723 -2.43856 0
M  V30 8431 H 792.352 4.26989 -2.76691 0
M  V30 8432 H 791.75 5.65618 0.0963297 0
M  V30 8433 H 790.307 6.51226 -0.273485 0
M  V30 8434 N 793.74 1.17359 1.05189 0
M  V30 8435 C 795.156 0.920861 1.30355 0
M  V30 8436 C 795.356 -0.419993 1.97074 0
M  V30 8437 O 794.412 -1.15696 2.24434 0
M  V30 8438 C 795.725 2.07818 2.1733 0
M  V30 8439 C 797.273 2.1152 2.30712 0
M  V30 8440 C 797.748 3.26637 3.21048 0
M  V30 8441 N 799.239 3.26426 3.28634 0
M  V30 8442 C 799.974 4.12141 3.98657 0
M  V30 8443 N 799.47 5.07966 4.71107 0
M  V30 8444 N 801.263 4.00091 3.94821 0
M  V30 8445 H 793.414 2.03666 0.602821 0
M  V30 8446 H 795.677 0.889294 0.328421 0
M  V30 8447 H 795.383 3.04727 1.75597 0
M  V30 8448 H 795.257 2.02922 3.17966 0
M  V30 8449 H 797.644 1.15196 2.71687 0
M  V30 8450 H 797.725 2.20477 1.29706 0
M  V30 8451 H 797.369 4.23227 2.80788 0
M  V30 8452 H 797.299 3.14917 4.2206 0
M  V30 8453 H 799.79 2.57045 2.77013 0
M  V30 8454 H 800.103 5.69766 5.22099 0
M  V30 8455 H 798.448 5.11936 4.7005 0
M  V30 8456 H 801.639 3.24523 3.37346 0
M  V30 8457 H 801.812 4.6711 4.49123 0
M  V30 8458 N 795.218 -1.23913 0.973828 0
M  V30 8459 C 796.467 -1.91455 0.63464 0
M  V30 8460 C 796.78 -1.76893 -0.834759 0
M  V30 8461 O 797.986 -2.3918 -1.28473 0
M  V30 8462 C 796.442 -3.43172 1.08447 0
M  V30 8463 C 796.05 -3.66409 2.57776 0
M  V30 8464 C 797.794 -4.1653 0.818721 0
M  V30 8465 C 795.701 -5.11728 2.9646 0
M  V30 8466 H 794.631 -0.716881 0.233661 0
M  V30 8467 H 797.282 -1.40457 1.18085 0
M  V30 8468 H 795.664 -3.93242 0.466524 0
M  V30 8469 H 796.838 -3.26913 3.24753 0
M  V30 8470 H 795.153 -3.06349 2.82027 0
M  V30 8471 H 797.75 -5.23603 1.08367 0
M  V30 8472 H 798.093 -4.15578 -0.245128 0
M  V30 8473 H 798.626 -3.72428 1.39793 0
M  V30 8474 H 795.365 -5.17806 4.01941 0
M  V30 8475 H 794.885 -5.52199 2.34172 0
M  V30 8476 H 796.564 -5.80009 2.86703 0
M  V30 8477 N 796.696 -0.74468 -1.38897 0
M  V30 8478 C 797.659 -0.11945 -2.28889 0
M  V30 8479 C 798.659 0.656942 -1.46768 0
M  V30 8480 O 799.849 0.484525 -1.67326 0
M  V30 8481 C 796.981 0.839635 -3.30398 0
M  V30 8482 H 798.174 -0.912414 -2.85683 0
M  V30 8483 H 795.727 -0.511119 -1.47707 0
M  V30 8484 H 796.462 1.6586 -2.78677 0
M  V30 8485 H 796.247 0.285432 -3.9106 0
M  V30 8486 H 797.737 1.27337 -3.97712 0
M  V30 8487 N 798.174 1.49689 -0.493057 0
M  V30 8488 C 799.423 2.01622 0.0560733 0
M  V30 8489 C 799.736 1.37838 1.3878 0
M  V30 8490 O 800.942 1.81054 2.02316 0
M  V30 8491 C 799.398 3.59586 0.150409 0
M  V30 8492 C 799.006 4.32338 -1.1742 0
M  V30 8493 C 800.75 4.19489 0.650327 0
M  V30 8494 C 798.657 5.8214 -1.04246 0
M  V30 8495 H 797.587 0.753594 0.0247297 0
M  V30 8496 H 800.238 1.723 -0.631279 0
M  V30 8497 H 798.62 3.8559 0.902035 0
M  V30 8498 H 799.794 4.18042 -1.9385 0
M  V30 8499 H 798.109 3.84144 -1.60694 0
M  V30 8500 H 800.706 5.29181 0.766272 0
M  V30 8501 H 801.049 3.82326 1.6472 0
M  V30 8502 H 801.582 3.97775 -0.0445371 0
M  V30 8503 H 798.321 6.23814 -2.01336 0
M  V30 8504 H 797.841 5.98952 -0.31892 0
M  V30 8505 H 799.52 6.43004 -0.717957 0
M  V30 8506 N 799.652 0.226554 1.55963 0
M  V30 8507 C 800.615 -0.668015 2.19249 0
M  V30 8508 C 801.615 -1.11794 1.1558 0
M  V30 8509 O 802.805 -1.02593 1.40784 0
M  V30 8510 C 799.937 -1.91571 2.81981 0
M  V30 8511 H 801.13 -0.116175 2.99675 0
M  V30 8512 H 798.683 -0.0230497 1.56283 0
M  V30 8513 H 799.418 -2.50929 2.05439 0
M  V30 8514 H 799.203 -1.6015 3.57903 0
M  V30 8515 H 800.693 -2.55294 3.30477 0
M  V30 8516 N 801.13 -1.57531 -0.0467866 0
M  V30 8517 C 802.546 -1.54451 -0.402107 0
M  V30 8518 C 802.746 -0.950275 -1.77685 0
M  V30 8519 O 801.802 -0.563602 -2.4613 0
M  V30 8520 C 803.115 -2.9899 -0.320212 0
M  V30 8521 C 804.663 -3.10452 -0.398588 0
M  V30 8522 C 805.138 -4.56689 -0.346335 0
M  V30 8523 N 806.629 -4.6142 -0.405666 0
M  V30 8524 C 807.364 -5.72087 -0.387845 0
M  V30 8525 N 806.86 -6.92045 -0.32336 0
M  V30 8526 N 808.653 -5.60404 -0.436263 0
M  V30 8527 H 800.804 -1.94515 0.853087 0
M  V30 8528 H 803.067 -0.891397 0.322669 0
M  V30 8529 H 802.773 -3.46124 0.623794 0
M  V30 8530 H 802.647 -3.60164 -1.1208 0
M  V30 8531 H 805.034 -2.63276 -1.33302 0
M  V30 8532 H 805.115 -2.52142 0.431026 0
M  V30 8533 H 804.759 -5.04527 0.584356 0
M  V30 8534 H 804.689 -5.12889 -1.19382 0
M  V30 8535 H 807.18 -3.75105 -0.458737 0
M  V30 8536 H 807.493 -7.7216 -0.314375 0
M  V30 8537 H 805.838 -6.94396 -0.28967 0
M  V30 8538 H 809.029 -4.65586 -0.48451 0
M  V30 8539 H 809.202 -6.46645 -0.418907 0
M  V30 8540 N 802.608 0.318715 -1.54344 0
M  V30 8541 C 803.571 1.37545 -1.83342 0
M  V30 8542 C 804.571 1.445 -0.705444 0
M  V30 8543 O 805.761 1.44443 -0.973752 0
M  V30 8544 C 802.893 2.76225 -1.99781 0
M  V30 8545 H 804.086 1.13084 -2.77762 0
M  V30 8546 H 801.639 0.554457 -1.46135 0
M  V30 8547 H 802.374 3.05934 -1.07588 0
M  V30 8548 H 802.159 2.7257 -2.81865 0
M  V30 8549 H 803.649 3.52664 -2.23647 0
M  V30 8550 N 804.086 1.46499 0.581025 0
M  V30 8551 C 805.016 1.60052 1.70017 0
M  V30 8552 C 805.997 0.450788 1.64018 0
M  V30 8553 O 807.182 0.677237 1.82009 0
M  V30 8554 C 804.312 1.5921 3.08658 0
M  V30 8555 C 803.266 2.73169 3.29488 0
M  V30 8556 C 802.592 2.57389 4.68674 0
M  V30 8557 C 803.892 4.14978 3.1716 0
M  V30 8558 H 805.586 2.53735 1.5893 0
M  V30 8559 H 803.132 1.22113 0.763173 0
M  V30 8560 H 805.085 1.67285 3.86773 0
M  V30 8561 H 803.809 0.620718 3.20647 0
M  V30 8562 H 802.468 2.64566 2.53773 0
M  V30 8563 H 802.116 1.58331 4.77431 0
M  V30 8564 H 801.816 3.33826 4.83564 0
M  V30 8565 H 803.34 2.67358 5.48956 0
M  V30 8566 H 804.754 4.24684 3.85119 0
M  V30 8567 H 803.151 4.92016 3.4357 0
M  V30 8568 H 804.221 4.35016 2.14218 0
M  V30 8569 N 805.565 -0.825799 1.34232 0
M  V30 8570 C 806.811 -1.58419 1.26614 0
M  V30 8571 C 807.144 -1.93503 -0.164341 0
M  V30 8572 O 806.419 -1.59785 -1.109 0
M  V30 8573 C 806.702 -2.8856 2.15418 0
M  V30 8574 C 806.555 -2.60075 3.66989 0
M  V30 8575 C 807.874 -3.90107 2.03726 0
M  V30 8576 H 804.993 -0.574794 0.461282 0
M  V30 8577 H 807.635 -0.951519 1.64457 0
M  V30 8578 H 805.785 -3.42553 1.83275 0
M  V30 8579 H 807.457 -2.12414 4.09485 0
M  V30 8580 H 805.7 -1.93565 3.88221 0
M  V30 8581 H 806.371 -3.52866 4.24488 0
M  V30 8582 H 808.847 -3.45459 2.31942 0
M  V30 8583 H 807.723 -4.78976 2.68092 0
M  V30 8584 H 807.984 -4.30329 1.01337 0
M  V30 8585 N 807.043 -1.17915 -1.04565 0
M  V30 8586 C 808.459 -0.927761 -1.29864 0
M  V30 8587 C 808.659 0.409536 -1.97294 0
M  V30 8588 O 807.715 1.14505 -2.25044 0
M  V30 8589 C 809.028 -2.08967 -2.16225 0
M  V30 8590 C 810.576 -2.12741 -2.29587 0
M  V30 8591 C 811.051 -3.28335 -3.19312 0
M  V30 8592 N 812.542 -3.28164 -3.26898 0
M  V30 8593 C 813.277 -4.14249 -3.96466 0
M  V30 8594 N 812.773 -5.10457 -4.68407 0
M  V30 8595 N 814.566 -4.02179 -3.92694 0
M  V30 8596 H 806.717 -2.03983 -0.592011 0
M  V30 8597 H 808.98 -0.891023 -0.323701 0
M  V30 8598 H 808.686 -3.05654 -1.73979 0
M  V30 8599 H 808.56 -2.04606 -3.16885 0
M  V30 8600 H 810.947 -1.16636 -2.71072 0
M  V30 8601 H 811.028 -2.21162 -1.28535 0
M  V30 8602 H 810.672 -4.2471 -2.78539 0
M  V30 8603 H 810.602 -3.17151 -4.20384 0
M  V30 8604 H 813.093 -2.58511 -2.75646 0
M  V30 8605 H 813.406 -5.72526 -5.1907 0
M  V30 8606 H 811.751 -5.14422 -4.67328 0
M  V30 8607 H 814.942 -3.26308 -3.3562 0
M  V30 8608 H 815.115 -4.69486 -4.4664 0
M  V30 8609 N 808.521 1.23394 -0.980386 0
M  V30 8610 C 809.469 2.26872 -0.513018 0
M  V30 8611 C 810.463 1.63853 0.429948 0
M  V30 8612 O 811.669 1.77417 0.303842 0
M  V30 8613 H 808.044 0.737398 -0.147473 0
M  V30 8614 H 810.015 2.63654 -1.39746 0
M  V30 8615 C 808.764 3.47289 0.168962 0
M  V30 8616 H 808.087 3.96033 -0.547546 0
M  V30 8617 H 809.527 4.21502 0.459616 0
M  V30 8618 C 807.986 3.06425 1.40019 0
M  V30 8619 O 808.516 3.14708 2.49643 0
M  V30 8620 N 806.722 2.61339 1.27084 0
M  V30 8621 H 806.269 2.54799 0.378872 0
M  V30 8622 H 806.227 2.34364 2.09573 0
M  V30 8623 N 809.999 0.752036 1.385 0
M  V30 8624 C 811.41 0.375385 1.82887 0
M  V30 8625 C 811.761 -1.09575 1.62751 0
M  V30 8626 O 810.886 -1.84685 1.12785 0
M  V30 8627 C 811.481 0.674563 3.32017 0
M  V30 8628 C 810.04 0.351208 3.74758 0
M  V30 8629 C 809.187 0.928531 2.61292 0
M  V30 8630 H 812.138 0.948313 1.27251 0
M  V30 8631 H 812.159 -0.0477781 3.8047 0
M  V30 8632 H 811.671 1.74533 3.46641 0
M  V30 8633 H 809.772 -0.713042 3.65714 0
M  V30 8634 H 809.885 0.845675 4.71577 0
M  V30 8635 H 808.249 0.354012 2.52228 0
M  V30 8636 H 809.032 2.0043 2.78716 0
M  V30 8637 N 811.477 -1.49425 0.500989 0
M  V30 8638 C 812.424 -2.29126 -0.277443 0
M  V30 8639 C 813.394 -1.35522 -0.960363 0
M  V30 8640 O 814.579 -1.64479 -0.967027 0
M  V30 8641 C 811.719 -3.18193 -1.33593 0
M  V30 8642 C 810.832 -4.26854 -0.664791 0
M  V30 8643 C 809.967 -5.03137 -1.70372 0
M  V30 8644 C 809.006 -6.03635 -1.01445 0
M  V30 8645 N 808.143 -6.73083 -1.99758 0
M  V30 8646 H 812.983 -2.95187 0.408458 0
M  V30 8647 H 810.52 -1.45546 0.213275 0
M  V30 8648 H 812.478 -3.68207 -1.96161 0
M  V30 8649 H 811.108 -2.54116 -1.9906 0
M  V30 8650 H 810.16 -3.80328 0.0741708 0
M  V30 8651 H 811.472 -4.9865 -0.122197 0
M  V30 8652 H 810.626 -5.5702 -2.40445 0
M  V30 8653 H 809.365 -4.31114 -2.28017 0
M  V30 8654 H 808.37 -5.48984 -0.299496 0
M  V30 8655 H 809.595 -6.77644 -0.444497 0
M  V30 8656 H 807.541 -6.03832 -2.56365 0
M  V30 8657 H 807.458 -7.40855 -1.50565 0
M  V30 8658 H 808.726 -7.3157 -2.69119 0
M  V30 8659 N 812.955 -0.234822 -1.55841 0
M  V30 8660 C 814.204 0.393685 -1.97821 0
M  V30 8661 C 814.517 1.59947 -1.1259 0
M  V30 8662 O 815.723 2.29835 -1.44528 0
M  V30 8663 C 814.179 0.751811 -3.5196 0
M  V30 8664 C 813.787 -0.431898 -4.45913 0
M  V30 8665 C 815.531 1.34518 -4.02623 0
M  V30 8666 C 813.438 -0.0505976 -5.91378 0
M  V30 8667 H 812.368 0.150864 -0.738753 0
M  V30 8668 H 815.019 -0.333132 -1.80451 0
M  V30 8669 H 813.401 1.53642 -3.6498 0
M  V30 8670 H 814.575 -1.20935 -4.44647 0
M  V30 8671 H 812.89 -0.939385 -4.05666 0
M  V30 8672 H 815.487 1.64359 -5.08813 0
M  V30 8673 H 815.83 2.26554 -3.49255 0
M  V30 8674 H 816.363 0.623729 -3.9288 0
M  V30 8675 H 813.102 -0.937779 -6.48757 0
M  V30 8676 H 812.622 0.690898 -5.95808 0
M  V30 8677 H 814.301 0.37146 -6.45933 0
M  V30 8678 N 814.433 1.57553 0.0384317 0
M  V30 8679 C 815.363 2.0898 1.04161 0
M  V30 8680 C 816.344 0.99029 1.38301 0
M  V30 8681 O 817.529 1.26499 1.47349 0
M  V30 8682 C 814.659 2.56145 2.34536 0
M  V30 8683 C 813.613 3.70275 2.14663 0
M  V30 8684 C 812.939 4.03612 3.50715 0
M  V30 8685 C 814.239 4.99067 1.54045 0
M  V30 8686 H 815.933 2.93046 0.613548 0
M  V30 8687 H 813.479 1.40973 0.293684 0
M  V30 8688 H 815.432 2.90741 3.05037 0
M  V30 8689 H 814.156 1.6915 2.79385 0
M  V30 8690 H 812.815 3.36013 1.46597 0
M  V30 8691 H 812.463 3.13698 3.93195 0
M  V30 8692 H 812.163 4.80482 3.38247 0
M  V30 8693 H 813.687 4.40735 4.22593 0
M  V30 8694 H 815.101 5.3168 2.14451 0
M  V30 8695 H 813.498 5.80484 1.52178 0
M  V30 8696 H 814.568 4.8226 0.505259 0
M  V30 8697 N 815.911 -0.310526 1.54511 0
M  V30 8698 C 816.841 -1.38757 1.878 0
M  V30 8699 C 817.822 -1.53353 0.735991 0
M  V30 8700 O 819.007 -1.67018 0.990887 0
M  V30 8701 C 816.137 -2.75327 2.11689 0
M  V30 8702 C 815.091 -2.75506 3.27537 0
M  V30 8703 C 814.417 -4.15275 3.36824 0
M  V30 8704 C 815.717 -2.38093 4.64875 0
M  V30 8705 H 817.411 -1.11146 2.78005 0
M  V30 8706 H 814.957 -0.533232 1.33763 0
M  V30 8707 H 816.91 -3.50752 2.33562 0
M  V30 8708 H 815.634 -3.04443 1.18245 0
M  V30 8709 H 814.293 -2.02538 3.05572 0
M  V30 8710 H 813.941 -4.41553 2.40915 0
M  V30 8711 H 813.641 -4.16299 4.14692 0
M  V30 8712 H 815.165 -4.92493 3.60947 0
M  V30 8713 H 816.579 -3.03232 4.86542 0
M  V30 8714 H 814.976 -2.50345 5.45387 0
M  V30 8715 H 816.046 -1.33227 4.66239 0
M  V30 8716 N 817.389 -1.46805 -0.573248 0
M  V30 8717 C 818.319 -1.60951 -1.69165 0
M  V30 8718 C 819.3 -0.45948 -1.63777 0
M  V30 8719 O 820.485 -0.68688 -1.81647 0
M  V30 8720 C 817.615 -1.60844 -3.07809 0
M  V30 8721 C 816.569 -2.74913 -3.28035 0
M  V30 8722 C 815.895 -2.59871 -4.67302 0
M  V30 8723 C 817.195 -4.16654 -3.14955 0
M  V30 8724 H 818.889 -2.54574 -1.57582 0
M  V30 8725 H 816.435 -1.22516 -0.756686 0
M  V30 8726 H 818.388 -1.69334 -3.85881 0
M  V30 8727 H 817.112 -0.637714 -3.20314 0
M  V30 8728 H 815.771 -2.65908 -2.52366 0
M  V30 8729 H 815.419 -1.60861 -4.76585 0
M  V30 8730 H 815.119 -3.36386 -4.81786 0
M  V30 8731 H 816.643 -2.70265 -5.4753 0
M  V30 8732 H 818.057 -4.26721 -3.82861 0
M  V30 8733 H 816.454 -4.93831 -3.40956 0
M  V30 8734 H 817.524 -4.36146 -2.11908 0
M  V30 8735 N 818.867 0.818669 -1.34668 0
M  V30 8736 C 820.144 1.56118 -1.17841 0
M  V30 8737 C 820.524 2.09646 0.24731 0
M  V30 8738 O 819.872 1.91329 1.24922 0
M  V30 8739 C 820.082 2.67922 -2.23649 0
M  V30 8740 C 821.43 3.36579 -2.58843 0
M  V30 8741 O 822.454 2.78182 -2.22471 0
M  V30 8742 O 821.313 4.42045 -3.21339 0
M  V30 8743 H 818.407 0.689216 -0.457067 0
M  V30 8744 H 820.953 0.859674 -1.46314 0
M  V30 8745 H 819.725 2.26153 -3.19328 0
M  V30 8746 H 819.348 3.45719 -1.96377 0
M  V30 8747 N 820.346 1.18468 1.03938 0
M  V30 8748 C 821.256 0.927889 2.1547 0
M  V30 8749 C 822.272 -0.108447 1.73662 0
M  V30 8750 O 823.448 0.0737636 2.01265 0
M  V30 8751 C 820.513 0.458494 3.43655 0
M  V30 8752 C 819.574 1.56295 3.99838 0
M  V30 8753 C 818.807 1.11586 5.21904 0
M  V30 8754 O 819.03 -0.0249057 5.70395 0
M  V30 8755 O 817.964 1.91412 5.70653 0
M  V30 8756 H 821.79 1.86116 2.39989 0
M  V30 8757 H 819.375 0.966607 1.13917 0
M  V30 8758 H 821.257 0.204861 4.20902 0
M  V30 8759 H 819.932 -0.446464 3.20606 0
M  V30 8760 H 818.839 1.87061 3.23974 0
M  V30 8761 H 820.172 2.44408 4.2723 0
M  V30 8762 N 821.824 -1.22873 0.986916 0
M  V30 8763 C 822.787 -2.2281 0.537442 0
M  V30 8764 C 823.787 -1.56331 -0.37646 0
M  V30 8765 O 824.977 -1.73376 -0.169247 0
M  V30 8766 C 822.109 -3.40195 -0.219082 0
M  V30 8767 H 823.302 -2.64089 1.42116 0
M  V30 8768 H 820.855 -1.35819 0.773488 0
M  V30 8769 H 821.59 -3.04381 -1.11905 0
M  V30 8770 H 821.375 -3.89657 0.437026 0
M  V30 8771 H 822.865 -4.14326 -0.521926 0
M  V30 8772 N 823.302 -0.75937 -1.38099 0
M  V30 8773 C 824.53 -0.329111 -2.04266 0
M  V30 8774 C 824.945 1.04453 -1.57274 0
M  V30 8775 O 824.302 1.66449 -0.748397 0
M  V30 8776 C 824.353 -0.349192 -3.5981 0
M  V30 8777 O 824.074 -1.66863 -4.05078 0
M  V30 8778 C 825.575 0.0942106 -4.432 0
M  V30 8779 H 822.795 -0.13971 -0.656294 0
M  V30 8780 H 825.339 -1.02984 -1.76677 0
M  V30 8781 H 823.494 0.302846 -3.86214 0
M  V30 8782 H 823.908 -1.59877 -4.9954 0
M  V30 8783 H 825.382 0.0290004 -5.51992 0
M  V30 8784 H 825.859 1.1429 -4.24069 0
M  V30 8785 H 826.465 -0.529171 -4.21995 0
M  V30 8786 N 824.78 1.49157 -0.508906 0
M  V30 8787 C 826.005 2.07376 0.0315182 0
M  V30 8788 C 826.43 1.36575 1.2934 0
M  V30 8789 O 825.788 0.424963 1.76249 0
M  V30 8790 C 825.836 3.59661 0.260118 0
M  V30 8791 O 824.94 3.90255 1.33322 0
M  V30 8792 H 824.281 0.663334 -0.029739 0
M  V30 8793 H 826.811 1.91857 -0.710791 0
M  V30 8794 H 826.821 4.05056 0.489225 0
M  V30 8795 H 825.496 4.10601 -0.661794 0
M  V30 8796 H 824.073 3.56661 1.08844 0
M  V30 8797 N 826.258 0.243083 1.55714 0
M  V30 8798 C 827.221 -0.644723 2.19945 0
M  V30 8799 C 828.221 -1.10562 1.16759 0
M  V30 8800 O 829.411 -1.01095 1.41865 0
M  V30 8801 C 826.543 -1.88569 2.83997 0
M  V30 8802 H 827.736 -0.0843839 2.99781 0
M  V30 8803 H 825.289 -0.00647246 1.56299 0
M  V30 8804 H 826.024 -2.48736 2.08089 0
M  V30 8805 H 825.809 -1.56345 3.59581 0
M  V30 8806 H 827.299 -2.51774 3.33166 0
M  V30 8807 N 827.736 -1.57571 -0.0300757 0
M  V30 8808 C 828.666 -2.0953 -1.03051 0
M  V30 8809 C 829.647 -0.99761 -1.37774 0
M  V30 8810 O 830.832 -1.27279 -1.46676 0
M  V30 8811 C 827.962 -2.57385 -2.33174 0
M  V30 8812 C 826.916 -3.71409 -2.12696 0
M  V30 8813 C 826.242 -4.05467 -3.4857 0
M  V30 8814 C 827.542 -4.99877 -1.51396 0
M  V30 8815 H 829.236 -2.93367 -0.597999 0
M  V30 8816 H 826.782 -1.41127 -0.286203 0
M  V30 8817 H 828.735 -2.92355 -3.03491 0
M  V30 8818 H 827.459 -1.70629 -2.78484 0
M  V30 8819 H 826.118 -3.36786 -1.44813 0
M  V30 8820 H 825.766 -3.15779 -3.91526 0
M  V30 8821 H 825.466 -4.82269 -3.35694 0
M  V30 8822 H 826.99 -4.4297 -4.2025 0
M  V30 8823 H 828.404 -5.3281 -2.11629 0
M  V30 8824 H 826.801 -5.81283 -1.49098 0
M  V30 8825 H 827.871 -4.82522 -0.479676 0
M  V30 8826 N 829.214 0.302327 -1.54673 0
M  V30 8827 C 830.491 1.05721 -1.64567 0
M  V30 8828 C 830.871 2.0526 -0.493108 0
M  V30 8829 O 830.219 2.22729 0.510315 0
M  V30 8830 C 830.429 1.74025 -3.02517 0
M  V30 8831 C 831.777 2.26271 -3.59286 0
M  V30 8832 O 832.801 1.8406 -3.0496 0
M  V30 8833 O 831.66 3.0361 -4.54404 0
M  V30 8834 H 828.754 0.488577 -0.667249 0
M  V30 8835 H 831.3 0.300521 -1.67018 0
M  V30 8836 H 830.072 1.0174 -3.77842 0
M  V30 8837 H 829.695 2.56454 -3.03838 0
M  V30 8838 N 830.692 1.47107 0.565454 0
M  V30 8839 C 831.92 1.56909 1.3486 0
M  V30 8840 C 832.335 0.216312 1.87557 0
M  V30 8841 O 831.692 -0.789168 1.64555 0
M  V30 8842 C 831.743 2.58776 2.52423 0
M  V30 8843 O 831.464 3.888 2.01906 0
M  V30 8844 C 832.965 2.78683 3.44747 0
M  V30 8845 H 830.185 0.530096 0.411387 0
M  V30 8846 H 832.729 1.92658 0.685782 0
M  V30 8847 H 830.884 2.25983 3.1466 0
M  V30 8848 H 831.298 4.44393 2.78595 0
M  V30 8849 H 832.772 3.53842 4.23674 0
M  V30 8850 H 833.249 1.86208 3.97773 0
M  V30 8851 H 833.855 3.12641 2.88333 0
M  V30 8852 N 832.17 -0.811516 1.35101 0
M  V30 8853 C 833.08 -1.95475 1.29718 0
M  V30 8854 C 834.096 -1.72813 0.202909 0
M  V30 8855 O 835.272 -1.96725 0.431414 0
M  V30 8856 C 832.337 -3.29975 1.06385 0
M  V30 8857 C 831.398 -3.65566 2.25077 0
M  V30 8858 C 830.631 -4.93648 2.02848 0
M  V30 8859 O 830.854 -5.617 0.992442 0
M  V30 8860 O 829.788 -5.27384 2.90087 0
M  V30 8861 H 833.614 -2.02961 2.25921 0
M  V30 8862 H 831.199 -0.948583 1.15422 0
M  V30 8863 H 833.081 -4.10506 0.951999 0
M  V30 8864 H 831.756 -3.2343 0.132294 0
M  V30 8865 H 830.663 -2.85432 2.41825 0
M  V30 8866 H 831.996 -3.7681 3.16662 0
M  V30 8867 N 833.648 -1.19017 -1.03309 0
M  V30 8868 C 834.873 -1.01598 -1.80811 0
M  V30 8869 C 835.298 0.430773 -1.83101 0
M  V30 8870 O 834.656 1.30946 -1.25391 0
M  V30 8871 C 834.704 -1.5845 -3.23923 0
M  V30 8872 O 833.808 -0.810972 -4.04348 0
M  V30 8873 H 833.149 -0.359398 -0.558327 0
M  V30 8874 H 835.679 -1.57945 -1.30055 0
M  V30 8875 H 835.689 -1.61486 -3.74682 0
M  V30 8876 H 834.364 -2.63752 -3.21571 0
M  V30 8877 H 832.941 -0.85353 -3.63 0
M  V30 8878 N 835.127 1.22348 -0.993418 0
M  V30 8879 C 836.037 2.27987 -0.553076 0
M  V30 8880 C 837.053 1.69378 0.398386 0
M  V30 8881 O 838.229 1.99648 0.26509 0
M  V30 8882 C 835.294 3.46475 0.124809 0
M  V30 8883 C 834.355 4.20399 -0.869682 0
M  V30 8884 C 833.588 5.33229 -0.224052 0
M  V30 8885 O 833.811 5.61885 0.981915 0
M  V30 8886 O 832.745 5.94685 -0.929174 0
M  V30 8887 H 836.571 2.67822 -1.43195 0
M  V30 8888 H 834.156 1.28525 -0.761694 0
M  V30 8889 H 836.038 4.18369 0.504496 0
M  V30 8890 H 834.713 3.08565 0.978243 0
M  V30 8891 H 833.62 3.50774 -1.30031 0
M  V30 8892 H 834.953 4.62191 -1.69233 0
M  V30 8893 N 836.605 0.766683 1.37694 0
M  V30 8894 C 837.568 0.155849 2.2867 0
M  V30 8895 C 838.568 -0.633509 1.47795 0
M  V30 8896 O 839.758 -0.457844 1.68076 0
M  V30 8897 C 836.89 -0.786965 3.31692 0
M  V30 8898 H 838.083 0.957748 2.84196 0
M  V30 8899 H 835.636 0.534554 1.46875 0
M  V30 8900 H 836.371 -1.61406 2.8128 0
M  V30 8901 H 836.156 -0.223182 3.91464 0
M  V30 8902 H 837.646 -1.20994 3.99688 0
M  V30 8903 N 838.083 -1.48885 0.516809 0
M  V30 8904 C 839.329 -2.02788 -0.0220928 0
M  V30 8905 C 839.662 -1.39433 -1.35175 0
M  V30 8906 O 838.937 -0.535459 -1.86984 0
M  V30 8907 C 839.22 -3.59753 -0.158012 0
M  V30 8908 C 839.073 -4.33611 1.19588 0
M  V30 8909 C 840.392 -4.30984 -0.891133 0
M  V30 8910 H 837.511 -0.736971 -0.00655488 0
M  V30 8911 H 840.153 -1.77746 0.671287 0
M  V30 8912 H 838.303 -3.8122 -0.748568 0
M  V30 8913 H 839.975 -4.23598 1.82653 0
M  V30 8914 H 838.218 -3.95547 1.78116 0
M  V30 8915 H 838.889 -5.41846 1.05391 0
M  V30 8916 H 841.365 -4.14267 -0.39012 0
M  V30 8917 H 840.241 -5.40527 -0.955107 0
M  V30 8918 H 840.502 -3.97336 -1.93847 0
M  V30 8919 N 839.561 -0.251338 -1.55583 0
M  V30 8920 C 840.807 0.37272 -1.99346 0
M  V30 8921 C 841.14 1.57266 -1.13934 0
M  V30 8922 O 840.415 1.9343 -0.20377 0
M  V30 8923 C 840.698 0.778245 -3.5159 0
M  V30 8924 C 840.551 -0.427394 -4.47765 0
M  V30 8925 C 841.87 1.62358 -4.09057 0
M  V30 8926 H 838.989 0.134002 -0.724715 0
M  V30 8927 H 841.631 -0.353536 -1.86682 0
M  V30 8928 H 839.781 1.39704 -3.62512 0
M  V30 8929 H 841.453 -1.06586 -4.48818 0
M  V30 8930 H 839.696 -1.06972 -4.20404 0
M  V30 8931 H 840.367 -0.10025 -5.51909 0
M  V30 8932 H 842.843 1.1012 -4.01264 0
M  V30 8933 H 841.719 1.87617 -5.1584 0
M  V30 8934 H 841.98 2.59688 -3.57791 0
M  V30 8935 N 841.039 1.57585 0.0217189 0
M  V30 8936 C 841.971 2.03849 1.04777 0
M  V30 8937 C 842.984 0.952558 1.32023 0
M  V30 8938 O 844.173 1.22974 1.29381 0
M  V30 8939 C 841.273 2.40504 2.3877 0
M  V30 8940 C 840.446 3.71566 2.30775 0
M  V30 8941 C 839.505 3.95329 3.47277 0
M  V30 8942 O 838.531 4.66289 3.26441 0
M  V30 8943 N 839.733 3.41536 4.69397 0
M  V30 8944 H 842.498 2.92491 0.653395 0
M  V30 8945 H 840.059 1.60538 0.209527 0
M  V30 8946 H 842.051 2.53532 3.15442 0
M  V30 8947 H 840.621 1.57494 2.70027 0
M  V30 8948 H 839.841 3.68822 1.39155 0
M  V30 8949 H 841.129 4.5753 2.22584 0
M  V30 8950 H 840.527 2.84033 4.89226 0
M  V30 8951 H 839.084 3.59932 5.43408 0
M  V30 8952 N 842.517 -0.29412 1.54831 0
M  V30 8953 C 843.763 -1.02999 1.74697 0
M  V30 8954 C 844.096 -1.86687 0.534949 0
M  V30 8955 O 843.371 -1.88789 -0.467863 0
M  V30 8956 C 843.654 -1.93024 3.03996 0
M  V30 8957 C 843.507 -1.1247 4.35512 0
M  V30 8958 C 844.826 -2.92085 3.29203 0
M  V30 8959 H 841.945 -0.373039 0.635618 0
M  V30 8960 H 844.587 -0.304065 1.87551 0
M  V30 8961 H 842.737 -2.5492 2.93169 0
M  V30 8962 H 844.409 -0.528067 4.58268 0
M  V30 8963 H 842.652 -0.427574 4.31688 0
M  V30 8964 H 843.323 -1.78728 5.22265 0
M  V30 8965 H 845.799 -2.40319 3.39685 0
M  V30 8966 H 844.675 -3.52234 4.20978 0
M  V30 8967 H 844.936 -3.66107 2.47827 0
M  V30 8968 N 843.995 -1.47404 -0.557645 0
M  V30 8969 C 844.958 -1.59411 -1.64684 0
M  V30 8970 C 845.958 -0.469244 -1.53801 0
M  V30 8971 O 847.148 -0.734298 -1.57967 0
M  V30 8972 C 844.28 -1.5382 -3.04224 0
M  V30 8973 H 845.473 -2.56504 -1.55389 0
M  V30 8974 H 843.026 -1.35588 -0.777531 0
M  V30 8975 H 843.761 -0.581 -3.19053 0
M  V30 8976 H 843.546 -2.35456 -3.13533 0
M  V30 8977 H 845.036 -1.65358 -3.83466 0
M  V30 8978 N 845.473 0.80434 -1.35529 0
M  V30 8979 C 846.403 1.93086 -1.31301 0
M  V30 8980 C 847.384 1.69068 -0.187044 0
M  V30 8981 O 848.569 1.90399 -0.382359 0
M  V30 8982 C 845.699 3.29867 -1.0865 0
M  V30 8983 C 844.653 3.68373 -2.17911 0
M  V30 8984 C 843.979 5.0334 -1.80423 0
M  V30 8985 C 845.279 3.78516 -3.59893 0
M  V30 8986 H 846.973 1.96882 -2.25561 0
M  V30 8987 H 844.519 0.945841 -1.08581 0
M  V30 8988 H 846.472 4.08281 -1.04331 0
M  V30 8989 H 845.196 3.2642 -0.108359 0
M  V30 8990 H 843.855 2.92247 -2.21331 0
M  V30 8991 H 843.503 4.96399 -0.812213 0
M  V30 8992 H 843.203 5.30074 -2.53565 0
M  V30 8993 H 844.727 5.84191 -1.77633 0
M  V30 8994 H 846.141 4.47155 -3.58783 0
M  V30 8995 H 844.538 4.16721 -4.31814 0
M  V30 8996 H 845.608 2.8001 -3.95882 0
M  V30 8997 N 846.951 1.19563 1.02676 0
M  V30 8998 C 848.228 0.908857 1.73203 0
M  V30 8999 C 848.608 -0.584928 2.02834 0
M  V30 9000 O 847.956 -1.54372 1.68469 0
M  V30 9001 C 848.166 1.77105 3.00724 0
M  V30 9002 C 849.514 2.00667 3.7419 0
M  V30 9003 O 850.538 1.74274 3.10656 0
M  V30 9004 O 849.397 2.4518 4.88415 0
M  V30 9005 H 846.491 0.338909 0.754367 0
M  V30 9006 H 849.037 1.30387 1.08616 0
M  V30 9007 H 847.809 2.78303 2.7507 0
M  V30 9008 H 847.432 1.37546 3.73051 0
M  V30 9009 N 848.429 -1.21819 0.999893 0
M  V30 9010 C 849.376 -2.24003 0.556005 0
M  V30 9011 C 850.346 -1.60825 -0.415287 0
M  V30 9012 O 851.531 -1.88123 -0.318481 0
M  V30 9013 C 848.671 -3.44904 -0.116289 0
M  V30 9014 C 847.784 -4.22573 0.897574 0
M  V30 9015 C 846.919 -5.30831 0.198073 0
M  V30 9016 C 845.958 -6.00225 1.19983 0
M  V30 9017 N 845.095 -7.00111 0.528157 0
M  V30 9018 H 849.935 -2.61334 1.43208 0
M  V30 9019 H 847.472 -1.28431 0.717205 0
M  V30 9020 H 849.43 -4.13908 -0.523055 0
M  V30 9021 H 848.06 -3.08315 -0.956108 0
M  V30 9022 H 847.112 -3.52797 1.42262 0
M  V30 9023 H 848.424 -4.70363 1.66013 0
M  V30 9024 H 847.578 -6.06121 -0.265065 0
M  V30 9025 H 846.317 -4.84033 -0.596924 0
M  V30 9026 H 845.322 -5.23711 1.67353 0
M  V30 9027 H 846.547 -6.4911 1.99582 0
M  V30 9028 H 844.493 -6.55534 -0.247276 0
M  V30 9029 H 844.41 -7.45943 1.22904 0
M  V30 9030 H 845.678 -7.7945 0.0880543 0
M  V30 9031 N 849.908 -0.773975 -1.37286 0
M  V30 9032 C 850.871 -0.167974 -2.28584 0
M  V30 9033 C 851.871 0.625662 -1.48129 0
M  V30 9034 O 853.061 0.448924 -1.68316 0
M  V30 9035 C 850.193 0.769364 -3.32105 0
M  V30 9036 H 851.386 -0.972806 -2.83684 0
M  V30 9037 H 848.939 -0.542335 -1.46589 0
M  V30 9038 H 849.674 1.59912 -2.82132 0
M  V30 9039 H 849.459 0.202419 -3.91577 0
M  V30 9040 H 850.949 1.18872 -4.00324 0
M  V30 9041 N 851.386 1.48609 -0.524698 0
M  V30 9042 C 852.802 1.58557 -0.182199 0
M  V30 9043 C 853.002 1.52732 1.31435 0
M  V30 9044 O 852.058 1.41362 2.0922 0
M  V30 9045 C 853.371 2.90406 -0.78004 0
M  V30 9046 C 854.919 3.03924 -0.748293 0
M  V30 9047 C 855.394 4.38427 -1.32462 0
M  V30 9048 N 856.885 4.4498 -1.28635 0
M  V30 9049 C 857.62 5.47551 -1.70223 0
M  V30 9050 N 857.116 6.57103 -2.19515 0
M  V30 9051 N 858.909 5.38402 -1.61493 0
M  V30 9052 H 851.06 1.50638 -1.4974 0
M  V30 9053 H 853.323 0.714952 -0.622533 0
M  V30 9054 H 853.029 3.00308 -1.83052 0
M  V30 9055 H 852.903 3.76343 -0.254075 0
M  V30 9056 H 855.29 2.93638 0.293407 0
M  V30 9057 H 855.371 2.19611 -1.31167 0
M  V30 9058 H 855.015 4.49466 -2.36522 0
M  V30 9059 H 854.945 5.21418 -0.736967 0
M  V30 9060 H 857.436 3.66393 -0.92545 0
M  V30 9061 H 857.749 7.31499 -2.49257 0
M  V30 9062 H 856.094 6.58081 -2.23506 0
M  V30 9063 H 859.285 4.5171 -1.22785 0
M  V30 9064 H 859.458 6.18208 -1.94225 0
M  V30 9065 N 852.864 0.259585 1.55447 0
M  V30 9066 C 853.811 -0.634578 2.21905 0
M  V30 9067 C 854.781 -1.16168 1.18719 0
M  V30 9068 O 855.966 -1.21383 1.4721 0
M  V30 9069 C 853.106 -1.82005 2.93203 0
M  V30 9070 C 852.219 -1.32828 4.11073 0
M  V30 9071 C 851.354 -2.47431 4.70055 0
M  V30 9072 C 850.393 -1.95179 5.80148 0
M  V30 9073 N 849.53 -3.03197 6.33258 0
M  V30 9074 H 854.37 -0.0611886 2.97937 0
M  V30 9075 H 851.907 -0.0184378 1.47088 0
M  V30 9076 H 853.865 -2.51664 3.32748 0
M  V30 9077 H 852.495 -2.36571 2.19622 0
M  V30 9078 H 851.547 -0.525301 3.76756 0
M  V30 9079 H 852.859 -0.905435 4.90513 0
M  V30 9080 H 852.013 -3.25111 5.12238 0
M  V30 9081 H 850.752 -2.93023 3.89857 0
M  V30 9082 H 849.757 -1.15974 5.37429 0
M  V30 9083 H 850.982 -1.50541 6.62204 0
M  V30 9084 H 848.928 -3.48199 5.55961 0
M  V30 9085 H 848.845 -2.65282 7.07928 0
M  V30 9086 H 850.113 -3.80898 6.80101 0
M  V30 9087 N 854.342 -1.57594 -0.0133615 0
M  V30 9088 C 855.59 -1.89605 -0.699596 0
M  V30 9089 C 855.911 -0.85926 -1.75048 0
M  V30 9090 O 855.181 0.105112 -1.95618 0
M  V30 9091 H 853.761 -0.699776 -0.261385 0
M  V30 9092 H 856.423 -1.94885 0.0244044 0
M  V30 9093 H 855.519 -2.88962 -1.17928 0
M  V30 9094 N 855.82 0.285905 -1.54985 0
M  V30 9095 C 857.236 0.632405 -1.46536 0
M  V30 9096 C 857.436 1.90074 -0.668888 0
M  V30 9097 O 856.492 2.51839 -0.182586 0
M  V30 9098 C 857.805 0.771361 -2.90638 0
M  V30 9099 C 859.353 0.866262 -3.00774 0
M  V30 9100 C 859.828 1.0371 -4.46103 0
M  V30 9101 N 861.319 1.10294 -4.49877 0
M  V30 9102 C 862.054 1.25369 -5.59527 0
M  V30 9103 N 861.55 1.37246 -6.7907 0
M  V30 9104 N 863.343 1.28377 -5.47244 0
M  V30 9105 H 855.494 -0.547226 -2.0523 0
M  V30 9106 H 857.757 -0.183298 -0.930111 0
M  V30 9107 H 857.463 -0.0899485 -3.51585 0
M  V30 9108 H 857.337 1.65569 -3.3892 0
M  V30 9109 H 859.724 1.71805 -2.39931 0
M  V30 9110 H 859.805 -0.0424049 -2.55765 0
M  V30 9111 H 859.449 0.190021 -5.07544 0
M  V30 9112 H 859.379 1.96022 -4.88757 0
M  V30 9113 H 861.87 1.02407 -3.6376 0
M  V30 9114 H 862.183 1.48546 -7.58389 0
M  V30 9115 H 860.528 1.34274 -6.81906 0
M  V30 9116 H 863.719 1.1872 -4.52795 0
M  V30 9117 H 863.892 1.39782 -6.32744 0
M  V30 9118 N 857.298 1.47698 0.54982 0
M  V30 9119 C 858.526 1.5833 1.33188 0
M  V30 9120 C 858.941 0.236193 1.87317 0
M  V30 9121 O 858.298 -0.77167 1.65383 0
M  V30 9122 C 858.349 2.61438 2.49664 0
M  V30 9123 O 858.07 3.9092 1.97771 0
M  V30 9124 C 859.571 2.82324 3.41772 0
M  V30 9125 H 856.791 0.53443 0.405741 0
M  V30 9126 H 859.335 1.93375 0.665309 0
M  V30 9127 H 857.49 2.29307 3.12245 0
M  V30 9128 H 857.904 4.47323 2.73866 0
M  V30 9129 H 859.378 3.58316 4.19897 0
M  V30 9130 H 859.855 1.90416 3.95776 0
M  V30 9131 H 860.461 3.15682 2.85 0
M  V30 9132 N 858.776 -0.797141 1.35954 0
M  V30 9133 C 860.004 -1.5858 1.32891 0
M  V30 9134 C 860.419 -1.88578 -0.0915564 0
M  V30 9135 O 859.776 -1.49532 -1.04625 0
M  V30 9136 C 859.827 -2.91143 2.14284 0
M  V30 9137 O 859.548 -2.62442 3.50793 0
M  V30 9138 C 861.049 -3.85476 2.18914 0
M  V30 9139 H 858.269 -0.492111 0.456144 0
M  V30 9140 H 860.813 -0.98994 1.78943 0
M  V30 9141 H 858.968 -3.47219 1.71807 0
M  V30 9142 H 859.382 -3.4715 3.93175 0
M  V30 9143 H 860.856 -4.75574 2.80238 0
M  V30 9144 H 861.333 -4.22758 1.19047 0
M  V30 9145 H 861.939 -3.35334 2.61593 0
M  V30 9146 N 860.254 -1.20106 -1.0204 0
M  V30 9147 C 861.503 -1.00316 -1.74985 0
M  V30 9148 C 861.816 0.465814 -1.89972 0
M  V30 9149 O 863.022 0.782749 -2.59972 0
M  V30 9150 C 861.478 -1.74608 -3.14706 0
M  V30 9151 C 861.086 -3.25573 -3.07744 0
M  V30 9152 C 862.83 -1.63172 -3.91887 0
M  V30 9153 C 860.737 -3.92419 -4.42449 0
M  V30 9154 H 859.667 -0.371728 -0.655999 0
M  V30 9155 H 862.318 -1.43688 -1.14131 0
M  V30 9156 H 860.7 -1.24021 -3.76078 0
M  V30 9157 H 861.874 -3.83345 -2.55702 0
M  V30 9158 H 860.189 -3.3738 -2.44057 0
M  V30 9159 H 862.786 -2.10457 -4.9154 0
M  V30 9160 H 863.129 -0.58728 -4.12137 0
M  V30 9161 H 863.662 -2.11152 -3.37135 0
M  V30 9162 H 860.401 -4.96998 -4.27403 0
M  V30 9163 H 859.921 -3.39436 -4.94513 0
M  V30 9164 H 861.6 -3.96453 -5.11306 0
M  V30 9165 N 861.732 1.21287 -1.00634 0
M  V30 9166 C 862.978 1.90671 -0.690822 0
M  V30 9167 C 863.311 1.77996 0.776592 0
M  V30 9168 O 862.586 1.15748 1.5631 0
M  V30 9169 C 862.869 3.42426 -1.11428 0
M  V30 9170 C 862.722 3.64086 -2.64124 0
M  V30 9171 C 864.041 4.34851 -0.677686 0
M  V30 9172 H 861.16 0.692419 -0.252439 0
M  V30 9173 H 863.802 1.42893 -1.25226 0
M  V30 9174 H 861.952 3.83249 -0.636586 0
M  V30 9175 H 863.624 3.32582 -3.19667 0
M  V30 9176 H 861.867 3.07906 -3.05576 0
M  V30 9177 H 862.538 4.7042 -2.88806 0
M  V30 9178 H 865.014 4.01619 -1.0882 0
M  V30 9179 H 863.89 5.39675 -1.00213 0
M  V30 9180 H 864.151 4.4009 0.421125 0
M  V30 9181 N 863.21 0.781244 1.36873 0
M  V30 9182 C 864.459 0.34652 1.98701 0
M  V30 9183 C 864.772 -1.08555 1.62712 0
M  V30 9184 O 865.978 -1.62213 2.17713 0
M  V30 9185 C 864.434 0.568611 3.5538 0
M  V30 9186 C 864.042 2.01156 4.003 0
M  V30 9187 C 865.786 0.197983 4.24038 0
M  V30 9188 C 863.693 2.18074 5.49725 0
M  V30 9189 H 862.623 0.125821 0.743428 0
M  V30 9190 H 865.274 0.961721 1.56279 0
M  V30 9191 H 863.656 -0.116185 3.9583 0
M  V30 9192 H 864.83 2.73209 3.71071 0
M  V30 9193 H 863.145 2.33967 3.44454 0
M  V30 9194 H 865.742 0.302778 5.33842 0
M  V30 9195 H 866.085 -0.852927 4.07469 0
M  V30 9196 H 866.618 0.835696 3.88923 0
M  V30 9197 H 863.357 3.21519 5.71232 0
M  V30 9198 H 862.877 1.50517 5.80607 0
M  V30 9199 H 864.556 1.98393 6.15832 0
M  V30 9200 N 864.689 -1.48329 0.532571 0
M  V30 9201 C 865.652 -2.2816 -0.218069 0
M  V30 9202 C 866.652 -1.35526 -0.865409 0
M  V30 9203 O 867.842 -1.58394 -0.725061 0
M  V30 9204 C 864.974 -3.1448 -1.31586 0
M  V30 9205 H 866.167 -2.95987 0.482865 0
M  V30 9206 H 863.72 -1.53612 0.288603 0
M  V30 9207 H 864.455 -2.5129 -2.04997 0
M  V30 9208 H 864.24 -3.82625 -0.856779 0
M  V30 9209 H 865.73 -3.74693 -1.84377 0
M  V30 9210 N 866.167 -0.267825 -1.55308 0
M  V30 9211 C 867.117 0.637168 -2.18916 0
M  V30 9212 C 868.101 1.12381 -1.15149 0
M  V30 9213 O 869.293 1.0701 -1.40989 0
M  V30 9214 C 866.422 1.82423 -2.90821 0
M  V30 9215 C 865.508 1.35512 -4.01867 0
M  V30 9216 N 865.899 0.601644 -5.02209 0
M  V30 9217 C 864.197 1.63868 -4.14805 0
M  V30 9218 C 864.898 0.35596 -5.8061 0
M  V30 9219 N 863.874 0.926271 -5.3565 0
M  V30 9220 H 867.676 0.0535787 -2.93851 0
M  V30 9221 H 865.19 -0.0710577 -1.62244 0
M  V30 9222 H 867.187 2.48379 -3.34834 0
M  V30 9223 H 865.847 2.41185 -2.17394 0
M  V30 9224 H 866.858 0.249693 -5.17298 0
M  V30 9225 H 863.535 2.23618 -3.52564 0
M  V30 9226 H 864.925 -0.246994 -6.71446 0
M  V30 9227 N 867.645 1.57599 0.00500368 0
M  V30 9228 C 869.061 1.55463 0.361015 0
M  V30 9229 C 869.261 0.997051 1.75103 0
M  V30 9230 O 868.317 0.628661 2.44549 0
M  V30 9231 C 869.63 2.99734 0.240828 0
M  V30 9232 C 871.178 3.11399 0.316138 0
M  V30 9233 C 871.653 4.57446 0.22513 0
M  V30 9234 N 873.144 4.62334 0.283186 0
M  V30 9235 C 873.879 5.72914 0.23603 0
M  V30 9236 N 873.375 6.92659 0.139762 0
M  V30 9237 N 875.168 5.61364 0.287529 0
M  V30 9238 H 867.319 1.92185 -0.904359 0
M  V30 9239 H 869.582 0.882529 -0.34619 0
M  V30 9240 H 869.288 3.44348 -0.715343 0
M  V30 9241 H 869.162 3.63009 1.02491 0
M  V30 9242 H 871.549 2.66718 1.26275 0
M  V30 9243 H 871.63 2.50911 -0.497725 0
M  V30 9244 H 871.274 5.02801 -0.717917 0
M  V30 9245 H 871.204 5.15874 1.05742 0
M  V30 9246 H 873.695 3.7619 0.359123 0
M  V30 9247 H 874.008 7.72722 0.10954 0
M  V30 9248 H 872.353 6.9492 0.105462 0
M  V30 9249 H 875.544 4.66707 0.360897 0
M  V30 9250 H 875.717 6.47528 0.247313 0
M  V30 9251 N 869.123 -0.277682 1.55134 0
M  V30 9252 C 870.053 -1.34742 1.90701 0
M  V30 9253 C 871.034 -1.51757 0.768354 0
M  V30 9254 O 872.219 -1.64879 1.02609 0
M  V30 9255 C 869.349 -2.70775 2.17481 0
M  V30 9256 C 868.303 -2.68497 3.33307 0
M  V30 9257 C 867.629 -4.08037 3.45557 0
M  V30 9258 C 868.929 -2.28178 4.69821 0
M  V30 9259 H 870.623 -1.05224 2.803 0
M  V30 9260 H 868.169 -0.504738 1.34864 0
M  V30 9261 H 870.122 -3.45719 2.40949 0
M  V30 9262 H 868.846 -3.01867 1.24676 0
M  V30 9263 H 867.505 -1.9601 3.09799 0
M  V30 9264 H 867.153 -4.36344 2.50226 0
M  V30 9265 H 866.853 -4.07409 4.23429 0
M  V30 9266 H 868.377 -4.84726 3.71312 0
M  V30 9267 H 869.791 -2.92843 4.92865 0
M  V30 9268 H 868.188 -2.3872 5.50575 0
M  V30 9269 H 869.258 -1.23308 4.6896 0
M  V30 9270 N 870.601 -1.47988 -0.541979 0
M  V30 9271 C 871.826 -1.59286 -1.32826 0
M  V30 9272 C 872.251 -0.24894 -1.86445 0
M  V30 9273 O 871.609 0.777581 -1.63778 0
M  V30 9274 C 871.657 -2.6334 -2.46343 0
M  V30 9275 O 870.761 -2.19667 -3.49028 0
M  V30 9276 H 870.102 -0.534543 -0.393903 0
M  V30 9277 H 872.632 -1.93885 -0.653427 0
M  V30 9278 H 872.642 -2.84238 -2.92699 0
M  V30 9279 H 871.317 -3.60913 -2.06675 0
M  V30 9280 H 869.894 -2.08932 -3.08872 0
M  V30 9281 N 872.079 0.78992 -1.36375 0
M  V30 9282 C 873.307 1.57873 -1.3373 0
M  V30 9283 C 873.722 1.88624 0.0815544 0
M  V30 9284 O 873.079 1.50085 1.03831 0
M  V30 9285 C 873.13 2.90003 -2.15825 0
M  V30 9286 O 872.851 2.60578 -3.5218 0
M  V30 9287 C 874.352 3.84309 -2.20955 0
M  V30 9288 H 871.572 0.489685 -0.458748 0
M  V30 9289 H 874.116 0.980436 -1.79465 0
M  V30 9290 H 872.271 3.46303 -1.73646 0
M  V30 9291 H 872.685 3.4506 -3.95011 0
M  V30 9292 H 874.159 4.74081 -2.82756 0
M  V30 9293 H 874.636 4.22121 -1.21287 0
M  V30 9294 H 875.242 3.33942 -2.63368 0
M  V30 9295 N 873.557 1.20646 1.01402 0
M  V30 9296 C 874.803 1.0197 1.753 0
M  V30 9297 C 875.136 -0.446803 1.8899 0
M  V30 9298 O 874.411 -1.33169 1.41762 0
M  V30 9299 C 874.694 1.70693 3.17074 0
M  V30 9300 C 874.547 3.24805 3.11162 0
M  V30 9301 C 875.866 1.44212 4.15802 0
M  V30 9302 H 872.985 0.371844 0.636318 0
M  V30 9303 H 875.627 1.48696 1.18277 0
M  V30 9304 H 873.777 1.30968 3.65759 0
M  V30 9305 H 875.449 3.73841 2.70261 0
M  V30 9306 H 873.692 3.55576 2.48492 0
M  V30 9307 H 874.363 3.68049 4.11393 0
M  V30 9308 H 876.839 1.7868 3.75783 0
M  V30 9309 H 875.715 1.94825 5.13161 0
M  V30 9310 H 875.976 0.370252 4.40547 0
M  V30 9311 N 875.035 -1.20752 1.01276 0
M  V30 9312 C 876.451 -1.42084 0.726934 0
M  V30 9313 C 876.651 -1.89138 -0.694907 0
M  V30 9314 O 875.707 -2.05783 -1.4632 0
M  V30 9315 C 877.02 -2.44575 1.74938 0
M  V30 9316 C 878.568 -2.58347 1.76708 0
M  V30 9317 C 879.043 -3.64078 2.77869 0
M  V30 9318 N 880.534 -3.71558 2.76585 0
M  V30 9319 C 881.269 -4.53016 3.51517 0
M  V30 9320 N 880.765 -5.38309 4.36114 0
M  V30 9321 N 882.558 -4.47512 3.40132 0
M  V30 9322 H 874.709 -0.885228 1.93074 0
M  V30 9323 H 876.972 -0.451075 0.833808 0
M  V30 9324 H 876.678 -2.1699 2.76782 0
M  V30 9325 H 876.552 -3.43503 1.55838 0
M  V30 9326 H 878.939 -2.85265 0.755516 0
M  V30 9327 H 879.02 -1.59628 1.99882 0
M  V30 9328 H 878.664 -3.37905 3.79187 0
M  V30 9329 H 878.594 -4.62412 2.51958 0
M  V30 9330 H 881.085 -3.10629 2.15216 0
M  V30 9331 H 881.398 -5.9754 4.90068 0
M  V30 9332 H 879.743 -5.37824 4.40194 0
M  V30 9333 H 882.934 -3.79912 2.73467 0
M  V30 9334 H 883.107 -5.10759 3.98784 0
M  V30 9335 N 876.513 -0.788492 -1.36457 0
M  V30 9336 C 877.461 -0.174192 -2.31947 0
M  V30 9337 C 878.455 0.665974 -1.5576 0
M  V30 9338 O 879.661 0.561161 -1.71029 0
M  V30 9339 H 876.036 -0.0375538 -0.751062 0
M  V30 9340 H 878.007 -0.995011 -2.81322 0
M  V30 9341 C 876.756 0.677276 -3.4104 0
M  V30 9342 H 876.079 0.0401418 -3.9978 0
M  V30 9343 H 877.519 1.07379 -4.10178 0
M  V30 9344 C 875.978 1.83512 -2.82533 0
M  V30 9345 O 876.508 2.93164 -2.74623 0
M  V30 9346 N 874.714 1.64095 -2.39836 0
M  V30 9347 H 874.261 0.749046 -2.46469 0
M  V30 9348 H 874.219 2.41726 -2.01037 0
M  V30 9349 N 877.991 1.48044 -0.54043 0
M  V30 9350 C 878.954 2.28273 0.205966 0
M  V30 9351 C 879.954 1.35983 0.858209 0
M  V30 9352 O 881.144 1.58776 0.716651 0
M  V30 9353 C 878.276 3.15174 1.29917 0
M  V30 9354 H 879.469 2.95727 -0.498555 0
M  V30 9355 H 877.022 1.53457 -0.296745 0
M  V30 9356 H 877.757 2.52374 2.03661 0
M  V30 9357 H 877.542 3.83074 0.836475 0
M  V30 9358 H 879.032 3.75666 1.82387 0
M  V30 9359 N 879.47 0.276058 1.55163 0
M  V30 9360 C 880.747 -0.392292 1.91626 0
M  V30 9361 C 881.127 -1.73646 1.20043 0
M  V30 9362 O 880.475 -2.26139 0.327606 0
M  V30 9363 C 880.685 -0.531641 3.44927 0
M  V30 9364 C 882.033 -0.8141 4.16722 0
M  V30 9365 O 883.057 -0.616413 3.50826 0
M  V30 9366 O 881.916 -1.19224 5.33337 0
M  V30 9367 H 879.01 -0.214945 0.798579 0
M  V30 9368 H 881.556 0.32228 1.66612 0
M  V30 9369 H 880.328 0.414282 3.89101 0
M  V30 9370 H 879.951 -1.29564 3.75897 0
M  V30 9371 N 880.948 -1.576 0.00335426 0
M  V30 9372 C 882.194 -1.90996 -0.681799 0
M  V30 9373 C 882.527 -0.877643 -1.73237 0
M  V30 9374 O 881.802 0.103183 -1.94226 0
M  V30 9375 C 882.085 -3.34961 -1.32187 0
M  V30 9376 C 881.938 -4.48911 -0.28261 0
M  V30 9377 C 883.257 -3.78408 -2.24711 0
M  V30 9378 H 880.376 -0.694596 -0.246386 0
M  V30 9379 H 883.018 -1.89919 0.055336 0
M  V30 9380 H 881.168 -3.36008 -1.95014 0
M  V30 9381 H 882.84 -4.59999 0.346241 0
M  V30 9382 H 881.083 -4.32 0.394768 0
M  V30 9383 H 881.754 -5.46609 -0.769576 0
M  V30 9384 H 884.23 -3.78934 -1.71897 0
M  V30 9385 H 883.106 -4.79885 -2.66461 0
M  V30 9386 H 883.367 -3.12464 -3.1276 0
M  V30 9387 N 882.426 0.269451 -1.5528 0
M  V30 9388 C 883.675 0.998381 -1.75258 0
M  V30 9389 C 883.988 1.87321 -0.563034 0
M  V30 9390 O 885.194 2.63719 -0.645313 0
M  V30 9391 C 883.65 1.82505 -3.10193 0
M  V30 9392 C 883.258 0.99871 -4.36726 0
M  V30 9393 C 885.002 2.54807 -3.3952 0
M  V30 9394 C 882.909 1.81997 -5.627 0
M  V30 9395 H 881.839 0.376488 -0.653278 0
M  V30 9396 H 884.49 0.253909 -1.81735 0
M  V30 9397 H 882.872 2.61061 -2.97763 0
M  V30 9398 H 884.046 0.257064 -4.60082 0
M  V30 9399 H 882.361 0.390074 -4.14569 0
M  V30 9400 H 884.958 3.16662 -4.30847 0
M  V30 9401 H 885.301 3.25273 -2.59813 0
M  V30 9402 H 885.834 1.83278 -3.53064 0
M  V30 9403 H 882.573 1.15945 -6.45164 0
M  V30 9404 H 882.093 2.53749 -5.43481 0
M  V30 9405 H 883.772 2.39274 -6.0113 0
M  V30 9406 N 883.904 1.48273 0.534124 0
M  V30 9407 C 884.867 1.6201 1.62127 0
M  V30 9408 C 885.867 0.493653 1.53035 0
M  V30 9409 O 887.057 0.759337 1.56779 0
M  V30 9410 C 884.189 1.5864 3.01739 0
M  V30 9411 H 885.382 2.58944 1.51288 0
M  V30 9412 H 882.935 1.36808 0.755861 0
M  V30 9413 H 883.67 0.631685 3.18088 0
M  V30 9414 H 883.455 2.40415 3.09747 0
M  V30 9415 H 884.945 1.71438 3.80787 0
M  V30 9416 N 885.382 -0.782676 1.36792 0
M  V30 9417 C 886.63 -1.53778 1.31136 0
M  V30 9418 C 886.951 -1.94706 -0.107014 0
M  V30 9419 O 886.221 -1.65465 -1.04872 0
M  V30 9420 H 884.801 -0.570328 0.482426 0
M  V30 9421 H 887.463 -0.932181 1.71162 0
M  V30 9422 H 886.559 -2.44224 1.94321 0
M  V30 9423 N 886.86 -1.21182 -1.00761 0
M  V30 9424 C 888.107 -1.02746 -1.74498 0
M  V30 9425 C 888.435 0.439344 -1.89473 0
M  V30 9426 O 887.69 1.34232 -1.42409 0
M  V30 9427 C 887.989 -1.6667 -3.16158 0
M  V30 9428 C 887.655 -3.16515 -3.21137 0
M  V30 9429 C 886.317 -3.57405 -3.22203 0
M  V30 9430 C 888.669 -4.12495 -3.18587 0
M  V30 9431 C 885.997 -4.92786 -3.18401 0
M  V30 9432 C 888.349 -5.47833 -3.16326 0
M  V30 9433 C 887.013 -5.88124 -3.157 0
M  V30 9434 H 886.283 -0.375974 -0.638533 0
M  V30 9435 H 888.93 -1.50736 -1.18114 0
M  V30 9436 H 887.235 -1.10966 -3.75758 0
M  V30 9437 H 888.932 -1.49911 -3.71924 0
M  V30 9438 H 885.522 -2.83947 -3.21048 0
M  V30 9439 H 889.706 -3.81932 -3.16925 0
M  V30 9440 H 884.962 -5.23253 -3.16253 0
M  V30 9441 H 889.136 -6.21942 -3.13306 0
M  V30 9442 H 886.763 -6.92995 -3.12508 0
M  V30 9443 N 888.338 1.20213 -1.01915 0
M  V30 9444 C 889.615 1.85348 -0.62495 0
M  V30 9445 C 889.995 1.91101 0.896854 0
M  V30 9446 O 889.343 1.42075 1.78961 0
M  V30 9447 C 889.553 3.24849 -1.27571 0
M  V30 9448 C 890.901 4.01107 -1.39277 0
M  V30 9449 O 891.925 3.34211 -1.23212 0
M  V30 9450 O 890.784 5.20914 -1.6526 0
M  V30 9451 H 887.878 0.798303 -0.215965 0
M  V30 9452 H 890.424 1.27782 -1.11669 0
M  V30 9453 H 889.196 3.1544 -2.31545 0
M  V30 9454 H 888.819 3.90049 -0.77122 0
M  V30 9455 N 889.816 0.795718 1.36037 0
M  V30 9456 C 891.093 0.294743 1.93367 0
M  V30 9457 C 891.473 -1.21406 1.72696 0
M  V30 9458 O 890.821 -2.00849 1.08959 0
M  V30 9459 C 891.031 0.694254 3.42025 0
M  V30 9460 C 892.379 0.677566 4.19159 0
M  V30 9461 O 893.403 0.635119 3.50492 0
M  V30 9462 O 892.262 0.726127 5.41655 0
M  V30 9463 H 889.356 0.0745459 0.823633 0
M  V30 9464 H 891.902 0.878685 1.4518 0
M  V30 9465 H 890.674 1.73458 3.50753 0
M  V30 9466 H 890.297 0.0845338 3.9751 0
M  V30 9467 N 891.294 -1.47756 0.548274 0
M  V30 9468 C 892.542 -2.02089 0.0208542 0
M  V30 9469 C 892.863 -1.42589 -1.33017 0
M  V30 9470 O 892.133 -0.597825 -1.86555 0
M  V30 9471 H 890.713 -0.746985 0.00472023 0
M  V30 9472 H 893.375 -1.81262 0.716257 0
M  V30 9473 H 892.471 -3.12012 -0.0739016 0
M  V30 9474 N 892.772 -0.284283 -1.55015 0
M  V30 9475 C 894.018 0.330352 -2.00091 0
M  V30 9476 C 894.351 1.54814 -1.17244 0
M  V30 9477 O 893.626 1.92954 -0.244753 0
M  V30 9478 C 893.909 0.703492 -3.53161 0
M  V30 9479 C 893.762 -0.522275 -4.46758 0
M  V30 9480 C 895.081 1.53645 -4.12409 0
M  V30 9481 H 892.2 0.118599 -0.727395 0
M  V30 9482 H 894.842 -0.393054 -1.8589 0
M  V30 9483 H 892.992 1.31983 -3.65394 0
M  V30 9484 H 894.664 -1.16082 -4.46456 0
M  V30 9485 H 892.907 -1.15865 -4.1804 0
M  V30 9486 H 893.578 -0.217295 -5.51572 0
M  V30 9487 H 896.054 1.01583 -4.0351 0
M  V30 9488 H 894.93 1.76633 -5.19704 0
M  V30 9489 H 895.191 2.5204 -3.63219 0
M  V30 9490 N 894.251 1.57596 -0.0117121 0
M  V30 9491 C 895.5 1.9025 0.669921 0
M  V30 9492 C 895.813 0.887986 1.74282 0
M  V30 9493 O 897.019 1.10516 2.47989 0
M  V30 9494 C 895.475 3.37762 1.24277 0
M  V30 9495 C 895.083 4.47535 0.204076 0
M  V30 9496 C 896.827 3.79509 1.90192 0
M  V30 9497 C 894.734 5.86132 0.787577 0
M  V30 9498 H 893.664 0.709935 0.253984 0
M  V30 9499 H 896.315 1.8335 -0.0741718 0
M  V30 9500 H 894.697 3.39537 2.03791 0
M  V30 9501 H 895.871 4.57294 -0.56733 0
M  V30 9502 H 894.186 4.14881 -0.355305 0
M  V30 9503 H 896.783 4.80402 2.34773 0
M  V30 9504 H 897.126 3.13643 2.7374 0
M  V30 9505 H 897.659 3.80084 1.17394 0
M  V30 9506 H 894.398 6.55499 -0.00938418 0
M  V30 9507 H 893.918 5.80014 1.52787 0
M  V30 9508 H 895.597 6.34158 1.28265 0
M  V30 9509 N 895.729 -0.261212 1.5542 0
M  V30 9510 C 896.975 -0.992699 1.76843 0
M  V30 9511 C 897.308 -1.8551 0.574428 0
M  V30 9512 O 896.583 -1.89739 -0.427713 0
M  V30 9513 C 896.866 -1.86532 3.08022 0
M  V30 9514 C 896.719 -1.03206 4.378 0
M  V30 9515 C 898.038 -2.85036 3.35324 0
M  V30 9516 H 895.157 -0.359473 0.643388 0
M  V30 9517 H 897.799 -0.264214 1.88154 0
M  V30 9518 H 895.949 -2.48644 2.9851 0
M  V30 9519 H 897.621 -0.430743 4.59285 0
M  V30 9520 H 895.864 -0.335911 4.32497 0
M  V30 9521 H 896.535 -1.6761 5.25938 0
M  V30 9522 H 899.011 -2.3306 3.44706 0
M  V30 9523 H 897.887 -3.43226 4.28354 0
M  V30 9524 H 898.148 -3.60768 2.55537 0
M  V30 9525 N 897.207 -1.48554 -0.526253 0
M  V30 9526 C 898.117 -1.66044 -1.65731 0
M  V30 9527 C 899.133 -0.542951 -1.65312 0
M  V30 9528 O 900.309 -0.814495 -1.84195 0
M  V30 9529 C 897.374 -1.69959 -3.02184 0
M  V30 9530 C 896.435 -2.93362 -3.13428 0
M  V30 9531 C 895.668 -2.97081 -4.43372 0
M  V30 9532 O 895.891 -2.09103 -5.3069 0
M  V30 9533 O 894.825 -3.8929 -4.59061 0
M  V30 9534 H 898.651 -2.61811 -1.53912 0
M  V30 9535 H 896.236 -1.31999 -0.699759 0
M  V30 9536 H 898.118 -1.75033 -3.83329 0
M  V30 9537 H 896.793 -0.773658 -3.14319 0
M  V30 9538 H 895.7 -2.93818 -2.31564 0
M  V30 9539 H 897.033 -3.85352 -3.06211 0
M  V30 9540 N 898.685 0.775411 -1.37205 0
M  V30 9541 C 899.632 1.88857 -1.32671 0
M  V30 9542 C 900.602 1.64976 -0.192899 0
M  V30 9543 O 901.787 1.86944 -0.381673 0
M  V30 9544 C 898.927 3.25871 -1.13588 0
M  V30 9545 C 898.04 3.61731 -2.36167 0
M  V30 9546 C 897.175 4.87934 -2.09985 0
M  V30 9547 C 896.214 5.16514 -3.2845 0
M  V30 9548 N 895.351 6.33905 -3.01842 0
M  V30 9549 H 900.191 1.92068 -2.27846 0
M  V30 9550 H 897.728 0.939066 -1.13225 0
M  V30 9551 H 899.686 4.04903 -1.00546 0
M  V30 9552 H 898.316 3.22045 -0.220613 0
M  V30 9553 H 897.368 2.77712 -2.59962 0
M  V30 9554 H 898.68 3.78792 -3.24528 0
M  V30 9555 H 897.834 5.74863 -1.93953 0
M  V30 9556 H 896.573 4.7297 -1.18956 0
M  V30 9557 H 895.578 4.28063 -3.45025 0
M  V30 9558 H 896.803 5.33389 -4.20325 0
M  V30 9559 H 894.749 6.20306 -2.13439 0
M  V30 9560 H 894.666 6.51364 -3.83746 0
M  V30 9561 H 895.934 7.23779 -2.8942 0
M  V30 9562 N 900.163 1.21714 1.00117 0
M  V30 9563 C 901.411 1.03465 1.73607 0
M  V30 9564 C 901.732 -0.432295 1.90148 0
M  V30 9565 O 901.002 -1.31157 1.45515 0
M  V30 9566 H 899.582 0.379857 0.643209 0
M  V30 9567 H 902.244 1.53088 1.20624 0
M  V30 9568 H 901.34 1.50574 2.73375 0
M  V30 9569 N 901.641 -1.19671 1.02551 0
M  V30 9570 C 902.589 -2.24812 0.596867 0
M  V30 9571 C 903.583 -1.65336 -0.368839 0
M  V30 9572 O 904.789 -1.78422 -0.237786 0
M  V30 9573 H 901.164 -0.731417 0.174739 0
M  V30 9574 H 903.135 -2.58286 1.49435 0
M  V30 9575 C 901.884 -3.47677 -0.0399514 0
M  V30 9576 H 901.207 -3.93728 0.694153 0
M  V30 9577 H 902.647 -4.22917 -0.302861 0
M  V30 9578 C 901.106 -3.11411 -1.2855 0
M  V30 9579 O 901.636 -3.23757 -2.37791 0
M  V30 9580 N 899.842 -2.65875 -1.17297 0
M  V30 9581 H 899.389 -2.56029 -0.284045 0
M  V30 9582 H 899.347 -2.41981 -2.00731 0
M  V30 9583 N 903.119 -0.802921 -1.35613 0
M  V30 9584 C 904.069 -0.183492 -2.2726 0
M  V30 9585 C 905.053 0.640527 -1.47601 0
M  V30 9586 O 906.245 0.498386 -1.69838 0
M  V30 9587 C 903.374 0.67003 -3.36698 0
M  V30 9588 C 902.46 -0.163517 -4.23785 0
M  V30 9589 N 902.851 -1.22472 -4.90749 0
M  V30 9590 C 901.149 0.0554547 -4.45966 0
M  V30 9591 C 901.85 -1.73329 -5.55276 0
M  V30 9592 N 900.826 -1.04033 -5.33552 0
M  V30 9593 H 904.628 -0.995525 -2.76526 0
M  V30 9594 H 902.142 -0.643714 -1.49098 0
M  V30 9595 H 904.139 1.12981 -4.01299 0
M  V30 9596 H 902.799 1.48045 -2.88986 0
M  V30 9597 H 903.81 -1.60733 -4.92327 0
M  V30 9598 H 900.487 0.835312 -4.09058 0
M  V30 9599 H 901.877 -2.62 -6.18713 0
M  V30 9600 N 904.597 1.47463 -0.556102 0
M  V30 9601 C 905.874 1.9557 0.0339892 0
M  V30 9602 C 906.254 1.49869 1.48669 0
M  V30 9603 O 905.602 0.737019 2.16288 0
M  V30 9604 C 905.812 3.48826 -0.110343 0
M  V30 9605 C 907.16 4.24585 0.0355716 0
M  V30 9606 O 908.184 3.5618 -0.0378356 0
M  V30 9607 O 907.043 5.46158 0.193299 0
M  V30 9608 H 904.137 0.824461 0.0647521 0
M  V30 9609 H 906.683 1.57868 -0.622547 0
M  V30 9610 H 905.455 3.74891 -1.12126 0
M  V30 9611 H 905.078 3.9329 0.583855 0
M  V30 9612 N 906.075 0.2925 1.54862 0
M  V30 9613 C 906.985 -0.597036 2.26876 0
M  V30 9614 C 908.001 -1.15558 1.30086 0
M  V30 9615 O 909.177 -1.18217 1.63054 0
M  V30 9616 C 906.242 -1.75664 2.98903 0
M  V30 9617 C 905.303 -1.23303 4.11212 0
M  V30 9618 C 904.536 -2.33736 4.79795 0
M  V30 9619 O 904.759 -3.53459 4.47686 0
M  V30 9620 O 903.693 -2.00908 5.67379 0
M  V30 9621 H 907.519 -0.0131242 3.03697 0
M  V30 9622 H 905.104 0.0592642 1.49282 0
M  V30 9623 H 906.986 -2.43241 3.4411 0
M  V30 9624 H 905.661 -2.32731 2.24984 0
M  V30 9625 H 904.568 -0.523222 3.70423 0
M  V30 9626 H 905.901 -0.707887 4.87083 0
M  V30 9627 N 907.553 -1.57587 0.0200696 0
M  V30 9628 C 908.483 -2.12702 -0.963333 0
M  V30 9629 C 909.464 -1.04094 -1.34531 0
M  V30 9630 O 910.649 -1.31881 -1.42552 0
M  V30 9631 C 907.779 -2.64673 -2.24868 0
M  V30 9632 C 906.733 -3.77987 -2.00772 0
M  V30 9633 C 906.059 -4.16351 -3.35494 0
M  V30 9634 C 907.359 -5.0444 -1.35416 0
M  V30 9635 H 909.053 -2.95121 -0.504363 0
M  V30 9636 H 906.599 -1.41966 -0.24116 0
M  V30 9637 H 908.552 -3.01862 -2.94036 0
M  V30 9638 H 907.276 -1.79403 -2.72914 0
M  V30 9639 H 905.935 -3.41223 -1.34025 0
M  V30 9640 H 905.583 -3.28075 -3.81282 0
M  V30 9641 H 905.283 -4.92705 -3.20181 0
M  V30 9642 H 906.807 -4.56115 -4.05945 0
M  V30 9643 H 908.221 -5.39273 -1.94571 0
M  V30 9644 H 906.618 -5.85732 -1.30529 0
M  V30 9645 H 907.688 -4.83803 -0.325923 0
M  V30 9646 N 909.032 0.252966 -1.55557 0
M  V30 9647 C 909.965 1.33928 -1.84766 0
M  V30 9648 C 910.943 1.46653 -0.702254 0
M  V30 9649 O 912.127 1.62963 -0.947375 0
M  V30 9650 C 909.254 2.71348 -2.02701 0
M  V30 9651 C 908.3 2.75804 -3.25322 0
M  V30 9652 S 909.133 2.33025 -4.82141 0
M  V30 9653 C 910.289 3.72382 -5.03073 0
M  V30 9654 H 910.522 1.08951 -2.76617 0
M  V30 9655 H 908.055 0.45364 -1.47585 0
M  V30 9656 H 910.013 3.50478 -2.13718 0
M  V30 9657 H 908.674 2.93566 -1.11703 0
M  V30 9658 H 907.867 3.76713 -3.34819 0
M  V30 9659 H 907.469 2.04713 -3.12999 0
M  V30 9660 H 909.761 4.67828 -4.90044 0
M  V30 9661 H 910.704 3.67824 -6.05071 0
M  V30 9662 H 911.112 3.64614 -4.30949 0
M  V30 9663 N 910.51 1.48831 0.518367 0
M  V30 9664 C 911.457 1.64216 1.62178 0
M  V30 9665 C 912.427 0.483942 1.58894 0
M  V30 9666 O 913.612 0.708857 1.77144 0
M  V30 9667 C 910.752 1.69867 3.00399 0
M  V30 9668 C 909.865 2.96875 3.1383 0
M  V30 9669 C 909 2.93613 4.42679 0
M  V30 9670 C 908.039 4.15276 4.4968 0
M  V30 9671 N 907.176 4.10024 5.69934 0
M  V30 9672 H 912.016 2.58439 1.48368 0
M  V30 9673 H 909.553 1.28154 0.722152 0
M  V30 9674 H 911.511 1.71124 3.8049 0
M  V30 9675 H 910.141 0.791249 3.12952 0
M  V30 9676 H 909.193 3.0531 2.26914 0
M  V30 9677 H 910.505 3.86863 3.14863 0
M  V30 9678 H 909.659 2.93337 5.31073 0
M  V30 9679 H 908.398 2.01375 4.44184 0
M  V30 9680 H 907.403 4.15816 3.59691 0
M  V30 9681 H 908.628 5.08687 4.49904 0
M  V30 9682 H 906.574 3.20613 5.72314 0
M  V30 9683 H 906.491 4.93728 5.72511 0
M  V30 9684 H 907.759 4.13824 6.60583 0
M  V30 9685 N 911.988 -0.768124 1.37614 0
M  V30 9686 C 912.898 -1.91249 1.35871 0
M  V30 9687 C 913.914 -1.7208 0.257786 0
M  V30 9688 O 915.09 -1.95253 0.493782 0
M  V30 9689 C 912.155 -3.26423 1.16829 0
M  V30 9690 C 911.216 -3.5822 2.36594 0
M  V30 9691 C 910.449 -4.86945 2.1845 0
M  V30 9692 O 910.672 -5.58258 1.17064 0
M  V30 9693 O 909.606 -5.17888 3.06718 0
M  V30 9694 H 913.432 -1.95671 2.32264 0
M  V30 9695 H 911.017 -0.911382 1.18382 0
M  V30 9696 H 912.899 -4.07269 1.08212 0
M  V30 9697 H 911.574 -3.22845 0.235123 0
M  V30 9698 H 910.481 -2.77594 2.50783 0
M  V30 9699 H 911.814 -3.66545 3.2849 0
M  V30 9700 N 913.466 -1.22244 -0.994698 0
M  V30 9701 C 914.413 -0.990906 -2.08446 0
M  V30 9702 C 915.383 0.086737 -1.65873 0
M  V30 9703 O 916.568 -0.0624882 -1.90698 0
M  V30 9704 C 913.708 -0.572813 -3.40313 0
M  V30 9705 C 912.821 -1.72103 -3.96238 0
M  V30 9706 C 911.956 -1.2511 -5.16257 0
M  V30 9707 C 910.995 -2.37098 -5.64315 0
M  V30 9708 N 910.132 -1.91164 -6.75574 0
M  V30 9709 H 914.972 -1.92377 -2.27585 0
M  V30 9710 H 912.509 -0.958576 -1.11578 0
M  V30 9711 H 914.467 -0.311594 -4.16035 0
M  V30 9712 H 913.097 0.323044 -3.21179 0
M  V30 9713 H 912.149 -2.09662 -3.17405 0
M  V30 9714 H 913.461 -2.56347 -4.27888 0
M  V30 9715 H 912.615 -0.947152 -5.99261 0
M  V30 9716 H 911.354 -0.378836 -4.86226 0
M  V30 9717 H 910.359 -2.68283 -4.799 0
M  V30 9718 H 911.584 -3.24837 -5.96371 0
M  V30 9719 H 909.53 -1.06298 -6.47331 0
M  V30 9720 H 909.447 -2.68975 -7.06533 0
M  V30 9721 H 910.715 -1.63833 -7.62088 0
M  V30 9722 N 914.944 1.19125 -1.03184 0
M  V30 9723 C 916.192 1.8851 -0.728587 0
M  V30 9724 C 916.513 1.80195 0.74531 0
M  V30 9725 O 915.783 1.21437 1.5372 0
M  V30 9726 H 914.363 0.69784 -0.266511 0
M  V30 9727 H 917.025 1.44607 -1.3067 0
M  V30 9728 H 916.121 2.9477 -1.02554 0
M  V30 9729 N 916.422 0.810101 1.35185 0
M  V30 9730 C 917.671 0.388589 1.97921 0
M  V30 9731 C 917.984 -1.05079 1.64978 0
M  V30 9732 O 919.19 -1.57559 2.21105 0
M  V30 9733 C 917.646 0.643864 3.54094 0
M  V30 9734 C 917.254 2.09602 3.95943 0
M  V30 9735 C 918.998 0.287883 4.23523 0
M  V30 9736 C 916.905 2.29686 5.44976 0
M  V30 9737 H 915.835 0.141562 0.740592 0
M  V30 9738 H 918.486 0.994653 1.54204 0
M  V30 9739 H 916.868 -0.0321978 3.95987 0
M  V30 9740 H 918.042 2.81018 3.65192 0
M  V30 9741 H 916.357 2.4122 3.39414 0
M  V30 9742 H 918.954 0.415946 5.3308 0
M  V30 9743 H 919.297 -0.766305 4.09186 0
M  V30 9744 H 919.83 0.918004 3.87063 0
M  V30 9745 H 916.569 3.33563 5.64284 0
M  V30 9746 H 916.089 1.62798 5.77284 0
M  V30 9747 H 917.768 2.11411 6.11485 0
M  V30 9748 N 917.9 -1.47166 0.563914 0
M  V30 9749 C 919.13 -2.06546 0.0473599 0
M  V30 9750 C 919.538 -1.41607 -1.25476 0
M  V30 9751 O 918.881 -0.50894 -1.76509 0
M  V30 9752 C 918.943 -3.58873 -0.212249 0
M  V30 9753 C 918.607 -4.45893 1.00144 0
M  V30 9754 C 919.604 -4.83594 1.90873 0
M  V30 9755 C 917.289 -4.87309 1.218 0
M  V30 9756 C 919.283 -5.61519 3.01621 0
M  V30 9757 C 916.97 -5.64997 2.32856 0
M  V30 9758 C 917.968 -6.02013 3.22597 0
M  V30 9759 O 917.656 -6.78135 4.31727 0
M  V30 9760 H 917.388 -0.674441 0.0458823 0
M  V30 9761 H 919.942 -1.9006 0.778865 0
M  V30 9762 H 918.172 -3.73596 -0.998145 0
M  V30 9763 H 919.861 -4.00248 -0.675005 0
M  V30 9764 H 920.627 -4.52192 1.7535 0
M  V30 9765 H 916.506 -4.57959 0.528641 0
M  V30 9766 H 920.05 -5.90331 3.71693 0
M  V30 9767 H 915.947 -5.95813 2.48349 0
M  V30 9768 H 916.715 -6.96537 4.29859 0
M  V30 9769 N 919.378 -0.300708 -1.54705 0
M  V30 9770 C 920.625 0.308654 -2.00134 0
M  V30 9771 C 920.953 1.53918 -1.1891 0
M  V30 9772 O 920.208 1.94054 -0.253263 0
M  V30 9773 C 920.507 0.710108 -3.50275 0
M  V30 9774 C 920.173 -0.418651 -4.48952 0
M  V30 9775 C 918.835 -0.728524 -4.75653 0
M  V30 9776 C 921.187 -1.17797 -5.07714 0
M  V30 9777 C 918.515 -1.80085 -5.58378 0
M  V30 9778 C 920.867 -2.24022 -5.91606 0
M  V30 9779 C 919.531 -2.55616 -6.16617 0
M  V30 9780 H 918.801 0.112945 -0.732342 0
M  V30 9781 H 921.448 -0.419744 -1.86843 0
M  V30 9782 H 919.753 1.51859 -3.61173 0
M  V30 9783 H 921.45 1.19277 -3.8285 0
M  V30 9784 H 918.04 -0.167034 -4.28274 0
M  V30 9785 H 922.224 -0.951835 -4.87087 0
M  V30 9786 H 917.48 -2.05036 -5.75995 0
M  V30 9787 H 921.654 -2.83317 -6.36164 0
M  V30 9788 H 919.281 -3.38839 -6.80509 0
M  V30 9789 N 920.856 1.57574 -0.0284266 0
M  V30 9790 C 921.803 2.10176 0.953658 0
M  V30 9791 C 922.773 1.00367 1.32347 0
M  V30 9792 O 923.958 1.27783 1.4169 0
M  V30 9793 C 921.098 2.63287 2.231 0
M  V30 9794 C 920.211 3.87102 1.91771 0
M  V30 9795 C 919.346 4.28609 3.13795 0
M  V30 9796 C 918.385 5.45184 2.78282 0
M  V30 9797 N 917.522 5.81851 3.92929 0
M  V30 9798 H 922.362 2.93806 0.498176 0
M  V30 9799 H 919.899 1.45222 0.234302 0
M  V30 9800 H 921.857 2.9217 2.97813 0
M  V30 9801 H 920.487 1.82489 2.66266 0
M  V30 9802 H 919.539 3.64952 1.07303 0
M  V30 9803 H 920.851 4.71892 1.61615 0
M  V30 9804 H 920.005 4.58925 3.96829 0
M  V30 9805 H 918.744 3.42585 3.47112 0
M  V30 9806 H 917.749 5.14563 1.93661 0
M  V30 9807 H 918.974 6.32907 2.46182 0
M  V30 9808 H 916.92 4.98782 4.2609 0
M  V30 9809 H 916.837 6.6128 3.66395 0
M  V30 9810 H 918.105 6.16772 4.76669 0
M  V30 9811 N 922.334 -0.244713 1.55689 0
M  V30 9812 C 923.264 -1.30667 1.93516 0
M  V30 9813 C 924.245 -1.50094 0.800371 0
M  V30 9814 O 925.43 -1.62665 1.06083 0
M  V30 9815 C 922.56 -2.66101 2.23176 0
M  V30 9816 C 921.514 -2.61366 3.38927 0
M  V30 9817 C 920.84 -4.00616 3.54134 0
M  V30 9818 C 922.14 -2.18161 4.74555 0
M  V30 9819 H 923.834 -0.992546 2.82469 0
M  V30 9820 H 921.38 -0.476018 1.35905 0
M  V30 9821 H 923.333 -3.4053 2.48228 0
M  V30 9822 H 922.057 -2.99154 1.31051 0
M  V30 9823 H 920.716 -1.89395 3.13887 0
M  V30 9824 H 920.364 -4.30938 2.59426 0
M  V30 9825 H 920.064 -3.98335 4.31975 0
M  V30 9826 H 921.588 -4.76741 3.8151 0
M  V30 9827 H 923.002 -2.82323 4.98965 0
M  V30 9828 H 921.399 -2.26988 5.55515 0
M  V30 9829 H 922.469 -1.13333 4.7147 0
M  V30 9830 N 923.813 -1.49104 -0.510467 0
M  V30 9831 C 925.059 -1.58346 -1.26705 0
M  V30 9832 C 925.392 -0.265121 -1.92382 0
M  V30 9833 O 924.667 0.730558 -1.80258 0
M  V30 9834 C 924.95 -2.7359 -2.34137 0
M  V30 9835 C 924.803 -4.1519 -1.73024 0
M  V30 9836 C 926.122 -2.84511 -3.3577 0
M  V30 9837 H 923.241 -0.57637 -0.459311 0
M  V30 9838 H 925.883 -1.81353 -0.566658 0
M  V30 9839 H 924.033 -2.54105 -2.93876 0
M  V30 9840 H 925.705 -4.46167 -1.17186 0
M  V30 9841 H 923.948 -4.21279 -1.03473 0
M  V30 9842 H 924.619 -4.91683 -2.50903 0
M  V30 9843 H 927.095 -3.0222 -2.86011 0
M  V30 9844 H 925.971 -3.6684 -4.08313 0
M  V30 9845 H 926.232 -1.93471 -3.97519 0
M  V30 9846 N 925.291 0.760815 -1.38019 0
M  V30 9847 C 926.519 1.55001 -1.37048 0
M  V30 9848 C 926.934 1.88754 0.0415261 0
M  V30 9849 O 926.291 1.52254 1.00624 0
M  V30 9850 C 926.342 2.8536 -2.21928 0
M  V30 9851 O 926.063 2.53049 -3.57628 0
M  V30 9852 C 927.564 3.79536 -2.29057 0
M  V30 9853 H 924.784 0.479844 -0.469032 0
M  V30 9854 H 927.328 0.942148 -1.81504 0
M  V30 9855 H 925.483 3.42542 -1.80953 0
M  V30 9856 H 925.897 3.36604 -4.02241 0
M  V30 9857 H 927.371 4.67977 -2.92749 0
M  V30 9858 H 927.848 4.19453 -1.30213 0
M  V30 9859 H 928.454 3.28281 -2.70392 0
M  V30 9860 N 926.769 1.22769 0.988202 0
M  V30 9861 C 927.702 0.945196 2.07705 0
M  V30 9862 C 928.68 -0.11363 1.62202 0
M  V30 9863 O 929.864 0.0189624 1.8849 0
M  V30 9864 C 926.991 0.422474 3.36055 0
M  V30 9865 C 926.037 1.4667 4.00487 0
M  V30 9866 S 926.87 3.04158 4.40736 0
M  V30 9867 C 928.026 2.53536 5.7225 0
M  V30 9868 H 928.259 1.86723 2.31348 0
M  V30 9869 H 925.792 1.05928 1.12333 0
M  V30 9870 H 927.75 0.12748 4.10302 0
M  V30 9871 H 926.411 -0.478515 3.10434 0
M  V30 9872 H 925.604 1.05093 4.92921 0
M  V30 9873 H 925.206 1.71064 3.32585 0
M  V30 9874 H 927.498 1.95069 6.4881 0
M  V30 9875 H 928.441 3.44479 6.1866 0
M  V30 9876 H 928.849 1.94658 5.29876 0
M  V30 9877 N 928.247 -1.18576 1.03814 0
M  V30 9878 C 929.179 -2.21607 0.585055 0
M  V30 9879 C 930.192 -1.59125 -0.343963 0
M  V30 9880 O 931.381 -1.77959 -0.138882 0
M  V30 9881 C 928.481 -3.38495 -0.165602 0
M  V30 9882 C 927.654 -4.30557 0.770662 0
M  V30 9883 C 926.713 -5.26161 0.0637534 0
M  V30 9884 O 925.739 -5.64961 0.693359 0
M  V30 9885 N 926.941 -5.67882 -1.20377 0
M  V30 9886 H 929.706 -2.61104 1.47121 0
M  V30 9887 H 927.267 -1.33336 0.918316 0
M  V30 9888 H 929.259 -3.99474 -0.648292 0
M  V30 9889 H 927.829 -2.97711 -0.953268 0
M  V30 9890 H 927.049 -3.67221 1.43326 0
M  V30 9891 H 928.337 -4.88969 1.40667 0
M  V30 9892 H 927.735 -5.38409 -1.73586 0
M  V30 9893 H 926.292 -6.31069 -1.63079 0
M  V30 9894 N 929.725 -0.817259 -1.34754 0
M  V30 9895 C 930.953 -0.415451 -2.02686 0
M  V30 9896 C 931.368 0.97688 -1.61563 0
M  V30 9897 O 930.725 1.63125 -0.818321 0
M  V30 9898 C 930.776 -0.501486 -3.58005 0
M  V30 9899 O 930.497 -1.83893 -3.97637 0
M  V30 9900 C 931.998 -0.0938504 -4.43201 0
M  V30 9901 H 929.218 -0.16742 -0.649778 0
M  V30 9902 H 931.762 -1.10384 -1.7215 0
M  V30 9903 H 929.917 0.138766 -3.87151 0
M  V30 9904 H 930.331 -1.8092 -4.92309 0
M  V30 9905 H 931.805 -0.205145 -5.51619 0
M  V30 9906 H 932.282 0.962011 -4.28535 0
M  V30 9907 H 932.888 -0.707677 -4.19371 0
M  V30 9908 N 931.203 1.46865 -0.571711 0
M  V30 9909 C 932.166 2.28658 0.157499 0
M  V30 9910 C 933.166 1.37773 0.829172 0
M  V30 9911 O 934.356 1.6026 0.682811 0
M  V30 9912 C 931.488 3.17859 1.23202 0
M  V30 9913 H 932.681 2.94603 -0.561171 0
M  V30 9914 H 930.234 1.52793 -0.329229 0
M  V30 9915 H 930.969 2.56637 1.98262 0
M  V30 9916 H 930.754 3.84762 0.755031 0
M  V30 9917 H 932.244 3.7945 1.74378 0
M  V30 9918 N 932.681 0.308908 1.54543 0
M  V30 9919 C 933.929 -0.297447 1.99899 0
M  V30 9920 C 934.25 -1.53799 1.19878 0
M  V30 9921 O 933.52 -1.93639 0.29678 0
M  V30 9922 H 932.1 -0.112897 0.738419 0
M  V30 9923 H 934.762 0.422067 1.90275 0
M  V30 9924 H 933.858 -0.564016 3.06961 0
M  V30 9925 N 934.159 -1.57557 0.0367827 0
M  V30 9926 C 935.107 -2.11844 -0.960454 0
M  V30 9927 C 936.101 -1.04681 -1.33185 0
M  V30 9928 O 937.307 -1.23108 -1.31318 0
M  V30 9929 H 933.682 -0.676921 -0.32754 0
M  V30 9930 H 935.653 -2.94557 -0.477346 0
M  V30 9931 C 934.402 -2.66683 -2.23105 0
M  V30 9932 H 933.725 -3.48795 -1.95403 0
M  V30 9933 H 935.165 -3.08305 -2.91074 0
M  V30 9934 C 933.624 -1.59782 -2.96599 0
M  V30 9935 O 934.154 -1.00214 -3.88999 0
M  V30 9936 N 932.36 -1.31644 -2.59072 0
M  V30 9937 H 931.907 -1.80272 -1.8401 0
M  V30 9938 H 931.865 -0.603457 -3.08554 0
M  V30 9939 N 935.637 0.236453 -1.55816 0
M  V30 9940 C 936.547 1.31418 -1.94336 0
M  V30 9941 C 937.563 1.52095 -0.845164 0
M  V30 9942 O 938.739 1.65515 -1.14746 0
M  V30 9943 C 935.804 2.6468 -2.23932 0
M  V30 9944 C 934.865 2.52435 -3.47239 0
M  V30 9945 C 934.098 3.79342 -3.75414 0
M  V30 9946 O 934.321 4.81694 -3.05495 0
M  V30 9947 O 933.255 3.77347 -4.68927 0
M  V30 9948 H 937.081 1.01739 -2.86152 0
M  V30 9949 H 934.666 0.438084 -1.42833 0
M  V30 9950 H 936.548 3.4341 -2.44228 0
M  V30 9951 H 935.223 2.94071 -1.35292 0
M  V30 9952 H 934.13 1.71955 -3.32238 0
M  V30 9953 H 935.463 2.27987 -4.36214 0
M  V30 9954 N 937.115 1.49373 0.502552 0
M  V30 9955 C 938.361 1.59016 1.25864 0
M  V30 9956 C 938.694 0.27532 1.92238 0
M  V30 9957 O 937.969 -0.720988 1.80643 0
M  V30 9958 C 938.252 2.74828 2.32683 0
M  V30 9959 C 938.105 4.16102 1.7082 0
M  V30 9960 C 939.424 2.86288 3.34256 0
M  V30 9961 H 936.543 0.578798 0.456248 0
M  V30 9962 H 939.185 1.81651 0.557032 0
M  V30 9963 H 937.335 2.5566 2.92524 0
M  V30 9964 H 939.007 4.46782 1.14818 0
M  V30 9965 H 937.25 4.21822 1.01238 0
M  V30 9966 H 937.921 4.93006 2.48292 0
M  V30 9967 H 940.397 3.03733 2.84404 0
M  V30 9968 H 939.273 3.69001 4.06362 0
M  V30 9969 H 939.534 1.95576 3.96488 0
M  V30 9970 N 938.594 -0.753485 1.38421 0
M  V30 9971 C 939.504 -1.89797 1.37892 0
M  V30 9972 C 940.52 -1.71797 0.276023 0
M  V30 9973 O 941.696 -1.94718 0.514464 0
M  V30 9974 C 938.761 -3.25166 1.20284 0
M  V30 9975 C 937.822 -3.55691 2.4038 0
M  V30 9976 C 937.055 -4.84601 2.23602 0
M  V30 9977 O 937.278 -5.56985 1.22979 0
M  V30 9978 O 936.212 -5.14605 3.12194 0
M  V30 9979 H 940.038 -1.93197 2.34326 0
M  V30 9980 H 937.623 -0.898775 1.19342 0
M  V30 9981 H 939.505 -4.06099 1.12525 0
M  V30 9982 H 938.18 -3.22577 0.269352 0
M  V30 9983 H 937.087 -2.74919 2.53714 0
M  V30 9984 H 938.42 -3.6304 3.32359 0
M  V30 9985 N 940.072 -1.23292 -0.981677 0
M  V30 9986 C 941.002 -1.03738 -2.09191 0
M  V30 9987 C 941.983 0.0453041 -1.7004 0
M  V30 9988 O 943.168 -0.119092 -1.93834 0
M  V30 9989 C 940.298 -0.626426 -3.41604 0
M  V30 9990 C 939.252 -1.65631 -3.94652 0
M  V30 9991 C 938.578 -1.10084 -5.23245 0
M  V30 9992 C 939.878 -3.04903 -4.24066 0
M  V30 9993 H 941.572 -1.966 -2.25807 0
M  V30 9994 H 939.118 -0.946656 -1.0851 0
M  V30 9995 H 941.071 -0.476689 -4.18695 0
M  V30 9996 H 939.795 0.337873 -3.24848 0
M  V30 9997 H 938.454 -1.79402 -3.19704 0
M  V30 9998 H 938.102 -0.127562 -5.02838 0
M  V30 9999 H 937.802 -1.78896 -5.59705 0
M  V30 10000 H 939.326 -0.962928 -6.02959 0
M  V30 10001 H 940.74 -2.94441 -4.91912 0
M  V30 10002 H 939.137 -3.70941 -4.71724 0
M  V30 10003 H 940.207 -3.53991 -3.31389 0
M  V30 10004 N 941.55 1.18024 -1.04442 0
M  V30 10005 C 942.46 2.25436 -0.649276 0
M  V30 10006 C 943.476 1.70915 0.326189 0
M  V30 10007 O 944.652 2.00592 0.180174 0
M  V30 10008 C 941.717 3.46693 -0.0222558 0
M  V30 10009 C 940.778 4.16332 -1.0472 0
M  V30 10010 C 940.011 5.31799 -0.450011 0
M  V30 10011 O 940.234 5.65544 0.742717 0
M  V30 10012 O 939.168 5.90209 -1.18056 0
M  V30 10013 H 942.994 2.61508 -1.54426 0
M  V30 10014 H 940.579 1.25178 -0.81552 0
M  V30 10015 H 942.461 4.20132 0.326597 0
M  V30 10016 H 941.136 3.12436 0.84649 0
M  V30 10017 H 940.043 3.44944 -1.44792 0
M  V30 10018 H 941.376 4.54598 -1.88684 0
M  V30 10019 N 943.028 0.824394 1.34319 0
M  V30 10020 C 943.976 0.235628 2.31403 0
M  V30 10021 C 944.97 -0.624443 1.57471 0
M  V30 10022 O 946.176 -0.515618 1.72457 0
M  V30 10023 H 942.551 0.0574537 0.749802 0
M  V30 10024 H 944.522 1.06925 2.78585 0
M  V30 10025 C 943.271 -0.586617 3.42716 0
M  V30 10026 H 942.594 0.0658669 3.99746 0
M  V30 10027 H 944.034 -0.964661 4.1288 0
M  V30 10028 C 942.493 -1.75957 2.87299 0
M  V30 10029 O 943.023 -2.8578 2.82299 0
M  V30 10030 N 941.229 -1.57678 2.44102 0
M  V30 10031 H 940.776 -0.683436 2.48369 0
M  V30 10032 H 940.734 -2.36311 2.07375 0
M  V30 10033 N 944.506 -1.46559 0.579492 0
M  V30 10034 C 945.469 -2.28739 -0.145371 0
M  V30 10035 C 946.469 -1.38211 -0.821854 0
M  V30 10036 O 947.659 -1.6062 -0.674302 0
M  V30 10037 C 944.791 -3.18507 -1.21515 0
M  V30 10038 H 945.984 -2.94301 0.576786 0
M  V30 10039 H 943.537 -1.52616 0.337327 0
M  V30 10040 H 944.272 -2.57685 -1.96899 0
M  V30 10041 H 944.057 -3.85157 -0.734616 0
M  V30 10042 H 945.547 -3.80369 -1.72363 0
M  V30 10043 N 945.984 -0.3171 -1.54377 0
M  V30 10044 C 946.947 0.53905 -2.22771 0
M  V30 10045 C 947.947 1.04865 -1.21901 0
M  V30 10046 O 949.137 0.942108 -1.46526 0
M  V30 10047 C 946.269 1.74804 -2.92671 0
M  V30 10048 H 947.462 -0.0587417 -2.99842 0
M  V30 10049 H 945.015 -0.068107 -1.56152 0
M  V30 10050 H 945.75 2.38524 -2.1972 0
M  V30 10051 H 945.535 1.39011 -3.66631 0
M  V30 10052 H 947.025 2.35592 -3.44799 0
M  V30 10053 N 947.462 1.57535 -0.0451378 0
M  V30 10054 C 948.739 1.83785 0.669523 0
M  V30 10055 C 949.119 0.932331 1.89396 0
M  V30 10056 O 948.467 -0.00813229 2.28499 0
M  V30 10057 C 948.677 3.33376 1.03255 0
M  V30 10058 C 950.025 4.00243 1.41741 0
M  V30 10059 O 951.049 3.37965 1.12507 0
M  V30 10060 O 949.908 5.10038 1.96275 0
M  V30 10061 H 947.002 0.758342 0.329919 0
M  V30 10062 H 949.548 1.69538 -0.0740415 0
M  V30 10063 H 948.32 3.90965 0.161777 0
M  V30 10064 H 947.943 3.52787 1.83376 0
M  V30 10065 N 948.94 -0.228186 1.55939 0
M  V30 10066 C 949.85 -1.30386 1.9503 0
M  V30 10067 C 950.866 -1.51645 0.853218 0
M  V30 10068 O 952.042 -1.64904 1.15623 0
M  V30 10069 C 949.107 -2.63489 2.25332 0
M  V30 10070 C 948.168 -2.5059 3.48573 0
M  V30 10071 C 947.401 -3.77345 3.7742 0
M  V30 10072 O 947.624 -4.80067 3.08045 0
M  V30 10073 O 946.558 -3.74855 4.70922 0
M  V30 10074 H 950.384 -1.0022 2.86687 0
M  V30 10075 H 947.969 -0.430503 1.43063 0
M  V30 10076 H 949.851 -3.4211 2.46046 0
M  V30 10077 H 948.526 -2.93349 1.3685 0
M  V30 10078 H 947.433 -1.70191 3.33145 0
M  V30 10079 H 948.766 -2.2567 4.37417 0
M  V30 10080 N 950.418 -1.49637 -0.494624 0
M  V30 10081 C 951.643 -1.63431 -1.27691 0
M  V30 10082 C 952.068 -0.30813 -1.85559 0
M  V30 10083 O 951.426 0.725083 -1.66169 0
M  V30 10084 C 951.474 -2.71043 -2.3784 0
M  V30 10085 O 950.578 -2.3066 -3.41862 0
M  V30 10086 H 949.919 -0.546804 -0.376698 0
M  V30 10087 H 952.449 -1.95866 -0.591413 0
M  V30 10088 H 952.459 -2.93406 -2.83508 0
M  V30 10089 H 951.134 -3.67306 -1.95088 0
M  V30 10090 H 949.711 -2.18652 -3.02069 0
M  V30 10091 N 951.896 0.746133 -1.38819 0
M  V30 10092 C 952.843 1.86001 -1.36647 0
M  V30 10093 C 953.813 1.6453 -0.227849 0
M  V30 10094 O 954.998 1.86092 -0.421241 0
M  V30 10095 C 952.138 3.23388 -1.20474 0
M  V30 10096 C 951.251 3.5664 -2.43786 0
M  V30 10097 C 950.386 4.8337 -2.20287 0
M  V30 10098 C 949.425 5.09431 -3.39332 0
M  V30 10099 N 948.562 6.2736 -3.1522 0
M  V30 10100 H 953.402 1.87192 -2.31869 0
M  V30 10101 H 950.939 0.914838 -1.15192 0
M  V30 10102 H 952.897 4.02679 -1.09112 0
M  V30 10103 H 951.527 3.21505 -0.288874 0
M  V30 10104 H 950.579 2.72135 -2.65794 0
M  V30 10105 H 951.891 3.71823 -3.3249 0
M  V30 10106 H 951.045 5.70619 -2.06103 0
M  V30 10107 H 949.784 4.70341 -1.28961 0
M  V30 10108 H 948.789 4.20648 -3.54027 0
M  V30 10109 H 950.014 5.24354 -4.31544 0
M  V30 10110 H 947.96 6.15639 -2.26549 0
M  V30 10111 H 947.877 6.43078 -3.97476 0
M  V30 10112 H 949.145 7.17477 -3.04707 0
M  V30 10113 N 953.375 1.23811 0.975125 0
M  V30 10114 C 954.6 1.10109 1.75757 0
M  V30 10115 C 955.025 -0.342922 1.84948 0
M  V30 10116 O 954.383 -1.24814 1.31496 0
M  V30 10117 C 954.431 1.73724 3.15994 0
M  V30 10118 O 953.535 1.00297 4.00018 0
M  V30 10119 H 952.876 0.385627 0.540544 0
M  V30 10120 H 955.406 1.63971 1.22372 0
M  V30 10121 H 955.416 1.79178 3.6655 0
M  V30 10122 H 954.091 2.78794 3.0862 0
M  V30 10123 H 952.668 1.02575 3.58515 0
M  V30 10124 N 954.853 -1.17469 1.05066 0
M  V30 10125 C 955.763 -2.25089 0.661222 0
M  V30 10126 C 956.779 -1.71086 -0.31712 0
M  V30 10127 O 957.955 -2.00685 -0.169534 0
M  V30 10128 C 955.02 -3.46676 0.0406415 0
M  V30 10129 C 954.081 -4.15771 1.06927 0
M  V30 10130 C 953.314 -5.31553 0.478208 0
M  V30 10131 O 953.537 -5.6593 -0.712714 0
M  V30 10132 O 952.471 -5.89574 1.21185 0
M  V30 10133 H 956.297 -2.60685 1.5581 0
M  V30 10134 H 953.882 -1.24744 0.822147 0
M  V30 10135 H 955.764 -4.203 -0.304312 0
M  V30 10136 H 954.439 -3.1288 -0.829909 0
M  V30 10137 H 953.346 -3.44171 1.46619 0
M  V30 10138 H 954.679 -4.53591 1.91092 0
M  V30 10139 N 956.331 -0.831506 -1.3388 0
M  V30 10140 C 957.58 -0.420028 -1.97278 0
M  V30 10141 C 957.893 1.02441 -1.66629 0
M  V30 10142 O 959.099 1.54021 -2.23584 0
M  V30 10143 C 957.555 -0.700116 -3.53025 0
M  V30 10144 C 957.163 -2.15874 -3.92559 0
M  V30 10145 C 958.907 -0.355226 -4.23011 0
M  V30 10146 C 956.814 -2.38327 -5.41252 0
M  V30 10147 H 955.744 -0.153326 -0.738246 0
M  V30 10148 H 958.395 -1.01906 -1.52602 0
M  V30 10149 H 956.777 -0.0308044 -3.95988 0
M  V30 10150 H 957.951 -2.86792 -3.60675 0
M  V30 10151 H 956.266 -2.4659 -3.35533 0
M  V30 10152 H 958.863 -0.500701 -5.32351 0
M  V30 10153 H 959.206 0.70111 -4.10354 0
M  V30 10154 H 959.739 -0.979466 -3.85553 0
M  V30 10155 H 956.478 -3.42498 -5.58906 0
M  V30 10156 H 955.998 -1.71962 -5.74621 0
M  V30 10157 H 957.677 -2.21113 -6.08045 0
M  V30 10158 N 957.809 1.4625 -0.587256 0
M  V30 10159 C 959.086 1.95599 -0.00750181 0
M  V30 10160 C 959.466 1.52989 1.45457 0
M  V30 10161 O 958.814 0.782731 2.14676 0
M  V30 10162 C 959.024 3.48513 -0.184309 0
M  V30 10163 C 960.372 4.24565 -0.0544972 0
M  V30 10164 O 961.396 3.5602 -0.113378 0
M  V30 10165 O 960.255 5.46445 0.0774075 0
M  V30 10166 H 957.349 0.825649 0.0472495 0
M  V30 10167 H 959.895 1.56512 -0.655893 0
M  V30 10168 H 958.667 3.72428 -1.20053 0
M  V30 10169 H 958.29 3.9444 0.500301 0
M  V30 10170 N 959.287 0.325282 1.54207 0
M  V30 10171 C 960.25 -0.527228 2.23054 0
M  V30 10172 C 961.25 -1.04217 1.22456 0
M  V30 10173 O 962.44 -0.934325 1.47024 0
M  V30 10174 C 959.572 -1.7325 2.93594 0
M  V30 10175 H 960.765 0.0746423 2.99807 0
M  V30 10176 H 958.318 0.0763872 1.56113 0
M  V30 10177 H 959.053 -2.37356 2.20981 0
M  V30 10178 H 958.838 -1.37065 3.67363 0
M  V30 10179 H 960.328 -2.3376 3.46043 0
M  V30 10180 N 960.765 -1.57509 0.0534917 0
M  V30 10181 C 961.695 -2.14698 -0.917999 0
M  V30 10182 C 962.676 -1.06924 -1.32292 0
M  V30 10183 O 963.861 -1.34875 -1.39723 0
M  V30 10184 C 960.991 -2.69383 -2.19203 0
M  V30 10185 C 959.945 -3.82161 -1.9271 0
M  V30 10186 C 959.271 -4.23373 -3.26587 0
M  V30 10187 C 960.571 -5.07199 -1.24686 0
M  V30 10188 H 962.265 -2.96125 -0.44165 0
M  V30 10189 H 959.811 -1.42446 -0.210993 0
M  V30 10190 H 961.764 -3.08031 -2.87567 0
M  V30 10191 H 960.488 -1.85151 -2.69048 0
M  V30 10192 H 959.147 -3.43989 -1.26757 0
M  V30 10193 H 958.795 -3.36089 -3.74237 0
M  V30 10194 H 958.495 -4.99385 -3.09658 0
M  V30 10195 H 960.019 -4.64623 -3.96178 0
M  V30 10196 H 961.433 -5.43279 -1.83088 0
M  V30 10197 H 959.83 -5.88369 -1.18076 0
M  V30 10198 H 960.9 -4.84386 -0.223227 0
M  V30 10199 N 962.243 0.219913 -1.56058 0
M  V30 10200 C 963.153 1.29349 -1.95719 0
M  V30 10201 C 964.169 1.5119 -0.861248 0
M  V30 10202 O 965.345 1.64289 -1.16495 0
M  V30 10203 C 962.41 2.6229 -2.26726 0
M  V30 10204 C 961.471 2.48738 -3.49897 0
M  V30 10205 C 960.704 3.75339 -3.79416 0
M  V30 10206 O 960.927 4.78427 -3.10586 0
M  V30 10207 O 959.861 3.72352 -4.72903 0
M  V30 10208 H 963.687 0.986979 -2.87215 0
M  V30 10209 H 961.272 0.42291 -1.43289 0
M  V30 10210 H 963.154 3.408 -2.47857 0
M  V30 10211 H 961.829 2.92619 -1.38404 0
M  V30 10212 H 960.736 1.68422 -3.34043 0
M  V30 10213 H 962.069 2.23347 -4.38608 0
M  V30 10214 N 963.721 1.49897 0.486681 0
M  V30 10215 C 964.654 1.6224 1.60479 0
M  V30 10216 C 965.632 0.470964 1.5563 0
M  V30 10217 O 966.816 0.688418 1.75479 0
M  V30 10218 C 963.943 1.59059 2.99028 0
M  V30 10219 C 962.989 2.79575 3.22087 0
M  V30 10220 S 963.822 4.41077 3.03664 0
M  V30 10221 C 964.978 4.40564 4.44583 0
M  V30 10222 H 965.211 2.56822 1.49766 0
M  V30 10223 H 962.744 1.38966 0.672893 0
M  V30 10224 H 964.702 1.5791 3.78913 0
M  V30 10225 H 963.363 0.657405 3.07143 0
M  V30 10226 H 962.556 2.73609 4.23266 0
M  V30 10227 H 962.158 2.78211 2.49949 0
M  V30 10228 H 964.45 4.13166 5.36936 0
M  V30 10229 H 965.393 5.42068 4.55596 0
M  V30 10230 H 965.801 3.70461 4.25933 0
M  V30 10231 N 965.199 -0.738761 1.39212 0
M  V30 10232 C 966.424 -1.5331 1.39681 0
M  V30 10233 C 966.849 -1.88098 -0.00768715 0
M  V30 10234 O 966.207 -1.51642 -0.993699 0
M  V30 10235 C 966.255 -2.79958 2.27279 0
M  V30 10236 O 965.359 -3.75727 1.70008 0
M  V30 10237 H 964.7 -0.463131 0.475821 0
M  V30 10238 H 967.23 -0.911768 1.83161 0
M  V30 10239 H 967.24 -3.28732 2.41659 0
M  V30 10240 H 965.915 -2.5397 3.29351 0
M  V30 10241 H 964.492 -3.34483 1.64851 0
M  V30 10242 N 966.677 -1.24326 -0.968545 0
M  V30 10243 C 967.902 -1.1104 -1.75171 0
M  V30 10244 C 968.327 0.333109 -1.85127 0
M  V30 10245 O 967.685 1.24115 -1.32156 0
M  V30 10246 C 967.733 -1.75397 -3.15068 0
M  V30 10247 O 966.837 -1.02417 -3.9948 0
M  V30 10248 H 966.178 -0.388488 -0.538491 0
M  V30 10249 H 968.708 -1.64617 -1.215 0
M  V30 10250 H 968.718 -1.8112 -3.65595 0
M  V30 10251 H 967.393 -2.80427 -3.07138 0
M  V30 10252 H 965.97 -1.04475 -3.57966 0
M  V30 10253 N 968.156 1.1691 -1.05688 0
M  V30 10254 C 969.104 2.2315 -0.656262 0
M  V30 10255 C 970.098 1.66256 0.324873 0
M  V30 10256 O 971.304 1.7899 0.190397 0
M  V30 10257 H 967.679 0.726527 -0.19407 0
M  V30 10258 H 969.65 2.54233 -1.56231 0
M  V30 10259 C 968.399 3.47661 -0.0522431 0
M  V30 10260 H 967.722 3.91749 -0.798299 0
M  V30 10261 H 969.162 4.23571 0.190626 0
M  V30 10262 C 967.621 3.14709 1.20248 0
M  V30 10263 O 968.151 3.29947 2.29124 0
M  V30 10264 N 966.357 2.68892 1.10207 0
M  V30 10265 H 965.904 2.56692 0.216063 0
M  V30 10266 H 965.862 2.47218 1.94244 0
M  V30 10267 N 969.634 0.838594 1.33437 0
M  V30 10268 C 970.911 0.356112 1.92331 0
M  V30 10269 C 971.291 -1.1585 1.76471 0
M  V30 10270 O 970.639 -1.97281 1.15293 0
M  V30 10271 C 970.849 0.802715 3.39643 0
M  V30 10272 C 972.197 0.810575 4.16791 0
M  V30 10273 O 973.221 0.746304 3.48294 0
M  V30 10274 O 972.08 0.898082 5.3907 0
M  V30 10275 H 969.174 0.100711 0.820845 0
M  V30 10276 H 971.72 0.924428 1.42311 0
M  V30 10277 H 970.492 1.84529 3.45057 0
M  V30 10278 H 970.115 0.210956 3.9704 0
M  V30 10279 N 971.112 -1.45937 0.595003 0
M  V30 10280 C 972.337 -2.07207 0.0894416 0
M  V30 10281 C 972.762 -1.43884 -1.21157 0
M  V30 10282 O 972.12 -0.526998 -1.73472 0
M  V30 10283 C 972.168 -3.60565 -0.0499828 0
M  V30 10284 O 971.272 -3.97364 -1.10342 0
M  V30 10285 H 970.613 -0.660471 0.0683627 0
M  V30 10286 H 973.143 -1.87386 0.82144 0
M  V30 10287 H 973.153 -4.0722 -0.252234 0
M  V30 10288 H 971.828 -4.06044 0.90006 0
M  V30 10289 H 970.405 -3.62401 -0.878645 0
M  V30 10290 N 972.59 -0.333456 -1.54032 0
M  V30 10291 C 974.006 0.0188405 -1.59589 0
M  V30 10292 C 974.206 1.49615 -1.34972 0
M  V30 10293 O 973.262 2.2535 -1.13901 0
M  V30 10294 C 974.575 -0.408273 -2.97915 0
M  V30 10295 C 976.123 -0.359763 -3.10926 0
M  V30 10296 C 976.598 -0.76219 -4.51613 0
M  V30 10297 N 978.089 -0.715981 -4.57633 0
M  V30 10298 C 978.824 -0.999436 -5.64623 0
M  V30 10299 N 978.32 -1.35053 -6.79509 0
M  V30 10300 N 980.113 -0.924343 -5.54448 0
M  V30 10301 H 972.264 -1.29587 -1.68289 0
M  V30 10302 H 974.527 -0.527584 -0.787629 0
M  V30 10303 H 974.233 -1.43793 -3.20962 0
M  V30 10304 H 974.107 0.221685 -3.76548 0
M  V30 10305 H 976.494 0.660703 -2.87609 0
M  V30 10306 H 976.575 -1.02479 -2.34375 0
M  V30 10307 H 976.219 -1.78062 -4.75664 0
M  V30 10308 H 976.149 -0.0747478 -5.26547 0
M  V30 10309 H 978.64 -0.456875 -3.75128 0
M  V30 10310 H 978.953 -1.55194 -7.57057 0
M  V30 10311 H 977.298 -1.38889 -6.80981 0
M  V30 10312 H 980.489 -0.649469 -4.63573 0
M  V30 10313 H 980.662 -1.1486 -6.37739 0
M  V30 10314 N 974.068 1.57479 -0.061844 0
M  V30 10315 C 975.293 1.97843 0.622311 0
M  V30 10316 C 975.718 0.939602 1.62951 0
M  V30 10317 O 975.076 -0.095958 1.81046 0
M  V30 10318 C 975.124 3.37262 1.2762 0
M  V30 10319 O 974.228 3.35943 2.39199 0
M  V30 10320 H 973.569 0.644212 0.160896 0
M  V30 10321 H 976.099 2.04165 -0.133409 0
M  V30 10322 H 976.109 3.74226 1.62539 0
M  V30 10323 H 974.784 4.12404 0.538112 0
M  V30 10324 H 973.361 3.10737 2.06148 0
M  V30 10325 N 975.546 -0.211634 1.56173 0
M  V30 10326 C 976.771 -0.955324 1.84088 0
M  V30 10327 C 977.196 -1.76754 0.643407 0
M  V30 10328 O 976.554 -1.76653 -0.407842 0
M  V30 10329 C 976.602 -1.84063 3.10085 0
M  V30 10330 O 975.706 -2.9373 2.89476 0
M  V30 10331 H 975.047 -0.26996 0.606645 0
M  V30 10332 H 977.577 -0.221947 2.03393 0
M  V30 10333 H 977.587 -2.24852 3.40449 0
M  V30 10334 H 976.262 -1.24373 3.96868 0
M  V30 10335 H 974.839 -2.56816 2.7037 0
M  V30 10336 N 977.024 -1.50153 -0.478725 0
M  V30 10337 C 977.954 -1.71384 -1.58587 0
M  V30 10338 C 978.935 -0.562705 -1.60523 0
M  V30 10339 O 980.12 -0.80101 -1.76911 0
M  V30 10340 C 977.25 -1.80094 -2.96957 0
M  V30 10341 C 976.204 -2.95218 -3.09888 0
M  V30 10342 C 975.53 -2.89063 -4.49829 0
M  V30 10343 C 976.83 -4.35841 -2.8782 0
M  V30 10344 H 978.524 -2.64081 -1.41073 0
M  V30 10345 H 976.07 -1.27081 -0.677239 0
M  V30 10346 H 978.023 -1.93531 -3.74331 0
M  V30 10347 H 976.747 -0.840131 -3.1561 0
M  V30 10348 H 975.406 -2.81419 -2.34944 0
M  V30 10349 H 975.054 -1.90844 -4.6539 0
M  V30 10350 H 974.754 -3.66345 -4.59418 0
M  V30 10351 H 976.278 -3.04539 -5.29234 0
M  V30 10352 H 977.692 -4.50205 -3.54948 0
M  V30 10353 H 976.089 -5.14515 -3.0886 0
M  V30 10354 H 977.159 -4.48739 -1.83742 0
M  V30 10355 N 978.502 0.731368 -1.39602 0
M  V30 10356 C 979.751 1.48647 -1.36334 0
M  V30 10357 C 980.064 1.95565 0.0367383 0
M  V30 10358 O 981.27 2.7082 0.192017 0
M  V30 10359 C 979.726 2.68616 -2.39528 0
M  V30 10360 C 979.334 2.28632 -3.85268 0
M  V30 10361 C 981.078 3.46422 -2.45341 0
M  V30 10362 C 978.985 3.45345 -4.80095 0
M  V30 10363 H 977.915 0.558218 -0.506861 0
M  V30 10364 H 980.566 0.797467 -1.65266 0
M  V30 10365 H 978.948 3.39609 -2.03671 0
M  V30 10366 H 980.122 1.65162 -4.30184 0
M  V30 10367 H 978.437 1.63909 -3.82783 0
M  V30 10368 H 981.034 4.33241 -3.13379 0
M  V30 10369 H 981.377 3.8914 -1.47904 0
M  V30 10370 H 981.91 2.82461 -2.80108 0
M  V30 10371 H 978.649 3.07674 -5.78807 0
M  V30 10372 H 978.169 4.07784 -4.39855 0
M  V30 10373 H 979.848 4.1163 -4.99169 0
M  V30 10374 N 979.98 1.24838 0.961938 0
M  V30 10375 C 981.396 1.01502 1.23165 0
M  V30 10376 C 981.596 -0.272651 1.99647 0
M  V30 10377 O 980.652 -0.987297 2.32398 0
M  V30 10378 C 981.965 2.23366 2.01316 0
M  V30 10379 C 983.513 2.28051 2.14387 0
M  V30 10380 C 983.988 3.49552 2.95935 0
M  V30 10381 N 985.479 3.49904 3.03515 0
M  V30 10382 C 986.214 4.40577 3.66987 0
M  V30 10383 N 985.71 5.41512 4.3213 0
M  V30 10384 N 987.503 4.28275 3.64056 0
M  V30 10385 H 979.654 2.07576 0.450086 0
M  V30 10386 H 981.917 0.911205 0.261551 0
M  V30 10387 H 981.623 3.16913 1.5251 0
M  V30 10388 H 981.497 2.25949 3.02038 0
M  V30 10389 H 983.884 1.35032 2.62393 0
M  V30 10390 H 983.965 2.29491 1.12994 0
M  V30 10391 H 983.609 4.42889 2.4862 0
M  V30 10392 H 983.539 3.45357 3.97538 0
M  V30 10393 H 986.03 2.76885 2.57183 0
M  V30 10394 H 986.343 6.06924 4.78396 0
M  V30 10395 H 984.688 5.45393 4.3078 0
M  V30 10396 H 987.879 3.48653 3.12344 0
M  V30 10397 H 988.052 4.99138 4.13237 0
M  V30 10398 N 981.458 -1.16348 1.06306 0
M  V30 10399 C 982.405 -2.20741 0.673962 0
M  V30 10400 C 983.375 -1.628 -0.329454 0
M  V30 10401 O 984.56 -1.89547 -0.218313 0
M  V30 10402 C 981.7 -3.45036 0.0667008 0
M  V30 10403 C 980.813 -4.17221 1.12031 0
M  V30 10404 C 979.948 -5.29034 0.479176 0
M  V30 10405 C 978.987 -5.93021 1.51631 0
M  V30 10406 N 978.124 -6.96327 0.898528 0
M  V30 10407 H 982.964 -2.53376 1.56859 0
M  V30 10408 H 980.501 -1.24449 0.784276 0
M  V30 10409 H 982.459 -4.16099 -0.302916 0
M  V30 10410 H 981.089 -3.1295 -0.791333 0
M  V30 10411 H 980.141 -3.4476 1.60763 0
M  V30 10412 H 981.453 -4.60902 1.90712 0
M  V30 10413 H 980.607 -6.06674 0.0565993 0
M  V30 10414 H 979.346 -4.86517 -0.33951 0
M  V30 10415 H 978.351 -5.14104 1.94878 0
M  V30 10416 H 979.576 -6.37618 2.3371 0
M  V30 10417 H 977.522 -6.55923 0.100555 0
M  V30 10418 H 977.439 -7.38379 1.62272 0
M  V30 10419 H 978.707 -7.77888 0.5011 0
M  V30 10420 N 982.937 -0.845659 -1.3299 0
M  V30 10421 C 984.353 -0.53433 -1.5039 0
M  V30 10422 C 984.553 0.936939 -1.78392 0
M  V30 10423 O 983.609 1.72043 -1.84818 0
M  V30 10424 C 984.922 -1.41354 -2.65404 0
M  V30 10425 C 986.47 -1.41303 -2.79289 0
M  V30 10426 C 986.945 -2.27724 -3.97373 0
M  V30 10427 N 988.436 -2.25471 -4.0462 0
M  V30 10428 C 989.171 -2.89074 -4.95201 0
M  V30 10429 N 988.667 -3.61755 -5.90851 0
M  V30 10430 N 990.46 -2.78508 -4.88251 0
M  V30 10431 H 982.611 -1.79798 -1.13078 0
M  V30 10432 H 984.874 -0.767454 -0.556524 0
M  V30 10433 H 984.58 -2.45936 -2.51413 0
M  V30 10434 H 984.454 -1.09445 -3.60973 0
M  V30 10435 H 986.841 -0.374899 -2.92709 0
M  V30 10436 H 986.922 -1.77222 -1.84461 0
M  V30 10437 H 986.566 -3.316 -3.84713 0
M  V30 10438 H 986.496 -1.89142 -4.9146 0
M  V30 10439 H 988.987 -1.72622 -3.3617 0
M  V30 10440 H 989.3 -4.07475 -6.56646 0
M  V30 10441 H 987.645 -3.65863 -5.90906 0
M  V30 10442 H 990.836 -2.21285 -4.12493 0
M  V30 10443 H 991.009 -3.2836 -5.58645 0
M  V30 10444 N 984.415 1.45619 -0.602734 0
M  V30 10445 C 985.64 2.07157 -0.100429 0
M  V30 10446 C 986.065 1.44524 1.20393 0
M  V30 10447 O 985.423 0.536191 1.7319 0
M  V30 10448 C 985.471 3.60587 0.0308604 0
M  V30 10449 O 984.575 3.97944 1.08234 0
M  V30 10450 H 983.916 0.6601 -0.0718643 0
M  V30 10451 H 986.446 1.86948 -0.831366 0
M  V30 10452 H 986.456 4.07348 0.230634 0
M  V30 10453 H 985.131 4.05561 -0.921581 0
M  V30 10454 H 983.708 3.62862 0.859414 0
M  V30 10455 N 985.893 0.34162 1.53853 0
M  V30 10456 C 987.121 -0.256929 2.05299 0
M  V30 10457 C 987.536 -1.44366 1.21671 0
M  V30 10458 O 986.893 -1.80758 0.251584 0
M  V30 10459 C 986.944 -0.673854 3.55164 0
M  V30 10460 O 986.665 0.465687 4.35618 0
M  V30 10461 C 988.166 -1.33332 4.22773 0
M  V30 10462 H 985.386 -0.0499445 0.669139 0
M  V30 10463 H 987.93 0.493048 1.98467 0
M  V30 10464 H 986.085 -1.37378 3.62224 0
M  V30 10465 H 986.499 0.133723 5.2433 0
M  V30 10466 H 987.973 -1.57582 5.29029 0
M  V30 10467 H 988.45 -2.28628 3.75001 0
M  V30 10468 H 989.056 -0.675489 4.19901 0
M  V30 10469 N 987.371 -1.57444 0.0701946 0
M  V30 10470 C 988.787 -1.57009 -0.286431 0
M  V30 10471 C 988.987 -1.07946 -1.70147 0
M  V30 10472 O 988.043 -0.744622 -2.41271 0
M  V30 10473 C 989.356 -3.00542 -0.0975466 0
M  V30 10474 C 990.904 -3.12553 -0.167205 0
M  V30 10475 C 991.379 -4.58 -0.00662047 0
M  V30 10476 N 992.87 -4.63158 -0.0622778 0
M  V30 10477 C 993.605 -5.73388 0.0375831 0
M  V30 10478 N 993.101 -6.92537 0.190873 0
M  V30 10479 N 994.894 -5.62097 -0.0193672 0
M  V30 10480 H 987.045 -1.87651 0.995023 0
M  V30 10481 H 989.308 -0.865006 0.387902 0
M  V30 10482 H 989.014 -3.40543 0.878822 0
M  V30 10483 H 988.888 -3.67485 -0.850547 0
M  V30 10484 H 991.275 -2.72439 -1.13406 0
M  V30 10485 H 991.356 -2.48251 0.616871 0
M  V30 10486 H 991 -4.98803 0.956992 0
M  V30 10487 H 990.93 -5.20332 -0.810081 0
M  V30 10488 H 993.421 -3.77475 -0.179229 0
M  V30 10489 H 993.734 -7.72365 0.25926 0
M  V30 10490 H 992.079 -6.94632 0.226214 0
M  V30 10491 H 995.27 -4.67897 -0.137815 0
M  V30 10492 H 995.443 -6.4797 0.0619121 0
M  V30 10493 N 988.849 0.203349 -1.56283 0
M  V30 10494 C 990.265 0.55384 -1.49682 0
M  V30 10495 C 990.465 1.86261 -0.768701 0
M  V30 10496 O 989.521 2.50517 -0.315824 0
M  V30 10497 C 990.834 0.616216 -2.94318 0
M  V30 10498 C 992.382 0.705611 -3.04943 0
M  V30 10499 C 992.857 0.79917 -4.50974 0
M  V30 10500 N 994.348 0.862916 -4.55091 0
M  V30 10501 C 995.083 0.955334 -5.65386 0
M  V30 10502 N 994.579 1.01057 -6.8539 0
M  V30 10503 N 996.372 0.991884 -5.53279 0
M  V30 10504 H 988.523 -0.655244 -2.0204 0
M  V30 10505 H 990.786 -0.232344 -0.919087 0
M  V30 10506 H 990.492 -0.27619 -3.50614 0
M  V30 10507 H 990.366 1.47371 -3.4722 0
M  V30 10508 H 992.753 1.58845 -2.48701 0
M  V30 10509 H 992.834 -0.177921 -2.5518 0
M  V30 10510 H 992.478 -0.0792841 -5.07838 0
M  V30 10511 H 992.408 1.69838 -4.9846 0
M  V30 10512 H 994.899 0.829812 -3.68677 0
M  V30 10513 H 995.212 1.08137 -7.65197 0
M  V30 10514 H 993.557 0.979384 -6.88065 0
M  V30 10515 H 996.748 0.945514 -4.58451 0
M  V30 10516 H 996.921 1.06045 -6.39264 0
M  V30 10517 N 990.327 1.50405 0.470755 0
M  V30 10518 C 991.552 1.65442 1.25075 0
M  V30 10519 C 991.977 0.337612 1.85045 0
M  V30 10520 O 991.335 -0.698555 1.67302 0
M  V30 10521 C 991.383 2.74793 2.33498 0
M  V30 10522 O 990.487 2.36069 3.3815 0
M  V30 10523 H 989.828 0.552728 0.367951 0
M  V30 10524 H 992.358 1.96782 0.560177 0
M  V30 10525 H 992.368 2.97879 2.78804 0
M  V30 10526 H 991.043 3.70363 1.8922 0
M  V30 10527 H 989.62 2.2343 2.98552 0
M  V30 10528 N 991.805 -0.723954 1.39988 0
M  V30 10529 C 993.051 -1.48591 1.38017 0
M  V30 10530 C 993.384 -1.94189 -0.0203522 0
M  V30 10531 O 992.659 -1.67572 -0.987422 0
M  V30 10532 C 992.942 -2.71786 2.36229 0
M  V30 10533 C 992.795 -2.32136 3.8527 0
M  V30 10534 C 994.114 -3.73921 2.32102 0
M  V30 10535 H 991.233 -0.538993 0.502648 0
M  V30 10536 H 993.875 -0.826908 1.71062 0
M  V30 10537 H 992.025 -3.28015 2.0818 0
M  V30 10538 H 993.697 -1.81454 4.24113 0
M  V30 10539 H 991.94 -1.64234 4.01509 0
M  V30 10540 H 992.611 -3.20406 4.49493 0
M  V30 10541 H 995.087 -3.27303 2.56928 0
M  V30 10542 H 993.963 -4.5777 3.02882 0
M  V30 10543 H 994.224 -4.21627 1.32979 0
M  V30 10544 N 993.283 -1.25346 -0.955304 0
M  V30 10545 C 994.699 -1.02154 -1.22625 0
M  V30 10546 C 994.899 0.26206 -1.99789 0
M  V30 10547 O 993.955 0.974958 -2.32918 0
M  V30 10548 C 995.268 -2.2443 -2.00129 0
M  V30 10549 C 996.816 -2.29185 -2.13174 0
M  V30 10550 C 997.291 -3.51117 -2.94077 0
M  V30 10551 N 998.782 -3.51509 -3.01655 0
M  V30 10552 C 999.517 -4.42517 -3.64645 0
M  V30 10553 N 999.013 -5.43796 -4.29252 0
M  V30 10554 N 1000.81 -4.302 -3.61779 0
M  V30 10555 H 992.957 -2.07812 -0.439071 0
M  V30 10556 H 995.22 -0.91258 -0.256715 0
M  V30 10557 H 994.926 -3.17717 -1.50827 0
M  V30 10558 H 994.8 -2.27548 -3.00835 0
M  V30 10559 H 997.187 -1.36422 -2.61674 0
M  V30 10560 H 997.268 -2.30087 -1.11775 0
M  V30 10561 H 996.912 -4.44201 -2.46268 0
M  V30 10562 H 996.842 -3.4746 -3.95701 0
M  V30 10563 H 999.333 -2.78245 -2.55711 0
M  V30 10564 H 999.646 -6.09453 -4.75171 0
M  V30 10565 H 997.991 -5.4767 -4.27882 0
M  V30 10566 H 1001.18 -3.50304 -3.10491 0
M  V30 10567 H 1001.36 -5.01323 -4.10584 0
M  V30 10568 N 994.761 1.15782 -1.06922 0
M  V30 10569 C 996.009 1.86097 -0.788192 0
M  V30 10570 C 996.33 1.82475 0.687606 0
M  V30 10571 O 995.6 1.26266 1.49778 0
M  V30 10572 H 994.18 0.689008 -0.288577 0
M  V30 10573 H 996.842 1.40377 -1.35205 0
M  V30 10574 H 995.938 2.91358 -1.1188 0
M  V30 10575 N 996.239 0.8527 1.3254 0
M  V30 10576 C 997.464 0.468157 2.02047 0
M  V30 10577 C 997.889 -0.926967 1.63673 0
M  V30 10578 O 997.247 -1.60855 0.836378 0
M  V30 10579 C 997.295 0.612519 3.5536 0
M  V30 10580 O 996.399 -0.355506 4.10865 0
M  V30 10581 H 995.74 0.188401 0.636711 0
M  V30 10582 H 998.27 1.15135 1.6913 0
M  V30 10583 H 998.28 0.499315 4.04933 0
M  V30 10584 H 996.955 1.62988 3.82632 0
M  V30 10585 H 995.532 -0.198703 3.7237 0
M  V30 10586 N 997.718 -1.45297 0.610449 0
M  V30 10587 C 998.65 -2.28742 -0.144884 0
M  V30 10588 C 999.663 -1.40114 -0.828977 0
M  V30 10589 O 1000.85 -1.64461 -0.693887 0
M  V30 10590 C 997.952 -3.15934 -1.22632 0
M  V30 10591 C 997.125 -4.32857 -0.628785 0
M  V30 10592 C 996.184 -5.01237 -1.60148 0
M  V30 10593 O 995.21 -5.57938 -1.12667 0
M  V30 10594 N 996.412 -5.00785 -2.9359 0
M  V30 10595 H 999.177 -2.94207 0.571145 0
M  V30 10596 H 996.738 -1.55517 0.450134 0
M  V30 10597 H 998.73 -3.58545 -1.87691 0
M  V30 10598 H 997.3 -2.52358 -1.84483 0
M  V30 10599 H 996.52 -3.93693 0.199951 0
M  V30 10600 H 997.808 -5.08367 -0.209845 0
M  V30 10601 H 997.206 -4.56014 -3.34765 0
M  V30 10602 H 995.763 -5.4725 -3.54064 0
M  V30 10603 N 999.196 -0.349774 -1.5367 0
M  V30 10604 C 1000.16 0.491676 -2.23864 0
M  V30 10605 C 1001.16 1.02256 -1.24098 0
M  V30 10606 O 1002.35 0.910816 -1.48492 0
M  V30 10607 C 999.481 1.68557 -2.96313 0
M  V30 10608 H 1000.67 -0.12233 -2.9965 0
M  V30 10609 H 998.227 -0.101214 -1.55972 0
M  V30 10610 H 998.962 2.3381 -2.2473 0
M  V30 10611 H 998.747 1.31203 -3.69497 0
M  V30 10612 H 1000.24 2.28225 -3.49718 0
M  V30 10613 N 1000.67 1.57404 -0.0785433 0
M  V30 10614 C 1001.61 2.101 0.916013 0
M  V30 10615 C 1002.62 1.03459 1.25698 0
M  V30 10616 O 1003.81 1.30954 1.21299 0
M  V30 10617 C 1000.91 2.55202 2.22992 0
M  V30 10618 C 1000.08 3.85491 2.06678 0
M  V30 10619 C 999.14 4.16614 3.21433 0
M  V30 10620 O 998.166 4.86105 2.96126 0
M  V30 10621 N 999.368 3.70697 4.46726 0
M  V30 10622 H 1002.13 2.96054 0.466059 0
M  V30 10623 H 999.694 1.61546 0.107006 0
M  V30 10624 H 1001.69 2.7308 2.9868 0
M  V30 10625 H 1000.26 1.74348 2.59464 0
M  V30 10626 H 999.476 3.76925 1.15417 0
M  V30 10627 H 1000.76 4.70759 1.93036 0
M  V30 10628 H 1000.16 3.14571 4.70172 0
M  V30 10629 H 998.719 3.93762 5.19418 0
M  V30 10630 N 1002.15 -0.195058 1.56388 0
M  V30 10631 C 1003.43 -0.941335 1.71459 0
M  V30 10632 C 1003.81 -2.01375 0.633336 0
M  V30 10633 O 1003.16 -2.25715 -0.35567 0
M  V30 10634 C 1003.37 -1.52772 3.13786 0
M  V30 10635 C 1004.71 -2.00983 3.7402 0
M  V30 10636 O 1005.74 -1.62614 3.16915 0
M  V30 10637 O 1004.6 -2.71586 4.7424 0
M  V30 10638 H 1001.69 -0.441451 0.699321 0
M  V30 10639 H 1004.24 -0.184752 1.68691 0
M  V30 10640 H 1003.01 -0.754699 3.83953 0
M  V30 10641 H 1002.63 -2.34914 3.20782 0
M  V30 10642 N 1003.63 -1.50653 -0.462772 0
M  V30 10643 C 1005.05 -1.38263 -0.797213 0
M  V30 10644 C 1005.25 -0.445172 -1.96521 0
M  V30 10645 O 1004.3 0.10913 -2.52264 0
M  V30 10646 C 1005.61 -2.798 -1.10146 0
M  V30 10647 C 1007.16 -2.88774 -1.20742 0
M  V30 10648 C 1007.64 -4.31163 -1.54476 0
M  V30 10649 N 1009.13 -4.34152 -1.61451 0
M  V30 10650 C 1009.86 -5.4133 -1.89074 0
M  V30 10651 N 1009.36 -6.58705 -2.1466 0
M  V30 10652 N 1011.15 -5.28783 -1.90645 0
M  V30 10653 H 1003.3 -2.10172 0.30684 0
M  V30 10654 H 1005.57 -0.945046 0.0747862 0
M  V30 10655 H 1005.27 -3.50276 -0.316207 0
M  V30 10656 H 1005.15 -3.17559 -2.03559 0
M  V30 10657 H 1007.53 -2.18512 -1.98334 0
M  V30 10658 H 1007.61 -2.54547 -0.252904 0
M  V30 10659 H 1007.26 -5.01965 -0.774207 0
M  V30 10660 H 1007.19 -4.62883 -2.51092 0
M  V30 10661 H 1009.68 -3.49519 -1.43684 0
M  V30 10662 H 1009.99 -7.36192 -2.35035 0
M  V30 10663 H 1008.34 -6.61866 -2.12035 0
M  V30 10664 H 1011.53 -4.36078 -1.70158 0
M  V30 10665 H 1011.7 -6.12396 -2.11836 0
M  V30 10666 N 1005.11 0.71652 -1.4037 0
M  V30 10667 C 1006.06 1.8306 -1.40562 0
M  V30 10668 C 1007.03 1.64009 -0.262697 0
M  V30 10669 O 1008.21 1.85157 -0.460619 0
M  V30 10670 C 1005.35 3.2076 -1.27307 0
M  V30 10671 C 1004.46 3.51389 -2.51296 0
M  V30 10672 C 1003.6 4.78589 -2.30491 0
M  V30 10673 C 1002.64 5.02119 -3.50061 0
M  V30 10674 N 1001.77 6.20533 -3.28457 0
M  V30 10675 H 1006.61 1.82231 -2.35788 0
M  V30 10676 H 1004.15 0.890198 -1.17106 0
M  V30 10677 H 1006.11 4.00274 -1.17628 0
M  V30 10678 H 1004.74 3.2082 -0.357005 0
M  V30 10679 H 1003.79 2.66436 -2.71507 0
M  V30 10680 H 1005.1 3.64686 -3.40302 0
M  V30 10681 H 1004.26 5.66119 -2.1816 0
M  V30 10682 H 1003 4.67499 -1.38909 0
M  V30 10683 H 1002 4.13044 -3.6287 0
M  V30 10684 H 1003.23 5.15082 -4.42569 0
M  V30 10685 H 1001.17 6.10695 -2.39556 0
M  V30 10686 H 1001.09 6.34502 -4.11027 0
M  V30 10687 H 1002.36 7.10853 -3.19857 0
M  V30 10688 N 1006.59 1.25851 0.948643 0
M  V30 10689 C 1007.52 1.09248 2.06367 0
M  V30 10690 C 1008.5 -0.000205168 1.701 0
M  V30 10691 O 1009.68 0.170442 1.93451 0
M  V30 10692 C 1006.81 0.716777 3.39823 0
M  V30 10693 C 1005.77 1.76036 3.90122 0
M  V30 10694 C 1005.09 1.23918 5.20143 0
M  V30 10695 C 1006.39 3.16039 4.15833 0
M  V30 10696 H 1008.09 2.02518 2.20515 0
M  V30 10697 H 1005.63 0.975093 1.05962 0
M  V30 10698 H 1007.59 0.587531 4.17284 0
M  V30 10699 H 1006.31 -0.251626 3.25629 0
M  V30 10700 H 1004.97 1.87815 3.14835 0
M  V30 10701 H 1004.62 0.260836 5.02323 0
M  V30 10702 H 1004.32 1.93673 5.54765 0
M  V30 10703 H 1005.84 1.12245 6.00194 0
M  V30 10704 H 1007.25 3.0738 4.83933 0
M  V30 10705 H 1005.65 3.83317 4.61723 0
M  V30 10706 H 1006.72 3.62652 3.21887 0
M  V30 10707 N 1008.06 -1.15214 1.07534 0
M  V30 10708 C 1009.29 -1.90463 0.820883 0
M  V30 10709 C 1009.71 -1.77578 -0.620305 0
M  V30 10710 O 1009.07 -1.10976 -1.43366 0
M  V30 10711 C 1009.12 -3.38746 1.23627 0
M  V30 10712 O 1008.22 -4.1062 0.382715 0
M  V30 10713 H 1007.57 -0.59292 0.298901 0
M  V30 10714 H 1010.1 -1.45893 1.43445 0
M  V30 10715 H 1010.11 -3.89543 1.21327 0
M  V30 10716 H 1008.78 -3.47443 2.28596 0
M  V30 10717 H 1007.36 -3.69947 0.468374 0
M  V30 10718 N 1009.54 -0.859717 -1.32086 0
M  V30 10719 C 1010.77 -0.479724 -2.01262 0
M  V30 10720 C 1011.19 0.924985 -1.64589 0
M  V30 10721 O 1010.54 1.60439 -0.869803 0
M  V30 10722 C 1010.59 -0.615128 -3.56228 0
M  V30 10723 O 1010.31 -1.96451 -3.91585 0
M  V30 10724 C 1011.82 -0.234804 -4.42678 0
M  V30 10725 H 1009.04 -0.188007 -0.644123 0
M  V30 10726 H 1011.58 -1.15805 -1.68551 0
M  V30 10727 H 1009.73 0.0155268 -3.87397 0
M  V30 10728 H 1010.15 -1.96491 -4.86304 0
M  V30 10729 H 1011.62 -0.380534 -5.50687 0
M  V30 10730 H 1012.1 0.825189 -4.31378 0
M  V30 10731 H 1012.71 -0.840739 -4.16907 0
M  V30 10732 N 1011.02 1.44971 -0.618145 0
M  V30 10733 C 1011.97 2.30606 0.09449 0
M  V30 10734 C 1012.94 1.42725 0.849633 0
M  V30 10735 O 1014.12 1.71643 0.833266 0
M  V30 10736 C 1011.26 3.27803 1.07886 0
M  V30 10737 C 1010.38 4.30787 0.323488 0
M  V30 10738 C 1009.51 5.15085 1.29851 0
M  V30 10739 C 1008.55 6.09788 0.531561 0
M  V30 10740 N 1007.69 6.86829 1.4564 0
M  V30 10741 H 1012.53 2.91008 -0.641738 0
M  V30 10742 H 1010.06 1.43391 -0.328259 0
M  V30 10743 H 1012.02 3.82631 1.66281 0
M  V30 10744 H 1010.65 2.69131 1.78237 0
M  V30 10745 H 1009.7 3.78536 -0.376164 0
M  V30 10746 H 1011.02 4.98044 -0.274443 0
M  V30 10747 H 1010.17 5.74365 1.95421 0
M  V30 10748 H 1008.91 4.4787 1.93037 0
M  V30 10749 H 1007.91 5.49628 -0.137702 0
M  V30 10750 H 1009.14 6.79033 -0.0953993 0
M  V30 10751 H 1007.08 6.22295 2.07571 0
M  V30 10752 H 1007 7.50477 0.912167 0
M  V30 10753 H 1008.27 7.50642 2.10134 0
M  V30 10754 N 1012.5 0.357919 1.53482 0
M  V30 10755 C 1013.41 -0.500273 2.29204 0
M  V30 10756 C 1014.42 -1.09936 1.3487 0
M  V30 10757 O 1015.6 -1.11195 1.67921 0
M  V30 10758 C 1012.67 -1.62828 3.06085 0
M  V30 10759 C 1011.73 -1.05751 4.16071 0
M  V30 10760 C 1010.96 -2.13176 4.89277 0
M  V30 10761 O 1011.18 -3.34153 4.62274 0
M  V30 10762 O 1010.12 -1.76663 5.7539 0
M  V30 10763 H 1013.94 0.115696 3.0348 0
M  V30 10764 H 1011.53 0.122527 1.48897 0
M  V30 10765 H 1013.41 -2.28427 3.54117 0
M  V30 10766 H 1012.08 -2.22979 2.34653 0
M  V30 10767 H 1010.99 -0.365642 3.72309 0
M  V30 10768 H 1012.32 -0.500661 4.89647 0
M  V30 10769 N 1013.98 -1.5736 0.0868897 0
M  V30 10770 C 1014.94 -2.12436 -0.860439 0
M  V30 10771 C 1015.94 -1.05175 -1.21634 0
M  V30 10772 O 1017.13 -1.31098 -1.14713 0
M  V30 10773 C 1014.26 -2.63818 -2.159 0
M  V30 10774 H 1015.45 -2.97453 -0.382346 0
M  V30 10775 H 1013.01 -1.55458 -0.162009 0
M  V30 10776 H 1013.74 -1.82298 -2.68212 0
M  V30 10777 H 1013.53 -3.42234 -1.91359 0
M  V30 10778 H 1015.02 -3.06452 -2.83685 0
M  V30 10779 N 1015.45 0.186762 -1.56489 0
M  V30 10780 C 1016.38 1.23395 -1.98232 0
M  V30 10781 C 1017.37 1.4702 -0.855526 0
M  V30 10782 O 1018.55 1.58616 -1.12048 0
M  V30 10783 C 1015.68 2.57635 -2.32898 0
M  V30 10784 C 1014.63 2.48607 -3.48394 0
M  V30 10785 C 1013.96 3.87196 -3.68759 0
M  V30 10786 C 1015.26 2.00398 -4.82325 0
M  V30 10787 H 1016.95 0.887026 -2.85958 0
M  V30 10788 H 1014.5 0.42525 -1.37578 0
M  V30 10789 H 1016.45 3.31082 -2.60696 0
M  V30 10790 H 1015.18 2.94084 -1.42064 0
M  V30 10791 H 1013.84 1.77615 -3.207 0
M  V30 10792 H 1013.48 4.21012 -2.75241 0
M  V30 10793 H 1013.18 3.82029 -4.46462 0
M  V30 10794 H 1014.71 4.62253 -3.98941 0
M  V30 10795 H 1016.12 2.6361 -5.091 0
M  V30 10796 H 1014.52 2.06214 -5.63556 0
M  V30 10797 H 1015.59 0.957562 -4.75351 0
M  V30 10798 N 1016.93 1.50896 0.454776 0
M  V30 10799 C 1018.21 1.53227 1.21576 0
M  V30 10800 C 1018.59 0.286358 2.09149 0
M  V30 10801 O 1017.94 -0.729469 2.16543 0
M  V30 10802 C 1018.15 2.83693 2.03271 0
M  V30 10803 C 1019.5 3.34981 2.60908 0
M  V30 10804 O 1020.52 2.85126 2.13499 0
M  V30 10805 O 1019.38 4.21929 3.4733 0
M  V30 10806 H 1016.47 0.615306 0.552564 0
M  V30 10807 H 1019.02 1.63197 0.465266 0
M  V30 10808 H 1017.79 3.65839 1.38843 0
M  V30 10809 H 1017.41 2.76803 2.85422 0
M  V30 10810 N 1018.41 -0.709066 1.40748 0
M  V30 10811 C 1019.32 -1.85314 1.43861 0
M  V30 10812 C 1020.34 -1.70832 0.330539 0
M  V30 10813 O 1021.51 -1.92983 0.576152 0
M  V30 10814 C 1018.58 -3.21174 1.30568 0
M  V30 10815 C 1017.64 -3.47863 2.51574 0
M  V30 10816 C 1016.87 -4.77241 2.38906 0
M  V30 10817 O 1017.09 -5.52791 1.40636 0
M  V30 10818 O 1016.03 -5.04413 3.28407 0
M  V30 10819 H 1019.85 -1.85644 2.40354 0
M  V30 10820 H 1017.44 -0.860352 1.2214 0
M  V30 10821 H 1019.32 -4.02313 1.25388 0
M  V30 10822 H 1018 -3.21557 0.371841 0
M  V30 10823 H 1016.9 -2.66708 2.62331 0
M  V30 10824 H 1018.24 -3.52283 3.43741 0
M  V30 10825 N 1019.89 -1.26353 -0.941956 0
M  V30 10826 C 1021.11 -1.14731 -1.72776 0
M  V30 10827 C 1021.54 0.293766 -1.85792 0
M  V30 10828 O 1020.9 1.21284 -1.34759 0
M  V30 10829 C 1020.95 -1.82041 -3.11277 0
M  V30 10830 O 1020.05 -1.10867 -3.97218 0
M  V30 10831 H 1019.39 -0.399823 -0.53013 0
M  V30 10832 H 1021.92 -1.67157 -1.17981 0
M  V30 10833 H 1021.93 -1.88834 -3.61671 0
M  V30 10834 H 1020.61 -2.86879 -3.0112 0
M  V30 10835 H 1019.18 -1.12044 -3.55669 0
M  V30 10836 N 1021.37 1.14642 -1.08144 0
M  V30 10837 C 1022.62 1.84964 -0.804437 0
M  V30 10838 C 1022.93 1.8369 0.672106 0
M  V30 10839 O 1024.14 2.49775 1.06417 0
M  V30 10840 C 1022.59 3.32015 -1.38904 0
M  V30 10841 C 1022.2 3.41713 -2.89718 0
M  V30 10842 C 1023.94 4.07467 -1.19041 0
M  V30 10843 C 1021.85 4.82958 -3.41329 0
M  V30 10844 H 1020.78 0.692932 -0.297256 0
M  V30 10845 H 1023.43 1.29255 -1.30251 0
M  V30 10846 H 1021.81 3.87445 -0.818679 0
M  V30 10847 H 1022.99 2.96347 -3.52867 0
M  V30 10848 H 1021.3 2.79713 -3.08463 0
M  V30 10849 H 1023.9 5.1172 -1.55069 0
M  V30 10850 H 1024.24 4.16097 -0.130027 0
M  V30 10851 H 1024.78 3.58329 -1.72757 0
M  V30 10852 H 1021.51 4.79515 -4.46929 0
M  V30 10853 H 1021.03 5.28873 -2.82937 0
M  V30 10854 H 1022.71 5.51841 -3.37759 0
M  V30 10855 N 1022.85 0.866709 1.31628 0
M  V30 10856 C 1024.26 0.529032 1.79048 0
M  V30 10857 C 1024.61 -0.953871 1.71452 0
M  V30 10858 O 1023.73 -1.74462 1.28031 0
M  V30 10859 C 1024.33 0.953522 3.25105 0
M  V30 10860 C 1022.89 0.667554 3.70433 0
M  V30 10861 C 1022.03 1.14664 2.52483 0
M  V30 10862 H 1024.98 1.05275 1.18756 0
M  V30 10863 H 1025.01 0.274844 3.79506 0
M  V30 10864 H 1024.52 2.03283 3.30602 0
M  V30 10865 H 1022.62 -0.400532 3.70441 0
M  V30 10866 H 1022.73 1.2423 4.62714 0
M  V30 10867 H 1021.1 0.566502 2.4832 0
M  V30 10868 H 1021.88 2.2333 2.60727 0
M  V30 10869 N 1024.32 -1.44642 0.625825 0
M  V30 10870 C 1025.73 -1.85502 0.211175 0
M  V30 10871 C 1026.09 -1.52356 -1.2362 0
M  V30 10872 O 1025.21 -0.959051 -1.93988 0
M  V30 10873 C 1025.81 -3.36702 0.37648 0
M  V30 10874 C 1024.36 -3.76396 0.0163795 0
M  V30 10875 C 1023.51 -2.68517 0.692368 0
M  V30 10876 H 1026.46 -1.35183 0.831333 0
M  V30 10877 H 1026.48 -3.78536 -0.386106 0
M  V30 10878 H 1026 -3.60795 1.42999 0
M  V30 10879 H 1024.1 -3.57919 -1.0356 0
M  V30 10880 H 1024.21 -4.77231 0.422742 0
M  V30 10881 H 1022.57 -2.54377 0.128191 0
M  V30 10882 H 1023.36 -2.95444 1.74837 0
M  V30 10883 N 1025.8 -0.366053 -1.5329 0
M  V30 10884 C 1027.05 0.223824 -2.01561 0
M  V30 10885 C 1027.38 1.48382 -1.25286 0
M  V30 10886 O 1026.66 1.91385 -0.34669 0
M  V30 10887 C 1026.94 0.5153 -3.56394 0
M  V30 10888 C 1026.79 -0.758357 -4.43361 0
M  V30 10889 C 1028.11 1.31568 -4.19974 0
M  V30 10890 H 1025.23 0.0798751 -0.732659 0
M  V30 10891 H 1027.87 -0.491038 -1.83545 0
M  V30 10892 H 1026.02 1.12429 -3.71876 0
M  V30 10893 H 1027.69 -1.39584 -4.39675 0
M  V30 10894 H 1025.94 -1.37862 -4.11311 0
M  V30 10895 H 1026.61 -0.509366 -5.49645 0
M  V30 10896 H 1029.08 0.800514 -4.08327 0
M  V30 10897 H 1027.96 1.48837 -5.28336 0
M  V30 10898 H 1028.22 2.32432 -3.76069 0
M  V30 10899 N 1027.28 1.57312 -0.0952337 0
M  V30 10900 C 1028.5 1.99119 0.580206 0
M  V30 10901 C 1028.93 0.973955 1.60922 0
M  V30 10902 O 1028.29 -0.0575338 1.81209 0
M  V30 10903 C 1028.34 3.39893 1.20438 0
M  V30 10904 O 1027.44 3.40941 2.32019 0
M  V30 10905 H 1026.78 0.64748 0.147195 0
M  V30 10906 H 1029.31 2.03836 -0.176686 0
M  V30 10907 H 1029.32 3.7759 1.54564 0
M  V30 10908 H 1028 4.13453 0.450514 0
M  V30 10909 H 1026.57 3.1504 1.9951 0
M  V30 10910 N 1028.76 -0.17846 1.56586 0
M  V30 10911 C 1030 -0.896235 1.81587 0
M  V30 10912 C 1030.33 -1.82553 0.671168 0
M  V30 10913 O 1029.59 -1.92688 -0.342046 0
M  V30 10914 C 1029.89 -1.73063 3.12704 0
M  V30 10915 C 1029.55 -0.950877 4.4076 0
M  V30 10916 C 1028.21 -0.735647 4.75544 0
M  V30 10917 C 1030.57 -0.403419 5.19636 0
M  V30 10918 C 1027.89 0.0382562 5.86688 0
M  V30 10919 C 1030.25 0.357359 6.3159 0
M  V30 10920 C 1028.91 0.583455 6.64945 0
M  V30 10921 H 1028.18 -0.327956 0.664474 0
M  V30 10922 H 1030.83 -0.161586 1.90817 0
M  V30 10923 H 1029.13 -2.53446 2.98785 0
M  V30 10924 H 1030.83 -2.28891 3.29257 0
M  V30 10925 H 1027.42 -1.12866 4.13472 0
M  V30 10926 H 1031.6 -0.557059 4.93164 0
M  V30 10927 H 1026.86 0.223237 6.10992 0
M  V30 10928 H 1031.03 0.788861 6.91918 0
M  V30 10929 H 1028.66 1.18502 7.50907 0
M  V30 10930 N 1030.24 -1.51135 -0.446768 0
M  V30 10931 C 1031.48 -1.64542 -1.19573 0
M  V30 10932 C 1031.84 -0.352728 -1.89139 0
M  V30 10933 O 1031.13 0.650917 -1.80204 0
M  V30 10934 C 1031.32 -2.78034 -2.2457 0
M  V30 10935 C 1031.15 -4.18214 -1.65308 0
M  V30 10936 C 1029.92 -4.84284 -1.44212 0
M  V30 10937 C 1032.12 -5.01631 -1.13451 0
M  V30 10938 N 1030.1 -6.08606 -0.804486 0
M  V30 10939 C 1031.47 -6.16876 -0.621577 0
M  V30 10940 C 1033.53 -4.87227 -1.02537 0
M  V30 10941 C 1032.23 -7.19299 -0.0102361 0
M  V30 10942 C 1034.26 -5.8985 -0.427936 0
M  V30 10943 C 1033.62 -7.04361 0.0745026 0
M  V30 10944 H 1029.72 -0.656068 -0.425556 0
M  V30 10945 H 1032.3 -1.88334 -0.493802 0
M  V30 10946 H 1030.47 -2.55922 -2.92162 0
M  V30 10947 H 1032.21 -2.8067 -2.91558 0
M  V30 10948 H 1028.96 -4.4199 -1.70123 0
M  V30 10949 H 1029.38 -6.75126 -0.503379 0
M  V30 10950 H 1034.03 -3.98959 -1.39971 0
M  V30 10951 H 1031.74 -8.07224 0.376252 0
M  V30 10952 H 1035.33 -5.80773 -0.34552 0
M  V30 10953 H 1034.21 -7.8241 0.529535 0
M  V30 10954 N 1031.71 0.701592 -1.41122 0
M  V30 10955 C 1033.13 1.01143 -1.23459 0
M  V30 10956 C 1033.33 2.01144 -0.11968 0
M  V30 10957 O 1032.39 2.47132 0.517889 0
M  V30 10958 C 1033.7 1.54179 -2.58165 0
M  V30 10959 C 1035.25 1.66093 -2.65296 0
M  V30 10960 C 1035.72 2.22532 -4.00304 0
M  V30 10961 N 1037.21 2.299 -4.0212 0
M  V30 10962 C 1037.95 2.74584 -5.0338 0
M  V30 10963 N 1037.44 3.18917 -6.15032 0
M  V30 10964 N 1039.24 2.74094 -4.90743 0
M  V30 10965 H 1031.39 0.0390087 -2.12364 0
M  V30 10966 H 1033.65 0.0798848 -0.944628 0
M  V30 10967 H 1033.36 0.881587 -3.40472 0
M  V30 10968 H 1033.23 2.52488 -2.80231 0
M  V30 10969 H 1035.62 2.31227 -1.83352 0
M  V30 10970 H 1035.7 0.663461 -2.47046 0
M  V30 10971 H 1035.34 1.58016 -4.82694 0
M  V30 10972 H 1035.27 3.2302 -4.15891 0
M  V30 10973 H 1037.76 1.98607 -3.21502 0
M  V30 10974 H 1038.08 3.5162 -6.88174 0
M  V30 10975 H 1036.42 3.1684 -6.18577 0
M  V30 10976 H 1039.61 2.38804 -4.02604 0
M  V30 10977 H 1039.79 3.086 -5.69798 0
M  V30 10978 N 1033.19 1.2685 0.935242 0
M  V30 10979 C 1034.44 1.12132 1.67658 0
M  V30 10980 C 1034.75 -0.333839 1.9273 0
M  V30 10981 O 1035.96 -0.601801 2.64746 0
M  V30 10982 C 1034.42 1.95873 3.0193 0
M  V30 10983 C 1034.02 3.46 2.84584 0
M  V30 10984 C 1035.77 1.89781 3.79715 0
M  V30 10985 C 1033.67 4.21966 4.14365 0
M  V30 10986 H 1032.6 0.416035 0.628833 0
M  V30 10987 H 1035.26 1.51209 1.03962 0
M  V30 10988 H 1033.64 1.49633 3.66641 0
M  V30 10989 H 1034.81 4.00049 2.28687 0
M  V30 10990 H 1033.13 3.53391 2.20236 0
M  V30 10991 H 1035.72 2.43819 4.75875 0
M  V30 10992 H 1036.07 0.869797 4.07112 0
M  V30 10993 H 1036.6 2.33875 3.21788 0
M  V30 10994 H 1033.34 5.2526 3.9215 0
M  V30 10995 H 1032.86 3.72696 4.69955 0
M  V30 10996 H 1034.54 4.30734 4.82781 0
M  V30 10997 N 1034.67 -1.14067 1.0875 0
M  V30 10998 C 1035.6 -2.18306 0.664652 0
M  V30 10999 C 1036.58 -1.59312 -0.325359 0
M  V30 11000 O 1037.77 -1.87111 -0.228385 0
M  V30 11001 C 1034.89 -3.38693 -0.0218723 0
M  V30 11002 C 1033.94 -4.16263 0.928844 0
M  V30 11003 S 1034.77 -4.76817 2.43734 0
M  V30 11004 C 1035.93 -6.00557 1.76302 0
M  V30 11005 H 1036.16 -2.53837 1.54772 0
M  V30 11006 H 1033.69 -1.25254 0.902817 0
M  V30 11007 H 1035.65 -4.0843 -0.411686 0
M  V30 11008 H 1034.31 -3.01478 -0.881481 0
M  V30 11009 H 1033.51 -5.02446 0.395446 0
M  V30 11010 H 1033.11 -3.52146 1.25972 0
M  V30 11011 H 1035.4 -6.68788 1.08301 0
M  V30 11012 H 1036.34 -6.58492 2.60373 0
M  V30 11013 H 1036.75 -5.50827 1.23489 0
M  V30 11014 N 1036.15 -0.873678 -1.31166 0
M  V30 11015 C 1037.1 -0.330288 -2.28424 0
M  V30 11016 C 1038.07 0.573299 -1.55893 0
M  V30 11017 O 1039.25 0.504143 -1.84019 0
M  V30 11018 C 1036.39 0.459004 -3.42034 0
M  V30 11019 C 1035.5 -0.472519 -4.29408 0
M  V30 11020 C 1034.64 0.331261 -5.30166 0
M  V30 11021 C 1033.68 -0.596453 -6.09187 0
M  V30 11022 N 1032.81 0.171305 -7.01891 0
M  V30 11023 H 1037.65 -1.16485 -2.7429 0
M  V30 11024 H 1035.19 -0.585813 -1.34932 0
M  V30 11025 H 1037.15 0.932432 -4.06647 0
M  V30 11026 H 1035.78 1.25824 -2.97268 0
M  V30 11027 H 1034.83 -1.06441 -3.65205 0
M  V30 11028 H 1036.14 -1.18372 -4.84551 0
M  V30 11029 H 1035.3 0.867038 -6.00473 0
M  V30 11030 H 1034.04 1.07573 -4.75688 0
M  V30 11031 H 1033.04 -1.14395 -5.37767 0
M  V30 11032 H 1034.27 -1.33983 -6.65752 0
M  V30 11033 H 1032.21 0.89852 -6.49817 0
M  V30 11034 H 1032.13 -0.480481 -7.54472 0
M  V30 11035 H 1033.4 0.688192 -7.76456 0
M  V30 11036 N 1037.63 1.44308 -0.633487 0
M  V30 11037 C 1038.56 2.33431 0.0568402 0
M  V30 11038 C 1039.54 1.48342 0.832386 0
M  V30 11039 O 1040.72 1.77056 0.797798 0
M  V30 11040 C 1037.85 3.31443 1.03743 0
M  V30 11041 C 1036.81 4.26368 0.373362 0
M  V30 11042 C 1036.13 5.14267 1.46403 0
M  V30 11043 C 1037.43 5.17287 -0.721876 0
M  V30 11044 H 1039.13 2.91402 -0.687388 0
M  V30 11045 H 1036.67 1.4012 -0.332009 0
M  V30 11046 H 1038.63 3.92677 1.52913 0
M  V30 11047 H 1037.35 2.71686 1.81258 0
M  V30 11048 H 1036.01 3.6647 -0.0977053 0
M  V30 11049 H 1035.66 4.50861 2.23011 0
M  V30 11050 H 1035.36 5.7859 1.02506 0
M  V30 11051 H 1036.88 5.78373 1.95748 0
M  V30 11052 H 1038.29 5.72444 -0.313181 0
M  V30 11053 H 1036.69 5.90226 -1.08413 0
M  V30 11054 H 1037.76 4.58159 -1.58804 0
M  V30 11055 N 1039.1 0.374177 1.53094 0
M  V30 11056 C 1040.05 -0.48326 2.27524 0
M  V30 11057 C 1041.05 -1.07606 1.30833 0
M  V30 11058 O 1042.25 -1.01827 1.48429 0
M  V30 11059 H 1038.63 -0.174578 0.731455 0
M  V30 11060 H 1040.6 0.166156 2.97937 0
M  V30 11061 C 1039.35 -1.6065 3.08362 0
M  V30 11062 H 1038.67 -1.15966 3.82612 0
M  V30 11063 H 1040.11 -2.18099 3.63606 0
M  V30 11064 C 1038.57 -2.55381 2.19732 0
M  V30 11065 O 1039.1 -3.58414 1.8139 0
M  V30 11066 N 1037.31 -2.24769 1.84194 0
M  V30 11067 H 1036.85 -1.41018 2.15573 0
M  V30 11068 H 1036.81 -2.88404 1.25181 0
M  V30 11069 N 1040.58 -1.57259 0.103575 0
M  V30 11070 C 1041.51 -2.17509 -0.84923 0
M  V30 11071 C 1042.49 -1.11079 -1.28824 0
M  V30 11072 O 1043.68 -1.39252 -1.35361 0
M  V30 11073 C 1040.81 -2.76221 -2.10522 0
M  V30 11074 C 1039.76 -3.88098 -1.80454 0
M  V30 11075 C 1039.09 -4.33549 -3.12952 0
M  V30 11076 C 1040.39 -5.10909 -1.08486 0
M  V30 11077 H 1042.08 -2.9738 -0.347217 0
M  V30 11078 H 1039.63 -1.43045 -0.165568 0
M  V30 11079 H 1041.58 -3.17024 -2.77621 0
M  V30 11080 H 1040.31 -1.93617 -2.63021 0
M  V30 11081 H 1038.96 -3.47847 -1.15749 0
M  V30 11082 H 1038.61 -3.47825 -3.63355 0
M  V30 11083 H 1038.31 -5.08984 -2.93614 0
M  V30 11084 H 1039.84 -4.76992 -3.81196 0
M  V30 11085 H 1041.25 -5.48828 -1.65711 0
M  V30 11086 H 1039.65 -5.91828 -0.992973 0
M  V30 11087 H 1040.72 -4.84851 -0.0690108 0
M  V30 11088 N 1042.06 0.170153 -1.56679 0
M  V30 11089 C 1043.29 0.902134 -1.86197 0
M  V30 11090 C 1043.7 1.75775 -0.689098 0
M  V30 11091 O 1043.06 1.79271 0.341763 0
M  V30 11092 C 1043.11 1.77792 -3.14757 0
M  V30 11093 O 1042.83 0.956817 -4.27524 0
M  V30 11094 C 1044.33 2.61947 -3.57629 0
M  V30 11095 H 1041.55 0.262026 -0.617724 0
M  V30 11096 H 1044.1 0.169899 -2.03793 0
M  V30 11097 H 1042.25 2.46348 -2.98984 0
M  V30 11098 H 1042.67 1.5559 -5.00891 0
M  V30 11099 H 1044.14 3.19011 -4.50484 0
M  V30 11100 H 1044.62 3.36873 -2.81803 0
M  V30 11101 H 1045.22 1.98721 -3.76019 0
M  V30 11102 N 1043.54 1.5137 0.438746 0
M  V30 11103 C 1044.45 1.75424 1.55768 0
M  V30 11104 C 1045.46 0.638409 1.61865 0
M  V30 11105 O 1046.64 0.9205 1.79133 0
M  V30 11106 C 1043.71 1.87288 2.9176 0
M  V30 11107 C 1042.77 3.11137 2.95791 0
M  V30 11108 C 1042 3.22425 4.25297 0
M  V30 11109 O 1042.22 2.39688 5.17596 0
M  V30 11110 O 1041.16 4.15393 4.35583 0
M  V30 11111 H 1044.98 2.70339 1.38386 0
M  V30 11112 H 1042.57 1.35854 0.621609 0
M  V30 11113 H 1044.45 1.97085 3.72472 0
M  V30 11114 H 1043.12 0.955599 3.09273 0
M  V30 11115 H 1042.03 3.06819 2.1404 0
M  V30 11116 H 1043.36 4.02549 2.83223 0
M  V30 11117 N 1045.02 -0.694098 1.41492 0
M  V30 11118 C 1046.26 -1.45493 1.42138 0
M  V30 11119 C 1046.62 -1.92376 0.0302688 0
M  V30 11120 O 1045.91 -1.66723 -0.944142 0
M  V30 11121 C 1046.1 -2.6805 2.36398 0
M  V30 11122 C 1045.93 -2.33157 3.84536 0
M  V30 11123 C 1044.7 -2.2345 4.53209 0
M  V30 11124 C 1046.9 -1.96037 4.75473 0
M  V30 11125 N 1044.88 -1.81457 5.8647 0
M  V30 11126 C 1046.25 -1.64814 5.97693 0
M  V30 11127 C 1048.31 -1.8286 4.63106 0
M  V30 11128 C 1047.01 -1.21738 7.08923 0
M  V30 11129 C 1049.04 -1.41188 5.74299 0
M  V30 11130 C 1048.4 -1.10877 6.95619 0
M  V30 11131 H 1044.5 -0.529635 0.575335 0
M  V30 11132 H 1047.08 -0.802901 1.77374 0
M  V30 11133 H 1045.25 -3.30972 2.03254 0
M  V30 11134 H 1046.99 -3.34531 2.27753 0
M  V30 11135 H 1043.74 -2.41894 4.07166 0
M  V30 11136 H 1044.17 -1.62938 6.571 0
M  V30 11137 H 1048.81 -2.04947 3.69806 0
M  V30 11138 H 1046.53 -0.983947 8.02087 0
M  V30 11139 H 1050.11 -1.3154 5.66735 0
M  V30 11140 H 1048.99 -0.791191 7.80199 0
M  V30 11141 N 1046.49 -1.27344 -0.928501 0
M  V30 11142 C 1047.91 -1.12361 -1.49103 0
M  V30 11143 C 1048.26 0.291667 -1.9402 0
M  V30 11144 O 1047.38 1.18449 -1.81104 0
M  V30 11145 C 1047.98 -2.03358 -2.70981 0
M  V30 11146 C 1046.54 -1.92483 -3.23461 0
M  V30 11147 C 1045.68 -1.95961 -1.962 0
M  V30 11148 H 1048.63 -1.40249 -0.742689 0
M  V30 11149 H 1048.65 -1.58892 -3.45736 0
M  V30 11150 H 1048.17 -3.06356 -2.38259 0
M  V30 11151 H 1046.27 -0.924676 -3.60944 0
M  V30 11152 H 1046.38 -2.78682 -3.89709 0
M  V30 11153 H 1044.74 -1.40175 -2.12657 0
M  V30 11154 H 1045.53 -3.00612 -1.65793 0
M  V30 11155 N 1047.97 1.13488 -1.09353 0
M  V30 11156 C 1049.2 1.88319 -0.849681 0
M  V30 11157 C 1049.61 1.79347 0.602616 0
M  V30 11158 O 1048.95 1.15744 1.4265 0
M  V30 11159 C 1049.02 3.38698 -1.20514 0
M  V30 11160 C 1048.68 3.71452 -2.66219 0
M  V30 11161 C 1049.68 3.70755 -3.64467 0
M  V30 11162 C 1047.36 4.01132 -3.02321 0
M  V30 11163 C 1049.36 3.9928 -4.96845 0
M  V30 11164 C 1047.04 4.29318 -4.3489 0
M  V30 11165 C 1048.04 4.28376 -5.31961 0
M  V30 11166 O 1047.73 4.55872 -6.62145 0
M  V30 11167 H 1047.46 0.603053 -0.305455 0
M  V30 11168 H 1050.01 1.44592 -1.45884 0
M  V30 11169 H 1048.24 3.82925 -0.539022 0
M  V30 11170 H 1049.93 3.94852 -0.940552 0
M  V30 11171 H 1050.7 3.47901 -3.3792 0
M  V30 11172 H 1046.58 4.01013 -2.27398 0
M  V30 11173 H 1050.12 3.9846 -5.72604 0
M  V30 11174 H 1046.02 4.51644 -4.61181 0
M  V30 11175 H 1046.79 4.73544 -6.67607 0
M  V30 11176 N 1049.45 0.880621 1.30701 0
M  V30 11177 C 1050.7 0.496875 1.96309 0
M  V30 11178 C 1051.03 -0.953064 1.69549 0
M  V30 11179 O 1050.28 -1.68782 0.990507 0
M  V30 11180 C 1050.58 0.713203 3.50212 0
M  V30 11181 C 1050.25 2.13756 3.97013 0
M  V30 11182 C 1048.91 2.52706 4.09503 0
M  V30 11183 C 1051.26 3.066 4.21481 0
M  V30 11184 C 1048.59 3.8372 4.43819 0
M  V30 11185 C 1050.94 4.3714 4.57265 0
M  V30 11186 C 1049.6 4.7599 4.67963 0
M  V30 11187 H 1048.87 0.18182 0.718347 0
M  V30 11188 H 1051.52 1.11564 1.55646 0
M  V30 11189 H 1049.83 0.0113694 3.91798 0
M  V30 11190 H 1051.52 0.39595 3.9904 0
M  V30 11191 H 1048.11 1.8252 3.87794 0
M  V30 11192 H 1052.3 2.77729 4.11315 0
M  V30 11193 H 1047.55 4.13568 4.50301 0
M  V30 11194 H 1051.73 5.09123 4.75149 0
M  V30 11195 H 1049.35 5.77549 4.94309 0
M  V30 11196 N 1050.93 -1.4397 0.641131 0
M  V30 11197 C 1052.18 -2.02246 0.14985 0
M  V30 11198 C 1052.51 -1.50387 -1.22871 0
M  V30 11199 O 1051.78 -0.692003 -1.81773 0
M  V30 11200 C 1052.07 -3.59798 0.147449 0
M  V30 11201 C 1051.92 -4.21916 1.55907 0
M  V30 11202 C 1053.24 -4.36985 -0.522667 0
M  V30 11203 H 1050.36 -0.734875 0.0559274 0
M  V30 11204 H 1053 -1.71418 0.819513 0
M  V30 11205 H 1051.15 -3.86193 -0.422789 0
M  V30 11206 H 1052.82 -4.06594 2.17896 0
M  V30 11207 H 1051.06 -3.79028 2.10998 0
M  V30 11208 H 1051.74 -5.30964 1.50934 0
M  V30 11209 H 1054.21 -4.16083 -0.0376226 0
M  V30 11210 H 1053.09 -5.46676 -0.493572 0
M  V30 11211 H 1053.35 -4.12335 -1.59475 0
M  V30 11212 N 1052.41 -0.382291 -1.52893 0
M  V30 11213 C 1053.65 0.202433 -2.01787 0
M  V30 11214 C 1053.99 1.47044 -1.26853 0
M  V30 11215 O 1053.26 1.91007 -0.366969 0
M  V30 11216 C 1053.54 0.477471 -3.5692 0
M  V30 11217 C 1053.4 -0.805339 -4.42532 0
M  V30 11218 C 1054.72 1.27106 -4.21346 0
M  V30 11219 H 1051.84 0.0720998 -0.733465 0
M  V30 11220 H 1054.48 -0.510478 -1.83014 0
M  V30 11221 H 1052.63 1.08478 -3.73048 0
M  V30 11222 H 1054.3 -1.4424 -4.3817 0
M  V30 11223 H 1052.54 -1.42216 -4.09826 0
M  V30 11224 H 1053.21 -0.567635 -5.49074 0
M  V30 11225 H 1055.69 0.757161 -4.09153 0
M  V30 11226 H 1054.57 1.43225 -5.29885 0
M  V30 11227 H 1054.83 2.28431 -3.78513 0
M  V30 11228 N 1053.89 1.57202 -0.111913 0
M  V30 11229 C 1055.13 1.94565 0.546713 0
M  V30 11230 C 1055.45 0.995644 1.67666 0
M  V30 11231 O 1054.72 0.0506681 1.95834 0
M  V30 11232 H 1053.3 0.718334 0.204951 0
M  V30 11233 H 1055.97 1.94074 -0.179193 0
M  V30 11234 H 1055.06 2.9742 0.945931 0
M  V30 11235 N 1055.36 -0.161842 1.56767 0
M  V30 11236 C 1056.61 -0.878224 1.82798 0
M  V30 11237 C 1056.94 -1.81481 0.691242 0
M  V30 11238 O 1056.22 -1.92075 -0.30618 0
M  V30 11239 C 1056.5 -1.66565 3.19262 0
M  V30 11240 C 1056.35 -0.751551 4.43477 0
M  V30 11241 C 1057.67 -2.63134 3.52773 0
M  V30 11242 H 1054.79 -0.317828 0.664947 0
M  V30 11243 H 1057.43 -0.14402 1.89453 0
M  V30 11244 H 1055.58 -2.29157 3.13719 0
M  V30 11245 H 1057.26 -0.137783 4.61094 0
M  V30 11246 H 1055.5 -0.0601785 4.33758 0
M  V30 11247 H 1056.17 -1.33823 5.35533 0
M  V30 11248 H 1058.65 -2.10666 3.5883 0
M  V30 11249 H 1057.52 -3.15289 4.49315 0
M  V30 11250 H 1057.78 -3.43786 2.77963 0
M  V30 11251 N 1056.84 -1.516 -0.430713 0
M  V30 11252 C 1058.09 -1.64596 -1.17959 0
M  V30 11253 C 1058.42 -0.365382 -1.91037 0
M  V30 11254 O 1057.67 0.650826 -1.84561 0
M  V30 11255 C 1057.97 -2.804 -2.21609 0
M  V30 11256 C 1057.64 -4.19431 -1.65495 0
M  V30 11257 C 1056.3 -4.57252 -1.49915 0
M  V30 11258 C 1058.65 -5.0616 -1.24304 0
M  V30 11259 C 1055.98 -5.79501 -0.916276 0
M  V30 11260 C 1058.33 -6.28995 -0.674437 0
M  V30 11261 C 1056.99 -6.65582 -0.505591 0
M  V30 11262 H 1056.26 -0.602301 -0.431642 0
M  V30 11263 H 1058.91 -1.8565 -0.469726 0
M  V30 11264 H 1057.22 -2.53595 -2.98658 0
M  V30 11265 H 1058.91 -2.87654 -2.79385 0
M  V30 11266 H 1055.5 -3.89615 -1.78599 0
M  V30 11267 H 1059.69 -4.77541 -1.35159 0
M  V30 11268 H 1054.94 -6.0649 -0.77328 0
M  V30 11269 H 1059.12 -6.95536 -0.346779 0
M  V30 11270 H 1056.74 -7.60182 -0.0518188 0
M  V30 11271 N 1058.32 0.686584 -1.41858 0
M  V30 11272 C 1059.56 1.45879 -1.43173 0
M  V30 11273 C 1059.92 1.91953 -0.0423059 0
M  V30 11274 O 1061.12 2.68709 0.069783 0
M  V30 11275 C 1059.4 2.63196 -2.41791 0
M  V30 11276 S 1060.95 3.52212 -2.6171 0
M  V30 11277 H 1057.77 0.498391 -0.507077 0
M  V30 11278 H 1060.37 0.800313 -1.78368 0
M  V30 11279 H 1059.08 2.27566 -3.41529 0
M  V30 11280 H 1058.61 3.33928 -2.0798 0
M  V30 11281 H 1060.62 4.58744 -1.89125 0
M  V30 11282 N 1059.8 1.27835 0.921735 0
M  V30 11283 C 1060.76 1.11108 2.00469 0
M  V30 11284 C 1061.76 0.053203 1.60712 0
M  V30 11285 O 1062.95 0.298308 1.71627 0
M  V30 11286 C 1060.08 0.694269 3.33755 0
M  V30 11287 H 1061.28 2.07279 2.16738 0
M  V30 11288 H 1058.83 1.10708 1.10333 0
M  V30 11289 H 1059.56 -0.268561 3.23186 0
M  V30 11290 H 1059.35 1.45836 3.6397 0
M  V30 11291 H 1060.84 0.59965 4.13272 0
M  V30 11292 N 1061.28 -1.12907 1.09954 0
M  V30 11293 C 1062.52 -1.83661 0.833761 0
M  V30 11294 C 1062.84 -1.84736 -0.642798 0
M  V30 11295 O 1064.04 -2.51437 -1.0243 0
M  V30 11296 C 1062.5 -3.29763 1.44168 0
M  V30 11297 C 1062.11 -3.3706 2.95118 0
M  V30 11298 C 1063.85 -4.05522 1.25509 0
M  V30 11299 C 1061.76 -4.77467 3.48969 0
M  V30 11300 H 1060.69 -0.688115 0.308242 0
M  V30 11301 H 1063.34 -1.27166 1.32291 0
M  V30 11302 H 1061.72 -3.86094 0.880215 0
M  V30 11303 H 1062.9 -2.90695 3.57537 0
M  V30 11304 H 1061.21 -2.7477 3.12874 0
M  V30 11305 H 1063.81 -5.09188 1.63191 0
M  V30 11306 H 1064.15 -4.15837 0.196208 0
M  V30 11307 H 1064.68 -3.55536 1.78435 0
M  V30 11308 H 1061.42 -4.72344 4.54501 0
M  V30 11309 H 1060.94 -5.24305 2.91315 0
M  V30 11310 H 1062.62 -5.46397 3.46495 0
M  V30 11311 N 1062.75 -0.88754 -1.30232 0
M  V30 11312 C 1064 -0.503322 -1.95319 0
M  V30 11313 C 1064.32 0.952817 -1.70824 0
M  V30 11314 O 1065.52 1.444 -2.29915 0
M  V30 11315 C 1063.98 -0.849216 -3.49738 0
M  V30 11316 C 1063.59 -2.3233 -3.83049 0
M  V30 11317 C 1065.33 -0.53432 -4.21124 0
M  V30 11318 C 1063.24 -2.61069 -5.30657 0
M  V30 11319 H 1062.17 -0.1845 -0.731078 0
M  V30 11320 H 1064.82 -1.08287 -1.48143 0
M  V30 11321 H 1063.2 -0.198729 -3.95501 0
M  V30 11322 H 1064.37 -3.01832 -3.48187 0
M  V30 11323 H 1062.69 -2.60599 -3.24773 0
M  V30 11324 H 1065.29 -0.726039 -5.29748 0
M  V30 11325 H 1065.63 0.526434 -4.12958 0
M  V30 11326 H 1066.16 -1.14211 -3.81052 0
M  V30 11327 H 1062.9 -3.65895 -5.43876 0
M  V30 11328 H 1062.42 -1.96179 -5.6681 0
M  V30 11329 H 1064.1 -2.46703 -5.98119 0
M  V30 11330 N 1064.23 1.43628 -0.648757 0
M  V30 11331 C 1065.18 2.32529 0.057536 0
M  V30 11332 C 1066.17 1.48358 0.817699 0
M  V30 11333 O 1067.38 1.64595 0.728605 0
M  V30 11334 H 1063.76 0.75107 0.037388 0
M  V30 11335 H 1065.73 2.89829 -0.710062 0
M  V30 11336 C 1064.48 3.32605 1.01336 0
M  V30 11337 H 1063.8 3.97395 0.437855 0
M  V30 11338 H 1065.24 3.97453 1.47672 0
M  V30 11339 C 1063.7 2.62865 2.10722 0
M  V30 11340 O 1064.23 2.4408 3.19042 0
M  V30 11341 N 1062.43 2.22312 1.87152 0
M  V30 11342 H 1061.98 2.3779 0.990644 0
M  V30 11343 H 1061.94 1.75979 2.60536 0
M  V30 11344 N 1065.71 0.390394 1.52688 0
M  V30 11345 C 1066.96 -0.191067 2.01195 0
M  V30 11346 C 1067.28 -1.47229 1.27862 0
M  V30 11347 O 1066.55 -1.91793 0.399007 0
M  V30 11348 H 1065.13 -0.073596 0.743366 0
M  V30 11349 H 1067.79 0.522334 1.8777 0
M  V30 11350 H 1066.89 -0.40051 3.0952 0
M  V30 11351 N 1067.19 -1.57141 0.120249 0
M  V30 11352 C 1068.44 -1.94852 -0.536387 0
M  V30 11353 C 1068.76 -1.00452 -1.67136 0
M  V30 11354 O 1068.03 -0.061053 -1.95805 0
M  V30 11355 H 1066.61 -0.719411 -0.201138 0
M  V30 11356 H 1069.27 -1.93977 0.189482 0
M  V30 11357 H 1068.37 -2.97917 -0.930145 0
M  V30 11358 N 1068.67 0.153526 -1.5685 0
M  V30 11359 C 1069.6 1.19162 -2.00805 0
M  V30 11360 C 1070.58 1.45172 -0.886518 0
M  V30 11361 O 1071.76 1.56203 -1.15387 0
M  V30 11362 C 1068.89 2.52637 -2.38311 0
M  V30 11363 C 1067.85 2.41161 -3.53589 0
M  V30 11364 C 1067.17 3.79287 -3.76889 0
M  V30 11365 C 1068.47 1.90122 -4.86468 0
M  V30 11366 H 1070.17 0.82617 -2.87776 0
M  V30 11367 H 1067.71 0.395972 -1.38449 0
M  V30 11368 H 1069.67 3.25478 -2.6766 0
M  V30 11369 H 1068.39 2.91005 -1.4827 0
M  V30 11370 H 1067.05 1.70772 -3.24395 0
M  V30 11371 H 1066.7 4.15079 -2.84109 0
M  V30 11372 H 1066.4 3.72472 -4.54465 0
M  V30 11373 H 1067.92 4.53687 -4.08657 0
M  V30 11374 H 1069.33 2.52752 -5.14577 0
M  V30 11375 H 1067.73 1.94214 -5.67804 0
M  V30 11376 H 1068.8 0.856517 -4.77275 0
M  V30 11377 N 1070.14 1.51827 0.422667 0
M  V30 11378 C 1071.08 1.70409 1.53275 0
M  V30 11379 C 1072.09 0.584584 1.51942 0
M  V30 11380 O 1073.28 0.859349 1.56453 0
M  V30 11381 C 1070.38 1.717 2.92185 0
M  V30 11382 C 1069.55 3.00472 3.17861 0
M  V30 11383 C 1068.61 2.93755 4.36571 0
M  V30 11384 O 1067.64 3.67682 4.3451 0
M  V30 11385 N 1068.84 2.10612 5.40946 0
M  V30 11386 H 1071.6 2.66176 1.37734 0
M  V30 11387 H 1069.16 1.49895 0.611799 0
M  V30 11388 H 1071.16 1.64756 3.69645 0
M  V30 11389 H 1069.73 0.834655 3.01251 0
M  V30 11390 H 1068.95 3.21171 2.28567 0
M  V30 11391 H 1070.23 3.85684 3.31851 0
M  V30 11392 H 1069.63 1.49954 5.45463 0
M  V30 11393 H 1068.19 2.09535 6.17202 0
M  V30 11394 N 1071.62 -0.679052 1.4222 0
M  V30 11395 C 1073.03 -1.25953 1.37815 0
M  V30 11396 C 1073.38 -1.96077 0.0693215 0
M  V30 11397 O 1072.51 -1.99765 -0.832047 0
M  V30 11398 C 1073.1 -2.29063 2.49631 0
M  V30 11399 C 1071.66 -2.82647 2.48571 0
M  V30 11400 C 1070.81 -1.56909 2.28637 0
M  V30 11401 H 1073.76 -0.472714 1.51496 0
M  V30 11402 H 1073.78 -3.10708 2.19638 0
M  V30 11403 H 1073.29 -1.77996 3.44876 0
M  V30 11404 H 1071.4 -3.37846 1.57132 0
M  V30 11405 H 1071.51 -3.31952 3.45463 0
M  V30 11406 H 1069.87 -1.83323 1.76819 0
M  V30 11407 H 1070.66 -1.07814 3.25931 0
M  V30 11408 N 1073.1 -1.28322 -0.914942 0
M  V30 11409 C 1074.06 -1.12169 -1.99877 0
M  V30 11410 C 1075.06 -0.0617252 -1.60681 0
M  V30 11411 O 1076.25 -0.307405 -1.71466 0
M  V30 11412 C 1073.39 -0.711959 -3.33383 0
M  V30 11413 H 1074.58 -2.08425 -2.15636 0
M  V30 11414 H 1072.13 -1.11291 -1.09745 0
M  V30 11415 H 1072.87 0.251418 -3.23324 0
M  V30 11416 H 1072.65 -1.47764 -3.63192 0
M  V30 11417 H 1074.14 -0.621558 -4.12948 0
M  V30 11418 N 1074.58 1.12322 -1.10551 0
M  V30 11419 C 1075.83 1.83858 -0.848674 0
M  V30 11420 C 1076.15 1.84159 0.62575 0
M  V30 11421 O 1075.41 1.28341 1.4774 0
M  V30 11422 C 1075.71 3.31177 -1.34375 0
M  V30 11423 C 1075.37 3.51046 -2.8298 0
M  V30 11424 C 1074.04 3.56177 -3.23561 0
M  V30 11425 C 1076.39 3.58061 -3.78737 0
M  V30 11426 C 1073.72 3.65868 -4.58647 0
M  V30 11427 C 1076.07 3.69283 -5.13627 0
M  V30 11428 C 1074.73 3.7267 -5.53781 0
M  V30 11429 H 1074 0.672784 -0.310552 0
M  V30 11430 H 1076.65 1.3253 -1.38232 0
M  V30 11431 H 1074.95 3.84937 -0.730144 0
M  V30 11432 H 1076.65 3.84998 -1.12148 0
M  V30 11433 H 1073.24 3.47716 -2.50582 0
M  V30 11434 H 1077.42 3.53366 -3.48491 0
M  V30 11435 H 1072.68 3.66763 -4.89178 0
M  V30 11436 H 1076.85 3.73654 -5.8767 0
M  V30 11437 H 1074.48 3.79932 -6.58449 0
M  V30 11438 N 1076.06 0.894434 1.2976 0
M  V30 11439 C 1077.02 0.373094 2.26143 0
M  V30 11440 C 1078.02 -0.489756 1.5316 0
M  V30 11441 O 1079.21 -0.29556 1.71674 0
M  V30 11442 C 1076.34 -0.467234 3.37683 0
M  V30 11443 H 1077.53 1.22427 2.73773 0
M  V30 11444 H 1075.09 0.672112 1.41111 0
M  V30 11445 H 1075.82 -1.33861 2.95384 0
M  V30 11446 H 1075.61 0.150954 3.91809 0
M  V30 11447 H 1077.1 -0.823469 4.094 0
M  V30 11448 N 1077.53 -1.43282 0.656365 0
M  V30 11449 C 1078.78 -2.00996 0.168354 0
M  V30 11450 C 1079.1 -1.52408 -1.22601 0
M  V30 11451 O 1080.3 -2.02417 -1.80941 0
M  V30 11452 C 1078.76 -3.5903 0.250161 0
M  V30 11453 C 1078.37 -4.1661 1.64742 0
M  V30 11454 C 1080.11 -4.24118 -0.180084 0
M  V30 11455 C 1078.02 -5.66948 1.68299 0
M  V30 11456 H 1076.95 -0.751674 0.0591769 0
M  V30 11457 H 1079.6 -1.64216 0.818859 0
M  V30 11458 H 1077.98 -3.93226 -0.467908 0
M  V30 11459 H 1079.15 -3.93908 2.3911 0
M  V30 11460 H 1077.47 -3.63905 2.02391 0
M  V30 11461 H 1080.07 -5.34419 -0.173401 0
M  V30 11462 H 1080.41 -3.98264 -1.21208 0
M  V30 11463 H 1080.94 -3.94816 0.486343 0
M  V30 11464 H 1077.68 -5.97573 2.69419 0
M  V30 11465 H 1077.2 -5.91697 0.98261 0
M  V30 11466 H 1078.88 -6.31041 1.42813 0
M  V30 11467 N 1079.01 -0.398486 -1.52479 0
M  V30 11468 C 1080.26 0.182046 -2.00877 0
M  V30 11469 C 1080.58 1.47128 -1.2889 0
M  V30 11470 O 1081.78 2.13242 -1.68048 0
M  V30 11471 C 1080.24 0.374978 -3.57941 0
M  V30 11472 C 1079.85 -0.901544 -4.38835 0
M  V30 11473 C 1081.59 0.911378 -4.14601 0
M  V30 11474 C 1079.5 -0.676385 -5.87519 0
M  V30 11475 H 1078.43 0.0718068 -0.750573 0
M  V30 11476 H 1081.08 -0.522297 -1.7591 0
M  V30 11477 H 1079.46 1.14139 -3.79194 0
M  V30 11478 H 1080.63 -1.67329 -4.29346 0
M  V30 11479 H 1078.95 -1.36357 -3.93441 0
M  V30 11480 H 1081.55 1.09569 -5.23353 0
M  V30 11481 H 1081.89 1.88306 -3.71277 0
M  V30 11482 H 1082.42 0.204296 -3.97275 0
M  V30 11483 H 1079.16 -1.61933 -6.35184 0
M  V30 11484 H 1078.68 0.0562542 -5.99774 0
M  V30 11485 H 1080.36 -0.314454 -6.46235 0
M  V30 11486 N 1080.49 1.57075 -0.12858 0
M  V30 11487 C 1081.74 1.9552 0.527087 0
M  V30 11488 C 1082.07 1.01243 1.66072 0
M  V30 11489 O 1081.32 0.0381076 1.95663 0
M  V30 11490 C 1081.62 3.40329 1.09138 0
M  V30 11491 C 1081.29 4.50832 0.0781039 0
M  V30 11492 C 1079.95 4.80782 -0.200493 0
M  V30 11493 C 1082.3 5.17595 -0.61192 0
M  V30 11494 C 1079.63 5.74809 -1.17524 0
M  V30 11495 C 1081.98 6.12671 -1.57536 0
M  V30 11496 C 1080.64 6.41008 -1.86184 0
M  V30 11497 H 1079.91 0.715458 0.192875 0
M  V30 11498 H 1082.56 1.90328 -0.211515 0
M  V30 11499 H 1080.87 3.42262 1.90694 0
M  V30 11500 H 1082.56 3.67393 1.60696 0
M  V30 11501 H 1079.15 4.2751 0.30543 0
M  V30 11502 H 1083.34 4.94605 -0.40986 0
M  V30 11503 H 1078.59 5.95065 -1.40384 0
M  V30 11504 H 1082.77 6.63486 -2.11565 0
M  V30 11505 H 1080.39 7.13673 -2.61868 0
M  V30 11506 N 1081.97 -0.145205 1.5693 0
M  V30 11507 C 1083.19 -0.876386 1.87974 0
M  V30 11508 C 1083.62 -1.73866 0.717795 0
M  V30 11509 O 1082.98 -1.78224 -0.332551 0
M  V30 11510 C 1083.03 -1.70746 3.17613 0
M  V30 11511 O 1082.13 -2.81188 3.01674 0
M  V30 11512 H 1081.47 -0.243987 0.617549 0
M  V30 11513 H 1084 -0.135482 2.04151 0
M  V30 11514 H 1084.01 -2.1021 3.49679 0
M  V30 11515 H 1082.69 -1.07429 4.01786 0
M  V30 11516 H 1081.26 -2.45117 2.81019 0
M  V30 11517 N 1083.45 -1.52049 -0.414609 0
M  V30 11518 C 1084.39 -1.74998 -1.5048 0
M  V30 11519 C 1085.36 -0.592251 -1.55182 0
M  V30 11520 O 1086.55 -0.829203 -1.7184 0
M  V30 11521 C 1083.69 -1.90157 -2.87983 0
M  V30 11522 C 1082.8 -3.17789 -2.92633 0
M  V30 11523 C 1081.94 -3.23411 -4.21401 0
M  V30 11524 C 1080.98 -4.45267 -4.20004 0
M  V30 11525 N 1080.11 -4.48312 -5.40334 0
M  V30 11526 H 1084.95 -2.68046 -1.30212 0
M  V30 11527 H 1082.49 -1.32824 -0.632154 0
M  V30 11528 H 1084.45 -1.96929 -3.67797 0
M  V30 11529 H 1083.08 -1.00496 -3.06758 0
M  V30 11530 H 1082.13 -3.20216 -2.05343 0
M  V30 11531 H 1083.44 -4.07634 -2.87465 0
M  V30 11532 H 1082.6 -3.29224 -5.09604 0
M  V30 11533 H 1081.34 -2.31495 -4.29257 0
M  V30 11534 H 1080.34 -4.39606 -3.30192 0
M  V30 11535 H 1081.57 -5.38472 -4.13793 0
M  V30 11536 H 1079.51 -3.59277 -5.48868 0
M  V30 11537 H 1079.43 -5.31994 -5.37139 0
M  V30 11538 H 1080.7 -4.58347 -6.30506 0
M  V30 11539 N 1084.93 0.6715 -1.42579 0
M  V30 11540 C 1086.17 1.42731 -1.42516 0
M  V30 11541 C 1086.49 1.95545 -0.0462407 0
M  V30 11542 O 1087.69 2.71391 0.0769798 0
M  V30 11543 C 1086.15 2.58215 -2.50705 0
M  V30 11544 C 1085.76 2.12086 -3.94618 0
M  V30 11545 C 1087.5 3.35705 -2.59813 0
M  V30 11546 C 1085.41 3.24672 -4.9431 0
M  V30 11547 H 1084.34 0.536218 -0.530081 0
M  V30 11548 H 1086.99 0.726655 -1.68499 0
M  V30 11549 H 1085.37 3.30665 -2.17892 0
M  V30 11550 H 1086.55 1.46768 -4.36802 0
M  V30 11551 H 1084.86 1.47526 -3.89391 0
M  V30 11552 H 1087.46 4.1956 -3.31472 0
M  V30 11553 H 1087.8 3.82517 -1.64276 0
M  V30 11554 H 1088.33 2.70326 -2.91836 0
M  V30 11555 H 1085.07 2.82848 -5.91335 0
M  V30 11556 H 1084.59 3.88761 -4.56755 0
M  V30 11557 H 1086.27 3.90088 -5.16179 0
M  V30 11558 N 1086.4 1.28806 0.908124 0
M  V30 11559 C 1087.65 1.15663 1.65242 0
M  V30 11560 C 1087.97 -0.292883 1.93395 0
M  V30 11561 O 1089.17 -0.545509 2.65963 0
M  V30 11562 C 1087.63 2.02233 2.97707 0
M  V30 11563 C 1087.24 3.51958 2.77181 0
M  V30 11564 C 1088.98 1.97792 3.75604 0
M  V30 11565 C 1086.89 4.3066 4.05322 0
M  V30 11566 H 1085.82 0.42928 0.619867 0
M  V30 11567 H 1088.47 1.5338 1.00731 0
M  V30 11568 H 1086.85 1.57377 3.63385 0
M  V30 11569 H 1088.02 4.0481 2.20149 0
M  V30 11570 H 1086.34 3.57983 2.12691 0
M  V30 11571 H 1088.94 2.53858 4.70596 0
M  V30 11572 H 1089.28 0.955956 4.05175 0
M  V30 11573 H 1089.81 2.40648 3.16755 0
M  V30 11574 H 1086.55 5.3346 3.8092 0
M  V30 11575 H 1086.07 3.8258 4.61944 0
M  V30 11576 H 1087.75 4.40878 4.73535 0
M  V30 11577 N 1087.88 -1.11734 1.11145 0
M  V30 11578 C 1089.13 -1.83043 0.856717 0
M  V30 11579 C 1089.45 -1.84901 -0.619407 0
M  V30 11580 O 1088.72 -1.31738 -1.44989 0
M  V30 11581 H 1087.3 -0.677823 0.31395 0
M  V30 11582 H 1089.96 -1.35262 1.40322 0
M  V30 11583 H 1089.06 -2.87005 1.22616 0
M  V30 11584 N 1089.36 -0.901303 -1.29284 0
M  V30 11585 C 1090.61 -0.528826 -1.95784 0
M  V30 11586 C 1090.94 0.922833 -1.70873 0
M  V30 11587 O 1090.21 1.65448 -1.0226 0
M  V30 11588 C 1090.5 -0.823793 -3.50551 0
M  V30 11589 C 1090.35 -2.32727 -3.84913 0
M  V30 11590 C 1091.67 -0.311382 -4.38997 0
M  V30 11591 H 1088.79 -0.193604 -0.711116 0
M  V30 11592 H 1091.43 -1.12828 -1.52872 0
M  V30 11593 H 1089.58 -0.313612 -3.87232 0
M  V30 11594 H 1091.25 -2.90712 -3.58168 0
M  V30 11595 H 1089.49 -2.78735 -3.32399 0
M  V30 11596 H 1090.17 -2.48423 -4.9294 0
M  V30 11597 H 1092.64 -0.748265 -4.09317 0
M  V30 11598 H 1091.52 -0.546957 -5.46168 0
M  V30 11599 H 1091.78 0.787959 -4.35021 0
M  V30 11600 N 1090.84 1.42931 -0.663954 0
M  V30 11601 C 1092.08 2.01683 -0.181738 0
M  V30 11602 C 1092.41 1.52437 1.20802 0
M  V30 11603 O 1091.67 0.71254 1.82267 0
M  V30 11604 C 1091.97 3.57072 -0.153163 0
M  V30 11605 C 1091.63 4.25706 -1.48612 0
M  V30 11606 C 1090.29 4.4417 -1.85111 0
M  V30 11607 C 1092.65 4.6448 -2.36448 0
M  V30 11608 C 1089.97 4.98677 -3.09092 0
M  V30 11609 C 1092.33 5.20362 -3.5973 0
M  V30 11610 C 1090.99 5.37041 -3.96412 0
M  V30 11611 H 1090.26 0.73801 -0.0665026 0
M  V30 11612 H 1092.91 1.71264 -0.856791 0
M  V30 11613 H 1091.21 3.87095 0.605372 0
M  V30 11614 H 1092.91 4.00299 0.236981 0
M  V30 11615 H 1089.5 4.11686 -1.19215 0
M  V30 11616 H 1093.68 4.49898 -2.09537 0
M  V30 11617 H 1088.94 5.09776 -3.37547 0
M  V30 11618 H 1093.11 5.49352 -4.28001 0
M  V30 11619 H 1090.74 5.79042 -4.92559 0
M  V30 11620 N 1092.32 0.406567 1.52266 0
M  V30 11621 C 1093.54 -0.169624 2.06204 0
M  V30 11622 C 1093.96 -1.39076 1.27684 0
M  V30 11623 O 1093.32 -1.79528 0.328023 0
M  V30 11624 C 1093.37 -0.522611 3.57702 0
M  V30 11625 O 1093.09 0.650028 4.33251 0
M  V30 11626 C 1094.59 -1.15281 4.28048 0
M  V30 11627 H 1091.81 -0.0215191 0.670655 0
M  V30 11628 H 1094.35 0.576781 1.96198 0
M  V30 11629 H 1092.51 -1.21891 3.67725 0
M  V30 11630 H 1092.92 0.355989 5.23291 0
M  V30 11631 H 1094.4 -1.35002 5.35237 0
M  V30 11632 H 1094.87 -2.12517 3.84361 0
M  V30 11633 H 1095.48 -0.496786 4.22389 0
M  V30 11634 N 1093.79 -1.57004 0.136909 0
M  V30 11635 C 1095.21 -1.58082 -0.21958 0
M  V30 11636 C 1095.41 -1.15065 -1.65415 0
M  V30 11637 O 1094.47 -0.846284 -2.37896 0
M  V30 11638 C 1095.78 -3.00685 0.0300112 0
M  V30 11639 C 1097.33 -3.12981 -0.0344899 0
M  V30 11640 C 1097.8 -4.57615 0.187639 0
M  V30 11641 N 1099.29 -4.63005 0.134219 0
M  V30 11642 C 1100.03 -5.72712 0.280743 0
M  V30 11643 N 1099.52 -6.91104 0.48443 0
M  V30 11644 N 1101.32 -5.61673 0.219055 0
M  V30 11645 H 1093.47 -1.83262 1.07372 0
M  V30 11646 H 1095.73 -0.847776 0.424241 0
M  V30 11647 H 1095.44 -3.36509 1.02247 0
M  V30 11648 H 1095.31 -3.70762 -0.693918 0
M  V30 11649 H 1097.7 -2.77004 -1.01749 0
M  V30 11650 H 1097.78 -2.45411 0.721608 0
M  V30 11651 H 1097.42 -4.94295 1.16769 0
M  V30 11652 H 1097.35 -5.23299 -0.588661 0
M  V30 11653 H 1099.84 -3.77895 -0.0189681 0
M  V30 11654 H 1100.16 -7.7057 0.586613 0
M  V30 11655 H 1098.5 -6.93047 0.520627 0
M  V30 11656 H 1101.69 -4.68061 0.0607606 0
M  V30 11657 H 1101.87 -6.47125 0.336683 0
M  V30 11658 N 1095.27 0.136881 -1.57004 0
M  V30 11659 C 1096.52 0.846257 -1.83088 0
M  V30 11660 C 1096.83 1.81876 -0.719765 0
M  V30 11661 O 1098.04 2.57302 -0.866494 0
M  V30 11662 C 1096.5 1.55559 -3.24545 0
M  V30 11663 C 1096.1 0.624989 -4.43619 0
M  V30 11664 C 1097.85 2.25115 -3.59893 0
M  V30 11665 C 1095.76 1.33653 -5.761 0
M  V30 11666 H 1094.69 0.319768 -0.682836 0
M  V30 11667 H 1097.34 0.0989741 -1.83233 0
M  V30 11668 H 1095.72 2.34887 -3.18817 0
M  V30 11669 H 1096.89 -0.133783 -4.60606 0
M  V30 11670 H 1095.21 0.0373216 -4.16383 0
M  V30 11671 H 1097.8 2.79008 -4.56134 0
M  V30 11672 H 1098.15 3.02084 -2.86446 0
M  V30 11673 H 1098.68 1.52696 -3.67327 0
M  V30 11674 H 1095.42 0.608495 -6.5267 0
M  V30 11675 H 1094.94 2.06776 -5.63031 0
M  V30 11676 H 1096.62 1.87467 -6.19246 0
M  V30 11677 N 1096.75 1.52266 0.40654 0
M  V30 11678 C 1098.03 1.57018 1.1664 0
M  V30 11679 C 1098.41 0.352752 2.08132 0
M  V30 11680 O 1097.76 -0.660208 2.18754 0
M  V30 11681 C 1097.97 2.90016 1.94143 0
M  V30 11682 C 1099.31 3.43112 2.50119 0
M  V30 11683 O 1100.34 2.91773 2.0432 0
M  V30 11684 O 1099.2 4.32765 3.33731 0
M  V30 11685 H 1096.29 0.632574 0.532709 0
M  V30 11686 H 1098.84 1.64595 0.413111 0
M  V30 11687 H 1097.61 3.70071 1.27134 0
M  V30 11688 H 1097.23 2.85744 2.76471 0
M  V30 11689 N 1098.23 -0.663929 1.42933 0
M  V30 11690 C 1099.51 -1.42054 1.34462 0
M  V30 11691 C 1099.89 -2.11096 -0.0127801 0
M  V30 11692 O 1099.23 -2.04027 -1.02884 0
M  V30 11693 C 1099.44 -2.41406 2.5204 0
M  V30 11694 C 1100.79 -3.05726 2.94647 0
M  V30 11695 O 1101.82 -2.51733 2.52009 0
M  V30 11696 O 1100.67 -4.03593 3.68477 0
M  V30 11697 H 1097.77 -0.634149 0.530834 0
M  V30 11698 H 1100.31 -0.691738 1.54962 0
M  V30 11699 H 1099.09 -1.89263 3.42484 0
M  V30 11700 H 1098.71 -3.21752 2.33584 0
M  V30 11701 N 1099.71 -1.29285 -0.901281 0
M  V30 11702 C 1101.12 -1.15499 -1.46686 0
M  V30 11703 C 1101.47 0.250446 -1.94595 0
M  V30 11704 O 1100.59 1.14581 -1.83576 0
M  V30 11705 C 1101.19 -2.0906 -2.66607 0
M  V30 11706 C 1099.75 -1.99301 -3.19306 0
M  V30 11707 C 1098.89 -2.00079 -1.91999 0
M  V30 11708 H 1101.85 -1.41793 -0.712773 0
M  V30 11709 H 1101.87 -1.6619 -3.42288 0
M  V30 11710 H 1101.38 -3.11341 -2.31707 0
M  V30 11711 H 1099.48 -1.00103 -3.58901 0
M  V30 11712 H 1099.59 -2.86885 -3.8371 0
M  V30 11713 H 1097.96 -1.44655 -2.09636 0
M  V30 11714 H 1098.74 -3.04061 -1.59379 0
M  V30 11715 N 1101.18 1.11143 -1.11736 0
M  V30 11716 C 1102.09 2.20851 -0.791331 0
M  V30 11717 C 1103.11 1.72644 0.216833 0
M  V30 11718 O 1104.29 2.01332 0.0522401 0
M  V30 11719 C 1101.35 3.4585 -0.242694 0
M  V30 11720 C 1100.41 4.08829 -1.30986 0
M  V30 11721 C 1099.65 5.27861 -0.787305 0
M  V30 11722 O 1099.87 5.69122 0.381549 0
M  V30 11723 O 1098.8 5.81506 -1.55352 0
M  V30 11724 H 1102.63 2.51158 -1.70744 0
M  V30 11725 H 1100.21 1.19739 -0.893478 0
M  V30 11726 H 1102.1 4.21359 0.0587472 0
M  V30 11727 H 1100.77 3.17187 0.646079 0
M  V30 11728 H 1099.68 3.35037 -1.66436 0
M  V30 11729 H 1101.01 4.41678 -2.17213 0
M  V30 11730 N 1102.66 0.908147 1.28804 0
M  V30 11731 C 1103.89 0.55409 1.99343 0
M  V30 11732 C 1104.31 -0.863262 1.67908 0
M  V30 11733 O 1103.66 -1.571 0.92875 0
M  V30 11734 C 1103.71 0.746916 3.537 0
M  V30 11735 O 1103.43 2.10849 3.84024 0
M  V30 11736 C 1104.94 0.398939 4.41501 0
M  V30 11737 H 1102.16 0.211784 0.636701 0
M  V30 11738 H 1104.7 1.21981 1.64137 0
M  V30 11739 H 1102.85 0.128264 3.87188 0
M  V30 11740 H 1103.27 2.14404 4.78676 0
M  V30 11741 H 1104.74 0.584656 5.48895 0
M  V30 11742 H 1105.22 -0.664517 4.34144 0
M  V30 11743 H 1105.83 0.994892 4.135 0
M  V30 11744 N 1104.14 -1.42577 0.671525 0
M  V30 11745 C 1105.09 -2.30798 -0.00883676 0
M  V30 11746 C 1106.06 -1.4578 -0.796076 0
M  V30 11747 O 1107.24 -1.74617 -0.768987 0
M  V30 11748 C 1104.38 -3.31581 -0.956452 0
M  V30 11749 C 1103.5 -4.31691 -0.163381 0
M  V30 11750 C 1102.63 -5.19549 -1.10645 0
M  V30 11751 C 1101.67 -6.1134 -0.304876 0
M  V30 11752 N 1100.81 -6.91761 -1.20048 0
M  V30 11753 H 1105.65 -2.88426 0.749301 0
M  V30 11754 H 1103.18 -1.42074 0.381251 0
M  V30 11755 H 1105.14 -3.88539 -1.51966 0
M  V30 11756 H 1103.77 -2.75561 -1.68126 0
M  V30 11757 H 1102.82 -3.76879 0.516396 0
M  V30 11758 H 1104.14 -4.96683 0.459099 0
M  V30 11759 H 1103.29 -5.81223 -1.73969 0
M  V30 11760 H 1102.03 -4.54726 -1.76282 0
M  V30 11761 H 1101.03 -5.48738 0.341597 0
M  V30 11762 H 1102.26 -6.78211 0.347352 0
M  V30 11763 H 1100.2 -6.2957 -1.84331 0
M  V30 11764 H 1100.12 -7.53345 -0.633003 0
M  V30 11765 H 1101.39 -7.57924 -1.82129 0
M  V30 11766 N 1105.62 -0.414636 -1.52048 0
M  V30 11767 C 1107.03 -0.0657806 -1.59464 0
M  V30 11768 C 1107.23 1.4225 -1.42713 0
M  V30 11769 O 1106.29 2.18996 -1.25687 0
M  V30 11770 C 1107.6 -0.565618 -2.95332 0
M  V30 11771 C 1109.15 -0.524072 -3.08581 0
M  V30 11772 C 1109.63 -1.00051 -4.46938 0
M  V30 11773 N 1111.12 -0.957555 -4.53194 0
M  V30 11774 C 1111.85 -1.29733 -5.58531 0
M  V30 11775 N 1111.35 -1.70883 -6.71395 0
M  V30 11776 N 1113.14 -1.21694 -5.48769 0
M  V30 11777 H 1105.29 -1.38325 -1.61183 0
M  V30 11778 H 1107.56 -0.568593 -0.758556 0
M  V30 11779 H 1107.26 -1.60604 -3.12888 0
M  V30 11780 H 1107.14 0.0217735 -3.77194 0
M  V30 11781 H 1109.52 0.507319 -2.90707 0
M  V30 11782 H 1109.6 -1.14759 -2.28613 0
M  V30 11783 H 1109.25 -2.03025 -4.65557 0
M  V30 11784 H 1109.18 -0.353754 -5.2541 0
M  V30 11785 H 1111.67 -0.65508 -3.72179 0
M  V30 11786 H 1111.98 -1.95105 -7.47766 0
M  V30 11787 H 1110.33 -1.74791 -6.72661 0
M  V30 11788 H 1113.52 -0.894286 -4.59478 0
M  V30 11789 H 1113.69 -1.48504 -6.30754 0
M  V30 11790 N 1107.1 1.56929 -0.145233 0
M  V30 11791 C 1108.03 2.13796 0.826078 0
M  V30 11792 C 1109.04 1.08697 1.21197 0
M  V30 11793 O 1110.23 1.3598 1.15635 0
M  V30 11794 C 1107.33 2.6443 2.11967 0
M  V30 11795 C 1106.5 3.9391 1.90142 0
M  V30 11796 C 1105.56 4.29872 3.03474 0
M  V30 11797 O 1104.59 4.98227 2.75242 0
M  V30 11798 N 1105.79 3.8931 4.30602 0
M  V30 11799 H 1108.56 2.97764 0.340073 0
M  V30 11800 H 1106.12 1.61854 0.0383928 0
M  V30 11801 H 1108.11 2.85502 2.86829 0
M  V30 11802 H 1106.68 1.85196 2.51836 0
M  V30 11803 H 1105.9 3.81481 0.993268 0
M  V30 11804 H 1107.19 4.78523 1.72896 0
M  V30 11805 H 1106.58 3.34229 4.56407 0
M  V30 11806 H 1105.14 4.15438 5.0225 0
M  V30 11807 N 1108.58 -0.128553 1.57075 0
M  V30 11808 C 1109.52 -1.17719 2.00611 0
M  V30 11809 C 1110.52 -1.43423 0.90146 0
M  V30 11810 O 1111.72 -1.43498 1.08666 0
M  V30 11811 H 1108.1 -0.396683 0.638864 0
M  V30 11812 H 1110.07 -0.783437 2.87932 0
M  V30 11813 C 1108.82 -2.49826 2.41831 0
M  V30 11814 H 1108.14 -2.30883 3.26394 0
M  V30 11815 H 1109.58 -3.21784 2.761 0
M  V30 11816 C 1108.04 -3.11712 1.27816 0
M  V30 11817 O 1108.57 -3.9736 0.588917 0
M  V30 11818 N 1106.78 -2.71442 1.03767 0
M  V30 11819 H 1106.32 -2.01891 1.59994 0
M  V30 11820 H 1106.28 -3.1318 0.276743 0
M  V30 11821 N 1110.05 -1.5248 -0.398459 0
M  V30 11822 C 1111.28 -1.71221 -1.17039 0
M  V30 11823 C 1111.7 -0.425515 -1.83224 0
M  V30 11824 O 1111.06 0.617938 -1.70444 0
M  V30 11825 C 1111.11 -2.8562 -2.20121 0
M  V30 11826 O 1110.21 -2.51934 -3.26501 0
M  V30 11827 H 1109.55 -0.569654 -0.34116 0
M  V30 11828 H 1112.08 -1.99231 -0.465652 0
M  V30 11829 H 1112.09 -3.10842 -2.64275 0
M  V30 11830 H 1110.77 -3.78969 -1.71334 0
M  V30 11831 H 1109.35 -2.3742 -2.87552 0
M  V30 11832 N 1111.53 0.65634 -1.43283 0
M  V30 11833 C 1112.48 1.79058 -1.48462 0
M  V30 11834 C 1113.47 1.65563 -0.358512 0
M  V30 11835 O 1114.68 1.71947 -0.532365 0
M  V30 11836 H 1111.05 0.590716 -0.465358 0
M  V30 11837 H 1113.03 1.7181 -2.43975 0
M  V30 11838 C 1111.77 3.17304 -1.42175 0
M  V30 11839 H 1111.1 3.28324 -2.2813 0
M  V30 11840 H 1112.54 3.96633 -1.4986 0
M  V30 11841 C 1111 3.36613 -0.138929 0
M  V30 11842 O 1111.53 3.93633 0.80101 0
M  V30 11843 N 1109.73 2.90557 -0.0501237 0
M  V30 11844 H 1109.28 2.4434 -0.815821 0
M  V30 11845 H 1109.24 3.03853 0.807504 0
M  V30 11846 N 1113.01 1.29761 0.894412 0
M  V30 11847 C 1113.94 1.17902 2.01547 0
M  V30 11848 C 1114.92 0.0719402 1.69948 0
M  V30 11849 O 1116.11 0.252338 1.92554 0
M  V30 11850 C 1113.24 0.860262 3.36477 0
M  V30 11851 C 1112.19 1.92424 3.82305 0
M  V30 11852 C 1111.52 1.45868 5.14419 0
M  V30 11853 C 1112.82 3.33391 4.02054 0
M  V30 11854 H 1114.51 2.11688 2.11727 0
M  V30 11855 H 1112.06 1.01916 1.01731 0
M  V30 11856 H 1114.01 0.763987 4.14417 0
M  V30 11857 H 1112.73 -0.113289 3.26403 0
M  V30 11858 H 1111.39 2.00999 3.06586 0
M  V30 11859 H 1111.04 0.473654 5.00765 0
M  V30 11860 H 1110.74 2.17028 5.46052 0
M  V30 11861 H 1112.26 1.37601 5.94894 0
M  V30 11862 H 1113.68 3.27628 4.7046 0
M  V30 11863 H 1112.07 4.02555 4.4505 0
M  V30 11864 H 1113.14 3.75978 3.06216 0
M  V30 11865 N 1114.49 -1.10549 1.12324 0
M  V30 11866 C 1115.73 -1.82485 0.877817 0
M  V30 11867 C 1116.06 -1.85131 -0.596373 0
M  V30 11868 O 1115.32 -1.30675 -1.45679 0
M  V30 11869 C 1115.62 -3.28997 1.39626 0
M  V30 11870 C 1115.28 -3.465 2.88529 0
M  V30 11871 C 1113.94 -3.50984 3.29186 0
M  V30 11872 C 1116.3 -3.51991 3.84385 0
M  V30 11873 C 1113.62 -3.58525 4.6441 0
M  V30 11874 C 1115.98 -3.61065 5.19437 0
M  V30 11875 C 1114.64 -3.63813 5.5964 0
M  V30 11876 H 1113.91 -0.667758 0.321216 0
M  V30 11877 H 1116.56 -1.30314 1.40323 0
M  V30 11878 H 1114.86 -3.83726 0.791291 0
M  V30 11879 H 1116.56 -3.83165 1.18259 0
M  V30 11880 H 1113.15 -3.43686 2.56082 0
M  V30 11881 H 1117.33 -3.47777 3.54069 0
M  V30 11882 H 1112.59 -3.58934 4.94951 0
M  V30 11883 H 1116.76 -3.64257 5.9354 0
M  V30 11884 H 1114.39 -3.69409 6.6441 0
M  V30 11885 N 1115.97 -0.914965 -1.28321 0
M  V30 11886 C 1117.19 -0.564023 -1.99583 0
M  V30 11887 C 1117.62 0.847821 -1.6791 0
M  V30 11888 O 1116.97 1.56682 -0.912171 0
M  V30 11889 C 1117.02 -0.781368 -3.52033 0
M  V30 11890 O 1116.13 0.159072 -4.12093 0
M  V30 11891 H 1115.47 -0.218565 -0.626997 0
M  V30 11892 H 1118 -1.23074 -1.63444 0
M  V30 11893 H 1118.01 -0.691946 -4.0209 0
M  V30 11894 H 1116.68 -1.81059 -3.7442 0
M  V30 11895 H 1115.26 0.0208145 -3.72894 0
M  V30 11896 N 1117.44 1.42219 -0.679077 0
M  V30 11897 C 1118.37 2.33493 -0.0174528 0
M  V30 11898 C 1119.35 1.50915 0.78477 0
M  V30 11899 O 1120.54 1.79504 0.741065 0
M  V30 11900 C 1117.67 3.34576 0.931463 0
M  V30 11901 C 1116.62 4.2734 0.237527 0
M  V30 11902 C 1115.95 5.18664 1.29967 0
M  V30 11903 C 1117.25 5.14729 -0.886082 0
M  V30 11904 H 1118.94 2.89068 -0.779748 0
M  V30 11905 H 1116.49 1.38993 -0.376419 0
M  V30 11906 H 1118.44 3.97343 1.40343 0
M  V30 11907 H 1117.17 2.77315 1.72523 0
M  V30 11908 H 1115.83 3.65973 -0.214245 0
M  V30 11909 H 1115.47 4.57727 2.08554 0
M  V30 11910 H 1115.17 5.81558 0.840463 0
M  V30 11911 H 1116.7 5.84308 1.77249 0
M  V30 11912 H 1118.11 5.71158 -0.495141 0
M  V30 11913 H 1116.51 5.86478 -1.27135 0
M  V30 11914 H 1117.58 4.52874 -1.733 0
M  V30 11915 N 1118.92 0.422693 1.51826 0
M  V30 11916 C 1119.85 -0.386913 2.30272 0
M  V30 11917 C 1120.83 -1.03411 1.35056 0
M  V30 11918 O 1122.02 -1.04055 1.6397 0
M  V30 11919 C 1119.15 -1.49645 3.13407 0
M  V30 11920 C 1118.1 -0.973532 4.16781 0
M  V30 11921 C 1117.43 -2.1777 4.88344 0
M  V30 11922 C 1118.73 -0.0181194 5.22297 0
M  V30 11923 H 1120.42 0.267697 2.98201 0
M  V30 11924 H 1117.97 0.130186 1.4341 0
M  V30 11925 H 1119.92 -2.06993 3.67059 0
M  V30 11926 H 1118.64 -2.17914 2.43272 0
M  V30 11927 H 1117.3 -0.42237 3.64159 0
M  V30 11928 H 1116.95 -2.84625 4.14726 0
M  V30 11929 H 1116.65 -1.83427 5.58237 0
M  V30 11930 H 1118.18 -2.75699 5.44814 0
M  V30 11931 H 1119.59 -0.500822 5.71108 0
M  V30 11932 H 1117.99 0.237163 5.99631 0
M  V30 11933 H 1119.06 0.923065 4.76033 0
M  V30 11934 N 1120.4 -1.5685 0.153553 0
M  V30 11935 C 1121.65 -1.96334 -0.495915 0
M  V30 11936 C 1121.97 -1.03873 -1.64441 0
M  V30 11937 O 1121.23 -0.069231 -1.95578 0
M  V30 11938 C 1121.53 -3.42022 -1.0371 0
M  V30 11939 C 1121.19 -4.509 -0.00637049 0
M  V30 11940 C 1119.86 -4.80402 0.276956 0
M  V30 11941 C 1122.21 -5.16556 0.694187 0
M  V30 11942 C 1119.54 -5.72866 1.26653 0
M  V30 11943 C 1121.89 -6.10087 1.67263 0
M  V30 11944 C 1120.55 -6.37965 1.96359 0
M  V30 11945 H 1119.82 -0.718436 -0.181468 0
M  V30 11946 H 1122.47 -1.89968 0.241768 0
M  V30 11947 H 1120.77 -3.45252 -1.85225 0
M  V30 11948 H 1122.47 -3.69903 -1.54831 0
M  V30 11949 H 1119.06 -4.27942 -0.237378 0
M  V30 11950 H 1123.25 -4.9389 0.488496 0
M  V30 11951 H 1118.5 -5.92756 1.49833 0
M  V30 11952 H 1122.68 -6.60036 2.22094 0
M  V30 11953 H 1120.3 -7.09416 2.73189 0
M  V30 11954 N 1121.88 0.120221 -1.57141 0
M  V30 11955 C 1122.81 1.14876 -2.03287 0
M  V30 11956 C 1123.79 1.43259 -0.917112 0
M  V30 11957 O 1124.97 1.53721 -1.18674 0
M  V30 11958 C 1122.1 2.47525 -2.43616 0
M  V30 11959 C 1121.06 2.33607 -3.58625 0
M  V30 11960 C 1120.38 3.71207 -3.84849 0
M  V30 11961 C 1121.68 1.79761 -4.90391 0
M  V30 11962 H 1123.38 0.764943 -2.89463 0
M  V30 11963 H 1120.92 0.366516 -1.39258 0
M  V30 11964 H 1122.88 3.19728 -2.74504 0
M  V30 11965 H 1121.6 2.87794 -1.54409 0
M  V30 11966 H 1120.26 1.63853 -3.27945 0
M  V30 11967 H 1119.91 4.0896 -2.9285 0
M  V30 11968 H 1119.61 3.62749 -4.62263 0
M  V30 11969 H 1121.13 4.44917 -4.18188 0
M  V30 11970 H 1122.55 2.4178 -5.19822 0
M  V30 11971 H 1120.94 1.82126 -5.71795 0
M  V30 11972 H 1122.01 0.755087 -4.78985 0
M  V30 11973 N 1123.36 1.52689 0.390367 0
M  V30 11974 C 1124.32 1.76726 1.45947 0
M  V30 11975 C 1125.32 0.637269 1.47633 0
M  V30 11976 O 1126.51 0.905312 1.48828 0
M  V30 11977 C 1123.64 1.86678 2.85244 0
M  V30 11978 H 1124.83 2.72185 1.25918 0
M  V30 11979 H 1122.39 1.4339 0.622023 0
M  V30 11980 H 1123.12 0.931991 3.10619 0
M  V30 11981 H 1122.91 2.68843 2.85422 0
M  V30 11982 H 1124.4 2.06952 3.62713 0
M  V30 11983 N 1124.83 -0.648732 1.43629 0
M  V30 11984 C 1125.76 -1.77298 1.51947 0
M  V30 11985 C 1126.75 -1.65942 0.373785 0
M  V30 11986 O 1127.93 -1.8497 0.591596 0
M  V30 11987 C 1125.06 -3.15749 1.44638 0
M  V30 11988 C 1124.01 -3.41872 2.57502 0
M  V30 11989 C 1123.34 -4.8017 2.35246 0
M  V30 11990 C 1124.64 -3.36173 3.99731 0
M  V30 11991 H 1126.33 -1.70594 2.46045 0
M  V30 11992 H 1123.88 -0.819306 1.1842 0
M  V30 11993 H 1125.83 -3.94156 1.4906 0
M  V30 11994 H 1124.56 -3.23194 0.470466 0
M  V30 11995 H 1123.22 -2.65838 2.5244 0
M  V30 11996 H 1122.86 -4.84297 1.35887 0
M  V30 11997 H 1122.56 -4.9861 3.10906 0
M  V30 11998 H 1124.09 -5.6083 2.41459 0
M  V30 11999 H 1125.5 -4.0451 4.06257 0
M  V30 12000 H 1123.9 -3.66148 4.75453 0
M  V30 12001 H 1124.97 -2.34277 4.24549 0
M  V30 12002 N 1126.31 -1.30234 -0.887518 0
M  V30 12003 C 1127.56 -1.18675 -1.63587 0
M  V30 12004 C 1127.88 0.259342 -1.93268 0
M  V30 12005 O 1127.15 1.17523 -1.56733 0
M  V30 12006 H 1125.73 -0.436224 -0.606397 0
M  V30 12007 H 1128.39 -1.63326 -1.06351 0
M  V30 12008 H 1127.49 -1.74575 -2.58708 0
M  V30 12009 N 1127.79 1.09952 -1.12909 0
M  V30 12010 C 1129.04 1.81386 -0.882163 0
M  V30 12011 C 1129.35 1.86376 0.593592 0
M  V30 12012 O 1130.56 2.54064 0.957275 0
M  V30 12013 C 1129.01 3.25824 -1.52861 0
M  V30 12014 C 1128.62 3.29117 -3.0395 0
M  V30 12015 C 1130.37 4.02051 -1.36216 0
M  V30 12016 C 1128.27 4.68047 -3.61505 0
M  V30 12017 H 1127.2 0.679701 -0.326378 0
M  V30 12018 H 1129.85 1.23614 -1.35616 0
M  V30 12019 H 1128.24 3.83624 -0.982271 0
M  V30 12020 H 1129.41 2.81114 -3.65119 0
M  V30 12021 H 1127.73 2.66379 -3.20049 0
M  V30 12022 H 1130.32 5.04683 -1.76633 0
M  V30 12023 H 1130.67 4.15171 -0.306391 0
M  V30 12024 H 1131.2 3.5068 -1.87799 0
M  V30 12025 H 1127.94 4.60128 -4.66865 0
M  V30 12026 H 1127.46 5.16397 -3.05114 0
M  V30 12027 H 1129.14 5.37018 -3.6086 0
M  V30 12028 N 1129.27 0.921757 1.27833 0
M  V30 12029 C 1130.52 0.55493 1.93916 0
M  V30 12030 C 1130.83 -0.907191 1.7329 0
M  V30 12031 O 1132.04 -1.38253 2.33663 0
M  V30 12032 C 1130.49 0.941644 3.47363 0
M  V30 12033 C 1130.1 2.42404 3.76755 0
M  V30 12034 C 1131.84 0.645785 4.19559 0
M  V30 12035 C 1129.75 2.75046 5.23549 0
M  V30 12036 H 1128.68 0.203818 0.72593 0
M  V30 12037 H 1131.33 1.12176 1.4522 0
M  V30 12038 H 1129.71 0.303519 3.94835 0
M  V30 12039 H 1130.89 3.10957 3.40062 0
M  V30 12040 H 1129.2 2.69118 3.17749 0
M  V30 12041 H 1131.8 0.866237 5.27637 0
M  V30 12042 H 1132.14 -0.41676 4.14209 0
M  V30 12043 H 1132.68 1.24274 3.7789 0
M  V30 12044 H 1129.42 3.80186 5.33984 0
M  V30 12045 H 1128.94 2.11138 5.6141 0
M  V30 12046 H 1130.61 2.62474 5.91368 0
M  V30 12047 N 1130.75 -1.41857 0.686609 0
M  V30 12048 C 1131.97 -2.06219 0.221037 0
M  V30 12049 C 1132.4 -1.51298 -1.11762 0
M  V30 12050 O 1131.75 -0.636253 -1.69769 0
M  V30 12051 C 1131.8 -3.60153 0.179425 0
M  V30 12052 O 1130.91 -4.03577 -0.848481 0
M  V30 12053 H 1130.25 -0.654787 0.110228 0
M  V30 12054 H 1132.78 -1.81783 0.938948 0
M  V30 12055 H 1132.79 -4.07999 0.00725332 0
M  V30 12056 H 1131.46 -3.99498 1.15647 0
M  V30 12057 H 1130.04 -3.67255 -0.646393 0
M  V30 12058 N 1132.22 -0.430739 -1.51599 0
M  V30 12059 C 1133.47 0.137929 -2.0203 0
M  V30 12060 C 1133.8 1.43287 -1.31526 0
M  V30 12061 O 1133.05 1.9121 -0.416814 0
M  V30 12062 C 1133.35 0.410694 -3.55032 0
M  V30 12063 C 1133.02 -0.797634 -4.43789 0
M  V30 12064 C 1131.68 -1.12902 -4.67768 0
M  V30 12065 C 1134.03 -1.60403 -4.95904 0
M  V30 12066 C 1131.36 -2.2676 -5.41107 0
M  V30 12067 C 1133.71 -2.73354 -5.70491 0
M  V30 12068 C 1132.38 -3.06955 -5.92735 0
M  V30 12069 H 1131.65 0.0504718 -0.739279 0
M  V30 12070 H 1134.29 -0.576585 -1.82614 0
M  V30 12071 H 1132.6 1.20703 -3.72744 0
M  V30 12072 H 1134.3 0.864006 -3.91581 0
M  V30 12073 H 1130.89 -0.529397 -4.25318 0
M  V30 12074 H 1135.07 -1.36122 -4.77268 0
M  V30 12075 H 1130.33 -2.53114 -5.56546 0
M  V30 12076 H 1134.5 -3.36213 -6.09864 0
M  V30 12077 H 1132.13 -3.95293 -6.49344 0
M  V30 12078 N 1133.7 1.56767 -0.161869 0
M  V30 12079 C 1134.95 1.95769 0.485536 0
M  V30 12080 C 1135.26 1.05006 1.65025 0
M  V30 12081 O 1136.47 1.33649 2.36326 0
M  V30 12082 C 1134.93 3.4807 0.915176 0
M  V30 12083 C 1134.53 4.47443 -0.223416 0
M  V30 12084 C 1136.28 3.95909 1.53153 0
M  V30 12085 C 1134.19 5.90971 0.225325 0
M  V30 12086 H 1133.12 0.730911 0.185161 0
M  V30 12087 H 1135.77 1.81808 -0.248592 0
M  V30 12088 H 1134.15 3.57415 1.705 0
M  V30 12089 H 1135.32 4.49805 -1.00061 0
M  V30 12090 H 1133.64 4.09606 -0.749127 0
M  V30 12091 H 1136.23 5.00592 1.87915 0
M  V30 12092 H 1136.58 3.38307 2.42599 0
M  V30 12093 H 1137.11 3.89542 0.806322 0
M  V30 12094 H 1133.85 6.52426 -0.634124 0
M  V30 12095 H 1133.37 5.91936 0.96808 0
M  V30 12096 H 1135.05 6.43497 0.672373 0
M  V30 12097 N 1135.18 -0.111886 1.57202 0
M  V30 12098 C 1136.41 -0.832407 1.89416 0
M  V30 12099 C 1136.82 -1.73096 0.753861 0
M  V30 12100 O 1136.18 -1.80416 -0.274992 0
M  V30 12101 C 1136.23 -1.65988 3.21139 0
M  V30 12102 O 1135.95 -0.797485 4.3078 0
M  V30 12103 C 1137.45 -2.48493 3.67105 0
M  V30 12104 H 1134.67 -0.238919 0.627024 0
M  V30 12105 H 1137.22 -0.0941456 2.04283 0
M  V30 12106 H 1135.37 -2.35082 3.07921 0
M  V30 12107 H 1135.79 -1.36892 5.06321 0
M  V30 12108 H 1137.26 -3.02072 4.62014 0
M  V30 12109 H 1137.74 -3.26182 2.94112 0
M  V30 12110 H 1138.34 -1.84628 3.83135 0
M  V30 12111 N 1136.66 -1.52894 -0.382264 0
M  V30 12112 C 1137.91 -1.68266 -1.12663 0
M  V30 12113 C 1138.23 -0.425974 -1.89778 0
M  V30 12114 O 1137.49 0.59178 -1.86538 0
M  V30 12115 C 1137.79 -2.87309 -2.12576 0
M  V30 12116 C 1137.45 -4.24484 -1.52067 0
M  V30 12117 C 1136.12 -4.6179 -1.35292 0
M  V30 12118 C 1138.47 -5.09858 -1.08138 0
M  V30 12119 C 1135.8 -5.82123 -0.731449 0
M  V30 12120 C 1138.15 -6.30822 -0.473986 0
M  V30 12121 C 1136.81 -6.66854 -0.293585 0
M  V30 12122 H 1136.08 -0.615728 -0.412262 0
M  V30 12123 H 1138.73 -1.8705 -0.410425 0
M  V30 12124 H 1137.03 -2.62968 -2.90439 0
M  V30 12125 H 1138.73 -2.96397 -2.70092 0
M  V30 12126 H 1135.32 -3.951 -1.66114 0
M  V30 12127 H 1139.5 -4.816 -1.19898 0
M  V30 12128 H 1134.76 -6.08643 -0.579938 0
M  V30 12129 H 1138.93 -6.96287 -0.125324 0
M  V30 12130 H 1136.56 -7.59962 0.190054 0
M  V30 12131 N 1138.14 0.641106 -1.43971 0
M  V30 12132 C 1139.38 1.40084 -1.46228 0
M  V30 12133 C 1139.71 1.94287 -0.0911011 0
M  V30 12134 O 1138.97 1.73481 0.905688 0
M  V30 12135 C 1139.27 2.59092 -2.46183 0
M  V30 12136 C 1138.93 2.23237 -3.9176 0
M  V30 12137 C 1137.59 2.13171 -4.31407 0
M  V30 12138 C 1139.95 1.94746 -4.83449 0
M  V30 12139 C 1137.27 1.72788 -5.60679 0
M  V30 12140 C 1139.63 1.55858 -6.13099 0
M  V30 12141 C 1138.29 1.44326 -6.5171 0
M  V30 12142 H 1137.56 0.512603 -0.535088 0
M  V30 12143 H 1140.21 0.727956 -1.77124 0
M  V30 12144 H 1138.51 3.31568 -2.08734 0
M  V30 12145 H 1140.21 3.17313 -2.4518 0
M  V30 12146 H 1136.8 2.31986 -3.60389 0
M  V30 12147 H 1140.98 2.01438 -4.53582 0
M  V30 12148 H 1136.24 1.62455 -5.89422 0
M  V30 12149 H 1140.41 1.32848 -6.83611 0
M  V30 12150 H 1138.04 1.12806 -7.51784 0
M  V30 12151 N 1139.62 1.30703 0.880598 0
M  V30 12152 C 1140.55 1.20033 2.00286 0
M  V30 12153 C 1141.53 0.0899614 1.69862 0
M  V30 12154 O 1142.71 0.272747 1.92275 0
M  V30 12155 C 1139.84 0.895902 3.35546 0
M  V30 12156 C 1138.8 1.96468 3.80242 0
M  V30 12157 C 1138.12 1.51316 5.12843 0
M  V30 12158 C 1139.42 3.37637 3.98496 0
M  V30 12159 H 1141.12 2.13922 2.0947 0
M  V30 12160 H 1138.66 1.02989 1.00644 0
M  V30 12161 H 1140.61 0.807899 4.13583 0
M  V30 12162 H 1139.34 -0.0786636 3.26505 0
M  V30 12163 H 1138 2.0424 3.04437 0
M  V30 12164 H 1137.65 0.52674 5.00234 0
M  V30 12165 H 1137.35 2.22807 5.43719 0
M  V30 12166 H 1138.87 1.43903 5.93401 0
M  V30 12167 H 1140.28 3.326 4.66959 0
M  V30 12168 H 1138.68 4.07253 4.40755 0
M  V30 12169 H 1139.75 3.79205 3.02211 0
M  V30 12170 N 1141.09 -1.09351 1.1349 0
M  V30 12171 C 1142.03 -2.15852 0.770763 0
M  V30 12172 C 1143.04 -1.61468 -0.207866 0
M  V30 12173 O 1144.23 -1.78496 0.0124385 0
M  V30 12174 C 1141.33 -3.38681 0.121871 0
M  V30 12175 C 1140.5 -4.22477 1.13279 0
M  V30 12176 C 1139.56 -5.23728 0.509448 0
M  V30 12177 O 1138.59 -5.57052 1.16967 0
M  V30 12178 N 1139.79 -5.76041 -0.718159 0
M  V30 12179 H 1142.55 -2.47696 1.6872 0
M  V30 12180 H 1140.11 -1.25074 1.02801 0
M  V30 12181 H 1142.11 -4.03531 -0.307404 0
M  V30 12182 H 1140.68 -3.04718 -0.697527 0
M  V30 12183 H 1139.9 -3.53753 1.73933 0
M  V30 12184 H 1141.18 -4.75288 1.81601 0
M  V30 12185 H 1140.58 -5.51183 -1.27331 0
M  V30 12186 H 1139.14 -6.4262 -1.09008 0
M  V30 12187 N 1142.57 -0.928524 -1.27343 0
M  V30 12188 C 1143.82 -0.568267 -1.93946 0
M  V30 12189 C 1144.14 0.893501 -1.73325 0
M  V30 12190 O 1143.41 1.63344 -1.08147 0
M  V30 12191 H 1141.99 -0.207173 -0.717696 0
M  V30 12192 H 1144.65 -1.1811 -1.55036 0
M  V30 12193 H 1143.75 -0.775246 -3.02318 0
M  V30 12194 N 1144.05 1.41491 -0.694123 0
M  V30 12195 C 1145.3 2.01252 -0.224477 0
M  V30 12196 C 1145.62 1.54965 1.17541 0
M  V30 12197 O 1144.88 0.751041 1.80715 0
M  V30 12198 C 1145.18 3.56666 -0.228869 0
M  V30 12199 C 1144.84 4.22458 -1.57608 0
M  V30 12200 C 1143.51 4.40144 -1.94491 0
M  V30 12201 C 1145.86 4.5936 -2.46247 0
M  V30 12202 C 1143.19 4.92009 -3.196 0
M  V30 12203 C 1145.54 5.12615 -3.70687 0
M  V30 12204 C 1144.2 5.28512 -4.07715 0
M  V30 12205 H 1143.47 0.736433 -0.0821419 0
M  V30 12206 H 1146.12 1.69408 -0.892926 0
M  V30 12207 H 1144.42 3.88292 0.523128 0
M  V30 12208 H 1146.12 4.00712 0.152019 0
M  V30 12209 H 1142.71 4.09065 -1.27921 0
M  V30 12210 H 1146.9 4.45352 -2.19032 0
M  V30 12211 H 1142.15 5.02502 -3.48285 0
M  V30 12212 H 1146.33 5.4015 -4.39558 0
M  V30 12213 H 1143.95 5.68464 -5.0473 0
M  V30 12214 N 1145.53 0.438773 1.51369 0
M  V30 12215 C 1146.76 -0.125847 2.06517 0
M  V30 12216 C 1147.17 -1.36336 1.30606 0
M  V30 12217 O 1146.53 -1.78792 0.36603 0
M  V30 12218 C 1146.58 -0.446619 3.5873 0
M  V30 12219 O 1146.3 0.741781 4.31775 0
M  V30 12220 C 1147.8 -1.06175 4.30397 0
M  V30 12221 H 1145.02 -0.00728868 0.67096 0
M  V30 12222 H 1147.56 0.618267 1.9493 0
M  V30 12223 H 1145.72 -1.14064 3.70227 0
M  V30 12224 H 1146.13 0.466907 5.22418 0
M  V30 12225 H 1147.61 -1.23619 5.3798 0
M  V30 12226 H 1148.08 -2.04317 3.88782 0
M  V30 12227 H 1148.69 -0.40708 4.23347 0
M  V30 12228 N 1147.01 -1.56678 0.170181 0
M  V30 12229 C 1148.25 -1.96849 -0.475064 0
M  V30 12230 C 1148.58 -1.05611 -1.6333 0
M  V30 12231 O 1147.84 -0.0899708 -1.95493 0
M  V30 12232 C 1148.13 -3.43103 -1.00076 0
M  V30 12233 C 1147.8 -4.50881 0.0414538 0
M  V30 12234 C 1146.46 -4.80082 0.327894 0
M  V30 12235 C 1148.81 -5.15791 0.748936 0
M  V30 12236 C 1146.14 -5.71491 1.32722 0
M  V30 12237 C 1148.49 -6.08278 1.73724 0
M  V30 12238 C 1147.16 -6.35847 2.03114 0
M  V30 12239 H 1146.43 -0.72032 -0.173838 0
M  V30 12240 H 1149.08 -1.89701 0.261903 0
M  V30 12241 H 1147.38 -3.47197 -1.81553 0
M  V30 12242 H 1149.08 -3.71525 -1.50899 0
M  V30 12243 H 1145.67 -4.2817 -0.191976 0
M  V30 12244 H 1149.85 -4.93344 0.540852 0
M  V30 12245 H 1145.11 -5.91134 1.56112 0
M  V30 12246 H 1149.28 -6.57643 2.29082 0
M  V30 12247 H 1146.91 -7.06479 2.80698 0
M  V30 12248 N 1148.48 0.103547 -1.57259 0
M  V30 12249 C 1149.73 0.806979 -1.8529 0
M  V30 12250 C 1150.05 1.79679 -0.757653 0
M  V30 12251 O 1149.32 1.94695 0.216913 0
M  V30 12252 H 1147.9 0.301012 -0.683667 0
M  V30 12253 H 1150.56 0.0871886 -1.94705 0
M  V30 12254 H 1149.66 1.34275 -2.81738 0
M  V30 12255 N 1149.96 1.53094 0.37415 0
M  V30 12256 C 1150.91 1.78927 1.45787 0
M  V30 12257 C 1151.88 0.633187 1.53558 0
M  V30 12258 O 1153.06 0.874472 1.69581 0
M  V30 12259 C 1150.2 1.97726 2.8284 0
M  V30 12260 C 1149.32 3.25436 2.84104 0
M  V30 12261 C 1148.45 3.3447 4.12678 0
M  V30 12262 C 1147.49 4.56246 4.08051 0
M  V30 12263 N 1146.63 4.6248 5.28258 0
M  V30 12264 H 1151.47 2.71404 1.2306 0
M  V30 12265 H 1149 1.34453 0.596716 0
M  V30 12266 H 1150.96 2.06611 3.62447 0
M  V30 12267 H 1149.59 1.08593 3.03986 0
M  V30 12268 H 1148.64 3.25548 1.96781 0
M  V30 12269 H 1149.96 4.15112 2.76556 0
M  V30 12270 H 1149.11 3.4262 5.00696 0
M  V30 12271 H 1147.85 2.42795 4.22968 0
M  V30 12272 H 1146.85 4.48206 3.1842 0
M  V30 12273 H 1148.08 5.49254 3.99371 0
M  V30 12274 H 1146.03 3.73703 5.3915 0
M  V30 12275 H 1145.94 5.46049 5.22845 0
M  V30 12276 H 1147.21 4.74903 6.18132 0
M  V30 12277 N 1151.44 -0.633461 1.44309 0
M  V30 12278 C 1152.4 -1.72743 1.50641 0
M  V30 12279 C 1153.4 -1.56031 0.388718 0
M  V30 12280 O 1154.59 -1.61568 0.651251 0
M  V30 12281 C 1151.72 -3.11804 1.37809 0
M  V30 12282 H 1152.92 -1.68503 2.48086 0
M  V30 12283 H 1150.47 -0.846912 1.31366 0
M  V30 12284 H 1151.21 -3.2164 0.414483 0
M  V30 12285 H 1150.99 -3.2534 2.18852 0
M  V30 12286 H 1152.48 -3.91538 1.45216 0
M  V30 12287 N 1152.92 -1.31168 -0.873655 0
M  V30 12288 C 1154.17 -1.20404 -1.62319 0
M  V30 12289 C 1154.49 0.238829 -1.93532 0
M  V30 12290 O 1153.76 1.15854 -1.57971 0
M  V30 12291 H 1152.34 -0.442632 -0.601736 0
M  V30 12292 H 1155 -1.64445 -1.04613 0
M  V30 12293 H 1154.1 -1.77309 -2.56842 0
M  V30 12294 N 1154.4 1.08748 -1.14068 0
M  V30 12295 C 1155.31 2.19123 -0.837998 0
M  V30 12296 C 1156.32 1.73065 0.180164 0
M  V30 12297 O 1157.5 2.01398 0.00952285 0
M  V30 12298 C 1154.56 3.45257 -0.316 0
M  V30 12299 C 1153.62 4.05959 -1.39628 0
M  V30 12300 C 1152.86 5.26072 -0.899095 0
M  V30 12301 O 1153.08 5.69804 0.260744 0
M  V30 12302 O 1152.01 5.7808 -1.67652 0
M  V30 12303 H 1155.84 2.4748 -1.76033 0
M  V30 12304 H 1153.43 1.17816 -0.918675 0
M  V30 12305 H 1155.31 4.21389 -0.0306425 0
M  V30 12306 H 1153.98 3.18486 0.578654 0
M  V30 12307 H 1152.89 3.31432 -1.73505 0
M  V30 12308 H 1154.22 4.36971 -2.26533 0
M  V30 12309 N 1155.87 0.935264 1.26849 0
M  V30 12310 C 1157.12 0.575467 1.93317 0
M  V30 12311 C 1157.44 -0.88876 1.74242 0
M  V30 12312 O 1158.64 -1.35767 2.35116 0
M  V30 12313 C 1157.1 0.978433 3.46345 0
M  V30 12314 C 1156.71 2.46386 3.74163 0
M  V30 12315 C 1158.45 0.690249 4.18851 0
M  V30 12316 C 1156.36 2.80584 5.20602 0
M  V30 12317 H 1155.29 0.211506 0.723727 0
M  V30 12318 H 1157.94 1.1371 1.44022 0
M  V30 12319 H 1156.32 0.345379 3.94491 0
M  V30 12320 H 1157.49 3.14547 3.36745 0
M  V30 12321 H 1155.81 2.72473 3.14877 0
M  V30 12322 H 1158.41 0.922151 5.26688 0
M  V30 12323 H 1158.75 -0.372805 4.14627 0
M  V30 12324 H 1159.28 1.28275 3.76551 0
M  V30 12325 H 1156.02 3.85828 5.29921 0
M  V30 12326 H 1155.54 2.1708 5.59139 0
M  V30 12327 H 1157.22 2.68732 5.88551 0
M  V30 12328 N 1157.35 -1.41121 0.701616 0
M  V30 12329 C 1158.28 -2.33436 0.0545974 0
M  V30 12330 C 1159.26 -1.52144 -0.760662 0
M  V30 12331 O 1160.45 -1.80661 -0.712414 0
M  V30 12332 C 1157.58 -3.36015 -0.878117 0
M  V30 12333 C 1156.53 -4.27664 -0.169511 0
M  V30 12334 C 1155.86 -5.20666 -1.21699 0
M  V30 12335 C 1157.16 -5.13254 0.967859 0
M  V30 12336 H 1158.85 -2.87791 0.825637 0
M  V30 12337 H 1156.4 -1.38377 0.398484 0
M  V30 12338 H 1158.35 -3.99526 -1.34004 0
M  V30 12339 H 1157.08 -2.80024 -1.68089 0
M  V30 12340 H 1155.73 -3.65586 0.272441 0
M  V30 12341 H 1155.38 -4.60987 -2.01246 0
M  V30 12342 H 1155.08 -5.82822 -0.747836 0
M  V30 12343 H 1156.61 -5.87053 -1.6793 0
M  V30 12344 H 1158.02 -5.70298 0.585944 0
M  V30 12345 H 1156.42 -5.84381 1.3645 0
M  V30 12346 H 1157.49 -4.5006 1.80483 0
M  V30 12347 N 1158.83 -0.446794 -1.51134 0
M  V30 12348 C 1160.06 0.114893 -2.06581 0
M  V30 12349 C 1160.47 1.35642 -1.31327 0
M  V30 12350 O 1159.83 1.78595 -0.375506 0
M  V30 12351 C 1159.88 0.427589 -3.58962 0
M  V30 12352 O 1159.6 -0.764669 -4.31375 0
M  V30 12353 C 1161.1 1.03891 -4.30954 0
M  V30 12354 H 1158.32 0.00373031 -0.67099 0
M  V30 12355 H 1160.87 -0.628596 -1.94599 0
M  V30 12356 H 1159.02 1.12099 -3.70827 0
M  V30 12357 H 1159.44 -0.494605 -5.22163 0
M  V30 12358 H 1160.91 1.20764 -5.38628 0
M  V30 12359 H 1161.39 2.02252 -3.8986 0
M  V30 12360 H 1161.99 0.384623 -4.23557 0
M  V30 12361 N 1160.31 1.56586 -0.178487 0
M  V30 12362 C 1161.26 2.18309 0.74899 0
M  V30 12363 C 1162.23 1.12525 1.22178 0
M  V30 12364 O 1163.41 1.40706 1.28866 0
M  V30 12365 C 1160.55 2.83353 1.9699 0
M  V30 12366 C 1159.66 4.03618 1.54002 0
M  V30 12367 C 1158.8 4.56567 2.71514 0
M  V30 12368 C 1157.84 5.69226 2.25051 0
M  V30 12369 N 1156.97 6.16654 3.35682 0
M  V30 12370 H 1161.81 2.97217 0.21587 0
M  V30 12371 H 1159.35 1.46794 0.0948182 0
M  V30 12372 H 1161.31 3.19226 2.68609 0
M  V30 12373 H 1159.94 2.07037 2.4766 0
M  V30 12374 H 1158.99 3.73518 0.720298 0
M  V30 12375 H 1160.3 4.85148 1.15901 0
M  V30 12376 H 1159.46 4.94659 3.5128 0
M  V30 12377 H 1158.2 3.7411 3.12879 0
M  V30 12378 H 1157.2 5.30679 1.43734 0
M  V30 12379 H 1158.43 6.5349 1.84736 0
M  V30 12380 H 1156.37 5.37124 3.76609 0
M  V30 12381 H 1156.29 6.93192 3.01697 0
M  V30 12382 H 1157.56 6.59397 4.15711 0
M  V30 12383 N 1161.79 -0.095206 1.57312 0
M  V30 12384 C 1163.2 -0.449411 1.53142 0
M  V30 12385 C 1163.4 -1.80523 0.895187 0
M  V30 12386 O 1162.46 -2.47746 0.487649 0
M  V30 12387 C 1163.77 -0.412002 2.97864 0
M  V30 12388 C 1165.32 -0.493866 3.09079 0
M  V30 12389 C 1165.79 -0.486606 4.55408 0
M  V30 12390 N 1167.29 -0.547363 4.59955 0
M  V30 12391 C 1168.02 -0.563582 5.70624 0
M  V30 12392 N 1167.52 -0.536015 6.90723 0
M  V30 12393 N 1169.31 -0.608385 5.58798 0
M  V30 12394 H 1161.46 0.792869 1.97047 0
M  V30 12395 H 1163.72 0.295106 0.900898 0
M  V30 12396 H 1163.43 0.517064 3.47878 0
M  V30 12397 H 1163.3 -1.23102 3.56547 0
M  V30 12398 H 1165.69 -1.41335 2.59053 0
M  V30 12399 H 1165.77 0.353286 2.53349 0
M  V30 12400 H 1165.42 0.428935 5.06086 0
M  V30 12401 H 1165.35 -1.35097 5.08976 0
M  V30 12402 H 1167.84 -0.573867 3.73517 0
M  V30 12403 H 1168.15 -0.551671 7.70828 0
M  V30 12404 H 1166.49 -0.503064 6.93177 0
M  V30 12405 H 1169.69 -0.627451 4.63876 0
M  V30 12406 H 1169.86 -0.617556 6.45051 0
M  V30 12407 N 1163.26 -1.53291 -0.366026 0
M  V30 12408 C 1164.19 -1.82675 -1.45437 0
M  V30 12409 C 1165.18 -0.680227 -1.55907 0
M  V30 12410 O 1166.36 -0.930032 -1.70482 0
M  V30 12411 C 1163.49 -2.01626 -2.8278 0
M  V30 12412 C 1162.44 -3.17391 -2.87135 0
M  V30 12413 C 1161.77 -3.21634 -4.27148 0
M  V30 12414 C 1163.07 -4.5599 -2.54697 0
M  V30 12415 H 1164.76 -2.73818 -1.21096 0
M  V30 12416 H 1162.31 -1.31754 -0.581108 0
M  V30 12417 H 1164.26 -2.20765 -3.58944 0
M  V30 12418 H 1162.99 -1.07193 -3.08508 0
M  V30 12419 H 1161.65 -2.98071 -2.13422 0
M  V30 12420 H 1161.29 -2.2484 -4.49951 0
M  V30 12421 H 1160.99 -3.99414 -4.30978 0
M  V30 12422 H 1162.52 -3.42957 -5.05186 0
M  V30 12423 H 1163.93 -4.75294 -3.20575 0
M  V30 12424 H 1162.33 -5.36008 -2.69844 0
M  V30 12425 H 1163.4 -4.61133 -1.49949 0
M  V30 12426 N 1164.74 0.6258 -1.44643 0
M  V30 12427 C 1166.16 0.944569 -1.28647 0
M  V30 12428 C 1166.36 2.00227 -0.226134 0
M  V30 12429 O 1165.41 2.4953 0.386161 0
M  V30 12430 C 1166.73 1.40278 -2.65975 0
M  V30 12431 C 1168.28 1.51797 -2.73727 0
M  V30 12432 C 1168.75 2.01 -4.11537 0
M  V30 12433 N 1170.24 2.08262 -4.13741 0
M  V30 12434 C 1170.98 2.47515 -5.17227 0
M  V30 12435 N 1170.47 2.85867 -6.31072 0
M  V30 12436 N 1172.27 2.47695 -5.04583 0
M  V30 12437 H 1164.42 -0.0736157 -2.12272 0
M  V30 12438 H 1166.68 0.0296998 -0.947535 0
M  V30 12439 H 1166.39 0.699871 -3.44666 0
M  V30 12440 H 1166.26 2.37279 -2.93221 0
M  V30 12441 H 1168.65 2.21183 -1.95351 0
M  V30 12442 H 1168.73 0.531574 -2.50216 0
M  V30 12443 H 1168.37 1.32207 -4.90391 0
M  V30 12444 H 1168.3 3.0052 -4.32429 0
M  V30 12445 H 1170.79 1.81286 -3.31578 0
M  V30 12446 H 1171.11 3.14647 -7.05845 0
M  V30 12447 H 1169.45 2.83605 -6.34502 0
M  V30 12448 H 1172.64 2.17127 -4.14697 0
M  V30 12449 H 1172.81 2.77962 -5.85356 0
M  V30 12450 N 1166.22 1.31629 0.866686 0
M  V30 12451 C 1167.45 1.24293 1.6503 0
M  V30 12452 C 1167.86 -0.193556 1.88207 0
M  V30 12453 O 1167.2 -1.13712 1.44275 0
M  V30 12454 C 1167.26 1.92032 3.03914 0
M  V30 12455 C 1166.93 3.41373 3.03831 0
M  V30 12456 C 1167.92 4.37064 2.81551 0
M  V30 12457 C 1165.61 3.83118 3.24848 0
M  V30 12458 C 1167.6 5.72474 2.80272 0
M  V30 12459 C 1165.29 5.18639 3.23197 0
M  V30 12460 C 1166.29 6.13128 3.00936 0
M  V30 12461 O 1165.98 7.46172 2.99137 0
M  V30 12462 H 1165.71 0.430569 0.521139 0
M  V30 12463 H 1168.26 1.74105 1.0898 0
M  V30 12464 H 1166.49 1.36774 3.61704 0
M  V30 12465 H 1168.18 1.78567 3.64512 0
M  V30 12466 H 1168.95 4.06142 2.65093 0
M  V30 12467 H 1164.83 3.10001 3.41204 0
M  V30 12468 H 1168.37 6.46199 2.62816 0
M  V30 12469 H 1164.27 5.49196 3.39197 0
M  V30 12470 H 1165.04 7.55385 3.15175 0
M  V30 12471 N 1167.7 -1.08142 1.14644 0
M  V30 12472 C 1168.63 -2.14476 0.779437 0
M  V30 12473 C 1169.61 -1.60812 -0.240454 0
M  V30 12474 O 1170.79 -1.88059 -0.128881 0
M  V30 12475 C 1167.92 -3.38333 0.157692 0
M  V30 12476 C 1166.97 -4.10754 1.14819 0
M  V30 12477 S 1167.8 -4.63227 2.68666 0
M  V30 12478 C 1168.96 -5.90367 2.07888 0
M  V30 12479 H 1169.19 -2.45276 1.68009 0
M  V30 12480 H 1166.72 -1.20292 0.967942 0
M  V30 12481 H 1168.68 -4.10038 -0.194607 0
M  V30 12482 H 1167.34 -3.05726 -0.720435 0
M  V30 12483 H 1166.53 -4.99644 0.661226 0
M  V30 12484 H 1166.14 -3.44974 1.44462 0
M  V30 12485 H 1168.43 -6.62107 1.43599 0
M  V30 12486 H 1169.37 -6.43764 2.94913 0
M  V30 12487 H 1169.78 -5.43507 1.52514 0
M  V30 12488 N 1169.18 -0.941978 -1.26351 0
M  V30 12489 C 1170.42 -0.590845 -1.94002 0
M  V30 12490 C 1170.76 0.868004 -1.73722 0
M  V30 12491 O 1170.03 1.62111 -1.07472 0
M  V30 12492 C 1170.31 -0.934901 -3.47752 0
M  V30 12493 C 1170.17 -2.44855 -3.77314 0
M  V30 12494 C 1171.49 -0.450888 -4.37784 0
M  V30 12495 H 1168.61 -0.21613 -0.704597 0
M  V30 12496 H 1171.25 -1.17634 -1.49205 0
M  V30 12497 H 1169.4 -0.436648 -3.86038 0
M  V30 12498 H 1171.07 -3.01959 -3.48738 0
M  V30 12499 H 1169.31 -2.89169 -3.23363 0
M  V30 12500 H 1169.98 -2.6398 -4.84787 0
M  V30 12501 H 1172.46 -0.878107 -4.06729 0
M  V30 12502 H 1171.34 -0.720439 -5.44152 0
M  V30 12503 H 1171.6 0.649162 -4.37308 0
M  V30 12504 N 1170.66 1.40747 -0.709091 0
M  V30 12505 C 1171.9 2.01003 -0.24581 0
M  V30 12506 C 1172.23 1.56203 1.15891 0
M  V30 12507 O 1171.49 0.770166 1.79908 0
M  V30 12508 C 1171.78 3.56404 -0.266685 0
M  V30 12509 C 1171.45 4.20762 -1.6208 0
M  V30 12510 C 1170.11 4.38056 -1.99148 0
M  V30 12511 C 1172.46 4.56723 -2.51105 0
M  V30 12512 C 1169.79 4.88591 -3.248 0
M  V30 12513 C 1172.14 5.08654 -3.76103 0
M  V30 12514 C 1170.81 5.24158 -4.13297 0
M  V30 12515 H 1170.08 0.73552 -0.0899481 0
M  V30 12516 H 1172.73 1.68451 -0.910844 0
M  V30 12517 H 1171.03 3.88825 0.481915 0
M  V30 12518 H 1172.73 4.0085 0.109509 0
M  V30 12519 H 1169.32 4.07685 -1.32252 0
M  V30 12520 H 1173.5 4.43004 -2.23744 0
M  V30 12521 H 1168.76 4.98779 -3.53595 0
M  V30 12522 H 1172.93 5.35457 -4.45262 0
M  V30 12523 H 1170.56 5.63079 -5.10731 0
M  V30 12524 N 1172.13 0.454803 1.50895 0
M  V30 12525 C 1173.55 0.108037 1.59234 0
M  V30 12526 C 1173.75 -1.38416 1.46435 0
M  V30 12527 O 1172.81 -2.15586 1.31449 0
M  V30 12528 C 1174.12 0.643721 2.93729 0
M  V30 12529 C 1175.67 0.605703 3.07083 0
M  V30 12530 C 1176.14 1.11865 4.44128 0
M  V30 12531 N 1177.63 1.07738 4.50496 0
M  V30 12532 C 1178.37 1.44495 5.54895 0
M  V30 12533 N 1177.86 1.88624 6.66628 0
M  V30 12534 N 1179.66 1.36201 5.45349 0
M  V30 12535 H 1171.81 1.4255 1.57459 0
M  V30 12536 H 1174.07 0.588504 0.743214 0
M  V30 12537 H 1173.78 1.68844 3.0852 0
M  V30 12538 H 1173.65 0.0782404 3.77119 0
M  V30 12539 H 1176.04 -0.430065 2.91949 0
M  V30 12540 H 1176.12 1.2078 2.2549 0
M  V30 12541 H 1175.76 2.15297 4.6001 0
M  V30 12542 H 1175.69 0.492933 5.24288 0
M  V30 12543 H 1178.18 0.753526 3.70311 0
M  V30 12544 H 1178.5 2.14863 7.4233 0
M  V30 12545 H 1176.84 1.92564 6.6779 0
M  V30 12546 H 1180.03 1.01579 4.56946 0
M  V30 12547 H 1180.21 1.65175 6.26595 0
M  V30 12548 N 1173.61 -1.56489 0.186789 0
M  V30 12549 C 1174.84 -2.02163 -0.463126 0
M  V30 12550 C 1175.26 -1.06612 -1.54969 0
M  V30 12551 O 1174.62 -0.0482139 -1.81236 0
M  V30 12552 C 1174.67 -3.46337 -1.00416 0
M  V30 12553 O 1173.77 -3.53889 -2.11747 0
M  V30 12554 H 1173.11 -0.65496 -0.109194 0
M  V30 12555 H 1175.64 -2.02459 0.295227 0
M  V30 12556 H 1175.65 -3.85959 -1.32287 0
M  V30 12557 H 1174.33 -4.15376 -0.208693 0
M  V30 12558 H 1172.9 -3.26136 -1.80803 0
M  V30 12559 N 1175.09 0.086862 -1.5736 0
M  V30 12560 C 1176.02 1.13614 -1.97907 0
M  V30 12561 C 1177 1.38395 -0.853564 0
M  V30 12562 O 1178.18 1.52018 -1.11457 0
M  V30 12563 C 1175.31 2.48364 -2.30289 0
M  V30 12564 C 1174.36 2.39814 -3.52692 0
M  V30 12565 S 1175.19 1.80673 -5.04101 0
M  V30 12566 C 1176.35 3.17031 -5.39669 0
M  V30 12567 H 1176.58 0.790538 -2.86597 0
M  V30 12568 H 1174.11 0.294847 -1.51559 0
M  V30 12569 H 1176.07 3.25883 -2.49621 0
M  V30 12570 H 1174.73 2.80091 -1.42154 0
M  V30 12571 H 1173.92 3.3915 -3.72818 0
M  V30 12572 H 1173.53 1.70427 -3.32912 0
M  V30 12573 H 1175.82 4.13319 -5.36818 0
M  V30 12574 H 1176.76 3.017 -6.40611 0
M  V30 12575 H 1177.17 3.16942 -4.67128 0
M  V30 12576 N 1176.57 1.53483 0.357892 0
M  V30 12577 C 1177.5 1.83444 1.44466 0
M  V30 12578 C 1178.48 0.688486 1.55544 0
M  V30 12579 O 1179.66 0.93906 1.69986 0
M  V30 12580 C 1176.79 2.03122 2.81707 0
M  V30 12581 C 1175.75 3.1891 2.85448 0
M  V30 12582 C 1175.07 3.23895 4.25436 0
M  V30 12583 C 1176.37 4.57334 2.52275 0
M  V30 12584 H 1178.07 2.74456 1.19642 0
M  V30 12585 H 1175.61 1.3206 0.574112 0
M  V30 12586 H 1177.57 2.22666 3.57768 0
M  V30 12587 H 1176.29 1.08827 3.07935 0
M  V30 12588 H 1174.95 2.99199 2.11838 0
M  V30 12589 H 1174.6 2.27223 4.48753 0
M  V30 12590 H 1174.3 4.01694 4.28854 0
M  V30 12591 H 1175.82 3.45632 5.0336 0
M  V30 12592 H 1177.24 4.76988 3.1805 0
M  V30 12593 H 1175.63 5.37431 2.66998 0
M  V30 12594 H 1176.7 4.61921 1.47501 0
M  V30 12595 N 1178.05 -0.61812 1.44973 0
M  V30 12596 C 1179.46 -0.937734 1.29146 0
M  V30 12597 C 1179.66 -2.00104 0.236749 0
M  V30 12598 O 1178.72 -2.49731 -0.372923 0
M  V30 12599 C 1180.03 -1.38865 2.66715 0
M  V30 12600 C 1181.58 -1.50343 2.74529 0
M  V30 12601 C 1182.05 -1.98814 4.12598 0
M  V30 12602 N 1183.54 -2.06064 4.14839 0
M  V30 12603 C 1184.28 -2.44768 5.18533 0
M  V30 12604 N 1183.78 -2.82516 6.32579 0
M  V30 12605 N 1185.57 -2.45016 5.05889 0
M  V30 12606 H 1177.72 0.084872 2.1223 0
M  V30 12607 H 1179.98 -0.0246744 0.947679 0
M  V30 12608 H 1179.69 -0.681583 3.45032 0
M  V30 12609 H 1179.56 -2.3572 2.94475 0
M  V30 12610 H 1181.95 -2.20144 1.96522 0
M  V30 12611 H 1182.03 -0.518297 2.50494 0
M  V30 12612 H 1181.67 -1.29604 4.91086 0
M  V30 12613 H 1181.6 -2.98223 4.34017 0
M  V30 12614 H 1184.1 -1.79525 3.32535 0
M  V30 12615 H 1184.41 -3.109 7.07504 0
M  V30 12616 H 1182.75 -2.80237 6.35997 0
M  V30 12617 H 1185.94 -2.14925 4.15842 0
M  V30 12618 H 1186.12 -2.74854 5.86821 0
M  V30 12619 N 1179.52 -1.32087 -0.859693 0
M  V30 12620 C 1180.46 -1.16426 -1.97428 0
M  V30 12621 C 1181.47 -0.100582 -1.62489 0
M  V30 12622 O 1182.66 -0.349063 -1.75054 0
M  V30 12623 C 1179.76 -0.758822 -3.30295 0
M  V30 12624 C 1178.93 -1.90971 -3.93508 0
M  V30 12625 C 1177.99 -1.48865 -5.04704 0
M  V30 12626 O 1177.02 -2.1999 -5.2497 0
M  V30 12627 N 1178.22 -0.38182 -5.79243 0
M  V30 12628 H 1180.98 -2.12433 -2.11406 0
M  V30 12629 H 1178.54 -1.24558 -1.03426 0
M  V30 12630 H 1180.54 -0.459643 -4.02081 0
M  V30 12631 H 1179.11 0.109944 -3.12407 0
M  V30 12632 H 1178.33 -2.37566 -3.14573 0
M  V30 12633 H 1179.61 -2.68032 -4.32477 0
M  V30 12634 H 1179.01 0.210268 -5.65309 0
M  V30 12635 H 1177.57 -0.142224 -6.51645 0
M  V30 12636 N 1181 1.07532 -1.15215 0
M  V30 12637 C 1182.28 1.76813 -0.83646 0
M  V30 12638 C 1182.66 2.00242 0.6683 0
M  V30 12639 O 1182.01 1.61941 1.61206 0
M  V30 12640 C 1182.22 3.0779 -1.64519 0
M  V30 12641 C 1183.56 3.82168 -1.85022 0
M  V30 12642 O 1184.59 3.17596 -1.61279 0
M  V30 12643 O 1183.45 4.98135 -2.24775 0
M  V30 12644 H 1180.54 0.767736 -0.307426 0
M  V30 12645 H 1183.09 1.13914 -1.25784 0
M  V30 12646 H 1181.86 2.86342 -2.6669 0
M  V30 12647 H 1181.48 3.78419 -1.22002 0
M  V30 12648 N 1182.48 0.948665 1.2585 0
M  V30 12649 C 1183.73 0.601125 1.93686 0
M  V30 12650 C 1184.06 -0.858779 1.7418 0
M  V30 12651 O 1183.33 -1.61539 1.0833 0
M  V30 12652 C 1183.62 0.95333 3.47252 0
M  V30 12653 C 1183.47 2.46853 3.7601 0
M  V30 12654 C 1184.79 0.474098 4.37539 0
M  V30 12655 H 1181.91 0.219864 0.703441 0
M  V30 12656 H 1184.55 1.18424 1.48579 0
M  V30 12657 H 1182.7 0.457114 3.85801 0
M  V30 12658 H 1184.37 3.03804 3.47132 0
M  V30 12659 H 1182.62 2.9088 3.21825 0
M  V30 12660 H 1183.29 2.66547 4.83381 0
M  V30 12661 H 1185.76 0.899664 4.06258 0
M  V30 12662 H 1184.64 0.749287 5.43762 0
M  V30 12663 H 1184.9 -0.625961 4.37646 0
M  V30 12664 N 1183.96 -1.40369 0.716545 0
M  V30 12665 C 1185.18 -2.05704 0.264729 0
M  V30 12666 C 1185.61 -1.53634 -1.08527 0
M  V30 12667 O 1184.97 -0.67212 -1.68381 0
M  V30 12668 C 1185.01 -3.59692 0.255778 0
M  V30 12669 O 1184.12 -4.05286 -0.762686 0
M  V30 12670 H 1183.46 -0.652301 0.124092 0
M  V30 12671 H 1185.99 -1.7975 0.977295 0
M  V30 12672 H 1186 -4.07892 0.0937944 0
M  V30 12673 H 1184.67 -3.96955 1.24095 0
M  V30 12674 H 1183.25 -3.68543 -0.568347 0
M  V30 12675 N 1185.44 -0.462799 -1.50652 0
M  V30 12676 C 1186.68 0.0873392 -2.03212 0
M  V30 12677 C 1187.04 1.38147 -1.33915 0
M  V30 12678 O 1186.33 1.86161 -0.453286 0
M  V30 12679 C 1186.52 0.335294 -3.55824 0
M  V30 12680 C 1186.35 -0.933253 -4.3991 0
M  V30 12681 C 1185.12 -1.47417 -4.83318 0
M  V30 12682 C 1187.32 -1.8264 -4.80777 0
M  V30 12683 N 1185.3 -2.6926 -5.51699 0
M  V30 12684 C 1186.67 -2.89075 -5.48485 0
M  V30 12685 C 1188.73 -1.83778 -4.62742 0
M  V30 12686 C 1187.43 -3.96625 -6.00067 0
M  V30 12687 C 1189.46 -2.90279 -5.15259 0
M  V30 12688 C 1188.82 -3.95433 -5.82934 0
M  V30 12689 H 1184.92 -0.00785676 -0.781961 0
M  V30 12690 H 1187.5 -0.629156 -1.84254 0
M  V30 12691 H 1185.67 1.02083 -3.74745 0
M  V30 12692 H 1187.41 0.879039 -3.95038 0
M  V30 12693 H 1184.16 -1.02451 -4.62386 0
M  V30 12694 H 1184.59 -3.31115 -5.90502 0
M  V30 12695 H 1189.23 -1.03802 -4.0986 0
M  V30 12696 H 1186.95 -4.77424 -6.51991 0
M  V30 12697 H 1190.53 -2.92133 -5.0314 0
M  V30 12698 H 1189.41 -4.76487 -6.2284 0
M  V30 12699 N 1186.91 1.56388 -0.195085 0
M  V30 12700 C 1188.16 1.9758 0.443686 0
M  V30 12701 C 1188.49 1.08196 1.61629 0
M  V30 12702 O 1187.74 0.121061 1.95325 0
M  V30 12703 C 1188.04 3.44651 0.946051 0
M  V30 12704 C 1187.71 4.50758 -0.11318 0
M  V30 12705 C 1186.37 4.79499 -0.404229 0
M  V30 12706 C 1188.72 5.14534 -0.830899 0
M  V30 12707 C 1186.05 5.69307 -1.41797 0
M  V30 12708 C 1188.4 6.05438 -1.83379 0
M  V30 12709 C 1187.07 6.32535 -2.13204 0
M  V30 12710 H 1186.34 0.722995 0.162356 0
M  V30 12711 H 1188.98 1.8926 -0.292049 0
M  V30 12712 H 1187.29 3.50042 1.76006 0
M  V30 12713 H 1188.99 3.73878 1.44969 0
M  V30 12714 H 1185.58 4.28421 0.123833 0
M  V30 12715 H 1189.76 4.92421 -0.61927 0
M  V30 12716 H 1185.02 5.88575 -1.65496 0
M  V30 12717 H 1189.19 6.53915 -2.39516 0
M  V30 12718 H 1186.82 7.01924 -2.91902 0
M  V30 12719 N 1188.39 -0.0785156 1.57404 0
M  V30 12720 C 1189.67 -0.811557 1.77969 0
M  V30 12721 C 1190.05 -1.96123 0.780966 0
M  V30 12722 O 1189.4 -2.27731 -0.18726 0
M  V30 12723 C 1189.61 -1.29075 3.24254 0
M  V30 12724 C 1190.96 -1.72685 3.87898 0
M  V30 12725 O 1191.98 -1.38658 3.28104 0
M  V30 12726 O 1190.84 -2.3566 4.93079 0
M  V30 12727 H 1187.93 -0.388361 0.73014 0
M  V30 12728 H 1190.48 -0.0591118 1.69597 0
M  V30 12729 H 1189.25 -0.467813 3.88494 0
M  V30 12730 H 1188.87 -2.10472 3.37324 0
M  V30 12731 N 1189.87 -1.5367 -0.349747 0
M  V30 12732 C 1191.15 -1.61238 -1.10732 0
M  V30 12733 C 1191.53 -0.429756 -2.06679 0
M  V30 12734 O 1190.88 0.578564 -2.21054 0
M  V30 12735 C 1191.09 -2.97022 -1.83245 0
M  V30 12736 C 1192.43 -3.52158 -2.37212 0
M  V30 12737 O 1193.46 -2.99156 -1.9335 0
M  V30 12738 O 1192.32 -4.44853 -3.1744 0
M  V30 12739 H 1189.41 -0.65191 -0.508864 0
M  V30 12740 H 1191.96 -1.66015 -0.351738 0
M  V30 12741 H 1190.73 -3.74535 -1.13311 0
M  V30 12742 H 1190.35 -2.95808 -2.65675 0
M  V30 12743 N 1191.35 0.610423 -1.45298 0
M  V30 12744 C 1192.76 1.19234 -1.43667 0
M  V30 12745 C 1193.11 1.95523 -0.162794 0
M  V30 12746 O 1192.24 2.03507 0.735789 0
M  V30 12747 C 1192.83 2.16892 -2.60276 0
M  V30 12748 C 1191.39 2.70465 -2.61774 0
M  V30 12749 C 1190.54 1.45821 -2.35863 0
M  V30 12750 H 1193.49 0.399895 -1.53579 0
M  V30 12751 H 1193.51 2.99875 -2.34212 0
M  V30 12752 H 1193.02 1.61339 -3.52975 0
M  V30 12753 H 1191.12 3.29965 -1.73072 0
M  V30 12754 H 1191.23 3.15092 -3.60907 0
M  V30 12755 H 1189.6 1.74678 -1.85364 0
M  V30 12756 H 1190.38 0.921403 -3.30704 0
M  V30 12757 N 1192.83 1.32541 0.852676 0
M  V30 12758 C 1193.77 1.21643 1.96142 0
M  V30 12759 C 1194.74 0.0981496 1.6581 0
M  V30 12760 O 1195.93 0.27404 1.88822 0
M  V30 12761 C 1193.07 0.947483 3.31838 0
M  V30 12762 C 1192.18 2.15074 3.74656 0
M  V30 12763 C 1191.32 1.81711 4.99154 0
M  V30 12764 C 1190.36 2.98346 5.34468 0
M  V30 12765 N 1189.49 2.65062 6.50143 0
M  V30 12766 H 1194.33 2.16479 2.04795 0
M  V30 12767 H 1191.87 1.07664 1.00234 0
M  V30 12768 H 1193.83 0.772038 4.09994 0
M  V30 12769 H 1192.46 0.0359112 3.2278 0
M  V30 12770 H 1191.51 2.43639 2.92137 0
M  V30 12771 H 1192.82 3.02314 3.96747 0
M  V30 12772 H 1191.98 1.60729 5.85022 0
M  V30 12773 H 1190.71 0.916875 4.79004 0
M  V30 12774 H 1189.72 3.19956 4.47111 0
M  V30 12775 H 1190.94 3.89104 5.56574 0
M  V30 12776 H 1188.89 1.77582 6.31507 0
M  V30 12777 H 1188.81 3.45832 6.72262 0
M  V30 12778 H 1190.08 2.47516 7.39159 0
M  V30 12779 N 1194.3 -1.0692 1.15784 0
M  V30 12780 C 1195.25 -2.16335 0.854506 0
M  V30 12781 C 1196.25 -1.68505 -0.173868 0
M  V30 12782 O 1197.45 -1.79977 -0.0284722 0
M  V30 12783 H 1193.83 -0.706103 0.258694 0
M  V30 12784 H 1195.8 -2.39135 1.78486 0
M  V30 12785 C 1194.55 -3.45778 0.365042 0
M  V30 12786 H 1193.87 -3.82971 1.14776 0
M  V30 12787 H 1195.31 -4.23567 0.191504 0
M  V30 12788 C 1193.77 -3.24258 -0.914253 0
M  V30 12789 O 1194.3 -3.49236 -1.98487 0
M  V30 12790 N 1192.51 -2.77722 -0.855501 0
M  V30 12791 H 1192.05 -2.57595 0.0159233 0
M  V30 12792 H 1192.01 -2.63702 -1.71198 0
M  V30 12793 N 1195.78 -0.955326 -1.25345 0
M  V30 12794 C 1197.01 -0.627693 -1.97149 0
M  V30 12795 C 1197.43 0.800349 -1.70997 0
M  V30 12796 O 1196.78 1.53545 -0.986417 0
M  V30 12797 C 1196.83 -0.877675 -3.50684 0
M  V30 12798 O 1196.55 -2.24957 -3.75934 0
M  V30 12799 C 1198.06 -0.562524 -4.39716 0
M  V30 12800 H 1195.28 -0.235269 -0.628402 0
M  V30 12801 H 1197.82 -1.27989 -1.59496 0
M  V30 12802 H 1195.97 -0.271878 -3.86445 0
M  V30 12803 H 1196.39 -2.32022 -4.70389 0
M  V30 12804 H 1197.86 -0.787972 -5.46347 0
M  V30 12805 H 1198.34 0.50293 -4.36311 0
M  V30 12806 H 1198.95 -1.14767 -4.09522 0
M  V30 12807 N 1197.26 1.39987 -0.723979 0
M  V30 12808 C 1198.49 2.05037 -0.27702 0
M  V30 12809 C 1198.9 1.54565 1.08421 0
M  V30 12810 O 1198.26 0.705795 1.683 0
M  V30 12811 C 1198.31 3.60582 -0.25751 0
M  V30 12812 O 1198.03 4.09194 -1.565 0
M  V30 12813 C 1199.53 4.42817 0.206972 0
M  V30 12814 H 1196.75 0.659637 -0.122963 0
M  V30 12815 H 1199.3 1.7924 -0.98454 0
M  V30 12816 H 1197.45 3.85319 0.401037 0
M  V30 12817 H 1197.87 5.03447 -1.47112 0
M  V30 12818 H 1199.34 5.5174 0.16947 0
M  V30 12819 H 1199.82 4.21023 1.25045 0
M  V30 12820 H 1200.42 4.23205 -0.421604 0
M  V30 12821 N 1198.74 0.470782 1.50404 0
M  V30 12822 C 1199.99 -0.0841494 2.01925 0
M  V30 12823 C 1200.31 -1.40244 1.35487 0
M  V30 12824 O 1199.58 -1.89409 0.500111 0
M  V30 12825 H 1198.16 -0.0340884 0.746222 0
M  V30 12826 H 1200.82 0.621133 1.84738 0
M  V30 12827 H 1199.92 -0.235877 3.11207 0
M  V30 12828 N 1200.22 -1.56282 0.203376 0
M  V30 12829 C 1201.18 -2.18233 -0.700489 0
M  V30 12830 C 1202.18 -1.13908 -1.13497 0
M  V30 12831 O 1203.37 -1.39246 -1.04672 0
M  V30 12832 C 1200.5 -2.79107 -1.95735 0
M  V30 12833 H 1201.7 -2.99469 -0.160649 0
M  V30 12834 H 1199.25 -1.56232 -0.0462475 0
M  V30 12835 H 1199.98 -2.01691 -2.53951 0
M  V30 12836 H 1199.77 -3.55486 -1.65446 0
M  V30 12837 H 1201.26 -3.2665 -2.60172 0
M  V30 12838 N 1201.7 0.070167 -1.57444 0
M  V30 12839 C 1202.63 1.08351 -2.06839 0
M  V30 12840 C 1203.61 1.40269 -0.962224 0
M  V30 12841 O 1204.79 1.49867 -1.23505 0
M  V30 12842 C 1201.92 2.39649 -2.51368 0
M  V30 12843 C 1200.88 2.22079 -3.65875 0
M  V30 12844 C 1200.2 3.58776 -3.96464 0
M  V30 12845 C 1201.5 1.64069 -4.95862 0
M  V30 12846 H 1203.2 0.672465 -2.9175 0
M  V30 12847 H 1200.74 0.322027 -1.40353 0
M  V30 12848 H 1202.69 3.10833 -2.84537 0
M  V30 12849 H 1201.42 2.82736 -1.63487 0
M  V30 12850 H 1200.08 1.53337 -3.32992 0
M  V30 12851 H 1199.73 3.99436 -3.05712 0
M  V30 12852 H 1199.43 3.47859 -4.7357 0
M  V30 12853 H 1200.95 4.31387 -4.32131 0
M  V30 12854 H 1202.36 2.2512 -5.27251 0
M  V30 12855 H 1200.76 1.63843 -5.773 0
M  V30 12856 H 1201.83 0.60232 -4.81145 0
M  V30 12857 N 1203.17 1.53854 0.341593 0
M  V30 12858 C 1204.4 1.75134 1.10162 0
M  V30 12859 C 1204.82 0.491415 1.82292 0
M  V30 12860 O 1204.17 -0.53703 1.7442 0
M  V30 12861 C 1204.22 2.93273 2.1136 0
M  V30 12862 O 1203.95 4.14393 1.42162 0
M  V30 12863 C 1205.45 3.26621 2.99723 0
M  V30 12864 H 1202.67 0.585126 0.328434 0
M  V30 12865 H 1205.21 2.00684 0.393204 0
M  V30 12866 H 1203.37 2.70048 2.77764 0
M  V30 12867 H 1203.78 4.8072 2.09783 0
M  V30 12868 H 1205.25 4.12629 3.66662 0
M  V30 12869 H 1205.73 2.43008 3.65847 0
M  V30 12870 H 1206.34 3.51858 2.38906 0
M  V30 12871 N 1204.65 -0.602709 1.4562 0
M  V30 12872 C 1205.88 -1.3881 1.53426 0
M  V30 12873 C 1206.29 -1.88046 0.16851 0
M  V30 12874 O 1205.65 -1.62493 -0.830791 0
M  V30 12875 C 1205.7 -2.58927 2.52268 0
M  V30 12876 O 1205.42 -2.11735 3.83536 0
M  V30 12877 C 1206.92 -3.51728 2.69819 0
M  V30 12878 H 1204.14 -0.424744 0.519455 0
M  V30 12879 H 1206.69 -0.73459 1.90851 0
M  V30 12880 H 1204.84 -3.20309 2.17902 0
M  V30 12881 H 1205.26 -2.89814 4.37159 0
M  V30 12882 H 1206.73 -4.32542 3.42945 0
M  V30 12883 H 1207.21 -4.02383 1.76024 0
M  V30 12884 H 1207.81 -2.96196 3.05202 0
M  V30 12885 N 1206.13 -1.32992 -0.845635 0
M  V30 12886 C 1207.55 -1.12179 -1.13526 0
M  V30 12887 C 1207.75 0.091795 -2.01291 0
M  V30 12888 O 1206.8 0.774051 -2.40343 0
M  V30 12889 C 1208.11 -2.40584 -1.80388 0
M  V30 12890 C 1209.66 -2.46427 -1.92984 0
M  V30 12891 C 1210.14 -3.74776 -2.63261 0
M  V30 12892 N 1211.63 -3.75809 -2.7078 0
M  V30 12893 C 1212.36 -4.71829 -3.2583 0
M  V30 12894 N 1211.86 -5.78219 -3.81621 0
M  V30 12895 N 1213.65 -4.59313 -3.24018 0
M  V30 12896 H 1205.8 -2.10786 -0.261369 0
M  V30 12897 H 1208.07 -0.931053 -0.17845 0
M  V30 12898 H 1207.77 -3.29357 -1.23357 0
M  V30 12899 H 1207.65 -2.52225 -2.80468 0
M  V30 12900 H 1210.03 -1.58108 -2.4917 0
M  V30 12901 H 1210.11 -2.38732 -0.918732 0
M  V30 12902 H 1209.76 -4.63474 -2.07736 0
M  V30 12903 H 1209.69 -3.79746 -3.6483 0
M  V30 12904 H 1212.18 -2.98916 -2.31209 0
M  V30 12905 H 1212.49 -6.47531 -4.2181 0
M  V30 12906 H 1210.84 -5.81962 -3.79927 0
M  V30 12907 H 1214.03 -3.75358 -2.79685 0
M  V30 12908 H 1214.2 -5.34316 -3.6662 0
M  V30 12909 N 1207.61 1.06304 -1.1635 0
M  V30 12910 C 1208.54 2.15745 -0.893103 0
M  V30 12911 C 1209.52 1.69341 0.160531 0
M  V30 12912 O 1210.7 1.94196 0.0126526 0
M  V30 12913 C 1207.83 3.45066 -0.393287 0
M  V30 12914 C 1206.79 4.04978 -1.38482 0
M  V30 12915 C 1206.11 5.29507 -0.743409 0
M  V30 12916 C 1207.41 4.4377 -2.75438 0
M  V30 12917 H 1209.11 2.38622 -1.80831 0
M  V30 12918 H 1206.65 1.14681 -0.870878 0
M  V30 12919 H 1208.61 4.20964 -0.191607 0
M  V30 12920 H 1207.33 3.21808 0.557426 0
M  V30 12921 H 1205.99 3.31136 -1.57304 0
M  V30 12922 H 1205.64 5.02545 0.213787 0
M  V30 12923 H 1205.34 5.7055 -1.40521 0
M  V30 12924 H 1206.86 6.08102 -0.551746 0
M  V30 12925 H 1208.28 5.1075 -2.60398 0
M  V30 12926 H 1206.67 4.95797 -3.38091 0
M  V30 12927 H 1207.74 3.54636 -3.30699 0
M  V30 12928 N 1209.09 0.96196 1.24836 0
M  V30 12929 C 1210.05 0.492443 2.23847 0
M  V30 12930 C 1211.05 -0.40788 1.55541 0
M  V30 12931 O 1212.24 -0.204143 1.73 0
M  V30 12932 C 1209.37 -0.287578 3.39685 0
M  V30 12933 H 1210.56 1.36767 2.66899 0
M  V30 12934 H 1208.12 0.745967 1.3735 0
M  V30 12935 H 1208.85 -1.18015 3.02064 0
M  V30 12936 H 1208.64 0.358431 3.90458 0
M  V30 12937 H 1210.13 -0.605297 4.1319 0
M  V30 12938 N 1210.56 -1.39601 0.731392 0
M  V30 12939 C 1211.51 -2.32469 0.0781328 0
M  V30 12940 C 1212.51 -1.52873 -0.729811 0
M  V30 12941 O 1213.71 -1.68563 -0.631402 0
M  V30 12942 H 1210.09 -0.751972 0.00646515 0
M  V30 12943 H 1212.06 -2.85196 0.877833 0
M  V30 12944 C 1210.81 -3.37948 -0.817717 0
M  V30 12945 H 1210.13 -3.99272 -0.205417 0
M  V30 12946 H 1211.57 -4.05387 -1.24248 0
M  V30 12947 C 1210.03 -2.74703 -1.95038 0
M  V30 12948 O 1210.56 -2.62266 -3.04269 0
M  V30 12949 N 1208.76 -2.32845 -1.73872 0
M  V30 12950 H 1208.31 -2.43161 -0.850321 0
M  V30 12951 H 1208.27 -1.90869 -2.49833 0
M  V30 12952 N 1212.04 -0.478751 -1.50152 0
M  V30 12953 C 1213.32 0.135533 -1.9513 0
M  V30 12954 C 1213.7 1.56253 -1.41944 0
M  V30 12955 O 1213.05 2.19824 -0.623673 0
M  V30 12956 C 1213.26 0.0710037 -3.48928 0
M  V30 12957 C 1214.61 0.256075 -4.23827 0
M  V30 12958 O 1215.63 0.147234 -3.55896 0
M  V30 12959 O 1214.49 0.476741 -5.44417 0
M  V30 12960 H 1211.58 0.107491 -0.819985 0
M  V30 12961 H 1214.13 -0.539701 -1.60889 0
M  V30 12962 H 1212.9 -0.925012 -3.80209 0
M  V30 12963 H 1212.52 0.787362 -3.89726 0
M  V30 12964 N 1213.52 1.56172 -0.211661 0
M  V30 12965 C 1214.48 2.18602 0.688906 0
M  V30 12966 C 1215.48 1.14508 1.12892 0
M  V30 12967 O 1216.67 1.39799 1.03932 0
M  V30 12968 C 1213.81 2.80141 1.94253 0
M  V30 12969 H 1215 2.9955 0.144765 0
M  V30 12970 H 1212.55 1.56254 0.0379615 0
M  V30 12971 H 1213.29 2.03035 2.52878 0
M  V30 12972 H 1213.07 3.56358 1.63558 0
M  V30 12973 H 1214.56 3.28026 2.58436 0
M  V30 12974 N 1215 -0.0618163 1.57479 0
M  V30 12975 C 1215.96 -1.05684 2.0338 0
M  V30 12976 C 1216.96 -1.31006 0.932423 0
M  V30 12977 O 1218.15 -1.26559 1.19702 0
M  V30 12978 C 1215.28 -2.39805 2.42294 0
M  V30 12979 H 1216.48 -0.661006 2.92525 0
M  V30 12980 H 1214.03 -0.307814 1.53239 0
M  V30 12981 H 1214.76 -2.84201 1.56207 0
M  V30 12982 H 1214.55 -2.22764 3.22674 0
M  V30 12983 H 1216.04 -3.11307 2.78349 0
M  V30 12984 N 1216.48 -1.54033 -0.333429 0
M  V30 12985 C 1217.41 -1.79056 -1.43079 0
M  V30 12986 C 1218.42 -0.672176 -1.48276 0
M  V30 12987 O 1219.61 -0.949103 -1.51176 0
M  V30 12988 C 1216.71 -1.88443 -2.81678 0
M  V30 12989 C 1215.88 -3.18493 -2.99802 0
M  V30 12990 C 1214.94 -3.18708 -4.18702 0
M  V30 12991 O 1213.97 -3.92389 -4.12334 0
M  V30 12992 N 1215.17 -2.41792 -5.27747 0
M  V30 12993 H 1217.94 -2.73753 -1.21981 0
M  V30 12994 H 1215.5 -1.53207 -0.523365 0
M  V30 12995 H 1217.49 -1.86027 -3.59411 0
M  V30 12996 H 1216.06 -1.00887 -2.95872 0
M  V30 12997 H 1215.28 -3.33951 -2.09453 0
M  V30 12998 H 1216.57 -4.04376 -3.088 0
M  V30 12999 H 1215.96 -1.81501 -5.35793 0
M  V30 13000 H 1214.52 -2.45163 -6.03936 0
M  V30 13001 N 1217.95 0.594978 -1.45938 0
M  V30 13002 C 1219.2 1.35561 -1.50834 0
M  V30 13003 C 1219.53 1.93584 -0.154566 0
M  V30 13004 O 1218.81 1.75781 0.832541 0
M  V30 13005 C 1219.09 2.49414 -2.5974 0
M  V30 13006 C 1218.94 1.96506 -4.04605 0
M  V30 13007 C 1220.26 3.51505 -2.64825 0
M  V30 13008 H 1217.38 0.491549 -0.549134 0
M  V30 13009 H 1220.02 0.669536 -1.77812 0
M  V30 13010 H 1218.17 3.07939 -2.36866 0
M  V30 13011 H 1219.85 1.42533 -4.38728 0
M  V30 13012 H 1218.09 1.27418 -4.14665 0
M  V30 13013 H 1218.76 2.78636 -4.76515 0
M  V30 13014 H 1221.24 3.02841 -2.85353 0
M  V30 13015 H 1220.11 4.28641 -3.42867 0
M  V30 13016 H 1220.37 4.07942 -1.70399 0
M  V30 13017 N 1219.43 1.33438 0.838571 0
M  V30 13018 C 1220.38 1.23717 1.94841 0
M  V30 13019 C 1221.35 0.11573 1.65696 0
M  V30 13020 O 1222.53 0.294051 1.8852 0
M  V30 13021 C 1219.67 0.982626 3.30815 0
M  V30 13022 C 1218.79 2.19036 3.72354 0
M  V30 13023 C 1217.92 1.86995 4.97199 0
M  V30 13024 C 1216.96 3.03998 5.31274 0
M  V30 13025 N 1216.1 2.71943 6.47295 0
M  V30 13026 H 1220.94 2.18639 2.02487 0
M  V30 13027 H 1218.48 1.08721 0.990861 0
M  V30 13028 H 1220.43 0.81548 4.09152 0
M  V30 13029 H 1219.06 0.0701443 3.22724 0
M  V30 13030 H 1218.12 2.46724 2.89537 0
M  V30 13031 H 1219.43 3.06505 3.93518 0
M  V30 13032 H 1218.58 1.66925 5.83285 0
M  V30 13033 H 1217.32 0.967628 4.78004 0
M  V30 13034 H 1216.33 3.24681 4.43692 0
M  V30 13035 H 1217.55 3.94985 5.52416 0
M  V30 13036 H 1215.5 1.8427 6.29588 0
M  V30 13037 H 1215.41 3.52943 6.68556 0
M  V30 13038 H 1216.68 2.55342 7.36492 0
M  V30 13039 N 1220.91 -1.05686 1.16912 0
M  V30 13040 C 1222.16 -1.78244 0.95254 0
M  V30 13041 C 1222.48 -1.87924 -0.520525 0
M  V30 13042 O 1221.75 -1.39239 -1.37802 0
M  V30 13043 H 1220.33 -0.660228 0.349439 0
M  V30 13044 H 1222.99 -1.27634 1.47294 0
M  V30 13045 H 1222.09 -2.80102 1.37657 0
M  V30 13046 N 1222.39 -0.968567 -1.24324 0
M  V30 13047 C 1223.35 -0.504307 -2.23583 0
M  V30 13048 C 1224.35 0.399626 -1.55755 0
M  V30 13049 O 1225.54 0.194966 -1.73106 0
M  V30 13050 C 1222.67 0.26956 -3.39833 0
M  V30 13051 H 1223.87 -1.3818 -2.6617 0
M  V30 13052 H 1221.42 -0.753241 -1.36952 0
M  V30 13053 H 1222.15 1.16411 -3.02686 0
M  V30 13054 H 1221.94 -0.379133 -3.90263 0
M  V30 13055 H 1223.43 0.583376 -4.13505 0
M  V30 13056 N 1223.87 1.39211 -0.738786 0
M  V30 13057 C 1225.12 1.99673 -0.285254 0
M  V30 13058 C 1225.43 1.59297 1.13507 0
M  V30 13059 O 1226.63 2.12622 1.68832 0
M  V30 13060 C 1225.09 3.5696 -0.45906 0
M  V30 13061 C 1224.7 4.06297 -1.88751 0
M  V30 13062 C 1226.44 4.24446 -0.0674954 0
M  V30 13063 C 1224.35 5.56171 -2.01067 0
M  V30 13064 H 1223.28 0.746945 -0.102901 0
M  V30 13065 H 1225.93 1.59163 -0.913209 0
M  V30 13066 H 1224.31 3.95285 0.23785 0
M  V30 13067 H 1225.49 3.79297 -2.61669 0
M  V30 13068 H 1223.8 3.51486 -2.23264 0
M  V30 13069 H 1226.4 5.34521 -0.138475 0
M  V30 13070 H 1226.74 4.04653 0.977823 0
M  V30 13071 H 1227.27 3.91309 -0.715704 0
M  V30 13072 H 1224.01 5.80849 -3.03801 0
M  V30 13073 H 1223.53 5.84961 -1.32591 0
M  V30 13074 H 1225.21 6.21642 -1.79362 0
M  V30 13075 N 1225.34 0.486708 1.49896 0
M  V30 13076 C 1226.59 -0.0627279 2.02003 0
M  V30 13077 C 1226.91 -1.38799 1.36967 0
M  V30 13078 O 1226.18 -1.88868 0.520173 0
M  V30 13079 H 1224.76 -0.0261718 0.746541 0
M  V30 13080 H 1227.43 0.640692 1.84068 0
M  V30 13081 H 1226.52 -0.202856 3.1144 0
M  V30 13082 N 1226.82 -1.56058 0.219941 0
M  V30 13083 C 1228.05 -2.031 -0.42014 0
M  V30 13084 C 1228.47 -1.09875 -1.52673 0
M  V30 13085 O 1227.83 -0.0866458 -1.81093 0
M  V30 13086 C 1227.88 -3.48389 -0.93047 0
M  V30 13087 O 1226.98 -3.583 -2.04192 0
M  V30 13088 H 1226.32 -0.657129 -0.0952772 0
M  V30 13089 H 1228.85 -2.01787 0.338105 0
M  V30 13090 H 1228.86 -3.88678 -1.2407 0
M  V30 13091 H 1227.54 -4.15725 -0.120539 0
M  V30 13092 H 1226.12 -3.29898 -1.73845 0
M  V30 13093 N 1228.3 0.053464 -1.57509 0
M  V30 13094 C 1229.72 0.408651 -1.5428 0
M  V30 13095 C 1229.92 1.78086 -0.942735 0
M  V30 13096 O 1228.97 2.46366 -0.553163 0
M  V30 13097 C 1230.29 0.332884 -2.98852 0
M  V30 13098 C 1231.83 0.411745 -3.1028 0
M  V30 13099 C 1232.31 0.365691 -4.56538 0
M  V30 13100 N 1233.8 0.425222 -4.61244 0
M  V30 13101 C 1234.54 0.412093 -5.71917 0
M  V30 13102 N 1234.03 0.352693 -6.91902 0
M  V30 13103 N 1235.82 0.460016 -5.60214 0
M  V30 13104 H 1227.98 -0.844834 -1.94875 0
M  V30 13105 H 1230.24 -0.318888 -0.892757 0
M  V30 13106 H 1229.94 -0.609116 -3.46385 0
M  V30 13107 H 1229.82 1.13605 -3.59686 0
M  V30 13108 H 1232.21 1.34417 -2.62709 0
M  V30 13109 H 1232.29 -0.420333 -2.52323 0
M  V30 13110 H 1231.93 -0.562963 -5.0477 0
M  V30 13111 H 1231.86 1.21555 -5.12379 0
M  V30 13112 H 1234.35 0.474634 -3.74908 0
M  V30 13113 H 1234.66 0.347105 -7.7202 0
M  V30 13114 H 1233.01 0.319104 -6.94267 0
M  V30 13115 H 1236.2 0.504242 -4.65376 0
M  V30 13116 H 1236.37 0.446315 -6.46461 0
M  V30 13117 N 1229.78 1.54207 0.325255 0
M  V30 13118 C 1230.71 1.86467 1.40543 0
M  V30 13119 C 1231.69 0.721324 1.54048 0
M  V30 13120 O 1232.88 0.974905 1.67956 0
M  V30 13121 C 1230.01 2.09052 2.77335 0
M  V30 13122 C 1228.96 3.24893 2.78619 0
M  V30 13123 C 1228.29 3.32846 4.1847 0
M  V30 13124 C 1229.59 4.62582 2.42518 0
M  V30 13125 H 1231.28 2.76932 1.13794 0
M  V30 13126 H 1228.83 1.33248 0.545971 0
M  V30 13127 H 1230.78 2.30204 3.52964 0
M  V30 13128 H 1229.5 1.15335 3.05558 0
M  V30 13129 H 1228.16 3.03625 2.05444 0
M  V30 13130 H 1227.81 2.3669 4.43832 0
M  V30 13131 H 1227.51 4.10701 4.20237 0
M  V30 13132 H 1229.03 3.56231 4.95915 0
M  V30 13133 H 1230.45 4.83627 3.07861 0
M  V30 13134 H 1228.84 5.42974 2.55538 0
M  V30 13135 H 1229.91 4.64946 1.3767 0
M  V30 13136 N 1231.26 -0.58723 1.46251 0
M  V30 13137 C 1232.22 -1.67863 1.5606 0
M  V30 13138 C 1233.22 -1.54715 0.438162 0
M  V30 13139 O 1234.41 -1.59415 0.702323 0
M  V30 13140 C 1231.54 -3.07262 1.47659 0
M  V30 13141 H 1232.74 -1.60525 2.53321 0
M  V30 13142 H 1230.29 -0.804691 1.33994 0
M  V30 13143 H 1231.02 -3.20159 0.5166 0
M  V30 13144 H 1230.81 -3.18213 2.29092 0
M  V30 13145 H 1232.3 -3.8672 1.57599 0
M  V30 13146 N 1232.74 -1.33881 -0.831482 0
M  V30 13147 C 1233.98 -1.25942 -1.58955 0
M  V30 13148 C 1234.31 0.172542 -1.93432 0
M  V30 13149 O 1233.59 1.11577 -1.59314 0
M  V30 13150 C 1233.87 -2.14193 -2.89471 0
M  V30 13151 C 1233.73 -3.65883 -2.61628 0
M  V30 13152 C 1235.04 -2.02071 -3.90967 0
M  V30 13153 H 1232.16 -0.458841 -0.576744 0
M  V30 13154 H 1234.81 -1.64052 -0.958482 0
M  V30 13155 H 1232.96 -1.81821 -3.43327 0
M  V30 13156 H 1234.63 -4.08581 -2.14148 0
M  V30 13157 H 1232.87 -3.87397 -1.95208 0
M  V30 13158 H 1233.54 -4.22988 -3.54662 0
M  V30 13159 H 1236.02 -2.30476 -3.46439 0
M  V30 13160 H 1234.89 -2.66059 -4.80108 0
M  V30 13161 H 1235.15 -0.995121 -4.30755 0
M  V30 13162 N 1234.21 1.05064 -1.1747 0
M  V30 13163 C 1235.46 1.77481 -0.958301 0
M  V30 13164 C 1235.78 1.88725 0.51401 0
M  V30 13165 O 1236.98 2.57895 0.848657 0
M  V30 13166 C 1235.44 3.19048 -1.66543 0
M  V30 13167 C 1235.05 3.1593 -3.17636 0
M  V30 13168 C 1236.79 3.95912 -1.53146 0
M  V30 13169 C 1234.7 4.52293 -3.81032 0
M  V30 13170 H 1233.63 0.665247 -0.354913 0
M  V30 13171 H 1236.28 1.17751 -1.40737 0
M  V30 13172 H 1234.66 3.79113 -1.1441 0
M  V30 13173 H 1235.83 2.65375 -3.76713 0
M  V30 13174 H 1234.15 2.52564 -3.31059 0
M  V30 13175 H 1236.75 4.96737 -1.9788 0
M  V30 13176 H 1237.09 4.13498 -0.482203 0
M  V30 13177 H 1237.62 3.42399 -2.02504 0
M  V30 13178 H 1234.36 4.39913 -4.8596 0
M  V30 13179 H 1233.88 5.02991 -3.26741 0
M  V30 13180 H 1235.56 5.2123 -3.83312 0
M  V30 13181 N 1235.69 0.975146 1.23809 0
M  V30 13182 C 1236.92 0.658978 1.96125 0
M  V30 13183 C 1237.33 -0.773044 1.72248 0
M  V30 13184 O 1236.69 -1.51956 1.01072 0
M  V30 13185 C 1236.74 0.933355 3.49243 0
M  V30 13186 O 1236.46 2.30909 3.72307 0
M  V30 13187 C 1237.96 0.632408 4.38766 0
M  V30 13188 H 1235.18 0.245237 0.62458 0
M  V30 13189 H 1237.73 1.3051 1.5744 0
M  V30 13190 H 1235.88 0.333323 3.85963 0
M  V30 13191 H 1236.3 2.39476 4.66638 0
M  V30 13192 H 1237.77 0.874791 5.45024 0
M  V30 13193 H 1238.25 -0.433453 4.37056 0
M  V30 13194 H 1238.85 1.21268 4.07645 0
M  V30 13195 N 1237.17 -1.38817 0.746158 0
M  V30 13196 C 1238.1 -2.29081 0.0737986 0
M  V30 13197 C 1239.11 -1.47377 -0.691656 0
M  V30 13198 O 1240.3 -1.70326 -0.533973 0
M  V30 13199 C 1237.4 -3.26185 -0.919607 0
M  V30 13200 C 1236.58 -4.36879 -0.213349 0
M  V30 13201 C 1235.64 -5.1422 -1.11644 0
M  V30 13202 O 1234.66 -5.66137 -0.589747 0
M  V30 13203 N 1235.86 -5.26488 -2.44521 0
M  V30 13204 H 1238.63 -2.87424 0.848966 0
M  V30 13205 H 1236.19 -1.50518 0.596314 0
M  V30 13206 H 1238.18 -3.74802 -1.52662 0
M  V30 13207 H 1236.75 -2.68793 -1.5959 0
M  V30 13208 H 1235.97 -3.89994 0.574285 0
M  V30 13209 H 1237.26 -5.08053 0.275655 0
M  V30 13210 H 1236.66 -4.85846 -2.89777 0
M  V30 13211 H 1235.21 -5.78505 -3.00291 0
M  V30 13212 N 1238.65 -0.49465 -1.49636 0
M  V30 13213 C 1239.6 0.300929 -2.30645 0
M  V30 13214 C 1240.59 0.968687 -1.38971 0
M  V30 13215 O 1241.8 0.897101 -1.56052 0
M  V30 13216 H 1238.17 0.1159 -0.743015 0
M  V30 13217 H 1240.14 -0.402387 -2.95674 0
M  V30 13218 C 1238.89 1.35638 -3.20153 0
M  V30 13219 H 1238.21 0.851946 -3.90617 0
M  V30 13220 H 1239.65 1.88515 -3.79787 0
M  V30 13221 C 1238.11 2.37112 -2.39331 0
M  V30 13222 O 1238.64 3.42867 -2.09298 0
M  V30 13223 N 1236.85 2.09421 -2.01473 0
M  V30 13224 H 1236.4 1.23441 -2.26097 0
M  V30 13225 H 1236.35 2.77545 -1.47703 0
M  V30 13226 N 1240.13 1.55939 -0.228214 0
M  V30 13227 C 1241.37 1.97652 0.402067 0
M  V30 13228 C 1241.69 1.11911 1.60422 0
M  V30 13229 O 1242.89 1.43552 2.30445 0
M  V30 13230 C 1241.35 3.51638 0.766724 0
M  V30 13231 C 1240.96 4.46092 -0.412991 0
M  V30 13232 C 1242.7 4.02049 1.36224 0
M  V30 13233 C 1240.61 5.91394 -0.0255281 0
M  V30 13234 H 1239.54 0.738107 0.153994 0
M  V30 13235 H 1242.19 1.8059 -0.32548 0
M  V30 13236 H 1240.57 3.64325 1.55188 0
M  V30 13237 H 1241.75 4.45156 -1.19049 0
M  V30 13238 H 1240.06 4.0606 -0.92218 0
M  V30 13239 H 1242.66 5.08111 1.66514 0
M  V30 13240 H 1243 3.48292 2.28032 0
M  V30 13241 H 1243.53 3.92612 0.640378 0
M  V30 13242 H 1240.27 6.49149 -0.910269 0
M  V30 13243 H 1239.79 5.95509 0.716149 0
M  V30 13244 H 1241.47 6.4577 0.398839 0
M  V30 13245 N 1241.6 -0.0451101 1.57535 0
M  V30 13246 C 1242.57 -1.03521 2.0449 0
M  V30 13247 C 1243.57 -1.30009 0.946265 0
M  V30 13248 O 1244.76 -1.25282 1.21038 0
M  V30 13249 C 1241.89 -2.37221 2.44824 0
M  V30 13250 H 1243.08 -0.629943 2.93209 0
M  V30 13251 H 1240.64 -0.291544 1.53557 0
M  V30 13252 H 1241.37 -2.82528 1.59212 0
M  V30 13253 H 1241.16 -2.19329 3.25018 0
M  V30 13254 H 1242.65 -3.08337 2.81635 0
M  V30 13255 N 1243.08 -1.54377 -0.317073 0
M  V30 13256 C 1244.03 -1.84948 -1.41057 0
M  V30 13257 C 1245.02 -0.721887 -1.53249 0
M  V30 13258 O 1246.23 -0.905648 -1.55557 0
M  V30 13259 H 1242.61 -0.586353 -0.470844 0
M  V30 13260 H 1244.58 -2.7638 -1.12501 0
M  V30 13261 C 1243.33 -2.09932 -2.77171 0
M  V30 13262 H 1242.65 -2.96162 -2.68566 0
M  V30 13263 H 1244.09 -2.35272 -3.52737 0
M  V30 13264 C 1242.55 -0.892855 -3.24853 0
M  V30 13265 O 1243.08 -0.105336 -4.01562 0
M  V30 13266 N 1241.28 -0.702685 -2.81976 0
M  V30 13267 H 1240.83 -1.34474 -2.19715 0
M  V30 13268 H 1240.79 0.103024 -3.14231 0
M  V30 13269 N 1244.56 0.579466 -1.4656 0
M  V30 13270 C 1245.49 1.69846 -1.60233 0
M  V30 13271 C 1246.47 1.6397 -0.452533 0
M  V30 13272 O 1247.66 1.81936 -0.679174 0
M  V30 13273 C 1244.79 3.08488 -1.59538 0
M  V30 13274 C 1243.74 3.29197 -2.7352 0
M  V30 13275 C 1243.07 4.684 -2.57887 0
M  V30 13276 C 1244.37 3.16718 -4.15315 0
M  V30 13277 H 1246.06 1.5866 -2.53904 0
M  V30 13278 H 1243.61 0.761873 -1.22194 0
M  V30 13279 H 1245.56 3.86595 -1.67696 0
M  V30 13280 H 1244.28 3.20581 -0.62413 0
M  V30 13281 H 1242.94 2.53491 -2.64836 0
M  V30 13282 H 1242.59 4.77262 -1.58839 0
M  V30 13283 H 1242.29 4.83208 -3.34341 0
M  V30 13284 H 1243.81 5.48671 -2.67942 0
M  V30 13285 H 1245.23 3.84666 -4.25094 0
M  V30 13286 H 1243.63 3.43047 -4.92381 0
M  V30 13287 H 1244.7 2.13755 -4.35244 0
M  V30 13288 N 1246.04 1.3432 0.824371 0
M  V30 13289 C 1247.29 1.26345 1.57738 0
M  V30 13290 C 1247.61 -0.166836 1.94285 0
M  V30 13291 O 1246.88 -1.09911 1.62162 0
M  V30 13292 H 1245.46 0.46466 0.584893 0
M  V30 13293 H 1248.12 1.68214 0.984373 0
M  V30 13294 H 1247.22 1.8672 2.50084 0
M  V30 13295 N 1247.52 -1.0444 1.18026 0
M  V30 13296 C 1248.74 -1.81234 0.998089 0
M  V30 13297 C 1249.16 -1.83271 -0.453559 0
M  V30 13298 O 1248.52 -1.26545 -1.31502 0
M  V30 13299 C 1248.57 -3.27007 1.54106 0
M  V30 13300 O 1248.29 -3.25174 2.93587 0
M  V30 13301 C 1249.79 -4.20461 1.40455 0
M  V30 13302 H 1247.01 -0.57085 0.352663 0
M  V30 13303 H 1249.55 -1.31649 1.56489 0
M  V30 13304 H 1247.71 -3.73837 1.01611 0
M  V30 13305 H 1248.12 -4.16466 3.18836 0
M  V30 13306 H 1249.6 -5.20695 1.83249 0
M  V30 13307 H 1250.07 -4.37781 0.352713 0
M  V30 13308 H 1250.68 -3.79493 1.92004 0
M  V30 13309 N 1248.99 -0.981699 -1.2329 0
M  V30 13310 C 1250.24 -0.650015 -1.91361 0
M  V30 13311 C 1250.56 0.819184 -1.76959 0
M  V30 13312 O 1249.83 1.5861 -1.14977 0
M  V30 13313 H 1248.41 -0.237427 -0.708264 0
M  V30 13314 H 1251.08 -1.24579 -1.49887 0
M  V30 13315 H 1250.17 -0.902772 -2.98758 0
M  V30 13316 N 1250.47 1.3842 -0.753509 0
M  V30 13317 C 1251.72 1.99359 -0.306416 0
M  V30 13318 C 1252.03 1.60492 1.11811 0
M  V30 13319 O 1253.24 2.14401 1.66567 0
M  V30 13320 C 1251.7 3.56453 -0.496895 0
M  V30 13321 C 1251.3 4.04272 -1.9305 0
M  V30 13322 C 1253.05 4.24351 -0.11251 0
M  V30 13323 C 1250.96 5.54007 -2.06955 0
M  V30 13324 H 1249.89 0.745812 -0.110818 0
M  V30 13325 H 1252.54 1.58185 -0.930039 0
M  V30 13326 H 1250.92 3.95515 0.195912 0
M  V30 13327 H 1252.09 3.765 -2.65677 0
M  V30 13328 H 1250.41 3.49098 -2.26979 0
M  V30 13329 H 1253 5.34344 -0.195161 0
M  V30 13330 H 1253.35 4.05668 0.934849 0
M  V30 13331 H 1253.88 3.90528 -0.757168 0
M  V30 13332 H 1250.62 5.77594 -3.09944 0
M  V30 13333 H 1250.14 5.83522 -1.38788 0
M  V30 13334 H 1251.82 6.19704 -1.85945 0
M  V30 13335 N 1251.95 0.502579 1.49372 0
M  V30 13336 C 1253.2 -0.0432341 2.01654 0
M  V30 13337 C 1253.51 -1.379 1.38719 0
M  V30 13338 O 1254.72 -2.01159 1.82338 0
M  V30 13339 C 1253.17 -0.127509 3.59674 0
M  V30 13340 C 1252.78 1.20171 4.31582 0
M  V30 13341 C 1254.53 -0.623603 4.19895 0
M  V30 13342 C 1252.43 1.07951 5.81464 0
M  V30 13343 H 1251.36 -0.0199308 0.753737 0
M  V30 13344 H 1254.01 0.642237 1.71894 0
M  V30 13345 H 1252.4 -0.877465 3.86156 0
M  V30 13346 H 1253.57 1.96508 4.16799 0
M  V30 13347 H 1251.89 1.63136 3.83113 0
M  V30 13348 H 1254.48 -0.732562 5.29658 0
M  V30 13349 H 1254.83 -1.62282 3.83367 0
M  V30 13350 H 1255.36 0.0698641 3.97739 0
M  V30 13351 H 1252.1 2.05304 6.22519 0
M  V30 13352 H 1251.62 0.357051 5.98736 0
M  V30 13353 H 1253.3 0.758885 6.42534 0
M  V30 13354 N 1253.43 -1.55816 0.23648 0
M  V30 13355 C 1254.68 -1.97862 -0.391579 0
M  V30 13356 C 1254.99 -1.1276 -1.59827 0
M  V30 13357 O 1256.2 -1.44772 -2.29681 0
M  V30 13358 C 1254.65 -3.5204 -0.748065 0
M  V30 13359 C 1254.26 -4.45867 0.436643 0
M  V30 13360 C 1256 -4.02766 -1.3409 0
M  V30 13361 C 1253.91 -5.91373 0.0568909 0
M  V30 13362 H 1252.84 -0.738913 -0.150078 0
M  V30 13363 H 1255.49 -1.80415 0.335052 0
M  V30 13364 H 1253.87 -3.65143 -1.53254 0
M  V30 13365 H 1255.05 -4.44519 1.21408 0
M  V30 13366 H 1253.36 -4.05565 0.943702 0
M  V30 13367 H 1255.96 -5.08987 -1.63817 0
M  V30 13368 H 1256.3 -3.49496 -2.26182 0
M  V30 13369 H 1256.84 -3.92946 -0.619548 0
M  V30 13370 H 1253.58 -6.48657 0.944682 0
M  V30 13371 H 1253.1 -5.95881 -0.684557 0
M  V30 13372 H 1254.77 -6.45972 -0.364586 0
M  V30 13373 N 1254.91 0.036755 -1.57557 0
M  V30 13374 C 1256.13 0.744813 -1.93565 0
M  V30 13375 C 1256.56 1.68508 -0.835863 0
M  V30 13376 O 1255.91 1.80091 0.208986 0
M  V30 13377 C 1255.96 1.48461 -3.28621 0
M  V30 13378 O 1255.07 2.59739 -3.20327 0
M  V30 13379 H 1254.41 0.200866 -0.632889 0
M  V30 13380 H 1256.94 -0.00547543 -2.04599 0
M  V30 13381 H 1256.95 1.85622 -3.63329 0
M  V30 13382 H 1255.62 0.794953 -4.08232 0
M  V30 13383 H 1254.2 2.25176 -2.97237 0
M  V30 13384 N 1256.39 1.54543 0.308881 0
M  V30 13385 C 1257.63 1.73449 1.04506 0
M  V30 13386 C 1257.96 0.516034 1.8753 0
M  V30 13387 O 1257.22 -0.502106 1.89149 0
M  V30 13388 C 1257.51 2.97124 1.98626 0
M  V30 13389 C 1257.18 4.31256 1.31641 0
M  V30 13390 C 1255.84 4.67719 1.13105 0
M  V30 13391 C 1258.19 5.14437 0.836888 0
M  V30 13392 C 1255.52 5.84949 0.452878 0
M  V30 13393 C 1257.87 6.32365 0.172473 0
M  V30 13394 C 1256.54 6.67495 -0.0249143 0
M  V30 13395 H 1255.81 0.634697 0.382415 0
M  V30 13396 H 1258.46 1.88795 0.320714 0
M  V30 13397 H 1256.76 2.76526 2.77562 0
M  V30 13398 H 1258.46 3.08946 2.55643 0
M  V30 13399 H 1255.05 4.02576 1.47074 0
M  V30 13400 H 1259.23 4.86772 0.967834 0
M  V30 13401 H 1254.49 6.10717 0.288886 0
M  V30 13402 H 1258.66 6.96092 -0.207027 0
M  V30 13403 H 1256.29 7.5819 -0.552425 0
M  V30 13404 N 1257.86 -0.571685 1.46866 0
M  V30 13405 C 1259.11 -1.32574 1.5201 0
M  V30 13406 C 1259.43 -1.94762 0.180838 0
M  V30 13407 O 1260.63 -2.71276 0.110158 0
M  V30 13408 C 1259.09 -2.40331 2.67897 0
M  V30 13409 C 1258.7 -1.84398 4.08291 0
M  V30 13410 C 1260.44 -3.17009 2.82321 0
M  V30 13411 C 1258.35 -2.89849 5.15501 0
M  V30 13412 H 1257.28 -0.498428 0.565761 0
M  V30 13413 H 1259.93 -0.608853 1.73105 0
M  V30 13414 H 1258.31 -3.14869 2.40153 0
M  V30 13415 H 1259.48 -1.16329 4.45875 0
M  V30 13416 H 1257.8 -1.20351 3.98628 0
M  V30 13417 H 1260.4 -3.95729 3.59587 0
M  V30 13418 H 1260.74 -3.70292 1.90236 0
M  V30 13419 H 1261.27 -2.4958 3.09765 0
M  V30 13420 H 1258.01 -2.4144 6.09415 0
M  V30 13421 H 1257.53 -3.56372 4.82451 0
M  V30 13422 H 1259.21 -3.53603 5.41825 0
M  V30 13423 N 1259.34 -1.34755 -0.817236 0
M  V30 13424 C 1260.57 -1.30333 -1.60303 0
M  V30 13425 C 1260.98 0.12357 -1.88796 0
M  V30 13426 O 1260.32 1.08279 -1.48396 0
M  V30 13427 C 1260.38 -2.03179 -2.96578 0
M  V30 13428 C 1260.05 -3.52414 -2.90952 0
M  V30 13429 C 1261.05 -4.47213 -2.65136 0
M  V30 13430 C 1258.73 -3.9491 -3.10405 0
M  V30 13431 C 1260.72 -5.82481 -2.58832 0
M  V30 13432 C 1258.41 -5.30277 -3.03726 0
M  V30 13433 C 1259.41 -6.23875 -2.77973 0
M  V30 13434 O 1259.1 -7.5676 -2.71237 0
M  V30 13435 H 1258.83 -0.449615 -0.5048 0
M  V30 13436 H 1261.38 -1.7803 -1.02443 0
M  V30 13437 H 1259.61 -1.50104 -3.56379 0
M  V30 13438 H 1261.3 -1.91972 -3.57633 0
M  V30 13439 H 1262.07 -4.157 -2.49836 0
M  V30 13440 H 1257.95 -3.22451 -3.29464 0
M  V30 13441 H 1261.49 -6.55508 -2.38652 0
M  V30 13442 H 1257.39 -5.61406 -3.1858 0
M  V30 13443 H 1258.16 -7.66562 -2.86923 0
M  V30 13444 N 1260.82 1.03812 -1.18578 0
M  V30 13445 C 1262.07 1.76706 -0.980776 0
M  V30 13446 C 1262.39 1.88729 0.490562 0
M  V30 13447 O 1261.66 1.41413 1.35569 0
M  V30 13448 H 1260.24 0.654586 -0.359898 0
M  V30 13449 H 1262.9 1.25274 -1.49306 0
M  V30 13450 H 1262 2.77876 -1.42096 0
M  V30 13451 N 1262.3 0.988223 1.22768 0
M  V30 13452 C 1263.54 0.672085 1.91975 0
M  V30 13453 C 1263.9 -0.786719 1.7558 0
M  V30 13454 O 1263.19 -1.561 1.111 0
M  V30 13455 C 1263.39 1.00744 3.42907 0
M  V30 13456 C 1263.21 2.4973 3.73985 0
M  V30 13457 C 1261.98 3.16058 3.94253 0
M  V30 13458 C 1264.18 3.47831 3.78838 0
M  V30 13459 N 1262.16 4.54568 4.12603 0
M  V30 13460 C 1263.54 4.7178 4.02273 0
M  V30 13461 C 1265.59 3.42203 3.61665 0
M  V30 13462 C 1264.29 5.90789 4.10318 0
M  V30 13463 C 1266.32 4.60584 3.70967 0
M  V30 13464 C 1265.68 5.83331 3.94847 0
M  V30 13465 H 1261.78 0.297129 0.723352 0
M  V30 13466 H 1264.36 1.26728 1.47811 0
M  V30 13467 H 1262.54 0.440869 3.8589 0
M  V30 13468 H 1264.27 0.647774 3.99482 0
M  V30 13469 H 1261.02 2.66536 3.91479 0
M  V30 13470 H 1261.45 5.26399 4.25715 0
M  V30 13471 H 1266.09 2.48323 3.42193 0
M  V30 13472 H 1263.81 6.85078 4.28596 0
M  V30 13473 H 1267.39 4.57813 3.59024 0
M  V30 13474 H 1266.27 6.73403 4.01868 0
M  V30 13475 N 1263.78 -1.38018 0.760839 0
M  V30 13476 C 1264.71 -2.2899 0.0980916 0
M  V30 13477 C 1265.72 -1.48102 -0.675985 0
M  V30 13478 O 1266.91 -1.70883 -0.515878 0
M  V30 13479 C 1264.01 -3.27142 -0.884959 0
M  V30 13480 C 1263.18 -4.37081 -0.167 0
M  V30 13481 C 1262.24 -5.15375 -1.06184 0
M  V30 13482 O 1261.27 -5.6673 -0.529667 0
M  V30 13483 N 1262.47 -5.29052 -2.38924 0
M  V30 13484 H 1265.23 -2.86508 0.879403 0
M  V30 13485 H 1262.8 -1.49877 0.612245 0
M  V30 13486 H 1264.79 -3.764 -1.48678 0
M  V30 13487 H 1263.36 -2.70471 -1.5673 0
M  V30 13488 H 1262.58 -3.89363 0.615617 0
M  V30 13489 H 1263.87 -5.07732 0.329525 0
M  V30 13490 H 1263.26 -4.88892 -2.84607 0
M  V30 13491 H 1261.82 -5.81658 -2.94139 0
M  V30 13492 N 1265.25 -0.510493 -1.49103 0
M  V30 13493 C 1266.18 0.251999 -2.32136 0
M  V30 13494 C 1267.16 0.953613 -1.40855 0
M  V30 13495 O 1268.35 0.943178 -1.69758 0
M  V30 13496 C 1265.48 1.31118 -3.21598 0
M  V30 13497 C 1264.43 0.72888 -4.21748 0
M  V30 13498 C 1263.76 1.88928 -5.0021 0
M  V30 13499 C 1265.06 -0.286425 -5.21514 0
M  V30 13500 H 1266.75 -0.441102 -2.96133 0
M  V30 13501 H 1264.3 -0.213577 -1.42407 0
M  V30 13502 H 1266.25 1.8524 -3.78503 0
M  V30 13503 H 1264.98 2.0336 -2.55563 0
M  V30 13504 H 1263.64 0.209336 -3.66002 0
M  V30 13505 H 1263.28 2.59961 -4.30615 0
M  V30 13506 H 1262.98 1.50568 -5.67981 0
M  V30 13507 H 1264.51 2.43465 -5.59962 0
M  V30 13508 H 1265.92 0.166997 -5.73057 0
M  V30 13509 H 1264.32 -0.586361 -5.97228 0
M  V30 13510 H 1265.39 -1.19904 -4.69842 0
M  V30 13511 N 1266.73 1.55688 -0.24474 0
M  V30 13512 C 1267.96 2.0329 0.384808 0
M  V30 13513 C 1268.37 1.12405 1.51692 0
M  V30 13514 O 1267.73 0.138056 1.81977 0
M  V30 13515 C 1267.78 3.50255 0.894635 0
M  V30 13516 O 1267.5 4.37677 -0.192365 0
M  V30 13517 C 1269 4.13608 1.59509 0
M  V30 13518 H 1266.22 0.664706 0.0916908 0
M  V30 13519 H 1268.77 2.01162 -0.367973 0
M  V30 13520 H 1266.92 3.52924 1.5976 0
M  V30 13521 H 1267.34 5.2414 0.194424 0
M  V30 13522 H 1268.81 5.1814 1.90356 0
M  V30 13523 H 1269.29 3.5997 2.51631 0
M  V30 13524 H 1269.89 4.14856 0.936749 0
M  V30 13525 N 1268.21 -0.0283989 1.57574 0
M  V30 13526 C 1269.14 -1.02828 2.09639 0
M  V30 13527 C 1270.12 -1.37668 0.999076 0
M  V30 13528 O 1271.31 -1.4654 1.27435 0
M  V30 13529 C 1268.44 -2.329 2.57633 0
M  V30 13530 C 1267.39 -2.12301 3.71635 0
M  V30 13531 C 1266.72 -3.48138 4.05837 0
M  V30 13532 C 1268.02 -1.50864 5.00037 0
M  V30 13533 H 1269.71 -0.594876 2.93431 0
M  V30 13534 H 1267.26 -0.284701 1.41158 0
M  V30 13535 H 1269.21 -3.03179 2.92678 0
M  V30 13536 H 1267.93 -2.78302 1.70926 0
M  V30 13537 H 1266.59 -1.44454 3.3694 0
M  V30 13538 H 1266.24 -3.9119 3.16195 0
M  V30 13539 H 1265.94 -3.3518 4.82626 0
M  V30 13540 H 1267.46 -4.19779 4.43417 0
M  V30 13541 H 1268.88 -2.11062 5.33035 0
M  V30 13542 H 1267.27 -1.48479 5.81441 0
M  V30 13543 H 1268.34 -0.474541 4.82572 0
M  V30 13544 N 1269.69 -1.54705 -0.300681 0
M  V30 13545 C 1270.62 -1.88679 -1.37559 0
M  V30 13546 C 1271.6 -0.74574 -1.52881 0
M  V30 13547 O 1272.78 -1.0015 -1.66384 0
M  V30 13548 C 1269.91 -2.13438 -2.73974 0
M  V30 13549 C 1268.87 -3.29284 -2.73415 0
M  V30 13550 C 1268.19 -3.39462 -4.13122 0
M  V30 13551 C 1269.49 -4.66382 -2.35128 0
M  V30 13552 H 1271.19 -2.78707 -1.09373 0
M  V30 13553 H 1268.73 -1.341 -0.524704 0
M  V30 13554 H 1270.69 -2.35791 -3.49257 0
M  V30 13555 H 1269.41 -1.20181 -3.03684 0
M  V30 13556 H 1268.07 -3.06855 -2.00588 0
M  V30 13557 H 1267.72 -2.43721 -4.4001 0
M  V30 13558 H 1267.42 -4.17334 -4.1365 0
M  V30 13559 H 1268.94 -3.64075 -4.90185 0
M  V30 13560 H 1270.36 -4.88463 -3.00128 0
M  V30 13561 H 1268.75 -5.4697 -2.46867 0
M  V30 13562 H 1269.82 -4.67078 -1.30256 0
M  V30 13563 N 1271.17 0.563888 -1.47167 0
M  V30 13564 C 1272.1 1.68137 -1.62025 0
M  V30 13565 C 1273.08 1.63481 -0.469899 0
M  V30 13566 O 1274.26 1.81206 -0.698432 0
M  V30 13567 C 1271.39 3.06779 -1.62801 0
M  V30 13568 C 1270.35 3.26278 -2.76996 0
M  V30 13569 C 1269.67 4.65638 -2.62841 0
M  V30 13570 C 1270.97 3.12295 -4.18651 0
M  V30 13571 H 1272.67 1.55958 -2.55573 0
M  V30 13572 H 1270.21 0.74887 -1.22996 0
M  V30 13573 H 1272.17 3.84795 -1.71787 0
M  V30 13574 H 1270.89 3.19901 -0.658097 0
M  V30 13575 H 1269.55 2.50668 -2.67509 0
M  V30 13576 H 1269.2 4.75551 -1.63892 0
M  V30 13577 H 1268.9 4.79635 -3.39447 0
M  V30 13578 H 1270.42 5.45798 -2.73746 0
M  V30 13579 H 1271.83 3.80136 -4.2915 0
M  V30 13580 H 1270.23 3.37805 -4.95992 0
M  V30 13581 H 1271.3 2.09126 -4.37486 0
M  V30 13582 N 1272.64 1.35187 0.810078 0
M  V30 13583 C 1273.57 1.30481 1.93641 0
M  V30 13584 C 1274.56 0.179875 1.69146 0
M  V30 13585 O 1275.74 0.374284 1.90559 0
M  V30 13586 C 1272.87 1.07251 3.30325 0
M  V30 13587 C 1271.82 2.16348 3.69293 0
M  V30 13588 C 1271.15 1.78288 5.04101 0
M  V30 13589 C 1272.45 3.58285 3.80038 0
M  V30 13590 H 1274.14 2.24725 1.97836 0
M  V30 13591 H 1271.69 1.08179 0.950436 0
M  V30 13592 H 1273.64 1.02599 4.08719 0
M  V30 13593 H 1272.37 0.0945203 3.26463 0
M  V30 13594 H 1271.03 2.2009 2.93182 0
M  V30 13595 H 1270.67 0.791163 4.96739 0
M  V30 13596 H 1270.37 2.51315 5.31144 0
M  V30 13597 H 1271.9 1.75155 5.84938 0
M  V30 13598 H 1273.31 3.56884 4.48672 0
M  V30 13599 H 1271.71 4.30044 4.18548 0
M  V30 13600 H 1272.78 3.94691 2.81685 0
M  V30 13601 N 1274.12 -1.03182 1.19127 0
M  V30 13602 C 1275.09 -2.09559 0.928307 0
M  V30 13603 C 1276.09 -1.60548 -0.0899992 0
M  V30 13604 O 1277.28 -1.736 0.144422 0
M  V30 13605 C 1274.41 -3.38609 0.394561 0
M  V30 13606 H 1275.6 -2.34321 1.87173 0
M  V30 13607 H 1273.15 -1.19746 1.00452 0
M  V30 13608 H 1273.89 -3.19515 -0.555046 0
M  V30 13609 H 1273.67 -3.75502 1.12873 0
M  V30 13610 H 1275.16 -4.16969 0.229569 0
M  V30 13611 N 1275.6 -0.99472 -1.22242 0
M  V30 13612 C 1276.85 -0.667045 -1.90351 0
M  V30 13613 C 1277.16 0.804615 -1.78284 0
M  V30 13614 O 1278.37 1.24395 -2.41326 0
M  V30 13615 C 1276.82 -1.14256 -3.41282 0
M  V30 13616 C 1276.43 -2.63958 -3.61981 0
M  V30 13617 C 1278.18 -0.889302 -4.1508 0
M  V30 13618 C 1276.08 -3.05103 -5.06622 0
M  V30 13619 H 1275.01 -0.245795 -0.712812 0
M  V30 13620 H 1277.66 -1.20452 -1.38432 0
M  V30 13621 H 1276.05 -0.533203 -3.92394 0
M  V30 13622 H 1277.22 -3.30255 -3.21354 0
M  V30 13623 H 1275.54 -2.87186 -3.01518 0
M  V30 13624 H 1278.13 -1.17239 -5.21689 0
M  V30 13625 H 1278.48 0.174556 -4.15934 0
M  V30 13626 H 1279.01 -1.46095 -3.70002 0
M  V30 13627 H 1275.75 -4.10672 -5.1091 0
M  V30 13628 H 1275.27 -2.4351 -5.48145 0
M  V30 13629 H 1276.95 -2.96506 -5.75059 0
M  V30 13630 N 1277.08 1.37613 -0.768148 0
M  V30 13631 C 1278.32 2.00075 -0.331331 0
M  V30 13632 C 1278.66 1.60839 1.08833 0
M  V30 13633 O 1277.93 0.852849 1.74805 0
M  V30 13634 C 1278.22 3.57009 -0.470789 0
M  V30 13635 C 1278.07 4.06166 -1.9326 0
M  V30 13636 C 1279.39 4.39916 0.127111 0
M  V30 13637 H 1276.51 0.726855 -0.121864 0
M  V30 13638 H 1279.15 1.63343 -0.970518 0
M  V30 13639 H 1277.3 3.88431 0.0733688 0
M  V30 13640 H 1278.97 3.85325 -2.53618 0
M  V30 13641 H 1277.21 3.58492 -2.44266 0
M  V30 13642 H 1277.88 5.15219 -1.98125 0
M  V30 13643 H 1280.36 4.14732 -0.337144 0
M  V30 13644 H 1279.24 5.489 -0.000624226 0
M  V30 13645 H 1279.5 4.25018 1.21704 0
M  V30 13646 N 1278.56 0.518393 1.4883 0
M  V30 13647 C 1279.97 0.0749773 1.86549 0
M  V30 13648 C 1280.32 -1.34429 1.4291 0
M  V30 13649 O 1279.44 -2.00481 0.814648 0
M  V30 13650 C 1280.04 0.129289 3.38553 0
M  V30 13651 C 1278.6 -0.258871 3.75509 0
M  V30 13652 C 1277.74 0.494185 2.72861 0
M  V30 13653 H 1280.7 0.730266 1.409 0
M  V30 13654 H 1280.72 -0.661844 3.747 0
M  V30 13655 H 1280.23 1.16237 3.70285 0
M  V30 13656 H 1278.33 -1.29453 3.49389 0
M  V30 13657 H 1278.44 0.0726769 4.79045 0
M  V30 13658 H 1276.81 -0.0581428 2.54634 0
M  V30 13659 H 1277.59 1.52767 3.07436 0
M  V30 13660 N 1280.03 -1.55556 0.252993 0
M  V30 13661 C 1281.28 -1.98267 -0.370571 0
M  V30 13662 C 1281.6 -1.14449 -1.58622 0
M  V30 13663 O 1282.8 -1.472 -2.28132 0
M  V30 13664 C 1281.26 -3.52813 -0.710685 0
M  V30 13665 C 1280.87 -4.45379 0.483908 0
M  V30 13666 C 1282.61 -4.04165 -1.2981 0
M  V30 13667 C 1280.52 -5.91279 0.119611 0
M  V30 13668 H 1279.45 -0.740463 -0.142232 0
M  V30 13669 H 1282.1 -1.8005 0.354169 0
M  V30 13670 H 1280.48 -3.66748 -1.49372 0
M  V30 13671 H 1281.65 -4.43206 1.26116 0
M  V30 13672 H 1279.97 -4.04542 0.986664 0
M  V30 13673 H 1282.57 -5.10696 -1.5841 0
M  V30 13674 H 1282.91 -3.51875 -2.22462 0
M  V30 13675 H 1283.44 -3.93581 -0.577836 0
M  V30 13676 H 1280.18 -6.47619 1.01343 0
M  V30 13677 H 1279.7 -5.96573 -0.621318 0
M  V30 13678 H 1281.38 -6.46322 -0.296052 0
M  V30 13679 N 1281.51 0.0200419 -1.57587 0
M  V30 13680 C 1282.76 0.708115 -1.88861 0
M  V30 13681 C 1283.07 1.76036 -0.852693 0
M  V30 13682 O 1284.28 2.50165 -1.05497 0
M  V30 13683 C 1282.74 1.31057 -3.3519 0
M  V30 13684 C 1282.34 0.294202 -4.47033 0
M  V30 13685 C 1284.09 1.97799 -3.756 0
M  V30 13686 C 1282 0.905508 -5.84427 0
M  V30 13687 H 1280.93 0.268236 -0.704674 0
M  V30 13688 H 1283.58 -0.0372162 -1.83462 0
M  V30 13689 H 1281.96 2.1059 -3.35362 0
M  V30 13690 H 1283.13 -0.475081 -4.58344 0
M  V30 13691 H 1281.45 -0.271644 -4.15513 0
M  V30 13692 H 1284.04 2.44404 -4.75574 0
M  V30 13693 H 1284.39 2.80004 -3.08064 0
M  V30 13694 H 1284.92 1.25028 -3.77641 0
M  V30 13695 H 1281.66 0.122685 -6.55385 0
M  V30 13696 H 1281.18 1.64442 -5.76818 0
M  V30 13697 H 1282.86 1.41016 -6.31446 0
M  V30 13698 N 1282.99 1.54862 0.292472 0
M  V30 13699 C 1283.95 1.8565 1.34413 0
M  V30 13700 C 1284.95 0.729868 1.43281 0
M  V30 13701 O 1286.14 0.998128 1.42769 0
M  V30 13702 C 1283.28 2.0444 2.72795 0
M  V30 13703 H 1284.47 2.79642 1.08354 0
M  V30 13704 H 1282.02 1.47055 0.529574 0
M  V30 13705 H 1282.76 1.12765 3.04063 0
M  V30 13706 H 1282.54 2.86451 2.67747 0
M  V30 13707 H 1284.03 2.296 3.48817 0
M  V30 13708 N 1284.47 -0.556076 1.47464 0
M  V30 13709 C 1285.72 -1.30955 1.53407 0
M  V30 13710 C 1286.03 -1.94559 0.201485 0
M  V30 13711 O 1287.24 -2.71144 0.138925 0
M  V30 13712 C 1285.69 -2.37476 2.70431 0
M  V30 13713 C 1285.3 -1.80057 4.10224 0
M  V30 13714 C 1287.04 -3.13997 2.85668 0
M  V30 13715 C 1284.95 -2.84365 5.18547 0
M  V30 13716 H 1283.88 -0.4924 0.571015 0
M  V30 13717 H 1286.53 -0.590459 1.73741 0
M  V30 13718 H 1284.91 -3.12304 2.43479 0
M  V30 13719 H 1286.09 -1.11593 4.47083 0
M  V30 13720 H 1284.4 -1.16116 3.99882 0
M  V30 13721 H 1287 -3.91892 3.63764 0
M  V30 13722 H 1287.34 -3.68253 1.94153 0
M  V30 13723 H 1287.88 -2.46281 3.12395 0
M  V30 13724 H 1284.62 -2.34963 6.11942 0
M  V30 13725 H 1284.14 -3.51235 4.86203 0
M  V30 13726 H 1285.81 -3.47836 5.45545 0
M  V30 13727 N 1285.95 -1.35615 -0.802897 0
M  V30 13728 C 1286.91 -1.28705 -1.89651 0
M  V30 13729 C 1287.91 -0.197681 -1.5958 0
M  V30 13730 O 1289.1 -0.451618 -1.68244 0
M  V30 13731 C 1286.23 -0.991941 -3.26149 0
M  V30 13732 H 1287.43 -2.25951 -1.97196 0
M  V30 13733 H 1284.98 -1.20192 -0.999179 0
M  V30 13734 H 1285.71 -0.0235051 -3.24291 0
M  V30 13735 H 1285.5 -1.78013 -3.49362 0
M  V30 13736 H 1286.99 -0.969298 -4.06195 0
M  V30 13737 N 1287.43 1.02549 -1.19673 0
M  V30 13738 C 1288.67 1.75656 -0.999463 0
M  V30 13739 C 1288.99 1.89238 0.470517 0
M  V30 13740 O 1288.26 1.42843 1.34062 0
M  V30 13741 H 1286.84 0.650732 -0.366821 0
M  V30 13742 H 1289.51 1.23684 -1.50627 0
M  V30 13743 H 1288.6 2.76353 -1.45035 0
M  V30 13744 N 1288.9 1.00119 1.21713 0
M  V30 13745 C 1290.15 0.682733 1.90962 0
M  V30 13746 C 1290.48 -0.784131 1.77665 0
M  V30 13747 O 1289.76 -1.56799 1.15084 0
M  V30 13748 C 1290.04 1.09975 3.42896 0
M  V30 13749 C 1289.89 2.62578 3.65202 0
M  V30 13750 C 1291.21 0.659247 4.35134 0
M  V30 13751 H 1288.33 0.249501 0.693483 0
M  V30 13752 H 1290.97 1.24619 1.43423 0
M  V30 13753 H 1289.12 0.620334 3.83515 0
M  V30 13754 H 1290.8 3.18254 3.33934 0
M  V30 13755 H 1289.04 3.04268 3.09198 0
M  V30 13756 H 1289.71 2.86809 4.7164 0
M  V30 13757 H 1292.19 1.07116 4.02076 0
M  V30 13758 H 1291.06 0.979241 5.40095 0
M  V30 13759 H 1291.32 -0.439777 4.39907 0
M  V30 13760 N 1290.38 -1.37203 0.775435 0
M  V30 13761 C 1291.63 -1.99897 0.341936 0
M  V30 13762 C 1291.96 -1.61414 -1.07978 0
M  V30 13763 O 1291.24 -0.862108 -1.7435 0
M  V30 13764 C 1291.52 -3.56755 0.489715 0
M  V30 13765 C 1291.37 -4.05135 1.95411 0
M  V30 13766 C 1292.69 -4.39978 -0.103779 0
M  V30 13767 H 1289.81 -0.726199 0.125717 0
M  V30 13768 H 1292.45 -1.62826 0.979167 0
M  V30 13769 H 1290.6 -3.88464 -0.0527684 0
M  V30 13770 H 1292.27 -3.83975 2.55658 0
M  V30 13771 H 1290.52 -3.57192 2.46164 0
M  V30 13772 H 1291.19 -5.14161 2.00855 0
M  V30 13773 H 1293.66 -4.14547 0.359134 0
M  V30 13774 H 1292.54 -5.48892 0.0297337 0
M  V30 13775 H 1292.8 -4.25658 -1.19448 0
M  V30 13776 N 1291.86 -0.526279 -1.48553 0
M  V30 13777 C 1292.77 0.24244 -2.33344 0
M  V30 13778 C 1293.79 0.942658 -1.46253 0
M  V30 13779 O 1294.96 0.91844 -1.79239 0
M  V30 13780 C 1292.03 1.27801 -3.22285 0
M  V30 13781 C 1291.09 0.588543 -4.25247 0
M  V30 13782 C 1290.32 1.57478 -5.09938 0
M  V30 13783 O 1290.54 2.80707 -4.96548 0
M  V30 13784 O 1289.48 1.11621 -5.9146 0
M  V30 13785 H 1293.3 -0.452262 -3.00314 0
M  V30 13786 H 1290.89 -0.287249 -1.46613 0
M  V30 13787 H 1292.77 1.87656 -3.7731 0
M  V30 13788 H 1291.45 1.95519 -2.57981 0
M  V30 13789 H 1290.35 -0.0504022 -3.74066 0
M  V30 13790 H 1291.69 -0.046627 -4.92178 0
M  V30 13791 N 1293.34 1.5542 -0.261239 0
M  V30 13792 C 1294.27 2.18043 0.673222 0
M  V30 13793 C 1295.25 1.13696 1.16242 0
M  V30 13794 O 1296.43 1.42153 1.23793 0
M  V30 13795 C 1293.56 2.7926 1.91655 0
M  V30 13796 C 1292.61 3.96788 1.56402 0
M  V30 13797 S 1293.44 5.31489 0.654191 0
M  V30 13798 C 1294.59 5.96167 1.9062 0
M  V30 13799 H 1294.83 2.96965 0.141076 0
M  V30 13800 H 1292.36 1.54333 -0.0455871 0
M  V30 13801 H 1294.32 3.15162 2.63026 0
M  V30 13802 H 1292.98 2.00257 2.41983 0
M  V30 13803 H 1292.17 4.38262 2.48882 0
M  V30 13804 H 1291.77 3.62237 0.930618 0
M  V30 13805 H 1294.07 6.14556 2.8518 0
M  V30 13806 H 1295.01 6.91269 1.53471 0
M  V30 13807 H 1295.42 5.25381 2.06483 0
M  V30 13808 N 1294.82 -0.0116844 1.57596 0
M  V30 13809 C 1295.76 -1.00684 2.07681 0
M  V30 13810 C 1296.73 -1.34858 0.969666 0
M  V30 13811 O 1297.92 -1.44896 1.24136 0
M  V30 13812 C 1295.06 -2.29729 2.57524 0
M  V30 13813 C 1294.17 -2.0156 3.82096 0
M  V30 13814 C 1293.31 -3.24601 4.20485 0
M  V30 13815 C 1292.34 -2.92066 5.37925 0
M  V30 13816 N 1291.48 -4.0761 5.71663 0
M  V30 13817 H 1296.32 -0.572787 2.92443 0
M  V30 13818 H 1293.86 -0.271184 1.44579 0
M  V30 13819 H 1295.82 -3.05152 2.84496 0
M  V30 13820 H 1294.45 -2.70824 1.75653 0
M  V30 13821 H 1293.5 -1.16556 3.62103 0
M  V30 13822 H 1294.81 -1.73572 4.67626 0
M  V30 13823 H 1293.96 -4.08379 4.48677 0
M  V30 13824 H 1292.7 -3.55718 3.3364 0
M  V30 13825 H 1291.71 -2.06693 5.09468 0
M  V30 13826 H 1292.93 -2.62209 6.26437 0
M  V30 13827 H 1290.88 -4.38645 4.87777 0
M  V30 13828 H 1290.8 -3.83105 6.51741 0
M  V30 13829 H 1292.06 -4.92211 6.04441 0
M  V30 13830 N 1296.29 -1.55015 -0.284256 0
M  V30 13831 C 1297.23 -1.82031 -1.37623 0
M  V30 13832 C 1298.2 -0.672564 -1.48038 0
M  V30 13833 O 1299.39 -0.914349 -1.64839 0
M  V30 13834 C 1296.52 -1.97193 -2.75377 0
M  V30 13835 C 1295.56 -3.19699 -2.82303 0
M  V30 13836 S 1296.39 -4.77348 -2.42691 0
M  V30 13837 C 1297.55 -4.95468 -3.82442 0
M  V30 13838 H 1297.78 -2.74366 -1.14502 0
M  V30 13839 H 1295.32 -1.46642 -0.483283 0
M  V30 13840 H 1297.27 -2.06614 -3.54713 0
M  V30 13841 H 1295.94 -1.05766 -2.95757 0
M  V30 13842 H 1295.13 -3.27161 -3.83382 0
M  V30 13843 H 1294.73 -3.08811 -2.10978 0
M  V30 13844 H 1297.02 -4.80519 -4.77606 0
M  V30 13845 H 1297.97 -5.97538 -3.7994 0
M  V30 13846 H 1298.37 -4.23516 -3.73222 0
M  V30 13847 N 1297.77 0.548248 -1.47757 0
M  V30 13848 C 1298.7 1.66409 -1.63799 0
M  V30 13849 C 1299.68 1.62973 -0.487211 0
M  V30 13850 O 1300.87 1.80455 -0.717612 0
M  V30 13851 C 1298 3.05035 -1.66046 0
M  V30 13852 C 1296.95 3.23322 -2.80441 0
M  V30 13853 C 1296.28 4.62824 -2.67765 0
M  V30 13854 C 1297.58 3.07837 -4.2194 0
M  V30 13855 H 1299.27 1.53239 -2.57212 0
M  V30 13856 H 1296.82 0.735783 -1.23783 0
M  V30 13857 H 1298.77 3.82951 -1.75859 0
M  V30 13858 H 1297.49 3.19185 -0.69199 0
M  V30 13859 H 1296.15 2.47816 -2.70153 0
M  V30 13860 H 1295.8 4.73786 -1.68927 0
M  V30 13861 H 1295.5 4.76007 -3.44515 0
M  V30 13862 H 1297.03 5.42864 -2.7952 0
M  V30 13863 H 1298.44 3.75563 -4.33157 0
M  V30 13864 H 1296.84 3.32525 -4.99547 0
M  V30 13865 H 1297.91 2.04474 -4.3968 0
M  V30 13866 N 1299.25 1.36039 0.795694 0
M  V30 13867 C 1300.47 1.33222 1.58955 0
M  V30 13868 C 1300.9 -0.0854596 1.87906 0
M  V30 13869 O 1300.26 -1.05555 1.47403 0
M  V30 13870 C 1300.31 2.15508 2.89117 0
M  V30 13871 O 1299.41 1.54327 3.82436 0
M  V30 13872 H 1298.75 0.456264 0.48241 0
M  V30 13873 H 1301.28 1.79234 0.986726 0
M  V30 13874 H 1301.29 2.2786 3.38444 0
M  V30 13875 H 1299.97 3.18568 2.67371 0
M  V30 13876 H 1298.54 1.50879 3.41013 0
M  V30 13877 N 1300.73 -1.01913 1.20215 0
M  V30 13878 C 1301.98 -1.75124 1.00876 0
M  V30 13879 C 1302.3 -1.89485 -0.460475 0
M  V30 13880 O 1301.57 -1.43552 -1.33302 0
M  V30 13881 H 1300.15 -0.648777 0.370266 0
M  V30 13882 H 1302.81 -1.22883 1.5128 0
M  V30 13883 H 1301.91 -2.7558 1.46499 0
M  V30 13884 N 1302.21 -1.00763 -1.2118 0
M  V30 13885 C 1303.14 -0.528468 -2.23024 0
M  V30 13886 C 1304.15 0.384348 -1.58198 0
M  V30 13887 O 1305.34 0.184127 -1.77548 0
M  V30 13888 C 1302.44 0.251693 -3.37964 0
M  V30 13889 C 1301.61 -0.660838 -4.32379 0
M  V30 13890 C 1300.67 0.0701723 -5.26153 0
M  V30 13891 O 1299.7 -0.549355 -5.66543 0
M  V30 13892 N 1300.9 1.34791 -5.64634 0
M  V30 13893 H 1303.67 -1.40428 -2.64764 0
M  V30 13894 H 1301.23 -0.884085 -1.3563 0
M  V30 13895 H 1303.22 0.749746 -3.97694 0
M  V30 13896 H 1301.79 1.02872 -2.95188 0
M  V30 13897 H 1301.01 -1.33934 -3.7075 0
M  V30 13898 H 1302.3 -1.28177 -4.9239 0
M  V30 13899 H 1301.69 1.87232 -5.33817 0
M  V30 13900 H 1300.25 1.79086 -6.26715 0
M  V30 13901 N 1303.68 1.3679 -0.7827 0
M  V30 13902 C 1304.65 2.28472 -0.182525 0
M  V30 13903 C 1305.65 1.48524 0.616217 0
M  V30 13904 O 1306.84 1.68599 0.438197 0
M  V30 13905 C 1303.97 3.32588 0.748202 0
M  V30 13906 H 1305.16 2.83059 -0.99085 0
M  V30 13907 H 1302.72 1.46241 -0.551658 0
M  V30 13908 H 1303.45 2.83145 1.58112 0
M  V30 13909 H 1303.24 3.91698 0.177481 0
M  V30 13910 H 1304.73 4.01073 1.16321 0
M  V30 13911 N 1305.16 0.53415 1.48272 0
M  V30 13912 C 1306.09 -0.215037 2.32508 0
M  V30 13913 C 1307.07 -0.931083 1.42355 0
M  V30 13914 O 1308.26 -0.916051 1.71237 0
M  V30 13915 C 1305.39 -1.25985 3.23643 0
M  V30 13916 C 1304.34 -0.661692 4.22854 0
M  V30 13917 C 1303.67 -1.80946 5.03153 0
M  V30 13918 C 1304.97 0.369358 5.20992 0
M  V30 13919 H 1306.66 0.488158 2.95394 0
M  V30 13920 H 1304.21 0.236206 1.4205 0
M  V30 13921 H 1306.16 -1.79195 3.81402 0
M  V30 13922 H 1304.89 -1.99268 2.58766 0
M  V30 13923 H 1303.54 -0.151082 3.66289 0
M  V30 13924 H 1303.19 -2.53077 4.34696 0
M  V30 13925 H 1302.89 -1.41513 5.70305 0
M  V30 13926 H 1304.42 -2.34526 5.63764 0
M  V30 13927 H 1305.83 -0.0758076 5.7325 0
M  V30 13928 H 1304.23 0.681301 5.9622 0
M  V30 13929 H 1305.3 1.27363 4.67875 0
M  V30 13930 N 1306.64 -1.55279 0.269478 0
M  V30 13931 C 1307.59 -2.22304 -0.620435 0
M  V30 13932 C 1308.56 -1.19457 -1.15409 0
M  V30 13933 O 1309.74 -1.4798 -1.20443 0
M  V30 13934 C 1306.88 -2.94356 -1.80134 0
M  V30 13935 C 1306 -4.1191 -1.30207 0
M  V30 13936 C 1305.13 -4.71621 -2.44433 0
M  V30 13937 C 1304.17 -5.81379 -1.91481 0
M  V30 13938 N 1303.31 -6.35176 -2.99158 0
M  V30 13939 H 1308.15 -2.9797 -0.0422165 0
M  V30 13940 H 1305.68 -1.47097 -0.00907173 0
M  V30 13941 H 1307.64 -3.34343 -2.4954 0
M  V30 13942 H 1306.27 -2.21124 -2.35168 0
M  V30 13943 H 1305.32 -3.77082 -0.501301 0
M  V30 13944 H 1306.64 -4.9108 -0.874183 0
M  V30 13945 H 1305.79 -5.14298 -3.21842 0
M  V30 13946 H 1304.53 -3.91715 -2.90535 0
M  V30 13947 H 1303.53 -5.38157 -1.12549 0
M  V30 13948 H 1304.76 -6.63149 -1.46322 0
M  V30 13949 H 1302.7 -5.58167 -3.44652 0
M  V30 13950 H 1302.62 -7.09602 -2.60769 0
M  V30 13951 H 1303.89 -6.82512 -3.7656 0
M  V30 13952 N 1308.12 0.00332656 -1.576 0
M  V30 13953 C 1309.4 0.725722 -1.81639 0
M  V30 13954 C 1309.78 1.92173 -0.87365 0
M  V30 13955 O 1309.12 2.28365 0.0783931 0
M  V30 13956 C 1309.33 1.13458 -3.30043 0
M  V30 13957 C 1310.68 1.53982 -3.95695 0
M  V30 13958 O 1311.71 1.22846 -3.34346 0
M  V30 13959 O 1310.56 2.11866 -5.03761 0
M  V30 13960 H 1307.66 0.353083 -0.747838 0
M  V30 13961 H 1310.2 -0.0218724 -1.69686 0
M  V30 13962 H 1308.98 0.281925 -3.90283 0
M  V30 13963 H 1308.6 1.94138 -3.46982 0
M  V30 13964 N 1309.6 1.55164 0.276031 0
M  V30 13965 C 1310.54 1.87836 1.34113 0
M  V30 13966 C 1311.51 0.729562 1.4922 0
M  V30 13967 O 1312.7 0.980549 1.63676 0
M  V30 13968 C 1309.84 2.15313 2.69693 0
M  V30 13969 C 1308.95 3.42845 2.62833 0
M  V30 13970 C 1308.09 3.60038 3.90572 0
M  V30 13971 C 1307.13 4.81273 3.7821 0
M  V30 13972 N 1306.26 4.95139 4.97777 0
M  V30 13973 H 1311.1 2.78681 1.0555 0
M  V30 13974 H 1308.64 1.37976 0.510001 0
M  V30 13975 H 1310.6 2.29243 3.48573 0
M  V30 13976 H 1309.23 1.27706 2.96464 0
M  V30 13977 H 1308.28 3.37403 1.75679 0
M  V30 13978 H 1309.59 4.3186 2.49597 0
M  V30 13979 H 1308.75 3.73769 4.77893 0
M  V30 13980 H 1307.48 2.69203 4.06671 0
M  V30 13981 H 1306.49 4.67549 2.89271 0
M  V30 13982 H 1307.71 5.7354 3.63632 0
M  V30 13983 H 1305.66 4.07234 5.14292 0
M  V30 13984 H 1305.58 5.78194 4.8706 0
M  V30 13985 H 1306.85 5.13253 5.86679 0
M  V30 13986 N 1311.07 -0.540404 1.48045 0
M  V30 13987 C 1312.02 -1.64598 1.61791 0
M  V30 13988 C 1312.99 -1.59595 0.460301 0
M  V30 13989 O 1314.18 -1.78176 0.682482 0
M  V30 13990 C 1311.32 -3.02887 1.65389 0
M  V30 13991 C 1310.43 -3.18202 2.92184 0
M  V30 13992 C 1309.56 -4.46989 2.87009 0
M  V30 13993 C 1308.6 -4.55795 4.08555 0
M  V30 13994 N 1307.74 -5.75958 4.01518 0
M  V30 13995 H 1312.58 -1.52188 2.56208 0
M  V30 13996 H 1310.12 -0.741097 1.27068 0
M  V30 13997 H 1312.08 -3.82988 1.65457 0
M  V30 13998 H 1310.71 -3.14092 0.744703 0
M  V30 13999 H 1309.76 -2.31422 3.01907 0
M  V30 14000 H 1311.07 -3.20571 3.82146 0
M  V30 14001 H 1310.22 -5.35369 2.85421 0
M  V30 14002 H 1308.96 -4.47125 1.94759 0
M  V30 14003 H 1307.97 -3.65824 4.1043 0
M  V30 14004 H 1309.19 -4.57406 5.01953 0
M  V30 14005 H 1307.14 -5.77011 3.12081 0
M  V30 14006 H 1307.06 -5.79777 4.85175 0
M  V30 14007 H 1308.32 -6.66653 4.03972 0
M  V30 14008 N 1312.55 -1.36459 -0.788468 0
M  V30 14009 C 1313.46 -1.33017 -1.93245 0
M  V30 14010 C 1314.48 -0.232212 -1.72444 0
M  V30 14011 O 1315.65 -0.464743 -1.95965 0
M  V30 14012 C 1312.72 -1.1197 -3.28121 0
M  V30 14013 C 1311.78 -2.3125 -3.61693 0
M  V30 14014 C 1311.01 -2.11197 -4.90134 0
M  V30 14015 O 1311.24 -1.08764 -5.59934 0
M  V30 14016 O 1310.17 -2.98996 -5.22384 0
M  V30 14017 H 1314 -2.29333 -1.99098 0
M  V30 14018 H 1311.58 -1.17016 -0.928856 0
M  V30 14019 H 1313.46 -1.02154 -4.08831 0
M  V30 14020 H 1312.14 -0.187171 -3.23158 0
M  V30 14021 H 1311.05 -2.46635 -2.81286 0
M  V30 14022 H 1312.38 -3.23012 -3.71381 0
M  V30 14023 N 1314.03 1.01274 -1.20754 0
M  V30 14024 C 1314.96 2.11763 -0.983805 0
M  V30 14025 C 1315.94 1.69869 0.0885635 0
M  V30 14026 O 1317.13 1.94075 -0.0697239 0
M  V30 14027 C 1314.26 3.43087 -0.539287 0
M  V30 14028 C 1313.21 3.9874 -1.55534 0
M  V30 14029 C 1312.54 5.25877 -0.967322 0
M  V30 14030 C 1313.84 4.31688 -2.94012 0
M  V30 14031 H 1315.53 2.30737 -1.90789 0
M  V30 14032 H 1313.08 1.10884 -0.918734 0
M  V30 14033 H 1315.03 4.19773 -0.369979 0
M  V30 14034 H 1313.75 3.23883 0.420435 0
M  V30 14035 H 1312.41 3.24166 -1.71207 0
M  V30 14036 H 1312.06 5.03 0.000448307 0
M  V30 14037 H 1311.76 5.64077 -1.64594 0
M  V30 14038 H 1313.28 6.05215 -0.809167 0
M  V30 14039 H 1314.7 4.99246 -2.81827 0
M  V30 14040 H 1313.1 4.81011 -3.58815 0
M  V30 14041 H 1314.17 3.4029 -3.45442 0
M  V30 14042 N 1315.51 1.01404 1.20644 0
M  V30 14043 C 1316.42 0.591693 2.27016 0
M  V30 14044 C 1317.44 -0.36958 1.7003 0
M  V30 14045 O 1318.61 -0.231165 2.00069 0
M  V30 14046 C 1315.68 -0.0659827 3.46637 0
M  V30 14047 C 1314.74 0.940911 4.18862 0
M  V30 14048 C 1313.97 0.314526 5.32772 0
M  V30 14049 O 1314.19 -0.886404 5.63471 0
M  V30 14050 O 1313.13 1.02998 5.93022 0
M  V30 14051 H 1316.95 1.4772 2.65353 0
M  V30 14052 H 1314.54 0.783399 1.27213 0
M  V30 14053 H 1316.42 -0.433412 4.19165 0
M  V30 14054 H 1315.1 -0.925729 3.10181 0
M  V30 14055 H 1314 1.35966 3.48517 0
M  V30 14056 H 1315.34 1.77054 4.59252 0
M  V30 14057 N 1316.99 -1.36373 0.789944 0
M  V30 14058 C 1318.24 -1.98834 0.361866 0
M  V30 14059 C 1318.56 -1.63006 -1.07024 0
M  V30 14060 O 1317.83 -0.904312 -1.73779 0
M  V30 14061 H 1316.41 -0.735457 0.130812 0
M  V30 14062 H 1319.07 -1.66561 1.0121 0
M  V30 14063 H 1318.16 -3.08778 0.454122 0
M  V30 14064 N 1318.47 -0.542005 -1.47987 0
M  V30 14065 C 1319.69 -0.0146835 -2.07395 0
M  V30 14066 C 1320.12 1.26266 -1.39422 0
M  V30 14067 O 1319.47 1.75259 -0.464118 0
M  V30 14068 C 1319.52 0.179937 -3.60151 0
M  V30 14069 O 1318.63 1.24596 -3.93128 0
M  V30 14070 H 1317.97 -0.0445076 -0.662507 0
M  V30 14071 H 1320.5 -0.753352 -1.90226 0
M  V30 14072 H 1320.51 0.398876 -4.06046 0
M  V30 14073 H 1319.18 -0.753093 -4.09025 0
M  V30 14074 H 1317.76 1.00872 -3.58997 0
M  V30 14075 N 1319.94 1.55134 -0.277709 0
M  V30 14076 C 1321.19 1.99259 0.337662 0
M  V30 14077 C 1321.51 1.16755 1.56183 0
M  V30 14078 O 1320.78 0.257707 1.94198 0
M  V30 14079 H 1319.36 0.735995 0.127751 0
M  V30 14080 H 1322.02 1.91087 -0.383646 0
M  V30 14081 H 1321.12 3.05763 0.625747 0
M  V30 14082 N 1321.42 0.00503138 1.57599 0
M  V30 14083 C 1322.37 -0.984754 2.08737 0
M  V30 14084 C 1323.34 -1.33822 0.983915 0
M  V30 14085 O 1324.52 -1.43572 1.25665 0
M  V30 14086 C 1321.66 -2.26984 2.59946 0
M  V30 14087 C 1320.78 -1.97496 3.84212 0
M  V30 14088 C 1319.91 -3.20123 4.23904 0
M  V30 14089 C 1318.95 -2.86344 5.40993 0
M  V30 14090 N 1318.09 -4.01524 5.75954 0
M  V30 14091 H 1322.93 -0.541737 2.93034 0
M  V30 14092 H 1320.46 -0.255834 1.44858 0
M  V30 14093 H 1322.42 -3.02117 2.87717 0
M  V30 14094 H 1321.05 -2.68946 1.78516 0
M  V30 14095 H 1320.1 -1.12709 3.63319 0
M  V30 14096 H 1321.42 -1.68602 4.69441 0
M  V30 14097 H 1320.57 -4.03598 4.52983 0
M  V30 14098 H 1319.31 -3.5216 3.37394 0
M  V30 14099 H 1318.31 -2.01278 5.11632 0
M  V30 14100 H 1319.54 -2.5555 6.29183 0
M  V30 14101 H 1317.49 -4.33447 4.92402 0
M  V30 14102 H 1317.4 -3.76171 6.55768 0
M  V30 14103 H 1318.67 -4.85772 6.09628 0
M  V30 14104 N 1322.9 -1.55308 -0.267798 0
M  V30 14105 C 1324.15 -1.75364 -0.996515 0
M  V30 14106 C 1324.46 -0.565028 -1.87261 0
M  V30 14107 O 1325.67 -0.648119 -2.63651 0
M  V30 14108 C 1324.12 -3.10388 -1.82175 0
M  V30 14109 C 1323.73 -4.36832 -0.994062 0
M  V30 14110 C 1325.48 -3.39791 -2.54445 0
M  V30 14111 C 1323.38 -5.62893 -1.81398 0
M  V30 14112 H 1322.31 -0.653679 -0.375793 0
M  V30 14113 H 1324.96 -1.81762 -0.251975 0
M  V30 14114 H 1323.35 -2.98041 -2.60744 0
M  V30 14115 H 1324.52 -4.6011 -0.252167 0
M  V30 14116 H 1322.83 -4.1461 -0.385662 0
M  V30 14117 H 1325.43 -4.31184 -3.16203 0
M  V30 14118 H 1325.77 -2.60159 -3.24997 0
M  V30 14119 H 1326.31 -3.53259 -1.82902 0
M  V30 14120 H 1323.05 -6.45287 -1.15258 0
M  V30 14121 H 1322.57 -5.43751 -2.5317 0
M  V30 14122 H 1324.25 -6.01384 -2.38634 0
M  V30 14123 N 1324.38 0.532545 -1.4833 0
M  V30 14124 C 1325.34 1.61955 -1.62183 0
M  V30 14125 C 1326.34 1.52982 -0.495281 0
M  V30 14126 O 1327.53 1.56698 -0.761005 0
M  V30 14127 C 1324.66 3.0157 -1.58961 0
M  V30 14128 H 1325.86 1.51013 -2.59105 0
M  V30 14129 H 1323.41 0.754405 -1.36888 0
M  V30 14130 H 1324.14 3.18021 -0.635069 0
M  V30 14131 H 1323.93 3.09491 -2.40744 0
M  V30 14132 H 1325.42 3.80604 -1.71843 0
M  V30 14133 N 1325.86 1.36875 0.78122 0
M  V30 14134 C 1327.08 1.34732 1.57019 0
M  V30 14135 C 1327.5 -0.0695423 1.88672 0
M  V30 14136 O 1326.86 -1.02873 1.50743 0
M  V30 14137 C 1326.91 2.17668 2.88623 0
M  V30 14138 O 1326.63 3.53832 2.5833 0
M  V30 14139 C 1328.13 2.23398 3.82895 0
M  V30 14140 H 1325.35 0.461857 0.486754 0
M  V30 14141 H 1327.89 1.80086 0.968989 0
M  V30 14142 H 1326.05 1.75848 3.4519 0
M  V30 14143 H 1326.46 3.972 3.42538 0
M  V30 14144 H 1327.94 2.85769 4.72271 0
M  V30 14145 H 1328.41 1.23972 4.2134 0
M  V30 14146 H 1329.02 2.65489 3.32258 0
M  V30 14147 N 1327.33 -1.00632 1.21289 0
M  V30 14148 C 1328.24 -2.12829 0.986957 0
M  V30 14149 C 1329.26 -1.73895 -0.0605152 0
M  V30 14150 O 1330.44 -2.00985 0.129238 0
M  V30 14151 C 1327.5 -3.4226 0.553089 0
M  V30 14152 C 1326.56 -3.95376 1.67262 0
M  V30 14153 C 1325.79 -5.18629 1.25936 0
M  V30 14154 O 1326.02 -5.70246 0.132402 0
M  V30 14155 O 1324.95 -5.65157 2.07077 0
M  V30 14156 H 1328.78 -2.34765 1.92663 0
M  V30 14157 H 1326.36 -1.11208 0.997654 0
M  V30 14158 H 1328.24 -4.20177 0.320856 0
M  V30 14159 H 1326.92 -3.21716 -0.357881 0
M  V30 14160 H 1325.83 -3.18692 1.95924 0
M  V30 14161 H 1327.16 -4.20328 2.56097 0
M  V30 14162 N 1328.81 -1.02043 -1.20104 0
M  V30 14163 C 1329.77 -0.598682 -2.21243 0
M  V30 14164 C 1330.77 0.333205 -1.5731 0
M  V30 14165 O 1331.96 0.12137 -1.73777 0
M  V30 14166 C 1329.1 0.125183 -3.4067 0
M  V30 14167 H 1330.29 -1.49345 -2.60069 0
M  V30 14168 H 1327.84 -0.810649 -1.33634 0
M  V30 14169 H 1328.58 1.03469 -3.07351 0
M  V30 14170 H 1328.36 -0.544316 -3.88304 0
M  V30 14171 H 1329.85 0.407469 -4.15607 0
M  V30 14172 N 1330.29 1.35952 -0.797165 0
M  V30 14173 C 1331.54 1.98283 -0.369685 0
M  V30 14174 C 1331.85 1.63968 1.06649 0
M  V30 14175 O 1333.06 2.19591 1.59662 0
M  V30 14176 C 1331.51 3.54692 -0.610046 0
M  V30 14177 C 1331.12 3.97925 -2.05814 0
M  V30 14178 C 1332.87 4.23778 -0.247457 0
M  V30 14179 C 1330.77 5.47142 -2.24475 0
M  V30 14180 H 1329.7 0.741909 -0.134489 0
M  V30 14181 H 1332.35 1.55146 -0.979893 0
M  V30 14182 H 1330.74 3.95938 0.0699822 0
M  V30 14183 H 1331.91 3.67857 -2.77521 0
M  V30 14184 H 1330.23 3.417 -2.37971 0
M  V30 14185 H 1332.82 5.33452 -0.365059 0
M  V30 14186 H 1333.17 4.08436 0.805315 0
M  V30 14187 H 1333.7 3.87921 -0.881028 0
M  V30 14188 H 1330.44 5.67441 -3.28163 0
M  V30 14189 H 1329.96 5.78811 -1.57282 0
M  V30 14190 H 1331.64 6.13475 -2.05567 0
M  V30 14191 N 1331.77 0.549846 1.47697 0
M  V30 14192 C 1332.68 -0.205286 2.337 0
M  V30 14193 C 1333.69 -0.919271 1.47734 0
M  V30 14194 O 1334.87 -0.889808 1.80678 0
M  V30 14195 C 1331.94 -1.22658 3.24278 0
M  V30 14196 C 1331 -0.520815 4.26129 0
M  V30 14197 C 1330.23 -1.49345 5.12378 0
M  V30 14198 O 1330.45 -2.72772 5.00951 0
M  V30 14199 O 1329.39 -1.02197 5.93161 0
M  V30 14200 H 1333.21 0.499982 2.99556 0
M  V30 14201 H 1330.8 0.310538 1.46137 0
M  V30 14202 H 1332.68 -1.8163 3.80248 0
M  V30 14203 H 1331.35 -1.9139 2.61059 0
M  V30 14204 H 1330.26 0.109906 3.73939 0
M  V30 14205 H 1331.59 0.124922 4.92041 0
M  V30 14206 N 1333.25 -1.54984 0.285932 0
M  V30 14207 C 1334.19 -2.24385 -0.612703 0
M  V30 14208 C 1335.19 -1.24459 -1.14918 0
M  V30 14209 O 1336.39 -1.42357 -1.10156 0
M  V30 14210 H 1332.77 -0.720263 -0.21616 0
M  V30 14211 H 1334.74 -2.984 -0.00465668 0
M  V30 14212 C 1333.49 -2.98661 -1.78037 0
M  V30 14213 H 1332.81 -3.75347 -1.37676 0
M  V30 14214 H 1334.25 -3.50525 -2.38554 0
M  V30 14215 C 1332.71 -2.04754 -2.67539 0
M  V30 14216 O 1333.24 -1.60577 -3.68209 0
M  V30 14217 N 1331.45 -1.71026 -2.34944 0
M  V30 14218 H 1330.99 -2.07148 -1.53126 0
M  V30 14219 H 1330.95 -1.08467 -2.95097 0
M  V30 14220 N 1334.72 -0.0133892 -1.57594 0
M  V30 14221 C 1335.97 0.668634 -1.91143 0
M  V30 14222 C 1336.3 1.7303 -0.888299 0
M  V30 14223 O 1335.55 1.95418 0.105056 0
M  V30 14224 C 1335.85 1.33729 -3.31438 0
M  V30 14225 C 1335.52 0.407527 -4.49055 0
M  V30 14226 C 1334.18 0.151573 -4.80961 0
M  V30 14227 C 1336.53 -0.231835 -5.20684 0
M  V30 14228 C 1333.86 -0.751812 -5.81863 0
M  V30 14229 C 1336.21 -1.12318 -6.22549 0
M  V30 14230 C 1334.88 -1.38818 -6.52906 0
M  V30 14231 H 1334.15 0.24467 -0.699441 0
M  V30 14232 H 1336.79 -0.0717876 -1.91365 0
M  V30 14233 H 1335.1 2.15209 -3.27403 0
M  V30 14234 H 1336.8 1.87128 -3.5466 0
M  V30 14235 H 1333.39 0.617192 -4.24133 0
M  V30 14236 H 1337.57 -0.0471268 -4.96278 0
M  V30 14237 H 1332.83 -0.964991 -6.03737 0
M  V30 14238 H 1337 -1.62488 -6.77179 0
M  V30 14239 H 1334.63 -2.08986 -7.3091 0
M  V30 14240 N 1336.2 1.55448 0.259558 0
M  V30 14241 C 1337.62 1.47588 0.607442 0
M  V30 14242 C 1337.82 0.701053 1.88911 0
M  V30 14243 O 1336.87 0.225305 2.51493 0
M  V30 14244 C 1338.19 2.91905 0.72192 0
M  V30 14245 C 1339.74 3.02201 0.815087 0
M  V30 14246 C 1340.21 4.47799 0.961231 0
M  V30 14247 N 1341.7 4.51684 1.02642 0
M  V30 14248 C 1342.44 5.61574 1.15854 0
M  V30 14249 N 1341.93 6.81301 1.257 0
M  V30 14250 N 1343.73 5.49344 1.1907 0
M  V30 14251 H 1335.88 2.04271 -0.581981 0
M  V30 14252 H 1338.14 0.926865 -0.199059 0
M  V30 14253 H 1337.85 3.51382 -0.149611 0
M  V30 14254 H 1337.72 3.41681 1.59793 0
M  V30 14255 H 1340.11 2.42813 1.67708 0
M  V30 14256 H 1340.19 2.55656 -0.0858102 0
M  V30 14257 H 1339.83 5.07794 0.103848 0
M  V30 14258 H 1339.76 4.92013 1.87698 0
M  V30 14259 H 1342.25 3.65446 0.962184 0
M  V30 14260 H 1342.57 7.60801 1.35652 0
M  V30 14261 H 1340.91 6.84087 1.2268 0
M  V30 14262 H 1344.1 4.54745 1.11018 0
M  V30 14263 H 1344.27 6.35025 1.29022 0
M  V30 14264 N 1337.68 -0.524672 1.4861 0
M  V30 14265 C 1338.91 -1.30482 1.60568 0
M  V30 14266 C 1339.32 -1.86889 0.267952 0
M  V30 14267 O 1338.68 -1.66669 -0.743488 0
M  V30 14268 C 1338.73 -2.45191 2.65638 0
M  V30 14269 O 1338.45 -1.91107 3.9422 0
M  V30 14270 C 1339.95 -3.36931 2.88084 0
M  V30 14271 H 1337.17 -0.396612 0.541239 0
M  V30 14272 H 1339.72 -0.632392 1.94476 0
M  V30 14273 H 1337.87 -3.08308 2.34574 0
M  V30 14274 H 1338.29 -2.66234 4.51907 0
M  V30 14275 H 1339.76 -4.13755 3.65391 0
M  V30 14276 H 1340.24 -3.92487 1.97106 0
M  V30 14277 H 1340.84 -2.79601 3.20473 0
M  V30 14278 N 1339.16 -1.37287 -0.77395 0
M  V30 14279 C 1340.4 -1.3257 -1.5347 0
M  V30 14280 C 1340.74 0.090346 -1.9399 0
M  V30 14281 O 1340.01 1.04719 -1.63903 0
M  V30 14282 C 1340.3 -2.26277 -2.80126 0
M  V30 14283 C 1340.15 -3.76651 -2.45874 0
M  V30 14284 C 1341.47 -2.18471 -3.82045 0
M  V30 14285 H 1338.59 -0.48289 -0.556764 0
M  V30 14286 H 1341.23 -1.6797 -0.888039 0
M  V30 14287 H 1339.38 -1.96219 -3.35306 0
M  V30 14288 H 1341.05 -4.17296 -1.96626 0
M  V30 14289 H 1339.29 -3.95327 -1.78602 0
M  V30 14290 H 1339.96 -4.3765 -3.36403 0
M  V30 14291 H 1342.44 -2.44962 -3.36352 0
M  V30 14292 H 1341.32 -2.86183 -4.68392 0
M  V30 14293 H 1341.58 -1.17692 -4.26147 0
M  V30 14294 N 1340.64 0.999871 -1.21821 0
M  V30 14295 C 1341.88 1.74098 -1.04009 0
M  V30 14296 C 1342.22 1.89499 0.424716 0
M  V30 14297 O 1341.49 1.43306 1.31505 0
M  V30 14298 C 1341.77 3.1506 -1.74382 0
M  V30 14299 C 1341.63 3.0735 -3.28414 0
M  V30 14300 C 1342.95 4.1409 -1.49055 0
M  V30 14301 H 1340.06 0.631935 -0.379245 0
M  V30 14302 H 1342.71 1.16534 -1.50066 0
M  V30 14303 H 1340.86 3.64206 -1.35227 0
M  V30 14304 H 1342.53 2.65879 -3.76969 0
M  V30 14305 H 1340.77 2.44325 -3.58452 0
M  V30 14306 H 1341.44 4.07069 -3.72825 0
M  V30 14307 H 1343.92 3.73672 -1.83054 0
M  V30 14308 H 1342.79 5.10853 -2.008 0
M  V30 14309 H 1343.06 4.40085 -0.421641 0
M  V30 14310 N 1342.11 1.02678 1.19562 0
M  V30 14311 C 1343.34 0.741424 1.93695 0
M  V30 14312 C 1343.76 -0.693203 1.74861 0
M  V30 14313 O 1343.12 -1.47833 1.04953 0
M  V30 14314 C 1343.17 1.09514 3.43568 0
M  V30 14315 O 1342.27 0.212596 4.11852 0
M  V30 14316 H 1341.62 0.274128 0.604773 0
M  V30 14317 H 1344.15 1.37289 1.517 0
M  V30 14318 H 1344.16 1.05115 3.94227 0
M  V30 14319 H 1342.83 2.14034 3.56598 0
M  V30 14320 H 1341.41 0.315 3.71567 0
M  V30 14321 N 1343.59 -1.35528 0.804364 0
M  V30 14322 C 1344.52 -2.32388 0.227604 0
M  V30 14323 C 1345.5 -1.57368 -0.645709 0
M  V30 14324 O 1346.69 -1.85448 -0.576441 0
M  V30 14325 C 1343.82 -3.41603 -0.62645 0
M  V30 14326 C 1342.77 -4.27743 0.148187 0
M  V30 14327 C 1342.1 -5.28259 -0.827425 0
M  V30 14328 C 1343.4 -5.04661 1.34591 0
M  V30 14329 H 1345.09 -2.80874 1.03684 0
M  V30 14330 H 1342.64 -1.3504 0.500031 0
M  V30 14331 H 1344.59 -4.08365 -1.03999 0
M  V30 14332 H 1343.32 -2.91721 -1.46855 0
M  V30 14333 H 1341.97 -3.62558 0.542874 0
M  V30 14334 H 1341.62 -4.74645 -1.66496 0
M  V30 14335 H 1341.32 -5.86763 -0.313453 0
M  V30 14336 H 1342.85 -5.97893 -1.23921 0
M  V30 14337 H 1344.26 -5.6438 1.00736 0
M  V30 14338 H 1342.66 -5.7265 1.79422 0
M  V30 14339 H 1343.73 -4.35432 2.1337 0
M  V30 14340 N 1345.07 -0.557671 -1.47404 0
M  V30 14341 C 1346.3 -0.0386599 -2.06864 0
M  V30 14342 C 1346.71 1.25527 -1.41027 0
M  V30 14343 O 1346.07 1.75318 -0.506949 0
M  V30 14344 C 1346.12 0.160141 -3.61145 0
M  V30 14345 O 1345.84 -1.08255 -4.24515 0
M  V30 14346 C 1347.34 0.716381 -4.37473 0
M  V30 14347 H 1344.56 -0.0460523 -0.669418 0
M  V30 14348 H 1347.11 -0.771214 -1.894 0
M  V30 14349 H 1345.26 0.842826 -3.78121 0
M  V30 14350 H 1345.68 -0.88057 -5.17055 0
M  V30 14351 H 1347.15 0.804773 -5.46102 0
M  V30 14352 H 1347.63 1.72776 -4.03788 0
M  V30 14353 H 1348.23 0.0693787 -4.25243 0
M  V30 14354 N 1346.55 1.54831 -0.294147 0
M  V30 14355 C 1347.48 2.20696 0.61854 0
M  V30 14356 C 1348.49 1.19754 1.10285 0
M  V30 14357 O 1349.68 1.46383 1.02148 0
M  V30 14358 C 1346.78 2.83429 1.85798 0
M  V30 14359 C 1345.96 4.10239 1.51731 0
M  V30 14360 C 1345.02 4.56841 2.61119 0
M  V30 14361 O 1344.04 5.22194 2.26501 0
M  V30 14362 N 1345.24 4.2858 3.91534 0
M  V30 14363 H 1348.01 2.9965 0.054714 0
M  V30 14364 H 1345.57 1.61484 -0.116052 0
M  V30 14365 H 1347.56 3.11541 2.5831 0
M  V30 14366 H 1346.13 2.08356 2.33038 0
M  V30 14367 H 1345.35 3.89212 0.625142 0
M  V30 14368 H 1346.64 4.92824 1.26499 0
M  V30 14369 H 1346.04 3.7621 4.22472 0
M  V30 14370 H 1344.59 4.61418 4.60366 0
M  V30 14371 N 1348.03 0.0217466 1.57585 0
M  V30 14372 C 1348.94 -0.978407 2.13224 0
M  V30 14373 C 1349.95 -1.36212 1.08269 0
M  V30 14374 O 1351.13 -1.44504 1.40288 0
M  V30 14375 C 1348.19 -2.24462 2.6423 0
M  V30 14376 C 1347.26 -1.92201 3.83871 0
M  V30 14377 C 1346.49 -3.12786 4.32436 0
M  V30 14378 O 1346.71 -4.25201 3.8021 0
M  V30 14379 O 1345.65 -2.95514 5.24362 0
M  V30 14380 H 1349.47 -0.535347 2.98944 0
M  V30 14381 H 1347.06 -0.198414 1.48077 0
M  V30 14382 H 1348.94 -2.98809 2.97138 0
M  V30 14383 H 1347.61 -2.67964 1.81596 0
M  V30 14384 H 1346.52 -1.15262 3.55901 0
M  V30 14385 H 1347.85 -1.53521 4.67645 0
M  V30 14386 N 1349.51 -1.55583 -0.251311 0
M  V30 14387 C 1350.44 -1.86388 -1.33387 0
M  V30 14388 C 1351.45 -0.749829 -1.44504 0
M  V30 14389 O 1352.64 -1.0279 -1.45933 0
M  V30 14390 C 1349.74 -2.0311 -2.71293 0
M  V30 14391 C 1348.91 -3.33937 -2.82498 0
M  V30 14392 C 1347.97 -3.40455 -4.01219 0
M  V30 14393 O 1347 -4.13695 -3.90954 0
M  V30 14394 N 1348.2 -2.69427 -5.14188 0
M  V30 14395 H 1350.96 -2.79834 -1.07298 0
M  V30 14396 H 1348.53 -1.55766 -0.441418 0
M  V30 14397 H 1350.52 -2.04817 -3.49045 0
M  V30 14398 H 1349.09 -1.16429 -2.90109 0
M  V30 14399 H 1348.31 -3.44584 -1.91456 0
M  V30 14400 H 1349.6 -4.20176 -2.86931 0
M  V30 14401 H 1348.99 -2.09647 -5.25419 0
M  V30 14402 H 1347.55 -2.76832 -5.90091 0
M  V30 14403 N 1350.98 0.516783 -1.48886 0
M  V30 14404 C 1351.93 1.62003 -1.64389 0
M  V30 14405 C 1352.9 1.58842 -0.485633 0
M  V30 14406 O 1354.09 1.77068 -0.710742 0
M  V30 14407 C 1351.23 3.00218 -1.70186 0
M  V30 14408 C 1350.34 3.13513 -2.97209 0
M  V30 14409 C 1349.47 4.42366 -2.94084 0
M  V30 14410 C 1348.51 4.49238 -4.15754 0
M  V30 14411 N 1347.65 5.69497 -4.10631 0
M  V30 14412 H 1352.49 1.48093 -2.58597 0
M  V30 14413 H 1350.03 0.720788 -1.2823 0
M  V30 14414 H 1351.98 3.80307 -1.71529 0
M  V30 14415 H 1350.61 3.12868 -0.794578 0
M  V30 14416 H 1349.67 2.26589 -3.05551 0
M  V30 14417 H 1350.98 3.14451 -3.87197 0
M  V30 14418 H 1350.13 5.3076 -2.93902 0
M  V30 14419 H 1348.87 4.43969 -2.01847 0
M  V30 14420 H 1347.88 3.59248 -4.16198 0
M  V30 14421 H 1349.1 4.49363 -5.09166 0
M  V30 14422 H 1347.05 5.71973 -3.21222 0
M  V30 14423 H 1346.96 5.71985 -4.94337 0
M  V30 14424 H 1348.23 6.60142 -4.14527 0
M  V30 14425 N 1352.46 1.37696 0.766659 0
M  V30 14426 C 1353.71 1.33185 1.52539 0
M  V30 14427 C 1354.04 -0.0821239 1.94327 0
M  V30 14428 O 1353.29 -1.05645 1.64735 0
M  V30 14429 C 1353.59 2.22154 2.79968 0
M  V30 14430 C 1353.26 3.70344 2.57208 0
M  V30 14431 C 1351.92 4.10729 2.50709 0
M  V30 14432 C 1354.27 4.64205 2.36988 0
M  V30 14433 C 1351.6 5.43082 2.21988 0
M  V30 14434 C 1353.95 5.96801 2.0979 0
M  V30 14435 C 1352.61 6.36284 2.01739 0
M  V30 14436 H 1351.88 0.487357 0.558179 0
M  V30 14437 H 1354.53 1.69945 0.882662 0
M  V30 14438 H 1352.84 1.78406 3.48825 0
M  V30 14439 H 1354.53 2.15975 3.37869 0
M  V30 14440 H 1351.12 3.38319 2.63131 0
M  V30 14441 H 1355.31 4.3386 2.40996 0
M  V30 14442 H 1350.56 5.7263 2.14254 0
M  V30 14443 H 1354.74 6.6908 1.93145 0
M  V30 14444 H 1352.36 7.38765 1.79248 0
M  V30 14445 N 1353.94 -0.993397 1.22349 0
M  V30 14446 C 1354.85 -2.11771 1.00947 0
M  V30 14447 C 1355.87 -1.73949 -0.0420679 0
M  V30 14448 O 1357.04 -2.00837 0.150548 0
M  V30 14449 C 1354.11 -3.41654 0.589359 0
M  V30 14450 C 1353.17 -3.93579 1.71446 0
M  V30 14451 C 1352.4 -5.17264 1.3143 0
M  V30 14452 O 1352.62 -5.70074 0.192876 0
M  V30 14453 O 1351.56 -5.62929 2.13059 0
M  V30 14454 H 1355.38 -2.32708 1.95142 0
M  V30 14455 H 1352.97 -1.10144 1.00939 0
M  V30 14456 H 1354.85 -4.19813 0.365403 0
M  V30 14457 H 1353.53 -3.22077 -0.323738 0
M  V30 14458 H 1352.43 -3.16596 1.99294 0
M  V30 14459 H 1353.77 -4.17588 2.6054 0
M  V30 14460 N 1355.42 -1.03311 -1.19015 0
M  V30 14461 C 1356.37 -0.588076 -2.20285 0
M  V30 14462 C 1357.35 0.365442 -1.56695 0
M  V30 14463 O 1358.54 0.185725 -1.76023 0
M  V30 14464 C 1355.67 0.0553478 -3.43255 0
M  V30 14465 C 1354.76 -0.920863 -4.13982 0
M  V30 14466 N 1355.15 -2.08495 -4.60829 0
M  V30 14467 C 1353.45 -0.74522 -4.3973 0
M  V30 14468 C 1354.15 -2.701 -5.1519 0
M  V30 14469 N 1353.12 -1.98031 -5.06246 0
M  V30 14470 H 1356.93 -1.47529 -2.54189 0
M  V30 14471 H 1354.44 -0.900663 -1.35136 0
M  V30 14472 H 1356.44 0.39182 -4.15055 0
M  V30 14473 H 1355.1 0.938199 -3.1085 0
M  V30 14474 H 1356.11 -2.46418 -4.5552 0
M  V30 14475 H 1352.79 0.088182 -4.17407 0
M  V30 14476 H 1354.18 -3.6871 -5.61696 0
M  V30 14477 N 1356.9 1.35099 -0.81154 0
M  V30 14478 C 1357.83 2.2756 -0.170838 0
M  V30 14479 C 1358.81 1.48331 0.666085 0
M  V30 14480 O 1359.99 1.77579 0.632294 0
M  V30 14481 C 1357.12 3.30006 0.762483 0
M  V30 14482 C 1356.16 4.265 0.00454934 0
M  V30 14483 S 1357 5.18595 -1.33488 0
M  V30 14484 C 1358.15 6.24581 -0.406132 0
M  V30 14485 H 1358.39 2.81553 -0.95475 0
M  V30 14486 H 1355.92 1.41974 -0.606851 0
M  V30 14487 H 1357.88 3.89523 1.29545 0
M  V30 14488 H 1356.54 2.74882 1.51982 0
M  V30 14489 H 1355.73 4.98922 0.71361 0
M  V30 14490 H 1355.33 3.71178 -0.458613 0
M  V30 14491 H 1357.62 6.76278 0.406707 0
M  V30 14492 H 1358.57 6.99509 -1.09969 0
M  V30 14493 H 1358.98 5.645 0.000376348 0
M  V30 14494 N 1358.37 0.56548 1.47106 0
M  V30 14495 C 1359.6 0.0495579 2.06541 0
M  V30 14496 C 1360.01 -1.25325 1.4174 0
M  V30 14497 O 1359.35 -1.76455 0.510818 0
M  V30 14498 C 1359.42 -0.20843 3.58895 0
M  V30 14499 C 1359.08 1.00618 4.45786 0
M  V30 14500 C 1360.08 1.91387 4.83391 0
M  V30 14501 C 1357.76 1.22318 4.87179 0
M  V30 14502 C 1359.76 3.02218 5.61198 0
M  V30 14503 C 1357.44 2.33457 5.64749 0
M  V30 14504 C 1358.44 3.23238 6.0167 0
M  V30 14505 O 1358.13 4.32449 6.77675 0
M  V30 14506 H 1357.86 0.0466 0.674392 0
M  V30 14507 H 1360.42 0.780887 1.89977 0
M  V30 14508 H 1358.65 -0.994169 3.73702 0
M  V30 14509 H 1360.33 -0.670745 4.0032 0
M  V30 14510 H 1361.1 1.75831 4.52005 0
M  V30 14511 H 1356.98 0.533514 4.57902 0
M  V30 14512 H 1360.52 3.72321 5.89935 0
M  V30 14513 H 1356.42 2.48983 5.95548 0
M  V30 14514 H 1357.19 4.306 6.96079 0
M  V30 14515 N 1359.85 -1.54672 0.302354 0
M  V30 14516 C 1360.82 -2.22246 -0.560283 0
M  V30 14517 C 1361.82 -1.20895 -1.06023 0
M  V30 14518 O 1363.01 -1.45621 -0.956047 0
M  V30 14519 C 1360.14 -2.9099 -1.77589 0
M  V30 14520 H 1361.33 -2.99885 0.0301274 0
M  V30 14521 H 1358.88 -1.56209 0.0532036 0
M  V30 14522 H 1359.62 -2.17433 -2.4061 0
M  V30 14523 H 1359.4 -3.65288 -1.42503 0
M  V30 14524 H 1360.89 -3.42535 -2.38871 0
M  V30 14525 N 1361.33 -0.0301034 -1.57571 0
M  V30 14526 C 1362.26 0.980187 -2.07183 0
M  V30 14527 C 1363.28 1.2882 -0.995449 0
M  V30 14528 O 1364.46 1.25268 -1.27162 0
M  V30 14529 C 1361.56 2.30734 -2.48224 0
M  V30 14530 C 1360.74 2.18434 -3.78953 0
M  V30 14531 C 1359.8 3.34092 -4.06533 0
M  V30 14532 O 1358.82 3.10934 -4.76769 0
M  V30 14533 N 1360.02 4.57914 -3.56784 0
M  V30 14534 H 1362.79 0.556877 -2.94481 0
M  V30 14535 H 1360.35 0.156632 -1.61141 0
M  V30 14536 H 1362.34 3.06936 -2.63766 0
M  V30 14537 H 1360.91 2.64703 -1.66287 0
M  V30 14538 H 1360.13 1.26953 -3.73198 0
M  V30 14539 H 1361.42 2.07421 -4.64601 0
M  V30 14540 H 1360.82 4.79623 -2.99964 0
M  V30 14541 H 1359.38 5.31281 -3.77603 0
M  V30 14542 N 1362.81 1.55714 0.243056 0
M  V30 14543 C 1364.03 1.82126 0.992219 0
M  V30 14544 C 1364.46 0.607665 1.78014 0
M  V30 14545 O 1363.82 -0.443351 1.75796 0
M  V30 14546 C 1363.86 3.06314 1.90274 0
M  V30 14547 O 1362.97 2.83499 2.99503 0
M  V30 14548 H 1362.31 0.601082 0.282128 0
M  V30 14549 H 1364.84 2.02904 0.262881 0
M  V30 14550 H 1364.85 3.35849 2.31666 0
M  V30 14551 H 1363.52 3.94282 1.32344 0
M  V30 14552 H 1362.1 2.65141 2.62211 0
M  V30 14553 N 1364.29 -0.50888 1.49158 0
M  V30 14554 C 1365.22 -1.62008 1.68154 0
M  V30 14555 C 1366.2 -1.61624 0.53025 0
M  V30 14556 O 1367.38 -1.78489 0.765205 0
M  V30 14557 C 1364.51 -3.00525 1.74075 0
M  V30 14558 C 1363.47 -3.15773 2.88915 0
M  V30 14559 C 1362.79 -4.55562 2.79942 0
M  V30 14560 C 1364.09 -2.96542 4.29953 0
M  V30 14561 H 1365.79 -1.46365 2.61185 0
M  V30 14562 H 1363.33 -0.702705 1.2569 0
M  V30 14563 H 1365.29 -3.78154 1.8595 0
M  V30 14564 H 1364.01 -3.17238 0.776373 0
M  V30 14565 H 1362.67 -2.40567 2.76628 0
M  V30 14566 H 1362.32 -4.6914 1.81429 0
M  V30 14567 H 1362.02 -4.66706 3.57015 0
M  V30 14568 H 1363.54 -5.35262 2.93814 0
M  V30 14569 H 1364.95 -3.63947 4.42963 0
M  V30 14570 H 1363.35 -3.19164 5.08187 0
M  V30 14571 H 1364.42 -1.92745 4.44946 0
M  V30 14572 N 1365.76 -1.381 -0.759346 0
M  V30 14573 C 1366.7 -1.3075 -1.88248 0
M  V30 14574 C 1367.71 -0.220835 -1.61295 0
M  V30 14575 O 1368.9 -0.477952 -1.71982 0
M  V30 14576 C 1366 -1.00174 -3.23757 0
M  V30 14577 C 1365.17 -2.19635 -3.78258 0
M  V30 14578 C 1364.23 -1.85892 -4.92271 0
M  V30 14579 O 1363.26 -2.58325 -5.07205 0
M  V30 14580 N 1364.46 -0.810436 -5.74815 0
M  V30 14581 H 1367.22 -2.27529 -1.95065 0
M  V30 14582 H 1364.78 -1.31886 -0.93902 0
M  V30 14583 H 1366.78 -0.756631 -3.97564 0
M  V30 14584 H 1365.35 -0.122094 -3.12361 0
M  V30 14585 H 1364.57 -2.60246 -2.96084 0
M  V30 14586 H 1365.85 -2.99373 -4.11404 0
M  V30 14587 H 1365.25 -0.209644 -5.65311 0
M  V30 14588 H 1363.81 -0.625206 -6.48795 0
M  V30 14589 N 1367.24 0.986894 -1.22875 0
M  V30 14590 C 1368.49 1.72985 -1.05849 0
M  V30 14591 C 1368.82 1.89939 0.404594 0
M  V30 14592 O 1368.1 1.44693 1.29978 0
M  V30 14593 C 1368.38 3.13193 -1.77714 0
M  V30 14594 C 1368.23 3.0385 -3.31655 0
M  V30 14595 C 1369.55 4.12486 -1.53438 0
M  V30 14596 H 1366.67 0.627877 -0.385926 0
M  V30 14597 H 1369.31 1.14936 -1.51294 0
M  V30 14598 H 1367.46 3.62751 -1.39083 0
M  V30 14599 H 1369.13 2.61866 -3.79768 0
M  V30 14600 H 1367.38 2.4051 -3.61023 0
M  V30 14601 H 1368.05 4.03092 -3.77122 0
M  V30 14602 H 1370.52 3.71709 -1.87007 0
M  V30 14603 H 1369.4 5.08694 -2.06207 0
M  V30 14604 H 1369.66 4.39613 -0.468294 0
M  V30 14605 N 1368.72 1.0394 1.18466 0
M  V30 14606 C 1370.13 0.77011 1.70077 0
M  V30 14607 C 1370.48 -0.70916 1.82935 0
M  V30 14608 O 1369.61 -1.55209 1.50795 0
M  V30 14609 C 1370.2 1.39132 3.08914 0
M  V30 14610 C 1368.76 1.17037 3.57742 0
M  V30 14611 C 1367.91 1.48279 2.34326 0
M  V30 14612 H 1370.86 1.20598 1.03159 0
M  V30 14613 H 1370.88 0.793861 3.72126 0
M  V30 14614 H 1370.39 2.46795 2.99523 0
M  V30 14615 H 1368.49 0.112435 3.7243 0
M  V30 14616 H 1368.61 1.8665 4.41247 0
M  V30 14617 H 1366.97 0.902438 2.38177 0
M  V30 14618 H 1367.75 2.57047 2.27556 0
M  V30 14619 N 1370.2 -1.34667 0.818693 0
M  V30 14620 C 1371.43 -2.02348 0.417002 0
M  V30 14621 C 1371.84 -1.61813 -0.980464 0
M  V30 14622 O 1371.18 -0.817232 -1.64521 0
M  V30 14623 C 1371.24 -3.56861 0.434779 0
M  V30 14624 C 1370.91 -4.20704 1.78485 0
M  V30 14625 C 1371.9 -4.41524 2.74504 0
M  V30 14626 C 1369.59 -4.57566 2.07217 0
M  V30 14627 C 1371.58 -4.98324 3.97431 0
M  V30 14628 C 1369.27 -5.14078 3.30405 0
M  V30 14629 C 1370.27 -5.344 4.2533 0
M  V30 14630 O 1369.95 -5.89717 5.46342 0
M  V30 14631 H 1369.69 -0.655279 0.16609 0
M  V30 14632 H 1372.24 -1.73011 1.10708 0
M  V30 14633 H 1370.47 -3.8544 -0.311973 0
M  V30 14634 H 1372.16 -4.05864 0.0537258 0
M  V30 14635 H 1372.93 -4.13414 2.53601 0
M  V30 14636 H 1368.8 -4.41054 1.34135 0
M  V30 14637 H 1372.35 -5.14102 4.71534 0
M  V30 14638 H 1368.25 -5.41616 3.51174 0
M  V30 14639 H 1369.01 -6.08155 5.47804 0
M  V30 14640 N 1371.68 -0.573274 -1.46804 0
M  V30 14641 C 1373.09 -0.23423 -1.57872 0
M  V30 14642 C 1373.29 1.26342 -1.56971 0
M  V30 14643 O 1372.35 2.04459 -1.48165 0
M  V30 14644 C 1373.66 -0.875097 -2.87685 0
M  V30 14645 C 1375.21 -0.847812 -3.01299 0
M  V30 14646 C 1375.68 -1.46804 -4.33835 0
M  V30 14647 N 1377.18 -1.43196 -4.4051 0
M  V30 14648 C 1377.91 -1.88133 -5.41658 0
M  V30 14649 N 1377.41 -2.41001 -6.49531 0
M  V30 14650 N 1379.2 -1.79107 -5.32801 0
M  V30 14651 H 1371.35 -1.54612 -1.45633 0
M  V30 14652 H 1373.61 -0.645703 -0.694098 0
M  V30 14653 H 1373.32 -1.92826 -2.94127 0
M  V30 14654 H 1373.19 -0.377671 -3.75305 0
M  V30 14655 H 1375.58 0.196707 -2.94444 0
M  V30 14656 H 1375.66 -1.38316 -2.1518 0
M  V30 14657 H 1375.31 -2.51171 -4.41447 0
M  V30 14658 H 1375.24 -0.908 -5.18713 0
M  V30 14659 H 1377.73 -1.04541 -3.63152 0
M  V30 14660 H 1378.04 -2.73172 -7.22908 0
M  V30 14661 H 1376.38 -2.45021 -6.50377 0
M  V30 14662 H 1379.58 -1.37569 -4.47429 0
M  V30 14663 H 1379.75 -2.14445 -6.11488 0
M  V30 14664 N 1373.15 1.5451 -0.310553 0
M  V30 14665 C 1374.1 2.25332 0.576928 0
M  V30 14666 C 1375.1 1.26272 1.12924 0
M  V30 14667 O 1376.3 1.44092 1.07878 0
M  V30 14668 H 1372.68 0.723611 0.204674 0
M  V30 14669 H 1374.65 2.98369 -0.0428167 0
M  V30 14670 C 1373.4 3.01455 1.73263 0
M  V30 14671 H 1372.72 3.7749 1.31688 0
M  V30 14672 H 1374.16 3.54276 2.32947 0
M  V30 14673 C 1372.62 2.08984 2.64248 0
M  V30 14674 O 1373.15 1.66414 3.65608 0
M  V30 14675 N 1371.36 1.74742 2.32193 0
M  V30 14676 H 1370.9 2.09558 1.49811 0
M  V30 14677 H 1370.86 1.13148 2.93334 0
M  V30 14678 N 1374.63 0.0384594 1.57553 0
M  V30 14679 C 1375.86 -0.651613 1.96898 0
M  V30 14680 C 1376.28 -1.64328 0.915308 0
M  V30 14681 O 1375.64 -1.80883 -0.122824 0
M  V30 14682 C 1375.69 -1.32613 3.3533 0
M  V30 14683 O 1374.79 -2.44159 3.32355 0
M  V30 14684 H 1374.13 -0.170441 0.641752 0
M  V30 14685 H 1376.66 0.103086 2.0434 0
M  V30 14686 H 1376.67 -1.68076 3.71772 0
M  V30 14687 H 1375.35 -0.599275 4.1156 0
M  V30 14688 H 1373.93 -2.10738 3.07642 0
M  V30 14689 N 1376.11 -1.55841 -0.234795 0
M  V30 14690 C 1377.04 -1.94344 -1.29432 0
M  V30 14691 C 1378.02 -0.809912 -1.49581 0
M  V30 14692 O 1379.21 -1.07117 -1.61986 0
M  V30 14693 C 1376.34 -2.24866 -2.64675 0
M  V30 14694 C 1375.29 -3.40584 -2.59203 0
M  V30 14695 C 1374.62 -3.56678 -3.98353 0
M  V30 14696 C 1375.92 -4.75935 -2.15135 0
M  V30 14697 H 1377.61 -2.83096 -0.97454 0
M  V30 14698 H 1375.16 -1.36205 -0.467355 0
M  V30 14699 H 1377.11 -2.50392 -3.38942 0
M  V30 14700 H 1375.83 -1.32953 -2.98314 0
M  V30 14701 H 1374.49 -3.15087 -1.87393 0
M  V30 14702 H 1374.14 -2.62164 -4.29277 0
M  V30 14703 H 1373.84 -4.34503 -3.95577 0
M  V30 14704 H 1375.37 -3.84538 -4.74302 0
M  V30 14705 H 1376.78 -5.00753 -2.7914 0
M  V30 14706 H 1375.18 -5.56949 -2.23446 0
M  V30 14707 H 1376.25 -4.72182 -1.10328 0
M  V30 14708 N 1377.59 0.500963 -1.49426 0
M  V30 14709 C 1379.01 0.832142 -1.36189 0
M  V30 14710 C 1379.21 1.9759 -0.395014 0
M  V30 14711 O 1378.26 2.51905 0.173294 0
M  V30 14712 C 1379.57 1.17232 -2.76907 0
M  V30 14713 C 1381.12 1.28052 -2.85607 0
M  V30 14714 C 1381.6 1.65399 -4.27092 0
M  V30 14715 N 1383.09 1.72448 -4.29902 0
M  V30 14716 C 1383.82 2.02789 -5.36343 0
M  V30 14717 N 1383.32 2.31354 -6.53029 0
M  V30 14718 N 1385.11 2.0404 -5.23759 0
M  V30 14719 H 1377.26 -0.253253 -2.10885 0
M  V30 14720 H 1379.53 -0.0507111 -0.946643 0
M  V30 14721 H 1379.23 0.405247 -3.49357 0
M  V30 14722 H 1379.11 2.11574 -3.12276 0
M  V30 14723 H 1381.49 2.03831 -2.13394 0
M  V30 14724 H 1381.57 0.317603 -2.53821 0
M  V30 14725 H 1381.22 0.901704 -4.99832 0
M  V30 14726 H 1381.15 2.6279 -4.56343 0
M  V30 14727 H 1383.64 1.52532 -3.45749 0
M  V30 14728 H 1383.95 2.53695 -7.29972 0
M  V30 14729 H 1382.3 2.28811 -6.56255 0
M  V30 14730 H 1385.49 1.812 -4.31606 0
M  V30 14731 H 1385.66 2.27353 -6.06807 0
M  V30 14732 N 1379.07 1.38501 0.752011 0
M  V30 14733 C 1380.01 1.35857 1.86578 0
M  V30 14734 C 1380.98 0.220873 1.64625 0
M  V30 14735 O 1382.17 0.413348 1.86269 0
M  V30 14736 C 1379.31 1.19102 3.23896 0
M  V30 14737 C 1378.42 2.42272 3.5767 0
M  V30 14738 C 1377.56 2.18236 4.843 0
M  V30 14739 C 1376.6 3.37169 5.10865 0
M  V30 14740 N 1375.73 3.12558 6.28691 0
M  V30 14741 H 1380.57 2.31073 1.88173 0
M  V30 14742 H 1378.11 1.14803 0.919712 0
M  V30 14743 H 1380.07 1.07404 4.03138 0
M  V30 14744 H 1378.7 0.275243 3.21624 0
M  V30 14745 H 1377.75 2.64638 2.7326 0
M  V30 14746 H 1379.06 3.3091 3.73229 0
M  V30 14747 H 1378.22 2.03682 5.71488 0
M  V30 14748 H 1376.96 1.26966 4.70883 0
M  V30 14749 H 1375.96 3.52241 4.22145 0
M  V30 14750 H 1377.19 4.29317 5.26178 0
M  V30 14751 H 1375.13 2.23937 6.16594 0
M  V30 14752 H 1375.05 3.94746 6.44757 0
M  V30 14753 H 1376.32 3.01663 7.18763 0
M  V30 14754 N 1380.55 -0.980364 1.23396 0
M  V30 14755 C 1381.51 -2.05433 1.01635 0
M  V30 14756 C 1382.51 -1.60785 -0.0218244 0
M  V30 14757 O 1383.7 -1.72832 0.217922 0
M  V30 14758 C 1380.83 -3.36631 0.537822 0
M  V30 14759 H 1382.02 -2.26172 1.96943 0
M  V30 14760 H 1379.58 -1.15378 1.05441 0
M  V30 14761 H 1380.31 -3.21581 -0.41903 0
M  V30 14762 H 1380.1 -3.70377 1.28698 0
M  V30 14763 H 1381.59 -4.1562 0.406213 0
M  V30 14764 N 1382.02 -1.04567 -1.17913 0
M  V30 14765 C 1382.97 -0.611407 -2.19649 0
M  V30 14766 C 1383.96 0.348802 -1.57074 0
M  V30 14767 O 1385.15 0.167045 -1.7621 0
M  V30 14768 C 1382.28 0.0189379 -3.43295 0
M  V30 14769 C 1381.36 -0.96472 -4.12982 0
M  V30 14770 N 1381.76 -2.13371 -4.58592 0
M  V30 14771 C 1380.05 -0.791817 -4.38915 0
M  V30 14772 C 1380.75 -2.75549 -5.12296 0
M  V30 14773 N 1379.73 -2.0339 -5.04117 0
M  V30 14774 H 1383.53 -1.50217 -2.5261 0
M  V30 14775 H 1381.05 -0.914946 -1.34173 0
M  V30 14776 H 1383.04 0.347776 -4.15447 0
M  V30 14777 H 1381.7 0.905177 -3.11828 0
M  V30 14778 H 1382.71 -2.51236 -4.52881 0
M  V30 14779 H 1379.39 0.0439054 -4.17477 0
M  V30 14780 H 1380.78 -3.74647 -5.57754 0
M  V30 14781 N 1383.5 1.34231 -0.825823 0
M  V30 14782 C 1384.75 1.97454 -0.411661 0
M  V30 14783 C 1385.06 1.66193 1.03147 0
M  V30 14784 O 1386.27 2.22929 1.54968 0
M  V30 14785 C 1384.73 3.53318 -0.685145 0
M  V30 14786 C 1384.33 3.9347 -2.14208 0
M  V30 14787 C 1386.08 4.23158 -0.337291 0
M  V30 14788 C 1383.98 5.42258 -2.3603 0
M  V30 14789 H 1382.91 0.738889 -0.150196 0
M  V30 14790 H 1385.57 1.53033 -1.01258 0
M  V30 14791 H 1383.95 3.95998 -0.0140178 0
M  V30 14792 H 1385.12 3.61888 -2.85261 0
M  V30 14793 H 1383.44 3.36575 -2.45165 0
M  V30 14794 H 1386.03 5.32558 -0.47813 0
M  V30 14795 H 1386.38 4.10053 0.718499 0
M  V30 14796 H 1386.91 3.85965 -0.963113 0
M  V30 14797 H 1383.65 5.60352 -3.40126 0
M  V30 14798 H 1383.17 5.75345 -1.69524 0
M  V30 14799 H 1384.85 6.08976 -2.18533 0
M  V30 14800 N 1384.98 0.581051 1.46498 0
M  V30 14801 C 1386.23 0.0659956 2.02392 0
M  V30 14802 C 1386.55 -1.29329 1.45273 0
M  V30 14803 O 1385.81 -1.86047 0.607041 0
M  V30 14804 C 1386.11 -0.0514774 3.57363 0
M  V30 14805 C 1385.77 1.24 4.33514 0
M  V30 14806 C 1384.44 1.59383 4.54038 0
M  V30 14807 C 1386.79 2.09473 4.77253 0
M  V30 14808 C 1384.12 2.8004 5.15552 0
M  V30 14809 C 1386.47 3.29355 5.401 0
M  V30 14810 C 1385.13 3.65022 5.58852 0
M  V30 14811 H 1384.4 0.0241495 0.740606 0
M  V30 14812 H 1387.05 0.757354 1.75887 0
M  V30 14813 H 1385.35 -0.825955 3.82995 0
M  V30 14814 H 1387.05 -0.465726 3.98286 0
M  V30 14815 H 1383.64 0.954547 4.17835 0
M  V30 14816 H 1387.83 1.83441 4.61154 0
M  V30 14817 H 1383.08 3.07814 5.28262 0
M  V30 14818 H 1387.26 3.95855 5.7295 0
M  V30 14819 H 1384.88 4.58607 6.06287 0
M  V30 14820 N 1386.46 -1.54343 0.318742 0
M  V30 14821 C 1387.71 -2.00084 -0.284713 0
M  V30 14822 C 1388.03 -1.20855 -1.53033 0
M  V30 14823 O 1387.3 -0.309104 -1.93446 0
M  V30 14824 H 1385.88 -0.739123 -0.108193 0
M  V30 14825 H 1388.54 -1.90002 0.434174 0
M  V30 14826 H 1387.63 -3.07314 -0.544459 0
M  V30 14827 N 1387.94 -0.0468143 -1.5753 0
M  V30 14828 C 1389.18 0.627375 -1.91695 0
M  V30 14829 C 1389.5 1.72261 -0.926588 0
M  V30 14830 O 1390.7 2.45466 -1.16012 0
M  V30 14831 C 1389.16 1.16722 -3.40447 0
M  V30 14832 C 1388.77 0.104335 -4.47878 0
M  V30 14833 C 1390.51 1.81691 -3.83652 0
M  V30 14834 C 1388.42 0.656818 -5.87741 0
M  V30 14835 H 1387.35 0.238107 -0.715417 0
M  V30 14836 H 1390 -0.114995 -1.83139 0
M  V30 14837 H 1388.38 1.96177 -3.43992 0
M  V30 14838 H 1389.56 -0.669053 -4.55917 0
M  V30 14839 H 1387.87 -0.447633 -4.13987 0
M  V30 14840 H 1390.47 2.24014 -4.85512 0
M  V30 14841 H 1390.81 2.66686 -3.19663 0
M  V30 14842 H 1391.34 1.08898 -3.82604 0
M  V30 14843 H 1388.08 -0.155397 -6.55316 0
M  V30 14844 H 1387.6 1.39829 -5.83273 0
M  V30 14845 H 1389.28 1.14107 -6.36858 0
M  V30 14846 N 1389.41 1.55964 0.226527 0
M  V30 14847 C 1390.64 1.82823 0.968673 0
M  V30 14848 C 1391.06 0.625281 1.78145 0
M  V30 14849 O 1390.41 -0.40617 1.77923 0
M  V30 14850 C 1390.47 3.08143 1.89024 0
M  V30 14851 O 1390.19 4.23797 1.11032 0
M  V30 14852 C 1391.69 3.47954 2.74669 0
M  V30 14853 H 1388.91 0.607876 0.284126 0
M  V30 14854 H 1391.45 2.03048 0.243258 0
M  V30 14855 H 1389.61 2.89908 2.56967 0
M  V30 14856 H 1390.02 4.94957 1.73546 0
M  V30 14857 H 1391.49 4.38691 3.35044 0
M  V30 14858 H 1391.97 2.69476 3.46813 0
M  V30 14859 H 1392.58 3.6861 2.12147 0
M  V30 14860 N 1390.89 -0.493031 1.4969 0
M  V30 14861 C 1392.14 -1.24664 1.59578 0
M  V30 14862 C 1392.47 -1.92385 0.286075 0
M  V30 14863 O 1391.72 -1.81712 -0.726586 0
M  V30 14864 C 1392.02 -2.33014 2.70997 0
M  V30 14865 C 1391.69 -1.82697 4.12229 0
M  V30 14866 C 1390.35 -1.68694 4.50662 0
M  V30 14867 C 1392.7 -1.45127 5.00587 0
M  V30 14868 C 1390.03 -1.15512 5.75216 0
M  V30 14869 C 1392.38 -0.933951 6.25668 0
M  V30 14870 C 1391.05 -0.780378 6.62923 0
M  V30 14871 H 1390.32 -0.456178 0.583937 0
M  V30 14872 H 1392.96 -0.546091 1.83549 0
M  V30 14873 H 1391.27 -3.08889 2.41029 0
M  V30 14874 H 1392.96 -2.91041 2.75855 0
M  V30 14875 H 1389.55 -1.94557 3.81897 0
M  V30 14876 H 1393.74 -1.5479 4.71544 0
M  V30 14877 H 1388.99 -1.0234 6.02774 0
M  V30 14878 H 1393.17 -0.634088 6.93507 0
M  V30 14879 H 1390.8 -0.366111 7.59318 0
M  V30 14880 N 1392.37 -1.38898 -0.744656 0
M  V30 14881 C 1393.6 -1.3903 -1.53901 0
M  V30 14882 C 1394.02 0.0156607 -1.88093 0
M  V30 14883 O 1393.38 1.00012 -1.51219 0
M  V30 14884 C 1393.43 -2.2609 -2.80919 0
M  V30 14885 O 1392.53 -1.68414 -3.76444 0
M  V30 14886 H 1391.87 -0.473854 -0.465144 0
M  V30 14887 H 1394.4 -1.82773 -0.919525 0
M  V30 14888 H 1394.41 -2.40264 -3.29754 0
M  V30 14889 H 1393.09 -3.28271 -2.55364 0
M  V30 14890 H 1391.66 -1.63431 -3.35179 0
M  V30 14891 N 1393.85 0.973806 -1.23914 0
M  V30 14892 C 1395.1 1.71598 -1.07519 0
M  V30 14893 C 1395.42 1.90613 0.386926 0
M  V30 14894 O 1394.68 1.46056 1.30254 0
M  V30 14895 C 1394.98 3.11441 -1.75326 0
M  V30 14896 C 1394.64 3.12286 -3.25251 0
M  V30 14897 C 1393.31 3.12224 -3.66155 0
M  V30 14898 C 1395.66 3.0709 -4.21124 0
M  V30 14899 C 1392.99 3.0469 -5.01379 0
M  V30 14900 C 1395.34 3.01098 -5.56348 0
M  V30 14901 C 1394 2.99362 -5.96606 0
M  V30 14902 H 1393.27 0.627922 -0.39344 0
M  V30 14903 H 1395.92 1.13912 -1.53936 0
M  V30 14904 H 1394.22 3.72555 -1.21286 0
M  V30 14905 H 1395.92 3.67649 -1.60111 0
M  V30 14906 H 1392.51 3.13096 -2.92693 0
M  V30 14907 H 1396.69 3.06272 -3.90527 0
M  V30 14908 H 1391.95 3.01703 -5.31776 0
M  V30 14909 H 1396.12 2.96036 -6.30346 0
M  V30 14910 H 1393.75 2.93279 -7.0135 0
M  V30 14911 N 1395.33 1.05191 1.17357 0
M  V30 14912 C 1396.55 0.782373 1.91537 0
M  V30 14913 C 1396.97 -0.661935 1.76816 0
M  V30 14914 O 1396.33 -1.45221 1.10531 0
M  V30 14915 C 1396.38 1.15357 3.426 0
M  V30 14916 O 1396.1 2.54119 3.56869 0
M  V30 14917 C 1397.6 0.910167 4.33856 0
M  V30 14918 H 1394.82 0.284461 0.607719 0
M  V30 14919 H 1397.36 1.40259 1.48821 0
M  V30 14920 H 1395.52 0.578107 3.83062 0
M  V30 14921 H 1395.93 2.68668 4.50464 0
M  V30 14922 H 1397.41 1.21964 5.38358 0
M  V30 14923 H 1397.88 -0.154624 4.38928 0
M  V30 14924 H 1398.49 1.46947 3.99107 0
M  V30 14925 N 1396.8 -1.33791 0.83293 0
M  V30 14926 C 1397.74 -2.28148 0.219336 0
M  V30 14927 C 1398.75 -1.51477 -0.596529 0
M  V30 14928 O 1399.94 -1.73377 -0.424571 0
M  V30 14929 C 1397.04 -3.31373 -0.710305 0
M  V30 14930 C 1396.21 -4.37352 0.0649215 0
M  V30 14931 C 1395.27 -5.20279 -0.78716 0
M  V30 14932 O 1394.3 -5.68741 -0.228511 0
M  V30 14933 N 1395.5 -5.40973 -2.10544 0
M  V30 14934 H 1398.26 -2.81443 1.03004 0
M  V30 14935 H 1395.82 -1.46421 0.690831 0
M  V30 14936 H 1397.82 -3.83752 -1.28517 0
M  V30 14937 H 1396.39 -2.78398 -1.42173 0
M  V30 14938 H 1395.61 -3.85553 0.821144 0
M  V30 14939 H 1396.89 -5.05271 0.598199 0
M  V30 14940 H 1396.29 -5.03291 -2.58292 0
M  V30 14941 H 1394.85 -5.96432 -2.62893 0
M  V30 14942 N 1398.28 -0.588812 -1.46187 0
M  V30 14943 C 1399.25 0.130803 -2.28826 0
M  V30 14944 C 1400.25 0.813037 -1.38731 0
M  V30 14945 O 1401.44 0.664061 -1.61046 0
M  V30 14946 C 1398.57 1.19484 -3.19275 0
M  V30 14947 H 1399.76 -0.595514 -2.93928 0
M  V30 14948 H 1397.31 -0.347038 -1.52399 0
M  V30 14949 H 1398.05 1.95254 -2.58933 0
M  V30 14950 H 1397.83 0.710077 -3.85617 0
M  V30 14951 H 1399.32 1.69938 -3.81459 0
M  V30 14952 N 1399.76 1.54172 -0.326923 0
M  V30 14953 C 1400.69 2.20703 0.580137 0
M  V30 14954 C 1401.67 1.18523 1.11315 0
M  V30 14955 O 1402.86 1.47276 1.17652 0
M  V30 14956 C 1399.98 2.87137 1.79638 0
M  V30 14957 C 1399.03 4.03064 1.39432 0
M  V30 14958 S 1399.86 5.33785 0.428179 0
M  V30 14959 C 1401.02 6.03715 1.65163 0
M  V30 14960 H 1401.25 2.97296 0.0149964 0
M  V30 14961 H 1398.78 1.54 -0.111004 0
M  V30 14962 H 1400.74 3.26035 2.49423 0
M  V30 14963 H 1399.4 2.1034 2.33272 0
M  V30 14964 H 1398.6 4.48424 2.3007 0
M  V30 14965 H 1398.2 3.65858 0.776144 0
M  V30 14966 H 1400.49 6.26098 2.58858 0
M  V30 14967 H 1401.43 6.97156 1.24014 0
M  V30 14968 H 1401.84 5.33666 1.84014 0
M  V30 14969 N 1401.24 0.0551678 1.57503 0
M  V30 14970 C 1402.17 -0.953348 2.07332 0
M  V30 14971 C 1403.15 -1.30148 0.974699 0
M  V30 14972 O 1404.33 -1.41366 1.24692 0
M  V30 14973 C 1401.46 -2.26622 2.51715 0
M  V30 14974 C 1400.51 -2.07085 3.72851 0
M  V30 14975 S 1401.34 -1.34553 5.1832 0
M  V30 14976 C 1402.5 -2.67155 5.6602 0
M  V30 14977 H 1402.73 -0.529294 2.9255 0
M  V30 14978 H 1400.26 -0.157196 1.53598 0
M  V30 14979 H 1402.22 -3.02085 2.77948 0
M  V30 14980 H 1400.88 -2.66155 1.66795 0
M  V30 14981 H 1400.07 -3.04206 4.01839 0
M  V30 14982 H 1399.68 -1.39761 3.46905 0
M  V30 14983 H 1401.97 -3.63309 5.7185 0
M  V30 14984 H 1402.91 -2.42798 6.65173 0
M  V30 14985 H 1403.32 -2.73597 4.93766 0
M  V30 14986 N 1402.72 -1.56081 -0.218252 0
M  V30 14987 C 1403.95 -1.83069 -0.957574 0
M  V30 14988 C 1404.35 -0.6325 -1.78315 0
M  V30 14989 O 1403.7 0.408298 -1.79105 0
M  V30 14990 C 1403.76 -3.03835 -1.92157 0
M  V30 14991 C 1403.42 -4.38702 -1.2802 0
M  V30 14992 C 1404.42 -5.15585 -0.66846 0
M  V30 14993 C 1402.11 -4.85427 -1.29098 0
M  V30 14994 C 1404.1 -6.37355 -0.0760499 0
M  V30 14995 C 1401.79 -6.07138 -0.69473 0
M  V30 14996 C 1402.78 -6.82943 -0.0883201 0
M  V30 14997 O 1402.47 -8.02352 0.498648 0
M  V30 14998 H 1402.2 -0.612493 -0.286057 0
M  V30 14999 H 1404.76 -2.04021 -0.23759 0
M  V30 15000 H 1402.99 -2.78709 -2.68064 0
M  V30 15001 H 1404.68 -3.17666 -2.52672 0
M  V30 15002 H 1405.44 -4.80592 -0.652434 0
M  V30 15003 H 1401.32 -4.26395 -1.75238 0
M  V30 15004 H 1404.87 -6.96464 0.397893 0
M  V30 15005 H 1400.76 -6.41604 -0.70818 0
M  V30 15006 H 1401.53 -8.17555 0.393289 0
M  V30 15007 N 1404.2 0.485086 -1.49949 0
M  V30 15008 C 1405.44 1.23816 -1.60237 0
M  V30 15009 C 1405.77 1.9223 -0.296274 0
M  V30 15010 O 1405.03 1.82095 0.716939 0
M  V30 15011 C 1405.32 2.31573 -2.72229 0
M  V30 15012 C 1404.99 1.80508 -4.13192 0
M  V30 15013 C 1403.65 1.66301 -4.5155 0
M  V30 15014 C 1406 1.42471 -5.0135 0
M  V30 15015 C 1403.33 1.1246 -5.75821 0
M  V30 15016 C 1405.68 0.900757 -6.26154 0
M  V30 15017 C 1404.35 0.74521 -6.63327 0
M  V30 15018 H 1403.62 0.453075 -0.586348 0
M  V30 15019 H 1406.27 0.536349 -1.83836 0
M  V30 15020 H 1404.57 3.07606 -2.42663 0
M  V30 15021 H 1406.27 2.89574 -2.77395 0
M  V30 15022 H 1402.86 1.92529 -3.82924 0
M  V30 15023 H 1407.04 1.52287 -4.72358 0
M  V30 15024 H 1402.3 0.991422 -6.03308 0
M  V30 15025 H 1406.47 0.5973 -6.93834 0
M  V30 15026 H 1404.1 0.325838 -7.59501 0
M  V30 15027 N 1405.67 1.39291 0.737279 0
M  V30 15028 C 1406.9 1.39844 1.53162 0
M  V30 15029 C 1407.32 -0.00568546 1.88099 0
M  V30 15030 O 1406.68 -0.992085 1.51748 0
M  V30 15031 C 1406.73 2.27577 2.79716 0
M  V30 15032 O 1405.83 1.70408 3.75546 0
M  V30 15033 H 1405.17 0.476314 0.462624 0
M  V30 15034 H 1407.7 1.83258 0.909819 0
M  V30 15035 H 1407.71 2.42009 3.28475 0
M  V30 15036 H 1406.39 3.29621 2.53619 0
M  V30 15037 H 1404.97 1.65206 3.34307 0
M  V30 15038 N 1407.15 -0.967221 1.24429 0
M  V30 15039 C 1408.38 -1.74267 1.10972 0
M  V30 15040 C 1408.79 -1.8611 -0.340522 0
M  V30 15041 O 1408.13 -1.34915 -1.24674 0
M  V30 15042 C 1408.19 -3.18035 1.67613 0
M  V30 15043 C 1407.86 -3.29661 3.16501 0
M  V30 15044 C 1408.86 -3.14952 4.13644 0
M  V30 15045 C 1406.54 -3.53886 3.56469 0
M  V30 15046 C 1408.53 -3.24294 5.48737 0
M  V30 15047 C 1406.22 -3.62866 4.91703 0
M  V30 15048 C 1407.22 -3.48082 5.87646 0
M  V30 15049 O 1406.91 -3.56719 7.20421 0
M  V30 15050 H 1406.64 -0.553293 0.388384 0
M  V30 15051 H 1409.19 -1.22295 1.65025 0
M  V30 15052 H 1407.42 -3.71314 1.07994 0
M  V30 15053 H 1409.11 -3.7739 1.49438 0
M  V30 15054 H 1409.88 -2.9612 3.84107 0
M  V30 15055 H 1405.76 -3.64459 2.82295 0
M  V30 15056 H 1409.3 -3.12672 6.23604 0
M  V30 15057 H 1405.2 -3.81212 5.20911 0
M  V30 15058 H 1405.97 -3.73431 7.28349 0
M  V30 15059 N 1408.63 -1.05812 -1.16797 0
M  V30 15060 C 1409.59 -0.668766 -2.19226 0
M  V30 15061 C 1410.59 0.28299 -1.5829 0
M  V30 15062 O 1411.78 0.0660233 -1.74075 0
M  V30 15063 C 1408.91 0.0167379 -3.40896 0
M  V30 15064 H 1410.11 -1.57543 -2.55187 0
M  V30 15065 H 1407.66 -0.852753 -1.30988 0
M  V30 15066 H 1408.4 0.936382 -3.10487 0
M  V30 15067 H 1408.18 -0.667576 -3.86375 0
M  V30 15068 H 1409.67 0.275041 -4.16693 0
M  V30 15069 N 1410.11 1.33347 -0.840014 0
M  V30 15070 C 1411.36 1.97354 -0.435412 0
M  V30 15071 C 1411.68 1.66866 1.009 0
M  V30 15072 O 1410.95 0.968186 1.70303 0
M  V30 15073 H 1409.53 0.730096 -0.158017 0
M  V30 15074 H 1412.19 1.6269 -1.07322 0
M  V30 15075 H 1411.28 3.0688 -0.56841 0
M  V30 15076 N 1411.59 0.596556 1.45873 0
M  V30 15077 C 1412.83 0.090321 2.042 0
M  V30 15078 C 1413.19 -1.25123 1.45631 0
M  V30 15079 O 1414.39 -1.84752 1.95243 0
M  V30 15080 C 1412.66 0.0400377 3.57378 0
M  V30 15081 S 1414.22 -0.40661 4.36912 0
M  V30 15082 H 1411.04 0.0441976 0.709625 0
M  V30 15083 H 1413.64 0.792175 1.78731 0
M  V30 15084 H 1412.34 1.02013 3.97519 0
M  V30 15085 H 1411.88 -0.684156 3.87405 0
M  V30 15086 H 1413.89 -1.65849 4.67663 0
M  V30 15087 N 1413.06 -1.53996 0.335095 0
M  V30 15088 C 1414.31 -2.00772 -0.263997 0
M  V30 15089 C 1414.64 -1.22309 -1.51231 0
M  V30 15090 O 1413.89 -0.296427 -1.93442 0
M  V30 15091 C 1414.19 -3.51769 -0.631907 0
M  V30 15092 C 1413.86 -4.47908 0.518553 0
M  V30 15093 C 1412.52 -4.73912 0.834297 0
M  V30 15094 C 1414.87 -5.04964 1.29078 0
M  V30 15095 C 1412.2 -5.54228 1.92478 0
M  V30 15096 C 1414.55 -5.86469 2.37144 0
M  V30 15097 C 1413.22 -6.1077 2.69288 0
M  V30 15098 H 1412.49 -0.734676 -0.0966033 0
M  V30 15099 H 1415.13 -1.85862 0.46126 0
M  V30 15100 H 1413.44 -3.64466 -1.43776 0
M  V30 15101 H 1415.14 -3.85412 -1.10719 0
M  V30 15102 H 1411.73 -4.27796 0.262392 0
M  V30 15103 H 1415.91 -4.84846 1.0601 0
M  V30 15104 H 1411.17 -5.71285 2.17816 0
M  V30 15105 H 1415.34 -6.29695 2.97417 0
M  V30 15106 H 1412.97 -6.72792 3.53913 0
M  V30 15107 N 1414.54 -0.0635198 -1.57472 0
M  V30 15108 C 1415.96 0.293084 -1.56886 0
M  V30 15109 C 1416.16 1.70603 -1.07224 0
M  V30 15110 O 1415.21 2.41584 -0.734388 0
M  V30 15111 C 1416.53 0.110286 -3.00498 0
M  V30 15112 C 1418.07 0.180453 -3.12479 0
M  V30 15113 C 1418.55 0.0260354 -4.57993 0
M  V30 15114 N 1420.04 0.0819109 -4.63128 0
M  V30 15115 C 1420.78 -0.0132764 -5.73398 0
M  V30 15116 N 1420.27 -0.161514 -6.92612 0
M  V30 15117 N 1422.06 0.0431948 -5.62083 0
M  V30 15118 H 1414.22 -0.98706 -1.88072 0
M  V30 15119 H 1416.48 -0.384232 -0.866643 0
M  V30 15120 H 1416.18 -0.864378 -3.40913 0
M  V30 15121 H 1416.06 0.866117 -3.67122 0
M  V30 15122 H 1418.45 1.1456 -2.71956 0
M  V30 15123 H 1418.53 -0.606342 -2.4851 0
M  V30 15124 H 1418.17 -0.935839 -4.99204 0
M  V30 15125 H 1418.1 0.832131 -5.19984 0
M  V30 15126 H 1420.59 0.195229 -3.77395 0
M  V30 15127 H 1420.9 -0.226517 -7.72468 0
M  V30 15128 H 1419.25 -0.196766 -6.94721 0
M  V30 15129 H 1422.44 0.157648 -4.67834 0
M  V30 15130 H 1422.61 -0.0344435 -6.47991 0
M  V30 15131 N 1416.02 1.56195 0.209972 0
M  V30 15132 C 1417.27 1.79745 0.932638 0
M  V30 15133 C 1417.59 0.634252 1.83868 0
M  V30 15134 O 1416.85 -0.380798 1.91959 0
M  V30 15135 C 1417.15 3.09154 1.79328 0
M  V30 15136 C 1416.81 4.38754 1.03949 0
M  V30 15137 C 1415.48 4.73965 0.831308 0
M  V30 15138 C 1417.83 5.18718 0.508031 0
M  V30 15139 C 1415.16 5.86646 0.0799547 0
M  V30 15140 C 1417.51 6.32182 -0.230037 0
M  V30 15141 C 1416.17 6.65986 -0.449366 0
M  V30 15142 H 1415.44 0.657732 0.341276 0
M  V30 15143 H 1418.09 1.90453 0.199998 0
M  V30 15144 H 1416.39 2.93618 2.59414 0
M  V30 15145 H 1418.09 3.24578 2.35478 0
M  V30 15146 H 1414.68 4.11114 1.21174 0
M  V30 15147 H 1418.87 4.91941 0.656306 0
M  V30 15148 H 1414.12 6.11318 -0.100092 0
M  V30 15149 H 1418.3 6.93367 -0.649296 0
M  V30 15150 H 1415.92 7.53142 -1.03349 0
M  V30 15151 N 1417.5 -0.477127 1.50204 0
M  V30 15152 C 1418.75 -1.22722 1.60573 0
M  V30 15153 C 1419.07 -1.92595 0.305326 0
M  V30 15154 O 1418.34 -1.83836 -0.676842 0
M  V30 15155 H 1416.92 -0.455973 0.591691 0
M  V30 15156 H 1419.58 -0.550915 1.86952 0
M  V30 15157 H 1418.67 -1.97837 2.41385 0
M  V30 15158 N 1418.98 -1.3968 -0.729882 0
M  V30 15159 C 1419.94 -1.38577 -1.82562 0
M  V30 15160 C 1420.94 -0.281994 -1.58308 0
M  V30 15161 O 1422.13 -0.540165 -1.65614 0
M  V30 15162 C 1419.26 -1.16343 -3.20433 0
M  V30 15163 H 1420.45 -2.36086 -1.84942 0
M  V30 15164 H 1418.01 -1.25319 -0.934063 0
M  V30 15165 H 1418.74 -0.195372 -3.23711 0
M  V30 15166 H 1418.53 -1.96282 -3.39435 0
M  V30 15167 H 1420.02 -1.18325 -4.00486 0
M  V30 15168 N 1420.45 0.960609 -1.2494 0
M  V30 15169 C 1421.68 1.73676 -1.11894 0
M  V30 15170 C 1422.09 1.86288 0.330648 0
M  V30 15171 O 1421.44 1.35575 1.23957 0
M  V30 15172 C 1421.5 3.17142 -1.69297 0
M  V30 15173 C 1421.16 3.27978 -3.18244 0
M  V30 15174 C 1422.16 3.12754 -4.15308 0
M  V30 15175 C 1419.84 3.51991 -3.5834 0
M  V30 15176 C 1421.84 3.21379 -5.50449 0
M  V30 15177 C 1419.52 3.60253 -4.9362 0
M  V30 15178 C 1420.52 3.44961 -5.89484 0
M  V30 15179 O 1420.21 3.52893 -7.22303 0
M  V30 15180 H 1419.94 0.551226 -0.391313 0
M  V30 15181 H 1422.5 1.21418 -1.65671 0
M  V30 15182 H 1420.73 3.70736 -1.09961 0
M  V30 15183 H 1422.42 3.76592 -1.51437 0
M  V30 15184 H 1423.18 2.94079 -3.85672 0
M  V30 15185 H 1419.06 3.62957 -2.84224 0
M  V30 15186 H 1422.6 3.0936 -6.25254 0
M  V30 15187 H 1418.5 3.78444 -5.22925 0
M  V30 15188 H 1419.27 3.69563 -7.30319 0
M  V30 15189 N 1421.93 1.0643 1.16234 0
M  V30 15190 C 1422.86 0.697605 2.22836 0
M  V30 15191 C 1423.84 -0.310563 1.67241 0
M  V30 15192 O 1425.03 -0.185385 1.93313 0
M  V30 15193 C 1422.16 0.0847097 3.47197 0
M  V30 15194 C 1421.11 1.019 4.15693 0
M  V30 15195 C 1420.44 0.269339 5.34021 0
M  V30 15196 C 1421.74 2.34861 4.66516 0
M  V30 15197 H 1423.43 1.58883 2.53765 0
M  V30 15198 H 1420.98 0.765388 1.21975 0
M  V30 15199 H 1422.93 -0.1837 4.20999 0
M  V30 15200 H 1421.66 -0.84154 3.15572 0
M  V30 15201 H 1420.31 1.27218 3.43818 0
M  V30 15202 H 1419.96 -0.660072 4.9865 0
M  V30 15203 H 1419.66 0.892001 5.8079 0
M  V30 15204 H 1421.19 0.00850775 6.10599 0
M  V30 15205 H 1422.6 2.13922 5.31893 0
M  V30 15206 H 1421 2.92637 5.23912 0
M  V30 15207 H 1422.07 2.97834 3.82653 0
M  V30 15208 N 1423.41 -1.329 0.847073 0
M  V30 15209 C 1424.66 -1.97803 0.447417 0
M  V30 15210 C 1424.99 -1.6691 -0.9927 0
M  V30 15211 O 1424.26 -0.953315 -1.69535 0
M  V30 15212 C 1424.55 -3.53657 0.678135 0
M  V30 15213 C 1424.4 -3.94207 2.16612 0
M  V30 15214 C 1425.72 -4.39909 0.129589 0
M  V30 15215 H 1422.84 -0.718514 0.164034 0
M  V30 15216 H 1425.48 -1.57407 1.0641 0
M  V30 15217 H 1423.63 -3.88198 0.153222 0
M  V30 15218 H 1425.3 -3.69883 2.75653 0
M  V30 15219 H 1423.55 -3.43641 2.64752 0
M  V30 15220 H 1424.22 -5.02791 2.27827 0
M  V30 15221 H 1426.69 -4.12061 0.578371 0
M  V30 15222 H 1425.57 -5.47963 0.320648 0
M  V30 15223 H 1425.83 -4.31391 -0.967167 0
M  V30 15224 N 1424.89 -0.604284 -1.45555 0
M  V30 15225 C 1425.85 0.106526 -2.28952 0
M  V30 15226 C 1426.85 0.798277 -1.39586 0
M  V30 15227 O 1428.04 0.646943 -1.61741 0
M  V30 15228 C 1425.17 1.16091 -3.20524 0
M  V30 15229 H 1426.37 -0.626655 -2.9328 0
M  V30 15230 H 1423.92 -0.363183 -1.52022 0
M  V30 15231 H 1424.65 1.92496 -2.6099 0
M  V30 15232 H 1424.44 0.669137 -3.86348 0
M  V30 15233 H 1425.93 1.65882 -3.8324 0
M  V30 15234 N 1426.37 1.53816 -0.343257 0
M  V30 15235 C 1427.32 2.21763 0.529635 0
M  V30 15236 C 1428.3 1.20494 1.06631 0
M  V30 15237 O 1429.49 1.46041 1.00006 0
M  V30 15238 C 1426.62 2.99372 1.68022 0
M  V30 15239 C 1425.71 4.07999 1.1575 0
M  V30 15240 N 1426.1 5.04546 0.355979 0
M  V30 15241 C 1424.4 4.22304 1.43442 0
M  V30 15242 C 1425.1 5.81655 0.0723481 0
M  V30 15243 N 1424.07 5.39531 0.66391 0
M  V30 15244 H 1427.88 2.93763 -0.0898087 0
M  V30 15245 H 1425.39 1.61705 -0.150107 0
M  V30 15246 H 1427.39 3.4655 2.31752 0
M  V30 15247 H 1426.05 2.28899 2.30294 0
M  V30 15248 H 1427.06 5.179 -0.00291228 0
M  V30 15249 H 1423.73 3.63051 2.06155 0
M  V30 15250 H 1425.12 6.69442 -0.574192 0
M  V30 15251 N 1427.84 0.0718701 1.57436 0
M  V30 15252 C 1428.79 -0.895335 2.12726 0
M  V30 15253 C 1429.76 -1.29528 1.03979 0
M  V30 15254 O 1430.95 -1.38113 1.31642 0
M  V30 15255 C 1428.09 -2.15755 2.6934 0
M  V30 15256 C 1427.2 -1.81023 3.92243 0
M  V30 15257 C 1426.33 -3.01856 4.371 0
M  V30 15258 C 1425.37 -2.63141 5.52651 0
M  V30 15259 N 1424.51 -3.76734 5.92466 0
M  V30 15260 H 1429.35 -0.416964 2.95068 0
M  V30 15261 H 1426.89 -0.194165 1.45813 0
M  V30 15262 H 1428.85 -2.89642 3.00272 0
M  V30 15263 H 1427.48 -2.61132 1.89762 0
M  V30 15264 H 1426.53 -0.971983 3.67773 0
M  V30 15265 H 1427.84 -1.4854 4.76169 0
M  V30 15266 H 1426.99 -3.84022 4.69694 0
M  V30 15267 H 1425.73 -3.37533 3.52027 0
M  V30 15268 H 1424.74 -1.79397 5.19708 0
M  V30 15269 H 1425.96 -2.28635 6.39455 0
M  V30 15270 H 1423.91 -4.12173 5.10343 0
M  V30 15271 H 1423.83 -3.48019 6.71132 0
M  V30 15272 H 1425.09 -4.59479 6.29682 0
M  V30 15273 N 1429.32 -1.56304 -0.201686 0
M  V30 15274 C 1430.25 -1.97046 -1.25281 0
M  V30 15275 C 1431.23 -0.841458 -1.47829 0
M  V30 15276 O 1432.42 -1.10529 -1.59678 0
M  V30 15277 C 1429.55 -2.30429 -2.59845 0
M  V30 15278 C 1428.5 -3.46006 -2.5192 0
M  V30 15279 C 1427.83 -3.65047 -3.90697 0
M  V30 15280 C 1429.13 -4.80391 -2.04992 0
M  V30 15281 H 1430.82 -2.85099 -0.914272 0
M  V30 15282 H 1428.37 -1.37166 -0.438359 0
M  V30 15283 H 1430.32 -2.57525 -3.33555 0
M  V30 15284 H 1429.05 -1.39251 -2.95426 0
M  V30 15285 H 1427.7 -3.18991 -1.80667 0
M  V30 15286 H 1427.35 -2.71211 -4.2362 0
M  V30 15287 H 1427.05 -4.42796 -3.86271 0
M  V30 15288 H 1428.58 -3.94512 -4.66039 0
M  V30 15289 H 1429.99 -5.06561 -2.68456 0
M  V30 15290 H 1428.39 -5.61563 -2.11582 0
M  V30 15291 H 1429.46 -4.74416 -1.00288 0
M  V30 15292 N 1430.8 0.469154 -1.50455 0
M  V30 15293 C 1431.73 1.58574 -1.64102 0
M  V30 15294 C 1432.71 1.5507 -0.489095 0
M  V30 15295 O 1433.9 1.74664 -0.708851 0
M  V30 15296 C 1431.02 2.97151 -1.62538 0
M  V30 15297 C 1430.07 3.18803 -2.83315 0
M  V30 15298 S 1430.9 2.98496 -4.4459 0
M  V30 15299 C 1432.06 4.39412 -4.45722 0
M  V30 15300 H 1432.29 1.46759 -2.58552 0
M  V30 15301 H 1429.82 0.656629 -1.39742 0
M  V30 15302 H 1431.78 3.77044 -1.62321 0
M  V30 15303 H 1430.44 3.06355 -0.693205 0
M  V30 15304 H 1429.64 4.20044 -2.7853 0
M  V30 15305 H 1429.24 2.46685 -2.81109 0
M  V30 15306 H 1431.53 5.32078 -4.19404 0
M  V30 15307 H 1432.47 4.49239 -5.47348 0
M  V30 15308 H 1432.88 4.2158 -3.75407 0
M  V30 15309 N 1432.28 1.40065 0.722464 0
M  V30 15310 C 1433.5 1.4146 1.5167 0
M  V30 15311 C 1433.93 0.0142653 1.88095 0
M  V30 15312 O 1433.29 -0.975934 1.52791 0
M  V30 15313 C 1433.33 2.30531 2.77287 0
M  V30 15314 O 1432.44 1.74382 3.73717 0
M  V30 15315 H 1431.78 0.481194 0.457546 0
M  V30 15316 H 1434.31 1.84213 0.890331 0
M  V30 15317 H 1434.32 2.45479 3.25889 0
M  V30 15318 H 1432.99 3.32292 2.50109 0
M  V30 15319 H 1431.57 1.68743 3.32536 0
M  V30 15320 N 1433.76 -0.95397 1.25448 0
M  V30 15321 C 1435 -1.69866 1.10235 0
M  V30 15322 C 1435.33 -1.91204 -0.356552 0
M  V30 15323 O 1434.59 -1.4811 -1.27914 0
M  V30 15324 C 1434.89 -3.08613 1.80258 0
M  V30 15325 C 1434.55 -3.07072 3.30178 0
M  V30 15326 C 1433.21 -3.0636 3.71076 0
M  V30 15327 C 1435.57 -3.00351 4.25956 0
M  V30 15328 C 1432.89 -2.96675 5.06163 0
M  V30 15329 C 1435.25 -2.92209 5.61067 0
M  V30 15330 C 1433.91 -2.89832 6.01293 0
M  V30 15331 H 1433.18 -0.621583 0.40338 0
M  V30 15332 H 1435.83 -1.11448 1.55729 0
M  V30 15333 H 1434.13 -3.70578 1.27197 0
M  V30 15334 H 1435.83 -3.65055 1.6594 0
M  V30 15335 H 1432.42 -3.084 2.97637 0
M  V30 15336 H 1436.6 -3.0002 3.9535 0
M  V30 15337 H 1431.86 -2.93204 5.36508 0
M  V30 15338 H 1436.03 -2.8597 6.34976 0
M  V30 15339 H 1433.66 -2.82084 7.05927 0
M  V30 15340 N 1435.24 -1.07045 -1.15668 0
M  V30 15341 C 1436.15 -0.699332 -2.23934 0
M  V30 15342 C 1437.16 0.288036 -1.71599 0
M  V30 15343 O 1438.34 0.135447 -2.00944 0
M  V30 15344 C 1435.4 -0.0994775 -3.46557 0
M  V30 15345 C 1434.46 -1.13968 -4.13896 0
M  V30 15346 C 1433.7 -0.56836 -5.30665 0
M  V30 15347 O 1433.92 0.616556 -5.67058 0
M  V30 15348 O 1432.85 -1.31174 -5.87432 0
M  V30 15349 H 1436.68 -1.60212 -2.58003 0
M  V30 15350 H 1434.26 -0.843202 -1.23331 0
M  V30 15351 H 1436.15 0.23293 -4.20756 0
M  V30 15352 H 1434.82 0.776684 -3.14244 0
M  V30 15353 H 1433.73 -1.5244 -3.41633 0
M  V30 15354 H 1435.06 -1.98764 -4.50282 0
M  V30 15355 N 1436.71 1.32449 -0.85411 0
M  V30 15356 C 1437.99 1.91902 -0.378533 0
M  V30 15357 C 1438.37 1.77811 1.13782 0
M  V30 15358 O 1437.72 1.17588 1.95922 0
M  V30 15359 C 1437.93 3.38683 -0.842299 0
M  V30 15360 C 1439.28 4.15817 -0.859161 0
M  V30 15361 O 1440.3 3.47399 -0.786901 0
M  V30 15362 O 1439.16 5.37985 -0.960933 0
M  V30 15363 H 1436.25 0.819614 -0.110284 0
M  V30 15364 H 1438.8 1.41222 -0.940974 0
M  V30 15365 H 1437.57 3.4288 -1.88544 0
M  V30 15366 H 1437.19 3.96767 -0.257278 0
M  V30 15367 N 1438.19 0.611994 1.45232 0
M  V30 15368 C 1439.44 0.109073 2.02506 0
M  V30 15369 C 1439.77 -1.25876 1.47881 0
M  V30 15370 O 1439.05 -1.83131 0.65524 0
M  V30 15371 C 1439.33 0.0749288 3.60022 0
M  V30 15372 C 1439.18 1.47374 4.24972 0
M  V30 15373 C 1440.5 -0.610602 4.35844 0
M  V30 15374 H 1437.62 0.0411101 0.735853 0
M  V30 15375 H 1440.26 0.78481 1.73034 0
M  V30 15376 H 1438.41 -0.500511 3.85262 0
M  V30 15377 H 1440.08 2.0966 4.10902 0
M  V30 15378 H 1438.33 2.03319 3.83202 0
M  V30 15379 H 1439 1.40206 5.33897 0
M  V30 15380 H 1441.47 -0.121445 4.15923 0
M  V30 15381 H 1440.35 -0.603614 5.45571 0
M  V30 15382 H 1440.61 -1.6775 4.09038 0
M  V30 15383 N 1439.67 -1.53632 0.351409 0
M  V30 15384 C 1440.6 -2.28217 -0.49391 0
M  V30 15385 C 1441.58 -1.30085 -1.09599 0
M  V30 15386 O 1442.77 -1.58938 -1.1159 0
M  V30 15387 C 1439.9 -3.06085 -1.64102 0
M  V30 15388 C 1438.85 -4.11786 -1.16689 0
M  V30 15389 C 1438.18 -4.77654 -2.40314 0
M  V30 15390 C 1439.48 -5.21644 -0.261742 0
M  V30 15391 H 1441.17 -2.99125 0.1283 0
M  V30 15392 H 1438.72 -1.43861 0.0631462 0
M  V30 15393 H 1440.67 -3.57003 -2.2389 0
M  V30 15394 H 1439.39 -2.32842 -2.29025 0
M  V30 15395 H 1438.05 -3.61792 -0.591784 0
M  V30 15396 H 1437.7 -4.00997 -3.03661 0
M  V30 15397 H 1437.4 -5.49072 -2.09268 0
M  V30 15398 H 1438.92 -5.3136 -3.00813 0
M  V30 15399 H 1440.34 -5.6815 -0.766689 0
M  V30 15400 H 1438.73 -6.00085 -0.0428132 0
M  V30 15401 H 1439.8 -4.79821 0.699999 0
M  V30 15402 N 1441.15 -0.0802183 -1.57396 0
M  V30 15403 C 1442.08 0.881426 -2.16225 0
M  V30 15404 C 1443.06 1.30459 -1.09154 0
M  V30 15405 O 1444.24 1.37413 -1.37227 0
M  V30 15406 C 1441.37 2.14599 -2.73065 0
M  V30 15407 C 1440.33 1.86195 -3.85377 0
M  V30 15408 C 1439.65 3.19354 -4.28856 0
M  V30 15409 C 1440.95 1.16059 -5.09242 0
M  V30 15410 H 1442.65 0.391325 -2.96832 0
M  V30 15411 H 1440.19 0.186785 -1.42783 0
M  V30 15412 H 1442.15 2.82297 -3.12868 0
M  V30 15413 H 1440.87 2.65866 -1.89691 0
M  V30 15414 H 1439.53 1.209 -3.46091 0
M  V30 15415 H 1439.18 3.68479 -3.42392 0
M  V30 15416 H 1438.88 3.01137 -5.04569 0
M  V30 15417 H 1440.4 3.88235 -4.71281 0
M  V30 15418 H 1441.82 1.7384 -5.46308 0
M  V30 15419 H 1440.21 1.08072 -5.90288 0
M  V30 15420 H 1441.28 0.14098 -4.84695 0
M  V30 15421 N 1442.63 1.56409 0.193394 0
M  V30 15422 C 1443.87 1.80991 0.914875 0
M  V30 15423 C 1444.2 0.654538 1.82837 0
M  V30 15424 O 1443.48 -0.344816 1.91419 0
M  V30 15425 C 1443.76 3.15841 1.72964 0
M  V30 15426 C 1443.62 4.41873 0.840748 0
M  V30 15427 C 1444.93 3.474 2.70188 0
M  V30 15428 H 1442.05 0.658408 0.331161 0
M  V30 15429 H 1444.7 1.89125 0.182161 0
M  V30 15430 H 1442.85 3.09038 2.35431 0
M  V30 15431 H 1444.52 4.60723 0.230654 0
M  V30 15432 H 1442.76 4.33549 0.147558 0
M  V30 15433 H 1443.43 5.32728 1.44586 0
M  V30 15434 H 1445.91 3.54513 2.17852 0
M  V30 15435 H 1444.78 4.42872 3.24278 0
M  V30 15436 H 1445.04 2.7098 3.49317 0
M  V30 15437 N 1444.1 -0.461169 1.50702 0
M  V30 15438 C 1445.35 -1.21251 1.62186 0
M  V30 15439 C 1445.68 -1.91735 0.326818 0
M  V30 15440 O 1444.93 -1.83212 -0.687879 0
M  V30 15441 C 1445.23 -2.27213 2.75879 0
M  V30 15442 C 1444.9 -1.73912 4.16011 0
M  V30 15443 C 1443.56 -1.59097 4.54138 0
M  V30 15444 C 1445.91 -1.34477 5.03553 0
M  V30 15445 C 1443.24 -1.03285 5.77537 0
M  V30 15446 C 1445.59 -0.801027 6.27508 0
M  V30 15447 C 1444.26 -0.639586 6.64429 0
M  V30 15448 H 1443.53 -0.443689 0.593482 0
M  V30 15449 H 1446.17 -0.507035 1.84666 0
M  V30 15450 H 1444.48 -3.03707 2.47526 0
M  V30 15451 H 1446.18 -2.85124 2.81967 0
M  V30 15452 H 1442.77 -1.86413 3.85938 0
M  V30 15453 H 1446.95 -1.44753 4.74721 0
M  V30 15454 H 1442.21 -0.895316 6.04809 0
M  V30 15455 H 1446.38 -0.486842 6.94696 0
M  V30 15456 H 1444.01 -0.204966 7.59924 0
M  V30 15457 N 1445.58 -1.40446 -0.715026 0
M  V30 15458 C 1446.81 -1.42263 -1.50917 0
M  V30 15459 C 1447.23 -0.0242402 -1.88084 0
M  V30 15460 O 1446.59 0.967817 -1.53307 0
M  V30 15461 C 1446.64 -2.31998 -2.7606 0
M  V30 15462 O 1445.74 -1.76361 -3.72787 0
M  V30 15463 H 1445.08 -0.483614 -0.454988 0
M  V30 15464 H 1447.61 -1.84682 -0.880549 0
M  V30 15465 H 1447.62 -2.47204 -3.24583 0
M  V30 15466 H 1446.3 -3.33614 -2.48343 0
M  V30 15467 H 1444.87 -1.70504 -3.31636 0
M  V30 15468 N 1447.06 0.947303 -1.25952 0
M  V30 15469 C 1448.02 2.02667 -1.07046 0
M  V30 15470 C 1449.02 1.60787 -0.0208127 0
M  V30 15471 O 1450.21 1.72193 -0.263668 0
M  V30 15472 C 1447.34 3.35087 -0.626885 0
M  V30 15473 H 1448.54 2.20871 -2.0287 0
M  V30 15474 H 1446.09 1.12541 -1.08462 0
M  V30 15475 H 1446.83 3.22579 0.333621 0
M  V30 15476 H 1446.61 3.66835 -1.38473 0
M  V30 15477 H 1448.1 4.14397 -0.516264 0
M  V30 15478 N 1448.54 1.07657 1.15099 0
M  V30 15479 C 1449.78 0.802796 1.86234 0
M  V30 15480 C 1450.12 -0.669555 1.82293 0
M  V30 15481 O 1449.39 -1.49162 1.24823 0
M  V30 15482 C 1449.68 1.3156 3.35208 0
M  V30 15483 C 1449.53 2.85272 3.47764 0
M  V30 15484 C 1450.85 0.934641 4.30061 0
M  V30 15485 H 1447.97 0.293099 0.676212 0
M  V30 15486 H 1450.61 1.33488 1.35207 0
M  V30 15487 H 1448.76 0.86298 3.78794 0
M  V30 15488 H 1450.43 3.38847 3.13018 0
M  V30 15489 H 1448.67 3.23316 2.89222 0
M  V30 15490 H 1449.34 3.16223 4.52446 0
M  V30 15491 H 1451.82 1.3247 3.9445 0
M  V30 15492 H 1450.7 1.32074 5.32774 0
M  V30 15493 H 1450.96 -0.159122 4.41814 0
M  V30 15494 N 1450.02 -1.31994 0.861122 0
M  V30 15495 C 1451.26 -1.97317 0.468371 0
M  V30 15496 C 1451.6 -1.67954 -0.974941 0
M  V30 15497 O 1450.87 -0.971243 -1.68514 0
M  V30 15498 C 1451.15 -3.52918 0.715607 0
M  V30 15499 C 1451.01 -3.91888 2.20781 0
M  V30 15500 C 1452.33 -4.39747 0.17624 0
M  V30 15501 H 1449.44 -0.716733 0.171646 0
M  V30 15502 H 1452.09 -1.56269 1.08074 0
M  V30 15503 H 1450.24 -3.88013 0.194387 0
M  V30 15504 H 1451.91 -3.66938 2.7956 0
M  V30 15505 H 1450.15 -3.40813 2.68382 0
M  V30 15506 H 1450.82 -5.00346 2.33147 0
M  V30 15507 H 1453.3 -4.11424 0.622043 0
M  V30 15508 H 1452.17 -5.47592 0.378748 0
M  V30 15509 H 1452.44 -4.32393 -0.921358 0
M  V30 15510 N 1451.49 -0.619688 -1.44906 0
M  V30 15511 C 1452.74 -0.119633 -2.02146 0
M  V30 15512 C 1453.07 1.25432 -1.48651 0
M  V30 15513 O 1452.32 1.84372 -0.656155 0
M  V30 15514 C 1452.62 -0.0432891 -3.57374 0
M  V30 15515 C 1452.29 -1.35451 -4.30074 0
M  V30 15516 C 1450.95 -1.71365 -4.49653 0
M  V30 15517 C 1453.3 -2.22053 -4.71532 0
M  V30 15518 C 1450.63 -2.93611 -5.07946 0
M  V30 15519 C 1452.98 -3.43559 -5.31178 0
M  V30 15520 C 1451.65 -3.7971 -5.48977 0
M  V30 15521 H 1450.92 -0.0437769 -0.739706 0
M  V30 15522 H 1453.56 -0.803722 -1.73818 0
M  V30 15523 H 1451.87 0.72412 -3.8505 0
M  V30 15524 H 1453.57 0.359964 -3.99381 0
M  V30 15525 H 1450.16 -1.06499 -4.15158 0
M  V30 15526 H 1454.34 -1.95603 -4.56129 0
M  V30 15527 H 1449.6 -3.21712 -5.19915 0
M  V30 15528 H 1453.77 -4.10906 -5.62254 0
M  V30 15529 H 1451.4 -4.7452 -5.93915 0
M  V30 15530 N 1452.97 1.53444 -0.359552 0
M  V30 15531 C 1454.22 2.00769 0.231564 0
M  V30 15532 C 1454.54 1.2487 1.49775 0
M  V30 15533 O 1453.81 0.360284 1.92558 0
M  V30 15534 H 1452.39 0.741732 0.0885581 0
M  V30 15535 H 1455.05 1.88785 -0.484397 0
M  V30 15536 H 1454.15 3.0865 0.462789 0
M  V30 15537 N 1454.45 0.0885642 1.57351 0
M  V30 15538 C 1455.41 -0.858178 2.12528 0
M  V30 15539 C 1456.41 -1.21522 1.05304 0
M  V30 15540 O 1457.6 -1.14573 1.3122 0
M  V30 15541 C 1454.74 -2.15619 2.64048 0
M  V30 15542 H 1455.93 -0.37918 2.97493 0
M  V30 15543 H 1453.48 -0.160354 1.55475 0
M  V30 15544 H 1454.22 -2.68018 1.82584 0
M  V30 15545 H 1454 -1.90995 3.42437 0
M  V30 15546 H 1455.49 -2.83359 3.06753 0
M  V30 15547 N 1455.93 -1.56509 -0.185096 0
M  V30 15548 C 1456.86 -1.90414 -1.25768 0
M  V30 15549 C 1457.84 -0.765349 -1.43461 0
M  V30 15550 O 1459.02 -1.01733 -1.5869 0
M  V30 15551 C 1456.15 -2.14307 -2.62279 0
M  V30 15552 C 1455.2 -3.37005 -2.61399 0
M  V30 15553 S 1456.03 -4.91816 -2.11843 0
M  V30 15554 C 1457.19 -5.18787 -3.50158 0
M  V30 15555 H 1457.42 -2.81092 -0.968212 0
M  V30 15556 H 1454.95 -1.49418 -0.389046 0
M  V30 15557 H 1456.91 -2.28754 -3.40855 0
M  V30 15558 H 1455.57 -1.24361 -2.88432 0
M  V30 15559 H 1454.76 -3.5088 -3.618 0
M  V30 15560 H 1454.37 -3.21603 -1.90912 0
M  V30 15561 H 1456.66 -5.0992 -4.4608 0
M  V30 15562 H 1457.6 -6.20491 -3.41169 0
M  V30 15563 H 1458.01 -4.46394 -3.45533 0
M  V30 15564 N 1457.41 0.45317 -1.50944 0
M  V30 15565 C 1458.37 1.5313 -1.7054 0
M  V30 15566 C 1459.37 1.50142 -0.575678 0
M  V30 15567 O 1460.56 1.52444 -0.842997 0
M  V30 15568 C 1457.69 2.92719 -1.74723 0
M  V30 15569 H 1458.88 1.37066 -2.66745 0
M  V30 15570 H 1456.44 0.680783 -1.40695 0
M  V30 15571 H 1457.17 3.14208 -0.802753 0
M  V30 15572 H 1456.96 2.96295 -2.56811 0
M  V30 15573 H 1458.45 3.7096 -1.91777 0
M  V30 15574 N 1458.88 1.40823 0.707568 0
M  V30 15575 C 1460.13 1.39741 1.4697 0
M  V30 15576 C 1460.46 0.00231194 1.942 0
M  V30 15577 O 1459.74 -0.967798 1.68713 0
M  V30 15578 C 1460.02 2.39385 2.69011 0
M  V30 15579 C 1459.87 3.87953 2.27624 0
M  V30 15580 C 1461.19 2.3645 3.71186 0
M  V30 15581 H 1458.31 0.508904 0.533091 0
M  V30 15582 H 1460.95 1.72015 0.806888 0
M  V30 15583 H 1459.1 2.11993 3.25563 0
M  V30 15584 H 1460.78 4.26202 1.76492 0
M  V30 15585 H 1459.02 4.03399 1.59537 0
M  V30 15586 H 1459.69 4.53201 3.15139 0
M  V30 15587 H 1462.17 2.60731 3.24282 0
M  V30 15588 H 1461.04 3.08204 4.54204 0
M  V30 15589 H 1461.3 1.3789 4.20046 0
M  V30 15590 N 1460.36 -0.94061 1.26453 0
M  V30 15591 C 1461.61 -1.68354 1.11809 0
M  V30 15592 C 1461.93 -1.9203 -0.339037 0
M  V30 15593 O 1461.2 -1.51739 -1.23903 0
M  V30 15594 H 1459.78 -0.623916 0.410777 0
M  V30 15595 H 1462.44 -1.13014 1.58789 0
M  V30 15596 H 1461.54 -2.65706 1.63728 0
M  V30 15597 N 1461.84 -1.08266 -1.14527 0
M  V30 15598 C 1462.77 -0.669233 -2.19212 0
M  V30 15599 C 1463.79 0.282962 -1.60322 0
M  V30 15600 O 1464.97 0.0708403 -1.78359 0
M  V30 15601 C 1462.07 0.0362509 -3.38881 0
M  V30 15602 C 1461.25 -0.934477 -4.27301 0
M  V30 15603 C 1460.31 -0.264584 -5.25534 0
M  V30 15604 O 1459.33 -0.908543 -5.61902 0
M  V30 15605 N 1460.53 0.98609 -5.72063 0
M  V30 15606 H 1463.3 -1.56982 -2.55297 0
M  V30 15607 H 1460.86 -0.968551 -1.29733 0
M  V30 15608 H 1462.85 0.495309 -4.01658 0
M  V30 15609 H 1461.42 0.838913 -3.01133 0
M  V30 15610 H 1460.64 -1.57241 -3.61481 0
M  V30 15611 H 1461.93 -1.59232 -4.83242 0
M  V30 15612 H 1461.33 1.52904 -5.44644 0
M  V30 15613 H 1459.89 1.38867 -6.36835 0
M  V30 15614 N 1463.32 1.31536 -0.86811 0
M  V30 15615 C 1464.57 1.97066 -0.478829 0
M  V30 15616 C 1464.9 1.68469 0.966021 0
M  V30 15617 O 1464.17 0.980166 1.67997 0
M  V30 15618 C 1464.46 3.52533 -0.734313 0
M  V30 15619 C 1464.31 3.90711 -2.22856 0
M  V30 15620 C 1465.63 4.39647 -0.199559 0
M  V30 15621 H 1462.75 0.715813 -0.175444 0
M  V30 15622 H 1465.39 1.55694 -1.08901 0
M  V30 15623 H 1463.54 3.87905 -0.214962 0
M  V30 15624 H 1465.21 3.65451 -2.81502 0
M  V30 15625 H 1463.45 3.39385 -2.70185 0
M  V30 15626 H 1464.13 4.99103 -2.35797 0
M  V30 15627 H 1466.6 4.11088 -0.643853 0
M  V30 15628 H 1465.48 5.47383 -0.407783 0
M  V30 15629 H 1465.74 4.32875 0.898414 0
M  V30 15630 N 1464.8 0.627364 1.44575 0
M  V30 15631 C 1466.02 0.135576 2.06956 0
M  V30 15632 C 1466.45 -1.17922 1.46547 0
M  V30 15633 O 1465.81 -1.72255 0.565509 0
M  V30 15634 C 1465.85 0.030347 3.60587 0
M  V30 15635 O 1464.96 -1.01464 3.99724 0
M  V30 15636 H 1464.3 0.083058 0.658785 0
M  V30 15637 H 1466.83 0.862977 1.8551 0
M  V30 15638 H 1466.84 -0.161461 4.0768 0
M  V30 15639 H 1465.51 0.990285 4.03938 0
M  V30 15640 H 1464.09 -0.797701 3.64268 0
M  V30 15641 N 1466.28 -1.53251 0.367684 0
M  V30 15642 C 1467.5 -2.0618 -0.224645 0
M  V30 15643 C 1467.93 -1.23927 -1.41505 0
M  V30 15644 O 1467.28 -0.258858 -1.79443 0
M  V30 15645 C 1467.33 -3.55671 -0.594171 0
M  V30 15646 O 1466.44 -3.76132 -1.69112 0
M  V30 15647 H 1465.78 -0.663218 -0.0322099 0
M  V30 15648 H 1468.31 -1.97646 0.528897 0
M  V30 15649 H 1468.32 -3.98734 -0.864589 0
M  V30 15650 H 1466.99 -4.14982 0.276254 0
M  V30 15651 H 1465.57 -3.44965 -1.41609 0
M  V30 15652 N 1467.75 -0.0969077 -1.57302 0
M  V30 15653 C 1469 0.566373 -1.94418 0
M  V30 15654 C 1469.33 1.68078 -0.978769 0
M  V30 15655 O 1468.58 1.957 0.0013214 0
M  V30 15656 C 1468.88 1.15972 -3.38061 0
M  V30 15657 C 1468.55 0.16892 -4.50583 0
M  V30 15658 C 1467.21 -0.103587 -4.81088 0
M  V30 15659 C 1469.56 -0.507513 -5.18723 0
M  V30 15660 C 1466.89 -1.05919 -5.7706 0
M  V30 15661 C 1469.24 -1.4516 -6.1572 0
M  V30 15662 C 1467.91 -1.73232 -6.44629 0
M  V30 15663 H 1467.18 0.207251 -0.711427 0
M  V30 15664 H 1469.82 -0.173125 -1.90716 0
M  V30 15665 H 1468.13 1.97551 -3.3835 0
M  V30 15666 H 1469.83 1.68066 -3.64081 0
M  V30 15667 H 1466.42 0.391501 -4.26808 0
M  V30 15668 H 1470.6 -0.310127 -4.9533 0
M  V30 15669 H 1465.86 -1.28366 -5.97773 0
M  V30 15670 H 1470.03 -1.98155 -6.67613 0
M  V30 15671 H 1467.66 -2.47436 -7.18804 0
M  V30 15672 N 1469.23 1.56605 0.176793 0
M  V30 15673 C 1470.19 1.95109 1.20271 0
M  V30 15674 C 1471.19 0.83414 1.37473 0
M  V30 15675 O 1472.38 1.10128 1.34972 0
M  V30 15676 C 1469.52 2.24112 2.56878 0
M  V30 15677 H 1470.71 2.86909 0.87312 0
M  V30 15678 H 1468.26 1.50578 0.419033 0
M  V30 15679 H 1469 1.35009 2.94861 0
M  V30 15680 H 1468.78 3.05523 2.45761 0
M  V30 15681 H 1470.27 2.54842 3.30825 0
M  V30 15682 N 1470.71 -0.445159 1.51182 0
M  V30 15683 C 1472.12 -1.02528 1.56028 0
M  V30 15684 C 1472.47 -1.92503 0.379087 0
M  V30 15685 O 1471.6 -2.10424 -0.505056 0
M  V30 15686 C 1472.19 -1.86621 2.82768 0
M  V30 15687 C 1470.75 -2.39697 2.90211 0
M  V30 15688 C 1469.9 -1.18705 2.50608 0
M  V30 15689 H 1472.85 -0.226732 1.57072 0
M  V30 15690 H 1472.87 -2.71987 2.66089 0
M  V30 15691 H 1472.38 -1.2111 3.68719 0
M  V30 15692 H 1470.48 -3.08686 2.08672 0
M  V30 15693 H 1470.6 -2.73029 3.9369 0
M  V30 15694 H 1468.96 -1.52995 2.03629 0
M  V30 15695 H 1469.74 -0.548156 3.38895 0
M  V30 15696 N 1472.19 -1.41197 -0.700089 0
M  V30 15697 C 1473.46 -1.30803 -1.4543 0
M  V30 15698 C 1473.84 0.0664987 -2.10995 0
M  V30 15699 O 1473.19 1.08043 -2.01343 0
M  V30 15700 C 1473.4 -2.45815 -2.47742 0
M  V30 15701 C 1474.75 -2.86771 -3.13126 0
M  V30 15702 O 1475.77 -2.45521 -2.58065 0
M  V30 15703 O 1474.63 -3.58086 -4.1284 0
M  V30 15704 H 1471.73 -0.514523 -0.647453 0
M  V30 15705 H 1474.27 -1.53151 -0.73095 0
M  V30 15706 H 1473.05 -3.37557 -1.97917 0
M  V30 15707 H 1472.67 -2.25319 -3.27593 0
M  V30 15708 N 1473.67 0.933891 -1.2695 0
M  V30 15709 C 1474.9 1.71263 -1.15553 0
M  V30 15710 C 1475.3 1.86948 0.291059 0
M  V30 15711 O 1474.65 1.38173 1.21053 0
M  V30 15712 C 1474.71 3.13479 -1.75986 0
M  V30 15713 C 1474.37 3.21154 -3.2513 0
M  V30 15714 C 1475.37 3.03874 -4.21849 0
M  V30 15715 C 1473.05 3.44311 -3.65726 0
M  V30 15716 C 1475.05 3.09631 -5.57142 0
M  V30 15717 C 1472.74 3.49702 -5.01151 0
M  V30 15718 C 1473.73 3.32379 -5.96668 0
M  V30 15719 O 1473.42 3.37493 -7.29626 0
M  V30 15720 H 1473.15 0.542801 -0.402918 0
M  V30 15721 H 1475.71 1.17877 -1.68209 0
M  V30 15722 H 1473.94 3.6832 -1.178 0
M  V30 15723 H 1475.63 3.73295 -1.59391 0
M  V30 15724 H 1476.39 2.85832 -3.91823 0
M  V30 15725 H 1472.27 3.56847 -2.91859 0
M  V30 15726 H 1475.82 2.96028 -6.31675 0
M  V30 15727 H 1471.71 3.67267 -5.30835 0
M  V30 15728 H 1472.48 3.53988 -7.37994 0
M  V30 15729 N 1475.14 1.08871 1.13951 0
M  V30 15730 C 1476.11 0.726655 2.17376 0
M  V30 15731 C 1477.11 -0.240922 1.58985 0
M  V30 15732 O 1478.3 -0.0198472 1.74189 0
M  V30 15733 C 1475.43 0.0736505 3.4082 0
M  V30 15734 H 1476.62 1.64254 2.5092 0
M  V30 15735 H 1474.17 0.887183 1.28681 0
M  V30 15736 H 1474.91 -0.853733 3.12861 0
M  V30 15737 H 1474.69 0.769782 3.84469 0
M  V30 15738 H 1476.18 -0.164465 4.17276 0
M  V30 15739 N 1476.62 -1.31073 0.875073 0
M  V30 15740 C 1477.57 -2.28389 0.332718 0
M  V30 15741 C 1478.54 -1.55954 -0.571639 0
M  V30 15742 O 1479.72 -1.84073 -0.502185 0
M  V30 15743 C 1476.86 -3.42083 -0.455364 0
M  V30 15744 C 1475.98 -4.29358 0.477088 0
M  V30 15745 C 1475.11 -5.30201 -0.325619 0
M  V30 15746 C 1474.15 -6.09123 0.602935 0
M  V30 15747 N 1473.29 -7.01909 -0.163836 0
M  V30 15748 H 1478.13 -2.74166 1.16777 0
M  V30 15749 H 1475.66 -1.3487 0.587248 0
M  V30 15750 H 1477.62 -4.06746 -0.928104 0
M  V30 15751 H 1476.25 -2.97402 -1.25507 0
M  V30 15752 H 1475.3 -3.65091 1.06829 0
M  V30 15753 H 1476.62 -4.84425 1.18887 0
M  V30 15754 H 1475.77 -6.00565 -0.860647 0
M  V30 15755 H 1474.51 -4.75802 -1.07067 0
M  V30 15756 H 1473.51 -5.37645 1.14968 0
M  V30 15757 H 1474.74 -6.65609 1.34692 0
M  V30 15758 H 1472.69 -6.49913 -0.891604 0
M  V30 15759 H 1472.6 -7.5442 0.48851 0
M  V30 15760 H 1473.87 -7.76529 -0.679929 0
M  V30 15761 N 1478.1 -0.635022 -1.4424 0
M  V30 15762 C 1479.06 0.0579377 -2.29127 0
M  V30 15763 C 1480.06 0.768489 -1.41248 0
M  V30 15764 O 1481.25 0.612489 -1.63077 0
M  V30 15765 C 1478.39 1.09266 -3.22914 0
M  V30 15766 H 1479.58 -0.688723 -2.91885 0
M  V30 15767 H 1477.13 -0.395347 -1.51217 0
M  V30 15768 H 1477.87 1.86917 -2.65014 0
M  V30 15769 H 1477.65 0.587036 -3.87681 0
M  V30 15770 H 1479.14 1.57716 -3.86672 0
M  V30 15771 N 1479.58 1.53054 -0.375806 0
M  V30 15772 C 1480.53 2.2605 0.46582 0
M  V30 15773 C 1481.5 1.27123 1.06906 0
M  V30 15774 O 1482.68 1.55926 1.09963 0
M  V30 15775 C 1479.82 3.06066 1.59429 0
M  V30 15776 C 1478.93 4.19901 1.01523 0
M  V30 15777 C 1478.07 4.87339 2.11363 0
M  V30 15778 C 1477.11 5.93189 1.50976 0
M  V30 15779 N 1476.24 6.54276 2.54692 0
M  V30 15780 H 1481.08 2.97553 -0.163149 0
M  V30 15781 H 1478.62 1.4681 -0.092282 0
M  V30 15782 H 1480.58 3.50739 2.25915 0
M  V30 15783 H 1479.21 2.36799 2.19377 0
M  V30 15784 H 1478.26 3.7964 0.240346 0
M  V30 15785 H 1479.57 4.95935 0.533812 0
M  V30 15786 H 1478.73 5.35247 2.85649 0
M  V30 15787 H 1477.47 4.10799 2.6286 0
M  V30 15788 H 1476.47 5.44632 0.752095 0
M  V30 15789 H 1477.7 6.71654 1.00291 0
M  V30 15790 H 1475.64 5.80584 3.05383 0
M  V30 15791 H 1475.56 7.2588 2.11267 0
M  V30 15792 H 1476.83 7.06831 3.28648 0
M  V30 15793 N 1481.06 0.105248 1.57248 0
M  V30 15794 C 1482.31 -0.555797 1.93891 0
M  V30 15795 C 1482.62 -1.68703 0.989883 0
M  V30 15796 O 1483.82 -2.40991 1.25043 0
M  V30 15797 C 1482.28 -1.04006 3.44544 0
M  V30 15798 C 1481.89 0.0619641 4.47957 0
M  V30 15799 C 1483.63 -1.67327 3.90131 0
M  V30 15800 C 1481.54 -0.438229 5.89774 0
M  V30 15801 H 1480.47 -0.211391 0.723761 0
M  V30 15802 H 1483.12 0.182887 1.82586 0
M  V30 15803 H 1481.5 -1.83275 3.51036 0
M  V30 15804 H 1482.68 0.837803 4.5312 0
M  V30 15805 H 1480.99 0.600973 4.1204 0
M  V30 15806 H 1483.59 -2.0584 4.93492 0
M  V30 15807 H 1483.93 -2.54638 3.29341 0
M  V30 15808 H 1484.46 -0.946231 3.86382 0
M  V30 15809 H 1481.2 0.398506 6.54288 0
M  V30 15810 H 1480.72 -1.18085 5.88061 0
M  V30 15811 H 1482.4 -0.903922 6.40655 0
M  V30 15812 N 1482.53 -1.56697 -0.168486 0
M  V30 15813 C 1483.76 -1.86652 -0.904195 0
M  V30 15814 C 1484.18 -0.691906 -1.74912 0
M  V30 15815 O 1483.54 0.358971 -1.77711 0
M  V30 15816 C 1483.59 -3.15043 -1.75442 0
M  V30 15817 O 1482.69 -2.97466 -2.85636 0
M  V30 15818 H 1482.04 -0.613859 -0.253128 0
M  V30 15819 H 1484.57 -2.03927 -0.165773 0
M  V30 15820 H 1484.58 -3.4652 -2.15378 0
M  V30 15821 H 1483.25 -4.00147 -1.13381 0
M  V30 15822 H 1481.83 -2.7735 -2.49262 0
M  V30 15823 N 1484.01 0.437135 -1.51416 0
M  V30 15824 C 1484.98 1.51313 -1.72154 0
M  V30 15825 C 1485.98 1.49523 -0.59157 0
M  V30 15826 O 1487.17 1.51541 -0.859118 0
M  V30 15827 C 1484.3 2.9085 -1.77818 0
M  V30 15828 H 1485.49 1.34229 -2.68184 0
M  V30 15829 H 1483.04 0.665822 -1.41409 0
M  V30 15830 H 1483.78 3.13338 -0.836033 0
M  V30 15831 H 1483.56 2.93554 -2.59939 0
M  V30 15832 H 1485.05 3.68905 -1.957 0
M  V30 15833 N 1485.49 1.41566 0.692592 0
M  V30 15834 C 1486.45 1.43369 1.78824 0
M  V30 15835 C 1487.45 0.323867 1.57505 0
M  V30 15836 O 1488.64 0.583885 1.64123 0
M  V30 15837 C 1485.78 1.24798 3.17235 0
M  V30 15838 H 1486.97 2.40906 1.78617 0
M  V30 15839 H 1484.52 1.27752 0.900508 0
M  V30 15840 H 1485.26 0.281129 3.23079 0
M  V30 15841 H 1485.04 2.05212 3.34111 0
M  V30 15842 H 1486.53 1.28902 3.97208 0
M  V30 15843 N 1486.97 -0.927146 1.27443 0
M  V30 15844 C 1487.92 -2.01402 1.06871 0
M  V30 15845 C 1488.9 -1.609 -0.00345395 0
M  V30 15846 O 1490.09 -1.75688 0.215147 0
M  V30 15847 C 1487.22 -3.35697 0.718508 0
M  V30 15848 C 1486.31 -3.82641 1.82884 0
M  V30 15849 N 1486.7 -4.02091 3.06849 0
M  V30 15850 C 1485 -4.11682 1.71564 0
M  V30 15851 C 1485.7 -4.41195 3.79107 0
M  V30 15852 N 1484.68 -4.48697 3.06874 0
M  V30 15853 H 1488.48 -2.14471 2.00946 0
M  V30 15854 H 1485.99 -1.11402 1.18166 0
M  V30 15855 H 1487.99 -4.13226 0.552238 0
M  V30 15856 H 1486.65 -3.2399 -0.214622 0
M  V30 15857 H 1487.66 -3.88384 3.42605 0
M  V30 15858 H 1484.34 -4.08685 0.853381 0
M  V30 15859 H 1485.73 -4.64318 4.85653 0
M  V30 15860 N 1488.45 -1.09474 -1.13372 0
M  V30 15861 C 1489.7 -0.825968 -1.84013 0
M  V30 15862 C 1490.01 0.650623 -1.84462 0
M  V30 15863 O 1491.21 1.03495 -2.51 0
M  V30 15864 C 1489.67 -1.42769 -3.30371 0
M  V30 15865 C 1489.28 -2.93686 -3.38308 0
M  V30 15866 C 1491.02 -1.23788 -4.0605 0
M  V30 15867 C 1488.93 -3.46942 -4.78942 0
M  V30 15868 H 1487.86 -0.305322 -0.689416 0
M  V30 15869 H 1490.51 -1.31751 -1.27726 0
M  V30 15870 H 1488.89 -0.86384 -3.86463 0
M  V30 15871 H 1490.07 -3.56302 -2.92208 0
M  V30 15872 H 1488.38 -3.11706 -2.76094 0
M  V30 15873 H 1490.98 -1.61031 -5.09876 0
M  V30 15874 H 1491.32 -0.178578 -4.15917 0
M  V30 15875 H 1491.85 -1.76927 -3.56289 0
M  V30 15876 H 1488.59 -4.52495 -4.74267 0
M  V30 15877 H 1488.11 -2.8909 -5.25535 0
M  V30 15878 H 1489.79 -3.44176 -5.47861 0
M  V30 15879 N 1489.92 1.30607 -0.882012 0
M  V30 15880 C 1491.17 1.95531 -0.495038 0
M  V30 15881 C 1491.49 1.70418 0.96005 0
M  V30 15882 O 1492.69 2.29301 1.45373 0
M  V30 15883 C 1491.15 3.50094 -0.834382 0
M  V30 15884 C 1490.76 3.84031 -2.30704 0
M  V30 15885 C 1492.5 4.21347 -0.516463 0
M  V30 15886 C 1490.41 5.31759 -2.58817 0
M  V30 15887 H 1489.34 0.731854 -0.181399 0
M  V30 15888 H 1491.99 1.486 -1.07658 0
M  V30 15889 H 1490.37 3.95582 -0.181961 0
M  V30 15890 H 1491.54 3.49463 -3.00353 0
M  V30 15891 H 1489.86 3.25874 -2.5922 0
M  V30 15892 H 1492.46 5.30051 -0.703576 0
M  V30 15893 H 1492.8 4.12731 0.543935 0
M  V30 15894 H 1493.33 3.81533 -1.12595 0
M  V30 15895 H 1490.07 5.45422 -3.63586 0
M  V30 15896 H 1489.59 5.67637 -1.93774 0
M  V30 15897 H 1491.27 5.9916 -2.44165 0
M  V30 15898 N 1491.4 0.642663 1.43901 0
M  V30 15899 C 1492.34 -0.104884 2.27959 0
M  V30 15900 C 1493.31 -0.840134 1.39214 0
M  V30 15901 O 1494.5 -0.841868 1.68656 0
M  V30 15902 C 1491.62 -1.15496 3.184 0
M  V30 15903 C 1490.67 -0.518946 4.23331 0
M  V30 15904 S 1491.5 0.699619 5.3091 0
M  V30 15905 C 1492.66 -0.350181 6.2492 0
M  V30 15906 H 1492.89 0.608181 2.91013 0
M  V30 15907 H 1490.43 0.431176 1.48257 0
M  V30 15908 H 1492.38 -1.75582 3.71054 0
M  V30 15909 H 1491.04 -1.84028 2.54544 0
M  V30 15910 H 1490.24 -1.31018 4.86673 0
M  V30 15911 H 1489.84 0.00756354 3.73999 0
M  V30 15912 H 1492.13 -1.21944 6.66435 0
M  V30 15913 H 1493.07 0.247942 7.07666 0
M  V30 15914 H 1493.48 -0.681254 5.60374 0
M  V30 15915 N 1492.88 -1.52852 0.383918 0
M  V30 15916 C 1494.13 -2.00694 -0.201206 0
M  V30 15917 C 1494.44 -1.2748 -1.48352 0
M  V30 15918 O 1495.65 -1.66005 -2.14836 0
M  V30 15919 C 1494.11 -3.57567 -0.409117 0
M  V30 15920 C 1493.71 -4.39675 0.859628 0
M  V30 15921 C 1495.46 -4.13713 -0.950899 0
M  V30 15922 C 1493.36 -5.88138 0.620292 0
M  V30 15923 H 1492.29 -0.749854 -0.0789656 0
M  V30 15924 H 1494.95 -1.764 0.505488 0
M  V30 15925 H 1493.33 -3.78088 -1.17753 0
M  V30 15926 H 1494.5 -4.30923 1.63224 0
M  V30 15927 H 1492.82 -3.94724 1.32597 0
M  V30 15928 H 1495.41 -5.22284 -1.14558 0
M  V30 15929 H 1495.76 -3.69463 -1.9184 0
M  V30 15930 H 1496.29 -3.97062 -0.242195 0
M  V30 15931 H 1493.03 -6.367 1.55864 0
M  V30 15932 H 1492.55 -5.99693 -0.113483 0
M  V30 15933 H 1494.23 -6.46506 0.252775 0
M  V30 15934 N 1494.36 -0.113586 -1.5719 0
M  V30 15935 C 1495.61 0.545507 -1.94183 0
M  V30 15936 C 1495.92 1.68176 -0.998816 0
M  V30 15937 O 1497.13 2.40324 -1.26319 0
M  V30 15938 C 1495.58 1.02178 -3.45091 0
M  V30 15939 C 1495.19 -0.0857195 -4.47918 0
M  V30 15940 C 1496.94 1.65255 -3.91013 0
M  V30 15941 C 1494.84 0.406946 -5.89998 0
M  V30 15942 H 1493.77 0.20755 -0.724872 0
M  V30 15943 H 1496.42 -0.192567 -1.82487 0
M  V30 15944 H 1494.81 1.81411 -3.52003 0
M  V30 15945 H 1495.98 -0.861821 -4.52669 0
M  V30 15946 H 1494.29 -0.622816 -4.11716 0
M  V30 15947 H 1496.89 2.0322 -4.94576 0
M  V30 15948 H 1497.23 2.52888 -3.30687 0
M  V30 15949 H 1497.77 0.925727 -3.86879 0
M  V30 15950 H 1494.51 -0.433199 -6.54067 0
M  V30 15951 H 1494.03 1.14965 -5.88679 0
M  V30 15952 H 1495.71 0.869934 -6.41125 0
M  V30 15953 N 1495.84 1.56784 0.160173 0
M  V30 15954 C 1496.75 2.00514 1.21783 0
M  V30 15955 C 1497.76 0.918341 1.47792 0
M  V30 15956 O 1498.94 1.22683 1.59721 0
M  V30 15957 C 1496 2.36575 2.53443 0
M  V30 15958 C 1495.07 3.59138 2.35198 0
M  V30 15959 C 1494.3 3.93469 3.6058 0
M  V30 15960 O 1494.52 3.28625 4.6622 0
M  V30 15961 O 1493.46 4.86774 3.54027 0
M  V30 15962 H 1497.28 2.90774 0.876607 0
M  V30 15963 H 1494.87 1.44799 0.367897 0
M  V30 15964 H 1496.75 2.60687 3.31089 0
M  V30 15965 H 1495.42 1.49474 2.87122 0
M  V30 15966 H 1494.33 3.4023 1.55546 0
M  V30 15967 H 1495.66 4.46815 2.0644 0
M  V30 15968 N 1497.32 -0.429099 1.51646 0
M  V30 15969 C 1498.26 -1.52143 1.73554 0
M  V30 15970 C 1499.23 -1.55741 0.577416 0
M  V30 15971 O 1500.42 -1.72623 0.812768 0
M  V30 15972 C 1497.56 -2.89785 1.874 0
M  V30 15973 C 1496.67 -2.95652 3.14982 0
M  V30 15974 C 1495.81 -4.24468 3.19375 0
M  V30 15975 C 1494.84 -4.24234 4.41239 0
M  V30 15976 N 1493.98 -5.44587 4.43135 0
M  V30 15977 H 1498.82 -1.32764 2.66791 0
M  V30 15978 H 1496.36 -0.6448 1.32215 0
M  V30 15979 H 1498.32 -3.6966 1.9341 0
M  V30 15980 H 1496.95 -3.07703 0.975638 0
M  V30 15981 H 1496 -2.0839 3.18242 0
M  V30 15982 H 1497.31 -2.91342 4.04872 0
M  V30 15983 H 1496.46 -5.12722 3.24347 0
M  V30 15984 H 1495.2 -4.31446 2.27389 0
M  V30 15985 H 1494.21 -3.34371 4.36435 0
M  V30 15986 H 1495.43 -4.18913 5.34499 0
M  V30 15987 H 1493.38 -5.52271 3.54023 0
M  V30 15988 H 1493.3 -5.42191 5.26845 0
M  V30 15989 H 1494.56 -6.34851 4.5231 0
M  V30 15990 N 1498.79 -1.41931 -0.685074 0
M  V30 15991 C 1500.02 -1.45229 -1.47364 0
M  V30 15992 C 1500.44 -0.060595 -1.88703 0
M  V30 15993 O 1499.79 0.92244 -1.57472 0
M  V30 15994 C 1499.84 -2.37033 -2.72942 0
M  V30 15995 O 1499.57 -3.70787 -2.33342 0
M  V30 15996 C 1501.07 -2.49244 -3.66596 0
M  V30 15997 H 1498.29 -0.494291 -0.453781 0
M  V30 15998 H 1500.83 -1.86333 -0.84263 0
M  V30 15999 H 1498.99 -1.9921 -3.32256 0
M  V30 16000 H 1499.4 -4.19853 -3.14362 0
M  V30 16001 H 1500.87 -3.17624 -4.51463 0
M  V30 16002 H 1501.35 -1.52703 -4.11799 0
M  V30 16003 H 1501.96 -2.87747 -3.1318 0
M  V30 16004 N 1500.27 0.920374 -1.27933 0
M  V30 16005 C 1501.68 1.48385 -1.13309 0
M  V30 16006 C 1502.03 1.94202 0.279307 0
M  V30 16007 O 1501.16 1.81855 1.17294 0
M  V30 16008 C 1501.75 2.69681 -2.05079 0
M  V30 16009 C 1500.31 3.22229 -1.94539 0
M  V30 16010 C 1499.46 1.94948 -1.97207 0
M  V30 16011 H 1502.41 0.733744 -1.40719 0
M  V30 16012 H 1502.43 3.44717 -1.6109 0
M  V30 16013 H 1501.94 2.36304 -3.07867 0
M  V30 16014 H 1500.04 3.60348 -0.94764 0
M  V30 16015 H 1500.16 3.87927 -2.81157 0
M  V30 16016 H 1498.52 2.1176 -1.41527 0
M  V30 16017 H 1499.3 1.63875 -3.01662 0
M  V30 16018 N 1501.75 1.10074 1.1279 0
M  V30 16019 C 1502.68 0.768146 2.20503 0
M  V30 16020 C 1503.66 -0.257199 1.68144 0
M  V30 16021 O 1504.85 -0.12379 1.93805 0
M  V30 16022 C 1501.98 0.195125 3.46751 0
M  V30 16023 C 1500.93 1.15074 4.1224 0
M  V30 16024 C 1500.26 0.439098 5.32894 0
M  V30 16025 C 1501.56 2.49584 4.58808 0
M  V30 16026 H 1503.25 1.66876 2.48581 0
M  V30 16027 H 1500.8 0.803806 1.19478 0
M  V30 16028 H 1502.75 -0.0496695 4.21371 0
M  V30 16029 H 1501.47 -0.740717 3.1809 0
M  V30 16030 H 1500.13 1.38092 3.39597 0
M  V30 16031 H 1499.78 -0.501096 5.00498 0
M  V30 16032 H 1499.48 1.07632 5.77658 0
M  V30 16033 H 1501 0.202761 6.10263 0
M  V30 16034 H 1502.42 2.30736 5.24818 0
M  V30 16035 H 1500.81 3.09157 5.14336 0
M  V30 16036 H 1501.88 3.09857 3.72984 0
M  V30 16037 N 1503.23 -1.30138 0.888926 0
M  V30 16038 C 1504.48 -1.95265 0.5054 0
M  V30 16039 C 1504.79 -1.70925 -0.950998 0
M  V30 16040 O 1506 -2.30069 -1.44155 0
M  V30 16041 C 1504.45 -3.49647 0.852937 0
M  V30 16042 C 1504.06 -3.82802 2.32737 0
M  V30 16043 C 1505.8 -4.21067 0.538801 0
M  V30 16044 C 1503.71 -5.30379 2.61633 0
M  V30 16045 H 1502.64 -0.730882 0.185278 0
M  V30 16046 H 1505.29 -1.48027 1.08444 0
M  V30 16047 H 1503.67 -3.9548 0.202937 0
M  V30 16048 H 1504.85 -3.47866 3.02202 0
M  V30 16049 H 1503.16 -3.24495 2.60944 0
M  V30 16050 H 1505.76 -5.2967 0.731676 0
M  V30 16051 H 1506.1 -4.13014 -0.522039 0
M  V30 16052 H 1506.64 -3.8093 1.14617 0
M  V30 16053 H 1503.37 -5.43486 3.66473 0
M  V30 16054 H 1502.89 -5.66601 1.96782 0
M  V30 16055 H 1504.57 -5.97856 2.47339 0
M  V30 16056 N 1504.71 -0.650285 -1.43559 0
M  V30 16057 C 1505.98 -0.0925343 -1.95381 0
M  V30 16058 C 1506.36 1.38668 -1.59168 0
M  V30 16059 O 1505.71 2.11069 -0.875324 0
M  V30 16060 C 1505.92 -0.335657 -3.47382 0
M  V30 16061 C 1507.27 -0.239032 -4.23927 0
M  V30 16062 O 1508.29 -0.268056 -3.5519 0
M  V30 16063 O 1507.15 -0.160241 -5.46265 0
M  V30 16064 H 1504.25 0.0113084 -0.826923 0
M  V30 16065 H 1506.79 -0.723319 -1.53513 0
M  V30 16066 H 1505.56 -1.36132 -3.66857 0
M  V30 16067 H 1505.19 0.328339 -3.96242 0
M  V30 16068 N 1506.18 1.52647 -0.392018 0
M  V30 16069 C 1507.41 2.06511 0.191815 0
M  V30 16070 C 1507.83 1.26162 1.39516 0
M  V30 16071 O 1507.19 0.287373 1.79008 0
M  V30 16072 C 1507.24 3.56571 0.537512 0
M  V30 16073 O 1506.34 3.78774 1.63106 0
M  V30 16074 H 1505.68 0.663647 0.0216546 0
M  V30 16075 H 1508.21 1.96779 -0.560274 0
M  V30 16076 H 1508.22 4.00059 0.801044 0
M  V30 16077 H 1506.9 4.14489 -0.342239 0
M  V30 16078 H 1505.48 3.47175 1.36103 0
M  V30 16079 N 1507.66 0.121921 1.57128 0
M  V30 16080 C 1508.89 -0.542225 1.99358 0
M  V30 16081 C 1509.3 -1.60578 1.00057 0
M  V30 16082 O 1508.64 -1.83694 -0.0142649 0
M  V30 16083 C 1508.71 -1.22448 3.38004 0
M  V30 16084 C 1508.37 -0.308522 4.55957 0
M  V30 16085 C 1509.37 0.454012 5.17914 0
M  V30 16086 C 1507.05 -0.218741 5.01823 0
M  V30 16087 C 1509.05 1.29403 6.24126 0
M  V30 16088 C 1506.73 0.624906 6.07896 0
M  V30 16089 C 1507.73 1.37992 6.68915 0
M  V30 16090 O 1507.42 2.20955 7.72938 0
M  V30 16091 H 1507.15 -0.147894 0.659624 0
M  V30 16092 H 1509.7 0.205954 2.04365 0
M  V30 16093 H 1507.93 -2.01979 3.2976 0
M  V30 16094 H 1509.62 -1.78583 3.64504 0
M  V30 16095 H 1510.39 0.394539 4.83393 0
M  V30 16096 H 1506.27 -0.796109 4.54074 0
M  V30 16097 H 1509.81 1.88382 6.71683 0
M  V30 16098 H 1505.71 0.685762 6.41847 0
M  V30 16099 H 1506.48 2.13929 7.90049 0
M  V30 16100 N 1509.14 -1.56867 -0.151857 0
M  V30 16101 C 1510.37 -1.87601 -0.884347 0
M  V30 16102 C 1510.79 -0.710419 -1.74168 0
M  V30 16103 O 1510.15 0.340103 -1.78081 0
M  V30 16104 C 1510.2 -3.16887 -1.72091 0
M  V30 16105 O 1509.3 -3.00479 -2.82464 0
M  V30 16106 H 1508.64 -0.616509 -0.246603 0
M  V30 16107 H 1511.17 -2.04092 -0.144135 0
M  V30 16108 H 1511.18 -3.48785 -2.11691 0
M  V30 16109 H 1509.86 -4.01327 -1.09131 0
M  V30 16110 H 1508.43 -2.79978 -2.46306 0
M  V30 16111 N 1510.62 0.421051 -1.51871 0
M  V30 16112 C 1511.85 1.1911 -1.69175 0
M  V30 16113 C 1512.26 1.84599 -0.39606 0
M  V30 16114 O 1511.62 1.71395 0.626907 0
M  V30 16115 C 1511.67 2.26309 -2.81898 0
M  V30 16116 O 1511.39 1.63496 -4.06449 0
M  V30 16117 C 1512.89 3.16285 -3.10611 0
M  V30 16118 H 1510.11 0.358385 -0.567275 0
M  V30 16119 H 1512.66 0.496919 -1.98371 0
M  V30 16120 H 1510.81 2.91416 -2.55255 0
M  V30 16121 H 1511.22 2.3447 -4.69174 0
M  V30 16122 H 1512.7 3.87601 -3.93026 0
M  V30 16123 H 1513.18 3.77976 -2.23676 0
M  V30 16124 H 1513.78 2.5686 -3.38973 0
M  V30 16125 N 1512.1 1.42293 0.677538 0
M  V30 16126 C 1513.01 1.47953 1.82063 0
M  V30 16127 C 1514.02 0.36851 1.70053 0
M  V30 16128 O 1515.2 0.618996 1.91652 0
M  V30 16129 C 1512.26 1.3769 3.18186 0
M  V30 16130 C 1511.32 2.59261 3.42173 0
M  V30 16131 C 1510.56 2.49478 4.71801 0
M  V30 16132 O 1510.78 1.52915 5.49521 0
M  V30 16133 O 1509.71 3.39562 4.96972 0
M  V30 16134 H 1513.54 2.4443 1.80244 0
M  V30 16135 H 1511.13 1.24027 0.832932 0
M  V30 16136 H 1513.01 1.34319 3.9942 0
M  V30 16137 H 1511.68 0.443377 3.20649 0
M  V30 16138 H 1510.59 2.68207 2.60798 0
M  V30 16139 H 1511.92 3.51503 3.44538 0
M  V30 16140 N 1513.57 -0.913576 1.28419 0
M  V30 16141 C 1514.82 -1.65944 1.15355 0
M  V30 16142 C 1515.14 -1.92706 -0.298228 0
M  V30 16143 O 1514.41 -1.54333 -1.20657 0
M  V30 16144 H 1512.99 -0.615063 0.423919 0
M  V30 16145 H 1515.66 -1.0962 1.6115 0
M  V30 16146 H 1514.75 -2.62173 1.69327 0
M  V30 16147 N 1515.05 -1.1067 -1.12204 0
M  V30 16148 C 1515.98 -0.779829 -2.20093 0
M  V30 16149 C 1516.96 0.248279 -1.68278 0
M  V30 16150 O 1518.15 0.113511 -1.93868 0
M  V30 16151 C 1515.28 -0.213511 -3.46643 0
M  V30 16152 C 1514.23 -1.17258 -4.11624 0
M  V30 16153 C 1513.56 -0.467352 -5.32654 0
M  V30 16154 C 1514.86 -2.52014 -4.57478 0
M  V30 16155 H 1516.55 -1.68192 -2.47693 0
M  V30 16156 H 1514.1 -0.810131 -1.1905 0
M  V30 16157 H 1516.05 0.0273225 -4.21391 0
M  V30 16158 H 1514.78 0.723837 -3.18478 0
M  V30 16159 H 1513.43 -1.39891 -3.3886 0
M  V30 16160 H 1513.08 0.474547 -5.00756 0
M  V30 16161 H 1512.78 -1.10694 -5.77079 0
M  V30 16162 H 1514.31 -0.235122 -6.10147 0
M  V30 16163 H 1515.72 -2.33516 -5.23587 0
M  V30 16164 H 1514.12 -3.1188 -5.1269 0
M  V30 16165 H 1515.19 -3.11831 -3.71335 0
M  V30 16166 N 1516.53 1.29665 -0.895815 0
M  V30 16167 C 1517.46 2.26013 -0.315211 0
M  V30 16168 C 1518.44 1.52267 0.570404 0
M  V30 16169 O 1519.63 1.81241 0.518081 0
M  V30 16170 C 1516.75 3.34187 0.551068 0
M  V30 16171 C 1515.8 4.25665 -0.266698 0
M  V30 16172 S 1516.63 5.09056 -1.66198 0
M  V30 16173 C 1517.79 6.20734 -0.80252 0
M  V30 16174 H 1518.02 2.74911 -1.13187 0
M  V30 16175 H 1515.55 1.37827 -0.695913 0
M  V30 16176 H 1517.51 3.96973 1.04511 0
M  V30 16177 H 1516.17 2.83991 1.34193 0
M  V30 16178 H 1515.37 5.02451 0.394869 0
M  V30 16179 H 1514.97 3.6751 -0.69374 0
M  V30 16180 H 1517.26 6.77496 -0.0242039 0
M  V30 16181 H 1518.2 6.91099 -1.54233 0
M  V30 16182 H 1518.61 5.6336 -0.358625 0
M  V30 16183 N 1518.01 0.657889 1.43212 0
M  V30 16184 C 1519.42 0.252443 1.84985 0
M  V30 16185 C 1519.77 -1.20196 1.55072 0
M  V30 16186 O 1518.9 -1.91803 1.00202 0
M  V30 16187 C 1519.49 0.451388 3.3578 0
M  V30 16188 C 1518.05 0.100219 3.76267 0
M  V30 16189 C 1517.2 0.752009 2.66908 0
M  V30 16190 H 1520.15 0.861239 1.33298 0
M  V30 16191 H 1520.17 -0.30169 3.79302 0
M  V30 16192 H 1519.68 1.51001 3.5752 0
M  V30 16193 H 1517.78 -0.955618 3.60137 0
M  V30 16194 H 1517.89 0.528942 4.76171 0
M  V30 16195 H 1516.26 0.184823 2.54029 0
M  V30 16196 H 1517.04 1.81375 2.91476 0
M  V30 16197 N 1519.49 -1.52437 0.400108 0
M  V30 16198 C 1520.43 -2.28312 -0.444572 0
M  V30 16199 C 1521.43 -1.32641 -1.0537 0
M  V30 16200 O 1522.63 -1.50136 -0.99293 0
M  V30 16201 H 1519.01 -0.734313 -0.162137 0
M  V30 16202 H 1520.98 -2.97612 0.216702 0
M  V30 16203 C 1519.73 -3.11044 -1.55393 0
M  V30 16204 H 1519.05 -3.84525 -1.09455 0
M  V30 16205 H 1520.49 -3.67255 -2.11896 0
M  V30 16206 C 1518.95 -2.24035 -2.51614 0
M  V30 16207 O 1519.48 -1.87447 -3.55284 0
M  V30 16208 N 1517.69 -1.87982 -2.2161 0
M  V30 16209 H 1517.23 -2.17936 -1.37338 0
M  V30 16210 H 1517.19 -1.30058 -2.86238 0
M  V30 16211 N 1520.96 -0.130252 -1.57061 0
M  V30 16212 C 1522.19 0.532416 -1.99932 0
M  V30 16213 C 1522.61 1.59505 -1.01013 0
M  V30 16214 O 1521.96 1.82499 -0.00463158 0
M  V30 16215 C 1522.02 1.14833 -3.42776 0
M  V30 16216 O 1521.74 0.128163 -4.37912 0
M  V30 16217 C 1523.24 1.89324 -4.00838 0
M  V30 16218 H 1520.46 0.140046 -0.656223 0
M  V30 16219 H 1523 -0.219905 -2.03314 0
M  V30 16220 H 1521.16 1.85137 -3.40298 0
M  V30 16221 H 1521.57 0.577135 -5.21315 0
M  V30 16222 H 1523.04 2.27731 -5.02835 0
M  V30 16223 H 1523.52 2.77277 -3.40608 0
M  V30 16224 H 1524.13 1.23757 -4.06896 0
M  V30 16225 N 1522.44 1.56945 0.143535 0
M  V30 16226 C 1523.37 2.0156 1.17881 0
M  V30 16227 C 1524.35 0.895744 1.44604 0
M  V30 16228 O 1525.54 1.16379 1.55466 0
M  V30 16229 C 1522.67 2.39915 2.51114 0
M  V30 16230 C 1521.62 3.55117 2.38905 0
M  V30 16231 C 1520.95 3.79296 3.7688 0
M  V30 16232 C 1522.25 4.87668 1.87021 0
M  V30 16233 H 1523.94 2.88296 0.80783 0
M  V30 16234 H 1521.49 1.38698 0.387149 0
M  V30 16235 H 1523.44 2.69727 3.23767 0
M  V30 16236 H 1522.17 1.5012 2.90055 0
M  V30 16237 H 1520.83 3.25476 1.68703 0
M  V30 16238 H 1520.47 2.86747 4.13262 0
M  V30 16239 H 1520.17 4.56827 3.69571 0
M  V30 16240 H 1521.7 4.11537 4.51076 0
M  V30 16241 H 1523.11 5.16176 2.4947 0
M  V30 16242 H 1521.51 5.69029 1.90594 0
M  V30 16243 H 1522.58 4.77811 0.82611 0
M  V30 16244 N 1523.92 -0.412991 1.52093 0
M  V30 16245 C 1524.83 -1.52768 1.78042 0
M  V30 16246 C 1525.85 -1.60758 0.665791 0
M  V30 16247 O 1527.02 -1.77545 0.950772 0
M  V30 16248 C 1524.09 -2.8854 1.92213 0
M  V30 16249 C 1523.15 -2.90468 3.16112 0
M  V30 16250 C 1522.38 -4.19763 3.29598 0
M  V30 16251 O 1522.61 -5.13454 2.48438 0
M  V30 16252 O 1521.54 -4.2847 4.22726 0
M  V30 16253 H 1525.37 -1.33777 2.72649 0
M  V30 16254 H 1522.95 -0.598461 1.3689 0
M  V30 16255 H 1524.83 -3.69073 2.03379 0
M  V30 16256 H 1523.51 -3.07607 1.00795 0
M  V30 16257 H 1522.41 -2.08801 3.10408 0
M  V30 16258 H 1523.75 -2.76349 4.07298 0
M  V30 16259 N 1525.4 -1.4265 -0.669982 0
M  V30 16260 C 1526.65 -1.43093 -1.42719 0
M  V30 16261 C 1526.97 -0.0501228 -1.94936 0
M  V30 16262 O 1526.24 0.912077 -1.73372 0
M  V30 16263 H 1524.82 -0.526785 -0.529628 0
M  V30 16264 H 1527.48 -1.78113 -0.791324 0
M  V30 16265 H 1526.58 -2.13357 -2.27783 0
M  V30 16266 N 1526.88 0.906753 -1.28902 0
M  V30 16267 C 1527.83 2.03141 -1.13299 0
M  V30 16268 C 1528.82 1.69325 -0.0504114 0
M  V30 16269 O 1530.03 1.78774 -0.209696 0
M  V30 16270 H 1526.4 0.665709 -0.349766 0
M  V30 16271 H 1528.37 2.13441 -2.08531 0
M  V30 16272 C 1527.12 3.37918 -0.818935 0
M  V30 16273 H 1526.44 3.64437 -1.64395 0
M  V30 16274 H 1527.88 4.17318 -0.749753 0
M  V30 16275 C 1526.34 3.33498 0.477582 0
M  V30 16276 O 1526.87 3.7241 1.50578 0
M  V30 16277 N 1525.08 2.86594 0.480862 0
M  V30 16278 H 1524.63 2.55124 -0.356308 0
M  V30 16279 H 1524.58 2.84019 1.34835 0
M  V30 16280 N 1528.36 1.11264 1.11616 0
M  V30 16281 C 1529.6 0.861639 1.83585 0
M  V30 16282 C 1529.93 -0.611221 1.8433 0
M  V30 16283 O 1529.21 -1.45116 1.29505 0
M  V30 16284 C 1529.49 1.42157 3.30852 0
M  V30 16285 C 1529.35 2.96192 3.38512 0
M  V30 16286 C 1530.66 1.07099 4.2687 0
M  V30 16287 H 1527.78 0.314464 0.666545 0
M  V30 16288 H 1530.43 1.37722 1.30892 0
M  V30 16289 H 1528.58 0.983054 3.75857 0
M  V30 16290 H 1530.25 3.48634 3.0208 0
M  V30 16291 H 1528.49 3.32353 2.7879 0
M  V30 16292 H 1529.16 3.30457 4.42156 0
M  V30 16293 H 1531.64 1.44952 3.90036 0
M  V30 16294 H 1530.51 1.48957 5.28302 0
M  V30 16295 H 1530.77 -0.018482 4.42096 0
M  V30 16296 N 1529.83 -1.29188 0.902679 0
M  V30 16297 C 1531.06 -1.99576 0.545635 0
M  V30 16298 C 1531.48 -1.67541 -0.870372 0
M  V30 16299 O 1530.83 -0.922082 -1.57493 0
M  V30 16300 C 1530.88 -3.54013 0.731916 0
M  V30 16301 O 1530.61 -3.84914 2.09219 0
M  V30 16302 C 1532.11 -4.41666 0.38022 0
M  V30 16303 H 1529.33 -0.637593 0.209083 0
M  V30 16304 H 1531.87 -1.64652 1.21284 0
M  V30 16305 H 1530.03 -3.87239 0.111849 0
M  V30 16306 H 1530.44 -4.79581 2.12373 0
M  V30 16307 H 1531.91 -5.49138 0.561382 0
M  V30 16308 H 1532.39 -4.33858 -0.682915 0
M  V30 16309 H 1533 -4.13918 0.977354 0
M  V30 16310 N 1531.31 -0.665475 -1.42861 0
M  V30 16311 C 1532.56 -0.183884 -2.01663 0
M  V30 16312 C 1532.89 1.2064 -1.52566 0
M  V30 16313 O 1532.14 1.82191 -0.714479 0
M  V30 16314 C 1532.44 -0.156963 -3.57055 0
M  V30 16315 C 1532.11 -1.49065 -4.25547 0
M  V30 16316 C 1530.77 -1.85584 -4.43973 0
M  V30 16317 C 1533.12 -2.36942 -4.64228 0
M  V30 16318 C 1530.45 -3.09622 -4.98348 0
M  V30 16319 C 1532.8 -3.60284 -5.19979 0
M  V30 16320 C 1531.46 -3.96984 -5.36619 0
M  V30 16321 H 1530.73 -0.0672879 -0.737939 0
M  V30 16322 H 1533.38 -0.858614 -1.71173 0
M  V30 16323 H 1531.69 0.601253 -3.87159 0
M  V30 16324 H 1533.38 0.232721 -4.00324 0
M  V30 16325 H 1529.97 -1.19653 -4.11559 0
M  V30 16326 H 1534.16 -2.10015 -4.49675 0
M  V30 16327 H 1529.41 -3.3809 -5.09417 0
M  V30 16328 H 1533.59 -4.28586 -5.48896 0
M  V30 16329 H 1531.21 -4.93175 -5.78518 0
M  V30 16330 N 1532.79 1.52222 -0.408187 0
M  V30 16331 C 1534.04 2.01404 0.167574 0
M  V30 16332 C 1534.36 1.29572 1.45726 0
M  V30 16333 O 1533.63 0.421363 1.91315 0
M  V30 16334 H 1532.21 0.744174 0.0649156 0
M  V30 16335 H 1534.87 1.87148 -0.544212 0
M  V30 16336 H 1533.97 3.09966 0.36436 0
M  V30 16337 N 1534.27 0.138579 1.5699 0
M  V30 16338 C 1535.18 -0.817548 2.19894 0
M  V30 16339 C 1536.19 -1.27806 1.18075 0
M  V30 16340 O 1537.37 -1.33699 1.5062 0
M  V30 16341 C 1534.43 -2.04244 2.80152 0
M  V30 16342 C 1533.5 -1.63197 3.97071 0
M  V30 16343 C 1532.73 -2.79847 4.54446 0
M  V30 16344 O 1532.95 -3.95827 4.10703 0
M  V30 16345 O 1531.89 -2.55804 5.44838 0
M  V30 16346 H 1535.71 -0.312123 3.02092 0
M  V30 16347 H 1533.3 -0.0880281 1.4914 0
M  V30 16348 H 1535.18 -2.75945 3.18485 0
M  V30 16349 H 1533.85 -2.53755 2.00973 0
M  V30 16350 H 1532.76 -0.885448 3.6347 0
M  V30 16351 H 1534.09 -1.1841 4.77745 0
M  V30 16352 N 1535.75 -1.57019 -0.13521 0
M  V30 16353 C 1536.99 -1.84262 -0.847071 0
M  V30 16354 C 1537.32 -0.721946 -1.80282 0
M  V30 16355 O 1536.6 0.273535 -1.92567 0
M  V30 16356 C 1536.88 -3.22043 -1.61123 0
M  V30 16357 C 1536.74 -4.44689 -0.67617 0
M  V30 16358 C 1538.05 -3.57188 -2.57108 0
M  V30 16359 H 1535.17 -0.670246 -0.306496 0
M  V30 16360 H 1537.82 -1.89671 -0.111843 0
M  V30 16361 H 1535.97 -3.17563 -2.23799 0
M  V30 16362 H 1537.64 -4.61262 -0.0595009 0
M  V30 16363 H 1535.88 -4.33798 0.0134526 0
M  V30 16364 H 1536.55 -5.37727 -1.24714 0
M  V30 16365 H 1539.03 -3.62354 -2.04545 0
M  V30 16366 H 1537.9 -4.54602 -3.07617 0
M  V30 16367 H 1538.16 -2.83758 -3.39019 0
M  V30 16368 N 1537.22 0.404919 -1.52309 0
M  V30 16369 C 1538.47 1.15319 -1.66822 0
M  V30 16370 C 1538.8 1.90056 -0.399041 0
M  V30 16371 O 1538.08 1.84927 0.602679 0
M  V30 16372 C 1538.36 2.14426 -2.89298 0
M  V30 16373 C 1538.21 1.43558 -4.26276 0
M  V30 16374 C 1539.53 3.15046 -3.07301 0
M  V30 16375 H 1536.65 0.417869 -0.607087 0
M  V30 16376 H 1539.29 0.438414 -1.84873 0
M  V30 16377 H 1537.44 2.75382 -2.74039 0
M  V30 16378 H 1539.12 0.856899 -4.53271 0
M  V30 16379 H 1537.36 0.737515 -4.27485 0
M  V30 16380 H 1538.03 2.15895 -5.08029 0
M  V30 16381 H 1540.51 2.6417 -3.21486 0
M  V30 16382 H 1539.38 3.81652 -3.94503 0
M  V30 16383 H 1539.64 3.83012 -2.20803 0
M  V30 16384 N 1538.7 1.43003 0.662408 0
M  V30 16385 C 1539.95 1.44133 1.42239 0
M  V30 16386 C 1540.28 0.062249 1.944 0
M  V30 16387 O 1539.53 -0.931341 1.72118 0
M  V30 16388 C 1539.83 2.4231 2.62718 0
M  V30 16389 C 1539.5 3.88403 2.29028 0
M  V30 16390 C 1538.16 4.28194 2.19552 0
M  V30 16391 C 1540.51 4.80505 2.01902 0
M  V30 16392 C 1537.84 5.58052 1.81092 0
M  V30 16393 C 1540.19 6.10718 1.64943 0
M  V30 16394 C 1538.86 6.49496 1.53985 0
M  V30 16395 H 1538.13 0.527419 0.52049 0
M  V30 16396 H 1540.77 1.76024 0.75417 0
M  V30 16397 H 1539.08 2.03789 3.3463 0
M  V30 16398 H 1540.77 2.40442 3.20918 0
M  V30 16399 H 1537.36 3.56906 2.37311 0
M  V30 16400 H 1541.55 4.50542 2.08149 0
M  V30 16401 H 1536.8 5.86945 1.71187 0
M  V30 16402 H 1540.98 6.81564 1.42982 0
M  V30 16403 H 1538.61 7.50026 1.23954 0
M  V30 16404 N 1540.18 -0.899904 1.29381 0
M  V30 16405 C 1541.13 -2.02537 1.14375 0
M  V30 16406 C 1542.12 -1.69296 0.0593904 0
M  V30 16407 O 1543.33 -1.78661 0.219174 0
M  V30 16408 H 1539.7 -0.663844 0.353291 0
M  V30 16409 H 1541.67 -2.12332 2.0966 0
M  V30 16410 C 1540.42 -3.37479 0.836845 0
M  V30 16411 H 1539.75 -3.6356 1.66326 0
M  V30 16412 H 1541.19 -4.16915 0.771873 0
M  V30 16413 C 1539.65 -3.33746 -0.459889 0
M  V30 16414 O 1540.18 -3.73203 -1.48601 0
M  V30 16415 N 1538.38 -2.86845 -0.465657 0
M  V30 16416 H 1537.93 -2.54931 0.369833 0
M  V30 16417 H 1537.89 -2.8473 -1.33327 0
M  V30 16418 N 1541.66 -1.11854 -1.11024 0
M  V30 16419 C 1542.89 -0.891419 -1.86379 0
M  V30 16420 C 1543.3 0.562516 -1.80644 0
M  V30 16421 O 1542.64 1.40037 -1.18893 0
M  V30 16422 C 1542.7 -1.28029 -3.3593 0
M  V30 16423 C 1542.37 -2.74427 -3.65429 0
M  V30 16424 C 1543.36 -3.72636 -3.62545 0
M  V30 16425 C 1541.05 -3.11182 -3.94298 0
M  V30 16426 C 1543.04 -5.05615 -3.88113 0
M  V30 16427 C 1540.73 -4.44345 -4.19524 0
M  V30 16428 C 1541.73 -5.41371 -4.16421 0
M  V30 16429 O 1541.41 -6.72135 -4.41009 0
M  V30 16430 H 1541.15 -0.318813 -0.596099 0
M  V30 16431 H 1543.7 -1.49069 -1.41307 0
M  V30 16432 H 1541.93 -0.624186 -3.81629 0
M  V30 16433 H 1543.62 -1.02827 -3.92659 0
M  V30 16434 H 1544.39 -3.45586 -3.40287 0
M  V30 16435 H 1540.26 -2.36274 -3.95848 0
M  V30 16436 H 1543.81 -5.81338 -3.85606 0
M  V30 16437 H 1539.71 -4.71127 -4.41259 0
M  V30 16438 H 1540.47 -6.77989 -4.58555 0
M  V30 16439 N 1543.14 1.28707 -0.909517 0
M  V30 16440 C 1544.55 1.77212 -0.587613 0
M  V30 16441 C 1544.9 1.74495 0.896986 0
M  V30 16442 O 1544.02 1.33698 1.70158 0
M  V30 16443 C 1544.62 3.21794 -1.05989 0
M  V30 16444 C 1543.18 3.68038 -0.788983 0
M  V30 16445 C 1542.32 2.48576 -1.22903 0
M  V30 16446 H 1545.28 1.1523 -1.09122 0
M  V30 16447 H 1545.3 3.78397 -0.399469 0
M  V30 16448 H 1544.81 3.23739 -2.14043 0
M  V30 16449 H 1542.91 3.71558 0.278523 0
M  V30 16450 H 1543.02 4.58379 -1.39376 0
M  V30 16451 H 1541.39 2.46323 -0.647838 0
M  V30 16452 H 1542.17 2.53243 -2.31782 0
M  V30 16453 N 1544.61 0.673042 1.42506 0
M  V30 16454 C 1545.84 0.202922 2.05902 0
M  V30 16455 C 1546.26 -1.13923 1.50556 0
M  V30 16456 O 1545.61 -1.70735 0.644662 0
M  V30 16457 C 1545.67 0.12735 3.61276 0
M  V30 16458 O 1545.39 1.41646 4.1457 0
M  V30 16459 C 1546.89 -0.366477 4.41783 0
M  V30 16460 H 1544.11 0.0991021 0.663641 0
M  V30 16461 H 1546.65 0.919282 1.82673 0
M  V30 16462 H 1544.81 -0.539687 3.83622 0
M  V30 16463 H 1545.22 1.28866 5.08423 0
M  V30 16464 H 1546.69 -0.368267 5.5077 0
M  V30 16465 H 1547.17 -1.40142 4.16241 0
M  V30 16466 H 1547.78 0.268761 4.2445 0
M  V30 16467 N 1546.09 -1.52004 0.416254 0
M  V30 16468 C 1547.51 -1.59457 0.0674775 0
M  V30 16469 C 1547.71 -1.42865 -1.42098 0
M  V30 16470 O 1546.76 -1.2592 -2.18862 0
M  V30 16471 C 1548.08 -2.95272 0.56876 0
M  V30 16472 C 1549.63 -3.08525 0.527356 0
M  V30 16473 C 1550.1 -4.46832 1.00526 0
M  V30 16474 N 1551.59 -4.53092 0.962377 0
M  V30 16475 C 1552.33 -5.58393 1.30327 0
M  V30 16476 N 1551.82 -6.71212 1.71597 0
M  V30 16477 N 1553.62 -5.48639 1.22278 0
M  V30 16478 H 1545.77 -1.61036 1.38496 0
M  V30 16479 H 1548.03 -0.75795 0.569399 0
M  V30 16480 H 1547.74 -3.12717 1.60937 0
M  V30 16481 H 1547.61 -3.77196 -0.0177595 0
M  V30 16482 H 1550 -2.9076 -0.504225 0
M  V30 16483 H 1550.08 -2.28491 1.15002 0
M  V30 16484 H 1549.72 -4.6534 2.03521 0
M  V30 16485 H 1549.65 -5.25373 0.359345 0
M  V30 16486 H 1552.14 -3.72109 0.65904 0
M  V30 16487 H 1552.46 -7.47558 1.95901 0
M  V30 16488 H 1550.8 -6.72475 1.75507 0
M  V30 16489 H 1553.99 -4.59383 0.899175 0
M  V30 16490 H 1554.16 -6.30596 1.49175 0
M  V30 16491 N 1547.57 -0.146903 -1.56914 0
M  V30 16492 C 1548.98 0.373938 -1.82917 0
M  V30 16493 C 1549.33 1.64741 -1.06559 0
M  V30 16494 O 1548.46 2.14156 -0.310849 0
M  V30 16495 C 1549.05 0.685213 -3.31799 0
M  V30 16496 C 1547.61 1.15058 -3.58383 0
M  V30 16497 C 1546.76 0.17362 -2.76756 0
M  V30 16498 H 1549.71 -0.371602 -1.54288 0
M  V30 16499 H 1549.73 1.53989 -3.47948 0
M  V30 16500 H 1549.24 -0.241816 -3.87346 0
M  V30 16501 H 1547.34 2.09355 -3.08223 0
M  V30 16502 H 1547.46 1.07662 -4.66847 0
M  V30 16503 H 1545.82 0.666227 -2.45832 0
M  V30 16504 H 1546.6 -0.746998 -3.35074 0
M  V30 16505 N 1549.05 1.57088 0.126881 0
M  V30 16506 C 1550.33 1.7539 0.8659 0
M  V30 16507 C 1550.71 0.720288 1.98432 0
M  V30 16508 O 1550.05 -0.2572 2.27048 0
M  V30 16509 C 1550.26 3.20131 1.38985 0
M  V30 16510 C 1551.61 3.82404 1.84532 0
M  V30 16511 O 1552.64 3.23685 1.48682 0
M  V30 16512 O 1551.49 4.85599 2.50711 0
M  V30 16513 H 1548.59 0.717853 0.41063 0
M  V30 16514 H 1551.13 1.69335 0.111236 0
M  V30 16515 H 1549.91 3.86871 0.587056 0
M  V30 16516 H 1549.53 3.30692 2.20745 0
M  V30 16517 N 1550.53 -0.396836 1.52522 0
M  V30 16518 C 1551.78 -1.13978 1.66409 0
M  V30 16519 C 1552.09 -1.91333 0.406326 0
M  V30 16520 O 1553.29 -2.6815 0.425195 0
M  V30 16521 C 1551.75 -2.07512 2.94052 0
M  V30 16522 C 1551.36 -1.35616 4.2698 0
M  V30 16523 C 1553.1 -2.8199 3.17304 0
M  V30 16524 C 1551.01 -2.2787 5.45737 0
M  V30 16525 H 1549.94 -0.429181 0.619935 0
M  V30 16526 H 1552.59 -0.403207 1.79015 0
M  V30 16527 H 1550.97 -2.84773 2.75174 0
M  V30 16528 H 1552.15 -0.636349 4.56385 0
M  V30 16529 H 1550.46 -0.731297 4.09928 0
M  V30 16530 H 1553.06 -3.5118 4.03208 0
M  V30 16531 H 1553.4 -3.45629 2.32048 0
M  V30 16532 H 1553.93 -2.11824 3.36712 0
M  V30 16533 H 1550.67 -1.68858 6.33378 0
M  V30 16534 H 1550.19 -2.97789 5.20655 0
M  V30 16535 H 1551.87 -2.88126 5.79303 0
M  V30 16536 N 1552.01 -1.43353 -0.654814 0
M  V30 16537 C 1553.42 -1.39933 -1.23595 0
M  V30 16538 C 1553.77 -0.102592 -1.95932 0
M  V30 16539 O 1552.89 0.798021 -2.01148 0
M  V30 16540 C 1553.49 -2.53483 -2.24793 0
M  V30 16541 C 1552.05 -2.53333 -2.78387 0
M  V30 16542 C 1551.19 -2.31268 -1.53005 0
M  V30 16543 H 1554.14 -1.52277 -0.446932 0
M  V30 16544 H 1554.17 -2.2488 -3.06935 0
M  V30 16545 H 1553.68 -3.47847 -1.72116 0
M  V30 16546 H 1551.78 -1.62844 -3.35131 0
M  V30 16547 H 1551.89 -3.51047 -3.26041 0
M  V30 16548 H 1550.26 -1.79905 -1.80295 0
M  V30 16549 H 1551.04 -3.27714 -1.02266 0
M  V30 16550 N 1553.48 0.89303 -1.29857 0
M  V30 16551 C 1554.73 1.64657 -1.18389 0
M  V30 16552 C 1555.06 1.92417 0.262587 0
M  V30 16553 O 1554.34 1.53936 1.18887 0
M  V30 16554 C 1554.62 2.99148 -2.00456 0
M  V30 16555 C 1554.47 2.78411 -3.53281 0
M  V30 16556 C 1555.79 3.99968 -1.83613 0
M  V30 16557 H 1552.91 0.59752 -0.431438 0
M  V30 16558 H 1555.55 1.03397 -1.59402 0
M  V30 16559 H 1553.7 3.51435 -1.65607 0
M  V30 16560 H 1555.38 2.32974 -3.98147 0
M  V30 16561 H 1553.62 2.13067 -3.77869 0
M  V30 16562 H 1554.29 3.74008 -4.05983 0
M  V30 16563 H 1556.77 3.56813 -2.14064 0
M  V30 16564 H 1555.64 4.91997 -2.43373 0
M  V30 16565 H 1555.9 4.34928 -0.793098 0
M  V30 16566 N 1554.96 1.12442 1.10429 0
M  V30 16567 C 1555.89 0.814745 2.18824 0
M  V30 16568 C 1556.87 -0.221476 1.68652 0
M  V30 16569 O 1558.06 -0.0826537 1.94024 0
M  V30 16570 C 1555.19 0.268632 3.4626 0
M  V30 16571 C 1554.14 1.23792 4.09707 0
M  V30 16572 C 1553.47 0.552034 5.31843 0
M  V30 16573 C 1554.77 2.5926 4.53411 0
M  V30 16574 H 1556.46 1.72111 2.44986 0
M  V30 16575 H 1554.01 0.828968 1.17746 0
M  V30 16576 H 1555.96 0.0397207 4.21381 0
M  V30 16577 H 1554.68 -0.673079 3.19589 0
M  V30 16578 H 1553.34 1.45264 3.36592 0
M  V30 16579 H 1552.99 -0.394821 5.01448 0
M  V30 16580 H 1552.69 1.19861 5.75245 0
M  V30 16581 H 1554.22 0.332161 6.09696 0
M  V30 16582 H 1555.63 2.41816 5.19806 0
M  V30 16583 H 1554.03 3.19997 5.07663 0
M  V30 16584 H 1555.1 3.17699 3.66327 0
M  V30 16585 N 1556.44 -1.28223 0.91633 0
M  V30 16586 C 1557.37 -2.26291 0.363986 0
M  V30 16587 C 1558.38 -1.54964 -0.498988 0
M  V30 16588 O 1559.57 -1.75726 -0.31345 0
M  V30 16589 C 1556.67 -3.35219 -0.498126 0
M  V30 16590 C 1555.85 -4.36054 0.34293 0
M  V30 16591 C 1554.91 -5.24232 -0.454688 0
M  V30 16592 O 1553.93 -5.69043 0.133649 0
M  V30 16593 N 1555.13 -5.53268 -1.75714 0
M  V30 16594 H 1557.9 -2.74323 1.20694 0
M  V30 16595 H 1555.46 -1.41731 0.782551 0
M  V30 16596 H 1557.45 -3.91148 -1.03852 0
M  V30 16597 H 1556.02 -2.86876 -1.2418 0
M  V30 16598 H 1555.24 -3.7955 1.06468 0
M  V30 16599 H 1556.53 -5.00444 0.918322 0
M  V30 16600 H 1555.93 -5.18698 -2.25762 0
M  V30 16601 H 1554.48 -6.11943 -2.2443 0
M  V30 16602 N 1557.92 -0.68059 -1.42147 0
M  V30 16603 C 1559.17 -0.204857 -2.01059 0
M  V30 16604 C 1559.49 1.19475 -1.54113 0
M  V30 16605 O 1558.76 1.80334 -0.765279 0
M  V30 16606 H 1557.34 -0.0727459 -0.743449 0
M  V30 16607 H 1560 -0.878396 -1.73983 0
M  V30 16608 H 1559.09 -0.210628 -3.11388 0
M  V30 16609 N 1559.4 1.51781 -0.424309 0
M  V30 16610 C 1560.33 2.30313 0.384462 0
M  V30 16611 C 1561.31 1.35166 1.03268 0
M  V30 16612 O 1562.49 1.64081 1.0388 0
M  V30 16613 C 1559.62 3.13566 1.49311 0
M  V30 16614 C 1558.58 4.16884 0.969096 0
M  V30 16615 C 1557.9 4.88576 2.17251 0
M  V30 16616 C 1559.2 5.22298 0.0125613 0
M  V30 16617 H 1560.9 2.98172 -0.270871 0
M  V30 16618 H 1558.44 1.43396 -0.131712 0
M  V30 16619 H 1560.39 3.67279 2.06602 0
M  V30 16620 H 1559.12 2.43504 2.17655 0
M  V30 16621 H 1557.78 3.64203 0.418494 0
M  V30 16622 H 1557.43 4.15029 2.84183 0
M  V30 16623 H 1557.13 5.58432 1.82833 0
M  V30 16624 H 1558.65 5.45107 2.75119 0
M  V30 16625 H 1560.06 5.71161 0.494744 0
M  V30 16626 H 1558.46 5.99606 -0.243544 0
M  V30 16627 H 1559.53 4.75935 -0.92813 0
M  V30 16628 N 1560.87 0.155222 1.56834 0
M  V30 16629 C 1562.1 -0.503763 2.01189 0
M  V30 16630 C 1562.52 -1.57086 1.03468 0
M  V30 16631 O 1561.88 -1.81296 0.0116895 0
M  V30 16632 C 1561.93 -1.07373 3.44243 0
M  V30 16633 O 1561.03 -2.18834 3.49551 0
M  V30 16634 H 1560.37 -0.122368 0.652627 0
M  V30 16635 H 1562.9 0.254377 2.03013 0
M  V30 16636 H 1562.91 -1.40036 3.83215 0
M  V30 16637 H 1561.59 -0.292339 4.14871 0
M  V30 16638 H 1560.17 -1.87337 3.22427 0
M  V30 16639 N 1562.35 -1.57153 -0.118549 0
M  V30 16640 C 1563.28 -2.03409 -1.1466 0
M  V30 16641 C 1564.26 -0.918636 -1.43161 0
M  V30 16642 O 1565.45 -1.18838 -1.53594 0
M  V30 16643 C 1562.58 -2.43879 -2.47265 0
M  V30 16644 C 1561.53 -3.58873 -2.33225 0
M  V30 16645 C 1560.86 -3.85244 -3.70798 0
M  V30 16646 C 1562.16 -4.90582 -1.79239 0
M  V30 16647 H 1563.85 -2.89545 -0.761862 0
M  V30 16648 H 1561.4 -1.39296 -0.365034 0
M  V30 16649 H 1563.35 -2.74844 -3.19435 0
M  V30 16650 H 1562.07 -1.54715 -2.8763 0
M  V30 16651 H 1560.73 -3.28119 -1.63504 0
M  V30 16652 H 1560.38 -2.93285 -4.08648 0
M  V30 16653 H 1560.08 -4.62649 -3.62257 0
M  V30 16654 H 1561.61 -4.18661 -4.44472 0
M  V30 16655 H 1563.02 -5.20079 -2.41227 0
M  V30 16656 H 1561.42 -5.71989 -1.81518 0
M  V30 16657 H 1562.49 -4.79065 -0.74999 0
M  V30 16658 N 1563.83 0.388742 -1.5273 0
M  V30 16659 C 1564.74 1.49916 -1.8045 0
M  V30 16660 C 1565.76 1.59679 -0.691282 0
M  V30 16661 O 1566.93 1.7601 -0.978898 0
M  V30 16662 C 1564 2.85445 -1.96779 0
M  V30 16663 C 1563.06 2.85402 -3.20693 0
M  V30 16664 C 1562.29 4.14466 -3.36234 0
M  V30 16665 O 1562.51 5.09436 -2.56576 0
M  V30 16666 O 1561.45 4.2169 -4.29489 0
M  V30 16667 H 1565.27 1.29423 -2.74743 0
M  V30 16668 H 1562.86 0.576607 -1.37825 0
M  V30 16669 H 1564.74 3.65791 -2.09224 0
M  V30 16670 H 1563.42 3.05964 -1.05676 0
M  V30 16671 H 1562.32 2.03836 -3.1369 0
M  V30 16672 H 1563.66 2.69835 -4.11643 0
M  V30 16673 N 1565.31 1.43698 0.647203 0
M  V30 16674 C 1566.55 1.45849 1.40911 0
M  V30 16675 C 1566.89 0.0846767 1.94015 0
M  V30 16676 O 1566.16 -0.89537 1.72665 0
M  V30 16677 C 1566.44 2.50579 2.58616 0
M  V30 16678 C 1566.3 3.97258 2.10965 0
M  V30 16679 C 1567.62 2.51981 3.60824 0
M  V30 16680 H 1564.74 0.531056 0.511027 0
M  V30 16681 H 1567.38 1.75283 0.733204 0
M  V30 16682 H 1565.53 2.25611 3.16278 0
M  V30 16683 H 1567.2 4.33304 1.58257 0
M  V30 16684 H 1565.44 4.09802 1.42284 0
M  V30 16685 H 1566.11 4.6616 2.95633 0
M  V30 16686 H 1568.59 2.7425 3.12932 0
M  V30 16687 H 1567.47 3.27191 4.40723 0
M  V30 16688 H 1567.73 1.55582 4.1382 0
M  V30 16689 N 1566.79 -0.886131 1.30328 0
M  V30 16690 C 1567.73 -1.99174 1.16612 0
M  V30 16691 C 1568.7 -1.66006 0.0559202 0
M  V30 16692 O 1569.89 -1.89458 0.225897 0
M  V30 16693 C 1567.03 -3.34142 0.862726 0
M  V30 16694 C 1566.14 -3.80008 2.05469 0
M  V30 16695 C 1565.28 -5.03617 1.68949 0
M  V30 16696 C 1564.32 -5.41888 2.84647 0
M  V30 16697 N 1563.45 -6.56678 2.48431 0
M  V30 16698 H 1568.29 -2.10238 2.11197 0
M  V30 16699 H 1565.83 -1.02941 1.05079 0
M  V30 16700 H 1567.79 -4.11826 0.667447 0
M  V30 16701 H 1566.42 -3.22767 -0.0462461 0
M  V30 16702 H 1565.47 -2.98243 2.36126 0
M  V30 16703 H 1566.78 -4.04312 2.92119 0
M  V30 16704 H 1565.94 -5.88923 1.45789 0
M  V30 16705 H 1564.67 -4.81182 0.794674 0
M  V30 16706 H 1563.68 -4.55109 3.08474 0
M  V30 16707 H 1564.9 -5.66296 3.74813 0
M  V30 16708 H 1562.85 -6.35821 1.61453 0
M  V30 16709 H 1562.77 -6.80846 3.28611 0
M  V30 16710 H 1564.04 -7.45219 2.28624 0
M  V30 16711 N 1568.26 -1.13026 -1.09832 0
M  V30 16712 C 1569.21 -0.803817 -2.1635 0
M  V30 16713 C 1570.18 0.232226 -1.64469 0
M  V30 16714 O 1571.37 0.105403 -1.90509 0
M  V30 16715 C 1568.51 -0.271414 -3.44031 0
M  V30 16716 C 1567.62 -1.36602 -4.09834 0
M  V30 16717 C 1566.75 -0.792393 -5.25257 0
M  V30 16718 C 1565.79 -1.86569 -5.82974 0
M  V30 16719 N 1564.93 -1.31032 -6.89764 0
M  V30 16720 H 1569.77 -1.71624 -2.43617 0
M  V30 16721 H 1567.31 -0.856772 -1.19574 0
M  V30 16722 H 1569.27 0.0553638 -4.17163 0
M  V30 16723 H 1567.9 0.604154 -3.17096 0
M  V30 16724 H 1566.95 -1.80946 -3.34608 0
M  V30 16725 H 1568.26 -2.17737 -4.48767 0
M  V30 16726 H 1567.41 -0.416652 -6.05268 0
M  V30 16727 H 1566.15 0.0500894 -4.87674 0
M  V30 16728 H 1565.16 -2.25054 -5.01628 0
M  V30 16729 H 1566.38 -2.7115 -6.22619 0
M  V30 16730 H 1564.33 -0.489768 -6.54169 0
M  V30 16731 H 1564.25 -2.0582 -7.27444 0
M  V30 16732 H 1565.51 -0.962011 -7.73541 0
M  V30 16733 N 1569.74 1.27735 -0.923117 0
M  V30 16734 C 1570.99 1.94185 -0.56004 0
M  V30 16735 C 1571.31 1.72945 0.90084 0
M  V30 16736 O 1570.58 1.07453 1.63801 0
M  V30 16737 H 1569.16 0.718568 -0.204129 0
M  V30 16738 H 1571.82 1.55535 -1.17451 0
M  V30 16739 H 1570.92 3.02644 -0.762424 0
M  V30 16740 N 1571.22 0.688118 1.41784 0
M  V30 16741 C 1572.15 -0.02099 2.2919 0
M  V30 16742 C 1573.17 -0.752005 1.44391 0
M  V30 16743 O 1574.35 -0.603947 1.67972 0
M  V30 16744 C 1571.45 -1.0537 3.22103 0
M  V30 16745 C 1570.63 -0.393817 4.35624 0
M  V30 16746 C 1569.69 -1.32812 5.09163 0
M  V30 16747 O 1568.71 -0.823341 5.63214 0
M  V30 16748 N 1569.91 -2.66083 5.15927 0
M  V30 16749 H 1572.68 0.729389 2.90689 0
M  V30 16750 H 1570.24 0.533564 1.52855 0
M  V30 16751 H 1572.23 -1.6803 3.68169 0
M  V30 16752 H 1570.8 -1.70568 2.61964 0
M  V30 16753 H 1570.02 0.41253 3.92035 0
M  V30 16754 H 1571.31 0.065338 5.08758 0
M  V30 16755 H 1570.71 -3.09619 4.73448 0
M  V30 16756 H 1569.27 -3.23956 5.65593 0
M  V30 16757 N 1572.7 -1.51554 0.432352 0
M  V30 16758 C 1573.93 -2.06462 -0.1346 0
M  V30 16759 C 1574.34 -1.30027 -1.36889 0
M  V30 16760 O 1573.7 -0.358447 -1.78945 0
M  V30 16761 C 1573.75 -3.58538 -0.461822 0
M  V30 16762 O 1573.47 -4.32085 0.723471 0
M  V30 16763 C 1574.97 -4.29943 -1.07999 0
M  V30 16764 H 1572.19 -0.670923 -0.0101329 0
M  V30 16765 H 1574.74 -1.9519 0.609999 0
M  V30 16766 H 1572.89 -3.6974 -1.15632 0
M  V30 16767 H 1573.3 -5.22611 0.444757 0
M  V30 16768 H 1574.78 -5.37451 -1.25898 0
M  V30 16769 H 1575.26 -3.87912 -2.05963 0
M  V30 16770 H 1575.86 -4.23171 -0.425022 0
M  V30 16771 N 1574.18 -0.163538 -1.56749 0
M  V30 16772 C 1575.11 0.765571 -2.20593 0
M  V30 16773 C 1576.09 1.24489 -1.15916 0
M  V30 16774 O 1577.27 1.29946 -1.44318 0
M  V30 16775 C 1574.4 1.99823 -2.84057 0
M  V30 16776 C 1573.36 1.65506 -3.94705 0
M  V30 16777 C 1572.68 2.96172 -4.45181 0
M  V30 16778 C 1573.98 0.88902 -5.14678 0
M  V30 16779 H 1575.68 0.233431 -2.98489 0
M  V30 16780 H 1573.22 0.110836 -1.43573 0
M  V30 16781 H 1575.18 2.65316 -3.27392 0
M  V30 16782 H 1573.9 2.55437 -2.03517 0
M  V30 16783 H 1572.56 1.02384 -3.52013 0
M  V30 16784 H 1572.21 3.49811 -3.61443 0
M  V30 16785 H 1571.91 2.73968 -5.19823 0
M  V30 16786 H 1573.43 3.62708 -4.91198 0
M  V30 16787 H 1574.84 1.44637 -5.54755 0
M  V30 16788 H 1573.24 0.766302 -5.95187 0
M  V30 16789 H 1574.31 -0.116145 -4.84761 0
M  V30 16790 N 1575.65 1.57214 0.110213 0
M  V30 16791 C 1576.62 2.00034 1.11888 0
M  V30 16792 C 1577.62 0.891697 1.33811 0
M  V30 16793 O 1578.81 1.15754 1.3018 0
M  V30 16794 C 1575.94 2.34806 2.47142 0
M  V30 16795 H 1577.13 2.90354 0.750647 0
M  V30 16796 H 1574.69 1.5222 0.35479 0
M  V30 16797 H 1575.42 1.47393 2.8887 0
M  V30 16798 H 1575.21 3.15671 2.32581 0
M  V30 16799 H 1576.7 2.68644 3.19719 0
M  V30 16800 N 1577.13 -0.380637 1.52934 0
M  V30 16801 C 1578.06 -1.47174 1.81279 0
M  V30 16802 C 1579.04 -1.56549 0.665319 0
M  V30 16803 O 1580.23 -1.71362 0.913722 0
M  V30 16804 C 1577.36 -2.84691 1.98918 0
M  V30 16805 C 1576.31 -2.90151 3.14637 0
M  V30 16806 C 1575.64 -4.30198 3.17544 0
M  V30 16807 C 1576.94 -2.59037 4.53539 0
M  V30 16808 H 1578.63 -1.23703 2.7265 0
M  V30 16809 H 1576.18 -0.593654 1.31194 0
M  V30 16810 H 1578.13 -3.61034 2.1733 0
M  V30 16811 H 1576.86 -3.09517 1.04244 0
M  V30 16812 H 1575.51 -2.16257 2.96021 0
M  V30 16813 H 1575.16 -4.52076 2.20536 0
M  V30 16814 H 1574.86 -4.3477 3.95284 0
M  V30 16815 H 1576.39 -5.08435 3.38121 0
M  V30 16816 H 1577.8 -3.25096 4.72214 0
M  V30 16817 H 1576.2 -2.74946 5.33408 0
M  V30 16818 H 1577.27 -1.54342 4.59681 0
M  V30 16819 N 1578.61 -1.44039 -0.639573 0
M  V30 16820 C 1579.86 -1.46594 -1.40136 0
M  V30 16821 C 1580.19 -0.0949646 -1.93968 0
M  V30 16822 O 1579.46 0.886201 -1.73138 0
M  V30 16823 C 1579.75 -2.51947 -2.57283 0
M  V30 16824 C 1579.6 -3.98371 -2.08855 0
M  V30 16825 C 1580.92 -2.53891 -3.59482 0
M  V30 16826 H 1578.04 -0.533759 -0.508203 0
M  V30 16827 H 1580.68 -1.75669 -0.723898 0
M  V30 16828 H 1578.83 -2.27285 -3.15077 0
M  V30 16829 H 1580.5 -4.34137 -1.55956 0
M  V30 16830 H 1578.75 -4.10551 -1.40109 0
M  V30 16831 H 1579.42 -4.67721 -2.93157 0
M  V30 16832 H 1581.89 -2.75906 -3.11473 0
M  V30 16833 H 1580.77 -3.29524 -4.38982 0
M  V30 16834 H 1581.03 -1.57774 -4.12989 0
M  V30 16835 N 1580.09 0.879207 -1.30796 0
M  V30 16836 C 1581.34 1.62828 -1.19715 0
M  V30 16837 C 1581.66 1.93429 0.247031 0
M  V30 16838 O 1580.93 1.57478 1.16522 0
M  V30 16839 H 1579.51 0.603607 -0.440077 0
M  V30 16840 H 1582.17 1.05309 -1.64 0
M  V30 16841 H 1581.27 2.57591 -1.76219 0
M  V30 16842 N 1581.57 1.13606 1.09231 0
M  V30 16843 C 1582.79 0.922667 1.85746 0
M  V30 16844 C 1583.22 -0.523381 1.80672 0
M  V30 16845 O 1582.58 -1.37156 1.18566 0
M  V30 16846 C 1582.62 1.41762 3.31566 0
M  V30 16847 O 1581.73 0.60418 4.0795 0
M  V30 16848 H 1581.07 0.330523 0.575891 0
M  V30 16849 H 1583.6 1.51123 1.37924 0
M  V30 16850 H 1583.61 1.42212 3.82413 0
M  V30 16851 H 1582.28 2.47048 3.34574 0
M  V30 16852 H 1580.86 0.667721 3.66873 0
M  V30 16853 N 1583.05 -1.27244 0.929878 0
M  V30 16854 C 1584.27 -1.98912 0.587277 0
M  V30 16855 C 1584.7 -1.68888 -0.828168 0
M  V30 16856 O 1584.05 -0.930394 -1.55606 0
M  V30 16857 C 1584.1 -3.51097 0.822399 0
M  V30 16858 O 1583.21 -4.12251 -0.110968 0
M  V30 16859 H 1582.55 -0.624404 0.225867 0
M  V30 16860 H 1585.08 -1.61997 1.24973 0
M  V30 16861 H 1585.09 -4.01255 0.738824 0
M  V30 16862 H 1583.76 -3.72282 1.85416 0
M  V30 16863 H 1582.34 -3.72893 0.0227053 0
M  V30 16864 N 1584.52 -0.695628 -1.41417 0
M  V30 16865 C 1585.77 -0.226171 -2.0083 0
M  V30 16866 C 1586.09 1.17833 -1.55371 0
M  V30 16867 O 1585.36 1.79512 -0.784362 0
M  V30 16868 H 1583.94 -0.0806271 -0.742636 0
M  V30 16869 H 1586.6 -0.8968 -1.73042 0
M  V30 16870 H 1585.7 -0.243643 -3.11148 0
M  V30 16871 N 1586 1.51322 -0.440383 0
M  V30 16872 C 1587.24 2.04022 0.124196 0
M  V30 16873 C 1587.61 1.31715 1.39697 0
M  V30 16874 O 1588.81 1.74804 2.04198 0
M  V30 16875 C 1587.08 3.55829 0.334744 0
M  V30 16876 S 1588.64 4.30244 0.862291 0
M  V30 16877 H 1585.45 0.710349 0.0304204 0
M  V30 16878 H 1588.06 1.86049 -0.600487 0
M  V30 16879 H 1586.76 4.06022 -0.597876 0
M  V30 16880 H 1586.29 3.78101 1.08642 0
M  V30 16881 H 1588.31 4.47705 2.13951 0
M  V30 16882 N 1587.48 0.171848 1.5666 0
M  V30 16883 C 1588.73 -0.472034 1.9651 0
M  V30 16884 C 1589.05 -1.63743 1.05893 0
M  V30 16885 O 1588.32 -1.95498 0.125396 0
M  V30 16886 H 1586.9 -0.177377 0.725635 0
M  V30 16887 H 1589.56 0.253155 1.93249 0
M  V30 16888 H 1588.66 -0.831693 3.00814 0
M  V30 16889 N 1588.96 -1.5727 -0.101874 0
M  V30 16890 C 1589.9 -2.01577 -1.12406 0
M  V30 16891 C 1590.87 -0.890883 -1.40187 0
M  V30 16892 O 1592.06 -1.15638 -1.51764 0
M  V30 16893 C 1589.2 -2.43952 -2.44093 0
M  V30 16894 C 1588.31 -3.69932 -2.23101 0
M  V30 16895 C 1587.45 -4.01215 -3.48138 0
M  V30 16896 C 1586.49 -5.20325 -3.22379 0
M  V30 16897 N 1585.62 -5.47394 -4.39664 0
M  V30 16898 H 1590.46 -2.88685 -0.739244 0
M  V30 16899 H 1588 -1.42789 -0.353497 0
M  V30 16900 H 1589.96 -2.66563 -3.20936 0
M  V30 16901 H 1588.59 -1.59863 -2.80435 0
M  V30 16902 H 1587.64 -3.54838 -1.37092 0
M  V30 16903 H 1588.95 -4.56924 -2.00054 0
M  V30 16904 H 1588.11 -4.24566 -4.33392 0
M  V30 16905 H 1586.85 -3.12732 -3.74233 0
M  V30 16906 H 1585.85 -4.96802 -2.35517 0
M  V30 16907 H 1587.08 -6.10401 -2.97637 0
M  V30 16908 H 1585.02 -4.61869 -4.65847 0
M  V30 16909 H 1584.94 -6.28743 -4.19783 0
M  V30 16910 H 1586.21 -5.75276 -5.26002 0
M  V30 16911 N 1590.44 0.372521 -1.53134 0
M  V30 16912 C 1591.66 1.14116 -1.73183 0
M  V30 16913 C 1592.09 1.82475 -0.456553 0
M  V30 16914 O 1591.44 1.71468 0.588919 0
M  V30 16915 C 1591.49 2.15241 -2.89316 0
M  V30 16916 O 1590.6 3.22178 -2.57439 0
M  V30 16917 H 1589.94 0.331442 -0.575362 0
M  V30 16918 H 1592.47 0.431769 -1.99992 0
M  V30 16919 H 1592.48 2.58961 -3.15283 0
M  V30 16920 H 1591.15 1.64877 -3.81822 0
M  V30 16921 H 1589.73 2.83481 -2.42267 0
M  V30 16922 N 1591.91 1.44376 0.631925 0
M  V30 16923 C 1593.14 1.50598 1.41873 0
M  V30 16924 C 1593.56 0.130589 1.88348 0
M  V30 16925 O 1592.91 -0.86336 1.60787 0
M  V30 16926 C 1592.96 2.47 2.63957 0
M  V30 16927 O 1592.69 3.79192 2.1942 0
M  V30 16928 C 1594.19 2.62678 3.57092 0
M  V30 16929 H 1591.41 0.510792 0.435124 0
M  V30 16930 H 1593.95 1.89332 0.772893 0
M  V30 16931 H 1592.11 2.11404 3.24634 0
M  V30 16932 H 1592.52 4.31231 2.98563 0
M  V30 16933 H 1593.99 3.34161 4.39364 0
M  V30 16934 H 1594.47 1.67881 4.05848 0
M  V30 16935 H 1595.08 2.99172 3.02285 0
M  V30 16936 N 1593.39 -0.872258 1.31261 0
M  V30 16937 C 1594.64 -1.62752 1.20994 0
M  V30 16938 C 1594.97 -1.9281 -0.231942 0
M  V30 16939 O 1594.25 -1.55808 -1.16423 0
M  V30 16940 C 1594.53 -2.95921 2.0519 0
M  V30 16941 C 1594.38 -2.72756 3.57665 0
M  V30 16942 C 1595.7 -3.96996 1.89953 0
M  V30 16943 H 1592.82 -0.590581 0.440889 0
M  V30 16944 H 1595.46 -1.00848 1.61027 0
M  V30 16945 H 1593.61 -3.48756 1.71177 0
M  V30 16946 H 1595.28 -2.26611 4.01803 0
M  V30 16947 H 1593.53 -2.07029 3.81211 0
M  V30 16948 H 1594.2 -3.67502 4.11882 0
M  V30 16949 H 1596.67 -3.53363 2.19713 0
M  V30 16950 H 1595.55 -4.88063 2.51169 0
M  V30 16951 H 1595.81 -4.33611 0.862191 0
M  V30 16952 N 1594.87 -1.14184 -1.08627 0
M  V30 16953 C 1596.12 -0.91001 -1.81236 0
M  V30 16954 C 1596.45 0.562134 -1.85886 0
M  V30 16955 O 1595.72 1.41631 -1.33307 0
M  V30 16956 C 1596.01 -1.50879 -3.26967 0
M  V30 16957 C 1595.86 -3.05063 -3.3054 0
M  V30 16958 C 1597.18 -1.18379 -4.2388 0
M  V30 16959 H 1594.3 -0.332025 -0.657973 0
M  V30 16960 H 1596.94 -1.41144 -1.27194 0
M  V30 16961 H 1595.09 -1.08236 -3.73118 0
M  V30 16962 H 1596.76 -3.5652 -2.9273 0
M  V30 16963 H 1595 -3.39628 -2.6988 0
M  V30 16964 H 1595.68 -3.42064 -4.33239 0
M  V30 16965 H 1598.15 -1.55242 -3.86056 0
M  V30 16966 H 1597.03 -1.62911 -5.24167 0
M  V30 16967 H 1597.29 -0.0987385 -4.4199 0
M  V30 16968 N 1596.35 1.26749 -0.936613 0
M  V30 16969 C 1597.28 2.25684 -0.399941 0
M  V30 16970 C 1598.29 1.55739 0.474271 0
M  V30 16971 O 1599.48 1.76203 0.285454 0
M  V30 16972 C 1596.58 3.35969 0.444733 0
M  V30 16973 C 1595.76 4.35453 -0.412258 0
M  V30 16974 C 1594.81 5.24889 0.37123 0
M  V30 16975 O 1593.84 5.68758 -0.224162 0
M  V30 16976 N 1595.04 5.55993 1.66889 0
M  V30 16977 H 1597.81 2.72368 -1.25043 0
M  V30 16978 H 1595.37 1.40468 -0.805 0
M  V30 16979 H 1597.36 3.92751 0.976159 0
M  V30 16980 H 1595.93 2.88816 1.196 0
M  V30 16981 H 1595.15 3.77808 -1.12493 0
M  V30 16982 H 1596.44 4.9892 -0.997822 0
M  V30 16983 H 1595.84 5.22224 2.17481 0
M  V30 16984 H 1594.39 6.15436 2.14666 0
M  V30 16985 N 1597.83 0.703118 1.41046 0
M  V30 16986 C 1598.76 0.0570815 2.3343 0
M  V30 16987 C 1599.74 -0.759042 1.52225 0
M  V30 16988 O 1600.92 -0.710491 1.80736 0
M  V30 16989 C 1598.05 -0.874541 3.36109 0
M  V30 16990 C 1597.01 -0.16496 4.27682 0
M  V30 16991 C 1596.33 -1.21145 5.20795 0
M  V30 16992 C 1597.63 0.97332 5.13151 0
M  V30 16993 H 1599.33 0.828699 2.87703 0
M  V30 16994 H 1596.87 0.399956 1.38334 0
M  V30 16995 H 1598.83 -1.33579 3.99668 0
M  V30 16996 H 1597.55 -1.67791 2.80203 0
M  V30 16997 H 1596.21 0.276332 3.65557 0
M  V30 16998 H 1595.86 -2.00755 4.61201 0
M  V30 16999 H 1595.56 -0.741633 5.82901 0
M  V30 17000 H 1597.08 -1.67305 5.87232 0
M  V30 17001 H 1598.49 0.592013 5.70235 0
M  V30 17002 H 1596.89 1.37071 5.84236 0
M  V30 17003 H 1597.96 1.80961 4.49868 0
M  V30 17004 N 1599.3 -1.51086 0.448402 0
M  V30 17005 C 1600.23 -2.30896 -0.347773 0
M  V30 17006 C 1601.22 -1.36792 -1.01104 0
M  V30 17007 O 1602.4 -1.65713 -1.01257 0
M  V30 17008 C 1599.53 -3.15901 -1.44304 0
M  V30 17009 C 1598.48 -4.18373 -0.90265 0
M  V30 17010 C 1597.81 -4.9197 -2.0945 0
M  V30 17011 C 1599.11 -5.22252 0.0705335 0
M  V30 17012 H 1600.8 -2.97704 0.318273 0
M  V30 17013 H 1598.35 -1.43169 0.154509 0
M  V30 17014 H 1600.3 -3.70519 -2.00733 0
M  V30 17015 H 1599.03 -2.46935 -2.13753 0
M  V30 17016 H 1597.69 -3.64823 -0.3605 0
M  V30 17017 H 1597.33 -4.19497 -2.77545 0
M  V30 17018 H 1597.03 -5.6127 -1.73926 0
M  V30 17019 H 1598.56 -5.49415 -2.66412 0
M  V30 17020 H 1599.97 -5.71876 -0.403814 0
M  V30 17021 H 1598.37 -5.99142 0.338905 0
M  V30 17022 H 1599.44 -4.74398 1.00373 0
M  V30 17023 N 1600.78 -0.180154 -1.56567 0
M  V30 17024 C 1601.69 0.758959 -2.21984 0
M  V30 17025 C 1602.71 1.24631 -1.21422 0
M  V30 17026 O 1603.88 1.29659 -1.54112 0
M  V30 17027 C 1600.95 1.96744 -2.85469 0
M  V30 17028 C 1600.01 1.52612 -4.01258 0
M  V30 17029 C 1599.24 2.677 -4.61706 0
M  V30 17030 O 1599.47 3.84799 -4.21054 0
M  V30 17031 O 1598.4 2.41269 -5.51428 0
M  V30 17032 H 1602.23 0.231919 -3.02813 0
M  V30 17033 H 1599.81 0.0484552 -1.49321 0
M  V30 17034 H 1601.69 2.67404 -3.25689 0
M  V30 17035 H 1600.37 2.48337 -2.0763 0
M  V30 17036 H 1599.28 0.78877 -3.6569 0
M  V30 17037 H 1600.61 1.05701 -4.80716 0
M  V30 17038 N 1602.26 1.57322 0.0935319 0
M  V30 17039 C 1603.68 1.5319 0.447781 0
M  V30 17040 C 1603.88 0.897107 1.80428 0
M  V30 17041 O 1602.93 0.490285 2.47694 0
M  V30 17042 C 1604.25 2.97908 0.408832 0
M  V30 17043 C 1605.79 3.09132 0.490576 0
M  V30 17044 C 1606.27 4.55459 0.481759 0
M  V30 17045 N 1607.76 4.60013 0.542468 0
M  V30 17046 C 1608.49 5.70683 0.557509 0
M  V30 17047 N 1607.99 6.9078 0.528664 0
M  V30 17048 N 1609.78 5.58862 0.602438 0
M  V30 17049 H 1601.93 1.96962 -0.794965 0
M  V30 17050 H 1604.2 0.900583 -0.296064 0
M  V30 17051 H 1603.9 3.47823 -0.520766 0
M  V30 17052 H 1603.78 3.56678 1.22722 0
M  V30 17053 H 1606.16 2.59203 1.41059 0
M  V30 17054 H 1606.25 2.53311 -0.355982 0
M  V30 17055 H 1605.89 5.0604 -0.43432 0
M  V30 17056 H 1605.82 5.09119 1.34555 0
M  V30 17057 H 1608.31 3.73578 0.569892 0
M  V30 17058 H 1608.62 7.70887 0.543467 0
M  V30 17059 H 1606.97 6.9323 0.495687 0
M  V30 17060 H 1610.16 4.63942 0.622514 0
M  V30 17061 H 1610.33 6.45116 0.610691 0
M  V30 17062 N 1603.74 -0.364395 1.53329 0
M  V30 17063 C 1604.99 -1.10691 1.69569 0
M  V30 17064 C 1605.31 -1.89268 0.448093 0
M  V30 17065 O 1604.57 -1.87216 -0.56997 0
M  V30 17066 C 1604.87 -2.09208 2.8977 0
M  V30 17067 C 1604.53 -1.47103 4.26229 0
M  V30 17068 C 1603.2 -1.29893 4.63337 0
M  V30 17069 C 1605.55 -1.0218 5.11086 0
M  V30 17070 C 1602.88 -0.663463 5.82937 0
M  V30 17071 C 1605.23 -0.400334 6.31332 0
M  V30 17072 C 1603.89 -0.21574 6.67151 0
M  V30 17073 H 1603.16 -0.405048 0.620498 0
M  V30 17074 H 1605.81 -0.388568 1.87516 0
M  V30 17075 H 1604.11 -2.8735 2.6634 0
M  V30 17076 H 1605.81 -2.66615 2.99529 0
M  V30 17077 H 1602.4 -1.61491 3.97012 0
M  V30 17078 H 1606.58 -1.14269 4.82966 0
M  V30 17079 H 1601.84 -0.508867 6.09279 0
M  V30 17080 H 1606.01 -0.0440554 6.96386 0
M  V30 17081 H 1603.64 0.278732 7.59689 0
M  V30 17082 N 1605.22 -1.44709 -0.62426 0
M  V30 17083 C 1606.45 -1.51129 -1.40867 0
M  V30 17084 C 1606.85 -0.1371 -1.88703 0
M  V30 17085 O 1606.2 0.868546 -1.6187 0
M  V30 17086 C 1606.26 -2.42015 -2.65836 0
M  V30 17087 C 1605.92 -3.89061 -2.39752 0
M  V30 17088 C 1606.92 -4.79411 -2.01151 0
M  V30 17089 C 1604.61 -4.33827 -2.53179 0
M  V30 17090 C 1606.6 -6.12529 -1.76314 0
M  V30 17091 C 1604.29 -5.66991 -2.27957 0
M  V30 17092 C 1605.28 -6.56161 -1.89584 0
M  V30 17093 O 1604.97 -7.86859 -1.64647 0
M  V30 17094 H 1604.7 -0.514731 -0.43821 0
M  V30 17095 H 1607.26 -1.90421 -0.770008 0
M  V30 17096 H 1605.49 -1.97663 -3.32365 0
M  V30 17097 H 1607.18 -2.39306 -3.27852 0
M  V30 17098 H 1607.94 -4.46095 -1.90328 0
M  V30 17099 H 1603.82 -3.64675 -2.82016 0
M  V30 17100 H 1607.37 -6.82089 -1.46288 0
M  V30 17101 H 1603.26 -5.99866 -2.38392 0
M  V30 17102 H 1604.03 -7.98724 -1.78837 0
M  V30 17103 N 1606.69 0.865285 -1.31722 0
M  V30 17104 C 1607.97 1.60146 -1.12306 0
M  V30 17105 C 1608.35 2.08653 0.320508 0
M  V30 17106 O 1607.7 1.86841 1.31539 0
M  V30 17107 C 1607.91 2.75583 -2.14138 0
M  V30 17108 C 1609.26 3.45429 -2.46909 0
M  V30 17109 O 1610.28 2.85795 -2.12602 0
M  V30 17110 O 1609.14 4.53017 -3.05676 0
M  V30 17111 H 1606.23 0.704786 -0.432673 0
M  V30 17112 H 1608.78 0.910339 -1.43216 0
M  V30 17113 H 1607.55 2.37187 -3.1122 0
M  V30 17114 H 1607.18 3.52378 -1.84161 0
M  V30 17115 N 1608.17 1.14759 1.0802 0
M  V30 17116 C 1609.58 0.928711 1.61963 0
M  V30 17117 C 1609.93 -0.531568 1.88862 0
M  V30 17118 O 1609.06 -1.40129 1.64902 0
M  V30 17119 C 1609.65 1.67943 2.94246 0
M  V30 17120 C 1608.21 1.50602 3.44958 0
M  V30 17121 C 1607.36 1.69938 2.19126 0
M  V30 17122 H 1610.31 1.29882 0.911945 0
M  V30 17123 H 1610.33 1.14493 3.62866 0
M  V30 17124 H 1609.84 2.7422 2.74636 0
M  V30 17125 H 1607.95 0.466901 3.69663 0
M  V30 17126 H 1608.06 2.27857 4.21447 0
M  V30 17127 H 1606.42 1.12534 2.28491 0
M  V30 17128 H 1607.21 2.77566 2.0202 0
M  V30 17129 N 1609.65 -1.26251 0.943322 0
M  V30 17130 C 1610.58 -2.28673 0.472347 0
M  V30 17131 C 1611.56 -1.63319 -0.475481 0
M  V30 17132 O 1612.75 -1.90508 -0.376875 0
M  V30 17133 C 1609.88 -3.46316 -0.261286 0
M  V30 17134 C 1608.83 -4.23771 0.600192 0
M  V30 17135 C 1608.16 -5.3405 -0.263525 0
M  V30 17136 C 1609.46 -4.87576 1.87262 0
M  V30 17137 H 1611.15 -2.68319 1.32836 0
M  V30 17138 H 1608.7 -1.28987 0.640182 0
M  V30 17139 H 1610.65 -4.1708 -0.601821 0
M  V30 17140 H 1609.37 -3.05629 -1.15146 0
M  V30 17141 H 1608.03 -3.54774 0.923651 0
M  V30 17142 H 1607.68 -4.89604 -1.15312 0
M  V30 17143 H 1607.38 -5.86784 0.309495 0
M  V30 17144 H 1608.9 -6.07652 -0.599281 0
M  V30 17145 H 1610.32 -5.50544 1.59919 0
M  V30 17146 H 1608.72 -5.50437 2.39038 0
M  V30 17147 H 1609.79 -4.10397 2.58268 0
M  V30 17148 N 1611.13 -0.710588 -1.40671 0
M  V30 17149 C 1612.09 -0.0635988 -2.29112 0
M  V30 17150 C 1613.09 0.692537 -1.45123 0
M  V30 17151 O 1614.28 0.525184 -1.66095 0
M  V30 17152 C 1611.41 0.919955 -3.28252 0
M  V30 17153 H 1612.61 -0.842477 -2.87823 0
M  V30 17154 H 1610.16 -0.474948 -1.48909 0
M  V30 17155 H 1610.9 1.72607 -2.7455 0
M  V30 17156 H 1610.68 0.38071 -3.90247 0
M  V30 17157 H 1612.17 1.36997 -3.94489 0
M  V30 17158 N 1612.61 1.50847 -0.456408 0
M  V30 17159 C 1613.86 2.01835 0.103414 0
M  V30 17160 C 1614.18 1.34142 1.4153 0
M  V30 17161 O 1613.45 0.482015 1.89877 0
M  V30 17162 H 1612.03 0.745863 0.0412074 0
M  V30 17163 H 1614.69 1.85322 -0.603477 0
M  V30 17164 H 1613.78 3.10968 0.265562 0
M  V30 17165 N 1614.09 0.188454 1.56469 0
M  V30 17166 C 1615.03 -0.735074 2.18781 0
M  V30 17167 C 1616 -1.21459 1.133 0
M  V30 17168 O 1617.19 -1.27967 1.41524 0
M  V30 17169 C 1614.33 -1.95181 2.84602 0
M  V30 17170 C 1613.44 -1.51428 4.0459 0
M  V30 17171 C 1612.58 -2.68601 4.58287 0
M  V30 17172 C 1611.61 -2.21422 5.70648 0
M  V30 17173 N 1610.75 -3.31749 6.18779 0
M  V30 17174 H 1615.59 -0.19694 2.97349 0
M  V30 17175 H 1613.13 -0.0854693 1.46851 0
M  V30 17176 H 1615.09 -2.66571 3.2093 0
M  V30 17177 H 1613.72 -2.46337 2.0861 0
M  V30 17178 H 1612.77 -0.6965 3.73969 0
M  V30 17179 H 1614.08 -1.1281 4.85876 0
M  V30 17180 H 1613.23 -3.48123 4.96885 0
M  V30 17181 H 1611.97 -3.1049 3.76095 0
M  V30 17182 H 1610.98 -1.40352 5.31584 0
M  V30 17183 H 1612.2 -1.80572 6.54653 0
M  V30 17184 H 1610.15 -3.73181 5.39511 0
M  V30 17185 H 1610.07 -2.97277 6.95099 0
M  V30 17186 H 1611.33 -4.11504 6.62031 0
M  V30 17187 N 1615.56 -1.5737 -0.0851874 0
M  V30 17188 C 1616.81 -1.86864 -0.78802 0
M  V30 17189 C 1617.14 -0.778936 -1.77894 0
M  V30 17190 O 1616.42 0.212132 -1.9334 0
M  V30 17191 C 1616.7 -3.27006 -1.50795 0
M  V30 17192 C 1616.55 -4.46615 -0.534354 0
M  V30 17193 C 1617.87 -3.65187 -2.45614 0
M  V30 17194 H 1614.99 -0.679657 -0.285017 0
M  V30 17195 H 1617.63 -1.8993 -0.0514443 0
M  V30 17196 H 1615.78 -3.24522 -2.13583 0
M  V30 17197 H 1617.46 -4.61217 0.0872761 0
M  V30 17198 H 1615.7 -4.33536 0.151455 0
M  V30 17199 H 1616.37 -5.41423 -1.07544 0
M  V30 17200 H 1618.85 -3.68678 -1.92913 0
M  V30 17201 H 1617.72 -4.64158 -2.92999 0
M  V30 17202 H 1617.98 -2.944 -3.2982 0
M  V30 17203 N 1617.04 0.356258 -1.53521 0
M  V30 17204 C 1617.97 1.44271 -1.83598 0
M  V30 17205 C 1618.95 1.5547 -0.690141 0
M  V30 17206 O 1620.14 1.69886 -0.940868 0
M  V30 17207 C 1617.27 2.8149 -2.03422 0
M  V30 17208 C 1616.22 2.85108 -3.19213 0
M  V30 17209 C 1615.55 4.25091 -3.24348 0
M  V30 17210 C 1616.85 2.51788 -4.57602 0
M  V30 17211 H 1618.54 1.1935 -2.74583 0
M  V30 17212 H 1616.09 0.572707 -1.32121 0
M  V30 17213 H 1618.04 3.57531 -2.23046 0
M  V30 17214 H 1616.76 3.07819 -1.09155 0
M  V30 17215 H 1615.42 2.1152 -2.99424 0
M  V30 17216 H 1615.07 4.4851 -2.277 0
M  V30 17217 H 1614.77 4.28426 -4.0215 0
M  V30 17218 H 1616.3 5.02992 -3.46167 0
M  V30 17219 H 1617.71 3.17542 -4.77326 0
M  V30 17220 H 1616.11 2.66426 -5.37715 0
M  V30 17221 H 1617.18 1.4701 -4.62078 0
M  V30 17222 N 1618.52 1.45038 0.616577 0
M  V30 17223 C 1619.45 1.55858 1.73869 0
M  V30 17224 C 1620.43 0.410657 1.65069 0
M  V30 17225 O 1621.62 0.632652 1.83606 0
M  V30 17226 C 1618.75 1.51635 3.12448 0
M  V30 17227 C 1617.7 2.65053 3.36052 0
M  V30 17228 C 1617.03 2.45883 4.74811 0
M  V30 17229 C 1618.33 4.07121 3.27185 0
M  V30 17230 H 1620.02 2.49784 1.6507 0
M  V30 17231 H 1617.57 1.20216 0.792724 0
M  V30 17232 H 1619.52 1.57803 3.90738 0
M  V30 17233 H 1618.24 0.542342 3.22066 0
M  V30 17234 H 1616.9 2.58299 2.60149 0
M  V30 17235 H 1616.55 1.46641 4.8115 0
M  V30 17236 H 1616.25 3.21935 4.9156 0
M  V30 17237 H 1617.77 2.53892 5.55312 0
M  V30 17238 H 1619.19 4.15167 3.9536 0
M  V30 17239 H 1617.58 4.83491 3.55466 0
M  V30 17240 H 1618.65 4.29663 2.24762 0
M  V30 17241 N 1620 -0.858287 1.32179 0
M  V30 17242 C 1621.27 -1.59548 1.13154 0
M  V30 17243 C 1621.65 -2.0882 -0.309439 0
M  V30 17244 O 1621 -1.87536 -1.30547 0
M  V30 17245 C 1621.21 -2.74443 2.15597 0
M  V30 17246 C 1622.56 -3.44115 2.48737 0
M  V30 17247 O 1623.58 -2.84664 2.14114 0
M  V30 17248 O 1622.44 -4.51389 3.08074 0
M  V30 17249 H 1619.54 -0.702481 0.436405 0
M  V30 17250 H 1622.08 -0.902731 1.43697 0
M  V30 17251 H 1620.86 -2.35533 3.12473 0
M  V30 17252 H 1620.48 -3.51397 1.86028 0
M  V30 17253 N 1621.48 -1.1533 -1.07409 0
M  V30 17254 C 1622.72 -0.925974 -1.79639 0
M  V30 17255 C 1623.04 0.548365 -1.87131 0
M  V30 17256 O 1622.31 1.39854 -1.37178 0
M  V30 17257 H 1620.89 -0.339599 -0.665343 0
M  V30 17258 H 1623.56 -1.45383 -1.29806 0
M  V30 17259 H 1622.65 -1.33484 -2.82114 0
M  V30 17260 N 1622.95 1.25748 -0.950004 0
M  V30 17261 C 1623.9 2.26061 -0.46531 0
M  V30 17262 C 1624.87 1.59021 0.479742 0
M  V30 17263 O 1626.06 1.86687 0.394011 0
M  V30 17264 C 1623.2 3.44156 0.255146 0
M  V30 17265 C 1622.31 4.25846 -0.726604 0
M  V30 17266 C 1621.44 5.31198 0.0159429 0
M  V30 17267 C 1620.48 6.04572 -0.957046 0
M  V30 17268 N 1619.62 7.0167 -0.245676 0
M  V30 17269 H 1624.46 2.66891 -1.32563 0
M  V30 17270 H 1622 1.31216 -0.664882 0
M  V30 17271 H 1623.95 4.11465 0.689381 0
M  V30 17272 H 1622.58 3.04213 1.07954 0
M  V30 17273 H 1621.64 3.58242 -1.27933 0
M  V30 17274 H 1622.95 4.76669 -1.46928 0
M  V30 17275 H 1622.1 6.04561 0.509037 0
M  V30 17276 H 1620.84 4.81235 0.791442 0
M  V30 17277 H 1619.85 5.30028 -1.46118 0
M  V30 17278 H 1621.07 6.56624 -1.7327 0
M  V30 17279 H 1619.02 6.54005 0.51117 0
M  V30 17280 H 1618.93 7.50289 -0.927527 0
M  V30 17281 H 1620.2 7.79172 0.226034 0
M  V30 17282 N 1624.43 0.718038 1.40292 0
M  V30 17283 C 1625.34 0.0681535 2.34501 0
M  V30 17284 C 1626.36 -0.741048 1.57431 0
M  V30 17285 O 1627.53 -0.673437 1.89807 0
M  V30 17286 C 1624.6 -0.840758 3.36351 0
M  V30 17287 C 1623.66 -0.0212287 4.29295 0
M  V30 17288 C 1622.89 -0.886852 5.2628 0
M  V30 17289 O 1623.12 -2.12603 5.29298 0
M  V30 17290 O 1622.05 -0.324537 6.01024 0
M  V30 17291 H 1625.88 0.845288 2.91699 0
M  V30 17292 H 1623.46 0.478541 1.41529 0
M  V30 17293 H 1625.34 -1.36131 3.98806 0
M  V30 17294 H 1624.02 -1.597 2.81563 0
M  V30 17295 H 1622.92 0.544451 3.70117 0
M  V30 17296 H 1624.26 0.696846 4.87242 0
M  V30 17297 N 1625.91 -1.50602 0.464402 0
M  V30 17298 C 1627.16 -2.01478 -0.0945398 0
M  V30 17299 C 1627.47 -1.35165 -1.41386 0
M  V30 17300 O 1628.68 -1.7716 -2.05735 0
M  V30 17301 C 1627.13 -3.59233 -0.219003 0
M  V30 17302 C 1626.74 -4.345 1.09148 0
M  V30 17303 C 1628.49 -4.18172 -0.730262 0
M  V30 17304 C 1626.39 -5.84023 0.931179 0
M  V30 17305 H 1625.32 -0.752985 -0.0391065 0
M  V30 17306 H 1627.97 -1.73473 0.598283 0
M  V30 17307 H 1626.36 -3.83798 -0.975455 0
M  V30 17308 H 1627.53 -4.21665 1.85837 0
M  V30 17309 H 1625.85 -3.8714 1.53334 0
M  V30 17310 H 1628.44 -5.27622 -0.867119 0
M  V30 17311 H 1628.79 -3.79113 -1.71986 0
M  V30 17312 H 1629.32 -3.97788 -0.0313808 0
M  V30 17313 H 1626.06 -6.27543 1.89395 0
M  V30 17314 H 1625.58 -5.99451 0.20456 0
M  V30 17315 H 1627.26 -6.44257 0.595118 0
M  V30 17316 N 1627.39 -0.19675 -1.56367 0
M  V30 17317 C 1628.34 0.723461 -2.19168 0
M  V30 17318 C 1629.31 1.20856 -1.13943 0
M  V30 17319 O 1630.49 1.27215 -1.42201 0
M  V30 17320 C 1627.63 1.93669 -2.85633 0
M  V30 17321 C 1626.74 1.49281 -4.05388 0
M  V30 17322 C 1625.88 2.66167 -4.59705 0
M  V30 17323 C 1624.92 2.18393 -5.71814 0
M  V30 17324 N 1624.05 3.28462 -6.20529 0
M  V30 17325 H 1628.89 0.181169 -2.97449 0
M  V30 17326 H 1626.43 0.0776802 -1.46895 0
M  V30 17327 H 1628.39 2.64865 -3.22339 0
M  V30 17328 H 1627.02 2.45227 -2.09913 0
M  V30 17329 H 1626.07 0.676658 -3.74333 0
M  V30 17330 H 1627.38 1.10231 -4.86467 0
M  V30 17331 H 1626.54 3.45483 -4.98725 0
M  V30 17332 H 1625.28 3.08491 -3.77736 0
M  V30 17333 H 1624.28 1.37531 -5.32321 0
M  V30 17334 H 1625.51 1.77097 -6.55602 0
M  V30 17335 H 1623.45 3.70315 -5.41482 0
M  V30 17336 H 1623.37 2.93587 -6.96665 0
M  V30 17337 H 1624.64 4.07988 -6.64204 0
M  V30 17338 N 1628.87 1.57413 0.0768405 0
M  V30 17339 C 1630.28 1.53656 0.431508 0
M  V30 17340 C 1630.48 0.916194 1.79466 0
M  V30 17341 O 1629.54 0.516529 2.4716 0
M  V30 17342 C 1630.85 2.98325 0.377212 0
M  V30 17343 C 1632.4 3.09635 0.457761 0
M  V30 17344 C 1632.87 4.55945 0.433425 0
M  V30 17345 N 1634.37 4.60562 0.493647 0
M  V30 17346 C 1635.1 5.71242 0.496949 0
M  V30 17347 N 1634.6 6.91302 0.455368 0
M  V30 17348 N 1636.39 5.5947 0.543129 0
M  V30 17349 H 1628.54 1.96108 -0.815811 0
M  V30 17350 H 1630.8 0.897392 -0.3056 0
M  V30 17351 H 1630.51 3.47251 -0.557628 0
M  V30 17352 H 1630.38 3.57959 1.18932 0
M  V30 17353 H 1632.77 2.60685 1.38302 0
M  V30 17354 H 1632.85 2.52919 -0.382829 0
M  V30 17355 H 1632.5 5.0555 -0.487968 0
M  V30 17356 H 1632.43 5.10518 1.29148 0
M  V30 17357 H 1634.92 3.74162 0.530237 0
M  V30 17358 H 1635.23 7.7142 0.461674 0
M  V30 17359 H 1633.57 6.93717 0.422133 0
M  V30 17360 H 1636.77 4.64576 0.573272 0
M  V30 17361 H 1636.94 6.45727 0.542234 0
M  V30 17362 N 1630.34 -0.348112 1.53707 0
M  V30 17363 C 1631.27 -1.43296 1.8436 0
M  V30 17364 C 1632.26 -1.55102 0.698376 0
M  V30 17365 O 1633.44 -1.69385 0.949864 0
M  V30 17366 C 1630.57 -2.80407 2.04912 0
M  V30 17367 C 1629.52 -2.83412 3.20721 0
M  V30 17368 C 1628.85 -4.23365 3.26597 0
M  V30 17369 C 1630.15 -2.49358 4.58931 0
M  V30 17370 H 1631.84 -1.17892 2.75212 0
M  V30 17371 H 1629.39 -0.565692 1.32423 0
M  V30 17372 H 1631.34 -3.56343 2.24939 0
M  V30 17373 H 1630.07 -3.07236 1.10786 0
M  V30 17374 H 1628.73 -2.09929 3.00542 0
M  V30 17375 H 1628.37 -4.47297 2.30076 0
M  V30 17376 H 1628.07 -4.26287 4.04417 0
M  V30 17377 H 1629.6 -5.01149 3.4883 0
M  V30 17378 H 1631.01 -3.15006 4.79003 0
M  V30 17379 H 1629.41 -2.6357 5.3912 0
M  V30 17380 H 1630.48 -1.44557 4.62851 0
M  V30 17381 N 1631.82 -1.45363 -0.608876 0
M  V30 17382 C 1632.77 -1.54268 -1.7408 0
M  V30 17383 C 1633.76 -0.412752 -1.64295 0
M  V30 17384 O 1634.97 -0.58861 -1.70104 0
M  V30 17385 H 1631.35 -0.484528 -0.575097 0
M  V30 17386 H 1633.32 -2.49492 -1.63696 0
M  V30 17387 C 1632.07 -1.5253 -3.12458 0
M  V30 17388 H 1631.39 -2.38801 -3.20646 0
M  V30 17389 H 1632.83 -1.62819 -3.91492 0
M  V30 17390 C 1631.29 -0.249525 -3.35975 0
M  V30 17391 O 1631.82 0.671159 -3.96053 0
M  V30 17392 N 1630.02 -0.145625 -2.90235 0
M  V30 17393 H 1629.57 -0.895714 -2.41526 0
M  V30 17394 H 1629.53 0.707167 -3.06344 0
M  V30 17395 N 1633.3 0.851265 -1.32632 0
M  V30 17396 C 1634.55 1.60807 -1.23568 0
M  V30 17397 C 1634.88 1.93155 0.201238 0
M  V30 17398 O 1634.15 1.5764 1.13929 0
M  V30 17399 C 1634.44 2.92619 -2.09872 0
M  V30 17400 C 1634.29 2.67031 -3.61959 0
M  V30 17401 C 1635.61 3.93924 -1.96244 0
M  V30 17402 H 1632.73 0.583492 -0.450229 0
M  V30 17403 H 1635.37 0.98273 -1.62611 0
M  V30 17404 H 1633.52 3.45988 -1.76704 0
M  V30 17405 H 1635.19 2.2019 -4.05357 0
M  V30 17406 H 1633.44 2.00938 -3.84456 0
M  V30 17407 H 1634.11 3.60902 -4.17676 0
M  V30 17408 H 1636.58 3.49823 -2.25307 0
M  V30 17409 H 1635.46 4.84005 -2.58902 0
M  V30 17410 H 1635.72 4.32185 -0.931065 0
M  V30 17411 N 1634.78 1.15898 1.06796 0
M  V30 17412 C 1635.71 0.818654 2.14081 0
M  V30 17413 C 1636.72 -0.171847 1.6189 0
M  V30 17414 O 1637.91 0.052196 1.78424 0
M  V30 17415 C 1635.01 0.197283 3.38325 0
M  V30 17416 C 1634.19 1.22662 4.19849 0
M  V30 17417 C 1633.24 0.625985 5.22463 0
M  V30 17418 O 1632.27 1.29347 5.54309 0
M  V30 17419 N 1633.47 -0.589665 5.77497 0
M  V30 17420 H 1636.24 1.74196 2.43877 0
M  V30 17421 H 1633.8 1.05562 1.22753 0
M  V30 17422 H 1635.79 -0.217439 4.04115 0
M  V30 17423 H 1634.36 -0.629476 3.06197 0
M  V30 17424 H 1633.58 1.8177 3.49791 0
M  V30 17425 H 1634.87 1.92143 4.71125 0
M  V30 17426 H 1634.27 -1.15022 5.53883 0
M  V30 17427 H 1632.82 -0.946667 6.44889 0
M  V30 17428 N 1636.26 -1.25243 0.956659 0
M  V30 17429 C 1637.5 -1.93624 0.623011 0
M  V30 17430 C 1637.86 -1.73521 -0.831149 0
M  V30 17431 O 1637.15 -1.07092 -1.58877 0
M  V30 17432 C 1637.34 -3.4536 0.919849 0
M  V30 17433 C 1637.17 -3.8022 2.40131 0
M  V30 17434 C 1635.94 -4.02169 3.05922 0
M  V30 17435 C 1638.14 -3.87567 3.38077 0
M  V30 17436 N 1636.12 -4.24037 4.43921 0
M  V30 17437 C 1637.49 -4.14149 4.6139 0
M  V30 17438 C 1639.55 -3.70257 3.32888 0
M  V30 17439 C 1638.25 -4.2522 5.80155 0
M  V30 17440 C 1640.28 -3.82569 4.50994 0
M  V30 17441 C 1639.64 -4.09565 5.73094 0
M  V30 17442 H 1635.74 -0.730679 0.278624 0
M  V30 17443 H 1638.32 -1.50988 1.22925 0
M  V30 17444 H 1636.49 -3.86887 0.342519 0
M  V30 17445 H 1638.23 -4.01001 0.545898 0
M  V30 17446 H 1634.98 -3.98135 2.56487 0
M  V30 17447 H 1635.41 -4.38974 5.15394 0
M  V30 17448 H 1640.05 -3.48401 2.39533 0
M  V30 17449 H 1637.77 -4.45892 6.73948 0
M  V30 17450 H 1641.35 -3.70559 4.48528 0
M  V30 17451 H 1640.23 -4.18875 6.62958 0
M  V30 17452 N 1637.73 -0.725468 -1.3991 0
M  V30 17453 C 1638.66 -0.094211 -2.3331 0
M  V30 17454 C 1639.65 0.734728 -1.53414 0
M  V30 17455 O 1640.83 0.681647 -1.81844 0
M  V30 17456 C 1637.96 0.820958 -3.37457 0
M  V30 17457 C 1636.91 0.0968983 -4.2789 0
M  V30 17458 C 1636.24 1.12845 -5.22657 0
M  V30 17459 C 1637.54 -1.05483 -5.11537 0
M  V30 17460 H 1639.23 -0.874365 -2.86348 0
M  V30 17461 H 1636.78 -0.421913 -1.3768 0
M  V30 17462 H 1638.73 1.27203 -4.01743 0
M  V30 17463 H 1637.46 1.63312 -2.82837 0
M  V30 17464 H 1636.12 -0.334454 -3.65071 0
M  V30 17465 H 1635.76 1.93392 -4.64337 0
M  V30 17466 H 1635.46 0.648805 -5.84007 0
M  V30 17467 H 1636.99 1.57942 -5.89819 0
M  V30 17468 H 1638.4 -0.682657 -5.69221 0
M  V30 17469 H 1636.8 -1.46349 -5.81981 0
M  V30 17470 H 1637.87 -1.88095 -4.46932 0
M  V30 17471 N 1639.21 1.50354 -0.472382 0
M  V30 17472 C 1640.63 1.59097 -0.126613 0
M  V30 17473 C 1640.83 1.4804 1.36698 0
M  V30 17474 O 1639.88 1.33956 2.14038 0
M  V30 17475 C 1641.2 2.92958 -0.677957 0
M  V30 17476 C 1642.75 3.06356 -0.6415 0
M  V30 17477 C 1643.22 4.42793 -1.17041 0
M  V30 17478 N 1644.71 4.49208 -1.12988 0
M  V30 17479 C 1645.45 5.53171 -1.50961 0
M  V30 17480 N 1644.94 6.64381 -1.96391 0
M  V30 17481 N 1646.74 5.43722 -1.42556 0
M  V30 17482 H 1638.89 1.55785 -1.44378 0
M  V30 17483 H 1641.15 0.736295 -0.597138 0
M  V30 17484 H 1640.86 3.06529 -1.72433 0
M  V30 17485 H 1640.73 3.77002 -0.122247 0
M  V30 17486 H 1643.12 2.92431 0.395964 0
M  V30 17487 H 1643.2 2.24066 -1.23403 0
M  V30 17488 H 1642.84 4.57466 -2.20651 0
M  V30 17489 H 1642.77 5.23677 -0.554086 0
M  V30 17490 H 1645.26 3.69407 -0.796692 0
M  V30 17491 H 1645.58 7.39772 -2.23511 0
M  V30 17492 H 1643.92 6.65498 -2.00344 0
M  V30 17493 H 1647.11 4.55729 -1.06905 0
M  V30 17494 H 1647.28 6.24625 -1.72476 0
M  V30 17495 N 1640.69 0.205039 1.56261 0
M  V30 17496 C 1641.65 -0.698166 2.18308 0
M  V30 17497 C 1642.65 -1.13376 1.14029 0
M  V30 17498 O 1643.84 -1.04524 1.39357 0
M  V30 17499 C 1640.98 -1.95438 2.79315 0
M  V30 17500 H 1642.17 -0.157462 2.99486 0
M  V30 17501 H 1639.72 -0.0445849 1.56236 0
M  V30 17502 H 1640.46 -2.53736 2.01962 0
M  V30 17503 H 1640.24 -1.65068 3.55662 0
M  V30 17504 H 1641.73 -2.59824 3.26927 0
M  V30 17505 N 1642.17 -1.57451 -0.0684915 0
M  V30 17506 C 1643.12 -2.00364 -1.08803 0
M  V30 17507 C 1644.1 -0.886239 -1.34293 0
M  V30 17508 O 1645.3 -1.15015 -1.34538 0
M  V30 17509 C 1642.42 -2.45387 -2.40083 0
M  V30 17510 C 1641.51 -3.63869 -2.17853 0
M  V30 17511 N 1641.9 -4.77936 -1.65562 0
M  V30 17512 C 1640.2 -3.70482 -2.48312 0
M  V30 17513 C 1640.9 -5.59768 -1.58223 0
M  V30 17514 N 1639.88 -5.03711 -2.04392 0
M  V30 17515 H 1643.68 -2.85994 -0.6771 0
M  V30 17516 H 1641.19 -1.60046 -0.275509 0
M  V30 17517 H 1643.19 -2.74372 -3.13888 0
M  V30 17518 H 1641.85 -1.61146 -2.8189 0
M  V30 17519 H 1642.86 -5.00163 -1.34379 0
M  V30 17520 H 1639.54 -2.96961 -2.93463 0
M  V30 17521 H 1640.93 -6.61346 -1.18619 0
M  V30 17522 N 1643.65 0.339955 -1.5389 0
M  V30 17523 C 1644.58 1.42316 -1.85117 0
M  V30 17524 C 1645.56 1.5473 -0.706591 0
M  V30 17525 O 1646.74 1.68879 -0.958834 0
M  V30 17526 C 1643.87 2.79317 -2.06396 0
M  V30 17527 C 1642.83 2.81707 -3.22219 0
M  V30 17528 C 1642.15 4.21627 -3.28838 0
M  V30 17529 C 1643.45 2.46921 -4.60247 0
M  V30 17530 H 1645.15 1.16431 -2.75834 0
M  V30 17531 H 1642.69 0.558661 -1.32721 0
M  V30 17532 H 1644.65 3.55145 -2.26826 0
M  V30 17533 H 1643.37 3.06644 -1.12414 0
M  V30 17534 H 1642.03 2.08332 -3.01651 0
M  V30 17535 H 1641.68 4.4607 -2.32444 0
M  V30 17536 H 1641.38 4.24137 -4.06672 0
M  V30 17537 H 1642.9 4.99292 -3.51482 0
M  V30 17538 H 1644.32 3.12462 -4.80667 0
M  V30 17539 H 1642.71 2.60707 -5.40511 0
M  V30 17540 H 1643.78 1.421 -4.63611 0
M  V30 17541 N 1645.13 1.45684 0.601159 0
M  V30 17542 C 1646.37 1.4974 1.35729 0
M  V30 17543 C 1646.69 0.143072 1.94474 0
M  V30 17544 O 1645.96 -0.82832 1.77527 0
M  V30 17545 H 1644.54 0.551455 0.503892 0
M  V30 17546 H 1647.21 1.81685 0.705443 0
M  V30 17547 H 1646.3 2.23982 2.17344 0
M  V30 17548 N 1646.6 -0.84422 1.33082 0
M  V30 17549 C 1647.85 -1.59404 1.23585 0
M  V30 17550 C 1648.17 -1.94593 -0.198208 0
M  V30 17551 O 1649.37 -2.68307 -0.415138 0
M  V30 17552 C 1647.83 -2.87489 2.16513 0
M  V30 17553 C 1647.44 -2.59685 3.65059 0
M  V30 17554 C 1649.18 -3.6551 2.15877 0
M  V30 17555 C 1647.09 -3.83834 4.49917 0
M  V30 17556 H 1646.02 -0.598191 0.459003 0
M  V30 17557 H 1648.67 -0.931299 1.58111 0
M  V30 17558 H 1647.05 -3.55276 1.74913 0
M  V30 17559 H 1648.22 -2.00143 4.15065 0
M  V30 17560 H 1646.54 -1.94977 3.6793 0
M  V30 17561 H 1649.14 -4.57654 2.76509 0
M  V30 17562 H 1649.48 -4.00031 1.15244 0
M  V30 17563 H 1650.01 -3.0464 2.55811 0
M  V30 17564 H 1646.75 -3.54448 5.51404 0
M  V30 17565 H 1646.27 -4.42734 4.04656 0
M  V30 17566 H 1647.95 -4.51468 4.63449 0
M  V30 17567 N 1648.08 -1.16463 -1.0618 0
M  V30 17568 C 1649.33 -0.948248 -1.79265 0
M  V30 17569 C 1649.66 0.522578 -1.87037 0
M  V30 17570 O 1648.94 1.38772 -1.36282 0
M  V30 17571 C 1649.22 -1.57781 -3.23693 0
M  V30 17572 C 1649.07 -3.12005 -3.23995 0
M  V30 17573 C 1650.39 -1.27343 -4.21274 0
M  V30 17574 H 1647.51 -0.345907 -0.650782 0
M  V30 17575 H 1650.15 -1.4381 -1.24172 0
M  V30 17576 H 1648.3 -1.16126 -3.70738 0
M  V30 17577 H 1649.97 -3.62649 -2.85102 0
M  V30 17578 H 1648.22 -3.45276 -2.62615 0
M  V30 17579 H 1648.89 -3.51176 -4.25886 0
M  V30 17580 H 1651.36 -1.63396 -3.82676 0
M  V30 17581 H 1650.24 -1.73993 -5.20594 0
M  V30 17582 H 1650.5 -0.192469 -4.41681 0
M  V30 17583 N 1649.56 1.24734 -0.963288 0
M  V30 17584 C 1650.78 1.97285 -0.639808 0
M  V30 17585 C 1651.21 1.71024 0.783099 0
M  V30 17586 O 1650.57 0.971324 1.53085 0
M  V30 17587 C 1650.62 3.48793 -0.915197 0
M  V30 17588 O 1649.72 4.124 0.00162805 0
M  V30 17589 H 1649.06 0.618196 -0.242343 0
M  V30 17590 H 1651.59 1.58627 -1.29224 0
M  V30 17591 H 1651.6 3.99155 -0.84495 0
M  V30 17592 H 1650.28 3.67235 -1.95221 0
M  V30 17593 H 1648.85 3.72702 -0.121563 0
M  V30 17594 N 1651.04 0.732878 1.39523 0
M  V30 17595 C 1651.97 0.0519358 2.29141 0
M  V30 17596 C 1652.98 -0.705687 1.4671 0
M  V30 17597 O 1654.17 -0.550202 1.69809 0
M  V30 17598 C 1651.27 -0.950691 3.25292 0
M  V30 17599 C 1650.44 -0.255028 4.36656 0
M  V30 17600 C 1649.5 -1.16546 5.13131 0
M  V30 17601 O 1648.53 -0.643742 5.65548 0
M  V30 17602 N 1649.73 -2.49534 5.24131 0
M  V30 17603 H 1652.5 0.8215 2.88221 0
M  V30 17604 H 1650.06 0.581924 1.5108 0
M  V30 17605 H 1652.05 -1.56232 3.73328 0
M  V30 17606 H 1650.62 -1.62148 2.67258 0
M  V30 17607 H 1649.84 0.537045 3.90525 0
M  V30 17608 H 1651.13 0.227162 5.08293 0
M  V30 17609 H 1650.53 -2.944 4.83058 0
M  V30 17610 H 1649.08 -3.05798 5.75613 0
M  V30 17611 N 1652.52 -1.50101 0.480349 0
M  V30 17612 C 1653.43 -2.32488 -0.31408 0
M  V30 17613 C 1654.44 -1.43285 -0.987186 0
M  V30 17614 O 1655.62 -1.7633 -0.973123 0
M  V30 17615 C 1652.68 -3.18203 -1.37651 0
M  V30 17616 C 1651.74 -4.23236 -0.71903 0
M  V30 17617 C 1650.98 -5.04854 -1.73084 0
M  V30 17618 O 1651.2 -4.87681 -2.95843 0
M  V30 17619 O 1650.13 -5.87748 -1.29755 0
M  V30 17620 H 1653.96 -3.01562 0.3597 0
M  V30 17621 H 1651.54 -1.47427 0.242029 0
M  V30 17622 H 1653.43 -3.71362 -1.9917 0
M  V30 17623 H 1652.1 -2.51846 -2.0336 0
M  V30 17624 H 1651.01 -3.74044 -0.0646492 0
M  V30 17625 H 1652.34 -4.92089 -0.104743 0
M  V30 17626 N 1653.99 -0.213323 -1.5615 0
M  V30 17627 C 1655.4 0.29602 -1.84338 0
M  V30 17628 C 1655.76 1.60073 -1.13451 0
M  V30 17629 O 1654.88 2.12645 -0.4014 0
M  V30 17630 C 1655.48 0.54387 -3.34406 0
M  V30 17631 C 1654.03 0.997539 -3.62941 0
M  V30 17632 C 1653.18 0.0560823 -2.77243 0
M  V30 17633 H 1656.13 -0.436707 -1.52573 0
M  V30 17634 H 1656.15 1.39093 -3.54166 0
M  V30 17635 H 1655.67 -0.405885 -3.85972 0
M  V30 17636 H 1653.77 1.96094 -3.16825 0
M  V30 17637 H 1653.88 0.877642 -4.70993 0
M  V30 17638 H 1652.24 0.561362 -2.48437 0
M  V30 17639 H 1653.03 -0.888442 -3.31605 0
M  V30 17640 N 1655.47 1.57485 0.0601405 0
M  V30 17641 C 1656.72 1.86998 0.75595 0
M  V30 17642 C 1657.03 0.807616 1.78149 0
M  V30 17643 O 1658.24 0.99096 2.52769 0
M  V30 17644 C 1656.7 3.31746 1.39545 0
M  V30 17645 C 1656.3 4.46139 0.407874 0
M  V30 17646 C 1658.05 3.70445 2.07294 0
M  V30 17647 C 1655.96 5.81933 1.05395 0
M  V30 17648 H 1654.89 0.697619 0.286083 0
M  V30 17649 H 1657.54 1.83498 0.00948593 0
M  V30 17650 H 1655.92 3.29894 2.19057 0
M  V30 17651 H 1657.09 4.59405 -0.358281 0
M  V30 17652 H 1655.41 4.1607 -0.16581 0
M  V30 17653 H 1658 4.692 2.56428 0
M  V30 17654 H 1658.35 3.00839 2.87753 0
M  V30 17655 H 1658.88 3.74337 1.34598 0
M  V30 17656 H 1655.62 6.54861 0.289437 0
M  V30 17657 H 1655.14 5.72446 1.79068 0
M  V30 17658 H 1656.82 6.27652 1.5704 0
M  V30 17659 N 1656.95 -0.331789 1.54068 0
M  V30 17660 C 1657.88 -1.41332 1.8587 0
M  V30 17661 C 1658.86 -1.54353 0.714787 0
M  V30 17662 O 1660.05 -1.68368 0.967777 0
M  V30 17663 C 1657.18 -2.78218 2.07875 0
M  V30 17664 C 1656.13 -2.79994 3.23709 0
M  V30 17665 C 1655.46 -4.19878 3.31069 0
M  V30 17666 C 1656.76 -2.44476 4.6155 0
M  V30 17667 H 1658.45 -1.14966 2.76447 0
M  V30 17668 H 1656 -0.551615 1.33016 0
M  V30 17669 H 1657.95 -3.53937 2.28706 0
M  V30 17670 H 1656.67 -3.06044 1.14038 0
M  V30 17671 H 1655.33 -2.0673 3.02751 0
M  V30 17672 H 1654.98 -4.44831 2.34807 0
M  V30 17673 H 1654.68 -4.21974 4.08915 0
M  V30 17674 H 1656.2 -4.97421 3.54125 0
M  V30 17675 H 1657.62 -3.09908 4.82317 0
M  V30 17676 H 1656.02 -2.57837 5.41886 0
M  V30 17677 H 1657.09 -1.3964 4.64358 0
M  V30 17678 N 1658.43 -1.46001 -0.593424 0
M  V30 17679 C 1659.68 -1.50755 -1.352 0
M  V30 17680 C 1660 -0.154929 -1.93882 0
M  V30 17681 O 1659.26 0.848161 -1.76365 0
M  V30 17682 C 1659.56 -2.54568 -2.50858 0
M  V30 17683 C 1659.22 -3.98888 -2.10236 0
M  V30 17684 C 1657.89 -4.38182 -1.98872 0
M  V30 17685 C 1660.24 -4.89591 -1.78746 0
M  V30 17686 C 1657.57 -5.66057 -1.5426 0
M  V30 17687 C 1659.92 -6.17892 -1.35617 0
M  V30 17688 C 1658.58 -6.56103 -1.22822 0
M  V30 17689 H 1657.85 -0.551652 -0.494734 0
M  V30 17690 H 1660.5 -1.79422 -0.669327 0
M  V30 17691 H 1658.8 -2.19523 -3.24526 0
M  V30 17692 H 1660.5 -2.5548 -3.09081 0
M  V30 17693 H 1657.09 -3.67822 -2.20012 0
M  V30 17694 H 1661.27 -4.59959 -1.86416 0
M  V30 17695 H 1656.53 -5.94444 -1.42988 0
M  V30 17696 H 1660.7 -6.87609 -1.10301 0
M  V30 17697 H 1658.33 -7.55086 -0.880285 0
M  V30 17698 N 1659.91 0.83715 -1.33527 0
M  V30 17699 C 1661.18 1.57727 -1.15678 0
M  V30 17700 C 1661.56 2.09286 0.276178 0
M  V30 17701 O 1660.91 1.89589 1.27547 0
M  V30 17702 C 1661.12 2.70978 -2.19936 0
M  V30 17703 C 1662.47 3.40114 -2.5418 0
M  V30 17704 O 1663.49 2.81221 -2.18616 0
M  V30 17705 O 1662.35 4.46431 -3.15217 0
M  V30 17706 H 1659.45 0.69545 -0.447525 0
M  V30 17707 H 1661.99 0.879756 -1.45115 0
M  V30 17708 H 1660.76 2.30532 -3.16181 0
M  V30 17709 H 1660.39 3.48393 -1.91594 0
M  V30 17710 N 1661.38 1.17024 1.05561 0
M  V30 17711 C 1662.62 0.967099 1.80074 0
M  V30 17712 C 1662.99 -0.495724 1.8549 0
M  V30 17713 O 1664.19 -0.817816 2.56057 0
M  V30 17714 C 1662.46 1.5862 3.20273 0
M  V30 17715 S 1664.02 1.52873 4.11309 0
M  V30 17716 H 1660.84 0.347623 0.620225 0
M  V30 17717 H 1663.44 1.48902 1.26682 0
M  V30 17718 H 1662.14 2.64341 3.1393 0
M  V30 17719 H 1661.67 1.06392 3.7874 0
M  V30 17720 H 1663.69 0.534126 4.93317 0
M  V30 17721 N 1662.86 -1.24221 0.969889 0
M  V30 17722 C 1664.09 -1.96943 0.650262 0
M  V30 17723 C 1664.51 -1.71437 -0.774018 0
M  V30 17724 O 1663.87 -0.979428 -1.52568 0
M  V30 17725 C 1663.92 -3.48303 0.933682 0
M  V30 17726 O 1663.02 -4.12395 0.0202425 0
M  V30 17727 H 1662.36 -0.616902 0.245618 0
M  V30 17728 H 1664.89 -1.57939 1.30063 0
M  V30 17729 H 1664.9 -3.98701 0.866106 0
M  V30 17730 H 1663.58 -3.66194 1.97166 0
M  V30 17731 H 1662.16 -3.72632 0.141327 0
M  V30 17732 N 1664.34 -0.740267 -1.39132 0
M  V30 17733 C 1665.59 -0.287379 -1.99642 0
M  V30 17734 C 1665.9 1.13337 -1.59418 0
M  V30 17735 O 1667.11 1.68605 -2.12802 0
M  V30 17736 C 1665.56 -0.462859 -3.56911 0
M  V30 17737 C 1665.17 -1.89184 -4.06095 0
M  V30 17738 C 1666.92 -0.0720122 -4.24439 0
M  V30 17739 C 1664.82 -2.01659 -5.55957 0
M  V30 17740 H 1663.75 -0.103696 -0.746835 0
M  V30 17741 H 1666.4 -0.914902 -1.59065 0
M  V30 17742 H 1664.79 0.233644 -3.9531 0
M  V30 17743 H 1665.96 -2.62072 -3.79018 0
M  V30 17744 H 1664.28 -2.23638 -3.51248 0
M  V30 17745 H 1666.87 -0.144163 -5.34506 0
M  V30 17746 H 1667.22 0.973516 -4.04757 0
M  V30 17747 H 1667.75 -0.719868 -3.91232 0
M  V30 17748 H 1664.49 -3.04419 -5.80525 0
M  V30 17749 H 1664.01 -1.33214 -5.8482 0
M  V30 17750 H 1665.69 -1.80023 -6.2145 0
M  V30 17751 N 1665.82 1.49844 -0.488302 0
M  V30 17752 C 1666.78 2.27412 0.285706 0
M  V30 17753 C 1667.78 1.32897 0.905261 0
M  V30 17754 O 1668.97 1.56171 0.771763 0
M  V30 17755 C 1666.1 3.10435 1.40864 0
M  V30 17756 H 1667.3 2.9729 -0.394782 0
M  V30 17757 H 1664.85 1.54401 -0.242873 0
M  V30 17758 H 1665.58 2.45094 2.12367 0
M  V30 17759 H 1665.37 3.79913 0.969991 0
M  V30 17760 H 1666.86 3.69054 1.95419 0
M  V30 17761 N 1667.3 0.221601 1.56034 0
M  V30 17762 C 1668.21 -0.699837 2.23918 0
M  V30 17763 C 1669.22 -1.21367 1.24683 0
M  V30 17764 O 1670.4 -1.25527 1.57495 0
M  V30 17765 C 1667.46 -1.89107 2.90585 0
M  V30 17766 C 1666.52 -1.4192 4.05163 0
M  V30 17767 C 1665.76 -2.55365 4.68641 0
M  V30 17768 O 1665.98 -3.735 4.31108 0
M  V30 17769 O 1664.91 -2.26564 5.57631 0
M  V30 17770 H 1668.74 -0.151552 3.03322 0
M  V30 17771 H 1666.33 -0.0088482 1.49397 0
M  V30 17772 H 1668.21 -2.58674 3.32664 0
M  V30 17773 H 1666.88 -2.42745 2.14141 0
M  V30 17774 H 1665.79 -0.691536 3.67653 0
M  V30 17775 H 1667.12 -0.929189 4.8335 0
M  V30 17776 N 1668.77 -1.57515 -0.0517878 0
M  V30 17777 C 1669.72 -2.06114 -1.07795 0
M  V30 17778 C 1670.72 -0.97034 -1.38855 0
M  V30 17779 O 1671.92 -1.15536 -1.38027 0
M  V30 17780 H 1668.3 -0.657451 -0.365051 0
M  V30 17781 H 1670.27 -2.9141 -0.642068 0
M  V30 17782 C 1669.02 -2.53728 -2.37734 0
M  V30 17783 H 1668.34 -3.37266 -2.14689 0
M  V30 17784 H 1669.78 -2.91466 -3.07934 0
M  V30 17785 C 1668.24 -1.42868 -3.05107 0
M  V30 17786 O 1668.77 -0.782025 -3.94014 0
M  V30 17787 N 1666.98 -1.16882 -2.66058 0
M  V30 17788 H 1666.52 -1.6965 -1.93847 0
M  V30 17789 H 1666.48 -0.429164 -3.11457 0
M  V30 17790 N 1670.25 0.323614 -1.54242 0
M  V30 17791 C 1671.5 1.05909 -1.71657 0
M  V30 17792 C 1671.82 1.89177 -0.497151 0
M  V30 17793 O 1673.02 2.65816 -0.552649 0
M  V30 17794 C 1671.48 1.93246 -3.03618 0
M  V30 17795 C 1671.09 1.1509 -4.32965 0
M  V30 17796 C 1672.83 2.6653 -3.30397 0
M  V30 17797 C 1670.74 2.01573 -5.55988 0
M  V30 17798 H 1669.67 0.399114 -0.639706 0
M  V30 17799 H 1672.32 0.317338 -1.80735 0
M  V30 17800 H 1670.7 2.71319 -2.88447 0
M  V30 17801 H 1671.87 0.417877 -4.58901 0
M  V30 17802 H 1670.19 0.534882 -4.1295 0
M  V30 17803 H 1672.79 3.31542 -4.19504 0
M  V30 17804 H 1673.13 3.34164 -2.48274 0
M  V30 17805 H 1673.66 1.95518 -3.46435 0
M  V30 17806 H 1670.4 1.38446 -6.40713 0
M  V30 17807 H 1669.92 2.72609 -5.3427 0
M  V30 17808 H 1671.6 2.60159 -5.9239 0
M  V30 17809 N 1671.73 1.46313 0.585673 0
M  V30 17810 C 1672.69 1.56239 1.67696 0
M  V30 17811 C 1673.69 0.439808 1.54668 0
M  V30 17812 O 1674.88 0.704019 1.5934 0
M  V30 17813 C 1672.02 1.47986 3.07104 0
M  V30 17814 H 1673.21 2.53492 1.60255 0
M  V30 17815 H 1670.76 1.3408 0.803264 0
M  V30 17816 H 1671.5 0.520007 3.20104 0
M  V30 17817 H 1671.28 2.2943 3.17969 0
M  V30 17818 H 1672.77 1.5801 3.86552 0
M  V30 17819 N 1673.21 -0.830057 1.33969 0
M  V30 17820 C 1674.44 -1.61539 1.28797 0
M  V30 17821 C 1674.85 -1.8867 -0.14158 0
M  V30 17822 O 1674.19 -1.47356 -1.0969 0
M  V30 17823 C 1674.25 -2.98503 2.0034 0
M  V30 17824 C 1673.92 -2.94302 3.49622 0
M  V30 17825 C 1674.91 -2.69391 4.44662 0
M  V30 17826 C 1672.6 -3.14159 3.9193 0
M  V30 17827 C 1674.59 -2.64379 5.79985 0
M  V30 17828 C 1672.28 -3.08772 5.27355 0
M  V30 17829 C 1673.28 -2.83914 6.21194 0
M  V30 17830 O 1672.97 -2.78446 7.54137 0
M  V30 17831 H 1672.7 -0.509067 0.444777 0
M  V30 17832 H 1675.25 -1.04137 1.77044 0
M  V30 17833 H 1673.48 -3.57795 1.46697 0
M  V30 17834 H 1675.17 -3.59449 1.88551 0
M  V30 17835 H 1675.94 -2.53792 4.13298 0
M  V30 17836 H 1671.82 -3.32526 3.19293 0
M  V30 17837 H 1675.36 -2.44896 6.53201 0
M  V30 17838 H 1671.26 -3.23922 5.58341 0
M  V30 17839 H 1672.02 -2.94224 7.63789 0
M  V30 17840 N 1674.69 -1.17582 -1.04939 0
M  V30 17841 C 1675.94 -0.96387 -1.77634 0
M  V30 17842 C 1676.26 0.508548 -1.88252 0
M  V30 17843 O 1675.53 1.36913 -1.40113 0
M  V30 17844 H 1674.11 -0.353636 -0.65799 0
M  V30 17845 H 1676.77 -1.48104 -1.26693 0
M  V30 17846 H 1675.86 -1.39438 -2.79219 0
M  V30 17847 N 1676.17 1.23705 -0.976463 0
M  V30 17848 C 1677.44 1.87421 -0.559719 0
M  V30 17849 C 1677.82 1.87847 0.963166 0
M  V30 17850 O 1677.17 1.35726 1.83822 0
M  V30 17851 C 1677.38 3.29113 -1.16128 0
M  V30 17852 C 1678.73 4.05735 -1.25158 0
M  V30 17853 O 1679.75 3.38317 -1.11444 0
M  V30 17854 O 1678.61 5.26377 -1.46933 0
M  V30 17855 H 1675.71 0.80537 -0.187903 0
M  V30 17856 H 1678.25 1.31611 -1.07129 0
M  V30 17857 H 1677.02 3.23348 -2.20367 0
M  V30 17858 H 1676.65 3.92508 -0.63428 0
M  V30 17859 N 1677.64 0.747635 1.38738 0
M  V30 17860 C 1678.59 0.105258 2.32362 0
M  V30 17861 C 1679.59 -0.711921 1.53714 0
M  V30 17862 O 1680.79 -0.611687 1.69288 0
M  V30 17863 H 1677.17 0.0152406 0.751846 0
M  V30 17864 H 1679.14 0.911057 2.84152 0
M  V30 17865 C 1677.89 -0.778221 3.38879 0
M  V30 17866 H 1677.21 -0.158806 3.99484 0
M  V30 17867 H 1678.65 -1.19509 4.06809 0
M  V30 17868 C 1677.11 -1.91819 2.76961 0
M  V30 17869 O 1677.64 -3.01187 2.65799 0
M  V30 17870 N 1675.84 -1.71143 2.34859 0
M  V30 17871 H 1675.39 -0.821885 2.44137 0
M  V30 17872 H 1675.35 -2.47588 1.93772 0
M  V30 17873 N 1679.12 -1.49583 0.496242 0
M  V30 17874 C 1680.35 -2.07342 -0.0490986 0
M  V30 17875 C 1680.77 -1.35474 -1.30493 0
M  V30 17876 O 1680.13 -0.410005 -1.76603 0
M  V30 17877 C 1680.18 -3.59427 -0.290601 0
M  V30 17878 O 1679.28 -3.89111 -1.36626 0
M  V30 17879 H 1678.62 -0.663562 0.0241141 0
M  V30 17880 H 1681.15 -1.92452 0.6945 0
M  V30 17881 H 1681.16 -4.04627 -0.523549 0
M  V30 17882 H 1679.84 -4.11147 0.626959 0
M  V30 17883 H 1678.41 -3.55726 -1.11864 0
M  V30 17884 N 1680.6 -0.229873 -1.55915 0
M  V30 17885 C 1682.02 0.125347 -1.59107 0
M  V30 17886 C 1682.22 1.58293 -1.24682 0
M  V30 17887 O 1681.27 2.32452 -0.986018 0
M  V30 17888 C 1682.58 -0.208461 -2.99977 0
M  V30 17889 C 1684.13 -0.151373 -3.12634 0
M  V30 17890 C 1684.61 -0.458972 -4.55694 0
M  V30 17891 N 1686.1 -0.408847 -4.61392 0
M  V30 17892 C 1686.83 -0.620239 -5.70036 0
M  V30 17893 N 1686.33 -0.893851 -6.8701 0
M  V30 17894 N 1688.12 -0.552107 -5.59382 0
M  V30 17895 H 1680.27 -1.18062 -1.76565 0
M  V30 17896 H 1682.54 -0.473821 -0.821095 0
M  V30 17897 H 1682.24 -1.22043 -3.29846 0
M  V30 17898 H 1682.12 0.472591 -3.74228 0
M  V30 17899 H 1684.5 0.851249 -2.82556 0
M  V30 17900 H 1684.58 -0.866024 -2.40694 0
M  V30 17901 H 1684.23 -1.45907 -4.86491 0
M  V30 17902 H 1684.16 0.276965 -5.25871 0
M  V30 17903 H 1686.65 -0.205404 -3.77341 0
M  V30 17904 H 1686.96 -1.04303 -7.65729 0
M  V30 17905 H 1685.31 -0.931138 -6.88734 0
M  V30 17906 H 1688.5 -0.338518 -4.66874 0
M  V30 17907 H 1688.67 -0.720256 -6.43985 0
M  V30 17908 N 1682.08 1.5754 0.0434337 0
M  V30 17909 C 1683.32 1.88887 0.7382 0
M  V30 17910 C 1683.66 0.825827 1.75766 0
M  V30 17911 O 1682.93 -0.160797 1.93834 0
M  V30 17912 C 1683.21 3.30889 1.42072 0
M  V30 17913 C 1683.07 4.47874 0.415754 0
M  V30 17914 C 1684.39 3.71571 2.35846 0
M  V30 17915 H 1681.51 0.686975 0.266897 0
M  V30 17916 H 1684.15 1.9 0.00106957 0
M  V30 17917 H 1682.3 3.30071 2.04903 0
M  V30 17918 H 1683.97 4.60824 -0.209529 0
M  V30 17919 H 1682.21 4.32982 -0.266346 0
M  V30 17920 H 1682.88 5.44084 0.931509 0
M  V30 17921 H 1685.36 3.73663 1.83071 0
M  V30 17922 H 1684.24 4.71763 2.80589 0
M  V30 17923 H 1684.5 3.03041 3.21898 0
M  V30 17924 N 1683.56 -0.31543 1.54411 0
M  V30 17925 C 1684.8 -1.05396 1.73261 0
M  V30 17926 C 1685.13 -1.87406 0.509171 0
M  V30 17927 O 1684.41 -1.88126 -0.493836 0
M  V30 17928 C 1684.69 -1.97195 3.01308 0
M  V30 17929 C 1684.55 -1.18461 4.33921 0
M  V30 17930 C 1685.86 -2.96594 3.25146 0
M  V30 17931 H 1682.98 -0.381763 0.630417 0
M  V30 17932 H 1685.63 -0.329882 1.87114 0
M  V30 17933 H 1683.78 -2.58936 2.89628 0
M  V30 17934 H 1685.45 -0.591171 4.57496 0
M  V30 17935 H 1683.69 -0.487025 4.31057 0
M  V30 17936 H 1684.36 -1.85909 5.19752 0
M  V30 17937 H 1686.84 -2.44977 3.36341 0
M  V30 17938 H 1685.71 -3.58002 4.16084 0
M  V30 17939 H 1685.97 -3.69487 2.42758 0
M  V30 17940 N 1685.03 -1.46622 -0.577906 0
M  V30 17941 C 1686.26 -1.56 -1.36671 0
M  V30 17942 C 1686.68 -0.2034 -1.86997 0
M  V30 17943 O 1686.04 0.817288 -1.61834 0
M  V30 17944 C 1686.09 -2.57254 -2.52691 0
M  V30 17945 O 1685.19 -2.1109 -3.54281 0
M  V30 17946 H 1684.54 -0.524779 -0.406821 0
M  V30 17947 H 1687.07 -1.92234 -0.700512 0
M  V30 17948 H 1687.08 -2.77016 -2.99543 0
M  V30 17949 H 1685.75 -3.55766 -2.15415 0
M  V30 17950 H 1684.33 -2.01337 -3.13875 0
M  V30 17951 N 1686.51 0.822941 -1.34408 0
M  V30 17952 C 1687.44 1.94142 -1.21826 0
M  V30 17953 C 1688.46 1.6215 -0.145353 0
M  V30 17954 O 1689.65 1.74025 -0.397205 0
M  V30 17955 C 1686.75 3.28077 -0.849619 0
M  V30 17956 C 1685.92 3.88092 -2.0175 0
M  V30 17957 C 1684.98 5.00406 -1.62726 0
M  V30 17958 O 1684 5.18703 -2.34383 0
M  V30 17959 N 1685.21 5.7797 -0.541413 0
M  V30 17960 H 1687.97 2.05467 -2.18182 0
M  V30 17961 H 1685.53 0.999521 -1.27362 0
M  V30 17962 H 1687.52 4.00661 -0.57035 0
M  V30 17963 H 1686.09 3.12591 0.0237499 0
M  V30 17964 H 1685.31 3.07902 -2.46151 0
M  V30 17965 H 1686.6 4.24921 -2.79856 0
M  V30 17966 H 1686 5.65674 0.0542929 0
M  V30 17967 H 1684.56 6.51005 -0.321874 0
M  V30 17968 N 1687.99 1.18137 1.04314 0
M  V30 17969 C 1688.9 0.921044 2.15764 0
M  V30 17970 C 1689.92 -0.11396 1.73626 0
M  V30 17971 O 1691.09 0.0673733 2.01287 0
M  V30 17972 C 1688.16 0.447581 3.43799 0
M  V30 17973 C 1687.22 1.55025 4.00332 0
M  V30 17974 C 1686.45 1.09928 5.22256 0
M  V30 17975 O 1686.67 -0.0430152 5.70384 0
M  V30 17976 O 1685.61 1.896 5.71258 0
M  V30 17977 H 1689.43 1.85353 2.40579 0
M  V30 17978 H 1687.02 0.962985 1.14223 0
M  V30 17979 H 1688.9 0.191497 4.20965 0
M  V30 17980 H 1687.58 -0.456641 3.20463 0
M  V30 17981 H 1686.48 1.86032 3.24566 0
M  V30 17982 H 1687.82 2.4305 4.28004 0
M  V30 17983 N 1689.47 -1.23186 0.98301 0
M  V30 17984 C 1690.38 -2.28448 0.533727 0
M  V30 17985 C 1691.39 -1.69034 -0.412732 0
M  V30 17986 O 1692.57 -1.99416 -0.282007 0
M  V30 17987 C 1689.64 -3.46357 -0.154179 0
M  V30 17988 C 1688.7 -4.21121 0.834009 0
M  V30 17989 C 1687.93 -5.334 0.178836 0
M  V30 17990 O 1688.15 -5.61032 -1.02952 0
M  V30 17991 O 1687.09 -5.95451 0.878722 0
M  V30 17992 H 1690.91 -2.69027 1.40919 0
M  V30 17993 H 1688.5 -1.29166 0.75077 0
M  V30 17994 H 1690.38 -4.17926 -0.539947 0
M  V30 17995 H 1689.05 -3.07724 -1.00437 0
M  V30 17996 H 1687.96 -3.51864 1.27053 0
M  V30 17997 H 1689.29 -4.6361 1.65309 0
M  V30 17998 N 1690.95 -0.754982 -1.38339 0
M  V30 17999 C 1692.2 -0.308537 -1.99326 0
M  V30 18000 C 1692.51 1.1164 -1.60611 0
M  V30 18001 O 1693.71 1.66339 -2.14578 0
M  V30 18002 C 1692.17 -0.500688 -3.564 0
M  V30 18003 C 1691.78 -1.9348 -4.04066 0
M  V30 18004 C 1693.52 -0.117026 -4.24339 0
M  V30 18005 C 1691.43 -2.07544 -5.53786 0
M  V30 18006 H 1690.36 -0.111611 -0.745694 0
M  V30 18007 H 1693.01 -0.931722 -1.58086 0
M  V30 18008 H 1691.39 0.191702 -3.95536 0
M  V30 18009 H 1692.57 -2.66077 -3.76217 0
M  V30 18010 H 1690.88 -2.27351 -3.48856 0
M  V30 18011 H 1693.48 -0.200847 -5.34323 0
M  V30 18012 H 1693.82 0.930531 -4.05767 0
M  V30 18013 H 1694.35 -0.761323 -3.90447 0
M  V30 18014 H 1691.09 -3.10559 -5.77264 0
M  V30 18015 H 1690.61 -1.39409 -5.83374 0
M  V30 18016 H 1692.29 -1.86605 -6.19506 0
M  V30 18017 N 1692.42 1.49318 -0.504168 0
M  V30 18018 C 1693.67 2.02762 0.0392846 0
M  V30 18019 C 1694 1.38282 1.36352 0
M  V30 18020 O 1693.28 0.519587 1.87431 0
M  V30 18021 C 1693.56 3.59606 0.188507 0
M  V30 18022 C 1693.41 4.3461 -1.15908 0
M  V30 18023 C 1694.73 4.30213 0.927641 0
M  V30 18024 H 1691.85 0.736889 0.0128028 0
M  V30 18025 H 1694.49 1.78309 -0.656193 0
M  V30 18026 H 1692.64 3.80572 0.780861 0
M  V30 18027 H 1694.32 4.25132 -1.79055 0
M  V30 18028 H 1692.56 3.97043 -1.74756 0
M  V30 18029 H 1693.23 5.4272 -1.00794 0
M  V30 18030 H 1695.71 4.13922 0.425228 0
M  V30 18031 H 1694.58 5.39697 1.0009 0
M  V30 18032 H 1694.84 3.95678 1.97209 0
M  V30 18033 N 1693.9 0.238138 1.5579 0
M  V30 18034 C 1695.32 -0.116908 1.59171 0
M  V30 18035 C 1695.52 -1.57629 1.2552 0
M  V30 18036 O 1694.57 -2.31926 0.998332 0
M  V30 18037 C 1695.89 0.224366 2.99862 0
M  V30 18038 C 1697.44 0.16795 3.12549 0
M  V30 18039 C 1697.91 0.483132 4.55445 0
M  V30 18040 N 1699.4 0.43331 4.61169 0
M  V30 18041 C 1700.14 0.650461 5.69699 0
M  V30 18042 N 1699.63 0.930272 6.86526 0
M  V30 18043 N 1701.43 0.581764 5.59081 0
M  V30 18044 H 1693.58 1.18996 1.75936 0
M  V30 18045 H 1695.84 0.478169 0.818571 0
M  V30 18046 H 1695.55 1.23791 3.29194 0
M  V30 18047 H 1695.42 -0.452738 3.74473 0
M  V30 18048 H 1697.81 -0.836252 2.83003 0
M  V30 18049 H 1697.89 0.878776 2.40231 0
M  V30 18050 H 1697.53 1.48485 4.8571 0
M  V30 18051 H 1697.46 -0.249073 5.26011 0
M  V30 18052 H 1699.95 0.225412 3.77227 0
M  V30 18053 H 1700.27 1.08362 7.65165 0
M  V30 18054 H 1698.61 0.96765 6.88231 0
M  V30 18055 H 1701.8 0.363273 4.66688 0
M  V30 18056 H 1701.97 0.754398 6.43594 0
M  V30 18057 N 1695.38 -1.57561 -0.0350783 0
M  V30 18058 C 1696.34 -2.05145 -1.02217 0
M  V30 18059 C 1697.34 -0.954524 -1.29404 0
M  V30 18060 O 1698.53 -1.21833 -1.24509 0
M  V30 18061 C 1695.67 -2.4633 -2.35658 0
M  V30 18062 H 1696.86 -2.93605 -0.61126 0
M  V30 18063 H 1694.41 -1.53739 -0.28176 0
M  V30 18064 H 1695.15 -1.61008 -2.81508 0
M  V30 18065 H 1694.93 -3.26408 -2.17256 0
M  V30 18066 H 1696.42 -2.83592 -3.06537 0
M  V30 18067 N 1696.86 0.307236 -1.54576 0
M  V30 18068 C 1697.82 1.36178 -1.84359 0
M  V30 18069 C 1698.82 1.43971 -0.716163 0
M  V30 18070 O 1700.01 1.43715 -0.98446 0
M  V30 18071 C 1697.14 2.74733 -2.01828 0
M  V30 18072 H 1698.34 1.11017 -2.78595 0
M  V30 18073 H 1695.89 0.543582 -1.46543 0
M  V30 18074 H 1696.62 3.05126 -1.09858 0
M  V30 18075 H 1696.41 2.70468 -2.83883 0
M  V30 18076 H 1697.9 3.50992 -2.26261 0
M  V30 18077 N 1698.34 1.46926 0.570122 0
M  V30 18078 C 1699.28 1.58442 1.67824 0
M  V30 18079 C 1700.25 0.428053 1.6049 0
M  V30 18080 O 1701.44 0.646445 1.79515 0
M  V30 18081 C 1698.58 1.59253 3.06158 0
M  V30 18082 C 1697.69 2.85714 3.24024 0
M  V30 18083 C 1696.83 2.77945 4.52681 0
M  V30 18084 C 1695.87 3.99289 4.63934 0
M  V30 18085 N 1695 3.89833 5.83931 0
M  V30 18086 H 1699.84 2.5309 1.5732 0
M  V30 18087 H 1697.38 1.25549 0.766548 0
M  V30 18088 H 1699.34 1.57707 3.86244 0
M  V30 18089 H 1697.97 0.68127 3.15529 0
M  V30 18090 H 1697.02 2.97184 2.37458 0
M  V30 18091 H 1698.33 3.7561 3.28206 0
M  V30 18092 H 1697.49 2.74576 5.41011 0
M  V30 18093 H 1696.22 1.85711 4.50958 0
M  V30 18094 H 1695.23 4.02976 3.74019 0
M  V30 18095 H 1696.45 4.92635 4.67427 0
M  V30 18096 H 1694.4 3.00393 5.83181 0
M  V30 18097 H 1694.32 4.73395 5.89434 0
M  V30 18098 H 1695.59 3.90459 6.74657 0
M  V30 18099 N 1699.82 -0.815801 1.34842 0
M  V30 18100 C 1700.73 -1.95886 1.29097 0
M  V30 18101 C 1701.74 -1.72876 0.197422 0
M  V30 18102 O 1702.92 -1.96861 0.425166 0
M  V30 18103 C 1699.98 -3.30311 1.05336 0
M  V30 18104 C 1699.04 -3.66279 2.23916 0
M  V30 18105 C 1698.28 -4.9429 2.01279 0
M  V30 18106 O 1698.5 -5.62012 0.974603 0
M  V30 18107 O 1697.43 -5.28302 2.88411 0
M  V30 18108 H 1701.26 -2.03678 2.25276 0
M  V30 18109 H 1698.84 -0.952243 1.1512 0
M  V30 18110 H 1700.73 -4.10806 0.938961 0
M  V30 18111 H 1699.4 -3.2347 0.122024 0
M  V30 18112 H 1698.31 -2.86198 2.40918 0
M  V30 18113 H 1699.64 -3.77814 3.15464 0
M  V30 18114 N 1701.29 -1.18689 -1.03686 0
M  V30 18115 C 1702.26 -0.919415 -2.09951 0
M  V30 18116 C 1703.26 0.0968042 -1.60508 0
M  V30 18117 O 1704.45 -0.137062 -1.7366 0
M  V30 18118 C 1701.58 -0.380204 -3.38773 0
M  V30 18119 H 1702.77 -1.86178 -2.35112 0
M  V30 18120 H 1700.32 -0.999435 -1.20171 0
M  V30 18121 H 1701.06 0.568586 -3.19277 0
M  V30 18122 H 1700.84 -1.11281 -3.75977 0
M  V30 18123 H 1702.33 -0.211891 -4.17062 0
M  V30 18124 N 1702.77 1.22662 -0.989529 0
M  V30 18125 C 1703.72 2.26484 -0.529864 0
M  V30 18126 C 1704.71 1.64168 0.417759 0
M  V30 18127 O 1705.92 1.77638 0.290649 0
M  V30 18128 H 1702.29 0.736282 -0.152949 0
M  V30 18129 H 1704.27 2.62608 -1.41702 0
M  V30 18130 C 1703.01 3.47405 0.143148 0
M  V30 18131 H 1702.34 3.95615 -0.576962 0
M  V30 18132 H 1703.78 4.21831 0.428279 0
M  V30 18133 C 1702.24 3.07457 1.37738 0
M  V30 18134 O 1702.77 3.16555 2.47297 0
M  V30 18135 N 1700.97 2.62276 1.25139 0
M  V30 18136 H 1700.52 2.55073 0.359927 0
M  V30 18137 H 1700.48 2.35915 2.07826 0
M  V30 18138 N 1704.25 0.762308 1.37937 0
M  V30 18139 C 1705.5 0.319104 1.9916 0
M  V30 18140 C 1705.81 -1.10787 1.61201 0
M  V30 18141 O 1707.02 -1.65198 2.15457 0
M  V30 18142 C 1705.47 0.519582 3.5613 0
M  V30 18143 C 1705.08 1.9562 4.03034 0
M  V30 18144 C 1706.83 0.139528 4.24271 0
M  V30 18145 C 1704.73 2.10478 5.52678 0
M  V30 18146 H 1703.66 0.115564 0.745091 0
M  V30 18147 H 1706.31 0.940092 1.5759 0
M  V30 18148 H 1704.7 -0.170724 3.95632 0
M  V30 18149 H 1705.87 2.68069 3.74801 0
M  V30 18150 H 1704.18 2.29197 3.47646 0
M  V30 18151 H 1706.78 0.22918 5.34209 0
M  V30 18152 H 1707.12 -0.908999 4.06255 0
M  V30 18153 H 1707.66 0.782019 3.90038 0
M  V30 18154 H 1704.4 3.13616 5.75609 0
M  V30 18155 H 1703.92 1.42501 5.82626 0
M  V30 18156 H 1705.6 1.89887 6.18508 0
M  V30 18157 N 1705.73 -1.49049 0.51208 0
M  V30 18158 C 1706.68 -2.26276 -0.27989 0
M  V30 18159 C 1707.66 -1.31598 -0.925787 0
M  V30 18160 O 1708.85 -1.5625 -0.831554 0
M  V30 18161 C 1705.98 -3.16191 -1.33709 0
M  V30 18162 C 1705.07 -4.18335 -0.696883 0
M  V30 18163 N 1705.46 -5.05376 0.206971 0
M  V30 18164 C 1703.76 -4.35629 -0.956187 0
M  V30 18165 C 1704.46 -5.78856 0.574543 0
M  V30 18166 N 1703.43 -5.43567 -0.0601701 0
M  V30 18167 H 1707.24 -2.90945 0.415736 0
M  V30 18168 H 1704.75 -1.59035 0.328893 0
M  V30 18169 H 1706.75 -3.70159 -1.91801 0
M  V30 18170 H 1705.41 -2.53075 -2.03428 0
M  V30 18171 H 1706.42 -5.14659 0.578481 0
M  V30 18172 H 1703.1 -3.83714 -1.64529 0
M  V30 18173 H 1704.49 -6.58913 1.31464 0
M  V30 18174 N 1707.21 -0.246397 -1.55662 0
M  V30 18175 C 1708.17 0.640041 -2.20082 0
M  V30 18176 C 1709.17 1.10313 -1.16994 0
M  V30 18177 O 1710.36 1.00792 -1.42079 0
M  V30 18178 C 1707.49 1.87964 -2.84398 0
M  V30 18179 H 1708.68 0.0780034 -2.99799 0
M  V30 18180 H 1706.24 0.00314588 -1.563 0
M  V30 18181 H 1706.97 2.48292 -2.08618 0
M  V30 18182 H 1706.76 1.5558 -3.59913 0
M  V30 18183 H 1708.25 2.51065 -3.33701 0
M  V30 18184 N 1708.68 1.57577 0.026722 0
M  V30 18185 C 1709.93 1.89379 0.717062 0
M  V30 18186 C 1710.26 0.843976 1.75235 0
M  V30 18187 O 1709.51 -0.154755 1.95087 0
M  V30 18188 C 1709.81 3.27927 1.42121 0
M  V30 18189 C 1709.48 4.47872 0.521676 0
M  V30 18190 C 1708.14 4.8042 0.273926 0
M  V30 18191 C 1710.49 5.21105 -0.0992493 0
M  V30 18192 C 1707.82 5.83588 -0.603488 0
M  V30 18193 C 1710.17 6.25206 -0.964379 0
M  V30 18194 C 1708.84 6.56227 -1.22157 0
M  V30 18195 H 1708.11 0.692988 0.262391 0
M  V30 18196 H 1710.75 1.91486 -0.0230629 0
M  V30 18197 H 1709.06 3.2182 2.23471 0
M  V30 18198 H 1710.76 3.49783 1.96094 0
M  V30 18199 H 1707.35 4.22425 0.724931 0
M  V30 18200 H 1711.53 4.96237 0.0791882 0
M  V30 18201 H 1706.79 6.05997 -0.811031 0
M  V30 18202 H 1710.96 6.81094 -1.45201 0
M  V30 18203 H 1708.59 7.35991 -1.90317 0
M  V30 18204 N 1710.16 -0.299034 1.54737 0
M  V30 18205 C 1711.41 -1.03164 1.7332 0
M  V30 18206 C 1711.72 -1.88362 0.527184 0
M  V30 18207 O 1712.93 -2.64903 0.594868 0
M  V30 18208 C 1711.39 -1.88391 3.06654 0
M  V30 18209 C 1710.99 -1.08187 4.34741 0
M  V30 18210 C 1712.74 -2.6124 3.34595 0
M  V30 18211 C 1710.64 -1.92702 5.59124 0
M  V30 18212 H 1709.57 -0.388887 0.645975 0
M  V30 18213 H 1712.23 -0.288544 1.81217 0
M  V30 18214 H 1710.61 -2.66696 2.92727 0
M  V30 18215 H 1711.78 -0.344817 4.59508 0
M  V30 18216 H 1710.1 -0.469118 4.13749 0
M  V30 18217 H 1712.69 -3.24826 4.24726 0
M  V30 18218 H 1713.04 -3.30172 2.53559 0
M  V30 18219 H 1713.57 -1.89982 3.49502 0
M  V30 18220 H 1710.31 -1.28236 6.42834 0
M  V30 18221 H 1709.83 -2.64074 5.38539 0
M  V30 18222 H 1711.51 -2.50702 5.96454 0
M  V30 18223 N 1711.64 -1.47227 -0.562322 0
M  V30 18224 C 1712.55 -1.61953 -1.69731 0
M  V30 18225 C 1713.57 -0.502478 -1.66587 0
M  V30 18226 O 1714.74 -0.769335 -1.86127 0
M  V30 18227 C 1711.81 -1.62539 -3.06238 0
M  V30 18228 C 1710.87 -2.85632 -3.20489 0
M  V30 18229 C 1710.1 -2.86181 -4.50485 0
M  V30 18230 O 1710.32 -1.96099 -5.35632 0
M  V30 18231 O 1709.26 -3.7798 -4.68417 0
M  V30 18232 H 1713.08 -2.5798 -1.6025 0
M  V30 18233 H 1710.67 -1.30253 -0.73174 0
M  V30 18234 H 1712.55 -1.65634 -3.87483 0
M  V30 18235 H 1711.23 -0.696779 -3.16112 0
M  V30 18236 H 1710.13 -2.88084 -2.3866 0
M  V30 18237 H 1711.47 -3.7777 -3.15517 0
M  V30 18238 N 1713.12 0.808639 -1.35273 0
M  V30 18239 C 1714.34 1.60219 -1.31699 0
M  V30 18240 C 1714.77 1.87816 0.103386 0
M  V30 18241 O 1714.13 1.46389 1.06957 0
M  V30 18242 C 1714.17 2.9116 -2.12739 0
M  V30 18243 O 1713.28 3.83891 -1.5067 0
M  V30 18244 H 1712.62 0.486742 -0.45164 0
M  V30 18245 H 1715.15 1.00378 -1.78284 0
M  V30 18246 H 1715.16 3.40602 -2.2462 0
M  V30 18247 H 1713.83 2.70399 -3.16002 0
M  V30 18248 H 1712.41 3.42437 -1.47618 0
M  V30 18249 N 1714.6 1.19237 1.03055 0
M  V30 18250 C 1715.53 0.95226 2.132 0
M  V30 18251 C 1716.51 -0.113771 1.69719 0
M  V30 18252 O 1717.69 0.0409057 1.94157 0
M  V30 18253 C 1714.82 0.488296 3.4385 0
M  V30 18254 C 1713.78 1.49597 4.01005 0
M  V30 18255 C 1713.1 0.889148 5.27255 0
M  V30 18256 C 1714.4 2.87571 4.36005 0
M  V30 18257 H 1716.1 1.87343 2.33544 0
M  V30 18258 H 1713.64 0.902172 1.12236 0
M  V30 18259 H 1715.6 0.307623 4.20276 0
M  V30 18260 H 1714.32 -0.468469 3.23223 0
M  V30 18261 H 1712.98 1.66376 3.26672 0
M  V30 18262 H 1712.63 -0.0751191 5.02944 0
M  V30 18263 H 1712.33 1.56202 5.66458 0
M  V30 18264 H 1713.85 0.719233 6.06349 0
M  V30 18265 H 1715.26 2.74384 5.03375 0
M  V30 18266 H 1713.66 3.51635 4.86285 0
M  V30 18267 H 1714.73 3.40353 3.45381 0
M  V30 18268 N 1716.07 -1.22136 0.99602 0
M  V30 18269 C 1717.49 -1.72743 0.708295 0
M  V30 18270 C 1717.84 -1.8026 -0.774649 0
M  V30 18271 O 1716.96 -1.45102 -1.60544 0
M  V30 18272 C 1717.56 -3.13729 1.27905 0
M  V30 18273 C 1716.12 -3.61729 1.04064 0
M  V30 18274 C 1715.26 -2.39519 1.39735 0
M  V30 18275 H 1718.21 -1.07439 1.16801 0
M  V30 18276 H 1718.23 -3.74746 0.65919 0
M  V30 18277 H 1717.75 -3.08225 2.35836 0
M  V30 18278 H 1715.85 -3.72594 -0.0219029 0
M  V30 18279 H 1715.96 -4.47689 1.70621 0
M  V30 18280 H 1714.32 -2.41275 0.815986 0
M  V30 18281 H 1715.11 -2.36675 2.48677 0
M  V30 18282 N 1717.55 -0.769612 -1.37531 0
M  V30 18283 C 1718.5 -0.142211 -2.32165 0
M  V30 18284 C 1719.49 0.687376 -1.54827 0
M  V30 18285 O 1720.7 0.584677 -1.7024 0
M  V30 18286 H 1717.08 -0.0271998 -0.751508 0
M  V30 18287 H 1719.05 -0.956148 -2.82667 0
M  V30 18288 C 1717.8 0.72421 -3.40074 0
M  V30 18289 H 1717.12 0.0952318 -3.99687 0
M  V30 18290 H 1718.56 1.13021 -4.08659 0
M  V30 18291 C 1717.02 1.87388 -2.79977 0
M  V30 18292 O 1717.55 2.96921 -2.70557 0
M  V30 18293 N 1715.75 1.67384 -2.37552 0
M  V30 18294 H 1715.3 0.782941 -2.45414 0
M  V30 18295 H 1715.26 2.44474 -1.97686 0
M  V30 18296 N 1719.03 1.48775 -0.519977 0
M  V30 18297 C 1719.98 2.29461 0.248242 0
M  V30 18298 C 1720.95 1.36734 0.943027 0
M  V30 18299 O 1722.13 1.65697 0.946003 0
M  V30 18300 C 1719.27 3.19868 1.29531 0
M  V30 18301 C 1718.39 4.27666 0.610379 0
M  V30 18302 C 1717.52 5.05266 1.63951 0
M  V30 18303 C 1716.56 6.04878 0.937496 0
M  V30 18304 N 1715.7 6.75573 1.91171 0
M  V30 18305 H 1720.54 2.94643 -0.446016 0
M  V30 18306 H 1718.07 1.45262 -0.231792 0
M  V30 18307 H 1720.03 3.70675 1.91456 0
M  V30 18308 H 1718.66 2.5663 1.95808 0
M  V30 18309 H 1717.71 3.80202 -0.122598 0
M  V30 18310 H 1719.03 4.98765 0.0586864 0
M  V30 18311 H 1718.18 5.60037 2.33332 0
M  V30 18312 H 1716.92 4.33983 2.22509 0
M  V30 18313 H 1715.92 5.49321 0.229562 0
M  V30 18314 H 1717.15 6.78155 0.358166 0
M  V30 18315 H 1715.09 6.07048 2.48655 0
M  V30 18316 H 1715.01 7.42712 1.41118 0
M  V30 18317 H 1716.28 7.34938 2.59781 0
M  V30 18318 N 1720.51 0.254649 1.55529 0
M  V30 18319 C 1721.74 -0.371317 2.03236 0
M  V30 18320 C 1722.15 -1.5152 1.13306 0
M  V30 18321 O 1721.49 -1.83154 0.141468 0
M  V30 18322 C 1721.55 -0.933614 3.47166 0
M  V30 18323 C 1721.22 0.0790139 4.56932 0
M  V30 18324 C 1722.21 0.891314 5.12203 0
M  V30 18325 C 1719.9 0.207343 5.01872 0
M  V30 18326 C 1721.89 1.81833 6.10914 0
M  V30 18327 C 1719.58 1.13785 6.00413 0
M  V30 18328 C 1720.58 1.94186 6.54813 0
M  V30 18329 O 1720.26 2.85667 7.51432 0
M  V30 18330 H 1720 -0.0914583 0.669785 0
M  V30 18331 H 1722.55 0.378413 2.01884 0
M  V30 18332 H 1720.78 -1.73305 3.45691 0
M  V30 18333 H 1722.47 -1.47048 3.78327 0
M  V30 18334 H 1723.24 0.802797 4.7831 0
M  V30 18335 H 1719.11 -0.408414 4.59187 0
M  V30 18336 H 1722.66 2.4463 6.53301 0
M  V30 18337 H 1718.56 1.22726 6.33726 0
M  V30 18338 H 1719.32 2.80116 7.69075 0
M  V30 18339 N 1721.99 -1.57589 -0.0183649 0
M  V30 18340 C 1723.21 -1.94421 -0.722172 0
M  V30 18341 C 1723.64 -0.855471 -1.67521 0
M  V30 18342 O 1722.99 0.187954 -1.80323 0
M  V30 18343 C 1723.04 -3.30331 -1.44615 0
M  V30 18344 O 1722.15 -3.23337 -2.55982 0
M  V30 18345 H 1721.49 -0.63519 -0.193466 0
M  V30 18346 H 1724.02 -2.04579 0.0293527 0
M  V30 18347 H 1724.03 -3.65471 -1.8137 0
M  V30 18348 H 1722.7 -4.09132 -0.747256 0
M  V30 18349 H 1721.28 -2.99845 -2.21692 0
M  V30 18350 N 1723.46 0.290824 -1.54893 0
M  V30 18351 C 1724.69 1.04344 -1.78661 0
M  V30 18352 C 1725.11 1.80578 -0.551083 0
M  V30 18353 O 1724.46 1.76091 0.479394 0
M  V30 18354 C 1724.52 2.01604 -3.00064 0
M  V30 18355 O 1724.24 1.28461 -4.18843 0
M  V30 18356 C 1725.74 2.88822 -3.36298 0
M  V30 18357 H 1722.96 0.309018 -0.595608 0
M  V30 18358 H 1725.5 0.327011 -2.01868 0
M  V30 18359 H 1723.66 2.68735 -2.79035 0
M  V30 18360 H 1724.07 1.93864 -4.87357 0
M  V30 18361 H 1725.54 3.52898 -4.24461 0
M  V30 18362 H 1726.02 3.5766 -2.54904 0
M  V30 18363 H 1726.63 2.27208 -3.59523 0
M  V30 18364 N 1724.94 1.47523 0.554506 0
M  V30 18365 C 1725.89 1.60213 1.66134 0
M  V30 18366 C 1726.86 0.445051 1.60027 0
M  V30 18367 O 1728.04 0.665449 1.7882 0
M  V30 18368 C 1725.18 1.62491 3.04452 0
M  V30 18369 C 1724.3 2.89134 3.20976 0
M  V30 18370 C 1723.43 2.82731 4.49707 0
M  V30 18371 C 1722.47 4.04187 4.59673 0
M  V30 18372 N 1721.61 3.96004 5.79763 0
M  V30 18373 H 1726.45 2.54744 1.54626 0
M  V30 18374 H 1723.99 1.26355 0.753189 0
M  V30 18375 H 1725.94 1.61795 3.84549 0
M  V30 18376 H 1724.57 0.714698 3.14789 0
M  V30 18377 H 1723.63 2.99685 2.34292 0
M  V30 18378 H 1724.94 3.79069 3.24203 0
M  V30 18379 H 1724.09 2.80299 5.38068 0
M  V30 18380 H 1722.83 1.90483 4.48963 0
M  V30 18381 H 1721.84 4.06921 3.69724 0
M  V30 18382 H 1723.06 4.97565 4.62175 0
M  V30 18383 H 1721.01 3.06561 5.79962 0
M  V30 18384 H 1720.92 4.7962 5.8438 0
M  V30 18385 H 1722.19 3.97593 6.70478 0
M  V30 18386 N 1726.42 -0.801453 1.357 0
M  V30 18387 C 1727.67 -1.5611 1.29451 0
M  V30 18388 C 1728 -1.93768 -0.129412 0
M  V30 18389 O 1727.27 -1.6176 -1.08 0
M  V30 18390 C 1727.56 -2.84628 2.20588 0
M  V30 18391 C 1727.41 -2.53413 3.71621 0
M  V30 18392 C 1728.73 -3.86369 2.10729 0
M  V30 18393 H 1725.85 -0.56638 0.471575 0
M  V30 18394 H 1728.49 -0.921701 1.66147 0
M  V30 18395 H 1726.64 -3.39192 1.89424 0
M  V30 18396 H 1728.31 -2.04993 4.1325 0
M  V30 18397 H 1726.56 -1.86531 3.91649 0
M  V30 18398 H 1727.23 -3.45152 4.30783 0
M  V30 18399 H 1729.7 -3.41219 2.38136 0
M  V30 18400 H 1728.58 -4.74062 2.76688 0
M  V30 18401 H 1728.84 -4.28431 1.09083 0
M  V30 18402 N 1727.9 -1.19782 -1.02421 0
M  V30 18403 C 1729.15 -1.00133 -1.7555 0
M  V30 18404 C 1729.47 0.468503 -1.89288 0
M  V30 18405 O 1728.74 1.3391 -1.42986 0
M  V30 18406 H 1727.32 -0.367513 -0.650341 0
M  V30 18407 H 1729.98 -1.50758 -1.23523 0
M  V30 18408 H 1729.08 -1.45329 -2.76199 0
M  V30 18409 N 1729.38 1.21606 -1.00248 0
M  V30 18410 C 1730.65 1.86191 -0.599348 0
M  V30 18411 C 1731.03 1.89847 0.923104 0
M  V30 18412 O 1730.38 1.39595 1.80902 0
M  V30 18413 C 1730.59 3.26576 -1.23082 0
M  V30 18414 C 1731.94 4.02989 -1.33736 0
M  V30 18415 O 1732.96 3.35877 -1.18595 0
M  V30 18416 O 1731.82 5.23142 -1.58065 0
M  V30 18417 H 1728.92 0.801204 -0.204943 0
M  V30 18418 H 1731.46 1.29309 -1.09897 0
M  V30 18419 H 1730.24 3.18601 -2.27176 0
M  V30 18420 H 1729.86 3.91074 -0.717394 0
M  V30 18421 N 1730.86 0.776895 1.37121 0
M  V30 18422 C 1731.8 0.164838 2.30211 0
M  V30 18423 C 1732.77 -0.684137 1.51356 0
M  V30 18424 O 1733.96 -0.635428 1.79908 0
M  V30 18425 C 1731.1 -0.704263 3.37837 0
M  V30 18426 C 1730.21 0.161881 4.31697 0
M  V30 18427 C 1729.35 -0.712411 5.26401 0
M  V30 18428 C 1728.38 0.155953 6.11901 0
M  V30 18429 N 1727.52 -0.676607 6.98832 0
M  V30 18430 H 1732.36 0.964185 2.81971 0
M  V30 18431 H 1729.9 0.487065 1.38802 0
M  V30 18432 H 1731.86 -1.22302 3.98871 0
M  V30 18433 H 1730.49 -1.46916 2.87429 0
M  V30 18434 H 1729.54 0.798491 3.71925 0
M  V30 18435 H 1730.85 0.831496 4.91821 0
M  V30 18436 H 1730 -1.29745 5.92664 0
M  V30 18437 H 1728.74 -1.41569 4.66701 0
M  V30 18438 H 1727.75 0.753493 5.44612 0
M  V30 18439 H 1728.97 0.856645 6.73675 0
M  V30 18440 H 1726.92 -1.36441 6.41654 0
M  V30 18441 H 1726.84 -0.0644017 7.55973 0
M  V30 18442 H 1728.1 -1.24588 7.69479 0
M  V30 18443 N 1732.33 -1.48497 0.527859 0
M  V30 18444 C 1733.58 -2.02099 -0.00699772 0
M  V30 18445 C 1733.9 -1.40742 -1.34969 0
M  V30 18446 O 1733.17 -0.572059 -1.87361 0
M  V30 18447 H 1731.75 -0.746979 -0.00557445 0
M  V30 18448 H 1734.41 -1.82231 0.691209 0
M  V30 18449 H 1733.51 -3.11881 -0.116893 0
M  V30 18450 N 1733.81 -0.262893 -1.55392 0
M  V30 18451 C 1735.04 0.361057 -2.03725 0
M  V30 18452 C 1735.45 1.5037 -1.14168 0
M  V30 18453 O 1734.81 1.81804 -0.159284 0
M  V30 18454 C 1734.86 0.853697 -3.51275 0
M  V30 18455 O 1734.58 -0.243431 -4.37423 0
M  V30 18456 C 1736.08 1.54671 -4.15442 0
M  V30 18457 H 1733.3 0.0839272 -0.665731 0
M  V30 18458 H 1735.85 -0.391424 -2.00719 0
M  V30 18459 H 1734 1.55631 -3.54765 0
M  V30 18460 H 1734.42 0.133241 -5.24331 0
M  V30 18461 H 1735.89 1.84296 -5.20326 0
M  V30 18462 H 1736.37 2.47413 -3.62882 0
M  V30 18463 H 1736.97 0.888269 -4.15921 0
M  V30 18464 N 1735.29 1.57597 0.0100073 0
M  V30 18465 C 1736.22 2.04622 1.0326 0
M  V30 18466 C 1737.23 0.962343 1.31312 0
M  V30 18467 O 1738.42 1.23933 1.28464 0
M  V30 18468 C 1735.52 2.42271 2.36976 0
M  V30 18469 C 1734.7 3.73271 2.28008 0
M  V30 18470 C 1733.76 3.97899 3.4433 0
M  V30 18471 O 1732.78 4.68702 3.22966 0
M  V30 18472 N 1733.98 3.45015 4.66846 0
M  V30 18473 H 1736.75 2.92968 0.63164 0
M  V30 18474 H 1734.31 1.6069 0.197591 0
M  V30 18475 H 1736.3 2.55869 3.13549 0
M  V30 18476 H 1734.87 1.59496 2.68849 0
M  V30 18477 H 1734.09 3.69846 1.3641 0
M  V30 18478 H 1735.38 4.59172 2.19178 0
M  V30 18479 H 1734.78 2.87661 4.87101 0
M  V30 18480 H 1733.33 3.6396 5.40718 0
M  V30 18481 N 1736.77 -0.282606 1.55045 0
M  V30 18482 C 1737.7 -1.35347 1.90272 0
M  V30 18483 C 1738.68 -1.52001 0.763532 0
M  V30 18484 O 1739.86 -1.65204 1.02085 0
M  V30 18485 C 1736.99 -2.71464 2.16621 0
M  V30 18486 C 1735.95 -2.69554 3.32453 0
M  V30 18487 C 1735.27 -4.09132 3.4426 0
M  V30 18488 C 1736.57 -2.29669 4.69094 0
M  V30 18489 H 1738.27 -1.06113 2.79965 0
M  V30 18490 H 1735.81 -0.509018 1.34703 0
M  V30 18491 H 1737.77 -3.46482 2.39851 0
M  V30 18492 H 1736.49 -3.02261 1.23717 0
M  V30 18493 H 1735.15 -1.96993 3.09175 0
M  V30 18494 H 1734.8 -4.37136 2.4884 0
M  V30 18495 H 1734.5 -4.08751 4.22133 0
M  V30 18496 H 1736.02 -4.85903 3.69771 0
M  V30 18497 H 1737.44 -2.94407 4.91932 0
M  V30 18498 H 1735.83 -2.40467 5.49814 0
M  V30 18499 H 1736.9 -1.24796 4.68566 0
M  V30 18500 N 1738.25 -1.47815 -0.546675 0
M  V30 18501 C 1739.47 -1.58864 -1.33331 0
M  V30 18502 C 1739.9 -0.24302 -1.86524 0
M  V30 18503 O 1739.25 0.782777 -1.63531 0
M  V30 18504 C 1739.3 -2.62556 -2.47177 0
M  V30 18505 O 1738.41 -2.18558 -3.49723 0
M  V30 18506 H 1737.75 -0.53329 -0.395598 0
M  V30 18507 H 1740.28 -1.93677 -0.659579 0
M  V30 18508 H 1740.29 -2.83307 -2.936 0
M  V30 18509 H 1738.96 -3.60255 -2.0782 0
M  V30 18510 H 1737.54 -2.0795 -3.09534 0
M  V30 18511 N 1739.72 0.794246 -1.36123 0
M  V30 18512 C 1740.97 1.54885 -1.29827 0
M  V30 18513 C 1741.29 1.94608 0.123517 0
M  V30 18514 O 1740.56 1.6457 1.06272 0
M  V30 18515 H 1739.14 0.574398 -0.477573 0
M  V30 18516 H 1741.8 0.946658 -1.70365 0
M  V30 18517 H 1740.9 2.45863 -1.92244 0
M  V30 18518 N 1741.2 1.20323 1.01785 0
M  V30 18519 C 1742.45 1.01063 1.75016 0
M  V30 18520 C 1742.77 -0.458458 1.89534 0
M  V30 18521 O 1742.04 -1.3315 1.43694 0
M  V30 18522 H 1740.62 0.370957 0.648383 0
M  V30 18523 H 1743.28 1.51411 1.22722 0
M  V30 18524 H 1742.38 1.46792 2.75424 0
M  V30 18525 N 1742.68 -1.21073 1.00892 0
M  V30 18526 C 1743.61 -2.22968 0.530841 0
M  V30 18527 C 1744.62 -1.58239 -0.382664 0
M  V30 18528 O 1745.81 -1.77567 -0.182237 0
M  V30 18529 C 1742.91 -3.37991 -0.248096 0
M  V30 18530 C 1742.09 -4.32309 0.665439 0
M  V30 18531 C 1741.15 -5.2616 -0.0645731 0
M  V30 18532 O 1740.17 -5.66484 0.555383 0
M  V30 18533 N 1741.37 -5.64777 -1.3419 0
M  V30 18534 H 1744.14 -2.64614 1.4071 0
M  V30 18535 H 1741.7 -1.35536 0.885528 0
M  V30 18536 H 1743.69 -3.97774 -0.745513 0
M  V30 18537 H 1742.26 -2.95297 -1.02558 0
M  V30 18538 H 1741.48 -3.70607 1.34329 0
M  V30 18539 H 1742.77 -4.92254 1.28701 0
M  V30 18540 H 1742.17 -5.34016 -1.86664 0
M  V30 18541 H 1740.72 -6.26905 -1.78419 0
M  V30 18542 N 1744.16 -0.784156 -1.36707 0
M  V30 18543 C 1745.11 -0.177044 -2.3012 0
M  V30 18544 C 1746.08 0.6761 -1.51717 0
M  V30 18545 O 1747.26 0.625878 -1.80243 0
M  V30 18546 C 1744.4 0.686337 -3.38206 0
M  V30 18547 C 1743.51 -0.184772 -4.31605 0
M  V30 18548 C 1742.65 0.684485 -5.26772 0
M  V30 18549 C 1741.69 -0.188402 -6.1181 0
M  V30 18550 N 1740.82 0.639537 -6.99181 0
M  V30 18551 H 1745.66 -0.979125 -2.81455 0
M  V30 18552 H 1743.2 -0.494419 -1.38542 0
M  V30 18553 H 1745.16 1.20185 -3.99514 0
M  V30 18554 H 1743.79 1.4539 -2.88204 0
M  V30 18555 H 1742.84 -0.818204 -3.71496 0
M  V30 18556 H 1744.15 -0.857567 -4.91373 0
M  V30 18557 H 1743.31 1.26601 -5.93344 0
M  V30 18558 H 1742.05 1.39092 -4.67445 0
M  V30 18559 H 1741.05 -0.782364 -5.44205 0
M  V30 18560 H 1742.28 -0.89236 -6.73212 0
M  V30 18561 H 1740.22 1.33036 -6.42369 0
M  V30 18562 H 1740.14 0.0243097 -7.55996 0
M  V30 18563 H 1741.41 1.20505 -7.70129 0
M  V30 18564 N 1745.64 1.48215 -0.535727 0
M  V30 18565 C 1746.57 2.27708 0.261085 0
M  V30 18566 C 1747.58 1.35714 0.899197 0
M  V30 18567 O 1748.77 1.60717 0.776669 0
M  V30 18568 C 1745.87 3.09285 1.38549 0
M  V30 18569 C 1745.04 4.29097 0.848218 0
M  V30 18570 C 1744.1 4.92439 1.85445 0
M  V30 18571 O 1743.13 5.51483 1.4091 0
M  V30 18572 N 1744.33 4.85197 3.18691 0
M  V30 18573 H 1747.1 2.96732 -0.420706 0
M  V30 18574 H 1744.66 1.57606 -0.370421 0
M  V30 18575 H 1746.65 3.4853 2.05691 0
M  V30 18576 H 1745.22 2.42644 1.97085 0
M  V30 18577 H 1744.44 3.942 0.000627744 0
M  V30 18578 H 1745.73 5.06641 0.468243 0
M  V30 18579 H 1745.12 4.3839 3.57535 0
M  V30 18580 H 1743.68 5.28525 3.81451 0
M  V30 18581 N 1747.11 0.27113 1.5525 0
M  V30 18582 C 1748.53 -0.0831186 1.59383 0
M  V30 18583 C 1748.73 -1.54931 1.28835 0
M  V30 18584 O 1747.79 -2.29756 1.0473 0
M  V30 18585 C 1749.1 0.287921 2.99318 0
M  V30 18586 C 1750.65 0.234209 3.12123 0
M  V30 18587 C 1751.12 0.57963 4.54317 0
M  V30 18588 N 1752.61 0.531033 4.60146 0
M  V30 18589 C 1753.35 0.771156 5.68191 0
M  V30 18590 N 1752.84 1.07569 6.84398 0
M  V30 18591 N 1754.64 0.700223 5.57722 0
M  V30 18592 H 1746.79 1.22702 1.73373 0
M  V30 18593 H 1749.05 0.495424 0.808244 0
M  V30 18594 H 1748.76 1.30746 3.26494 0
M  V30 18595 H 1748.63 -0.373205 3.75349 0
M  V30 18596 H 1751.02 -0.776035 2.84713 0
M  V30 18597 H 1751.1 0.929535 2.38313 0
M  V30 18598 H 1750.74 1.58754 4.82452 0
M  V30 18599 H 1750.67 -0.137442 5.26421 0
M  V30 18600 H 1753.16 0.305377 3.76664 0
M  V30 18601 H 1753.48 1.24568 7.62694 0
M  V30 18602 H 1751.82 1.11342 6.86023 0
M  V30 18603 H 1755.01 0.462183 4.65813 0
M  V30 18604 H 1755.19 0.890744 6.41849 0
M  V30 18605 N 1748.59 -1.576 -0.00164943 0
M  V30 18606 C 1749.84 -1.89675 -0.686026 0
M  V30 18607 C 1750.15 -0.873179 -1.75028 0
M  V30 18608 O 1751.36 -1.08409 -2.48917 0
M  V30 18609 C 1749.82 -3.36696 -1.27136 0
M  V30 18610 C 1749.42 -4.47346 -0.242011 0
M  V30 18611 C 1751.17 -3.77883 -1.93402 0
M  V30 18612 C 1749.08 -5.85444 -0.837241 0
M  V30 18613 H 1748.01 -0.707756 -0.259994 0
M  V30 18614 H 1750.66 -1.83406 0.0586245 0
M  V30 18615 H 1749.04 -3.37797 -2.06662 0
M  V30 18616 H 1750.21 -4.57759 0.528539 0
M  V30 18617 H 1748.53 -4.15168 0.320118 0
M  V30 18618 H 1751.12 -4.78394 -2.38838 0
M  V30 18619 H 1751.47 -3.11311 -2.76389 0
M  V30 18620 H 1752 -3.79075 -1.20612 0
M  V30 18621 H 1748.74 -6.55484 -0.04619 0
M  V30 18622 H 1748.26 -5.78698 -1.57699 0
M  V30 18623 H 1749.94 -6.33048 -1.33637 0
M  V30 18624 N 1750.07 0.274379 -1.55193 0
M  V30 18625 C 1751.03 1.32237 -1.87206 0
M  V30 18626 C 1752.03 1.4242 -0.74654 0
M  V30 18627 O 1753.22 1.41595 -1.01472 0
M  V30 18628 C 1750.36 2.7039 -2.0761 0
M  V30 18629 H 1751.55 1.05083 -2.80887 0
M  V30 18630 H 1749.1 0.512375 -1.47663 0
M  V30 18631 H 1749.84 3.02727 -1.16306 0
M  V30 18632 H 1749.62 2.64385 -2.89556 0
M  V30 18633 H 1751.11 3.46114 -2.33655 0
M  V30 18634 N 1751.55 1.48103 0.538828 0
M  V30 18635 C 1752.8 1.54925 1.29156 0
M  V30 18636 C 1753.11 0.224177 1.94311 0
M  V30 18637 O 1754.32 0.170559 2.70964 0
M  V30 18638 C 1752.77 2.73184 2.34304 0
M  V30 18639 C 1752.38 4.12297 1.75257 0
M  V30 18640 C 1754.12 2.89313 3.10642 0
M  V30 18641 C 1752.03 5.2183 2.78294 0
M  V30 18642 H 1750.96 0.576723 0.485702 0
M  V30 18643 H 1753.61 1.74418 0.570142 0
M  V30 18644 H 1751.99 2.47107 3.09441 0
M  V30 18645 H 1753.17 4.48355 1.06368 0
M  V30 18646 H 1751.48 4.0121 1.11442 0
M  V30 18647 H 1754.08 3.68313 3.87621 0
M  V30 18648 H 1754.42 1.98438 3.65962 0
M  V30 18649 H 1754.96 3.15248 2.42618 0
M  V30 18650 H 1751.7 6.14642 2.27805 0
M  V30 18651 H 1751.22 4.90269 3.45537 0
M  V30 18652 H 1752.89 5.49567 3.41446 0
M  V30 18653 N 1753.03 -0.787016 1.36542 0
M  V30 18654 C 1753.99 -1.88136 1.3091 0
M  V30 18655 C 1754.99 -1.59339 0.216292 0
M  V30 18656 O 1756.18 -1.67706 0.471222 0
M  V30 18657 C 1753.31 -3.24969 1.02994 0
M  V30 18658 H 1754.5 -1.94546 2.28237 0
M  V30 18659 H 1752.06 -0.985084 1.2135 0
M  V30 18660 H 1752.79 -3.24242 0.0613497 0
M  V30 18661 H 1752.58 -3.47261 1.82078 0
M  V30 18662 H 1754.07 -4.05036 1.01664 0
M  V30 18663 N 1754.5 -1.20861 -1.01145 0
M  V30 18664 C 1755.92 -0.964575 -1.27154 0
M  V30 18665 C 1756.12 0.352861 -1.98386 0
M  V30 18666 O 1755.18 1.08012 -2.28232 0
M  V30 18667 C 1756.49 -2.15074 -2.10151 0
M  V30 18668 C 1758.04 -2.19229 -2.234 0
M  V30 18669 C 1758.51 -3.37346 -3.09777 0
M  V30 18670 N 1760 -3.37392 -3.17365 0
M  V30 18671 C 1760.74 -4.25434 -3.84439 0
M  V30 18672 N 1760.23 -5.23664 -4.53595 0
M  V30 18673 N 1762.03 -4.13261 -3.81014 0
M  V30 18674 H 1754.18 -2.05595 -0.533346 0
M  V30 18675 H 1756.44 -0.899928 -0.298048 0
M  V30 18676 H 1756.15 -3.10511 -1.65153 0
M  V30 18677 H 1756.02 -2.13598 -3.10895 0
M  V30 18678 H 1758.41 -1.24352 -2.6762 0
M  V30 18679 H 1758.49 -2.24752 -1.22148 0
M  V30 18680 H 1758.13 -4.32513 -2.66261 0
M  V30 18681 H 1758.06 -3.29061 -4.11128 0
M  V30 18682 H 1760.55 -2.66299 -2.68129 0
M  V30 18683 H 1760.87 -5.87158 -5.02459 0
M  V30 18684 H 1759.21 -5.27595 -4.52403 0
M  V30 18685 H 1762.4 -3.35786 -3.26137 0
M  V30 18686 H 1762.58 -4.82085 -4.3301 0
M  V30 18687 N 1755.98 1.20536 -1.01532 0
M  V30 18688 C 1756.95 2.21495 -0.589298 0
M  V30 18689 C 1757.95 1.57167 0.339871 0
M  V30 18690 O 1759.14 1.73724 0.128736 0
M  V30 18691 C 1756.27 3.40614 0.139623 0
M  V30 18692 H 1757.46 2.607 -1.48241 0
M  V30 18693 H 1755.01 1.33977 -0.804977 0
M  V30 18694 H 1755.75 3.0691 1.04771 0
M  V30 18695 H 1755.53 3.88531 -0.52785 0
M  V30 18696 H 1757.02 4.15431 0.425083 0
M  V30 18697 N 1757.46 0.791395 1.36289 0
M  V30 18698 C 1758.39 0.205419 2.32595 0
M  V30 18699 C 1759.37 -0.660696 1.56744 0
M  V30 18700 O 1760.56 -0.594111 1.84889 0
M  V30 18701 C 1757.69 -0.659018 3.4099 0
M  V30 18702 C 1756.64 0.107364 4.27865 0
M  V30 18703 C 1755.97 -0.877795 5.27446 0
M  V30 18704 C 1757.27 1.29769 5.05922 0
M  V30 18705 H 1758.96 1.00999 2.8185 0
M  V30 18706 H 1756.51 0.487122 1.35511 0
M  V30 18707 H 1758.46 -1.07891 4.07354 0
M  V30 18708 H 1757.18 -1.49632 2.90307 0
M  V30 18709 H 1755.84 0.508253 3.6306 0
M  V30 18710 H 1755.49 -1.71018 4.73035 0
M  V30 18711 H 1755.19 -0.369429 5.86438 0
M  V30 18712 H 1756.71 -1.29621 5.96683 0
M  V30 18713 H 1758.13 0.953463 5.65316 0
M  V30 18714 H 1756.53 1.73949 5.74336 0
M  V30 18715 H 1757.6 2.09205 4.37449 0
M  V30 18716 N 1758.94 -1.47929 0.54358 0
M  V30 18717 C 1760.19 -2.02795 0.014488 0
M  V30 18718 C 1760.52 -1.41848 -1.32638 0
M  V30 18719 O 1759.79 -0.569099 -1.85988 0
M  V30 18720 C 1760.08 -3.5998 -0.093097 0
M  V30 18721 C 1759.93 -4.31384 1.2739 0
M  V30 18722 C 1761.25 -4.32521 -0.813251 0
M  V30 18723 H 1758.37 -0.736969 0.00673905 0
M  V30 18724 H 1761.01 -1.76507 0.703238 0
M  V30 18725 H 1759.16 -3.82508 -0.679685 0
M  V30 18726 H 1760.83 -4.20235 1.90264 0
M  V30 18727 H 1759.07 -3.9227 1.85221 0
M  V30 18728 H 1759.75 -5.39856 1.15148 0
M  V30 18729 H 1762.22 -4.14903 -0.315334 0
M  V30 18730 H 1761.1 -5.42161 -0.857456 0
M  V30 18731 H 1761.36 -4.00768 -1.86649 0
M  V30 18732 N 1760.42 -0.27936 -1.55104 0
M  V30 18733 C 1761.83 0.074665 -1.59425 0
M  V30 18734 C 1762.03 1.54246 -1.29655 0
M  V30 18735 O 1761.09 2.29197 -1.05947 0
M  V30 18736 C 1762.4 -0.30379 -2.99162 0
M  V30 18737 C 1763.95 -0.250758 -3.11994 0
M  V30 18738 C 1764.43 -0.603715 -4.54004 0
M  V30 18739 N 1765.92 -0.555428 -4.59858 0
M  V30 18740 C 1766.65 -0.801278 -5.67774 0
M  V30 18741 N 1766.15 -1.11197 -6.83818 0
M  V30 18742 N 1767.94 -0.72979 -5.57342 0
M  V30 18743 H 1760.09 -1.23619 -1.7272 0
M  V30 18744 H 1762.35 -0.499704 -0.805606 0
M  V30 18745 H 1762.06 -1.32475 -3.25796 0
M  V30 18746 H 1761.93 0.353294 -3.75542 0
M  V30 18747 H 1764.32 0.760925 -2.85121 0
M  V30 18748 H 1764.4 -0.94216 -2.37817 0
M  V30 18749 H 1764.05 -1.6131 -4.81603 0
M  V30 18750 H 1763.98 0.109523 -5.26486 0
M  V30 18751 H 1766.47 -0.325348 -3.76497 0
M  V30 18752 H 1766.78 -1.28611 -7.62023 0
M  V30 18753 H 1765.13 -1.14978 -6.85423 0
M  V30 18754 H 1768.32 -0.48688 -4.65561 0
M  V30 18755 H 1768.49 -0.92477 -6.41367 0
M  V30 18756 N 1761.9 1.57599 -0.0067085 0
M  V30 18757 C 1762.83 2.05706 1.01084 0
M  V30 18758 C 1763.84 0.976216 1.30284 0
M  V30 18759 O 1765.03 1.25288 1.27142 0
M  V30 18760 C 1762.13 2.44771 2.34393 0
M  V30 18761 C 1761.3 3.75668 2.24036 0
M  V30 18762 C 1760.36 4.01528 3.4009 0
M  V30 18763 O 1759.39 4.72101 3.17977 0
M  V30 18764 N 1760.59 3.49947 4.6316 0
M  V30 18765 H 1763.35 2.93622 0.600532 0
M  V30 18766 H 1760.92 1.6089 0.180536 0
M  V30 18767 H 1762.91 2.5918 3.10818 0
M  V30 18768 H 1761.48 1.62339 2.67142 0
M  V30 18769 H 1760.7 3.71272 1.3248 0
M  V30 18770 H 1761.99 4.6147 2.14295 0
M  V30 18771 H 1761.38 2.92811 4.84023 0
M  V30 18772 H 1759.94 3.69675 5.36828 0
M  V30 18773 N 1763.37 -0.266145 1.55336 0
M  V30 18774 C 1764.78 -0.836683 1.66903 0
M  V30 18775 C 1765.14 -1.86781 0.600597 0
M  V30 18776 O 1764.26 -2.14872 -0.256674 0
M  V30 18777 C 1764.86 -1.52436 3.0257 0
M  V30 18778 C 1763.41 -2.04284 3.1614 0
M  V30 18779 C 1762.56 -0.887248 2.62723 0
M  V30 18780 H 1765.51 -0.0423472 1.58643 0
M  V30 18781 H 1765.53 -2.39163 2.95941 0
M  V30 18782 H 1765.05 -0.773649 3.80311 0
M  V30 18783 H 1763.15 -2.82296 2.43187 0
M  V30 18784 H 1763.26 -2.25345 4.22796 0
M  V30 18785 H 1761.62 -1.28251 2.20054 0
M  V30 18786 H 1762.41 -0.14993 3.42972 0
M  V30 18787 N 1764.85 -1.48386 -0.530967 0
M  V30 18788 C 1765.8 -1.59236 -1.6318 0
M  V30 18789 C 1766.79 -0.449549 -1.54492 0
M  V30 18790 O 1767.98 -0.700935 -1.6253 0
M  V30 18791 C 1765.11 -1.6343 -3.01903 0
M  V30 18792 C 1764.19 -2.83188 -3.15699 0
M  V30 18793 N 1764.58 -4.07616 -2.99471 0
M  V30 18794 C 1762.88 -2.80499 -3.46751 0
M  V30 18795 C 1763.58 -4.87959 -3.16657 0
M  V30 18796 N 1762.56 -4.20757 -3.44186 0
M  V30 18797 H 1766.36 -2.53187 -1.49243 0
M  V30 18798 H 1763.87 -1.44744 -0.7364 0
M  V30 18799 H 1765.87 -1.69297 -3.80978 0
M  V30 18800 H 1764.53 -0.705948 -3.16933 0
M  V30 18801 H 1765.54 -4.38068 -2.76255 0
M  V30 18802 H 1762.22 -1.96916 -3.68145 0
M  V30 18803 H 1763.61 -5.96705 -3.08857 0
M  V30 18804 N 1766.33 0.779763 -1.36958 0
M  V30 18805 C 1767.58 1.53326 -1.31049 0
M  V30 18806 C 1767.89 1.95317 0.105139 0
M  V30 18807 O 1769.1 2.69983 0.286652 0
M  V30 18808 C 1767.55 2.76832 -2.29983 0
M  V30 18809 C 1767.16 2.41972 -3.77033 0
M  V30 18810 C 1768.91 3.54794 -2.3307 0
M  V30 18811 C 1766.81 3.61931 -4.67718 0
M  V30 18812 H 1765.74 0.57561 -0.48702 0
M  V30 18813 H 1768.39 0.854801 -1.62374 0
M  V30 18814 H 1766.78 3.46527 -1.91665 0
M  V30 18815 H 1767.95 1.80112 -4.24142 0
M  V30 18816 H 1766.26 1.77201 -3.76814 0
M  V30 18817 H 1768.86 4.4394 -2.98029 0
M  V30 18818 H 1769.2 3.94077 -1.34199 0
M  V30 18819 H 1769.74 2.92088 -2.70054 0
M  V30 18820 H 1766.48 3.27736 -5.67688 0
M  V30 18821 H 1766 4.22923 -4.25319 0
M  V30 18822 H 1767.68 4.28842 -4.84462 0
M  V30 18823 N 1767.81 1.21396 1.00503 0
M  V30 18824 C 1768.74 0.997268 2.11132 0
M  V30 18825 C 1769.72 -0.0777455 1.69922 0
M  V30 18826 O 1770.9 0.08208 1.94026 0
M  V30 18827 C 1768.03 0.561122 3.42737 0
M  V30 18828 C 1766.99 1.58069 3.97741 0
M  V30 18829 C 1766.31 1.00079 5.25251 0
M  V30 18830 C 1767.61 2.96754 4.29807 0
M  V30 18831 H 1769.31 1.92255 2.29518 0
M  V30 18832 H 1766.85 0.925776 1.10297 0
M  V30 18833 H 1768.81 0.396701 4.19529 0
M  V30 18834 H 1767.53 -0.399804 3.24144 0
M  V30 18835 H 1766.19 1.73268 3.23069 0
M  V30 18836 H 1765.84 0.0315797 5.0299 0
M  V30 18837 H 1765.54 1.68182 5.63017 0
M  V30 18838 H 1767.06 0.847687 6.04687 0
M  V30 18839 H 1768.48 2.85 4.97441 0
M  V30 18840 H 1766.87 3.61871 4.78717 0
M  V30 18841 H 1767.94 3.47602 3.38084 0
M  V30 18842 N 1769.29 -1.19996 1.0217 0
M  V30 18843 C 1770.22 -2.25206 0.616818 0
M  V30 18844 C 1771.2 -1.66013 -0.370653 0
M  V30 18845 O 1772.38 -1.92519 -0.254956 0
M  V30 18846 C 1769.51 -3.47276 -0.0405129 0
M  V30 18847 C 1768.47 -4.19096 0.868479 0
M  V30 18848 C 1767.79 -5.34645 0.0766447 0
M  V30 18849 C 1769.09 -4.7468 2.1789 0
M  V30 18850 H 1770.79 -2.59328 1.49632 0
M  V30 18851 H 1768.33 -1.24655 0.720917 0
M  V30 18852 H 1770.28 -4.20063 -0.335355 0
M  V30 18853 H 1769.01 -3.12333 -0.954759 0
M  V30 18854 H 1767.67 -3.48181 1.1474 0
M  V30 18855 H 1767.32 -4.95946 -0.839411 0
M  V30 18856 H 1767.02 -5.83628 0.682041 0
M  V30 18857 H 1768.54 -6.10233 -0.211624 0
M  V30 18858 H 1769.95 -5.39259 1.94608 0
M  V30 18859 H 1768.35 -5.34121 2.7356 0
M  V30 18860 H 1769.42 -3.93141 2.83845 0
M  V30 18861 N 1770.76 -0.798611 -1.35867 0
M  V30 18862 C 1771.69 -0.217751 -2.32482 0
M  V30 18863 C 1772.67 0.652374 -1.57093 0
M  V30 18864 O 1773.86 0.584297 -1.85202 0
M  V30 18865 C 1770.99 0.640925 -3.41335 0
M  V30 18866 C 1769.94 -0.130053 -4.27802 0
M  V30 18867 C 1769.27 0.849811 -5.27904 0
M  V30 18868 C 1770.57 -1.32451 -5.05227 0
M  V30 18869 H 1772.26 -1.02492 -2.81311 0
M  V30 18870 H 1769.81 -0.494302 -1.3525 0
M  V30 18871 H 1771.76 1.05729 -4.07921 0
M  V30 18872 H 1770.49 1.4809 -2.91096 0
M  V30 18873 H 1769.15 -0.5275 -3.62785 0
M  V30 18874 H 1768.79 1.68507 -4.73935 0
M  V30 18875 H 1768.49 0.338323 -5.86625 0
M  V30 18876 H 1770.02 1.26455 -5.97362 0
M  V30 18877 H 1771.43 -0.983429 -5.64802 0
M  V30 18878 H 1769.83 -1.76992 -5.73405 0
M  V30 18879 H 1770.9 -2.11522 -4.36333 0
M  V30 18880 N 1772.24 1.47639 -0.551417 0
M  V30 18881 C 1773.52 1.95559 0.0401983 0
M  V30 18882 C 1773.9 1.49396 1.49144 0
M  V30 18883 O 1773.25 0.730148 2.1652 0
M  V30 18884 C 1773.46 3.48859 -0.0992677 0
M  V30 18885 C 1774.8 4.24572 0.0490517 0
M  V30 18886 O 1775.83 3.5619 -0.026527 0
M  V30 18887 O 1774.69 5.46094 0.210638 0
M  V30 18888 H 1771.78 0.824251 0.0673694 0
M  V30 18889 H 1774.33 1.58065 -0.617532 0
M  V30 18890 H 1773.1 3.75245 -1.10936 0
M  V30 18891 H 1772.72 3.93102 0.596339 0
M  V30 18892 N 1773.72 0.287581 1.54954 0
M  V30 18893 C 1774.63 -0.604236 2.26685 0
M  V30 18894 C 1775.65 -1.1597 1.29719 0
M  V30 18895 O 1776.82 -1.18735 1.62678 0
M  V30 18896 C 1773.89 -1.76612 2.98344 0
M  V30 18897 C 1772.95 -1.24608 4.10818 0
M  V30 18898 C 1772.18 -2.35258 4.7905 0
M  V30 18899 O 1772.4 -3.54879 4.46561 0
M  V30 18900 O 1771.34 -2.02709 5.66739 0
M  V30 18901 H 1775.16 -0.0227663 3.03691 0
M  V30 18902 H 1772.75 0.0545243 1.493 0
M  V30 18903 H 1774.63 -2.44332 3.43336 0
M  V30 18904 H 1773.31 -2.33444 2.24244 0
M  V30 18905 H 1772.21 -0.53498 3.70255 0
M  V30 18906 H 1773.55 -0.723348 4.86856 0
M  V30 18907 N 1775.2 -1.57593 0.0150662 0
M  V30 18908 C 1776.16 -2.08293 -0.956385 0
M  V30 18909 C 1777.16 -0.99521 -1.26302 0
M  V30 18910 O 1778.35 -1.25732 -1.2057 0
M  V30 18911 C 1775.48 -2.53702 -2.27701 0
M  V30 18912 H 1776.68 -2.95401 -0.517543 0
M  V30 18913 H 1774.23 -1.54558 -0.232706 0
M  V30 18914 H 1774.96 -1.69882 -2.76244 0
M  V30 18915 H 1774.75 -3.33155 -2.06761 0
M  V30 18916 H 1776.24 -2.93201 -2.9736 0
M  V30 18917 N 1776.68 0.257904 -1.55475 0
M  V30 18918 C 1777.9 1.00531 -1.80834 0
M  V30 18919 C 1778.32 1.79369 -0.589263 0
M  V30 18920 O 1777.68 1.77068 0.441935 0
M  V30 18921 C 1777.73 1.95194 -3.04272 0
M  V30 18922 O 1777.45 1.19548 -4.21473 0
M  V30 18923 C 1778.95 2.81624 -3.42349 0
M  V30 18924 H 1776.17 0.296315 -0.602029 0
M  V30 18925 H 1778.71 0.284118 -2.02517 0
M  V30 18926 H 1776.87 2.62756 -2.84672 0
M  V30 18927 H 1777.28 1.83483 -4.9136 0
M  V30 18928 H 1778.76 3.43815 -4.31851 0
M  V30 18929 H 1779.23 3.52172 -2.62434 0
M  V30 18930 H 1779.84 2.19531 -3.64261 0
M  V30 18931 N 1778.15 1.48666 0.52309 0
M  V30 18932 C 1779.38 1.60965 1.30787 0
M  V30 18933 C 1779.8 0.272663 1.86113 0
M  V30 18934 O 1779.16 -0.756662 1.64755 0
M  V30 18935 C 1779.21 2.66455 2.42969 0
M  V30 18936 O 1778.31 2.24094 3.46202 0
M  V30 18937 H 1777.66 0.539516 0.387064 0
M  V30 18938 H 1780.19 1.94702 0.628683 0
M  V30 18939 H 1780.2 2.87942 2.89056 0
M  V30 18940 H 1778.87 3.63516 2.02062 0
M  V30 18941 H 1777.45 2.12848 3.06186 0
M  V30 18942 N 1779.63 -0.772489 1.37369 0
M  V30 18943 C 1780.6 -1.86737 1.32898 0
M  V30 18944 C 1781.6 -1.591 0.23318 0
M  V30 18945 O 1782.79 -1.67196 0.488983 0
M  V30 18946 C 1779.92 -3.23859 1.06435 0
M  V30 18947 H 1781.11 -1.92114 2.30287 0
M  V30 18948 H 1778.66 -0.972158 1.22388 0
M  V30 18949 H 1779.4 -3.24159 0.0957365 0
M  V30 18950 H 1779.18 -3.4531 1.85751 0
M  V30 18951 H 1780.67 -4.03935 1.05954 0
M  V30 18952 N 1781.11 -1.21927 -0.998575 0
M  V30 18953 C 1782.04 -1.00845 -2.106 0
M  V30 18954 C 1783.02 0.068733 -1.69961 0
M  V30 18955 O 1784.21 -0.0923686 -1.9398 0
M  V30 18956 C 1781.34 -0.57929 -3.42435 0
M  V30 18957 C 1780.29 -1.60177 -3.96897 0
M  V30 18958 C 1779.62 -1.02863 -5.24713 0
M  V30 18959 C 1780.92 -2.9903 -4.28227 0
M  V30 18960 H 1782.61 -1.93469 -2.28495 0
M  V30 18961 H 1780.16 -0.931612 -1.09804 0
M  V30 18962 H 1782.11 -0.418944 -4.19312 0
M  V30 18963 H 1780.83 0.382608 -3.24351 0
M  V30 18964 H 1779.49 -1.74979 -3.22146 0
M  V30 18965 H 1779.14 -0.058254 -5.02966 0
M  V30 18966 H 1778.84 -1.71166 -5.62117 0
M  V30 18967 H 1780.36 -0.879743 -6.04229 0
M  V30 18968 H 1781.78 -2.87634 -4.95923 0
M  V30 18969 H 1780.18 -3.64404 -4.76791 0
M  V30 18970 H 1781.25 -3.4939 -3.36236 0
M  V30 18971 N 1782.59 1.19452 -1.02805 0
M  V30 18972 C 1783.87 1.84878 -0.638707 0
M  V30 18973 C 1784.25 1.91763 0.882627 0
M  V30 18974 O 1783.59 1.43401 1.779 0
M  V30 18975 C 1783.8 3.23891 -1.29982 0
M  V30 18976 C 1785.15 4.00061 -1.42254 0
M  V30 18977 O 1786.18 3.33286 -1.25693 0
M  V30 18978 O 1785.03 5.19671 -1.69127 0
M  V30 18979 H 1782.13 0.796676 -0.221892 0
M  V30 18980 H 1784.67 1.26949 -1.12615 0
M  V30 18981 H 1783.45 3.13711 -2.33883 0
M  V30 18982 H 1783.07 3.89465 -0.800186 0
M  V30 18983 N 1784.07 0.805805 1.35442 0
M  V30 18984 C 1785.29 0.398252 2.03031 0
M  V30 18985 C 1785.71 -0.990542 1.60729 0
M  V30 18986 O 1785.07 -1.63813 0.804461 0
M  V30 18987 C 1785.12 0.471116 3.58417 0
M  V30 18988 O 1784.84 1.80516 3.99181 0
M  V30 18989 C 1786.34 0.056272 4.43264 0
M  V30 18990 H 1783.56 0.161905 0.651174 0
M  V30 18991 H 1786.1 1.08921 1.73079 0
M  V30 18992 H 1784.26 -0.171584 3.8702 0
M  V30 18993 H 1784.67 1.76739 4.93825 0
M  V30 18994 H 1786.15 0.15837 5.51773 0
M  V30 18995 H 1786.62 -0.998308 4.27704 0
M  V30 18996 H 1787.23 0.672097 4.19956 0
M  V30 18997 N 1785.54 -1.47344 0.559239 0
M  V30 18998 C 1786.45 -2.33826 -0.190402 0
M  V30 18999 C 1787.47 -1.48317 -0.909846 0
M  V30 19000 O 1788.65 -1.8124 -0.878286 0
M  V30 19001 C 1785.71 -3.25052 -1.20591 0
M  V30 19002 C 1784.77 -4.26452 -0.493671 0
M  V30 19003 C 1784.01 -5.13319 -1.4608 0
M  V30 19004 O 1784.23 -5.02678 -2.69576 0
M  V30 19005 O 1783.16 -5.93799 -0.984178 0
M  V30 19006 H 1786.99 -2.99232 0.519046 0
M  V30 19007 H 1784.57 -1.45936 0.319836 0
M  V30 19008 H 1786.46 -3.81397 -1.79205 0
M  V30 19009 H 1785.13 -2.62272 -1.89724 0
M  V30 19010 H 1784.04 -3.73861 0.133714 0
M  V30 19011 H 1785.37 -4.91952 0.15625 0
M  V30 19012 N 1787.02 -0.295795 -1.54799 0
M  V30 19013 C 1788.25 0.32058 -2.04907 0
M  V30 19014 C 1788.67 1.47132 -1.17191 0
M  V30 19015 O 1788.03 1.80455 -0.174869 0
M  V30 19016 C 1788.08 0.759439 -3.52512 0
M  V30 19017 O 1787.18 1.86474 -3.67833 0
M  V30 19018 H 1786.52 0.0631128 -0.660994 0
M  V30 19019 H 1789.05 -0.436123 -1.99898 0
M  V30 19020 H 1789.06 1.04965 -3.94267 0
M  V30 19021 H 1787.74 -0.0823715 -4.15818 0
M  V30 19022 H 1786.32 1.57547 -3.37984 0
M  V30 19023 N 1788.5 1.57583 -0.0234236 0
M  V30 19024 C 1789.41 2.13328 0.976138 0
M  V30 19025 C 1790.43 1.08414 1.36097 0
M  V30 19026 O 1791.6 1.40441 1.44354 0
M  V30 19027 C 1788.67 2.64469 2.24181 0
M  V30 19028 C 1787.73 3.84076 1.91793 0
M  V30 19029 C 1786.96 4.32768 3.12326 0
M  V30 19030 O 1787.19 3.80663 4.24797 0
M  V30 19031 O 1786.12 5.24676 2.94956 0
M  V30 19032 H 1789.95 2.99001 0.532166 0
M  V30 19033 H 1787.53 1.48098 0.196838 0
M  V30 19034 H 1789.41 2.97456 2.98492 0
M  V30 19035 H 1788.09 1.81881 2.6777 0
M  V30 19036 H 1786.99 3.56023 1.14883 0
M  V30 19037 H 1788.33 4.67808 1.53024 0
M  V30 19038 N 1789.98 -0.249655 1.5561 0
M  V30 19039 C 1790.93 -1.30906 1.90085 0
M  V30 19040 C 1791.9 -1.4796 0.754784 0
M  V30 19041 O 1793.08 -1.61988 1.00819 0
M  V30 19042 C 1790.22 -2.66 2.19859 0
M  V30 19043 C 1789.33 -2.56976 3.47257 0
M  V30 19044 C 1788.47 -3.84404 3.66615 0
M  V30 19045 C 1787.51 -3.69986 4.87623 0
M  V30 19046 N 1786.65 -4.89301 5.03517 0
M  V30 19047 H 1791.49 -1.00805 2.80432 0
M  V30 19048 H 1789.02 -0.486509 1.38822 0
M  V30 19049 H 1790.98 -3.44632 2.35126 0
M  V30 19050 H 1789.61 -2.94254 1.32719 0
M  V30 19051 H 1788.66 -1.69927 3.40337 0
M  V30 19052 H 1789.97 -2.42231 4.36034 0
M  V30 19053 H 1789.13 -4.7148 3.81826 0
M  V30 19054 H 1787.87 -4.02043 2.76066 0
M  V30 19055 H 1786.87 -2.81294 4.72391 0
M  V30 19056 H 1788.1 -3.53845 5.7963 0
M  V30 19057 H 1786.04 -5.07306 4.15905 0
M  V30 19058 H 1785.96 -4.77176 5.86378 0
M  V30 19059 H 1787.23 -5.77883 5.23137 0
M  V30 19060 N 1791.46 -1.48941 -0.515198 0
M  V30 19061 C 1792.7 -1.57943 -1.27207 0
M  V30 19062 C 1793.04 -0.259011 -1.92465 0
M  V30 19063 O 1792.31 0.736277 -1.80026 0
M  V30 19064 C 1792.59 -2.72846 -2.35005 0
M  V30 19065 C 1792.45 -4.14639 -1.74341 0
M  V30 19066 C 1793.77 -2.83444 -3.36672 0
M  V30 19067 H 1790.89 -0.574909 -0.461138 0
M  V30 19068 H 1793.53 -1.81172 -0.572413 0
M  V30 19069 H 1791.68 -2.5317 -2.94681 0
M  V30 19070 H 1793.35 -4.45793 -1.18602 0
M  V30 19071 H 1791.59 -4.20948 -1.0481 0
M  V30 19072 H 1792.26 -4.90883 -2.52463 0
M  V30 19073 H 1794.74 -3.01311 -2.86969 0
M  V30 19074 H 1793.62 -3.65542 -4.09475 0
M  V30 19075 H 1793.88 -1.92208 -3.98131 0
M  V30 19076 N 1792.94 0.765193 -1.37777 0
M  V30 19077 C 1794.18 1.52623 -1.33545 0
M  V30 19078 C 1794.51 1.94043 0.077992 0
M  V30 19079 O 1793.79 1.64566 1.03673 0
M  V30 19080 C 1794.07 2.78679 -2.28057 0
M  V30 19081 C 1793.93 2.43471 -3.78209 0
M  V30 19082 C 1795.24 3.80646 -2.20899 0
M  V30 19083 H 1792.36 0.553678 -0.486425 0
M  V30 19084 H 1795.01 0.877326 -1.68532 0
M  V30 19085 H 1793.16 3.3405 -1.9835 0
M  V30 19086 H 1794.83 1.93965 -4.1854 0
M  V30 19087 H 1793.07 1.76081 -3.96457 0
M  V30 19088 H 1793.74 3.33609 -4.39783 0
M  V30 19089 H 1796.22 3.34786 -2.47099 0
M  V30 19090 H 1795.09 4.6656 -2.89159 0
M  V30 19091 H 1795.35 4.25389 -1.20403 0
M  V30 19092 N 1794.41 1.22455 0.992094 0
M  V30 19093 C 1795.35 0.953144 2.08441 0
M  V30 19094 C 1796.36 -0.0685432 1.62656 0
M  V30 19095 O 1797.55 0.165561 1.77731 0
M  V30 19096 C 1794.65 0.412046 3.36386 0
M  V30 19097 C 1793.82 1.49114 4.11198 0
M  V30 19098 C 1792.88 0.956984 5.17425 0
M  V30 19099 O 1791.91 1.64337 5.44961 0
M  V30 19100 N 1793.11 -0.221205 5.80078 0
M  V30 19101 H 1795.87 1.89353 2.32305 0
M  V30 19102 H 1793.43 1.13155 1.15791 0
M  V30 19103 H 1795.43 0.0400033 4.0468 0
M  V30 19104 H 1794 -0.433473 3.0958 0
M  V30 19105 H 1793.22 2.03647 3.37523 0
M  V30 19106 H 1794.5 2.21716 4.57951 0
M  V30 19107 H 1793.9 -0.795642 5.60077 0
M  V30 19108 H 1792.46 -0.534625 6.49604 0
M  V30 19109 N 1795.89 -1.18905 1.03437 0
M  V30 19110 C 1796.8 -2.25979 0.63014 0
M  V30 19111 C 1797.82 -1.70633 -0.340668 0
M  V30 19112 O 1798.99 -2.00432 -0.197174 0
M  V30 19113 C 1796.06 -3.46699 -0.00713795 0
M  V30 19114 C 1795.12 -4.17205 1.01187 0
M  V30 19115 C 1794.35 -5.32162 0.404909 0
M  V30 19116 O 1794.58 -5.64894 -0.790638 0
M  V30 19117 O 1793.51 -5.91188 1.13048 0
M  V30 19118 H 1797.34 -2.62808 1.52203 0
M  V30 19119 H 1794.92 -1.25865 0.804878 0
M  V30 19120 H 1796.8 -4.1984 -0.362204 0
M  V30 19121 H 1795.48 -3.11707 -0.872948 0
M  V30 19122 H 1794.38 -3.46159 1.41862 0
M  V30 19123 H 1795.72 -4.56181 1.84823 0
M  V30 19124 N 1797.37 -0.812977 -1.35013 0
M  V30 19125 C 1798.33 -0.233373 -2.28009 0
M  V30 19126 C 1799.33 0.58298 -1.4986 0
M  V30 19127 O 1800.52 0.400533 -1.69533 0
M  V30 19128 C 1797.65 0.673931 -3.34172 0
M  V30 19129 H 1798.85 -1.05366 -2.80781 0
M  V30 19130 H 1796.4 -0.584097 -1.44976 0
M  V30 19131 H 1797.14 1.51766 -2.86597 0
M  V30 19132 H 1796.92 0.0901848 -3.91996 0
M  V30 19133 H 1798.41 1.07358 -4.03564 0
M  V30 19134 N 1798.85 1.47045 -0.567045 0
M  V30 19135 C 1799.78 2.32929 0.163191 0
M  V30 19136 C 1800.76 1.44393 0.899142 0
M  V30 19137 O 1801.94 1.73235 0.87768 0
M  V30 19138 C 1799.07 3.26369 1.18745 0
M  V30 19139 C 1798.03 4.24223 0.567335 0
M  V30 19140 C 1797.35 5.07058 1.69693 0
M  V30 19141 C 1798.65 5.2004 -0.485319 0
M  V30 19142 H 1800.35 2.94233 -0.553837 0
M  V30 19143 H 1797.89 1.41488 -0.267789 0
M  V30 19144 H 1799.85 3.85299 1.70654 0
M  V30 19145 H 1798.57 2.6314 1.93455 0
M  V30 19146 H 1797.23 3.66534 0.0694525 0
M  V30 19147 H 1796.88 4.40226 2.43331 0
M  V30 19148 H 1796.58 5.73316 1.28774 0
M  V30 19149 H 1798.1 5.68848 2.2191 0
M  V30 19150 H 1799.52 5.73277 -0.0519049 0
M  V30 19151 H 1797.91 5.94554 -0.813942 0
M  V30 19152 H 1798.98 4.64921 -1.37754 0
M  V30 19153 N 1800.33 0.304 1.5464 0
M  V30 19154 C 1801.6 -0.357665 1.92302 0
M  V30 19155 C 1801.98 -1.71453 1.23155 0
M  V30 19156 O 1801.33 -2.25512 0.368342 0
M  V30 19157 C 1801.54 -0.469339 3.4583 0
M  V30 19158 C 1802.89 -0.738803 4.18123 0
M  V30 19159 O 1803.91 -0.553033 3.51881 0
M  V30 19160 O 1802.77 -1.09585 5.354 0
M  V30 19161 H 1799.87 -0.200506 0.802326 0
M  V30 19162 H 1802.41 0.352279 1.66003 0
M  V30 19163 H 1801.18 0.484397 3.8829 0
M  V30 19164 H 1800.81 -1.22763 3.78173 0
M  V30 19165 N 1801.8 -1.57568 0.0317802 0
M  V30 19166 C 1802.75 -2.10379 -0.949183 0
M  V30 19167 C 1803.72 -1.00649 -1.32133 0
M  V30 19168 O 1804.91 -1.28084 -1.41418 0
M  V30 19169 C 1802.05 -2.63762 -2.22539 0
M  V30 19170 C 1801.16 -3.87509 -1.90946 0
M  V30 19171 C 1800.29 -4.29276 -3.12882 0
M  V30 19172 C 1799.33 -5.45775 -2.77121 0
M  V30 19173 N 1798.47 -5.82686 -3.9169 0
M  V30 19174 H 1803.31 -2.93912 -0.491922 0
M  V30 19175 H 1800.85 -1.45272 -0.23121 0
M  V30 19176 H 1802.8 -2.92803 -2.9719 0
M  V30 19177 H 1801.43 -1.83055 -2.65877 0
M  V30 19178 H 1800.49 -3.6518 -1.06526 0
M  V30 19179 H 1801.8 -4.72235 -1.6061 0
M  V30 19180 H 1800.95 -4.59768 -3.95851 0
M  V30 19181 H 1799.69 -3.43323 -3.46382 0
M  V30 19182 H 1798.7 -5.14974 -1.92565 0
M  V30 19183 H 1799.92 -6.3343 -2.44834 0
M  V30 19184 H 1797.87 -4.99688 -4.25027 0
M  V30 19185 H 1797.78 -6.62058 -3.64986 0
M  V30 19186 H 1799.05 -6.17785 -4.75355 0
M  V30 19187 N 1803.28 0.241399 -1.5574 0
M  V30 19188 C 1804.25 1.28236 -1.89969 0
M  V30 19189 C 1805.25 1.40804 -0.776582 0
M  V30 19190 O 1806.44 1.3941 -1.04453 0
M  V30 19191 C 1803.57 2.65926 -2.13299 0
M  V30 19192 H 1804.76 0.991011 -2.83053 0
M  V30 19193 H 1802.31 0.480939 -1.48717 0
M  V30 19194 H 1803.05 3.00192 -1.22701 0
M  V30 19195 H 1802.83 2.58184 -2.95099 0
M  V30 19196 H 1804.32 3.4108 -2.40944 0
M  V30 19197 N 1804.76 1.49212 0.507292 0
M  V30 19198 C 1806.18 1.35835 0.837908 0
M  V30 19199 C 1806.38 0.386634 1.97756 0
M  V30 19200 O 1805.43 -0.183971 2.51829 0
M  V30 19201 C 1806.75 2.76407 1.18404 0
M  V30 19202 C 1808.29 2.85062 1.29262 0
M  V30 19203 C 1808.77 4.26387 1.67208 0
M  V30 19204 N 1810.26 4.29168 1.74268 0
M  V30 19205 C 1810.99 5.35479 2.05061 0
M  V30 19206 N 1810.49 6.52042 2.34121 0
M  V30 19207 N 1812.28 5.2289 2.06259 0
M  V30 19208 H 1804.43 2.1099 -0.244311 0
M  V30 19209 H 1806.7 0.946849 -0.0466977 0
M  V30 19210 H 1806.4 3.49183 0.420053 0
M  V30 19211 H 1806.28 3.11376 2.12896 0
M  V30 19212 H 1808.66 2.12528 2.04734 0
M  V30 19213 H 1808.75 2.53684 0.328359 0
M  V30 19214 H 1808.39 4.99445 0.922884 0
M  V30 19215 H 1808.32 4.55225 2.64723 0
M  V30 19216 H 1810.81 3.45099 1.53996 0
M  V30 19217 H 1811.12 7.2889 2.56787 0
M  V30 19218 H 1809.47 6.55279 2.31591 0
M  V30 19219 H 1812.66 4.30834 1.83028 0
M  V30 19220 H 1812.83 6.05838 2.29923 0
M  V30 19221 N 1806.24 -0.757876 1.38181 0
M  V30 19222 C 1807.15 -1.90234 1.37289 0
M  V30 19223 C 1808.16 -1.71883 0.270567 0
M  V30 19224 O 1809.34 -1.94881 0.508279 0
M  V30 19225 C 1806.41 -3.25546 1.19251 0
M  V30 19226 C 1805.47 -3.56452 2.39249 0
M  V30 19227 C 1804.7 -4.85308 2.22063 0
M  V30 19228 O 1804.92 -5.57373 1.2121 0
M  V30 19229 O 1803.86 -5.15594 3.10558 0
M  V30 19230 H 1807.68 -1.9394 2.33711 0
M  V30 19231 H 1805.27 -0.902559 1.19056 0
M  V30 19232 H 1807.15 -4.06454 1.11235 0
M  V30 19233 H 1805.82 -3.22661 0.259109 0
M  V30 19234 H 1804.73 -2.75723 2.52839 0
M  V30 19235 H 1806.06 -3.64094 3.31205 0
M  V30 19236 N 1807.72 -1.22979 -0.985586 0
M  V30 19237 C 1808.96 -1.05667 -1.72275 0
M  V30 19238 C 1809.29 0.408045 -1.90683 0
M  V30 19239 O 1808.56 1.29293 -1.47174 0
M  V30 19240 H 1807.14 -0.388017 -0.63832 0
M  V30 19241 H 1809.8 -1.54612 -1.18665 0
M  V30 19242 H 1808.89 -1.54043 -2.71436 0
M  V30 19243 N 1809.19 1.18355 -1.04066 0
M  V30 19244 C 1810.61 1.40349 -0.759898 0
M  V30 19245 C 1810.81 1.90709 0.650574 0
M  V30 19246 O 1809.87 2.09142 1.41477 0
M  V30 19247 C 1811.18 2.40426 -1.80599 0
M  V30 19248 C 1812.73 2.54153 -1.8269 0
M  V30 19249 C 1813.2 3.57494 -2.8629 0
M  V30 19250 N 1814.69 3.65001 -2.85181 0
M  V30 19251 C 1815.43 4.44688 -3.61995 0
M  V30 19252 N 1814.92 5.27984 -4.48559 0
M  V30 19253 N 1816.72 4.39451 -3.50484 0
M  V30 19254 H 1808.87 0.839924 -1.95087 0
M  V30 19255 H 1811.13 0.431492 -0.844108 0
M  V30 19256 H 1810.84 2.10471 -2.81771 0
M  V30 19257 H 1810.71 3.39773 -1.63812 0
M  V30 19258 H 1813.1 2.83424 -0.821889 0
M  V30 19259 H 1813.18 1.54919 -2.03553 0
M  V30 19260 H 1812.82 3.28963 -3.8697 0
M  V30 19261 H 1812.75 4.56405 -2.62682 0
M  V30 19262 H 1815.24 3.05522 -2.22407 0
M  V30 19263 H 1815.56 5.85939 -5.0388 0
M  V30 19264 H 1813.9 5.27404 -4.52626 0
M  V30 19265 H 1817.09 3.73426 -2.8226 0
M  V30 19266 H 1817.27 5.01313 -4.10596 0
M  V30 19267 N 1810.67 0.820125 1.3458 0
M  V30 19268 C 1811.9 0.419764 2.02597 0
M  V30 19269 C 1812.32 -0.973439 1.6177 0
M  V30 19270 O 1811.67 -1.6295 0.821791 0
M  V30 19271 C 1811.72 0.509104 3.57897 0
M  V30 19272 O 1811.44 1.84739 3.97244 0
M  V30 19273 C 1812.95 0.103283 4.4318 0
M  V30 19274 H 1810.17 0.168803 0.64942 0
M  V30 19275 H 1812.71 1.10751 1.71914 0
M  V30 19276 H 1810.86 -0.130526 3.8718 0
M  V30 19277 H 1811.28 1.81967 4.91923 0
M  V30 19278 H 1812.75 0.216884 5.51574 0
M  V30 19279 H 1813.23 -0.952888 4.28738 0
M  V30 19280 H 1813.84 0.716601 4.19219 0
M  V30 19281 N 1812.15 -1.46743 0.574835 0
M  V30 19282 C 1813.39 -2.04312 0.0599973 0
M  V30 19283 C 1813.75 -1.43757 -1.27271 0
M  V30 19284 O 1814.96 -1.92479 -1.87631 0
M  V30 19285 C 1813.23 -3.57398 -0.0130197 0
M  V30 19286 S 1814.79 -4.3626 -0.471425 0
M  V30 19287 H 1811.6 -0.710203 0.0336583 0
M  V30 19288 H 1814.21 -1.79887 0.765555 0
M  V30 19289 H 1812.91 -3.9899 0.961003 0
M  V30 19290 H 1812.44 -3.86347 -0.741591 0
M  V30 19291 H 1814.46 -4.65149 -1.72773 0
M  V30 19292 N 1813.63 -0.312197 -1.54477 0
M  V30 19293 C 1814.88 0.294607 -1.99537 0
M  V30 19294 C 1815.19 1.54137 -1.20421 0
M  V30 19295 O 1816.4 2.22346 -1.55803 0
M  V30 19296 C 1814.85 0.57547 -3.55269 0
M  V30 19297 C 1814.46 -0.653591 -4.43207 0
M  V30 19298 C 1816.2 1.14285 -4.08827 0
M  V30 19299 C 1814.11 -0.345261 -5.90391 0
M  V30 19300 H 1813.04 0.113859 -0.745354 0
M  V30 19301 H 1815.69 -0.42265 -1.78566 0
M  V30 19302 H 1814.07 1.35262 -3.72183 0
M  V30 19303 H 1815.25 -1.42945 -4.38068 0
M  V30 19304 H 1813.56 -1.14039 -4.0048 0
M  V30 19305 H 1816.16 1.38797 -5.16371 0
M  V30 19306 H 1816.5 2.08866 -3.60112 0
M  V30 19307 H 1817.04 0.427154 -3.955 0
M  V30 19308 H 1813.78 -1.25994 -6.43277 0
M  V30 19309 H 1813.3 0.393106 -5.9851 0
M  V30 19310 H 1814.97 0.0490847 -6.46981 0
M  V30 19311 N 1815.11 1.57549 -0.040136 0
M  V30 19312 C 1816.35 1.92535 0.637037 0
M  V30 19313 C 1816.69 0.917836 1.71141 0
M  V30 19314 O 1815.96 -0.057824 1.94414 0
M  V30 19315 C 1816.24 3.37955 1.24333 0
M  V30 19316 C 1816.1 4.49449 0.177761 0
M  V30 19317 C 1817.42 3.8355 2.15818 0
M  V30 19318 H 1814.53 0.700157 0.230107 0
M  V30 19319 H 1817.18 1.89739 -0.0996468 0
M  V30 19320 H 1815.33 3.40468 1.87119 0
M  V30 19321 H 1817 4.59065 -0.453507 0
M  V30 19322 H 1815.24 4.30961 -0.495486 0
M  V30 19323 H 1815.91 5.48256 0.641792 0
M  V30 19324 H 1818.39 3.82842 1.63006 0
M  V30 19325 H 1817.26 4.85974 2.55188 0
M  V30 19326 H 1817.53 3.19678 3.05382 0
M  V30 19327 N 1816.58 -0.233136 1.55866 0
M  V30 19328 C 1817.83 -0.957205 1.7754 0
M  V30 19329 C 1818.15 -1.85956 0.606601 0
M  V30 19330 O 1819.35 -2.62142 0.706687 0
M  V30 19331 C 1817.81 -1.75215 3.14369 0
M  V30 19332 C 1817.42 -0.896509 4.38938 0
M  V30 19333 C 1819.16 -2.46813 3.45374 0
M  V30 19334 C 1817.07 -1.68814 5.66794 0
M  V30 19335 H 1816 -0.361139 0.661887 0
M  V30 19336 H 1818.65 -0.211424 1.82278 0
M  V30 19337 H 1817.03 -2.54041 3.03775 0
M  V30 19338 H 1818.2 -0.149614 4.60557 0
M  V30 19339 H 1816.52 -0.293211 4.15366 0
M  V30 19340 H 1819.12 -3.0652 4.38121 0
M  V30 19341 H 1819.46 -3.19121 2.67334 0
M  V30 19342 H 1819.99 -1.74987 3.57245 0
M  V30 19343 H 1816.73 -1.00855 6.47695 0
M  V30 19344 H 1816.25 -2.40995 5.49255 0
M  V30 19345 H 1817.93 -2.25178 6.06551 0
M  V30 19346 N 1818.06 -1.49479 -0.499372 0
M  V30 19347 C 1819.03 -1.6575 -1.58302 0
M  V30 19348 C 1820.03 -0.529236 -1.51841 0
M  V30 19349 O 1821.22 -0.795721 -1.54964 0
M  V30 19350 C 1818.35 -1.65639 -2.97954 0
M  V30 19351 H 1819.54 -2.62404 -1.45203 0
M  V30 19352 H 1817.09 -1.38535 -0.723725 0
M  V30 19353 H 1817.83 -0.705752 -3.16527 0
M  V30 19354 H 1817.61 -2.47578 -3.04051 0
M  V30 19355 H 1819.1 -1.80279 -3.76682 0
M  V30 19356 N 1819.54 0.750537 -1.38581 0
M  V30 19357 C 1820.49 1.85507 -1.32557 0
M  V30 19358 C 1821.48 1.59533 -0.209275 0
M  V30 19359 O 1822.67 1.71302 -0.445507 0
M  V30 19360 C 1819.8 3.23253 -1.15597 0
M  V30 19361 C 1818.88 3.55107 -2.31862 0
M  V30 19362 N 1819.27 3.57999 -3.5731 0
M  V30 19363 C 1817.57 3.85389 -2.2448 0
M  V30 19364 C 1818.27 3.87207 -4.34103 0
M  V30 19365 N 1817.25 4.04193 -3.63496 0
M  V30 19366 H 1821.05 1.86025 -2.27535 0
M  V30 19367 H 1818.56 0.948038 -1.31856 0
M  V30 19368 H 1820.56 4.023 -1.09365 0
M  V30 19369 H 1819.22 3.23984 -0.215556 0
M  V30 19370 H 1820.23 3.39686 -3.9094 0
M  V30 19371 H 1816.91 3.93817 -1.38615 0
M  V30 19372 H 1818.3 3.96042 -5.42771 0
M  V30 19373 N 1821.02 1.235 0.979051 0
M  V30 19374 C 1822.44 0.997948 1.24552 0
M  V30 19375 C 1822.64 -0.300139 1.99252 0
M  V30 19376 O 1821.69 -1.01923 2.31015 0
M  V30 19377 C 1823 2.2057 2.04375 0
M  V30 19378 C 1824.55 2.25075 2.17509 0
M  V30 19379 C 1825.03 3.45441 3.00724 0
M  V30 19380 N 1826.52 3.45688 3.08308 0
M  V30 19381 C 1827.25 4.35478 3.73024 0
M  V30 19382 N 1826.75 5.35506 4.39551 0
M  V30 19383 N 1828.54 4.23218 3.69923 0
M  V30 19384 H 1820.69 2.06936 0.478649 0
M  V30 19385 H 1822.96 0.907514 0.274083 0
M  V30 19386 H 1822.66 3.14781 1.56863 0
M  V30 19387 H 1822.54 2.21765 3.05123 0
M  V30 19388 H 1824.92 1.31403 2.64229 0
M  V30 19389 H 1825 2.27912 1.16146 0
M  V30 19390 H 1824.65 4.3942 2.547 0
M  V30 19391 H 1824.58 3.39845 4.0226 0
M  V30 19392 H 1827.07 2.73315 2.60974 0
M  V30 19393 H 1827.38 6.00274 4.86715 0
M  V30 19394 H 1825.73 5.39404 4.38256 0
M  V30 19395 H 1828.92 3.44315 3.17119 0
M  V30 19396 H 1829.09 4.93396 4.20076 0
M  V30 19397 N 1822.5 -1.17802 1.04693 0
M  V30 19398 C 1823.43 -2.23847 0.664448 0
M  V30 19399 C 1824.41 -1.66761 -0.335356 0
M  V30 19400 O 1825.59 -1.93017 -0.214062 0
M  V30 19401 C 1822.72 -3.47284 0.0331587 0
M  V30 19402 C 1821.68 -4.1716 0.95718 0
M  V30 19403 C 1821 -5.34362 0.190034 0
M  V30 19404 C 1822.3 -4.69951 2.2791 0
M  V30 19405 H 1824 -2.56095 1.55099 0
M  V30 19406 H 1821.54 -1.23097 0.747196 0
M  V30 19407 H 1823.5 -4.2068 -0.246178 0
M  V30 19408 H 1822.22 -3.14288 -0.888294 0
M  V30 19409 H 1820.88 -3.45669 1.221 0
M  V30 19410 H 1820.53 -4.97615 -0.734025 0
M  V30 19411 H 1820.23 -5.8205 0.805684 0
M  V30 19412 H 1821.75 -6.10545 -0.0821372 0
M  V30 19413 H 1823.17 -5.3501 2.06003 0
M  V30 19414 H 1821.56 -5.28198 2.84828 0
M  V30 19415 H 1822.63 -3.87032 2.9212 0
M  V30 19416 N 1823.98 -0.827251 -1.34143 0
M  V30 19417 C 1825.2 -0.429514 -2.02904 0
M  V30 19418 C 1825.63 0.958033 -1.61874 0
M  V30 19419 O 1824.98 1.62422 -0.805528 0
M  V30 19420 C 1825.03 -0.544592 -3.56464 0
M  V30 19421 O 1824.14 0.433849 -4.10112 0
M  V30 19422 H 1823.48 -0.176216 -0.64019 0
M  V30 19423 H 1826.01 -1.11887 -1.71297 0
M  V30 19424 H 1826.02 -0.421949 -4.05812 0
M  V30 19425 H 1824.69 -1.55657 -3.85673 0
M  V30 19426 H 1823.27 0.269729 -3.71923 0
M  V30 19427 N 1825.45 1.46436 -0.582609 0
M  V30 19428 C 1826.68 2.06768 -0.0737657 0
M  V30 19429 C 1827.1 1.43137 1.23115 0
M  V30 19430 O 1826.45 0.536633 1.74432 0
M  V30 19431 C 1826.5 3.61365 0.0988205 0
M  V30 19432 O 1826.23 4.22616 -1.15444 0
M  V30 19433 C 1827.73 4.38626 0.642025 0
M  V30 19434 H 1824.95 0.66854 -0.0574078 0
M  V30 19435 H 1827.49 1.88064 -0.80325 0
M  V30 19436 H 1825.65 3.79497 0.778526 0
M  V30 19437 H 1826.06 5.15486 -0.968204 0
M  V30 19438 H 1827.53 5.47389 0.711966 0
M  V30 19439 H 1828.01 4.06663 1.65897 0
M  V30 19440 H 1828.62 4.253 -0.00280852 0
M  V30 19441 N 1826.93 0.320385 1.54309 0
M  V30 19442 C 1828.18 -0.284021 1.9969 0
M  V30 19443 C 1828.49 -1.53496 1.21237 0
M  V30 19444 O 1829.7 -2.21517 1.5698 0
M  V30 19445 C 1828.16 -0.556621 3.5557 0
M  V30 19446 C 1827.76 0.677086 4.42854 0
M  V30 19447 C 1829.51 -1.12116 4.09427 0
M  V30 19448 C 1827.41 0.376566 5.902 0
M  V30 19449 H 1826.34 -0.109905 0.745947 0
M  V30 19450 H 1829 0.432113 1.7834 0
M  V30 19451 H 1827.38 -1.33286 3.72895 0
M  V30 19452 H 1828.55 1.45266 4.37304 0
M  V30 19453 H 1826.87 1.16161 3.99869 0
M  V30 19454 H 1829.46 -1.36057 5.171 0
M  V30 19455 H 1829.81 -2.06954 3.61215 0
M  V30 19456 H 1830.34 -0.406174 3.95721 0
M  V30 19457 H 1827.08 1.29403 6.426 0
M  V30 19458 H 1826.6 -0.36136 5.9871 0
M  V30 19459 H 1828.28 -0.014773 6.46998 0
M  V30 19460 N 1828.41 -1.57525 0.0484906 0
M  V30 19461 C 1829.34 -2.08313 -0.955941 0
M  V30 19462 C 1830.35 -1.01042 -1.2765 0
M  V30 19463 O 1831.54 -1.28615 -1.23776 0
M  V30 19464 C 1828.64 -2.509 -2.27821 0
M  V30 19465 C 1827.82 -3.81476 -2.13997 0
M  V30 19466 C 1826.88 -4.10404 -3.29325 0
M  V30 19467 O 1825.9 -4.80366 -3.05348 0
M  V30 19468 N 1827.1 -3.62104 -4.53719 0
M  V30 19469 H 1829.87 -2.95111 -0.522472 0
M  V30 19470 H 1827.43 -1.61312 -0.137816 0
M  V30 19471 H 1829.42 -2.6733 -3.03837 0
M  V30 19472 H 1827.99 -1.69365 -2.62744 0
M  V30 19473 H 1827.21 -3.74654 -1.22589 0
M  V30 19474 H 1828.5 -4.6699 -2.01985 0
M  V30 19475 H 1827.9 -3.05541 -4.7609 0
M  V30 19476 H 1826.45 -3.83778 -5.26838 0
M  V30 19477 N 1829.89 0.224867 -1.55988 0
M  V30 19478 C 1830.84 1.29829 -1.92995 0
M  V30 19479 C 1831.83 1.48693 -0.81159 0
M  V30 19480 O 1833.04 1.49906 -0.996397 0
M  V30 19481 H 1829.41 0.435205 -0.61327 0
M  V30 19482 H 1831.38 0.958953 -2.82571 0
M  V30 19483 C 1830.13 2.6422 -2.26016 0
M  V30 19484 H 1829.45 2.50511 -3.11584 0
M  V30 19485 H 1830.89 3.38148 -2.55797 0
M  V30 19486 C 1829.35 3.1898 -1.08413 0
M  V30 19487 O 1829.88 4.00228 -0.343538 0
M  V30 19488 N 1828.09 2.77308 -0.868842 0
M  V30 19489 H 1827.64 2.11344 -1.4728 0
M  V30 19490 H 1827.59 3.14289 -0.0837012 0
M  V30 19491 N 1831.37 1.49742 0.491438 0
M  V30 19492 C 1832.33 1.66587 1.57421 0
M  V30 19493 C 1833.33 0.537281 1.51558 0
M  V30 19494 O 1834.52 0.803928 1.5454 0
M  V30 19495 C 1831.65 1.67217 2.97071 0
M  V30 19496 H 1832.84 2.63171 1.4381 0
M  V30 19497 H 1830.4 1.38917 0.716368 0
M  V30 19498 H 1831.13 0.722529 3.16149 0
M  V30 19499 H 1830.92 2.49187 3.02734 0
M  V30 19500 H 1832.41 1.82274 3.75721 0
M  V30 19501 N 1832.84 -0.743177 1.38977 0
M  V30 19502 C 1834.12 -1.49384 1.26269 0
M  V30 19503 C 1834.5 -2.10691 -0.131349 0
M  V30 19504 O 1833.85 -1.97925 -1.14183 0
M  V30 19505 C 1834.06 -2.55184 2.3808 0
M  V30 19506 C 1835.41 -3.21796 2.77006 0
M  V30 19507 O 1836.43 -2.65493 2.37469 0
M  V30 19508 O 1835.29 -4.23656 3.45222 0
M  V30 19509 H 1832.38 -0.662968 0.49437 0
M  V30 19510 H 1834.93 -0.7777 1.50831 0
M  V30 19511 H 1833.7 -2.08204 3.31311 0
M  V30 19512 H 1833.33 -3.34366 2.15139 0
M  V30 19513 N 1834.32 -1.24018 -0.972487 0
M  V30 19514 C 1835.25 -1.0529 -2.08414 0
M  V30 19515 C 1836.23 0.0326663 -1.70069 0
M  V30 19516 O 1837.42 -0.133494 -1.93741 0
M  V30 19517 C 1834.55 -0.651796 -3.41129 0
M  V30 19518 C 1833.5 -1.68559 -3.9341 0
M  V30 19519 C 1832.83 -1.1397 -5.22413 0
M  V30 19520 C 1834.13 -3.08046 -4.21788 0
M  V30 19521 H 1835.82 -1.98272 -2.2434 0
M  V30 19522 H 1833.37 -0.954694 -1.07804 0
M  V30 19523 H 1835.32 -0.507792 -4.18329 0
M  V30 19524 H 1834.05 0.313722 -3.2509 0
M  V30 19525 H 1832.7 -1.81773 -3.18362 0
M  V30 19526 H 1832.35 -0.164928 -5.0273 0
M  V30 19527 H 1832.05 -1.83051 -5.5836 0
M  V30 19528 H 1833.58 -1.00771 -6.02227 0
M  V30 19529 H 1834.99 -2.98088 -4.8971 0
M  V30 19530 H 1833.39 -3.74436 -4.68954 0
M  V30 19531 H 1834.46 -3.56444 -3.28749 0
M  V30 19532 N 1835.8 1.17245 -1.05316 0
M  V30 19533 C 1837.05 1.86871 -0.759093 0
M  V30 19534 C 1837.36 1.81997 0.7167 0
M  V30 19535 O 1838.57 2.47106 1.12476 0
M  V30 19536 C 1837.02 3.35303 -1.30766 0
M  V30 19537 C 1836.63 3.48676 -2.81299 0
M  V30 19538 C 1838.38 4.10249 -1.0907 0
M  V30 19539 C 1836.28 4.91138 -3.2945 0
M  V30 19540 H 1835.21 0.699975 -0.28027 0
M  V30 19541 H 1837.86 1.32393 -1.27061 0
M  V30 19542 H 1836.25 3.89326 -0.723955 0
M  V30 19543 H 1837.42 3.04864 -3.45536 0
M  V30 19544 H 1835.74 2.87152 -3.0155 0
M  V30 19545 H 1838.33 5.1535 -1.42545 0
M  V30 19546 H 1838.68 4.1629 -0.0285204 0
M  V30 19547 H 1839.21 3.62436 -1.63967 0
M  V30 19548 H 1835.95 4.90271 -4.35103 0
M  V30 19549 H 1835.47 5.35615 -2.69956 0
M  V30 19550 H 1837.15 5.59913 -3.24201 0
M  V30 19551 N 1837.28 0.834353 1.33702 0
M  V30 19552 C 1838.52 0.428521 1.98221 0
M  V30 19553 C 1838.86 -1.00858 1.65956 0
M  V30 19554 O 1838.13 -1.70437 0.937094 0
M  V30 19555 C 1838.42 0.644357 3.54288 0
M  V30 19556 C 1838.27 2.1284 3.96256 0
M  V30 19557 C 1839.59 0.0876063 4.40013 0
M  V30 19558 H 1836.71 0.15717 0.720046 0
M  V30 19559 H 1839.35 1.04903 1.58415 0
M  V30 19560 H 1837.5 0.116173 3.88326 0
M  V30 19561 H 1839.17 2.72111 3.72496 0
M  V30 19562 H 1837.41 2.61461 3.46151 0
M  V30 19563 H 1838.08 2.23019 5.04942 0
M  V30 19564 H 1840.56 0.539025 4.12594 0
M  V30 19565 H 1839.44 0.268345 5.48244 0
M  V30 19566 H 1839.7 -1.00829 4.30449 0
M  V30 19567 N 1838.76 -1.46125 0.590367 0
M  V30 19568 C 1840 -2.02646 0.0789983 0
M  V30 19569 C 1840.34 -1.45996 -1.28058 0
M  V30 19570 O 1839.61 -0.627981 -1.84083 0
M  V30 19571 C 1839.89 -3.60094 0.0214749 0
M  V30 19572 C 1839.75 -4.27112 1.41049 0
M  V30 19573 C 1841.07 -4.34889 -0.675236 0
M  V30 19574 H 1838.18 -0.736382 0.0301818 0
M  V30 19575 H 1840.83 -1.7418 0.759037 0
M  V30 19576 H 1838.98 -3.84477 -0.557648 0
M  V30 19577 H 1840.65 -4.13969 2.03537 0
M  V30 19578 H 1838.89 -3.86178 1.97607 0
M  V30 19579 H 1839.56 -5.3592 1.32264 0
M  V30 19580 H 1842.04 -4.15697 -0.183176 0
M  V30 19581 H 1840.91 -5.44615 -0.684538 0
M  V30 19582 H 1841.18 -4.06503 -1.73804 0
M  V30 19583 N 1840.23 -0.328564 -1.54137 0
M  V30 19584 C 1841.48 0.272505 -2.00658 0
M  V30 19585 C 1841.81 1.51748 -1.21666 0
M  V30 19586 O 1841.06 1.93566 -0.288224 0
M  V30 19587 C 1841.36 0.646813 -3.51498 0
M  V30 19588 C 1841.03 -0.499561 -4.48124 0
M  V30 19589 C 1839.69 -0.8142 -4.74262 0
M  V30 19590 C 1842.04 -1.26936 -5.05506 0
M  V30 19591 C 1839.37 -1.90127 -5.55039 0
M  V30 19592 C 1841.72 -2.34656 -5.87469 0
M  V30 19593 C 1840.39 -2.66696 -6.11906 0
M  V30 19594 H 1839.66 0.0997168 -0.73426 0
M  V30 19595 H 1842.3 -0.453377 -1.86056 0
M  V30 19596 H 1840.61 1.45319 -3.63854 0
M  V30 19597 H 1842.31 1.12352 -3.84939 0
M  V30 19598 H 1838.9 -0.244255 -4.27903 0
M  V30 19599 H 1843.08 -1.03954 -4.85291 0
M  V30 19600 H 1838.34 -2.15392 -5.72203 0
M  V30 19601 H 1842.51 -2.94745 -6.3095 0
M  V30 19602 H 1840.14 -3.51058 -6.74287 0
M  V30 19603 N 1841.71 1.57497 -0.0568439 0
M  V30 19604 C 1842.64 2.08817 0.94488 0
M  V30 19605 C 1843.66 1.01717 1.27112 0
M  V30 19606 O 1844.85 1.2927 1.23092 0
M  V30 19607 C 1841.95 2.52104 2.26488 0
M  V30 19608 C 1841.12 3.82606 2.11971 0
M  V30 19609 C 1840.18 4.12145 3.27144 0
M  V30 19610 O 1839.2 4.81978 3.02797 0
M  V30 19611 N 1840.41 3.64505 4.51792 0
M  V30 19612 H 1843.17 2.95384 0.506814 0
M  V30 19613 H 1840.73 1.61383 0.129259 0
M  V30 19614 H 1842.72 2.68938 3.02415 0
M  V30 19615 H 1841.29 1.70756 2.61842 0
M  V30 19616 H 1840.51 3.75299 1.20601 0
M  V30 19617 H 1841.8 4.68055 1.99505 0
M  V30 19618 H 1841.2 3.08061 4.74462 0
M  V30 19619 H 1839.76 3.86566 5.24795 0
M  V30 19620 N 1843.19 -0.216591 1.56105 0
M  V30 19621 C 1844.14 -1.28803 1.93681 0
M  V30 19622 C 1845.13 -1.4826 0.819464 0
M  V30 19623 O 1846.34 -1.49376 1.00433 0
M  V30 19624 H 1842.71 -0.431947 0.61557 0
M  V30 19625 H 1844.68 -0.943954 2.83076 0
M  V30 19626 C 1843.43 -2.63017 2.27414 0
M  V30 19627 H 1842.76 -2.48855 3.12908 0
M  V30 19628 H 1844.2 -3.36787 2.57587 0
M  V30 19629 C 1842.66 -3.18401 1.10103 0
M  V30 19630 O 1843.19 -4.00041 0.364758 0
M  V30 19631 N 1841.39 -2.76843 0.883536 0
M  V30 19632 H 1840.94 -2.1056 1.48399 0
M  V30 19633 H 1840.9 -3.1424 0.100368 0
M  V30 19634 N 1844.67 -1.5 -0.48349 0
M  V30 19635 C 1845.92 -1.60052 -1.23401 0
M  V30 19636 C 1846.24 -0.297159 -1.92723 0
M  V30 19637 O 1845.51 0.684629 -1.83547 0
M  V30 19638 H 1844.09 -0.589753 -0.458477 0
M  V30 19639 H 1846.75 -1.86716 -0.558835 0
M  V30 19640 H 1845.85 -2.40545 -1.98858 0
M  V30 19641 N 1846.15 0.735796 -1.39369 0
M  V30 19642 C 1847.56 1.04124 -1.20956 0
M  V30 19643 C 1847.76 2.01376 -0.0705944 0
M  V30 19644 O 1846.82 2.45795 0.577999 0
M  V30 19645 C 1848.13 1.60429 -2.54329 0
M  V30 19646 C 1849.68 1.72513 -2.61167 0
M  V30 19647 C 1850.15 2.32227 -3.94759 0
M  V30 19648 N 1851.65 2.39638 -3.96394 0
M  V30 19649 C 1852.38 2.86777 -4.96534 0
M  V30 19650 N 1851.88 3.3382 -6.07072 0
M  V30 19651 N 1853.67 2.85979 -4.83913 0
M  V30 19652 H 1845.82 0.0907834 -2.12206 0
M  V30 19653 H 1848.08 0.102896 -0.942399 0
M  V30 19654 H 1847.79 0.964351 -3.38221 0
M  V30 19655 H 1847.66 2.59247 -2.73991 0
M  V30 19656 H 1850.05 2.35629 -1.77659 0
M  V30 19657 H 1850.13 0.723507 -2.45355 0
M  V30 19658 H 1849.78 1.69739 -4.78697 0
M  V30 19659 H 1849.71 3.33066 -4.07891 0
M  V30 19660 H 1852.2 2.06388 -3.16563 0
M  V30 19661 H 1852.51 3.68297 -6.79395 0
M  V30 19662 H 1850.85 3.3183 -6.10666 0
M  V30 19663 H 1854.05 2.48551 -3.96661 0
M  V30 19664 H 1854.22 3.22403 -5.62104 0
M  V30 19665 N 1847.63 1.24532 0.965897 0
M  V30 19666 C 1848.87 1.0877 1.71163 0
M  V30 19667 C 1849.2 -0.372297 1.90598 0
M  V30 19668 O 1848.48 -1.27503 1.46878 0
M  V30 19669 C 1848.76 1.83004 3.10131 0
M  V30 19670 C 1848.62 3.36765 2.98177 0
M  V30 19671 C 1849.93 1.60417 4.09822 0
M  V30 19672 H 1847.05 0.396528 0.621236 0
M  V30 19673 H 1849.7 1.53223 1.12351 0
M  V30 19674 H 1847.85 1.4522 3.60338 0
M  V30 19675 H 1849.52 3.84158 2.55382 0
M  V30 19676 H 1847.76 3.65053 2.34347 0
M  V30 19677 H 1848.43 3.83909 3.96633 0
M  V30 19678 H 1850.91 1.93289 3.68482 0
M  V30 19679 H 1849.78 2.14812 5.05121 0
M  V30 19680 H 1850.04 0.542843 4.38755 0
M  V30 19681 N 1849.1 -1.16685 1.05936 0
M  V30 19682 C 1850.05 -2.20953 0.66695 0
M  V30 19683 C 1851.02 -1.62694 -0.334621 0
M  V30 19684 O 1852.21 -1.89477 -0.22433 0
M  V30 19685 C 1849.35 -3.45055 0.0557459 0
M  V30 19686 C 1848.46 -4.17574 1.10706 0
M  V30 19687 C 1847.59 -5.29184 0.462377 0
M  V30 19688 C 1846.63 -5.935 1.49748 0
M  V30 19689 N 1845.77 -6.96608 0.876416 0
M  V30 19690 H 1850.61 -2.53872 1.56054 0
M  V30 19691 H 1848.15 -1.24697 0.780321 0
M  V30 19692 H 1850.1 -4.16001 -0.316125 0
M  V30 19693 H 1848.73 -3.12697 -0.801265 0
M  V30 19694 H 1847.79 -3.45269 1.59668 0
M  V30 19695 H 1849.1 -4.61505 1.89248 0
M  V30 19696 H 1848.25 -6.06689 0.0373376 0
M  V30 19697 H 1846.99 -4.86407 -0.354955 0
M  V30 19698 H 1846 -5.1472 1.93245 0
M  V30 19699 H 1847.22 -6.38357 2.31684 0
M  V30 19700 H 1845.17 -6.55952 0.0797299 0
M  V30 19701 H 1845.08 -7.38891 1.59927 0
M  V30 19702 H 1846.35 -7.78043 0.4764 0
M  V30 19703 N 1850.58 -0.841432 -1.33258 0
M  V30 19704 C 1851.49 -0.279006 -2.32935 0
M  V30 19705 C 1852.51 0.596298 -1.63463 0
M  V30 19706 O 1853.68 0.499812 -1.951 0
M  V30 19707 C 1850.75 0.534514 -3.42555 0
M  V30 19708 C 1849.81 -0.365366 -4.27742 0
M  V30 19709 C 1849.04 0.409423 -5.32127 0
M  V30 19710 O 1849.27 1.64085 -5.4629 0
M  V30 19711 O 1848.2 -0.217904 -6.01505 0
M  V30 19712 H 1852.03 -1.10448 -2.82904 0
M  V30 19713 H 1849.61 -0.60402 -1.36645 0
M  V30 19714 H 1851.49 0.996723 -4.09443 0
M  V30 19715 H 1850.17 1.33701 -2.94798 0
M  V30 19716 H 1849.07 -0.875469 -3.63712 0
M  V30 19717 H 1850.41 -1.1327 -4.78989 0
M  V30 19718 N 1852.06 1.4581 -0.598108 0
M  V30 19719 C 1853.01 2.27522 0.147488 0
M  V30 19720 C 1853.99 1.36772 0.847487 0
M  V30 19721 O 1855.19 1.60833 0.739041 0
M  V30 19722 C 1852.31 3.23449 1.15047 0
M  V30 19723 C 1851.4 4.21687 0.451796 0
M  V30 19724 N 1851.79 5.0331 -0.501268 0
M  V30 19725 C 1850.09 4.40463 0.700576 0
M  V30 19726 C 1850.79 5.74521 -0.911055 0
M  V30 19727 N 1849.77 5.42993 -0.256847 0
M  V30 19728 H 1853.57 2.88026 -0.584658 0
M  V30 19729 H 1851.08 1.56847 -0.421055 0
M  V30 19730 H 1853.08 3.80712 1.69894 0
M  V30 19731 H 1851.74 2.64505 1.88327 0
M  V30 19732 H 1852.75 5.10411 -0.877558 0
M  V30 19733 H 1849.43 3.92654 1.41878 0
M  V30 19734 H 1850.82 6.50128 -1.69657 0
M  V30 19735 N 1853.54 0.336733 1.53961 0
M  V30 19736 C 1854.79 -0.261343 2.00403 0
M  V30 19737 C 1855.11 -1.51612 1.22633 0
M  V30 19738 O 1854.38 -1.93072 0.331659 0
M  V30 19739 H 1852.96 -0.0995594 0.740336 0
M  V30 19740 H 1855.62 0.456319 1.89483 0
M  V30 19741 H 1854.71 -0.508557 3.07929 0
M  V30 19742 N 1855.02 -1.57465 0.0651956 0
M  V30 19743 C 1856.24 -1.9756 -0.614633 0
M  V30 19744 C 1856.66 -0.943308 -1.63546 0
M  V30 19745 O 1856.02 0.0708362 -1.82362 0
M  V30 19746 C 1856.07 -3.37735 -1.28909 0
M  V30 19747 O 1855.79 -4.37008 -0.309131 0
M  V30 19748 C 1857.29 -3.92667 -2.05736 0
M  V30 19749 H 1854.51 -0.64987 -0.167061 0
M  V30 19750 H 1857.05 -2.0405 0.135647 0
M  V30 19751 H 1855.21 -3.32352 -1.9905 0
M  V30 19752 H 1855.62 -5.18483 -0.792206 0
M  V30 19753 H 1857.1 -4.92988 -2.48329 0
M  V30 19754 H 1857.57 -3.28851 -2.91124 0
M  V30 19755 H 1858.18 -4.01431 -1.40476 0
M  V30 19756 N 1856.49 0.20831 -1.56217 0
M  V30 19757 C 1857.44 1.26199 -1.89889 0
M  V30 19758 C 1858.43 1.41646 -0.763239 0
M  V30 19759 O 1859.62 1.44238 -1.02588 0
M  V30 19760 C 1856.75 2.60964 -2.23053 0
M  V30 19761 C 1855.83 2.49364 -3.43043 0
M  V30 19762 N 1856.23 2.07429 -4.6131 0
M  V30 19763 C 1854.52 2.80291 -3.4692 0
M  V30 19764 C 1855.22 2.07401 -5.4347 0
M  V30 19765 N 1854.2 2.48398 -4.83528 0
M  V30 19766 H 1858 0.928874 -2.78835 0
M  V30 19767 H 1855.52 0.416815 -1.5696 0
M  V30 19768 H 1857.51 3.37055 -2.45356 0
M  V30 19769 H 1856.17 2.9511 -1.35426 0
M  V30 19770 H 1857.18 1.78348 -4.86223 0
M  V30 19771 H 1853.86 3.1872 -2.69673 0
M  V30 19772 H 1855.25 1.76991 -6.4817 0
M  V30 19773 N 1857.97 1.50255 0.475528 0
M  V30 19774 C 1858.9 1.64942 1.59144 0
M  V30 19775 C 1859.92 0.531065 1.53895 0
M  V30 19776 O 1861.11 0.804084 1.59364 0
M  V30 19777 C 1858.21 1.61372 2.98014 0
M  V30 19778 C 1857.38 2.89167 3.28179 0
M  V30 19779 C 1856.44 2.783 4.46582 0
M  V30 19780 O 1855.46 3.52254 4.47108 0
M  V30 19781 N 1856.67 1.91557 5.47984 0
M  V30 19782 H 1859.43 2.61194 1.46962 0
M  V30 19783 H 1856.99 1.47663 0.663869 0
M  V30 19784 H 1858.98 1.51722 3.75183 0
M  V30 19785 H 1857.55 0.728744 3.03987 0
M  V30 19786 H 1856.77 3.12977 2.39664 0
M  V30 19787 H 1858.06 3.73838 3.45142 0
M  V30 19788 H 1857.46 1.30778 5.50376 0
M  V30 19789 H 1856.02 1.87813 6.24155 0
M  V30 19790 N 1859.45 -0.728395 1.39758 0
M  V30 19791 C 1860.38 -1.85288 1.34911 0
M  V30 19792 C 1861.39 -1.60763 0.25671 0
M  V30 19793 O 1862.58 -1.70875 0.516143 0
M  V30 19794 C 1859.68 -3.21445 1.07361 0
M  V30 19795 C 1858.86 -3.73272 2.28006 0
M  V30 19796 C 1857.92 -4.88008 1.96812 0
M  V30 19797 O 1856.94 -5.01325 2.69559 0
M  V30 19798 N 1858.14 -5.72867 0.938278 0
M  V30 19799 H 1860.91 -1.89949 2.31818 0
M  V30 19800 H 1858.47 -0.909409 1.33945 0
M  V30 19801 H 1860.46 -3.9578 0.845002 0
M  V30 19802 H 1859.03 -3.12012 0.191644 0
M  V30 19803 H 1858.25 -2.90214 2.66777 0
M  V30 19804 H 1859.54 -4.04633 3.08463 0
M  V30 19805 H 1858.94 -5.64704 0.335517 0
M  V30 19806 H 1857.49 -6.47241 0.769572 0
M  V30 19807 N 1860.93 -1.25042 -0.959279 0
M  V30 19808 C 1861.86 -1.07494 -2.07285 0
M  V30 19809 C 1862.84 0.0146264 -1.70094 0
M  V30 19810 O 1864.02 -0.154035 -1.93588 0
M  V30 19811 C 1861.15 -0.68794 -3.40418 0
M  V30 19812 C 1860.11 -1.72722 -3.91601 0
M  V30 19813 C 1859.43 -1.19504 -5.21175 0
M  V30 19814 C 1860.73 -3.12502 -4.18497 0
M  V30 19815 H 1862.43 -2.00641 -2.22224 0
M  V30 19816 H 1859.97 -0.966074 -1.06785 0
M  V30 19817 H 1861.93 -0.552133 -4.17767 0
M  V30 19818 H 1860.65 0.279224 -3.25404 0
M  V30 19819 H 1859.31 -1.85139 -3.16416 0
M  V30 19820 H 1858.96 -0.218239 -5.02526 0
M  V30 19821 H 1858.66 -1.88962 -5.56387 0
M  V30 19822 H 1860.18 -1.07153 -6.01124 0
M  V30 19823 H 1861.6 -3.03266 -4.86521 0
M  V30 19824 H 1859.99 -3.79389 -4.64956 0
M  V30 19825 H 1861.06 -3.5991 -3.2495 0
M  V30 19826 N 1862.41 1.16121 -1.06553 0
M  V30 19827 C 1863.34 2.22761 -0.699976 0
M  V30 19828 C 1864.32 1.67274 0.308783 0
M  V30 19829 O 1865.5 1.93333 0.183328 0
M  V30 19830 C 1862.63 3.47187 -0.0884044 0
M  V30 19831 C 1861.59 4.15584 -1.02343 0
M  V30 19832 C 1860.91 5.33992 -0.275022 0
M  V30 19833 C 1862.21 4.66266 -2.35358 0
M  V30 19834 H 1863.91 2.53595 -1.59153 0
M  V30 19835 H 1861.45 1.21893 -0.766686 0
M  V30 19836 H 1863.41 4.21019 0.17922 0
M  V30 19837 H 1862.13 3.15661 0.838181 0
M  V30 19838 H 1860.79 3.43683 -1.27584 0
M  V30 19839 H 1860.44 4.9872 0.654765 0
M  V30 19840 H 1860.14 5.80695 -0.898181 0
M  V30 19841 H 1861.66 6.10598 -0.0150056 0
M  V30 19842 H 1863.07 5.31665 -2.14488 0
M  V30 19843 H 1861.47 5.236 -2.93195 0
M  V30 19844 H 1862.54 3.82335 -2.98241 0
M  V30 19845 N 1863.88 0.848487 1.3281 0
M  V30 19846 C 1864.85 0.293744 2.2731 0
M  V30 19847 C 1865.85 -0.543043 1.51353 0
M  V30 19848 O 1867.04 -0.355443 1.70535 0
M  V30 19849 C 1864.17 -0.585094 3.35841 0
M  V30 19850 H 1865.36 1.12773 2.77889 0
M  V30 19851 H 1862.92 0.622329 1.43376 0
M  V30 19852 H 1863.65 -1.44114 2.9052 0
M  V30 19853 H 1863.44 0.0137777 3.92098 0
M  V30 19854 H 1864.93 -0.966203 4.06269 0
M  V30 19855 N 1865.36 -1.4549 0.605832 0
M  V30 19856 C 1866.29 -2.28694 -0.152145 0
M  V30 19857 C 1867.31 -1.3985 -0.833422 0
M  V30 19858 O 1868.5 -1.6424 -0.699105 0
M  V30 19859 C 1865.6 -3.15544 -1.23634 0
M  V30 19860 C 1864.77 -4.32655 -0.642525 0
M  V30 19861 C 1863.83 -5.00726 -1.61739 0
M  V30 19862 O 1862.85 -5.57577 -1.14438 0
M  V30 19863 N 1864.06 -4.9985 -2.95178 0
M  V30 19864 H 1866.82 -2.94387 0.561801 0
M  V30 19865 H 1864.38 -1.55659 0.445195 0
M  V30 19866 H 1866.37 -3.57947 -1.88828 0
M  V30 19867 H 1864.94 -2.51771 -1.85284 0
M  V30 19868 H 1864.16 -3.93754 0.187451 0
M  V30 19869 H 1865.45 -5.08298 -0.225985 0
M  V30 19870 H 1864.85 -4.54949 -3.36211 0
M  V30 19871 H 1863.41 -5.46123 -3.558 0
M  V30 19872 N 1866.84 -0.344893 -1.5378 0
M  V30 19873 C 1867.79 0.511269 -2.25066 0
M  V30 19874 C 1868.76 1.09446 -1.24944 0
M  V30 19875 O 1869.94 1.13082 -1.53679 0
M  V30 19876 C 1867.08 1.65563 -3.02792 0
M  V30 19877 C 1866.2 1.09962 -4.17771 0
M  V30 19878 C 1865.33 2.21139 -4.82981 0
M  V30 19879 C 1864.37 1.62897 -5.90026 0
M  V30 19880 N 1863.51 2.67822 -6.49011 0
M  V30 19881 H 1868.35 -0.103166 -2.97821 0
M  V30 19882 H 1865.88 -0.0626846 -1.46966 0
M  V30 19883 H 1867.84 2.32936 -3.46117 0
M  V30 19884 H 1866.47 2.24103 -2.32331 0
M  V30 19885 H 1865.52 0.316786 -3.79079 0
M  V30 19886 H 1866.84 0.633622 -4.94759 0
M  V30 19887 H 1865.99 2.96375 -5.29383 0
M  V30 19888 H 1864.73 2.71083 -4.0542 0
M  V30 19889 H 1863.73 0.861672 -5.43006 0
M  V30 19890 H 1864.96 1.13803 -6.69497 0
M  V30 19891 H 1862.9 3.17018 -5.74313 0
M  V30 19892 H 1862.82 2.25848 -7.21477 0
M  V30 19893 H 1864.09 3.42822 -7.00066 0
M  V30 19894 N 1868.32 1.57428 -0.0735454 0
M  V30 19895 C 1869.57 1.93174 0.593996 0
M  V30 19896 C 1869.89 0.954462 1.70044 0
M  V30 19897 O 1869.16 0.00289765 1.959 0
M  V30 19898 H 1867.74 0.713123 0.222407 0
M  V30 19899 H 1870.4 1.94454 -0.131813 0
M  V30 19900 H 1869.5 2.95025 1.01818 0
M  V30 19901 N 1869.8 -0.200022 1.56326 0
M  V30 19902 C 1871.05 -0.919331 1.7953 0
M  V30 19903 C 1871.36 -1.84628 0.645908 0
M  V30 19904 O 1872.56 -2.60584 0.762132 0
M  V30 19905 C 1871.02 -1.68508 3.18014 0
M  V30 19906 C 1870.63 -0.803202 4.40741 0
M  V30 19907 C 1872.37 -2.39432 3.50532 0
M  V30 19908 C 1870.28 -1.56753 5.70248 0
M  V30 19909 H 1869.21 -0.347018 0.669399 0
M  V30 19910 H 1871.86 -0.172713 1.82685 0
M  V30 19911 H 1870.24 -2.4754 3.09095 0
M  V30 19912 H 1871.42 -0.0518889 4.60771 0
M  V30 19913 H 1869.73 -0.205039 4.15895 0
M  V30 19914 H 1872.33 -2.97158 4.44524 0
M  V30 19915 H 1872.67 -3.13378 2.74043 0
M  V30 19916 H 1873.2 -1.6737 3.60877 0
M  V30 19917 H 1869.94 -0.870942 6.49688 0
M  V30 19918 H 1869.46 -2.29291 5.54243 0
M  V30 19919 H 1871.14 -2.12262 6.11191 0
M  V30 19920 N 1871.27 -1.50505 -0.467553 0
M  V30 19921 C 1872.5 -1.65193 -1.24076 0
M  V30 19922 C 1872.91 -0.336102 -1.86191 0
M  V30 19923 O 1872.26 0.692299 -1.70156 0
M  V30 19924 C 1872.32 -2.68798 -2.38721 0
M  V30 19925 C 1871.98 -4.12256 -1.97216 0
M  V30 19926 C 1872.98 -4.98012 -1.49267 0
M  V30 19927 C 1870.66 -4.58192 -2.05829 0
M  V30 19928 C 1872.66 -6.27753 -1.10477 0
M  V30 19929 C 1870.34 -5.87938 -1.66651 0
M  V30 19930 C 1871.34 -6.72544 -1.19053 0
M  V30 19931 O 1871.03 -7.99867 -0.804197 0
M  V30 19932 H 1870.76 -0.55823 -0.381254 0
M  V30 19933 H 1873.32 -1.97502 -0.564089 0
M  V30 19934 H 1871.55 -2.31739 -3.09571 0
M  V30 19935 H 1873.24 -2.7267 -3.00675 0
M  V30 19936 H 1874 -4.63737 -1.42031 0
M  V30 19937 H 1869.88 -3.92482 -2.41825 0
M  V30 19938 H 1873.42 -6.93743 -0.732554 0
M  V30 19939 H 1869.32 -6.21733 -1.73546 0
M  V30 19940 H 1870.09 -8.13168 -0.932733 0
M  V30 19941 N 1872.75 0.720973 -1.40142 0
M  V30 19942 C 1874 1.48078 -1.38128 0
M  V30 19943 C 1874.33 1.94491 0.0181891 0
M  V30 19944 O 1873.58 1.68119 1.00172 0
M  V30 19945 C 1873.88 2.72513 -2.31239 0
M  V30 19946 C 1873.55 2.44893 -3.78601 0
M  V30 19947 C 1872.21 2.3707 -4.1875 0
M  V30 19948 C 1874.56 2.21598 -4.71745 0
M  V30 19949 C 1871.89 2.04013 -5.50087 0
M  V30 19950 C 1874.24 1.90055 -6.03375 0
M  V30 19951 C 1872.91 1.8071 -6.42573 0
M  V30 19952 H 1872.18 0.541854 -0.505446 0
M  V30 19953 H 1874.82 0.826311 -1.72755 0
M  V30 19954 H 1873.13 3.4277 -1.89778 0
M  V30 19955 H 1874.82 3.30586 -2.26967 0
M  V30 19956 H 1871.41 2.51866 -3.46788 0
M  V30 19957 H 1875.6 2.26601 -4.41549 0
M  V30 19958 H 1870.85 1.95311 -5.79365 0
M  V30 19959 H 1875.03 1.71042 -6.75069 0
M  V30 19960 H 1872.66 1.54862 -7.44259 0
M  V30 19961 N 1874.23 1.25549 0.952634 0
M  V30 19962 C 1875.46 1.13262 1.73743 0
M  V30 19963 C 1875.88 -0.309507 1.85536 0
M  V30 19964 O 1875.24 -1.22422 1.33726 0
M  V30 19965 C 1875.29 1.79395 3.12809 0
M  V30 19966 O 1874.39 1.07496 3.98144 0
M  V30 19967 H 1873.73 0.395314 0.5335 0
M  V30 19968 H 1876.26 1.66151 1.19394 0
M  V30 19969 H 1876.27 1.85761 3.63259 0
M  V30 19970 H 1874.95 2.84316 3.03542 0
M  V30 19971 H 1873.52 1.09025 3.56606 0
M  V30 19972 N 1875.71 -1.15554 1.07168 0
M  V30 19973 C 1876.64 -2.19201 0.634504 0
M  V30 19974 C 1877.62 -1.58848 -0.347283 0
M  V30 19975 O 1878.8 -1.86779 -0.25415 0
M  V30 19976 C 1875.93 -3.38631 -0.0685456 0
M  V30 19977 C 1874.98 -4.17503 0.87139 0
M  V30 19978 S 1875.81 -4.8013 2.37139 0
M  V30 19979 C 1876.97 -6.02929 1.68009 0
M  V30 19980 H 1877.2 -2.55946 1.51259 0
M  V30 19981 H 1874.73 -1.26486 0.88547 0
M  V30 19982 H 1876.69 -4.07824 -0.467933 0
M  V30 19983 H 1875.35 -3.00234 -0.922944 0
M  V30 19984 H 1874.54 -5.02943 0.326166 0
M  V30 19985 H 1874.15 -3.53849 1.21107 0
M  V30 19986 H 1876.44 -6.70217 0.990739 0
M  V30 19987 H 1877.38 -6.62017 2.51274 0
M  V30 19988 H 1877.79 -5.52477 1.15887 0
M  V30 19989 N 1877.19 -0.855519 -1.32358 0
M  V30 19990 C 1878.43 -0.460002 -1.97514 0
M  V30 19991 C 1878.77 0.982052 -1.67539 0
M  V30 19992 O 1878.04 1.68925 -0.964091 0
M  V30 19993 C 1878.32 -0.70064 -3.53218 0
M  V30 19994 C 1878.18 -2.19118 -3.9282 0
M  V30 19995 C 1879.5 -0.157597 -4.39818 0
M  V30 19996 H 1876.62 -0.168606 -0.717455 0
M  V30 19997 H 1879.26 -1.0741 -1.56726 0
M  V30 19998 H 1877.41 -0.177937 -3.88092 0
M  V30 19999 H 1879.08 -2.78002 -3.6812 0
M  V30 20000 H 1877.32 -2.66934 -3.41948 0
M  V30 20001 H 1877.99 -2.31024 -5.0133 0
M  V30 20002 H 1880.47 -0.604597 -4.11684 0
M  V30 20003 H 1879.35 -0.355532 -5.47747 0
M  V30 20004 H 1879.61 0.939679 -4.31998 0
M  V30 20005 N 1878.67 1.45167 -0.61354 0
M  V30 20006 C 1879.89 2.07076 -0.115821 0
M  V30 20007 C 1880.32 1.45415 1.19315 0
M  V30 20008 O 1879.67 0.549046 1.72786 0
M  V30 20009 C 1879.72 3.606 0.00406239 0
M  V30 20010 O 1878.83 3.98737 1.05273 0
M  V30 20011 H 1878.17 0.659547 -0.0767679 0
M  V30 20012 H 1880.7 1.86325 -0.845236 0
M  V30 20013 H 1880.71 4.07508 0.200356 0
M  V30 20014 H 1879.38 4.04865 -0.951695 0
M  V30 20015 H 1877.96 3.6349 0.832424 0
M  V30 20016 N 1880.14 0.353044 1.53595 0
M  V30 20017 C 1881.39 -0.240904 2.01364 0
M  V30 20018 C 1881.72 -1.49438 1.24023 0
M  V30 20019 O 1881 -1.91672 0.330451 0
M  V30 20020 C 1881.28 -0.545497 3.55944 0
M  V30 20021 C 1881.13 0.720742 4.43988 0
M  V30 20022 C 1882.45 -1.35124 4.18843 0
M  V30 20023 H 1879.57 -0.0860838 0.731955 0
M  V30 20024 H 1882.21 0.475459 1.83955 0
M  V30 20025 H 1880.36 -1.15578 3.7091 0
M  V30 20026 H 1882.04 1.35852 4.40842 0
M  V30 20027 H 1880.28 1.34369 4.12465 0
M  V30 20028 H 1880.95 0.462749 5.50057 0
M  V30 20029 H 1883.43 -0.835104 4.07634 0
M  V30 20030 H 1882.3 -1.53311 5.27055 0
M  V30 20031 H 1882.56 -2.35612 3.74085 0
M  V30 20032 N 1881.62 -1.57387 0.0818932 0
M  V30 20033 C 1882.55 -2.10294 -0.911539 0
M  V30 20034 C 1883.57 -1.03726 -1.25478 0
M  V30 20035 O 1884.76 -1.31212 -1.2102 0
M  V30 20036 C 1881.86 -2.55676 -2.22448 0
M  V30 20037 C 1881.03 -3.8593 -2.05857 0
M  V30 20038 C 1880.09 -4.17297 -3.20545 0
M  V30 20039 O 1879.11 -4.86734 -2.9509 0
M  V30 20040 N 1880.32 -3.71647 -4.45936 0
M  V30 20041 H 1883.08 -2.96153 -0.459757 0
M  V30 20042 H 1880.64 -1.61568 -0.103568 0
M  V30 20043 H 1882.63 -2.73715 -2.98098 0
M  V30 20044 H 1881.2 -1.749 -2.59092 0
M  V30 20045 H 1880.42 -3.7717 -1.14615 0
M  V30 20046 H 1881.71 -4.71169 -1.92034 0
M  V30 20047 H 1881.11 -3.15571 -4.69501 0
M  V30 20048 H 1879.67 -3.94866 -5.18579 0
M  V30 20049 N 1883.1 0.191729 -1.56429 0
M  V30 20050 C 1884.06 1.22128 -1.93952 0
M  V30 20051 C 1885.06 1.38262 -0.820984 0
M  V30 20052 O 1886.25 1.36017 -1.08835 0
M  V30 20053 C 1883.38 2.59005 -2.21651 0
M  V30 20054 H 1884.58 0.900458 -2.86063 0
M  V30 20055 H 1882.13 0.433382 -1.50172 0
M  V30 20056 H 1882.87 2.96136 -1.32189 0
M  V30 20057 H 1882.65 2.48665 -3.03164 0
M  V30 20058 H 1884.14 3.33242 -2.51674 0
M  V30 20059 N 1884.58 1.50751 0.459565 0
M  V30 20060 C 1885.83 1.61995 1.20839 0
M  V30 20061 C 1886.15 0.327782 1.92225 0
M  V30 20062 O 1885.42 -0.655341 1.84613 0
M  V30 20063 H 1884 0.596972 0.449036 0
M  V30 20064 H 1886.66 1.87582 0.52906 0
M  V30 20065 H 1885.75 2.43678 1.95006 0
M  V30 20066 N 1886.06 -0.713531 1.40522 0
M  V30 20067 C 1887.28 -1.5026 1.4223 0
M  V30 20068 C 1887.7 -1.88787 0.0225637 0
M  V30 20069 O 1887.06 -1.55581 -0.95398 0
M  V30 20070 C 1887.11 -2.77663 2.31486 0
M  V30 20071 O 1886.83 -2.40765 3.66011 0
M  V30 20072 C 1888.33 -3.71543 2.41807 0
M  V30 20073 H 1885.55 -0.463648 0.485048 0
M  V30 20074 H 1888.09 -0.88 1.84598 0
M  V30 20075 H 1886.25 -3.36203 1.92475 0
M  V30 20076 H 1886.66 -3.22757 4.13434 0
M  V30 20077 H 1888.14 -4.57771 3.08464 0
M  V30 20078 H 1888.61 -4.14792 1.44375 0
M  V30 20079 H 1889.22 -3.18914 2.81379 0
M  V30 20080 N 1887.53 -1.26053 -0.945962 0
M  V30 20081 C 1888.48 -1.07194 -2.04397 0
M  V30 20082 C 1889.45 0.0215796 -1.66086 0
M  V30 20083 O 1890.64 -0.137272 -1.90306 0
M  V30 20084 C 1887.78 -0.705915 -3.37803 0
M  V30 20085 C 1886.89 -1.87519 -3.89179 0
M  V30 20086 C 1886.02 -1.45272 -5.1095 0
M  V30 20087 C 1885.06 -2.59059 -5.54576 0
M  V30 20088 N 1884.2 -2.17527 -6.67552 0
M  V30 20089 H 1889.04 -2.01159 -2.19861 0
M  V30 20090 H 1886.58 -1.00162 -1.07731 0
M  V30 20091 H 1888.53 -0.474611 -4.14492 0
M  V30 20092 H 1887.16 0.196761 -3.222 0
M  V30 20093 H 1886.22 -2.21956 -3.08933 0
M  V30 20094 H 1887.53 -2.7294 -4.17499 0
M  V30 20095 H 1886.68 -1.18158 -5.95083 0
M  V30 20096 H 1885.42 -0.569345 -4.84365 0
M  V30 20097 H 1884.43 -2.86908 -4.69003 0
M  V30 20098 H 1885.65 -3.47989 -5.83164 0
M  V30 20099 H 1883.6 -1.31618 -6.42661 0
M  V30 20100 H 1883.51 -2.96493 -6.95433 0
M  V30 20101 H 1884.78 -1.93612 -7.55073 0
M  V30 20102 N 1889.01 1.14984 -1.07779 0
M  V30 20103 C 1890.43 1.3786 -0.804164 0
M  V30 20104 C 1890.63 1.92682 0.589572 0
M  V30 20105 O 1889.68 2.13537 1.34752 0
M  V30 20106 C 1891 2.34559 -1.88156 0
M  V30 20107 C 1892.54 2.48212 -1.90683 0
M  V30 20108 C 1893.02 3.48205 -2.97519 0
M  V30 20109 N 1894.51 3.55743 -2.96649 0
M  V30 20110 C 1895.25 4.32946 -3.75959 0
M  V30 20111 N 1894.74 5.13446 -4.65129 0
M  V30 20112 N 1896.53 4.28079 -3.64287 0
M  V30 20113 H 1888.69 0.777434 -1.97661 0
M  V30 20114 H 1890.95 0.404419 -0.857409 0
M  V30 20115 H 1890.65 2.014 -2.88324 0
M  V30 20116 H 1890.53 3.34389 -1.74539 0
M  V30 20117 H 1892.92 2.80665 -0.911642 0
M  V30 20118 H 1893 1.48365 -2.08378 0
M  V30 20119 H 1892.64 3.16485 -3.9724 0
M  V30 20120 H 1892.57 4.47817 -2.77069 0
M  V30 20121 H 1895.06 2.98291 -2.32014 0
M  V30 20122 H 1895.37 5.69612 -5.22267 0
M  V30 20123 H 1893.72 5.12737 -4.69176 0
M  V30 20124 H 1896.91 3.64257 -2.93997 0
M  V30 20125 H 1897.08 4.87996 -4.26337 0
M  V30 20126 N 1890.49 0.862526 1.31902 0
M  V30 20127 C 1891.42 0.270103 2.27603 0
M  V30 20128 C 1892.43 -0.562639 1.52768 0
M  V30 20129 O 1893.62 -0.385845 1.7428 0
M  V30 20130 C 1890.72 -0.636314 3.32873 0
M  V30 20131 C 1889.9 0.162327 4.37099 0
M  V30 20132 C 1888.96 -0.67107 5.21903 0
M  V30 20133 O 1887.98 -0.101765 5.69109 0
M  V30 20134 N 1889.18 -1.98441 5.45529 0
M  V30 20135 H 1891.95 1.09248 2.79079 0
M  V30 20136 H 1889.51 0.723275 1.44846 0
M  V30 20137 H 1891.5 -1.19937 3.86519 0
M  V30 20138 H 1890.07 -1.35936 2.81496 0
M  V30 20139 H 1889.29 0.906824 3.83628 0
M  V30 20140 H 1890.58 0.710602 5.03813 0
M  V30 20141 H 1889.98 -2.47017 5.0892 0
M  V30 20142 H 1888.53 -2.49542 6.0214 0
M  V30 20143 O 1892.01 -1.42427 0.761367 0
M  V30 20144 H 1892.7 -1.91008 0.321818 0
M  V30 END ATOM
M  V30 BEGIN BOND
M  V30 END BOND
M  V30 END CTAB
M  END
$$$$
