drugbank_target|P55211 Caspase-9 (DB00282)
 OpenBabel12092121243D

  0  0  0     0  0            999 V3000
M  V30 BEGIN CTAB
M  V30 COUNTS 6478 6544 0 0 0
M  V30 BEGIN ATOM
M  V30 1 H -0.908 1.98254 -0.117106 0
M  V30 2 N 0 1.576 0 0
M  V30 3 C 0.933 2.03868 1.02534 0
M  V30 4 C 1.911 0.928543 1.3348 0
M  V30 5 O 3.095 1.19667 1.45644 0
M  V30 6 C 0.222 2.43627 2.35294 0
M  V30 7 C -0.732 3.65373 2.2001 0
M  V30 8 S 0.101 5.13292 1.52614 0
M  V30 9 C 1.257 5.56322 2.86805 0
M  V30 10 H 1.49 2.90518 0.631377 0
M  V30 11 H -0.977 1.52953 0.210867 0
M  V30 12 H 0.981 2.67203 3.11629 0
M  V30 13 H -0.358 1.57376 2.7183 0
M  V30 14 H -1.165 3.90944 3.18086 0
M  V30 15 H -1.563 3.418 1.51819 0
M  V30 16 H 0.729 5.58782 3.83104 0
M  V30 17 H 1.672 6.56266 2.65933 0
M  V30 18 H 2.08 4.83886 2.90714 0
M  V30 19 N 1.4781 -0.272755 1.55222 0
M  V30 20 C 2.7551 -1.02562 1.66555 0
M  V30 21 C 3.1351 -2.04282 0.532189 0
M  V30 22 O 2.4831 -2.23662 -0.467717 0
M  V30 23 C 2.6931 -1.6822 3.05782 0
M  V30 24 C 4.0411 -2.19373 3.63539 0
M  V30 25 O 5.0651 -1.78206 3.08417 0
M  V30 26 O 3.9241 -2.94883 4.60115 0
M  V30 27 H 1.0181 -0.475755 0.676451 0
M  V30 28 H 3.5641 -0.268593 1.67561 0
M  V30 29 H 2.3361 -0.945112 3.79715 0
M  V30 30 H 1.9591 -2.50609 3.08676 0
M  V30 31 N 2.9562 -1.48159 -0.537278 0
M  V30 32 C 3.8662 -1.64807 -1.6696 0
M  V30 33 C 4.8822 -0.530651 -1.65711 0
M  V30 34 O 6.0582 -0.800784 -1.84796 0
M  V30 35 C 3.1232 -1.67708 -3.03438 0
M  V30 36 C 2.1842 -2.91025 -3.156 0
M  V30 37 C 1.4172 -2.93778 -4.45567 0
M  V30 38 O 1.6402 -2.05153 -5.3223 0
M  V30 39 O 0.5742 -3.85868 -4.61941 0
M  V30 40 H 4.4002 -2.6066 -1.55853 0
M  V30 41 H 1.9852 -1.31475 -0.709549 0
M  V30 42 H 3.8672 -1.7218 -3.84619 0
M  V30 43 H 2.5422 -0.750278 -3.14885 0
M  V30 44 H 1.4492 -2.92089 -2.33741 0
M  V30 45 H 2.7822 -3.83065 -3.09066 0
M  V30 46 N 4.4343 0.785586 -1.36625 0
M  V30 47 C 5.3973 1.87999 -1.31107 0
M  V30 48 C 6.3973 1.59316 -0.217959 0
M  V30 49 O 7.5873 1.67656 -0.472977 0
M  V30 50 C 4.7193 3.24861 -1.03334 0
M  V30 51 H 5.9123 1.94307 -2.2844 0
M  V30 52 H 3.4653 0.983813 -1.21453 0
M  V30 53 H 4.2003 3.24235 -0.0647432 0
M  V30 54 H 3.9853 3.4707 -1.82441 0
M  V30 55 H 5.4753 4.04929 -1.02088 0
M  V30 56 N 5.9124 1.20967 1.01018 0
M  V30 57 C 7.1894 0.93264 1.71934 0
M  V30 58 C 7.5694 -0.55692 2.03621 0
M  V30 59 O 6.9174 -1.52035 1.7058 0
M  V30 60 C 7.1274 1.81233 2.98254 0
M  V30 61 C 8.4754 2.05804 3.71389 0
M  V30 62 O 9.4994 1.78539 3.08225 0
M  V30 63 O 8.3584 2.51888 4.84989 0
M  V30 64 H 5.4524 0.349272 0.749625 0
M  V30 65 H 7.9984 1.31871 1.06808 0
M  V30 66 H 6.7704 2.82067 2.71208 0
M  V30 67 H 6.3934 1.42674 3.7112 0
M  V30 68 N 7.3905 -1.2043 1.01659 0
M  V30 69 C 8.8065 -1.41852 0.731442 0
M  V30 70 C 9.0065 -1.89358 -0.688898 0
M  V30 71 O 8.0625 -2.06247 -1.45666 0
M  V30 72 C 9.3755 -2.44019 1.75714 0
M  V30 73 C 10.9235 -2.57785 1.77527 0
M  V30 74 C 11.3985 -3.63194 2.79023 0
M  V30 75 N 12.8895 -3.70678 2.77763 0
M  V30 76 C 13.6245 -4.51897 3.52954 0
M  V30 77 N 13.1205 -5.36921 4.37821 0
M  V30 78 N 14.9135 -4.4643 3.41551 0
M  V30 79 H 7.0645 -0.879093 1.93354 0
M  V30 80 H 9.3275 -0.448425 0.835236 0
M  V30 81 H 9.0335 -2.1611 2.77469 0
M  V30 82 H 8.9075 -3.43007 1.56927 0
M  V30 83 H 11.2945 -2.85023 0.764569 0
M  V30 84 H 11.3755 -1.58992 2.00387 0
M  V30 85 H 11.0195 -3.36699 3.80258 0
M  V30 86 H 10.9495 -4.61609 2.53425 0
M  V30 87 H 13.4405 -3.09944 2.16201 0
M  V30 88 H 13.7535 -5.95981 4.91962 0
M  V30 89 H 12.0985 -5.36424 4.41899 0
M  V30 90 H 15.2895 -3.79042 2.74672 0
M  V30 91 H 15.4625 -5.09491 4.00404 0
M  V30 92 N 8.8686 -0.792821 -1.36206 0
M  V30 93 C 10.2846 -0.474903 -1.52371 0
M  V30 94 C 10.4846 1.00622 -1.74578 0
M  V30 95 O 9.5406 1.79162 -1.77924 0
M  V30 96 C 10.8536 -1.3083 -2.70747 0
M  V30 97 C 12.4016 -1.30234 -2.84619 0
M  V30 98 C 12.8766 -2.11956 -4.06004 0
M  V30 99 N 14.3676 -2.09419 -4.13156 0
M  V30 100 C 15.1026 -2.69419 -5.06163 0
M  V30 101 N 14.5986 -3.3829 -6.04592 0
M  V30 102 N 16.3916 -2.59134 -4.98804 0
M  V30 103 H 8.5426 -1.75222 -1.20046 0
M  V30 104 H 10.8056 -0.745024 -0.586211 0
M  V30 105 H 10.5116 -2.35881 -2.6087 0
M  V30 106 H 10.3856 -0.95196 -3.6499 0
M  V30 107 H 12.7726 -0.259748 -2.93955 0
M  V30 108 H 12.8536 -1.69847 -1.91274 0
M  V30 109 H 12.4976 -3.16248 -3.97429 0
M  V30 110 H 12.4276 -1.69711 -4.98503 0
M  V30 111 H 14.9186 -1.59297 -3.42685 0
M  V30 112 H 15.2316 -3.81394 -6.7213 0
M  V30 113 H 13.5766 -3.42393 -6.04807 0
M  V30 114 H 16.7676 -2.04927 -4.20859 0
M  V30 115 H 16.9406 -3.06185 -5.711 0
M  V30 116 N 10.3467 1.47872 -0.545128 0
M  V30 117 C 11.2767 2.32661 0.197793 0
M  V30 118 C 12.2577 1.43041 0.920504 0
M  V30 119 O 13.4427 1.71912 0.90333 0
M  V30 120 C 10.5727 3.24569 1.23582 0
M  V30 121 C 9.5267 4.23333 0.630323 0
M  V30 122 C 8.8527 5.0448 1.77211 0
M  V30 123 C 10.1527 5.20704 -0.407974 0
M  V30 124 H 11.8467 2.95024 -0.510045 0
M  V30 125 H 9.3927 1.4187 -0.246731 0
M  V30 126 H 11.3457 3.8272 1.76362 0
M  V30 127 H 10.0697 2.60236 1.97344 0
M  V30 128 H 8.7287 3.6639 0.123922 0
M  V30 129 H 8.3767 4.36561 2.49847 0
M  V30 130 H 8.0767 5.71339 1.37281 0
M  V30 131 H 9.6007 5.65487 2.3034 0
M  V30 132 H 11.0147 5.7329 0.033305 0
M  V30 133 H 9.4117 5.95699 -0.725486 0
M  V30 134 H 10.4817 4.66917 -1.30828 0
M  V30 135 N 11.8248 0.280983 1.55075 0
M  V30 136 C 12.7548 -0.597469 2.25727 0
M  V30 137 C 13.7358 -1.15417 1.24952 0
M  V30 138 O 14.9208 -1.18722 1.53684 0
M  V30 139 C 12.0508 -1.7789 2.98283 0
M  V30 140 C 11.0048 -1.35347 4.06036 0
M  V30 141 C 10.3308 -2.61846 4.66198 0
M  V30 142 C 11.6308 -0.499354 5.19907 0
M  V30 143 H 13.3248 -0.00824265 2.99399 0
M  V30 144 H 10.8708 -0.0025244 1.44 0
M  V30 145 H 12.8238 -2.39937 3.46422 0
M  V30 146 H 11.5478 -2.39405 2.22155 0
M  V30 147 H 10.2068 -0.756156 3.58717 0
M  V30 148 H 9.8548 -3.21632 3.86732 0
M  V30 149 H 9.5548 -2.3409 5.38958 0
M  V30 150 H 11.0788 -3.24732 5.1709 0
M  V30 151 H 12.4928 -1.02498 5.64063 0
M  V30 152 H 10.8898 -0.316424 5.99265 0
M  V30 153 H 11.9598 0.480459 4.82514 0
M  V30 154 N 13.3029 -1.57598 0.00835791 0
M  V30 155 C 14.7189 -1.55764 -0.347822 0
M  V30 156 C 14.9189 -1.01186 -1.74252 0
M  V30 157 O 13.9749 -0.649371 -2.44007 0
M  V30 158 C 15.2879 -2.99927 -0.215407 0
M  V30 159 C 16.8359 -3.11656 -0.289725 0
M  V30 160 C 17.3109 -4.57621 -0.18634 0
M  V30 161 N 18.8019 -4.62557 -0.243978 0
M  V30 162 C 19.5369 -5.73094 -0.18745 0
M  V30 163 N 19.0329 -6.92753 -0.0810331 0
M  V30 164 N 20.8259 -5.61588 -0.239925 0
M  V30 165 H 12.9769 -1.91411 0.92062 0
M  V30 166 H 15.2399 -0.879562 0.353659 0
M  V30 167 H 14.9459 -3.43729 0.744512 0
M  V30 168 H 14.8199 -3.63865 -0.994097 0
M  V30 169 H 17.2069 -2.67779 -1.24009 0
M  V30 170 H 17.2879 -2.5048 0.51898 0
M  V30 171 H 16.9319 -5.02174 0.760519 0
M  V30 172 H 16.8619 -5.16752 -1.01364 0
M  V30 173 H 19.3529 -3.76481 -0.327217 0
M  V30 174 H 19.6659 -7.72787 -0.0440241 0
M  V30 175 H 18.0109 -6.94984 -0.0465419 0
M  V30 176 H 21.2019 -4.66996 -0.321317 0
M  V30 177 H 21.3749 -6.47714 -0.192407 0
M  V30 178 N 14.781 0.264519 -1.55364 0
M  V30 179 C 16.197 0.61215 -1.47394 0
M  V30 180 C 16.397 1.89134 -0.695018 0
M  V30 181 O 15.453 2.51563 -0.217275 0
M  V30 182 C 16.766 0.731235 -2.91674 0
M  V30 183 C 18.314 0.82473 -3.01939 0
M  V30 184 C 18.789 0.975522 -4.4749 0
M  V30 185 N 20.28 1.04083 -4.51354 0
M  V30 186 C 21.015 1.17646 -5.61201 0
M  V30 187 N 20.511 1.27874 -6.80896 0
M  V30 188 N 22.304 1.20823 -5.48961 0
M  V30 189 H 14.455 -0.575456 -2.04456 0
M  V30 190 H 16.718 -0.196099 -0.927496 0
M  V30 191 H 16.424 -0.138392 -3.51428 0
M  V30 192 H 16.298 1.60883 -3.41169 0
M  V30 193 H 18.685 1.68482 -2.42276 0
M  V30 194 H 18.766 -0.0776479 -2.55682 0
M  V30 195 H 18.41 0.120058 -5.07758 0
M  V30 196 H 18.34 1.89268 -4.91412 0
M  V30 197 H 20.831 0.973846 -3.65136 0
M  V30 198 H 21.144 1.38081 -7.60364 0
M  V30 199 H 19.489 1.24863 -6.83692 0
M  V30 200 H 22.68 1.12469 -4.54388 0
M  V30 201 H 22.853 1.31049 -6.3461 0
M  V30 202 N 16.2591 1.48442 0.529413 0
M  V30 203 C 17.4991 1.58086 1.29569 0
M  V30 204 C 17.8631 0.249302 1.90375 0
M  V30 205 O 19.0641 0.220738 2.67892 0
M  V30 206 C 17.3351 2.68793 2.35552 0
M  V30 207 S 18.8941 2.98207 3.21898 0
M  V30 208 H 15.7121 0.557922 0.440732 0
M  V30 209 H 18.3141 1.85966 0.603059 0
M  V30 210 H 17.0181 3.64102 1.89363 0
M  V30 211 H 16.5491 2.42817 3.09522 0
M  V30 212 H 18.5641 2.37548 4.35644 0
M  V30 213 N 17.7372 -0.778329 1.37039 0
M  V30 214 C 19.1532 -1.07796 1.17695 0
M  V30 215 C 19.3532 -2.01498 0.00860115 0
M  V30 216 O 18.4092 -2.43901 -0.653352 0
M  V30 217 C 19.7222 -1.68178 2.49272 0
M  V30 218 C 21.2702 -1.80467 2.55735 0
M  V30 219 C 21.7452 -2.44263 3.87427 0
M  V30 220 N 23.2362 -2.51721 3.88833 0
M  V30 221 C 23.9712 -3.01919 4.87476 0
M  V30 222 N 23.4672 -3.5234 5.96513 0
M  V30 223 N 25.2602 -3.00733 4.74885 0
M  V30 224 H 17.4112 -0.156032 2.11826 0
M  V30 225 H 19.6742 -0.131844 0.938787 0
M  V30 226 H 19.3802 -1.06796 3.35093 0
M  V30 227 H 19.2542 -2.67554 2.65885 0
M  V30 228 H 21.6412 -2.40984 1.70325 0
M  V30 229 H 21.7222 -0.798656 2.43013 0
M  V30 230 H 21.3662 -1.84388 4.73248 0
M  V30 231 H 21.2962 -3.45458 3.9745 0
M  V30 232 H 23.7872 -2.1603 3.10063 0
M  V30 233 H 24.1002 -3.89027 6.67741 0
M  V30 234 H 22.4452 -3.50462 6.00168 0
M  V30 235 H 25.6362 -2.60638 3.88826 0
M  V30 236 H 25.8092 -3.39545 5.51918 0
M  V30 237 N 19.2153 -1.21501 -1.00376 0
M  V30 238 C 20.1453 -0.999478 -2.11028 0
M  V30 239 C 21.1263 0.0759671 -1.6993 0
M  V30 240 O 22.3113 -0.0841106 -1.94018 0
M  V30 241 C 19.4413 -0.564709 -3.42678 0
M  V30 242 C 18.3953 -1.58486 -3.97576 0
M  V30 243 C 17.7213 -1.00628 -5.25146 0
M  V30 244 C 19.0213 -2.97204 -4.29496 0
M  V30 245 H 20.7153 -1.92495 -2.29317 0
M  V30 246 H 18.2613 -0.92693 -1.102 0
M  V30 247 H 20.2143 -0.401091 -4.19487 0
M  V30 248 H 18.9383 0.396411 -3.24185 0
M  V30 249 H 17.5973 -1.73606 -3.22888 0
M  V30 250 H 17.2453 -0.0368439 -5.02987 0
M  V30 251 H 16.9453 -1.68771 -5.62841 0
M  V30 252 H 18.4693 -0.854015 -6.04598 0
M  V30 253 H 19.8833 -2.8552 -4.97143 0
M  V30 254 H 18.2803 -3.62372 -4.78338 0
M  V30 255 H 19.3503 -3.47956 -3.3772 0
M  V30 256 N 20.6934 1.19889 -1.02296 0
M  V30 257 C 22.1094 1.41462 -0.738954 0
M  V30 258 C 22.3094 1.89721 0.678846 0
M  V30 259 O 21.3654 2.07016 1.4457 0
M  V30 260 C 22.6784 2.43083 -1.77005 0
M  V30 261 C 24.2264 2.5684 -1.78892 0
M  V30 262 C 24.7014 3.61709 -2.80945 0
M  V30 263 N 26.1924 3.69199 -2.79725 0
M  V30 264 C 26.9274 4.50019 -3.55345 0
M  V30 265 N 26.4234 5.34592 -4.40662 0
M  V30 266 N 28.2164 4.44612 -3.43914 0
M  V30 267 H 20.3674 0.868827 -1.93817 0
M  V30 268 H 22.6304 0.44399 -0.837602 0
M  V30 269 H 22.3364 2.14636 -2.78612 0
M  V30 270 H 22.2104 3.4217 -1.58744 0
M  V30 271 H 24.5974 2.84614 -0.779674 0
M  V30 272 H 24.6784 1.57927 -2.01228 0
M  V30 273 H 24.3224 3.34678 -3.82038 0
M  V30 274 H 24.2524 4.60259 -2.5587 0
M  V30 275 H 26.7434 3.08794 -2.17842 0
M  V30 276 H 27.0564 5.93363 -4.95116 0
M  V30 277 H 25.4014 5.34073 -4.44737 0
M  V30 278 H 28.5924 3.7758 -2.76679 0
M  V30 279 H 28.7654 5.0736 -4.031 0
M  V30 280 N 22.1715 0.800033 1.35784 0
M  V30 281 C 23.1015 0.220184 2.3246 0
M  V30 282 C 24.0825 -0.65073 1.57161 0
M  V30 283 O 25.2675 -0.582359 1.85263 0
M  V30 284 C 22.3975 -0.637353 3.41402 0
M  V30 285 C 21.3515 0.134531 4.27789 0
M  V30 286 C 20.6775 -0.844285 5.27992 0
M  V30 287 C 21.9775 1.32979 5.05088 0
M  V30 288 H 23.6715 1.02787 2.81203 0
M  V30 289 H 21.2175 0.495717 1.35199 0
M  V30 290 H 23.1705 -1.05302 4.08031 0
M  V30 291 H 21.8945 -1.47785 2.91251 0
M  V30 292 H 20.5535 0.531296 3.6273 0
M  V30 293 H 20.2015 -1.68011 4.74111 0
M  V30 294 H 19.9015 -0.332184 5.8666 0
M  V30 295 H 21.4255 -1.2583 5.97494 0
M  V30 296 H 22.8395 0.98934 5.64699 0
M  V30 297 H 21.2365 1.77593 5.7322 0
M  V30 298 H 22.3065 2.11978 4.36111 0
M  V30 299 N 23.6496 -1.47581 0.552962 0
M  V30 300 C 24.8956 -2.02782 0.0273648 0
M  V30 301 C 25.2286 -1.42687 -1.31734 0
M  V30 302 O 24.5036 -0.580897 -1.85623 0
M  V30 303 C 24.7866 -3.60031 -0.0702371 0
M  V30 304 C 24.6396 -4.30566 1.30126 0
M  V30 305 C 25.9586 -4.33028 -0.785771 0
M  V30 306 H 23.0776 -0.736912 0.0114185 0
M  V30 307 H 25.7196 -1.76056 0.714432 0
M  V30 308 H 23.8696 -3.82932 -0.655382 0
M  V30 309 H 25.5416 -4.19018 1.92929 0
M  V30 310 H 23.7846 -3.91086 1.87709 0
M  V30 311 H 24.4556 -5.39114 1.18573 0
M  V30 312 H 26.9316 -4.15095 -0.288982 0
M  V30 313 H 25.8076 -5.42695 -0.823013 0
M  V30 314 H 26.0686 -4.01945 -1.841 0
M  V30 315 N 25.1277 -0.289203 -1.54924 0
M  V30 316 C 26.0377 0.601863 -2.26748 0
M  V30 317 C 27.0537 1.15834 -1.2984 0
M  V30 318 O 28.2297 1.18564 -1.62802 0
M  V30 319 C 25.2947 1.76299 -2.98529 0
M  V30 320 C 24.3557 1.24178 -4.10948 0
M  V30 321 C 23.5887 2.34757 -4.79296 0
M  V30 322 O 23.8117 3.54411 -4.46933 0
M  V30 323 O 22.7457 2.02115 -5.66951 0
M  V30 324 H 26.5717 0.0195879 -3.03694 0
M  V30 325 H 24.1567 -0.0560868 -1.49295 0
M  V30 326 H 26.0387 2.43973 -3.43592 0
M  V30 327 H 24.7137 2.33209 -2.24488 0
M  V30 328 H 23.6207 0.531104 -3.70311 0
M  V30 329 H 24.9537 0.718252 -4.86931 0
M  V30 330 N 26.6058 1.57591 -0.0167156 0
M  V30 331 C 27.5158 2.1291 0.98521 0
M  V30 332 C 28.5318 1.07834 1.36557 0
M  V30 333 O 29.7078 1.39826 1.44951 0
M  V30 334 C 26.7728 2.63512 2.25305 0
M  V30 335 C 25.8338 3.83256 1.93426 0
M  V30 336 C 25.0668 4.31435 3.14165 0
M  V30 337 O 25.2898 3.78851 4.26413 0
M  V30 338 O 24.2238 5.23416 2.97186 0
M  V30 339 H 28.0498 2.98772 0.544888 0
M  V30 340 H 25.6348 1.48012 0.203141 0
M  V30 341 H 27.5168 2.96183 2.99756 0
M  V30 342 H 26.1918 1.8074 2.68542 0
M  V30 343 H 25.0988 3.55531 1.16398 0
M  V30 344 H 26.4318 4.67153 1.55013 0
M  V30 345 N 28.0839 -0.256276 1.55502 0
M  V30 346 C 29.0139 -1.32102 1.92539 0
M  V30 347 C 29.9949 -1.50684 0.789194 0
M  V30 348 O 31.1799 -1.63449 1.04872 0
M  V30 349 C 28.3099 -2.67752 2.21192 0
M  V30 350 C 27.2639 -2.63878 3.36975 0
M  V30 351 C 26.5899 -4.03236 3.51147 0
M  V30 352 C 27.8899 -2.21682 4.72921 0
M  V30 353 H 29.5839 -1.01351 2.81724 0
M  V30 354 H 27.1299 -0.486105 1.35547 0
M  V30 355 H 29.0829 -3.42365 2.45691 0
M  V30 356 H 27.8069 -3.0012 1.28824 0
M  V30 357 H 26.4659 -1.91722 3.12471 0
M  V30 358 H 26.1139 -4.32854 2.56216 0
M  V30 359 H 25.8139 -4.01535 4.29003 0
M  V30 360 H 27.3379 -4.79563 3.77957 0
M  V30 361 H 28.7519 -2.86023 4.96854 0
M  V30 362 H 27.1489 -2.3111 5.53812 0
M  V30 363 H 28.2189 -1.16833 4.70615 0
M  V30 364 N 29.562 -1.4872 -0.521534 0
M  V30 365 C 30.494 -1.59968 -1.64143 0
M  V30 366 C 31.507 -0.483463 -1.55456 0
M  V30 367 O 32.696 -0.75467 -1.61762 0
M  V30 368 C 29.796 -1.52127 -3.02838 0
M  V30 369 C 28.969 -2.78932 -3.36921 0
M  V30 370 C 28.028 -2.64428 -4.54933 0
M  V30 371 O 27.054 -3.38331 -4.57735 0
M  V30 372 N 28.256 -1.74606 -5.53618 0
M  V30 373 H 31.021 -2.56548 -1.54929 0
M  V30 374 H 28.582 -1.45551 -0.708988 0
M  V30 375 H 30.574 -1.40106 -3.79674 0
M  V30 376 H 29.144 -0.634868 -3.06085 0
M  V30 377 H 28.364 -3.05455 -2.4918 0
M  V30 378 H 29.652 -3.63041 -3.56481 0
M  V30 379 H 29.05 -1.13782 -5.54139 0
M  V30 380 H 27.607 -1.6852 -6.29638 0
M  V30 381 N 31.0401 0.771051 -1.3745 0
M  V30 382 C 32.2861 1.5319 -1.32894 0
M  V30 383 C 32.6191 1.94008 0.0862511 0
M  V30 384 O 31.8941 1.64124 1.04373 0
M  V30 385 C 32.1771 2.79648 -2.26868 0
M  V30 386 C 32.0301 2.45079 -3.77169 0
M  V30 387 C 33.3491 3.81583 -2.19277 0
M  V30 388 H 30.4681 0.555744 -0.484064 0
M  V30 389 H 33.1101 0.884492 -1.68157 0
M  V30 390 H 31.2601 3.34891 -1.96926 0
M  V30 391 H 32.9321 1.95745 -4.1771 0
M  V30 392 H 31.1751 1.77767 -3.95704 0
M  V30 393 H 31.8461 3.35478 -4.38359 0
M  V30 394 H 34.3221 3.35835 -2.45671 0
M  V30 395 H 33.1981 4.67787 -2.87171 0
M  V30 396 H 33.4591 4.25897 -1.18592 0
M  V30 397 N 32.5182 1.22032 0.997298 0
M  V30 398 C 33.7952 0.950823 1.70935 0
M  V30 399 C 34.1752 -0.535292 2.042 0
M  V30 400 O 33.5232 -1.50217 1.72183 0
M  V30 401 C 33.7332 1.84386 2.96315 0
M  V30 402 C 35.0812 2.09732 3.69185 0
M  V30 403 O 36.1052 1.81798 3.06314 0
M  V30 404 O 34.9642 2.57018 4.82291 0
M  V30 405 H 32.0582 0.357204 0.745878 0
M  V30 406 H 34.6042 1.32997 1.05404 0
M  V30 407 H 33.3762 2.84928 2.68201 0
M  V30 408 H 32.9992 1.46602 3.69586 0
M  V30 409 N 33.9963 -1.19345 1.0293 0
M  V30 410 C 34.9283 -2.22036 0.56857 0
M  V30 411 C 35.9413 -1.58865 -0.355779 0
M  V30 412 O 37.1303 -1.77851 -0.152103 0
M  V30 413 C 34.2303 -3.38363 -0.190752 0
M  V30 414 C 33.4033 -4.31118 0.738643 0
M  V30 415 C 32.4623 -5.26194 0.0246497 0
M  V30 416 O 31.4883 -5.65461 0.651354 0
M  V30 417 N 32.6903 -5.66971 -1.24594 0
M  V30 418 H 35.4553 -2.6219 1.45177 0
M  V30 419 H 33.0163 -1.34015 0.908381 0
M  V30 420 H 35.0083 -3.98981 -0.677961 0
M  V30 421 H 33.5783 -2.96994 -0.975366 0
M  V30 422 H 32.7983 -3.68276 1.40593 0
M  V30 423 H 34.0863 -4.90001 1.37029 0
M  V30 424 H 33.4843 -5.37104 -1.77583 0
M  V30 425 H 32.0413 -6.2984 -1.67764 0
M  V30 426 N 35.4744 -0.807222 -1.35358 0
M  V30 427 C 36.4044 -0.232509 -2.3234 0
M  V30 428 C 37.3854 0.642386 -1.57504 0
M  V30 429 O 38.5704 0.572526 -1.85569 0
M  V30 430 C 35.7004 0.619238 -3.41735 0
M  V30 431 C 34.6544 -0.157215 -4.27711 0
M  V30 432 C 33.9804 0.816273 -5.28433 0
M  V30 433 C 35.2804 -1.35656 -5.04376 0
M  V30 434 H 36.9744 -1.04276 -2.80654 0
M  V30 435 H 34.5204 -0.50288 -1.34934 0
M  V30 436 H 36.4734 1.03137 -4.08584 0
M  V30 437 H 35.1974 1.46239 -2.92031 0
M  V30 438 H 33.8564 -0.550525 -3.62443 0
M  V30 439 H 33.5044 1.65494 -4.74996 0
M  V30 440 H 33.2044 0.301067 -5.86828 0
M  V30 441 H 34.7284 1.22659 -5.98153 0
M  V30 442 H 36.1424 -1.01927 -5.64166 0
M  V30 443 H 34.5394 -1.8063 -5.7227 0
M  V30 444 H 35.6094 -2.14288 -4.34981 0
M  V30 445 N 36.9525 1.47285 -0.560781 0
M  V30 446 C 38.1985 2.03347 -0.0463654 0
M  V30 447 C 38.5535 1.42702 1.2905 0
M  V30 448 O 37.8465 0.574619 1.8278 0
M  V30 449 C 38.0405 3.57258 0.100784 0
M  V30 450 C 37.8695 4.32827 -1.22027 0
M  V30 451 C 36.6395 4.72588 -1.78854 0
M  V30 452 C 38.8375 4.67739 -2.13834 0
M  V30 453 N 36.8195 5.32816 -3.04927 0
M  V30 454 C 38.1905 5.28307 -3.24487 0
M  V30 455 C 40.2455 4.49667 -2.13784 0
M  V30 456 C 38.9485 5.72711 -4.35194 0
M  V30 457 C 40.9745 4.95073 -3.23506 0
M  V30 458 C 40.3365 5.55693 -4.32879 0
M  V30 459 H 36.4355 0.779755 -0.0592166 0
M  V30 460 H 39.0195 1.79723 -0.748857 0
M  V30 461 H 37.1905 3.80642 0.772404 0
M  V30 462 H 38.9225 3.9996 0.617589 0
M  V30 463 H 35.6775 4.54656 -1.32609 0
M  V30 464 H 36.1015 5.67471 -3.69197 0
M  V30 465 H 40.7435 4.02154 -1.30507 0
M  V30 466 H 38.4615 6.19214 -5.1923 0
M  V30 467 H 42.0475 4.82859 -3.24559 0
M  V30 468 H 40.9275 5.90188 -5.1638 0
M  V30 469 N 38.4306 0.297415 1.54768 0
M  V30 470 C 39.7076 -0.365847 1.92148 0
M  V30 471 C 40.0876 -1.71975 1.22424 0
M  V30 472 O 39.4356 -2.25666 0.358739 0
M  V30 473 C 39.6456 -0.484056 3.45627 0
M  V30 474 C 40.9936 -0.756594 4.17805 0
M  V30 475 O 42.0176 -0.568007 3.51642 0
M  V30 476 O 40.8766 -1.11863 5.34929 0
M  V30 477 H 37.9706 -0.203919 0.801465 0
M  V30 478 H 40.5166 0.34521 1.66152 0
M  V30 479 H 39.2886 0.467865 3.88493 0
M  V30 480 H 38.9116 -1.24372 3.77647 0
M  V30 481 N 39.9087 -1.5758 0.0250728 0
M  V30 482 C 40.8717 -2.08896 -0.943139 0
M  V30 483 C 41.8717 -1.00321 -1.25668 0
M  V30 484 O 43.0617 -1.26495 -1.19769 0
M  V30 485 C 40.1937 -2.55143 -2.26086 0
M  V30 486 H 41.3867 -2.95723 -0.498775 0
M  V30 487 H 38.9397 -1.54703 -0.222888 0
M  V30 488 H 39.6747 -1.71633 -2.75159 0
M  V30 489 H 39.4597 -3.34461 -2.04641 0
M  V30 490 H 40.9497 -2.95083 -2.95492 0
M  V30 491 N 41.3868 0.248026 -1.55636 0
M  V30 492 C 42.3168 1.31079 -1.93237 0
M  V30 493 C 43.2978 1.50264 -0.797174 0
M  V30 494 O 44.4828 1.62891 -1.05737 0
M  V30 495 C 41.6128 2.66575 -2.22609 0
M  V30 496 C 40.5668 2.62087 -3.3837 0
M  V30 497 C 39.8928 4.01369 -3.53281 0
M  V30 498 C 41.1928 2.19171 -4.7409 0
M  V30 499 H 42.8868 0.998556 -2.82257 0
M  V30 500 H 40.4328 0.47891 -1.35803 0
M  V30 501 H 42.3858 3.41057 -2.47503 0
M  V30 502 H 41.1098 2.99432 -1.30414 0
M  V30 503 H 39.7688 1.90063 -3.13483 0
M  V30 504 H 39.4168 4.31489 -2.58508 0
M  V30 505 H 39.1168 3.99254 -4.31127 0
M  V30 506 H 40.6408 4.77552 -3.80495 0
M  V30 507 H 42.0548 2.83384 -4.98363 0
M  V30 508 H 40.4518 2.2817 -5.5503 0
M  V30 509 H 41.5218 1.14336 -4.71227 0
M  V30 510 N 42.8649 1.48995 0.513639 0
M  V30 511 C 43.7949 1.67636 1.62544 0
M  V30 512 C 44.7759 0.525087 1.61793 0
M  V30 513 O 45.9609 0.759502 1.78732 0
M  V30 514 C 43.0909 1.73114 3.01079 0
M  V30 515 C 42.0449 2.87905 3.16693 0
M  V30 516 C 41.3709 2.78486 4.56453 0
M  V30 517 C 42.6709 4.29005 2.97913 0
M  V30 518 H 44.3649 2.60716 1.47198 0
M  V30 519 H 41.9109 1.25465 0.706714 0
M  V30 520 H 43.8639 1.84742 3.78746 0
M  V30 521 H 42.5879 0.766241 3.17484 0
M  V30 522 H 41.2469 2.75859 2.41448 0
M  V30 523 H 40.8949 1.7993 4.69717 0
M  V30 524 H 40.5949 3.55523 4.67843 0
M  V30 525 H 42.1189 2.92104 5.36197 0
M  V30 526 H 43.5329 4.41798 3.65359 0
M  V30 527 H 41.9299 5.07166 3.20785 0
M  V30 528 H 42.9999 4.44329 1.94165 0
M  V30 529 N 44.343 -0.763751 1.37857 0
M  V30 530 C 45.568 -1.55805 1.36893 0
M  V30 531 C 45.993 -1.88054 -0.0416135 0
M  V30 532 O 45.351 -1.49825 -1.02089 0
M  V30 533 C 45.399 -2.84012 2.22192 0
M  V30 534 O 44.503 -3.78732 1.63204 0
M  V30 535 H 43.844 -0.471638 0.46739 0
M  V30 536 H 46.374 -0.944657 1.81487 0
M  V30 537 H 46.384 -3.33037 2.35691 0
M  V30 538 H 45.059 -2.59869 3.24716 0
M  V30 539 H 43.636 -3.37402 1.58791 0
M  V30 540 N 45.8211 -1.22559 -0.990812 0
M  V30 541 C 47.2371 -0.985996 -1.255 0
M  V30 542 C 47.4371 0.319173 -1.98956 0
M  V30 543 O 46.4931 1.04127 -2.3003 0
M  V30 544 C 47.8061 -2.18607 -2.06474 0
M  V30 545 C 49.3541 -2.22985 -2.19651 0
M  V30 546 C 49.8291 -3.4255 -3.04012 0
M  V30 547 N 51.3201 -3.42725 -3.11599 0
M  V30 548 C 52.0551 -4.31892 -3.7717 0
M  V30 549 N 51.5511 -5.31279 -4.44651 0
M  V30 550 N 53.3441 -4.19662 -3.73952 0
M  V30 551 H 45.4951 -2.06469 -0.49841 0
M  V30 552 H 47.7581 -0.904853 -0.282747 0
M  V30 553 H 47.4641 -3.13267 -1.59865 0
M  V30 554 H 47.3381 -2.18838 -3.07229 0
M  V30 555 H 49.7251 -1.28871 -2.65474 0
M  V30 556 H 49.8061 -2.26791 -1.18319 0
M  V30 557 H 49.4501 -4.36965 -2.58889 0
M  V30 558 H 49.3801 -3.35984 -4.0549 0
M  V30 559 H 51.8711 -2.70807 -2.63575 0
M  V30 560 H 52.1841 -5.95593 -4.92431 0
M  V30 561 H 50.5291 -5.3519 -4.43392 0
M  V30 562 H 53.7201 -3.41268 -3.20396 0
M  V30 563 H 53.8931 -4.89358 -4.24774 0
M  V30 564 N 47.2992 1.18797 -1.03562 0
M  V30 565 C 48.2092 2.25913 -0.632505 0
M  V30 566 C 49.2252 1.70668 0.338882 0
M  V30 567 O 50.4012 2.00453 0.195076 0
M  V30 568 C 47.4662 3.467 0.00350942 0
M  V30 569 C 46.5272 4.17098 -1.01624 0
M  V30 570 C 45.7602 5.32119 -0.410478 0
M  V30 571 O 45.9832 5.64976 0.784725 0
M  V30 572 O 44.9172 5.9107 -1.13667 0
M  V30 573 H 48.7432 2.62648 -1.52478 0
M  V30 574 H 46.3282 1.25781 -0.806195 0
M  V30 575 H 48.2102 4.19878 0.35781 0
M  V30 576 H 46.8852 3.11798 0.869686 0
M  V30 577 H 45.7922 3.4601 -1.42224 0
M  V30 578 H 47.1252 4.55987 -1.85301 0
M  V30 579 N 48.7773 0.814389 1.34928 0
M  V30 580 C 49.7073 0.244827 2.32213 0
M  V30 581 C 50.6883 -0.634024 1.57842 0
M  V30 582 O 51.8733 -0.562676 1.8587 0
M  V30 583 C 49.0033 -0.601106 3.42058 0
M  V30 584 C 47.9573 0.179896 4.27622 0
M  V30 585 C 47.2833 -0.788237 5.28858 0
M  V30 586 C 48.5833 1.38329 5.03649 0
M  V30 587 H 50.2773 1.05763 2.80097 0
M  V30 588 H 47.8233 0.510029 1.34665 0
M  V30 589 H 49.7763 -1.00968 4.09125 0
M  V30 590 H 48.5003 -1.44688 2.92802 0
M  V30 591 H 47.1593 0.569739 3.62146 0
M  V30 592 H 46.8073 -1.62973 4.75866 0
M  V30 593 H 46.5073 -0.269942 5.8698 0
M  V30 594 H 48.0313 -1.19485 5.98795 0
M  V30 595 H 49.4453 1.04918 5.63618 0
M  V30 596 H 47.8423 1.83662 5.71304 0
M  V30 597 H 48.9123 2.16592 4.33839 0
M  V30 598 N 50.2554 -1.46986 0.568584 0
M  V30 599 C 51.5024 -2.02441 0.0487986 0
M  V30 600 C 51.8304 -1.44169 -1.30559 0
M  V30 601 O 51.0854 -0.591213 -1.86556 0
M  V30 602 C 51.3844 -3.57306 -0.081836 0
M  V30 603 C 51.0504 -4.34552 1.20313 0
M  V30 604 C 49.7124 -4.55376 1.5552 0
M  V30 605 C 52.0644 -4.79016 2.05411 0
M  V30 606 C 49.3924 -5.17913 2.7565 0
M  V30 607 C 51.7444 -5.42879 3.24754 0
M  V30 608 C 50.4084 -5.61933 3.60261 0
M  V30 609 H 49.6784 -0.740785 0.0178567 0
M  V30 610 H 52.3254 -1.76525 0.742384 0
M  V30 611 H 50.6304 -3.8228 -0.858463 0
M  V30 612 H 52.3274 -3.97876 -0.499546 0
M  V30 613 H 48.9174 -4.18631 0.919014 0
M  V30 614 H 53.1014 -4.62696 1.79516 0
M  V30 615 H 48.3574 -5.30858 3.03315 0
M  V30 616 H 52.5314 -5.76293 3.90973 0
M  V30 617 H 50.1584 -6.10161 4.53439 0
M  V30 618 N 51.7335 -0.305618 -1.54608 0
M  V30 619 C 53.1495 0.0476228 -1.59529 0
M  V30 620 C 53.3495 1.52025 -1.32252 0
M  V30 621 O 52.4055 2.27368 -1.09818 0
M  V30 622 C 53.7185 -0.354471 -2.98603 0
M  V30 623 C 55.2665 -0.303622 -3.11524 0
M  V30 624 C 55.7415 -0.680608 -4.52915 0
M  V30 625 N 57.2325 -0.63332 -4.5885 0
M  V30 626 C 57.9675 -0.897432 -5.66334 0
M  V30 627 N 57.4635 -1.22775 -6.81834 0
M  V30 628 N 59.2565 -0.824186 -5.56025 0
M  V30 629 H 51.4075 -1.2653 -1.70599 0
M  V30 630 H 53.6705 -0.513291 -0.797017 0
M  V30 631 H 53.3765 -1.3798 -3.23503 0
M  V30 632 H 53.2505 0.289568 -3.76087 0
M  V30 633 H 55.6375 0.712472 -2.8637 0
M  V30 634 H 55.7185 -0.982348 -2.36185 0
M  V30 635 H 55.3625 -1.69453 -4.78799 0
M  V30 636 H 55.2925 0.0202385 -5.26596 0
M  V30 637 H 57.7835 -0.389138 -3.75891 0
M  V30 638 H 58.0965 -1.41513 -7.59733 0
M  V30 639 H 56.4415 -1.26583 -6.83375 0
M  V30 640 H 59.6325 -0.565748 -4.64669 0
M  V30 641 H 59.8055 -1.03338 -6.39707 0
M  V30 642 N 53.2116 1.57565 -0.0334293 0
M  V30 643 C 54.6226 1.79746 0.504798 0
M  V30 644 C 54.9736 0.944091 1.71992 0
M  V30 645 O 54.0986 0.155694 2.15839 0
M  V30 646 C 54.6936 3.25997 0.922567 0
M  V30 647 C 53.2526 3.49159 1.40588 0
M  V30 648 C 52.3996 2.74785 0.372633 0
M  V30 649 H 55.3506 1.56565 -0.259436 0
M  V30 650 H 55.3716 3.35945 1.78666 0
M  V30 651 H 54.8836 3.88081 0.0379825 0
M  V30 652 H 52.9846 2.92332 2.31025 0
M  V30 653 H 53.0976 4.57873 1.41028 0
M  V30 654 H 51.4616 2.40391 0.841672 0
M  V30 655 H 52.2446 3.39587 -0.503559 0
M  V30 656 N 54.6897 -0.239769 1.55765 0
M  V30 657 C 55.6397 -1.30002 1.87306 0
M  V30 658 C 56.6237 -1.43156 0.73452 0
M  V30 659 O 57.8157 -1.46277 0.99659 0
M  V30 660 C 54.9447 -2.65409 2.17745 0
M  V30 661 C 54.0307 -2.56231 3.37945 0
M  V30 662 N 54.4217 -2.16689 4.57033 0
M  V30 663 C 52.7197 -2.87229 3.41197 0
M  V30 664 C 53.4207 -2.18318 5.39177 0
M  V30 665 N 52.3967 -2.58098 4.78421 0
M  V30 666 H 56.1987 -0.984912 2.76906 0
M  V30 667 H 53.7127 -0.448381 1.56087 0
M  V30 668 H 55.7097 -3.41934 2.38509 0
M  V30 669 H 54.3697 -2.97781 1.29448 0
M  V30 670 H 55.3807 -1.88116 4.82528 0
M  V30 671 H 52.0577 -3.24094 2.63191 0
M  V30 672 H 53.4477 -1.90025 6.44469 0
M  V30 673 N 56.1678 -1.49265 -0.50573 0
M  V30 674 C 57.1008 -1.60183 -1.62532 0
M  V30 675 C 58.0788 -0.451107 -1.56217 0
M  V30 676 O 59.2628 -0.666016 -1.76342 0
M  V30 677 C 56.3898 -1.55238 -3.01029 0
M  V30 678 C 55.4358 -2.7545 -3.25621 0
M  V30 679 S 56.2688 -4.37174 -3.09256 0
M  V30 680 C 57.4248 -4.34866 -4.50158 0
M  V30 681 H 57.6578 -2.54894 -1.53025 0
M  V30 682 H 55.1908 -1.38098 -0.690535 0
M  V30 683 H 57.1488 -1.53071 -3.80893 0
M  V30 684 H 55.8098 -0.618238 -3.07956 0
M  V30 685 H 55.0028 -2.68197 -4.26716 0
M  V30 686 H 54.6048 -2.75005 -2.53472 0
M  V30 687 H 56.8968 -4.06295 -5.42154 0
M  V30 688 H 57.8398 -5.36223 -4.62462 0
M  V30 689 H 58.2478 -3.65007 -4.30616 0
M  V30 690 N 57.6459 0.756429 -1.3826 0
M  V30 691 C 58.8949 1.51082 -1.3363 0
M  V30 692 C 59.2079 1.95467 0.0720068 0
M  V30 693 O 60.4139 2.7043 0.240834 0
M  V30 694 C 58.8699 2.72893 -2.34644 0
M  V30 695 C 58.4779 2.35544 -3.81081 0
M  V30 696 C 60.2219 3.50791 -2.39052 0
M  V30 697 C 58.1289 3.53948 -4.73787 0
M  V30 698 H 57.0589 0.56727 -0.49671 0
M  V30 699 H 59.7099 0.827147 -1.638 0
M  V30 700 H 58.0919 3.43227 -1.97513 0
M  V30 701 H 59.2659 1.72894 -4.27135 0
M  V30 702 H 57.5809 1.70786 -3.79764 0
M  V30 703 H 60.1779 4.38823 -3.05513 0
M  V30 704 H 60.5209 3.91745 -1.40861 0
M  V30 705 H 61.0539 2.87467 -2.74968 0
M  V30 706 H 57.7929 3.18064 -5.73163 0
M  V30 707 H 57.3129 4.15651 -4.32428 0
M  V30 708 H 58.9919 4.20566 -4.91663 0
M  V30 709 N 59.124 1.23083 0.984299 0
M  V30 710 C 60.034 1.02515 2.11016 0
M  V30 711 C 61.05 -0.0291702 1.73976 0
M  V30 712 O 62.226 0.165434 2.00719 0
M  V30 713 C 59.291 0.614673 3.41208 0
M  V30 714 C 58.352 1.74359 3.92297 0
M  V30 715 C 57.585 1.35261 5.16275 0
M  V30 716 O 57.808 0.235136 5.69915 0
M  V30 717 O 56.742 2.17227 5.61334 0
M  V30 718 H 60.568 1.96862 2.31255 0
M  V30 719 H 58.153 1.01753 1.09392 0
M  V30 720 H 60.035 0.396518 4.1953 0
M  V30 721 H 58.71 -0.299851 3.22308 0
M  V30 722 H 57.617 2.01635 3.1511 0
M  V30 723 H 58.95 2.63629 4.15645 0
M  V30 724 N 60.6021 -1.18246 1.0419 0
M  V30 725 C 61.8791 -1.84121 0.660208 0
M  V30 726 C 62.2591 -1.92778 -0.860221 0
M  V30 727 O 61.6071 -1.45464 -1.76217 0
M  V30 728 C 61.8171 -3.22355 1.33747 0
M  V30 729 C 63.1651 -3.98376 1.46906 0
M  V30 730 O 64.1891 -3.31799 1.29568 0
M  V30 731 O 63.0481 -5.17665 1.75171 0
M  V30 732 H 60.1421 -0.794036 0.231161 0
M  V30 733 H 62.6881 -1.25628 1.14087 0
M  V30 734 H 61.4601 -3.10964 2.37522 0
M  V30 735 H 61.0831 -3.88506 0.845515 0
M  V30 736 N 62.0802 -0.821533 -1.34494 0
M  V30 737 C 63.3292 -0.405355 -1.97585 0
M  V30 738 C 63.6422 1.03677 -1.65863 0
M  V30 739 O 64.8482 1.55679 -2.22433 0
M  V30 740 C 63.3042 -0.673861 -3.53535 0
M  V30 741 C 62.9122 -2.12951 -3.94152 0
M  V30 742 C 64.6562 -0.32378 -4.23263 0
M  V30 743 C 62.5632 -2.34298 -5.43009 0
M  V30 744 H 61.4932 -0.147836 -0.739365 0
M  V30 745 H 64.1442 -1.00769 -1.53355 0
M  V30 746 H 62.5262 -0.00137554 -3.96 0
M  V30 747 H 63.7002 -2.84104 -3.62797 0
M  V30 748 H 62.0152 -2.44089 -3.37356 0
M  V30 749 H 64.6122 -0.461126 -5.32708 0
M  V30 750 H 64.9552 0.731586 -4.09821 0
M  V30 751 H 65.4882 -0.950786 -3.8627 0
M  V30 752 H 62.2272 -3.38335 -5.61435 0
M  V30 753 H 61.7472 -1.67687 -5.75883 0
M  V30 754 H 63.4262 -2.16588 -6.09671 0
M  V30 755 N 63.5583 1.46682 -0.576371 0
M  V30 756 C 64.4903 2.28341 0.198231 0
M  V30 757 C 65.5033 1.38141 0.861453 0
M  V30 758 O 66.6923 1.62797 0.732082 0
M  V30 759 C 63.7923 3.12986 1.29972 0
M  V30 760 C 62.9653 4.31271 0.729639 0
M  V30 761 C 62.0243 4.97363 1.71803 0
M  V30 762 O 61.0503 5.55156 1.25658 0
M  V30 763 N 62.2523 4.93796 3.05198 0
M  V30 764 H 65.0173 2.9546 -0.502324 0
M  V30 765 H 62.5783 1.56525 -0.413715 0
M  V30 766 H 64.5703 3.54066 1.96008 0
M  V30 767 H 63.1403 2.47984 1.90323 0
M  V30 768 H 62.3603 3.94052 -0.108012 0
M  V30 769 H 63.6483 5.07739 0.328438 0
M  V30 770 H 63.0463 4.48077 3.45317 0
M  V30 771 H 61.6033 5.38837 3.6674 0
M  V30 772 N 65.0364 0.313813 1.54444 0
M  V30 773 C 66.4524 -0.0391619 1.59552 0
M  V30 774 C 66.6524 -1.51322 1.33056 0
M  V30 775 O 65.7084 -2.26782 1.11022 0
M  V30 776 C 67.0214 0.370302 2.98411 0
M  V30 777 C 68.5694 0.320139 3.11358 0
M  V30 778 C 69.0444 0.704617 4.52547 0
M  V30 779 N 70.5354 0.657645 4.58508 0
M  V30 780 C 71.2704 0.927453 5.6585 0
M  V30 781 N 70.7664 1.26389 6.81174 0
M  V30 782 N 72.5594 0.853662 5.5558 0
M  V30 783 H 64.7104 1.27433 1.69925 0
M  V30 784 H 66.9734 0.517511 0.794284 0
M  V30 785 H 66.6794 1.39694 3.22767 0
M  V30 786 H 66.5534 -0.269619 3.76235 0
M  V30 787 H 68.9404 -0.697275 2.86744 0
M  V30 788 H 69.0214 0.99486 2.35661 0
M  V30 789 H 68.6654 1.7199 4.77893 0
M  V30 790 H 68.5954 0.00768843 5.26599 0
M  V30 791 H 71.0864 0.409067 3.75679 0
M  V30 792 H 71.3994 1.4554 7.58972 0
M  V30 793 H 69.7444 1.30206 6.82694 0
M  V30 794 H 72.9354 0.590383 4.64362 0
M  V30 795 H 73.1084 1.0673 6.3915 0
M  V30 796 N 66.5145 -1.57545 0.0417849 0
M  V30 797 C 67.4775 -2.09885 -0.92093 0
M  V30 798 C 68.4775 -1.01648 -1.24596 0
M  V30 799 O 69.6675 -1.27759 -1.1842 0
M  V30 800 C 66.7995 -2.57527 -2.23367 0
M  V30 801 H 67.9925 -2.96236 -0.467382 0
M  V30 802 H 65.5455 -1.5493 -0.206467 0
M  V30 803 H 66.2805 -1.74542 -2.73323 0
M  V30 804 H 66.0655 -3.36613 -2.01083 0
M  V30 805 H 67.5555 -2.98201 -2.92346 0
M  V30 806 N 67.9926 0.231505 -1.5589 0
M  V30 807 C 69.2406 0.955461 -1.78088 0
M  V30 808 C 69.5616 1.85262 -0.608533 0
M  V30 809 O 68.8316 1.92277 0.375035 0
M  V30 810 H 67.4116 0.355787 -0.656829 0
M  V30 811 H 70.0736 0.245751 -1.93344 0
M  V30 812 H 69.1696 1.56814 -2.69844 0
M  V30 813 N 69.4707 1.49531 0.497807 0
M  V30 814 C 70.6957 1.63159 1.28039 0
M  V30 815 C 71.1207 0.30418 1.85624 0
M  V30 816 O 70.4787 -0.728618 1.66015 0
M  V30 817 C 70.5267 2.70537 2.38416 0
M  V30 818 O 69.6307 2.29931 3.42353 0
M  V30 819 H 68.9717 0.546001 0.377861 0
M  V30 820 H 71.5017 1.9574 0.59558 0
M  V30 821 H 71.5117 2.92802 2.84132 0
M  V30 822 H 70.1867 3.6689 1.95869 0
M  V30 823 H 68.7637 2.18009 3.02533 0
M  V30 824 N 70.9488 -0.749086 1.3866 0
M  V30 825 C 72.1968 -1.50535 1.34847 0
M  V30 826 C 72.5178 -1.94909 -0.0595016 0
M  V30 827 O 71.7878 -1.67973 -1.00806 0
M  V30 828 H 70.3678 -0.558395 0.49619 0
M  V30 829 H 73.0298 -0.890165 1.73384 0
M  V30 830 H 72.1258 -2.39413 2.00219 0
M  V30 831 N 72.4269 -1.23603 -0.977757 0
M  V30 832 C 73.6519 -1.09735 -1.75991 0
M  V30 833 C 74.0769 0.346858 -1.84874 0
M  V30 834 O 73.4349 1.25093 -1.3123 0
M  V30 835 C 73.4829 -1.73051 -3.16363 0
M  V30 836 O 72.5869 -0.994452 -4.0023 0
M  V30 837 H 71.9279 -0.384476 -0.541364 0
M  V30 838 H 74.4579 -1.6371 -1.2272 0
M  V30 839 H 74.4679 -1.78398 -3.66931 0
M  V30 840 H 73.1429 -2.78137 -3.09213 0
M  V30 841 H 71.7199 -1.01812 -3.58732 0
M  V30 842 N 73.905 1.17692 -1.04816 0
M  V30 843 C 75.321 1.39863 -0.768794 0
M  V30 844 C 75.521 1.91118 0.638451 0
M  V30 845 O 74.577 2.10036 1.40146 0
M  V30 846 C 75.89 2.39274 -1.82122 0
M  V30 847 C 77.438 2.52987 -1.843 0
M  V30 848 C 77.913 3.55669 -2.88555 0
M  V30 849 N 79.404 3.63183 -2.87493 0
M  V30 850 C 80.139 4.42381 -3.64811 0
M  V30 851 N 79.635 5.25125 -4.51903 0
M  V30 852 N 81.428 4.37217 -3.53267 0
M  V30 853 H 73.579 0.82752 -1.95617 0
M  V30 854 H 75.842 0.426123 -0.846831 0
M  V30 855 H 75.548 2.08678 -2.83102 0
M  V30 856 H 75.422 3.38725 -1.65967 0
M  V30 857 H 77.809 2.82896 -0.839869 0
M  V30 858 H 77.89 1.53623 -2.04532 0
M  V30 859 H 77.534 3.26499 -3.89051 0
M  V30 860 H 77.464 4.54728 -2.65575 0
M  V30 861 H 79.955 3.04103 -2.24343 0
M  V30 862 H 80.268 5.82728 -5.07591 0
M  V30 863 H 78.613 5.24519 -4.55966 0
M  V30 864 H 81.804 3.71626 -2.84625 0
M  V30 865 H 81.977 4.98696 -4.13771 0
M  V30 866 N 75.3831 0.828654 1.34056 0
M  V30 867 C 76.7991 0.515135 1.51058 0
M  V30 868 C 76.9991 -0.959581 1.77184 0
M  V30 869 O 76.0551 -1.74382 1.82612 0
M  V30 870 C 77.3681 1.37963 2.67183 0
M  V30 871 C 78.9161 1.37735 2.81066 0
M  V30 872 C 79.3911 2.22645 4.00241 0
M  V30 873 N 80.8821 2.203 4.07458 0
M  V30 874 C 81.6171 2.82744 4.98842 0
M  V30 875 N 81.1131 3.54201 5.9541 0
M  V30 876 N 82.9061 2.72268 4.91759 0
M  V30 877 H 75.0571 1.78343 1.15358 0
M  V30 878 H 77.3201 0.760304 0.566252 0
M  V30 879 H 77.0261 2.42714 2.54525 0
M  V30 880 H 76.9001 1.0484 3.62338 0
M  V30 881 H 79.2871 0.337593 2.93163 0
M  V30 882 H 79.3681 1.74859 1.86703 0
M  V30 883 H 79.0121 3.26674 3.88905 0
M  V30 884 H 78.9421 1.82869 4.93829 0
M  V30 885 H 81.4331 1.68327 3.38341 0
M  V30 886 H 81.7461 3.9908 6.61782 0
M  V30 887 H 80.0911 3.58308 5.95517 0
M  V30 888 H 83.2821 2.16014 4.15278 0
M  V30 889 H 83.4551 3.21219 5.62781 0
M  V30 890 N 76.8612 -1.46375 0.584142 0
M  V30 891 C 78.1382 -1.956 0.0033388 0
M  V30 892 C 78.5182 -1.52679 -1.45782 0
M  V30 893 O 77.8662 -0.77816 -2.14842 0
M  V30 894 C 78.0762 -3.48551 0.176891 0
M  V30 895 C 79.4242 -4.24576 0.0454609 0
M  V30 896 O 80.4482 -3.56043 0.105801 0
M  V30 897 O 79.3072 -5.46427 -0.0890376 0
M  V30 898 H 76.4012 -0.825547 -0.0490066 0
M  V30 899 H 78.9472 -1.56652 0.65256 0
M  V30 900 H 77.7192 -3.72683 1.1926 0
M  V30 901 H 77.3422 -3.94332 -0.508695 0
M  V30 902 N 78.3393 -0.321999 -1.54275 0
M  V30 903 C 79.2713 0.578671 -2.21775 0
M  V30 904 C 80.2843 1.08109 -1.21722 0
M  V30 905 O 81.4733 0.994938 -1.482 0
M  V30 906 C 78.5733 1.80661 -2.86731 0
M  V30 907 C 77.7463 1.44314 -4.12907 0
M  V30 908 C 76.8053 2.52845 -4.61472 0
M  V30 909 O 75.8313 2.17054 -5.2619 0
M  V30 910 N 77.0333 3.83748 -4.35566 0
M  V30 911 H 79.7983 0.000709447 -2.997 0
M  V30 912 H 77.3593 -0.145132 -1.61248 0
M  V30 913 H 79.3513 2.52655 -3.16145 0
M  V30 914 H 77.9213 2.29245 -2.12521 0
M  V30 915 H 77.1413 0.554906 -3.90275 0
M  V30 916 H 78.4293 1.17598 -4.95023 0
M  V30 917 H 77.8273 4.15625 -3.83761 0
M  V30 918 H 76.3843 4.51977 -4.69638 0
M  V30 919 N 79.8174 1.5752 -0.0501392 0
M  V30 920 C 80.7804 2.1037 0.909786 0
M  V30 921 C 81.7804 1.02308 1.24056 0
M  V30 922 O 82.9704 1.28385 1.17741 0
M  V30 923 C 80.1024 2.58708 2.21998 0
M  V30 924 H 81.2954 2.96479 0.451665 0
M  V30 925 H 78.8484 1.55038 0.198248 0
M  V30 926 H 79.5834 1.75989 2.72394 0
M  V30 927 H 79.3684 3.37675 1.99295 0
M  V30 928 H 80.8584 2.99747 2.9076 0
M  V30 929 N 81.2955 -0.223234 1.56011 0
M  V30 930 C 82.7115 -0.572856 1.48965 0
M  V30 931 C 82.9115 -1.87225 0.74492 0
M  V30 932 O 81.9675 -2.50899 0.283896 0
M  V30 933 C 83.2805 -0.653646 2.9351 0
M  V30 934 C 84.8285 -0.744386 3.0402 0
M  V30 935 C 85.3035 -0.856535 4.49919 0
M  V30 936 N 86.7945 -0.9208 4.53955 0
M  V30 937 C 87.5295 -1.02726 5.64123 0
M  V30 938 N 87.0255 -1.09777 6.84047 0
M  V30 939 N 88.8185 -1.06226 5.51971 0
M  V30 940 H 80.9695 0.629462 2.02858 0
M  V30 941 H 83.2325 0.220621 0.921971 0
M  V30 942 H 82.9385 0.231518 3.50937 0
M  V30 943 H 82.8125 -1.51781 3.45315 0
M  V30 944 H 85.1995 -1.61999 2.46658 0
M  V30 945 H 85.2805 0.14541 2.55386 0
M  V30 946 H 84.9245 0.0146069 5.07898 0
M  V30 947 H 84.8545 -1.76172 4.96257 0
M  V30 948 H 87.3455 -0.876694 3.6759 0
M  V30 949 H 87.6585 -1.17872 7.63758 0
M  V30 950 H 86.0035 -1.06693 6.86762 0
M  V30 951 H 89.1945 -1.00382 4.5721 0
M  V30 952 H 89.3675 -1.14177 6.37862 0
M  V30 953 N 82.7736 -1.49793 -0.48987 0
M  V30 954 C 83.7056 -1.63413 -1.60713 0
M  V30 955 C 84.7186 -0.516329 -1.54395 0
M  V30 956 O 85.9076 -0.788812 -1.60125 0
M  V30 957 C 83.0076 -1.58516 -2.99543 0
M  V30 958 C 82.1806 -2.86016 -3.30928 0
M  V30 959 C 81.2396 -2.74018 -4.49222 0
M  V30 960 O 80.2656 -3.47964 -4.50455 0
M  V30 961 N 81.4676 -1.86309 -5.4979 0
M  V30 962 H 84.2326 -2.59777 -1.49452 0
M  V30 963 H 81.7936 -1.47022 -0.677955 0
M  V30 964 H 83.7856 -1.48128 -3.76617 0
M  V30 965 H 82.3556 -0.69965 -3.0467 0
M  V30 966 H 81.5756 -3.10672 -2.42645 0
M  V30 967 H 82.8636 -3.70521 -3.487 0
M  V30 968 H 82.2616 -1.2551 -5.51601 0
M  V30 969 H 80.8186 -1.81837 -6.25922 0
M  V30 970 N 84.2517 0.741722 -1.39055 0
M  V30 971 C 85.1817 1.869 -1.39966 0
M  V30 972 C 86.1627 1.6804 -0.26392 0
M  V30 973 O 87.3477 1.88458 -0.468755 0
M  V30 974 C 84.4777 3.24572 -1.23574 0
M  V30 975 C 83.4317 3.58056 -2.34477 0
M  V30 976 C 82.7577 4.94593 -2.0318 0
M  V30 977 C 84.0577 3.61716 -3.76774 0
M  V30 978 H 85.7517 1.86395 -2.34302 0
M  V30 979 H 83.2977 0.895361 -1.1278 0
M  V30 980 H 85.2507 4.031 -1.22834 0
M  V30 981 H 83.9747 3.25587 -0.257045 0
M  V30 982 H 82.6337 2.81854 -2.34423 0
M  V30 983 H 82.2817 4.92181 -1.03765 0
M  V30 984 H 81.9817 5.17964 -2.77465 0
M  V30 985 H 83.5057 5.75486 -2.04079 0
M  V30 986 H 84.9197 4.30335 -3.78794 0
M  V30 987 H 83.3167 3.96603 -4.50362 0
M  V30 988 H 84.3867 2.61672 -4.08235 0
M  V30 989 N 85.7298 1.2412 0.971189 0
M  V30 990 C 86.9788 1.07284 1.70801 0
M  V30 991 C 87.2918 -0.388902 1.91695 0
M  V30 992 O 88.4978 -0.677379 2.62914 0
M  V30 993 C 86.9538 1.87145 3.07416 0
M  V30 994 C 86.5618 3.37707 2.94377 0
M  V30 995 C 88.3058 1.78828 3.84995 0
M  V30 996 C 86.2128 4.09925 4.26281 0
M  V30 997 H 85.1428 0.397854 0.64049 0
M  V30 998 H 87.7938 1.4817 1.0825 0
M  V30 999 H 86.1758 1.39071 3.70777 0
M  V30 1000 H 87.3498 3.93335 2.4005 0
M  V30 1001 H 85.6648 3.46938 2.30267 0
M  V30 1002 H 88.2618 2.30089 4.82662 0
M  V30 1003 H 88.6048 0.75284 4.09436 0
M  V30 1004 H 89.1378 2.24563 3.28354 0
M  V30 1005 H 85.8768 5.13813 4.07033 0
M  V30 1006 H 85.3968 3.59083 4.80437 0
M  V30 1007 H 87.0758 4.1673 4.94919 0
M  V30 1008 N 87.2079 -1.17134 1.05439 0
M  V30 1009 C 88.4569 -1.86791 0.761049 0
M  V30 1010 C 88.7699 -1.82072 -0.714795 0
M  V30 1011 O 89.9759 -2.47223 -1.12218 0
M  V30 1012 C 88.4319 -3.35166 1.31117 0
M  V30 1013 C 88.0399 -3.48381 2.81664 0
M  V30 1014 C 89.7839 -4.10134 1.09499 0
M  V30 1015 C 87.6909 -4.90793 3.29964 0
M  V30 1016 H 86.6209 -0.699681 0.281002 0
M  V30 1017 H 89.2719 -1.3226 1.27199 0
M  V30 1018 H 87.6539 -3.8925 0.72803 0
M  V30 1019 H 88.8279 -3.04502 3.45855 0
M  V30 1020 H 87.1429 -2.86836 3.01851 0
M  V30 1021 H 89.7399 -5.152 1.43084 0
M  V30 1022 H 90.0829 -4.16287 0.0328772 0
M  V30 1023 H 90.6159 -3.62264 1.64346 0
M  V30 1024 H 87.3549 -4.89816 4.35616 0
M  V30 1025 H 86.8749 -5.35333 2.70516 0
M  V30 1026 H 88.5539 -5.59573 3.24787 0
M  V30 1027 N 88.686 -0.835752 -1.33615 0
M  V30 1028 C 89.963 -0.352017 -1.92406 0
M  V30 1029 C 90.343 1.16225 -1.76224 0
M  V30 1030 O 89.691 1.97526 -1.14873 0
M  V30 1031 C 89.901 -0.795485 -3.39813 0
M  V30 1032 C 91.249 -0.801703 -4.16963 0
M  V30 1033 O 92.273 -0.738889 -3.48452 0
M  V30 1034 O 91.132 -0.886607 -5.3926 0
M  V30 1035 H 88.226 -0.0989641 -0.821057 0
M  V30 1036 H 90.772 -0.921397 -1.42507 0
M  V30 1037 H 89.544 -1.83795 -3.45449 0
M  V30 1038 H 89.167 -0.202505 -3.97084 0
M  V30 1039 N 90.1641 1.46063 -0.591896 0
M  V30 1040 C 91.0941 2.33172 0.123673 0
M  V30 1041 C 92.0751 1.45897 0.87453 0
M  V30 1042 O 93.2601 1.74698 0.848181 0
M  V30 1043 C 90.3901 3.28336 1.13194 0
M  V30 1044 C 89.3441 4.25124 0.495324 0
M  V30 1045 C 88.6701 5.09863 1.61071 0
M  V30 1046 C 89.9701 5.19143 -0.573425 0
M  V30 1047 H 91.6641 2.93252 -0.603646 0
M  V30 1048 H 89.2101 1.41014 -0.291741 0
M  V30 1049 H 91.1631 3.88137 1.64097 0
M  V30 1050 H 89.8871 2.66383 1.88965 0
M  V30 1051 H 88.5461 3.66599 0.00729452 0
M  V30 1052 H 88.1941 4.44288 2.35832 0
M  V30 1053 H 87.8941 5.75417 1.19035 0
M  V30 1054 H 89.4181 5.72529 2.12233 0
M  V30 1055 H 90.8321 5.73106 -0.1491 0
M  V30 1056 H 89.2291 5.93089 -0.914636 0
M  V30 1057 H 90.2991 4.62519 -1.45617 0
M  V30 1058 N 91.6422 0.330177 1.54103 0
M  V30 1059 C 92.5522 -0.541534 2.28264 0
M  V30 1060 C 93.5682 -1.12351 1.32866 0
M  V30 1061 O 94.7442 -1.14206 1.65888 0
M  V30 1062 C 91.8092 -1.68322 3.03098 0
M  V30 1063 C 90.8702 -1.13238 4.14096 0
M  V30 1064 C 90.1032 -2.21966 4.85352 0
M  V30 1065 O 90.3262 -3.42437 4.56172 0
M  V30 1066 O 89.2602 -1.87013 5.7211 0
M  V30 1067 H 93.0862 0.060938 3.03639 0
M  V30 1068 H 90.6712 0.09565 1.49093 0
M  V30 1069 H 92.5532 -2.34777 3.49939 0
M  V30 1070 H 91.2282 -2.27176 2.30593 0
M  V30 1071 H 90.1352 -0.432736 3.71589 0
M  V30 1072 H 91.4682 -0.588898 4.88664 0
M  V30 1073 N 93.1203 -1.57491 0.0584922 0
M  V30 1074 C 94.3483 -1.97296 -0.623037 0
M  V30 1075 C 94.7633 -0.936338 -1.63946 0
M  V30 1076 O 94.1203 0.0785981 -1.82331 0
M  V30 1077 C 94.1713 -3.37183 -1.30345 0
M  V30 1078 O 93.8923 -4.36872 -0.32773 0
M  V30 1079 C 95.3933 -3.91788 -2.07406 0
M  V30 1080 H 92.6133 -0.649153 -0.169826 0
M  V30 1081 H 95.1573 -2.04106 0.12696 0
M  V30 1082 H 93.3123 -3.31502 -2.00463 0
M  V30 1083 H 93.7263 -5.18141 -0.814269 0
M  V30 1084 H 95.2003 -4.91926 -2.50425 0
M  V30 1085 H 95.6773 -3.27609 -2.92521 0
M  V30 1086 H 96.2833 -4.00829 -1.42184 0
M  V30 1087 N 94.5984 0.214957 -1.56127 0
M  V30 1088 C 96.0144 0.564948 -1.49267 0
M  V30 1089 C 96.2144 1.86827 -0.754838 0
M  V30 1090 O 95.2704 2.50745 -0.297198 0
M  V30 1091 C 96.5834 0.638071 -2.93852 0
M  V30 1092 C 98.1314 0.728253 -3.0441 0
M  V30 1093 C 98.6064 0.832663 -4.50367 0
M  V30 1094 N 100.097 0.896712 -4.54437 0
M  V30 1095 C 100.832 0.997324 -5.6466 0
M  V30 1096 N 100.328 1.06147 -6.8462 0
M  V30 1097 N 102.121 1.03297 -5.52527 0
M  V30 1098 H 94.2724 -0.640211 -2.02522 0
M  V30 1099 H 96.5354 -0.225507 -0.920788 0
M  V30 1100 H 96.2414 -0.250126 -3.50809 0
M  V30 1101 H 96.1154 1.49947 -3.46115 0
M  V30 1102 H 98.5024 1.60689 -2.47514 0
M  V30 1103 H 98.5834 -0.158952 -2.55306 0
M  V30 1104 H 98.2274 -0.0415417 -5.07883 0
M  V30 1105 H 98.1574 1.73538 -4.97184 0
M  V30 1106 H 100.648 0.857188 -3.6805 0
M  V30 1107 H 100.961 1.1382 -7.64372 0
M  V30 1108 H 99.3064 1.03049 -6.87318 0
M  V30 1109 H 102.497 0.979558 -4.57736 0
M  V30 1110 H 102.67 1.10793 -6.38458 0
M  V30 1111 N 96.0765 1.50051 0.48192 0
M  V30 1112 C 97.3245 1.60181 1.23234 0
M  V30 1113 C 97.6455 0.299176 1.92691 0
M  V30 1114 O 96.9155 -0.682708 1.83619 0
M  V30 1115 H 95.4955 0.590232 0.457859 0
M  V30 1116 H 98.1575 1.86775 0.556881 0
M  V30 1117 H 97.2535 2.40753 1.98607 0
M  V30 1118 N 97.5546 -0.734337 1.39446 0
M  V30 1119 C 98.7796 -1.52866 1.40167 0
M  V30 1120 C 99.2046 -1.881 -0.00171513 0
M  V30 1121 O 98.5626 -1.51957 -0.988879 0
M  V30 1122 C 98.6106 -2.79235 2.28167 0
M  V30 1123 O 97.7146 -3.75185 1.71201 0
M  V30 1124 H 97.0556 -0.461618 0.477289 0
M  V30 1125 H 99.5856 -0.905949 1.8345 0
M  V30 1126 H 99.5956 -3.27963 2.42702 0
M  V30 1127 H 98.2706 -2.52923 3.30156 0
M  V30 1128 H 96.8476 -3.33958 1.65912 0
M  V30 1129 N 99.0327 -1.24633 -0.964593 0
M  V30 1130 C 99.9647 -0.999302 -2.06268 0
M  V30 1131 C 100.978 0.0323226 -1.62768 0
M  V30 1132 O 102.167 -0.205079 -1.77318 0
M  V30 1133 C 99.2667 -0.486816 -3.35385 0
M  V30 1134 C 98.4397 -1.5823 -4.07777 0
M  V30 1135 C 97.4987 -1.07191 -5.15166 0
M  V30 1136 O 96.5247 -1.76426 -5.41168 0
M  V30 1137 N 97.7267 0.0920373 -5.80427 0
M  V30 1138 H 100.492 -1.94477 -2.28033 0
M  V30 1139 H 98.0527 -1.15704 -1.13244 0
M  V30 1140 H 100.045 -0.130066 -4.04491 0
M  V30 1141 H 98.6147 0.364459 -3.10468 0
M  V30 1142 H 97.8347 -2.11109 -3.32906 0
M  V30 1143 H 99.1227 -2.31854 -4.52903 0
M  V30 1144 H 98.5207 0.670784 -5.61709 0
M  V30 1145 H 97.0777 0.389905 -6.50633 0
M  V30 1146 N 100.511 1.16574 -1.06058 0
M  V30 1147 C 101.474 2.19085 -0.673392 0
M  V30 1148 C 102.474 1.5835 0.279648 0
M  V30 1149 O 103.664 1.74088 0.0623488 0
M  V30 1150 C 100.796 3.40899 0.00954234 0
M  V30 1151 H 101.989 2.54853 -1.58081 0
M  V30 1152 H 99.5418 1.30808 -0.855516 0
M  V30 1153 H 100.277 3.10684 0.929826 0
M  V30 1154 H 100.062 3.86233 -0.67573 0
M  V30 1155 H 101.552 4.1675 0.266245 0
M  V30 1156 N 101.989 0.842826 1.3317 0
M  V30 1157 C 102.919 0.294028 2.31641 0
M  V30 1158 C 103.9 -0.600401 1.59151 0
M  V30 1159 O 105.085 -0.523124 1.87022 0
M  V30 1160 C 102.215 -0.528416 3.43257 0
M  V30 1161 C 101.169 0.27056 4.27144 0
M  V30 1162 C 100.495 -0.675881 5.30411 0
M  V30 1163 C 101.795 1.48981 5.00602 0
M  V30 1164 H 103.489 1.11681 2.77791 0
M  V30 1165 H 101.035 0.538478 1.33553 0
M  V30 1166 H 102.988 -0.922674 4.11175 0
M  V30 1167 H 101.712 -1.38445 2.95805 0
M  V30 1168 H 100.371 0.646427 3.60856 0
M  V30 1169 H 100.019 -1.52842 4.79216 0
M  V30 1170 H 99.7189 -0.145374 5.8742 0
M  V30 1171 H 101.243 -1.06757 6.01195 0
M  V30 1172 H 102.657 1.16849 5.61266 0
M  V30 1173 H 101.054 1.95739 5.6728 0
M  V30 1174 H 102.124 2.25746 4.29147 0
M  V30 1175 N 103.467 -1.45747 0.599634 0
M  V30 1176 C 104.878 -1.85853 0.177681 0
M  V30 1177 C 105.229 -1.50102 -1.26348 0
M  V30 1178 O 104.354 -0.923905 -1.95686 0
M  V30 1179 C 104.949 -3.37326 0.315688 0
M  V30 1180 C 103.508 -3.76365 -0.0515144 0
M  V30 1181 C 102.655 -2.69722 0.643822 0
M  V30 1182 H 105.606 -1.36661 0.806814 0
M  V30 1183 H 105.627 -3.77778 -0.454321 0
M  V30 1184 H 105.139 -3.63315 1.36468 0
M  V30 1185 H 103.24 -3.55993 -1.09999 0
M  V30 1186 H 103.353 -4.77916 0.336594 0
M  V30 1187 H 101.717 -2.54567 0.0822881 0
M  V30 1188 H 102.5 -2.98549 1.6948 0
M  V30 1189 N 104.945 -0.338344 -1.53925 0
M  V30 1190 C 105.875 0.51328 -2.27789 0
M  V30 1191 C 106.856 1.107 -1.29149 0
M  V30 1192 O 108.041 1.12937 -1.57984 0
M  V30 1193 C 105.171 1.66697 -3.04679 0
M  V30 1194 C 104.125 1.20183 -4.1078 0
M  V30 1195 C 103.451 2.44363 -4.75595 0
M  V30 1196 C 104.751 0.30605 -5.21403 0
M  V30 1197 H 106.445 -0.102883 -2.99223 0
M  V30 1198 H 103.991 -0.0509219 -1.4391 0
M  V30 1199 H 105.944 2.26915 -3.55088 0
M  V30 1200 H 104.668 2.30995 -2.30887 0
M  V30 1201 H 103.327 0.622499 -3.61276 0
M  V30 1202 H 102.975 3.07057 -3.98403 0
M  V30 1203 H 102.675 2.13925 -5.47275 0
M  V30 1204 H 104.199 3.05317 -5.28786 0
M  V30 1205 H 105.613 0.814929 -5.67478 0
M  V30 1206 H 104.01 0.0937929 -6.00027 0
M  V30 1207 H 105.08 -0.65921 -4.80398 0
M  V30 1208 N 106.423 1.57458 -0.0668435 0
M  V30 1209 C 107.67 1.93301 0.603406 0
M  V30 1210 C 107.998 0.946486 1.69917 0
M  V30 1211 O 107.253 -0.0387021 1.95662 0
M  V30 1212 C 107.552 3.35784 1.22409 0
M  V30 1213 C 107.218 4.50179 0.254955 0
M  V30 1214 C 105.88 4.81199 -0.0116746 0
M  V30 1215 C 108.232 5.19598 -0.408338 0
M  V30 1216 C 105.56 5.78978 -0.94877 0
M  V30 1217 C 107.912 6.18381 -1.33372 0
M  V30 1218 C 106.576 6.47821 -1.60887 0
M  V30 1219 H 105.846 0.707338 0.220802 0
M  V30 1220 H 108.493 1.91012 -0.136665 0
M  V30 1221 H 106.798 3.34515 2.03978 0
M  V30 1222 H 108.495 3.60804 1.74989 0
M  V30 1223 H 105.085 4.25983 0.472954 0
M  V30 1224 H 109.269 4.95832 -0.215456 0
M  V30 1225 H 104.525 6.00115 -1.16925 0
M  V30 1226 H 108.699 6.71277 -1.85367 0
M  V30 1227 H 106.326 7.23399 -2.33661 0
M  V30 1228 N 107.901 -0.206675 1.56239 0
M  V30 1229 C 109.15 -0.926964 1.79138 0
M  V30 1230 C 109.463 -1.84901 0.638043 0
M  V30 1231 O 110.669 -2.60906 0.751033 0
M  V30 1232 C 109.125 -1.6986 3.17294 0
M  V30 1233 C 108.733 -0.821956 4.40395 0
M  V30 1234 C 110.477 -2.40922 3.4951 0
M  V30 1235 C 108.384 -1.59179 5.69575 0
M  V30 1236 H 107.314 -0.349864 0.667915 0
M  V30 1237 H 109.965 -0.180487 1.8261 0
M  V30 1238 H 108.347 -2.48853 3.08039 0
M  V30 1239 H 109.521 -0.0715019 4.60745 0
M  V30 1240 H 107.836 -0.222741 4.15804 0
M  V30 1241 H 110.433 -2.99047 4.43255 0
M  V30 1242 H 110.776 -3.14542 2.72707 0
M  V30 1243 H 111.309 -1.68905 3.60161 0
M  V30 1244 H 108.048 -0.898589 6.49312 0
M  V30 1245 H 107.568 -2.31648 5.53262 0
M  V30 1246 H 109.247 -2.14862 6.10281 0
M  V30 1247 N 109.379 -1.50304 -0.473955 0
M  V30 1248 C 110.604 -1.65175 -1.25427 0
M  V30 1249 C 111.029 -0.333673 -1.85117 0
M  V30 1250 O 110.387 0.702114 -1.67153 0
M  V30 1251 C 110.435 -2.74295 -2.34082 0
M  V30 1252 O 109.539 -2.35349 -3.38651 0
M  V30 1253 H 108.88 -0.551944 -0.369126 0
M  V30 1254 H 111.41 -1.96662 -0.564364 0
M  V30 1255 H 111.42 -2.97285 -2.79438 0
M  V30 1256 H 110.095 -3.69959 -1.90008 0
M  V30 1257 H 108.672 -2.22794 -2.99027 0
M  V30 1258 N 110.857 0.726932 -1.39834 0
M  V30 1259 C 112.097 1.4992 -1.38936 0
M  V30 1260 C 112.461 1.91996 0.0126883 0
M  V30 1261 O 113.662 2.68399 0.146715 0
M  V30 1262 C 111.933 2.70013 -2.34153 0
M  V30 1263 S 113.492 3.59563 -2.51515 0
M  V30 1264 H 110.31 0.51271 -0.492595 0
M  V30 1265 H 112.912 0.85107 -1.76003 0
M  V30 1266 H 111.616 2.37254 -3.34871 0
M  V30 1267 H 111.147 3.39748 -1.98331 0
M  V30 1268 H 113.162 4.63973 -1.75909 0
M  V30 1269 N 112.336 1.25143 0.95797 0
M  V30 1270 C 113.266 1.07711 2.07173 0
M  V30 1271 C 114.247 -0.0128462 1.70095 0
M  V30 1272 O 115.432 0.156061 1.93572 0
M  V30 1273 C 112.562 0.691503 3.40346 0
M  V30 1274 C 111.516 1.73132 3.9142 0
M  V30 1275 C 110.842 1.20049 5.21049 0
M  V30 1276 C 112.142 3.1294 4.1817 0
M  V30 1277 H 113.836 2.00873 2.22014 0
M  V30 1278 H 111.382 0.967191 1.06684 0
M  V30 1279 H 113.335 0.556505 4.17709 0
M  V30 1280 H 112.059 -0.275819 3.25433 0
M  V30 1281 H 110.718 1.8547 3.16222 0
M  V30 1282 H 110.366 0.223499 5.02503 0
M  V30 1283 H 110.066 1.89545 5.56189 0
M  V30 1284 H 111.59 1.07782 6.01012 0
M  V30 1285 H 113.004 3.03775 4.86203 0
M  V30 1286 H 111.401 3.79875 4.64559 0
M  V30 1287 H 112.471 3.6025 3.24573 0
M  V30 1288 N 113.814 -1.1601 1.06675 0
M  V30 1289 C 114.724 -2.24156 0.692179 0
M  V30 1290 C 115.74 -1.71507 -0.293513 0
M  V30 1291 O 116.916 -2.009 -0.141861 0
M  V30 1292 C 113.981 -3.46587 0.0884131 0
M  V30 1293 C 113.042 -4.14257 1.12646 0
M  V30 1294 C 112.275 -5.30844 0.551416 0
M  V30 1295 O 112.498 -5.66858 -0.634656 0
M  V30 1296 O 111.432 -5.87848 1.29298 0
M  V30 1297 H 115.258 -2.58513 1.59388 0
M  V30 1298 H 112.843 -1.23599 0.83926 0
M  V30 1299 H 114.725 -4.20679 -0.246361 0
M  V30 1300 H 113.4 -3.13994 -0.786712 0
M  V30 1301 H 112.307 -3.42118 1.51348 0
M  V30 1302 H 113.64 -4.50914 1.97325 0
M  V30 1303 N 115.292 -0.849877 -1.32721 0
M  V30 1304 C 116.569 -0.372405 -1.92022 0
M  V30 1305 C 116.949 1.1435 -1.77447 0
M  V30 1306 O 116.297 1.96296 -1.16962 0
M  V30 1307 C 116.507 -0.831482 -3.3895 0
M  V30 1308 C 117.855 -0.845882 -4.16089 0
M  V30 1309 O 118.879 -0.775806 -3.47649 0
M  V30 1310 O 117.738 -0.943753 -5.38289 0
M  V30 1311 H 114.832 -0.107667 -0.819961 0
M  V30 1312 H 117.378 -0.93646 -1.41522 0
M  V30 1313 H 116.15 -1.87448 -3.4348 0
M  V30 1314 H 115.773 -0.24461 -3.96847 0
M  V30 1315 N 116.77 1.45427 -0.607355 0
M  V30 1316 C 117.998 2.06614 -0.108814 0
M  V30 1317 C 118.413 1.45204 1.2067 0
M  V30 1318 O 117.77 0.566132 1.73497 0
M  V30 1319 C 117.821 3.61481 0.0375347 0
M  V30 1320 O 117.542 4.20598 -1.22593 0
M  V30 1321 C 119.043 4.39652 0.567561 0
M  V30 1322 H 116.263 0.66747 -0.0687351 0
M  V30 1323 H 118.807 1.86675 -0.835022 0
M  V30 1324 H 116.962 3.80762 0.714068 0
M  V30 1325 H 117.376 5.1377 -1.05547 0
M  V30 1326 H 118.85 5.48518 0.61905 0
M  V30 1327 H 119.327 4.09417 1.58978 0
M  V30 1328 H 119.933 4.25234 -0.0749202 0
M  V30 1329 N 118.248 0.346503 1.53744 0
M  V30 1330 C 119.496 -0.248612 2.00565 0
M  V30 1331 C 119.817 -1.5083 1.23593 0
M  V30 1332 O 119.087 -1.92858 0.343912 0
M  V30 1333 H 117.667 -0.0948564 0.740953 0
M  V30 1334 H 120.329 0.468341 1.89189 0
M  V30 1335 H 119.425 -0.488994 3.08245 0
M  V30 1336 N 119.726 -1.57421 0.075193 0
M  V30 1337 C 120.658 -2.09904 -0.920483 0
M  V30 1338 C 121.671 -1.03191 -1.25918 0
M  V30 1339 O 122.86 -1.30695 -1.21577 0
M  V30 1340 C 119.96 -2.54726 -2.23534 0
M  V30 1341 C 119.133 -3.8505 -2.07498 0
M  V30 1342 C 118.192 -4.15929 -3.22319 0
M  V30 1343 O 117.218 -4.85474 -2.9716 0
M  V30 1344 N 118.42 -3.69745 -4.47514 0
M  V30 1345 H 121.185 -2.95954 -0.472359 0
M  V30 1346 H 118.746 -1.61523 -0.110444 0
M  V30 1347 H 120.738 -2.72443 -2.9926 0
M  V30 1348 H 119.308 -1.73795 -2.59835 0
M  V30 1349 H 118.528 -3.76679 -1.16219 0
M  V30 1350 H 119.816 -4.70348 -1.94038 0
M  V30 1351 H 119.214 -3.13569 -4.7084 0
M  V30 1352 H 117.771 -3.92655 -5.20255 0
M  V30 1353 N 121.204 0.198386 -1.56346 0
M  V30 1354 C 122.481 0.944982 -1.71258 0
M  V30 1355 C 122.861 2.0151 -0.629048 0
M  V30 1356 O 122.209 2.25639 0.360473 0
M  V30 1357 C 122.419 1.5344 -3.1346 0
M  V30 1358 C 123.767 2.01778 -3.73591 0
M  V30 1359 O 124.791 1.63288 -3.16568 0
M  V30 1360 O 123.65 2.72594 -4.73661 0
M  V30 1361 H 120.744 0.442939 -0.69838 0
M  V30 1362 H 123.29 0.188342 -1.68652 0
M  V30 1363 H 122.062 0.762869 -3.83792 0
M  V30 1364 H 121.685 2.35596 -3.20282 0
M  V30 1365 N 122.682 1.50554 0.465978 0
M  V30 1366 C 123.615 1.64436 1.58227 0
M  V30 1367 C 124.593 0.492367 1.54966 0
M  V30 1368 O 125.777 0.712536 1.74514 0
M  V30 1369 C 122.904 1.63165 2.96808 0
M  V30 1370 C 121.95 2.83987 3.18204 0
M  V30 1371 S 122.783 4.45219 2.97557 0
M  V30 1372 C 123.939 4.46649 4.3847 0
M  V30 1373 H 124.172 2.58861 1.46213 0
M  V30 1374 H 121.705 1.3988 0.653678 0
M  V30 1375 H 123.663 1.63116 3.76701 0
M  V30 1376 H 122.324 0.69967 3.06208 0
M  V30 1377 H 121.517 2.79416 4.19455 0
M  V30 1378 H 121.119 2.81629 2.46092 0
M  V30 1379 H 123.411 4.20526 5.31191 0
M  V30 1380 H 124.354 5.48295 4.48082 0
M  V30 1381 H 124.762 3.76296 4.20787 0
M  V30 1382 N 124.16 -0.719506 1.40217 0
M  V30 1383 C 125.09 -1.8465 1.42922 0
M  V30 1384 C 126.071 -1.67599 0.29062 0
M  V30 1385 O 127.256 -1.87688 0.498677 0
M  V30 1386 C 124.386 -3.22565 1.28722 0
M  V30 1387 C 123.34 -3.54281 2.40144 0
M  V30 1388 C 122.666 -4.91298 2.11023 0
M  V30 1389 C 123.966 -3.55676 3.82481 0
M  V30 1390 H 125.66 -1.82644 2.37237 0
M  V30 1391 H 123.206 -0.877305 1.1419 0
M  V30 1392 H 125.159 -4.01095 1.29232 0
M  V30 1393 H 123.883 -3.25137 0.308811 0
M  V30 1394 H 122.542 -2.78088 2.38877 0
M  V30 1395 H 122.19 -4.90468 1.11582 0
M  V30 1396 H 121.89 -5.13485 2.8567 0
M  V30 1397 H 123.414 -5.72166 2.13209 0
M  V30 1398 H 124.828 -4.24254 3.85592 0
M  V30 1399 H 123.225 -3.89388 4.56614 0
M  V30 1400 H 124.295 -2.55144 4.12346 0
M  V30 1401 N 125.638 -1.25649 -0.95132 0
M  V30 1402 C 126.601 -1.06399 -2.03007 0
M  V30 1403 C 127.601 -0.0156794 -1.60792 0
M  V30 1404 O 128.791 -0.25817 -1.72276 0
M  V30 1405 C 125.923 -0.616184 -3.35285 0
M  V30 1406 H 127.116 -2.02164 -2.21517 0
M  V30 1407 H 124.669 -1.08103 -1.12887 0
M  V30 1408 H 125.404 0.343917 -3.22471 0
M  V30 1409 H 125.189 -1.37301 -3.67275 0
M  V30 1410 H 126.679 -0.503032 -4.14559 0
M  V30 1411 N 127.117 1.15442 -1.07289 0
M  V30 1412 C 128.342 1.90638 -0.816828 0
M  V30 1413 C 128.767 1.77445 0.624083 0
M  V30 1414 O 128.125 1.10671 1.43602 0
M  V30 1415 C 128.173 3.39008 -1.22906 0
M  V30 1416 O 127.277 4.10701 -0.373975 0
M  V30 1417 H 126.618 0.593555 -0.297638 0
M  V30 1418 H 129.148 1.46198 -1.43134 0
M  V30 1419 H 129.158 3.89801 -1.20497 0
M  V30 1420 H 127.833 3.47929 -2.27856 0
M  V30 1421 H 126.41 3.70046 -0.460499 0
M  V30 1422 N 128.595 0.856903 1.32268 0
M  V30 1423 C 129.842 0.461386 1.97174 0
M  V30 1424 C 130.17 -0.983491 1.67803 0
M  V30 1425 O 129.425 -1.70541 0.959903 0
M  V30 1426 C 129.724 0.649919 3.51441 0
M  V30 1427 C 129.39 2.0656 4.00804 0
M  V30 1428 C 128.052 2.45279 4.13995 0
M  V30 1429 C 130.404 2.98947 4.26943 0
M  V30 1430 C 127.732 3.75653 4.50668 0
M  V30 1431 C 130.084 4.28822 4.65075 0
M  V30 1432 C 128.748 4.67472 4.76472 0
M  V30 1433 H 128.018 0.168833 0.72151 0
M  V30 1434 H 130.665 1.08739 1.57633 0
M  V30 1435 H 128.97 -0.0593018 3.91755 0
M  V30 1436 H 130.667 0.32391 3.9969 0
M  V30 1437 H 127.257 1.75495 3.91024 0
M  V30 1438 H 131.441 2.70265 4.16258 0
M  V30 1439 H 126.697 4.05379 4.57688 0
M  V30 1440 H 130.871 5.0047 4.84255 0
M  V30 1441 H 128.498 5.68539 5.04646 0
M  V30 1442 N 130.073 -1.45103 0.615059 0
M  V30 1443 C 131.003 -2.33339 -0.0865619 0
M  V30 1444 C 131.984 -1.4727 -0.851209 0
M  V30 1445 O 133.169 -1.76026 -0.820281 0
M  V30 1446 C 130.299 -3.30095 -1.07956 0
M  V30 1447 C 129.253 -4.25858 -0.427628 0
M  V30 1448 C 128.579 -5.12361 -1.5294 0
M  V30 1449 C 129.879 -5.18165 0.655944 0
M  V30 1450 H 131.573 -2.92254 0.650224 0
M  V30 1451 H 129.119 -1.40532 0.314138 0
M  V30 1452 H 131.072 -3.90698 -1.57901 0
M  V30 1453 H 129.796 -2.69355 -1.84703 0
M  V30 1454 H 128.455 -3.66564 0.0510292 0
M  V30 1455 H 128.103 -4.47984 -2.28734 0
M  V30 1456 H 127.803 -5.77238 -1.09865 0
M  V30 1457 H 129.327 -5.75833 -2.03098 0
M  V30 1458 H 130.741 -5.72796 0.240257 0
M  V30 1459 H 129.138 -5.91559 1.00888 0
M  V30 1460 H 130.208 -4.60144 1.52957 0
M  V30 1461 N 131.551 -0.354651 -1.53558 0
M  V30 1462 C 132.967 -0.00315426 -1.596 0
M  V30 1463 C 133.167 1.47741 -1.37021 0
M  V30 1464 O 132.223 2.23759 -1.16996 0
M  V30 1465 C 133.536 -0.44929 -2.97325 0
M  V30 1466 C 135.084 -0.402578 -3.104 0
M  V30 1467 C 135.559 -0.824355 -4.5052 0
M  V30 1468 N 137.05 -0.778979 -4.56603 0
M  V30 1469 C 137.785 -1.07715 -5.63192 0
M  V30 1470 N 137.281 -1.44405 -6.77583 0
M  V30 1471 N 139.074 -1.00066 -5.53121 0
M  V30 1472 H 131.225 -1.31893 -1.66487 0
M  V30 1473 H 133.488 -0.538388 -0.780284 0
M  V30 1474 H 133.194 -1.48202 -3.1895 0
M  V30 1475 H 133.068 0.169772 -3.76818 0
M  V30 1476 H 135.455 0.621004 -2.88492 0
M  V30 1477 H 135.536 -1.05699 -2.32941 0
M  V30 1478 H 135.18 -1.846 -4.73165 0
M  V30 1479 H 135.11 -0.147304 -5.26394 0
M  V30 1480 H 137.601 -0.508528 -3.74463 0
M  V30 1481 H 137.914 -1.65612 -7.54846 0
M  V30 1482 H 136.259 -1.4826 -6.79002 0
M  V30 1483 H 139.45 -0.713293 -4.62633 0
M  V30 1484 H 139.623 -1.23638 -6.36096 0
M  V30 1485 N 133.029 1.57378 -0.0835403 0
M  V30 1486 C 134.257 1.98263 0.59157 0
M  V30 1487 C 134.672 0.962302 1.62435 0
M  V30 1488 O 134.029 -0.049581 1.82433 0
M  V30 1489 C 134.08 3.39214 1.24965 0
M  V30 1490 O 133.801 4.37339 0.258186 0
M  V30 1491 C 135.302 3.95038 2.01147 0
M  V30 1492 H 132.522 0.651773 0.159477 0
M  V30 1493 H 135.066 2.03878 -0.159415 0
M  V30 1494 H 133.221 3.34649 1.95164 0
M  V30 1495 H 133.635 5.19371 0.731734 0
M  V30 1496 H 135.109 4.95848 2.42567 0
M  V30 1497 H 135.586 3.32222 2.87272 0
M  V30 1498 H 136.192 4.0304 1.35789 0
M  V30 1499 N 134.507 -0.190092 1.56449 0
M  V30 1500 C 135.455 -1.25501 1.95837 0
M  V30 1501 C 136.449 -1.4685 0.844485 0
M  V30 1502 O 137.655 -1.47651 1.02952 0
M  V30 1503 H 134.03 -0.421447 0.622805 0
M  V30 1504 H 136.001 -0.895821 2.84636 0
M  V30 1505 C 134.75 -2.59124 2.31841 0
M  V30 1506 H 134.073 -2.43514 3.17082 0
M  V30 1507 H 135.513 -3.32371 2.6326 0
M  V30 1508 C 133.972 -3.16488 1.15486 0
M  V30 1509 O 134.502 -3.99365 0.432535 0
M  V30 1510 N 132.708 -2.75305 0.930349 0
M  V30 1511 H 132.255 -2.08013 1.51948 0
M  V30 1512 H 132.213 -3.14024 0.153634 0
M  V30 1513 N 135.985 -1.50799 -0.457987 0
M  V30 1514 C 137.401 -1.38515 -0.792819 0
M  V30 1515 C 137.601 -0.451409 -1.96379 0
M  V30 1516 O 136.657 0.10112 -2.52297 0
M  V30 1517 C 137.97 -2.80149 -1.09258 0
M  V30 1518 C 139.518 -2.89156 -1.19825 0
M  V30 1519 C 139.993 -4.31651 -1.53106 0
M  V30 1520 N 141.484 -4.34662 -1.60072 0
M  V30 1521 C 142.219 -5.41928 -1.87354 0
M  V30 1522 N 141.715 -6.59384 -2.12568 0
M  V30 1523 N 143.508 -5.29385 -1.88965 0
M  V30 1524 H 135.659 -2.10073 0.313511 0
M  V30 1525 H 137.922 -0.944803 0.0777862 0
M  V30 1526 H 137.628 -3.50374 -0.305084 0
M  V30 1527 H 137.502 -3.18204 -2.02549 0
M  V30 1528 H 139.889 -2.19141 -1.97639 0
M  V30 1529 H 139.97 -2.54626 -0.244821 0
M  V30 1530 H 139.614 -5.02208 -0.758266 0
M  V30 1531 H 139.544 -4.63678 -2.49621 0
M  V30 1532 H 142.035 -3.49973 -1.42573 0
M  V30 1533 H 142.348 -7.36934 -2.32696 0
M  V30 1534 H 140.693 -6.62535 -2.09933 0
M  V30 1535 H 143.884 -4.36616 -1.68772 0
M  V30 1536 H 144.057 -6.13066 -2.09891 0
M  V30 1537 N 137.463 0.71206 -1.40597 0
M  V30 1538 C 138.395 1.83704 -1.37061 0
M  V30 1539 C 139.408 1.60453 -0.275426 0
M  V30 1540 O 140.597 1.70262 -0.53602 0
M  V30 1541 C 137.697 3.20172 -1.11099 0
M  V30 1542 C 136.87 3.7059 -2.3234 0
M  V30 1543 C 135.929 4.85681 -2.02485 0
M  V30 1544 O 134.955 4.9815 -2.75382 0
M  V30 1545 N 136.157 5.71735 -1.00497 0
M  V30 1546 H 138.922 1.87235 -2.34016 0
M  V30 1547 H 136.483 0.893739 -1.34996 0
M  V30 1548 H 138.475 3.94768 -0.891064 0
M  V30 1549 H 137.045 3.11767 -0.227989 0
M  V30 1550 H 136.265 2.87085 -2.7014 0
M  V30 1551 H 137.553 4.01011 -3.13157 0
M  V30 1552 H 136.951 5.64275 -0.401298 0
M  V30 1553 H 135.508 6.463 -0.844942 0
M  V30 1554 N 138.941 1.26152 0.944643 0
M  V30 1555 C 139.904 1.07474 2.0244 0
M  V30 1556 C 140.904 0.0242064 1.60782 0
M  V30 1557 O 142.094 0.267302 1.72137 0
M  V30 1558 C 139.226 0.633956 3.34953 0
M  V30 1559 H 140.419 2.03336 2.20442 0
M  V30 1560 H 137.972 1.087 1.12312 0
M  V30 1561 H 138.707 -0.326811 3.22649 0
M  V30 1562 H 138.492 1.39247 3.66542 0
M  V30 1563 H 139.982 0.52501 4.14287 0
M  V30 1564 N 140.419 -1.14872 1.07899 0
M  V30 1565 C 141.382 -2.17986 0.708161 0
M  V30 1566 C 142.382 -1.58775 -0.25442 0
M  V30 1567 O 143.572 -1.74166 -0.034645 0
M  V30 1568 C 140.704 -3.40871 0.0446929 0
M  V30 1569 H 141.897 -2.52306 1.62116 0
M  V30 1570 H 139.45 -1.2943 0.876218 0
M  V30 1571 H 140.185 -3.12124 -0.880281 0
M  V30 1572 H 139.97 -3.8511 0.737091 0
M  V30 1573 H 141.46 -4.17121 -0.19991 0
M  V30 1574 N 141.898 -0.863906 -1.31812 0
M  V30 1575 C 142.845 -0.313303 -2.28664 0
M  V30 1576 C 143.815 0.584868 -1.55462 0
M  V30 1577 O 145 0.517805 -1.83639 0
M  V30 1578 C 142.14 0.48441 -3.41683 0
M  V30 1579 C 141.253 -0.440594 -4.29747 0
M  V30 1580 C 140.388 0.370652 -5.29905 0
M  V30 1581 C 139.427 -0.551164 -6.09613 0
M  V30 1582 N 138.564 0.223462 -7.01744 0
M  V30 1583 H 143.404 -1.14444 -2.75148 0
M  V30 1584 H 140.941 -0.575769 -1.35364 0
M  V30 1585 H 142.899 0.962627 -4.05943 0
M  V30 1586 H 141.529 1.28029 -2.96325 0
M  V30 1587 H 140.581 -1.03724 -3.65986 0
M  V30 1588 H 141.893 -1.14767 -4.85417 0
M  V30 1589 H 141.047 0.911638 -5.99812 0
M  V30 1590 H 139.786 1.11105 -4.74876 0
M  V30 1591 H 138.791 -1.10396 -5.38603 0
M  V30 1592 H 140.016 -1.29032 -6.66729 0
M  V30 1593 H 137.962 0.946787 -6.49132 0
M  V30 1594 H 137.879 -0.424399 -7.54808 0
M  V30 1595 H 139.147 0.745876 -7.75923 0
M  V30 1596 N 143.376 1.44774 -0.622745 0
M  V30 1597 C 144.306 2.33382 0.0741861 0
M  V30 1598 C 145.287 1.47719 0.843387 0
M  V30 1599 O 146.472 1.76458 0.810934 0
M  V30 1600 C 143.602 3.30663 1.06204 0
M  V30 1601 C 142.556 4.26079 0.405037 0
M  V30 1602 C 141.882 5.13165 1.5022 0
M  V30 1603 C 143.182 5.1781 -0.683414 0
M  V30 1604 H 144.876 2.91905 -0.665713 0
M  V30 1605 H 142.422 1.40363 -0.321587 0
M  V30 1606 H 144.375 3.9153 1.55827 0
M  V30 1607 H 143.099 2.70331 1.83272 0
M  V30 1608 H 141.758 3.66532 -0.0704683 0
M  V30 1609 H 141.406 4.49191 2.26355 0
M  V30 1610 H 141.106 5.77812 1.06803 0
M  V30 1611 H 142.63 5.76902 2.00041 0
M  V30 1612 H 144.044 5.72661 -0.270631 0
M  V30 1613 H 142.441 5.91015 -1.04023 0
M  V30 1614 H 143.511 4.59326 -1.55395 0
M  V30 1615 N 144.854 0.36279 1.53368 0
M  V30 1616 C 146.079 -0.231226 2.06107 0
M  V30 1617 C 146.504 -1.419 1.23474 0
M  V30 1618 O 145.862 -1.79524 0.253128 0
M  V30 1619 C 145.91 -0.605523 3.5548 0
M  V30 1620 O 145.014 -1.70312 3.7559 0
M  V30 1621 H 144.355 -0.034327 0.663112 0
M  V30 1622 H 146.885 0.522584 1.97814 0
M  V30 1623 H 146.895 -0.877314 3.98456 0
M  V30 1624 H 145.57 0.263004 4.15068 0
M  V30 1625 H 144.147 -1.4271 3.44512 0
M  V30 1626 N 146.332 -1.57332 0.0918853 0
M  V30 1627 C 147.279 -2.13847 -0.868211 0
M  V30 1628 C 148.249 -1.05618 -1.28196 0
M  V30 1629 O 149.434 -1.33387 -1.36427 0
M  V30 1630 C 146.574 -2.72062 -2.12312 0
M  V30 1631 C 145.687 -3.94514 -1.7602 0
M  V30 1632 C 144.822 -4.40903 -2.96273 0
M  V30 1633 C 143.861 -5.55953 -2.56092 0
M  V30 1634 N 142.998 -5.97209 -3.69169 0
M  V30 1635 H 147.838 -2.95575 -0.379406 0
M  V30 1636 H 145.375 -1.46048 -0.175606 0
M  V30 1637 H 147.333 -3.03931 -2.858 0
M  V30 1638 H 145.963 -1.93068 -2.58698 0
M  V30 1639 H 145.015 -3.68979 -0.925135 0
M  V30 1640 H 146.327 -4.7802 -1.42472 0
M  V30 1641 H 145.481 -4.74539 -3.78018 0
M  V30 1642 H 144.22 -3.56291 -3.33029 0
M  V30 1643 H 143.225 -5.21948 -1.72773 0
M  V30 1644 H 144.45 -6.42311 -2.20484 0
M  V30 1645 H 142.396 -5.15543 -4.05649 0
M  V30 1646 H 142.313 -6.75504 -3.39456 0
M  V30 1647 H 143.581 -6.35475 -4.51434 0
M  V30 1648 N 147.81 0.181792 -1.56548 0
M  V30 1649 C 149.221 0.745244 -1.71181 0
M  V30 1650 C 149.572 1.83262 -0.70068 0
M  V30 1651 O 148.697 2.15946 0.140154 0
M  V30 1652 C 149.292 1.35859 -3.10367 0
M  V30 1653 C 147.851 1.86898 -3.2672 0
M  V30 1654 C 146.998 0.743942 -2.67134 0
M  V30 1655 H 149.949 -0.0434661 -1.5864 0
M  V30 1656 H 149.97 2.22817 -3.08436 0
M  V30 1657 H 149.482 0.566948 -3.83937 0
M  V30 1658 H 147.583 2.68738 -2.5809 0
M  V30 1659 H 147.696 2.02162 -4.34359 0
M  V30 1660 H 146.06 1.16169 -2.26665 0
M  V30 1661 H 146.843 -0.035676 -3.43281 0
M  V30 1662 N 149.288 1.51039 0.449983 0
M  V30 1663 C 150.516 1.66869 1.2232 0
M  V30 1664 C 150.931 0.360727 1.85322 0
M  V30 1665 O 150.288 -0.659531 1.70166 0
M  V30 1666 C 150.339 2.77524 2.31652 0
M  V30 1667 O 150.06 4.03252 1.7123 0
M  V30 1668 C 151.561 3.04512 3.2216 0
M  V30 1669 H 148.781 0.560326 0.369155 0
M  V30 1670 H 151.325 1.97385 0.534719 0
M  V30 1671 H 149.48 2.49642 2.96239 0
M  V30 1672 H 149.894 4.64609 2.43389 0
M  V30 1673 H 151.368 3.85551 3.95038 0
M  V30 1674 H 151.845 2.16415 3.8218 0
M  V30 1675 H 152.451 3.34005 2.63288 0
M  V30 1676 N 150.766 -0.704594 1.40972 0
M  V30 1677 C 151.696 -1.83124 1.44872 0
M  V30 1678 C 152.677 -1.67281 0.30838 0
M  V30 1679 O 153.862 -1.87149 0.518556 0
M  V30 1680 C 150.992 -3.21181 1.32136 0
M  V30 1681 C 149.946 -3.51714 2.43888 0
M  V30 1682 C 149.272 -4.89032 2.16222 0
M  V30 1683 C 150.572 -3.516 3.86232 0
M  V30 1684 H 152.266 -1.80117 2.39161 0
M  V30 1685 H 149.812 -0.865145 1.15114 0
M  V30 1686 H 151.765 -3.99702 1.33479 0
M  V30 1687 H 150.489 -3.24791 0.343279 0
M  V30 1688 H 149.148 -2.75539 2.41813 0
M  V30 1689 H 148.796 -4.89256 1.16778 0
M  V30 1690 H 148.496 -5.10426 2.911 0
M  V30 1691 H 150.02 -5.69873 2.19265 0
M  V30 1692 H 151.434 -4.2014 3.9007 0
M  V30 1693 H 149.831 -3.84523 4.60719 0
M  V30 1694 H 150.901 -2.50757 4.15029 0
M  V30 1695 N 152.244 -1.26651 -0.937939 0
M  V30 1696 C 153.154 -1.10276 -2.07066 0
M  V30 1697 C 154.17 -0.0354197 -1.73964 0
M  V30 1698 O 155.346 -0.239816 -1.99967 0
M  V30 1699 C 152.411 -0.740887 -3.38691 0
M  V30 1700 C 151.472 -1.88799 -3.85556 0
M  V30 1701 C 150.705 -1.54329 -5.10899 0
M  V30 1702 O 150.928 -0.446494 -5.6865 0
M  V30 1703 O 149.862 -2.37911 -5.52885 0
M  V30 1704 H 153.688 -2.05309 -2.23789 0
M  V30 1705 H 151.273 -1.05743 -1.0554 0
M  V30 1706 H 153.155 -0.55195 -4.1777 0
M  V30 1707 H 151.83 0.180022 -3.23199 0
M  V30 1708 H 150.737 -2.13191 -3.07409 0
M  V30 1709 H 152.07 -2.78874 -4.05574 0
M  V30 1710 N 153.722 1.14298 -1.08507 0
M  V30 1711 C 154.67 2.21483 -0.710483 0
M  V30 1712 C 155.664 1.66998 0.284234 0
M  V30 1713 O 156.87 1.79401 0.146692 0
M  V30 1714 H 153.245 0.721578 -0.211729 0
M  V30 1715 H 155.216 2.50348 -1.62384 0
M  V30 1716 C 153.965 3.4743 -0.137007 0
M  V30 1717 H 153.288 3.89686 -0.893592 0
M  V30 1718 H 154.728 4.2391 0.0872789 0
M  V30 1719 C 153.187 3.17548 1.12538 0
M  V30 1720 O 153.717 3.35437 2.21009 0
M  V30 1721 N 151.923 2.71499 1.03617 0
M  V30 1722 H 151.47 2.57143 0.153403 0
M  V30 1723 H 151.428 2.51881 1.88158 0
M  V30 1724 N 155.201 0.870884 1.31352 0
M  V30 1725 C 156.131 0.343096 2.30966 0
M  V30 1726 C 157.112 -0.566507 1.60389 0
M  V30 1727 O 158.297 -0.483336 1.88089 0
M  V30 1728 C 155.427 -0.455487 3.443 0
M  V30 1729 C 154.381 0.361103 4.26474 0
M  V30 1730 C 153.707 -0.563221 5.31725 0
M  V30 1731 C 155.007 1.59566 4.97329 0
M  V30 1732 H 156.701 1.17548 2.75359 0
M  V30 1733 H 154.247 0.566686 1.32381 0
M  V30 1734 H 156.2 -0.83525 4.13039 0
M  V30 1735 H 154.924 -1.32139 2.98675 0
M  V30 1736 H 153.583 0.722825 3.59403 0
M  V30 1737 H 153.231 -1.42643 4.82351 0
M  V30 1738 H 152.931 -0.0207409 5.87596 0
M  V30 1739 H 154.455 -0.939808 6.03324 0
M  V30 1740 H 155.869 1.28728 5.58661 0
M  V30 1741 H 154.266 2.07728 5.63 0
M  V30 1742 H 155.336 2.34798 4.24262 0
M  V30 1743 N 156.679 -1.44442 0.630414 0
M  V30 1744 C 157.907 -2.06414 0.141671 0
M  V30 1745 C 158.322 -1.47105 -1.18345 0
M  V30 1746 O 157.679 -0.593662 -1.72574 0
M  V30 1747 C 157.73 -3.61494 0.0199784 0
M  V30 1748 O 157.451 -4.18594 1.29269 0
M  V30 1749 C 158.952 -4.40499 -0.497544 0
M  V30 1750 H 156.172 -0.666292 0.0793452 0
M  V30 1751 H 158.716 -1.85323 0.864614 0
M  V30 1752 H 156.871 -3.8185 -0.653402 0
M  V30 1753 H 157.285 -5.12026 1.13707 0
M  V30 1754 H 158.759 -5.49433 -0.531708 0
M  V30 1755 H 159.236 -4.11895 -1.52445 0
M  V30 1756 H 159.842 -4.25061 0.142562 0
M  V30 1757 N 158.157 -0.370918 -1.53173 0
M  V30 1758 C 159.568 0.107139 -1.86392 0
M  V30 1759 C 159.919 1.47714 -1.29132 0
M  V30 1760 O 159.044 2.07464 -0.615439 0
M  V30 1761 C 159.639 0.201187 -3.38202 0
M  V30 1762 C 158.198 0.623507 -3.712 0
M  V30 1763 C 157.345 -0.225978 -2.76378 0
M  V30 1764 H 160.296 -0.58951 -1.47345 0
M  V30 1765 H 160.317 1.02377 -3.66468 0
M  V30 1766 H 159.829 -0.796058 -3.79848 0
M  V30 1767 H 157.93 1.62879 -3.35114 0
M  V30 1768 H 158.043 0.394414 -4.77474 0
M  V30 1769 H 156.407 0.305962 -2.52856 0
M  V30 1770 H 157.19 -1.22086 -3.20858 0
M  V30 1771 N 159.635 1.57281 -0.100228 0
M  V30 1772 C 160.881 1.94826 0.563101 0
M  V30 1773 C 161.214 0.982475 1.67514 0
M  V30 1774 O 160.489 0.0164069 1.94493 0
M  V30 1775 C 160.772 3.42453 1.11346 0
M  V30 1776 C 160.625 4.498 0.00612081 0
M  V30 1777 C 161.944 3.91506 2.01024 0
M  V30 1778 H 159.063 0.708428 0.203221 0
M  V30 1779 H 161.705 1.8922 -0.171979 0
M  V30 1780 H 159.855 3.47361 1.7399 0
M  V30 1781 H 161.527 4.57 -0.628357 0
M  V30 1782 H 159.77 4.28756 -0.659581 0
M  V30 1783 H 160.441 5.50306 0.432109 0
M  V30 1784 H 162.917 3.88784 1.48278 0
M  V30 1785 H 161.793 4.95358 2.36457 0
M  V30 1786 H 162.054 3.31099 2.92961 0
M  V30 1787 N 161.113 -0.173488 1.56642 0
M  V30 1788 C 162.359 -0.891784 1.8214 0
M  V30 1789 C 162.692 -1.8199 0.677736 0
M  V30 1790 O 161.967 -1.91842 -0.320446 0
M  V30 1791 C 162.25 -1.68933 3.18015 0
M  V30 1792 C 162.103 -0.784487 4.42906 0
M  V30 1793 C 163.422 -2.65748 3.50808 0
M  V30 1794 H 160.541 -0.322761 0.662567 0
M  V30 1795 H 163.183 -0.158095 1.89341 0
M  V30 1796 H 161.333 -2.31482 3.12007 0
M  V30 1797 H 163.005 -0.172046 4.60979 0
M  V30 1798 H 161.248 -0.0924117 4.33702 0
M  V30 1799 H 161.919 -1.37799 5.34524 0
M  V30 1800 H 164.395 -2.13327 3.57255 0
M  V30 1801 H 163.271 -3.18619 4.4696 0
M  V30 1802 H 163.532 -3.45842 2.75401 0
M  V30 1803 N 162.591 -1.51276 -0.441967 0
M  V30 1804 C 163.521 -1.752 -1.54361 0
M  V30 1805 C 164.502 -0.601682 -1.59103 0
M  V30 1806 O 165.687 -0.843913 -1.74905 0
M  V30 1807 C 162.817 -1.87282 -2.92477 0
M  V30 1808 C 161.771 -3.02687 -3.02596 0
M  V30 1809 C 161.097 -2.99947 -4.42647 0
M  V30 1810 C 162.397 -4.4273 -2.77106 0
M  V30 1811 H 164.091 -2.67442 -1.34592 0
M  V30 1812 H 161.637 -1.28694 -0.646048 0
M  V30 1813 H 163.59 -2.02602 -3.695 0
M  V30 1814 H 162.314 -0.916844 -3.13467 0
M  V30 1815 H 160.973 -2.87065 -2.28012 0
M  V30 1816 H 160.621 -2.02136 -4.60597 0
M  V30 1817 H 160.321 -3.77439 -4.50348 0
M  V30 1818 H 161.845 -3.17354 -5.2165 0
M  V30 1819 H 163.259 -4.58727 -3.43864 0
M  V30 1820 H 161.656 -5.21893 -2.96222 0
M  V30 1821 H 162.726 -4.53087 -1.72744 0
M  V30 1822 N 164.069 0.697108 -1.41344 0
M  V30 1823 C 165.485 1.00751 -1.2378 0
M  V30 1824 C 165.685 2.01105 -0.126066 0
M  V30 1825 O 164.741 2.47295 0.51004 0
M  V30 1826 C 166.054 1.53359 -2.58653 0
M  V30 1827 C 167.602 1.6525 -2.65822 0
M  V30 1828 C 168.077 2.2126 -4.01009 0
M  V30 1829 N 169.568 2.28622 -4.02847 0
M  V30 1830 C 170.303 2.72984 -5.04249 0
M  V30 1831 N 169.799 3.16962 -6.16041 0
M  V30 1832 N 171.592 2.72534 -4.91611 0
M  V30 1833 H 163.743 0.0322662 -2.12375 0
M  V30 1834 H 166.006 0.0768853 -0.944877 0
M  V30 1835 H 165.712 0.870773 -3.4075 0
M  V30 1836 H 165.586 2.51597 -2.81032 0
M  V30 1837 H 167.973 2.30644 -1.84086 0
M  V30 1838 H 168.054 0.655614 -2.47256 0
M  V30 1839 H 167.698 1.56482 -4.83193 0
M  V30 1840 H 167.628 3.21698 -4.16915 0
M  V30 1841 H 170.119 1.97585 -3.22131 0
M  V30 1842 H 170.432 3.49434 -6.89287 0
M  V30 1843 H 168.777 3.14875 -6.1958 0
M  V30 1844 H 171.968 2.37525 -4.0336 0
M  V30 1845 H 172.141 3.06789 -5.70775 0
M  V30 1846 N 165.547 1.27147 0.931209 0
M  V30 1847 C 166.958 1.12044 1.49342 0
M  V30 1848 C 167.309 -0.295795 1.93957 0
M  V30 1849 O 166.434 -1.18835 1.80852 0
M  V30 1850 C 167.029 2.02781 2.71414 0
M  V30 1851 C 165.588 1.91794 3.2387 0
M  V30 1852 C 164.735 1.95543 1.96617 0
M  V30 1853 H 167.686 1.40091 0.745672 0
M  V30 1854 H 167.707 1.58156 3.46074 0
M  V30 1855 H 167.219 3.05848 2.38911 0
M  V30 1856 H 165.32 0.916992 3.6114 0
M  V30 1857 H 165.433 2.77852 3.90302 0
M  V30 1858 H 163.797 1.39722 2.12955 0
M  V30 1859 H 164.58 3.00259 1.66432 0
M  V30 1860 N 167.025 -1.13721 1.09112 0
M  V30 1861 C 167.935 -2.22638 0.73957 0
M  V30 1862 C 168.951 -1.72091 -0.257068 0
M  V30 1863 O 170.127 -2.01155 -0.0992154 0
M  V30 1864 C 167.192 -3.46322 0.16191 0
M  V30 1865 C 166.253 -4.11775 1.21408 0
M  V30 1866 C 165.486 -5.29555 0.663891 0
M  V30 1867 O 165.709 -5.68077 -0.514274 0
M  V30 1868 O 164.643 -5.84973 1.41738 0
M  V30 1869 H 168.469 -2.55074 1.64836 0
M  V30 1870 H 166.054 -1.21791 0.865289 0
M  V30 1871 H 167.936 -4.21107 -0.157073 0
M  V30 1872 H 166.611 -3.15593 -0.719932 0
M  V30 1873 H 165.518 -3.3883 1.58571 0
M  V30 1874 H 166.851 -4.46627 2.06845 0
M  V30 1875 N 168.503 -0.877838 -1.30888 0
M  V30 1876 C 169.752 -0.488793 -1.95688 0
M  V30 1877 C 170.065 0.965485 -1.70111 0
M  V30 1878 O 171.271 1.46104 -2.28836 0
M  V30 1879 C 169.727 -0.823201 -3.50359 0
M  V30 1880 C 169.335 -2.29477 -3.84765 0
M  V30 1881 C 171.079 -0.503009 -4.21509 0
M  V30 1882 C 168.986 -2.57118 -5.32583 0
M  V30 1883 H 167.916 -0.179062 -0.732429 0
M  V30 1884 H 170.567 -1.07183 -1.48943 0
M  V30 1885 H 168.949 -0.169331 -3.95638 0
M  V30 1886 H 170.123 -2.99236 -3.5042 0
M  V30 1887 H 168.438 -2.58178 -3.267 0
M  V30 1888 H 171.035 -0.68665 -5.30273 0
M  V30 1889 H 171.378 0.557109 -4.12555 0
M  V30 1890 H 171.911 -1.11376 -3.8189 0
M  V30 1891 H 168.65 -3.61843 -5.4658 0
M  V30 1892 H 168.17 -1.91961 -5.68253 0
M  V30 1893 H 169.849 -2.42251 -5.99936 0
M  V30 1894 N 169.982 1.44106 -0.638065 0
M  V30 1895 C 171.398 1.56672 -0.304286 0
M  V30 1896 C 171.598 1.6244 1.19228 0
M  V30 1897 O 170.654 1.57121 1.9766 0
M  V30 1898 C 171.967 2.83503 -1.00231 0
M  V30 1899 C 173.515 2.97226 -0.981116 0
M  V30 1900 C 173.99 4.26868 -1.65974 0
M  V30 1901 N 175.481 4.33698 -1.62666 0
M  V30 1902 C 176.216 5.32745 -2.12063 0
M  V30 1903 N 175.712 6.38157 -2.6968 0
M  V30 1904 N 177.505 5.24299 -2.02651 0
M  V30 1905 H 169.656 1.38605 -1.60942 0
M  V30 1906 H 171.919 0.664661 -0.675965 0
M  V30 1907 H 171.625 2.85251 -2.0573 0
M  V30 1908 H 171.499 3.73251 -0.54439 0
M  V30 1909 H 173.886 2.95027 0.0654188 0
M  V30 1910 H 173.967 2.08808 -1.47759 0
M  V30 1911 H 173.611 4.29826 -2.70576 0
M  V30 1912 H 173.541 5.14156 -1.13804 0
M  V30 1913 H 176.032 3.58138 -1.20606 0
M  V30 1914 H 176.345 7.10029 -3.05087 0
M  V30 1915 H 174.69 6.38823 -2.73734 0
M  V30 1916 H 177.881 4.4086 -1.57353 0
M  V30 1917 H 178.054 6.01334 -2.41457 0
M  V30 1918 N 171.46 0.379036 1.52974 0
M  V30 1919 C 172.407 -0.461048 2.26148 0
M  V30 1920 C 173.377 -1.06637 1.27349 0
M  V30 1921 O 174.562 -1.09633 1.56157 0
M  V30 1922 C 171.702 -1.58782 3.06402 0
M  V30 1923 C 170.815 -1.00636 4.20115 0
M  V30 1924 C 169.95 -2.10334 4.87784 0
M  V30 1925 C 168.989 -1.49724 5.93506 0
M  V30 1926 N 168.126 -2.5331 6.54812 0
M  V30 1927 H 172.966 0.169429 2.97518 0
M  V30 1928 H 170.503 0.0953806 1.4679 0
M  V30 1929 H 172.461 -2.25174 3.51215 0
M  V30 1930 H 171.091 -2.18876 2.37261 0
M  V30 1931 H 170.143 -0.232332 3.7969 0
M  V30 1932 H 171.455 -0.523343 4.96047 0
M  V30 1933 H 170.609 -2.84519 5.35849 0
M  V30 1934 H 169.348 -2.61992 4.11353 0
M  V30 1935 H 168.353 -0.740598 5.44789 0
M  V30 1936 H 169.578 -0.988732 6.71864 0
M  V30 1937 H 167.524 -3.04156 5.81227 0
M  V30 1938 H 167.441 -2.09734 7.26325 0
M  V30 1939 H 168.709 -3.27155 7.07524 0
M  V30 1940 N 172.938 -1.57226 0.108567 0
M  V30 1941 C 174.349 -1.8195 -0.418464 0
M  V30 1942 C 174.7 -1.02508 -1.67292 0
M  V30 1943 O 173.825 -0.258496 -2.14851 0
M  V30 1944 C 174.42 -3.30028 -0.765979 0
M  V30 1945 C 172.979 -3.55469 -1.23769 0
M  V30 1946 C 172.126 -2.7625 -0.241106 0
M  V30 1947 H 175.077 -1.55149 0.33384 0
M  V30 1948 H 175.098 -3.44086 -1.62434 0
M  V30 1949 H 174.61 -3.87821 0.147219 0
M  V30 1950 H 172.711 -3.03022 -2.16814 0
M  V30 1951 H 172.824 -4.6408 -1.19022 0
M  V30 1952 H 171.188 -2.44133 -0.72602 0
M  V30 1953 H 171.971 -3.36797 0.665007 0
M  V30 1954 N 174.416 0.165178 -1.56732 0
M  V30 1955 C 175.326 1.22423 -2.00125 0
M  V30 1956 C 176.342 1.48084 -0.913619 0
M  V30 1957 O 177.518 1.60112 -1.22172 0
M  V30 1958 C 174.583 2.54197 -2.35764 0
M  V30 1959 C 173.644 2.36343 -3.58386 0
M  V30 1960 C 172.877 3.61834 -3.92316 0
M  V30 1961 O 173.1 4.67267 -3.27135 0
M  V30 1962 O 172.034 3.55579 -4.85641 0
M  V30 1963 H 175.86 0.885886 -2.90492 0
M  V30 1964 H 173.445 0.372518 -1.44681 0
M  V30 1965 H 175.327 3.3192 -2.59629 0
M  V30 1966 H 174.002 2.87598 -1.48557 0
M  V30 1967 H 172.909 1.56632 -3.39731 0
M  V30 1968 H 174.242 2.07865 -4.46154 0
M  V30 1969 N 175.894 1.51508 0.433938 0
M  V30 1970 C 177.14 1.64588 1.18484 0
M  V30 1971 C 177.473 0.362666 1.90784 0
M  V30 1972 O 176.748 -0.637892 1.83742 0
M  V30 1973 C 177.031 2.85149 2.19913 0
M  V30 1974 C 176.884 4.23456 1.51674 0
M  V30 1975 C 178.203 3.01227 3.20858 0
M  V30 1976 H 175.322 0.598994 0.429389 0
M  V30 1977 H 177.964 1.84002 0.473647 0
M  V30 1978 H 176.114 2.68729 2.80566 0
M  V30 1979 H 177.786 4.51552 0.943322 0
M  V30 1980 H 176.029 4.25998 0.819035 0
M  V30 1981 H 176.7 5.03812 2.2556 0
M  V30 1982 H 179.176 3.16382 2.70263 0
M  V30 1983 H 178.052 3.87141 3.89118 0
M  V30 1984 H 178.313 2.13447 3.8716 0
M  V30 1985 N 177.372 -0.689602 1.41712 0
M  V30 1986 C 178.302 -1.81577 1.46806 0
M  V30 1987 C 179.283 -1.66945 0.326105 0
M  V30 1988 O 180.468 -1.86588 0.538377 0
M  V30 1989 C 177.598 -3.19762 1.35535 0
M  V30 1990 C 176.552 -3.49107 2.47605 0
M  V30 1991 C 175.878 -4.86711 2.21397 0
M  V30 1992 C 177.178 -3.47483 3.89939 0
M  V30 1993 H 178.872 -1.7757 2.41058 0
M  V30 1994 H 176.418 -0.852887 1.16025 0
M  V30 1995 H 178.371 -3.98263 1.3771 0
M  V30 1996 H 177.095 -3.24409 0.377708 0
M  V30 1997 H 175.754 -2.72959 2.44722 0
M  V30 1998 H 175.402 -4.8799 1.21961 0
M  V30 1999 H 175.102 -5.0731 2.96497 0
M  V30 2000 H 176.626 -5.67515 2.25297 0
M  V30 2001 H 178.04 -4.1598 3.94505 0
M  V30 2002 H 176.437 -3.79615 4.64771 0
M  V30 2003 H 177.507 -2.46341 4.17665 0
M  V30 2004 N 178.85 -1.27639 -0.924453 0
M  V30 2005 C 180.266 -1.05113 -1.20097 0
M  V30 2006 C 180.466 0.213262 -2.00368 0
M  V30 2007 O 179.522 0.91787 -2.35226 0
M  V30 2008 C 180.835 -2.29244 -1.94596 0
M  V30 2009 C 182.383 -2.34315 -2.07522 0
M  V30 2010 C 182.858 -3.58183 -2.85427 0
M  V30 2011 N 184.349 -3.5876 -2.92994 0
M  V30 2012 C 185.084 -4.51277 -3.53746 0
M  V30 2013 N 184.58 -5.54102 -4.15863 0
M  V30 2014 N 186.373 -4.38894 -3.51181 0
M  V30 2015 H 178.524 -2.08821 -0.388264 0
M  V30 2016 H 180.787 -0.918568 -0.234385 0
M  V30 2017 H 180.493 -3.21301 -1.43034 0
M  V30 2018 H 180.367 -2.34816 -2.95197 0
M  V30 2019 H 182.754 -1.42762 -2.58269 0
M  V30 2020 H 182.835 -2.32744 -1.06131 0
M  V30 2021 H 182.479 -4.50074 -2.35363 0
M  V30 2022 H 182.409 -3.57006 -3.8711 0
M  V30 2023 H 184.9 -2.84398 -2.4885 0
M  V30 2024 H 185.213 -6.20859 -4.60168 0
M  V30 2025 H 183.558 -5.57941 -4.144 0
M  V30 2026 H 186.749 -3.57772 -3.01856 0
M  V30 2027 H 186.922 -5.11186 -3.98237 0
M  V30 2028 N 180.328 1.1314 -1.09713 0
M  V30 2029 C 181.739 1.66029 -0.853885 0
M  V30 2030 C 182.09 1.86241 0.617142 0
M  V30 2031 O 181.215 1.5834 1.47503 0
M  V30 2032 C 181.81 3.01599 -1.5435 0
M  V30 2033 C 180.369 3.51467 -1.34714 0
M  V30 2034 C 179.516 2.26648 -1.59769 0
M  V30 2035 H 182.467 0.970226 -1.25588 0
M  V30 2036 H 182.488 3.67709 -0.978267 0
M  V30 2037 H 182 2.86856 -2.6141 0
M  V30 2038 H 180.101 3.71408 -0.297838 0
M  V30 2039 H 180.214 4.314 -2.08401 0
M  V30 2040 H 178.578 2.33385 -1.01998 0
M  V30 2041 H 179.361 2.14467 -2.68065 0
M  V30 2042 N 181.806 0.884767 1.30421 0
M  V30 2043 C 182.716 0.355398 2.31892 0
M  V30 2044 C 183.732 -0.542261 1.65335 0
M  V30 2045 O 184.908 -0.435432 1.96637 0
M  V30 2046 C 181.973 -0.421661 3.44126 0
M  V30 2047 C 181.034 0.505727 4.26311 0
M  V30 2048 C 180.267 -0.234343 5.33185 0
M  V30 2049 O 180.49 -1.46045 5.51386 0
M  V30 2050 O 179.424 0.415443 6.00465 0
M  V30 2051 H 183.25 1.19685 2.79122 0
M  V30 2052 H 180.835 0.648596 1.34587 0
M  V30 2053 H 182.717 -0.861641 4.12497 0
M  V30 2054 H 181.392 -1.23942 2.99032 0
M  V30 2055 H 180.299 0.994513 3.60639 0
M  V30 2056 H 181.632 1.28948 4.75009 0
M  V30 2057 N 183.284 -1.43765 0.645699 0
M  V30 2058 C 184.512 -2.06253 0.163556 0
M  V30 2059 C 184.927 -1.48352 -1.16778 0
M  V30 2060 O 184.284 -0.611932 -1.71935 0
M  V30 2061 C 184.335 -3.61453 0.0583186 0
M  V30 2062 O 184.056 -4.172 1.33702 0
M  V30 2063 C 185.557 -4.41002 -0.450795 0
M  V30 2064 H 182.777 -0.665413 0.0864077 0
M  V30 2065 H 185.321 -1.84396 0.884222 0
M  V30 2066 H 183.476 -3.82522 -0.612865 0
M  V30 2067 H 183.89 -5.10791 1.19131 0
M  V30 2068 H 185.364 -5.49966 -0.473403 0
M  V30 2069 H 185.841 -4.13488 -1.48068 0
M  V30 2070 H 186.447 -4.24886 0.187637 0
M  V30 2071 N 184.763 -0.387143 -1.52771 0
M  V30 2072 C 186.174 0.0873634 -1.86495 0
M  V30 2073 C 186.525 1.46336 -1.30691 0
M  V30 2074 O 185.65 2.068 -0.637409 0
M  V30 2075 C 186.245 0.165305 -3.38396 0
M  V30 2076 C 184.804 0.584101 -3.7184 0
M  V30 2077 C 183.951 -0.255279 -2.76122 0
M  V30 2078 H 186.902 -0.605104 -1.46711 0
M  V30 2079 H 186.923 0.984848 -3.67534 0
M  V30 2080 H 186.435 -0.836301 -3.78982 0
M  V30 2081 H 184.536 1.59315 -3.36823 0
M  V30 2082 H 184.649 0.343749 -4.77865 0
M  V30 2083 H 183.013 0.279126 -2.53166 0
M  V30 2084 H 183.796 -1.25482 -3.19545 0
M  V30 2085 N 186.241 1.57166 -0.116904 0
M  V30 2086 C 187.657 1.5779 0.239693 0
M  V30 2087 C 187.857 1.1295 1.66867 0
M  V30 2088 O 186.913 0.81592 2.38954 0
M  V30 2089 C 188.226 3.00699 0.00828202 0
M  V30 2090 C 189.774 3.12912 0.0743438 0
M  V30 2091 C 190.249 4.57817 -0.129348 0
M  V30 2092 N 191.74 4.63139 -0.075247 0
M  V30 2093 C 192.475 5.73023 -0.207788 0
M  V30 2094 N 191.971 6.91665 -0.396382 0
M  V30 2095 N 193.764 5.61906 -0.14751 0
M  V30 2096 H 185.915 1.84615 -1.05029 0
M  V30 2097 H 188.178 0.85311 -0.41341 0
M  V30 2098 H 187.884 3.37784 -0.979531 0
M  V30 2099 H 187.758 3.69848 0.741077 0
M  V30 2100 H 190.145 2.75686 1.05268 0
M  V30 2101 H 190.226 2.4631 -0.690297 0
M  V30 2102 H 189.87 4.95742 -1.10465 0
M  V30 2103 H 189.8 5.22507 0.655253 0
M  V30 2104 H 192.291 3.7784 0.0670898 0
M  V30 2105 H 192.604 7.71255 -0.488437 0
M  V30 2106 H 190.949 6.93654 -0.432329 0
M  V30 2107 H 194.14 4.681 -0.00115036 0
M  V30 2108 H 194.313 6.47501 -0.254247 0
M  V30 2109 N 187.719 -0.156864 1.56817 0
M  V30 2110 C 189.13 -0.717916 1.72345 0
M  V30 2111 C 189.481 -1.82124 0.729747 0
M  V30 2112 O 188.606 -2.16141 -0.105781 0
M  V30 2113 C 189.201 -1.30904 3.12489 0
M  V30 2114 C 187.76 -1.81676 3.29653 0
M  V30 2115 C 186.907 -0.701349 2.68284 0
M  V30 2116 H 189.858 0.0686989 1.58551 0
M  V30 2117 H 189.879 -2.17882 3.11942 0
M  V30 2118 H 189.391 -0.505796 3.8479 0
M  V30 2119 H 187.492 -2.64598 2.62333 0
M  V30 2120 H 187.605 -1.95226 4.3752 0
M  V30 2121 H 185.969 -1.12548 2.28484 0
M  V30 2122 H 186.752 0.0902846 3.43181 0
M  V30 2123 N 189.197 -1.51736 -0.425897 0
M  V30 2124 C 190.443 -1.65214 -1.1761 0
M  V30 2125 C 190.776 -0.372778 -1.90589 0
M  V30 2126 O 190.051 0.628139 -1.84078 0
M  V30 2127 C 190.334 -2.86312 -2.18398 0
M  V30 2128 C 190.187 -4.24254 -1.49426 0
M  V30 2129 C 191.506 -3.02925 -3.19256 0
M  V30 2130 H 188.625 -0.601263 -0.426206 0
M  V30 2131 H 191.267 -1.8425 -0.463882 0
M  V30 2132 H 189.417 -2.70213 -2.79137 0
M  V30 2133 H 191.089 -4.52046 -0.919362 0
M  V30 2134 H 189.332 -4.26426 -0.796432 0
M  V30 2135 H 190.003 -5.05001 -2.22885 0
M  V30 2136 H 192.479 -3.1781 -2.68581 0
M  V30 2137 H 191.355 -3.89199 -3.8706 0
M  V30 2138 H 191.616 -2.15497 -3.86023 0
M  V30 2139 N 190.675 0.682077 -1.42076 0
M  V30 2140 C 191.952 1.43755 -1.32642 0
M  V30 2141 C 192.332 2.11063 0.0396611 0
M  V30 2142 O 191.68 2.02701 1.05474 0
M  V30 2143 C 191.89 2.44596 -2.48946 0
M  V30 2144 C 193.238 3.09454 -2.9073 0
M  V30 2145 O 194.262 2.54922 -2.48783 0
M  V30 2146 O 193.121 4.08253 -3.63307 0
M  V30 2147 H 190.215 0.640857 -0.522715 0
M  V30 2148 H 192.761 0.711415 -1.54068 0
M  V30 2149 H 191.533 1.93609 -3.40046 0
M  V30 2150 H 191.156 3.24701 -2.29467 0
M  V30 2151 N 192.153 1.28127 0.917671 0
M  V30 2152 C 193.402 1.14432 1.66097 0
M  V30 2153 C 193.715 -0.307247 1.93172 0
M  V30 2154 O 194.921 -0.565259 2.65551 0
M  V30 2155 C 193.377 2.00015 2.99202 0
M  V30 2156 C 192.985 3.49889 2.79789 0
M  V30 2157 C 194.729 1.94996 3.77064 0
M  V30 2158 C 192.636 4.27636 4.08511 0
M  V30 2159 H 191.566 0.424662 0.62304 0
M  V30 2160 H 194.217 1.52628 1.01868 0
M  V30 2161 H 192.599 1.54672 3.64544 0
M  V30 2162 H 193.773 4.03162 2.23152 0
M  V30 2163 H 192.088 3.56392 2.15345 0
M  V30 2164 H 194.685 2.50354 4.72469 0
M  V30 2165 H 195.028 0.925819 4.05875 0
M  V30 2166 H 195.561 2.38287 3.18534 0
M  V30 2167 H 192.3 5.30615 3.84874 0
M  V30 2168 H 191.82 3.79137 4.64774 0
M  V30 2169 H 193.499 4.37346 4.76799 0
M  V30 2170 N 193.631 -1.12557 1.10312 0
M  V30 2171 C 194.879 -1.83675 0.843091 0
M  V30 2172 C 195.2 -1.84435 -0.633131 0
M  V30 2173 O 194.47 -1.30657 -1.45964 0
M  V30 2174 H 193.05 -0.680138 0.308904 0
M  V30 2175 H 195.712 -1.36301 1.39313 0
M  V30 2176 H 194.808 -2.87908 1.2048 0
M  V30 2177 N 195.109 -0.891671 -1.2995 0
M  V30 2178 C 196.334 -0.527932 -2.00568 0
M  V30 2179 C 196.759 0.877969 -1.66353 0
M  V30 2180 O 196.117 1.58301 -0.883762 0
M  V30 2181 C 196.165 -0.717745 -3.53385 0
M  V30 2182 O 195.269 0.233376 -4.11739 0
M  V30 2183 H 194.61 -0.20722 -0.630837 0
M  V30 2184 H 197.14 -1.20105 -1.65638 0
M  V30 2185 H 197.15 -0.619307 -4.03272 0
M  V30 2186 H 195.825 -1.74276 -3.77625 0
M  V30 2187 H 194.402 0.0880706 -3.72796 0
M  V30 2188 N 196.587 1.43421 -0.653314 0
M  V30 2189 C 197.835 2.01414 -0.166415 0
M  V30 2190 C 198.156 1.51803 1.22397 0
M  V30 2191 O 197.426 0.730693 1.81763 0
M  V30 2192 H 196.006 0.744703 -0.0585319 0
M  V30 2193 H 198.668 1.75629 -0.845003 0
M  V30 2194 H 197.764 3.11734 -0.151111 0
M  V30 2195 N 198.065 0.39524 1.52563 0
M  V30 2196 C 199.313 -0.184678 2.01254 0
M  V30 2197 C 199.634 -1.46822 1.28329 0
M  V30 2198 O 198.904 -1.91666 0.405094 0
M  V30 2199 H 197.484 -0.0712355 0.743596 0
M  V30 2200 H 200.146 0.528293 1.87603 0
M  V30 2201 H 199.242 -0.390681 3.09645 0
M  V30 2202 N 199.544 -1.57102 0.125237 0
M  V30 2203 C 200.791 -1.95407 -0.531248 0
M  V30 2204 C 201.119 -1.0089 -1.66287 0
M  V30 2205 O 200.374 -0.0339431 -1.95671 0
M  V30 2206 C 200.673 -3.40096 -1.09862 0
M  V30 2207 C 200.339 -4.50815 -0.0876989 0
M  V30 2208 C 199.001 -4.80824 0.19026 0
M  V30 2209 C 201.353 -5.17724 0.600902 0
M  V30 2210 C 198.681 -5.75058 1.163 0
M  V30 2211 C 201.033 -6.13005 1.56231 0
M  V30 2212 C 199.697 -6.41403 1.8482 0
M  V30 2213 H 198.967 -0.715046 -0.194397 0
M  V30 2214 H 201.614 -1.90373 0.207463 0
M  V30 2215 H 199.919 -3.41855 -1.91422 0
M  V30 2216 H 201.616 -3.6705 -1.61478 0
M  V30 2217 H 198.206 -4.27444 -0.314528 0
M  V30 2218 H 202.39 -4.94691 0.399333 0
M  V30 2219 H 197.646 -5.95362 1.39117 0
M  V30 2220 H 201.82 -6.63934 2.10153 0
M  V30 2221 H 199.447 -7.14229 2.60349 0
M  V30 2222 N 201.022 0.148545 -1.56898 0
M  V30 2223 C 202.27 0.859717 -1.82902 0
M  V30 2224 C 202.591 1.81775 -0.70588 0
M  V30 2225 O 201.861 1.93994 0.272586 0
M  V30 2226 H 200.441 0.320469 -0.674766 0
M  V30 2227 H 203.103 0.142918 -1.94375 0
M  V30 2228 H 202.199 1.4229 -2.77777 0
M  V30 2229 N 202.5 1.5196 0.417844 0
M  V30 2230 C 203.777 1.56146 1.17803 0
M  V30 2231 C 204.157 0.337275 2.08388 0
M  V30 2232 O 203.505 -0.676447 2.18258 0
M  V30 2233 C 203.715 2.88566 1.96293 0
M  V30 2234 C 205.063 3.41244 2.52662 0
M  V30 2235 O 206.087 2.90247 2.06483 0
M  V30 2236 O 204.946 4.30273 3.36938 0
M  V30 2237 H 202.04 0.628598 0.537395 0
M  V30 2238 H 204.586 1.64283 0.425331 0
M  V30 2239 H 203.358 3.69116 1.2988 0
M  V30 2240 H 202.981 2.83681 2.78587 0
M  V30 2241 N 203.978 -0.674533 1.42435 0
M  V30 2242 C 205.224 -1.43671 1.43131 0
M  V30 2243 C 205.557 -1.94142 0.0476021 0
M  V30 2244 O 204.832 -1.70924 -0.928188 0
M  V30 2245 C 205.115 -2.63355 2.45594 0
M  V30 2246 C 204.968 -2.18514 3.93156 0
M  V30 2247 C 206.287 -3.65571 2.45043 0
M  V30 2248 H 203.406 -0.521077 0.521198 0
M  V30 2249 H 206.048 -0.766551 1.7385 0
M  V30 2250 H 204.198 -3.2053 2.19528 0
M  V30 2251 H 205.87 -1.66504 4.30202 0
M  V30 2252 H 204.113 -1.50086 4.07009 0
M  V30 2253 H 204.784 -3.04484 4.60428 0
M  V30 2254 H 207.26 -3.18113 2.68223 0
M  V30 2255 H 206.136 -4.46893 3.18713 0
M  V30 2256 H 206.397 -4.16716 1.47649 0
M  V30 2257 N 205.456 -1.28612 -0.910864 0
M  V30 2258 C 206.704 -1.15705 -1.65701 0
M  V30 2259 C 207.025 0.29416 -1.92769 0
M  V30 2260 O 206.295 1.20331 -1.54588 0
M  V30 2261 H 204.875 -0.425216 -0.614167 0
M  V30 2262 H 207.537 -1.61381 -1.0928 0
M  V30 2263 H 206.633 -1.6988 -2.61815 0
M  V30 2264 N 206.934 1.1197 -1.10907 0
M  V30 2265 C 207.897 2.16031 -0.765707 0
M  V30 2266 C 208.897 1.59393 0.212235 0
M  V30 2267 O 210.087 1.74196 -0.0115441 0
M  V30 2268 C 207.219 3.40632 -0.135053 0
M  V30 2269 H 208.412 2.47919 -1.68748 0
M  V30 2270 H 205.965 1.27061 -0.910226 0
M  V30 2271 H 206.7 3.14348 0.797218 0
M  V30 2272 H 206.485 3.8302 -0.838937 0
M  V30 2273 H 207.975 4.17505 0.0892469 0
M  V30 2274 N 208.412 0.89855 1.29475 0
M  V30 2275 C 209.342 0.39201 2.30186 0
M  V30 2276 C 210.323 -0.532359 1.61555 0
M  V30 2277 O 211.508 -0.443331 1.89072 0
M  V30 2278 C 208.638 -0.382353 3.45189 0
M  V30 2279 C 207.592 0.451483 4.25612 0
M  V30 2280 C 206.918 -0.450307 5.328 0
M  V30 2281 C 208.218 1.70079 4.93832 0
M  V30 2282 H 209.912 1.23362 2.72804 0
M  V30 2283 H 207.458 0.594638 1.31149 0
M  V30 2284 H 209.411 -0.747451 4.14718 0
M  V30 2285 H 208.135 -1.25774 3.01411 0
M  V30 2286 H 206.794 0.798897 3.57789 0
M  V30 2287 H 206.442 -1.32379 4.85268 0
M  V30 2288 H 206.142 0.103902 5.87508 0
M  V30 2289 H 207.666 -0.811623 6.05182 0
M  V30 2290 H 209.08 1.40549 5.55805 0
M  V30 2291 H 207.477 2.19623 5.58467 0
M  V30 2292 H 208.547 2.43744 4.19186 0
M  V30 2293 N 209.89 -1.43072 0.660911 0
M  V30 2294 C 210.8 -2.34585 -0.0264163 0
M  V30 2295 C 211.816 -1.54316 -0.803898 0
M  V30 2296 O 212.992 -1.86939 -0.749391 0
M  V30 2297 C 210.057 -3.32689 -0.975639 0
M  V30 2298 C 209.118 -4.2886 -0.194236 0
M  V30 2299 C 208.351 -5.22278 -1.09825 0
M  V30 2300 O 208.574 -5.20299 -2.33763 0
M  V30 2301 O 207.508 -5.99228 -0.566513 0
M  V30 2302 H 211.334 -2.94869 0.727034 0
M  V30 2303 H 208.919 -1.43342 0.42111 0
M  V30 2304 H 210.801 -3.92995 -1.52094 0
M  V30 2305 H 209.476 -2.74898 -1.70918 0
M  V30 2306 H 208.383 -3.72011 0.394835 0
M  V30 2307 H 209.716 -4.89655 0.499899 0
M  V30 2308 N 211.368 -0.403325 -1.52352 0
M  V30 2309 C 212.593 0.176499 -2.06648 0
M  V30 2310 C 213.018 1.38577 -1.27193 0
M  V30 2311 O 212.376 1.7879 -0.300637 0
M  V30 2312 C 212.424 0.511061 -3.5696 0
M  V30 2313 O 211.528 1.60294 -3.79973 0
M  V30 2314 H 210.869 0.0167337 -0.663789 0
M  V30 2315 H 213.399 -0.574848 -1.96359 0
M  V30 2316 H 213.409 0.771362 -4.00642 0
M  V30 2317 H 212.084 -0.37296 -4.14224 0
M  V30 2318 H 210.661 1.33526 -3.48174 0
M  V30 2319 N 212.846 1.57033 -0.133567 0
M  V30 2320 C 213.776 2.1909 0.807567 0
M  V30 2321 C 214.757 1.13517 1.26681 0
M  V30 2322 O 215.942 1.41809 1.32679 0
M  V30 2323 C 213.072 2.80188 2.05212 0
M  V30 2324 C 212.026 3.91471 1.73015 0
M  V30 2325 C 211.352 4.39443 3.04622 0
M  V30 2326 C 212.652 5.12886 0.987168 0
M  V30 2327 H 214.346 2.97988 0.290403 0
M  V30 2328 H 211.892 1.43335 0.138239 0
M  V30 2329 H 213.845 3.22264 2.71521 0
M  V30 2330 H 212.569 1.98601 2.59278 0
M  V30 2331 H 211.228 3.49993 1.0909 0
M  V30 2332 H 210.876 3.54695 3.56651 0
M  V30 2333 H 210.576 5.14495 2.83847 0
M  V30 2334 H 212.1 4.8418 3.72024 0
M  V30 2335 H 213.514 5.51891 1.55208 0
M  V30 2336 H 211.911 5.93615 0.87985 0
M  V30 2337 H 212.981 4.84894 -0.0235286 0
M  V30 2338 N 214.325 -0.140222 1.56975 0
M  V30 2339 C 215.741 -0.493088 1.51792 0
M  V30 2340 C 215.941 -1.83013 0.843116 0
M  V30 2341 O 214.997 -2.49041 0.416493 0
M  V30 2342 C 216.31 -0.497144 2.96562 0
M  V30 2343 C 217.858 -0.582186 3.07538 0
M  V30 2344 C 218.333 -0.616838 4.53827 0
M  V30 2345 N 219.824 -0.678873 4.58198 0
M  V30 2346 C 220.559 -0.726782 5.68775 0
M  V30 2347 N 220.055 -0.733623 6.88905 0
M  V30 2348 N 221.848 -0.768179 5.56826 0
M  V30 2349 H 213.999 0.736108 1.99237 0
M  V30 2350 H 216.262 0.269182 0.90898 0
M  V30 2351 H 215.968 0.417217 3.49217 0
M  V30 2352 H 215.842 -1.33263 3.52875 0
M  V30 2353 H 218.229 -1.48697 2.54899 0
M  V30 2354 H 218.31 0.280581 2.54257 0
M  V30 2355 H 217.954 0.283812 5.07106 0
M  V30 2356 H 217.884 -1.49619 5.04898 0
M  V30 2357 H 220.375 -0.68061 3.7172 0
M  V30 2358 H 220.688 -0.772215 7.68932 0
M  V30 2359 H 219.033 -0.701389 6.91452 0
M  V30 2360 H 222.224 -0.760051 4.61888 0
M  V30 2361 H 222.397 -0.80205 6.43017 0
M  V30 2362 N 215.803 -1.52179 -0.40978 0
M  V30 2363 C 217.051 -1.65878 -1.15451 0
M  V30 2364 C 217.372 -0.390771 -1.91044 0
M  V30 2365 O 216.642 0.594323 -1.86667 0
M  V30 2366 H 215.222 -0.611405 -0.429177 0
M  V30 2367 H 217.884 -1.89219 -0.467134 0
M  V30 2368 H 216.98 -2.49954 -1.86894 0
M  V30 2369 N 217.281 0.66697 -1.42791 0
M  V30 2370 C 218.229 1.80157 -1.47127 0
M  V30 2371 C 219.223 1.65825 -0.346199 0
M  V30 2372 O 220.429 1.72338 -0.519572 0
M  V30 2373 H 216.804 0.594158 -0.460956 0
M  V30 2374 H 218.775 1.73619 -2.42692 0
M  V30 2375 C 217.524 3.18351 -1.39813 0
M  V30 2376 H 216.847 3.3001 -2.25684 0
M  V30 2377 H 218.287 3.97736 -1.46908 0
M  V30 2378 C 216.746 3.36707 -0.11391 0
M  V30 2379 O 217.276 3.93027 0.830241 0
M  V30 2380 N 215.482 2.90586 -0.0285295 0
M  V30 2381 H 215.029 2.4494 -0.79764 0
M  V30 2382 H 214.987 3.03245 0.830063 0
M  V30 2383 N 218.759 1.29093 0.90403 0
M  V30 2384 C 219.722 1.1386 1.98919 0
M  V30 2385 C 220.722 0.0753457 1.60623 0
M  V30 2386 O 221.912 0.321931 1.71199 0
M  V30 2387 C 219.044 0.740198 3.32767 0
M  V30 2388 H 220.237 2.10246 2.13861 0
M  V30 2389 H 217.79 1.12218 1.08797 0
M  V30 2390 H 218.525 -0.223997 3.23525 0
M  V30 2391 H 218.31 1.50838 3.61926 0
M  V30 2392 H 219.8 0.656546 4.12407 0
M  V30 2393 N 220.237 -1.11381 1.11499 0
M  V30 2394 C 221.514 -1.7955 0.775965 0
M  V30 2395 C 221.894 -1.97859 -0.73588 0
M  V30 2396 O 221.242 -1.56376 -1.66609 0
M  V30 2397 C 221.452 -3.13196 1.53977 0
M  V30 2398 C 222.8 -3.88227 1.71944 0
M  V30 2399 O 223.824 -3.22887 1.50407 0
M  V30 2400 O 222.683 -5.05477 2.07738 0
M  V30 2401 H 219.777 -0.777728 0.28119 0
M  V30 2402 H 222.323 -1.18118 1.21845 0
M  V30 2403 H 221.095 -2.95229 2.56818 0
M  V30 2404 H 220.718 -3.82342 1.09088 0
M  V30 2405 N 221.715 -0.905404 -1.28997 0
M  V30 2406 C 222.645 -0.404212 -2.29975 0
M  V30 2407 C 223.626 0.523784 -1.61835 0
M  V30 2408 O 224.811 0.433298 -1.89304 0
M  V30 2409 C 221.941 0.364042 -3.45387 0
M  V30 2410 C 220.895 -0.474048 -4.25367 0
M  V30 2411 C 220.221 0.422045 -5.33032 0
M  V30 2412 C 221.521 -1.72696 -4.92923 0
M  V30 2413 H 223.215 -1.24807 -2.72146 0
M  V30 2414 H 220.761 -0.601585 -1.30832 0
M  V30 2415 H 222.714 0.725447 -4.15109 0
M  V30 2416 H 221.438 1.24174 -3.02074 0
M  V30 2417 H 220.097 -0.81786 -3.57361 0
M  V30 2418 H 219.745 1.29804 -4.85963 0
M  V30 2419 H 219.445 -0.135057 -5.87445 0
M  V30 2420 H 220.969 0.779517 -6.05604 0
M  V30 2421 H 222.383 -1.43495 -5.55051 0
M  V30 2422 H 220.78 -2.22582 -5.57295 0
M  V30 2423 H 221.85 -2.45964 -4.17887 0
M  V30 2424 N 223.193 1.4272 -0.668489 0
M  V30 2425 C 224.156 2.292 0.00448567 0
M  V30 2426 C 225.156 1.43001 0.735339 0
M  V30 2427 O 226.346 1.64461 0.57429 0
M  V30 2428 C 223.478 3.25375 1.01705 0
M  V30 2429 H 224.671 2.90199 -0.756608 0
M  V30 2430 H 222.224 1.50254 -0.430506 0
M  V30 2431 H 222.959 2.69301 1.80686 0
M  V30 2432 H 222.744 3.88944 0.496463 0
M  V30 2433 H 224.234 3.90245 1.48655 0
M  V30 2434 N 224.671 0.411399 1.52136 0
M  V30 2435 C 225.901 -0.16284 2.05957 0
M  V30 2436 C 226.309 -1.3922 1.28119 0
M  V30 2437 O 225.652 -1.80768 0.326881 0
M  V30 2438 C 225.714 -0.575946 3.54856 0
M  V30 2439 C 225.378 0.542998 4.53763 0
M  V30 2440 C 226.375 1.40726 5.00492 0
M  V30 2441 C 224.06 0.716337 4.97166 0
M  V30 2442 C 226.054 2.4298 5.8927 0
M  V30 2443 C 223.741 1.74218 5.8574 0
M  V30 2444 C 224.739 2.59731 6.31687 0
M  V30 2445 O 224.427 3.60558 7.18507 0
M  V30 2446 H 224.159 -0.0229125 0.675612 0
M  V30 2447 H 226.713 0.581634 1.96993 0
M  V30 2448 H 224.943 -1.37274 3.61515 0
M  V30 2449 H 226.632 -1.07836 3.91313 0
M  V30 2450 H 227.398 1.28476 4.67674 0
M  V30 2451 H 223.277 0.0603857 4.6096 0
M  V30 2452 H 226.821 3.0976 6.25055 0
M  V30 2453 H 222.718 1.86498 6.17971 0
M  V30 2454 H 223.486 3.56829 7.36624 0
M  V30 2455 N 226.149 -1.5696 0.141893 0
M  V30 2456 C 227.398 -1.95135 -0.510427 0
M  V30 2457 C 227.711 -1.02896 -1.66348 0
M  V30 2458 O 228.917 -1.30629 -2.38009 0
M  V30 2459 C 227.373 -3.46876 -0.959427 0
M  V30 2460 C 226.981 -4.47691 0.166419 0
M  V30 2461 C 228.725 -3.93927 -1.58183 0
M  V30 2462 C 226.632 -5.90636 -0.300565 0
M  V30 2463 H 225.562 -0.728494 -0.194454 0
M  V30 2464 H 228.213 -1.8211 0.22542 0
M  V30 2465 H 226.595 -3.55215 -1.75038 0
M  V30 2466 H 227.769 -4.51043 0.94325 0
M  V30 2467 H 226.084 -4.10527 0.696905 0
M  V30 2468 H 228.681 -4.98158 -1.94275 0
M  V30 2469 H 229.024 -3.3519 -2.46888 0
M  V30 2470 H 229.557 -3.88484 -0.855863 0
M  V30 2471 H 226.296 -6.5318 0.550989 0
M  V30 2472 H 225.816 -5.90655 -1.04338 0
M  V30 2473 H 227.495 -6.42588 -0.754265 0
M  V30 2474 N 227.627 0.131896 -1.57047 0
M  V30 2475 C 228.557 1.16384 -2.02428 0
M  V30 2476 C 229.538 1.43936 -0.90644 0
M  V30 2477 O 230.723 1.54599 -1.17528 0
M  V30 2478 C 227.853 2.49328 -2.4177 0
M  V30 2479 C 226.807 2.36266 -3.56879 0
M  V30 2480 C 226.133 3.74057 -3.8208 0
M  V30 2481 C 227.433 1.834 -4.89042 0
M  V30 2482 H 229.127 0.786433 -2.88887 0
M  V30 2483 H 226.673 0.376855 -1.38981 0
M  V30 2484 H 228.626 3.21759 -2.7212 0
M  V30 2485 H 227.35 2.88934 -1.52266 0
M  V30 2486 H 226.009 1.66286 -3.26718 0
M  V30 2487 H 225.657 4.11125 -2.89803 0
M  V30 2488 H 225.357 3.66174 -4.59554 0
M  V30 2489 H 226.881 4.48012 -4.1487 0
M  V30 2490 H 228.295 2.45636 -5.18011 0
M  V30 2491 H 226.692 1.8637 -5.70426 0
M  V30 2492 H 227.762 0.790662 -4.7841 0
M  V30 2493 N 229.106 1.52395 0.401703 0
M  V30 2494 C 230.331 1.70972 1.17403 0
M  V30 2495 C 230.756 0.421615 1.83314 0
M  V30 2496 O 230.114 -0.621564 1.70312 0
M  V30 2497 C 230.162 2.85151 2.20728 0
M  V30 2498 O 229.266 2.51238 3.27037 0
M  V30 2499 H 228.607 0.568927 0.342372 0
M  V30 2500 H 231.137 1.99131 0.469891 0
M  V30 2501 H 231.147 3.10279 2.64936 0
M  V30 2502 H 229.822 3.78603 1.7214 0
M  V30 2503 H 228.399 2.36808 2.88057 0
M  V30 2504 N 230.584 -0.659388 1.43143 0
M  V30 2505 C 231.517 -1.78425 1.42267 0
M  V30 2506 C 232.495 -1.60085 0.284894 0
M  V30 2507 O 233.679 -1.82351 0.477527 0
M  V30 2508 C 230.806 -3.15642 1.22833 0
M  V30 2509 C 229.852 -3.52698 2.39806 0
M  V30 2510 S 230.685 -3.53372 4.02353 0
M  V30 2511 C 231.841 -4.93256 3.85291 0
M  V30 2512 H 232.074 -1.78897 2.37452 0
M  V30 2513 H 229.607 -0.831469 1.301 0
M  V30 2514 H 231.565 -3.94838 1.12308 0
M  V30 2515 H 230.226 -3.12739 0.29207 0
M  V30 2516 H 229.419 -4.52475 2.21996 0
M  V30 2517 H 229.021 -2.80899 2.46925 0
M  V30 2518 H 231.313 -5.81751 3.47235 0
M  V30 2519 H 232.256 -5.16115 4.84799 0
M  V30 2520 H 232.664 -4.665 3.17865 0
M  V30 2521 N 232.062 -1.29571 -0.897171 0
M  V30 2522 C 232.972 -1.16808 -2.03453 0
M  V30 2523 C 233.988 -0.0907471 -1.73763 0
M  V30 2524 O 235.164 -0.303312 -1.99103 0
M  V30 2525 C 232.229 -0.848264 -3.36163 0
M  V30 2526 C 231.29 -2.0097 -3.79354 0
M  V30 2527 C 230.523 -1.70505 -5.05731 0
M  V30 2528 O 230.746 -0.62718 -5.66941 0
M  V30 2529 O 229.68 -2.5538 -5.45036 0
M  V30 2530 H 233.506 -2.12325 -2.17144 0
M  V30 2531 H 231.091 -1.09047 -1.02123 0
M  V30 2532 H 232.973 -0.684581 -4.15802 0
M  V30 2533 H 231.648 0.0771071 -3.23608 0
M  V30 2534 H 230.555 -2.22863 -3.00471 0
M  V30 2535 H 231.888 -2.91636 -3.96496 0
M  V30 2536 N 233.54 1.10788 -1.12088 0
M  V30 2537 C 234.951 1.64181 -0.88891 0
M  V30 2538 C 235.302 1.87508 0.577498 0
M  V30 2539 O 234.427 1.61434 1.44112 0
M  V30 2540 C 235.022 2.98257 -1.60712 0
M  V30 2541 C 233.581 3.4853 -1.42139 0
M  V30 2542 C 232.728 2.23208 -1.6454 0
M  V30 2543 H 235.679 0.943368 -1.27618 0
M  V30 2544 H 235.7 3.65552 -1.05604 0
M  V30 2545 H 235.212 2.81246 -2.67436 0
M  V30 2546 H 233.313 3.70692 -0.376552 0
M  V30 2547 H 233.426 4.26882 -2.17505 0
M  V30 2548 H 231.79 2.31169 -1.06925 0
M  V30 2549 H 232.573 2.08733 -2.72554 0
M  V30 2550 N 235.018 0.912232 1.28515 0
M  V30 2551 C 236.258 0.551677 1.96814 0
M  V30 2552 C 236.622 -0.887825 1.7024 0
M  V30 2553 O 237.823 -1.35588 2.32098 0
M  V30 2554 C 236.094 0.850555 3.47132 0
M  V30 2555 S 237.653 0.59619 4.34731 0
M  V30 2556 H 234.471 0.204191 0.681049 0
M  V30 2557 H 237.073 1.17736 1.56072 0
M  V30 2558 H 235.777 1.8962 3.63968 0
M  V30 2559 H 235.308 0.213471 3.9282 0
M  V30 2560 H 237.323 -0.553154 4.93107 0
M  V30 2561 N 236.496 -1.42363 0.676048 0
M  V30 2562 C 237.744 -2.01123 0.198437 0
M  V30 2563 C 238.065 -1.53731 -1.19966 0
M  V30 2564 O 237.335 -0.759518 -1.80577 0
M  V30 2565 H 235.915 -0.743678 0.0703721 0
M  V30 2566 H 238.577 -1.74263 0.872837 0
M  V30 2567 H 237.673 -3.11454 0.200686 0
M  V30 2568 N 237.974 -0.419461 -1.51915 0
M  V30 2569 C 238.924 0.418496 -2.24126 0
M  V30 2570 C 239.908 1.00495 -1.25656 0
M  V30 2571 O 241.1 0.926058 -1.50842 0
M  V30 2572 C 238.229 1.52899 -3.07371 0
M  V30 2573 C 237.315 0.952797 -4.13258 0
M  V30 2574 N 237.706 0.104175 -5.05693 0
M  V30 2575 C 236.004 1.22224 -4.28926 0
M  V30 2576 C 236.705 -0.21752 -5.81293 0
M  V30 2577 N 235.681 0.394293 -5.42168 0
M  V30 2578 H 239.483 -0.236048 -2.92951 0
M  V30 2579 H 236.997 -0.230481 -1.60756 0
M  V30 2580 H 238.994 2.14199 -3.57665 0
M  V30 2581 H 237.654 2.18605 -2.40088 0
M  V30 2582 H 238.665 -0.260924 -5.17242 0
M  V30 2583 H 235.342 1.87812 -3.72871 0
M  V30 2584 H 236.732 -0.906992 -6.6575 0
M  V30 2585 N 239.452 1.56882 -0.150215 0
M  V30 2586 C 240.692 1.98119 0.502804 0
M  V30 2587 C 241.056 1.03327 1.61826 0
M  V30 2588 O 242.257 1.33621 2.33236 0
M  V30 2589 C 240.528 3.43329 0.992988 0
M  V30 2590 S 242.087 4.0659 1.65015 0
M  V30 2591 H 238.905 0.692189 0.162467 0
M  V30 2592 H 241.507 1.93988 -0.242689 0
M  V30 2593 H 240.211 4.10046 0.170436 0
M  V30 2594 H 239.742 3.5118 1.77303 0
M  V30 2595 H 241.757 3.99906 2.93752 0
M  V30 2596 N 240.93 -0.123565 1.57115 0
M  V30 2597 C 241.86 -1.15309 2.03042 0
M  V30 2598 C 242.841 -1.43454 0.914061 0
M  V30 2599 O 244.026 -1.53973 1.18347 0
M  V30 2600 C 241.156 -2.48043 2.43089 0
M  V30 2601 C 240.11 -2.3437 3.58127 0
M  V30 2602 C 239.436 -3.72026 3.84059 0
M  V30 2603 C 240.736 -1.80804 4.90007 0
M  V30 2604 H 242.43 -0.771102 2.893 0
M  V30 2605 H 239.976 -0.369479 1.39179 0
M  V30 2606 H 241.929 -3.20311 2.73823 0
M  V30 2607 H 240.653 -2.88122 1.53796 0
M  V30 2608 H 239.312 -1.64551 3.27595 0
M  V30 2609 H 238.96 -4.09582 2.91979 0
M  V30 2610 H 238.66 -3.63732 4.6149 0
M  V30 2611 H 240.184 -4.45806 4.1724 0
M  V30 2612 H 241.598 -2.42886 5.19307 0
M  V30 2613 H 239.995 -1.83343 5.71407 0
M  V30 2614 H 241.065 -0.76528 4.78823 0
M  V30 2615 N 242.408 -1.52605 -0.393616 0
M  V30 2616 C 243.657 -1.66649 -1.13627 0
M  V30 2617 C 243.97 -0.410364 -1.91247 0
M  V30 2618 O 245.176 -0.430854 -2.68059 0
M  V30 2619 C 243.632 -2.9449 -2.06891 0
M  V30 2620 C 243.24 -4.27266 -1.34714 0
M  V30 2621 C 244.984 -3.17899 -2.81319 0
M  V30 2622 C 242.891 -5.46217 -2.26717 0
M  V30 2623 H 241.821 -0.62084 -0.427871 0
M  V30 2624 H 244.472 -1.791 -0.399428 0
M  V30 2625 H 242.854 -2.75774 -2.84191 0
M  V30 2626 H 244.028 -4.56518 -0.626714 0
M  V30 2627 H 242.343 -4.10081 -0.722643 0
M  V30 2628 H 244.94 -4.03949 -3.50328 0
M  V30 2629 H 245.283 -2.32777 -3.45139 0
M  V30 2630 H 245.816 -3.37159 -2.11113 0
M  V30 2631 H 242.555 -6.33733 -1.67521 0
M  V30 2632 H 242.075 -5.21283 -2.96689 0
M  V30 2633 H 243.754 -5.7991 -2.86903 0
M  V30 2634 N 243.887 0.651787 -1.4349 0
M  V30 2635 C 245.136 1.40754 -1.44469 0
M  V30 2636 C 245.449 1.95463 -0.0731845 0
M  V30 2637 O 246.655 2.71471 0.0395721 0
M  V30 2638 C 245.111 2.54735 -2.5424 0
M  V30 2639 C 244.719 2.06628 -3.97504 0
M  V30 2640 C 246.463 3.32092 -2.64414 0
M  V30 2641 C 244.37 3.17829 -4.98737 0
M  V30 2642 H 243.3 0.528862 -0.53742 0
M  V30 2643 H 245.951 0.703365 -1.69485 0
M  V30 2644 H 244.333 3.2763 -2.22428 0
M  V30 2645 H 245.507 1.40734 -4.38783 0
M  V30 2646 H 243.822 1.42146 -3.91387 0
M  V30 2647 H 246.419 4.14952 -3.37223 0
M  V30 2648 H 246.762 3.80217 -1.69532 0
M  V30 2649 H 247.295 2.66279 -2.95534 0
M  V30 2650 H 244.034 2.74671 -5.95177 0
M  V30 2651 H 243.554 3.82429 -4.62069 0
M  V30 2652 H 245.233 3.82937 -5.21505 0
M  V30 2653 N 245.365 1.30045 0.890287 0
M  V30 2654 C 246.313 1.15873 2.01683 0
M  V30 2655 C 247.307 0.0719403 1.69247 0
M  V30 2656 O 248.513 0.232414 1.78493 0
M  V30 2657 H 244.888 0.358203 0.661207 0
M  V30 2658 H 246.859 2.11229 2.10772 0
M  V30 2659 C 245.608 0.861842 3.36849 0
M  V30 2660 H 244.931 1.69016 3.62317 0
M  V30 2661 H 246.371 0.802762 4.16331 0
M  V30 2662 C 244.83 -0.435132 3.34078 0
M  V30 2663 O 245.36 -1.4583 3.74295 0
M  V30 2664 N 243.566 -0.444377 2.87182 0
M  V30 2665 H 243.113 0.388723 2.5465 0
M  V30 2666 H 243.071 -1.31213 2.85711 0
M  V30 2667 N 246.843 -1.10192 1.12674 0
M  V30 2668 C 247.791 -2.18694 0.792196 0
M  V30 2669 C 248.785 -1.67938 -0.222058 0
M  V30 2670 O 249.991 -1.79822 -0.0800074 0
M  V30 2671 H 246.366 -0.713223 0.238364 0
M  V30 2672 H 248.337 -2.44149 1.71564 0
M  V30 2673 C 247.086 -3.46682 0.265859 0
M  V30 2674 H 246.409 -3.86101 1.03761 0
M  V30 2675 H 247.849 -4.23942 0.0701128 0
M  V30 2676 C 246.308 -3.21506 -1.00675 0
M  V30 2677 O 246.838 -3.43408 -2.08408 0
M  V30 2678 N 245.044 -2.75158 -0.934692 0
M  V30 2679 H 244.591 -2.57535 -0.0578604 0
M  V30 2680 H 244.549 -2.58691 -1.7868 0
M  V30 2681 N 248.321 -0.919034 -1.28029 0
M  V30 2682 C 249.567 -0.555757 -1.95036 0
M  V30 2683 C 249.9 0.899198 -1.72128 0
M  V30 2684 O 249.175 1.64023 -1.04531 0
M  V30 2685 C 249.458 -0.872024 -3.49382 0
M  V30 2686 C 249.311 -2.3801 -3.81669 0
M  V30 2687 C 250.63 -0.37185 -4.38526 0
M  V30 2688 H 247.749 -0.203386 -0.708381 0
M  V30 2689 H 250.391 -1.14924 -1.51303 0
M  V30 2690 H 248.541 -0.366946 -3.86763 0
M  V30 2691 H 250.213 -2.9562 -3.54128 0
M  V30 2692 H 248.456 -2.83289 -3.28526 0
M  V30 2693 H 249.127 -2.55192 -4.8947 0
M  V30 2694 H 251.603 -0.804602 -4.08247 0
M  V30 2695 H 250.479 -0.622173 -5.45362 0
M  V30 2696 H 250.74 0.727934 -4.36066 0
M  V30 2697 N 249.799 1.42003 -0.683588 0
M  V30 2698 C 250.747 2.326 0.000815408 0
M  V30 2699 C 251.741 1.50308 0.781278 0
M  V30 2700 O 252.947 1.66322 0.688251 0
M  V30 2701 H 249.322 0.751758 0.0190616 0
M  V30 2702 H 251.293 2.88011 -0.780528 0
M  V30 2703 C 250.042 3.34978 0.93195 0
M  V30 2704 H 249.365 3.98345 0.340817 0
M  V30 2705 H 250.805 4.00936 1.37936 0
M  V30 2706 C 249.264 2.67925 2.04249 0
M  V30 2707 O 249.794 2.51788 3.12995 0
M  V30 2708 N 248 2.2681 1.81675 0
M  V30 2709 H 247.547 2.40135 0.932363 0
M  V30 2710 H 247.505 1.8228 2.56167 0
M  V30 2711 N 251.277 0.427512 1.51691 0
M  V30 2712 C 252.524 -0.142229 2.02 0
M  V30 2713 C 252.852 -1.43566 1.31221 0
M  V30 2714 O 252.107 -1.91298 0.412744 0
M  V30 2715 C 252.406 -0.418249 3.54944 0
M  V30 2716 C 252.072 0.788187 4.43958 0
M  V30 2717 C 250.734 1.11906 4.68007 0
M  V30 2718 C 253.086 1.59347 4.96244 0
M  V30 2719 C 250.414 2.25608 5.41588 0
M  V30 2720 C 252.766 2.7214 5.71072 0
M  V30 2721 C 251.43 3.05692 5.93387 0
M  V30 2722 H 250.7 -0.0520451 0.73917 0
M  V30 2723 H 253.347 0.572697 1.82736 0
M  V30 2724 H 251.652 -1.21496 3.72486 0
M  V30 2725 H 253.349 -0.872339 3.91397 0
M  V30 2726 H 249.939 0.520344 4.2543 0
M  V30 2727 H 254.123 1.35106 4.77556 0
M  V30 2728 H 249.379 2.51929 5.57083 0
M  V30 2729 H 253.553 3.34914 6.10578 0
M  V30 2730 H 251.18 3.9391 6.50184 0
M  V30 2731 N 252.755 -1.56801 0.158532 0
M  V30 2732 C 253.995 -1.98383 -0.49229 0
M  V30 2733 C 254.359 -1.04184 -1.61275 0
M  V30 2734 O 255.56 -1.34856 -2.32524 0
M  V30 2735 C 253.831 -3.4385 -0.974766 0
M  V30 2736 S 255.39 -4.07459 -1.62857 0
M  V30 2737 H 252.208 -0.693041 -0.158794 0
M  V30 2738 H 254.81 -1.93856 0.252974 0
M  V30 2739 H 253.514 -4.10131 -0.148688 0
M  V30 2740 H 253.045 -3.52115 -1.75438 0
M  V30 2741 H 255.06 -4.01458 -2.91627 0
M  V30 2742 N 254.233 0.115231 -1.57178 0
M  V30 2743 C 255.649 0.468877 -1.52557 0
M  V30 2744 C 255.849 1.81649 -0.872125 0
M  V30 2745 O 254.905 2.48347 -0.45606 0
M  V30 2746 C 256.218 0.4499 -2.97315 0
M  V30 2747 C 257.766 0.533185 -3.08425 0
M  V30 2748 C 258.241 0.54456 -4.54751 0
M  V30 2749 N 259.732 0.605892 -4.5922 0
M  V30 2750 C 260.467 0.636203 -5.6986 0
M  V30 2751 N 259.963 0.623931 -6.89985 0
M  V30 2752 N 261.756 0.679496 -5.57978 0
M  V30 2753 H 253.907 -0.767712 -1.9804 0
M  V30 2754 H 256.17 -0.283609 -0.904583 0
M  V30 2755 H 255.876 -0.472721 -3.48509 0
M  V30 2756 H 255.75 1.27632 -3.5495 0
M  V30 2757 H 258.137 1.44623 -2.57232 0
M  V30 2758 H 258.218 -0.320995 -2.53778 0
M  V30 2759 H 257.862 -0.364452 -5.06591 0
M  V30 2760 H 257.792 1.41568 -5.07214 0
M  V30 2761 H 260.283 0.621386 -3.72756 0
M  V30 2762 H 260.596 0.649787 -7.70063 0
M  V30 2763 H 258.941 0.591296 -6.9248 0
M  V30 2764 H 262.132 0.686472 -4.63039 0
M  V30 2765 H 262.305 0.69965 -6.44212 0
M  V30 2766 N 255.711 1.52812 0.385517 0
M  V30 2767 C 256.621 1.80766 1.49535 0
M  V30 2768 C 257.637 0.694651 1.59532 0
M  V30 2769 O 258.813 0.982611 1.75803 0
M  V30 2770 C 255.878 1.97381 2.85029 0
M  V30 2771 C 254.939 3.21295 2.84724 0
M  V30 2772 C 254.172 3.37108 4.13756 0
M  V30 2773 O 254.395 2.5765 5.08893 0
M  V30 2774 O 253.329 4.30378 4.20783 0
M  V30 2775 H 257.155 2.75015 1.28842 0
M  V30 2776 H 254.74 1.37946 0.573697 0
M  V30 2777 H 256.622 2.09996 3.65349 0
M  V30 2778 H 255.297 1.06322 3.05741 0
M  V30 2779 H 254.204 3.1412 2.03174 0
M  V30 2780 H 255.537 4.12212 2.68965 0
M  V30 2781 N 257.189 -0.644168 1.43834 0
M  V30 2782 C 258.414 -1.43642 1.49605 0
M  V30 2783 C 258.839 -1.8773 0.117913 0
M  V30 2784 O 258.197 -1.57938 -0.890239 0
M  V30 2785 C 258.245 -2.6416 2.45463 0
M  V30 2786 O 257.349 -3.63538 1.94714 0
M  V30 2787 H 256.69 -0.430329 0.50568 0
M  V30 2788 H 259.22 -0.787448 1.8884 0
M  V30 2789 H 259.23 -3.11864 2.63068 0
M  V30 2790 H 257.905 -2.31414 3.45572 0
M  V30 2791 H 256.482 -3.2273 1.86814 0
M  V30 2792 N 258.668 -1.30515 -0.883378 0
M  V30 2793 C 259.916 -1.19194 -1.63209 0
M  V30 2794 C 260.237 0.253205 -1.93349 0
M  V30 2795 O 259.507 1.17025 -1.57105 0
M  V30 2796 H 258.087 -0.438148 -0.605009 0
M  V30 2797 H 260.749 -1.63663 -1.05832 0
M  V30 2798 H 259.845 -1.75396 -2.58153 0
M  V30 2799 N 260.146 1.09593 -1.13257 0
M  V30 2800 C 261.076 2.18214 -0.830946 0
M  V30 2801 C 262.057 1.68812 0.208966 0
M  V30 2802 O 263.242 1.9408 0.0682666 0
M  V30 2803 C 260.372 3.46051 -0.294296 0
M  V30 2804 C 259.326 4.08778 -1.26826 0
M  V30 2805 C 258.652 5.31419 -0.591449 0
M  V30 2806 C 259.952 4.51476 -2.62615 0
M  V30 2807 H 261.646 2.43703 -1.73923 0
M  V30 2808 H 259.192 1.17128 -0.837675 0
M  V30 2809 H 261.145 4.2134 -0.0709606 0
M  V30 2810 H 259.869 3.20079 0.649366 0
M  V30 2811 H 258.528 3.35505 -1.47756 0
M  V30 2812 H 258.176 5.01727 0.357633 0
M  V30 2813 H 257.876 5.74341 -1.24123 0
M  V30 2814 H 259.4 6.09433 -0.377355 0
M  V30 2815 H 260.814 5.17999 -2.45663 0
M  V30 2816 H 259.211 5.05277 -3.23752 0
M  V30 2817 H 260.281 3.63962 -3.20406 0
M  V30 2818 N 261.624 0.925811 1.2754 0
M  V30 2819 C 263.04 0.625767 1.46821 0
M  V30 2820 C 263.24 -0.825506 1.83814 0
M  V30 2821 O 262.296 -1.60356 1.95044 0
M  V30 2822 C 263.609 1.57402 2.56213 0
M  V30 2823 C 265.157 1.58204 2.70075 0
M  V30 2824 C 265.632 2.51721 3.82623 0
M  V30 2825 N 267.123 2.49917 3.89994 0
M  V30 2826 C 267.858 3.18968 4.76494 0
M  V30 2827 N 267.354 3.97391 5.67496 0
M  V30 2828 N 269.147 3.07996 4.70208 0
M  V30 2829 H 261.298 1.86409 1.01811 0
M  V30 2830 H 263.561 0.800213 0.508295 0
M  V30 2831 H 263.267 2.60925 2.35819 0
M  V30 2832 H 263.141 1.31428 3.53563 0
M  V30 2833 H 265.528 0.554124 2.89851 0
M  V30 2834 H 265.609 1.88226 1.73218 0
M  V30 2835 H 265.253 3.54622 3.63601 0
M  V30 2836 H 265.183 2.18996 4.78903 0
M  V30 2837 H 267.674 1.9296 3.24923 0
M  V30 2838 H 267.987 4.4707 6.30356 0
M  V30 2839 H 266.332 4.01495 5.67298 0
M  V30 2840 H 269.523 2.46223 3.9811 0
M  V30 2841 H 269.696 3.6208 5.37403 0
M  V30 2842 N 263.102 -1.41638 0.69111 0
M  V30 2843 C 264.33 -2.05628 0.22909 0
M  V30 2844 C 264.745 -1.51992 -1.11999 0
M  V30 2845 O 264.102 -0.666322 -1.69901 0
M  V30 2846 C 264.153 -3.61084 0.173283 0
M  V30 2847 O 263.874 -4.12735 1.46907 0
M  V30 2848 C 265.375 -4.42213 -0.310266 0
M  V30 2849 H 262.595 -0.662327 0.107534 0
M  V30 2850 H 265.139 -1.81489 0.942438 0
M  V30 2851 H 263.294 -3.84278 -0.490858 0
M  V30 2852 H 263.708 -5.06743 1.35322 0
M  V30 2853 H 265.182 -5.51194 -0.298196 0
M  V30 2854 H 265.659 -4.1799 -1.34838 0
M  V30 2855 H 266.265 -4.24074 0.322716 0
M  V30 2856 N 264.58 -0.43555 -1.51462 0
M  V30 2857 C 265.996 -0.0877501 -1.59359 0
M  V30 2858 C 266.196 1.4027 -1.4466 0
M  V30 2859 O 265.252 2.17243 -1.28693 0
M  V30 2860 C 266.565 -0.606264 -2.94525 0
M  V30 2861 C 268.113 -0.566548 -3.0783 0
M  V30 2862 C 268.588 -1.06201 -4.45517 0
M  V30 2863 N 270.079 -1.01992 -4.51832 0
M  V30 2864 C 270.814 -1.37417 -5.5669 0
M  V30 2865 N 270.31 -1.80119 -6.68976 0
M  V30 2866 N 272.103 -1.29245 -5.47039 0
M  V30 2867 H 264.254 -1.40533 -1.59261 0
M  V30 2868 H 266.517 -0.578992 -0.750648 0
M  V30 2869 H 266.223 -1.64901 -3.10645 0
M  V30 2870 H 266.097 -0.0302097 -3.77188 0
M  V30 2871 H 268.484 0.467208 -2.91378 0
M  V30 2872 H 268.565 -1.17898 -2.2701 0
M  V30 2873 H 268.209 -2.09422 -4.62715 0
M  V30 2874 H 268.139 -0.426127 -5.24873 0
M  V30 2875 H 270.63 -0.706308 -3.71241 0
M  V30 2876 H 270.943 -2.05392 -7.45006 0
M  V30 2877 H 269.288 -1.84044 -6.70189 0
M  V30 2878 H 272.479 -0.957522 -4.58202 0
M  V30 2879 H 272.652 -1.57182 -6.28648 0
M  V30 2880 N 266.058 1.56714 -0.166846 0
M  V30 2881 C 267.286 2.0112 0.485644 0
M  V30 2882 C 267.701 1.04705 1.57106 0
M  V30 2883 O 267.058 0.0471923 1.82439 0
M  V30 2884 C 267.109 3.45361 1.06808 0
M  V30 2885 O 266.83 4.38092 0.0259995 0
M  V30 2886 C 268.331 4.05145 1.79924 0
M  V30 2887 H 265.551 0.65931 0.124704 0
M  V30 2888 H 268.095 2.02746 -0.267262 0
M  V30 2889 H 266.25 3.44524 1.7715 0
M  V30 2890 H 266.664 5.22519 0.455398 0
M  V30 2891 H 268.138 5.08009 2.15942 0
M  V30 2892 H 268.615 3.46982 2.69258 0
M  V30 2893 H 269.221 4.09672 1.14234 0
M  V30 2894 N 267.536 -0.106894 1.57237 0
M  V30 2895 C 268.784 -0.810921 1.85117 0
M  V30 2896 C 269.105 -1.7984 0.753827 0
M  V30 2897 O 268.375 -1.94649 -0.221056 0
M  V30 2898 H 266.955 -0.302466 0.683025 0
M  V30 2899 H 269.617 -0.0913324 1.94686 0
M  V30 2900 H 268.713 -1.34875 2.81452 0
M  V30 2901 N 269.014 -1.53014 -0.377408 0
M  V30 2902 C 270.239 -1.72818 -1.14668 0
M  V30 2903 C 270.664 -0.450725 -1.8262 0
M  V30 2904 O 270.022 0.59439 -1.7128 0
M  V30 2905 C 270.07 -2.88627 -2.16164 0
M  V30 2906 O 269.174 -2.56409 -3.22998 0
M  V30 2907 H 268.515 -0.574301 -0.333278 0
M  V30 2908 H 271.045 -1.99853 -0.438152 0
M  V30 2909 H 271.055 -3.14455 -2.59966 0
M  V30 2910 H 269.73 -3.81294 -1.66095 0
M  V30 2911 H 268.307 -2.4136 -2.84253 0
M  V30 2912 N 270.492 0.636531 -1.44174 0
M  V30 2913 C 271.44 1.76995 -1.50915 0
M  V30 2914 C 272.434 1.65053 -0.381295 0
M  V30 2915 O 273.64 1.71197 -0.55601 0
M  V30 2916 H 270.015 0.584247 -0.473455 0
M  V30 2917 H 271.986 1.68432 -2.4632 0
M  V30 2918 C 270.735 3.15314 -1.46534 0
M  V30 2919 H 270.058 3.25149 -2.32633 0
M  V30 2920 H 271.498 3.9453 -1.55312 0
M  V30 2921 C 269.957 3.3639 -0.185305 0
M  V30 2922 O 270.487 3.94699 0.746688 0
M  V30 2923 N 268.693 2.9046 -0.0901606 0
M  V30 2924 H 268.24 2.43193 -0.849416 0
M  V30 2925 H 268.198 3.04937 0.765553 0
M  V30 2926 N 271.97 1.30982 0.876444 0
M  V30 2927 C 273.219 1.19658 1.62373 0
M  V30 2928 C 273.532 -0.245636 1.94052 0
M  V30 2929 O 274.738 -0.48049 2.67214 0
M  V30 2930 C 273.194 2.09433 2.92687 0
M  V30 2931 C 272.802 3.58613 2.68516 0
M  V30 2932 C 274.546 2.06893 3.70669 0
M  V30 2933 C 272.453 4.40416 3.94699 0
M  V30 2934 H 271.383 0.444268 0.609214 0
M  V30 2935 H 274.034 1.55791 0.969605 0
M  V30 2936 H 272.416 1.66191 3.59439 0
M  V30 2937 H 273.59 4.10058 2.10212 0
M  V30 2938 H 271.905 3.63063 2.03898 0
M  V30 2939 H 274.502 2.65258 4.64265 0
M  V30 2940 H 274.845 1.05448 4.02724 0
M  V30 2941 H 275.378 2.48301 3.10792 0
M  V30 2942 H 272.117 5.42591 3.67798 0
M  V30 2943 H 271.637 3.93731 4.52477 0
M  V30 2944 H 273.316 4.52294 4.62644 0
M  V30 2945 N 273.449 -1.08991 1.13837 0
M  V30 2946 C 274.726 -1.77863 0.813876 0
M  V30 2947 C 275.106 -1.99375 -0.693746 0
M  V30 2948 O 274.454 -1.59875 -1.63255 0
M  V30 2949 C 274.664 -3.0986 1.60586 0
M  V30 2950 C 276.012 -3.84493 1.8014 0
M  V30 2951 O 277.036 -3.19624 1.57222 0
M  V30 2952 O 275.895 -5.00957 2.18413 0
M  V30 2953 H 272.989 -0.771589 0.297624 0
M  V30 2954 H 275.535 -1.15507 1.24323 0
M  V30 2955 H 274.307 -2.89715 2.63022 0
M  V30 2956 H 273.93 -3.79942 1.17173 0
M  V30 2957 N 274.927 -0.932562 -1.27047 0
M  V30 2958 C 276.167 -0.582919 -1.95912 0
M  V30 2959 C 276.531 0.860629 -1.71631 0
M  V30 2960 O 277.732 1.31878 -2.34225 0
M  V30 2961 C 276.003 -0.905673 -3.45734 0
M  V30 2962 S 277.562 -0.665277 -4.33727 0
M  V30 2963 H 274.38 -0.215 -0.677714 0
M  V30 2964 H 276.982 -1.20204 -1.54179 0
M  V30 2965 H 275.686 -1.95386 -3.60905 0
M  V30 2966 H 275.217 -0.275939 -3.92431 0
M  V30 2967 H 277.232 0.474635 -4.93925 0
M  V30 2968 N 276.405 1.4127 -0.698611 0
M  V30 2969 C 277.315 2.34573 -0.0357891 0
M  V30 2970 C 278.331 1.56393 0.762701 0
M  V30 2971 O 279.507 1.8886 0.699564 0
M  V30 2972 C 276.572 3.35159 0.887089 0
M  V30 2973 C 275.633 4.29225 0.0804634 0
M  V30 2974 C 274.866 5.25006 0.959387 0
M  V30 2975 O 275.089 5.26314 2.19886 0
M  V30 2976 O 274.023 6.00519 0.407439 0
M  V30 2977 H 277.849 2.92838 -0.804957 0
M  V30 2978 H 275.434 1.42175 -0.458966 0
M  V30 2979 H 277.316 3.9689 1.41621 0
M  V30 2980 H 275.991 2.79333 1.6357 0
M  V30 2981 H 274.898 3.70833 -0.493328 0
M  V30 2982 H 276.231 4.88157 -0.629547 0
M  V30 2983 N 277.883 0.443576 1.51229 0
M  V30 2984 C 278.83 -0.364716 2.279 0
M  V30 2985 C 279.8 -1.0114 1.31757 0
M  V30 2986 O 280.985 -1.02912 1.60667 0
M  V30 2987 C 278.125 -1.45644 3.12861 0
M  V30 2988 C 277.238 -0.827269 4.24005 0
M  V30 2989 C 276.373 -1.89456 4.96266 0
M  V30 2990 C 275.412 -1.24416 5.99322 0
M  V30 2991 N 274.549 -2.25309 6.64966 0
M  V30 2992 H 279.389 0.295464 2.96532 0
M  V30 2993 H 276.926 0.157554 1.46254 0
M  V30 2994 H 278.884 -2.10076 3.6045 0
M  V30 2995 H 277.514 -2.08616 2.46331 0
M  V30 2996 H 276.566 -0.0710839 3.80334 0
M  V30 2997 H 277.878 -0.312481 4.9782 0
M  V30 2998 H 277.032 -2.61535 5.47434 0
M  V30 2999 H 275.771 -2.4431 4.22095 0
M  V30 3000 H 274.776 -0.508868 5.4744 0
M  V30 3001 H 276.001 -0.702882 6.75453 0
M  V30 3002 H 273.947 -2.79231 5.93604 0
M  V30 3003 H 273.864 -1.78739 7.34567 0
M  V30 3004 H 275.132 -2.96853 7.20763 0
M  V30 3005 N 279.361 -1.56624 0.175154 0
M  V30 3006 C 280.291 -2.21155 -0.749195 0
M  V30 3007 C 281.272 -1.16836 -1.23626 0
M  V30 3008 O 282.457 -1.45277 -1.28873 0
M  V30 3009 C 279.587 -2.8553 -1.97711 0
M  V30 3010 C 278.541 -3.95921 -1.62575 0
M  V30 3011 C 277.867 -4.47365 -2.92864 0
M  V30 3012 C 279.167 -5.15323 -0.850838 0
M  V30 3013 H 280.861 -2.98653 -0.211295 0
M  V30 3014 H 278.407 -1.43651 -0.100188 0
M  V30 3015 H 280.36 -3.2935 -2.62881 0
M  V30 3016 H 279.084 -2.05406 -2.53921 0
M  V30 3017 H 277.743 -3.52762 -0.997719 0
M  V30 3018 H 277.391 -3.64027 -3.47122 0
M  V30 3019 H 277.091 -5.21839 -2.70106 0
M  V30 3020 H 278.615 -4.93873 -3.59056 0
M  V30 3021 H 280.029 -5.55812 -1.40521 0
M  V30 3022 H 278.426 -5.95739 -0.722154 0
M  V30 3023 H 279.496 -4.84661 0.152082 0
M  V30 3024 N 280.839 0.0985539 -1.57292 0
M  V30 3025 C 282.255 0.45267 -1.53046 0
M  V30 3026 C 282.455 1.80713 -0.891342 0
M  V30 3027 O 281.511 2.4785 -0.482375 0
M  V30 3028 C 282.824 0.418341 -2.97776 0
M  V30 3029 C 284.372 0.500443 -3.08973 0
M  V30 3030 C 284.847 0.496297 -4.55303 0
M  V30 3031 N 286.338 0.557151 -4.59837 0
M  V30 3032 C 287.073 0.575726 -5.70502 0
M  V30 3033 N 286.569 0.550714 -6.90608 0
M  V30 3034 N 288.362 0.620277 -5.58667 0
M  V30 3035 H 280.513 -0.788673 -1.97215 0
M  V30 3036 H 282.776 -0.293188 -0.901524 0
M  V30 3037 H 282.482 -0.509659 -3.47988 0
M  V30 3038 H 282.356 1.2386 -3.56284 0
M  V30 3039 H 284.743 1.41886 -2.58751 0
M  V30 3040 H 284.824 -0.347894 -2.53423 0
M  V30 3041 H 284.468 -0.418162 -5.06176 0
M  V30 3042 H 284.398 1.3618 -5.08687 0
M  V30 3043 H 286.889 0.581816 -3.73394 0
M  V30 3044 H 287.202 0.568075 -7.70709 0
M  V30 3045 H 285.547 0.517816 -6.93068 0
M  V30 3046 H 288.738 0.637322 -4.63741 0
M  V30 3047 H 288.911 0.631283 -6.44918 0
M  V30 3048 N 282.317 1.53212 0.369288 0
M  V30 3049 C 283.733 1.42902 0.710712 0
M  V30 3050 C 283.933 0.565135 1.93413 0
M  V30 3051 O 282.989 0.0461484 2.52458 0
M  V30 3052 C 284.302 2.86042 0.927382 0
M  V30 3053 C 285.85 2.9565 1.02762 0
M  V30 3054 C 286.325 4.39843 1.27679 0
M  V30 3055 N 287.816 4.43256 1.34457 0
M  V30 3056 C 288.551 5.51929 1.55439 0
M  V30 3057 N 288.047 6.70655 1.73762 0
M  V30 3058 N 289.84 5.39502 1.57779 0
M  V30 3059 H 281.991 2.07888 -0.435457 0
M  V30 3060 H 284.254 0.938661 -0.132739 0
M  V30 3061 H 283.96 3.51557 0.100287 0
M  V30 3062 H 283.834 3.29472 1.83653 0
M  V30 3063 H 286.221 2.30291 1.84527 0
M  V30 3064 H 286.302 2.5562 0.0959504 0
M  V30 3065 H 285.946 5.05774 0.464175 0
M  V30 3066 H 285.876 4.77443 2.22162 0
M  V30 3067 H 288.367 3.5769 1.21926 0
M  V30 3068 H 288.68 7.49248 1.89335 0
M  V30 3069 H 287.025 6.73648 1.70948 0
M  V30 3070 H 290.216 4.45713 1.43029 0
M  V30 3071 H 290.389 6.2426 1.7379 0
M  V30 3072 N 283.795 -0.628877 1.44509 0
M  V30 3073 C 285.211 -0.947305 1.28446 0
M  V30 3074 C 285.411 -2.00275 0.221872 0
M  V30 3075 O 284.467 -2.49447 -0.391471 0
M  V30 3076 C 285.78 -1.40843 2.65676 0
M  V30 3077 C 287.328 -1.52379 2.73404 0
M  V30 3078 C 287.803 -2.01875 4.11109 0
M  V30 3079 N 289.294 -2.09142 4.13296 0
M  V30 3080 C 290.029 -2.48615 5.16699 0
M  V30 3081 N 289.525 -2.87209 6.30462 0
M  V30 3082 N 291.318 -2.48768 5.04054 0
M  V30 3083 H 283.469 0.0690977 2.12288 0
M  V30 3084 H 285.732 -0.0317164 0.947469 0
M  V30 3085 H 285.438 -0.707206 3.44516 0
M  V30 3086 H 285.312 -2.37902 2.92716 0
M  V30 3087 H 287.699 -2.21598 1.9488 0
M  V30 3088 H 287.78 -0.536898 2.50102 0
M  V30 3089 H 287.424 -1.3325 4.90109 0
M  V30 3090 H 287.354 -3.0144 4.31789 0
M  V30 3091 H 289.845 -1.81991 3.31191 0
M  V30 3092 H 290.158 -3.16149 7.05174 0
M  V30 3093 H 288.503 -2.84955 6.33897 0
M  V30 3094 H 291.694 -2.18009 4.14234 0
M  V30 3095 H 291.867 -2.79207 5.84763 0
M  V30 3096 N 285.273 -1.31445 -0.869486 0
M  V30 3097 C 286.52 -1.21158 -1.62256 0
M  V30 3098 C 286.848 0.230155 -1.93133 0
M  V30 3099 O 286.103 1.17906 -1.56194 0
M  V30 3100 C 286.402 -2.00145 -2.96102 0
M  V30 3101 C 286.068 -3.4964 -2.84715 0
M  V30 3102 C 284.73 -3.90403 -2.81317 0
M  V30 3103 C 287.082 -4.44769 -2.71716 0
M  V30 3104 C 284.41 -5.24561 -2.62778 0
M  V30 3105 C 286.762 -5.79054 -2.54714 0
M  V30 3106 C 285.426 -6.19037 -2.49699 0
M  V30 3107 H 284.696 -0.443348 -0.593737 0
M  V30 3108 H 287.343 -1.62715 -1.00976 0
M  V30 3109 H 285.648 -1.5127 -3.6142 0
M  V30 3110 H 287.345 -1.89566 -3.53363 0
M  V30 3111 H 283.935 -3.17256 -2.88178 0
M  V30 3112 H 288.119 -4.14208 -2.73397 0
M  V30 3113 H 283.375 -5.54613 -2.57321 0
M  V30 3114 H 287.549 -6.52393 -2.43632 0
M  V30 3115 H 285.176 -7.22935 -2.35093 0
M  V30 3116 N 286.751 1.08385 -1.14413 0
M  V30 3117 C 287.976 1.85057 -0.936413 0
M  V30 3118 C 288.401 1.81055 0.509971 0
M  V30 3119 O 287.759 1.1958 1.36273 0
M  V30 3120 C 287.807 3.30505 -1.44217 0
M  V30 3121 O 286.911 4.07491 -0.634409 0
M  V30 3122 H 286.252 0.573425 -0.334784 0
M  V30 3123 H 288.782 1.36799 -1.52142 0
M  V30 3124 H 288.792 3.81348 -1.45043 0
M  V30 3125 H 287.467 3.32734 -2.49522 0
M  V30 3126 H 286.044 3.66368 -0.694902 0
M  V30 3127 N 288.23 0.939286 1.26551 0
M  V30 3128 C 289.455 0.602008 1.98471 0
M  V30 3129 C 289.88 -0.815624 1.69497 0
M  V30 3130 O 289.238 -1.54912 0.941905 0
M  V30 3131 C 289.286 0.848407 3.50477 0
M  V30 3132 O 288.39 -0.0804009 4.12322 0
M  V30 3133 H 287.731 0.23049 0.622712 0
M  V30 3134 H 290.261 1.2617 1.61066 0
M  V30 3135 H 290.271 0.768553 4.00696 0
M  V30 3136 H 288.946 1.88171 3.70897 0
M  V30 3137 H 287.523 0.0503508 3.72866 0
M  V30 3138 N 289.708 -1.40897 0.706093 0
M  V30 3139 C 290.638 -2.33418 0.0620085 0
M  V30 3140 C 291.619 -1.52385 -0.755827 0
M  V30 3141 O 292.804 -1.80886 -0.706674 0
M  V30 3142 C 289.934 -3.36293 -0.867445 0
M  V30 3143 C 288.888 -4.27716 -0.155932 0
M  V30 3144 C 288.214 -5.2105 -1.20046 0
M  V30 3145 C 289.514 -5.12944 0.984149 0
M  V30 3146 H 291.208 -2.87527 0.83477 0
M  V30 3147 H 288.754 -1.38249 0.402875 0
M  V30 3148 H 290.707 -3.99949 -1.32735 0
M  V30 3149 H 289.431 -2.80556 -1.67199 0
M  V30 3150 H 288.09 -3.65498 0.284047 0
M  V30 3151 H 287.738 -4.61624 -1.99781 0
M  V30 3152 H 287.438 -5.83056 -0.729328 0
M  V30 3153 H 288.962 -5.87584 -1.66066 0
M  V30 3154 H 290.376 -5.70109 0.604048 0
M  V30 3155 H 288.773 -5.83945 1.38304 0
M  V30 3156 H 289.843 -4.49485 1.81911 0
M  V30 3157 N 291.186 -0.45159 -1.50991 0
M  V30 3158 C 292.136 0.370861 -2.24964 0
M  V30 3159 C 293.12 0.978074 -1.2776 0
M  V30 3160 O 294.312 0.893854 -1.52772 0
M  V30 3161 C 291.441 1.46344 -3.10545 0
M  V30 3162 C 290.527 0.864924 -4.15187 0
M  V30 3163 N 290.918 -0.00311354 -5.058 0
M  V30 3164 C 289.216 1.13099 -4.31422 0
M  V30 3165 C 289.917 -0.340772 -5.80701 0
M  V30 3166 N 288.893 0.279203 -5.42883 0
M  V30 3167 H 292.695 -0.298134 -2.92384 0
M  V30 3168 H 290.209 -0.264528 -1.60231 0
M  V30 3169 H 292.206 2.06565 -3.62128 0
M  V30 3170 H 290.866 2.13463 -2.4467 0
M  V30 3171 H 291.877 -0.37058 -5.16572 0
M  V30 3172 H 288.554 1.79861 -3.76771 0
M  V30 3173 H 289.944 -1.048 -6.63677 0
M  V30 3174 N 292.664 1.56529 -0.183458 0
M  V30 3175 C 293.911 1.97244 0.458357 0
M  V30 3176 C 294.239 1.06992 1.62428 0
M  V30 3177 O 293.494 0.106542 1.9541 0
M  V30 3178 C 293.793 3.43939 0.971637 0
M  V30 3179 C 293.459 4.5083 -0.0796784 0
M  V30 3180 C 292.121 4.79786 -0.368584 0
M  V30 3181 C 294.473 5.15138 -0.792638 0
M  V30 3182 C 291.801 5.70345 -1.37563 0
M  V30 3183 C 294.153 6.06784 -1.78875 0
M  V30 3184 C 292.817 6.34102 -2.08497 0
M  V30 3185 H 292.087 0.721768 0.167725 0
M  V30 3186 H 294.734 1.89472 -0.277976 0
M  V30 3187 H 293.039 3.48724 1.78602 0
M  V30 3188 H 294.736 3.72791 1.47744 0
M  V30 3189 H 291.326 4.28317 0.155668 0
M  V30 3190 H 295.51 4.92868 -0.582659 0
M  V30 3191 H 290.766 5.89789 -1.61118 0
M  V30 3192 H 294.94 6.55677 -2.3465 0
M  V30 3193 H 292.567 7.04074 -2.86678 0
M  V30 3194 N 294.142 -0.090211 1.57342 0
M  V30 3195 C 295.075 -1.14035 1.97664 0
M  V30 3196 C 296.053 -1.38576 0.850616 0
M  V30 3197 O 297.237 -1.52255 1.11134 0
M  V30 3198 C 294.364 -2.48854 2.2976 0
M  V30 3199 C 293.41 -2.40564 3.52181 0
M  V30 3200 S 294.243 -1.81745 5.03715 0
M  V30 3201 C 295.399 -3.18178 5.38993 0
M  V30 3202 H 295.632 -0.796636 2.86428 0
M  V30 3203 H 293.165 -0.298072 1.51496 0
M  V30 3204 H 295.123 -3.26413 2.48927 0
M  V30 3205 H 293.784 -2.80393 1.41558 0
M  V30 3206 H 292.977 -3.39942 3.72096 0
M  V30 3207 H 292.579 -1.71135 3.32549 0
M  V30 3208 H 294.871 -4.14461 5.35937 0
M  V30 3209 H 295.814 -3.03062 6.39968 0
M  V30 3210 H 296.222 -3.17935 4.66452 0
M  V30 3211 N 295.62 -1.53406 -0.361157 0
M  V30 3212 C 296.866 -1.70054 -1.10496 0
M  V30 3213 C 297.199 -0.453278 -1.88836 0
M  V30 3214 O 296.474 0.5495 -1.86576 0
M  V30 3215 C 296.757 -2.95317 -2.06058 0
M  V30 3216 C 296.61 -4.3021 -1.31298 0
M  V30 3217 C 297.929 -3.16193 -3.06121 0
M  V30 3218 H 295.048 -0.618799 -0.400321 0
M  V30 3219 H 297.69 -1.86052 -0.385318 0
M  V30 3220 H 295.84 -2.81809 -2.67425 0
M  V30 3221 H 297.512 -4.55538 -0.726807 0
M  V30 3222 H 295.755 -4.29421 -0.614853 0
M  V30 3223 H 296.426 -5.14 -2.01265 0
M  V30 3224 H 298.902 -3.28916 -2.5486 0
M  V30 3225 H 297.778 -4.05266 -3.70204 0
M  V30 3226 H 298.039 -2.31676 -3.76535 0
M  V30 3227 N 297.098 0.621204 -1.44841 0
M  V30 3228 C 298.008 1.7612 -1.5498 0
M  V30 3229 C 299.024 1.68477 -0.434927 0
M  V30 3230 O 300.2 1.89076 -0.693693 0
M  V30 3231 C 297.265 3.1254 -1.50065 0
M  V30 3232 C 296.326 3.31741 -2.72482 0
M  V30 3233 C 295.559 4.61653 -2.67792 0
M  V30 3234 O 295.782 5.431 -1.74352 0
M  V30 3235 O 294.716 4.83271 -3.58794 0
M  V30 3236 H 298.542 1.70518 -2.51311 0
M  V30 3237 H 296.127 0.783643 -1.27198 0
M  V30 3238 H 298.009 3.93844 -1.49882 0
M  V30 3239 H 296.684 3.18663 -0.568806 0
M  V30 3240 H 295.591 2.50077 -2.7823 0
M  V30 3241 H 296.924 3.30486 -3.64746 0
M  V30 3242 N 298.576 1.31904 0.862503 0
M  V30 3243 C 299.822 1.22197 1.61851 0
M  V30 3244 C 300.155 -0.217641 1.92977 0
M  V30 3245 O 299.43 -1.15264 1.56666 0
M  V30 3246 C 299.713 2.07378 2.94391 0
M  V30 3247 C 299.566 3.59678 2.70096 0
M  V30 3248 C 300.885 1.92891 3.95577 0
M  V30 3249 H 298.004 0.445255 0.587296 0
M  V30 3250 H 300.646 1.6177 0.99651 0
M  V30 3251 H 298.796 1.73758 3.47477 0
M  V30 3252 H 300.468 4.03472 2.23625 0
M  V30 3253 H 298.711 3.82735 2.04197 0
M  V30 3254 H 299.382 4.14595 3.64438 0
M  V30 3255 H 301.858 2.22327 3.51724 0
M  V30 3256 H 300.734 2.54781 4.86187 0
M  V30 3257 H 300.995 0.894315 4.3296 0
M  V30 3258 N 300.054 -1.07777 1.14986 0
M  V30 3259 C 301.001 -2.14867 0.842672 0
M  V30 3260 C 301.971 -1.6486 -0.202552 0
M  V30 3261 O 303.156 -1.90668 -0.0710568 0
M  V30 3262 C 300.296 -3.43486 0.333363 0
M  V30 3263 C 299.409 -4.07306 1.43965 0
M  V30 3264 C 298.544 -5.23744 0.886914 0
M  V30 3265 C 297.583 -5.79517 1.97043 0
M  V30 3266 N 296.72 -6.87291 1.4344 0
M  V30 3267 H 301.56 -2.40485 1.75986 0
M  V30 3268 H 299.097 -1.1801 0.878179 0
M  V30 3269 H 301.055 -4.17195 0.0198163 0
M  V30 3270 H 299.685 -3.18133 -0.546916 0
M  V30 3271 H 298.737 -3.31293 1.86946 0
M  V30 3272 H 300.049 -4.44771 2.25788 0
M  V30 3273 H 299.203 -6.04419 0.525651 0
M  V30 3274 H 297.942 -4.87685 0.0377957 0
M  V30 3275 H 296.947 -4.97491 2.34057 0
M  V30 3276 H 298.172 -6.17632 2.82325 0
M  V30 3277 H 296.118 -6.5318 0.607567 0
M  V30 3278 H 296.035 -7.23617 2.18895 0
M  V30 3279 H 297.303 -7.71682 1.10124 0
M  V30 3280 N 301.532 -0.945985 -1.26051 0
M  V30 3281 C 302.78 -0.594941 -1.93145 0
M  V30 3282 C 303.101 0.86953 -1.7454 0
M  V30 3283 O 302.371 1.61838 -1.10387 0
M  V30 3284 H 300.951 -0.217044 -0.714773 0
M  V30 3285 H 303.613 -1.20235 -1.53393 0
M  V30 3286 H 302.709 -0.816835 -3.01221 0
M  V30 3287 N 303.011 1.40521 -0.713556 0
M  V30 3288 C 304.288 1.94775 -0.17943 0
M  V30 3289 C 304.668 1.65184 1.31444 0
M  V30 3290 O 304.016 0.968429 2.06963 0
M  V30 3291 C 304.226 3.45543 -0.489986 0
M  V30 3292 C 305.574 4.22442 -0.427536 0
M  V30 3293 O 306.598 3.53644 -0.425929 0
M  V30 3294 O 305.457 5.4501 -0.403292 0
M  V30 3295 H 302.551 0.826606 -0.0255192 0
M  V30 3296 H 305.097 1.5014 -0.790949 0
M  V30 3297 H 303.869 3.60432 -1.5233 0
M  V30 3298 H 303.492 3.97311 0.151598 0
M  V30 3299 N 304.489 0.459591 1.5075 0
M  V30 3300 C 305.419 -0.330644 2.31147 0
M  V30 3301 C 306.4 -1.00087 1.37538 0
M  V30 3302 O 307.585 -1.00025 1.66459 0
M  V30 3303 C 304.715 -1.41958 3.16962 0
M  V30 3304 C 303.669 -0.871608 4.19031 0
M  V30 3305 C 302.995 -2.05797 4.9351 0
M  V30 3306 C 304.295 0.109251 5.22186 0
M  V30 3307 H 305.989 0.340336 2.97459 0
M  V30 3308 H 303.535 0.165119 1.4305 0
M  V30 3309 H 305.488 -1.9798 3.71997 0
M  V30 3310 H 304.212 -2.11917 2.48513 0
M  V30 3311 H 302.871 -0.333442 3.6508 0
M  V30 3312 H 302.519 -2.74427 4.21544 0
M  V30 3313 H 302.219 -1.6976 5.62544 0
M  V30 3314 H 303.743 -2.62331 5.51375 0
M  V30 3315 H 305.157 -0.361405 5.7216 0
M  V30 3316 H 303.554 0.383316 5.98875 0
M  V30 3317 H 304.624 1.03887 4.73641 0
M  V30 3318 N 305.967 -1.56429 0.191757 0
M  V30 3319 C 307.195 -2.01867 -0.453586 0
M  V30 3320 C 307.61 -1.07191 -1.5542 0
M  V30 3321 O 306.967 -0.0762108 -1.82341 0
M  V30 3322 C 307.018 -3.47017 -1.013 0
M  V30 3323 O 306.739 -4.38078 0.0437005 0
M  V30 3324 C 308.24 -4.07956 -1.73456 0
M  V30 3325 H 305.46 -0.661211 -0.114199 0
M  V30 3326 H 308.004 -2.02295 0.299483 0
M  V30 3327 H 306.159 -3.47298 -1.71647 0
M  V30 3328 H 306.573 -5.23178 -0.372212 0
M  V30 3329 H 308.047 -5.1138 -2.07833 0
M  V30 3330 H 308.524 -3.51222 -2.63704 0
M  V30 3331 H 309.13 -4.11437 -1.07702 0
M  V30 3332 N 307.445 0.0818655 -1.57387 0
M  V30 3333 C 308.408 1.08265 -2.02018 0
M  V30 3334 C 309.408 1.32183 -0.915664 0
M  V30 3335 O 310.598 1.28073 -1.18081 0
M  V30 3336 C 307.73 2.42871 -2.39221 0
M  V30 3337 H 308.923 0.698204 -2.91659 0
M  V30 3338 H 306.476 0.327303 -1.52835 0
M  V30 3339 H 307.211 2.86167 -1.52575 0
M  V30 3340 H 306.996 2.26855 -3.19811 0
M  V30 3341 H 308.486 3.14826 -2.74362 0
M  V30 3342 N 308.923 1.53595 0.353017 0
M  V30 3343 C 309.87 1.80919 1.43308 0
M  V30 3344 C 310.84 0.654288 1.5267 0
M  V30 3345 O 312.025 0.897759 1.6836 0
M  V30 3346 C 309.165 2.01605 2.80089 0
M  V30 3347 C 308.278 3.29321 2.79593 0
M  V30 3348 C 307.413 3.40125 4.0803 0
M  V30 3349 C 306.452 4.61826 4.01725 0
M  V30 3350 N 305.589 4.69716 5.21834 0
M  V30 3351 H 310.429 2.73074 1.19308 0
M  V30 3352 H 307.966 1.35263 0.578131 0
M  V30 3353 H 309.924 2.11586 3.59565 0
M  V30 3354 H 308.554 1.12772 3.0246 0
M  V30 3355 H 307.606 3.28229 1.92276 0
M  V30 3356 H 308.918 4.18884 2.70809 0
M  V30 3357 H 308.072 3.49488 4.95927 0
M  V30 3358 H 306.811 2.48601 4.19582 0
M  V30 3359 H 305.816 4.52552 3.12213 0
M  V30 3360 H 307.041 5.54705 3.91764 0
M  V30 3361 H 304.987 3.81097 5.33948 0
M  V30 3362 H 304.904 5.53202 5.1527 0
M  V30 3363 H 306.172 4.83376 6.11529 0
M  V30 3364 N 310.401 -0.613514 1.45168 0
M  V30 3365 C 311.348 -1.72456 1.53387 0
M  V30 3366 C 312.318 -1.6169 0.380191 0
M  V30 3367 O 313.503 -1.81356 0.592836 0
M  V30 3368 C 310.643 -3.10753 1.50088 0
M  V30 3369 C 309.756 -3.32368 2.75963 0
M  V30 3370 C 308.891 -4.60737 2.64376 0
M  V30 3371 C 307.93 -4.7559 3.85332 0
M  V30 3372 N 307.067 -5.95253 3.72315 0
M  V30 3373 H 311.907 -1.64768 2.48305 0
M  V30 3374 H 309.444 -0.803503 1.23216 0
M  V30 3375 H 311.402 -3.90758 1.46164 0
M  V30 3376 H 310.032 -3.17413 0.587243 0
M  V30 3377 H 309.084 -2.4618 2.89999 0
M  V30 3378 H 310.396 -3.39218 3.65695 0
M  V30 3379 H 309.55 -5.48928 2.58385 0
M  V30 3380 H 308.289 -4.56275 1.72233 0
M  V30 3381 H 307.294 -3.85824 3.91688 0
M  V30 3382 H 308.519 -4.81854 4.78533 0
M  V30 3383 H 306.465 -5.91847 2.82937 0
M  V30 3384 H 306.382 -6.03236 4.55677 0
M  V30 3385 H 307.65 -6.85958 3.70246 0
M  V30 3386 N 311.879 -1.3236 -0.855495 0
M  V30 3387 C 312.812 -1.15559 -1.96777 0
M  V30 3388 C 313.79 -0.0552681 -1.62506 0
M  V30 3389 O 314.974 -0.214419 -1.87277 0
M  V30 3390 C 312.101 -0.768851 -3.29858 0
M  V30 3391 C 311.147 -1.87429 -3.83109 0
M  V30 3392 S 311.98 -3.48243 -4.06801 0
M  V30 3393 C 313.136 -3.11539 -5.42858 0
M  V30 3394 H 313.369 -2.09717 -2.10727 0
M  V30 3395 H 310.902 -1.17011 -1.00737 0
M  V30 3396 H 312.86 -0.55248 -4.06765 0
M  V30 3397 H 311.521 0.153857 -3.13723 0
M  V30 3398 H 310.714 -1.55667 -4.79358 0
M  V30 3399 H 310.316 -2.04647 -3.13042 0
M  V30 3400 H 312.608 -2.61331 -6.2507 0
M  V30 3401 H 313.551 -4.06806 -5.79582 0
M  V30 3402 H 313.959 -2.48582 -5.06821 0
M  V30 3403 N 313.357 1.07166 -1.15556 0
M  V30 3404 C 314.603 1.80065 -0.932984 0
M  V30 3405 C 314.936 1.86586 0.53845 0
M  V30 3406 O 314.211 1.35098 1.39924 0
M  V30 3407 C 314.494 3.25022 -1.55025 0
M  V30 3408 C 314.347 3.26634 -3.09242 0
M  V30 3409 C 315.666 4.22341 -1.2376 0
M  V30 3410 H 312.785 0.653697 -0.340366 0
M  V30 3411 H 315.427 1.25389 -1.4275 0
M  V30 3412 H 313.577 3.71712 -1.12972 0
M  V30 3413 H 315.249 2.88173 -3.60214 0
M  V30 3414 H 313.492 2.65539 -3.43033 0
M  V30 3415 H 314.163 4.28854 -3.47546 0
M  V30 3416 H 316.639 3.8405 -1.60139 0
M  V30 3417 H 315.515 5.22053 -1.69564 0
M  V30 3418 H 315.776 4.41828 -0.154938 0
M  V30 3419 N 314.835 0.952656 1.25548 0
M  V30 3420 C 315.765 0.489287 2.28316 0
M  V30 3421 C 316.746 -0.463359 1.63667 0
M  V30 3422 O 317.931 -0.36274 1.90782 0
M  V30 3423 C 315.061 -0.235603 3.465 0
M  V30 3424 C 314.015 0.631593 4.23314 0
M  V30 3425 C 313.341 -0.223923 5.34231 0
M  V30 3426 C 314.641 1.90871 4.86174 0
M  V30 3427 H 316.335 1.34822 2.67326 0
M  V30 3428 H 313.881 0.649728 1.28509 0
M  V30 3429 H 315.834 -0.570882 4.17515 0
M  V30 3430 H 314.558 -1.12877 3.06474 0
M  V30 3431 H 313.217 0.949929 3.54079 0
M  V30 3432 H 312.865 -1.11678 4.90446 0
M  V30 3433 H 312.565 0.35299 5.86539 0
M  V30 3434 H 314.089 -0.554214 6.0808 0
M  V30 3435 H 315.503 1.63997 5.49343 0
M  V30 3436 H 313.9 2.43112 5.4865 0
M  V30 3437 H 314.97 2.61304 4.08471 0
M  V30 3438 N 316.313 -1.40141 0.720998 0
M  V30 3439 C 317.276 -2.29058 0.0805834 0
M  V30 3440 C 318.276 -1.45632 -0.681758 0
M  V30 3441 O 319.466 -1.6648 -0.512856 0
M  V30 3442 C 316.598 -3.28925 -0.895593 0
M  V30 3443 H 317.791 -2.87191 0.863793 0
M  V30 3444 H 315.344 -1.48553 0.485975 0
M  V30 3445 H 316.079 -2.75822 -1.70566 0
M  V30 3446 H 315.864 -3.90519 -0.351766 0
M  V30 3447 H 317.354 -3.95494 -1.34069 0
M  V30 3448 N 317.792 -0.46758 -1.50504 0
M  V30 3449 C 318.722 0.318381 -2.31319 0
M  V30 3450 C 319.703 0.993564 -1.38066 0
M  V30 3451 O 320.888 0.991411 -1.66987 0
M  V30 3452 C 318.018 1.40275 -3.17711 0
M  V30 3453 C 316.972 0.849373 -4.19487 0
M  V30 3454 C 316.298 2.03177 -4.94594 0
M  V30 3455 C 317.598 -0.136942 -5.2212 0
M  V30 3456 H 319.292 -0.356106 -2.97275 0
M  V30 3457 H 316.838 -0.172703 -1.42961 0
M  V30 3458 H 318.791 1.96004 -3.73042 0
M  V30 3459 H 317.515 2.10596 -2.49634 0
M  V30 3460 H 316.174 0.314076 -3.65252 0
M  V30 3461 H 315.822 2.72187 -4.22993 0
M  V30 3462 H 315.522 1.66774 -5.63436 0
M  V30 3463 H 317.046 2.59403 -5.52759 0
M  V30 3464 H 318.46 0.331056 -5.72343 0
M  V30 3465 H 316.857 -0.41507 -5.98663 0
M  V30 3466 H 317.927 -1.06398 -4.73083 0
M  V30 3467 N 319.27 1.56325 -0.20005 0
M  V30 3468 C 320.2 2.22318 0.713916 0
M  V30 3469 C 321.181 1.18788 1.21752 0
M  V30 3470 O 322.366 1.47309 1.26545 0
M  V30 3471 C 319.496 2.88639 1.93144 0
M  V30 3472 C 318.45 3.98457 1.56255 0
M  V30 3473 C 317.776 4.51967 2.85709 0
M  V30 3474 C 319.076 5.16612 0.768747 0
M  V30 3475 H 320.77 2.98952 0.163755 0
M  V30 3476 H 318.316 1.43792 0.0773219 0
M  V30 3477 H 320.269 3.33491 2.57608 0
M  V30 3478 H 318.993 2.09419 2.50621 0
M  V30 3479 H 317.652 3.54305 0.941471 0
M  V30 3480 H 317.3 3.69503 3.41287 0
M  V30 3481 H 317 5.26071 2.6177 0
M  V30 3482 H 318.524 4.99523 3.51154 0
M  V30 3483 H 319.938 5.57977 1.3166 0
M  V30 3484 H 318.335 5.96812 0.627286 0
M  V30 3485 H 319.405 4.84358 -0.229168 0
M  V30 3486 N 320.748 -0.0735177 1.57428 0
M  V30 3487 C 321.658 -1.10547 2.06922 0
M  V30 3488 C 322.674 -1.42506 0.998402 0
M  V30 3489 O 323.85 -1.52717 1.31299 0
M  V30 3490 C 320.915 -2.40019 2.50184 0
M  V30 3491 C 319.976 -2.15046 3.71556 0
M  V30 3492 C 319.209 -3.38345 4.12745 0
M  V30 3493 O 319.432 -4.47399 3.53822 0
M  V30 3494 O 318.366 -3.2666 5.05546 0
M  V30 3495 H 322.192 -0.715013 2.95163 0
M  V30 3496 H 319.777 -0.287531 1.46607 0
M  V30 3497 H 321.659 -3.16218 2.78539 0
M  V30 3498 H 320.334 -2.78447 1.65072 0
M  V30 3499 H 319.241 -1.36558 3.48285 0
M  V30 3500 H 320.574 -1.81499 4.57514 0
M  V30 3501 N 322.226 -1.5378 -0.344866 0
M  V30 3502 C 323.156 -1.84662 -1.42906 0
M  V30 3503 C 324.137 -0.701648 -1.54955 0
M  V30 3504 O 325.322 -0.953438 -1.69184 0
M  V30 3505 C 322.452 -2.05503 -2.79974 0
M  V30 3506 C 321.406 -3.21318 -2.82734 0
M  V30 3507 C 320.732 -3.2749 -4.22675 0
M  V30 3508 C 322.032 -4.59456 -2.48389 0
M  V30 3509 H 323.726 -2.75461 -1.17311 0
M  V30 3510 H 321.272 -1.32542 -0.562896 0
M  V30 3511 H 323.225 -2.25691 -3.55867 0
M  V30 3512 H 321.949 -1.11434 -3.07002 0
M  V30 3513 H 320.608 -3.00984 -2.09294 0
M  V30 3514 H 320.256 -2.31019 -4.4681 0
M  V30 3515 H 319.956 -4.05316 -4.25433 0
M  V30 3516 H 321.48 -3.49887 -5.00412 0
M  V30 3517 H 322.894 -4.79667 -3.13995 0
M  V30 3518 H 321.291 -5.39675 -2.62432 0
M  V30 3519 H 322.361 -4.63155 -1.4358 0
M  V30 3520 N 323.704 0.605807 -1.45491 0
M  V30 3521 C 324.667 1.69836 -1.5391 0
M  V30 3522 C 325.667 1.55261 -0.418424 0
M  V30 3523 O 326.857 1.60296 -0.681965 0
M  V30 3524 C 323.989 3.09117 -1.43734 0
M  V30 3525 H 325.182 1.63738 -2.51257 0
M  V30 3526 H 322.735 0.821689 -1.32959 0
M  V30 3527 H 323.47 3.20791 -0.475788 0
M  V30 3528 H 323.255 3.21104 -2.25021 0
M  V30 3529 H 324.745 3.88696 -1.52661 0
M  V30 3530 N 325.182 1.32811 0.848464 0
M  V30 3531 C 326.114 1.18095 1.96433 0
M  V30 3532 C 327.127 0.114354 1.62398 0
M  V30 3533 O 328.316 0.363892 1.74751 0
M  V30 3534 C 325.416 0.786798 3.2964 0
M  V30 3535 C 324.589 1.943 3.91875 0
M  V30 3536 C 323.648 1.53138 5.03423 0
M  V30 3537 O 322.674 2.24432 5.23086 0
M  V30 3538 N 323.876 0.430915 5.78898 0
M  V30 3539 H 326.641 2.14218 2.09597 0
M  V30 3540 H 324.202 1.2543 1.02367 0
M  V30 3541 H 326.194 0.493715 4.01677 0
M  V30 3542 H 324.764 -0.0834541 3.12489 0
M  V30 3543 H 323.984 2.40224 3.12547 0
M  V30 3544 H 325.272 2.71689 4.30189 0
M  V30 3545 H 324.67 -0.162333 5.65467 0
M  V30 3546 H 323.227 0.197466 6.51501 0
M  V30 3547 N 326.66 -1.06551 1.16123 0
M  V30 3548 C 327.592 -2.13908 0.823171 0
M  V30 3549 C 328.605 -1.61926 -0.16843 0
M  V30 3550 O 329.794 -1.78412 0.055962 0
M  V30 3551 C 326.894 -3.38283 0.204424 0
M  V30 3552 C 326.067 -4.19589 1.23548 0
M  V30 3553 C 325.126 -5.2233 0.637011 0
M  V30 3554 O 324.152 -5.54034 1.30516 0
M  V30 3555 N 325.354 -5.77621 -0.577474 0
M  V30 3556 H 328.119 -2.43508 1.74711 0
M  V30 3557 H 325.68 -1.2253 1.05821 0
M  V30 3558 H 327.672 -4.0416 -0.208909 0
M  V30 3559 H 326.242 -3.06329 -0.623012 0
M  V30 3560 H 325.462 -3.49406 1.82507 0
M  V30 3561 H 326.75 -4.70718 1.93137 0
M  V30 3562 H 326.148 -5.54125 -1.13853 0
M  V30 3563 H 324.705 -6.45087 -0.933053 0
M  V30 3564 N 328.138 -0.959301 -1.25041 0
M  V30 3565 C 329.415 -0.533805 -1.88175 0
M  V30 3566 C 329.795 0.988994 -1.865 0
M  V30 3567 O 329.143 1.85677 -1.33177 0
M  V30 3568 C 329.353 -1.11575 -3.30684 0
M  V30 3569 C 330.701 -1.19548 -4.07423 0
M  V30 3570 O 331.725 -1.06765 -3.39823 0
M  V30 3571 O 330.584 -1.39656 -5.28354 0
M  V30 3572 H 327.678 -0.176772 -0.807887 0
M  V30 3573 H 330.224 -1.05303 -1.33076 0
M  V30 3574 H 328.996 -2.15884 -3.26358 0
M  V30 3575 H 328.619 -0.580059 -3.93346 0
M  V30 3576 N 329.616 1.39756 -0.72842 0
M  V30 3577 C 330.566 2.2792 -0.0603424 0
M  V30 3578 C 331.55 1.43922 0.719399 0
M  V30 3579 O 332.742 1.66895 0.589489 0
M  V30 3580 C 329.871 3.32582 0.851104 0
M  V30 3581 C 328.957 4.24049 0.0658641 0
M  V30 3582 N 329.348 4.96653 -0.957578 0
M  V30 3583 C 327.646 4.45013 0.296509 0
M  V30 3584 C 328.347 5.63836 -1.43052 0
M  V30 3585 N 327.323 5.38397 -0.750315 0
M  V30 3586 H 331.125 2.81504 -0.84455 0
M  V30 3587 H 328.639 1.5236 -0.562155 0
M  V30 3588 H 330.636 3.94603 1.34514 0
M  V30 3589 H 329.296 2.80558 1.63454 0
M  V30 3590 H 330.307 5.00297 -1.33877 0
M  V30 3591 H 326.984 4.03943 1.05527 0
M  V30 3592 H 328.374 6.31974 -2.28163 0
M  V30 3593 N 331.094 0.475555 1.50254 0
M  V30 3594 C 332.342 -0.077738 2.0195 0
M  V30 3595 C 332.663 -1.39813 1.35931 0
M  V30 3596 O 331.933 -1.89249 0.506123 0
M  V30 3597 H 330.513 -0.031719 0.746326 0
M  V30 3598 H 333.175 0.626995 1.84539 0
M  V30 3599 H 332.271 -0.225995 3.11281 0
M  V30 3600 N 332.573 -1.56217 0.208337 0
M  V30 3601 C 333.536 -2.18455 -0.693557 0
M  V30 3602 C 334.536 -1.14268 -1.13135 0
M  V30 3603 O 335.726 -1.39577 -1.0423 0
M  V30 3604 C 332.858 -2.79727 -1.94848 0
M  V30 3605 H 334.051 -2.99519 -0.15114 0
M  V30 3606 H 331.604 -1.56245 -0.041287 0
M  V30 3607 H 332.339 -2.02497 -2.53309 0
M  V30 3608 H 332.124 -3.56009 -1.64316 0
M  V30 3609 H 333.614 -3.27475 -2.59133 0
M  V30 3610 N 334.051 0.0651679 -1.57465 0
M  V30 3611 C 334.981 1.07693 -2.07182 0
M  V30 3612 C 335.962 1.39962 -0.966673 0
M  V30 3613 O 337.147 1.49475 -1.2398 0
M  V30 3614 C 334.277 2.3885 -2.52127 0
M  V30 3615 C 333.231 2.20917 -3.66579 0
M  V30 3616 C 332.557 3.57515 -3.97601 0
M  V30 3617 C 333.857 1.62493 -4.9638 0
M  V30 3618 H 335.551 0.663199 -2.91962 0
M  V30 3619 H 333.097 0.317569 -1.40455 0
M  V30 3620 H 335.05 3.09928 -2.85522 0
M  V30 3621 H 333.774 2.82215 -1.64384 0
M  V30 3622 H 332.433 1.52279 -3.33477 0
M  V30 3623 H 332.081 3.98463 -3.06979 0
M  V30 3624 H 331.781 3.46353 -4.74672 0
M  V30 3625 H 333.305 4.30013 -4.33499 0
M  V30 3626 H 334.719 2.23445 -5.27963 0
M  V30 3627 H 333.116 1.62009 -5.77818 0
M  V30 3628 H 334.186 0.587041 -4.81333 0
M  V30 3629 N 335.529 1.53961 0.336706 0
M  V30 3630 C 336.806 1.62171 1.09361 0
M  V30 3631 C 337.186 0.447263 2.06307 0
M  V30 3632 O 336.534 -0.559802 2.21537 0
M  V30 3633 C 336.744 2.98565 1.80721 0
M  V30 3634 C 338.092 3.54157 2.34218 0
M  V30 3635 O 339.116 3.00784 1.90807 0
M  V30 3636 O 337.975 4.47528 3.13657 0
M  V30 3637 H 335.069 0.6562 0.503319 0
M  V30 3638 H 337.615 1.66307 0.33765 0
M  V30 3639 H 336.387 3.75482 1.10132 0
M  V30 3640 H 336.01 2.9805 2.63158 0
M  V30 3641 N 337.007 -0.598083 1.45811 0
M  V30 3642 C 338.247 -1.36802 1.5187 0
M  V30 3643 C 338.611 -1.9133 0.160224 0
M  V30 3644 O 339.812 -2.6863 0.0955302 0
M  V30 3645 C 338.083 -2.47835 2.57513 0
M  V30 3646 S 339.642 -3.35458 2.82866 0
M  V30 3647 H 336.46 -0.466278 0.536755 0
M  V30 3648 H 339.062 -0.689152 1.82951 0
M  V30 3649 H 337.766 -2.06141 3.54872 0
M  V30 3650 H 337.297 -3.20512 2.28114 0
M  V30 3651 H 339.312 -4.46251 2.16967 0
M  V30 3652 N 338.485 -1.33259 -0.841409 0
M  V30 3653 C 339.725 -1.25902 -1.61022 0
M  V30 3654 C 340.089 0.173325 -1.91216 0
M  V30 3655 O 341.29 0.370824 -2.6623 0
M  V30 3656 C 339.561 -2.10735 -2.88662 0
M  V30 3657 S 341.12 -2.20541 -3.79351 0
M  V30 3658 H 337.938 -0.447958 -0.552137 0
M  V30 3659 H 340.54 -1.68263 -0.995382 0
M  V30 3660 H 339.244 -3.1384 -2.64448 0
M  V30 3661 H 338.775 -1.69201 -3.55154 0
M  V30 3662 H 340.79 -1.36462 -4.77067 0
M  V30 3663 N 339.963 1.05934 -1.16686 0
M  V30 3664 C 341.209 1.79065 -0.95203 0
M  V30 3665 C 341.542 1.87147 0.518629 0
M  V30 3666 O 340.817 1.36574 1.38484 0
M  V30 3667 C 341.1 3.23359 -1.58464 0
M  V30 3668 C 340.953 3.23336 -3.12689 0
M  V30 3669 C 342.272 4.21004 -1.28232 0
M  V30 3670 H 339.391 0.65005 -0.34728 0
M  V30 3671 H 342.033 1.23868 -1.44072 0
M  V30 3672 H 340.183 3.70493 -1.16908 0
M  V30 3673 H 341.855 2.84336 -3.6325 0
M  V30 3674 H 340.098 2.61886 -3.4583 0
M  V30 3675 H 340.769 4.25144 -3.52075 0
M  V30 3676 H 343.245 3.8233 -1.64203 0
M  V30 3677 H 342.121 5.20225 -1.75092 0
M  V30 3678 H 342.382 4.41639 -0.201791 0
M  V30 3679 N 341.441 0.965919 1.2453 0
M  V30 3680 C 342.687 0.62776 1.92839 0
M  V30 3681 C 343.02 -0.834694 1.75347 0
M  V30 3682 O 342.295 -1.60031 1.10546 0
M  V30 3683 C 342.578 1.00109 3.45905 0
M  V30 3684 C 342.431 2.52011 3.72573 0
M  V30 3685 C 343.75 0.53435 4.36844 0
M  V30 3686 H 340.869 0.229537 0.700344 0
M  V30 3687 H 343.511 1.2046 1.46933 0
M  V30 3688 H 341.661 0.510238 3.85135 0
M  V30 3689 H 343.333 3.08559 3.42912 0
M  V30 3690 H 341.576 2.95287 3.17786 0
M  V30 3691 H 342.247 2.73183 4.79661 0
M  V30 3692 H 344.723 0.955565 4.04979 0
M  V30 3693 H 343.599 0.824152 5.42678 0
M  V30 3694 H 343.86 -0.565589 4.38467 0
M  V30 3695 N 342.919 -1.39368 0.735821 0
M  V30 3696 C 344.165 -2.00794 0.284544 0
M  V30 3697 C 344.498 -1.58255 -1.12557 0
M  V30 3698 O 343.773 -0.811819 -1.76748 0
M  V30 3699 C 344.056 -3.58011 0.387337 0
M  V30 3700 C 343.909 -4.10566 1.83728 0
M  V30 3701 C 345.228 -4.395 -0.22975 0
M  V30 3702 H 342.347 -0.729501 0.104866 0
M  V30 3703 H 344.989 -1.65564 0.93213 0
M  V30 3704 H 343.139 -3.88154 -0.164006 0
M  V30 3705 H 344.811 -3.91139 2.44556 0
M  V30 3706 H 343.054 -3.64095 2.35833 0
M  V30 3707 H 343.725 -5.19702 1.86047 0
M  V30 3708 H 346.201 -4.15406 0.240257 0
M  V30 3709 H 345.077 -5.48752 -0.127485 0
M  V30 3710 H 345.338 -4.22062 -1.3159 0
M  V30 3711 N 344.397 -0.483516 -1.5 0
M  V30 3712 C 345.646 0.0689102 -2.01582 0
M  V30 3713 C 345.959 1.39655 -1.36952 0
M  V30 3714 O 347.165 2.03465 -1.79762 0
M  V30 3715 C 345.621 0.173302 -3.59483 0
M  V30 3716 C 345.229 -1.14665 -4.33077 0
M  V30 3717 C 346.973 0.677024 -4.19066 0
M  V30 3718 C 344.88 -1.00537 -5.82792 0
M  V30 3719 H 343.81 0.0295277 -0.753422 0
M  V30 3720 H 346.461 -0.620295 -1.72698 0
M  V30 3721 H 344.843 0.926569 -3.85007 0
M  V30 3722 H 346.017 -1.91184 -4.19268 0
M  V30 3723 H 344.332 -1.58244 -3.85159 0
M  V30 3724 H 346.929 0.799952 -5.28682 0
M  V30 3725 H 347.272 1.67151 -3.81269 0
M  V30 3726 H 347.805 -0.0192083 -3.97795 0
M  V30 3727 H 344.544 -1.9736 -6.25083 0
M  V30 3728 H 344.064 -0.280776 -5.99142 0
M  V30 3729 H 345.743 -0.677 -6.43448 0
M  V30 3730 N 345.875 1.56104 -0.216619 0
M  V30 3731 C 346.805 2.23063 0.690296 0
M  V30 3732 C 347.786 1.20072 1.20485 0
M  V30 3733 O 348.971 1.48643 1.24976 0
M  V30 3734 C 346.101 2.90672 1.90072 0
M  V30 3735 C 345.055 4.00092 1.5202 0
M  V30 3736 C 344.381 4.54972 2.80899 0
M  V30 3737 C 345.681 5.17398 0.71391 0
M  V30 3738 H 347.375 2.99109 0.132038 0
M  V30 3739 H 344.921 1.43866 0.0620664 0
M  V30 3740 H 346.874 3.36204 2.54057 0
M  V30 3741 H 345.598 2.12066 2.48386 0
M  V30 3742 H 344.257 3.55283 0.903839 0
M  V30 3743 H 343.905 3.73102 3.37348 0
M  V30 3744 H 343.605 5.28817 2.56176 0
M  V30 3745 H 345.129 5.0322 3.45836 0
M  V30 3746 H 346.543 5.59342 1.25735 0
M  V30 3747 H 344.94 5.97444 0.563951 0
M  V30 3748 H 346.01 4.84088 -0.280527 0
M  V30 3749 N 347.353 -0.0568162 1.57498 0
M  V30 3750 C 348.578 -0.769402 1.92601 0
M  V30 3751 C 349.003 -1.69559 0.814336 0
M  V30 3752 O 348.361 -1.79811 -0.231903 0
M  V30 3753 C 348.409 -1.52634 3.26704 0
M  V30 3754 O 347.513 -2.63797 3.16994 0
M  V30 3755 H 346.854 -0.208909 0.63028 0
M  V30 3756 H 349.384 -0.0205798 2.0459 0
M  V30 3757 H 349.394 -1.90234 3.60936 0
M  V30 3758 H 348.069 -0.846875 4.07186 0
M  V30 3759 H 346.646 -2.28943 2.94346 0
M  V30 3760 N 348.832 -1.54138 -0.328536 0
M  V30 3761 C 349.782 -1.79557 -1.4051 0
M  V30 3762 C 350.766 -0.651373 -1.47126 0
M  V30 3763 O 351.958 -0.911226 -1.51742 0
M  V30 3764 C 349.087 -2.02196 -2.77438 0
M  V30 3765 C 348.173 -3.22724 -2.75155 0
M  V30 3766 N 348.564 -4.43881 -2.42494 0
M  V30 3767 C 346.862 -3.24196 -3.06289 0
M  V30 3768 C 347.563 -5.25797 -2.48822 0
M  V30 3769 N 346.539 -4.62862 -2.8506 0
M  V30 3770 H 350.341 -2.70814 -1.1418 0
M  V30 3771 H 347.855 -1.53265 -0.536991 0
M  V30 3772 H 349.852 -2.18546 -3.55026 0
M  V30 3773 H 348.512 -1.12191 -3.04702 0
M  V30 3774 H 349.523 -4.70969 -2.15428 0
M  V30 3775 H 346.2 -2.44208 -3.38627 0
M  V30 3776 H 347.59 -6.32535 -2.26603 0
M  V30 3777 N 350.31 0.590341 -1.46126 0
M  V30 3778 C 351.558 1.34616 -1.50742 0
M  V30 3779 C 351.879 1.94363 -0.157486 0
M  V30 3780 O 351.149 1.78136 0.815136 0
M  V30 3781 H 349.729 0.499789 -0.555175 0
M  V30 3782 H 352.391 0.691953 -1.82203 0
M  V30 3783 H 351.487 2.15678 -2.25587 0
M  V30 3784 N 351.788 1.33704 0.83433 0
M  V30 3785 C 353.028 1.26754 1.60352 0
M  V30 3786 C 353.392 -0.163182 1.91305 0
M  V30 3787 O 354.593 -0.3567 2.66423 0
M  V30 3788 C 352.864 2.12262 2.8754 0
M  V30 3789 S 354.423 2.22549 3.78176 0
M  V30 3790 H 351.241 0.450879 0.549753 0
M  V30 3791 H 353.843 1.68788 0.986444 0
M  V30 3792 H 352.547 3.15238 2.62779 0
M  V30 3793 H 352.078 1.71082 3.54252 0
M  V30 3794 H 354.093 1.3899 4.76336 0
M  V30 3795 N 353.266 -1.05314 1.17247 0
M  V30 3796 C 354.198 -2.13023 0.845812 0
M  V30 3797 C 355.211 -1.62096 -0.151246 0
M  V30 3798 O 356.4 -1.78343 0.0748818 0
M  V30 3799 C 353.5 -3.38047 0.240292 0
M  V30 3800 C 352.673 -4.18255 1.27991 0
M  V30 3801 C 351.732 -5.21625 0.692375 0
M  V30 3802 O 350.758 -5.52619 1.36385 0
M  V30 3803 N 351.96 -5.78201 -0.516178 0
M  V30 3804 H 354.725 -2.41642 1.77283 0
M  V30 3805 H 352.286 -1.21401 1.07115 0
M  V30 3806 H 354.278 -4.04359 -0.16603 0
M  V30 3807 H 352.848 -3.06972 -0.590487 0
M  V30 3808 H 352.068 -3.47451 1.86203 0
M  V30 3809 H 353.356 -4.68643 1.98119 0
M  V30 3810 H 352.754 -5.55301 -1.07969 0
M  V30 3811 H 351.311 -6.4604 -0.86458 0
M  V30 3812 N 354.744 -0.972509 -1.24016 0
M  V30 3813 C 355.707 -0.511403 -2.23422 0
M  V30 3814 C 356.707 0.394679 -1.55881 0
M  V30 3815 O 357.897 0.189469 -1.73167 0
M  V30 3816 C 355.029 0.258769 -3.39916 0
M  V30 3817 H 356.222 -1.39024 -2.6573 0
M  V30 3818 H 353.775 -0.757585 -1.36713 0
M  V30 3819 H 354.51 1.1545 -3.03054 0
M  V30 3820 H 354.295 -0.391522 -3.9014 0
M  V30 3821 H 355.785 0.570244 -4.13688 0
M  V30 3822 N 356.222 1.38976 -0.743202 0
M  V30 3823 C 357.447 2.05161 -0.303936 0
M  V30 3824 C 357.872 1.55677 1.05576 0
M  V30 3825 O 357.23 0.704131 1.67068 0
M  V30 3826 C 357.278 3.59138 -0.324373 0
M  V30 3827 O 356.382 4.06668 0.685204 0
M  V30 3828 H 355.723 0.649815 -0.136518 0
M  V30 3829 H 358.253 1.77852 -1.01142 0
M  V30 3830 H 358.263 4.07639 -0.171618 0
M  V30 3831 H 356.938 3.94515 -1.31647 0
M  V30 3832 H 355.515 3.69561 0.497913 0
M  V30 3833 N 357.7 0.491464 1.49741 0
M  V30 3834 C 358.65 -0.311086 2.25868 0
M  V30 3835 C 359.634 -0.943857 1.30308 0
M  V30 3836 O 360.826 -0.853035 1.55088 0
M  V30 3837 C 357.955 -1.38059 3.14316 0
M  V30 3838 C 357.041 -0.754541 4.17334 0
M  V30 3839 N 357.432 0.137216 5.05614 0
M  V30 3840 C 355.73 -1.01621 4.34269 0
M  V30 3841 C 356.431 0.494614 5.79593 0
M  V30 3842 N 355.407 -0.135169 5.43432 0
M  V30 3843 H 359.209 0.37555 2.91491 0
M  V30 3844 H 356.723 0.306917 1.59473 0
M  V30 3845 H 358.72 -1.96891 3.67477 0
M  V30 3846 H 357.38 -2.06901 2.50244 0
M  V30 3847 H 358.391 0.50741 5.15408 0
M  V30 3848 H 355.068 -1.69808 3.81407 0
M  V30 3849 H 356.458 1.2236 6.60665 0
M  V30 3850 N 359.178 -1.55987 0.224894 0
M  V30 3851 C 360.108 -2.23426 -0.678457 0
M  V30 3852 C 361.089 -1.20709 -1.19847 0
M  V30 3853 O 362.274 -1.49304 -1.24186 0
M  V30 3854 C 359.404 -2.91676 -1.88527 0
M  V30 3855 C 358.358 -4.00893 -1.49896 0
M  V30 3856 C 357.684 -4.56455 -2.78483 0
M  V30 3857 C 358.984 -5.17769 -0.686461 0
M  V30 3858 H 360.678 -2.99175 -0.116173 0
M  V30 3859 H 358.224 -1.43897 -0.054436 0
M  V30 3860 H 360.177 -3.37547 -2.5227 0
M  V30 3861 H 358.901 -2.1338 -2.47258 0
M  V30 3862 H 357.56 -3.55758 -0.884985 0
M  V30 3863 H 357.208 -3.74886 -3.35365 0
M  V30 3864 H 356.908 -5.30169 -2.53368 0
M  V30 3865 H 358.432 -5.05047 -3.43162 0
M  V30 3866 H 359.846 -5.60001 -1.22767 0
M  V30 3867 H 358.243 -5.97735 -0.532259 0
M  V30 3868 H 359.313 -4.83932 0.306196 0
M  V30 3869 N 360.656 0.0484629 -1.57525 0
M  V30 3870 C 361.588 1.08222 -2.02041 0
M  V30 3871 C 362.601 1.33621 -0.930012 0
M  V30 3872 O 363.79 1.3145 -1.20761 0
M  V30 3873 C 360.89 2.42818 -2.36416 0
M  V30 3874 C 360.063 2.37049 -3.67596 0
M  V30 3875 C 359.122 3.53937 -3.89378 0
M  V30 3876 O 358.148 3.34308 -4.60681 0
M  V30 3877 N 359.35 4.75126 -3.3352 0
M  V30 3878 H 362.115 0.702946 -2.9134 0
M  V30 3879 H 359.676 0.236745 -1.6016 0
M  V30 3880 H 361.668 3.197 -2.48141 0
M  V30 3881 H 360.238 2.72661 -1.52888 0
M  V30 3882 H 359.458 1.45395 -3.66407 0
M  V30 3883 H 360.746 2.30318 -4.53686 0
M  V30 3884 H 360.144 4.93976 -2.75688 0
M  V30 3885 H 358.701 5.49439 -3.50656 0
M  V30 3886 N 362.134 1.5431 0.320358 0
M  V30 3887 C 363.381 1.72668 1.05792 0
M  V30 3888 C 363.709 0.502084 1.87908 0
M  V30 3889 O 362.964 -0.516149 1.88771 0
M  V30 3890 C 363.263 2.95639 2.00828 0
M  V30 3891 C 362.929 4.30265 1.34843 0
M  V30 3892 C 361.591 4.66865 1.16578 0
M  V30 3893 C 363.943 5.13801 0.875095 0
M  V30 3894 C 361.271 5.84597 0.496336 0
M  V30 3895 C 363.623 6.32219 0.219463 0
M  V30 3896 C 362.287 6.67495 0.0246915 0
M  V30 3897 H 361.557 0.631837 0.387121 0
M  V30 3898 H 364.204 1.88552 0.334735 0
M  V30 3899 H 362.509 2.74456 2.79609 0
M  V30 3900 H 364.206 3.07038 2.57932 0
M  V30 3901 H 360.796 4.01472 1.50061 0
M  V30 3902 H 364.98 4.86039 1.00398 0
M  V30 3903 H 360.236 6.10486 0.334264 0
M  V30 3904 H 364.41 6.96227 -0.155291 0
M  V30 3905 H 362.037 7.5858 -0.496065 0
M  V30 3906 N 363.613 -0.582584 1.46437 0
M  V30 3907 C 365.024 -1.1647 1.45916 0
M  V30 3908 C 365.375 -1.95177 0.200077 0
M  V30 3909 O 364.5 -2.04874 -0.696819 0
M  V30 3910 C 365.095 -2.11885 2.64367 0
M  V30 3911 C 363.654 -2.65421 2.66887 0
M  V30 3912 C 362.801 -1.41294 2.38603 0
M  V30 3913 H 365.752 -0.370514 1.54314 0
M  V30 3914 H 365.773 -2.9535 2.39892 0
M  V30 3915 H 365.285 -1.54573 3.5599 0
M  V30 3916 H 363.386 -3.26602 1.79338 0
M  V30 3917 H 363.499 -3.08147 3.66854 0
M  V30 3918 H 361.863 -1.71109 1.88663 0
M  V30 3919 H 362.646 -0.858125 3.32402 0
M  V30 3920 N 365.091 -1.34144 -0.827227 0
M  V30 3921 C 366.339 -1.26009 -1.58007 0
M  V30 3922 C 366.66 0.170971 -1.94249 0
M  V30 3923 O 365.93 1.10256 -1.61927 0
M  V30 3924 H 364.51 -0.463414 -0.585881 0
M  V30 3925 H 367.172 -1.68005 -0.987951 0
M  V30 3926 H 366.268 -1.86187 -2.50481 0
M  V30 3927 N 366.569 1.04691 -1.17803 0
M  V30 3928 C 367.532 2.10724 -0.901545 0
M  V30 3929 C 368.532 1.6042 0.110437 0
M  V30 3930 O 369.722 1.7377 -0.122303 0
M  V30 3931 C 366.854 3.39084 -0.351409 0
M  V30 3932 H 368.047 2.36686 -1.84174 0
M  V30 3933 H 365.6 1.21015 -0.98919 0
M  V30 3934 H 366.335 3.18782 0.59569 0
M  V30 3935 H 366.12 3.76909 -1.08083 0
M  V30 3936 H 367.61 4.17227 -0.176451 0
M  V30 3937 N 368.047 0.979072 1.23499 0
M  V30 3938 C 369.293 0.648178 1.92163 0
M  V30 3939 C 369.626 -0.816049 1.76222 0
M  V30 3940 O 368.901 -1.58849 1.12237 0
M  V30 3941 C 369.184 1.03773 3.44824 0
M  V30 3942 C 369.037 2.55948 3.69879 0
M  V30 3943 C 370.356 0.580653 4.36253 0
M  V30 3944 H 367.475 0.236952 0.69787 0
M  V30 3945 H 370.117 1.22012 1.45647 0
M  V30 3946 H 368.267 0.551058 3.84572 0
M  V30 3947 H 369.939 3.12179 3.3962 0
M  V30 3948 H 368.182 2.98641 3.14636 0
M  V30 3949 H 368.853 2.78255 4.76737 0
M  V30 3950 H 371.329 0.998465 4.03943 0
M  V30 3951 H 370.205 0.881663 5.41773 0
M  V30 3952 H 370.466 -0.519052 4.39042 0
M  V30 3953 N 369.525 -1.3858 0.750561 0
M  V30 3954 C 370.755 -2.04175 0.31564 0
M  V30 3955 C 371.163 -1.56726 -1.05989 0
M  V30 3956 O 370.506 -0.734225 -1.68389 0
M  V30 3957 C 370.568 -3.58585 0.256389 0
M  V30 3958 C 370.232 -4.29077 1.57296 0
M  V30 3959 C 371.229 -4.54656 2.52159 0
M  V30 3960 C 368.914 -4.67324 1.84156 0
M  V30 3961 C 370.908 -5.17512 3.72103 0
M  V30 3962 C 368.595 -5.29905 3.04374 0
M  V30 3963 C 369.593 -5.54933 3.98168 0
M  V30 3964 O 369.281 -6.16212 5.16273 0
M  V30 3965 H 369.013 -0.662742 0.133226 0
M  V30 3966 H 371.567 -1.78313 1.01948 0
M  V30 3967 H 369.797 -3.83406 -0.503677 0
M  V30 3968 H 371.486 -4.05628 -0.148612 0
M  V30 3969 H 372.252 -4.25539 2.32683 0
M  V30 3970 H 368.131 -4.47191 1.11988 0
M  V30 3971 H 371.675 -5.36963 4.45327 0
M  V30 3972 H 367.572 -5.58444 3.23745 0
M  V30 3973 H 368.34 -6.34701 5.16815 0
M  V30 3974 N 371.003 -0.499398 -1.49478 0
M  V30 3975 C 372.251 0.0455996 -2.02049 0
M  V30 3976 C 372.572 1.37633 -1.38138 0
M  V30 3977 O 371.842 1.8842 -0.536166 0
M  V30 3978 H 370.422 0.0198416 -0.746736 0
M  V30 3979 H 373.084 -0.656274 -1.83519 0
M  V30 3980 H 372.18 0.176445 -3.11601 0
M  V30 3981 N 372.481 1.55866 -0.233164 0
M  V30 3982 C 373.709 2.02998 0.399905 0
M  V30 3983 C 374.124 1.11274 1.52524 0
M  V30 3984 O 373.481 0.124528 1.82075 0
M  V30 3985 C 373.532 3.4958 0.920639 0
M  V30 3986 O 373.253 4.37808 -0.159834 0
M  V30 3987 C 374.754 4.12411 1.62578 0
M  V30 3988 H 371.974 0.664006 0.0966281 0
M  V30 3989 H 374.518 2.0143 -0.353013 0
M  V30 3990 H 372.673 3.51727 1.62379 0
M  V30 3991 H 373.087 5.23981 0.23337 0
M  V30 3992 H 374.561 5.16711 1.94201 0
M  V30 3993 H 375.038 3.5809 2.54299 0
M  V30 3994 H 375.644 4.14148 0.967553 0
M  V30 3995 N 373.959 -0.0401083 1.57549 0
M  V30 3996 C 375.236 -0.767917 1.79896 0
M  V30 3997 C 375.616 -1.9416 0.82856 0
M  V30 3998 O 374.964 -2.2812 -0.131671 0
M  V30 3999 C 375.174 -1.2113 3.27305 0
M  V30 4000 C 376.522 -1.63175 3.91994 0
M  V30 4001 O 377.546 -1.30616 3.31388 0
M  V30 4002 O 376.405 -2.23565 4.98679 0
M  V30 4003 H 373.499 -0.370441 0.739393 0
M  V30 4004 H 376.045 -0.017737 1.69691 0
M  V30 4005 H 374.817 -0.372937 3.89519 0
M  V30 4006 H 374.44 -2.02183 3.42356 0
M  V30 4007 N 375.437 -1.54477 -0.31217 0
M  V30 4008 C 376.685 -1.72884 -1.04668 0
M  V30 4009 C 377.006 -0.511477 -1.88173 0
M  V30 4010 O 376.276 0.474407 -1.90069 0
M  V30 4011 H 374.856 -0.637461 -0.389425 0
M  V30 4012 H 377.518 -1.91807 -0.345852 0
M  V30 4013 H 376.614 -2.61334 -1.70619 0
M  V30 4014 N 376.915 0.57481 -1.46744 0
M  V30 4015 C 378.155 1.34369 -1.54027 0
M  V30 4016 C 378.519 1.91051 -0.190642 0
M  V30 4017 O 379.72 2.68444 -0.138255 0
M  V30 4018 C 377.991 2.43706 -2.61423 0
M  V30 4019 S 379.55 3.30915 -2.88167 0
M  V30 4020 H 376.368 0.45768 -0.544105 0
M  V30 4021 H 378.97 0.659959 -1.84024 0
M  V30 4022 H 377.674 2.0047 -3.58106 0
M  V30 4023 H 377.205 3.16842 -2.33184 0
M  V30 4024 H 379.22 4.42742 -2.24039 0
M  V30 4025 N 378.394 1.34581 0.820102 0
M  V30 4026 C 379.805 1.24298 1.39309 0
M  V30 4027 C 380.156 -0.130351 1.95767 0
M  V30 4028 O 379.281 -1.0308 1.90272 0
M  V30 4029 C 379.876 2.25054 2.53251 0
M  V30 4030 C 378.435 2.18552 3.0645 0
M  V30 4031 C 377.582 2.11503 1.79337 0
M  V30 4032 H 380.533 1.45906 0.624262 0
M  V30 4033 H 380.554 1.86917 3.31425 0
M  V30 4034 H 380.066 3.24996 2.1213 0
M  V30 4035 H 378.167 1.21976 3.52069 0
M  V30 4036 H 378.28 3.0993 3.65349 0
M  V30 4037 H 376.644 1.57268 2.00347 0
M  V30 4038 H 377.427 3.13284 1.40386 0
M  V30 4039 N 379.872 -1.04064 1.18357 0
M  V30 4040 C 381.118 -1.77528 0.980397 0
M  V30 4041 C 381.451 -1.87948 -0.48879 0
M  V30 4042 O 380.726 -1.3876 -1.36293 0
M  V30 4043 C 381.009 -3.20797 1.63588 0
M  V30 4044 C 380.862 -3.1832 3.17793 0
M  V30 4045 C 382.181 -4.18911 1.34914 0
M  V30 4046 H 379.3 -0.644443 0.357578 0
M  V30 4047 H 381.942 -1.2156 1.46024 0
M  V30 4048 H 380.092 -3.68586 1.22788 0
M  V30 4049 H 381.764 -2.78521 3.67728 0
M  V30 4050 H 380.007 -2.56351 3.49952 0
M  V30 4051 H 380.678 -4.19489 3.58794 0
M  V30 4052 H 383.154 -3.7967 1.70265 0
M  V30 4053 H 382.03 -5.17374 1.83346 0
M  V30 4054 H 382.291 -4.41262 0.272027 0
M  V30 4055 N 381.35 -0.985608 -1.22978 0
M  V30 4056 C 382.575 -0.675254 -1.961 0
M  V30 4057 C 383 0.752154 -1.72407 0
M  V30 4058 O 382.358 1.5131 -0.998751 0
M  V30 4059 C 382.406 -0.977899 -3.47087 0
M  V30 4060 O 381.51 -0.072685 -4.12336 0
M  V30 4061 H 380.851 -0.253443 -0.613728 0
M  V30 4062 H 383.381 -1.32061 -1.56272 0
M  V30 4063 H 383.391 -0.916739 -3.97567 0
M  V30 4064 H 382.066 -2.01807 -3.63657 0
M  V30 4065 H 380.643 -0.188703 -3.72422 0
M  V30 4066 N 382.828 1.3818 -0.7579 0
M  V30 4067 C 384.074 2.00316 -0.316453 0
M  V30 4068 C 384.407 1.60026 1.10025 0
M  V30 4069 O 383.682 0.839835 1.75434 0
M  V30 4070 C 383.965 3.57349 -0.444245 0
M  V30 4071 C 383.818 4.07591 -1.90236 0
M  V30 4072 C 385.137 4.3981 0.1598 0
M  V30 4073 H 382.256 0.727741 -0.116459 0
M  V30 4074 H 384.898 1.6406 -0.958352 0
M  V30 4075 H 383.048 3.88365 0.102233 0
M  V30 4076 H 384.72 3.87199 -2.50748 0
M  V30 4077 H 382.963 3.60297 -2.41595 0
M  V30 4078 H 383.634 5.16677 -1.94291 0
M  V30 4079 H 386.11 4.14971 -0.306314 0
M  V30 4080 H 384.986 5.48885 0.0401675 0
M  V30 4081 H 385.247 4.24102 1.24859 0
M  V30 4082 N 384.306 0.507319 1.49211 0
M  V30 4083 C 385.216 -0.272136 2.33016 0
M  V30 4084 C 386.232 -0.961206 1.45041 0
M  V30 4085 O 387.408 -0.941191 1.78055 0
M  V30 4086 C 384.473 -1.31895 3.20631 0
M  V30 4087 C 383.534 -0.642648 4.24463 0
M  V30 4088 C 382.767 -1.63959 5.07891 0
M  V30 4089 O 382.99 -2.87007 4.92933 0
M  V30 4090 O 381.924 -1.19143 5.8999 0
M  V30 4091 H 385.75 0.413982 3.00865 0
M  V30 4092 H 383.335 0.268556 1.46966 0
M  V30 4093 H 385.217 -1.92446 3.7489 0
M  V30 4094 H 383.892 -1.98788 2.5547 0
M  V30 4095 H 382.799 0.00276252 3.741 0
M  V30 4096 H 384.132 -0.0160534 4.92197 0
M  V30 4097 N 385.784 -1.5574 0.241426 0
M  V30 4098 C 386.731 -2.21149 -0.660432 0
M  V30 4099 C 387.701 -1.17356 -1.17545 0
M  V30 4100 O 388.886 -1.45784 -1.23093 0
M  V30 4101 C 386.026 -2.91059 -1.85414 0
M  V30 4102 C 385.139 -4.09495 -1.37616 0
M  V30 4103 C 384.274 -4.67135 -2.529 0
M  V30 4104 C 383.313 -5.77831 -2.01936 0
M  V30 4105 N 382.45 -6.29677 -3.10566 0
M  V30 4106 H 387.29 -2.97845 -0.095955 0
M  V30 4107 H 384.827 -1.47057 -0.0356024 0
M  V30 4108 H 386.785 -3.29788 -2.5553 0
M  V30 4109 H 385.415 -2.16846 -2.39118 0
M  V30 4110 H 384.467 -3.76117 -0.569235 0
M  V30 4111 H 385.779 -4.89423 -0.962618 0
M  V30 4112 H 384.933 -5.08409 -3.31067 0
M  V30 4113 H 383.672 -3.86411 -2.97553 0
M  V30 4114 H 382.677 -5.36039 -1.22238 0
M  V30 4115 H 383.902 -6.60402 -1.58259 0
M  V30 4116 H 381.848 -5.5186 -3.54664 0
M  V30 4117 H 381.765 -7.04783 -2.73526 0
M  V30 4118 H 383.033 -6.75609 -3.88809 0
M  V30 4119 N 387.262 0.0317525 -1.57568 0
M  V30 4120 C 388.511 0.722131 -1.8833 0
M  V30 4121 C 388.824 1.76664 -0.839587 0
M  V30 4122 O 390.03 2.50942 -1.03635 0
M  V30 4123 C 388.486 1.33544 -3.34207 0
M  V30 4124 C 388.094 0.327415 -4.46802 0
M  V30 4125 C 389.838 2.00585 -3.7412 0
M  V30 4126 C 387.745 0.948915 -5.83738 0
M  V30 4127 H 386.675 0.273466 -0.702661 0
M  V30 4128 H 389.326 -0.0235811 -1.83485 0
M  V30 4129 H 387.708 2.13077 -3.33788 0
M  V30 4130 H 388.882 -0.441006 -4.58685 0
M  V30 4131 H 387.197 -0.240758 -4.15703 0
M  V30 4132 H 389.794 2.47932 -4.73744 0
M  V30 4133 H 390.137 2.82285 -3.05975 0
M  V30 4134 H 390.67 1.27831 -3.76702 0
M  V30 4135 H 387.409 0.171387 -6.55276 0
M  V30 4136 H 386.929 1.68724 -5.7558 0
M  V30 4137 H 388.608 1.45705 -6.3038 0
M  V30 4138 N 388.74 1.54641 0.303973 0
M  V30 4139 C 389.986 1.74038 1.04109 0
M  V30 4140 C 390.319 0.523051 1.87024 0
M  V30 4141 O 389.594 -0.479874 1.88487 0
M  V30 4142 C 389.877 3.02761 1.94955 0
M  V30 4143 C 389.73 4.34787 1.1524 0
M  V30 4144 C 391.049 3.27336 2.94175 0
M  V30 4145 H 388.168 0.63323 0.377079 0
M  V30 4146 H 390.81 1.87354 0.316001 0
M  V30 4147 H 388.96 2.9154 2.56782 0
M  V30 4148 H 390.632 4.57922 0.557236 0
M  V30 4149 H 388.875 4.31407 0.455053 0
M  V30 4150 H 389.546 5.21116 1.8205 0
M  V30 4151 H 392.022 3.38148 2.42477 0
M  V30 4152 H 390.898 4.18726 3.54908 0
M  V30 4153 H 391.159 2.45491 3.67677 0
M  V30 4154 N 390.218 -0.567019 1.47046 0
M  V30 4155 C 391.166 -1.69593 1.59188 0
M  V30 4156 C 392.16 -1.63046 0.459609 0
M  V30 4157 O 393.366 -1.6835 0.637058 0
M  V30 4158 H 389.741 -0.560993 0.500791 0
M  V30 4159 H 391.712 -1.56488 2.54075 0
M  V30 4160 C 390.461 -3.07964 1.61411 0
M  V30 4161 H 389.784 -3.13679 2.47881 0
M  V30 4162 H 391.224 -3.86671 1.73958 0
M  V30 4163 C 389.683 -3.35123 0.34559 0
M  V30 4164 O 390.213 -3.97812 -0.557521 0
M  V30 4165 N 388.419 -2.89699 0.22864 0
M  V30 4166 H 387.966 -2.38863 0.964479 0
M  V30 4167 H 387.924 -3.08242 -0.619192 0
M  V30 4168 N 391.696 -1.35014 -0.812953 0
M  V30 4169 C 392.945 -1.27269 -1.56479 0
M  V30 4170 C 393.258 0.152771 -1.95002 0
M  V30 4171 O 394.464 0.352451 -2.69203 0
M  V30 4172 C 392.92 -2.23159 -2.82362 0
M  V30 4173 C 392.528 -3.71016 -2.511 0
M  V30 4174 C 394.272 -2.24342 -3.60376 0
M  V30 4175 C 392.179 -4.58746 -3.73237 0
M  V30 4176 H 391.109 -0.472829 -0.587324 0
M  V30 4177 H 393.76 -1.6024 -0.894171 0
M  V30 4178 H 392.142 -1.83151 -3.51101 0
M  V30 4179 H 393.316 -4.1962 -1.90409 0
M  V30 4180 H 391.631 -3.72378 -1.86343 0
M  V30 4181 H 394.228 -2.87107 -4.51081 0
M  V30 4182 H 394.571 -1.24542 -3.97234 0
M  V30 4183 H 395.104 -2.62846 -2.98591 0
M  V30 4184 H 391.843 -5.59521 -3.41492 0
M  V30 4185 H 391.363 -4.14871 -4.33176 0
M  V30 4186 H 393.042 -4.73852 -4.40537 0
M  V30 4187 N 393.175 1.03435 -1.18907 0
M  V30 4188 C 394.422 1.76743 -0.988334 0
M  V30 4189 C 394.75 1.88447 0.481441 0
M  V30 4190 O 394.005 1.39383 1.37371 0
M  V30 4191 C 394.304 3.19792 -1.59586 0
M  V30 4192 C 393.97 3.28108 -3.09283 0
M  V30 4193 C 392.632 3.30084 -3.5014 0
M  V30 4194 C 394.984 3.27696 -4.05296 0
M  V30 4195 C 392.312 3.29299 -4.85571 0
M  V30 4196 C 394.664 3.28451 -5.4065 0
M  V30 4197 C 393.328 3.28723 -5.80946 0
M  V30 4198 H 392.598 0.64675 -0.361657 0
M  V30 4199 H 395.245 1.21442 -1.48068 0
M  V30 4200 H 393.55 3.78136 -1.02568 0
M  V30 4201 H 395.247 3.75171 -1.41589 0
M  V30 4202 H 391.837 3.27294 -2.76725 0
M  V30 4203 H 396.021 3.25354 -3.74778 0
M  V30 4204 H 391.277 3.2783 -5.16079 0
M  V30 4205 H 395.451 3.27082 -6.14809 0
M  V30 4206 H 393.078 3.27868 -6.85862 0
M  V30 4207 N 394.653 0.992116 1.22453 0
M  V30 4208 C 395.601 0.534644 2.26372 0
M  V30 4209 C 396.595 -0.414293 1.64256 0
M  V30 4210 O 397.801 -0.286899 1.77699 0
M  V30 4211 H 394.176 0.154502 0.735957 0
M  V30 4212 H 396.147 1.42256 2.62309 0
M  V30 4213 C 394.896 -0.135815 3.47435 0
M  V30 4214 H 394.219 0.585311 3.95492 0
M  V30 4215 H 395.659 -0.419374 4.21921 0
M  V30 4216 C 394.118 -1.37089 3.07747 0
M  V30 4217 O 394.648 -2.46629 3.17076 0
M  V30 4218 N 392.854 -1.24585 2.62539 0
M  V30 4219 H 392.401 -0.354542 2.55149 0
M  V30 4220 H 392.359 -2.07327 2.36353 0
M  V30 4221 N 396.131 -1.37776 0.765217 0
M  V30 4222 C 397.379 -1.99454 0.325943 0
M  V30 4223 C 397.7 -1.61049 -1.09947 0
M  V30 4224 O 396.97 -0.872821 -1.75381 0
M  V30 4225 H 395.55 -0.737697 0.117525 0
M  V30 4226 H 398.212 -1.68359 0.981895 0
M  V30 4227 H 397.308 -3.09547 0.398353 0
M  V30 4228 N 397.609 -0.515225 -1.4894 0
M  V30 4229 C 398.837 0.0206034 -2.0689 0
M  V30 4230 C 399.252 1.29514 -1.37374 0
M  V30 4231 O 398.609 1.76698 -0.456529 0
M  V30 4232 C 398.66 0.26351 -3.60538 0
M  V30 4233 O 398.381 -0.960517 -4.27441 0
M  V30 4234 C 399.882 0.841383 -4.35242 0
M  V30 4235 H 397.102 -0.0268608 -0.670462 0
M  V30 4236 H 399.646 -0.716651 -1.91532 0
M  V30 4237 H 397.801 0.950777 -3.75552 0
M  V30 4238 H 398.215 -0.73212 -5.19365 0
M  V30 4239 H 399.689 0.96085 -5.43573 0
M  V30 4240 H 400.166 1.8427 -3.98674 0
M  V30 4241 H 400.772 0.191143 -4.2487 0
M  V30 4242 N 399.087 1.5561 -0.249682 0
M  V30 4243 C 400.312 2.03865 0.381305 0
M  V30 4244 C 400.737 1.12769 1.50548 0
M  V30 4245 O 400.095 0.121189 1.80895 0
M  V30 4246 C 400.143 3.50101 0.863816 0
M  V30 4247 O 399.247 3.62132 1.97318 0
M  V30 4248 H 398.588 0.658827 0.0827194 0
M  V30 4249 H 401.118 2.01105 -0.376552 0
M  V30 4250 H 401.128 3.90975 1.1663 0
M  V30 4251 H 399.803 4.1588 0.0411816 0
M  V30 4252 H 398.38 3.33155 1.67517 0
M  V30 4253 N 400.565 -0.0233959 1.57583 0
M  V30 4254 C 401.805 -0.71784 1.9138 0
M  V30 4255 C 402.169 -1.72216 0.848853 0
M  V30 4256 O 403.37 -2.46527 1.07134 0
M  V30 4257 C 401.641 -1.36489 3.30311 0
M  V30 4258 S 403.2 -2.0877 3.85954 0
M  V30 4259 H 400.018 -0.237676 0.670098 0
M  V30 4260 H 402.62 0.0276709 1.9548 0
M  V30 4261 H 401.324 -0.620782 4.05678 0
M  V30 4262 H 400.855 -2.14883 3.29528 0
M  V30 4263 H 402.87 -3.35988 3.65139 0
M  V30 4264 N 402.043 -1.548 -0.295768 0
M  V30 4265 C 403.454 -1.65274 -0.868411 0
M  V30 4266 C 403.805 -0.56481 -1.87894 0
M  V30 4267 O 402.93 0.29767 -2.14343 0
M  V30 4268 C 403.525 -2.99603 -1.58188 0
M  V30 4269 C 402.084 -3.12181 -2.10286 0
M  V30 4270 C 401.231 -2.6098 -0.93727 0
M  V30 4271 H 404.182 -1.58534 -0.0726422 0
M  V30 4272 H 404.203 -2.91319 -2.44772 0
M  V30 4273 H 403.715 -3.78764 -0.846151 0
M  V30 4274 H 401.816 -2.3775 -2.8689 0
M  V30 4275 H 401.929 -4.18415 -2.33379 0
M  V30 4276 H 400.293 -2.17564 -1.32431 0
M  V30 4277 H 401.076 -3.42623 -0.215414 0
M  V30 4278 N 403.521 0.559213 -1.47345 0
M  V30 4279 C 404.746 1.34676 -1.57725 0
M  V30 4280 C 405.171 1.86723 -0.227164 0
M  V30 4281 O 404.529 1.6286 0.796642 0
M  V30 4282 C 404.577 2.49399 -2.60447 0
M  V30 4283 O 403.681 3.51567 -2.15578 0
M  V30 4284 H 403.022 0.400115 -0.52991 0
M  V30 4285 H 405.552 0.676009 -1.93109 0
M  V30 4286 H 405.562 2.95996 -2.80803 0
M  V30 4287 H 404.237 2.10873 -3.58477 0
M  V30 4288 H 402.814 3.11289 -2.05313 0
M  V30 4289 N 404.999 1.35443 0.805782 0
M  V30 4290 C 405.929 1.31095 1.93226 0
M  V30 4291 C 406.91 0.185244 1.69088 0
M  V30 4292 O 408.095 0.380332 1.90439 0
M  V30 4293 C 405.225 1.08299 3.29983 0
M  V30 4294 C 404.179 2.17519 3.68605 0
M  V30 4295 C 403.505 1.79887 5.03532 0
M  V30 4296 C 404.805 3.5949 3.78898 0
M  V30 4297 H 406.499 2.25352 1.97122 0
M  V30 4298 H 404.045 1.0848 0.946996 0
M  V30 4299 H 405.998 1.03897 4.08391 0
M  V30 4300 H 404.722 0.104885 3.26432 0
M  V30 4301 H 403.381 2.2102 2.92482 0
M  V30 4302 H 403.029 0.80693 4.96485 0
M  V30 4303 H 402.729 2.53001 5.30344 0
M  V30 4304 H 404.253 1.77011 5.84379 0
M  V30 4305 H 405.667 3.58307 4.47536 0
M  V30 4306 H 404.064 4.31371 4.1718 0
M  V30 4307 H 405.134 3.95584 2.80431 0
M  V30 4308 N 406.477 -1.02803 1.19454 0
M  V30 4309 C 407.725 -1.75869 0.995722 0
M  V30 4310 C 408.046 -1.89138 -0.474543 0
M  V30 4311 O 407.316 -1.42558 -1.34366 0
M  V30 4312 H 405.896 -0.651511 0.365435 0
M  V30 4313 H 408.558 -1.24004 1.50363 0
M  V30 4314 H 407.654 -2.76661 1.44447 0
M  V30 4315 N 407.956 -0.998596 -1.21925 0
M  V30 4316 C 409.204 -0.676325 -1.90448 0
M  V30 4317 C 409.525 0.794719 -1.78071 0
M  V30 4318 O 408.795 1.5701 -1.17152 0
M  V30 4319 H 407.375 -0.247165 -0.704925 0
M  V30 4320 H 410.037 -1.26633 -1.48156 0
M  V30 4321 H 409.133 -0.943858 -2.97486 0
M  V30 4322 N 409.434 1.37368 -0.772513 0
M  V30 4323 C 410.381 2.30262 -0.157488 0
M  V30 4324 C 411.351 1.51137 0.688965 0
M  V30 4325 O 412.536 1.79704 0.641168 0
M  V30 4326 C 409.676 3.37611 0.715045 0
M  V30 4327 C 408.789 4.31746 -0.148098 0
M  V30 4328 C 407.924 5.26171 0.729213 0
M  V30 4329 C 406.963 6.11948 -0.136418 0
M  V30 4330 N 406.1 6.98613 0.698914 0
M  V30 4331 H 410.94 2.82277 -0.955179 0
M  V30 4332 H 408.477 1.38957 -0.482631 0
M  V30 4333 H 410.435 3.98479 1.23575 0
M  V30 4334 H 409.065 2.86959 1.47833 0
M  V30 4335 H 408.117 3.72178 -0.786613 0
M  V30 4336 H 409.429 4.92084 -0.81579 0
M  V30 4337 H 408.583 5.92247 1.31637 0
M  V30 4338 H 407.322 4.66246 1.43059 0
M  V30 4339 H 406.327 5.4485 -0.736102 0
M  V30 4340 H 407.552 6.73945 -0.835134 0
M  V30 4341 H 405.498 6.41215 1.38489 0
M  V30 4342 H 405.415 7.55948 0.0885358 0
M  V30 4343 H 406.683 7.69077 1.27044 0
M  V30 4344 N 410.912 0.523116 1.48665 0
M  V30 4345 C 412.323 0.0808997 1.86525 0
M  V30 4346 C 412.674 -1.33975 1.43336 0
M  V30 4347 O 411.799 -2.00221 0.821009 0
M  V30 4348 C 412.394 0.140037 3.3851 0
M  V30 4349 C 410.953 -0.246948 3.75589 0
M  V30 4350 C 410.1 0.502845 2.72703 0
M  V30 4351 H 413.051 0.734736 1.40667 0
M  V30 4352 H 413.072 -0.649945 3.74908 0
M  V30 4353 H 412.584 1.17412 3.69914 0
M  V30 4354 H 410.685 -1.28343 3.49798 0
M  V30 4355 H 410.798 0.0878859 4.79019 0
M  V30 4356 H 409.162 -0.0500581 2.54651 0
M  V30 4357 H 409.945 1.53743 3.0695 0
M  V30 4358 N 412.39 -1.55475 0.257931 0
M  V30 4359 C 413.337 -2.21837 -0.636939 0
M  V30 4360 C 414.307 -1.18596 -1.16294 0
M  V30 4361 O 415.492 -1.47081 -1.21539 0
M  V30 4362 C 412.632 -2.9301 -1.82317 0
M  V30 4363 C 411.745 -4.10931 -1.33265 0
M  V30 4364 C 410.88 -4.69791 -2.47931 0
M  V30 4365 C 409.919 -5.7994 -1.95796 0
M  V30 4366 N 409.056 -6.32935 -3.0387 0
M  V30 4367 H 413.896 -2.9793 -0.0643591 0
M  V30 4368 H 411.433 -1.47086 -0.0200031 0
M  V30 4369 H 413.391 -3.3248 -2.52018 0
M  V30 4370 H 412.021 -2.1937 -2.36805 0
M  V30 4371 H 411.073 -3.76699 -0.52931 0
M  V30 4372 H 412.385 -4.90417 -0.910654 0
M  V30 4373 H 411.539 -5.11892 -3.25656 0
M  V30 4374 H 410.278 -3.89545 -2.93438 0
M  V30 4375 H 409.283 -5.37305 -1.16546 0
M  V30 4376 H 410.508 -6.62043 -1.51246 0
M  V30 4377 H 408.454 -5.55591 -3.48791 0
M  V30 4378 H 408.371 -7.07645 -2.66035 0
M  V30 4379 H 409.639 -6.79695 -3.81621 0
M  V30 4380 N 413.868 0.0150385 -1.57593 0
M  V30 4381 C 414.798 1.01047 -2.10503 0
M  V30 4382 C 415.779 1.36816 -1.01071 0
M  V30 4383 O 416.964 1.45455 -1.28672 0
M  V30 4384 C 414.094 2.30708 -2.59598 0
M  V30 4385 C 413.048 2.09142 -3.73421 0
M  V30 4386 C 412.374 3.44685 -4.08774 0
M  V30 4387 C 413.674 1.46619 -5.01298 0
M  V30 4388 H 415.368 0.569978 -2.93925 0
M  V30 4389 H 412.914 0.272724 -1.41394 0
M  V30 4390 H 414.867 3.00687 -2.95238 0
M  V30 4391 H 413.591 2.76843 -1.73279 0
M  V30 4392 H 412.25 1.41592 -3.38153 0
M  V30 4393 H 411.898 3.88495 -3.195 0
M  V30 4394 H 411.598 3.31077 -4.8545 0
M  V30 4395 H 413.122 4.16004 -4.4696 0
M  V30 4396 H 414.536 2.06535 -5.34805 0
M  V30 4397 H 412.933 1.43544 -5.82679 0
M  V30 4398 H 414.003 0.433611 -4.82957 0
M  V30 4399 N 415.346 1.54954 0.287554 0
M  V30 4400 C 416.593 1.74873 1.02106 0
M  V30 4401 C 416.921 0.541829 1.86801 0
M  V30 4402 O 416.176 -0.475992 1.89823 0
M  V30 4403 C 416.475 2.99833 1.94512 0
M  V30 4404 C 416.141 4.33029 1.25686 0
M  V30 4405 C 414.803 4.69233 1.06649 0
M  V30 4406 C 417.155 5.15542 0.765913 0
M  V30 4407 C 414.483 5.85518 0.372222 0
M  V30 4408 C 416.835 6.32542 0.0853101 0
M  V30 4409 C 415.499 6.67398 -0.1169 0
M  V30 4410 H 414.769 0.639906 0.373632 0
M  V30 4411 H 417.416 1.89219 0.294665 0
M  V30 4412 H 415.721 2.80325 2.73725 0
M  V30 4413 H 417.418 3.1244 2.51361 0
M  V30 4414 H 414.008 4.04564 1.41512 0
M  V30 4415 H 418.192 4.88059 0.90066 0
M  V30 4416 H 413.448 6.11057 0.204695 0
M  V30 4417 H 417.622 6.95741 -0.302936 0
M  V30 4418 H 415.249 7.57357 -0.656859 0
M  V30 4419 N 416.824 -0.551391 1.4764 0
M  V30 4420 C 418.071 -1.3083 1.54563 0
M  V30 4421 C 418.399 -1.93359 0.210361 0
M  V30 4422 O 417.654 -1.78721 -0.797332 0
M  V30 4423 C 417.953 -2.43469 2.61644 0
M  V30 4424 C 417.619 -1.98732 4.04742 0
M  V30 4425 C 416.281 -1.86248 4.43695 0
M  V30 4426 C 418.633 -1.64659 4.94507 0
M  V30 4427 C 415.961 -1.37995 5.70241 0
M  V30 4428 C 418.313 -1.17875 6.21521 0
M  V30 4429 C 416.977 -1.03992 6.5935 0
M  V30 4430 H 416.247 -0.478741 0.565587 0
M  V30 4431 H 418.894 -0.617697 1.81264 0
M  V30 4432 H 417.199 -3.18109 2.28722 0
M  V30 4433 H 418.896 -3.01642 2.64222 0
M  V30 4434 H 415.486 -2.09393 3.73968 0
M  V30 4435 H 419.67 -1.73174 4.65107 0
M  V30 4436 H 414.926 -1.25915 5.98294 0
M  V30 4437 H 419.1 -0.905739 6.90485 0
M  V30 4438 H 416.727 -0.663794 7.57296 0
M  V30 4439 N 418.302 -1.35869 -0.798587 0
M  V30 4440 C 419.551 -1.28921 -1.5512 0
M  V30 4441 C 419.864 0.13208 -1.95154 0
M  V30 4442 O 421.07 0.323879 -2.69561 0
M  V30 4443 C 419.526 -2.26141 -2.79979 0
M  V30 4444 C 419.134 -3.73658 -2.47151 0
M  V30 4445 C 420.878 -2.28152 -3.57976 0
M  V30 4446 C 418.785 -4.62679 -3.6835 0
M  V30 4447 H 417.715 -0.479031 -0.582276 0
M  V30 4448 H 420.366 -1.61179 -0.877125 0
M  V30 4449 H 418.748 -1.86865 -3.49138 0
M  V30 4450 H 419.922 -4.21616 -1.85947 0
M  V30 4451 H 418.237 -3.74333 -1.82383 0
M  V30 4452 H 420.834 -2.91875 -4.4801 0
M  V30 4453 H 421.177 -1.28748 -3.95891 0
M  V30 4454 H 421.71 -2.65998 -2.95787 0
M  V30 4455 H 418.449 -5.63111 -3.35538 0
M  V30 4456 H 417.969 -4.19442 -4.28752 0
M  V30 4457 H 419.648 -4.78498 -4.35487 0
M  V30 4458 N 419.78 1.02168 -1.19998 0
M  V30 4459 C 420.712 2.10705 -0.901994 0
M  V30 4460 C 421.725 1.6244 0.108216 0
M  V30 4461 O 422.914 1.78082 -0.12214 0
M  V30 4462 C 420.014 3.37291 -0.329834 0
M  V30 4463 C 419.187 4.14714 -1.39035 0
M  V30 4464 C 418.246 5.19606 -0.830432 0
M  V30 4465 O 417.272 5.48809 -1.50989 0
M  V30 4466 N 418.474 5.79366 0.362696 0
M  V30 4467 H 421.239 2.36856 -1.83628 0
M  V30 4468 H 418.8 1.18518 -1.10296 0
M  V30 4469 H 420.792 4.04657 0.0587633 0
M  V30 4470 H 419.362 3.0843 0.508891 0
M  V30 4471 H 418.582 3.42392 -1.9535 0
M  V30 4472 H 419.87 4.63226 -2.10474 0
M  V30 4473 H 419.268 5.57968 0.932081 0
M  V30 4474 H 417.825 6.48106 0.69299 0
M  V30 4475 N 421.258 1.00505 1.21394 0
M  V30 4476 C 422.221 0.570459 2.21987 0
M  V30 4477 C 423.221 -0.353211 1.56873 0
M  V30 4478 O 424.411 -0.14349 1.73608 0
M  V30 4479 C 421.543 -0.168555 3.40483 0
M  V30 4480 H 422.736 1.46021 2.6195 0
M  V30 4481 H 420.289 0.793565 1.34656 0
M  V30 4482 H 421.024 -1.07374 3.06009 0
M  V30 4483 H 420.809 0.494823 3.88965 0
M  V30 4484 H 422.299 -0.460362 4.15055 0
M  V30 4485 N 422.737 -1.36956 0.779787 0
M  V30 4486 C 423.977 -2.01328 0.353043 0
M  V30 4487 C 424.341 -1.60558 -1.05286 0
M  V30 4488 O 425.542 -2.1745 -1.58016 0
M  V30 4489 C 423.813 -3.53874 0.500822 0
M  V30 4490 S 425.372 -4.38506 0.16053 0
M  V30 4491 H 422.19 -0.69799 0.13539 0
M  V30 4492 H 424.792 -1.67016 1.01617 0
M  V30 4493 H 423.496 -3.81034 1.52451 0
M  V30 4494 H 423.027 -3.92994 -0.178574 0
M  V30 4495 H 425.042 -4.85153 -1.04121 0
M  V30 4496 N 424.215 -0.530993 -1.48385 0
M  V30 4497 C 425.463 0.00273189 -2.021 0
M  V30 4498 C 425.784 1.34672 -1.41027 0
M  V30 4499 O 425.054 1.8724 -0.576012 0
M  V30 4500 H 423.634 0.00399774 -0.746989 0
M  V30 4501 H 426.296 -0.695054 -1.82085 0
M  V30 4502 H 425.392 0.11031 -3.11905 0
M  V30 4503 N 425.693 1.55336 -0.266172 0
M  V30 4504 C 426.941 1.99003 0.35246 0
M  V30 4505 C 427.262 1.15591 1.57047 0
M  V30 4506 O 426.532 0.243268 1.94384 0
M  V30 4507 H 425.112 0.735025 0.133217 0
M  V30 4508 H 427.774 1.91367 -0.369434 0
M  V30 4509 H 426.87 3.05289 0.648453 0
M  V30 4510 N 427.171 -0.0066808 1.57599 0
M  V30 4511 C 428.081 -1.01671 2.11424 0
M  V30 4512 C 429.097 -1.38143 1.05795 0
M  V30 4513 O 430.273 -1.47011 1.37658 0
M  V30 4514 C 427.338 -2.29192 2.60139 0
M  V30 4515 C 426.399 -1.99094 3.80342 0
M  V30 4516 C 425.632 -3.20535 4.26724 0
M  V30 4517 O 425.855 -4.3199 3.72479 0
M  V30 4518 O 424.789 -3.04924 5.18946 0
M  V30 4519 H 428.615 -0.589181 2.9793 0
M  V30 4520 H 426.2 -0.225091 1.47695 0
M  V30 4521 H 428.082 -3.0412 2.917 0
M  V30 4522 H 426.757 -2.71195 1.76733 0
M  V30 4523 H 425.664 -1.21663 3.53764 0
M  V30 4524 H 426.997 -1.61931 4.648 0
M  V30 4525 N 428.649 -1.55105 -0.279332 0
M  V30 4526 C 429.581 -1.83952 -1.36727 0
M  V30 4527 C 430.594 -0.723642 -1.45833 0
M  V30 4528 O 431.783 -1.00141 -1.47763 0
M  V30 4529 C 428.883 -1.98183 -2.74912 0
M  V30 4530 C 428.056 -3.28787 -2.88475 0
M  V30 4531 C 427.115 -3.33162 -4.07295 0
M  V30 4532 O 426.141 -4.06576 -3.98353 0
M  V30 4533 N 427.343 -2.60109 -5.18964 0
M  V30 4534 H 430.108 -2.77853 -1.12328 0
M  V30 4535 H 427.669 -1.54945 -0.469442 0
M  V30 4536 H 429.661 -1.98488 -3.52682 0
M  V30 4537 H 428.231 -1.11177 -2.92162 0
M  V30 4538 H 427.451 -3.41075 -1.97641 0
M  V30 4539 H 428.739 -4.14933 -2.94463 0
M  V30 4540 H 428.137 -2.00136 -5.29115 0
M  V30 4541 H 426.694 -2.66143 -5.94988 0
M  V30 4542 N 430.127 0.543554 -1.4793 0
M  V30 4543 C 431.074 1.64942 -1.6144 0
M  V30 4544 C 432.044 1.59692 -0.456903 0
M  V30 4545 O 433.229 1.78321 -0.678688 0
M  V30 4546 C 430.369 3.03238 -1.64744 0
M  V30 4547 C 429.482 3.18823 -2.91506 0
M  V30 4548 C 428.617 4.47599 -2.86057 0
M  V30 4549 C 427.656 4.56664 -4.07584 0
M  V30 4550 N 426.793 5.76811 -4.00292 0
M  V30 4551 H 431.633 1.52733 -2.55884 0
M  V30 4552 H 429.17 0.7438 -1.2691 0
M  V30 4553 H 431.128 3.83339 -1.64641 0
M  V30 4554 H 429.758 3.1425 -0.738017 0
M  V30 4555 H 428.81 2.32064 -3.01414 0
M  V30 4556 H 430.122 3.21384 -3.81463 0
M  V30 4557 H 429.276 5.35975 -2.84281 0
M  V30 4558 H 428.015 4.47538 -1.93807 0
M  V30 4559 H 427.02 3.66697 -4.09651 0
M  V30 4560 H 428.245 4.58474 -5.00978 0
M  V30 4561 H 426.191 5.77673 -3.10853 0
M  V30 4562 H 426.108 5.80808 -4.8394 0
M  V30 4563 H 427.376 6.67512 -4.02553 0
M  V30 4564 N 431.605 1.3629 0.791371 0
M  V30 4565 C 432.882 1.20962 1.53712 0
M  V30 4566 C 433.262 -0.205021 2.10102 0
M  V30 4567 O 432.61 -1.21042 1.93807 0
M  V30 4568 C 432.82 2.29002 2.63361 0
M  V30 4569 C 434.168 2.65572 3.31295 0
M  V30 4570 O 435.192 2.2803 2.73643 0
M  V30 4571 O 434.051 3.3018 4.35481 0
M  V30 4572 H 431.145 0.47086 0.679867 0
M  V30 4573 H 433.691 1.48016 0.830021 0
M  V30 4574 H 432.463 3.2382 2.19674 0
M  V30 4575 H 432.086 2.03303 3.41692 0
M  V30 4576 N 433.083 -1.0153 1.20538 0
M  V30 4577 C 434.033 -2.08482 0.922991 0
M  V30 4578 C 435.017 -1.60469 -0.117702 0
M  V30 4579 O 436.209 -1.76772 0.0898465 0
M  V30 4580 C 433.338 -3.39952 0.478312 0
M  V30 4581 C 432.424 -3.94662 1.5525 0
M  V30 4582 N 432.815 -4.22866 2.77521 0
M  V30 4583 C 431.113 -4.22825 1.41897 0
M  V30 4584 C 431.814 -4.67002 3.4682 0
M  V30 4585 N 430.79 -4.69356 2.74237 0
M  V30 4586 H 434.592 -2.28199 1.85209 0
M  V30 4587 H 432.106 -1.19512 1.09957 0
M  V30 4588 H 434.103 -4.16105 0.257408 0
M  V30 4589 H 432.763 -3.21648 -0.444148 0
M  V30 4590 H 433.774 -4.11732 3.1416 0
M  V30 4591 H 430.451 -4.13714 0.561015 0
M  V30 4592 H 431.841 -4.97632 4.51455 0
M  V30 4593 N 434.561 -1.01147 -1.20859 0
M  V30 4594 C 435.809 -0.696486 -1.89719 0
M  V30 4595 C 436.13 0.775788 -1.78904 0
M  V30 4596 O 435.4 1.55759 -1.18811 0
M  V30 4597 H 433.98 -0.254628 -0.702263 0
M  V30 4598 H 436.642 -1.28197 -1.46804 0
M  V30 4599 H 435.738 -0.975357 -2.96468 0
M  V30 4600 N 436.039 1.36541 -0.78704 0
M  V30 4601 C 437.286 1.99304 -0.358341 0
M  V30 4602 C 437.614 1.62467 1.06933 0
M  V30 4603 O 436.869 0.870019 1.75297 0
M  V30 4604 C 437.168 3.54343 -0.466485 0
M  V30 4605 C 436.834 4.10993 -1.85461 0
M  V30 4606 C 435.496 4.26177 -2.23443 0
M  V30 4607 C 437.848 4.41895 -2.76366 0
M  V30 4608 C 435.176 4.69573 -3.51736 0
M  V30 4609 C 437.528 4.86722 -4.04084 0
M  V30 4610 C 436.192 5.00112 -4.42091 0
M  V30 4611 H 435.462 0.729306 -0.131126 0
M  V30 4612 H 438.109 1.63068 -1.00404 0
M  V30 4613 H 436.414 3.90918 0.262719 0
M  V30 4614 H 438.111 4.00833 -0.115854 0
M  V30 4615 H 434.701 3.99612 -1.54946 0
M  V30 4616 H 438.885 4.29735 -2.48277 0
M  V30 4617 H 434.141 4.78127 -3.81057 0
M  V30 4618 H 438.315 5.09598 -4.7464 0
M  V30 4619 H 435.942 5.33498 -5.41557 0
M  V30 4620 N 437.518 0.538854 1.48102 0
M  V30 4621 C 438.428 -0.222648 2.33541 0
M  V30 4622 C 439.444 -0.930225 1.47047 0
M  V30 4623 O 440.62 -0.903211 1.80011 0
M  V30 4624 C 437.685 -1.25064 3.23357 0
M  V30 4625 C 436.746 -0.552469 4.2573 0
M  V30 4626 C 435.979 -1.53149 5.11254 0
M  V30 4627 O 436.202 -2.76487 4.9891 0
M  V30 4628 O 435.136 -1.06602 5.92385 0
M  V30 4629 H 438.962 0.477707 2.99919 0
M  V30 4630 H 436.547 0.299669 1.46364 0
M  V30 4631 H 438.429 -1.8445 3.78888 0
M  V30 4632 H 437.104 -1.93325 2.59629 0
M  V30 4633 H 436.011 0.082114 3.7401 0
M  V30 4634 H 437.344 0.0883526 4.92121 0
M  V30 4635 N 438.996 -1.55193 0.274407 0
M  V30 4636 C 440.242 -1.99877 -0.343086 0
M  V30 4637 C 440.575 -1.16256 -1.55558 0
M  V30 4638 O 439.85 -0.232462 -1.93106 0
M  V30 4639 C 440.133 -3.52706 -0.725965 0
M  V30 4640 C 439.986 -4.47081 0.493818 0
M  V30 4641 C 441.305 -4.11422 -1.56268 0
M  V30 4642 H 438.424 -0.726625 -0.123229 0
M  V30 4643 H 441.066 -1.86136 0.38121 0
M  V30 4644 H 439.216 -3.64546 -1.34307 0
M  V30 4645 H 440.888 -4.47186 1.13237 0
M  V30 4646 H 439.131 -4.1877 1.13201 0
M  V30 4647 H 439.802 -5.51699 0.18217 0
M  V30 4648 H 442.278 -4.02855 -1.04151 0
M  V30 4649 H 441.154 -5.18568 -1.79939 0
M  V30 4650 H 441.415 -3.61607 -2.54348 0
M  V30 4651 N 440.474 -0.00167713 -1.576 0
M  V30 4652 C 441.437 0.974046 -2.07473 0
M  V30 4653 C 442.437 1.27143 -0.984444 0
M  V30 4654 O 443.627 1.21633 -1.24703 0
M  V30 4655 C 440.759 2.29849 -2.51759 0
M  V30 4656 H 441.952 0.54262 -2.9495 0
M  V30 4657 H 439.505 0.245829 -1.54355 0
M  V30 4658 H 440.24 2.77677 -1.67529 0
M  V30 4659 H 440.025 2.09584 -3.31386 0
M  V30 4660 H 441.515 2.9984 -2.90664 0
M  V30 4661 N 441.952 1.55251 0.271103 0
M  V30 4662 C 443.177 1.80306 1.02491 0
M  V30 4663 C 443.602 0.575457 1.79081 0
M  V30 4664 O 442.96 -0.474987 1.74967 0
M  V30 4665 C 443.008 3.02832 1.95768 0
M  V30 4666 O 442.112 2.78051 3.04568 0
M  V30 4667 H 441.453 0.595896 0.292923 0
M  V30 4668 H 443.983 2.02397 0.299436 0
M  V30 4669 H 443.993 3.31616 2.37686 0
M  V30 4670 H 442.668 3.9183 1.39434 0
M  V30 4671 H 441.245 2.60369 2.66951 0
M  V30 4672 N 443.43 -0.535701 1.48216 0
M  V30 4673 C 444.658 -1.31671 1.59594 0
M  V30 4674 C 445.073 -1.87083 0.254056 0
M  V30 4675 O 444.43 -1.66112 -0.755854 0
M  V30 4676 C 444.481 -2.47158 2.63809 0
M  V30 4677 O 444.202 -1.94032 3.92789 0
M  V30 4678 C 445.703 -3.39062 2.85573 0
M  V30 4679 H 442.923 -0.400623 0.538277 0
M  V30 4680 H 445.467 -0.646827 1.94001 0
M  V30 4681 H 443.622 -3.10043 2.32276 0
M  V30 4682 H 444.036 -2.69585 4.49916 0
M  V30 4683 H 445.51 -4.16459 3.62306 0
M  V30 4684 H 445.987 -3.93941 1.94184 0
M  V30 4685 H 446.593 -2.81975 3.18387 0
M  V30 4686 N 444.908 -1.36708 -0.784132 0
M  V30 4687 C 446.133 -1.34565 -1.5782 0
M  V30 4688 C 446.558 0.0695257 -1.87971 0
M  V30 4689 O 445.916 1.04302 -1.48293 0
M  V30 4690 C 445.964 -2.17952 -2.87279 0
M  V30 4691 O 445.068 -1.57563 -3.81114 0
M  V30 4692 H 444.409 -0.460337 -0.478524 0
M  V30 4693 H 446.939 -1.80064 -0.971495 0
M  V30 4694 H 446.949 -2.30721 -3.365 0
M  V30 4695 H 445.624 -3.20823 -2.64661 0
M  V30 4696 H 444.201 -1.53764 -3.39722 0
M  V30 4697 N 446.386 1.0089 -1.21074 0
M  V30 4698 C 447.797 1.56056 -1.02486 0
M  V30 4699 C 448.148 1.91728 0.416506 0
M  V30 4700 O 447.273 1.73066 1.29912 0
M  V30 4701 C 447.868 2.83563 -1.85411 0
M  V30 4702 C 446.427 3.3523 -1.71166 0
M  V30 4703 C 445.574 2.0846 -1.82865 0
M  V30 4704 H 448.525 0.831818 -1.35154 0
M  V30 4705 H 448.546 3.55286 -1.36205 0
M  V30 4706 H 448.058 2.57569 -2.9031 0
M  V30 4707 H 446.159 3.66167 -0.689361 0
M  V30 4708 H 446.272 4.06913 -2.52901 0
M  V30 4709 H 444.636 2.21275 -1.26132 0
M  V30 4710 H 445.419 1.84883 -2.89263 0
M  V30 4711 N 447.864 1.01787 1.20321 0
M  V30 4712 C 448.774 0.598898 2.26827 0
M  V30 4713 C 449.79 -0.36418 1.70146 0
M  V30 4714 O 450.966 -0.224812 2.00141 0
M  V30 4715 C 448.031 -0.0549769 3.46656 0
M  V30 4716 C 447.092 0.954205 4.18561 0
M  V30 4717 C 446.325 0.331439 5.3267 0
M  V30 4718 O 446.548 -0.86851 5.63749 0
M  V30 4719 O 445.482 1.0488 5.92692 0
M  V30 4720 H 449.308 1.48562 2.64883 0
M  V30 4721 H 446.893 0.787434 1.26964 0
M  V30 4722 H 448.775 -0.420102 4.19301 0
M  V30 4723 H 447.45 -0.915876 3.10473 0
M  V30 4724 H 446.357 1.37072 3.48083 0
M  V30 4725 H 447.69 1.78511 4.58688 0
M  V30 4726 N 449.342 -1.36122 0.79427 0
M  V30 4727 C 450.619 -1.93398 0.292685 0
M  V30 4728 C 450.999 -1.72567 -1.21589 0
M  V30 4729 O 450.347 -1.08745 -2.00965 0
M  V30 4730 C 450.557 -3.42099 0.690614 0
M  V30 4731 C 451.905 -4.19231 0.673105 0
M  V30 4732 O 452.929 -3.50559 0.631389 0
M  V30 4733 O 451.788 -5.41732 0.720362 0
M  V30 4734 H 448.882 -0.823712 0.0736693 0
M  V30 4735 H 451.428 -1.45273 0.87714 0
M  V30 4736 H 450.2 -3.50938 1.73085 0
M  V30 4737 H 449.823 -3.97519 0.0803036 0
M  V30 4738 N 450.82 -0.546701 -1.47814 0
M  V30 4739 C 451.73 0.21026 -2.33656 0
M  V30 4740 C 452.746 0.922413 -1.47538 0
M  V30 4741 O 453.922 0.893652 -1.80488 0
M  V30 4742 C 450.987 1.23348 -3.24016 0
M  V30 4743 C 450.048 0.529883 -4.26017 0
M  V30 4744 C 449.281 1.50435 -5.12059 0
M  V30 4745 O 449.504 2.73837 -5.00369 0
M  V30 4746 O 448.438 1.03459 -5.92942 0
M  V30 4747 H 452.264 -0.493605 -2.99662 0
M  V30 4748 H 449.849 -0.307427 -1.46203 0
M  V30 4749 H 451.731 1.82438 -3.79861 0
M  V30 4750 H 450.406 1.91945 -2.60651 0
M  V30 4751 H 449.313 -0.101948 -3.73961 0
M  V30 4752 H 450.646 -0.11445 -4.92067 0
M  V30 4753 N 452.299 1.55045 -0.282633 0
M  V30 4754 C 453.524 2.04628 0.337977 0
M  V30 4755 C 453.949 1.15937 1.48123 0
M  V30 4756 O 453.307 0.159532 1.80597 0
M  V30 4757 C 453.355 3.51854 0.78936 0
M  V30 4758 O 452.459 3.66236 1.89592 0
M  V30 4759 H 451.8 0.660434 0.0687261 0
M  V30 4760 H 454.33 2.00261 -0.419124 0
M  V30 4761 H 454.34 3.93361 1.08311 0
M  V30 4762 H 453.015 4.15873 -0.0470419 0
M  V30 4763 H 451.592 3.36633 1.60413 0
M  V30 4764 N 453.777 0.010035 1.57597 0
M  V30 4765 C 455.188 -0.531426 1.78977 0
M  V30 4766 C 455.539 -1.73375 0.918454 0
M  V30 4767 O 454.664 -2.16047 0.123635 0
M  V30 4768 C 455.259 -0.97086 3.24592 0
M  V30 4769 C 453.818 -1.45756 3.47033 0
M  V30 4770 C 452.965 -0.413384 2.74201 0
M  V30 4771 H 455.916 0.236166 1.56933 0
M  V30 4772 H 455.937 -1.83633 3.33255 0
M  V30 4773 H 455.449 -0.0955893 3.87982 0
M  V30 4774 H 453.55 -2.35339 2.88871 0
M  V30 4775 H 453.663 -1.4781 4.55729 0
M  V30 4776 H 452.027 -0.877266 2.39115 0
M  V30 4777 H 452.81 0.453092 3.40297 0
M  V30 4778 N 455.255 -1.55392 -0.262866 0
M  V30 4779 C 456.503 -1.76127 -0.991147 0
M  V30 4780 C 456.824 -0.571083 -1.8645 0
M  V30 4781 O 456.094 0.413698 -1.91482 0
M  V30 4782 H 454.674 -0.649528 -0.368948 0
M  V30 4783 H 457.336 -1.9281 -0.284655 0
M  V30 4784 H 456.432 -2.6663 -1.62219 0
M  V30 4785 N 456.733 0.527833 -1.48498 0
M  V30 4786 C 457.958 1.313 -1.60546 0
M  V30 4787 C 458.383 1.86199 -0.26672 0
M  V30 4788 O 457.741 1.64513 0.761918 0
M  V30 4789 C 457.789 2.43818 -2.65678 0
M  V30 4790 O 456.893 3.46916 -2.22987 0
M  V30 4791 H 456.234 0.388784 -0.538277 0
M  V30 4792 H 458.764 0.634896 -1.945 0
M  V30 4793 H 458.774 2.89973 -2.87018 0
M  V30 4794 H 457.449 2.03222 -3.62869 0
M  V30 4795 H 456.026 3.06864 -2.11869 0
M  V30 4796 N 458.211 1.37122 0.776871 0
M  V30 4797 C 459.159 1.32549 1.91138 0
M  V30 4798 C 460.153 0.215119 1.68029 0
M  V30 4799 O 461.359 0.382852 1.75881 0
M  V30 4800 H 457.734 0.412952 0.62847 0
M  V30 4801 H 459.705 2.28332 1.92112 0
M  V30 4802 C 458.454 1.14422 3.28333 0
M  V30 4803 H 457.777 1.99115 3.46689 0
M  V30 4804 H 459.217 1.15272 4.0803 0
M  V30 4805 C 457.676 -0.150434 3.36564 0
M  V30 4806 O 458.206 -1.13584 3.85307 0
M  V30 4807 N 456.412 -0.19939 2.89915 0
M  V30 4808 H 455.959 0.603142 2.5044 0
M  V30 4809 H 455.917 -1.06526 2.95803 0
M  V30 4810 N 459.689 -1.00246 1.21608 0
M  V30 4811 C 461.1 -1.55511 1.03312 0
M  V30 4812 C 461.451 -1.91946 -0.406332 0
M  V30 4813 O 460.576 -1.73753 -1.28992 0
M  V30 4814 C 461.171 -2.82576 1.86913 0
M  V30 4815 C 459.73 -3.34318 1.72941 0
M  V30 4816 C 458.877 -2.07487 1.83968 0
M  V30 4817 H 461.828 -0.824638 1.35593 0
M  V30 4818 H 461.849 -3.54559 1.38087 0
M  V30 4819 H 461.361 -2.56026 2.91672 0
M  V30 4820 H 459.462 -3.65797 0.70877 0
M  V30 4821 H 459.575 -4.05566 2.55055 0
M  V30 4822 H 457.939 -2.20603 1.27304 0
M  V30 4823 H 458.722 -1.83346 2.9024 0
M  V30 4824 N 461.167 -1.02423 -1.1978 0
M  V30 4825 C 462.077 -0.610919 -2.26506 0
M  V30 4826 C 463.093 0.355152 -1.70337 0
M  V30 4827 O 464.269 0.214195 -2.00258 0
M  V30 4828 C 461.334 0.0365921 -3.46681 0
M  V30 4829 C 460.395 -0.976389 -4.18049 0
M  V30 4830 C 459.628 -0.359683 -5.32487 0
M  V30 4831 O 459.851 0.838601 -5.64202 0
M  V30 4832 O 458.785 -1.08022 -5.92127 0
M  V30 4833 H 462.611 -1.49965 -2.64091 0
M  V30 4834 H 460.196 -0.794156 -1.26545 0
M  V30 4835 H 462.078 0.39786 -4.19518 0
M  V30 4836 H 460.753 0.899398 -3.10954 0
M  V30 4837 H 459.66 -1.38916 -3.47352 0
M  V30 4838 H 460.993 -1.80941 -4.57735 0
M  V30 4839 N 462.645 1.35699 -0.801477 0
M  V30 4840 C 464.056 1.81415 -0.441073 0
M  V30 4841 C 464.407 1.66595 1.03636 0
M  V30 4842 O 463.532 1.19369 1.80499 0
M  V30 4843 C 464.127 3.29369 -0.793819 0
M  V30 4844 C 462.686 3.73248 -0.486083 0
M  V30 4845 C 461.833 2.57775 -1.02213 0
M  V30 4846 H 464.784 1.23749 -0.993572 0
M  V30 4847 H 464.805 3.80395 -0.0894158 0
M  V30 4848 H 464.317 3.40123 -1.86917 0
M  V30 4849 H 462.418 3.68046 0.580735 0
M  V30 4850 H 462.531 4.68222 -1.01513 0
M  V30 4851 H 460.895 2.50788 -0.444712 0
M  V30 4852 H 461.678 2.71309 -2.10348 0
M  V30 4853 N 464.123 0.554532 1.47522 0
M  V30 4854 C 465.4 -0.0360704 1.95567 0
M  V30 4855 C 465.78 -1.48828 1.49711 0
M  V30 4856 O 465.128 -2.16366 0.734717 0
M  V30 4857 C 465.338 0.106631 3.48837 0
M  V30 4858 C 466.686 -0.0400899 4.24581 0
M  V30 4859 O 467.71 0.0340453 3.56184 0
M  V30 4860 O 466.569 -0.199111 5.46137 0
M  V30 4861 H 463.663 -0.0656294 0.824392 0
M  V30 4862 H 466.209 0.620867 1.57935 0
M  V30 4863 H 464.981 1.11727 3.7501 0
M  V30 4864 H 464.604 -0.58804 3.93227 0
M  V30 4865 N 465.601 -1.54893 0.290851 0
M  V30 4866 C 466.564 -2.21824 -0.576784 0
M  V30 4867 C 467.564 -1.20104 -1.06919 0
M  V30 4868 O 468.754 -1.44906 -0.966843 0
M  V30 4869 C 465.886 -2.89662 -1.79747 0
M  V30 4870 H 467.079 -2.99899 0.00784051 0
M  V30 4871 H 464.632 -1.56245 0.0415934 0
M  V30 4872 H 465.367 -2.15639 -2.42219 0
M  V30 4873 H 465.152 -3.64219 -1.45214 0
M  V30 4874 H 466.642 -3.4075 -2.4141 0
M  V30 4875 N 467.08 -0.0183926 -1.57589 0
M  V30 4876 C 468.308 0.673046 -1.95647 0
M  V30 4877 C 468.723 1.66275 -0.894312 0
M  V30 4878 O 468.08 1.82072 0.124975 0
M  V30 4879 C 468.131 1.38884 -3.33756 0
M  V30 4880 O 467.852 0.438806 -4.35897 0
M  V30 4881 C 469.353 2.1731 -3.86383 0
M  V30 4882 H 466.573 0.186292 -0.644621 0
M  V30 4883 H 469.117 -0.0749748 -2.04363 0
M  V30 4884 H 467.272 2.08835 -3.26293 0
M  V30 4885 H 467.686 0.945869 -5.15901 0
M  V30 4886 H 469.16 2.62863 -4.85394 0
M  V30 4887 H 469.637 3.00764 -3.20059 0
M  V30 4888 H 470.243 1.52339 -3.97081 0
M  V30 4889 N 468.558 1.5553 0.254621 0
M  V30 4890 C 469.969 1.67518 0.824286 0
M  V30 4891 C 470.32 0.614429 1.86331 0
M  V30 4892 O 469.445 -0.240736 2.15057 0
M  V30 4893 C 470.04 3.03692 1.50189 0
M  V30 4894 C 468.599 3.17646 2.01935 0
M  V30 4895 C 467.746 2.63373 0.867746 0
M  V30 4896 H 470.697 1.58671 0.0305843 0
M  V30 4897 H 470.718 2.97706 2.36962 0
M  V30 4898 H 470.23 3.80874 0.745431 0
M  V30 4899 H 468.331 2.45273 2.80485 0
M  V30 4900 H 468.444 4.24455 2.22204 0
M  V30 4901 H 466.808 2.20999 1.26616 0
M  V30 4902 H 467.591 3.43074 0.124498 0
M  V30 4903 N 470.036 -0.519951 1.48776 0
M  V30 4904 C 471.283 -1.27522 1.57303 0
M  V30 4905 C 471.611 -1.92869 0.251328 0
M  V30 4906 O 470.866 -1.80372 -0.759243 0
M  V30 4907 C 471.165 -2.37864 2.6675 0
M  V30 4908 C 470.831 -1.90103 4.08867 0
M  V30 4909 C 469.493 -1.76795 4.47546 0
M  V30 4910 C 471.845 -1.54133 4.97888 0
M  V30 4911 C 469.173 -1.25868 5.73039 0
M  V30 4912 C 471.525 -1.04665 6.23881 0
M  V30 4913 C 470.189 -0.899823 6.61407 0
M  V30 4914 H 469.459 -0.466636 0.575614 0
M  V30 4915 H 472.106 -0.579109 1.82534 0
M  V30 4916 H 470.411 -3.13186 2.35418 0
M  V30 4917 H 472.108 -2.95969 2.70561 0
M  V30 4918 H 468.698 -2.01414 3.78326 0
M  V30 4919 H 472.882 -1.6327 4.68675 0
M  V30 4920 H 468.138 -1.13196 6.0083 0
M  V30 4921 H 472.312 -0.759074 6.92251 0
M  V30 4922 H 469.939 -0.503011 7.58534 0
M  V30 4923 N 471.514 -1.37532 -0.769588 0
M  V30 4924 C 472.446 -1.29347 -1.89214 0
M  V30 4925 C 473.459 -0.208842 -1.61455 0
M  V30 4926 O 474.648 -0.465158 -1.72333 0
M  V30 4927 C 471.748 -0.977649 -3.24492 0
M  V30 4928 C 470.921 -2.16817 -3.7988 0
M  V30 4929 C 469.98 -1.82229 -4.93639 0
M  V30 4930 O 469.006 -2.54548 -5.09111 0
M  V30 4931 N 470.208 -0.767696 -5.75401 0
M  V30 4932 H 472.973 -2.26073 -1.96751 0
M  V30 4933 H 470.534 -1.31185 -0.948795 0
M  V30 4934 H 472.526 -0.727065 -3.98115 0
M  V30 4935 H 471.096 -0.0988777 -3.12444 0
M  V30 4936 H 470.316 -2.58038 -2.9801 0
M  V30 4937 H 471.604 -2.96308 -4.13617 0
M  V30 4938 H 471.002 -0.167626 -5.65452 0
M  V30 4939 H 469.559 -0.576973 -6.49241 0
M  V30 4940 N 472.992 0.995999 -1.22138 0
M  V30 4941 C 473.902 2.11985 -1.00496 0
M  V30 4942 C 474.918 1.7394 0.0457701 0
M  V30 4943 O 476.094 2.00868 -0.146273 0
M  V30 4944 C 473.159 3.41779 -0.582086 0
M  V30 4945 C 472.22 3.93943 -1.70608 0
M  V30 4946 C 471.453 5.17542 -1.30328 0
M  V30 4947 O 471.676 5.70114 -0.180743 0
M  V30 4948 O 470.61 5.63382 -2.11861 0
M  V30 4949 H 474.436 2.33123 -1.94647 0
M  V30 4950 H 472.021 1.10358 -1.00705 0
M  V30 4951 H 473.903 4.1989 -0.356467 0
M  V30 4952 H 472.578 3.22007 0.330592 0
M  V30 4953 H 471.485 3.17019 -1.98619 0
M  V30 4954 H 472.818 4.18141 -2.59651 0
M  V30 4955 N 474.47 1.03057 1.19235 0
M  V30 4956 C 475.718 0.726581 1.88587 0
M  V30 4957 C 476.039 -0.747227 1.80115 0
M  V30 4958 O 475.309 -1.53849 1.21274 0
M  V30 4959 H 473.889 0.265768 0.698124 0
M  V30 4960 H 476.551 1.30516 1.44746 0
M  V30 4961 H 475.647 1.0224 2.94879 0
M  V30 4962 N 475.948 -1.35272 0.808662 0
M  V30 4963 C 476.878 -2.32315 0.234981 0
M  V30 4964 C 477.859 -1.57572 -0.64071 0
M  V30 4965 O 479.044 -1.8563 -0.570551 0
M  V30 4966 C 476.174 -3.41801 -0.615601 0
M  V30 4967 C 475.128 -4.27694 0.161767 0
M  V30 4968 C 474.454 -5.28519 -0.810649 0
M  V30 4969 C 475.754 -5.04231 1.36193 0
M  V30 4970 H 477.448 -2.80543 1.04575 0
M  V30 4971 H 474.994 -1.3488 0.504315 0
M  V30 4972 H 476.947 -4.08693 -1.02702 0
M  V30 4973 H 475.671 -2.92186 -1.45928 0
M  V30 4974 H 474.33 -3.62384 0.554382 0
M  V30 4975 H 473.978 -4.75171 -1.64988 0
M  V30 4976 H 473.678 -5.8686 -0.294822 0
M  V30 4977 H 475.202 -5.98283 -1.22023 0
M  V30 4978 H 476.616 -5.64058 1.02528 0
M  V30 4979 H 475.013 -5.72077 1.81239 0
M  V30 4980 H 476.083 -4.34753 2.14751 0
M  V30 4981 N 477.426 -0.562348 -1.47226 0
M  V30 4982 C 478.842 -0.222492 -1.58042 0
M  V30 4983 C 479.042 1.27505 -1.56028 0
M  V30 4984 O 478.098 2.05555 -1.46641 0
M  V30 4985 C 479.411 -0.853694 -2.88327 0
M  V30 4986 C 480.959 -0.825397 -3.01921 0
M  V30 4987 C 481.434 -1.43576 -4.34914 0
M  V30 4988 N 482.925 -1.39918 -4.41562 0
M  V30 4989 C 483.66 -1.84103 -5.43041 0
M  V30 4990 N 483.156 -2.36167 -6.51304 0
M  V30 4991 N 484.949 -1.75142 -5.34118 0
M  V30 4992 H 477.1 -1.53525 -1.46778 0
M  V30 4993 H 479.363 -0.640527 -0.698877 0
M  V30 4994 H 479.069 -1.90635 -2.95552 0
M  V30 4995 H 478.943 -0.34977 -3.75575 0
M  V30 4996 H 481.33 0.218583 -2.94289 0
M  V30 4997 H 481.411 -1.36713 -2.16202 0
M  V30 4998 H 481.055 -2.47884 -4.43301 0
M  V30 4999 H 480.985 -0.869427 -5.19373 0
M  V30 5000 H 483.476 -1.0184 -3.63919 0
M  V30 5001 H 483.789 -2.67793 -7.24919 0
M  V30 5002 H 482.134 -2.40181 -6.52179 0
M  V30 5003 H 485.325 -1.34241 -4.48439 0
M  V30 5004 H 485.498 -2.09895 -6.13065 0
M  V30 5005 N 478.904 1.54736 -0.299062 0
M  V30 5006 C 480.132 2.04512 0.313447 0
M  V30 5007 C 480.547 1.17643 1.47667 0
M  V30 5008 O 479.904 0.20164 1.81383 0
M  V30 5009 C 479.955 3.53171 0.771542 0
M  V30 5010 O 479.676 4.36736 -0.345379 0
M  V30 5011 C 481.177 4.18936 1.4494 0
M  V30 5012 H 478.397 0.667507 0.0683784 0
M  V30 5013 H 480.941 1.99752 -0.438129 0
M  V30 5014 H 479.096 3.58298 1.47314 0
M  V30 5015 H 479.51 5.24499 0.0109219 0
M  V30 5016 H 480.984 5.24482 1.72111 0
M  V30 5017 H 481.461 3.68554 2.38883 0
M  V30 5018 H 482.067 4.17879 0.791028 0
M  V30 5019 N 480.382 0.0267497 1.57577 0
M  V30 5020 C 481.629 -0.652404 1.91703 0
M  V30 5021 C 481.957 -1.72271 0.902936 0
M  V30 5022 O 481.212 -1.955 -0.0884843 0
M  V30 5023 C 481.511 -1.30914 3.3256 0
M  V30 5024 C 481.177 -0.369441 4.49384 0
M  V30 5025 C 479.839 -0.110791 4.81072 0
M  V30 5026 C 482.191 0.275971 5.20469 0
M  V30 5027 C 479.519 0.801116 5.81205 0
M  V30 5028 C 481.871 1.17592 6.21575 0
M  V30 5029 C 480.535 1.44348 6.51705 0
M  V30 5030 H 479.805 -0.238732 0.70149 0
M  V30 5031 H 482.452 0.0880091 1.91298 0
M  V30 5032 H 480.757 -2.12425 3.29216 0
M  V30 5033 H 482.454 -1.84115 3.56234 0
M  V30 5034 H 479.044 -0.581211 4.24641 0
M  V30 5035 H 483.228 0.0892 4.9622 0
M  V30 5036 H 478.484 1.01614 6.02897 0
M  V30 5037 H 482.658 1.68223 6.75777 0
M  V30 5038 H 480.285 2.15176 7.29111 0
M  V30 5039 N 481.861 -1.55662 -0.24637 0
M  V30 5040 C 483.138 -1.68272 -0.997198 0
M  V30 5041 C 483.518 -0.566785 -2.03349 0
M  V30 5042 O 482.866 0.429688 -2.24424 0
M  V30 5043 C 483.076 -3.08594 -1.63006 0
M  V30 5044 C 484.424 -3.6721 -2.13171 0
M  V30 5045 O 485.448 -3.11397 -1.72946 0
M  V30 5046 O 484.307 -4.65054 -2.87031 0
M  V30 5047 H 481.401 -0.684429 -0.464205 0
M  V30 5048 H 483.947 -1.67993 -0.240114 0
M  V30 5049 H 482.719 -3.81264 -0.880527 0
M  V30 5050 H 482.342 -3.12886 -2.45333 0
M  V30 5051 N 483.339 0.512053 -1.4905 0
M  V30 5052 C 484.271 1.63121 -1.6101 0
M  V30 5053 C 485.284 1.55145 -0.493352 0
M  V30 5054 O 486.473 1.61278 -0.764955 0
M  V30 5055 C 483.573 3.01863 -1.54052 0
M  V30 5056 C 482.746 3.35138 -2.81072 0
M  V30 5057 C 481.805 4.5324 -2.67319 0
M  V30 5058 O 480.831 4.55571 -3.41238 0
M  V30 5059 N 482.033 5.52495 -1.78127 0
M  V30 5060 H 484.798 1.53292 -2.5753 0
M  V30 5061 H 482.359 0.699706 -1.45999 0
M  V30 5062 H 484.351 3.78774 -1.42521 0
M  V30 5063 H 482.921 3.05675 -0.654345 0
M  V30 5064 H 482.141 2.4723 -3.07036 0
M  V30 5065 H 483.429 3.54162 -3.65304 0
M  V30 5066 H 482.827 5.53403 -1.17308 0
M  V30 5067 H 481.384 6.28553 -1.72525 0
M  V30 5068 N 484.817 1.37938 0.762283 0
M  V30 5069 C 485.747 1.37176 1.88958 0
M  V30 5070 C 486.728 0.238945 1.68413 0
M  V30 5071 O 487.913 0.440726 1.89133 0
M  V30 5072 C 485.043 1.18742 3.2637 0
M  V30 5073 C 483.997 2.29136 3.61498 0
M  V30 5074 C 483.323 1.95816 4.97554 0
M  V30 5075 C 484.623 3.71363 3.6727 0
M  V30 5076 H 486.317 2.31509 1.89853 0
M  V30 5077 H 483.863 1.11438 0.912005 0
M  V30 5078 H 485.816 1.16837 4.04879 0
M  V30 5079 H 484.54 0.208683 3.25933 0
M  V30 5080 H 483.199 2.30213 2.85303 0
M  V30 5081 H 482.847 0.964475 4.93667 0
M  V30 5082 H 482.547 2.69745 5.22026 0
M  V30 5083 H 484.071 1.95513 5.78452 0
M  V30 5084 H 485.485 3.72364 4.35911 0
M  V30 5085 H 483.882 4.44425 4.03245 0
M  V30 5086 H 484.952 4.04305 2.67704 0
M  V30 5087 N 486.295 -0.989507 1.22664 0
M  V30 5088 C 487.572 -1.70326 0.961688 0
M  V30 5089 C 487.952 -2.04537 -0.522279 0
M  V30 5090 O 487.3 -1.73136 -1.49118 0
M  V30 5091 C 487.51 -2.95135 1.86269 0
M  V30 5092 C 488.858 -3.67842 2.12078 0
M  V30 5093 O 489.882 -3.0515 1.83745 0
M  V30 5094 O 488.741 -4.80644 2.60083 0
M  V30 5095 H 485.835 -0.743589 0.361946 0
M  V30 5096 H 488.381 -1.04555 1.33665 0
M  V30 5097 H 487.153 -2.66382 2.8663 0
M  V30 5098 H 486.776 -3.68645 1.48952 0
M  V30 5099 N 487.773 -1.03688 -1.18687 0
M  V30 5100 C 488.736 -0.629115 -2.20397 0
M  V30 5101 C 489.736 0.311495 -1.57754 0
M  V30 5102 O 490.926 0.0974107 -1.73927 0
M  V30 5103 C 488.058 0.0782231 -3.4081 0
M  V30 5104 H 489.251 -1.52915 -2.57987 0
M  V30 5105 H 486.804 -0.828988 -1.32505 0
M  V30 5106 H 487.539 0.992233 -3.08748 0
M  V30 5107 H 487.324 -0.597776 -3.87517 0
M  V30 5108 H 488.814 0.350156 -4.16129 0
M  V30 5109 N 489.251 1.34841 -0.815825 0
M  V30 5110 C 490.5 1.97755 -0.396976 0
M  V30 5111 C 490.813 1.65422 1.04379 0
M  V30 5112 O 492.019 2.21771 1.5662 0
M  V30 5113 C 490.475 3.53818 -0.658869 0
M  V30 5114 C 490.083 3.95051 -2.11278 0
M  V30 5115 C 491.827 4.23397 -0.305834 0
M  V30 5116 C 489.734 5.43997 -2.31994 0
M  V30 5117 H 488.664 0.739985 -0.1447 0
M  V30 5118 H 491.315 1.53781 -1.00118 0
M  V30 5119 H 489.697 3.95997 0.0154112 0
M  V30 5120 H 490.871 3.63998 -2.82564 0
M  V30 5121 H 489.186 3.38388 -2.42657 0
M  V30 5122 H 491.783 5.32899 -0.43854 0
M  V30 5123 H 492.126 4.09508 0.748952 0
M  V30 5124 H 492.659 3.8667 -0.934403 0
M  V30 5125 H 489.398 5.62865 -3.35952 0
M  V30 5126 H 488.918 5.76589 -1.65244 0
M  V30 5127 H 490.597 6.10584 -2.14001 0
M  V30 5128 N 490.729 0.570148 1.46925 0
M  V30 5129 C 491.954 0.0542592 2.07329 0
M  V30 5130 C 492.379 -1.23582 1.41806 0
M  V30 5131 O 491.737 -1.74341 0.497479 0
M  V30 5132 C 491.785 -0.111175 3.60429 0
M  V30 5133 O 490.889 -1.17071 3.95434 0
M  V30 5134 H 490.23 0.0571425 0.661537 0
M  V30 5135 H 492.76 0.789516 1.88753 0
M  V30 5136 H 492.77 -0.321315 4.06733 0
M  V30 5137 H 491.445 0.831012 4.07513 0
M  V30 5138 H 490.022 -0.940029 3.60857 0
M  V30 5139 N 492.207 -1.54576 0.307264 0
M  V30 5140 C 493.432 -2.05139 -0.305379 0
M  V30 5141 C 493.857 -1.18278 -1.46259 0
M  V30 5142 O 493.215 -0.188243 -1.8032 0
M  V30 5143 C 493.263 -3.53066 -0.733283 0
M  V30 5144 O 492.367 -3.69206 -1.83741 0
M  V30 5145 H 491.708 -0.661444 -0.0582105 0
M  V30 5146 H 494.238 -1.99569 0.450931 0
M  V30 5147 H 494.248 -3.95034 -1.02039 0
M  V30 5148 H 492.923 -4.15746 0.113198 0
M  V30 5149 H 491.5 -3.39143 -1.55037 0
M  V30 5150 N 493.685 -0.035106 -1.57561 0
M  V30 5151 C 494.615 0.942993 -2.13612 0
M  V30 5152 C 495.596 1.33531 -1.05373 0
M  V30 5153 O 496.781 1.41287 -1.33235 0
M  V30 5154 C 493.911 2.22332 -2.66807 0
M  V30 5155 C 492.865 1.97156 -3.79886 0
M  V30 5156 C 492.191 3.31506 -4.19533 0
M  V30 5157 C 493.491 1.30596 -5.05709 0
M  V30 5158 H 495.185 0.476179 -2.95589 0
M  V30 5159 H 492.731 0.227602 -1.4219 0
M  V30 5160 H 494.684 2.91142 -3.04654 0
M  V30 5161 H 493.408 2.7119 -1.81999 0
M  V30 5162 H 492.067 1.30763 -3.42486 0
M  V30 5163 H 491.715 3.78134 -3.31698 0
M  V30 5164 H 491.415 3.15465 -4.95738 0
M  V30 5165 H 492.939 4.01574 -4.59968 0
M  V30 5166 H 494.353 1.89416 -5.41105 0
M  V30 5167 H 492.75 1.24934 -5.86951 0
M  V30 5168 H 493.82 0.279742 -4.84092 0
M  V30 5169 N 495.163 1.55791 0.238111 0
M  V30 5170 C 496.574 1.68383 0.806472 0
M  V30 5171 C 496.925 0.634157 1.85669 0
M  V30 5172 O 496.05 -0.217913 2.153 0
M  V30 5173 C 496.645 3.05268 1.46959 0
M  V30 5174 C 495.204 3.1977 1.98555 0
M  V30 5175 C 494.351 2.64279 0.839763 0
M  V30 5176 H 497.302 1.58694 0.0137535 0
M  V30 5177 H 497.323 3.00203 2.33792 0
M  V30 5178 H 496.835 3.81643 0.704993 0
M  V30 5179 H 494.936 2.48234 2.77868 0
M  V30 5180 H 495.049 4.26788 2.17689 0
M  V30 5181 H 493.413 2.22329 1.24265 0
M  V30 5182 H 494.196 3.43187 0.0881032 0
M  V30 5183 N 496.642 -0.504142 1.49319 0
M  V30 5184 C 497.87 -1.28256 1.62351 0
M  V30 5185 C 498.285 -1.86502 0.293682 0
M  V30 5186 O 497.642 -1.67678 -0.720449 0
M  V30 5187 C 497.693 -2.41507 2.68992 0
M  V30 5188 O 497.414 -1.85656 3.96817 0
M  V30 5189 C 498.915 -3.32929 2.927 0
M  V30 5190 H 496.135 -0.389115 0.546654 0
M  V30 5191 H 498.679 -0.605531 1.95329 0
M  V30 5192 H 496.834 -3.05046 2.38801 0
M  V30 5193 H 497.248 -2.59981 4.55533 0
M  V30 5194 H 498.722 -4.0868 3.71058 0
M  V30 5195 H 499.199 -3.89733 2.02496 0
M  V30 5196 H 499.805 -2.75158 3.24296 0
M  V30 5197 N 498.12 -1.38341 -0.754957 0
M  V30 5198 C 499.531 -1.30803 -1.3322 0
M  V30 5199 C 499.882 0.0368 -1.96165 0
M  V30 5200 O 499.007 0.938844 -1.94974 0
M  V30 5201 C 499.602 -2.3688 -2.42225 0
M  V30 5202 C 498.161 -2.32925 -2.95674 0
M  V30 5203 C 497.308 -2.19819 -1.69042 0
M  V30 5204 H 500.259 -1.48719 -0.553937 0
M  V30 5205 H 500.28 -2.02517 -3.22129 0
M  V30 5206 H 499.792 -3.34747 -1.96383 0
M  V30 5207 H 497.893 -1.38635 -3.45848 0
M  V30 5208 H 498.006 -3.27008 -3.50146 0
M  V30 5209 H 496.37 -1.66648 -1.92615 0
M  V30 5210 H 497.153 -3.19625 -1.25279 0
M  V30 5211 N 499.598 0.982988 -1.23187 0
M  V30 5212 C 500.823 1.76455 -1.08988 0
M  V30 5213 C 501.248 1.84726 0.354691 0
M  V30 5214 O 500.606 1.30699 1.25649 0
M  V30 5215 C 500.654 3.17094 -1.71708 0
M  V30 5216 O 499.758 4.00648 -0.977477 0
M  V30 5217 H 499.099 0.542988 -0.382177 0
M  V30 5218 H 501.629 1.23413 -1.63188 0
M  V30 5219 H 501.639 3.67684 -1.76841 0
M  V30 5220 H 500.314 3.10389 -2.76823 0
M  V30 5221 H 498.891 3.59161 -1.0029 0
M  V30 5222 N 501.076 1.04316 1.18135 0
M  V30 5223 C 502.353 0.662166 1.84051 0
M  V30 5224 C 502.733 -0.858169 1.9287 0
M  V30 5225 O 502.081 -1.76062 1.45652 0
M  V30 5226 C 502.291 1.3409 3.22212 0
M  V30 5227 C 503.639 1.4733 3.9822 0
M  V30 5228 O 504.663 1.29921 3.31661 0
M  V30 5229 O 503.522 1.75722 5.17479 0
M  V30 5230 H 500.616 0.232005 0.79379 0
M  V30 5231 H 503.162 1.1422 1.25506 0
M  V30 5232 H 501.934 2.37853 3.10711 0
M  V30 5233 H 501.557 0.849649 3.88416 0
M  V30 5234 N 502.554 -1.34406 0.822964 0
M  V30 5235 C 503.803 -1.97542 0.407458 0
M  V30 5236 C 504.116 -1.65973 -1.035 0
M  V30 5237 O 505.322 -2.22598 -1.55442 0
M  V30 5238 C 503.778 -3.53463 0.677623 0
M  V30 5239 C 503.386 -3.93925 2.1337 0
M  V30 5240 C 505.13 -4.23229 0.328284 0
M  V30 5241 C 503.037 -5.42759 2.34876 0
M  V30 5242 H 501.967 -0.739207 0.148623 0
M  V30 5243 H 504.618 -1.53248 1.00932 0
M  V30 5244 H 503 -3.96 0.00558965 0
M  V30 5245 H 504.174 -3.62494 2.8449 0
M  V30 5246 H 502.489 -3.37097 2.44448 0
M  V30 5247 H 505.086 -5.32659 0.466794 0
M  V30 5248 H 505.429 -4.09899 -0.727224 0
M  V30 5249 H 505.962 -3.86169 0.954896 0
M  V30 5250 H 502.701 -5.61075 3.38932 0
M  V30 5251 H 502.221 -5.75704 1.68299 0
M  V30 5252 H 503.9 -6.0944 2.17236 0
M  V30 5253 N 504.032 -0.577932 -1.46621 0
M  V30 5254 C 505.279 -0.0616879 -2.02406 0
M  V30 5255 C 505.607 1.29638 -1.44997 0
M  V30 5256 O 504.862 1.86176 -0.60308 0
M  V30 5257 C 505.161 0.0590832 -3.57351 0
M  V30 5258 C 504.827 -1.23077 -4.33777 0
M  V30 5259 C 503.489 -1.58416 -4.54376 0
M  V30 5260 C 505.841 -2.08457 -4.77698 0
M  V30 5261 C 503.169 -2.78943 -5.16147 0
M  V30 5262 C 505.521 -3.28204 -5.408 0
M  V30 5263 C 504.185 -3.63832 -5.59627 0
M  V30 5264 H 503.455 -0.0225732 -0.740656 0
M  V30 5265 H 506.102 -0.753609 -1.76048 0
M  V30 5266 H 504.407 0.834104 -3.82818 0
M  V30 5267 H 506.104 0.474202 -3.98186 0
M  V30 5268 H 502.694 -0.945652 -4.18038 0
M  V30 5269 H 506.878 -1.82459 -4.61544 0
M  V30 5270 H 502.134 -3.06689 -5.28916 0
M  V30 5271 H 506.308 -3.94634 -5.73792 0
M  V30 5272 H 503.935 -4.57315 -6.07262 0
M  V30 5273 N 505.51 1.54411 -0.315457 0
M  V30 5274 C 506.756 2.00716 0.289972 0
M  V30 5275 C 507.089 1.2034 1.5242 0
M  V30 5276 O 506.364 0.283579 1.92422 0
M  V30 5277 C 506.647 3.54507 0.632196 0
M  V30 5278 C 506.5 4.45615 -0.61218 0
M  V30 5279 C 507.819 4.15421 1.45305 0
M  V30 5280 H 504.938 0.729637 0.10392 0
M  V30 5281 H 507.58 1.8506 -0.430427 0
M  V30 5282 H 505.73 3.67979 1.24595 0
M  V30 5283 H 507.402 4.44026 -1.25053 0
M  V30 5284 H 505.645 4.15621 -1.24264 0
M  V30 5285 H 506.316 5.51022 -0.328379 0
M  V30 5286 H 508.792 4.05474 0.934331 0
M  V30 5287 H 507.668 5.23157 1.66127 0
M  V30 5288 H 507.929 3.68223 2.44671 0
M  V30 5289 N 506.988 0.0434614 1.5754 0
M  V30 5290 C 508.213 -0.645358 1.97104 0
M  V30 5291 C 508.638 -1.64037 0.920521 0
M  V30 5292 O 507.996 -1.80922 -0.11708 0
M  V30 5293 C 508.044 -1.31547 3.35749 0
M  V30 5294 O 507.148 -2.43103 3.33129 0
M  V30 5295 H 506.489 -0.168403 0.64229 0
M  V30 5296 H 509.019 0.109573 2.04306 0
M  V30 5297 H 509.029 -1.66895 3.72304 0
M  V30 5298 H 507.704 -0.586205 4.11748 0
M  V30 5299 H 506.281 -2.0976 3.0831 0
M  V30 5300 N 508.466 -1.55915 -0.229846 0
M  V30 5301 C 509.696 -1.82352 -0.971152 0
M  V30 5302 C 510.104 -0.619231 -1.7878 0
M  V30 5303 O 509.447 0.421597 -1.78797 0
M  V30 5304 C 509.509 -3.02399 -1.9441 0
M  V30 5305 C 509.173 -4.37739 -1.31277 0
M  V30 5306 C 510.17 -5.15074 -0.706757 0
M  V30 5307 C 507.855 -4.84454 -1.32702 0
M  V30 5308 C 509.849 -6.37281 -0.123413 0
M  V30 5309 C 507.536 -6.06605 -0.739831 0
M  V30 5310 C 508.534 -6.82858 -0.139071 0
M  V30 5311 O 508.222 -8.027 0.439007 0
M  V30 5312 H 507.954 -0.61035 -0.290601 0
M  V30 5313 H 510.508 -2.03839 -0.252746 0
M  V30 5314 H 508.738 -2.76709 -2.70128 0
M  V30 5315 H 510.427 -3.15779 -2.55026 0
M  V30 5316 H 511.193 -4.80093 -0.688131 0
M  V30 5317 H 507.072 -4.25081 -1.78402 0
M  V30 5318 H 510.616 -6.96741 0.346124 0
M  V30 5319 H 506.513 -6.4106 -0.755841 0
M  V30 5320 H 507.281 -8.17824 0.332521 0
M  V30 5321 N 509.944 0.496216 -1.49584 0
M  V30 5322 C 511.169 1.27865 -1.63295 0
M  V30 5323 C 511.594 1.85592 -0.306156 0
M  V30 5324 O 510.952 1.66092 0.726851 0
M  V30 5325 C 511 2.38128 -2.7079 0
M  V30 5326 O 510.104 3.42108 -2.30296 0
M  V30 5327 H 509.445 0.377279 -0.546403 0
M  V30 5328 H 511.975 0.593497 -1.95803 0
M  V30 5329 H 511.985 2.8382 -2.93104 0
M  V30 5330 H 510.66 1.95479 -3.67098 0
M  V30 5331 H 509.237 3.02301 -2.18331 0
M  V30 5332 N 511.423 1.38739 0.74761 0
M  V30 5333 C 512.651 1.38521 1.53686 0
M  V30 5334 C 513.066 -0.0235129 1.88785 0
M  V30 5335 O 512.423 -0.991662 1.53207 0
M  V30 5336 C 512.474 2.24641 2.83229 0
M  V30 5337 O 512.195 3.60026 2.49625 0
M  V30 5338 C 513.696 2.32669 3.77333 0
M  V30 5339 H 510.916 0.473589 0.475347 0
M  V30 5340 H 513.46 1.82395 0.924786 0
M  V30 5341 H 511.615 1.84213 3.40799 0
M  V30 5342 H 512.029 4.05435 3.3275 0
M  V30 5343 H 513.503 2.97201 4.65162 0
M  V30 5344 H 513.98 1.3421 4.18192 0
M  V30 5345 H 514.586 2.73512 3.25685 0
M  V30 5346 N 512.901 -0.976442 1.23707 0
M  V30 5347 C 514.148 -1.71827 1.07153 0
M  V30 5348 C 514.476 -1.9053 -0.390982 0
M  V30 5349 O 513.731 -1.45779 -1.30564 0
M  V30 5350 C 514.03 -3.11814 1.74662 0
M  V30 5351 C 513.696 -3.12978 3.24585 0
M  V30 5352 C 512.358 -3.13003 3.6549 0
M  V30 5353 C 514.71 -3.07986 4.20469 0
M  V30 5354 C 512.038 -3.05757 5.00729 0
M  V30 5355 C 514.39 -3.02282 5.55705 0
M  V30 5356 C 513.054 -3.00631 5.95968 0
M  V30 5357 H 512.324 -0.628758 0.392102 0
M  V30 5358 H 514.971 -1.14239 1.53693 0
M  V30 5359 H 513.276 -3.72812 1.20492 0
M  V30 5360 H 514.973 -3.67989 1.59328 0
M  V30 5361 H 511.563 -3.13718 2.92026 0
M  V30 5362 H 515.747 -3.07103 3.89874 0
M  V30 5363 H 511.003 -3.02834 5.31132 0
M  V30 5364 H 515.177 -2.97376 6.29714 0
M  V30 5365 H 512.804 -2.94771 7.00724 0
M  V30 5366 N 514.379 -1.04941 -1.1758 0
M  V30 5367 C 515.79 -0.784501 -1.69418 0
M  V30 5368 C 516.141 0.693625 -1.8353 0
M  V30 5369 O 515.266 1.53925 -1.52106 0
M  V30 5370 C 515.861 -1.41746 -3.07723 0
M  V30 5371 C 514.42 -1.20066 -3.56737 0
M  V30 5372 C 513.567 -1.5026 -2.33061 0
M  V30 5373 H 516.518 -1.21469 -1.02133 0
M  V30 5374 H 516.539 -0.825381 -3.7144 0
M  V30 5375 H 516.051 -2.49325 -2.9742 0
M  V30 5376 H 514.152 -0.144006 -3.72322 0
M  V30 5377 H 514.265 -1.90384 -4.39648 0
M  V30 5378 H 512.629 -0.922598 -2.37403 0
M  V30 5379 H 513.412 -2.58967 -2.25368 0
M  V30 5380 N 515.857 1.33968 -0.830081 0
M  V30 5381 C 517.105 1.97672 -0.420734 0
M  V30 5382 C 517.426 1.66111 1.02138 0
M  V30 5383 O 516.696 0.955503 1.71017 0
M  V30 5384 H 515.276 0.73125 -0.152587 0
M  V30 5385 H 517.938 1.63483 -1.0611 0
M  V30 5386 H 517.034 3.07294 -0.545588 0
M  V30 5387 N 517.335 0.585699 1.46312 0
M  V30 5388 C 518.582 0.0724211 2.0237 0
M  V30 5389 C 518.91 -1.28868 1.45683 0
M  V30 5390 O 518.165 -1.85853 0.612945 0
M  V30 5391 C 518.464 -0.0401312 3.57377 0
M  V30 5392 C 518.13 1.25376 4.33119 0
M  V30 5393 C 516.792 1.60824 4.5353 0
M  V30 5394 C 519.144 2.10987 4.76586 0
M  V30 5395 C 516.472 2.81676 5.14661 0
M  V30 5396 C 518.824 3.31068 5.39052 0
M  V30 5397 C 517.488 3.66794 5.5769 0
M  V30 5398 H 516.758 0.0265007 0.740526 0
M  V30 5399 H 519.405 0.762935 1.75646 0
M  V30 5400 H 517.71 -0.813791 3.83255 0
M  V30 5401 H 519.407 -0.453078 3.98432 0
M  V30 5402 H 515.997 0.967808 4.1753 0
M  V30 5403 H 520.181 1.84904 4.60569 0
M  V30 5404 H 515.437 3.0949 5.27282 0
M  V30 5405 H 519.611 3.97672 5.71691 0
M  V30 5406 H 517.238 4.60529 6.04828 0
M  V30 5407 N 518.813 -1.54241 0.323641 0
M  V30 5408 C 520.059 -2.00867 -0.279323 0
M  V30 5409 C 520.392 -1.21146 -1.5178 0
M  V30 5410 O 519.667 -0.29378 -1.92269 0
M  V30 5411 C 519.95 -3.54837 -0.613387 0
M  V30 5412 C 519.803 -4.45284 0.635803 0
M  V30 5413 C 521.122 -4.16186 -1.43099 0
M  V30 5414 H 518.241 -0.730177 -0.100049 0
M  V30 5415 H 520.883 -1.84829 0.440235 0
M  V30 5416 H 519.033 -3.68634 -1.22641 0
M  V30 5417 H 520.705 -4.43357 1.27406 0
M  V30 5418 H 518.948 -4.14956 1.26466 0
M  V30 5419 H 519.619 -5.5084 0.357597 0
M  V30 5420 H 522.095 -4.05964 -0.912814 0
M  V30 5421 H 520.971 -5.24031 -1.6335 0
M  V30 5422 H 521.232 -3.69516 -2.42715 0
M  V30 5423 N 520.291 -0.0518155 -1.57515 0
M  V30 5424 C 521.516 0.634896 -1.97443 0
M  V30 5425 C 521.941 1.63546 -0.929207 0
M  V30 5426 O 521.299 1.80981 0.107484 0
M  V30 5427 C 521.347 1.29765 -3.36442 0
M  V30 5428 O 520.451 2.41333 -3.34413 0
M  V30 5429 H 519.792 0.164994 -0.643174 0
M  V30 5430 H 522.322 -0.120407 -2.04245 0
M  V30 5431 H 522.332 1.64918 -3.73184 0
M  V30 5432 H 521.007 0.564361 -4.12053 0
M  V30 5433 H 519.584 2.08122 -3.09418 0
M  V30 5434 N 521.769 1.56035 0.221574 0
M  V30 5435 C 523.015 1.80221 0.942973 0
M  V30 5436 C 523.37 0.624799 1.81973 0
M  V30 5437 O 522.663 -0.381145 1.87771 0
M  V30 5438 C 522.857 3.07813 1.8162 0
M  V30 5439 C 522.686 4.37852 1.02548 0
M  V30 5440 C 521.456 5.00138 0.720418 0
M  V30 5441 C 523.654 5.12813 0.390799 0
M  V30 5442 N 521.636 6.13831 -0.0917139 0
M  V30 5443 C 523.007 6.19346 -0.284728 0
M  V30 5444 C 525.062 4.96972 0.303828 0
M  V30 5445 C 523.765 7.11758 -1.03891 0
M  V30 5446 C 525.791 5.89784 -0.436883 0
M  V30 5447 C 525.153 6.95743 -1.10095 0
M  V30 5448 H 521.252 0.711117 0.325325 0
M  V30 5449 H 523.836 1.93522 0.213854 0
M  V30 5450 H 522.007 2.95795 2.51714 0
M  V30 5451 H 523.739 3.20191 2.47508 0
M  V30 5452 H 520.494 4.62075 1.03843 0
M  V30 5453 H 520.918 6.75249 -0.486615 0
M  V30 5454 H 525.56 4.15107 0.802896 0
M  V30 5455 H 523.278 7.93105 -1.54949 0
M  V30 5456 H 526.864 5.79603 -0.505181 0
M  V30 5457 H 525.744 7.66322 -1.66495 0
M  V30 5458 N 523.247 -0.488276 1.49845 0
M  V30 5459 C 524.663 -0.820566 1.3689 0
M  V30 5460 C 524.863 -1.97248 0.411752 0
M  V30 5461 O 523.919 -2.52042 -0.151931 0
M  V30 5462 C 525.232 -1.1488 2.77891 0
M  V30 5463 C 526.78 -1.25626 2.86683 0
M  V30 5464 C 527.255 -1.61772 4.28479 0
M  V30 5465 N 528.746 -1.68797 4.31349 0
M  V30 5466 C 529.481 -1.98235 5.38043 0
M  V30 5467 N 528.977 -2.2581 6.54967 0
M  V30 5468 N 530.77 -1.99593 5.2547 0
M  V30 5469 H 522.921 0.271123 2.10662 0
M  V30 5470 H 525.184 0.058735 0.946179 0
M  V30 5471 H 524.89 -0.375614 3.49688 0
M  V30 5472 H 524.764 -2.08919 3.14058 0
M  V30 5473 H 527.151 -2.02014 2.15114 0
M  V30 5474 H 527.232 -0.296072 2.54081 0
M  V30 5475 H 526.876 -0.859295 5.00578 0
M  V30 5476 H 526.806 -2.58912 4.58554 0
M  V30 5477 H 529.297 -1.49595 3.4703 0
M  V30 5478 H 529.61 -2.47497 7.32096 0
M  V30 5479 H 527.955 -2.23239 6.58171 0
M  V30 5480 H 531.146 -1.77535 4.33127 0
M  V30 5481 H 531.319 -2.222 6.08713 0
M  V30 5482 N 524.725 -1.39134 -0.740242 0
M  V30 5483 C 526.002 -1.26584 -1.49117 0
M  V30 5484 C 526.382 0.126902 -2.10718 0
M  V30 5485 O 525.73 1.13765 -1.98166 0
M  V30 5486 C 525.94 -2.38619 -2.54681 0
M  V30 5487 C 527.288 -2.77685 -3.21211 0
M  V30 5488 O 528.312 -2.38029 -2.64991 0
M  V30 5489 O 527.171 -3.46115 -4.22926 0
M  V30 5490 H 524.265 -0.495769 -0.661923 0
M  V30 5491 H 526.811 -1.50995 -0.774514 0
M  V30 5492 H 525.583 -3.3175 -2.07504 0
M  V30 5493 H 525.206 -2.15845 -3.33911 0
M  V30 5494 N 526.204 0.969867 -1.24223 0
M  V30 5495 C 527.615 1.52717 -1.07399 0
M  V30 5496 C 527.966 1.92956 0.355298 0
M  V30 5497 O 527.091 1.77112 1.2434 0
M  V30 5498 C 527.686 2.77521 -1.94339 0
M  V30 5499 C 526.245 3.29615 -1.81744 0
M  V30 5500 C 525.392 2.02537 -1.89405 0
M  V30 5501 H 528.343 0.788399 -1.37732 0
M  V30 5502 H 528.364 3.50773 -1.47439 0
M  V30 5503 H 527.876 2.48203 -2.98357 0
M  V30 5504 H 525.977 3.63789 -0.805505 0
M  V30 5505 H 526.09 3.98661 -2.65718 0
M  V30 5506 H 524.454 2.17151 -1.33108 0
M  V30 5507 H 525.237 1.75587 -2.94999 0
M  V30 5508 N 527.682 1.05563 1.17022 0
M  V30 5509 C 528.629 0.659893 2.21165 0
M  V30 5510 C 529.599 -0.339813 1.62587 0
M  V30 5511 O 530.784 -0.230378 1.89404 0
M  V30 5512 C 527.924 0.0447297 3.45071 0
M  V30 5513 C 527.037 1.09372 4.17926 0
M  V30 5514 C 526.172 0.445481 5.29329 0
M  V30 5515 C 525.211 1.47852 5.93975 0
M  V30 5516 N 524.348 0.854172 6.96885 0
M  V30 5517 H 529.188 1.55243 2.54369 0
M  V30 5518 H 526.725 0.776336 1.24946 0
M  V30 5519 H 528.683 -0.329404 4.15898 0
M  V30 5520 H 527.313 -0.811244 3.1244 0
M  V30 5521 H 526.365 1.58564 3.45777 0
M  V30 5522 H 527.677 1.87773 4.62107 0
M  V30 5523 H 526.831 0.0179688 6.06697 0
M  V30 5524 H 525.57 -0.370481 4.86291 0
M  V30 5525 H 524.575 1.91601 5.15334 0
M  V30 5526 H 525.8 2.29645 6.39093 0
M  V30 5527 H 523.746 0.0587882 6.55974 0
M  V30 5528 H 523.663 1.57567 7.39397 0
M  V30 5529 H 524.931 0.451559 7.78191 0
M  V30 5530 N 529.16 -1.33526 0.837174 0
M  V30 5531 C 530.385 -2.0258 0.444545 0
M  V30 5532 C 530.81 -1.6258 -0.946006 0
M  V30 5533 O 530.168 -0.817548 -1.6182 0
M  V30 5534 C 530.216 -3.5605 0.571006 0
M  V30 5535 O 529.32 -4.10422 -0.403431 0
M  V30 5536 H 528.661 -0.638866 0.180958 0
M  V30 5537 H 531.191 -1.70462 1.13154 0
M  V30 5538 H 531.201 -4.05488 0.452024 0
M  V30 5539 H 529.876 -3.84509 1.58512 0
M  V30 5540 H 528.453 -3.72113 -0.242147 0
M  V30 5541 N 530.638 -0.59345 -1.46 0
M  V30 5542 C 531.886 -0.082988 -2.0193 0
M  V30 5543 C 532.207 1.28569 -1.46612 0
M  V30 5544 O 531.477 1.84629 -0.654909 0
M  V30 5545 H 530.057 -0.0276882 -0.746487 0
M  V30 5546 H 532.719 -0.771657 -1.78973 0
M  V30 5547 H 531.815 -0.022079 -3.12092 0
M  V30 5548 N 532.116 1.54067 -0.331816 0
M  V30 5549 C 533.341 2.05599 0.272705 0
M  V30 5550 C 533.766 1.2059 1.44359 0
M  V30 5551 O 533.124 0.216907 1.79998 0
M  V30 5552 C 533.172 3.54188 0.677021 0
M  V30 5553 O 532.276 3.72082 1.77844 0
M  V30 5554 H 531.617 0.662286 0.0476801 0
M  V30 5555 H 534.147 1.98826 -0.482624 0
M  V30 5556 H 534.157 3.96608 0.957415 0
M  V30 5557 H 532.832 4.15513 -0.179325 0
M  V30 5558 H 531.409 3.41566 1.49622 0
M  V30 5559 N 533.594 0.0601682 1.57485 0
M  V30 5560 C 534.84 -0.606552 1.94146 0
M  V30 5561 C 535.195 -1.67918 0.939225 0
M  V30 5562 O 534.488 -1.91558 -0.0402649 0
M  V30 5563 C 534.682 -1.23831 3.35262 0
M  V30 5564 C 534.511 -0.228408 4.4912 0
M  V30 5565 C 533.281 0.182813 5.04969 0
M  V30 5566 C 535.479 0.52975 5.11564 0
M  V30 5567 N 533.461 1.18464 6.02362 0
M  V30 5568 C 534.832 1.38439 6.04346 0
M  V30 5569 C 536.887 0.587084 4.94427 0
M  V30 5570 C 535.59 2.29125 6.81832 0
M  V30 5571 C 537.616 1.4814 5.72546 0
M  V30 5572 C 536.978 2.32375 6.64967 0
M  V30 5573 H 533.077 -0.193328 0.757726 0
M  V30 5574 H 535.661 0.1346 1.94234 0
M  V30 5575 H 533.832 -1.94944 3.35933 0
M  V30 5576 H 535.564 -1.86456 3.59188 0
M  V30 5577 H 532.319 -0.197968 4.73186 0
M  V30 5578 H 532.743 1.68271 6.55754 0
M  V30 5579 H 537.385 -0.049944 4.22771 0
M  V30 5580 H 535.103 2.93868 7.52773 0
M  V30 5581 H 538.689 1.53045 5.6131 0
M  V30 5582 H 537.569 3.00454 7.2436 0
M  V30 5583 N 535.072 -1.5615 -0.213296 0
M  V30 5584 C 536.302 -1.83372 -0.951757 0
M  V30 5585 C 536.71 -0.638158 -1.78113 0
M  V30 5586 O 536.053 0.402609 -1.79234 0
M  V30 5587 C 536.115 -3.04444 -1.91192 0
M  V30 5588 C 535.779 -4.39107 -1.26627 0
M  V30 5589 C 536.776 -5.15794 -0.652087 0
M  V30 5590 C 534.461 -4.85834 -1.27556 0
M  V30 5591 C 536.455 -6.37376 -0.055814 0
M  V30 5592 C 534.142 -6.07356 -0.675451 0
M  V30 5593 C 535.14 -6.82967 -0.0666367 0
M  V30 5594 O 534.828 -8.0219 0.524119 0
M  V30 5595 H 534.56 -0.613398 -0.284111 0
M  V30 5596 H 537.114 -2.04096 -0.231112 0
M  V30 5597 H 535.344 -2.79559 -2.67178 0
M  V30 5598 H 537.033 -3.18466 -2.51662 0
M  V30 5599 H 537.799 -4.80796 -0.637172 0
M  V30 5600 H 533.678 -4.26949 -1.73883 0
M  V30 5601 H 537.222 -6.96334 0.420004 0
M  V30 5602 H 533.119 -6.41825 -0.687806 0
M  V30 5603 H 533.887 -8.17426 0.419243 0
M  V30 5604 N 536.55 0.480323 -1.50102 0
M  V30 5605 C 537.796 1.23489 -1.60867 0
M  V30 5606 C 538.129 1.91809 -0.303827 0
M  V30 5607 O 537.404 1.81694 0.694092 0
M  V30 5608 C 537.687 2.28578 -2.78252 0
M  V30 5609 C 537.54 1.64624 -4.18592 0
M  V30 5610 C 538.859 3.2997 -2.91218 0
M  V30 5611 H 535.978 0.447605 -0.585507 0
M  V30 5612 H 538.62 0.530005 -1.82458 0
M  V30 5613 H 536.77 2.88697 -2.59974 0
M  V30 5614 H 538.442 1.08173 -4.48438 0
M  V30 5615 H 536.685 0.949645 -4.23278 0
M  V30 5616 H 537.356 2.40946 -4.96638 0
M  V30 5617 H 539.832 2.79864 -3.07921 0
M  V30 5618 H 538.708 4.00839 -3.74993 0
M  V30 5619 H 538.969 3.93541 -2.0144 0
M  V30 5620 N 538.028 1.39524 0.732853 0
M  V30 5621 C 538.938 1.40695 1.87729 0
M  V30 5622 C 539.954 0.301496 1.71368 0
M  V30 5623 O 541.13 0.543313 1.93933 0
M  V30 5624 C 538.195 1.25098 3.23344 0
M  V30 5625 C 537.256 2.45634 3.52083 0
M  V30 5626 C 536.489 2.30772 4.81228 0
M  V30 5627 O 536.712 1.31233 5.55098 0
M  V30 5628 O 535.646 3.19799 5.09914 0
M  V30 5629 H 539.472 2.37168 1.89697 0
M  V30 5630 H 537.057 1.20663 0.880959 0
M  V30 5631 H 538.939 1.18541 4.04383 0
M  V30 5632 H 537.614 0.317209 3.22142 0
M  V30 5633 H 536.521 2.57767 2.71122 0
M  V30 5634 H 537.854 3.37712 3.58066 0
M  V30 5635 N 539.506 -0.963266 1.24736 0
M  V30 5636 C 540.734 -1.74166 1.11686 0
M  V30 5637 C 541.149 -1.8589 -0.330187 0
M  V30 5638 O 540.506 -1.35042 -1.2276 0
M  V30 5639 C 540.557 -3.15989 1.75595 0
M  V30 5640 O 540.278 -3.04847 3.14642 0
M  V30 5641 C 541.779 -4.10145 1.68213 0
M  V30 5642 H 538.999 -0.546031 0.389989 0
M  V30 5643 H 541.543 -1.20907 1.64929 0
M  V30 5644 H 539.698 -3.66219 1.26343 0
M  V30 5645 H 540.112 -3.9425 3.4593 0
M  V30 5646 H 541.586 -5.07299 2.17604 0
M  V30 5647 H 542.063 -4.3445 0.644208 0
M  V30 5648 H 542.669 -3.65827 2.16912 0
M  V30 5649 N 540.985 -1.06182 -1.16461 0
M  V30 5650 C 541.915 -0.692861 -2.22984 0
M  V30 5651 C 542.896 0.314122 -1.67174 0
M  V30 5652 O 544.081 0.189499 -1.93273 0
M  V30 5653 C 541.211 -0.07732 -3.47214 0
M  V30 5654 C 540.165 -1.01015 -4.15909 0
M  V30 5655 C 539.491 -0.257973 -5.34077 0
M  V30 5656 C 540.791 -2.33868 -4.67015 0
M  V30 5657 H 542.485 -1.58343 -2.54102 0
M  V30 5658 H 540.031 -0.76279 -1.22137 0
M  V30 5659 H 541.984 0.19266 -4.20959 0
M  V30 5660 H 540.708 0.848254 -3.15392 0
M  V30 5661 H 539.367 -1.26486 -3.44088 0
M  V30 5662 H 539.015 0.670684 -4.98509 0
M  V30 5663 H 538.715 -0.879638 -5.80979 0
M  V30 5664 H 540.239 0.00448788 -6.106 0
M  V30 5665 H 541.653 -2.1279 -5.32347 0
M  V30 5666 H 540.05 -2.91522 -5.24533 0
M  V30 5667 H 541.12 -2.97019 -3.83286 0
M  V30 5668 N 542.463 1.3308 -0.844243 0
M  V30 5669 C 543.74 1.92178 -0.364261 0
M  V30 5670 C 544.12 1.76961 1.15101 0
M  V30 5671 O 543.468 1.16128 1.9679 0
M  V30 5672 C 543.678 3.393 -0.817106 0
M  V30 5673 C 545.026 4.16444 -0.828236 0
M  V30 5674 O 546.05 3.47975 -0.761062 0
M  V30 5675 O 544.909 5.38685 -0.920926 0
M  V30 5676 H 542.003 0.820411 -0.10419 0
M  V30 5677 H 544.549 1.41918 -0.930453 0
M  V30 5678 H 543.321 3.44272 -1.85991 0
M  V30 5679 H 542.944 3.96947 -0.227785 0
M  V30 5680 N 543.941 0.601185 1.45683 0
M  V30 5681 C 545.218 0.0261659 1.95582 0
M  V30 5682 C 545.598 -1.4399 1.5437 0
M  V30 5683 O 544.946 -2.13919 0.80318 0
M  V30 5684 C 545.156 0.217557 3.48321 0
M  V30 5685 C 546.504 0.0950076 4.24494 0
M  V30 5686 O 547.528 0.147345 3.55895 0
M  V30 5687 O 546.387 -0.025261 5.46494 0
M  V30 5688 H 543.481 -0.0393688 0.826062 0
M  V30 5689 H 546.027 0.670798 1.55879 0
M  V30 5690 H 544.799 1.23601 3.71266 0
M  V30 5691 H 544.422 -0.46264 3.94899 0
M  V30 5692 N 545.419 -1.53889 0.339982 0
M  V30 5693 C 546.668 -2.00035 -0.258604 0
M  V30 5694 C 546.981 -1.23179 -1.51942 0
M  V30 5695 O 548.187 -1.59784 -2.19503 0
M  V30 5696 C 546.643 -3.56249 -0.511359 0
M  V30 5697 C 546.251 -4.41957 0.733349 0
M  V30 5698 C 547.995 -4.1082 -1.069 0
M  V30 5699 C 545.902 -5.89673 0.451591 0
M  V30 5700 H 544.832 -0.747284 -0.10041 0
M  V30 5701 H 547.483 -1.77776 0.454758 0
M  V30 5702 H 545.865 -3.7456 -1.28533 0
M  V30 5703 H 547.039 -4.35421 1.50815 0
M  V30 5704 H 545.354 -3.9836 1.21237 0
M  V30 5705 H 547.951 -5.18789 -1.2947 0
M  V30 5706 H 548.294 -3.63817 -2.02343 0
M  V30 5707 H 548.827 -3.96205 -0.355817 0
M  V30 5708 H 545.566 -6.40903 1.37565 0
M  V30 5709 H 545.086 -5.99122 -0.285193 0
M  V30 5710 H 546.765 -6.46965 0.0675067 0
M  V30 5711 N 546.897 -0.0685191 -1.57451 0
M  V30 5712 C 548.144 0.601348 -1.93365 0
M  V30 5713 C 548.472 1.69816 -0.948294 0
M  V30 5714 O 547.727 1.95666 0.0366199 0
M  V30 5715 C 548.026 1.22051 -3.35914 0
M  V30 5716 C 547.692 0.250165 -4.50205 0
M  V30 5717 C 546.354 -0.0167954 -4.81197 0
M  V30 5718 C 548.706 -0.413867 -5.19554 0
M  V30 5719 C 546.034 -0.95493 -5.78876 0
M  V30 5720 C 548.386 -1.3403 -6.18238 0
M  V30 5721 C 547.05 -1.61576 -6.47649 0
M  V30 5722 H 546.32 0.220049 -0.707573 0
M  V30 5723 H 548.967 -0.138697 -1.90997 0
M  V30 5724 H 547.272 2.03622 -3.34732 0
M  V30 5725 H 548.969 1.74605 -3.6099 0
M  V30 5726 H 545.559 0.468421 -4.26033 0
M  V30 5727 H 549.743 -0.220733 -4.95809 0
M  V30 5728 H 544.999 -1.17563 -5.99991 0
M  V30 5729 H 549.173 -1.86081 -6.71079 0
M  V30 5730 H 546.8 -2.34431 -7.2315 0
M  V30 5731 N 548.375 1.56261 0.205012 0
M  V30 5732 C 549.285 1.96944 1.27476 0
M  V30 5733 C 550.301 0.875636 1.50362 0
M  V30 5734 O 551.477 1.18058 1.6317 0
M  V30 5735 C 548.542 2.29219 2.60115 0
M  V30 5736 C 547.603 3.52255 2.45387 0
M  V30 5737 C 546.836 3.8298 3.71701 0
M  V30 5738 O 547.059 3.15138 4.75441 0
M  V30 5739 O 545.993 4.76435 3.67823 0
M  V30 5740 H 549.819 2.88144 0.959527 0
M  V30 5741 H 547.404 1.43686 0.409217 0
M  V30 5742 H 549.286 2.51098 3.3842 0
M  V30 5743 H 547.961 1.4119 2.91285 0
M  V30 5744 H 546.868 3.35635 1.65227 0
M  V30 5745 H 548.201 4.40719 2.19152 0
M  V30 5746 N 549.853 -0.472356 1.50355 0
M  V30 5747 C 550.785 -1.58795 1.65278 0
M  V30 5748 C 551.798 -1.53782 0.534313 0
M  V30 5749 O 552.987 -1.59193 0.807446 0
M  V30 5750 C 550.087 -2.97672 1.62001 0
M  V30 5751 C 549.26 -3.27568 2.89859 0
M  V30 5752 C 548.319 -4.45993 2.79242 0
M  V30 5753 O 547.345 -4.46364 3.53197 0
M  V30 5754 N 548.547 -5.47578 1.92713 0
M  V30 5755 H 551.312 -1.46411 2.61503 0
M  V30 5756 H 548.873 -0.660751 1.47803 0
M  V30 5757 H 550.865 -3.74862 1.52513 0
M  V30 5758 H 549.435 -3.03832 0.735159 0
M  V30 5759 H 548.655 -2.39003 3.13483 0
M  V30 5760 H 549.943 -3.44352 3.74565 0
M  V30 5761 H 549.341 -5.50099 1.31939 0
M  V30 5762 H 547.898 -6.23757 1.8913 0
M  V30 5763 N 551.331 -1.39911 -0.725443 0
M  V30 5764 C 552.577 -1.38862 -1.48624 0
M  V30 5765 C 552.932 0.0125913 -1.92396 0
M  V30 5766 O 552.225 0.981046 -1.64578 0
M  V30 5767 C 552.419 -2.30368 -2.7325 0
M  V30 5768 C 552.248 -3.79247 -2.41665 0
M  V30 5769 C 551.018 -4.48119 -2.3349 0
M  V30 5770 C 553.216 -4.70988 -2.06579 0
M  V30 5771 N 551.198 -5.82282 -1.94476 0
M  V30 5772 C 552.569 -5.93873 -1.78087 0
M  V30 5773 C 554.624 -4.58917 -1.9313 0
M  V30 5774 C 553.327 -7.06036 -1.37499 0
M  V30 5775 C 555.353 -5.71012 -1.53946 0
M  V30 5776 C 554.715 -6.92976 -1.26345 0
M  V30 5777 H 550.814 -0.563394 -0.54232 0
M  V30 5778 H 553.398 -1.75542 -0.842213 0
M  V30 5779 H 551.569 -1.95831 -3.35417 0
M  V30 5780 H 553.301 -2.20245 -3.39521 0
M  V30 5781 H 550.056 -4.01677 -2.50904 0
M  V30 5782 H 550.48 -6.53307 -1.77535 0
M  V30 5783 H 555.122 -3.65149 -2.13134 0
M  V30 5784 H 552.84 -7.99697 -1.16237 0
M  V30 5785 H 556.426 -5.63664 -1.44132 0
M  V30 5786 H 555.306 -7.78243 -0.964787 0
M  V30 5787 N 552.809 0.956637 -1.25245 0
M  V30 5788 C 553.772 2.03457 -1.05537 0
M  V30 5789 C 554.772 1.60798 -0.00886317 0
M  V30 5790 O 555.962 1.72384 -0.250865 0
M  V30 5791 C 553.094 3.35543 -0.601965 0
M  V30 5792 H 554.287 2.22372 -2.01223 0
M  V30 5793 H 551.84 1.13344 -1.07623 0
M  V30 5794 H 552.575 3.22323 0.357584 0
M  V30 5795 H 552.36 3.67854 -1.35743 0
M  V30 5796 H 553.85 4.14769 -0.485454 0
M  V30 5797 N 554.287 1.06798 1.15896 0
M  V30 5798 C 555.237 0.653213 2.18443 0
M  V30 5799 C 556.221 -0.318763 1.57711 0
M  V30 5800 O 557.413 -0.133388 1.76497 0
M  V30 5801 C 554.542 0.0465785 3.43268 0
M  V30 5802 C 553.628 1.04336 4.11066 0
M  V30 5803 N 554.019 2.22084 4.54436 0
M  V30 5804 C 552.317 0.875433 4.37324 0
M  V30 5805 C 553.018 2.85276 5.06944 0
M  V30 5806 N 551.994 2.12973 5.00143 0
M  V30 5807 H 555.796 1.55011 2.49698 0
M  V30 5808 H 553.31 0.940384 1.32403 0
M  V30 5809 H 555.307 -0.26843 4.16035 0
M  V30 5810 H 553.967 -0.845504 3.13499 0
M  V30 5811 H 554.978 2.59833 4.48004 0
M  V30 5812 H 551.655 0.0357721 4.17485 0
M  V30 5813 H 553.045 3.85223 5.50503 0
M  V30 5814 N 555.766 -1.3263 0.851289 0
M  V30 5815 C 556.991 -2.02097 0.466006 0
M  V30 5816 C 557.416 -1.63574 -0.928709 0
M  V30 5817 O 556.774 -0.834665 -1.60944 0
M  V30 5818 C 556.822 -3.55425 0.608737 0
M  V30 5819 O 555.926 -4.10827 -0.359878 0
M  V30 5820 H 555.267 -0.636911 0.187724 0
M  V30 5821 H 557.797 -1.69253 1.14955 0
M  V30 5822 H 557.807 -4.04986 0.495006 0
M  V30 5823 H 556.482 -3.82806 1.62581 0
M  V30 5824 H 555.059 -3.72349 -0.202666 0
M  V30 5825 N 557.244 -0.608902 -1.45362 0
M  V30 5826 C 558.154 0.110969 -2.34337 0
M  V30 5827 C 559.17 0.859007 -1.51318 0
M  V30 5828 O 560.346 0.816296 -1.84116 0
M  V30 5829 C 557.411 1.09494 -3.28956 0
M  V30 5830 C 556.472 0.348718 -4.27881 0
M  V30 5831 C 555.705 1.28582 -5.17979 0
M  V30 5832 O 555.928 2.52369 -5.11533 0
M  V30 5833 O 554.862 0.782172 -5.96796 0
M  V30 5834 H 558.688 -0.620258 -2.97299 0
M  V30 5835 H 556.273 -0.36916 -1.44767 0
M  V30 5836 H 558.155 1.66163 -3.87257 0
M  V30 5837 H 556.83 1.80717 -2.68557 0
M  V30 5838 H 555.737 -0.260465 -3.73192 0
M  V30 5839 H 557.07 -0.323049 -4.91139 0
M  V30 5840 N 558.722 1.53707 -0.348139 0
M  V30 5841 C 559.999 1.93247 0.302475 0
M  V30 5842 C 560.379 1.28012 1.67857 0
M  V30 5843 O 559.727 0.43274 2.24365 0
M  V30 5844 C 559.937 3.47031 0.370159 0
M  V30 5845 C 561.285 4.20066 0.61882 0
M  V30 5846 O 562.309 3.53319 0.452087 0
M  V30 5847 O 561.168 5.38318 0.94215 0
M  V30 5848 H 558.262 0.807736 0.177458 0
M  V30 5849 H 560.808 1.64927 -0.399651 0
M  V30 5850 H 559.58 3.86745 -0.59534 0
M  V30 5851 H 559.203 3.81532 1.11888 0
M  V30 5852 N 560.2 0.0768682 1.57412 0
M  V30 5853 C 561.13 -0.886026 2.16037 0
M  V30 5854 C 562.111 -1.30691 1.08876 0
M  V30 5855 O 563.296 -1.37705 1.36934 0
M  V30 5856 C 560.426 -2.1518 2.72608 0
M  V30 5857 C 559.38 -1.87015 3.8498 0
M  V30 5858 C 558.706 -3.20266 4.28175 0
M  V30 5859 C 560.006 -1.17143 5.08994 0
M  V30 5860 H 561.7 -0.397642 2.96748 0
M  V30 5861 H 559.246 -0.189823 1.42743 0
M  V30 5862 H 561.199 -2.82962 3.12266 0
M  V30 5863 H 559.923 -2.66269 1.89125 0
M  V30 5864 H 558.582 -1.21636 3.45833 0
M  V30 5865 H 558.23 -3.69207 3.41607 0
M  V30 5866 H 557.93 -3.0221 5.03927 0
M  V30 5867 H 559.454 -3.89237 4.70454 0
M  V30 5868 H 560.868 -1.75003 5.45937 0
M  V30 5869 H 559.265 -1.09328 5.90057 0
M  V30 5870 H 560.335 -0.151295 4.84664 0
M  V30 5871 N 561.678 -1.56367 -0.196722 0
M  V30 5872 C 562.61 -1.90941 -1.26784 0
M  V30 5873 C 563.623 -0.799928 -1.41792 0
M  V30 5874 O 564.812 -1.07833 -1.42247 0
M  V30 5875 C 561.912 -2.12477 -2.6402 0
M  V30 5876 C 561.085 -3.43616 -2.70641 0
M  V30 5877 C 560.144 -3.54284 -3.89062 0
M  V30 5878 O 559.17 -4.2712 -3.76241 0
M  V30 5879 N 560.372 -2.87252 -5.04447 0
M  V30 5880 H 563.137 -2.83417 -0.974417 0
M  V30 5881 H 560.698 -1.57215 -0.386649 0
M  V30 5882 H 562.69 -2.16904 -3.41665 0
M  V30 5883 H 561.26 -1.26508 -2.85857 0
M  V30 5884 H 560.48 -3.51072 -1.79283 0
M  V30 5885 H 561.768 -4.29958 -2.72054 0
M  V30 5886 H 561.166 -2.27901 -5.17762 0
M  V30 5887 H 559.723 -2.97308 -5.80044 0
M  V30 5888 N 563.156 0.464375 -1.50603 0
M  V30 5889 C 564.381 1.24372 -1.65971 0
M  V30 5890 C 564.806 1.84901 -0.345453 0
M  V30 5891 O 564.164 1.67596 0.691457 0
M  V30 5892 C 564.212 2.32331 -2.7578 0
M  V30 5893 O 563.316 3.37146 -2.375 0
M  V30 5894 H 562.657 0.365604 -0.554283 0
M  V30 5895 H 565.187 0.55183 -1.97018 0
M  V30 5896 H 565.197 2.77539 -2.99059 0
M  V30 5897 H 563.872 1.87648 -3.71162 0
M  V30 5898 H 562.449 2.97602 -2.24694 0
M  V30 5899 N 564.634 1.40294 0.718013 0
M  V30 5900 C 565.564 1.43118 1.84498 0
M  V30 5901 C 566.545 0.292403 1.67568 0
M  V30 5902 O 567.73 0.500675 1.87635 0
M  V30 5903 C 564.86 1.29065 3.22427 0
M  V30 5904 C 563.814 2.40521 3.54025 0
M  V30 5905 C 563.14 2.11546 4.91073 0
M  V30 5906 C 564.44 3.82859 3.55269 0
M  V30 5907 H 566.134 2.37432 1.82391 0
M  V30 5908 H 563.68 1.14283 0.87609 0
M  V30 5909 H 565.633 1.29658 4.00957 0
M  V30 5910 H 564.357 0.312271 3.25104 0
M  V30 5911 H 563.016 2.39173 2.77834 0
M  V30 5912 H 562.664 1.12104 4.90348 0
M  V30 5913 H 562.364 2.86216 5.1318 0
M  V30 5914 H 563.888 2.13817 5.71939 0
M  V30 5915 H 565.302 3.86044 4.23843 0
M  V30 5916 H 563.699 4.57029 3.88902 0
M  V30 5917 H 564.769 4.12617 2.54706 0
M  V30 5918 N 566.112 -0.949982 1.2575 0
M  V30 5919 C 567.042 -2.06483 1.09028 0
M  V30 5920 C 568.023 -1.701 -0.00201532 0
M  V30 5921 O 569.208 -1.93469 0.168383 0
M  V30 5922 C 566.338 -3.39899 0.71316 0
M  V30 5923 C 565.292 -3.90309 1.75621 0
M  V30 5924 C 564.618 -5.20274 1.23365 0
M  V30 5925 C 565.918 -4.16169 3.15596 0
M  V30 5926 H 567.612 -2.20731 2.02283 0
M  V30 5927 H 565.158 -1.06066 0.973964 0
M  V30 5928 H 567.111 -4.17346 0.58309 0
M  V30 5929 H 565.835 -3.25602 -0.255091 0
M  V30 5930 H 564.494 -3.15035 1.8748 0
M  V30 5931 H 564.142 -5.02351 0.255491 0
M  V30 5932 H 563.842 -5.54971 1.93082 0
M  V30 5933 H 565.366 -6.00314 1.11607 0
M  V30 5934 H 566.78 -4.84259 3.06864 0
M  V30 5935 H 565.177 -4.62131 3.82825 0
M  V30 5936 H 566.247 -3.22273 3.6231 0
M  V30 5937 N 567.59 -1.07411 -1.15328 0
M  V30 5938 C 568.52 -0.716472 -2.22236 0
M  V30 5939 C 569.501 0.296373 -1.67498 0
M  V30 5940 O 570.686 0.168989 -1.93463 0
M  V30 5941 C 567.816 -0.114142 -3.47112 0
M  V30 5942 C 566.77 -1.05421 -4.14814 0
M  V30 5943 C 566.096 -0.314604 -5.33774 0
M  V30 5944 C 567.396 -2.38808 -4.64508 0
M  V30 5945 H 569.09 -1.61029 -2.52408 0
M  V30 5946 H 566.636 -0.775702 -1.21321 0
M  V30 5947 H 568.589 0.148001 -4.2114 0
M  V30 5948 H 567.313 0.814755 -3.16274 0
M  V30 5949 H 565.972 -1.30128 -3.42728 0
M  V30 5950 H 565.62 0.617772 -4.99192 0
M  V30 5951 H 565.32 -0.941209 -5.80013 0
M  V30 5952 H 566.844 -0.0602747 -6.1057 0
M  V30 5953 H 568.258 -2.18424 -5.3006 0
M  V30 5954 H 566.655 -2.97069 -5.21412 0
M  V30 5955 H 567.725 -3.01067 -3.80114 0
M  V30 5956 N 569.068 1.32177 -0.85831 0
M  V30 5957 C 570.484 1.49873 -0.548656 0
M  V30 5958 C 570.684 1.79278 0.919874 0
M  V30 5959 O 569.74 1.86451 1.70271 0
M  V30 5960 C 571.053 2.64043 -1.4388 0
M  V30 5961 C 572.601 2.77928 -1.43961 0
M  V30 5962 C 573.076 3.95182 -2.31506 0
M  V30 5963 N 574.567 4.0245 -2.29321 0
M  V30 5964 C 575.302 4.9242 -2.93786 0
M  V30 5965 N 574.798 5.87373 -3.67376 0
M  V30 5966 N 576.591 4.85572 -2.83155 0
M  V30 5967 H 568.742 1.11357 -1.80868 0
M  V30 5968 H 571.005 0.549175 -0.772729 0
M  V30 5969 H 570.711 2.49055 -2.48324 0
M  V30 5970 H 570.585 3.59912 -1.12885 0
M  V30 5971 H 572.972 2.92338 -0.402813 0
M  V30 5972 H 573.053 1.82762 -1.78974 0
M  V30 5973 H 572.697 3.81531 -3.35256 0
M  V30 5974 H 572.627 4.89633 -1.93823 0
M  V30 5975 H 575.118 3.34507 -1.75822 0
M  V30 5976 H 575.431 6.52728 -4.13722 0
M  V30 5977 H 573.776 5.87388 -3.71484 0
M  V30 5978 H 576.967 4.10363 -2.25211 0
M  V30 5979 H 577.14 5.55486 -3.33676 0
M  V30 5980 N 570.547 0.616602 1.45037 0
M  V30 5981 C 571.793 0.115501 2.02471 0
M  V30 5982 C 572.126 -1.25406 1.4828 0
M  V30 5983 O 571.401 -1.82922 0.661051 0
M  V30 5984 C 571.684 0.0863588 3.59996 0
M  V30 5985 C 571.537 1.48723 4.24501 0
M  V30 5986 C 572.856 -0.596762 4.36035 0
M  V30 5987 H 569.975 0.0434461 0.735718 0
M  V30 5988 H 572.617 0.7903 1.72784 0
M  V30 5989 H 570.767 -0.488277 3.85419 0
M  V30 5990 H 572.439 2.10964 4.10234 0
M  V30 5991 H 570.682 2.04534 3.82555 0
M  V30 5992 H 571.353 1.419 5.3345 0
M  V30 5993 H 573.829 -0.10824 4.15959 0
M  V30 5994 H 572.705 -0.586289 5.4576 0
M  V30 5995 H 572.966 -1.66451 4.09569 0
M  V30 5996 N 572.025 -1.5352 0.356285 0
M  V30 5997 C 572.988 -2.24071 -0.482182 0
M  V30 5998 C 573.988 -1.24531 -1.01729 0
M  V30 5999 O 575.178 -1.48876 -0.904513 0
M  V30 6000 C 572.31 -2.97025 -1.67299 0
M  V30 6001 H 573.503 -2.99596 0.135031 0
M  V30 6002 H 571.056 -1.55928 0.107825 0
M  V30 6003 H 571.791 -2.25719 -2.32855 0
M  V30 6004 H 571.576 -3.7005 -1.29636 0
M  V30 6005 H 573.066 -3.50683 -2.26741 0
M  V30 6006 N 573.503 -0.0852151 -1.57369 0
M  V30 6007 C 574.451 0.894856 -2.14698 0
M  V30 6008 C 575.445 1.29903 -1.08727 0
M  V30 6009 O 576.651 1.27471 -1.27088 0
M  V30 6010 H 573.026 0.306569 -0.686673 0
M  V30 6011 H 574.997 0.386542 -2.95886 0
M  V30 6012 C 573.746 2.14798 -2.73417 0
M  V30 6013 H 573.069 1.84585 -3.54638 0
M  V30 6014 H 574.509 2.81456 -3.1711 0
M  V30 6015 C 572.968 2.91546 -1.68828 0
M  V30 6016 O 573.498 3.85733 -1.12129 0
M  V30 6017 N 571.704 2.54901 -1.39549 0
M  V30 6018 H 571.251 1.7838 -1.85845 0
M  V30 6019 H 571.209 3.06553 -0.698054 0
M  V30 6020 N 574.981 1.5647 0.188427 0
M  V30 6021 C 575.944 1.9421 1.21718 0
M  V30 6022 C 576.944 0.823901 1.38089 0
M  V30 6023 O 578.134 1.09122 1.35787 0
M  V30 6024 C 575.266 2.22197 2.58537 0
M  V30 6025 H 576.459 2.86252 0.894418 0
M  V30 6026 H 574.012 1.50263 0.430211 0
M  V30 6027 H 574.747 1.32814 2.95856 0
M  V30 6028 H 574.532 3.03688 2.48025 0
M  V30 6029 H 576.022 2.52376 3.3271 0
M  V30 6030 N 576.459 -0.456382 1.50847 0
M  V30 6031 C 577.705 -1.20914 1.62811 0
M  V30 6032 C 578.038 -1.91301 0.334304 0
M  V30 6033 O 577.313 -1.82775 -0.665098 0
M  V30 6034 C 577.596 -2.24122 2.81853 0
M  V30 6035 C 577.449 -1.57944 4.21158 0
M  V30 6036 C 578.768 -3.25295 2.96431 0
M  V30 6037 H 575.887 -0.438233 0.592554 0
M  V30 6038 H 578.529 -0.50091 1.83278 0
M  V30 6039 H 576.679 -2.84524 2.64534 0
M  V30 6040 H 578.351 -1.01025 4.50102 0
M  V30 6041 H 576.594 -0.882185 4.24735 0
M  V30 6042 H 577.265 -2.33014 5.00408 0
M  V30 6043 H 579.741 -2.7493 3.12335 0
M  V30 6044 H 578.617 -3.94822 3.81322 0
M  V30 6045 H 578.878 -3.90286 2.07676 0
M  V30 6046 N 577.937 -1.40673 -0.710563 0
M  V30 6047 C 579.162 -1.42741 -1.50465 0
M  V30 6048 C 579.587 -0.0302116 -1.88076 0
M  V30 6049 O 578.945 0.962945 -1.53613 0
M  V30 6050 C 578.993 -2.32873 -2.75322 0
M  V30 6051 O 578.097 -1.77544 -3.72226 0
M  V30 6052 H 577.438 -0.485056 -0.45345 0
M  V30 6053 H 579.968 -1.84961 -0.874681 0
M  V30 6054 H 579.978 -2.48233 -3.23797 0
M  V30 6055 H 578.653 -3.34401 -2.47283 0
M  V30 6056 H 577.23 -1.71556 -3.31093 0
M  V30 6057 N 579.415 0.9433 -1.26252 0
M  V30 6058 C 580.661 1.69175 -1.11837 0
M  V30 6059 C 580.994 1.91238 0.337891 0
M  V30 6060 O 580.269 1.49152 1.24836 0
M  V30 6061 C 580.552 3.06783 -1.88563 0
M  V30 6062 C 580.405 2.9206 -3.42083 0
M  V30 6063 C 581.724 4.06865 -1.67776 0
M  V30 6064 H 578.843 0.61399 -0.407658 0
M  V30 6065 H 581.485 1.09572 -1.55222 0
M  V30 6066 H 579.635 3.57663 -1.51689 0
M  V30 6067 H 581.307 2.48419 -3.88698 0
M  V30 6068 H 579.55 2.27731 -3.69217 0
M  V30 6069 H 580.221 3.89651 -3.90994 0
M  V30 6070 H 582.697 3.64939 -1.99897 0
M  V30 6071 H 581.573 5.01168 -2.23879 0
M  V30 6072 H 581.834 4.37705 -0.621816 0
M  V30 6073 N 580.893 1.08022 1.14757 0
M  V30 6074 C 581.84 0.706657 2.19716 0
M  V30 6075 C 582.81 -0.30525 1.63271 0
M  V30 6076 O 583.995 -0.19015 1.8985 0
M  V30 6077 C 581.135 0.117914 3.44898 0
M  V30 6078 C 580.248 1.18212 4.15512 0
M  V30 6079 C 579.383 0.557659 5.28265 0
M  V30 6080 C 578.422 1.60418 5.90705 0
M  V30 6081 N 577.559 1.0018 6.94916 0
M  V30 6082 H 582.399 1.60603 2.51019 0
M  V30 6083 H 579.936 0.802664 1.23271 0
M  V30 6084 H 581.894 -0.241112 4.16503 0
M  V30 6085 H 580.524 -0.744788 3.1409 0
M  V30 6086 H 579.576 1.65863 3.42335 0
M  V30 6087 H 580.888 1.97533 4.5802 0
M  V30 6088 H 580.042 0.146654 6.06523 0
M  V30 6089 H 578.781 -0.267249 4.86967 0
M  V30 6090 H 577.786 2.02489 5.11154 0
M  V30 6091 H 579.011 2.43149 6.34078 0
M  V30 6092 H 576.957 0.197917 6.55701 0
M  V30 6093 H 576.874 1.73216 7.35889 0
M  V30 6094 H 578.142 0.616523 7.77058 0
M  V30 6095 N 582.371 -1.3172 0.865308 0
M  V30 6096 C 583.619 -1.96487 0.472995 0
M  V30 6097 C 583.94 -1.68761 -0.976975 0
M  V30 6098 O 583.21 -1.00051 -1.68424 0
M  V30 6099 H 581.79 -0.726947 0.171922 0
M  V30 6100 H 584.452 -1.60612 1.10407 0
M  V30 6101 H 583.548 -3.0574 0.62687 0
M  V30 6102 N 583.85 -0.624285 -1.44708 0
M  V30 6103 C 585.099 -0.123539 -2.01321 0
M  V30 6104 C 585.412 1.25966 -1.49639 0
M  V30 6105 O 586.618 1.85405 -1.98336 0
M  V30 6106 C 585.074 -0.170124 -3.59498 0
M  V30 6107 C 584.682 -1.55421 -4.20176 0
M  V30 6108 C 586.426 0.274513 -4.23611 0
M  V30 6109 C 584.332 -1.55628 -5.70556 0
M  V30 6110 H 583.263 -0.0424183 -0.752806 0
M  V30 6111 H 585.913 -0.782076 -1.65999 0
M  V30 6112 H 584.296 0.555385 -3.92086 0
M  V30 6113 H 585.47 -2.30276 -3.99136 0
M  V30 6114 H 583.784 -1.94235 -3.68323 0
M  V30 6115 H 586.382 0.292402 -5.339 0
M  V30 6116 H 586.725 1.3005 -3.95465 0
M  V30 6117 H 587.258 -0.398275 -3.95801 0
M  V30 6118 H 583.997 -2.56041 -6.03426 0
M  V30 6119 H 583.517 -0.850563 -5.93739 0
M  V30 6120 H 585.196 -1.28721 -6.34066 0
M  V30 6121 N 585.328 1.53329 -0.364422 0
M  V30 6122 C 586.558 2.05359 0.226096 0
M  V30 6123 C 586.966 1.23777 1.43094 0
M  V30 6124 O 586.309 0.271139 1.81688 0
M  V30 6125 C 586.371 3.52918 0.684794 0
M  V30 6126 C 586.035 4.55218 -0.403206 0
M  V30 6127 C 587.032 5.04583 -1.2527 0
M  V30 6128 C 584.717 4.99134 -0.563117 0
M  V30 6129 C 586.711 5.96463 -2.24745 0
M  V30 6130 C 584.398 5.9082 -1.56124 0
M  V30 6131 C 585.396 6.39375 -2.40184 0
M  V30 6132 O 585.084 7.29255 -3.38293 0
M  V30 6133 H 584.816 0.674588 0.0436772 0
M  V30 6134 H 587.37 1.98688 -0.520782 0
M  V30 6135 H 585.6 3.57122 1.48326 0
M  V30 6136 H 587.289 3.87812 1.19818 0
M  V30 6137 H 588.055 4.71403 -1.14034 0
M  V30 6138 H 583.934 4.60928 0.0813909 0
M  V30 6139 H 587.478 6.34285 -2.90393 0
M  V30 6140 H 583.375 6.23414 -1.67407 0
M  V30 6141 H 584.143 7.47249 -3.34009 0
M  V30 6142 N 586.806 0.0935595 1.57322 0
M  V30 6143 C 587.753 -0.865935 2.1394 0
M  V30 6144 C 588.723 -1.28083 1.05754 0
M  V30 6145 O 589.908 -1.36285 1.33533 0
M  V30 6146 C 587.048 -2.12023 2.72287 0
M  V30 6147 C 586.161 -1.756 3.94701 0
M  V30 6148 C 585.296 -2.95804 4.41218 0
M  V30 6149 C 584.335 -2.555 5.56225 0
M  V30 6150 N 583.472 -3.68534 5.97601 0
M  V30 6151 H 588.312 -0.376261 2.95615 0
M  V30 6152 H 585.849 -0.174052 1.46067 0
M  V30 6153 H 587.807 -2.85477 3.04235 0
M  V30 6154 H 586.437 -2.58492 1.93343 0
M  V30 6155 H 585.489 -0.921208 3.69077 0
M  V30 6156 H 586.801 -1.41964 4.78171 0
M  V30 6157 H 585.955 -3.77513 4.74941 0
M  V30 6158 H 584.694 -3.32649 3.56645 0
M  V30 6159 H 583.699 -1.72218 5.22131 0
M  V30 6160 H 584.924 -2.19801 6.42545 0
M  V30 6161 H 582.87 -4.051 5.15974 0
M  V30 6162 H 582.787 -3.38737 6.75865 0
M  V30 6163 H 584.055 -4.50757 6.35955 0
M  V30 6164 N 588.284 -1.56567 -0.180126 0
M  V30 6165 C 589.216 -1.92275 -1.24751 0
M  V30 6166 C 590.229 -0.814922 -1.40936 0
M  V30 6167 O 591.418 -1.09336 -1.41095 0
M  V30 6168 C 588.518 -2.15265 -2.61752 0
M  V30 6169 C 587.691 -3.46467 -2.66981 0
M  V30 6170 C 586.75 -3.58391 -3.85283 0
M  V30 6171 O 585.776 -4.31086 -3.7169 0
M  V30 6172 N 586.978 -2.92587 -5.01371 0
M  V30 6173 H 589.743 -2.84435 -0.944302 0
M  V30 6174 H 587.304 -1.57617 -0.369952 0
M  V30 6175 H 589.296 -2.20515 -3.39345 0
M  V30 6176 H 587.866 -1.29533 -2.845 0
M  V30 6177 H 587.086 -3.52953 -1.75549 0
M  V30 6178 H 588.374 -4.32819 -2.67479 0
M  V30 6179 H 587.772 -2.3338 -5.15316 0
M  V30 6180 H 586.329 -3.03444 -5.76858 0
M  V30 6181 N 589.762 0.448376 -1.51087 0
M  V30 6182 C 590.695 1.56298 -1.66272 0
M  V30 6183 C 591.673 1.54381 -0.510419 0
M  V30 6184 O 592.857 1.73671 -0.732854 0
M  V30 6185 C 589.984 2.94883 -1.66618 0
M  V30 6186 C 589.03 3.14868 -2.87681 0
M  V30 6187 S 589.863 2.9234 -4.48662 0
M  V30 6188 C 591.019 4.33227 -4.51735 0
M  V30 6189 H 591.252 1.43182 -2.6055 0
M  V30 6190 H 588.785 0.637309 -1.40633 0
M  V30 6191 H 590.743 3.74771 -1.67502 0
M  V30 6192 H 589.404 3.05371 -0.735358 0
M  V30 6193 H 588.597 4.16166 -2.84292 0
M  V30 6194 H 588.199 2.42788 -2.84482 0
M  V30 6195 H 590.491 5.26247 -4.26697 0
M  V30 6196 H 591.434 4.41653 -5.53487 0
M  V30 6197 H 591.842 4.16367 -3.81181 0
M  V30 6198 N 591.24 1.41047 0.703093 0
M  V30 6199 C 592.651 1.35657 1.28274 0
M  V30 6200 C 593.002 0.0360309 1.96167 0
M  V30 6201 O 592.127 -0.865833 1.98324 0
M  V30 6202 C 592.722 2.45707 2.33267 0
M  V30 6203 C 591.281 2.43738 2.86825 0
M  V30 6204 C 590.428 2.25941 1.60767 0
M  V30 6205 H 593.379 1.50672 0.49836 0
M  V30 6206 H 593.4 2.14333 3.14391 0
M  V30 6207 H 592.912 3.41805 1.83824 0
M  V30 6208 H 591.013 1.51375 3.40465 0
M  V30 6209 H 591.126 3.39779 3.37768 0
M  V30 6210 H 589.49 1.73681 1.86298 0
M  V30 6211 H 590.273 3.24054 1.1333 0
M  V30 6212 N 592.718 -0.936591 1.26751 0
M  V30 6213 C 593.966 -1.67998 1.12343 0
M  V30 6214 C 594.287 -1.92137 -0.332938 0
M  V30 6215 O 593.557 -1.52132 -1.23421 0
M  V30 6216 H 592.137 -0.622609 0.412756 0
M  V30 6217 H 594.799 -1.12509 1.59147 0
M  V30 6218 H 593.895 -2.65185 1.64571 0
M  V30 6219 N 594.196 -1.08629 -1.14182 0
M  V30 6220 C 595.436 -0.826884 -1.86928 0
M  V30 6221 C 595.8 0.635808 -1.81167 0
M  V30 6222 O 597.001 1.0108 -2.49071 0
M  V30 6223 C 595.272 -1.33721 -3.31442 0
M  V30 6224 S 596.831 -1.21045 -4.21774 0
M  V30 6225 H 593.649 -0.299286 -0.644941 0
M  V30 6226 H 596.251 -1.38802 -1.37674 0
M  V30 6227 H 594.955 -2.39617 -3.33184 0
M  V30 6228 H 594.486 -0.771839 -3.85754 0
M  V30 6229 H 596.501 -0.156168 -4.95954 0
M  V30 6230 N 595.674 1.31259 -0.872281 0
M  V30 6231 C 596.921 1.96622 -0.484365 0
M  V30 6232 C 597.249 1.68939 0.963841 0
M  V30 6233 O 596.504 0.97974 1.6941 0
M  V30 6234 C 596.803 3.50659 -0.690889 0
M  V30 6235 C 596.469 3.98366 -2.11224 0
M  V30 6236 C 595.131 4.11104 -2.50094 0
M  V30 6237 C 597.483 4.23425 -3.0391 0
M  V30 6238 C 594.811 4.46254 -3.80887 0
M  V30 6239 C 597.163 4.60039 -4.3422 0
M  V30 6240 C 595.827 4.70984 -4.73001 0
M  V30 6241 H 595.097 0.71949 -0.177242 0
M  V30 6242 H 597.744 1.56353 -1.10571 0
M  V30 6243 H 596.049 3.91798 0.0135782 0
M  V30 6244 H 597.746 3.99284 -0.370534 0
M  V30 6245 H 594.336 3.88949 -1.80047 0
M  V30 6246 H 598.52 4.13075 -2.75104 0
M  V30 6247 H 593.776 4.52926 -4.10692 0
M  V30 6248 H 597.95 4.78381 -5.06088 0
M  V30 6249 H 595.577 4.97977 -5.7439 0
M  V30 6250 N 597.152 0.631951 1.44375 0
M  V30 6251 C 598.1 -0.0846693 2.32446 0
M  V30 6252 C 599.094 -0.834957 1.47393 0
M  V30 6253 O 600.3 -0.747764 1.63733 0
M  V30 6254 H 596.675 -0.0461508 0.750583 0
M  V30 6255 H 598.646 0.67619 2.90638 0
M  V30 6256 C 597.395 -1.05211 3.314 0
M  V30 6257 H 596.718 -0.484203 3.96857 0
M  V30 6258 H 598.158 -1.523 3.95703 0
M  V30 6259 C 596.617 -2.13776 2.60387 0
M  V30 6260 O 597.147 -3.21869 2.4034 0
M  V30 6261 N 595.353 -1.89733 2.20113 0
M  V30 6262 H 594.9 -1.01833 2.36618 0
M  V30 6263 H 594.858 -2.62572 1.72926 0
M  V30 6264 N 598.631 -1.53133 0.372548 0
M  V30 6265 C 599.878 -2.01356 -0.214959 0
M  V30 6266 C 600.206 -1.2596 -1.48204 0
M  V30 6267 O 599.461 -0.343511 -1.92662 0
M  V30 6268 C 599.76 -3.53206 -0.545938 0
M  V30 6269 C 599.426 -4.46511 0.627624 0
M  V30 6270 C 598.088 -4.71737 0.949615 0
M  V30 6271 C 600.44 -5.01666 1.41353 0
M  V30 6272 C 597.768 -5.4937 2.05936 0
M  V30 6273 C 600.12 -5.80511 2.51375 0
M  V30 6274 C 598.784 -6.04022 2.84101 0
M  V30 6275 H 598.054 -0.736813 -0.078659 0
M  V30 6276 H 600.701 -1.84682 0.506447 0
M  V30 6277 H 599.006 -3.67864 -1.34845 0
M  V30 6278 H 600.703 -3.87997 -1.01287 0
M  V30 6279 H 597.293 -4.27029 0.366635 0
M  V30 6280 H 601.477 -4.82117 1.17802 0
M  V30 6281 H 596.733 -5.65803 2.31682 0
M  V30 6282 H 600.907 -6.22255 3.12684 0
M  V30 6283 H 598.534 -6.63962 3.70214 0
M  V30 6284 N 600.109 -0.101901 -1.5727 0
M  V30 6285 C 601.039 0.851544 -2.17419 0
M  V30 6286 C 602.02 1.28942 -1.10941 0
M  V30 6287 O 603.205 1.35509 -1.39107 0
M  V30 6288 C 600.335 2.10816 -2.75996 0
M  V30 6289 C 599.289 1.80867 -3.87906 0
M  V30 6290 C 598.615 3.13413 -4.33216 0
M  V30 6291 C 599.915 1.0903 -5.10793 0
M  V30 6292 H 601.609 0.350381 -2.97343 0
M  V30 6293 H 599.155 0.16709 -1.43027 0
M  V30 6294 H 601.108 2.77959 -3.16729 0
M  V30 6295 H 599.832 2.63227 -1.93337 0
M  V30 6296 H 598.491 1.16119 -3.47724 0
M  V30 6297 H 598.139 3.63725 -3.47438 0
M  V30 6298 H 597.839 2.94155 -5.08671 0
M  V30 6299 H 599.363 3.81704 -4.76586 0
M  V30 6300 H 600.777 1.66295 -5.48652 0
M  V30 6301 H 599.174 0.99927 -5.91722 0
M  V30 6302 H 600.244 0.0741704 -4.84843 0
M  V30 6303 N 601.587 1.56661 0.17182 0
M  V30 6304 C 603.003 1.50768 0.52357 0
M  V30 6305 C 603.203 0.806072 1.84675 0
M  V30 6306 O 602.259 0.366233 2.4983 0
M  V30 6307 C 603.572 2.955 0.556793 0
M  V30 6308 C 605.12 3.06303 0.644029 0
M  V30 6309 C 605.595 4.52492 0.708148 0
M  V30 6310 N 607.086 4.56737 0.771051 0
M  V30 6311 C 607.821 5.67196 0.841229 0
M  V30 6312 N 607.317 6.87287 0.872272 0
M  V30 6313 N 609.11 5.55165 0.88021 0
M  V30 6314 H 601.261 2.00679 -0.695817 0
M  V30 6315 H 603.524 0.914219 -0.250814 0
M  V30 6316 H 603.23 3.49986 -0.346774 0
M  V30 6317 H 603.104 3.50119 1.40346 0
M  V30 6318 H 605.491 2.51851 1.53802 0
M  V30 6319 H 605.572 2.5477 -0.229297 0
M  V30 6320 H 605.216 5.07575 -0.181585 0
M  V30 6321 H 605.146 5.01781 1.59761 0
M  V30 6322 H 607.637 3.70274 0.755364 0
M  V30 6323 H 607.95 7.6722 0.92698 0
M  V30 6324 H 606.295 6.89898 0.840557 0
M  V30 6325 H 609.486 4.60263 0.852956 0
M  V30 6326 H 609.659 6.41271 0.931439 0
M  V30 6327 N 603.065 -0.440357 1.51323 0
M  V30 6328 C 604.012 -1.53429 1.72419 0
M  V30 6329 C 604.982 -1.56165 0.565826 0
M  V30 6330 O 606.167 -1.73222 0.799917 0
M  V30 6331 C 603.307 -2.91169 1.85242 0
M  V30 6332 C 602.42 -2.97985 3.12777 0
M  V30 6333 C 601.555 -4.26829 3.16212 0
M  V30 6334 C 600.594 -4.27501 4.38074 0
M  V30 6335 N 599.731 -5.47866 4.39076 0
M  V30 6336 H 604.571 -1.34743 2.65797 0
M  V30 6337 H 602.108 -0.654608 1.31732 0
M  V30 6338 H 604.066 -3.71087 1.90658 0
M  V30 6339 H 602.696 -3.0842 0.952744 0
M  V30 6340 H 601.748 -2.10749 3.16685 0
M  V30 6341 H 603.06 -2.94342 4.02696 0
M  V30 6342 H 602.214 -5.15118 3.20527 0
M  V30 6343 H 600.953 -4.33124 2.24176 0
M  V30 6344 H 599.958 -3.37606 4.33938 0
M  V30 6345 H 601.183 -4.22873 5.31371 0
M  V30 6346 H 599.129 -5.54887 3.49909 0
M  V30 6347 H 599.046 -5.46091 5.22801 0
M  V30 6348 H 600.314 -6.38195 4.4758 0
M  V30 6349 N 604.543 -1.41418 -0.695603 0
M  V30 6350 C 605.49 -1.43264 -1.80954 0
M  V30 6351 C 606.46 -0.287016 -1.63601 0
M  V30 6352 O 607.645 -0.488054 -1.84452 0
M  V30 6353 C 604.785 -1.32054 -3.18835 0
M  V30 6354 C 603.898 -2.56485 -3.4762 0
M  V30 6355 C 603.033 -2.3757 -4.75115 0
M  V30 6356 C 602.072 -3.57477 -4.96867 0
M  V30 6357 N 601.209 -3.37632 -6.15588 0
M  V30 6358 H 606.049 -2.38467 -1.78711 0
M  V30 6359 H 603.586 -1.18415 -0.872715 0
M  V30 6360 H 605.544 -1.23558 -3.98484 0
M  V30 6361 H 604.174 -0.404592 -3.20254 0
M  V30 6362 H 603.226 -2.75432 -2.62376 0
M  V30 6363 H 604.538 -3.45678 -3.59594 0
M  V30 6364 H 603.692 -2.2654 -5.62818 0
M  V30 6365 H 602.431 -1.45834 -4.65386 0
M  V30 6366 H 601.436 -3.68961 -4.07612 0
M  V30 6367 H 602.661 -4.50167 -5.08455 0
M  V30 6368 H 600.607 -2.48596 -6.07072 0
M  V30 6369 H 600.524 -4.20401 -6.2833 0
M  V30 6370 H 601.792 -3.30375 -7.06026 0
M  V30 6371 N 606.021 0.929856 -1.27246 0
M  V30 6372 C 606.951 2.04722 -1.12299 0
M  V30 6373 C 607.932 1.70082 -0.0250464 0
M  V30 6374 O 609.117 1.93176 -0.199141 0
M  V30 6375 C 606.247 3.38721 -0.767145 0
M  V30 6376 C 605.201 3.87466 -1.81808 0
M  V30 6377 C 604.527 5.18246 -1.31626 0
M  V30 6378 C 605.827 4.11095 -3.22177 0
M  V30 6379 H 607.521 2.17485 -2.05769 0
M  V30 6380 H 605.067 1.04503 -0.990715 0
M  V30 6381 H 607.02 4.16366 -0.649413 0
M  V30 6382 H 605.744 3.25967 0.203259 0
M  V30 6383 H 604.403 3.12012 -1.92468 0
M  V30 6384 H 604.051 5.01881 -0.335378 0
M  V30 6385 H 603.751 5.51829 -2.01887 0
M  V30 6386 H 605.275 5.98462 -1.21143 0
M  V30 6387 H 606.689 4.79316 -3.1453 0
M  V30 6388 H 605.086 4.55982 -3.90129 0
M  V30 6389 H 606.156 3.16468 -3.67391 0
M  V30 6390 N 607.499 1.09233 1.13605 0
M  V30 6391 C 608.746 0.827159 1.84836 0
M  V30 6392 C 609.074 -0.647199 1.83416 0
M  V30 6393 O 608.329 -1.49228 1.26608 0
M  V30 6394 C 608.628 1.305 3.32723 0
M  V30 6395 C 608.294 2.78864 3.54325 0
M  V30 6396 C 606.956 3.19382 3.59928 0
M  V30 6397 C 609.308 3.74532 3.62457 0
M  V30 6398 C 606.636 4.54346 3.71196 0
M  V30 6399 C 608.988 5.09283 3.75252 0
M  V30 6400 C 607.652 5.49394 3.79108 0
M  V30 6401 H 606.922 0.302679 0.676363 0
M  V30 6402 H 609.569 1.36676 1.34134 0
M  V30 6403 H 607.874 0.68517 3.85762 0
M  V30 6404 H 609.571 1.07648 3.86281 0
M  V30 6405 H 606.161 2.46507 3.50617 0
M  V30 6406 H 610.345 3.44343 3.57409 0
M  V30 6407 H 605.601 4.84864 3.72447 0
M  V30 6408 H 609.775 5.83269 3.80487 0
M  V30 6409 H 607.402 6.5397 3.87591 0
M  V30 6410 N 608.977 -1.30795 0.87923 0
M  V30 6411 C 610.224 -1.96362 0.494786 0
M  V30 6412 C 610.552 -1.69448 -0.954868 0
M  V30 6413 O 609.807 -0.988711 -1.68888 0
M  V30 6414 C 610.106 -3.50287 0.709476 0
M  V30 6415 C 609.772 -3.9724 2.13333 0
M  V30 6416 C 608.434 -4.09772 2.52271 0
M  V30 6417 C 610.786 -4.21807 3.06151 0
M  V30 6418 C 608.114 -4.44227 3.83248 0
M  V30 6419 C 610.466 -4.5773 4.36654 0
M  V30 6420 C 609.13 -4.68469 4.75492 0
M  V30 6421 H 608.4 -0.71854 0.181055 0
M  V30 6422 H 611.047 -1.55764 1.11399 0
M  V30 6423 H 609.352 -3.91799 0.0072 0
M  V30 6424 H 611.049 -3.99082 0.391703 0
M  V30 6425 H 607.639 -3.87988 1.82107 0
M  V30 6426 H 611.823 -4.11611 2.77291 0
M  V30 6427 H 607.079 -4.50741 4.13089 0
M  V30 6428 H 611.253 -4.7569 5.08617 0
M  V30 6429 H 608.88 -4.94923 5.77022 0
M  V30 6430 N 610.455 -0.639598 -1.44038 0
M  V30 6431 C 611.402 0.0602458 -2.30721 0
M  V30 6432 C 612.372 0.828352 -1.43971 0
M  V30 6433 O 613.557 0.807693 -1.72861 0
M  V30 6434 C 610.697 1.03008 -3.29368 0
M  V30 6435 C 609.81 0.259502 -4.3122 0
M  V30 6436 C 608.945 1.22191 -5.16955 0
M  V30 6437 C 607.984 0.440978 -6.10509 0
M  V30 6438 N 607.121 1.35428 -6.88915 0
M  V30 6439 H 611.961 -0.684867 -2.90023 0
M  V30 6440 H 609.498 -0.349509 -1.42888 0
M  V30 6441 H 611.456 1.60583 -3.85057 0
M  V30 6442 H 610.086 1.74222 -2.71747 0
M  V30 6443 H 609.138 -0.432317 -3.77935 0
M  V30 6444 H 610.45 -0.348347 -4.97582 0
M  V30 6445 H 609.604 1.86873 -5.77203 0
M  V30 6446 H 608.343 1.86367 -4.50687 0
M  V30 6447 H 607.348 -0.219279 -5.49363 0
M  V30 6448 H 608.573 -0.196192 -6.78817 0
M  V30 6449 H 606.519 1.9831 -6.25307 0
M  V30 6450 H 606.436 0.800657 -7.51748 0
M  V30 6451 H 607.704 1.98967 -7.53679 0
M  V30 6452 N 611.933 1.52934 -0.380664 0
M  V30 6453 C 613.161 2.05886 0.204599 0
M  V30 6454 C 613.576 1.25305 1.41223 0
M  V30 6455 O 612.933 0.297504 1.80059 0
M  V30 6456 C 612.984 3.56764 0.583249 0
M  V30 6457 O 612.705 4.34292 -0.576398 0
M  V30 6458 C 614.206 4.2603 1.2253 0
M  V30 6459 H 611.426 0.670193 0.0328991 0
M  V30 6460 H 613.97 1.97148 -0.543397 0
M  V30 6461 H 612.125 3.65603 1.28115 0
M  V30 6462 H 612.539 5.23819 -0.267119 0
M  V30 6463 H 614.013 5.32868 1.44068 0
M  V30 6464 H 614.49 3.80698 2.19011 0
M  V30 6465 H 615.096 4.21485 0.568407 0
M  V30 6466 N 613.412 0.11024 1.57214 0
M  V30 6467 C 614.637 -0.561179 1.99664 0
M  V30 6468 C 615.062 -1.59985 0.989266 0
M  V30 6469 O 614.42 -1.81255 -0.0402399 0
M  V30 6470 C 614.468 -1.17189 3.41027 0
M  V30 6471 O 613.572 -2.28755 3.4314 0
M  V30 6472 H 612.913 -0.14101 0.648855 0
M  V30 6473 H 615.443 0.196128 2.03658 0
M  V30 6474 H 615.453 -1.50954 3.79047 0
M  V30 6475 H 614.128 -0.411041 4.13864 0
M  V30 6476 H 612.705 -1.96495 3.16929 0
M  V30 6477 O 614.929 -1.61473 -0.0293866 0
M  V30 6478 H 615.62 -1.82469 -0.649975 0
M  V30 END ATOM
M  V30 BEGIN BOND
M  V30 END BOND
M  V30 END CTAB
M  END
$$$$
