drugbank_target|P9WHE9 6,7-dimethyl-8-ribityllumazine synthase (DB01692; DB02135; DB02184; DB02290; DB02693; DB02711; DB03022; DB03812; DB03973; DB08016)
 OpenBabel12092119513D

  0  0  0     0  0            999 V3000
M  V30 BEGIN CTAB
M  V30 COUNTS 2315 2329 0 0 0
M  V30 BEGIN ATOM
M  V30 1 H -0.908 1.98254 -0.117106 0
M  V30 2 N 0 1.576 0 0
M  V30 3 C 0.933 2.03868 1.02534 0
M  V30 4 C 1.911 0.928543 1.3348 0
M  V30 5 O 3.095 1.19667 1.45644 0
M  V30 6 C 0.222 2.43627 2.35294 0
M  V30 7 C -0.732 3.65373 2.2001 0
M  V30 8 S 0.101 5.13292 1.52614 0
M  V30 9 C 1.257 5.56322 2.86805 0
M  V30 10 H 1.49 2.90518 0.631377 0
M  V30 11 H -0.977 1.52953 0.210867 0
M  V30 12 H 0.981 2.67203 3.11629 0
M  V30 13 H -0.358 1.57376 2.7183 0
M  V30 14 H -1.165 3.90944 3.18086 0
M  V30 15 H -1.563 3.418 1.51819 0
M  V30 16 H 0.729 5.58782 3.83104 0
M  V30 17 H 1.672 6.56266 2.65933 0
M  V30 18 H 2.08 4.83886 2.90714 0
M  V30 19 N 1.4781 -0.272755 1.55222 0
M  V30 20 C 2.4251 -1.33716 1.88119 0
M  V30 21 C 3.3951 -1.49066 0.73271 0
M  V30 22 O 4.5801 -1.63469 0.984002 0
M  V30 23 C 1.7201 -2.69238 2.15882 0
M  V30 24 C 0.8331 -2.62108 3.43399 0
M  V30 25 C -0.0319 -3.89811 3.60861 0
M  V30 26 C -0.9929 -3.77193 4.8207 0
M  V30 27 N -1.8559 -4.9673 4.96189 0
M  V30 28 H 2.9841 -1.04962 2.78903 0
M  V30 29 H 0.5211 -0.507088 1.38083 0
M  V30 30 H 2.4791 -3.48089 2.29978 0
M  V30 31 H 1.1091 -2.96194 1.28331 0
M  V30 32 H 0.1611 -1.74967 3.37773 0
M  V30 33 H 1.4731 -2.48685 4.32386 0
M  V30 34 H 0.6271 -4.77103 3.74777 0
M  V30 35 H -0.6339 -4.06102 2.7006 0
M  V30 36 H -1.6289 -2.88284 4.68159 0
M  V30 37 H -0.4039 -3.62421 5.74307 0
M  V30 38 H -2.4579 -5.13431 4.08319 0
M  V30 39 H -2.5409 -4.85839 5.79221 0
M  V30 40 H -1.2729 -5.85594 5.1449 0
M  V30 41 N 2.9562 -1.48159 -0.537278 0
M  V30 42 C 4.2042 -1.55497 -1.29094 0
M  V30 43 C 4.5252 -0.227454 -1.93669 0
M  V30 44 O 3.7952 0.750386 -1.80959 0
M  V30 45 H 2.3752 -0.572832 -0.47945 0
M  V30 46 H 5.0372 -1.84579 -0.625818 0
M  V30 47 H 4.1332 -2.33216 -2.07405 0
M  V30 48 N 4.4343 0.785586 -1.36625 0
M  V30 49 C 5.6823 1.54057 -1.30808 0
M  V30 50 C 6.0033 1.94683 0.111157 0
M  V30 51 O 5.2733 1.65241 1.05224 0
M  V30 52 H 3.8533 0.571354 -0.481211 0
M  V30 53 H 6.5153 0.935821 -1.70963 0
M  V30 54 H 5.6113 2.44637 -1.93801 0
M  V30 55 N 5.9124 1.20967 1.01018 0
M  V30 56 C 6.8754 0.965918 2.07853 0
M  V30 57 C 7.8754 -0.0610545 1.60684 0
M  V30 58 O 9.0654 0.175681 1.73312 0
M  V30 59 C 6.1974 0.455513 3.37843 0
M  V30 60 H 7.3904 1.91365 2.3091 0
M  V30 61 H 4.9434 1.02594 1.17916 0
M  V30 62 H 5.6784 -0.497381 3.20463 0
M  V30 63 H 5.4634 1.19622 3.73407 0
M  V30 64 H 6.9534 0.304667 4.16487 0
M  V30 65 N 7.3905 -1.2043 1.01659 0
M  V30 66 C 8.6385 -1.89423 0.704522 0
M  V30 67 C 8.9595 -1.79231 -0.768197 0
M  V30 68 O 8.2295 -1.1947 -1.55254 0
M  V30 69 H 6.8095 -0.701178 0.257602 0
M  V30 70 H 9.4715 -1.4626 1.28818 0
M  V30 71 H 8.5675 -2.96052 0.987916 0
M  V30 72 N 8.8686 -0.792821 -1.36206 0
M  V30 73 C 10.1146 -0.36733 -1.99446 0
M  V30 74 C 10.4476 1.05917 -1.62774 0
M  V30 75 O 9.7226 1.7324 -0.88421 0
M  V30 76 C 10.0056 -0.535044 -3.56103 0
M  V30 77 C 9.8586 -2.00548 -4.02617 0
M  V30 78 C 11.1776 0.0478191 -4.40074 0
M  V30 79 H 8.2966 -0.134941 -0.724541 0
M  V30 80 H 10.9386 -0.999794 -1.61568 0
M  V30 81 H 9.0886 0.00336329 -3.885 0
M  V30 82 H 10.7606 -2.60521 -3.80692 0
M  V30 83 H 9.0036 -2.50686 -3.54032 0
M  V30 84 H 9.6746 -2.07377 -5.11565 0
M  V30 85 H 12.1506 -0.411822 -4.14057 0
M  V30 86 H 11.0266 -0.0995336 -5.4881 0
M  V30 87 H 11.2876 1.14025 -4.27142 0
M  V30 88 N 10.3467 1.47872 -0.545128 0
M  V30 89 C 11.7577 1.86384 -0.108581 0
M  V30 90 C 12.1087 1.45309 1.31832 0
M  V30 91 O 11.2337 0.850641 1.9898 0
M  V30 92 C 11.8287 3.38265 -0.190274 0
M  V30 93 C 10.3877 3.75914 0.191164 0
M  V30 94 C 9.5347 2.71926 -0.543273 0
M  V30 95 H 12.4857 1.39561 -0.755537 0
M  V30 96 H 12.5067 3.75831 0.594217 0
M  V30 97 H 12.0187 3.6813 -1.2289 0
M  V30 98 H 10.1197 3.51665 1.23136 0
M  V30 99 H 10.2327 4.78836 -0.158987 0
M  V30 100 H 8.5967 2.54697 0.0122495 0
M  V30 101 H 9.3797 3.04634 -1.58282 0
M  V30 102 N 11.8248 0.280983 1.55075 0
M  V30 103 C 13.1018 -0.386207 1.91749 0
M  V30 104 C 13.4818 -1.73264 1.20594 0
M  V30 105 O 12.8298 -2.26034 0.334784 0
M  V30 106 C 13.0398 -0.520687 3.45094 0
M  V30 107 C 14.3878 -0.800865 4.16979 0
M  V30 108 O 15.4118 -0.605271 3.5102 0
M  V30 109 O 14.2708 -1.1753 5.33712 0
M  V30 110 H 11.3648 -0.212408 0.799257 0
M  V30 111 H 13.9108 0.327568 1.66509 0
M  V30 112 H 12.6828 0.426633 3.88967 0
M  V30 113 H 12.3058 -1.2837 3.76307 0
M  V30 114 N 13.3029 -1.57598 0.00835791 0
M  V30 115 C 14.2329 -2.1198 -0.979113 0
M  V30 116 C 15.2139 -1.03091 -1.35301 0
M  V30 117 O 16.3989 -1.30818 -1.43528 0
M  V30 118 C 13.5289 -2.62995 -2.26828 0
M  V30 119 C 12.4829 -3.76485 -2.03576 0
M  V30 120 C 11.8089 -4.13846 -3.38579 0
M  V30 121 C 13.1089 -5.0342 -1.39161 0
M  V30 122 H 14.8029 -2.94738 -0.526281 0
M  V30 123 H 12.3489 -1.41783 -0.251704 0
M  V30 124 H 14.3019 -2.99669 -2.96271 0
M  V30 125 H 13.0259 -1.7737 -2.7424 0
M  V30 126 H 11.6849 -3.40217 -1.36557 0
M  V30 127 H 11.3329 -3.25232 -3.83709 0
M  V30 128 H 11.0329 -4.90312 -3.23834 0
M  V30 129 H 12.5569 -4.53086 -4.09323 0
M  V30 130 H 13.9709 -5.37812 -1.98573 0
M  V30 131 H 12.3679 -5.84746 -1.34878 0
M  V30 132 H 13.4379 -4.83548 -0.361868 0
M  V30 133 N 14.781 0.264519 -1.55364 0
M  V30 134 C 16.192 0.834936 -1.6699 0
M  V30 135 C 16.543 1.86718 -0.602552 0
M  V30 136 O 15.668 2.14899 0.254425 0
M  V30 137 C 16.263 1.5212 -3.02729 0
M  V30 138 C 14.822 2.03954 -3.16354 0
M  V30 139 C 13.969 0.884498 -2.62815 0
M  V30 140 H 16.92 0.0406869 -1.58648 0
M  V30 141 H 16.941 2.38853 -2.96191 0
M  V30 142 H 16.453 0.769668 -3.80392 0
M  V30 143 H 14.554 2.82041 -2.43482 0
M  V30 144 H 14.667 2.24902 -4.23032 0
M  V30 145 H 13.031 1.2802 -2.20188 0
M  V30 146 H 13.814 0.14634 -3.42988 0
M  V30 147 N 16.2591 1.48442 0.529413 0
M  V30 148 C 17.4841 1.60406 1.31471 0
M  V30 149 C 17.9091 0.264738 1.86228 0
M  V30 150 O 17.2671 -0.763668 1.64432 0
M  V30 151 C 17.3151 2.65419 2.44101 0
M  V30 152 O 16.4191 2.22618 3.47153 0
M  V30 153 H 15.7601 0.537863 0.389357 0
M  V30 154 H 18.2901 1.94432 0.636965 0
M  V30 155 H 18.3001 2.86709 2.90279 0
M  V30 156 H 16.9751 3.62652 2.03608 0
M  V30 157 H 15.5521 2.11543 3.0709 0
M  V30 158 N 17.7372 -0.778329 1.37039 0
M  V30 159 C 18.6672 -1.90546 1.34962 0
M  V30 160 C 19.6482 -1.68681 0.219274 0
M  V30 161 O 20.8332 -1.89634 0.418624 0
M  V30 162 C 17.9632 -3.27734 1.14925 0
M  V30 163 C 16.9172 -3.64147 2.24902 0
M  V30 164 C 16.2432 -4.99806 1.89996 0
M  V30 165 C 17.5432 -3.71579 3.67051 0
M  V30 166 H 19.2372 -1.92541 2.29277 0
M  V30 167 H 16.7832 -0.924948 1.10366 0
M  V30 168 H 18.7362 -4.06215 1.12104 0
M  V30 169 H 17.4602 -3.26154 0.170631 0
M  V30 170 H 16.1192 -2.8797 2.26868 0
M  V30 171 H 15.7672 -4.94759 0.906796 0
M  V30 172 H 15.4672 -5.25139 2.63634 0
M  V30 173 H 16.9912 -5.80694 1.88749 0
M  V30 174 H 18.4052 -4.40227 3.67251 0
M  V30 175 H 16.8022 -4.08405 4.39688 0
M  V30 176 H 17.8722 -2.72404 4.01154 0
M  V30 177 N 19.2153 -1.21501 -1.00376 0
M  V30 178 C 20.4923 -0.941745 -1.71437 0
M  V30 179 C 20.8723 0.546114 -2.03914 0
M  V30 180 O 20.2203 1.51128 -1.71384 0
M  V30 181 C 20.4303 -1.82812 -2.97289 0
M  V30 182 C 21.7783 -2.07771 -3.70292 0
M  V30 183 O 22.8023 -1.80171 -3.07273 0
M  V30 184 O 21.6613 -2.54456 -4.83647 0
M  V30 185 H 18.7553 -0.353243 -0.747762 0
M  V30 186 H 21.3013 -1.32436 -1.06108 0
M  V30 187 H 20.0733 -2.83501 -2.69709 0
M  V30 188 H 19.6963 -1.4464 -3.70358 0
M  V30 189 N 20.6934 1.19889 -1.02296 0
M  V30 190 C 21.6564 2.21116 -0.603351 0
M  V30 191 C 22.6564 1.5738 0.329884 0
M  V30 192 O 23.8464 1.73802 0.117702 0
M  V30 193 C 20.9784 3.40696 0.117992 0
M  V30 194 H 22.1714 2.59754 -1.49893 0
M  V30 195 H 19.7244 1.33463 -0.813468 0
M  V30 196 H 20.4594 3.07569 1.0282 0
M  V30 197 H 20.2444 3.88188 -0.552511 0
M  V30 198 H 21.7344 4.15692 0.398696 0
M  V30 199 N 22.1715 0.800033 1.35784 0
M  V30 200 C 23.3965 0.388511 2.03729 0
M  V30 201 C 23.8215 -0.990481 1.5991 0
M  V30 202 O 23.1795 -1.64013 0.772612 0
M  V30 203 C 23.2275 0.4726 3.5749 0
M  V30 204 O 22.3315 -0.51646 4.09153 0
M  V30 205 H 21.6725 0.163271 0.643614 0
M  V30 206 H 24.2025 1.0841 1.73518 0
M  V30 207 H 24.2125 0.34003 4.06581 0
M  V30 208 H 22.8875 1.47848 3.88734 0
M  V30 209 H 21.4645 -0.344673 3.71304 0
M  V30 210 N 23.6496 -1.47581 0.552962 0
M  V30 211 C 24.8976 -2.02082 0.0272703 0
M  V30 212 C 25.2186 -1.4301 -1.32563 0
M  V30 213 O 24.4886 -0.603745 -1.86365 0
M  V30 214 H 23.0686 -0.746966 0.00709182 0
M  V30 215 H 25.7306 -1.81033 0.722008 0
M  V30 216 H 24.8266 -3.12034 -0.0639951 0
M  V30 217 N 25.1277 -0.289203 -1.54924 0
M  V30 218 C 26.3737 0.323998 -2.00195 0
M  V30 219 C 26.7067 1.54441 -1.17735 0
M  V30 220 O 25.9817 1.92875 -0.250878 0
M  V30 221 C 26.2647 0.692276 -3.53383 0
M  V30 222 C 26.1177 -0.536457 -4.46589 0
M  V30 223 C 27.4367 1.52335 -4.12895 0
M  V30 224 H 24.5557 0.116289 -0.727768 0
M  V30 225 H 27.1977 -0.398954 -1.85764 0
M  V30 226 H 25.3477 1.30822 -3.65811 0
M  V30 227 H 27.0197 -1.17499 -4.46085 0
M  V30 228 H 25.2627 -1.17192 -4.1767 0
M  V30 229 H 25.9337 -0.234806 -5.515 0
M  V30 230 H 28.4097 1.00302 -4.0383 0
M  V30 231 H 27.2857 1.74982 -5.20262 0
M  V30 232 H 27.5467 2.50886 -3.64018 0
M  V30 233 N 26.6058 1.57591 -0.0167156 0
M  V30 234 C 28.0218 1.55946 0.339557 0
M  V30 235 C 28.2218 1.02109 1.73713 0
M  V30 236 O 27.2778 0.662303 2.43659 0
M  V30 237 C 28.5908 3.00037 0.199499 0
M  V30 238 C 30.1388 3.11805 0.273193 0
M  V30 239 C 30.6138 4.57713 0.162068 0
M  V30 240 N 32.1048 4.6268 0.219444 0
M  V30 241 C 32.8398 5.73185 0.157054 0
M  V30 242 N 32.3358 6.92786 0.0442936 0
M  V30 243 N 34.1288 5.61707 0.21014 0
M  V30 244 H 26.2798 1.90921 -0.930758 0
M  V30 245 H 28.5428 0.877674 -0.358319 0
M  V30 246 H 28.2488 3.4333 -0.76273 0
M  V30 247 H 28.1228 3.64387 0.974786 0
M  V30 248 H 30.5098 2.68433 1.22587 0
M  V30 249 H 30.5908 2.50201 -0.532256 0
M  V30 250 H 30.2348 5.01763 -0.78714 0
M  V30 251 H 30.1648 5.17283 0.986222 0
M  V30 252 H 32.6558 3.76649 0.307246 0
M  V30 253 H 32.9688 7.728 0.00304069 0
M  V30 254 H 31.3138 6.94999 0.00968457 0
M  V30 255 H 34.5048 4.6716 0.296546 0
M  V30 256 H 34.6778 6.47807 0.158054 0
M  V30 257 N 28.0839 -0.256276 1.55502 0
M  V30 258 C 29.0139 -1.32102 1.92539 0
M  V30 259 C 29.9949 -1.50684 0.789194 0
M  V30 260 O 31.1799 -1.63449 1.04872 0
M  V30 261 C 28.3099 -2.67752 2.21192 0
M  V30 262 C 27.2639 -2.63878 3.36975 0
M  V30 263 C 26.5899 -4.03236 3.51147 0
M  V30 264 C 27.8899 -2.21682 4.72921 0
M  V30 265 H 29.5839 -1.01351 2.81724 0
M  V30 266 H 27.1299 -0.486105 1.35547 0
M  V30 267 H 29.0829 -3.42365 2.45691 0
M  V30 268 H 27.8069 -3.0012 1.28824 0
M  V30 269 H 26.4659 -1.91722 3.12471 0
M  V30 270 H 26.1139 -4.32854 2.56216 0
M  V30 271 H 25.8139 -4.01535 4.29003 0
M  V30 272 H 27.3379 -4.79563 3.77957 0
M  V30 273 H 28.7519 -2.86023 4.96854 0
M  V30 274 H 27.1489 -2.3111 5.53812 0
M  V30 275 H 28.2189 -1.16833 4.70615 0
M  V30 276 N 29.562 -1.4872 -0.521534 0
M  V30 277 C 30.525 -1.63379 -1.60748 0
M  V30 278 C 31.525 -0.50661 -1.52611 0
M  V30 279 O 32.715 -0.772601 -1.5613 0
M  V30 280 C 29.847 -1.61192 -3.00383 0
M  V30 281 H 31.04 -2.60217 -1.49087 0
M  V30 282 H 28.593 -1.37444 -0.744235 0
M  V30 283 H 29.328 -0.65863 -3.17541 0
M  V30 284 H 29.113 -2.43032 -3.07698 0
M  V30 285 H 30.603 -1.7466 -3.7932 0
M  V30 286 N 31.0401 0.771051 -1.3745 0
M  V30 287 C 32.2891 1.52491 -1.3202 0
M  V30 288 C 32.6021 1.9538 0.0927347 0
M  V30 289 O 33.8081 2.70159 0.269503 0
M  V30 290 C 32.2641 2.75366 -2.31736 0
M  V30 291 C 31.8721 2.39573 -3.78562 0
M  V30 292 C 33.6161 3.53307 -2.35318 0
M  V30 293 C 31.5231 3.58954 -4.70007 0
M  V30 294 H 30.4531 0.572506 -0.490666 0
M  V30 295 H 33.1041 0.844474 -1.62914 0
M  V30 296 H 31.4861 3.45303 -1.93861 0
M  V30 297 H 32.6601 1.77415 -4.25277 0
M  V30 298 H 30.9751 1.74805 -3.77932 0
M  V30 299 H 33.5721 4.42039 -3.00842 0
M  V30 300 H 33.9151 3.93217 -1.36698 0
M  V30 301 H 34.4481 2.90367 -2.71904 0
M  V30 302 H 31.1871 3.24125 -5.69757 0
M  V30 303 H 30.7071 4.20214 -4.27996 0
M  V30 304 H 32.3861 4.25758 -4.87175 0
M  V30 305 N 32.5182 1.22032 0.997298 0
M  V30 306 C 33.7642 1.04376 1.73878 0
M  V30 307 C 34.0972 -0.420716 1.89588 0
M  V30 308 O 33.3722 -1.31202 1.43583 0
M  V30 309 C 33.6552 1.75047 3.14691 0
M  V30 310 C 33.5082 3.29062 3.06656 0
M  V30 311 C 34.8272 1.49928 4.13775 0
M  V30 312 H 31.9462 0.380578 0.631133 0
M  V30 313 H 34.5882 1.50312 1.16217 0
M  V30 314 H 32.7382 1.35996 3.63919 0
M  V30 315 H 34.4102 3.7753 2.65083 0
M  V30 316 H 32.6532 3.58967 2.43568 0
M  V30 317 H 33.3242 3.73683 4.06282 0
M  V30 318 H 35.8002 1.83842 3.73285 0
M  V30 319 H 34.6762 2.01878 5.10428 0
M  V30 320 H 34.9372 0.430929 4.39995 0
M  V30 321 N 33.9963 -1.19345 1.0293 0
M  V30 322 C 34.9593 -2.20793 0.615069 0
M  V30 323 C 35.9593 -1.57553 -0.321533 0
M  V30 324 O 37.1493 -1.73862 -0.108483 0
M  V30 325 C 34.2813 -3.40754 -0.0999222 0
M  V30 326 H 35.4743 -2.58955 1.51269 0
M  V30 327 H 33.0273 -1.3303 0.820534 0
M  V30 328 H 33.7623 -3.0811 -1.01187 0
M  V30 329 H 33.5473 -3.87889 0.57309 0
M  V30 330 H 35.0373 -4.15898 -0.376645 0
M  V30 331 N 35.4744 -0.807222 -1.35358 0
M  V30 332 C 36.6994 -0.399309 -2.0352 0
M  V30 333 C 37.1244 0.981986 -1.60433 0
M  V30 334 O 36.4824 1.63601 -0.781299 0
M  V30 335 C 36.5304 -0.491552 -3.57234 0
M  V30 336 O 35.6344 0.494754 -4.09421 0
M  V30 337 H 34.9754 -0.166682 -0.642739 0
M  V30 338 H 37.5054 -1.09328 -1.72941 0
M  V30 339 H 37.5154 -0.361588 -4.06395 0
M  V30 340 H 36.1904 -1.49907 -3.87944 0
M  V30 341 H 34.7674 0.324977 -3.71481 0
M  V30 342 N 36.9525 1.47285 -0.560781 0
M  V30 343 C 38.1775 2.07359 -0.0410566 0
M  V30 344 C 38.6025 1.41017 1.24483 0
M  V30 345 O 37.9605 0.486368 1.74654 0
M  V30 346 C 38.0085 3.6035 0.134123 0
M  V30 347 O 37.1125 3.94681 1.19587 0
M  V30 348 H 36.4535 0.661887 -0.0529291 0
M  V30 349 H 38.9835 1.89252 -0.777482 0
M  V30 350 H 38.9935 4.0652 0.347207 0
M  V30 351 H 37.6685 4.08034 -0.805047 0
M  V30 352 H 36.2455 3.60251 0.962987 0
M  V30 353 N 38.4306 0.297415 1.54768 0
M  V30 354 C 39.6766 -0.306263 2.01081 0
M  V30 355 C 40.0316 -1.518 1.18214 0
M  V30 356 O 39.3246 -1.89967 0.249613 0
M  V30 357 C 39.5186 -0.717561 3.50123 0
M  V30 358 C 39.3476 0.45277 4.47415 0
M  V30 359 C 38.1176 0.943651 4.9641 0
M  V30 360 C 40.3156 1.29657 4.97688 0
M  V30 361 N 38.2976 2.08112 5.77549 0
M  V30 362 C 39.6686 2.28158 5.76493 0
M  V30 363 C 41.7236 1.32735 4.79881 0
M  V30 364 C 40.4266 3.29509 6.39387 0
M  V30 365 C 42.4526 2.32943 5.43591 0
M  V30 366 C 41.8146 3.30174 6.22225 0
M  V30 367 H 37.9136 -0.0766274 0.778237 0
M  V30 368 H 40.4976 0.426515 1.89971 0
M  V30 369 H 38.6686 -1.41952 3.6153 0
M  V30 370 H 40.4006 -1.30047 3.83236 0
M  V30 371 H 37.1556 0.51922 4.70745 0
M  V30 372 H 37.5796 2.65414 6.22803 0
M  V30 373 H 42.2216 0.589375 4.18672 0
M  V30 374 H 39.9396 4.04228 6.99732 0
M  V30 375 H 43.5256 2.36094 5.31743 0
M  V30 376 H 42.4056 4.06445 6.7065 0
M  V30 377 N 39.9087 -1.5758 0.0250728 0
M  V30 378 C 40.8587 -2.06468 -0.967201 0
M  V30 379 C 41.8427 -0.964376 -1.28797 0
M  V30 380 O 43.0347 -1.22797 -1.27475 0
M  V30 381 C 40.1637 -2.59203 -2.25097 0
M  V30 382 C 39.2497 -3.76157 -1.95874 0
M  V30 383 N 39.6407 -4.86919 -1.36905 0
M  V30 384 C 37.9387 -3.84566 -2.25887 0
M  V30 385 C 38.6397 -5.68172 -1.24724 0
M  V30 386 N 37.6157 -5.14953 -1.74138 0
M  V30 387 H 41.4177 -2.89508 -0.506176 0
M  V30 388 H 38.9317 -1.61399 -0.18004 0
M  V30 389 H 40.9287 -2.92517 -2.97052 0
M  V30 390 H 39.5887 -1.77592 -2.71829 0
M  V30 391 H 40.5997 -5.07256 -1.04459 0
M  V30 392 H 37.2767 -3.13854 -2.75321 0
M  V30 393 H 38.6667 -6.67221 -0.791605 0
M  V30 394 N 41.3868 0.248026 -1.55636 0
M  V30 395 C 42.6348 0.974295 -1.77065 0
M  V30 396 C 42.9558 1.85897 -0.588849 0
M  V30 397 O 42.2258 1.91868 0.395407 0
M  V30 398 H 40.8058 0.362733 -0.653019 0
M  V30 399 H 43.4678 0.266244 -1.93073 0
M  V30 400 H 42.5638 1.59667 -2.68166 0
M  V30 401 N 42.8649 1.48995 0.513639 0
M  V30 402 C 43.8119 1.6473 1.61656 0
M  V30 403 C 44.7819 0.488984 1.58739 0
M  V30 404 O 45.9669 0.714478 1.76918 0
M  V30 405 C 43.1069 1.7082 2.99858 0
M  V30 406 C 42.2199 2.9787 3.12885 0
M  V30 407 C 41.3549 2.95017 4.41744 0
M  V30 408 C 40.3939 4.16702 4.48359 0
M  V30 409 N 39.5309 4.11832 5.68629 0
M  V30 410 H 44.3709 2.58909 1.47547 0
M  V30 411 H 41.9079 1.28382 0.71808 0
M  V30 412 H 43.8659 1.72331 3.79944 0
M  V30 413 H 42.4959 0.801181 3.12699 0
M  V30 414 H 41.5479 3.06029 2.25944 0
M  V30 415 H 42.8599 3.8786 3.13633 0
M  V30 416 H 42.0139 2.95021 5.30139 0
M  V30 417 H 40.7529 2.02784 4.43542 0
M  V30 418 H 39.7579 4.16955 3.58369 0
M  V30 419 H 40.9829 5.10113 4.48287 0
M  V30 420 H 38.9289 3.22428 5.71293 0
M  V30 421 H 38.8459 4.95543 5.7094 0
M  V30 422 H 40.1139 4.1592 6.59266 0
M  V30 423 N 44.343 -0.763751 1.37857 0
M  V30 424 C 45.592 -1.51789 1.32827 0
M  V30 425 C 45.905 -1.95426 -0.0823719 0
M  V30 426 O 47.111 -2.70298 -0.255172 0
M  V30 427 C 45.567 -2.74133 2.33193 0
M  V30 428 C 45.175 -2.37562 3.79827 0
M  V30 429 C 46.919 -3.52054 2.37188 0
M  V30 430 C 44.826 -3.56456 4.71904 0
M  V30 431 H 43.756 -0.569896 0.493695 0
M  V30 432 H 46.407 -0.835822 1.63359 0
M  V30 433 H 44.789 -3.4427 1.9569 0
M  V30 434 H 45.963 -1.75157 4.26212 0
M  V30 435 H 44.278 -1.72798 3.78853 0
M  V30 436 H 46.875 -4.40437 3.03182 0
M  V30 437 H 47.218 -3.92486 1.38782 0
M  V30 438 H 47.751 -2.88921 2.7344 0
M  V30 439 H 44.49 -3.21099 5.71468 0
M  V30 440 H 44.01 -4.17938 4.30218 0
M  V30 441 H 45.689 -4.23168 4.89426 0
M  V30 442 N 45.8211 -1.22559 -0.990812 0
M  V30 443 C 47.0611 -1.06302 -1.74583 0
M  V30 444 C 47.4251 0.394737 -1.87898 0
M  V30 445 O 48.6261 0.678214 -2.60103 0
M  V30 446 C 46.8971 -1.75699 -3.11231 0
M  V30 447 S 48.4561 -1.74882 -4.02445 0
M  V30 448 H 45.2741 -0.380639 -0.600529 0
M  V30 449 H 47.8761 -1.55532 -1.18449 0
M  V30 450 H 46.5801 -2.80923 -2.99183 0
M  V30 451 H 46.1111 -1.26708 -3.72436 0
M  V30 452 H 48.1261 -0.799997 -4.89709 0
M  V30 453 N 47.2992 1.18797 -1.03562 0
M  V30 454 C 48.5762 1.84469 -0.650434 0
M  V30 455 C 48.9562 1.92319 0.870433 0
M  V30 456 O 48.3042 1.44528 1.76986 0
M  V30 457 C 48.5142 3.2306 -1.32036 0
M  V30 458 C 49.8622 3.9915 -1.44792 0
M  V30 459 O 50.8862 3.32481 -1.27806 0
M  V30 460 O 49.7452 5.18587 -1.72423 0
M  V30 461 H 46.8392 0.795251 -0.226946 0
M  V30 462 H 49.3852 1.26231 -1.13419 0
M  V30 463 H 48.1572 3.1222 -2.3587 0
M  V30 464 H 47.7802 3.88949 -0.8249 0
M  V30 465 N 48.7773 0.814389 1.34928 0
M  V30 466 C 49.7403 0.235759 2.27984 0
M  V30 467 C 50.7403 -0.581412 1.49921 0
M  V30 468 O 51.9303 -0.398758 1.69575 0
M  V30 469 C 49.0623 -0.670433 3.34242 0
M  V30 470 H 50.2553 1.05659 2.80671 0
M  V30 471 H 47.8083 0.585614 1.44915 0
M  V30 472 H 48.5433 -1.51466 2.86755 0
M  V30 473 H 48.3283 -0.0860822 3.92005 0
M  V30 474 H 49.8183 -1.06935 4.03676 0
M  V30 475 N 50.2554 -1.46986 0.568584 0
M  V30 476 C 51.1854 -2.32946 -0.160753 0
M  V30 477 C 52.1664 -1.44487 -0.897631 0
M  V30 478 O 53.3514 -1.73327 -0.875867 0
M  V30 479 C 50.4814 -3.26494 -1.18403 0
M  V30 480 C 49.4354 -4.24282 -0.562895 0
M  V30 481 C 48.7614 -5.07236 -1.69163 0
M  V30 482 C 50.0614 -5.19989 0.490761 0
M  V30 483 H 51.7554 -2.94175 0.556916 0
M  V30 484 H 49.3014 -1.4146 0.26927 0
M  V30 485 H 51.2544 -3.85477 -1.70251 0
M  V30 486 H 49.9784 -2.63343 -1.93179 0
M  V30 487 H 48.6374 -3.66541 -0.0656164 0
M  V30 488 H 48.2854 -4.4048 -2.42871 0
M  V30 489 H 47.9854 -5.7345 -1.28174 0
M  V30 490 H 49.5094 -5.6908 -2.21314 0
M  V30 491 H 50.9234 -5.73271 0.0579047 0
M  V30 492 H 49.3204 -5.94469 0.820165 0
M  V30 493 H 50.3904 -4.64777 1.3824 0
M  V30 494 N 51.7335 -0.305618 -1.54608 0
M  V30 495 C 52.6635 0.561482 -2.26649 0
M  V30 496 C 53.6445 1.13415 -1.26772 0
M  V30 497 O 54.8295 1.16262 -1.55553 0
M  V30 498 C 51.9595 1.73122 -3.01075 0
M  V30 499 C 50.9135 1.2887 -4.08138 0
M  V30 500 C 50.2395 2.54396 -4.70305 0
M  V30 501 C 51.5395 0.416578 -5.20636 0
M  V30 502 H 53.2335 -0.0393902 -2.99374 0
M  V30 503 H 50.7795 -0.020385 -1.43986 0
M  V30 504 H 52.7325 2.34396 -3.50195 0
M  V30 505 H 51.4565 2.3584 -2.25936 0
M  V30 506 H 50.1155 0.698991 -3.59875 0
M  V30 507 H 49.7635 3.15439 -3.918 0
M  V30 508 H 49.4635 2.25486 -5.42614 0
M  V30 509 H 50.9875 3.16464 -5.2219 0
M  V30 510 H 52.4015 0.935116 -5.65622 0
M  V30 511 H 50.7985 0.221046 -5.99693 0
M  V30 512 H 51.8685 -0.557162 -4.81688 0
M  V30 513 N 53.2116 1.57565 -0.0334293 0
M  V30 514 C 54.4886 1.83282 0.683163 0
M  V30 515 C 54.8686 0.91823 1.90084 0
M  V30 516 O 54.2166 -0.025113 2.28486 0
M  V30 517 C 54.4266 3.32599 1.0573 0
M  V30 518 C 55.7746 3.99179 1.44711 0
M  V30 519 O 56.7986 3.3712 1.15015 0
M  V30 520 O 55.6576 5.08565 2.0006 0
M  V30 521 H 52.7516 0.755869 0.335546 0
M  V30 522 H 55.2976 1.69589 -0.0614402 0
M  V30 523 H 54.0696 3.90834 0.190828 0
M  V30 524 H 53.6926 3.51415 1.85993 0
M  V30 525 N 54.6897 -0.239769 1.55765 0
M  V30 526 C 55.9377 -0.964892 1.77579 0
M  V30 527 C 56.2587 -1.85582 0.598699 0
M  V30 528 O 55.5287 -1.92075 -0.385226 0
M  V30 529 H 54.1087 -0.359265 0.654933 0
M  V30 530 H 56.7707 -0.256001 1.93211 0
M  V30 531 H 55.8667 -1.58243 2.69009 0
M  V30 532 N 56.1678 -1.49265 -0.50573 0
M  V30 533 C 57.1308 -1.65075 -1.59006 0
M  V30 534 C 58.1308 -0.522768 -1.52065 0
M  V30 535 O 59.3208 -0.789117 -1.55302 0
M  V30 536 C 56.4528 -1.64369 -2.98656 0
M  V30 537 H 57.6458 -2.61784 -1.46319 0
M  V30 538 H 55.1988 -1.38226 -0.729616 0
M  V30 539 H 55.9338 -0.692272 -3.16825 0
M  V30 540 H 55.7188 -2.46282 -3.05103 0
M  V30 541 H 57.2088 -1.78674 -3.77446 0
M  V30 542 N 57.6459 0.756429 -1.3826 0
M  V30 543 C 59.0619 1.0591 -1.19395 0
M  V30 544 C 59.2619 2.01459 -0.0406567 0
M  V30 545 O 58.3179 2.44909 0.614467 0
M  V30 546 C 59.6309 1.64191 -2.51916 0
M  V30 547 C 61.1789 1.76376 -2.58574 0
M  V30 548 C 61.6539 2.38069 -3.91264 0
M  V30 549 N 63.1449 2.45503 -3.92788 0
M  V30 550 C 63.8799 2.94126 -4.92217 0
M  V30 551 N 63.3759 3.42805 -6.02043 0
M  V30 552 N 65.1689 2.9314 -4.7961 0
M  V30 553 H 57.3199 0.122313 -2.12048 0
M  V30 554 H 59.5829 0.116892 -0.940766 0
M  V30 555 H 59.2889 1.01451 -3.3675 0
M  V30 556 H 59.1629 2.6329 -2.70108 0
M  V30 557 H 61.5499 2.38244 -1.74137 0
M  V30 558 H 61.6309 0.759894 -2.44252 0
M  V30 559 H 61.2749 1.76835 -4.76121 0
M  V30 560 H 61.2049 3.39091 -4.02895 0
M  V30 561 H 63.6959 2.1107 -3.13461 0
M  V30 562 H 64.0089 3.78354 -6.73846 0
M  V30 563 H 62.3539 3.4087 -6.05667 0
M  V30 564 H 65.5449 2.54419 -3.92923 0
M  V30 565 H 65.7179 3.30721 -5.5725 0
M  V30 566 N 59.124 1.23083 0.984299 0
M  V30 567 C 60.071 1.00854 2.07598 0
M  V30 568 C 61.041 -0.0726709 1.65941 0
M  V30 569 O 62.226 0.0786535 1.90638 0
M  V30 570 C 59.366 0.601645 3.39815 0
M  V30 571 C 58.479 1.75456 3.94765 0
M  V30 572 C 57.614 1.29482 5.15177 0
M  V30 573 C 56.653 2.41873 5.62284 0
M  V30 574 N 55.79 1.96885 6.73929 0
M  V30 575 H 60.63 1.943 2.25946 0
M  V30 576 H 58.167 0.968001 1.10762 0
M  V30 577 H 60.125 0.346854 4.15756 0
M  V30 578 H 58.755 -0.295803 3.21442 0
M  V30 579 H 57.807 2.12346 3.15616 0
M  V30 580 H 59.119 2.59965 4.25699 0
M  V30 581 H 58.273 0.997923 5.98437 0
M  V30 582 H 57.012 0.420046 4.85888 0
M  V30 583 H 56.017 2.72342 4.77608 0
M  V30 584 H 57.242 3.29881 5.93595 0
M  V30 585 H 55.188 1.11782 6.46406 0
M  V30 586 H 55.105 2.74956 7.04227 0
M  V30 587 H 56.373 1.70289 7.60672 0
M  V30 588 N 60.6021 -1.18246 1.0419 0
M  V30 589 C 61.8481 -1.88536 0.747122 0
M  V30 590 C 62.1811 -1.80223 -0.723409 0
M  V30 591 O 61.4561 -1.20337 -1.52804 0
M  V30 592 C 61.7391 -3.38968 1.21544 0
M  V30 593 C 61.5921 -3.56084 2.74816 0
M  V30 594 C 62.9111 -4.32648 0.806482 0
M  V30 595 H 60.0301 -0.684619 0.272883 0
M  V30 596 H 62.6721 -1.39113 1.29413 0
M  V30 597 H 60.8221 -3.8119 0.750081 0
M  V30 598 H 62.4941 -3.22946 3.29399 0
M  V30 599 H 60.7371 -2.98699 3.14582 0
M  V30 600 H 61.4081 -4.61639 3.02644 0
M  V30 601 H 63.8841 -3.98211 1.20695 0
M  V30 602 H 62.7601 -5.36462 1.1619 0
M  V30 603 H 63.0211 -4.41146 -0.29029 0
M  V30 604 N 62.0802 -0.821533 -1.34494 0
M  V30 605 C 63.0432 -0.247847 -2.27856 0
M  V30 606 C 64.0432 0.573453 -1.50227 0
M  V30 607 O 65.2332 0.389759 -1.69784 0
M  V30 608 C 62.3652 0.652698 -3.34593 0
M  V30 609 H 63.5582 -1.07146 -2.80107 0
M  V30 610 H 61.1112 -0.593291 -1.44602 0
M  V30 611 H 61.8462 1.49943 -2.87555 0
M  V30 612 H 61.6312 0.065292 -3.92046 0
M  V30 613 H 63.1212 1.04793 -4.04238 0
M  V30 614 N 63.5583 1.46682 -0.576371 0
M  V30 615 C 64.5213 2.28707 0.150239 0
M  V30 616 C 65.5213 1.38035 0.824794 0
M  V30 617 O 66.7113 1.60476 0.677719 0
M  V30 618 C 63.8433 3.18248 1.22192 0
M  V30 619 H 65.0363 2.94423 -0.570521 0
M  V30 620 H 62.5893 1.52688 -0.334078 0
M  V30 621 H 63.3243 2.57265 1.97447 0
M  V30 622 H 63.1093 3.85 0.742812 0
M  V30 623 H 64.5993 3.80001 1.73172 0
M  V30 624 N 65.0364 0.313813 1.54444 0
M  V30 625 C 66.2844 -0.291099 1.99993 0
M  V30 626 C 66.6054 -1.53418 1.20366 0
M  V30 627 O 65.8754 -1.93544 0.302927 0
M  V30 628 H 64.4554 -0.110552 0.738774 0
M  V30 629 H 67.1174 0.428106 1.9014 0
M  V30 630 H 66.2134 -0.554268 3.07139 0
M  V30 631 N 66.5145 -1.57545 0.0417849 0
M  V30 632 C 67.7545 -1.94185 -0.63809 0
M  V30 633 C 68.1185 -0.919339 -1.68559 0
M  V30 634 O 69.3195 -1.17236 -2.41886 0
M  V30 635 C 67.5905 -3.35672 -1.22714 0
M  V30 636 S 69.1495 -3.94256 -1.92633 0
M  V30 637 H 65.9675 -0.679353 -0.209764 0
M  V30 638 H 68.5695 -1.95199 0.108479 0
M  V30 639 H 67.2735 -4.07898 -0.452503 0
M  V30 640 H 66.8045 -3.38132 -2.01073 0
M  V30 641 H 68.8195 -3.7872 -3.20602 0
M  V30 642 N 67.9926 0.231505 -1.5589 0
M  V30 643 C 69.2406 0.955461 -1.78088 0
M  V30 644 C 69.5616 1.85262 -0.608533 0
M  V30 645 O 68.8316 1.92277 0.375035 0
M  V30 646 H 67.4116 0.355787 -0.656829 0
M  V30 647 H 70.0736 0.245751 -1.93344 0
M  V30 648 H 69.1696 1.56814 -2.69844 0
M  V30 649 N 69.4707 1.49531 0.497807 0
M  V30 650 C 70.4007 1.6935 1.60757 0
M  V30 651 C 71.3817 0.542218 1.61227 0
M  V30 652 O 72.5667 0.778417 1.77917 0
M  V30 653 C 69.6967 1.76298 2.99226 0
M  V30 654 C 68.6507 2.91248 3.13622 0
M  V30 655 C 67.9767 2.83312 4.53474 0
M  V30 656 C 69.2767 4.3214 2.93346 0
M  V30 657 H 70.9707 2.62263 1.44425 0
M  V30 658 H 68.5167 1.26208 0.693367 0
M  V30 659 H 70.4697 1.88749 3.76765 0
M  V30 660 H 69.1937 0.799871 3.16654 0
M  V30 661 H 67.8527 2.78404 2.38509 0
M  V30 662 H 67.5007 1.84902 4.67782 0
M  V30 663 H 67.2007 3.60465 4.64046 0
M  V30 664 H 68.7247 2.97775 5.33069 0
M  V30 665 H 70.1387 4.45649 3.60652 0
M  V30 666 H 68.5357 5.1054 3.15387 0
M  V30 667 H 69.6057 4.46363 1.89441 0
M  V30 668 N 70.9488 -0.749086 1.3866 0
M  V30 669 C 72.2258 -1.4992 1.25632 0
M  V30 670 C 72.6058 -2.10633 -0.140317 0
M  V30 671 O 71.9538 -1.97437 -1.15025 0
M  V30 672 C 72.1638 -2.56195 2.36992 0
M  V30 673 C 73.5118 -3.22972 2.75634 0
M  V30 674 O 74.5358 -2.66502 2.36337 0
M  V30 675 O 73.3948 -4.25122 3.43415 0
M  V30 676 H 70.4888 -0.665067 0.491544 0
M  V30 677 H 73.0348 -0.784113 1.50498 0
M  V30 678 H 71.8068 -2.09612 3.30422 0
M  V30 679 H 71.4298 -3.35279 2.13714 0
M  V30 680 N 72.4269 -1.23603 -0.977757 0
M  V30 681 C 73.7039 -0.977897 -1.69401 0
M  V30 682 C 74.0839 0.502738 -2.05026 0
M  V30 683 O 73.4319 1.47459 -1.74551 0
M  V30 684 C 73.6419 -1.89077 -2.93345 0
M  V30 685 C 74.9899 -2.15579 -3.65802 0
M  V30 686 O 76.0139 -1.86648 -3.03383 0
M  V30 687 O 74.8729 -2.64658 -4.78141 0
M  V30 688 H 71.9669 -0.369025 -0.740101 0
M  V30 689 H 74.5129 -1.34657 -1.03274 0
M  V30 690 H 73.2849 -2.89158 -2.63634 0
M  V30 691 H 72.9079 -1.52463 -3.67207 0
M  V30 692 N 73.905 1.17692 -1.04816 0
M  V30 693 C 75.316 1.69501 -0.782698 0
M  V30 694 C 75.667 1.83456 0.695577 0
M  V30 695 O 74.792 1.51942 1.54086 0
M  V30 696 C 75.387 3.07874 -1.41419 0
M  V30 697 C 73.946 3.56864 -1.19686 0
M  V30 698 C 73.093 2.3322 -1.50012 0
M  V30 699 H 76.044 1.02262 -1.2136 0
M  V30 700 H 76.065 3.71528 -0.821428 0
M  V30 701 H 75.577 2.97685 -2.49009 0
M  V30 702 H 73.678 3.72337 -0.140043 0
M  V30 703 H 73.791 4.39851 -1.89916 0
M  V30 704 H 72.155 2.37501 -0.920071 0
M  V30 705 H 72.938 2.25644 -2.58727 0
M  V30 706 N 75.3831 0.828654 1.34056 0
M  V30 707 C 76.6111 0.43262 2.02326 0
M  V30 708 C 77.0261 -0.963147 1.62385 0
M  V30 709 O 76.3831 -1.62425 0.832121 0
M  V30 710 C 76.4341 0.53182 3.57567 0
M  V30 711 O 76.1551 1.87258 3.96063 0
M  V30 712 C 77.6561 0.131422 4.43105 0
M  V30 713 H 74.8761 0.172923 0.648335 0
M  V30 714 H 77.4201 1.1184 1.71208 0
M  V30 715 H 75.5751 -0.105938 3.87255 0
M  V30 716 H 75.9891 1.85087 4.90758 0
M  V30 717 H 77.4631 0.251904 5.51425 0
M  V30 718 H 77.9401 -0.925645 4.29335 0
M  V30 719 H 78.5461 0.743207 4.18756 0
M  V30 720 N 76.8612 -1.46375 0.584142 0
M  V30 721 C 78.1072 -2.02678 0.0703716 0
M  V30 722 C 78.4402 -1.4545 -1.28678 0
M  V30 723 O 77.7152 -0.62014 -1.84349 0
M  V30 724 C 77.9982 -3.60099 0.00614674 0
M  V30 725 C 77.8512 -4.27709 1.3923 0
M  V30 726 C 79.1702 -4.34598 -0.693742 0
M  V30 727 H 76.2892 -0.736504 0.027047 0
M  V30 728 H 78.9312 -1.74501 0.751615 0
M  V30 729 H 77.0812 -3.84236 -0.574009 0
M  V30 730 H 78.7532 -4.14832 2.01773 0
M  V30 731 H 76.9962 -3.87016 1.95962 0
M  V30 732 H 77.6672 -5.36478 1.29982 0
M  V30 733 H 80.1432 -4.15615 -0.200869 0
M  V30 734 H 79.0192 -5.44318 -0.707714 0
M  V30 735 H 79.2802 -4.05759 -1.75533 0
M  V30 736 N 78.3393 -0.321999 -1.54275 0
M  V30 737 C 79.5853 0.281461 -2.00837 0
M  V30 738 C 79.9183 1.51909 -1.20985 0
M  V30 739 O 79.1933 1.923 -0.291733 0
M  V30 740 C 79.4763 0.617162 -3.54772 0
M  V30 741 C 79.3293 -0.631064 -4.45351 0
M  V30 742 C 80.6483 1.43542 -4.16033 0
M  V30 743 H 77.7673 0.100826 -0.730071 0
M  V30 744 H 80.4093 -0.438268 -1.84876 0
M  V30 745 H 78.5593 1.23034 -3.68504 0
M  V30 746 H 80.2313 -1.26934 -4.43492 0
M  V30 747 H 78.4743 -1.26025 -4.15091 0
M  V30 748 H 79.1453 -0.351735 -5.50878 0
M  V30 749 H 81.6213 0.917134 -4.05867 0
M  V30 750 H 80.4973 1.63907 -5.23856 0
M  V30 751 H 80.7583 2.43108 -3.69257 0
M  V30 752 N 79.8174 1.5752 -0.0501392 0
M  V30 753 C 81.2334 1.56631 0.306402 0
M  V30 754 C 81.4334 1.0577 1.71508 0
M  V30 755 O 80.4894 0.713837 2.422 0
M  V30 756 C 81.8024 3.00393 0.135811 0
M  V30 757 C 83.3504 3.12315 0.206993 0
M  V30 758 C 83.8254 4.57954 0.064944 0
M  V30 759 N 85.3164 4.63041 0.121254 0
M  V30 760 C 86.0514 5.73389 0.0354381 0
M  V30 761 N 85.5474 6.92724 -0.102666 0
M  V30 762 N 87.3404 5.62026 0.090946 0
M  V30 763 H 79.4914 1.88903 -0.971046 0
M  V30 764 H 81.7544 0.869876 -0.376855 0
M  V30 765 H 81.4604 3.41635 -0.835384 0
M  V30 766 H 81.3344 3.66373 0.897275 0
M  V30 767 H 83.7214 2.70973 1.16866 0
M  V30 768 H 83.8024 2.49016 -0.585208 0
M  V30 769 H 83.4464 4.99981 -0.893394 0
M  V30 770 H 83.3764 5.19258 0.876277 0
M  V30 771 H 85.8674 3.77216 0.227284 0
M  V30 772 H 86.1804 7.72633 -0.160882 0
M  V30 773 H 84.5254 6.94864 -0.137737 0
M  V30 774 H 87.7164 4.67684 0.197388 0
M  V30 775 H 87.8894 6.47997 0.0206089 0
M  V30 776 N 81.2955 -0.223234 1.56011 0
M  V30 777 C 82.5415 -0.949279 1.79211 0
M  V30 778 C 82.8745 -1.84054 0.619494 0
M  V30 779 O 82.1495 -1.90726 -0.381317 0
M  V30 780 C 82.4325 -1.78965 3.12479 0
M  V30 781 C 82.2855 -0.924997 4.40186 0
M  V30 782 C 83.6045 -2.76774 3.42175 0
M  V30 783 H 80.7235 -0.343676 0.651963 0
M  V30 784 H 83.3655 -0.218253 1.88742 0
M  V30 785 H 81.5155 -2.41291 3.04485 0
M  V30 786 H 83.1875 -0.318615 4.60198 0
M  V30 787 H 81.4305 -0.230344 4.33188 0
M  V30 788 H 82.1015 -1.54735 5.29869 0
M  V30 789 H 84.5775 -2.24584 3.50287 0
M  V30 790 H 83.4535 -3.32678 4.36597 0
M  V30 791 H 83.7145 -3.54429 2.64258 0
M  V30 792 N 82.7736 -1.49793 -0.48987 0
M  V30 793 C 83.7036 -1.70201 -1.59856 0
M  V30 794 C 84.6846 -0.55076 -1.60937 0
M  V30 795 O 85.8696 -0.787841 -1.77501 0
M  V30 796 C 82.9996 -1.77882 -2.98287 0
M  V30 797 C 81.9536 -2.92907 -3.12073 0
M  V30 798 C 81.2796 -2.85712 -4.51965 0
M  V30 799 C 82.5796 -4.3369 -2.91051 0
M  V30 800 H 84.2736 -2.63025 -1.43032 0
M  V30 801 H 81.8196 -1.26574 -0.686664 0
M  V30 802 H 83.7726 -1.90744 -3.75759 0
M  V30 803 H 82.4966 -0.816653 -3.16225 0
M  V30 804 H 81.1556 -2.79665 -2.37029 0
M  V30 805 H 80.8036 -1.8738 -4.66795 0
M  V30 806 H 80.5036 -3.62921 -4.62128 0
M  V30 807 H 82.0276 -3.00598 -5.31482 0
M  V30 808 H 83.4416 -4.47555 -3.58284 0
M  V30 809 H 81.8386 -5.12205 -3.12675 0
M  V30 810 H 82.9086 -4.47362 -1.87071 0
M  V30 811 N 84.2517 0.741722 -1.39055 0
M  V30 812 C 85.4997 1.49818 -1.35643 0
M  V30 813 C 85.8207 1.94938 0.0491642 0
M  V30 814 O 85.0907 1.68505 0.999141 0
M  V30 815 H 83.6707 0.555755 -0.499144 0
M  V30 816 H 86.3327 0.880957 -1.73854 0
M  V30 817 H 85.4287 2.38348 -2.01486 0
M  V30 818 N 85.7298 1.2412 0.971189 0
M  V30 819 C 86.6928 1.03156 2.04674 0
M  V30 820 C 87.6928 -0.00990322 1.60797 0
M  V30 821 O 88.8828 0.230729 1.72665 0
M  V30 822 C 86.0148 0.562765 3.36223 0
M  V30 823 H 87.2078 1.98614 2.24705 0
M  V30 824 H 84.7608 1.06293 1.14593 0
M  V30 825 H 85.4958 -0.395176 3.21883 0
M  V30 826 H 85.2808 1.31441 3.69413 0
M  V30 827 H 86.7708 0.437015 4.15307 0
M  V30 828 N 87.2079 -1.17134 1.05439 0
M  V30 829 C 88.4569 -1.86791 0.761049 0
M  V30 830 C 88.7699 -1.82072 -0.714795 0
M  V30 831 O 89.9759 -2.47223 -1.12218 0
M  V30 832 C 88.4319 -3.35166 1.31117 0
M  V30 833 C 88.0399 -3.48381 2.81664 0
M  V30 834 C 89.7839 -4.10134 1.09499 0
M  V30 835 C 87.6909 -4.90793 3.29964 0
M  V30 836 H 86.6209 -0.699681 0.281002 0
M  V30 837 H 89.2719 -1.3226 1.27199 0
M  V30 838 H 87.6539 -3.8925 0.72803 0
M  V30 839 H 88.8279 -3.04502 3.45855 0
M  V30 840 H 87.1429 -2.86836 3.01851 0
M  V30 841 H 89.7399 -5.152 1.43084 0
M  V30 842 H 90.0829 -4.16287 0.0328772 0
M  V30 843 H 90.6159 -3.62264 1.64346 0
M  V30 844 H 87.3549 -4.89816 4.35616 0
M  V30 845 H 86.8749 -5.35333 2.70516 0
M  V30 846 H 88.5539 -5.59573 3.24787 0
M  V30 847 N 88.686 -0.835752 -1.33615 0
M  V30 848 C 89.596 -0.269088 -2.33052 0
M  V30 849 C 90.612 0.603251 -1.63208 0
M  V30 850 O 91.788 0.508112 -1.94885 0
M  V30 851 C 88.853 0.549091 -3.42324 0
M  V30 852 C 87.914 -0.347156 -4.27894 0
M  V30 853 C 87.147 0.43207 -5.31948 0
M  V30 854 O 87.37 1.66409 -5.45586 0
M  V30 855 O 86.304 -0.192298 -6.01593 0
M  V30 856 H 90.13 -1.09243 -2.83372 0
M  V30 857 H 87.715 -0.598198 -1.36901 0
M  V30 858 H 89.597 1.01414 -4.09015 0
M  V30 859 H 88.272 1.34955 -2.94226 0
M  V30 860 H 87.179 -0.859979 -3.64081 0
M  V30 861 H 88.512 -1.1123 -4.79467 0
M  V30 862 N 90.1641 1.46063 -0.591896 0
M  V30 863 C 91.4131 2.01547 -0.0786637 0
M  V30 864 C 91.7261 1.46796 1.29268 0
M  V30 865 O 92.9321 1.94157 1.89777 0
M  V30 866 C 91.3881 3.59787 -0.0900024 0
M  V30 867 C 90.9961 4.23534 -1.46023 0
M  V30 868 C 92.7401 4.22895 0.368806 0
M  V30 869 C 90.6471 5.73881 -1.4288 0
M  V30 870 H 89.5771 0.753564 -0.0256388 0
M  V30 871 H 92.2281 1.677 -0.744905 0
M  V30 872 H 90.6101 3.90752 0.642586 0
M  V30 873 H 91.7841 4.04167 -2.21328 0
M  V30 874 H 90.0991 3.72558 -1.85982 0
M  V30 875 H 92.6961 5.33116 0.411258 0
M  V30 876 H 93.0391 3.9247 1.38827 0
M  V30 877 H 93.5721 3.9659 -0.31001 0
M  V30 878 H 90.3111 6.0898 -2.42536 0
M  V30 879 H 89.8311 5.95486 -0.718095 0
M  V30 880 H 91.5101 6.36776 -1.14565 0
M  V30 881 N 91.6422 0.330177 1.54103 0
M  V30 882 C 93.0532 -0.15652 1.86043 0
M  V30 883 C 93.4042 -1.51086 1.2517 0
M  V30 884 O 92.5292 -2.09023 0.560217 0
M  V30 885 C 93.1242 -0.290784 3.3755 0
M  V30 886 C 91.6832 -0.721705 3.69416 0
M  V30 887 C 90.8302 0.152622 2.7688 0
M  V30 888 H 93.7812 0.550237 1.48856 0
M  V30 889 H 93.8022 -1.12058 3.63625 0
M  V30 890 H 93.3142 0.695068 3.81825 0
M  V30 891 H 91.4152 -1.71706 3.30678 0
M  V30 892 H 91.5282 -0.520869 4.7626 0
M  V30 893 H 89.8922 -0.372894 2.51956 0
M  V30 894 H 90.6752 1.13536 3.23982 0
M  V30 895 N 93.1203 -1.57491 0.0584922 0
M  V30 896 C 94.3663 -1.93264 -0.614558 0
M  V30 897 C 94.6993 -0.937717 -1.7006 0
M  V30 898 O 93.9743 0.0351652 -1.94468 0
M  V30 899 C 94.2573 -3.3938 -1.20386 0
M  V30 900 C 94.1103 -4.49625 -0.125375 0
M  V30 901 C 95.4293 -3.86039 -2.11334 0
M  V30 902 H 92.5483 -0.702791 -0.221933 0
M  V30 903 H 95.1903 -1.8961 0.12175 0
M  V30 904 H 93.3403 -3.42626 -1.83139 0
M  V30 905 H 95.0123 -4.58506 0.506971 0
M  V30 906 H 93.2553 -4.30354 0.545672 0
M  V30 907 H 93.9263 -5.48967 -0.577861 0
M  V30 908 H 96.4023 -3.84716 -1.58534 0
M  V30 909 H 95.2783 -4.88914 -2.49507 0
M  V30 910 H 95.5393 -3.23215 -3.01636 0
M  V30 911 N 94.5984 0.214957 -1.56127 0
M  V30 912 C 95.8444 0.939762 -1.79712 0
M  V30 913 C 96.1774 1.83723 -0.629247 0
M  V30 914 O 95.4524 1.90925 0.371197 0
M  V30 915 C 95.7354 1.77306 -3.13424 0
M  V30 916 C 95.5884 0.90164 -4.40671 0
M  V30 917 C 96.9074 2.74956 -3.43638 0
M  V30 918 H 94.0264 0.340214 -0.653776 0
M  V30 919 H 96.6684 0.20824 -1.88855 0
M  V30 920 H 94.8184 2.39673 -3.0576 0
M  V30 921 H 96.4904 0.294206 -4.60361 0
M  V30 922 H 94.7334 0.207368 -4.33304 0
M  V30 923 H 95.4044 1.51923 -5.30682 0
M  V30 924 H 97.8804 2.22724 -3.51473 0
M  V30 925 H 96.7564 3.30358 -4.38355 0
M  V30 926 H 97.0174 3.53023 -2.66134 0
M  V30 927 N 96.0765 1.50051 0.48192 0
M  V30 928 C 97.0395 1.67584 1.5636 0
M  V30 929 C 98.0395 0.546894 1.51214 0
M  V30 930 O 99.2295 0.813725 1.54026 0
M  V30 931 C 96.3615 1.691 2.96003 0
M  V30 932 H 97.5545 2.64078 1.42136 0
M  V30 933 H 95.1075 1.39369 0.707533 0
M  V30 934 H 95.8425 0.742589 3.15684 0
M  V30 935 H 95.6275 2.51105 3.01146 0
M  V30 936 H 97.1175 1.84656 3.74556 0
M  V30 937 N 97.5546 -0.734337 1.39446 0
M  V30 938 C 98.4866 -1.85861 1.34121 0
M  V30 939 C 99.4996 -1.60871 0.249864 0
M  V30 940 O 100.689 -1.71093 0.508865 0
M  V30 941 C 97.7886 -3.21899 1.05991 0
M  V30 942 C 96.9616 -3.74239 2.26415 0
M  V30 943 C 96.0206 -4.88841 1.94733 0
M  V30 944 O 95.0466 -5.02468 2.67422 0
M  V30 945 N 96.2486 -5.73261 0.913884 0
M  V30 946 H 99.0136 -1.90934 2.31007 0
M  V30 947 H 96.5746 -0.915102 1.33557 0
M  V30 948 H 98.5666 -3.96136 0.828147 0
M  V30 949 H 97.1366 -3.12091 0.178361 0
M  V30 950 H 96.3566 -2.91347 2.65539 0
M  V30 951 H 97.6446 -4.05942 3.06738 0
M  V30 952 H 97.0426 -5.64842 0.311476 0
M  V30 953 H 95.5996 -6.47563 0.742015 0
M  V30 954 N 99.0327 -1.24633 -0.964593 0
M  V30 955 C 99.9427 -1.05859 -2.09359 0
M  V30 956 C 100.959 0.00148855 -1.74 0
M  V30 957 O 102.135 -0.197346 -2.00431 0
M  V30 958 C 99.1997 -0.668879 -3.40187 0
M  V30 959 C 98.2607 -1.80578 -3.89474 0
M  V30 960 C 97.4937 -1.43457 -5.14058 0
M  V30 961 O 97.7167 -0.325775 -5.69469 0
M  V30 962 O 96.6507 -2.2613 -5.57807 0
M  V30 963 H 100.477 -2.00516 -2.28094 0
M  V30 964 H 98.0617 -1.03481 -1.0776 0
M  V30 965 H 99.9437 -0.463211 -4.18846 0
M  V30 966 H 98.6187 0.248536 -3.22744 0
M  V30 967 H 97.5257 -2.06623 -3.11862 0
M  V30 968 H 98.8587 -2.70208 -4.11398 0
M  V30 969 N 100.511 1.16574 -1.06058 0
M  V30 970 C 101.441 2.23057 -0.690488 0
M  V30 971 C 102.422 1.67141 0.315901 0
M  V30 972 O 103.607 1.93253 0.191556 0
M  V30 973 C 100.737 3.47222 -0.073625 0
M  V30 974 C 99.6908 4.16016 -1.00573 0
M  V30 975 C 99.0168 5.34104 -0.252289 0
M  V30 976 C 100.317 4.67264 -2.33371 0
M  V30 977 H 102.011 2.54271 -1.58072 0
M  V30 978 H 99.5568 1.22218 -0.76149 0
M  V30 979 H 101.51 4.20939 0.19714 0
M  V30 980 H 100.234 3.15302 0.85161 0
M  V30 981 H 98.8928 3.44223 -1.2612 0
M  V30 982 H 98.5408 4.98437 0.675988 0
M  V30 983 H 98.2408 5.81072 -0.873455 0
M  V30 984 H 99.7648 6.10599 0.0109857 0
M  V30 985 H 101.179 5.32573 -2.12223 0
M  V30 986 H 99.5758 5.24843 -2.90963 0
M  V30 987 H 100.646 3.83602 -2.96611 0
M  V30 988 N 101.989 0.842826 1.3317 0
M  V30 989 C 102.952 0.284065 2.27433 0
M  V30 990 C 103.952 -0.54948 1.5112 0
M  V30 991 O 105.142 -0.362699 1.70382 0
M  V30 992 C 102.274 -0.599384 3.35589 0
M  V30 993 H 103.467 1.11589 2.78366 0
M  V30 994 H 101.02 0.616221 1.4364 0
M  V30 995 H 101.755 -1.45349 2.89904 0
M  V30 996 H 101.54 -0.00291266 3.921 0
M  V30 997 H 103.03 -0.983488 4.05854 0
M  V30 998 N 103.467 -1.45747 0.599634 0
M  V30 999 C 104.883 -1.57424 0.26264 0
M  V30 1000 C 105.083 -1.59222 -1.23493 0
M  V30 1001 O 104.139 -1.51825 -2.01756 0
M  V30 1002 C 105.452 -2.86061 0.926795 0
M  V30 1003 C 107 -2.99722 0.901967 0
M  V30 1004 C 107.475 -4.31119 1.54598 0
M  V30 1005 N 108.966 -4.37858 1.5111 0
M  V30 1006 C 109.701 -5.3818 1.97863 0
M  V30 1007 N 109.197 -6.45083 2.52666 0
M  V30 1008 N 110.99 -5.29487 1.88679 0
M  V30 1009 H 103.141 -1.42823 1.57211 0
M  V30 1010 H 105.404 -0.68235 0.658105 0
M  V30 1011 H 105.11 -2.90605 1.98095 0
M  V30 1012 H 104.984 -3.74563 0.445238 0
M  V30 1013 H 107.371 -2.9475 -0.143617 0
M  V30 1014 H 107.452 -2.12652 1.42171 0
M  V30 1015 H 107.096 -4.36849 2.59085 0
M  V30 1016 H 107.026 -5.16992 1.00132 0
M  V30 1017 H 109.517 -3.61209 1.11068 0
M  V30 1018 H 109.83 -7.17869 2.86155 0
M  V30 1019 H 108.175 -6.45856 2.56701 0
M  V30 1020 H 111.366 -4.44877 1.4561 0
M  V30 1021 H 111.539 -6.07524 2.25429 0
M  V30 1022 N 104.945 -0.338344 -1.53925 0
M  V30 1023 C 105.893 0.536231 -2.26335 0
M  V30 1024 C 106.887 1.1063 -1.28286 0
M  V30 1025 O 108.093 1.05264 -1.46012 0
M  V30 1026 H 104.468 0.191602 -0.727181 0
M  V30 1027 H 106.439 -0.0965747 -2.98244 0
M  V30 1028 C 105.188 1.67803 -3.04528 0
M  V30 1029 H 104.511 1.24864 -3.79801 0
M  V30 1030 H 105.951 2.26526 -3.58416 0
M  V30 1031 C 104.41 2.60439 -2.13712 0
M  V30 1032 O 104.94 3.6255 -1.72975 0
M  V30 1033 N 103.146 2.29006 -1.78898 0
M  V30 1034 H 102.693 1.46011 -2.12223 0
M  V30 1035 H 102.651 2.91248 -1.18416 0
M  V30 1036 N 106.423 1.57458 -0.0668435 0
M  V30 1037 C 107.373 2.0896 0.912119 0
M  V30 1038 C 108.357 0.998186 1.26195 0
M  V30 1039 O 109.549 1.26133 1.24175 0
M  V30 1040 C 106.678 2.6508 2.18145 0
M  V30 1041 C 105.764 3.81218 1.85832 0
M  V30 1042 N 106.155 4.90378 1.23948 0
M  V30 1043 C 104.453 3.9042 2.15612 0
M  V30 1044 C 105.154 5.71279 1.09616 0
M  V30 1045 N 104.13 5.19389 1.60423 0
M  V30 1046 H 107.932 2.90749 0.42924 0
M  V30 1047 H 105.446 1.6182 0.137184 0
M  V30 1048 H 107.443 3.0029 2.89192 0
M  V30 1049 H 106.103 1.84736 2.67025 0
M  V30 1050 H 107.114 5.09847 0.909731 0
M  V30 1051 H 103.791 3.21043 2.66903 0
M  V30 1052 H 105.181 6.69085 0.614425 0
M  V30 1053 N 107.901 -0.206675 1.56239 0
M  V30 1054 C 109.178 -0.954051 1.70755 0
M  V30 1055 C 109.558 -2.01841 0.618353 0
M  V30 1056 O 108.906 -2.25444 -0.372434 0
M  V30 1057 C 109.116 -1.551 3.12642 0
M  V30 1058 C 110.464 -2.03757 3.72516 0
M  V30 1059 O 111.488 -1.64965 3.15698 0
M  V30 1060 O 110.347 -2.75103 4.72208 0
M  V30 1061 H 107.441 -0.446636 0.696021 0
M  V30 1062 H 109.987 -0.197283 1.68549 0
M  V30 1063 H 108.759 -0.783212 3.83382 0
M  V30 1064 H 108.382 -2.37291 3.19028 0
M  V30 1065 N 109.379 -1.50304 -0.473955 0
M  V30 1066 C 110.342 -1.6841 -1.55469 0
M  V30 1067 C 111.342 -0.554905 -1.50922 0
M  V30 1068 O 112.532 -0.821882 -1.53593 0
M  V30 1069 C 109.664 -1.70667 -2.95102 0
M  V30 1070 H 110.857 -2.64828 -1.40733 0
M  V30 1071 H 108.41 -1.39742 -0.700132 0
M  V30 1072 H 109.145 -0.75932 -3.15285 0
M  V30 1073 H 108.93 -2.52698 -2.9981 0
M  V30 1074 H 110.42 -1.8664 -3.73571 0
M  V30 1075 N 110.857 0.726932 -1.39834 0
M  V30 1076 C 112.103 1.48884 -1.377 0
M  V30 1077 C 112.436 1.94185 0.0244852 0
M  V30 1078 O 111.711 1.67361 0.990986 0
M  V30 1079 C 111.994 2.72288 -2.3565 0
M  V30 1080 C 111.847 2.32956 -3.84775 0
M  V30 1081 C 113.166 3.74414 -2.31306 0
M  V30 1082 H 110.285 0.540062 -0.5015 0
M  V30 1083 H 112.927 0.830547 -1.70886 0
M  V30 1084 H 111.077 3.28457 -2.07481 0
M  V30 1085 H 112.749 1.82356 -4.23726 0
M  V30 1086 H 110.992 1.65088 -4.01159 0
M  V30 1087 H 111.663 3.21362 -4.4881 0
M  V30 1088 H 114.139 3.27849 -2.56231 0
M  V30 1089 H 113.015 4.58414 -3.01907 0
M  V30 1090 H 113.276 4.21909 -1.32081 0
M  V30 1091 N 112.336 1.25143 0.95797 0
M  V30 1092 C 113.582 1.09855 1.70469 0
M  V30 1093 C 113.915 -0.360187 1.90831 0
M  V30 1094 O 113.19 -1.26568 1.47685 0
M  V30 1095 C 113.473 1.8497 3.08963 0
M  V30 1096 C 113.326 3.38652 2.96032 0
M  V30 1097 C 114.645 1.63016 4.08795 0
M  V30 1098 H 111.764 0.400465 0.618706 0
M  V30 1099 H 114.406 1.53933 1.11376 0
M  V30 1100 H 112.556 1.47505 3.59409 0
M  V30 1101 H 114.228 3.85772 2.52938 0
M  V30 1102 H 112.471 3.66534 2.32025 0
M  V30 1103 H 113.142 3.8642 3.94187 0
M  V30 1104 H 115.618 1.95625 3.67247 0
M  V30 1105 H 114.494 2.18015 5.03747 0
M  V30 1106 H 114.755 0.570692 4.38401 0
M  V30 1107 N 113.814 -1.1601 1.06675 0
M  V30 1108 C 114.777 -2.18724 0.685001 0
M  V30 1109 C 115.777 -1.58496 -0.271246 0
M  V30 1110 O 116.967 -1.74119 -0.0531156 0
M  V30 1111 C 114.099 -3.40899 0.00853648 0
M  V30 1112 H 115.292 -2.54011 1.59431 0
M  V30 1113 H 112.845 -1.30352 0.862441 0
M  V30 1114 H 113.58 -3.11173 -0.913337 0
M  V30 1115 H 113.365 -3.8587 0.696204 0
M  V30 1116 H 114.855 -4.16886 -0.24414 0
M  V30 1117 N 115.292 -0.849877 -1.32721 0
M  V30 1118 C 116.222 -0.306308 -2.31482 0
M  V30 1119 C 117.203 0.591952 -1.59468 0
M  V30 1120 O 118.388 0.513199 -1.87296 0
M  V30 1121 C 115.518 0.510204 -3.43532 0
M  V30 1122 C 114.472 -0.293209 -4.26994 0
M  V30 1123 C 113.798 0.647743 -5.30762 0
M  V30 1124 C 115.098 -1.51634 -4.99804 0
M  V30 1125 H 116.792 -1.13153 -2.77195 0
M  V30 1126 H 114.338 -0.545553 -1.33266 0
M  V30 1127 H 116.291 0.900856 -4.11658 0
M  V30 1128 H 115.015 1.36874 -2.96535 0
M  V30 1129 H 113.674 -0.665555 -3.60508 0
M  V30 1130 H 113.322 1.50299 -4.8002 0
M  V30 1131 H 113.022 0.11422 -5.87489 0
M  V30 1132 H 114.546 1.03567 -6.01753 0
M  V30 1133 H 115.96 -1.19824 -5.60638 0
M  V30 1134 H 114.357 -1.98745 -5.66234 0
M  V30 1135 H 115.427 -2.28018 -4.27943 0
M  V30 1136 N 116.77 1.45427 -0.607355 0
M  V30 1137 C 118.018 2.01841 -0.102253 0
M  V30 1138 C 118.339 1.47832 1.27164 0
M  V30 1139 O 117.609 0.672497 1.83995 0
M  V30 1140 H 116.189 0.746188 -0.0348101 0
M  V30 1141 H 118.851 1.78229 -0.7887 0
M  V30 1142 H 117.947 3.12057 -0.0518585 0
M  V30 1143 N 118.248 0.346503 1.53744 0
M  V30 1144 C 119.494 -0.249473 2.0126 0
M  V30 1145 C 119.827 -1.49965 1.23386 0
M  V30 1146 O 119.102 -1.91811 0.32229 0
M  V30 1147 C 119.385 -0.560643 3.55709 0
M  V30 1148 C 119.238 0.701836 4.44291 0
M  V30 1149 C 120.557 -1.36905 4.18264 0
M  V30 1150 H 117.676 -0.0891987 0.731582 0
M  V30 1151 H 120.318 0.467624 1.84156 0
M  V30 1152 H 118.468 -1.17156 3.70414 0
M  V30 1153 H 120.14 1.33974 4.41417 0
M  V30 1154 H 118.383 1.32612 4.13033 0
M  V30 1155 H 119.054 0.43933 5.50249 0
M  V30 1156 H 121.53 -0.852448 4.07275 0
M  V30 1157 H 120.406 -1.55553 5.26398 0
M  V30 1158 H 120.667 -2.37203 3.73078 0
M  V30 1159 N 119.726 -1.57421 0.075193 0
M  V30 1160 C 120.972 -1.93905 -0.594025 0
M  V30 1161 C 121.305 -0.955701 -1.69056 0
M  V30 1162 O 120.58 0.0145373 -1.94495 0
M  V30 1163 C 120.863 -3.40638 -1.1678 0
M  V30 1164 C 120.716 -4.49733 -0.0776792 0
M  V30 1165 C 122.035 -3.88259 -2.07228 0
M  V30 1166 H 119.154 -0.705105 -0.214466 0
M  V30 1167 H 121.796 -1.8947 0.141854 0
M  V30 1168 H 119.946 -3.44549 -1.79494 0
M  V30 1169 H 121.618 -4.57942 0.555573 0
M  V30 1170 H 119.861 -4.29751 0.591286 0
M  V30 1171 H 120.532 -5.49549 -0.519603 0
M  V30 1172 H 123.008 -3.86376 -1.54445 0
M  V30 1173 H 121.884 -4.91533 -2.44308 0
M  V30 1174 H 122.145 -3.26396 -2.98191 0
M  V30 1175 N 121.204 0.198386 -1.56346 0
M  V30 1176 C 122.453 0.917451 -1.79627 0
M  V30 1177 C 122.766 1.8456 -0.64784 0
M  V30 1178 O 123.972 2.60504 -0.764859 0
M  V30 1179 C 122.428 1.68175 -3.18191 0
M  V30 1180 C 122.036 0.798589 -4.40825 0
M  V30 1181 C 123.78 2.39065 -3.50782 0
M  V30 1182 C 121.687 1.56157 -5.70411 0
M  V30 1183 H 120.617 0.346317 -0.669762 0
M  V30 1184 H 123.268 0.170801 -1.82703 0
M  V30 1185 H 121.65 2.47216 -3.09354 0
M  V30 1186 H 122.824 0.0470665 -4.60776 0
M  V30 1187 H 121.139 0.200686 -4.15916 0
M  V30 1188 H 123.736 2.96692 -4.44835 0
M  V30 1189 H 124.079 3.13091 -2.74371 0
M  V30 1190 H 124.612 1.66993 -3.61052 0
M  V30 1191 H 121.351 0.864142 -6.49779 0
M  V30 1192 H 120.871 2.2871 -5.54483 0
M  V30 1193 H 122.55 2.11622 -6.11412 0
M  V30 1194 N 122.682 1.50554 0.465978 0
M  V30 1195 C 124.098 1.38093 0.800154 0
M  V30 1196 C 124.298 0.440988 1.96615 0
M  V30 1197 O 123.354 -0.114499 2.5224 0
M  V30 1198 C 124.667 2.79565 1.10742 0
M  V30 1199 C 126.215 2.88516 1.21357 0
M  V30 1200 C 126.69 4.30833 1.55393 0
M  V30 1201 N 128.181 4.33807 1.62375 0
M  V30 1202 C 128.916 5.40927 1.90225 0
M  V30 1203 N 128.412 6.58247 2.16062 0
M  V30 1204 N 130.205 5.28376 1.9177 0
M  V30 1205 H 122.356 2.10237 -0.302366 0
M  V30 1206 H 124.619 0.945203 -0.0727746 0
M  V30 1207 H 124.325 3.50208 0.323661 0
M  V30 1208 H 124.199 3.17125 2.04234 0
M  V30 1209 H 126.586 2.1809 1.98799 0
M  V30 1210 H 126.667 2.54492 0.258321 0
M  V30 1211 H 126.311 5.01799 0.784889 0
M  V30 1212 H 126.241 4.62347 2.52076 0
M  V30 1213 H 128.732 3.49212 1.44427 0
M  V30 1214 H 129.045 7.3569 2.36601 0
M  V30 1215 H 127.39 6.61413 2.13444 0
M  V30 1216 H 130.581 4.35715 1.71085 0
M  V30 1217 H 130.754 6.11944 2.13139 0
M  V30 1218 N 124.16 -0.719506 1.40217 0
M  V30 1219 C 125.408 -1.47641 1.3801 0
M  V30 1220 C 125.729 -1.94992 -0.018145 0
M  V30 1221 O 124.999 -1.70073 -0.972207 0
M  V30 1222 H 123.579 -0.547744 0.507923 0
M  V30 1223 H 126.241 -0.853187 1.75233 0
M  V30 1224 H 125.337 -2.35112 2.05253 0
M  V30 1225 N 125.638 -1.25649 -0.95132 0
M  V30 1226 C 126.57 -1.02112 -2.05197 0
M  V30 1227 C 127.583 0.0150571 -1.62793 0
M  V30 1228 O 128.772 -0.223874 -1.77091 0
M  V30 1229 C 125.872 -0.522361 -3.3485 0
M  V30 1230 C 125.045 -1.62546 -4.06076 0
M  V30 1231 C 124.104 -1.12649 -5.14001 0
M  V30 1232 O 123.13 -1.82156 -5.39266 0
M  V30 1233 N 124.332 0.03047 -5.80492 0
M  V30 1234 H 127.097 -1.96885 -2.25957 0
M  V30 1235 H 124.658 -1.16899 -1.1201 0
M  V30 1236 H 126.65 -0.172961 -4.0433 0
M  V30 1237 H 125.22 0.33151 -3.10837 0
M  V30 1238 H 124.44 -2.14628 -3.30649 0
M  V30 1239 H 125.728 -2.36644 -4.50419 0
M  V30 1240 H 125.126 0.611169 -5.62389 0
M  V30 1241 H 123.683 0.320875 -6.5101 0
M  V30 1242 N 127.117 1.15442 -1.07289 0
M  V30 1243 C 128.345 1.90096 -0.81676 0
M  V30 1244 C 128.76 1.7798 0.629966 0
M  V30 1245 O 128.117 1.1313 1.43206 0
M  V30 1246 C 128.168 3.40466 -1.21512 0
M  V30 1247 O 127.889 3.52232 -2.60508 0
M  V30 1248 C 129.39 4.32145 -0.988198 0
M  V30 1249 H 126.61 0.602495 -0.295366 0
M  V30 1250 H 129.154 1.4627 -1.42918 0
M  V30 1251 H 127.309 3.81958 -0.647039 0
M  V30 1252 H 127.723 4.45549 -2.76742 0
M  V30 1253 H 129.197 5.36072 -1.31645 0
M  V30 1254 H 129.674 4.39135 0.0755063 0
M  V30 1255 H 130.28 3.96395 -1.54115 0
M  V30 1256 N 128.595 0.856903 1.32268 0
M  V30 1257 C 130.006 0.515711 1.79436 0
M  V30 1258 C 130.357 -0.966586 1.70738 0
M  V30 1259 O 129.482 -1.75409 1.26731 0
M  V30 1260 C 130.077 0.929335 3.25805 0
M  V30 1261 C 128.636 0.640006 3.70919 0
M  V30 1262 C 127.783 1.12784 2.53328 0
M  V30 1263 H 130.734 1.04389 1.19535 0
M  V30 1264 H 130.755 0.246633 3.797 0
M  V30 1265 H 130.267 2.00821 3.32103 0
M  V30 1266 H 128.368 -0.428051 3.70133 0
M  V30 1267 H 128.481 1.20788 4.63624 0
M  V30 1268 H 126.845 0.548033 2.48734 0
M  V30 1269 H 127.628 2.21387 2.62379 0
M  V30 1270 N 130.073 -1.45103 0.615059 0
M  V30 1271 C 131.023 -2.27679 -0.120966 0
M  V30 1272 C 132.007 -1.3775 -0.831491 0
M  V30 1273 O 133.199 -1.61683 -0.720249 0
M  V30 1274 C 130.328 -3.24767 -1.1127 0
M  V30 1275 C 129.414 -4.22184 -0.402627 0
M  V30 1276 N 129.805 -5.02692 0.559884 0
M  V30 1277 C 128.103 -4.4125 -0.649202 0
M  V30 1278 C 128.804 -5.73421 0.977942 0
M  V30 1279 N 127.78 -5.42657 0.320104 0
M  V30 1280 H 131.582 -2.87325 0.618181 0
M  V30 1281 H 129.096 -1.56345 0.439304 0
M  V30 1282 H 131.093 -3.82666 -1.65446 0
M  V30 1283 H 129.753 -2.66682 -1.85232 0
M  V30 1284 H 130.764 -5.09354 0.936976 0
M  V30 1285 H 127.441 -3.9428 -1.37293 0
M  V30 1286 H 128.831 -6.48107 1.77222 0
M  V30 1287 N 131.551 -0.354651 -1.53558 0
M  V30 1288 C 132.798 0.238443 -2.01091 0
M  V30 1289 C 133.126 1.49663 -1.24222 0
M  V30 1290 O 132.381 1.93049 -0.321003 0
M  V30 1291 C 132.68 0.587121 -3.52545 0
M  V30 1292 C 132.346 -0.575472 -4.47213 0
M  V30 1293 C 131.008 -0.894497 -4.72813 0
M  V30 1294 C 133.36 -1.35489 -5.03281 0
M  V30 1295 C 130.688 -1.99511 -5.51736 0
M  V30 1296 C 133.04 -2.44583 -5.83405 0
M  V30 1297 C 131.704 -2.77033 -6.07296 0
M  V30 1298 H 130.974 0.0872526 -0.735845 0
M  V30 1299 H 133.621 -0.484859 -1.8526 0
M  V30 1300 H 131.926 1.39129 -3.66265 0
M  V30 1301 H 133.623 1.05809 -3.86789 0
M  V30 1302 H 130.213 -0.316774 -4.27428 0
M  V30 1303 H 134.397 -1.12167 -4.83459 0
M  V30 1304 H 129.653 -2.25063 -5.68469 0
M  V30 1305 H 133.827 -3.05401 -6.25862 0
M  V30 1306 H 131.454 -3.6244 -6.68237 0
M  V30 1307 N 133.029 1.57378 -0.0835403 0
M  V30 1308 C 134.306 1.85363 0.624507 0
M  V30 1309 C 134.686 0.978239 1.87066 0
M  V30 1310 O 134.034 0.0475908 2.2845 0
M  V30 1311 C 134.244 3.35795 0.950947 0
M  V30 1312 C 135.592 4.03581 1.31939 0
M  V30 1313 O 136.616 3.40609 1.04232 0
M  V30 1314 O 135.475 5.14672 1.83779 0
M  V30 1315 H 132.569 0.766162 0.311329 0
M  V30 1316 H 135.115 1.69307 -0.115362 0
M  V30 1317 H 133.887 3.91244 0.0663899 0
M  V30 1318 H 133.51 3.57154 1.74719 0
M  V30 1319 N 134.507 -0.190092 1.56449 0
M  V30 1320 C 135.737 -0.92443 1.84764 0
M  V30 1321 C 136.145 -1.77146 0.664529 0
M  V30 1322 O 135.488 -1.79812 -0.375957 0
M  V30 1323 C 135.55 -1.86651 3.07248 0
M  V30 1324 C 135.214 -1.20094 4.40938 0
M  V30 1325 C 136.211 -0.575445 5.16706 0
M  V30 1326 C 133.896 -1.2033 4.87674 0
M  V30 1327 C 135.89 0.0388111 6.37388 0
M  V30 1328 C 133.577 -0.585214 6.08291 0
M  V30 1329 C 134.575 0.0347578 6.82991 0
M  V30 1330 O 134.263 0.643147 8.01323 0
M  V30 1331 H 133.995 -0.274974 0.617548 0
M  V30 1332 H 136.549 -0.200788 2.04416 0
M  V30 1333 H 134.779 -2.62998 2.83494 0
M  V30 1334 H 136.468 -2.46907 3.22167 0
M  V30 1335 H 137.234 -0.565728 4.81689 0
M  V30 1336 H 133.113 -1.67526 4.29484 0
M  V30 1337 H 136.657 0.523329 6.95634 0
M  V30 1338 H 132.554 -0.592451 6.42775 0
M  V30 1339 H 133.322 0.540545 8.16713 0
M  V30 1340 N 135.985 -1.50799 -0.457987 0
M  V30 1341 C 137.231 -1.62683 -1.21088 0
M  V30 1342 C 137.564 -0.332268 -1.91336 0
M  V30 1343 O 136.839 0.667043 -1.82704 0
M  V30 1344 C 137.122 -2.81615 -2.24422 0
M  V30 1345 C 136.975 -4.20989 -1.58392 0
M  V30 1346 C 138.294 -2.96085 -3.2561 0
M  V30 1347 H 135.413 -0.592087 -0.438864 0
M  V30 1348 H 138.055 -1.83225 -0.50286 0
M  V30 1349 H 136.205 -2.64231 -2.84806 0
M  V30 1350 H 137.877 -4.49994 -1.01504 0
M  V30 1351 H 136.12 -4.24641 -0.886704 0
M  V30 1352 H 136.791 -5.0016 -2.33547 0
M  V30 1353 H 139.267 -3.12042 -2.75262 0
M  V30 1354 H 138.143 -3.80902 -3.95228 0
M  V30 1355 H 138.404 -2.0726 -3.90507 0
M  V30 1356 N 137.463 0.71206 -1.40597 0
M  V30 1357 C 138.703 1.48438 -1.40519 0
M  V30 1358 C 139.067 1.91998 -0.00767611 0
M  V30 1359 O 140.268 2.6854 0.118239 0
M  V30 1360 C 138.539 2.67514 -2.37004 0
M  V30 1361 S 140.098 3.56875 -2.55315 0
M  V30 1362 H 136.916 0.507457 -0.498005 0
M  V30 1363 H 139.518 0.832355 -1.76896 0
M  V30 1364 H 138.222 2.33689 -3.37368 0
M  V30 1365 H 137.753 3.37625 -2.01923 0
M  V30 1366 H 139.768 4.62081 -1.8082 0
M  V30 1367 N 138.941 1.26152 0.944643 0
M  V30 1368 C 140.218 1.02247 1.66748 0
M  V30 1369 C 140.598 -0.448202 2.06287 0
M  V30 1370 O 139.946 -1.42779 1.78399 0
M  V30 1371 C 140.156 1.96788 2.88228 0
M  V30 1372 C 141.504 2.25201 3.59958 0
M  V30 1373 O 142.528 1.94626 2.98327 0
M  V30 1374 O 141.387 2.77242 4.70956 0
M  V30 1375 H 138.481 0.388517 0.730057 0
M  V30 1376 H 141.027 1.37348 0.99668 0
M  V30 1377 H 139.799 2.96047 2.55875 0
M  V30 1378 H 139.422 1.62145 3.63035 0
M  V30 1379 N 140.419 -1.14872 1.07899 0
M  V30 1380 C 141.382 -2.17986 0.708161 0
M  V30 1381 C 142.382 -1.58775 -0.25442 0
M  V30 1382 O 143.572 -1.74166 -0.034645 0
M  V30 1383 C 140.704 -3.40871 0.0446929 0
M  V30 1384 H 141.897 -2.52306 1.62116 0
M  V30 1385 H 139.45 -1.2943 0.876218 0
M  V30 1386 H 140.185 -3.12124 -0.880281 0
M  V30 1387 H 139.97 -3.8511 0.737091 0
M  V30 1388 H 141.46 -4.17121 -0.19991 0
M  V30 1389 N 141.898 -0.863906 -1.31812 0
M  V30 1390 C 143.144 -0.472535 -1.97218 0
M  V30 1391 C 143.477 0.971394 -1.68159 0
M  V30 1392 O 142.752 1.68309 -0.974798 0
M  V30 1393 C 143.035 -0.723054 -3.52766 0
M  V30 1394 C 142.888 -2.21608 -3.91421 0
M  V30 1395 C 144.207 -0.185522 -4.39709 0
M  V30 1396 H 141.326 -0.173158 -0.71637 0
M  V30 1397 H 143.968 -1.08403 -1.56041 0
M  V30 1398 H 142.118 -0.202577 -3.87971 0
M  V30 1399 H 143.79 -2.80334 -3.66347 0
M  V30 1400 H 142.033 -2.691 -3.40246 0
M  V30 1401 H 142.704 -2.34203 -4.99853 0
M  V30 1402 H 145.18 -0.630726 -4.11292 0
M  V30 1403 H 144.056 -0.390306 -5.47511 0
M  V30 1404 H 144.317 0.912229 -4.32586 0
M  V30 1405 N 143.376 1.44774 -0.622745 0
M  V30 1406 C 144.604 2.06487 -0.130722 0
M  V30 1407 C 145.019 1.46476 1.19123 0
M  V30 1408 O 144.376 0.584502 1.72887 0
M  V30 1409 C 144.427 3.615 -0.000807207 0
M  V30 1410 O 144.148 4.19274 -1.27048 0
M  V30 1411 C 145.649 4.40229 0.520898 0
M  V30 1412 H 142.869 0.666704 -0.0758106 0
M  V30 1413 H 145.413 1.85779 -0.854774 0
M  V30 1414 H 143.568 3.81498 0.673643 0
M  V30 1415 H 143.982 5.12622 -1.1099 0
M  V30 1416 H 145.456 5.49144 0.560838 0
M  V30 1417 H 145.933 4.1108 1.54627 0
M  V30 1418 H 146.539 4.25131 -0.120018 0
M  V30 1419 N 144.854 0.36279 1.53368 0
M  V30 1420 C 145.786 -0.519668 2.23231 0
M  V30 1421 C 146.799 -1.04844 1.24546 0
M  V30 1422 O 147.988 -0.955296 1.50786 0
M  V30 1423 C 145.088 -1.72995 2.9142 0
M  V30 1424 C 144.261 -1.33316 4.16588 0
M  V30 1425 C 143.32 -2.40521 4.68013 0
M  V30 1426 O 142.346 -2.03027 5.3176 0
M  V30 1427 N 143.548 -3.72065 4.45587 0
M  V30 1428 H 146.313 0.078751 2.99597 0
M  V30 1429 H 143.874 0.187833 1.60807 0
M  V30 1430 H 145.866 -2.44184 3.22733 0
M  V30 1431 H 144.436 -2.2353 2.18525 0
M  V30 1432 H 143.656 -0.451236 3.91609 0
M  V30 1433 H 144.944 -1.04432 4.97967 0
M  V30 1434 H 144.342 -4.05304 3.94646 0
M  V30 1435 H 142.899 -4.39366 4.81457 0
M  V30 1436 N 146.332 -1.57332 0.0918853 0
M  V30 1437 C 147.58 -1.93853 -0.571446 0
M  V30 1438 C 147.901 -0.974212 -1.6892 0
M  V30 1439 O 147.171 -0.0257254 -1.95883 0
M  V30 1440 H 145.751 -0.715666 -0.214082 0
M  V30 1441 H 148.413 -1.94287 0.154464 0
M  V30 1442 H 147.509 -2.96191 -0.983729 0
M  V30 1443 N 147.81 0.181792 -1.56548 0
M  V30 1444 C 148.74 1.22765 -1.98623 0
M  V30 1445 C 149.721 1.46747 -0.860189 0
M  V30 1446 O 150.906 1.58259 -1.12551 0
M  V30 1447 C 148.036 2.56894 -2.33715 0
M  V30 1448 C 146.99 2.475 -3.49182 0
M  V30 1449 C 146.316 3.86023 -3.69986 0
M  V30 1450 C 147.616 1.98866 -4.82959 0
M  V30 1451 H 149.31 0.877942 -2.86239 0
M  V30 1452 H 146.856 0.42088 -1.37712 0
M  V30 1453 H 148.809 3.30253 -2.61746 0
M  V30 1454 H 147.533 2.93632 -1.42997 0
M  V30 1455 H 146.192 1.76596 -3.21262 0
M  V30 1456 H 145.84 4.20136 -2.76576 0
M  V30 1457 H 145.54 3.80609 -4.47672 0
M  V30 1458 H 147.064 4.60984 -4.00407 0
M  V30 1459 H 148.478 2.61992 -5.09934 0
M  V30 1460 H 146.875 2.04424 -5.64208 0
M  V30 1461 H 147.945 0.942465 -4.75653 0
M  V30 1462 N 149.288 1.51039 0.449983 0
M  V30 1463 C 150.516 1.66869 1.2232 0
M  V30 1464 C 150.931 0.360727 1.85322 0
M  V30 1465 O 150.288 -0.659531 1.70166 0
M  V30 1466 C 150.339 2.77524 2.31652 0
M  V30 1467 O 150.06 4.03252 1.7123 0
M  V30 1468 C 151.561 3.04512 3.2216 0
M  V30 1469 H 148.781 0.560326 0.369155 0
M  V30 1470 H 151.325 1.97385 0.534719 0
M  V30 1471 H 149.48 2.49642 2.96239 0
M  V30 1472 H 149.894 4.64609 2.43389 0
M  V30 1473 H 151.368 3.85551 3.95038 0
M  V30 1474 H 151.845 2.16415 3.8218 0
M  V30 1475 H 152.451 3.34005 2.63288 0
M  V30 1476 N 150.766 -0.704594 1.40972 0
M  V30 1477 C 152.182 -1.01406 1.23244 0
M  V30 1478 C 152.382 -2.01169 0.115399 0
M  V30 1479 O 151.438 -2.47021 -0.523147 0
M  V30 1480 C 152.751 -1.54728 2.57836 0
M  V30 1481 C 154.299 -1.66658 2.64942 0
M  V30 1482 C 154.774 -2.23383 3.9983 0
M  V30 1483 N 156.265 -2.30756 4.01629 0
M  V30 1484 C 157 -2.75655 5.02794 0
M  V30 1485 N 156.496 -3.20225 6.14352 0
M  V30 1486 N 158.289 -2.75138 4.90159 0
M  V30 1487 H 150.44 -0.0435285 2.12355 0
M  V30 1488 H 152.703 -0.0818951 0.944456 0
M  V30 1489 H 152.409 -0.888832 3.40283 0
M  V30 1490 H 152.283 -2.53084 2.79693 0
M  V30 1491 H 154.67 -2.31617 1.8286 0
M  V30 1492 H 154.751 -0.668717 2.46904 0
M  V30 1493 H 154.395 -1.59043 4.82357 0
M  V30 1494 H 154.325 -3.23904 4.15203 0
M  V30 1495 H 156.816 -1.99291 3.21079 0
M  V30 1496 H 157.129 -3.53084 6.87424 0
M  V30 1497 H 155.474 -3.18156 6.17901 0
M  V30 1498 H 158.665 -2.39661 4.02095 0
M  V30 1499 H 158.838 -3.09812 5.6914 0
M  V30 1500 N 152.244 -1.26651 -0.937939 0
M  V30 1501 C 153.49 -1.12553 -1.687 0
M  V30 1502 C 153.823 0.329782 -1.91379 0
M  V30 1503 O 153.098 1.24202 -1.4968 0
M  V30 1504 C 153.381 -1.89862 -3.05981 0
M  V30 1505 C 153.234 -3.43318 -2.90607 0
M  V30 1506 C 154.553 -1.69499 -4.0615 0
M  V30 1507 H 151.672 -0.410257 -0.612257 0
M  V30 1508 H 154.314 -1.55685 -1.08913 0
M  V30 1509 H 152.464 -1.53204 -3.57017 0
M  V30 1510 H 154.136 -3.89747 -2.46769 0
M  V30 1511 H 152.379 -3.70179 -2.26164 0
M  V30 1512 H 153.05 -3.92642 -3.8799 0
M  V30 1513 H 155.526 -2.01442 -3.64088 0
M  V30 1514 H 154.402 -2.26002 -5.00214 0
M  V30 1515 H 154.663 -0.640365 -4.37438 0
M  V30 1516 N 153.722 1.14298 -1.08507 0
M  V30 1517 C 154.947 1.8976 -0.837001 0
M  V30 1518 C 155.372 1.78097 0.605228 0
M  V30 1519 O 154.73 1.12188 1.4242 0
M  V30 1520 C 154.778 3.37685 -1.26495 0
M  V30 1521 O 153.882 4.10281 -0.417514 0
M  V30 1522 H 153.223 0.590365 -0.303917 0
M  V30 1523 H 155.753 1.44672 -1.44676 0
M  V30 1524 H 155.763 3.88501 -1.24625 0
M  V30 1525 H 154.438 3.45492 -2.31534 0
M  V30 1526 H 153.015 3.69536 -0.499722 0
M  V30 1527 N 155.201 0.870884 1.31352 0
M  V30 1528 C 156.131 0.343096 2.30966 0
M  V30 1529 C 157.112 -0.566507 1.60389 0
M  V30 1530 O 158.297 -0.483336 1.88089 0
M  V30 1531 C 155.427 -0.455487 3.443 0
M  V30 1532 C 154.381 0.361103 4.26474 0
M  V30 1533 C 153.707 -0.563221 5.31725 0
M  V30 1534 C 155.007 1.59566 4.97329 0
M  V30 1535 H 156.701 1.17548 2.75359 0
M  V30 1536 H 154.247 0.566686 1.32381 0
M  V30 1537 H 156.2 -0.83525 4.13039 0
M  V30 1538 H 154.924 -1.32139 2.98675 0
M  V30 1539 H 153.583 0.722825 3.59403 0
M  V30 1540 H 153.231 -1.42643 4.82351 0
M  V30 1541 H 152.931 -0.0207409 5.87596 0
M  V30 1542 H 154.455 -0.939808 6.03324 0
M  V30 1543 H 155.869 1.28728 5.58661 0
M  V30 1544 H 154.266 2.07728 5.63 0
M  V30 1545 H 155.336 2.34798 4.24262 0
M  V30 1546 N 156.679 -1.44442 0.630414 0
M  V30 1547 C 157.956 -1.9549 0.0655657 0
M  V30 1548 C 158.336 -1.5724 -1.40851 0
M  V30 1549 O 157.684 -0.846116 -2.12257 0
M  V30 1550 C 157.894 -3.47812 0.287691 0
M  V30 1551 C 159.242 -4.24216 0.180513 0
M  V30 1552 O 160.266 -3.55526 0.219019 0
M  V30 1553 O 159.125 -5.46434 0.0848493 0
M  V30 1554 H 156.219 -0.826688 -0.0227177 0
M  V30 1555 H 158.765 -1.54496 0.702068 0
M  V30 1556 H 157.537 -3.687 1.31056 0
M  V30 1557 H 157.16 -3.95751 -0.382984 0
M  V30 1558 N 158.157 -0.370918 -1.53173 0
M  V30 1559 C 159.382 0.220293 -2.06227 0
M  V30 1560 C 159.807 1.41243 -1.24225 0
M  V30 1561 O 159.165 1.79387 -0.262645 0
M  V30 1562 C 159.213 0.586663 -3.55796 0
M  V30 1563 O 158.317 1.68317 -3.76488 0
M  V30 1564 H 157.658 0.0308099 -0.663285 0
M  V30 1565 H 160.188 -0.533068 -1.97534 0
M  V30 1566 H 160.198 0.85617 -3.98916 0
M  V30 1567 H 158.873 -0.285013 -4.14922 0
M  V30 1568 H 157.45 1.40881 -3.45264 0
M  V30 1569 N 159.635 1.57281 -0.100228 0
M  V30 1570 C 160.86 1.99302 0.573881 0
M  V30 1571 C 161.285 0.979059 1.60611 0
M  V30 1572 O 160.643 -0.0517803 1.81226 0
M  V30 1573 C 160.691 3.40274 1.19358 0
M  V30 1574 O 159.795 3.41676 2.30935 0
M  V30 1575 H 159.136 0.647944 0.145138 0
M  V30 1576 H 161.666 2.03779 -0.183156 0
M  V30 1577 H 161.676 3.78078 1.53365 0
M  V30 1578 H 160.351 4.13594 0.437385 0
M  V30 1579 H 158.928 3.15672 1.98509 0
M  V30 1580 N 161.113 -0.173488 1.56642 0
M  V30 1581 C 162.341 -0.906095 1.86004 0
M  V30 1582 C 162.756 -1.75921 0.685355 0
M  V30 1583 O 162.113 -1.79198 -0.345578 0
M  V30 1584 C 162.164 -1.78462 3.14378 0
M  V30 1585 O 161.885 -0.965914 4.27319 0
M  V30 1586 C 163.386 -2.62707 3.57071 0
M  V30 1587 H 160.606 -0.263341 0.617165 0
M  V30 1588 H 163.15 -0.174236 2.03756 0
M  V30 1589 H 161.305 -2.46984 2.98459 0
M  V30 1590 H 161.719 -1.56655 5.00559 0
M  V30 1591 H 163.193 -3.19969 4.49804 0
M  V30 1592 H 163.67 -3.37472 2.81086 0
M  V30 1593 H 164.276 -1.99521 3.75595 0
M  V30 1594 N 162.591 -1.51276 -0.441967 0
M  V30 1595 C 164.002 -1.56244 -1.02199 0
M  V30 1596 C 164.353 -0.383149 -1.92422 0
M  V30 1597 O 163.478 0.500613 -2.1053 0
M  V30 1598 C 164.073 -2.83162 -1.86024 0
M  V30 1599 C 162.632 -2.90716 -2.39084 0
M  V30 1600 C 161.779 -2.50858 -1.18175 0
M  V30 1601 H 164.73 -1.5712 -0.223416 0
M  V30 1602 H 164.751 -2.66663 -2.71425 0
M  V30 1603 H 164.263 -3.68974 -1.20331 0
M  V30 1604 H 162.364 -2.09323 -3.08244 0
M  V30 1605 H 162.477 -3.94266 -2.72198 0
M  V30 1606 H 160.841 -2.03951 -1.52565 0
M  V30 1607 H 161.624 -3.3901 -0.541001 0
M  V30 1608 N 164.069 0.697108 -1.41344 0
M  V30 1609 C 165.318 1.45279 -1.39918 0
M  V30 1610 C 165.631 1.95597 -0.0109624 0
M  V30 1611 O 166.837 2.71208 0.125919 0
M  V30 1612 C 165.293 2.62695 -2.46007 0
M  V30 1613 C 164.901 2.19169 -3.90729 0
M  V30 1614 C 166.645 3.40336 -2.53715 0
M  V30 1615 C 164.552 3.33535 -4.88373 0
M  V30 1616 H 163.482 0.545692 -0.520323 0
M  V30 1617 H 166.133 0.756929 -1.67161 0
M  V30 1618 H 164.515 3.34541 -2.11892 0
M  V30 1619 H 165.689 1.54623 -4.34083 0
M  V30 1620 H 164.004 1.54525 -3.86666 0
M  V30 1621 H 166.601 4.2547 -3.2385 0
M  V30 1622 H 166.944 3.85418 -1.5735 0
M  V30 1623 H 167.477 2.75546 -2.86913 0
M  V30 1624 H 164.216 2.93468 -5.86137 0
M  V30 1625 H 163.736 3.96936 -4.49668 0
M  V30 1626 H 165.415 3.99335 -5.09059 0
M  V30 1627 N 165.547 1.27147 0.931209 0
M  V30 1628 C 166.51 1.09615 2.01289 0
M  V30 1629 C 167.51 0.0412581 1.60747 0
M  V30 1630 O 168.7 0.285545 1.71844 0
M  V30 1631 C 165.832 0.669447 3.34262 0
M  V30 1632 H 167.025 2.05662 2.18273 0
M  V30 1633 H 164.578 1.09885 1.11153 0
M  V30 1634 H 165.313 -0.292572 3.22978 0
M  V30 1635 H 165.098 1.43127 3.65044 0
M  V30 1636 H 166.588 0.568921 4.13706 0
M  V30 1637 N 167.025 -1.13721 1.09112 0
M  V30 1638 C 167.973 -2.21103 0.722219 0
M  V30 1639 C 168.967 -1.67147 -0.275374 0
M  V30 1640 O 170.173 -1.79477 -0.137176 0
M  V30 1641 H 166.548 -0.720445 0.215553 0
M  V30 1642 H 168.519 -2.49483 1.63709 0
M  V30 1643 C 167.268 -3.47352 0.15543 0
M  V30 1644 H 166.591 -3.89206 0.914246 0
M  V30 1645 H 168.031 -4.2395 -0.0647967 0
M  V30 1646 C 166.49 -3.1814 -1.10852 0
M  V30 1647 O 167.02 -3.36604 -2.19227 0
M  V30 1648 N 165.226 -2.72045 -1.02176 0
M  V30 1649 H 164.773 -2.57221 -0.139764 0
M  V30 1650 H 164.731 -2.52875 -1.8682 0
M  V30 1651 N 168.503 -0.877838 -1.30888 0
M  V30 1652 C 169.751 -0.491723 -1.96027 0
M  V30 1653 C 170.072 0.960827 -1.69685 0
M  V30 1654 O 169.342 1.67462 -1.01654 0
M  V30 1655 H 167.922 -0.17885 -0.725273 0
M  V30 1656 H 170.584 -1.11935 -1.59551 0
M  V30 1657 H 169.68 -0.656016 -3.05128 0
M  V30 1658 N 169.982 1.44106 -0.638065 0
M  V30 1659 C 171.228 2.02277 -0.145546 0
M  V30 1660 C 171.561 1.50125 1.23191 0
M  V30 1661 O 170.836 0.688133 1.8192 0
M  V30 1662 C 171.119 3.59829 -0.139791 0
M  V30 1663 C 170.972 4.22247 -1.55008 0
M  V30 1664 C 172.291 4.36873 0.531966 0
M  V30 1665 H 169.41 0.734992 -0.0543632 0
M  V30 1666 H 172.052 1.71592 -0.815863 0
M  V30 1667 H 170.202 3.86102 0.431007 0
M  V30 1668 H 171.874 4.07057 -2.1703 0
M  V30 1669 H 170.117 3.79476 -2.10191 0
M  V30 1670 H 170.788 5.31284 -1.49804 0
M  V30 1671 H 173.264 4.16074 0.0464781 0
M  V30 1672 H 172.14 5.4657 0.505206 0
M  V30 1673 H 172.401 4.11995 1.60352 0
M  V30 1674 N 171.46 0.379036 1.52974 0
M  V30 1675 C 172.39 -0.452706 2.29069 0
M  V30 1676 C 173.371 -1.07237 1.32039 0
M  V30 1677 O 174.556 -1.08708 1.60923 0
M  V30 1678 C 171.686 -1.5856 3.08992 0
M  V30 1679 C 170.64 -1.0925 4.13822 0
M  V30 1680 C 169.966 -2.31668 4.81907 0
M  V30 1681 C 171.266 -0.167702 5.22031 0
M  V30 1682 H 172.96 0.182181 2.98845 0
M  V30 1683 H 170.506 0.0890592 1.43724 0
M  V30 1684 H 172.459 -2.1742 3.6098 0
M  V30 1685 H 171.183 -2.24792 2.36931 0
M  V30 1686 H 169.842 -0.526494 3.628 0
M  V30 1687 H 169.49 -2.96386 4.06404 0
M  V30 1688 H 169.19 -1.9934 5.52754 0
M  V30 1689 H 170.714 -2.91189 5.36695 0
M  V30 1690 H 172.128 -0.664186 5.6944 0
M  V30 1691 H 170.525 0.0653265 6.00064 0
M  V30 1692 H 171.595 0.786347 4.78482 0
M  V30 1693 N 172.938 -1.57226 0.108567 0
M  V30 1694 C 174.166 -1.99179 -0.559954 0
M  V30 1695 C 174.581 -0.988022 -1.60884 0
M  V30 1696 O 173.938 0.0205512 -1.82488 0
M  V30 1697 C 173.989 -3.41159 -1.19552 0
M  V30 1698 O 173.71 -4.37694 -0.188577 0
M  V30 1699 C 175.211 -3.98188 -1.94837 0
M  V30 1700 H 172.431 -0.654228 -0.149088 0
M  V30 1701 H 174.975 -2.03598 0.19183 0
M  V30 1702 H 173.13 -3.37711 -1.89815 0
M  V30 1703 H 173.544 -5.20469 -0.649014 0
M  V30 1704 H 175.018 -4.99644 -2.34648 0
M  V30 1705 H 175.495 -3.3675 -2.81951 0
M  V30 1706 H 176.101 -4.0515 -1.2936 0
M  V30 1707 N 174.416 0.165178 -1.56732 0
M  V30 1708 C 175.644 0.896218 -1.86482 0
M  V30 1709 C 176.059 1.75555 -0.694675 0
M  V30 1710 O 175.416 1.79379 0.33607 0
M  V30 1711 C 175.467 1.76792 -3.1532 0
M  V30 1712 O 175.188 0.943239 -4.27825 0
M  V30 1713 C 176.689 2.6081 -3.58459 0
M  V30 1714 H 173.909 0.260064 -0.618553 0
M  V30 1715 H 176.453 0.163428 -2.03846 0
M  V30 1716 H 174.608 2.45398 -2.99764 0
M  V30 1717 H 175.022 1.53998 -5.01383 0
M  V30 1718 H 176.496 3.17579 -4.51495 0
M  V30 1719 H 176.973 3.35977 -2.82872 0
M  V30 1720 H 177.579 1.97526 -3.76648 0
M  V30 1721 N 175.894 1.51508 0.433938 0
M  V30 1722 C 176.842 1.73646 1.54757 0
M  V30 1723 C 177.836 0.602854 1.5831 0
M  V30 1724 O 179.042 0.784318 1.62014 0
M  V30 1725 H 175.417 0.548718 0.51421 0
M  V30 1726 H 177.388 2.66991 1.33261 0
M  V30 1727 C 176.137 1.88172 2.92381 0
M  V30 1728 H 175.46 2.74808 2.90381 0
M  V30 1729 H 176.9 2.07672 3.6966 0
M  V30 1730 C 175.359 0.64239 3.30719 0
M  V30 1731 O 175.889 -0.201362 4.01195 0
M  V30 1732 N 174.095 0.485489 2.86516 0
M  V30 1733 H 173.642 1.17318 2.29334 0
M  V30 1734 H 173.6 -0.342482 3.12529 0
M  V30 1735 N 177.372 -0.689602 1.41712 0
M  V30 1736 C 178.6 -1.47827 1.44758 0
M  V30 1737 C 179.015 -1.88721 0.0545703 0
M  V30 1738 O 178.372 -1.57176 -0.927463 0
M  V30 1739 C 178.423 -2.73698 2.3616 0
M  V30 1740 O 178.144 -2.34524 3.7004 0
M  V30 1741 C 179.645 -3.67389 2.48072 0
M  V30 1742 H 176.865 -0.455357 0.49284 0
M  V30 1743 H 179.409 -0.848574 1.86063 0
M  V30 1744 H 177.564 -3.32891 1.98148 0
M  V30 1745 H 177.978 -3.15701 4.18847 0
M  V30 1746 H 179.452 -4.52475 3.16181 0
M  V30 1747 H 179.929 -4.12284 1.51388 0
M  V30 1748 H 180.535 -3.14097 2.86746 0
M  V30 1749 N 178.85 -1.27639 -0.924453 0
M  V30 1750 C 179.76 -1.12466 -2.05885 0
M  V30 1751 C 180.776 -0.053869 -1.73917 0
M  V30 1752 O 181.952 -0.261012 -1.99702 0
M  V30 1753 C 179.017 -0.776768 -3.37886 0
M  V30 1754 C 178.078 -1.92878 -3.83532 0
M  V30 1755 C 177.311 -1.59739 -5.09234 0
M  V30 1756 O 177.534 -0.506782 -5.68144 0
M  V30 1757 O 176.468 -2.43761 -5.50331 0
M  V30 1758 H 180.294 -2.07671 -2.21599 0
M  V30 1759 H 177.879 -1.06857 -1.04413 0
M  V30 1760 H 179.761 -0.596229 -4.17161 0
M  V30 1761 H 178.436 0.145732 -3.23372 0
M  V30 1762 H 177.343 -2.1644 -3.0513 0
M  V30 1763 H 178.676 -2.8316 -4.02593 0
M  V30 1764 N 180.328 1.1314 -1.09713 0
M  V30 1765 C 181.238 2.22242 -0.751367 0
M  V30 1766 C 182.254 1.72224 0.247938 0
M  V30 1767 O 183.43 2.01205 0.0885463 0
M  V30 1768 C 180.495 3.46231 -0.180274 0
M  V30 1769 C 179.556 4.11125 -1.2359 0
M  V30 1770 C 178.789 5.29195 -0.691966 0
M  V30 1771 O 179.012 5.68342 0.48414 0
M  V30 1772 O 177.946 5.84214 -1.44838 0
M  V30 1773 H 181.772 2.54197 -1.66186 0
M  V30 1774 H 179.357 1.21331 -0.871735 0
M  V30 1775 H 181.239 4.21185 0.134739 0
M  V30 1776 H 179.914 3.1597 0.703185 0
M  V30 1777 H 178.821 3.37985 -1.60366 0
M  V30 1778 H 180.154 4.45524 -2.09211 0
M  V30 1779 N 181.806 0.884767 1.30421 0
M  V30 1780 C 182.738 0.308655 2.27112 0
M  V30 1781 C 183.751 -0.536655 1.53701 0
M  V30 1782 O 184.94 -0.35624 1.74909 0
M  V30 1783 C 182.04 -0.579782 3.33904 0
M  V30 1784 C 181.213 0.236417 4.36761 0
M  V30 1785 C 180.272 -0.582482 5.22966 0
M  V30 1786 O 179.298 -0.00525502 5.692 0
M  V30 1787 N 180.5 -1.89163 5.48815 0
M  V30 1788 H 183.265 1.13964 2.77186 0
M  V30 1789 H 180.826 0.747731 1.43599 0
M  V30 1790 H 182.818 -1.13366 3.88497 0
M  V30 1791 H 181.388 -1.31144 2.83761 0
M  V30 1792 H 180.608 0.97174 3.82035 0
M  V30 1793 H 181.896 0.795924 5.02536 0
M  V30 1794 H 181.294 -2.38352 5.13035 0
M  V30 1795 H 179.851 -2.39296 6.06284 0
M  V30 1796 N 183.284 -1.43765 0.645699 0
M  V30 1797 C 184.247 -2.29163 -0.0409488 0
M  V30 1798 C 185.247 -1.41813 -0.757996 0
M  V30 1799 O 186.437 -1.63527 -0.600382 0
M  V30 1800 C 183.569 -3.23716 -1.06869 0
M  V30 1801 H 184.762 -2.91366 0.710345 0
M  V30 1802 H 182.315 -1.5092 0.406547 0
M  V30 1803 H 183.05 -2.66393 -1.84947 0
M  V30 1804 H 182.835 -3.88105 -0.558277 0
M  V30 1805 H 184.325 -3.87831 -1.54845 0
M  V30 1806 N 184.763 -0.387143 -1.52771 0
M  V30 1807 C 185.693 0.440551 -2.29306 0
M  V30 1808 C 186.674 1.06535 -1.32606 0
M  V30 1809 O 187.859 1.07853 -1.61497 0
M  V30 1810 C 184.989 1.56919 -3.09829 0
M  V30 1811 C 183.943 1.07054 -4.14395 0
M  V30 1812 C 183.269 2.29109 -4.83129 0
M  V30 1813 C 184.569 0.140015 -5.22112 0
M  V30 1814 H 186.263 -0.198026 -2.98744 0
M  V30 1815 H 183.809 -0.09668 -1.43675 0
M  V30 1816 H 185.762 2.15503 -3.62128 0
M  V30 1817 H 184.486 2.23532 -2.3812 0
M  V30 1818 H 183.145 0.507247 -3.63074 0
M  V30 1819 H 182.793 2.94227 -4.0797 0
M  V30 1820 H 182.493 1.96406 -5.53804 0
M  V30 1821 H 184.017 2.88339 -5.38231 0
M  V30 1822 H 185.431 0.633978 -5.69784 0
M  V30 1823 H 183.828 -0.0971485 -6.00021 0
M  V30 1824 H 184.898 -0.811711 -4.78058 0
M  V30 1825 N 186.241 1.57166 -0.116904 0
M  V30 1826 C 187.518 1.86645 0.585049 0
M  V30 1827 C 187.898 1.0177 1.84949 0
M  V30 1828 O 187.246 0.0960379 2.28298 0
M  V30 1829 C 187.456 3.37736 0.879507 0
M  V30 1830 C 188.804 4.06289 1.23348 0
M  V30 1831 O 189.828 3.42743 0.969836 0
M  V30 1832 O 188.687 5.18455 1.7282 0
M  V30 1833 H 185.781 0.772593 0.295007 0
M  V30 1834 H 188.327 1.69025 -0.151249 0
M  V30 1835 H 187.099 3.91296 -0.0166136 0
M  V30 1836 H 186.722 3.6078 1.67103 0
M  V30 1837 N 187.719 -0.156864 1.56817 0
M  V30 1838 C 189.135 -0.50916 1.5126 0
M  V30 1839 C 189.335 -1.83897 0.823658 0
M  V30 1840 O 188.391 -2.49469 0.390055 0
M  V30 1841 C 189.704 -0.52857 2.96018 0
M  V30 1842 C 191.252 -0.614771 3.06903 0
M  V30 1843 C 191.727 -0.664938 4.53147 0
M  V30 1844 N 193.218 -0.727433 4.57452 0
M  V30 1845 C 193.953 -0.787067 5.67973 0
M  V30 1846 N 193.449 -0.806649 6.88088 0
M  V30 1847 N 195.242 -0.827195 5.5598 0
M  V30 1848 H 187.393 0.714935 2.00006 0
M  V30 1849 H 189.656 0.259526 0.911784 0
M  V30 1850 H 189.362 0.380154 3.49639 0
M  V30 1851 H 189.236 -1.36998 3.51442 0
M  V30 1852 H 191.623 -1.51392 2.53307 0
M  V30 1853 H 191.704 0.253597 2.5454 0
M  V30 1854 H 191.348 0.230011 5.07379 0
M  V30 1855 H 191.278 -1.54966 5.03282 0
M  V30 1856 H 193.769 -0.719998 3.70978 0
M  V30 1857 H 194.082 -0.853727 7.6807 0
M  V30 1858 H 192.427 -0.774687 6.90669 0
M  V30 1859 H 195.618 -0.808998 4.61056 0
M  V30 1860 H 195.791 -0.870206 6.4213 0
M  V30 1861 N 189.197 -1.51736 -0.425897 0
M  V30 1862 C 190.16 -1.73271 -1.50032 0
M  V30 1863 C 191.16 -0.602639 -1.4908 0
M  V30 1864 O 192.35 -0.87033 -1.509 0
M  V30 1865 C 189.482 -1.79969 -2.89523 0
M  V30 1866 H 190.675 -2.69172 -1.32237 0
M  V30 1867 H 188.228 -1.41899 -0.65532 0
M  V30 1868 H 188.963 -0.859241 -3.1271 0
M  V30 1869 H 188.748 -2.62109 -2.91619 0
M  V30 1870 H 190.238 -1.9843 -3.67444 0
M  V30 1871 N 190.675 0.682077 -1.42076 0
M  V30 1872 C 191.923 1.4393 -1.41876 0
M  V30 1873 C 192.244 1.94971 -0.0335599 0
M  V30 1874 O 191.514 1.72591 0.926773 0
M  V30 1875 H 190.094 0.534085 -0.522267 0
M  V30 1876 H 192.756 0.806427 -1.77434 0
M  V30 1877 H 191.852 2.29588 -2.11414 0
M  V30 1878 N 192.153 1.28127 0.917671 0
M  V30 1879 C 193.083 1.14248 2.03641 0
M  V30 1880 C 194.064 0.0412748 1.7005 0
M  V30 1881 O 195.249 0.217566 1.92977 0
M  V30 1882 C 192.379 0.799431 3.37974 0
M  V30 1883 C 191.333 1.85497 3.85713 0
M  V30 1884 C 190.659 1.36565 5.16966 0
M  V30 1885 C 191.959 3.26085 4.08002 0
M  V30 1886 H 193.653 2.07835 2.15511 0
M  V30 1887 H 191.199 1.00064 1.03553 0
M  V30 1888 H 193.152 0.689114 4.15727 0
M  V30 1889 H 191.876 -0.172145 3.26146 0
M  V30 1890 H 190.535 1.95437 3.10161 0
M  V30 1891 H 190.183 0.383253 5.01538 0
M  V30 1892 H 189.883 2.07143 5.49878 0
M  V30 1893 H 191.407 1.26848 5.97279 0
M  V30 1894 H 192.821 3.19089 4.76293 0
M  V30 1895 H 191.218 3.94462 4.52238 0
M  V30 1896 H 192.288 3.70394 3.12948 0
M  V30 1897 N 193.631 -1.12557 1.10312 0
M  V30 1898 C 195.042 -1.65574 0.862678 0
M  V30 1899 C 195.393 -1.86566 -0.607256 0
M  V30 1900 O 194.518 -1.59121 -1.46662 0
M  V30 1901 C 195.113 -3.00776 1.55947 0
M  V30 1902 C 193.672 -3.50748 1.36576 0
M  V30 1903 C 192.819 -2.25797 1.60968 0
M  V30 1904 H 195.77 -0.963552 1.26101 0
M  V30 1905 H 195.791 -3.67185 0.997753 0
M  V30 1906 H 195.303 -2.85465 2.62928 0
M  V30 1907 H 193.404 -3.71245 0.317531 0
M  V30 1908 H 193.517 -4.30289 2.10686 0
M  V30 1909 H 191.881 -2.32841 1.03234 0
M  V30 1910 H 192.664 -2.13043 2.69198 0
M  V30 1911 N 195.109 -0.891671 -1.2995 0
M  V30 1912 C 196.337 -0.52866 -2.00032 0
M  V30 1913 C 196.752 0.884574 -1.66795 0
M  V30 1914 O 196.109 1.5827 -0.908669 0
M  V30 1915 C 196.16 -0.701814 -3.54622 0
M  V30 1916 O 195.881 -2.05942 -3.86678 0
M  V30 1917 C 197.382 -0.342683 -4.41973 0
M  V30 1918 H 194.602 -0.203659 -0.639347 0
M  V30 1919 H 197.146 -1.19881 -1.65677 0
M  V30 1920 H 195.301 -0.0789468 -3.8732 0
M  V30 1921 H 195.715 -2.08291 -4.81368 0
M  V30 1922 H 197.189 -0.514709 -5.49595 0
M  V30 1923 H 197.666 0.71975 -4.33262 0
M  V30 1924 H 198.272 -0.942154 -4.14733 0
M  V30 1925 N 196.587 1.43421 -0.653314 0
M  V30 1926 C 197.812 2.06678 -0.172846 0
M  V30 1927 C 198.237 1.48648 1.15262 0
M  V30 1928 O 197.595 0.596457 1.71208 0
M  V30 1929 C 197.643 3.60474 -0.0953184 0
M  V30 1930 O 196.747 4.01487 0.942442 0
M  V30 1931 H 196.088 0.657181 -0.0949155 0
M  V30 1932 H 198.618 1.83925 -0.896265 0
M  V30 1933 H 198.628 4.07905 0.0879728 0
M  V30 1934 H 197.303 4.02088 -1.06291 0
M  V30 1935 H 195.88 3.65646 0.731932 0
M  V30 1936 N 198.065 0.39524 1.52563 0
M  V30 1937 C 199.028 -0.425001 2.25225 0
M  V30 1938 C 200.028 -0.985266 1.27079 0
M  V30 1939 O 201.218 -0.866332 1.5113 0
M  V30 1940 C 198.35 -1.59686 3.01186 0
M  V30 1941 H 199.543 0.211233 2.99155 0
M  V30 1942 H 197.096 0.147472 1.55603 0
M  V30 1943 H 197.831 -2.27035 2.31572 0
M  V30 1944 H 197.616 -1.20176 3.73229 0
M  V30 1945 H 199.106 -2.17743 3.5634 0
M  V30 1946 N 199.544 -1.57102 0.125237 0
M  V30 1947 C 200.454 -2.19191 -0.8362 0
M  V30 1948 C 201.47 -1.16985 -1.28805 0
M  V30 1949 O 202.646 -1.49479 -1.34974 0
M  V30 1950 C 199.711 -2.78407 -2.06617 0
M  V30 1951 C 198.772 -3.9567 -1.66565 0
M  V30 1952 C 198.005 -4.52052 -2.83698 0
M  V30 1953 O 198.228 -4.07326 -3.99302 0
M  V30 1954 O 197.162 -5.42645 -2.60423 0
M  V30 1955 H 200.988 -3.01816 -0.337776 0
M  V30 1956 H 198.573 -1.4906 -0.100695 0
M  V30 1957 H 200.455 -3.16129 -2.7864 0
M  V30 1958 H 199.13 -1.9881 -2.55453 0
M  V30 1959 H 198.037 -3.62705 -0.916296 0
M  V30 1960 H 199.37 -4.76722 -1.22464 0
M  V30 1961 N 201.022 0.148545 -1.56898 0
M  V30 1962 C 202.299 0.890019 -1.74178 0
M  V30 1963 C 202.679 1.99407 -0.692839 0
M  V30 1964 O 202.027 2.26671 0.288505 0
M  V30 1965 C 202.237 1.43389 -3.18183 0
M  V30 1966 C 203.585 1.89791 -3.79822 0
M  V30 1967 O 204.609 1.53134 -3.21603 0
M  V30 1968 O 203.468 2.57387 -4.82093 0
M  V30 1969 H 200.562 0.420496 -0.712118 0
M  V30 1970 H 203.108 0.134591 -1.69165 0
M  V30 1971 H 201.88 0.640383 -3.86024 0
M  V30 1972 H 201.503 2.25287 -3.27615 0
M  V30 1973 N 202.5 1.5196 0.417844 0
M  V30 1974 C 203.447 1.74678 1.50852 0
M  V30 1975 C 204.417 0.588947 1.55308 0
M  V30 1976 O 205.602 0.825544 1.72016 0
M  V30 1977 C 202.742 1.89544 2.88387 0
M  V30 1978 C 201.855 3.17166 2.93309 0
M  V30 1979 C 200.99 3.22513 4.22088 0
M  V30 1980 C 200.029 4.44372 4.20951 0
M  V30 1981 N 199.166 4.47161 5.41287 0
M  V30 1982 H 204.006 2.67768 1.30783 0
M  V30 1983 H 201.543 1.32689 0.63498 0
M  V30 1984 H 203.501 1.96146 3.68216 0
M  V30 1985 H 202.131 0.998424 3.06971 0
M  V30 1986 H 201.183 3.19778 2.06024 0
M  V30 1987 H 202.495 4.07021 2.88332 0
M  V30 1988 H 201.649 3.28139 5.10303 0
M  V30 1989 H 200.388 2.30581 4.29748 0
M  V30 1990 H 199.393 4.38902 3.31127 0
M  V30 1991 H 200.618 5.3759 4.14938 0
M  V30 1992 H 198.564 3.58108 5.49632 0
M  V30 1993 H 198.481 5.3085 5.3827 0
M  V30 1994 H 199.749 4.57005 6.3148 0
M  V30 1995 N 203.978 -0.674533 1.42435 0
M  V30 1996 C 205.226 -1.43175 1.42637 0
M  V30 1997 C 205.547 -1.94951 0.0438992 0
M  V30 1998 O 204.817 -1.7308 -0.917607 0
M  V30 1999 H 203.397 -0.531307 0.525092 0
M  V30 2000 H 206.059 -0.797006 1.77859 0
M  V30 2001 H 205.155 -2.28463 2.12629 0
M  V30 2002 N 205.456 -1.28612 -0.910864 0
M  V30 2003 C 206.419 -1.12803 -1.9952 0
M  V30 2004 C 207.419 -0.0668264 -1.60661 0
M  V30 2005 O 208.609 -0.312847 -1.71368 0
M  V30 2006 C 205.741 -0.72254 -3.33155 0
M  V30 2007 H 206.934 -2.09109 -2.14973 0
M  V30 2008 H 204.487 -1.11639 -1.09391 0
M  V30 2009 H 205.222 0.241152 -3.23402 0
M  V30 2010 H 205.007 -1.48916 -3.62721 0
M  V30 2011 H 206.497 -0.634666 -4.12749 0
M  V30 2012 N 206.934 1.1197 -1.10907 0
M  V30 2013 C 207.866 2.17592 -0.720175 0
M  V30 2014 C 208.879 1.60938 0.245495 0
M  V30 2015 O 210.068 1.78476 0.0292245 0
M  V30 2016 C 207.168 3.38873 -0.0427917 0
M  V30 2017 C 206.341 4.25006 -1.03388 0
M  V30 2018 C 205.4 5.24774 -0.387075 0
M  V30 2019 O 204.426 5.59631 -1.03934 0
M  V30 2020 N 205.628 5.74208 0.852407 0
M  V30 2021 H 208.393 2.51567 -1.62893 0
M  V30 2022 H 205.954 1.27439 -0.998543 0
M  V30 2023 H 207.946 4.02703 0.401501 0
M  V30 2024 H 206.516 3.03007 0.768456 0
M  V30 2025 H 205.736 3.57716 -1.65629 0
M  V30 2026 H 207.024 4.79397 -1.70458 0
M  V30 2027 H 206.422 5.48062 1.40161 0
M  V30 2028 H 204.979 6.39901 1.23977 0
M  V30 2029 N 208.412 0.89855 1.29475 0
M  V30 2030 C 209.375 0.380272 2.26023 0
M  V30 2031 C 210.375 -0.484891 1.53315 0
M  V30 2032 O 211.565 -0.290108 1.71767 0
M  V30 2033 C 208.697 -0.45651 3.3783 0
M  V30 2034 H 209.89 1.23295 2.73383 0
M  V30 2035 H 207.443 0.676589 1.40897 0
M  V30 2036 H 208.178 -1.32922 2.95808 0
M  V30 2037 H 207.963 0.163393 3.91759 0
M  V30 2038 H 209.453 -0.810466 4.0966 0
M  V30 2039 N 209.89 -1.43072 0.660911 0
M  V30 2040 C 211.118 -2.06067 0.185422 0
M  V30 2041 C 211.533 -1.49582 -1.15198 0
M  V30 2042 O 210.89 -0.630134 -1.71276 0
M  V30 2043 C 210.941 -3.61371 0.0966523 0
M  V30 2044 O 210.662 -4.15758 1.38119 0
M  V30 2045 C 212.163 -4.41455 -0.403996 0
M  V30 2046 H 209.383 -0.664459 0.0934604 0
M  V30 2047 H 211.927 -1.83447 0.90373 0
M  V30 2048 H 210.082 -3.8315 -0.572259 0
M  V30 2049 H 210.496 -5.09499 1.24542 0
M  V30 2050 H 211.97 -5.50437 -0.415045 0
M  V30 2051 H 212.447 -4.15036 -1.43674 0
M  V30 2052 H 213.053 -4.24663 0.232691 0
M  V30 2053 N 211.368 -0.403325 -1.52352 0
M  V30 2054 C 212.614 0.174605 -2.02047 0
M  V30 2055 C 212.947 1.45282 -1.28867 0
M  V30 2056 O 212.222 1.90483 -0.393257 0
M  V30 2057 C 212.505 0.428238 -3.57545 0
M  V30 2058 C 212.358 -0.866248 -4.4138 0
M  V30 2059 C 213.677 1.21287 -4.23057 0
M  V30 2060 H 210.796 0.0619851 -0.734389 0
M  V30 2061 H 213.438 -0.53565 -1.82293 0
M  V30 2062 H 211.588 1.03327 -3.74507 0
M  V30 2063 H 213.26 -1.50265 -4.3614 0
M  V30 2064 H 211.503 -1.47851 -4.07827 0
M  V30 2065 H 212.174 -0.643249 -5.48239 0
M  V30 2066 H 214.65 0.700703 -4.10158 0
M  V30 2067 H 213.526 1.35909 -5.31808 0
M  V30 2068 H 213.787 2.23193 -3.81625 0
M  V30 2069 N 212.846 1.57033 -0.133567 0
M  V30 2070 C 213.809 2.14897 0.796995 0
M  V30 2071 C 214.809 1.0874 1.18458 0
M  V30 2072 O 215.999 1.34446 1.1077 0
M  V30 2073 C 213.131 2.70112 2.07973 0
M  V30 2074 H 214.324 2.98457 0.293873 0
M  V30 2075 H 211.877 1.55871 0.115787 0
M  V30 2076 H 212.612 1.9018 2.62682 0
M  V30 2077 H 212.397 3.47764 1.81115 0
M  V30 2078 H 213.887 3.14738 2.74462 0
M  V30 2079 N 214.325 -0.140222 1.56975 0
M  V30 2080 C 215.288 -1.15689 1.97861 0
M  V30 2081 C 216.288 -1.3549 0.865974 0
M  V30 2082 O 217.478 -1.32367 1.13246 0
M  V30 2083 C 214.61 -2.51582 2.30042 0
M  V30 2084 H 215.803 -0.805971 2.88867 0
M  V30 2085 H 213.356 -0.383801 1.51515 0
M  V30 2086 H 214.091 -2.91632 1.41849 0
M  V30 2087 H 213.876 -2.38569 3.11171 0
M  V30 2088 H 215.366 -3.24792 2.62488 0
M  V30 2089 N 215.803 -1.52179 -0.40978 0
M  V30 2090 C 216.733 -1.78435 -1.5061 0
M  V30 2091 C 217.714 -0.635295 -1.57791 0
M  V30 2092 O 218.899 -0.880823 -1.73076 0
M  V30 2093 C 216.029 -1.93444 -2.88439 0
M  V30 2094 C 214.983 -3.09038 -2.96108 0
M  V30 2095 C 214.309 -3.09268 -4.36185 0
M  V30 2096 C 215.609 -4.48508 -2.67652 0
M  V30 2097 H 217.303 -2.70237 -1.28889 0
M  V30 2098 H 214.849 -1.30036 -0.618605 0
M  V30 2099 H 216.802 -2.10394 -3.65119 0
M  V30 2100 H 215.526 -0.983129 -3.11452 0
M  V30 2101 H 214.185 -2.91837 -2.21872 0
M  V30 2102 H 213.833 -2.11861 -4.56206 0
M  V30 2103 H 213.533 -3.86907 -4.42241 0
M  V30 2104 H 215.057 -3.28348 -5.14801 0
M  V30 2105 H 216.471 -4.65918 -3.34056 0
M  V30 2106 H 214.868 -5.28059 -2.85085 0
M  V30 2107 H 215.938 -4.56649 -1.63095 0
M  V30 2108 N 217.281 0.66697 -1.42791 0
M  V30 2109 C 218.244 1.76211 -1.46568 0
M  V30 2110 C 219.244 1.56896 -0.352196 0
M  V30 2111 O 220.434 1.63044 -0.613364 0
M  V30 2112 C 217.566 3.14935 -1.30494 0
M  V30 2113 H 218.759 1.74247 -2.44086 0
M  V30 2114 H 216.312 0.877342 -1.29354 0
M  V30 2115 H 217.047 3.2252 -0.339301 0
M  V30 2116 H 216.832 3.30359 -2.11199 0
M  V30 2117 H 218.322 3.94821 -1.36038 0
M  V30 2118 N 218.759 1.29093 0.90403 0
M  V30 2119 C 219.987 1.19689 1.68766 0
M  V30 2120 C 220.402 -0.243113 1.87228 0
M  V30 2121 O 219.759 -1.16326 1.40621 0
M  V30 2122 C 219.81 1.90144 3.07453 0
M  V30 2123 O 219.531 3.2852 2.89838 0
M  V30 2124 C 221.032 1.87162 4.01852 0
M  V30 2125 H 218.252 0.415035 0.527244 0
M  V30 2126 H 220.796 1.7039 1.13082 0
M  V30 2127 H 218.951 1.43289 3.59926 0
M  V30 2128 H 219.365 3.63944 3.77684 0
M  V30 2129 H 220.839 2.41032 4.96596 0
M  V30 2130 H 221.316 0.84617 4.30972 0
M  V30 2131 H 221.922 2.33741 3.5531 0
M  V30 2132 N 220.237 -1.11381 1.11499 0
M  V30 2133 C 221.2 -2.15622 0.777153 0
M  V30 2134 C 222.2 -1.59504 -0.203779 0
M  V30 2135 O 223.39 -1.74188 0.020782 0
M  V30 2136 C 220.522 -3.40556 0.153116 0
M  V30 2137 H 221.715 -2.47021 1.70061 0
M  V30 2138 H 219.268 -1.26577 0.916952 0
M  V30 2139 H 220.003 -3.14767 -0.780536 0
M  V30 2140 H 219.788 -3.8257 0.859238 0
M  V30 2141 H 221.278 -4.17546 -0.0671044 0
M  V30 2142 N 221.715 -0.905404 -1.28997 0
M  V30 2143 C 222.645 -0.404212 -2.29975 0
M  V30 2144 C 223.626 0.523784 -1.61835 0
M  V30 2145 O 224.811 0.433298 -1.89304 0
M  V30 2146 C 221.941 0.364042 -3.45387 0
M  V30 2147 C 220.895 -0.474048 -4.25367 0
M  V30 2148 C 220.221 0.422045 -5.33032 0
M  V30 2149 C 221.521 -1.72696 -4.92923 0
M  V30 2150 H 223.215 -1.24807 -2.72146 0
M  V30 2151 H 220.761 -0.601585 -1.30832 0
M  V30 2152 H 222.714 0.725447 -4.15109 0
M  V30 2153 H 221.438 1.24174 -3.02074 0
M  V30 2154 H 220.097 -0.81786 -3.57361 0
M  V30 2155 H 219.745 1.29804 -4.85963 0
M  V30 2156 H 219.445 -0.135057 -5.87445 0
M  V30 2157 H 220.969 0.779517 -6.05604 0
M  V30 2158 H 222.383 -1.43495 -5.55051 0
M  V30 2159 H 220.78 -2.22582 -5.57295 0
M  V30 2160 H 221.85 -2.45964 -4.17887 0
M  V30 2161 N 223.193 1.4272 -0.668489 0
M  V30 2162 C 224.421 2.05966 -0.196348 0
M  V30 2163 C 224.836 1.50191 1.14403 0
M  V30 2164 O 224.193 0.639208 1.7094 0
M  V30 2165 C 224.244 3.61314 -0.115815 0
M  V30 2166 O 223.965 4.1502 -1.40322 0
M  V30 2167 C 225.466 4.41663 0.380579 0
M  V30 2168 H 222.686 0.663954 -0.0969829 0
M  V30 2169 H 225.23 1.82966 -0.913446 0
M  V30 2170 H 223.385 3.83448 0.551931 0
M  V30 2171 H 223.799 5.08832 -1.27243 0
M  V30 2172 H 225.273 5.5065 0.385848 0
M  V30 2173 H 225.75 4.15792 1.41471 0
M  V30 2174 H 226.356 4.24534 -0.255209 0
M  V30 2175 N 224.671 0.411399 1.52136 0
M  V30 2176 C 225.601 -0.404015 2.29978 0
M  V30 2177 C 226.582 -1.04412 1.34284 0
M  V30 2178 O 227.767 -1.0527 1.63192 0
M  V30 2179 C 224.897 -1.5197 3.12286 0
M  V30 2180 C 223.851 -1.00448 4.16046 0
M  V30 2181 C 223.177 -2.21393 4.86712 0
M  V30 2182 C 224.477 -0.0569336 5.22269 0
M  V30 2183 H 226.171 0.245529 2.98392 0
M  V30 2184 H 223.717 0.119525 1.43503 0
M  V30 2185 H 225.67 -2.09715 3.6551 0
M  V30 2186 H 224.394 -2.19716 2.41646 0
M  V30 2187 H 223.053 -0.449421 3.63835 0
M  V30 2188 H 222.701 -2.87699 4.12599 0
M  V30 2189 H 222.401 -1.87571 5.56858 0
M  V30 2190 H 223.925 -2.7974 5.4275 0
M  V30 2191 H 225.339 -0.54325 5.7072 0
M  V30 2192 H 223.736 0.192594 5.99791 0
M  V30 2193 H 224.806 0.887663 4.76706 0
M  V30 2194 N 226.149 -1.5696 0.141893 0
M  V30 2195 C 227.565 -1.58151 -0.21456 0
M  V30 2196 C 227.765 -1.1559 -1.65049 0
M  V30 2197 O 226.821 -0.853832 -2.37626 0
M  V30 2198 C 228.134 -3.00674 0.0395576 0
M  V30 2199 C 229.682 -3.1299 -0.0245529 0
M  V30 2200 C 230.157 -4.57554 0.202167 0
M  V30 2201 N 231.648 -4.62961 0.148919 0
M  V30 2202 C 232.383 -5.7262 0.298924 0
M  V30 2203 N 231.879 -6.90947 0.50637 0
M  V30 2204 N 233.672 -5.61601 0.236886 0
M  V30 2205 H 225.823 -1.8292 1.07953 0
M  V30 2206 H 228.086 -0.846425 0.42693 0
M  V30 2207 H 227.792 -3.36183 1.03315 0
M  V30 2208 H 227.666 -3.70981 -0.682143 0
M  V30 2209 H 230.053 -2.77326 -1.00869 0
M  V30 2210 H 230.134 -2.4518 0.729396 0
M  V30 2211 H 229.778 -4.93922 1.18338 0
M  V30 2212 H 229.708 -5.23484 -0.572044 0
M  V30 2213 H 232.199 -3.77899 -0.00697015 0
M  V30 2214 H 232.512 -7.7038 0.611076 0
M  V30 2215 H 230.857 -6.92878 0.542628 0
M  V30 2216 H 234.048 -4.68039 0.0756209 0
M  V30 2217 H 234.221 -6.47015 0.357227 0
M  V30 2218 N 227.627 0.131896 -1.57047 0
M  V30 2219 C 228.537 1.1815 -2.02676 0
M  V30 2220 C 229.553 1.46113 -0.944824 0
M  V30 2221 O 230.729 1.57485 -1.25541 0
M  V30 2222 C 227.794 2.49139 -2.41103 0
M  V30 2223 C 226.855 2.28688 -3.63318 0
M  V30 2224 C 226.088 3.53431 -3.99903 0
M  V30 2225 O 226.311 4.60223 -3.36973 0
M  V30 2226 O 225.245 3.45198 -4.93074 0
M  V30 2227 H 229.071 0.824069 -2.92306 0
M  V30 2228 H 226.656 0.341745 -1.45439 0
M  V30 2229 H 228.538 3.26338 -2.66611 0
M  V30 2230 H 227.213 2.84382 -1.54624 0
M  V30 2231 H 226.12 1.4939 -3.42977 0
M  V30 2232 H 227.453 1.98355 -4.50462 0
M  V30 2233 N 229.106 1.52395 0.401703 0
M  V30 2234 C 230.036 1.79231 1.49661 0
M  V30 2235 C 231.017 0.643654 1.57452 0
M  V30 2236 O 232.202 0.889989 1.72606 0
M  V30 2237 C 229.332 1.94971 2.87409 0
M  V30 2238 C 228.286 3.10604 2.94465 0
M  V30 2239 C 227.612 3.11577 4.34538 0
M  V30 2240 C 228.912 4.49921 2.6527 0
M  V30 2241 H 230.606 2.70917 1.27454 0
M  V30 2242 H 228.152 1.30362 0.6117 0
M  V30 2243 H 230.105 2.12328 3.63999 0
M  V30 2244 H 228.829 0.999632 3.10926 0
M  V30 2245 H 227.488 2.93009 2.20321 0
M  V30 2246 H 227.136 2.14277 4.55076 0
M  V30 2247 H 226.836 3.89247 4.40183 0
M  V30 2248 H 228.36 3.31073 5.13053 0
M  V30 2249 H 229.774 4.67683 3.31581 0
M  V30 2250 H 228.171 5.29564 2.82281 0
M  V30 2251 H 229.241 4.57507 1.60671 0
M  V30 2252 N 230.584 -0.659388 1.43143 0
M  V30 2253 C 232 -0.974337 1.26407 0
M  V30 2254 C 232.2 -2.007 0.179341 0
M  V30 2255 O 231.256 -2.4856 -0.444295 0
M  V30 2256 C 232.569 -1.46447 2.62628 0
M  V30 2257 C 234.117 -1.58144 2.7011 0
M  V30 2258 C 234.592 -2.1055 4.06734 0
M  V30 2259 N 236.083 -2.17861 4.08767 0
M  V30 2260 C 236.818 -2.59519 5.1131 0
M  V30 2261 N 236.314 -3.00518 6.24228 0
M  V30 2262 N 238.107 -2.59404 4.98664 0
M  V30 2263 H 230.258 0.0240528 2.12386 0
M  V30 2264 H 232.521 -0.0518065 0.946583 0
M  V30 2265 H 232.227 -0.780123 3.42939 0
M  V30 2266 H 232.101 -2.44058 2.87603 0
M  V30 2267 H 234.488 -2.25682 1.90136 0
M  V30 2268 H 234.569 -0.589828 2.48907 0
M  V30 2269 H 234.213 -1.43616 4.87172 0
M  V30 2270 H 234.143 -3.10531 4.25298 0
M  V30 2271 H 236.634 -1.88975 3.27257 0
M  V30 2272 H 236.947 -3.31036 6.98309 0
M  V30 2273 H 235.292 -2.98337 6.2771 0
M  V30 2274 H 238.483 -2.26747 4.09516 0
M  V30 2275 H 238.656 -2.91548 5.78709 0
M  V30 2276 N 232.062 -1.29571 -0.897171 0
M  V30 2277 C 233.025 -1.14913 -1.98312 0
M  V30 2278 C 234.025 -0.0838629 -1.60581 0
M  V30 2279 O 235.215 -0.331006 -1.71026 0
M  V30 2280 C 232.347 -0.757835 -3.3237 0
M  V30 2281 H 233.54 -2.11377 -2.12743 0
M  V30 2282 H 231.093 -1.12793 -1.08201 0
M  V30 2283 H 231.828 0.206837 -3.2364 0
M  V30 2284 H 231.613 -1.52755 -3.61121 0
M  V30 2285 H 233.103 -0.678408 -4.12053 0
M  V30 2286 N 233.54 1.10788 -1.12088 0
M  V30 2287 C 234.49 2.15158 -0.754401 0
M  V30 2288 C 235.474 1.59026 0.244846 0
M  V30 2289 O 236.666 1.76927 0.0509097 0
M  V30 2290 C 233.795 3.42677 -0.206657 0
M  V30 2291 C 232.881 4.05751 -1.23398 0
M  V30 2292 N 233.272 4.43582 -2.43041 0
M  V30 2293 C 231.57 4.32764 -1.07848 0
M  V30 2294 C 232.271 4.93085 -3.08613 0
M  V30 2295 N 231.247 4.89664 -2.36072 0
M  V30 2296 H 235.049 2.42195 -1.6649 0
M  V30 2297 H 232.563 1.27872 -1.00112 0
M  V30 2298 H 234.56 4.16834 0.0740646 0
M  V30 2299 H 233.22 3.17101 0.698342 0
M  V30 2300 H 234.231 4.35395 -2.80449 0
M  V30 2301 H 230.908 4.16863 -0.230483 0
M  V30 2302 H 232.298 5.31933 -4.10483 0
M  V30 2303 N 235.018 0.912232 1.28515 0
M  V30 2304 C 236.243 0.559774 1.99703 0
M  V30 2305 C 236.668 -0.851393 1.67729 0
M  V30 2306 O 236.026 -1.56875 0.908834 0
M  V30 2307 C 236.074 0.773874 3.52198 0
M  V30 2308 O 235.178 -0.167842 4.12058 0
M  V30 2309 H 234.519 0.21723 0.627461 0
M  V30 2310 H 237.049 1.22725 1.63706 0
M  V30 2311 H 237.059 0.683386 4.02236 0
M  V30 2312 H 235.734 1.80261 3.74805 0
M  V30 2313 H 234.311 -0.0287509 3.72889 0
M  V30 2314 O 236.535 -1.39418 0.815163 0
M  V30 2315 H 237.226 -1.89641 0.394473 0
M  V30 END ATOM
M  V30 BEGIN BOND
M  V30 END BOND
M  V30 END CTAB
M  END
$$$$
