drugbank_target|P31142 3-mercaptopyruvate sulfurtransferase (DB02761)
 OpenBabel12092120253D

  0  0  0     0  0            999 V3000
M  V30 BEGIN CTAB
M  V30 COUNTS 4294 4350 0 0 0
M  V30 BEGIN ATOM
M  V30 1 H -0.908 1.98254 -0.117106 0
M  V30 2 N 0 1.576 0 0
M  V30 3 C 0.933 2.03868 1.02534 0
M  V30 4 C 1.911 0.928543 1.3348 0
M  V30 5 O 3.095 1.19667 1.45644 0
M  V30 6 C 0.222 2.43627 2.35294 0
M  V30 7 C -0.732 3.65373 2.2001 0
M  V30 8 S 0.101 5.13292 1.52614 0
M  V30 9 C 1.257 5.56322 2.86805 0
M  V30 10 H 1.49 2.90518 0.631377 0
M  V30 11 H -0.977 1.52953 0.210867 0
M  V30 12 H 0.981 2.67203 3.11629 0
M  V30 13 H -0.358 1.57376 2.7183 0
M  V30 14 H -1.165 3.90944 3.18086 0
M  V30 15 H -1.563 3.418 1.51819 0
M  V30 16 H 0.729 5.58782 3.83104 0
M  V30 17 H 1.672 6.56266 2.65933 0
M  V30 18 H 2.08 4.83886 2.90714 0
M  V30 19 N 1.4781 -0.272755 1.55222 0
M  V30 20 C 2.7031 -1.02683 1.80197 0
M  V30 21 C 3.1281 -1.79142 0.573551 0
M  V30 22 O 2.4861 -1.74917 -0.476849 0
M  V30 23 C 2.5341 -1.9609 3.02624 0
M  V30 24 O 1.6381 -3.04863 2.77727 0
M  V30 25 H 0.9791 -0.293557 0.595584 0
M  V30 26 H 3.5091 -0.30159 2.02365 0
M  V30 27 H 3.5191 -2.38039 3.31363 0
M  V30 28 H 2.1941 -1.39851 3.91682 0
M  V30 29 H 0.7711 -2.67228 2.60084 0
M  V30 30 N 2.9562 -1.48159 -0.537278 0
M  V30 31 C 4.1842 -1.59454 -1.31841 0
M  V30 32 C 4.5992 -0.252065 -1.8711 0
M  V30 33 O 3.9562 0.757621 -1.66031 0
M  V30 34 C 4.0072 -2.63546 -2.47439 0
M  V30 35 O 3.7282 -3.92583 -1.94449 0
M  V30 36 C 5.2292 -2.85212 -3.39366 0
M  V30 37 H 2.4492 -0.53785 -0.401196 0
M  V30 38 H 4.9932 -1.93932 -0.648891 0
M  V30 39 H 3.1482 -2.31946 -3.1029 0
M  V30 40 H 3.5622 -4.49629 -2.70063 0
M  V30 41 H 5.0362 -3.61863 -4.16844 0
M  V30 42 H 5.5132 -1.93765 -3.94147 0
M  V30 43 H 6.1192 -3.18086 -2.82314 0
M  V30 44 N 4.4343 0.785586 -1.36625 0
M  V30 45 C 5.6623 1.57448 -1.3423 0
M  V30 46 C 6.0773 1.88649 0.0755653 0
M  V30 47 O 5.4343 1.50414 1.03354 0
M  V30 48 C 5.4853 2.89316 -2.16745 0
M  V30 49 O 5.2063 2.59459 -3.53005 0
M  V30 50 C 6.7073 3.83606 -2.22174 0
M  V30 51 H 3.9273 0.488226 -0.4603 0
M  V30 52 H 6.4713 0.974733 -1.79775 0
M  V30 53 H 4.6263 3.4575 -1.74745 0
M  V30 54 H 5.0403 3.43804 -3.96105 0
M  V30 55 H 6.5143 4.73181 -2.8426 0
M  V30 56 H 6.9913 4.21734 -1.22627 0
M  V30 57 H 7.5973 3.33104 -2.64427 0
M  V30 58 N 5.9124 1.20967 1.01018 0
M  V30 59 C 7.1584 1.0353 1.7508 0
M  V30 60 C 7.5134 -0.42734 1.87594 0
M  V30 61 O 6.8064 -1.31298 1.3954 0
M  V30 62 C 7.0004 1.65997 3.16512 0
M  V30 63 C 6.8294 3.18184 3.17788 0
M  V30 64 C 5.5994 3.87198 3.24662 0
M  V30 65 C 7.7974 4.15334 3.03319 0
M  V30 66 N 5.7794 5.26618 3.15509 0
M  V30 67 C 7.1504 5.41472 3.02007 0
M  V30 68 C 9.2054 4.06449 2.87583 0
M  V30 69 C 7.9084 6.5975 2.86571 0
M  V30 70 C 9.9344 5.24357 2.73503 0
M  V30 71 C 9.2964 6.49404 2.72862 0
M  V30 72 H 5.3954 0.433137 0.651089 0
M  V30 73 H 7.9794 1.5324 1.20107 0
M  V30 74 H 6.1504 1.18863 3.69765 0
M  V30 75 H 7.8824 1.41816 3.79039 0
M  V30 76 H 4.6374 3.38093 3.31648 0
M  V30 77 H 5.0614 5.99626 3.14289 0
M  V30 78 H 9.7034 3.10573 2.86887 0
M  V30 79 H 7.4214 7.55792 2.86015 0
M  V30 80 H 11.0074 5.19299 2.62334 0
M  V30 81 H 9.8874 7.39105 2.62093 0
M  V30 82 N 7.3905 -1.2043 1.01659 0
M  V30 83 C 8.6375 -1.89797 0.705917 0
M  V30 84 C 8.9655 -1.78848 -0.764439 0
M  V30 85 O 8.2205 -1.16694 -1.57102 0
M  V30 86 C 8.5195 -3.40464 1.08714 0
M  V30 87 C 8.1855 -3.71614 2.5537 0
M  V30 88 C 6.8475 -3.79826 2.95441 0
M  V30 89 C 9.1995 -3.85915 3.50313 0
M  V30 90 C 6.5275 -3.99797 4.29394 0
M  V30 91 C 8.8795 -4.07396 4.83954 0
M  V30 92 C 7.5435 -4.13837 5.23732 0
M  V30 93 H 6.8135 -0.694518 0.258313 0
M  V30 94 H 9.4605 -1.42691 1.27717 0
M  V30 95 H 7.7655 -3.89385 0.434309 0
M  V30 96 H 9.4625 -3.92433 0.824461 0
M  V30 97 H 6.0525 -3.65822 2.23321 0
M  V30 98 H 10.2365 -3.78926 3.20513 0
M  V30 99 H 5.4925 -4.03018 4.59768 0
M  V30 100 H 9.6665 -4.17404 5.57447 0
M  V30 101 H 7.2935 -4.29064 6.27541 0
M  V30 102 N 8.8686 -0.792821 -1.36206 0
M  V30 103 C 10.1146 -0.36733 -1.99446 0
M  V30 104 C 10.4476 1.05917 -1.62774 0
M  V30 105 O 9.7226 1.7324 -0.88421 0
M  V30 106 C 10.0056 -0.535044 -3.56103 0
M  V30 107 C 9.8586 -2.00548 -4.02617 0
M  V30 108 C 11.1776 0.0478191 -4.40074 0
M  V30 109 H 8.2966 -0.134941 -0.724541 0
M  V30 110 H 10.9386 -0.999794 -1.61568 0
M  V30 111 H 9.0886 0.00336329 -3.885 0
M  V30 112 H 10.7606 -2.60521 -3.80692 0
M  V30 113 H 9.0036 -2.50686 -3.54032 0
M  V30 114 H 9.6746 -2.07377 -5.11565 0
M  V30 115 H 12.1506 -0.411822 -4.14057 0
M  V30 116 H 11.0266 -0.0995336 -5.4881 0
M  V30 117 H 11.2876 1.14025 -4.27142 0
M  V30 118 N 10.3467 1.47872 -0.545128 0
M  V30 119 C 11.5947 2.02093 -0.016553 0
M  V30 120 C 11.9157 1.42305 1.3332 0
M  V30 121 O 11.1857 0.593853 1.86682 0
M  V30 122 H 9.7657 0.746993 -0.00313038 0
M  V30 123 H 12.4277 1.81414 -0.712397 0
M  V30 124 H 11.5237 3.11996 0.0805422 0
M  V30 125 N 11.8248 0.280983 1.55075 0
M  V30 126 C 12.7878 -0.590896 2.21452 0
M  V30 127 C 13.7878 -1.07682 1.19421 0
M  V30 128 O 14.9778 -0.97605 1.44288 0
M  V30 129 C 12.1098 -1.81587 2.88511 0
M  V30 130 H 13.3028 -0.0112554 2.99898 0
M  V30 131 H 10.8558 0.0316438 1.56268 0
M  V30 132 H 11.5908 -2.43587 2.14093 0
M  V30 133 H 11.3758 -1.4753 3.63287 0
M  V30 134 H 12.8658 -2.43575 3.39206 0
M  V30 135 N 13.3029 -1.57598 0.00835791 0
M  V30 136 C 14.5799 -1.82172 -0.712235 0
M  V30 137 C 14.9599 -0.887873 -1.9152 0
M  V30 138 O 14.3079 0.06146 -2.28417 0
M  V30 139 C 14.5179 -3.30875 -1.11008 0
M  V30 140 C 15.8659 -3.96826 -1.51044 0
M  V30 141 O 16.8899 -3.35248 -1.20364 0
M  V30 142 O 15.7489 -5.05318 -2.08125 0
M  V30 143 H 12.8429 -0.750435 -0.347529 0
M  V30 144 H 15.3889 -1.69665 0.0344523 0
M  V30 145 H 14.1609 -3.90481 -0.252982 0
M  V30 146 H 13.7839 -3.48412 -1.9156 0
M  V30 147 N 14.781 0.264519 -1.55364 0
M  V30 148 C 16.027 0.992314 -1.77552 0
M  V30 149 C 16.382 1.83626 -0.574379 0
M  V30 150 O 15.675 1.86648 0.432782 0
M  V30 151 C 15.869 1.9004 -3.02687 0
M  V30 152 C 15.698 1.14583 -4.34857 0
M  V30 153 C 14.468 0.858068 -4.97961 0
M  V30 154 C 16.666 0.532069 -5.1154 0
M  V30 155 N 14.648 0.0775974 -6.13851 0
M  V30 156 C 16.019 -0.113823 -6.19896 0
M  V30 157 C 18.074 0.440763 -4.95945 0
M  V30 158 C 16.777 -0.842231 -7.14352 0
M  V30 159 C 18.803 -0.274072 -5.90765 0
M  V30 160 C 18.165 -0.90867 -6.98515 0
M  V30 161 H 14.264 0.344811 -0.701875 0
M  V30 162 H 16.848 0.267141 -1.92859 0
M  V30 163 H 15.019 2.59775 -2.88741 0
M  V30 164 H 16.751 2.56243 -3.13243 0
M  V30 165 H 13.506 1.16547 -4.59036 0
M  V30 166 H 13.93 -0.300216 -6.76334 0
M  V30 167 H 18.572 0.917064 -4.12735 0
M  V30 168 H 16.29 -1.33019 -7.97077 0
M  V30 169 H 19.876 -0.345151 -5.80775 0
M  V30 170 H 18.756 -1.45299 -7.70622 0
M  V30 171 N 16.2591 1.48442 0.529413 0
M  V30 172 C 17.1891 1.65902 1.64313 0
M  V30 173 C 18.1701 0.507897 1.6234 0
M  V30 174 O 19.3551 0.740503 1.79528 0
M  V30 175 C 16.4851 1.69911 3.02898 0
M  V30 176 C 15.4391 2.8453 3.19729 0
M  V30 177 C 14.7651 2.73629 4.59381 0
M  V30 178 C 16.0651 4.25821 3.02447 0
M  V30 179 H 17.7591 2.5914 1.49955 0
M  V30 180 H 15.3051 1.24709 0.719982 0
M  V30 181 H 17.2581 1.80715 3.80684 0
M  V30 182 H 15.9821 0.732524 3.18279 0
M  V30 183 H 14.6411 2.73283 2.44361 0
M  V30 184 H 14.2891 1.74938 4.71599 0
M  V30 185 H 13.9891 3.50541 4.71588 0
M  V30 186 H 15.5131 2.86401 5.39265 0
M  V30 187 H 16.9271 4.37898 3.70024 0
M  V30 188 H 15.3241 5.03735 3.26146 0
M  V30 189 H 16.3941 4.42244 1.98867 0
M  V30 190 N 17.7372 -0.778329 1.37039 0
M  V30 191 C 18.7002 -1.87301 1.32102 0
M  V30 192 C 19.7002 -1.59198 0.226405 0
M  V30 193 O 20.8902 -1.67403 0.481861 0
M  V30 194 C 18.0222 -3.24309 1.05055 0
M  V30 195 H 19.2152 -1.93093 2.29467 0
M  V30 196 H 16.7682 -0.977358 1.21973 0
M  V30 197 H 17.5032 -3.24196 0.0819373 0
M  V30 198 H 17.2882 -3.46098 1.84279 0
M  V30 199 H 18.7782 -4.04382 1.04234 0
M  V30 200 N 19.2153 -1.21501 -1.00376 0
M  V30 201 C 20.1253 -0.991447 -2.12621 0
M  V30 202 C 21.1413 0.0568446 -1.73907 0
M  V30 203 O 22.3173 -0.13348 -2.00957 0
M  V30 204 C 19.3823 -0.560312 -3.42142 0
M  V30 205 C 18.4433 -1.68096 -3.95022 0
M  V30 206 C 17.6763 -1.2703 -5.18362 0
M  V30 207 O 17.8993 -0.144438 -5.70217 0
M  V30 208 O 16.8333 -2.08269 -5.64719 0
M  V30 209 H 20.6593 -1.93158 -2.34358 0
M  V30 210 H 18.2443 -0.999999 -1.10997 0
M  V30 211 H 20.1263 -0.329724 -4.20108 0
M  V30 212 H 18.8013 0.351089 -3.2179 0
M  V30 213 H 17.7083 -1.96597 -3.18278 0
M  V30 214 H 19.0413 -2.56983 -4.19786 0
M  V30 215 N 20.6934 1.19889 -1.02296 0
M  V30 216 C 21.6434 2.20777 -0.56934 0
M  V30 217 C 22.6274 1.56379 0.378741 0
M  V30 218 O 23.8194 1.75859 0.200673 0
M  V30 219 C 20.9484 3.43196 0.0845077 0
M  V30 220 C 20.0344 4.14749 -0.88566 0
M  V30 221 N 20.4254 4.62584 -2.04573 0
M  V30 222 C 18.7234 4.40347 -0.707835 0
M  V30 223 C 19.4244 5.17466 -2.65714 0
M  V30 224 N 18.4004 5.0791 -1.93723 0
M  V30 225 H 22.2024 2.55434 -1.45365 0
M  V30 226 H 19.7164 1.35897 -0.88915 0
M  V30 227 H 21.7134 4.14707 0.427067 0
M  V30 228 H 20.3734 3.10042 0.964574 0
M  V30 229 H 21.3844 4.57597 -2.4254 0
M  V30 230 H 18.0614 4.17317 0.12364 0
M  V30 231 H 19.4514 5.64808 -3.63925 0
M  V30 232 N 22.1715 0.800033 1.35784 0
M  V30 233 C 23.4205 0.37387 1.98205 0
M  V30 234 C 23.7335 -1.06302 1.64193 0
M  V30 235 O 24.9395 -1.59198 2.19928 0
M  V30 236 C 23.3955 0.617532 3.54562 0
M  V30 237 C 23.0035 2.06654 3.9749 0
M  V30 238 C 24.7475 0.256401 4.23725 0
M  V30 239 C 22.6545 2.2563 5.46667 0
M  V30 240 H 21.5845 0.136055 0.741623 0
M  V30 241 H 24.2355 0.983166 1.54939 0
M  V30 242 H 22.6175 -0.0616248 3.95952 0
M  V30 243 H 23.7915 2.78296 3.67271 0
M  V30 244 H 22.1065 2.38691 3.41197 0
M  V30 245 H 24.7035 0.376318 5.33374 0
M  V30 246 H 25.0465 -0.796692 4.08606 0
M  V30 247 H 25.5795 0.889214 3.87734 0
M  V30 248 H 22.3185 3.2936 5.66747 0
M  V30 249 H 21.8385 1.58504 5.78478 0
M  V30 250 H 23.5175 2.06861 6.1304 0
M  V30 251 N 23.6496 -1.47581 0.552962 0
M  V30 252 C 24.9266 -1.95563 -0.0381515 0
M  V30 253 C 25.3066 -1.49552 -1.48988 0
M  V30 254 O 24.6546 -0.732414 -2.16444 0
M  V30 255 C 24.8646 -3.48848 0.102919 0
M  V30 256 C 26.2126 -4.24577 -0.0446082 0
M  V30 257 O 27.2366 -3.56187 0.0302548 0
M  V30 258 O 26.0956 -5.46116 -0.204923 0
M  V30 259 H 23.1896 -0.824321 -0.0665067 0
M  V30 260 H 25.7356 -1.58001 0.619186 0
M  V30 261 H 24.5076 -3.75129 1.11328 0
M  V30 262 H 24.1306 -3.93165 -0.592224 0
M  V30 263 N 25.1277 -0.289203 -1.54924 0
M  V30 264 C 26.4047 0.376032 -1.91951 0
M  V30 265 C 26.7847 1.72622 -1.21511 0
M  V30 266 O 26.1327 2.25853 -0.346767 0
M  V30 267 C 26.3427 0.502378 -3.45365 0
M  V30 268 C 27.6907 0.778741 -4.17398 0
M  V30 269 O 28.7147 0.586647 -3.51336 0
M  V30 270 O 27.5737 1.14698 -5.34328 0
M  V30 271 H 24.6677 0.208167 -0.800372 0
M  V30 272 H 27.2137 -0.336394 -1.66332 0
M  V30 273 H 25.9857 -0.447255 -3.88736 0
M  V30 274 H 25.6087 1.26373 -3.76982 0
M  V30 275 N 26.6058 1.57591 -0.0167156 0
M  V30 276 C 28.0168 1.79201 0.523834 0
M  V30 277 C 28.3678 0.925796 1.72984 0
M  V30 278 O 27.4928 0.132792 2.15992 0
M  V30 279 C 28.0878 3.25 0.957091 0
M  V30 280 C 26.6468 3.47648 1.44283 0
M  V30 281 C 25.7938 2.74374 0.401757 0
M  V30 282 H 28.7448 1.56831 -0.242816 0
M  V30 283 H 28.7658 3.34031 1.82219 0
M  V30 284 H 28.2778 3.88019 0.0791415 0
M  V30 285 H 26.3788 2.89866 2.34113 0
M  V30 286 H 26.4918 4.56352 1.45877 0
M  V30 287 H 24.8558 2.39485 0.867121 0
M  V30 288 H 25.6388 3.40102 -0.467513 0
M  V30 289 N 28.0839 -0.256276 1.55502 0
M  V30 290 C 28.9939 -1.33882 1.92647 0
M  V30 291 C 30.0099 -1.53159 0.825727 0
M  V30 292 O 31.1859 -1.66963 1.12629 0
M  V30 293 C 28.2509 -2.6751 2.20543 0
M  V30 294 C 27.3119 -2.56836 3.43997 0
M  V30 295 C 26.5449 -3.84092 3.70553 0
M  V30 296 O 26.7679 -4.85545 2.99336 0
M  V30 297 O 25.7019 -3.83288 4.64084 0
M  V30 298 H 29.5279 -1.05374 2.84833 0
M  V30 299 H 27.1129 -0.456237 1.42263 0
M  V30 300 H 28.9949 -3.46492 2.39835 0
M  V30 301 H 27.6699 -2.9577 1.31536 0
M  V30 302 H 26.5769 -1.76172 3.30021 0
M  V30 303 H 27.9099 -2.33523 4.33275 0
M  V30 304 N 29.562 -1.4872 -0.521534 0
M  V30 305 C 30.811 -1.56419 -1.27341 0
M  V30 306 C 31.124 -0.246805 -1.94037 0
M  V30 307 O 32.33 -0.202122 -2.70747 0
M  V30 308 C 30.786 -2.75896 -2.31105 0
M  V30 309 C 30.394 -4.14311 -1.70441 0
M  V30 310 C 32.138 -2.92913 -3.07249 0
M  V30 311 C 30.045 -5.25038 -2.72194 0
M  V30 312 H 28.975 -0.582344 -0.478949 0
M  V30 313 H 31.626 -1.75071 -0.549779 0
M  V30 314 H 30.008 -2.50697 -3.06541 0
M  V30 315 H 31.182 -4.49564 -1.01136 0
M  V30 316 H 29.497 -4.02482 -1.06759 0
M  V30 317 H 32.094 -3.72805 -3.83302 0
M  V30 318 H 32.437 -2.02689 -3.63625 0
M  V30 319 H 32.97 -3.18054 -2.38928 0
M  V30 320 H 29.709 -6.17255 -2.20627 0
M  V30 321 H 29.229 -4.94263 -3.39801 0
M  V30 322 H 30.908 -5.53508 -3.35019 0
M  V30 323 N 31.0401 0.771051 -1.3745 0
M  V30 324 C 31.9721 1.89352 -1.29146 0
M  V30 325 C 32.9851 1.61477 -0.207124 0
M  V30 326 O 34.1741 1.72382 -0.463324 0
M  V30 327 C 31.2741 3.24596 -0.974195 0
M  V30 328 C 30.4471 3.80111 -2.16413 0
M  V30 329 C 29.5061 4.93832 -1.81703 0
M  V30 330 O 28.5321 5.09382 -2.54006 0
M  V30 331 N 29.7341 5.75483 -0.761573 0
M  V30 332 H 32.4991 1.96991 -2.25864 0
M  V30 333 H 30.0601 0.950191 -1.31084 0
M  V30 334 H 32.0521 3.98193 -0.722828 0
M  V30 335 H 30.6221 3.12454 -0.0955527 0
M  V30 336 H 29.8421 2.98284 -2.57721 0
M  V30 337 H 31.1301 4.13932 -2.95867 0
M  V30 338 H 30.5281 5.65469 -0.161609 0
M  V30 339 H 29.0851 6.49302 -0.570064 0
M  V30 340 N 32.5182 1.22032 0.997298 0
M  V30 341 C 33.7672 1.03637 1.73038 0
M  V30 342 C 34.0802 -0.429475 1.90827 0
M  V30 343 O 35.2862 -0.732995 2.61418 0
M  V30 344 C 33.7422 1.80582 3.11317 0
M  V30 345 C 33.3502 3.31387 3.01474 0
M  V30 346 C 35.0942 1.70621 3.88701 0
M  V30 347 C 33.0012 4.00791 4.3488 0
M  V30 348 H 31.9312 0.384179 0.648785 0
M  V30 349 H 34.5822 1.4584 1.11368 0
M  V30 350 H 32.9642 1.31175 3.73643 0
M  V30 351 H 34.1382 3.88155 2.4834 0
M  V30 352 H 32.4532 3.41976 2.37575 0
M  V30 353 H 35.0502 2.19799 4.87434 0
M  V30 354 H 35.3932 0.665823 4.10941 0
M  V30 355 H 35.9262 2.17547 3.33044 0
M  V30 356 H 32.6652 5.05064 4.1784 0
M  V30 357 H 32.1852 3.48811 4.87945 0
M  V30 358 H 33.8642 4.06139 5.03647 0
M  V30 359 N 33.9963 -1.19345 1.0293 0
M  V30 360 C 35.2453 -1.88363 0.721256 0
M  V30 361 C 35.5583 -1.80514 -0.753254 0
M  V30 362 O 36.7643 -2.44788 -1.17436 0
M  V30 363 C 35.2203 -3.37872 1.23978 0
M  V30 364 C 34.8283 -3.54278 2.74211 0
M  V30 365 C 36.5723 -4.12365 1.00775 0
M  V30 366 C 34.4793 -4.97682 3.19479 0
M  V30 367 H 33.4093 -0.705484 0.266098 0
M  V30 368 H 36.0603 -1.34928 1.24365 0
M  V30 369 H 34.4423 -3.90707 0.6453 0
M  V30 370 H 35.6163 -3.11769 3.39318 0
M  V30 371 H 33.9313 -2.93174 2.95699 0
M  V30 372 H 36.5283 -5.18119 1.32123 0
M  V30 373 H 36.8713 -4.16263 -0.0554308 0
M  V30 374 H 37.4043 -3.65668 1.56625 0
M  V30 375 H 34.1433 -4.98945 4.25128 0
M  V30 376 H 33.6633 -5.4095 2.591 0
M  V30 377 H 35.3423 -5.66337 3.12845 0
M  V30 378 N 35.4744 -0.807222 -1.35358 0
M  V30 379 C 36.7514 -0.311126 -1.9311 0
M  V30 380 C 37.1314 1.19937 -1.73719 0
M  V30 381 O 36.4794 1.99918 -1.10657 0
M  V30 382 C 36.6894 -0.723226 -3.41424 0
M  V30 383 C 38.0374 -0.713078 -4.18569 0
M  V30 384 O 39.0614 -0.664811 -3.49941 0
M  V30 385 O 37.9204 -0.772022 -5.41019 0
M  V30 386 H 35.0144 -0.081526 -0.822972 0
M  V30 387 H 37.5604 -0.890962 -1.4443 0
M  V30 388 H 36.3324 -1.76426 -3.4927 0
M  V30 389 H 35.9554 -0.118232 -3.97424 0
M  V30 390 N 36.9525 1.47285 -0.560781 0
M  V30 391 C 37.9155 2.28535 0.174488 0
M  V30 392 C 38.9155 1.37153 0.839388 0
M  V30 393 O 40.1055 1.59748 0.694702 0
M  V30 394 C 37.2375 3.16934 1.25561 0
M  V30 395 H 38.4305 2.95012 -0.539262 0
M  V30 396 H 35.9835 1.53034 -0.317865 0
M  V30 397 H 36.7185 2.55157 2.00164 0
M  V30 398 H 36.5035 3.8419 0.783604 0
M  V30 399 H 37.9935 3.78143 1.77193 0
M  V30 400 N 38.4306 0.297415 1.54768 0
M  V30 401 C 39.8466 -0.0560823 1.59501 0
M  V30 402 C 40.0466 -1.52725 1.31444 0
M  V30 403 O 39.1026 -2.27947 1.08611 0
M  V30 404 C 40.4156 0.338631 2.98787 0
M  V30 405 C 41.9636 0.287097 3.11681 0
M  V30 406 C 42.4386 0.656579 4.53269 0
M  V30 407 N 43.9296 0.608977 4.59179 0
M  V30 408 C 44.6646 0.867385 5.66802 0
M  V30 409 N 44.1606 1.19157 6.82476 0
M  V30 410 N 45.9536 0.794687 5.56454 0
M  V30 411 H 38.1046 1.25624 1.71267 0
M  V30 412 H 40.3676 0.509057 0.799728 0
M  V30 413 H 40.0736 1.36263 3.2423 0
M  V30 414 H 39.9476 -0.309508 3.75928 0
M  V30 415 H 42.3346 -0.727649 2.85988 0
M  V30 416 H 42.4156 0.969809 2.36703 0
M  V30 417 H 42.0596 1.66912 4.7969 0
M  V30 418 H 41.9896 -0.0481649 5.26578 0
M  V30 419 H 44.4806 0.369198 3.76092 0
M  V30 420 H 44.7936 1.37482 7.60473 0
M  V30 421 H 43.1386 1.22958 6.84037 0
M  V30 422 H 46.3296 0.541098 4.64962 0
M  V30 423 H 46.5026 0.999445 6.40246 0
M  V30 424 N 39.9087 -1.5758 0.0250728 0
M  V30 425 C 40.8417 -2.05473 -0.992777 0
M  V30 426 C 41.8197 -0.949661 -1.31986 0
M  V30 427 O 43.0037 -1.21969 -1.43722 0
M  V30 428 C 40.1307 -2.4734 -2.31389 0
M  V30 429 C 39.1767 -3.68827 -2.1417 0
M  V30 430 S 40.0097 -5.15655 -1.44429 0
M  V30 431 C 41.1657 -5.60814 -2.77918 0
M  V30 432 H 41.3987 -2.91486 -0.585078 0
M  V30 433 H 38.9317 -1.53269 -0.186507 0
M  V30 434 H 40.8897 -2.72127 -3.07339 0
M  V30 435 H 39.5507 -1.6168 -2.69292 0
M  V30 436 H 38.7437 -3.95955 -3.11826 0
M  V30 437 H 38.3457 -3.44172 -1.46362 0
M  V30 438 H 40.6377 -5.64806 -3.74166 0
M  V30 439 H 41.5807 -6.60414 -2.55459 0
M  V30 440 H 41.9887 -4.8845 -2.82979 0
M  V30 441 N 41.3868 0.248026 -1.55636 0
M  V30 442 C 42.3498 1.29044 -1.89421 0
M  V30 443 C 43.3498 1.41134 -0.770581 0
M  V30 444 O 44.5398 1.39854 -1.03858 0
M  V30 445 C 41.6718 2.66831 -2.12165 0
M  V30 446 H 42.8648 1.00305 -2.82629 0
M  V30 447 H 40.4178 0.487265 -1.48511 0
M  V30 448 H 41.1528 3.00711 -1.21422 0
M  V30 449 H 40.9378 2.59438 -2.93997 0
M  V30 450 H 42.4278 3.42103 -2.3949 0
M  V30 451 N 42.8649 1.48995 0.513639 0
M  V30 452 C 44.0899 1.61792 1.29762 0
M  V30 453 C 44.5149 0.284475 1.85936 0
M  V30 454 O 43.8729 -0.746185 1.65232 0
M  V30 455 C 43.9209 2.67993 2.41272 0
M  V30 456 O 43.0249 2.26287 3.44772 0
M  V30 457 H 42.3659 0.541963 0.38363 0
M  V30 458 H 44.8959 1.95097 0.616307 0
M  V30 459 H 44.9059 2.89772 2.87221 0
M  V30 460 H 43.5809 3.64791 1.9975 0
M  V30 461 H 42.1579 2.14788 3.04829 0
M  V30 462 N 44.343 -0.763751 1.37857 0
M  V30 463 C 45.754 -1.3405 1.29952 0
M  V30 464 C 46.105 -1.96138 -0.0492898 0
M  V30 465 O 45.23 -1.94372 -0.951239 0
M  V30 466 C 45.825 -2.43729 2.35333 0
M  V30 467 C 44.384 -2.97151 2.31037 0
M  V30 468 C 43.531 -1.70438 2.18738 0
M  V30 469 H 46.482 -0.563396 1.48363 0
M  V30 470 H 46.503 -3.23412 2.00462 0
M  V30 471 H 46.015 -1.9851 3.33489 0
M  V30 472 H 44.116 -3.46724 1.3643 0
M  V30 473 H 44.229 -3.52221 3.24772 0
M  V30 474 H 42.593 -1.93673 1.65418 0
M  V30 475 H 43.376 -1.27312 3.18821 0
M  V30 476 N 45.8211 -1.22559 -0.990812 0
M  V30 477 C 47.0691 -1.04933 -1.72724 0
M  V30 478 C 47.3901 0.416158 -1.90508 0
M  V30 479 O 46.6601 1.29918 -1.46622 0
M  V30 480 H 45.2401 -0.385296 -0.639965 0
M  V30 481 H 47.9021 -1.54105 -1.19322 0
M  V30 482 H 46.9981 -1.52886 -2.72089 0
M  V30 483 N 47.2992 1.18797 -1.03562 0
M  V30 484 C 48.2312 2.21731 -0.580337 0
M  V30 485 C 49.2442 1.59051 0.347349 0
M  V30 486 O 50.4332 1.77929 0.142669 0
M  V30 487 C 47.5332 3.38459 0.172805 0
M  V30 488 C 46.7062 4.3072 -0.761496 0
M  V30 489 C 45.7652 5.26174 -0.0525547 0
M  V30 490 O 44.7912 5.65108 -0.681333 0
M  V30 491 N 45.9932 5.67624 1.21586 0
M  V30 492 H 48.7582 2.61417 -1.46565 0
M  V30 493 H 46.3192 1.33531 -0.915476 0
M  V30 494 H 48.3112 3.99335 0.656793 0
M  V30 495 H 46.8812 2.97507 0.959602 0
M  V30 496 H 46.1012 3.67525 -1.42544 0
M  V30 497 H 47.3892 4.89267 -1.39626 0
M  V30 498 H 46.7872 5.38038 1.74732 0
M  V30 499 H 45.3442 6.30721 1.64421 0
M  V30 500 N 48.7773 0.814389 1.34928 0
M  V30 501 C 49.6873 0.231978 2.3345 0
M  V30 502 C 50.7033 -0.629139 1.62228 0
M  V30 503 O 51.8793 -0.539052 1.94052 0
M  V30 504 C 48.9443 -0.603482 3.41407 0
M  V30 505 C 48.0053 0.279037 4.28392 0
M  V30 506 C 47.2383 -0.516643 5.31193 0
M  V30 507 O 47.4613 -1.75068 5.4287 0
M  V30 508 O 46.3953 0.0965652 6.01823 0
M  V30 509 H 50.2213 1.04721 2.85074 0
M  V30 510 H 47.8063 0.576343 1.37836 0
M  V30 511 H 49.6883 -1.07908 4.0735 0
M  V30 512 H 48.3633 -1.39618 2.92042 0
M  V30 513 H 47.2703 0.801948 3.65403 0
M  V30 514 H 48.6033 1.03588 4.81176 0
M  V30 515 N 50.2554 -1.46986 0.568584 0
M  V30 516 C 51.5324 -1.95592 -0.0174074 0
M  V30 517 C 51.9124 -1.51124 -1.47393 0
M  V30 518 O 51.2604 -0.755329 -2.15655 0
M  V30 519 C 51.4704 -3.48719 0.139913 0
M  V30 520 C 52.8184 -4.246 0.000426376 0
M  V30 521 O 53.8424 -3.56135 0.0680316 0
M  V30 522 O 52.7014 -5.46302 -0.146988 0
M  V30 523 H 49.7954 -0.82498 -0.0577599 0
M  V30 524 H 52.3414 -1.57335 0.635909 0
M  V30 525 H 51.1134 -3.73927 1.15301 0
M  V30 526 H 50.7364 -3.93771 -0.550491 0
M  V30 527 N 51.7335 -0.305618 -1.54608 0
M  V30 528 C 53.1495 0.0476228 -1.59529 0
M  V30 529 C 53.3495 1.52025 -1.32252 0
M  V30 530 O 52.4055 2.27368 -1.09818 0
M  V30 531 C 53.7185 -0.354471 -2.98603 0
M  V30 532 C 55.2665 -0.303622 -3.11524 0
M  V30 533 C 55.7415 -0.680608 -4.52915 0
M  V30 534 N 57.2325 -0.63332 -4.5885 0
M  V30 535 C 57.9675 -0.897432 -5.66334 0
M  V30 536 N 57.4635 -1.22775 -6.81834 0
M  V30 537 N 59.2565 -0.824186 -5.56025 0
M  V30 538 H 51.4075 -1.2653 -1.70599 0
M  V30 539 H 53.6705 -0.513291 -0.797017 0
M  V30 540 H 53.3765 -1.3798 -3.23503 0
M  V30 541 H 53.2505 0.289568 -3.76087 0
M  V30 542 H 55.6375 0.712472 -2.8637 0
M  V30 543 H 55.7185 -0.982348 -2.36185 0
M  V30 544 H 55.3625 -1.69453 -4.78799 0
M  V30 545 H 55.2925 0.0202385 -5.26596 0
M  V30 546 H 57.7835 -0.389138 -3.75891 0
M  V30 547 H 58.0965 -1.41513 -7.59733 0
M  V30 548 H 56.4415 -1.26583 -6.83375 0
M  V30 549 H 59.6325 -0.565748 -4.64669 0
M  V30 550 H 59.8055 -1.03338 -6.39707 0
M  V30 551 N 53.2116 1.57565 -0.0334293 0
M  V30 552 C 54.1596 2.1164 0.96496 0
M  V30 553 C 55.1536 1.04398 1.33407 0
M  V30 554 O 56.3596 1.22828 1.3158 0
M  V30 555 H 52.7346 0.676222 0.32898 0
M  V30 556 H 54.7056 2.94455 0.483614 0
M  V30 557 C 53.4546 2.66207 2.23672 0
M  V30 558 H 52.7776 3.48378 1.96145 0
M  V30 559 H 54.2176 3.07685 2.9173 0
M  V30 560 C 52.6766 1.59151 2.96939 0
M  V30 561 O 53.2066 0.993858 3.89211 0
M  V30 562 N 51.4126 1.31093 2.59351 0
M  V30 563 H 50.9596 1.7988 1.84393 0
M  V30 564 H 50.9176 0.596889 3.08682 0
M  V30 565 N 54.6897 -0.239769 1.55765 0
M  V30 566 C 55.9357 -0.968234 1.78194 0
M  V30 567 C 56.2687 -1.84701 0.599938 0
M  V30 568 O 55.5437 -1.9031 -0.401524 0
M  V30 569 C 55.8267 -1.8227 3.10564 0
M  V30 570 C 55.6797 -0.971633 4.3918 0
M  V30 571 C 56.9987 -2.80388 3.39221 0
M  V30 572 H 54.1177 -0.350572 0.648281 0
M  V30 573 H 56.7597 -0.238259 1.885 0
M  V30 574 H 54.9097 -2.44507 3.01908 0
M  V30 575 H 56.5817 -0.367408 4.59835 0
M  V30 576 H 54.8247 -0.276276 4.32919 0
M  V30 577 H 55.4957 -1.60346 5.28198 0
M  V30 578 H 57.9717 -2.28287 3.47885 0
M  V30 579 H 56.8477 -3.3729 4.33044 0
M  V30 580 H 57.1087 -3.57212 2.60484 0
M  V30 581 N 56.1678 -1.49265 -0.50573 0
M  V30 582 C 57.1308 -1.65075 -1.59006 0
M  V30 583 C 58.1308 -0.522768 -1.52065 0
M  V30 584 O 59.3208 -0.789117 -1.55302 0
M  V30 585 C 56.4528 -1.64369 -2.98656 0
M  V30 586 H 57.6458 -2.61784 -1.46319 0
M  V30 587 H 55.1988 -1.38226 -0.729616 0
M  V30 588 H 55.9338 -0.692272 -3.16825 0
M  V30 589 H 55.7188 -2.46282 -3.05103 0
M  V30 590 H 57.2088 -1.78674 -3.77446 0
M  V30 591 N 57.6459 0.756429 -1.3826 0
M  V30 592 C 58.5779 1.87971 -1.31147 0
M  V30 593 C 59.5909 1.61248 -0.224239 0
M  V30 594 O 60.7799 1.71881 -0.481581 0
M  V30 595 C 57.8799 3.23545 -1.00857 0
M  V30 596 C 57.0529 3.77794 -2.20432 0
M  V30 597 C 56.1119 4.91877 -1.86931 0
M  V30 598 O 55.1379 5.06659 -2.59395 0
M  V30 599 N 56.3399 5.74643 -0.822568 0
M  V30 600 H 59.1049 1.94585 -2.2794 0
M  V30 601 H 56.6659 0.936234 -1.32084 0
M  V30 602 H 58.6579 3.97403 -0.765021 0
M  V30 603 H 57.2279 3.12335 -0.128687 0
M  V30 604 H 56.4479 2.95534 -2.6087 0
M  V30 605 H 57.7359 4.10771 -3.00241 0
M  V30 606 H 57.1339 5.65266 -0.221575 0
M  V30 607 H 55.6909 6.48661 -0.638899 0
M  V30 608 N 59.124 1.23083 0.984299 0
M  V30 609 C 60.034 1.02515 2.11016 0
M  V30 610 C 61.05 -0.0291702 1.73976 0
M  V30 611 O 62.226 0.165434 2.00719 0
M  V30 612 C 59.291 0.614673 3.41208 0
M  V30 613 C 58.352 1.74359 3.92297 0
M  V30 614 C 57.585 1.35261 5.16275 0
M  V30 615 O 57.808 0.235136 5.69915 0
M  V30 616 O 56.742 2.17227 5.61334 0
M  V30 617 H 60.568 1.96862 2.31255 0
M  V30 618 H 58.153 1.01753 1.09392 0
M  V30 619 H 60.035 0.396518 4.1953 0
M  V30 620 H 58.71 -0.299851 3.22308 0
M  V30 621 H 57.617 2.01635 3.1511 0
M  V30 622 H 58.95 2.63629 4.15645 0
M  V30 623 N 60.6021 -1.18246 1.0419 0
M  V30 624 C 61.8321 -1.91916 0.764961 0
M  V30 625 C 62.2401 -1.76485 -0.681898 0
M  V30 626 O 61.5831 -1.09275 -1.47664 0
M  V30 627 C 61.6451 -3.4373 1.05309 0
M  V30 628 C 61.3091 -3.8294 2.4941 0
M  V30 629 C 62.3061 -3.86621 3.47592 0
M  V30 630 C 59.9911 -4.142 2.84155 0
M  V30 631 C 61.9851 -4.21013 4.78568 0
M  V30 632 C 59.6721 -4.48262 4.15337 0
M  V30 633 C 60.6701 -4.51645 5.12353 0
M  V30 634 O 60.3581 -4.84911 6.41183 0
M  V30 635 H 60.0901 -0.61606 0.278292 0
M  V30 636 H 62.6441 -1.50947 1.39299 0
M  V30 637 H 60.8741 -3.84946 0.367933 0
M  V30 638 H 62.5631 -3.9865 0.763752 0
M  V30 639 H 63.3291 -3.62607 3.22089 0
M  V30 640 H 59.2081 -4.10743 2.09311 0
M  V30 641 H 62.7521 -4.23568 5.54289 0
M  V30 642 H 58.6491 -4.71737 4.40607 0
M  V30 643 H 59.4171 -5.02809 6.45852 0
M  V30 644 N 62.0802 -0.821533 -1.34494 0
M  V30 645 C 63.0102 -0.257138 -2.3208 0
M  V30 646 C 63.9912 0.625645 -1.58176 0
M  V30 647 O 65.1762 0.552811 -1.86166 0
M  V30 648 C 62.3062 0.582958 -3.42372 0
M  V30 649 C 61.2602 -0.202571 -4.2752 0
M  V30 650 C 60.5862 0.760179 -5.29269 0
M  V30 651 C 61.8862 -1.40998 -5.02908 0
M  V30 652 H 63.5802 -1.07247 -2.79532 0
M  V30 653 H 61.1262 -0.517163 -1.34393 0
M  V30 654 H 63.0792 0.987972 -4.09655 0
M  V30 655 H 61.8032 1.43133 -2.93565 0
M  V30 656 H 60.4622 -0.588936 -3.61838 0
M  V30 657 H 60.1102 1.60447 -4.76724 0
M  V30 658 H 59.8102 0.238809 -5.87115 0
M  V30 659 H 61.3342 1.16308 -5.9942 0
M  V30 660 H 62.7482 -1.07905 -5.63054 0
M  V30 661 H 61.1452 -1.86689 -5.70322 0
M  V30 662 H 62.2152 -2.1889 -4.32684 0
M  V30 663 N 63.5583 1.46682 -0.576371 0
M  V30 664 C 64.5063 2.31953 0.17335 0
M  V30 665 C 65.5003 1.44098 0.89062 0
M  V30 666 O 66.7063 1.60759 0.809728 0
M  V30 667 H 63.0813 0.748273 0.0747727 0
M  V30 668 H 65.0523 2.93007 -0.564738 0
M  V30 669 C 63.8013 3.27142 1.17786 0
M  V30 670 H 63.1243 3.94719 0.635361 0
M  V30 671 H 64.5643 3.896 1.67296 0
M  V30 672 C 63.0233 2.52036 2.23561 0
M  V30 673 O 63.5533 2.27877 3.3081 0
M  V30 674 N 61.7593 2.12709 1.97998 0
M  V30 675 H 61.3063 2.32557 1.10792 0
M  V30 676 H 61.2643 1.62776 2.68982 0
M  V30 677 N 65.0364 0.313813 1.54444 0
M  V30 678 C 66.2844 -0.291099 1.99993 0
M  V30 679 C 66.6054 -1.53418 1.20366 0
M  V30 680 O 65.8754 -1.93544 0.302927 0
M  V30 681 H 64.4554 -0.110552 0.738774 0
M  V30 682 H 67.1174 0.428106 1.9014 0
M  V30 683 H 66.2134 -0.554268 3.07139 0
M  V30 684 N 66.5145 -1.57545 0.0417849 0
M  V30 685 C 67.4645 -2.07483 -0.945247 0
M  V30 686 C 68.4485 -0.977983 -1.27767 0
M  V30 687 O 69.6405 -1.24142 -1.26166 0
M  V30 688 C 66.7695 -2.61576 -2.22335 0
M  V30 689 C 65.8555 -3.78213 -1.91874 0
M  V30 690 N 66.2465 -4.88344 -1.31733 0
M  V30 691 C 64.5445 -3.8694 -2.21796 0
M  V30 692 C 65.2455 -5.69462 -1.1869 0
M  V30 693 N 64.2215 -5.16771 -1.68666 0
M  V30 694 H 68.0235 -2.90029 -0.475441 0
M  V30 695 H 65.5375 -1.61581 -0.162911 0
M  V30 696 H 67.5345 -2.95651 -2.93932 0
M  V30 697 H 66.1945 -1.80465 -2.69931 0
M  V30 698 H 67.2055 -5.08335 -0.990729 0
M  V30 699 H 63.8825 -3.16757 -2.71977 0
M  V30 700 H 65.2725 -6.68023 -0.720793 0
M  V30 701 N 67.9926 0.231505 -1.5589 0
M  V30 702 C 69.2416 0.955346 -1.7764 0
M  V30 703 C 69.5546 1.85893 -0.608546 0
M  V30 704 O 70.7606 2.62067 -0.70943 0
M  V30 705 C 69.2166 1.74886 -3.14552 0
M  V30 706 C 68.8246 0.891915 -4.39032 0
M  V30 707 C 70.5686 2.46452 -3.45633 0
M  V30 708 C 68.4756 1.68221 -5.66971 0
M  V30 709 H 67.4056 0.360446 -0.662265 0
M  V30 710 H 70.0566 0.209516 -1.823 0
M  V30 711 H 68.4386 2.53723 -3.04041 0
M  V30 712 H 69.6126 0.144793 -4.60572 0
M  V30 713 H 67.9276 0.288863 -4.15397 0
M  V30 714 H 70.5246 3.06061 -4.38441 0
M  V30 715 H 70.8676 3.18841 -2.67668 0
M  V30 716 H 71.4006 1.74613 -3.57428 0
M  V30 717 H 68.1396 1.00178 -6.478 0
M  V30 718 H 67.6596 2.4042 -5.49507 0
M  V30 719 H 69.3386 2.24544 -6.06786 0
M  V30 720 N 69.4707 1.49531 0.497807 0
M  V30 721 C 70.8817 1.52344 1.07927 0
M  V30 722 C 71.2327 0.311469 1.93712 0
M  V30 723 O 70.3577 -0.578405 2.08527 0
M  V30 724 C 70.9527 2.76062 1.96405 0
M  V30 725 C 69.5117 2.81643 2.49709 0
M  V30 726 C 68.6587 2.46299 1.27404 0
M  V30 727 H 71.6097 1.56182 0.281576 0
M  V30 728 H 71.6307 2.56405 2.81135 0
M  V30 729 H 71.1427 3.64254 1.33943 0
M  V30 730 H 69.2437 1.97739 3.15801 0
M  V30 731 H 69.3567 3.83891 2.86643 0
M  V30 732 H 67.7207 1.98148 1.60029 0
M  V30 733 H 68.5037 3.36769 0.66645 0
M  V30 734 N 70.9488 -0.749086 1.3866 0
M  V30 735 C 72.1968 -1.50535 1.34847 0
M  V30 736 C 72.5178 -1.94909 -0.0595016 0
M  V30 737 O 71.7878 -1.67973 -1.00806 0
M  V30 738 H 70.3678 -0.558395 0.49619 0
M  V30 739 H 73.0298 -0.890165 1.73384 0
M  V30 740 H 72.1258 -2.39413 2.00219 0
M  V30 741 N 72.4269 -1.23603 -0.977757 0
M  V30 742 C 73.3899 -1.02069 -2.05218 0
M  V30 743 C 74.3899 0.0184305 -1.60789 0
M  V30 744 O 75.5799 -0.221569 -1.72785 0
M  V30 745 C 72.7119 -0.544926 -3.36517 0
M  V30 746 H 73.9049 -1.9742 -2.25755 0
M  V30 747 H 71.4579 -1.05684 -1.15155 0
M  V30 748 H 72.1929 0.412241 -3.21669 0
M  V30 749 H 71.9779 -1.2948 -3.70105 0
M  V30 750 H 73.4679 -0.414985 -4.15533 0
M  V30 751 N 73.905 1.17692 -1.04816 0
M  V30 752 C 75.151 1.88137 -0.75711 0
M  V30 753 C 75.484 1.80604 0.713841 0
M  V30 754 O 74.759 1.21146 1.52164 0
M  V30 755 C 75.042 3.38318 -1.2334 0
M  V30 756 C 74.895 3.54622 -2.76701 0
M  V30 757 C 76.214 4.32214 -0.829415 0
M  V30 758 H 73.333 0.683163 -0.27651 0
M  V30 759 H 75.975 1.38424 -1.30149 0
M  V30 760 H 74.125 3.80787 -0.770286 0
M  V30 761 H 75.797 3.21194 -3.31107 0
M  V30 762 H 74.04 2.97026 -3.16161 0
M  V30 763 H 74.711 4.60028 -3.05088 0
M  V30 764 H 77.187 3.97565 -1.22805 0
M  V30 765 H 76.063 5.35838 -1.19033 0
M  V30 766 H 76.324 4.41294 0.266891 0
M  V30 767 N 75.3831 0.828654 1.34056 0
M  V30 768 C 76.6301 0.419458 1.98108 0
M  V30 769 C 76.9581 -1.01886 1.65679 0
M  V30 770 O 76.2131 -1.72539 0.923512 0
M  V30 771 C 76.5121 0.575226 3.52741 0
M  V30 772 C 76.1781 1.98012 4.05095 0
M  V30 773 C 74.8401 2.36442 4.19104 0
M  V30 774 C 77.1921 2.89824 4.33188 0
M  V30 775 C 74.5201 3.66009 4.58535 0
M  V30 776 C 76.8721 4.1886 4.74066 0
M  V30 777 C 75.5361 4.5726 4.86281 0
M  V30 778 H 74.8061 0.153491 0.724929 0
M  V30 779 H 77.4531 1.05371 1.59904 0
M  V30 780 H 75.7581 -0.142385 3.91541 0
M  V30 781 H 77.4551 0.239057 4.00287 0
M  V30 782 H 74.0451 1.67162 3.94658 0
M  V30 783 H 78.2291 2.61375 4.21897 0
M  V30 784 H 73.4851 3.95579 4.66184 0
M  V30 785 H 77.6591 4.90086 4.94761 0
M  V30 786 H 75.2861 5.57707 5.16592 0
M  V30 787 N 76.8612 -1.46375 0.584142 0
M  V30 788 C 78.1082 -2.02378 0.0702675 0
M  V30 789 C 78.4362 -1.45545 -1.29023 0
M  V30 790 O 77.6912 -0.610967 -1.85918 0
M  V30 791 C 77.9902 -3.57373 -0.0439342 0
M  V30 792 C 77.6562 -4.33252 1.24915 0
M  V30 793 C 76.3182 -4.53701 1.60341 0
M  V30 794 C 78.6702 -4.7681 2.1048 0
M  V30 795 C 75.9982 -5.1496 2.81128 0
M  V30 796 C 78.3502 -5.39404 3.30494 0
M  V30 797 C 77.0142 -5.5808 3.66201 0
M  V30 798 H 76.2842 -0.740554 0.0257127 0
M  V30 799 H 78.9312 -1.75727 0.761065 0
M  V30 800 H 77.2362 -3.83169 -0.817869 0
M  V30 801 H 78.9332 -3.98384 -0.457318 0
M  V30 802 H 75.5232 -4.17633 0.963364 0
M  V30 803 H 79.7072 -4.60766 1.84414 0
M  V30 804 H 74.9632 -5.27611 3.08928 0
M  V30 805 H 79.1372 -5.72114 3.97063 0
M  V30 806 H 76.7642 -6.05318 4.59885 0
M  V30 807 N 78.3393 -0.321999 -1.54275 0
M  V30 808 C 79.6163 0.335232 -1.92706 0
M  V30 809 C 79.9963 1.70006 -1.25145 0
M  V30 810 O 79.3443 2.25067 -0.394596 0
M  V30 811 C 79.5543 0.429008 -3.46353 0
M  V30 812 C 80.9023 0.690029 -4.18956 0
M  V30 813 O 81.9263 0.511992 -3.52501 0
M  V30 814 O 80.7853 1.03338 -5.36641 0
M  V30 815 H 77.8793 0.191143 -0.804608 0
M  V30 816 H 80.4253 -0.3716 -1.65581 0
M  V30 817 H 79.1973 -0.529611 -3.87699 0
M  V30 818 H 78.8203 1.18348 -3.79578 0
M  V30 819 N 79.8174 1.5752 -0.0501392 0
M  V30 820 C 81.0664 1.91827 0.623328 0
M  V30 821 C 81.3794 0.930222 1.72065 0
M  V30 822 O 82.5854 1.1653 2.4522 0
M  V30 823 C 81.0414 3.40692 1.16003 0
M  V30 824 C 80.6494 4.479 0.0948811 0
M  V30 825 C 82.3934 3.84034 1.80881 0
M  V30 826 C 80.3004 5.87879 0.644411 0
M  V30 827 H 79.2304 0.715918 0.236596 0
M  V30 828 H 81.8814 1.83115 -0.118861 0
M  V30 829 H 80.2634 3.44405 1.9545 0
M  V30 830 H 81.4374 4.55775 -0.678675 0
M  V30 831 H 79.7524 4.13892 -0.45637 0
M  V30 832 H 82.3494 4.85984 2.22988 0
M  V30 833 H 82.6924 3.20225 2.6601 0
M  V30 834 H 83.2254 3.82833 1.0809 0
M  V30 835 H 79.9644 6.55282 -0.169229 0
M  V30 836 H 79.4844 5.83567 1.38598 0
M  V30 837 H 81.1634 6.37098 1.12763 0
M  V30 838 N 81.2955 -0.223234 1.56011 0
M  V30 839 C 82.2055 -1.29766 1.95443 0
M  V30 840 C 83.2215 -1.51373 0.858028 0
M  V30 841 O 84.3975 -1.64536 1.16146 0
M  V30 842 C 81.4625 -2.62772 2.26167 0
M  V30 843 C 80.5235 -2.49482 3.49367 0
M  V30 844 C 79.7565 -3.76145 3.78616 0
M  V30 845 O 79.9795 -4.79087 3.09568 0
M  V30 846 O 78.9135 -3.73358 4.72109 0
M  V30 847 H 82.7395 -0.99309 2.87004 0
M  V30 848 H 80.3245 -0.425958 1.43199 0
M  V30 849 H 82.2065 -3.41327 2.47131 0
M  V30 850 H 80.8815 -2.92913 1.37781 0
M  V30 851 H 79.7885 -1.69133 3.33684 0
M  V30 852 H 81.1215 -2.2428 4.38131 0
M  V30 853 N 82.7736 -1.49793 -0.48987 0
M  V30 854 C 83.7366 -1.66752 -1.57246 0
M  V30 855 C 84.7366 -0.538867 -1.51502 0
M  V30 856 O 85.9266 -0.805545 -1.54456 0
M  V30 857 C 83.0586 -1.67528 -2.96896 0
M  V30 858 H 84.2516 -2.63321 -1.43534 0
M  V30 859 H 81.8046 -1.38992 -0.714914 0
M  V30 860 H 82.5396 -0.725837 -3.16073 0
M  V30 861 H 82.3246 -2.49504 -3.02473 0
M  V30 862 H 83.8146 -1.82667 -3.7553 0
M  V30 863 N 84.2517 0.741722 -1.39055 0
M  V30 864 C 85.1817 1.869 -1.39966 0
M  V30 865 C 86.1627 1.6804 -0.26392 0
M  V30 866 O 87.3477 1.88458 -0.468755 0
M  V30 867 C 84.4777 3.24572 -1.23574 0
M  V30 868 C 83.4317 3.58056 -2.34477 0
M  V30 869 C 82.7577 4.94593 -2.0318 0
M  V30 870 C 84.0577 3.61716 -3.76774 0
M  V30 871 H 85.7517 1.86395 -2.34302 0
M  V30 872 H 83.2977 0.895361 -1.1278 0
M  V30 873 H 85.2507 4.031 -1.22834 0
M  V30 874 H 83.9747 3.25587 -0.257045 0
M  V30 875 H 82.6337 2.81854 -2.34423 0
M  V30 876 H 82.2817 4.92181 -1.03765 0
M  V30 877 H 81.9817 5.17964 -2.77465 0
M  V30 878 H 83.5057 5.75486 -2.04079 0
M  V30 879 H 84.9197 4.30335 -3.78794 0
M  V30 880 H 83.3167 3.96603 -4.50362 0
M  V30 881 H 84.3867 2.61672 -4.08235 0
M  V30 882 N 85.7298 1.2412 0.971189 0
M  V30 883 C 86.9548 1.10667 1.75407 0
M  V30 884 C 87.3798 -0.337048 1.85056 0
M  V30 885 O 86.7378 -1.24396 1.31892 0
M  V30 886 C 86.7858 1.74726 3.15441 0
M  V30 887 O 85.8898 1.01566 3.99697 0
M  V30 888 H 85.2308 0.387341 0.539317 0
M  V30 889 H 87.7608 1.64358 1.2185 0
M  V30 890 H 87.7708 1.80341 3.6598 0
M  V30 891 H 86.4458 2.79773 3.07734 0
M  V30 892 H 85.0228 1.03713 3.58187 0
M  V30 893 N 87.2079 -1.17134 1.05439 0
M  V30 894 C 88.4849 -1.83411 0.679699 0
M  V30 895 C 88.8649 -1.9368 -0.839726 0
M  V30 896 O 88.2129 -1.47325 -1.74664 0
M  V30 897 C 88.4229 -3.20918 1.37159 0
M  V30 898 C 89.7709 -3.96796 1.51123 0
M  V30 899 O 90.7949 -3.30406 1.3308 0
M  V30 900 O 89.6539 -5.15778 1.80651 0
M  V30 901 H 86.7479 -0.79154 0.239569 0
M  V30 902 H 89.2939 -1.24411 1.15413 0
M  V30 903 H 88.0659 -3.08428 2.40807 0
M  V30 904 H 87.6889 -3.87587 0.886674 0
M  V30 905 N 88.686 -0.835752 -1.33615 0
M  V30 906 C 89.636 -0.238856 -2.26745 0
M  V30 907 C 90.62 0.604343 -1.49119 0
M  V30 908 O 91.812 0.456822 -1.71003 0
M  V30 909 C 88.941 0.587725 -3.38232 0
M  V30 910 C 88.027 -0.266811 -4.2326 0
M  V30 911 N 88.418 -1.34403 -4.87616 0
M  V30 912 C 86.716 -0.0533131 -4.45968 0
M  V30 913 C 87.417 -1.86819 -5.50884 0
M  V30 914 N 86.393 -1.17013 -5.30857 0
M  V30 915 H 90.195 -1.06266 -2.74016 0
M  V30 916 H 87.709 -0.679881 -1.47483 0
M  V30 917 H 89.706 1.03161 -4.03935 0
M  V30 918 H 88.366 1.40954 -2.9251 0
M  V30 919 H 89.377 -1.7269 -4.88261 0
M  V30 920 H 86.054 0.735312 -4.10974 0
M  V30 921 H 87.444 -2.7701 -6.1214 0
M  V30 922 N 90.1641 1.46063 -0.591896 0
M  V30 923 C 91.3921 2.06717 -0.0868936 0
M  V30 924 C 91.8071 1.43916 1.22203 0
M  V30 925 O 91.1641 0.547698 1.74088 0
M  V30 926 C 91.2151 3.6142 0.0758725 0
M  V30 927 O 90.9361 4.21874 -1.18126 0
M  V30 928 C 92.4371 4.39025 0.61416 0
M  V30 929 H 89.6571 0.668162 -0.0616518 0
M  V30 930 H 92.2011 1.8755 -0.815175 0
M  V30 931 H 90.3561 3.79983 0.754413 0
M  V30 932 H 90.7701 5.14861 -1.00092 0
M  V30 933 H 92.2441 5.4783 0.677193 0
M  V30 934 H 92.7211 4.07708 1.63312 0
M  V30 935 H 93.3271 4.2529 -0.0298142 0
M  V30 936 N 91.6422 0.330177 1.54103 0
M  V30 937 C 92.8672 -0.274893 2.0557 0
M  V30 938 C 93.2922 -1.44487 1.20437 0
M  V30 939 O 92.6502 -1.80021 0.214991 0
M  V30 940 C 92.6982 -0.68079 3.54115 0
M  V30 941 O 91.8022 -1.7824 3.71893 0
M  V30 942 H 91.1432 -0.0483849 0.662235 0
M  V30 943 H 93.6732 0.480508 1.98878 0
M  V30 944 H 93.6832 -0.961635 3.96505 0
M  V30 945 H 92.3582 0.174903 4.15532 0
M  V30 946 H 90.9352 -1.49985 3.41407 0
M  V30 947 N 93.1203 -1.57491 0.0584922 0
M  V30 948 C 94.5313 -1.80526 -0.476138 0
M  V30 949 C 94.8823 -0.971334 -1.70469 0
M  V30 950 O 94.0073 -0.190012 -2.15564 0
M  V30 951 C 94.6023 -3.27424 -0.870587 0
M  V30 952 C 93.1613 -3.51351 -1.35015 0
M  V30 953 C 92.3083 -2.75343 -0.32887 0
M  V30 954 H 95.2593 -1.56133 0.284312 0
M  V30 955 H 95.2803 -3.38745 -1.73299 0
M  V30 956 H 94.7923 -3.88093 0.0237627 0
M  V30 957 H 92.8933 -2.95971 -2.26345 0
M  V30 958 H 93.0063 -4.60059 -1.33726 0
M  V30 959 H 91.3703 -2.417 -0.803321 0
M  V30 960 H 92.1533 -3.38743 0.557521 0
M  V30 961 N 94.5984 0.214957 -1.56127 0
M  V30 962 C 95.5284 1.2695 -1.95974 0
M  V30 963 C 96.5094 1.48539 -0.828868 0
M  V30 964 O 97.6944 1.60611 -1.09168 0
M  V30 965 C 94.8244 2.61794 -2.28214 0
M  V30 966 C 93.7784 2.54851 -3.43853 0
M  V30 967 C 93.1044 3.93785 -3.61715 0
M  V30 968 C 94.4044 2.09065 -4.78632 0
M  V30 969 H 96.0984 0.93846 -2.84312 0
M  V30 970 H 93.6444 0.449996 -1.36788 0
M  V30 971 H 95.5974 3.35731 -2.54682 0
M  V30 972 H 94.3214 2.96599 -1.36736 0
M  V30 973 H 92.9804 1.8337 -3.17444 0
M  V30 974 H 92.6284 4.25908 -2.67602 0
M  V30 975 H 92.3284 3.90019 -4.39498 0
M  V30 976 H 93.8524 4.69374 -3.90539 0
M  V30 977 H 95.2664 2.7275 -5.04262 0
M  V30 978 H 93.6634 2.16346 -5.59745 0
M  V30 979 H 94.7334 1.04315 -4.73547 0
M  V30 980 N 96.0765 1.50051 0.48192 0
M  V30 981 C 97.4875 1.5348 1.06305 0
M  V30 982 C 97.8385 0.331997 1.93371 0
M  V30 983 O 96.9635 -0.556256 2.09129 0
M  V30 984 C 97.5585 2.7813 1.93466 0
M  V30 985 C 96.1175 2.84275 2.46707 0
M  V30 986 C 95.2645 2.47637 1.24785 0
M  V30 987 H 98.2155 1.56472 0.264995 0
M  V30 988 H 98.2365 2.59372 2.78399 0
M  V30 989 H 97.7485 3.65654 1.30072 0
M  V30 990 H 95.8495 2.01077 3.13686 0
M  V30 991 H 95.9625 3.8691 2.82555 0
M  V30 992 H 94.3265 1.99835 1.57918 0
M  V30 993 H 95.1095 3.37457 0.630694 0
M  V30 994 N 97.5546 -0.734337 1.39446 0
M  V30 995 C 98.5046 -1.83949 1.34709 0
M  V30 996 C 99.4886 -1.59279 0.227851 0
M  V30 997 O 100.681 -1.70771 0.465438 0
M  V30 998 C 97.8096 -3.21884 1.19356 0
M  V30 999 C 96.8956 -3.52381 2.35984 0
M  V30 1000 N 97.2866 -3.53811 3.61457 0
M  V30 1001 C 95.5846 -3.82747 2.28956 0
M  V30 1002 C 96.2856 -3.82122 4.38586 0
M  V30 1003 N 95.2616 -3.9993 3.68181 0
M  V30 1004 H 99.0636 -1.83361 2.29687 0
M  V30 1005 H 96.5776 -0.932609 1.32952 0
M  V30 1006 H 98.5746 -4.00998 1.14046 0
M  V30 1007 H 97.2346 -3.23711 0.253295 0
M  V30 1008 H 98.2456 -3.35107 3.94872 0
M  V30 1009 H 94.9226 -3.92175 1.43194 0
M  V30 1010 H 96.3126 -3.89691 5.47349 0
M  V30 1011 N 99.0327 -1.24633 -0.964593 0
M  V30 1012 C 99.9657 -0.984662 -2.05863 0
M  V30 1013 C 100.944 0.0826554 -1.6239 0
M  V30 1014 O 102.128 -0.0549296 -1.8842 0
M  V30 1015 C 99.2547 -0.486529 -3.35187 0
M  V30 1016 C 98.3007 -1.54286 -3.97615 0
M  V30 1017 S 99.1337 -3.12513 -4.34851 0
M  V30 1018 C 100.29 -2.6441 -5.67308 0
M  V30 1019 H 100.523 -1.91104 -2.27743 0
M  V30 1020 H 98.0557 -1.08052 -1.10291 0
M  V30 1021 H 100.014 -0.205757 -4.09984 0
M  V30 1022 H 98.6747 0.419186 -3.1129 0
M  V30 1023 H 97.8677 -1.14481 -4.90826 0
M  V30 1024 H 97.4697 -1.7738 -3.2926 0
M  V30 1025 H 99.7617 -2.07416 -6.44969 0
M  V30 1026 H 100.705 -3.56222 -6.11973 0
M  V30 1027 H 101.113 -2.04734 -5.26065 0
M  V30 1028 N 100.511 1.16574 -1.06058 0
M  V30 1029 C 101.441 2.23057 -0.690488 0
M  V30 1030 C 102.422 1.67141 0.315901 0
M  V30 1031 O 103.607 1.93253 0.191556 0
M  V30 1032 C 100.737 3.47222 -0.073625 0
M  V30 1033 C 99.6908 4.16016 -1.00573 0
M  V30 1034 C 99.0168 5.34104 -0.252289 0
M  V30 1035 C 100.317 4.67264 -2.33371 0
M  V30 1036 H 102.011 2.54271 -1.58072 0
M  V30 1037 H 99.5568 1.22218 -0.76149 0
M  V30 1038 H 101.51 4.20939 0.19714 0
M  V30 1039 H 100.234 3.15302 0.85161 0
M  V30 1040 H 98.8928 3.44223 -1.2612 0
M  V30 1041 H 98.5408 4.98437 0.675988 0
M  V30 1042 H 98.2408 5.81072 -0.873455 0
M  V30 1043 H 99.7648 6.10599 0.0109857 0
M  V30 1044 H 101.179 5.32573 -2.12223 0
M  V30 1045 H 99.5758 5.24843 -2.90963 0
M  V30 1046 H 100.646 3.83602 -2.96611 0
M  V30 1047 N 101.989 0.842826 1.3317 0
M  V30 1048 C 103.4 0.496651 1.79973 0
M  V30 1049 C 103.751 -0.984641 1.69703 0
M  V30 1050 O 102.876 -1.76743 1.24863 0
M  V30 1051 C 103.471 0.894727 3.26772 0
M  V30 1052 C 102.03 0.600629 3.71577 0
M  V30 1053 C 101.177 1.10091 2.5451 0
M  V30 1054 H 104.128 1.03116 1.20635 0
M  V30 1055 H 104.149 0.206347 3.7994 0
M  V30 1056 H 103.661 1.97287 3.34215 0
M  V30 1057 H 101.762 -0.467284 3.69658 0
M  V30 1058 H 101.875 1.15863 4.64879 0
M  V30 1059 H 100.239 0.52162 2.49301 0
M  V30 1060 H 101.022 2.18591 2.64713 0
M  V30 1061 N 103.467 -1.45747 0.599634 0
M  V30 1062 C 104.883 -1.57424 0.26264 0
M  V30 1063 C 105.083 -1.59222 -1.23493 0
M  V30 1064 O 104.139 -1.51825 -2.01756 0
M  V30 1065 C 105.452 -2.86061 0.926795 0
M  V30 1066 C 107 -2.99722 0.901967 0
M  V30 1067 C 107.475 -4.31119 1.54598 0
M  V30 1068 N 108.966 -4.37858 1.5111 0
M  V30 1069 C 109.701 -5.3818 1.97863 0
M  V30 1070 N 109.197 -6.45083 2.52666 0
M  V30 1071 N 110.99 -5.29487 1.88679 0
M  V30 1072 H 103.141 -1.42823 1.57211 0
M  V30 1073 H 105.404 -0.68235 0.658105 0
M  V30 1074 H 105.11 -2.90605 1.98095 0
M  V30 1075 H 104.984 -3.74563 0.445238 0
M  V30 1076 H 107.371 -2.9475 -0.143617 0
M  V30 1077 H 107.452 -2.12652 1.42171 0
M  V30 1078 H 107.096 -4.36849 2.59085 0
M  V30 1079 H 107.026 -5.16992 1.00132 0
M  V30 1080 H 109.517 -3.61209 1.11068 0
M  V30 1081 H 109.83 -7.17869 2.86155 0
M  V30 1082 H 108.175 -6.45856 2.56701 0
M  V30 1083 H 111.366 -4.44877 1.4561 0
M  V30 1084 H 111.539 -6.07524 2.25429 0
M  V30 1085 N 104.945 -0.338344 -1.53925 0
M  V30 1086 C 106.356 0.146651 -1.86123 0
M  V30 1087 C 106.707 1.5042 -1.2597 0
M  V30 1088 O 105.832 2.08723 -0.571294 0
M  V30 1089 C 106.427 0.272879 -3.37699 0
M  V30 1090 C 104.986 0.702103 -3.69794 0
M  V30 1091 C 104.133 -0.167304 -2.76795 0
M  V30 1092 H 107.084 -0.558123 -1.48562 0
M  V30 1093 H 107.105 1.10128 -3.64214 0
M  V30 1094 H 106.617 -0.715307 -3.81451 0
M  V30 1095 H 104.718 1.6995 -3.31584 0
M  V30 1096 H 104.831 0.495604 -4.7653 0
M  V30 1097 H 103.195 0.359527 -2.5215 0
M  V30 1098 H 103.978 -1.15253 -3.23375 0
M  V30 1099 N 106.423 1.57458 -0.0668435 0
M  V30 1100 C 107.333 2.15937 0.916975 0
M  V30 1101 C 108.349 1.12123 1.33058 0
M  V30 1102 O 109.525 1.44366 1.40429 0
M  V30 1103 C 106.59 2.70547 2.16807 0
M  V30 1104 C 105.651 3.89215 1.81135 0
M  V30 1105 C 104.884 4.41211 3.0028 0
M  V30 1106 O 105.107 3.92225 4.14144 0
M  V30 1107 O 104.041 5.32605 2.80384 0
M  V30 1108 H 107.867 3.00354 0.449561 0
M  V30 1109 H 105.452 1.48584 0.155949 0
M  V30 1110 H 107.334 3.0557 2.90181 0
M  V30 1111 H 106.009 1.89192 2.62656 0
M  V30 1112 H 104.916 3.59054 1.05028 0
M  V30 1113 H 106.249 4.71848 1.40073 0
M  V30 1114 N 107.901 -0.206675 1.56239 0
M  V30 1115 C 109.129 -0.945345 1.8404 0
M  V30 1116 C 109.544 -1.77336 0.647885 0
M  V30 1117 O 108.901 -1.78425 -0.383511 0
M  V30 1118 C 108.952 -1.8509 3.10522 0
M  V30 1119 O 108.673 -1.05634 4.25174 0
M  V30 1120 C 110.174 -2.70222 3.51418 0
M  V30 1121 H 107.394 -0.276372 0.61144 0
M  V30 1122 H 109.938 -0.217417 2.03341 0
M  V30 1123 H 108.093 -2.53259 2.93153 0
M  V30 1124 H 108.507 -1.67238 4.97124 0
M  V30 1125 H 109.981 -3.29438 4.42916 0
M  V30 1126 H 110.458 -3.43358 2.73864 0
M  V30 1127 H 111.064 -2.07443 3.71278 0
M  V30 1128 N 109.379 -1.50304 -0.473955 0
M  V30 1129 C 110.626 -1.6115 -1.22625 0
M  V30 1130 C 110.954 -0.310517 -1.92005 0
M  V30 1131 O 110.209 0.703419 -1.82621 0
M  V30 1132 C 110.508 -2.73938 -2.29549 0
M  V30 1133 C 110.174 -4.14519 -1.7744 0
M  V30 1134 C 108.836 -4.5277 -1.62949 0
M  V30 1135 C 111.188 -5.02392 -1.3875 0
M  V30 1136 C 108.516 -5.76639 -1.08187 0
M  V30 1137 C 110.868 -6.26805 -0.854309 0
M  V30 1138 C 109.532 -6.63861 -0.696011 0
M  V30 1139 H 108.802 -0.589691 -0.448715 0
M  V30 1140 H 111.449 -1.84228 -0.522705 0
M  V30 1141 H 109.754 -2.44937 -3.05799 0
M  V30 1142 H 111.451 -2.79534 -2.87509 0
M  V30 1143 H 108.041 -3.8434 -1.89685 0
M  V30 1144 H 112.225 -4.73474 -1.4878 0
M  V30 1145 H 107.481 -6.04027 -0.946666 0
M  V30 1146 H 111.655 -6.94258 -0.545843 0
M  V30 1147 H 109.282 -7.59722 -0.26952 0
M  V30 1148 N 110.857 0.726932 -1.39834 0
M  V30 1149 C 111.82 1.82269 -1.38962 0
M  V30 1150 C 112.82 1.58248 -0.285334 0
M  V30 1151 O 114.01 1.65499 -0.54366 0
M  V30 1152 C 111.142 3.20186 -1.17019 0
M  V30 1153 H 112.335 1.84443 -2.36476 0
M  V30 1154 H 109.888 0.931416 -1.25516 0
M  V30 1155 H 110.623 3.23669 -0.202204 0
M  V30 1156 H 110.408 3.3902 -1.96998 0
M  V30 1157 H 111.898 4.00235 -1.1917 0
M  V30 1158 N 112.336 1.25143 0.95797 0
M  V30 1159 C 113.582 1.09855 1.70469 0
M  V30 1160 C 113.915 -0.360187 1.90831 0
M  V30 1161 O 113.19 -1.26568 1.47685 0
M  V30 1162 C 113.473 1.8497 3.08963 0
M  V30 1163 C 113.326 3.38652 2.96032 0
M  V30 1164 C 114.645 1.63016 4.08795 0
M  V30 1165 H 111.764 0.400465 0.618706 0
M  V30 1166 H 114.406 1.53933 1.11376 0
M  V30 1167 H 112.556 1.47505 3.59409 0
M  V30 1168 H 114.228 3.85772 2.52938 0
M  V30 1169 H 112.471 3.66534 2.32025 0
M  V30 1170 H 113.142 3.8642 3.94187 0
M  V30 1171 H 115.618 1.95625 3.67247 0
M  V30 1172 H 114.494 2.18015 5.03747 0
M  V30 1173 H 114.755 0.570692 4.38401 0
M  V30 1174 N 113.814 -1.1601 1.06675 0
M  V30 1175 C 114.777 -2.18724 0.685001 0
M  V30 1176 C 115.777 -1.58496 -0.271246 0
M  V30 1177 O 116.967 -1.74119 -0.0531156 0
M  V30 1178 C 114.099 -3.40899 0.00853648 0
M  V30 1179 H 115.292 -2.54011 1.59431 0
M  V30 1180 H 112.845 -1.30352 0.862441 0
M  V30 1181 H 113.58 -3.11173 -0.913337 0
M  V30 1182 H 113.365 -3.8587 0.696204 0
M  V30 1183 H 114.855 -4.16886 -0.24414 0
M  V30 1184 N 115.292 -0.849877 -1.32721 0
M  V30 1185 C 116.225 -0.235903 -2.26977 0
M  V30 1186 C 117.203 0.623355 -1.50177 0
M  V30 1187 O 118.387 0.581207 -1.79316 0
M  V30 1188 C 115.514 0.667712 -3.32053 0
M  V30 1189 C 114.56 -0.11753 -4.26338 0
M  V30 1190 S 115.393 -1.48277 -5.14562 0
M  V30 1191 C 116.549 -0.584741 -6.23163 0
M  V30 1192 H 116.782 -1.03495 -2.78704 0
M  V30 1193 H 114.315 -0.64724 -1.40179 0
M  V30 1194 H 116.273 1.18343 -3.93072 0
M  V30 1195 H 114.934 1.44052 -2.7912 0
M  V30 1196 H 114.127 0.57051 -5.00761 0
M  V30 1197 H 113.729 -0.564668 -3.69713 0
M  V30 1198 H 116.021 0.212968 -6.77165 0
M  V30 1199 H 116.964 -1.29947 -6.96074 0
M  V30 1200 H 117.372 -0.161202 -5.6427 0
M  V30 1201 N 116.77 1.45427 -0.607355 0
M  V30 1202 C 118.186 1.57283 -0.270985 0
M  V30 1203 C 118.386 1.59875 1.22647 0
M  V30 1204 O 117.442 1.52893 2.00948 0
M  V30 1205 C 118.755 2.85566 -0.941952 0
M  V30 1206 C 120.303 2.9924 -0.917849 0
M  V30 1207 C 120.778 4.30293 -1.56882 0
M  V30 1208 N 122.269 4.37051 -1.5343 0
M  V30 1209 C 123.004 5.37123 -2.00715 0
M  V30 1210 N 122.5 6.43734 -2.56084 0
M  V30 1211 N 124.293 5.28479 -1.91484 0
M  V30 1212 H 116.444 1.41988 -1.57966 0
M  V30 1213 H 118.707 0.67885 -0.661715 0
M  V30 1214 H 118.413 2.8955 -1.99633 0
M  V30 1215 H 118.287 3.74322 -0.465096 0
M  V30 1216 H 120.674 2.94822 0.127984 0
M  V30 1217 H 120.755 2.11895 -1.43297 0
M  V30 1218 H 120.399 4.35469 -2.61398 0
M  V30 1219 H 120.329 5.16454 -1.02873 0
M  V30 1220 H 122.82 3.60615 -1.12982 0
M  V30 1221 H 123.133 7.16341 -2.89958 0
M  V30 1222 H 121.478 6.44485 -2.60122 0
M  V30 1223 H 124.669 4.44098 -1.47967 0
M  V30 1224 H 124.842 6.0632 -2.28648 0
M  V30 1225 N 118.248 0.346503 1.53744 0
M  V30 1226 C 119.158 -0.517293 2.28826 0
M  V30 1227 C 120.174 -1.10935 1.3405 0
M  V30 1228 O 121.35 -1.1244 1.6709 0
M  V30 1229 C 118.415 -1.65098 3.04866 0
M  V30 1230 C 117.476 -1.0884 4.15274 0
M  V30 1231 C 116.709 -2.16806 4.87679 0
M  V30 1232 O 116.932 -3.3758 4.59778 0
M  V30 1233 O 115.866 -1.80934 5.74061 0
M  V30 1234 H 119.692 0.0931396 3.03557 0
M  V30 1235 H 117.277 0.111458 1.48984 0
M  V30 1236 H 119.159 -2.31053 3.5241 0
M  V30 1237 H 117.834 -2.24717 2.32989 0
M  V30 1238 H 116.741 -0.3933 3.72027 0
M  V30 1239 H 118.074 -0.537036 4.89261 0
M  V30 1240 N 119.726 -1.57421 0.075193 0
M  V30 1241 C 120.656 -2.15942 -0.888324 0
M  V30 1242 C 121.637 -1.08737 -1.30806 0
M  V30 1243 O 122.822 -1.36787 -1.37851 0
M  V30 1244 C 119.952 -2.72379 -2.1547 0
M  V30 1245 C 118.906 -3.8478 -1.87425 0
M  V30 1246 C 118.232 -4.27834 -3.20721 0
M  V30 1247 C 119.532 -5.08869 -1.17684 0
M  V30 1248 H 121.226 -2.96705 -0.400799 0
M  V30 1249 H 118.772 -1.42723 -0.191342 0
M  V30 1250 H 120.725 -3.11965 -2.83295 0
M  V30 1251 H 119.449 -1.88841 -2.6647 0
M  V30 1252 H 118.108 -3.45703 -1.22004 0
M  V30 1253 H 117.756 -3.41214 -3.6957 0
M  V30 1254 H 117.456 -5.03605 -3.02746 0
M  V30 1255 H 118.98 -4.70039 -3.89738 0
M  V30 1256 H 120.394 -5.4575 -1.75584 0
M  V30 1257 H 118.791 -5.8994 -1.09956 0
M  V30 1258 H 119.861 -4.84648 -0.156453 0
M  V30 1259 N 121.204 0.198386 -1.56346 0
M  V30 1260 C 122.452 0.91747 -1.80075 0
M  V30 1261 C 122.773 1.83929 -0.647692 0
M  V30 1262 O 122.043 1.93029 0.334166 0
M  V30 1263 H 120.623 0.341774 -0.664228 0
M  V30 1264 H 123.285 0.204684 -1.93822 0
M  V30 1265 H 122.381 1.51055 -2.7311 0
M  V30 1266 N 122.682 1.50554 0.465978 0
M  V30 1267 C 123.928 1.62038 1.21949 0
M  V30 1268 C 124.261 0.322116 1.9151 0
M  V30 1269 O 123.536 -0.676723 1.82348 0
M  V30 1270 C 123.819 2.80421 2.25912 0
M  V30 1271 C 123.672 4.20144 1.60622 0
M  V30 1272 C 124.991 2.94354 3.27176 0
M  V30 1273 H 122.11 0.589752 0.441998 0
M  V30 1274 H 124.752 1.82956 0.51257 0
M  V30 1275 H 122.902 2.62717 2.86203 0
M  V30 1276 H 124.574 4.49449 1.03889 0
M  V30 1277 H 122.817 4.24165 0.909211 0
M  V30 1278 H 123.488 4.98914 2.36196 0
M  V30 1279 H 125.964 3.10578 2.76913 0
M  V30 1280 H 124.84 3.788 3.97242 0
M  V30 1281 H 125.101 2.05186 3.916 0
M  V30 1282 N 124.16 -0.719506 1.40217 0
M  V30 1283 C 125.108 -1.85493 1.40339 0
M  V30 1284 C 126.102 -1.66995 0.284415 0
M  V30 1285 O 127.308 -1.74148 0.455252 0
M  V30 1286 H 123.683 -0.610857 0.438586 0
M  V30 1287 H 125.654 -1.82506 2.36081 0
M  V30 1288 C 124.403 -3.23321 1.27901 0
M  V30 1289 H 123.726 -3.38159 2.1328 0
M  V30 1290 H 125.166 -4.02914 1.32045 0
M  V30 1291 C 123.625 -3.36898 -0.0111355 0
M  V30 1292 O 124.155 -3.89674 -0.975538 0
M  V30 1293 N 122.361 -2.90492 -0.0793393 0
M  V30 1294 H 121.908 -2.47731 0.706183 0
M  V30 1295 H 121.866 -2.99955 -0.942038 0
M  V30 1296 N 125.638 -1.25649 -0.95132 0
M  V30 1297 C 126.57 -1.02112 -2.05197 0
M  V30 1298 C 127.583 0.0150571 -1.62793 0
M  V30 1299 O 128.772 -0.223874 -1.77091 0
M  V30 1300 C 125.872 -0.522361 -3.3485 0
M  V30 1301 C 125.045 -1.62546 -4.06076 0
M  V30 1302 C 124.104 -1.12649 -5.14001 0
M  V30 1303 O 123.13 -1.82156 -5.39266 0
M  V30 1304 N 124.332 0.03047 -5.80492 0
M  V30 1305 H 127.097 -1.96885 -2.25957 0
M  V30 1306 H 124.658 -1.16899 -1.1201 0
M  V30 1307 H 126.65 -0.172961 -4.0433 0
M  V30 1308 H 125.22 0.33151 -3.10837 0
M  V30 1309 H 124.44 -2.14628 -3.30649 0
M  V30 1310 H 125.728 -2.36644 -4.50419 0
M  V30 1311 H 125.126 0.611169 -5.62389 0
M  V30 1312 H 123.683 0.320875 -6.5101 0
M  V30 1313 N 127.117 1.15442 -1.07289 0
M  V30 1314 C 128.394 1.82306 -0.708792 0
M  V30 1315 C 128.774 1.94991 0.808807 0
M  V30 1316 O 128.122 1.50085 1.72298 0
M  V30 1317 C 128.332 3.18695 -1.42247 0
M  V30 1318 C 129.68 3.94341 -1.57417 0
M  V30 1319 O 130.704 3.28247 -1.38319 0
M  V30 1320 O 129.563 5.12839 -1.88834 0
M  V30 1321 H 126.657 0.787628 -0.252132 0
M  V30 1322 H 129.203 1.22559 -1.17377 0
M  V30 1323 H 127.975 3.04557 -2.45684 0
M  V30 1324 H 127.598 3.86128 -0.948223 0
M  V30 1325 N 128.595 0.856903 1.32268 0
M  V30 1326 C 129.542 0.301172 2.28827 0
M  V30 1327 C 130.512 -0.593104 1.5515 0
M  V30 1328 O 131.697 -0.527537 1.83362 0
M  V30 1329 C 128.837 -0.502523 3.41422 0
M  V30 1330 C 127.95 0.417797 4.29975 0
M  V30 1331 C 127.085 -0.398749 5.29701 0
M  V30 1332 C 126.124 0.518827 6.09897 0
M  V30 1333 N 125.261 -0.260674 7.01616 0
M  V30 1334 H 130.101 1.12983 2.75751 0
M  V30 1335 H 127.638 0.568582 1.35667 0
M  V30 1336 H 129.596 -0.984141 4.05426 0
M  V30 1337 H 128.226 -1.29599 2.95642 0
M  V30 1338 H 127.278 1.01781 3.66531 0
M  V30 1339 H 128.59 1.12191 4.86019 0
M  V30 1340 H 127.744 -0.943435 5.9932 0
M  V30 1341 H 126.483 -1.13622 4.7428 0
M  V30 1342 H 125.488 1.07538 5.39181 0
M  V30 1343 H 126.713 1.25495 6.67404 0
M  V30 1344 H 124.659 -0.981198 6.4862 0
M  V30 1345 H 124.576 0.384364 7.55022 0
M  V30 1346 H 125.844 -0.787014 7.75517 0
M  V30 1347 N 130.073 -1.45103 0.615059 0
M  V30 1348 C 131.023 -2.27679 -0.120966 0
M  V30 1349 C 132.007 -1.3775 -0.831491 0
M  V30 1350 O 133.199 -1.61683 -0.720249 0
M  V30 1351 C 130.328 -3.24767 -1.1127 0
M  V30 1352 C 129.414 -4.22184 -0.402627 0
M  V30 1353 N 129.805 -5.02692 0.559884 0
M  V30 1354 C 128.103 -4.4125 -0.649202 0
M  V30 1355 C 128.804 -5.73421 0.977942 0
M  V30 1356 N 127.78 -5.42657 0.320104 0
M  V30 1357 H 131.582 -2.87325 0.618181 0
M  V30 1358 H 129.096 -1.56345 0.439304 0
M  V30 1359 H 131.093 -3.82666 -1.65446 0
M  V30 1360 H 129.753 -2.66682 -1.85232 0
M  V30 1361 H 130.764 -5.09354 0.936976 0
M  V30 1362 H 127.441 -3.9428 -1.37293 0
M  V30 1363 H 128.831 -6.48107 1.77222 0
M  V30 1364 N 131.551 -0.354651 -1.53558 0
M  V30 1365 C 132.481 0.489091 -2.2832 0
M  V30 1366 C 133.462 1.09324 -1.30316 0
M  V30 1367 O 134.647 1.11255 -1.59173 0
M  V30 1368 C 131.777 1.63456 -3.0643 0
M  V30 1369 C 130.731 1.1582 -4.12031 0
M  V30 1370 C 130.057 2.39305 -4.7816 0
M  V30 1371 C 131.357 0.250731 -5.21698 0
M  V30 1372 H 133.051 -0.134614 -2.99097 0
M  V30 1373 H 130.597 -0.0661826 -1.43848 0
M  V30 1374 H 132.55 2.23136 -3.57475 0
M  V30 1375 H 131.274 2.28533 -2.33325 0
M  V30 1376 H 129.933 0.584146 -3.61916 0
M  V30 1377 H 129.581 3.02814 -4.01637 0
M  V30 1378 H 129.281 2.08109 -5.49513 0
M  V30 1379 H 130.805 2.99691 -5.31994 0
M  V30 1380 H 132.219 0.754695 -5.68311 0
M  V30 1381 H 130.616 0.0301468 -6.00092 0
M  V30 1382 H 131.686 -0.710125 -4.79672 0
M  V30 1383 N 133.029 1.57378 -0.0835403 0
M  V30 1384 C 134.278 1.93106 0.582498 0
M  V30 1385 C 134.591 0.96651 1.70053 0
M  V30 1386 O 135.797 1.21705 2.42693 0
M  V30 1387 C 134.253 3.43076 1.08751 0
M  V30 1388 C 133.861 4.48 -0.000146404 0
M  V30 1389 C 135.605 3.87785 1.72694 0
M  V30 1390 C 133.512 5.89113 0.519568 0
M  V30 1391 H 132.442 0.720775 0.221358 0
M  V30 1392 H 135.093 1.82821 -0.157675 0
M  V30 1393 H 133.475 3.48474 1.88101 0
M  V30 1394 H 134.649 4.54233 -0.775199 0
M  V30 1395 H 132.964 4.1283 -0.54406 0
M  V30 1396 H 135.561 4.90604 2.1263 0
M  V30 1397 H 135.904 3.25796 2.59158 0
M  V30 1398 H 136.437 3.8504 0.999457 0
M  V30 1399 H 133.176 6.54775 -0.308186 0
M  V30 1400 H 132.696 5.86376 1.26188 0
M  V30 1401 H 134.375 6.39346 0.992237 0
M  V30 1402 N 134.507 -0.190092 1.56449 0
M  V30 1403 C 135.753 -0.911052 1.81184 0
M  V30 1404 C 136.086 -1.82699 0.658396 0
M  V30 1405 O 135.361 -1.91491 -0.340775 0
M  V30 1406 C 135.644 -1.72297 3.16205 0
M  V30 1407 C 135.497 -0.831419 4.42049 0
M  V30 1408 C 136.816 -2.69454 3.47969 0
M  V30 1409 H 133.935 -0.32977 0.659106 0
M  V30 1410 H 136.577 -0.178169 1.89163 0
M  V30 1411 H 134.727 -2.34778 3.09534 0
M  V30 1412 H 136.399 -0.220929 4.60771 0
M  V30 1413 H 134.642 -0.138406 4.33579 0
M  V30 1414 H 135.313 -1.43461 5.33032 0
M  V30 1415 H 137.789 -2.17104 3.54972 0
M  V30 1416 H 136.665 -3.23342 4.43555 0
M  V30 1417 H 136.926 -3.48744 2.71717 0
M  V30 1418 N 135.985 -1.50799 -0.457987 0
M  V30 1419 C 137.215 -1.65977 -1.23025 0
M  V30 1420 C 137.623 -0.347918 -1.85974 0
M  V30 1421 O 136.966 0.68148 -1.70592 0
M  V30 1422 C 137.028 -2.70309 -2.3701 0
M  V30 1423 C 136.692 -4.135 -1.94594 0
M  V30 1424 C 137.689 -4.98949 -1.46101 0
M  V30 1425 C 135.374 -4.5949 -2.02915 0
M  V30 1426 C 137.368 -6.28442 -1.06489 0
M  V30 1427 C 135.055 -5.88984 -1.62914 0
M  V30 1428 C 136.053 -6.73286 -1.1478 0
M  V30 1429 O 135.741 -8.00362 -0.75339 0
M  V30 1430 H 135.473 -0.56064 -0.377702 0
M  V30 1431 H 138.027 -1.97857 -0.551537 0
M  V30 1432 H 136.257 -2.337 -3.08093 0
M  V30 1433 H 137.946 -2.74574 -2.98938 0
M  V30 1434 H 138.712 -4.6463 -1.39084 0
M  V30 1435 H 134.591 -3.94009 -2.39328 0
M  V30 1436 H 138.135 -6.94194 -0.688488 0
M  V30 1437 H 134.032 -6.22822 -1.69595 0
M  V30 1438 H 134.8 -8.13744 -0.88108 0
M  V30 1439 N 137.463 0.71206 -1.40597 0
M  V30 1440 C 138.74 1.46536 -1.29563 0
M  V30 1441 C 139.12 2.10931 0.0844217 0
M  V30 1442 O 138.468 2.00418 1.0975 0
M  V30 1443 C 138.678 2.49821 -2.43701 0
M  V30 1444 C 140.026 3.15551 -2.841 0
M  V30 1445 O 141.05 2.60142 -2.4332 0
M  V30 1446 O 139.909 4.15867 -3.54566 0
M  V30 1447 H 137.003 0.651801 -0.509004 0
M  V30 1448 H 139.549 0.743935 -1.52524 0
M  V30 1449 H 138.321 2.00778 -3.35863 0
M  V30 1450 H 137.944 3.29495 -2.22528 0
M  V30 1451 N 138.941 1.26152 0.944643 0
M  V30 1452 C 139.851 1.09176 2.07648 0
M  V30 1453 C 140.867 0.0261935 1.7398 0
M  V30 1454 O 142.043 0.229208 2.00091 0
M  V30 1455 C 139.108 0.722915 3.39079 0
M  V30 1456 C 138.169 1.86752 3.86552 0
M  V30 1457 C 137.402 1.51617 5.11711 0
M  V30 1458 O 137.625 0.416331 5.68879 0
M  V30 1459 O 136.559 2.34975 5.54139 0
M  V30 1460 H 140.385 2.0412 2.24875 0
M  V30 1461 H 137.97 1.05182 1.061 0
M  V30 1462 H 139.852 0.529787 4.18056 0
M  V30 1463 H 138.527 -0.197159 3.23099 0
M  V30 1464 H 137.434 2.11558 3.08535 0
M  V30 1465 H 138.767 2.76719 4.07047 0
M  V30 1466 N 140.419 -1.14872 1.07899 0
M  V30 1467 C 141.667 -1.85422 0.803941 0
M  V30 1468 C 141.988 -1.83051 -0.67211 0
M  V30 1469 O 141.258 -1.27532 -1.48703 0
M  V30 1470 H 139.838 -0.686537 0.294408 0
M  V30 1471 H 142.5 -1.39226 1.3639 0
M  V30 1472 H 141.596 -2.90399 1.14346 0
M  V30 1473 N 141.898 -0.863906 -1.31812 0
M  V30 1474 C 142.846 -0.30422 -2.30602 0
M  V30 1475 C 143.84 0.577419 -1.59255 0
M  V30 1476 O 145.046 0.464194 -1.73912 0
M  V30 1477 H 141.421 -0.0796877 -0.747766 0
M  V30 1478 H 143.392 -1.15148 -2.75288 0
M  V30 1479 C 142.141 0.484617 -3.44306 0
M  V30 1480 H 141.464 -0.18451 -3.99374 0
M  V30 1481 H 142.904 0.841664 -4.15562 0
M  V30 1482 C 141.363 1.6735 -2.92396 0
M  V30 1483 O 141.893 2.77273 -2.90659 0
M  V30 1484 N 140.099 1.50362 -2.48676 0
M  V30 1485 H 139.646 0.609402 -2.50288 0
M  V30 1486 H 139.604 2.30051 -2.14299 0
M  V30 1487 N 143.376 1.44774 -0.622745 0
M  V30 1488 C 144.306 2.33382 0.0741861 0
M  V30 1489 C 145.287 1.47719 0.843387 0
M  V30 1490 O 146.472 1.76458 0.810934 0
M  V30 1491 C 143.602 3.30663 1.06204 0
M  V30 1492 C 142.556 4.26079 0.405037 0
M  V30 1493 C 141.882 5.13165 1.5022 0
M  V30 1494 C 143.182 5.1781 -0.683414 0
M  V30 1495 H 144.876 2.91905 -0.665713 0
M  V30 1496 H 142.422 1.40363 -0.321587 0
M  V30 1497 H 144.375 3.9153 1.55827 0
M  V30 1498 H 143.099 2.70331 1.83272 0
M  V30 1499 H 141.758 3.66532 -0.0704683 0
M  V30 1500 H 141.406 4.49191 2.26355 0
M  V30 1501 H 141.106 5.77812 1.06803 0
M  V30 1502 H 142.63 5.76902 2.00041 0
M  V30 1503 H 144.044 5.72661 -0.270631 0
M  V30 1504 H 142.441 5.91015 -1.04023 0
M  V30 1505 H 143.511 4.59326 -1.55395 0
M  V30 1506 N 144.854 0.36279 1.53368 0
M  V30 1507 C 146.101 -0.227776 2.01215 0
M  V30 1508 C 146.429 -1.49003 1.25014 0
M  V30 1509 O 145.684 -1.92876 0.331236 0
M  V30 1510 C 145.983 -0.568417 3.52851 0
M  V30 1511 C 145.649 0.59918 4.46901 0
M  V30 1512 C 144.311 0.919559 4.72332 0
M  V30 1513 C 146.663 1.38156 5.02556 0
M  V30 1514 C 143.991 2.02434 5.5067 0
M  V30 1515 C 146.343 2.47674 5.821 0
M  V30 1516 C 145.007 2.8025 6.05819 0
M  V30 1517 H 144.277 -0.083349 0.736297 0
M  V30 1518 H 146.924 0.494677 1.85001 0
M  V30 1519 H 145.229 -1.37185 3.66998 0
M  V30 1520 H 146.926 -1.03756 3.87344 0
M  V30 1521 H 143.516 0.339437 4.27254 0
M  V30 1522 H 147.7 1.14729 4.82857 0
M  V30 1523 H 142.956 2.28075 5.67267 0
M  V30 1524 H 147.13 3.08716 6.24234 0
M  V30 1525 H 144.757 3.65979 6.66306 0
M  V30 1526 N 146.332 -1.57332 0.0918853 0
M  V30 1527 C 147.557 -1.98995 -0.584442 0
M  V30 1528 C 147.982 -0.970528 -1.61128 0
M  V30 1529 O 147.34 0.0613904 -1.81196 0
M  V30 1530 C 147.388 -3.39636 -1.21161 0
M  V30 1531 O 146.492 -3.40447 -2.32744 0
M  V30 1532 H 145.833 -0.647165 -0.148572 0
M  V30 1533 H 148.363 -2.03873 0.172347 0
M  V30 1534 H 148.373 -3.7726 -1.55367 0
M  V30 1535 H 147.048 -4.13356 -0.459313 0
M  V30 1536 H 145.625 -3.14614 -2.0018 0
M  V30 1537 N 147.81 0.181792 -1.56548 0
M  V30 1538 C 148.773 1.20894 -1.94724 0
M  V30 1539 C 149.773 1.37738 -0.829747 0
M  V30 1540 O 150.963 1.35323 -1.09697 0
M  V30 1541 C 148.095 2.57593 -2.23291 0
M  V30 1542 H 149.288 0.882275 -2.86629 0
M  V30 1543 H 146.841 0.423838 -1.50444 0
M  V30 1544 H 147.576 2.95291 -1.34067 0
M  V30 1545 H 147.361 2.46735 -3.04736 0
M  V30 1546 H 148.851 3.31637 -2.53785 0
M  V30 1547 N 149.288 1.51039 0.449983 0
M  V30 1548 C 150.699 1.557 1.03026 0
M  V30 1549 C 151.05 0.372939 1.92623 0
M  V30 1550 O 150.175 -0.511771 2.10261 0
M  V30 1551 C 150.77 2.82171 1.87523 0
M  V30 1552 C 149.329 2.89444 2.40622 0
M  V30 1553 C 148.476 2.50228 1.19504 0
M  V30 1554 H 151.427 1.56999 0.231745 0
M  V30 1555 H 151.448 2.65219 2.72835 0
M  V30 1556 H 150.96 3.68331 1.22286 0
M  V30 1557 H 149.061 2.07685 3.0935 0
M  V30 1558 H 149.174 3.92816 2.74285 0
M  V30 1559 H 147.538 2.03139 1.53644 0
M  V30 1560 H 148.321 3.38719 0.558972 0
M  V30 1561 N 150.766 -0.704594 1.40972 0
M  V30 1562 C 152.182 -1.01406 1.23244 0
M  V30 1563 C 152.382 -2.01169 0.115399 0
M  V30 1564 O 151.438 -2.47021 -0.523147 0
M  V30 1565 C 152.751 -1.54728 2.57836 0
M  V30 1566 C 154.299 -1.66658 2.64942 0
M  V30 1567 C 154.774 -2.23383 3.9983 0
M  V30 1568 N 156.265 -2.30756 4.01629 0
M  V30 1569 C 157 -2.75655 5.02794 0
M  V30 1570 N 156.496 -3.20225 6.14352 0
M  V30 1571 N 158.289 -2.75138 4.90159 0
M  V30 1572 H 150.44 -0.0435285 2.12355 0
M  V30 1573 H 152.703 -0.0818951 0.944456 0
M  V30 1574 H 152.409 -0.888832 3.40283 0
M  V30 1575 H 152.283 -2.53084 2.79693 0
M  V30 1576 H 154.67 -2.31617 1.8286 0
M  V30 1577 H 154.751 -0.668717 2.46904 0
M  V30 1578 H 154.395 -1.59043 4.82357 0
M  V30 1579 H 154.325 -3.23904 4.15203 0
M  V30 1580 H 156.816 -1.99291 3.21079 0
M  V30 1581 H 157.129 -3.53084 6.87424 0
M  V30 1582 H 155.474 -3.18156 6.17901 0
M  V30 1583 H 158.665 -2.39661 4.02095 0
M  V30 1584 H 158.838 -3.09812 5.6914 0
M  V30 1585 N 152.244 -1.26651 -0.937939 0
M  V30 1586 C 153.207 -1.08546 -2.01867 0
M  V30 1587 C 154.207 -0.0327327 -1.60767 0
M  V30 1588 O 155.397 -0.276427 -1.71993 0
M  V30 1589 C 152.529 -0.651711 -3.34613 0
M  V30 1590 H 153.722 -2.04502 -2.1936 0
M  V30 1591 H 151.275 -1.09294 -1.11734 0
M  V30 1592 H 152.01 0.309696 -3.22818 0
M  V30 1593 H 151.795 -1.41189 -3.65798 0
M  V30 1594 H 153.285 -0.546973 -4.14002 0
M  V30 1595 N 153.722 1.14298 -1.08507 0
M  V30 1596 C 154.968 1.85854 -0.826438 0
M  V30 1597 C 155.323 1.81413 0.640878 0
M  V30 1598 O 154.616 1.23463 1.46518 0
M  V30 1599 C 154.81 3.33547 -1.28379 0
M  V30 1600 C 154.639 3.52369 -2.79403 0
M  V30 1601 C 153.409 3.67159 -3.47164 0
M  V30 1602 C 155.607 3.49203 -3.77573 0
M  V30 1603 N 153.589 3.74149 -4.86709 0
M  V30 1604 C 154.96 3.6245 -5.03021 0
M  V30 1605 C 157.015 3.32547 -3.70563 0
M  V30 1606 C 155.718 3.60761 -6.2229 0
M  V30 1607 C 157.744 3.32162 -4.89308 0
M  V30 1608 C 157.106 3.45949 -6.13595 0
M  V30 1609 H 153.205 0.696705 -0.355143 0
M  V30 1610 H 155.789 1.36981 -1.38362 0
M  V30 1611 H 153.96 3.81008 -0.754166 0
M  V30 1612 H 155.692 3.92867 -0.971469 0
M  V30 1613 H 152.447 3.68433 -2.9758 0
M  V30 1614 H 152.871 3.81359 -5.5937 0
M  V30 1615 H 157.513 3.20797 -2.75407 0
M  V30 1616 H 155.231 3.71286 -7.17755 0
M  V30 1617 H 158.817 3.20485 -4.85573 0
M  V30 1618 H 157.697 3.456 -7.03939 0
M  V30 1619 N 155.201 0.870884 1.31352 0
M  V30 1620 C 156.447 0.492314 1.97352 0
M  V30 1621 C 156.802 -0.945174 1.67583 0
M  V30 1622 O 156.095 -1.65674 0.962423 0
M  V30 1623 C 156.289 0.687157 3.50732 0
M  V30 1624 C 156.118 2.14203 3.95407 0
M  V30 1625 C 154.888 2.78382 4.21701 0
M  V30 1626 C 157.086 3.1144 4.09279 0
M  V30 1627 N 155.068 4.14611 4.52737 0
M  V30 1628 C 156.439 4.32702 4.44037 0
M  V30 1629 C 158.494 3.07418 3.91661 0
M  V30 1630 C 157.197 5.50463 4.63015 0
M  V30 1631 C 159.223 4.24438 4.11833 0
M  V30 1632 C 158.585 5.44463 4.46923 0
M  V30 1633 H 154.684 0.229206 0.747655 0
M  V30 1634 H 157.268 1.12568 1.5886 0
M  V30 1635 H 155.439 0.083384 3.8831 0
M  V30 1636 H 157.171 0.276883 4.03752 0
M  V30 1637 H 153.926 2.29326 4.14375 0
M  V30 1638 H 154.35 4.84928 4.72413 0
M  V30 1639 H 158.992 2.15732 3.6362 0
M  V30 1640 H 156.71 6.42666 4.89904 0
M  V30 1641 H 160.296 4.2278 3.99685 0
M  V30 1642 H 159.176 6.33504 4.62214 0
M  V30 1643 N 156.679 -1.44442 0.630414 0
M  V30 1644 C 157.612 -2.27862 -0.124247 0
M  V30 1645 C 158.59 -1.38495 -0.851931 0
M  V30 1646 O 159.774 -1.67935 -0.856166 0
M  V30 1647 C 156.901 -3.17407 -1.18197 0
M  V30 1648 C 155.947 -4.22875 -0.554892 0
M  V30 1649 S 156.78 -5.31485 0.654489 0
M  V30 1650 C 157.936 -6.246 -0.40326 0
M  V30 1651 H 158.169 -2.91519 0.583435 0
M  V30 1652 H 155.702 -1.48618 0.418565 0
M  V30 1653 H 157.66 -3.69549 -1.78728 0
M  V30 1654 H 156.321 -2.52971 -1.86184 0
M  V30 1655 H 155.514 -4.85542 -1.35148 0
M  V30 1656 H 155.116 -3.73992 -0.0242105 0
M  V30 1657 H 157.408 -6.65375 -1.27602 0
M  V30 1658 H 158.351 -7.07851 0.187813 0
M  V30 1659 H 158.759 -5.59775 -0.728837 0
M  V30 1660 N 158.157 -0.370918 -1.53173 0
M  V30 1661 C 159.087 0.464847 -2.28826 0
M  V30 1662 C 160.068 1.07936 -1.31468 0
M  V30 1663 O 161.253 1.0956 -1.60344 0
M  V30 1664 C 158.383 1.60196 -3.08147 0
M  V30 1665 C 157.337 1.11443 -4.13237 0
M  V30 1666 C 156.663 2.3422 -4.80672 0
M  V30 1667 C 157.963 0.195384 -5.21934 0
M  V30 1668 H 159.657 -0.166329 -2.98938 0
M  V30 1669 H 157.203 -0.0814359 -1.4377 0
M  V30 1670 H 159.156 2.19332 -3.59822 0
M  V30 1671 H 157.88 2.26045 -2.35735 0
M  V30 1672 H 156.539 0.545727 -3.62515 0
M  V30 1673 H 156.187 2.98537 -4.04827 0
M  V30 1674 H 155.887 2.02269 -5.51689 0
M  V30 1675 H 157.411 2.94032 -5.35143 0
M  V30 1676 H 158.825 0.694375 -5.69079 0
M  V30 1677 H 157.222 -0.0335027 -6.00091 0
M  V30 1678 H 158.292 -0.760961 -4.78892 0
M  V30 1679 N 159.635 1.57281 -0.100228 0
M  V30 1680 C 161.051 1.57527 0.256416 0
M  V30 1681 C 161.251 1.11173 1.68056 0
M  V30 1682 O 160.307 0.79053 2.39806 0
M  V30 1683 C 161.62 3.00673 0.0401747 0
M  V30 1684 C 163.168 3.12815 0.107528 0
M  V30 1685 C 163.643 4.57929 -0.0807834 0
M  V30 1686 N 165.134 4.63193 -0.0261207 0
M  V30 1687 C 165.869 5.73212 -0.146999 0
M  V30 1688 N 165.365 6.92047 -0.322999 0
M  V30 1689 N 167.158 5.62031 -0.0879044 0
M  V30 1690 H 159.309 1.85718 -1.03065 0
M  V30 1691 H 161.572 0.857446 -0.404339 0
M  V30 1692 H 161.278 3.38804 -0.943649 0
M  V30 1693 H 161.152 3.69042 0.780262 0
M  V30 1694 H 163.539 2.74554 1.08186 0
M  V30 1695 H 163.62 2.47028 -0.664134 0
M  V30 1696 H 163.264 4.96886 -1.05201 0
M  V30 1697 H 163.194 5.21783 0.710635 0
M  V30 1698 H 165.685 3.77748 0.107161 0
M  V30 1699 H 165.998 7.7173 -0.406608 0
M  V30 1700 H 164.343 6.94074 -0.358733 0
M  V30 1701 H 167.534 4.68075 0.048498 0
M  V30 1702 H 167.707 6.47734 -0.185557 0
M  V30 1703 N 161.113 -0.173488 1.56642 0
M  V30 1704 C 162.341 -0.906095 1.86004 0
M  V30 1705 C 162.756 -1.75921 0.685355 0
M  V30 1706 O 162.113 -1.79198 -0.345578 0
M  V30 1707 C 162.164 -1.78462 3.14378 0
M  V30 1708 O 161.885 -0.965914 4.27319 0
M  V30 1709 C 163.386 -2.62707 3.57071 0
M  V30 1710 H 160.606 -0.263341 0.617165 0
M  V30 1711 H 163.15 -0.174236 2.03756 0
M  V30 1712 H 161.305 -2.46984 2.98459 0
M  V30 1713 H 161.719 -1.56655 5.00559 0
M  V30 1714 H 163.193 -3.19969 4.49804 0
M  V30 1715 H 163.67 -3.37472 2.81086 0
M  V30 1716 H 164.276 -1.99521 3.75595 0
M  V30 1717 N 162.591 -1.51276 -0.441967 0
M  V30 1718 C 163.838 -1.63715 -1.19179 0
M  V30 1719 C 164.166 -0.351175 -1.91303 0
M  V30 1720 O 163.421 0.664524 -1.84072 0
M  V30 1721 C 163.72 -2.78746 -2.23686 0
M  V30 1722 C 163.386 -4.18189 -1.68607 0
M  V30 1723 C 162.048 -4.56125 -1.53308 0
M  V30 1724 C 164.4 -5.05222 -1.28062 0
M  V30 1725 C 161.728 -5.78804 -0.959317 0
M  V30 1726 C 164.08 -6.28476 -0.721162 0
M  V30 1727 C 162.744 -6.65188 -0.55504 0
M  V30 1728 H 162.014 -0.599076 -0.436106 0
M  V30 1729 H 164.661 -1.85296 -0.48351 0
M  V30 1730 H 162.966 -2.51369 -3.00535 0
M  V30 1731 H 164.663 -2.8557 -2.81515 0
M  V30 1732 H 161.253 -3.88277 -1.8149 0
M  V30 1733 H 165.437 -4.76524 -1.38704 0
M  V30 1734 H 160.693 -6.05899 -0.81833 0
M  V30 1735 H 164.867 -6.95259 -0.398458 0
M  V30 1736 H 162.494 -7.60123 -0.108311 0
M  V30 1737 N 164.069 0.697108 -1.41344 0
M  V30 1738 C 165.317 1.45426 -1.40341 0
M  V30 1739 C 165.638 1.94996 -0.0128787 0
M  V30 1740 O 164.908 1.71599 0.945027 0
M  V30 1741 H 163.488 0.539594 -0.516573 0
M  V30 1742 H 166.15 0.825201 -1.76569 0
M  V30 1743 H 165.246 2.31817 -2.08967 0
M  V30 1744 N 165.547 1.27147 0.931209 0
M  V30 1745 C 166.793 1.13446 1.68101 0
M  V30 1746 C 167.126 -0.319628 1.91552 0
M  V30 1747 O 166.401 -1.23407 1.50336 0
M  V30 1748 C 166.684 1.91482 3.0497 0
M  V30 1749 C 166.537 3.44855 2.88782 0
M  V30 1750 C 167.856 1.71651 4.05246 0
M  V30 1751 H 164.975 0.413498 0.610072 0
M  V30 1752 H 167.617 1.56261 1.08086 0
M  V30 1753 H 165.767 1.55095 3.56199 0
M  V30 1754 H 167.439 3.9105 2.44698 0
M  V30 1755 H 165.682 3.71373 2.24198 0
M  V30 1756 H 166.353 3.94694 3.85902 0
M  V30 1757 H 168.829 2.0337 3.63015 0
M  V30 1758 H 167.705 2.28651 4.99009 0
M  V30 1759 H 167.966 0.663555 4.37092 0
M  V30 1760 N 167.025 -1.13721 1.09112 0
M  V30 1761 C 167.935 -2.22638 0.73957 0
M  V30 1762 C 168.951 -1.72091 -0.257068 0
M  V30 1763 O 170.127 -2.01155 -0.0992154 0
M  V30 1764 C 167.192 -3.46322 0.16191 0
M  V30 1765 C 166.253 -4.11775 1.21408 0
M  V30 1766 C 165.486 -5.29555 0.663891 0
M  V30 1767 O 165.709 -5.68077 -0.514274 0
M  V30 1768 O 164.643 -5.84973 1.41738 0
M  V30 1769 H 168.469 -2.55074 1.64836 0
M  V30 1770 H 166.054 -1.21791 0.865289 0
M  V30 1771 H 167.936 -4.21107 -0.157073 0
M  V30 1772 H 166.611 -3.15593 -0.719932 0
M  V30 1773 H 165.518 -3.3883 1.58571 0
M  V30 1774 H 166.851 -4.46627 2.06845 0
M  V30 1775 N 168.503 -0.877838 -1.30888 0
M  V30 1776 C 169.45 -0.337538 -2.28318 0
M  V30 1777 C 170.42 0.568346 -1.56074 0
M  V30 1778 O 171.605 0.498298 -1.84178 0
M  V30 1779 C 168.745 0.448142 -3.42178 0
M  V30 1780 C 167.858 -0.48615 -4.29256 0
M  V30 1781 C 166.993 0.314427 -5.30269 0
M  V30 1782 C 166.032 -0.615791 -6.08995 0
M  V30 1783 N 165.169 0.14902 -7.01942 0
M  V30 1784 H 170.009 -1.17356 -2.73919 0
M  V30 1785 H 167.546 -0.590094 -1.34745 0
M  V30 1786 H 169.504 0.919517 -4.06941 0
M  V30 1787 H 168.134 1.24879 -2.97666 0
M  V30 1788 H 167.186 -1.076 -3.64865 0
M  V30 1789 H 168.498 -1.19909 -4.84173 0
M  V30 1790 H 167.652 0.847969 -6.00745 0
M  V30 1791 H 166.391 1.06062 -4.76027 0
M  V30 1792 H 165.396 -1.16102 -5.37401 0
M  V30 1793 H 166.621 -1.36097 -6.65323 0
M  V30 1794 H 164.567 0.877884 -6.50099 0
M  V30 1795 H 164.484 -0.504433 -7.54315 0
M  V30 1796 H 165.752 0.663537 -7.76671 0
M  V30 1797 N 169.982 1.44106 -0.638065 0
M  V30 1798 C 171.228 2.02277 -0.145546 0
M  V30 1799 C 171.561 1.50125 1.23191 0
M  V30 1800 O 170.836 0.688133 1.8192 0
M  V30 1801 C 171.119 3.59829 -0.139791 0
M  V30 1802 C 170.972 4.22247 -1.55008 0
M  V30 1803 C 172.291 4.36873 0.531966 0
M  V30 1804 H 169.41 0.734992 -0.0543632 0
M  V30 1805 H 172.052 1.71592 -0.815863 0
M  V30 1806 H 170.202 3.86102 0.431007 0
M  V30 1807 H 171.874 4.07057 -2.1703 0
M  V30 1808 H 170.117 3.79476 -2.10191 0
M  V30 1809 H 170.788 5.31284 -1.49804 0
M  V30 1810 H 173.264 4.16074 0.0464781 0
M  V30 1811 H 172.14 5.4657 0.505206 0
M  V30 1812 H 172.401 4.11995 1.60352 0
M  V30 1813 N 171.46 0.379036 1.52974 0
M  V30 1814 C 172.685 -0.209353 2.06341 0
M  V30 1815 C 173.11 -1.40583 1.24972 0
M  V30 1816 O 172.468 -1.79246 0.272155 0
M  V30 1817 C 172.516 -0.567786 3.56102 0
M  V30 1818 O 171.62 -1.66318 3.77375 0
M  V30 1819 H 170.961 -0.0272919 0.663439 0
M  V30 1820 H 173.491 0.543536 1.97248 0
M  V30 1821 H 173.501 -0.835003 3.99364 0
M  V30 1822 H 172.176 0.307013 4.14765 0
M  V30 1823 H 170.753 -1.39048 3.46006 0
M  V30 1824 N 172.938 -1.57226 0.108567 0
M  V30 1825 C 174.187 -1.94008 -0.551703 0
M  V30 1826 C 174.5 -0.993442 -1.68494 0
M  V30 1827 O 175.706 -1.25551 -2.40726 0
M  V30 1828 C 174.162 -3.44763 -1.03279 0
M  V30 1829 C 173.77 -4.47943 0.0714193 0
M  V30 1830 C 175.514 -3.90483 -1.66503 0
M  V30 1831 C 173.421 -5.89865 -0.425779 0
M  V30 1832 H 172.351 -0.724206 -0.209863 0
M  V30 1833 H 175.002 -1.82547 0.186741 0
M  V30 1834 H 173.384 -3.51422 -1.82533 0
M  V30 1835 H 174.558 -4.52942 0.847365 0
M  V30 1836 H 172.873 -4.11913 0.609669 0
M  V30 1837 H 175.47 -4.93925 -2.04798 0
M  V30 1838 H 175.813 -3.29877 -2.53942 0
M  V30 1839 H 176.346 -3.86581 -0.938074 0
M  V30 1840 H 173.085 -6.54202 0.412316 0
M  V30 1841 H 172.605 -5.88309 -1.16843 0
M  V30 1842 H 174.284 -6.40844 -0.890397 0
M  V30 1843 N 174.416 0.165178 -1.56732 0
M  V30 1844 C 175.346 1.20651 -1.99914 0
M  V30 1845 C 176.327 1.45827 -0.875705 0
M  V30 1846 O 177.512 1.57057 -1.14223 0
M  V30 1847 C 174.642 2.54401 -2.36427 0
M  V30 1848 C 173.596 2.43782 -3.51787 0
M  V30 1849 C 172.922 3.82078 -3.7406 0
M  V30 1850 C 174.222 1.93732 -4.85041 0
M  V30 1851 H 175.916 0.847534 -2.87154 0
M  V30 1852 H 173.462 0.40625 -1.38151 0
M  V30 1853 H 175.415 3.27458 -2.65234 0
M  V30 1854 H 174.139 2.92098 -1.46103 0
M  V30 1855 H 172.798 1.73178 -3.23117 0
M  V30 1856 H 172.446 4.17179 -2.81017 0
M  V30 1857 H 172.146 3.7584 -4.51684 0
M  V30 1858 H 173.67 4.56712 -4.05274 0
M  V30 1859 H 175.084 2.56569 -5.12684 0
M  V30 1860 H 173.481 1.98428 -5.66345 0
M  V30 1861 H 174.551 0.891962 -4.76626 0
M  V30 1862 N 175.894 1.51508 0.433938 0
M  V30 1863 C 177.142 1.6402 1.18075 0
M  V30 1864 C 177.463 0.360328 1.91642 0
M  V30 1865 O 176.733 -0.623945 1.85698 0
M  V30 1866 H 175.313 0.6045 0.43885 0
M  V30 1867 H 177.975 1.88452 0.497178 0
M  V30 1868 H 177.071 2.46949 1.90847 0
M  V30 1869 N 177.372 -0.689602 1.41712 0
M  V30 1870 C 178.62 -1.4468 1.4111 0
M  V30 1871 C 178.941 -1.94986 0.0232196 0
M  V30 1872 O 178.211 -1.72097 -0.935913 0
M  V30 1873 H 176.791 -0.536847 0.519427 0
M  V30 1874 H 179.453 -0.815825 1.77004 0
M  V30 1875 H 178.549 -2.30706 2.10193 0
M  V30 1876 N 178.85 -1.27639 -0.924453 0
M  V30 1877 C 180.098 -1.13941 -1.66918 0
M  V30 1878 C 180.419 0.314589 -1.92446 0
M  V30 1879 O 179.689 1.21964 -1.53303 0
M  V30 1880 H 178.269 -0.418678 -0.618642 0
M  V30 1881 H 180.931 -1.60213 -1.10985 0
M  V30 1882 H 180.027 -1.67094 -2.63602 0
M  V30 1883 N 180.328 1.1314 -1.09713 0
M  V30 1884 C 181.258 2.20748 -0.761102 0
M  V30 1885 C 182.239 1.68061 0.262566 0
M  V30 1886 O 183.424 1.93765 0.129977 0
M  V30 1887 C 180.554 3.46812 -0.184054 0
M  V30 1888 C 179.508 4.12606 -1.13757 0
M  V30 1889 C 178.834 5.33031 -0.422083 0
M  V30 1890 C 180.134 4.59603 -2.48118 0
M  V30 1891 H 181.828 2.49113 -1.66082 0
M  V30 1892 H 179.374 1.19734 -0.799987 0
M  V30 1893 H 181.327 4.21353 0.0631215 0
M  V30 1894 H 180.051 3.17851 0.750868 0
M  V30 1895 H 178.71 3.40036 -1.37007 0
M  V30 1896 H 178.358 5.00335 0.517072 0
M  V30 1897 H 178.058 5.77999 -1.05788 0
M  V30 1898 H 179.582 6.10325 -0.183277 0
M  V30 1899 H 180.996 5.25552 -2.29059 0
M  V30 1900 H 179.393 5.15321 -3.07514 0
M  V30 1901 H 180.463 3.73971 -3.08665 0
M  V30 1902 N 181.806 0.884767 1.30421 0
M  V30 1903 C 182.769 0.356277 2.26414 0
M  V30 1904 C 183.769 -0.501124 1.52792 0
M  V30 1905 O 184.959 -0.30831 1.7145 0
M  V30 1906 C 182.091 -0.492316 3.37326 0
M  V30 1907 H 183.284 1.20389 2.74675 0
M  V30 1908 H 180.837 0.661607 1.41607 0
M  V30 1909 H 181.572 -1.36052 2.94381 0
M  V30 1910 H 181.357 0.121832 3.91911 0
M  V30 1911 H 182.847 -0.853871 4.08777 0
M  V30 1912 N 183.284 -1.43765 0.645699 0
M  V30 1913 C 184.532 -2.01499 0.155731 0
M  V30 1914 C 184.853 -1.51151 -1.232 0
M  V30 1915 O 184.123 -0.721044 -1.82148 0
M  V30 1916 H 182.703 -0.745003 0.0545817 0
M  V30 1917 H 185.365 -1.76075 0.835677 0
M  V30 1918 H 184.461 -3.1181 0.134577 0
M  V30 1919 N 184.763 -0.387143 -1.52771 0
M  V30 1920 C 186.009 0.188506 -2.02525 0
M  V30 1921 C 186.364 1.44649 -1.26864 0
M  V30 1922 O 185.657 1.88189 -0.359945 0
M  V30 1923 C 185.851 0.512209 -3.53711 0
M  V30 1924 C 185.68 -0.712855 -4.44014 0
M  V30 1925 C 184.45 -1.23147 -4.90064 0
M  V30 1926 C 186.648 -1.58453 -4.89282 0
M  V30 1927 N 184.63 -2.41431 -5.64433 0
M  V30 1928 C 186.001 -2.61381 -5.6221 0
M  V30 1929 C 188.056 -1.60488 -4.71326 0
M  V30 1930 C 186.759 -3.66227 -6.19088 0
M  V30 1931 C 188.785 -2.6424 -5.29085 0
M  V30 1932 C 188.147 -3.6589 -6.01917 0
M  V30 1933 H 184.246 0.0311236 -0.78138 0
M  V30 1934 H 186.83 -0.536548 -1.87161 0
M  V30 1935 H 185.001 1.20632 -3.69192 0
M  V30 1936 H 186.733 1.07482 -3.90166 0
M  V30 1937 H 183.488 -0.792795 -4.66917 0
M  V30 1938 H 183.912 -3.01274 -6.0627 0
M  V30 1939 H 188.554 -0.83247 -4.14524 0
M  V30 1940 H 186.272 -4.44337 -6.74974 0
M  V30 1941 H 189.858 -2.66695 -5.17074 0
M  V30 1942 H 188.738 -4.44855 -6.45813 0
M  V30 1943 N 186.241 1.57166 -0.116904 0
M  V30 1944 C 187.173 2.12271 0.864507 0
M  V30 1945 C 188.186 1.06494 1.23138 0
M  V30 1946 O 189.375 1.33873 1.18069 0
M  V30 1947 C 186.475 2.60564 2.16702 0
M  V30 1948 C 185.648 3.90416 1.97216 0
M  V30 1949 C 184.707 4.24329 3.11178 0
M  V30 1950 O 183.733 4.93182 2.84184 0
M  V30 1951 N 184.935 3.8148 4.37554 0
M  V30 1952 H 187.7 2.97102 0.393726 0
M  V30 1953 H 185.261 1.61759 0.0675805 0
M  V30 1954 H 187.253 2.80282 2.91932 0
M  V30 1955 H 185.823 1.80623 2.55135 0
M  V30 1956 H 185.043 3.79627 1.06192 0
M  V30 1957 H 186.331 4.75327 1.81499 0
M  V30 1958 H 185.729 3.25943 4.62361 0
M  V30 1959 H 184.286 4.06311 5.09661 0
M  V30 1960 N 187.719 -0.156864 1.56817 0
M  V30 1961 C 189.135 -0.50916 1.5126 0
M  V30 1962 C 189.335 -1.83897 0.823658 0
M  V30 1963 O 188.391 -2.49469 0.390055 0
M  V30 1964 C 189.704 -0.52857 2.96018 0
M  V30 1965 C 191.252 -0.614771 3.06903 0
M  V30 1966 C 191.727 -0.664938 4.53147 0
M  V30 1967 N 193.218 -0.727433 4.57452 0
M  V30 1968 C 193.953 -0.787067 5.67973 0
M  V30 1969 N 193.449 -0.806649 6.88088 0
M  V30 1970 N 195.242 -0.827195 5.5598 0
M  V30 1971 H 187.393 0.714935 2.00006 0
M  V30 1972 H 189.656 0.259526 0.911784 0
M  V30 1973 H 189.362 0.380154 3.49639 0
M  V30 1974 H 189.236 -1.36998 3.51442 0
M  V30 1975 H 191.623 -1.51392 2.53307 0
M  V30 1976 H 191.704 0.253597 2.5454 0
M  V30 1977 H 191.348 0.230011 5.07379 0
M  V30 1978 H 191.278 -1.54966 5.03282 0
M  V30 1979 H 193.769 -0.719998 3.70978 0
M  V30 1980 H 194.082 -0.853727 7.6807 0
M  V30 1981 H 192.427 -0.774687 6.90669 0
M  V30 1982 H 195.618 -0.808998 4.61056 0
M  V30 1983 H 195.791 -0.870206 6.4213 0
M  V30 1984 N 189.197 -1.51736 -0.425897 0
M  V30 1985 C 190.474 -1.55519 -1.1863 0
M  V30 1986 C 190.854 -0.326219 -2.08564 0
M  V30 1987 O 190.202 0.688012 -2.17896 0
M  V30 1988 C 190.412 -2.87521 -1.9782 0
M  V30 1989 C 191.76 -3.39899 -2.54468 0
M  V30 1990 O 192.784 -2.89148 -2.08019 0
M  V30 1991 O 191.643 -4.2848 -3.39215 0
M  V30 1992 H 188.737 -0.625739 -0.540721 0
M  V30 1993 H 191.283 -1.64055 -0.434038 0
M  V30 1994 H 190.055 -3.68422 -1.31836 0
M  V30 1995 H 189.678 -2.822 -2.80088 0
M  V30 1996 N 190.675 0.682077 -1.42076 0
M  V30 1997 C 191.952 1.43755 -1.32642 0
M  V30 1998 C 192.332 2.11063 0.0396611 0
M  V30 1999 O 191.68 2.02701 1.05474 0
M  V30 2000 C 191.89 2.44596 -2.48946 0
M  V30 2001 C 193.238 3.09454 -2.9073 0
M  V30 2002 O 194.262 2.54922 -2.48783 0
M  V30 2003 O 193.121 4.08253 -3.63307 0
M  V30 2004 H 190.215 0.640857 -0.522715 0
M  V30 2005 H 192.761 0.711415 -1.54068 0
M  V30 2006 H 191.533 1.93609 -3.40046 0
M  V30 2007 H 191.156 3.24701 -2.29467 0
M  V30 2008 N 192.153 1.28127 0.917671 0
M  V30 2009 C 193.083 1.14248 2.03641 0
M  V30 2010 C 194.064 0.0412748 1.7005 0
M  V30 2011 O 195.249 0.217566 1.92977 0
M  V30 2012 C 192.379 0.799431 3.37974 0
M  V30 2013 C 191.333 1.85497 3.85713 0
M  V30 2014 C 190.659 1.36565 5.16966 0
M  V30 2015 C 191.959 3.26085 4.08002 0
M  V30 2016 H 193.653 2.07835 2.15511 0
M  V30 2017 H 191.199 1.00064 1.03553 0
M  V30 2018 H 193.152 0.689114 4.15727 0
M  V30 2019 H 191.876 -0.172145 3.26146 0
M  V30 2020 H 190.535 1.95437 3.10161 0
M  V30 2021 H 190.183 0.383253 5.01538 0
M  V30 2022 H 189.883 2.07143 5.49878 0
M  V30 2023 H 191.407 1.26848 5.97279 0
M  V30 2024 H 192.821 3.19089 4.76293 0
M  V30 2025 H 191.218 3.94462 4.52238 0
M  V30 2026 H 192.288 3.70394 3.12948 0
M  V30 2027 N 193.631 -1.12557 1.10312 0
M  V30 2028 C 194.561 -2.20341 0.772798 0
M  V30 2029 C 195.542 -1.68198 -0.25365 0
M  V30 2030 O 196.727 -1.93831 -0.119699 0
M  V30 2031 C 193.857 -3.46709 0.202443 0
M  V30 2032 C 192.811 -4.11996 1.15943 0
M  V30 2033 C 192.137 -5.328 0.450345 0
M  V30 2034 C 193.437 -4.5828 2.50552 0
M  V30 2035 H 195.131 -2.48229 1.674 0
M  V30 2036 H 192.677 -1.19308 0.806326 0
M  V30 2037 H 194.63 -4.2138 -0.0407752 0
M  V30 2038 H 193.354 -3.18245 -0.734001 0
M  V30 2039 H 192.013 -3.39305 1.38808 0
M  V30 2040 H 191.661 -5.00602 -0.490531 0
M  V30 2041 H 191.361 -5.7743 1.08851 0
M  V30 2042 H 192.885 -6.10219 0.215642 0
M  V30 2043 H 194.299 -5.2433 2.31843 0
M  V30 2044 H 192.696 -5.13683 3.10242 0
M  V30 2045 H 193.766 -3.72329 3.10643 0
M  V30 2046 N 195.109 -0.891671 -1.2995 0
M  V30 2047 C 196.039 -0.379797 -2.30391 0
M  V30 2048 C 197.02 0.540919 -1.6127 0
M  V30 2049 O 198.205 0.453352 -1.88834 0
M  V30 2050 C 195.335 0.400654 -3.44981 0
M  V30 2051 C 194.289 -0.428905 -4.25846 0
M  V30 2052 C 193.615 0.478557 -5.32554 0
M  V30 2053 C 194.915 -1.67458 -4.94727 0
M  V30 2054 H 196.609 -1.21914 -2.73454 0
M  V30 2055 H 194.155 -0.587675 -1.31462 0
M  V30 2056 H 196.108 0.769434 -4.14316 0
M  V30 2057 H 194.832 1.27371 -3.0074 0
M  V30 2058 H 193.491 -0.779911 -3.58208 0
M  V30 2059 H 193.139 1.34951 -4.84559 0
M  V30 2060 H 192.839 -0.0727433 -5.87555 0
M  V30 2061 H 194.363 0.843705 -6.04743 0
M  V30 2062 H 195.777 -1.376 -5.56542 0
M  V30 2063 H 194.174 -2.16659 -5.59624 0
M  V30 2064 H 195.244 -2.41518 -4.20473 0
M  V30 2065 N 196.587 1.43421 -0.653314 0
M  V30 2066 C 197.497 2.34568 0.0388565 0
M  V30 2067 C 198.513 1.53888 0.81207 0
M  V30 2068 O 199.689 1.86539 0.759294 0
M  V30 2069 C 196.754 3.32167 0.993269 0
M  V30 2070 C 195.815 4.28751 0.216977 0
M  V30 2071 C 195.048 5.21688 1.12593 0
M  V30 2072 O 195.271 5.19052 2.36519 0
M  V30 2073 O 194.205 5.98919 0.598284 0
M  V30 2074 H 198.031 2.95251 -0.711386 0
M  V30 2075 H 195.616 1.43564 -0.413502 0
M  V30 2076 H 197.498 3.92183 1.54176 0
M  V30 2077 H 196.173 2.73987 1.72374 0
M  V30 2078 H 195.08 3.72215 -0.375101 0
M  V30 2079 H 196.413 4.89913 -0.473924 0
M  V30 2080 N 198.065 0.39524 1.52563 0
M  V30 2081 C 198.975 -0.444232 2.30356 0
M  V30 2082 C 199.991 -1.06615 1.37511 0
M  V30 2083 O 201.167 -1.07067 1.70583 0
M  V30 2084 C 198.232 -1.55315 3.09964 0
M  V30 2085 C 197.293 -0.955734 4.18526 0
M  V30 2086 C 196.526 -2.01181 4.9433 0
M  V30 2087 O 196.749 -3.22781 4.70285 0
M  V30 2088 O 195.683 -1.62579 5.79527 0
M  V30 2089 H 199.509 0.189667 3.03107 0
M  V30 2090 H 197.094 0.1588 1.48554 0
M  V30 2091 H 198.976 -2.19724 3.59582 0
M  V30 2092 H 197.651 -2.17191 2.4002 0
M  V30 2093 H 196.558 -0.274743 3.7309 0
M  V30 2094 H 197.891 -0.381109 4.90722 0
M  V30 2095 N 199.544 -1.57102 0.125237 0
M  V30 2096 C 200.792 -1.95021 -0.530198 0
M  V30 2097 C 201.113 -1.00982 -1.66816 0
M  V30 2098 O 200.383 -0.0672693 -1.95784 0
M  V30 2099 H 198.963 -0.720046 -0.198853 0
M  V30 2100 H 201.625 -1.93916 0.19564 0
M  V30 2101 H 200.721 -2.98211 -0.920681 0
M  V30 2102 N 201.022 0.148545 -1.56898 0
M  V30 2103 C 201.985 1.16736 -1.97244 0
M  V30 2104 C 202.985 1.35947 -0.858777 0
M  V30 2105 O 204.175 1.32966 -1.12542 0
M  V30 2106 C 201.307 2.52798 -2.28705 0
M  V30 2107 H 202.5 0.821279 -2.88435 0
M  V30 2108 H 200.053 0.391831 -1.51309 0
M  V30 2109 H 200.788 2.92381 -1.403 0
M  V30 2110 H 200.573 2.40216 -3.09901 0
M  V30 2111 H 202.063 3.26179 -2.60762 0
M  V30 2112 N 202.5 1.5196 0.417844 0
M  V30 2113 C 203.746 1.65836 1.16732 0
M  V30 2114 C 204.079 0.382881 1.90388 0
M  V30 2115 O 203.354 -0.618368 1.84408 0
M  V30 2116 C 203.637 2.87466 2.16876 0
M  V30 2117 C 203.49 4.25041 1.47174 0
M  V30 2118 C 204.809 3.04613 3.17646 0
M  V30 2119 H 201.928 0.603515 0.423011 0
M  V30 2120 H 204.57 1.84494 0.454105 0
M  V30 2121 H 202.72 2.71689 2.777 0
M  V30 2122 H 204.392 4.52527 0.895376 0
M  V30 2123 H 202.635 4.26843 0.773806 0
M  V30 2124 H 203.306 5.06176 2.20204 0
M  V30 2125 H 205.782 3.1923 2.66892 0
M  V30 2126 H 204.658 3.91247 3.8499 0
M  V30 2127 H 204.919 2.17541 3.84874 0
M  V30 2128 N 203.978 -0.674533 1.42435 0
M  V30 2129 C 204.888 -1.81751 1.48337 0
M  V30 2130 C 205.904 -1.69975 0.372099 0
M  V30 2131 O 207.08 -1.91521 0.62304 0
M  V30 2132 C 204.145 -3.17895 1.38361 0
M  V30 2133 C 203.206 -3.41625 2.59982 0
M  V30 2134 C 202.439 -4.71274 2.50473 0
M  V30 2135 O 202.662 -5.49197 1.54075 0
M  V30 2136 O 201.596 -4.96254 3.4061 0
M  V30 2137 H 205.422 -1.79728 2.44809 0
M  V30 2138 H 203.007 -0.830312 1.24202 0
M  V30 2139 H 204.889 -3.99136 1.35161 0
M  V30 2140 H 203.564 -3.20555 0.450144 0
M  V30 2141 H 202.471 -2.60231 2.68757 0
M  V30 2142 H 203.804 -3.43796 3.52229 0
M  V30 2143 N 205.456 -1.28612 -0.910864 0
M  V30 2144 C 206.386 -1.15326 -2.03032 0
M  V30 2145 C 207.367 -0.0502924 -1.70026 0
M  V30 2146 O 208.552 -0.227797 -1.92859 0
M  V30 2147 C 205.682 -0.817343 -3.37545 0
M  V30 2148 C 204.636 -1.8754 -3.84724 0
M  V30 2149 C 203.962 -1.39305 -5.16235 0
M  V30 2150 C 205.262 -3.28244 -4.06267 0
M  V30 2151 H 206.956 -2.08975 -2.14406 0
M  V30 2152 H 204.502 -1.00612 -1.03021 0
M  V30 2153 H 206.455 -0.711151 -4.15356 0
M  V30 2154 H 205.179 0.154846 -3.26233 0
M  V30 2155 H 203.838 -1.97079 -3.09121 0
M  V30 2156 H 203.486 -0.409846 -5.01328 0
M  V30 2157 H 203.186 -2.10057 -5.48771 0
M  V30 2158 H 204.71 -1.30014 -5.96598 0
M  V30 2159 H 206.124 -3.21611 -4.74594 0
M  V30 2160 H 204.521 -3.96855 -4.5014 0
M  V30 2161 H 205.591 -3.72048 -3.10979 0
M  V30 2162 N 206.934 1.1197 -1.10907 0
M  V30 2163 C 208.345 1.65114 -0.871446 0
M  V30 2164 C 208.696 1.86885 0.597353 0
M  V30 2165 O 207.821 1.59896 1.45816 0
M  V30 2166 C 208.416 2.99944 -1.5754 0
M  V30 2167 C 206.975 3.50018 -1.38435 0
M  V30 2168 C 206.122 2.24941 -1.62164 0
M  V30 2169 H 209.073 0.956851 -1.2661 0
M  V30 2170 H 209.094 3.66651 -1.01721 0
M  V30 2171 H 208.606 2.84067 -2.64438 0
M  V30 2172 H 206.707 3.71071 -0.337214 0
M  V30 2173 H 206.82 4.29165 -2.12965 0
M  V30 2174 H 205.184 2.3229 -1.04467 0
M  V30 2175 H 205.967 2.11612 -2.70324 0
M  V30 2176 N 208.412 0.89855 1.29475 0
M  V30 2177 C 209.322 0.379974 2.31502 0
M  V30 2178 C 210.338 -0.524695 1.659 0
M  V30 2179 O 211.514 -0.414551 1.97087 0
M  V30 2180 C 208.579 -0.385138 3.44554 0
M  V30 2181 C 207.64 0.550914 4.2575 0
M  V30 2182 C 206.873 -0.177778 5.33404 0
M  V30 2183 O 207.096 -1.40189 5.52904 0
M  V30 2184 O 206.03 0.479106 5.9999 0
M  V30 2185 H 209.856 1.22639 2.77837 0
M  V30 2186 H 207.441 0.662834 1.33891 0
M  V30 2187 H 209.323 -0.817841 4.13388 0
M  V30 2188 H 207.998 -1.20763 3.0033 0
M  V30 2189 H 206.905 1.03271 3.59564 0
M  V30 2190 H 208.238 1.33979 4.73614 0
M  V30 2191 N 209.89 -1.43072 0.660911 0
M  V30 2192 C 211.138 -2.01323 0.177094 0
M  V30 2193 C 211.459 -1.5245 -1.2159 0
M  V30 2194 O 210.729 -0.740322 -1.81373 0
M  V30 2195 H 209.309 -0.744382 0.0624804 0
M  V30 2196 H 211.971 -1.75179 0.854305 0
M  V30 2197 H 211.067 -3.11649 0.167641 0
M  V30 2198 N 211.368 -0.403325 -1.52352 0
M  V30 2199 C 212.278 0.432009 -2.30588 0
M  V30 2200 C 213.294 1.05884 -1.38075 0
M  V30 2201 O 214.47 1.06161 -1.71148 0
M  V30 2202 C 211.535 1.53669 -3.10784 0
M  V30 2203 C 210.596 0.933525 -4.19027 0
M  V30 2204 C 209.829 1.98557 -4.9539 0
M  V30 2205 O 210.052 3.20283 -4.71991 0
M  V30 2206 O 208.986 1.59504 -5.80381 0
M  V30 2207 H 212.812 -0.205739 -3.03002 0
M  V30 2208 H 210.397 -0.166675 -1.48467 0
M  V30 2209 H 212.279 2.17814 -3.60742 0
M  V30 2210 H 210.954 2.15915 -2.41169 0
M  V30 2211 H 209.861 0.254954 -3.7323 0
M  V30 2212 H 211.194 0.35508 -4.90918 0
M  V30 2213 N 212.846 1.57033 -0.133567 0
M  V30 2214 C 214.093 1.95686 0.520877 0
M  V30 2215 C 214.421 1.0177 1.6575 0
M  V30 2216 O 213.676 0.0443195 1.9565 0
M  V30 2217 C 213.975 3.40674 1.08057 0
M  V30 2218 C 213.641 4.50855 0.0637899 0
M  V30 2219 C 212.303 4.80716 -0.215757 0
M  V30 2220 C 214.655 5.17398 -0.62835 0
M  V30 2221 C 211.983 5.74433 -1.19348 0
M  V30 2222 C 214.335 6.12167 -1.5948 0
M  V30 2223 C 212.999 6.40414 -1.88218 0
M  V30 2224 H 212.269 0.716067 0.190602 0
M  V30 2225 H 214.916 1.9026 -0.217556 0
M  V30 2226 H 213.221 3.42865 1.89606 0
M  V30 2227 H 214.918 3.67902 1.59529 0
M  V30 2228 H 211.508 4.27605 0.291855 0
M  V30 2229 H 215.692 4.94472 -0.425562 0
M  V30 2230 H 210.948 5.94616 -1.42272 0
M  V30 2231 H 215.122 6.6281 -2.13671 0
M  V30 2232 H 212.749 7.12838 -2.64133 0
M  V30 2233 N 214.325 -0.140222 1.56975 0
M  V30 2234 C 215.273 -1.19207 1.99731 0
M  V30 2235 C 216.267 -1.44089 0.890777 0
M  V30 2236 O 217.473 -1.44301 1.07597 0
M  V30 2237 H 213.848 -0.40142 0.635898 0
M  V30 2238 H 215.819 -0.804813 2.87342 0
M  V30 2239 C 214.568 -2.51617 2.39967 0
M  V30 2240 H 213.891 -2.33303 3.24669 0
M  V30 2241 H 215.331 -3.23827 2.73701 0
M  V30 2242 C 213.79 -3.12654 1.25496 0
M  V30 2243 O 214.32 -3.97786 0.559371 0
M  V30 2244 N 212.526 -2.72206 1.01746 0
M  V30 2245 H 212.073 -2.03074 1.58489 0
M  V30 2246 H 212.031 -3.13377 0.253461 0
M  V30 2247 N 215.803 -1.52179 -0.40978 0
M  V30 2248 C 216.766 -1.74853 -1.48186 0
M  V30 2249 C 217.766 -0.618417 -1.48433 0
M  V30 2250 O 218.956 -0.886286 -1.49969 0
M  V30 2251 C 216.088 -1.8303 -2.87598 0
M  V30 2252 H 217.281 -2.70559 -1.29374 0
M  V30 2253 H 214.834 -1.42586 -0.640233 0
M  V30 2254 H 215.569 -0.89236 -3.11781 0
M  V30 2255 H 215.354 -2.65187 -2.88822 0
M  V30 2256 H 216.844 -2.02316 -3.65319 0
M  V30 2257 N 217.281 0.66697 -1.42791 0
M  V30 2258 C 218.244 1.76211 -1.46568 0
M  V30 2259 C 219.244 1.56896 -0.352196 0
M  V30 2260 O 220.434 1.63044 -0.613364 0
M  V30 2261 C 217.566 3.14935 -1.30494 0
M  V30 2262 H 218.759 1.74247 -2.44086 0
M  V30 2263 H 216.312 0.877342 -1.29354 0
M  V30 2264 H 217.047 3.2252 -0.339301 0
M  V30 2265 H 216.832 3.30359 -2.11199 0
M  V30 2266 H 218.322 3.94821 -1.36038 0
M  V30 2267 N 218.759 1.29093 0.90403 0
M  V30 2268 C 220.006 1.16813 1.65411 0
M  V30 2269 C 220.334 -0.28128 1.92455 0
M  V30 2270 O 219.589 -1.22006 1.53013 0
M  V30 2271 C 219.888 1.92224 3.01305 0
M  V30 2272 C 219.554 3.41968 2.93885 0
M  V30 2273 C 218.216 3.82807 2.91569 0
M  V30 2274 C 220.568 4.37409 2.83413 0
M  V30 2275 C 217.896 5.1741 2.76594 0
M  V30 2276 C 220.248 5.72097 2.69977 0
M  V30 2277 C 218.912 6.12199 2.66024 0
M  V30 2278 H 218.182 0.42745 0.605283 0
M  V30 2279 H 220.829 1.59981 1.05254 0
M  V30 2280 H 219.134 1.41635 3.65304 0
M  V30 2281 H 220.831 1.80131 3.58265 0
M  V30 2282 H 217.421 3.09504 2.96488 0
M  V30 2283 H 221.605 4.06813 2.84283 0
M  V30 2284 H 216.861 5.47596 2.71935 0
M  V30 2285 H 221.035 6.45704 2.60844 0
M  V30 2286 H 218.662 7.16448 2.54178 0
M  V30 2287 N 220.237 -1.11381 1.11499 0
M  V30 2288 C 221.185 -2.19522 0.768956 0
M  V30 2289 C 222.179 -1.67693 -0.239857 0
M  V30 2290 O 223.385 -1.79727 -0.0990755 0
M  V30 2291 H 219.76 -0.715711 0.230786 0
M  V30 2292 H 221.731 -2.45954 1.68964 0
M  V30 2293 C 220.48 -3.46945 0.229073 0
M  V30 2294 H 219.803 -3.8718 0.996596 0
M  V30 2295 H 221.243 -4.23993 0.0251441 0
M  V30 2296 C 219.702 -3.2042 -1.04079 0
M  V30 2297 O 220.232 -3.41178 -2.12038 0
M  V30 2298 N 218.438 -2.74151 -0.963823 0
M  V30 2299 H 217.985 -2.57459 -0.0851722 0
M  V30 2300 H 217.943 -2.56781 -1.81414 0
M  V30 2301 N 221.715 -0.905404 -1.28997 0
M  V30 2302 C 223.126 -0.581953 -1.77398 0
M  V30 2303 C 223.477 0.902552 -1.74208 0
M  V30 2304 O 222.602 1.70584 -1.33154 0
M  V30 2305 C 223.197 -1.04961 -3.22131 0
M  V30 2306 C 221.756 -0.777229 -3.68288 0
M  V30 2307 C 220.903 -1.22109 -2.48967 0
M  V30 2308 H 223.854 -1.08754 -1.15578 0
M  V30 2309 H 223.875 -0.387387 -3.78523 0
M  V30 2310 H 223.387 -2.13008 -3.24421 0
M  V30 2311 H 221.488 0.290383 -3.71467 0
M  V30 2312 H 221.601 -1.37911 -4.58822 0
M  V30 2313 H 219.965 -0.639971 -2.46529 0
M  V30 2314 H 220.748 -2.30972 -2.53982 0
M  V30 2315 N 223.193 1.4272 -0.668489 0
M  V30 2316 C 224.103 2.34596 0.0139753 0
M  V30 2317 C 225.119 1.5474 0.795703 0
M  V30 2318 O 226.295 1.87334 0.739466 0
M  V30 2319 C 223.36 3.33202 0.957982 0
M  V30 2320 C 222.421 4.28957 0.17149 0
M  V30 2321 C 221.654 5.22853 1.07053 0
M  V30 2322 O 221.877 5.21531 2.31001 0
M  V30 2323 O 220.811 5.9952 0.534727 0
M  V30 2324 H 224.637 2.9448 -0.742661 0
M  V30 2325 H 222.222 1.43117 -0.428705 0
M  V30 2326 H 224.104 3.93796 1.50008 0
M  V30 2327 H 222.779 2.758 1.69458 0
M  V30 2328 H 221.686 3.71796 -0.414558 0
M  V30 2329 H 223.019 4.89383 -0.52586 0
M  V30 2330 N 224.671 0.411399 1.52136 0
M  V30 2331 C 225.634 -0.401089 2.25663 0
M  V30 2332 C 226.634 -0.971732 1.28117 0
M  V30 2333 O 227.824 -0.850254 1.52041 0
M  V30 2334 C 224.956 -1.56483 3.02863 0
M  V30 2335 H 226.149 0.24295 2.98914 0
M  V30 2336 H 223.702 0.163968 1.55438 0
M  V30 2337 H 224.437 -2.24567 2.33967 0
M  V30 2338 H 224.222 -1.16211 3.74483 0
M  V30 2339 H 225.712 -2.13951 3.58629 0
M  V30 2340 N 226.149 -1.5696 0.141893 0
M  V30 2341 C 227.395 -1.9625 -0.511248 0
M  V30 2342 C 227.728 -1.02654 -1.64851 0
M  V30 2343 O 227.003 -0.0679676 -1.94381 0
M  V30 2344 C 227.286 -3.45285 -1.02227 0
M  V30 2345 C 227.139 -4.49658 0.113138 0
M  V30 2346 C 228.458 -3.96698 -1.90574 0
M  V30 2347 H 225.577 -0.713567 -0.184367 0
M  V30 2348 H 228.219 -1.88698 0.222087 0
M  V30 2349 H 226.369 -3.51852 -1.64719 0
M  V30 2350 H 228.041 -4.55174 0.749302 0
M  V30 2351 H 226.284 -4.26857 0.773026 0
M  V30 2352 H 226.955 -5.51258 -0.286053 0
M  V30 2353 H 229.431 -3.92578 -1.37918 0
M  V30 2354 H 228.307 -5.01453 -2.2324 0
M  V30 2355 H 228.568 -3.3875 -2.84079 0
M  V30 2356 N 227.627 0.131896 -1.57047 0
M  V30 2357 C 228.873 0.843179 -1.84441 0
M  V30 2358 C 229.206 1.80129 -0.725749 0
M  V30 2359 O 228.481 1.92624 0.269469 0
M  V30 2360 C 228.764 1.60442 -3.22382 0
M  V30 2361 C 228.617 0.666782 -4.4483 0
M  V30 2362 C 229.936 2.56354 -3.5773 0
M  V30 2363 H 227.055 0.305081 -0.670891 0
M  V30 2364 H 229.697 0.107839 -1.89694 0
M  V30 2365 H 227.847 2.23128 -3.18035 0
M  V30 2366 H 229.519 0.0497646 -4.61273 0
M  V30 2367 H 227.762 -0.022609 -4.33794 0
M  V30 2368 H 228.433 1.23579 -5.37989 0
M  V30 2369 H 230.909 2.0378 -3.62785 0
M  V30 2370 H 229.785 3.06657 -4.5525 0
M  V30 2371 H 230.046 3.38419 -2.84473 0
M  V30 2372 N 229.106 1.52395 0.401703 0
M  V30 2373 C 230.053 1.76268 1.48991 0
M  V30 2374 C 231.023 0.605386 1.54675 0
M  V30 2375 O 232.208 0.843742 1.7113 0
M  V30 2376 C 229.348 1.92592 2.86361 0
M  V30 2377 C 228.461 3.20259 2.89928 0
M  V30 2378 C 227.596 3.26972 4.18644 0
M  V30 2379 C 226.635 4.48812 4.16214 0
M  V30 2380 N 225.772 4.52877 5.36514 0
M  V30 2381 H 230.612 2.6914 1.27935 0
M  V30 2382 H 228.149 1.33355 0.620871 0
M  V30 2383 H 230.107 2.0004 3.66115 0
M  V30 2384 H 228.737 1.03093 3.05895 0
M  V30 2385 H 227.789 3.21945 2.02621 0
M  V30 2386 H 229.101 4.10056 2.83999 0
M  V30 2387 H 228.255 3.33533 5.06794 0
M  V30 2388 H 226.994 2.35126 4.27278 0
M  V30 2389 H 225.999 4.4239 3.26453 0
M  V30 2390 H 227.224 5.41961 4.09213 0
M  V30 2391 H 225.17 3.63917 5.45802 0
M  V30 2392 H 225.087 5.36529 5.32609 0
M  V30 2393 H 226.355 4.63676 6.26597 0
M  V30 2394 N 230.584 -0.659388 1.43143 0
M  V30 2395 C 231.83 -1.42145 1.44647 0
M  V30 2396 C 232.163 -1.9408 0.0681907 0
M  V30 2397 O 231.438 -1.71899 -0.910007 0
M  V30 2398 C 231.721 -2.60735 2.48373 0
M  V30 2399 C 231.574 -2.14332 3.95451 0
M  V30 2400 C 232.893 -3.62951 2.48906 0
M  V30 2401 H 230.012 -0.51552 0.526696 0
M  V30 2402 H 232.654 -0.748069 1.74654 0
M  V30 2403 H 230.804 -3.18184 2.22916 0
M  V30 2404 H 232.476 -1.61932 4.31944 0
M  V30 2405 H 230.719 -1.4576 4.08578 0
M  V30 2406 H 231.39 -2.99583 4.63631 0
M  V30 2407 H 233.866 -3.1525 2.71582 0
M  V30 2408 H 232.742 -4.43487 3.23435 0
M  V30 2409 H 233.003 -4.15126 1.52061 0
M  V30 2410 N 232.062 -1.29571 -0.897171 0
M  V30 2411 C 233.29 -1.20583 -1.68129 0
M  V30 2412 C 233.705 0.233181 -1.87354 0
M  V30 2413 O 233.062 1.15579 -1.41236 0
M  V30 2414 C 233.113 -1.91772 -3.06441 0
M  V30 2415 O 232.834 -3.30053 -2.88091 0
M  V30 2416 C 234.335 -1.89291 -4.00854 0
M  V30 2417 H 231.555 -0.417826 -0.525036 0
M  V30 2418 H 234.099 -1.70987 -1.12177 0
M  V30 2419 H 232.254 -1.45196 -3.59161 0
M  V30 2420 H 232.668 -3.65942 -3.75748 0
M  V30 2421 H 234.142 -2.43662 -4.95311 0
M  V30 2422 H 234.619 -0.869014 -4.30517 0
M  V30 2423 H 235.225 -2.35622 -3.54066 0
M  V30 2424 N 233.54 1.10788 -1.12088 0
M  V30 2425 C 234.817 1.79136 -0.785476 0
M  V30 2426 C 235.197 1.98246 0.725377 0
M  V30 2427 O 234.545 1.57258 1.65778 0
M  V30 2428 C 234.755 3.12375 -1.55636 0
M  V30 2429 C 236.103 3.8731 -1.74001 0
M  V30 2430 O 237.127 3.22085 -1.52117 0
M  V30 2431 O 235.986 5.04369 -2.10415 0
M  V30 2432 H 233.08 0.776226 -0.285311 0
M  V30 2433 H 235.626 1.1747 -1.2247 0
M  V30 2434 H 234.398 2.93863 -2.5838 0
M  V30 2435 H 234.021 3.81758 -1.11114 0
M  V30 2436 N 235.018 0.912232 1.28515 0
M  V30 2437 C 236.264 0.545405 1.95328 0
M  V30 2438 C 236.597 -0.908313 1.71649 0
M  V30 2439 O 235.872 -1.64575 1.03659 0
M  V30 2440 C 236.155 0.853483 3.4984 0
M  V30 2441 C 236.008 2.35982 3.82926 0
M  V30 2442 C 237.327 0.348589 4.38717 0
M  V30 2443 H 234.446 0.199626 0.709449 0
M  V30 2444 H 237.088 1.1412 1.5191 0
M  V30 2445 H 235.238 0.34643 3.86952 0
M  V30 2446 H 236.91 2.93738 3.55691 0
M  V30 2447 H 235.153 2.81543 3.30024 0
M  V30 2448 H 235.824 2.52593 4.90816 0
M  V30 2449 H 238.3 0.78294 4.08668 0
M  V30 2450 H 237.176 0.593242 5.45685 0
M  V30 2451 H 237.437 -0.751049 4.35674 0
M  V30 2452 N 236.496 -1.42363 0.676048 0
M  V30 2453 C 237.426 -2.33497 0.0124832 0
M  V30 2454 C 238.407 -1.50748 -0.787981 0
M  V30 2455 O 239.592 -1.79346 -0.744884 0
M  V30 2456 C 236.722 -3.34377 -0.938582 0
M  V30 2457 C 235.676 -4.27289 -0.246622 0
M  V30 2458 C 235.002 -5.18386 -1.31071 0
M  V30 2459 C 236.302 -5.14916 0.875125 0
M  V30 2460 H 237.996 -2.89233 0.773593 0
M  V30 2461 H 235.542 -1.39073 0.37346 0
M  V30 2462 H 237.495 -3.97044 -1.41188 0
M  V30 2463 H 236.219 -2.76947 -1.73113 0
M  V30 2464 H 234.878 -3.66018 0.206456 0
M  V30 2465 H 234.526 -4.57282 -2.09528 0
M  V30 2466 H 234.226 -5.81378 -0.852839 0
M  V30 2467 H 235.75 -5.83929 -1.78492 0
M  V30 2468 H 237.164 -5.71262 0.482983 0
M  V30 2469 H 235.561 -5.86747 1.25887 0
M  V30 2470 H 236.631 -4.53242 1.72335 0
M  V30 2471 N 237.974 -0.419461 -1.51915 0
M  V30 2472 C 238.904 0.391813 -2.30189 0
M  V30 2473 C 239.885 1.03699 -1.34836 0
M  V30 2474 O 241.07 1.04403 -1.63748 0
M  V30 2475 C 238.2 1.50312 -3.13087 0
M  V30 2476 C 237.154 0.9824 -4.16573 0
M  V30 2477 C 236.48 2.18809 -4.8788 0
M  V30 2478 C 237.78 0.0292356 -5.22292 0
M  V30 2479 H 239.474 -0.26135 -2.98257 0
M  V30 2480 H 237.02 -0.127134 -1.43438 0
M  V30 2481 H 238.973 2.07773 -3.66617 0
M  V30 2482 H 237.697 2.18431 -2.42807 0
M  V30 2483 H 236.356 0.430119 -3.64068 0
M  V30 2484 H 236.004 2.85507 -4.14119 0
M  V30 2485 H 235.704 1.84615 -5.57845 0
M  V30 2486 H 237.228 2.76858 -5.44226 0
M  V30 2487 H 238.642 0.512976 -5.71 0
M  V30 2488 H 237.039 -0.2244 -5.9968 0
M  V30 2489 H 238.109 -0.912931 -4.76228 0
M  V30 2490 N 239.452 1.56882 -0.150215 0
M  V30 2491 C 240.415 2.1573 0.774157 0
M  V30 2492 C 241.415 1.0999 1.17298 0
M  V30 2493 O 242.605 1.35613 1.09338 0
M  V30 2494 C 239.737 2.72302 2.05096 0
M  V30 2495 H 240.93 2.98752 0.262201 0
M  V30 2496 H 238.483 1.55985 0.099248 0
M  V30 2497 H 239.218 1.92956 2.6065 0
M  V30 2498 H 239.003 3.49665 1.77416 0
M  V30 2499 H 240.493 3.17632 2.71109 0
M  V30 2500 N 240.93 -0.123565 1.57115 0
M  V30 2501 C 242.155 -0.850398 1.89164 0
M  V30 2502 C 242.58 -1.7286 0.741688 0
M  V30 2503 O 241.938 -1.78665 -0.307958 0
M  V30 2504 C 241.986 -1.66353 3.19936 0
M  V30 2505 O 241.09 -2.77004 3.0552 0
M  V30 2506 H 240.431 -0.235454 0.620852 0
M  V30 2507 H 242.961 -0.107335 2.04318 0
M  V30 2508 H 242.971 -2.05372 3.52543 0
M  V30 2509 H 241.646 -1.01881 4.03228 0
M  V30 2510 H 240.223 -2.41221 2.84371 0
M  V30 2511 N 242.408 -1.52605 -0.393616 0
M  V30 2512 C 243.358 -1.73436 -1.48 0
M  V30 2513 C 244.342 -0.588386 -1.49756 0
M  V30 2514 O 245.534 -0.846047 -1.5547 0
M  V30 2515 C 242.663 -1.90247 -2.85764 0
M  V30 2516 C 241.749 -3.10763 -2.88595 0
M  V30 2517 N 242.14 -4.33196 -2.61103 0
M  V30 2518 C 240.438 -3.10914 -3.19763 0
M  V30 2519 C 241.139 -5.1477 -2.70899 0
M  V30 2520 N 240.115 -4.50356 -3.04435 0
M  V30 2521 H 243.917 -2.65727 -1.25563 0
M  V30 2522 H 241.431 -1.5085 -0.601513 0
M  V30 2523 H 243.428 -2.03291 -3.63976 0
M  V30 2524 H 242.088 -0.991663 -3.09186 0
M  V30 2525 H 243.099 -4.61408 -2.35209 0
M  V30 2526 H 239.776 -2.29626 -3.4868 0
M  V30 2527 H 241.166 -6.22355 -2.53227 0
M  V30 2528 N 243.887 0.651787 -1.4349 0
M  V30 2529 C 244.797 1.79368 -1.5121 0
M  V30 2530 C 245.813 1.69361 -0.399093 0
M  V30 2531 O 246.989 1.90505 -0.653431 0
M  V30 2532 C 244.054 3.15653 -1.43401 0
M  V30 2533 C 243.115 3.37446 -2.65384 0
M  V30 2534 C 242.348 4.67229 -2.57939 0
M  V30 2535 O 242.571 5.46676 -1.62792 0
M  V30 2536 O 241.505 4.90773 -3.48462 0
M  V30 2537 H 245.331 1.7581 -2.47638 0
M  V30 2538 H 242.916 0.810447 -1.25507 0
M  V30 2539 H 244.798 3.96935 -1.41494 0
M  V30 2540 H 243.473 3.19798 -0.501085 0
M  V30 2541 H 242.38 2.55923 -2.72863 0
M  V30 2542 H 243.713 3.38148 -3.57654 0
M  V30 2543 N 245.365 1.30045 0.890287 0
M  V30 2544 C 246.313 1.15873 2.01683 0
M  V30 2545 C 247.307 0.0719403 1.69247 0
M  V30 2546 O 248.513 0.232414 1.78493 0
M  V30 2547 H 244.888 0.358203 0.661207 0
M  V30 2548 H 246.859 2.11229 2.10772 0
M  V30 2549 C 245.608 0.861842 3.36849 0
M  V30 2550 H 244.931 1.69016 3.62317 0
M  V30 2551 H 246.371 0.802762 4.16331 0
M  V30 2552 C 244.83 -0.435132 3.34078 0
M  V30 2553 O 245.36 -1.4583 3.74295 0
M  V30 2554 N 243.566 -0.444377 2.87182 0
M  V30 2555 H 243.113 0.388723 2.5465 0
M  V30 2556 H 243.071 -1.31213 2.85711 0
M  V30 2557 N 246.843 -1.10192 1.12674 0
M  V30 2558 C 248.071 -1.85983 0.906527 0
M  V30 2559 C 248.486 -1.80783 -0.544333 0
M  V30 2560 O 247.843 -1.19834 -1.37645 0
M  V30 2561 C 247.894 -3.34281 1.37618 0
M  V30 2562 O 247.615 -3.39401 2.77017 0
M  V30 2563 C 249.116 -4.26938 1.19325 0
M  V30 2564 H 246.336 -0.587716 0.323775 0
M  V30 2565 H 248.88 -1.39284 1.49734 0
M  V30 2566 H 247.035 -3.78436 0.828539 0
M  V30 2567 H 247.449 -4.31838 2.97684 0
M  V30 2568 H 248.923 -5.29181 1.57071 0
M  V30 2569 H 249.4 -4.38995 0.134097 0
M  V30 2570 H 250.006 -3.8859 1.72852 0
M  V30 2571 N 248.321 -0.919034 -1.28029 0
M  V30 2572 C 249.284 -0.416182 -2.2539 0
M  V30 2573 C 250.284 0.460438 -1.54067 0
M  V30 2574 O 251.474 0.262744 -1.72207 0
M  V30 2575 C 248.606 0.402707 -3.38513 0
M  V30 2576 H 249.799 -1.27629 -2.71387 0
M  V30 2577 H 247.352 -0.698919 -1.39803 0
M  V30 2578 H 248.087 1.282 -2.97885 0
M  V30 2579 H 247.872 -0.225698 -3.9145 0
M  V30 2580 H 249.362 0.745191 -4.10897 0
M  V30 2581 N 249.799 1.42003 -0.683588 0
M  V30 2582 C 250.731 2.29183 0.0283068 0
M  V30 2583 C 251.744 1.4415 0.756611 0
M  V30 2584 O 252.933 1.67779 0.609306 0
M  V30 2585 C 250.033 3.21765 1.06398 0
M  V30 2586 C 249.206 4.35496 0.407723 0
M  V30 2587 C 248.265 5.08737 1.34437 0
M  V30 2588 O 247.291 5.62948 0.841318 0
M  V30 2589 N 248.493 5.15075 2.67728 0
M  V30 2590 H 251.258 2.9092 -0.720105 0
M  V30 2591 H 248.819 1.53025 -0.528682 0
M  V30 2592 H 250.811 3.6763 1.69204 0
M  V30 2593 H 249.381 2.61418 1.71404 0
M  V30 2594 H 248.601 3.92165 -0.400012 0
M  V30 2595 H 249.889 5.08776 -0.0490956 0
M  V30 2596 H 249.287 4.72457 3.11129 0
M  V30 2597 H 247.844 5.64556 3.2576 0
M  V30 2598 N 251.277 0.427512 1.51691 0
M  V30 2599 C 252.526 -0.143679 2.01188 0
M  V30 2600 C 252.839 -1.44642 1.31674 0
M  V30 2601 O 254.045 -2.09997 1.72086 0
M  V30 2602 C 252.501 -0.306602 3.58592 0
M  V30 2603 C 252.109 0.985125 4.37035 0
M  V30 2604 C 253.853 -0.832091 4.16265 0
M  V30 2605 C 251.76 0.788382 5.86122 0
M  V30 2606 H 250.69 -0.0574701 0.751807 0
M  V30 2607 H 253.341 0.555772 1.74881 0
M  V30 2608 H 251.723 -1.06882 3.81303 0
M  V30 2609 H 252.897 1.75492 4.26074 0
M  V30 2610 H 251.212 1.4384 3.90767 0
M  V30 2611 H 253.809 -0.995617 5.25349 0
M  V30 2612 H 254.152 -1.81186 3.74803 0
M  V30 2613 H 254.685 -0.128444 3.97593 0
M  V30 2614 H 251.424 1.74025 6.31978 0
M  V30 2615 H 250.944 0.0582143 5.99772 0
M  V30 2616 H 252.623 0.437722 6.45518 0
M  V30 2617 N 252.755 -1.56801 0.158532 0
M  V30 2618 C 254.004 -1.95665 -0.489702 0
M  V30 2619 C 254.317 -1.04654 -1.65248 0
M  V30 2620 O 255.523 -1.33146 -2.3661 0
M  V30 2621 C 253.979 -3.47874 -0.922582 0
M  V30 2622 C 253.587 -4.47489 0.213893 0
M  V30 2623 C 255.331 -3.95583 -1.53996 0
M  V30 2624 C 253.238 -5.90921 -0.237903 0
M  V30 2625 H 252.168 -0.730516 -0.186716 0
M  V30 2626 H 254.819 -1.81861 0.244722 0
M  V30 2627 H 253.201 -3.57051 -1.71261 0
M  V30 2628 H 254.375 -4.50017 0.991036 0
M  V30 2629 H 252.69 -4.09764 0.740407 0
M  V30 2630 H 255.287 -5.0019 -1.8898 0
M  V30 2631 H 255.63 -3.37789 -2.43319 0
M  V30 2632 H 256.163 -3.8937 -0.814611 0
M  V30 2633 H 252.902 -6.52559 0.620236 0
M  V30 2634 H 252.422 -5.91729 -0.980676 0
M  V30 2635 H 254.101 -6.43352 -0.686067 0
M  V30 2636 N 254.233 0.115231 -1.57178 0
M  V30 2637 C 255.51 0.852873 -1.76027 0
M  V30 2638 C 255.89 1.97892 -0.73498 0
M  V30 2639 O 255.238 2.27232 0.24036 0
M  V30 2640 C 255.448 1.36608 -3.21153 0
M  V30 2641 C 256.796 1.81692 -3.83762 0
M  V30 2642 O 257.82 1.46278 -3.24779 0
M  V30 2643 O 256.679 2.47104 -4.87444 0
M  V30 2644 H 253.773 0.405296 -0.720877 0
M  V30 2645 H 256.319 0.0986785 -1.69413 0
M  V30 2646 H 255.091 0.558357 -3.87296 0
M  V30 2647 H 254.714 2.18287 -3.3232 0
M  V30 2648 N 255.711 1.52812 0.385517 0
M  V30 2649 C 256.674 1.77188 1.45386 0
M  V30 2650 C 257.674 0.641953 1.4743 0
M  V30 2651 O 258.864 0.910033 1.4854 0
M  V30 2652 C 255.996 1.87582 2.8465 0
M  V30 2653 H 257.189 2.72583 1.25054 0
M  V30 2654 H 254.742 1.43586 0.617467 0
M  V30 2655 H 255.477 0.941849 3.10322 0
M  V30 2656 H 255.262 2.69748 2.84567 0
M  V30 2657 H 256.752 2.08102 3.62054 0
M  V30 2658 N 257.189 -0.644168 1.43834 0
M  V30 2659 C 258.605 -0.960875 1.27434 0
M  V30 2660 C 258.805 -2.00499 0.200618 0
M  V30 2661 O 257.861 -2.49018 -0.417906 0
M  V30 2662 C 259.174 -1.43653 2.64167 0
M  V30 2663 C 260.722 -1.55271 2.71772 0
M  V30 2664 C 261.197 -2.06224 4.08944 0
M  V30 2665 N 262.688 -2.13513 4.11055 0
M  V30 2666 C 263.423 -2.54081 5.14033 0
M  V30 2667 N 262.919 -2.9388 6.27381 0
M  V30 2668 N 264.712 -2.54101 5.01387 0
M  V30 2669 H 256.863 0.0465779 2.12349 0
M  V30 2670 H 259.126 -0.0417638 0.94708 0
M  V30 2671 H 258.832 -0.743706 3.43747 0
M  V30 2672 H 258.706 -2.40993 2.90176 0
M  V30 2673 H 261.093 -2.23653 1.92519 0
M  V30 2674 H 261.174 -0.563395 2.49519 0
M  V30 2675 H 260.818 -1.38441 4.88668 0
M  V30 2676 H 260.748 -3.06003 4.28567 0
M  V30 2677 H 263.239 -1.85493 3.29242 0
M  V30 2678 H 263.552 -3.2361 7.01781 0
M  V30 2679 H 261.897 -2.91663 6.30839 0
M  V30 2680 H 265.088 -2.22391 4.11898 0
M  V30 2681 H 265.261 -2.85394 5.81768 0
M  V30 2682 N 258.668 -1.30515 -0.883378 0
M  V30 2683 C 260.079 -1.17509 -1.45081 0
M  V30 2684 C 260.43 0.223605 -1.94922 0
M  V30 2685 O 259.555 1.12041 -1.85137 0
M  V30 2686 C 260.15 -2.12715 -2.63701 0
M  V30 2687 C 258.709 -2.03682 -3.16529 0
M  V30 2688 C 257.856 -2.02706 -1.89224 0
M  V30 2689 H 260.807 -1.42762 -0.693165 0
M  V30 2690 H 260.828 -1.70891 -3.39965 0
M  V30 2691 H 260.34 -3.14505 -2.27395 0
M  V30 2692 H 258.441 -1.05039 -3.57488 0
M  V30 2693 H 258.554 -2.92146 -3.7972 0
M  V30 2694 H 256.918 -1.4753 -2.07622 0
M  V30 2695 H 257.701 -3.06229 -1.55174 0
M  V30 2696 N 260.146 1.09593 -1.13257 0
M  V30 2697 C 261.109 2.14359 -0.811358 0
M  V30 2698 C 262.109 1.59808 0.178377 0
M  V30 2699 O 263.299 1.74132 -0.0484911 0
M  V30 2700 C 260.431 3.40269 -0.207276 0
M  V30 2701 H 261.624 2.44284 -1.73969 0
M  V30 2702 H 259.177 1.25102 -0.936973 0
M  V30 2703 H 259.912 3.15969 0.73036 0
M  V30 2704 H 259.697 3.81154 -0.919992 0
M  V30 2705 H 261.187 4.176 0.000667944 0
M  V30 2706 N 261.624 0.925811 1.2754 0
M  V30 2707 C 262.587 0.428129 2.25166 0
M  V30 2708 C 263.587 -0.452261 1.54309 0
M  V30 2709 O 264.777 -0.253608 1.72344 0
M  V30 2710 C 261.909 -0.384749 3.38722 0
M  V30 2711 H 263.102 1.29066 2.70706 0
M  V30 2712 H 260.655 0.706323 1.3943 0
M  V30 2713 H 261.39 -1.26618 2.98561 0
M  V30 2714 H 261.175 0.246454 3.91325 0
M  V30 2715 H 262.665 -0.723389 4.11287 0
M  V30 2716 N 263.102 -1.41638 0.69111 0
M  V30 2717 C 264.518 -1.55435 0.362224 0
M  V30 2718 C 264.718 -1.66754 -1.13117 0
M  V30 2719 O 263.774 -1.64348 -1.91692 0
M  V30 2720 C 265.087 -2.79588 1.10684 0
M  V30 2721 C 266.635 -2.9338 1.09075 0
M  V30 2722 C 267.11 -4.20414 1.81703 0
M  V30 2723 N 268.601 -4.27362 1.7865 0
M  V30 2724 C 269.336 -5.24507 2.31689 0
M  V30 2725 N 268.832 -6.27708 2.93179 0
M  V30 2726 N 270.625 -5.16416 2.2197 0
M  V30 2727 H 262.776 -1.32536 1.65976 0
M  V30 2728 H 265.039 -0.639115 0.700168 0
M  V30 2729 H 264.745 -2.77419 2.16175 0
M  V30 2730 H 264.619 -3.70973 0.682545 0
M  V30 2731 H 267.006 -2.95067 0.0441238 0
M  V30 2732 H 267.087 -2.0318 1.55407 0
M  V30 2733 H 266.731 -4.19488 2.86343 0
M  V30 2734 H 266.661 -5.09578 1.32808 0
M  V30 2735 H 269.152 -3.53415 1.33815 0
M  V30 2736 H 269.465 -6.98217 3.31229 0
M  V30 2737 H 267.81 -6.28223 2.97255 0
M  V30 2738 H 271.001 -4.34716 1.73607 0
M  V30 2739 H 271.174 -5.91958 2.63609 0
M  V30 2740 N 264.58 -0.43555 -1.51462 0
M  V30 2741 C 265.827 0.131514 -2.02072 0
M  V30 2742 C 266.155 1.42868 -1.31981 0
M  V30 2743 O 265.41 1.91076 -0.422883 0
M  V30 2744 C 265.709 0.39942 -3.55161 0
M  V30 2745 C 265.375 -0.81172 -4.43533 0
M  V30 2746 C 264.037 -1.14387 -4.67407 0
M  V30 2747 C 266.389 -1.61976 -4.95392 0
M  V30 2748 C 263.717 -2.28477 -5.40384 0
M  V30 2749 C 266.069 -2.75164 -5.6962 0
M  V30 2750 C 264.733 -3.08835 -5.91758 0
M  V30 2751 H 264.003 0.0481244 -0.739436 0
M  V30 2752 H 266.65 -0.58238 -1.8243 0
M  V30 2753 H 264.955 1.19519 -3.73125 0
M  V30 2754 H 266.652 0.85157 -3.91854 0
M  V30 2755 H 263.242 -0.542898 -4.25148 0
M  V30 2756 H 267.426 -1.37637 -4.76833 0
M  V30 2757 H 262.682 -2.5488 -5.55739 0
M  V30 2758 H 266.856 -3.38147 -6.08793 0
M  V30 2759 H 264.483 -3.97353 -6.48086 0
M  V30 2760 N 266.058 1.56714 -0.166846 0
M  V30 2761 C 267.006 2.19056 0.782123 0
M  V30 2762 C 268 1.15328 1.24079 0
M  V30 2763 O 269.206 1.33537 1.20697 0
M  V30 2764 H 265.581 0.70167 0.270486 0
M  V30 2765 H 267.552 2.97494 0.232322 0
M  V30 2766 C 266.301 2.84206 2.00306 0
M  V30 2767 H 265.624 3.63748 1.65914 0
M  V30 2768 H 267.064 3.31302 2.64604 0
M  V30 2769 C 265.523 1.83744 2.82382 0
M  V30 2770 O 266.053 1.32014 3.79388 0
M  V30 2771 N 264.259 1.52601 2.47308 0
M  V30 2772 H 263.806 1.9486 1.68485 0
M  V30 2773 H 263.764 0.856351 3.02513 0
M  V30 2774 N 267.536 -0.106894 1.57237 0
M  V30 2775 C 268.499 -1.11466 2.0027 0
M  V30 2776 C 269.499 -1.33623 0.894519 0
M  V30 2777 O 270.689 -1.29935 1.16028 0
M  V30 2778 C 267.821 -2.46646 2.35327 0
M  V30 2779 H 269.014 -0.744516 2.90512 0
M  V30 2780 H 266.567 -0.351576 1.52295 0
M  V30 2781 H 267.302 -2.88558 1.48003 0
M  V30 2782 H 267.087 -2.31915 3.16161 0
M  V30 2783 H 268.577 -3.19151 2.69318 0
M  V30 2784 N 269.014 -1.53014 -0.377408 0
M  V30 2785 C 269.924 -1.81557 -1.48574 0
M  V30 2786 C 270.94 -0.703102 -1.59162 0
M  V30 2787 O 272.116 -0.99192 -1.75279 0
M  V30 2788 C 269.181 -1.9889 -2.83978 0
M  V30 2789 C 268.242 -3.22801 -2.83016 0
M  V30 2790 C 267.475 -3.39298 -4.11962 0
M  V30 2791 O 267.698 -2.60345 -5.0752 0
M  V30 2792 O 266.632 -4.32604 -4.18494 0
M  V30 2793 H 270.458 -2.75695 -1.27382 0
M  V30 2794 H 268.043 -1.38248 -0.566373 0
M  V30 2795 H 269.925 -2.11931 -3.6423 0
M  V30 2796 H 268.6 -1.07942 -3.05172 0
M  V30 2797 H 267.507 -3.15193 -2.01505 0
M  V30 2798 H 268.84 -4.13632 -2.66775 0
M  V30 2799 N 270.492 0.636531 -1.44174 0
M  V30 2800 C 271.738 1.39826 -1.4689 0
M  V30 2801 C 272.071 1.93947 -0.0990585 0
M  V30 2802 O 271.346 1.73325 0.882544 0
M  V30 2803 C 271.629 2.56751 -2.5249 0
M  V30 2804 C 271.482 2.08014 -3.98811 0
M  V30 2805 C 272.801 3.58946 -2.54649 0
M  V30 2806 H 269.92 0.507075 -0.53483 0
M  V30 2807 H 272.562 0.720188 -1.75822 0
M  V30 2808 H 270.712 3.14597 -2.2795 0
M  V30 2809 H 272.384 1.5504 -4.34466 0
M  V30 2810 H 270.627 1.39242 -4.10846 0
M  V30 2811 H 271.298 2.92169 -4.68339 0
M  V30 2812 H 273.774 3.1089 -2.76563 0
M  V30 2813 H 272.65 4.38286 -3.3045 0
M  V30 2814 H 272.911 4.12655 -1.58646 0
M  V30 2815 N 271.97 1.30982 0.876444 0
M  V30 2816 C 273.247 1.10942 1.61094 0
M  V30 2817 C 273.627 -0.338223 2.08373 0
M  V30 2818 O 272.975 -1.33122 1.85717 0
M  V30 2819 C 273.185 2.11789 2.77392 0
M  V30 2820 C 274.533 2.43965 3.47514 0
M  V30 2821 O 275.557 2.10166 2.87591 0
M  V30 2822 O 274.416 3.01817 4.55597 0
M  V30 2823 H 271.51 0.42667 0.708436 0
M  V30 2824 H 274.056 1.42438 0.922474 0
M  V30 2825 H 272.828 3.09194 2.39823 0
M  V30 2826 H 272.451 1.81161 3.5393 0
M  V30 2827 N 273.449 -1.08991 1.13837 0
M  V30 2828 C 274.359 -2.19301 0.833333 0
M  V30 2829 C 275.375 -1.73026 -0.183847 0
M  V30 2830 O 276.551 -2.01395 -0.0138092 0
M  V30 2831 C 273.616 -3.45323 0.308651 0
M  V30 2832 C 272.677 -4.06255 1.38764 0
M  V30 2833 C 271.91 -5.26262 0.887896 0
M  V30 2834 O 272.133 -5.69747 -0.27287 0
M  V30 2835 O 271.067 -5.78435 1.66421 0
M  V30 2836 H 274.893 -2.47854 1.75506 0
M  V30 2837 H 272.478 -1.18012 0.916166 0
M  V30 2838 H 274.36 -4.21394 0.0216739 0
M  V30 2839 H 273.035 -3.18362 -0.585431 0
M  V30 2840 H 271.942 -3.318 1.72799 0
M  V30 2841 H 273.275 -4.37452 2.25602 0
M  V30 2842 N 274.927 -0.932562 -1.27047 0
M  V30 2843 C 276.338 -0.619451 -1.76124 0
M  V30 2844 C 276.689 0.865397 -1.76083 0
M  V30 2845 O 275.814 1.67722 -1.36742 0
M  V30 2846 C 276.409 -1.11771 -3.19832 0
M  V30 2847 C 274.968 -0.855174 -3.66557 0
M  V30 2848 C 274.115 -1.27362 -2.46321 0
M  V30 2849 H 277.066 -1.11181 -1.13245 0
M  V30 2850 H 277.087 -0.46759 -3.77616 0
M  V30 2851 H 276.599 -2.19842 -3.1983 0
M  V30 2852 H 274.7 0.211524 -3.71999 0
M  V30 2853 H 274.813 -1.47613 -4.55793 0
M  V30 2854 H 273.177 -0.692119 -2.45116 0
M  V30 2855 H 273.96 -2.36307 -2.49025 0
M  V30 2856 N 276.405 1.4127 -0.698611 0
M  V30 2857 C 277.821 1.55241 -0.370462 0
M  V30 2858 C 278.021 1.67351 1.12231 0
M  V30 2859 O 277.077 1.65363 1.90818 0
M  V30 2860 C 278.39 2.78997 -1.12165 0
M  V30 2861 C 279.938 2.92797 -1.1063 0
M  V30 2862 C 280.413 4.19445 -1.8393 0
M  V30 2863 N 281.904 4.26409 -1.80914 0
M  V30 2864 C 282.639 5.23271 -2.34467 0
M  V30 2865 N 282.135 6.26145 -2.96504 0
M  V30 2866 N 283.928 5.15232 -2.24706 0
M  V30 2867 H 276.079 1.31654 -1.66676 0
M  V30 2868 H 278.342 0.635393 -0.703548 0
M  V30 2869 H 278.048 2.76268 -2.17644 0
M  V30 2870 H 277.922 3.70606 -0.702209 0
M  V30 2871 H 280.309 2.95039 -0.0597713 0
M  V30 2872 H 280.39 2.02353 -1.56483 0
M  V30 2873 H 280.034 4.17964 -2.88563 0
M  V30 2874 H 279.964 5.08866 -1.35509 0
M  V30 2875 H 282.455 3.527 -1.35687 0
M  V30 2876 H 282.768 6.96451 -3.34927 0
M  V30 2877 H 281.113 6.26638 -3.00583 0
M  V30 2878 H 284.304 4.33789 -1.7591 0
M  V30 2879 H 284.477 5.90552 -2.66745 0
M  V30 2880 N 277.883 0.443576 1.51229 0
M  V30 2881 C 279.294 -0.0180867 1.86691 0
M  V30 2882 C 279.645 -1.41384 1.36033 0
M  V30 2883 O 278.77 -2.04291 0.713722 0
M  V30 2884 C 279.365 -0.039597 3.38777 0
M  V30 2885 C 277.924 -0.445692 3.73752 0
M  V30 2886 C 277.071 0.357584 2.74985 0
M  V30 2887 H 280.022 0.659138 1.44364 0
M  V30 2888 H 280.043 -0.847761 3.70936 0
M  V30 2889 H 279.555 0.976382 3.75617 0
M  V30 2890 H 277.656 -1.46704 3.42503 0
M  V30 2891 H 277.769 -0.166155 4.78812 0
M  V30 2892 H 276.133 -0.184973 2.54027 0
M  V30 2893 H 276.916 1.37256 3.14668 0
M  V30 2894 N 279.361 -1.56624 0.175154 0
M  V30 2895 C 280.609 -1.96609 -0.467885 0
M  V30 2896 C 280.93 -1.06238 -1.63519 0
M  V30 2897 O 280.2 -0.129523 -1.95471 0
M  V30 2898 H 278.78 -0.726008 -0.175845 0
M  V30 2899 H 281.442 -1.93195 0.257234 0
M  V30 2900 H 280.538 -3.00989 -0.825342 0
M  V30 2901 N 280.839 0.0985539 -1.57292 0
M  V30 2902 C 281.769 1.12064 -2.04851 0
M  V30 2903 C 282.75 1.41981 -0.936767 0
M  V30 2904 O 283.935 1.52071 -1.20781 0
M  V30 2905 C 281.065 2.44144 -2.47004 0
M  V30 2906 C 280.019 2.28643 -3.6181 0
M  V30 2907 C 279.345 3.65869 -3.89929 0
M  V30 2908 C 280.645 1.72986 -4.92822 0
M  V30 2909 H 282.339 0.724979 -2.9049 0
M  V30 2910 H 279.885 0.34729 -1.39749 0
M  V30 2911 H 281.838 3.15914 -2.78884 0
M  V30 2912 H 280.562 2.85639 -1.5836 0
M  V30 2913 H 279.221 1.59318 -3.30172 0
M  V30 2914 H 278.869 4.04885 -2.98458 0
M  V30 2915 H 278.569 3.56344 -4.67218 0
M  V30 2916 H 280.093 4.39112 -4.2428 0
M  V30 2917 H 281.507 2.34593 -5.23105 0
M  V30 2918 H 279.904 1.74229 -5.74251 0
M  V30 2919 H 280.974 0.689007 -4.7998 0
M  V30 2920 N 282.317 1.53212 0.369288 0
M  V30 2921 C 283.733 1.42902 0.710712 0
M  V30 2922 C 283.933 0.565135 1.93413 0
M  V30 2923 O 282.989 0.0461484 2.52458 0
M  V30 2924 C 284.302 2.86042 0.927382 0
M  V30 2925 C 285.85 2.9565 1.02762 0
M  V30 2926 C 286.325 4.39843 1.27679 0
M  V30 2927 N 287.816 4.43256 1.34457 0
M  V30 2928 C 288.551 5.51929 1.55439 0
M  V30 2929 N 288.047 6.70655 1.73762 0
M  V30 2930 N 289.84 5.39502 1.57779 0
M  V30 2931 H 281.991 2.07888 -0.435457 0
M  V30 2932 H 284.254 0.938661 -0.132739 0
M  V30 2933 H 283.96 3.51557 0.100287 0
M  V30 2934 H 283.834 3.29472 1.83653 0
M  V30 2935 H 286.221 2.30291 1.84527 0
M  V30 2936 H 286.302 2.5562 0.0959504 0
M  V30 2937 H 285.946 5.05774 0.464175 0
M  V30 2938 H 285.876 4.77443 2.22162 0
M  V30 2939 H 288.367 3.5769 1.21926 0
M  V30 2940 H 288.68 7.49248 1.89335 0
M  V30 2941 H 287.025 6.73648 1.70948 0
M  V30 2942 H 290.216 4.45713 1.43029 0
M  V30 2943 H 290.389 6.2426 1.7379 0
M  V30 2944 N 283.795 -0.628877 1.44509 0
M  V30 2945 C 285.211 -0.947305 1.28446 0
M  V30 2946 C 285.411 -2.00275 0.221872 0
M  V30 2947 O 284.467 -2.49447 -0.391471 0
M  V30 2948 C 285.78 -1.40843 2.65676 0
M  V30 2949 C 287.328 -1.52379 2.73404 0
M  V30 2950 C 287.803 -2.01875 4.11109 0
M  V30 2951 N 289.294 -2.09142 4.13296 0
M  V30 2952 C 290.029 -2.48615 5.16699 0
M  V30 2953 N 289.525 -2.87209 6.30462 0
M  V30 2954 N 291.318 -2.48768 5.04054 0
M  V30 2955 H 283.469 0.0690977 2.12288 0
M  V30 2956 H 285.732 -0.0317164 0.947469 0
M  V30 2957 H 285.438 -0.707206 3.44516 0
M  V30 2958 H 285.312 -2.37902 2.92716 0
M  V30 2959 H 287.699 -2.21598 1.9488 0
M  V30 2960 H 287.78 -0.536898 2.50102 0
M  V30 2961 H 287.424 -1.3325 4.90109 0
M  V30 2962 H 287.354 -3.0144 4.31789 0
M  V30 2963 H 289.845 -1.81991 3.31191 0
M  V30 2964 H 290.158 -3.16149 7.05174 0
M  V30 2965 H 288.503 -2.84955 6.33897 0
M  V30 2966 H 291.694 -2.18009 4.14234 0
M  V30 2967 H 291.867 -2.79207 5.84763 0
M  V30 2968 N 285.273 -1.31445 -0.869486 0
M  V30 2969 C 286.521 -1.20918 -1.61936 0
M  V30 2970 C 286.842 0.232683 -1.93607 0
M  V30 2971 O 286.112 1.15352 -1.58338 0
M  V30 2972 H 284.692 -0.44454 -0.600328 0
M  V30 2973 H 287.354 -1.64776 -1.0409 0
M  V30 2974 H 286.45 -1.78124 -2.56278 0
M  V30 2975 N 286.751 1.08385 -1.14413 0
M  V30 2976 C 287.701 2.13509 -0.79987 0
M  V30 2977 C 288.685 1.5951 0.211059 0
M  V30 2978 O 289.877 1.76995 0.0133694 0
M  V30 2979 C 287.006 3.42162 -0.279297 0
M  V30 2980 C 286.092 4.03042 -1.31976 0
M  V30 2981 N 286.483 4.38327 -2.52395 0
M  V30 2982 C 284.781 4.30379 -1.17004 0
M  V30 2983 C 285.482 4.86428 -3.19003 0
M  V30 2984 N 284.458 4.84547 -2.46405 0
M  V30 2985 H 288.26 2.38609 -1.7159 0
M  V30 2986 H 285.774 1.2572 -1.02802 0
M  V30 2987 H 287.771 4.16898 -0.0143688 0
M  V30 2988 H 286.431 3.18511 0.630923 0
M  V30 2989 H 287.442 4.29349 -2.89621 0
M  V30 2990 H 284.119 4.16281 -0.318854 0
M  V30 2991 H 285.509 5.23107 -4.21674 0
M  V30 2992 N 288.23 0.939286 1.26551 0
M  V30 2993 C 289.479 0.581601 1.93133 0
M  V30 2994 C 289.792 -0.883224 1.74524 0
M  V30 2995 O 290.998 -1.3502 2.35546 0
M  V30 2996 C 289.454 0.989425 3.46032 0
M  V30 2997 C 289.062 2.47573 3.73379 0
M  V30 2998 C 290.806 0.703544 4.18629 0
M  V30 2999 C 288.713 2.82235 5.19709 0
M  V30 3000 H 287.643 0.213803 0.723052 0
M  V30 3001 H 290.294 1.14167 1.4366 0
M  V30 3002 H 288.676 0.357902 3.94379 0
M  V30 3003 H 289.85 3.15614 3.35744 0
M  V30 3004 H 288.165 2.73471 3.1401 0
M  V30 3005 H 290.762 0.938869 5.26393 0
M  V30 3006 H 291.105 -0.359639 4.14744 0
M  V30 3007 H 291.638 1.2947 3.76141 0
M  V30 3008 H 288.377 3.87509 5.28694 0
M  V30 3009 H 287.897 2.18854 5.58447 0
M  V30 3010 H 289.576 2.70599 5.87695 0
M  V30 3011 N 289.708 -1.40897 0.706093 0
M  V30 3012 C 291.119 -1.84023 0.315052 0
M  V30 3013 C 291.47 -1.5906 -1.14866 0
M  V30 3014 O 290.595 -1.06651 -1.88293 0
M  V30 3015 C 291.19 -3.34055 0.565038 0
M  V30 3016 C 289.749 -3.7571 0.227806 0
M  V30 3017 C 288.896 -2.64204 0.842122 0
M  V30 3018 H 291.847 -1.303 0.905963 0
M  V30 3019 H 291.868 -3.80107 -0.172843 0
M  V30 3020 H 291.38 -3.52192 1.63042 0
M  V30 3021 H 289.481 -3.63172 -0.832895 0
M  V30 3022 H 289.594 -4.74103 0.690174 0
M  V30 3023 H 287.958 -2.53255 0.270893 0
M  V30 3024 H 288.741 -2.85155 1.91158 0
M  V30 3025 N 291.186 -0.45159 -1.50991 0
M  V30 3026 C 292.434 0.109857 -2.01801 0
M  V30 3027 C 292.755 1.41958 -1.3369 0
M  V30 3028 O 292.025 1.9003 -0.475951 0
M  V30 3029 H 290.605 0.0435884 -0.745727 0
M  V30 3030 H 293.267 -0.597557 -1.85514 0
M  V30 3031 H 292.363 0.275489 -3.10882 0
M  V30 3032 N 292.664 1.56529 -0.183458 0
M  V30 3033 C 293.627 2.17324 0.728223 0
M  V30 3034 C 294.627 1.12453 1.14939 0
M  V30 3035 O 295.817 1.37902 1.06437 0
M  V30 3036 C 292.949 2.76591 1.99274 0
M  V30 3037 H 294.142 2.99241 0.198772 0
M  V30 3038 H 291.695 1.5616 0.0661391 0
M  V30 3039 H 292.43 1.98441 2.56499 0
M  V30 3040 H 292.215 3.5335 1.69959 0
M  V30 3041 H 293.705 3.23311 2.6431 0
M  V30 3042 N 294.142 -0.090211 1.57342 0
M  V30 3043 C 295.072 -1.10976 2.05443 0
M  V30 3044 C 296.053 -1.41482 0.944284 0
M  V30 3045 O 297.238 -1.51428 1.21586 0
M  V30 3046 C 294.368 -2.42831 2.48295 0
M  V30 3047 C 293.322 -2.26721 3.63018 0
M  V30 3048 C 292.648 -3.63796 3.91863 0
M  V30 3049 C 293.948 -1.7037 4.93732 0
M  V30 3050 H 295.642 -0.709564 2.9087 0
M  V30 3051 H 293.188 -0.339874 1.39932 0
M  V30 3052 H 295.141 -3.14431 2.80555 0
M  V30 3053 H 293.865 -2.84795 1.59873 0
M  V30 3054 H 292.524 -1.57565 3.31012 0
M  V30 3055 H 292.172 -4.03297 3.00601 0
M  V30 3056 H 291.872 -3.53861 4.69101 0
M  V30 3057 H 293.396 -4.36855 4.26603 0
M  V30 3058 H 294.81 -2.31816 5.24342 0
M  V30 3059 H 293.207 -1.71181 5.75167 0
M  V30 3060 H 294.277 -0.663542 4.80339 0
M  V30 3061 N 295.62 -1.53406 -0.361157 0
M  V30 3062 C 296.568 -1.80832 -1.46296 0
M  V30 3063 C 297.562 -0.677699 -1.55253 0
M  V30 3064 O 298.768 -0.860723 -1.58087 0
M  V30 3065 H 295.143 -0.572627 -0.487445 0
M  V30 3066 H 297.114 -2.73045 -1.20371 0
M  V30 3067 C 295.863 -2.01907 -2.8307 0
M  V30 3068 H 295.186 -2.88349 -2.76938 0
M  V30 3069 H 296.626 -2.25072 -3.59331 0
M  V30 3070 C 295.085 -0.799449 -3.27277 0
M  V30 3071 O 295.615 0.00971761 -4.01699 0
M  V30 3072 N 293.821 -0.621637 -2.83873 0
M  V30 3073 H 293.368 -1.28126 -2.23476 0
M  V30 3074 H 293.326 0.19298 -3.13807 0
M  V30 3075 N 297.098 0.621204 -1.44841 0
M  V30 3076 C 298.344 1.3826 -1.48365 0
M  V30 3077 C 298.677 1.93831 -0.119624 0
M  V30 3078 O 297.952 1.74251 0.864111 0
M  V30 3079 C 298.235 2.54058 -2.55199 0
M  V30 3080 C 298.088 2.03772 -4.00995 0
M  V30 3081 C 299.407 3.56225 -2.58442 0
M  V30 3082 H 296.526 0.501374 -0.540179 0
M  V30 3083 H 299.168 0.7015 -1.76576 0
M  V30 3084 H 297.318 3.12162 -2.31274 0
M  V30 3085 H 298.99 1.50423 -4.36086 0
M  V30 3086 H 297.233 1.34876 -4.12299 0
M  V30 3087 H 297.904 2.87185 -4.71411 0
M  V30 3088 H 300.38 3.07939 -2.79844 0
M  V30 3089 H 299.256 4.34756 -3.3508 0
M  V30 3090 H 299.517 4.10949 -1.63013 0
M  V30 3091 N 298.576 1.31904 0.862503 0
M  V30 3092 C 299.987 1.19803 1.43193 0
M  V30 3093 C 300.338 -0.192567 1.95253 0
M  V30 3094 O 299.463 -1.09081 1.86896 0
M  V30 3095 C 300.058 2.16883 2.60283 0
M  V30 3096 C 298.617 2.08692 3.13248 0
M  V30 3097 C 297.764 2.05691 1.85975 0
M  V30 3098 H 300.715 1.43846 0.670365 0
M  V30 3099 H 300.736 1.76278 3.37204 0
M  V30 3100 H 300.248 3.18083 2.22363 0
M  V30 3101 H 298.349 1.10713 3.55771 0
M  V30 3102 H 298.462 2.9815 3.75025 0
M  V30 3103 H 296.826 1.50814 2.05249 0
M  V30 3104 H 297.609 3.08659 1.50282 0
M  V30 3105 N 300.054 -1.07777 1.14986 0
M  V30 3106 C 301.3 -1.80719 0.93339 0
M  V30 3107 C 301.655 -1.8484 -0.534019 0
M  V30 3108 O 300.948 -1.31795 -1.3907 0
M  V30 3109 C 301.142 -3.25495 1.47608 0
M  V30 3110 C 300.971 -3.3548 2.99472 0
M  V30 3111 C 299.741 -3.46293 3.6798 0
M  V30 3112 C 301.939 -3.26596 3.97291 0
M  V30 3113 N 299.921 -3.45136 5.07695 0
M  V30 3114 C 301.292 -3.32506 5.23297 0
M  V30 3115 C 303.347 -3.10376 3.89321 0
M  V30 3116 C 302.05 -3.23866 6.42264 0
M  V30 3117 C 304.076 -3.03069 5.07842 0
M  V30 3118 C 303.438 -3.09587 6.32721 0
M  V30 3119 H 299.537 -0.674814 0.395158 0
M  V30 3120 H 302.121 -1.28681 1.46114 0
M  V30 3121 H 300.292 -3.75963 0.975022 0
M  V30 3122 H 302.024 -3.86535 1.19887 0
M  V30 3123 H 298.779 -3.50456 3.18555 0
M  V30 3124 H 299.203 -3.48097 5.80653 0
M  V30 3125 H 303.845 -3.04194 2.93642 0
M  V30 3126 H 301.563 -3.28807 7.38181 0
M  V30 3127 H 305.149 -2.91629 5.03432 0
M  V30 3128 H 304.029 -3.0397 7.22891 0
M  V30 3129 N 301.532 -0.945985 -1.26051 0
M  V30 3130 C 302.76 -0.613025 -1.9761 0
M  V30 3131 C 303.175 0.813035 -1.70397 0
M  V30 3132 O 302.532 1.54274 -0.974979 0
M  V30 3133 C 302.583 -0.85159 -3.51326 0
M  V30 3134 O 302.304 -2.22157 -3.77595 0
M  V30 3135 C 303.805 -0.529831 -4.40122 0
M  V30 3136 H 301.025 -0.230593 -0.630133 0
M  V30 3137 H 303.569 -1.268 -1.60443 0
M  V30 3138 H 301.724 -0.243151 -3.86636 0
M  V30 3139 H 302.138 -2.2852 -4.721 0
M  V30 3140 H 303.612 -0.747348 -5.46917 0
M  V30 3141 H 304.089 0.535341 -4.35925 0
M  V30 3142 H 304.695 -1.11721 -4.10364 0
M  V30 3143 N 303.011 1.40521 -0.713556 0
M  V30 3144 C 303.921 2.34522 -0.0606667 0
M  V30 3145 C 304.937 1.57193 0.74607 0
M  V30 3146 O 306.113 1.89591 0.679493 0
M  V30 3147 C 303.178 3.36081 0.851491 0
M  V30 3148 C 302.239 4.29286 0.0349339 0
M  V30 3149 C 301.472 5.25994 0.903649 0
M  V30 3150 O 301.695 5.28616 2.14292 0
M  V30 3151 O 300.629 6.00918 0.343723 0
M  V30 3152 H 304.455 2.91968 -0.835972 0
M  V30 3153 H 302.04 1.41681 -0.47402 0
M  V30 3154 H 303.922 3.98369 1.37404 0
M  V30 3155 H 302.597 2.81052 1.60598 0
M  V30 3156 H 301.504 3.70289 -0.532633 0
M  V30 3157 H 302.837 4.87462 -0.681287 0
M  V30 3158 N 304.489 0.459591 1.5075 0
M  V30 3159 C 305.419 -0.330644 2.31147 0
M  V30 3160 C 306.4 -1.00087 1.37538 0
M  V30 3161 O 307.585 -1.00025 1.66459 0
M  V30 3162 C 304.715 -1.41958 3.16962 0
M  V30 3163 C 303.669 -0.871608 4.19031 0
M  V30 3164 C 302.995 -2.05797 4.9351 0
M  V30 3165 C 304.295 0.109251 5.22186 0
M  V30 3166 H 305.989 0.340336 2.97459 0
M  V30 3167 H 303.535 0.165119 1.4305 0
M  V30 3168 H 305.488 -1.9798 3.71997 0
M  V30 3169 H 304.212 -2.11917 2.48513 0
M  V30 3170 H 302.871 -0.333442 3.6508 0
M  V30 3171 H 302.519 -2.74427 4.21544 0
M  V30 3172 H 302.219 -1.6976 5.62544 0
M  V30 3173 H 303.743 -2.62331 5.51375 0
M  V30 3174 H 305.157 -0.361405 5.7216 0
M  V30 3175 H 303.554 0.383316 5.98875 0
M  V30 3176 H 304.624 1.03887 4.73641 0
M  V30 3177 N 305.967 -1.56429 0.191757 0
M  V30 3178 C 307.213 -1.97777 -0.448554 0
M  V30 3179 C 307.546 -1.07847 -1.61501 0
M  V30 3180 O 306.821 -0.129774 -1.94067 0
M  V30 3181 C 307.104 -3.48362 -0.911906 0
M  V30 3182 C 306.957 -4.4907 0.256136 0
M  V30 3183 C 308.276 -4.02561 -1.77857 0
M  V30 3184 H 305.395 -0.719071 -0.161572 0
M  V30 3185 H 308.037 -1.87896 0.282007 0
M  V30 3186 H 306.187 -3.56914 -1.53442 0
M  V30 3187 H 307.859 -4.5256 0.893733 0
M  V30 3188 H 306.102 -4.24181 0.908436 0
M  V30 3189 H 306.773 -5.51889 -0.11053 0
M  V30 3190 H 309.249 -3.96767 -1.25359 0
M  V30 3191 H 308.125 -5.08301 -2.07174 0
M  V30 3192 H 308.386 -3.47616 -2.73158 0
M  V30 3193 N 307.445 0.0818655 -1.57387 0
M  V30 3194 C 308.861 0.436412 -1.53517 0
M  V30 3195 C 309.061 1.79758 -0.910459 0
M  V30 3196 O 308.117 2.47324 -0.508636 0
M  V30 3197 C 309.43 0.386734 -2.98203 0
M  V30 3198 C 310.978 0.467644 -3.09487 0
M  V30 3199 C 311.453 0.447978 -4.55804 0
M  V30 3200 N 312.944 0.508348 -4.60402 0
M  V30 3201 C 313.679 0.515184 -5.71081 0
M  V30 3202 N 313.175 0.477435 -6.91153 0
M  V30 3203 N 314.968 0.560988 -5.59294 0
M  V30 3204 H 307.119 -0.809546 -1.96367 0
M  V30 3205 H 309.382 -0.302733 -0.898363 0
M  V30 3206 H 309.088 -0.546539 -3.47427 0
M  V30 3207 H 308.962 1.20075 -3.57578 0
M  V30 3208 H 311.349 1.39134 -2.60242 0
M  V30 3209 H 311.43 -0.374753 -2.5304 0
M  V30 3210 H 311.074 -0.471826 -5.05704 0
M  V30 3211 H 311.004 1.30777 -5.10103 0
M  V30 3212 H 313.495 0.54218 -3.7399 0
M  V30 3213 H 313.808 0.486299 -7.71268 0
M  V30 3214 H 312.153 0.444278 -6.93579 0
M  V30 3215 H 315.344 0.5881 -4.64391 0
M  V30 3216 H 315.517 0.562846 -6.45551 0
M  V30 3217 N 308.923 1.53595 0.353017 0
M  V30 3218 C 309.833 1.83897 1.45667 0
M  V30 3219 C 310.849 0.728334 1.58023 0
M  V30 3220 O 312.025 1.01968 1.73679 0
M  V30 3221 C 309.09 2.03383 2.80778 0
M  V30 3222 C 308.151 3.27262 2.77845 0
M  V30 3223 C 307.384 3.45809 4.06512 0
M  V30 3224 O 307.607 2.68387 5.03314 0
M  V30 3225 O 306.541 4.39207 4.11559 0
M  V30 3226 H 310.367 2.77686 1.2298 0
M  V30 3227 H 307.952 1.39132 0.544308 0
M  V30 3228 H 309.834 2.17698 3.60812 0
M  V30 3229 H 308.509 1.12783 3.03417 0
M  V30 3230 H 307.416 3.18359 1.96465 0
M  V30 3231 H 308.749 4.17824 2.60161 0
M  V30 3232 N 310.401 -0.613514 1.45168 0
M  V30 3233 C 311.649 -1.36997 1.48581 0
M  V30 3234 C 311.97 -1.94589 0.126545 0
M  V30 3235 O 311.24 -1.76816 -0.843372 0
M  V30 3236 H 309.82 -0.508558 0.547154 0
M  V30 3237 H 312.482 -0.720853 1.81079 0
M  V30 3238 H 311.578 -2.1924 2.22127 0
M  V30 3239 N 311.879 -1.3236 -0.855495 0
M  V30 3240 C 312.789 -1.23221 -1.99634 0
M  V30 3241 C 313.805 -0.145983 -1.73387 0
M  V30 3242 O 314.981 -0.366502 -1.98037 0
M  V30 3243 C 312.046 -0.954782 -3.33294 0
M  V30 3244 C 311.107 -2.12937 -3.72769 0
M  V30 3245 C 310.34 -1.86508 -5.00051 0
M  V30 3246 O 310.563 -0.807231 -5.64659 0
M  V30 3247 O 309.497 -2.72591 -5.36636 0
M  V30 3248 H 313.323 -2.19126 -2.1028 0
M  V30 3249 H 310.908 -1.12241 -0.986018 0
M  V30 3250 H 312.79 -0.816519 -4.13414 0
M  V30 3251 H 311.465 -0.0258854 -3.2369 0
M  V30 3252 H 310.372 -2.3231 -2.93228 0
M  V30 3253 H 311.705 -3.04102 -3.87018 0
M  V30 3254 N 313.357 1.07166 -1.15556 0
M  V30 3255 C 314.287 2.16403 -0.877046 0
M  V30 3256 C 315.268 1.69217 0.173111 0
M  V30 3257 O 316.453 1.94181 0.027084 0
M  V30 3258 C 313.583 3.45349 -0.367632 0
M  V30 3259 C 312.537 4.05995 -1.35468 0
M  V30 3260 C 311.863 5.30045 -0.704038 0
M  V30 3261 C 313.163 4.45804 -2.72132 0
M  V30 3262 H 314.857 2.39959 -1.79053 0
M  V30 3263 H 312.403 1.15325 -0.862331 0
M  V30 3264 H 314.356 4.21095 -0.160317 0
M  V30 3265 H 313.08 3.21385 0.581326 0
M  V30 3266 H 311.739 3.32296 -1.54839 0
M  V30 3267 H 311.387 5.02373 0.251128 0
M  V30 3268 H 311.087 5.71579 -1.36277 0
M  V30 3269 H 312.611 6.08495 -0.50654 0
M  V30 3270 H 314.025 5.12671 -2.56595 0
M  V30 3271 H 312.422 4.98296 -3.34397 0
M  V30 3272 H 313.492 3.57083 -3.28054 0
M  V30 3273 N 314.835 0.952656 1.25548 0
M  V30 3274 C 315.782 0.47008 2.25962 0
M  V30 3275 C 316.752 -0.476384 1.59122 0
M  V30 3276 O 317.937 -0.39007 1.8677 0
M  V30 3277 C 315.077 -0.247881 3.44209 0
M  V30 3278 C 314.19 0.735591 4.25691 0
M  V30 3279 C 313.325 -0.0047306 5.312 0
M  V30 3280 C 312.364 0.969805 6.04368 0
M  V30 3281 N 311.501 0.260486 7.01617 0
M  V30 3282 H 316.341 1.33126 2.66611 0
M  V30 3283 H 313.878 0.66765 1.31076 0
M  V30 3284 H 315.836 -0.680695 4.1161 0
M  V30 3285 H 314.466 -1.07312 3.0444 0
M  V30 3286 H 313.518 1.28689 3.57971 0
M  V30 3287 H 314.83 1.47934 4.76358 0
M  V30 3288 H 313.984 -0.496275 6.04667 0
M  V30 3289 H 312.723 -0.781282 4.81401 0
M  V30 3290 H 311.728 1.47237 5.29718 0
M  V30 3291 H 312.953 1.74655 6.56256 0
M  V30 3292 H 310.899 -0.497364 6.54112 0
M  V30 3293 H 310.816 0.943362 7.50091 0
M  V30 3294 H 312.084 -0.209587 7.79218 0
M  V30 3295 N 316.313 -1.40141 0.720998 0
M  V30 3296 C 317.541 -2.05096 0.272656 0
M  V30 3297 C 317.956 -1.54334 -1.0875 0
M  V30 3298 O 317.313 -0.702211 -1.6845 0
M  V30 3299 C 317.364 -3.60636 0.249835 0
M  V30 3300 O 317.085 -4.09526 1.55629 0
M  V30 3301 C 318.586 -4.42772 -0.216396 0
M  V30 3302 H 315.806 -0.659897 0.121558 0
M  V30 3303 H 318.35 -1.79449 0.980723 0
M  V30 3304 H 316.505 -3.85232 -0.409237 0
M  V30 3305 H 316.919 -5.03758 1.4604 0
M  V30 3306 H 318.393 -5.51702 -0.181212 0
M  V30 3307 H 318.87 -4.20756 -1.25941 0
M  V30 3308 H 319.476 -4.23294 0.412596 0
M  V30 3309 N 317.792 -0.46758 -1.50504 0
M  V30 3310 C 319.02 0.0864133 -2.06719 0
M  V30 3311 C 319.435 1.33819 -1.33184 0
M  V30 3312 O 318.792 1.78061 -0.400083 0
M  V30 3313 C 318.843 0.378079 -3.59517 0
M  V30 3314 O 318.564 -0.824044 -4.3028 0
M  V30 3315 C 320.065 0.979426 -4.32345 0
M  V30 3316 H 317.285 -0.00551697 -0.670977 0
M  V30 3317 H 319.829 -0.655354 -1.93715 0
M  V30 3318 H 317.984 1.06977 -3.72337 0
M  V30 3319 H 318.398 -0.566518 -5.21432 0
M  V30 3320 H 319.872 1.1333 -5.40241 0
M  V30 3321 H 320.349 1.9686 -3.9261 0
M  V30 3322 H 320.955 0.326216 -4.24047 0
M  V30 3323 N 319.27 1.56325 -0.20005 0
M  V30 3324 C 320.547 1.89484 0.48529 0
M  V30 3325 C 320.927 1.1143 1.79294 0
M  V30 3326 O 320.275 0.216919 2.27468 0
M  V30 3327 C 320.485 3.41923 0.699243 0
M  V30 3328 C 321.833 4.12256 1.01638 0
M  V30 3329 O 322.857 3.47402 0.786792 0
M  V30 3330 O 321.716 5.26887 1.45095 0
M  V30 3331 H 318.81 0.787144 0.253639 0
M  V30 3332 H 321.356 1.67985 -0.240633 0
M  V30 3333 H 320.128 3.90658 -0.224008 0
M  V30 3334 H 319.751 3.69131 1.47744 0
M  V30 3335 N 320.748 -0.0735177 1.57428 0
M  V30 3336 C 321.658 -1.10547 2.06922 0
M  V30 3337 C 322.674 -1.42506 0.998402 0
M  V30 3338 O 323.85 -1.52717 1.31299 0
M  V30 3339 C 320.915 -2.40019 2.50184 0
M  V30 3340 C 319.976 -2.15046 3.71556 0
M  V30 3341 C 319.209 -3.38345 4.12745 0
M  V30 3342 O 319.432 -4.47399 3.53822 0
M  V30 3343 O 318.366 -3.2666 5.05546 0
M  V30 3344 H 322.192 -0.715013 2.95163 0
M  V30 3345 H 319.777 -0.287531 1.46607 0
M  V30 3346 H 321.659 -3.16218 2.78539 0
M  V30 3347 H 320.334 -2.78447 1.65072 0
M  V30 3348 H 319.241 -1.36558 3.48285 0
M  V30 3349 H 320.574 -1.81499 4.57514 0
M  V30 3350 N 322.226 -1.5378 -0.344866 0
M  V30 3351 C 323.156 -1.84662 -1.42906 0
M  V30 3352 C 324.137 -0.701648 -1.54955 0
M  V30 3353 O 325.322 -0.953438 -1.69184 0
M  V30 3354 C 322.452 -2.05503 -2.79974 0
M  V30 3355 C 321.406 -3.21318 -2.82734 0
M  V30 3356 C 320.732 -3.2749 -4.22675 0
M  V30 3357 C 322.032 -4.59456 -2.48389 0
M  V30 3358 H 323.726 -2.75461 -1.17311 0
M  V30 3359 H 321.272 -1.32542 -0.562896 0
M  V30 3360 H 323.225 -2.25691 -3.55867 0
M  V30 3361 H 321.949 -1.11434 -3.07002 0
M  V30 3362 H 320.608 -3.00984 -2.09294 0
M  V30 3363 H 320.256 -2.31019 -4.4681 0
M  V30 3364 H 319.956 -4.05316 -4.25433 0
M  V30 3365 H 321.48 -3.49887 -5.00412 0
M  V30 3366 H 322.894 -4.79667 -3.13995 0
M  V30 3367 H 321.291 -5.39675 -2.62432 0
M  V30 3368 H 322.361 -4.63155 -1.4358 0
M  V30 3369 N 323.704 0.605807 -1.45491 0
M  V30 3370 C 324.981 1.36522 -1.40075 0
M  V30 3371 C 325.361 2.10976 -0.0722744 0
M  V30 3372 O 324.709 2.08007 0.945808 0
M  V30 3373 C 324.919 2.31056 -2.61561 0
M  V30 3374 C 326.267 2.93608 -3.06724 0
M  V30 3375 O 327.291 2.41376 -2.61946 0
M  V30 3376 O 326.15 3.88421 -3.84437 0
M  V30 3377 H 323.244 0.612248 -0.555951 0
M  V30 3378 H 325.79 0.628747 -1.57623 0
M  V30 3379 H 324.562 1.75311 -3.49831 0
M  V30 3380 H 324.185 3.12081 -2.46356 0
M  V30 3381 N 325.182 1.32811 0.848464 0
M  V30 3382 C 326.145 1.22194 1.9391 0
M  V30 3383 C 327.145 0.143404 1.60159 0
M  V30 3384 O 328.335 0.394253 1.6968 0
M  V30 3385 C 325.467 0.88067 3.29328 0
M  V30 3386 H 326.66 2.19127 2.04752 0
M  V30 3387 H 324.213 1.16731 1.0394 0
M  V30 3388 H 324.948 -0.0865776 3.24184 0
M  V30 3389 H 324.733 1.66052 3.55203 0
M  V30 3390 H 326.223 0.830871 4.09251 0
M  V30 3391 N 326.66 -1.06551 1.16123 0
M  V30 3392 C 327.909 -1.78687 0.935622 0
M  V30 3393 C 328.222 -1.88056 -0.538001 0
M  V30 3394 O 329.428 -2.56794 -0.88143 0
M  V30 3395 C 327.884 -3.21143 1.62466 0
M  V30 3396 C 327.492 -3.19949 3.13587 0
M  V30 3397 C 329.236 -3.9783 1.48092 0
M  V30 3398 C 327.143 -4.57108 3.75241 0
M  V30 3399 H 326.073 -0.669712 0.346412 0
M  V30 3400 H 328.724 -1.19534 1.39226 0
M  V30 3401 H 327.106 -3.80539 1.09572 0
M  V30 3402 H 328.28 -2.70151 3.73303 0
M  V30 3403 H 326.595 -2.5676 3.27816 0
M  V30 3404 H 329.192 -4.99217 1.91538 0
M  V30 3405 H 329.535 -4.14078 0.429507 0
M  V30 3406 H 330.068 -3.4495 1.98127 0
M  V30 3407 H 326.807 -4.46065 4.80319 0
M  V30 3408 H 326.327 -5.07111 3.20309 0
M  V30 3409 H 328.006 -5.26069 3.76644 0
M  V30 3410 N 328.138 -0.959301 -1.25041 0
M  V30 3411 C 329.385 -0.616611 -1.92884 0
M  V30 3412 C 329.713 0.847036 -1.75087 0
M  V30 3413 O 328.968 1.62374 -1.09239 0
M  V30 3414 C 329.267 -0.927136 -3.45165 0
M  V30 3415 C 328.933 -2.37757 -3.83122 0
M  V30 3416 C 327.595 -2.77402 -3.93194 0
M  V30 3417 C 329.947 -3.31929 -4.01836 0
M  V30 3418 C 327.275 -4.10277 -4.19392 0
M  V30 3419 C 329.627 -4.64423 -4.29528 0
M  V30 3420 C 328.291 -5.03857 -4.37818 0
M  V30 3421 H 327.561 -0.225634 -0.705812 0
M  V30 3422 H 330.208 -1.20921 -1.48493 0
M  V30 3423 H 328.513 -0.252195 -3.90987 0
M  V30 3424 H 330.21 -0.6405 -3.95852 0
M  V30 3425 H 326.8 -2.06013 -3.75841 0
M  V30 3426 H 330.984 -3.02488 -3.93465 0
M  V30 3427 H 326.24 -4.40467 -4.24027 0
M  V30 3428 H 330.414 -5.37369 -4.42953 0
M  V30 3429 H 328.041 -6.06843 -4.57871 0
M  V30 3430 N 329.616 1.39756 -0.72842 0
M  V30 3431 C 330.863 2.00645 -0.273487 0
M  V30 3432 C 331.191 1.57786 1.13727 0
M  V30 3433 O 330.446 0.794886 1.7883 0
M  V30 3434 C 330.745 3.56002 -0.315776 0
M  V30 3435 C 330.411 4.18489 -1.67863 0
M  V30 3436 C 329.073 4.3527 -2.05166 0
M  V30 3437 C 331.425 4.53219 -2.57375 0
M  V30 3438 C 328.753 4.84069 -3.31503 0
M  V30 3439 C 331.105 5.03423 -3.83077 0
M  V30 3440 C 329.769 5.18413 -4.20481 0
M  V30 3441 H 329.039 0.734211 -0.100076 0
M  V30 3442 H 331.686 1.6718 -0.933972 0
M  V30 3443 H 329.991 3.89452 0.428285 0
M  V30 3444 H 331.688 4.00963 0.0542575 0
M  V30 3445 H 328.278 4.05824 -1.37858 0
M  V30 3446 H 332.462 4.39878 -2.29827 0
M  V30 3447 H 327.718 4.93859 -3.60435 0
M  V30 3448 H 331.892 5.2927 -4.52599 0
M  V30 3449 H 329.519 5.55987 -5.18443 0
M  V30 3450 N 331.094 0.475555 1.50254 0
M  V30 3451 C 332.342 -0.077738 2.0195 0
M  V30 3452 C 332.663 -1.39813 1.35931 0
M  V30 3453 O 331.933 -1.89249 0.506123 0
M  V30 3454 H 330.513 -0.031719 0.746326 0
M  V30 3455 H 333.175 0.626995 1.84539 0
M  V30 3456 H 332.271 -0.225995 3.11281 0
M  V30 3457 N 332.573 -1.56217 0.208337 0
M  V30 3458 C 333.989 -1.58919 -0.14729 0
M  V30 3459 C 334.189 -1.22486 -1.59998 0
M  V30 3460 O 333.245 -0.953849 -2.3379 0
M  V30 3461 C 334.558 -3.00236 0.167048 0
M  V30 3462 C 336.106 -3.12813 0.108219 0
M  V30 3463 C 336.581 -4.56284 0.396049 0
M  V30 3464 N 338.072 -4.61912 0.345142 0
M  V30 3465 C 338.807 -5.70837 0.541523 0
M  V30 3466 N 338.303 -6.88178 0.798968 0
M  V30 3467 N 340.096 -5.60091 0.474867 0
M  V30 3468 H 332.247 -1.78177 1.15614 0
M  V30 3469 H 334.51 -0.827555 0.462446 0
M  V30 3470 H 334.216 -3.31499 1.1748 0
M  V30 3471 H 334.09 -3.7354 -0.524184 0
M  V30 3472 H 336.477 -2.81354 -0.890157 0
M  V30 3473 H 336.558 -2.41866 0.832729 0
M  V30 3474 H 336.202 -4.88458 1.3918 0
M  V30 3475 H 336.132 -5.25439 -0.349502 0
M  V30 3476 H 338.623 -3.77589 0.153316 0
M  V30 3477 H 338.936 -7.67095 0.93727 0
M  V30 3478 H 337.281 -6.89953 0.836013 0
M  V30 3479 H 340.472 -4.67297 0.274064 0
M  V30 3480 H 340.645 -6.44917 0.631326 0
M  V30 3481 N 334.051 0.0651679 -1.57465 0
M  V30 3482 C 335.299 0.761555 -1.87202 0
M  V30 3483 C 335.62 1.77778 -0.801243 0
M  V30 3484 O 334.89 1.95166 0.16937 0
M  V30 3485 H 333.47 0.284251 -0.690804 0
M  V30 3486 H 336.132 0.0396827 -1.9486 0
M  V30 3487 H 335.228 1.27365 -2.84929 0
M  V30 3488 N 335.529 1.53961 0.336706 0
M  V30 3489 C 336.775 1.7179 1.07777 0
M  V30 3490 C 337.108 0.483263 1.88091 0
M  V30 3491 O 336.383 -0.519747 1.87427 0
M  V30 3492 C 336.666 2.98558 2.01334 0
M  V30 3493 C 336.519 4.32245 1.24437 0
M  V30 3494 C 337.838 3.21023 3.01052 0
M  V30 3495 H 334.957 0.625089 0.390426 0
M  V30 3496 H 337.599 1.86641 0.35567 0
M  V30 3497 H 335.749 2.86028 2.62908 0
M  V30 3498 H 337.421 4.56637 0.654243 0
M  V30 3499 H 335.664 4.30344 0.546458 0
M  V30 3500 H 336.335 5.17137 1.93063 0
M  V30 3501 H 338.811 3.32929 2.49595 0
M  V30 3502 H 337.687 4.11104 3.6371 0
M  V30 3503 H 337.948 2.37637 3.72802 0
M  V30 3504 N 337.007 -0.598083 1.45811 0
M  V30 3505 C 338.232 -1.3881 1.54099 0
M  V30 3506 C 338.657 -1.8726 0.177578 0
M  V30 3507 O 338.015 -1.6069 -0.839541 0
M  V30 3508 C 338.063 -2.56217 2.53743 0
M  V30 3509 O 337.167 -3.5716 2.06182 0
M  V30 3510 H 336.508 -0.414024 0.519115 0
M  V30 3511 H 339.038 -0.726971 1.91249 0
M  V30 3512 H 339.048 -3.03337 2.72856 0
M  V30 3513 H 337.723 -2.20303 3.5276 0
M  V30 3514 H 336.3 -3.16624 1.96987 0
M  V30 3515 N 338.485 -1.33259 -0.841409 0
M  V30 3516 C 339.715 -1.2742 -1.62628 0
M  V30 3517 C 340.123 0.157604 -1.88542 0
M  V30 3518 O 339.466 1.10938 -1.46419 0
M  V30 3519 C 339.528 -1.97797 -3.00194 0
M  V30 3520 C 339.192 -3.47109 -2.97261 0
M  V30 3521 C 340.189 -4.42358 -2.73159 0
M  V30 3522 C 337.874 -3.89247 -3.17478 0
M  V30 3523 C 339.868 -5.77718 -2.69296 0
M  V30 3524 C 337.555 -5.24713 -3.13241 0
M  V30 3525 C 338.553 -6.1876 -2.89181 0
M  V30 3526 O 338.241 -7.51745 -2.84843 0
M  V30 3527 H 337.973 -0.440436 -0.512827 0
M  V30 3528 H 340.527 -1.76153 -1.05638 0
M  V30 3529 H 338.757 -1.43652 -3.59028 0
M  V30 3530 H 340.446 -1.8549 -3.61038 0
M  V30 3531 H 341.212 -4.11127 -2.57294 0
M  V30 3532 H 337.091 -3.16456 -3.35226 0
M  V30 3533 H 340.635 -6.51097 -2.50436 0
M  V30 3534 H 336.532 -5.55569 -3.28654 0
M  V30 3535 H 337.3 -7.61262 -3.00702 0
M  V30 3536 N 339.963 1.05934 -1.16686 0
M  V30 3537 C 341.24 1.75643 -0.860747 0
M  V30 3538 C 341.62 2.01144 0.640641 0
M  V30 3539 O 340.968 1.64147 1.58959 0
M  V30 3540 C 341.178 3.05493 -1.68745 0
M  V30 3541 C 342.526 3.79581 -1.90271 0
M  V30 3542 O 343.55 3.15344 -1.65641 0
M  V30 3543 O 342.409 4.9499 -2.31618 0
M  V30 3544 H 339.503 0.763426 -0.317977 0
M  V30 3545 H 342.049 1.1217 -1.27342 0
M  V30 3546 H 340.821 2.8264 -2.70611 0
M  V30 3547 H 340.444 3.76702 -1.27206 0
M  V30 3548 N 341.441 0.965919 1.2453 0
M  V30 3549 C 342.388 0.49402 2.25451 0
M  V30 3550 C 343.358 -0.45948 1.59618 0
M  V30 3551 O 344.543 -0.370238 1.87173 0
M  V30 3552 C 341.683 -0.211359 3.44452 0
M  V30 3553 C 340.796 0.7807 4.24887 0
M  V30 3554 C 339.931 0.0516105 5.31175 0
M  V30 3555 C 338.97 1.03385 6.03306 0
M  V30 3556 N 338.107 0.334887 7.01301 0
M  V30 3557 H 342.947 1.35946 2.65184 0
M  V30 3558 H 340.484 0.681515 1.3036 0
M  V30 3559 H 342.442 -0.637 4.12308 0
M  V30 3560 H 341.072 -1.04077 3.05562 0
M  V30 3561 H 340.124 1.32479 3.56586 0
M  V30 3562 H 341.436 1.52978 4.74762 0
M  V30 3563 H 340.59 -0.432114 6.05159 0
M  V30 3564 H 339.329 -0.730179 4.82203 0
M  V30 3565 H 338.334 1.52847 5.28127 0
M  V30 3566 H 339.559 1.81606 6.54367 0
M  V30 3567 H 337.505 -0.427959 6.54603 0
M  V30 3568 H 337.422 1.02287 7.49048 0
M  V30 3569 H 338.69 -0.126928 7.79397 0
M  V30 3570 N 342.919 -1.39368 0.735821 0
M  V30 3571 C 344.33 -1.83313 0.354015 0
M  V30 3572 C 344.681 -1.61461 -1.11466 0
M  V30 3573 O 343.806 -1.10621 -1.85989 0
M  V30 3574 C 344.401 -3.32781 0.635769 0
M  V30 3575 C 342.96 -3.75142 0.307448 0
M  V30 3576 C 342.107 -2.62358 0.897974 0
M  V30 3577 H 345.058 -1.28349 0.933398 0
M  V30 3578 H 345.079 -3.80388 -0.0921773 0
M  V30 3579 H 344.591 -3.48654 1.70476 0
M  V30 3580 H 342.692 -3.64857 -0.755674 0
M  V30 3581 H 342.805 -4.72532 0.790583 0
M  V30 3582 H 341.169 -2.52624 0.324551 0
M  V30 3583 H 341.952 -2.81036 1.97164 0
M  V30 3584 N 344.397 -0.483516 -1.5 0
M  V30 3585 C 345.646 0.0689102 -2.01582 0
M  V30 3586 C 345.959 1.39655 -1.36952 0
M  V30 3587 O 347.165 2.03465 -1.79762 0
M  V30 3588 C 345.621 0.173302 -3.59483 0
M  V30 3589 C 345.229 -1.14665 -4.33077 0
M  V30 3590 C 346.973 0.677024 -4.19066 0
M  V30 3591 C 344.88 -1.00537 -5.82792 0
M  V30 3592 H 343.81 0.0295277 -0.753422 0
M  V30 3593 H 346.461 -0.620295 -1.72698 0
M  V30 3594 H 344.843 0.926569 -3.85007 0
M  V30 3595 H 346.017 -1.91184 -4.19268 0
M  V30 3596 H 344.332 -1.58244 -3.85159 0
M  V30 3597 H 346.929 0.799952 -5.28682 0
M  V30 3598 H 347.272 1.67151 -3.81269 0
M  V30 3599 H 347.805 -0.0192083 -3.97795 0
M  V30 3600 H 344.544 -1.9736 -6.25083 0
M  V30 3601 H 344.064 -0.280776 -5.99142 0
M  V30 3602 H 345.743 -0.677 -6.43448 0
M  V30 3603 N 345.875 1.56104 -0.216619 0
M  V30 3604 C 347.124 1.97348 0.416744 0
M  V30 3605 C 347.437 1.10715 1.6125 0
M  V30 3606 O 348.643 1.41836 2.31506 0
M  V30 3607 C 347.099 3.51059 0.792835 0
M  V30 3608 C 346.707 4.46387 -0.379828 0
M  V30 3609 C 348.451 4.01026 1.39208 0
M  V30 3610 C 346.358 5.91397 0.0184223 0
M  V30 3611 H 345.288 0.736942 0.159475 0
M  V30 3612 H 347.939 1.80827 -0.31205 0
M  V30 3613 H 346.321 3.63162 1.57891 0
M  V30 3614 H 347.495 4.46029 -1.15737 0
M  V30 3615 H 345.81 4.06734 -0.891979 0
M  V30 3616 H 348.407 5.0686 1.70286 0
M  V30 3617 H 348.75 3.46587 2.30614 0
M  V30 3618 H 349.283 3.92125 0.669537 0
M  V30 3619 H 346.022 6.49807 -0.862002 0
M  V30 3620 H 345.542 5.94961 0.760384 0
M  V30 3621 H 347.221 6.45455 0.446818 0
M  V30 3622 N 347.353 -0.0568162 1.57498 0
M  V30 3623 C 348.599 -0.75422 1.88253 0
M  V30 3624 C 348.932 -1.76461 0.810865 0
M  V30 3625 O 348.207 -1.93691 -0.177259 0
M  V30 3626 C 348.49 -1.44878 3.2967 0
M  V30 3627 C 348.343 -0.453789 4.47505 0
M  V30 3628 C 349.662 -2.38994 3.69554 0
M  V30 3629 H 346.781 -0.272724 0.684683 0
M  V30 3630 H 349.423 -0.0172113 1.89992 0
M  V30 3631 H 347.573 -2.077 3.28318 0
M  V30 3632 H 349.245 0.170371 4.60985 0
M  V30 3633 H 347.488 0.229552 4.33192 0
M  V30 3634 H 348.159 -0.977699 5.43273 0
M  V30 3635 H 350.635 -1.86239 3.72095 0
M  V30 3636 H 349.511 -2.84587 4.69363 0
M  V30 3637 H 349.772 -3.24461 3.00296 0
M  V30 3638 N 348.832 -1.54138 -0.328536 0
M  V30 3639 C 350.057 -1.76378 -1.09112 0
M  V30 3640 C 350.482 -0.508596 -1.81094 0
M  V30 3641 O 349.84 0.539598 -1.73084 0
M  V30 3642 C 349.888 -2.95358 -2.06872 0
M  V30 3643 O 348.992 -2.66556 -3.14677 0
M  V30 3644 H 348.333 -0.584614 -0.314838 0
M  V30 3645 H 350.863 -2.01146 -0.374348 0
M  V30 3646 H 350.873 -3.22566 -2.4983 0
M  V30 3647 H 349.548 -3.86385 -1.5388 0
M  V30 3648 H 348.125 -2.50282 -2.7643 0
M  V30 3649 N 350.31 0.590341 -1.46126 0
M  V30 3650 C 351.55 1.35995 -1.52593 0
M  V30 3651 C 351.914 1.91243 -0.170368 0
M  V30 3652 O 353.115 2.68576 -0.109775 0
M  V30 3653 C 351.386 2.46465 -2.58823 0
M  V30 3654 S 352.945 3.33953 -2.84641 0
M  V30 3655 H 349.763 0.463425 -0.53922 0
M  V30 3656 H 352.365 0.67944 -1.83314 0
M  V30 3657 H 351.069 2.04256 -3.5596 0
M  V30 3658 H 350.6 3.19297 -2.2981 0
M  V30 3659 H 352.615 4.45094 -2.19331 0
M  V30 3660 N 351.788 1.33704 0.83433 0
M  V30 3661 C 353.036 1.25169 1.58673 0
M  V30 3662 C 353.357 -0.18127 1.94156 0
M  V30 3663 O 352.627 -1.11113 1.6134 0
M  V30 3664 H 351.207 0.4603 0.58833 0
M  V30 3665 H 353.869 1.67478 0.996847 0
M  V30 3666 H 352.965 1.84856 2.51465 0
M  V30 3667 N 353.266 -1.05314 1.17247 0
M  V30 3668 C 354.491 -1.82509 0.985148 0
M  V30 3669 C 354.916 -1.82343 -0.461788 0
M  V30 3670 O 354.274 -1.23151 -1.33055 0
M  V30 3671 C 354.322 -3.26566 1.52929 0
M  V30 3672 O 353.426 -4.05666 0.742225 0
M  V30 3673 H 352.767 -0.564347 0.349869 0
M  V30 3674 H 355.297 -1.32718 1.55715 0
M  V30 3675 H 355.307 -3.77369 1.55103 0
M  V30 3676 H 353.982 -3.26001 2.58256 0
M  V30 3677 H 352.559 -3.64397 0.791794 0
M  V30 3678 N 354.744 -0.972509 -1.24016 0
M  V30 3679 C 355.992 -0.635776 -1.91839 0
M  V30 3680 C 356.313 0.832312 -1.76345 0
M  V30 3681 O 355.583 1.5946 -1.13795 0
M  V30 3682 H 354.163 -0.232157 -0.710009 0
M  V30 3683 H 356.825 -1.23462 -1.50809 0
M  V30 3684 H 355.921 -0.880545 -2.99421 0
M  V30 3685 N 356.222 1.38976 -0.743202 0
M  V30 3686 C 357.468 2.0064 -0.295189 0
M  V30 3687 C 357.801 1.5885 1.11716 0
M  V30 3688 O 357.076 0.821181 1.76315 0
M  V30 3689 C 357.359 3.578 -0.406318 0
M  V30 3690 C 357.212 4.09586 -1.85903 0
M  V30 3691 C 358.531 4.39616 0.206439 0
M  V30 3692 H 355.65 0.728935 -0.108733 0
M  V30 3693 H 358.292 1.65067 -0.940897 0
M  V30 3694 H 356.442 3.88235 0.143419 0
M  V30 3695 H 358.114 3.89837 -2.46627 0
M  V30 3696 H 356.357 3.6284 -2.3776 0
M  V30 3697 H 357.028 5.18708 -1.888 0
M  V30 3698 H 359.504 4.15273 -0.262283 0
M  V30 3699 H 358.38 5.48812 0.0983819 0
M  V30 3700 H 358.641 4.22754 1.2935 0
M  V30 3701 N 357.7 0.491464 1.49741 0
M  V30 3702 C 358.928 -0.0535151 2.06831 0
M  V30 3703 C 359.343 -1.31683 1.35296 0
M  V30 3704 O 358.7 -1.77402 0.42836 0
M  V30 3705 C 358.751 -0.320835 3.60073 0
M  V30 3706 O 358.472 0.892394 4.28915 0
M  V30 3707 C 359.973 -0.910519 4.33848 0
M  V30 3708 H 357.193 0.0161909 0.670805 0
M  V30 3709 H 359.737 0.68609 1.92647 0
M  V30 3710 H 357.892 -1.0104 3.73991 0
M  V30 3711 H 358.306 0.649401 5.20464 0
M  V30 3712 H 359.78 -1.04721 5.41976 0
M  V30 3713 H 360.257 -1.90589 3.95692 0
M  V30 3714 H 360.863 -0.258712 4.24512 0
M  V30 3715 N 359.178 -1.55987 0.224894 0
M  V30 3716 C 360.141 -2.19178 -0.670348 0
M  V30 3717 C 361.141 -1.15461 -1.11917 0
M  V30 3718 O 362.331 -1.40675 -1.02743 0
M  V30 3719 C 359.463 -2.81777 -1.9187 0
M  V30 3720 H 360.656 -2.99662 -0.119364 0
M  V30 3721 H 358.209 -1.5628 -0.0247128 0
M  V30 3722 H 358.944 -2.05172 -2.51147 0
M  V30 3723 H 358.729 -3.57732 -1.60531 0
M  V30 3724 H 360.219 -3.30205 -2.55645 0
M  V30 3725 N 360.656 0.0484629 -1.57525 0
M  V30 3726 C 361.619 1.03956 -2.04269 0
M  V30 3727 C 362.619 1.30211 -0.943496 0
M  V30 3728 O 363.809 1.25539 -1.20771 0
M  V30 3729 C 360.941 2.37742 -2.44319 0
M  V30 3730 H 362.134 0.636182 -2.93075 0
M  V30 3731 H 359.687 0.294811 -1.53494 0
M  V30 3732 H 360.422 2.82866 -1.5861 0
M  V30 3733 H 360.207 2.20021 -3.24551 0
M  V30 3734 H 361.697 3.08936 -2.80978 0
M  V30 3735 N 362.134 1.5431 0.320358 0
M  V30 3736 C 363.38 1.72924 1.05949 0
M  V30 3737 C 363.713 0.503185 1.87568 0
M  V30 3738 O 362.988 -0.499839 1.87968 0
M  V30 3739 C 363.271 3.00676 1.98156 0
M  V30 3740 C 363.124 4.3354 1.19845 0
M  V30 3741 C 364.443 3.24198 2.9763 0
M  V30 3742 H 361.562 0.629195 0.383774 0
M  V30 3743 H 364.204 1.87008 0.335854 0
M  V30 3744 H 362.354 2.888 2.59859 0
M  V30 3745 H 364.026 4.57305 0.605773 0
M  V30 3746 H 362.269 4.309 0.500784 0
M  V30 3747 H 362.94 5.19156 1.87567 0
M  V30 3748 H 365.416 3.35557 2.4605 0
M  V30 3749 H 364.292 4.14938 3.59329 0
M  V30 3750 H 364.553 2.41577 3.7026 0
M  V30 3751 N 363.613 -0.582584 1.46437 0
M  V30 3752 C 364.859 -1.34278 1.51978 0
M  V30 3753 C 365.192 -1.93446 0.170973 0
M  V30 3754 O 364.467 -1.76481 -0.817608 0
M  V30 3755 C 364.75 -2.47203 2.61845 0
M  V30 3756 C 364.603 -1.93069 4.06257 0
M  V30 3757 C 365.922 -3.49247 2.67795 0
M  V30 3758 H 363.041 -0.486876 0.553282 0
M  V30 3759 H 365.683 -0.654437 1.78374 0
M  V30 3760 H 363.833 -3.0592 2.39469 0
M  V30 3761 H 365.505 -1.38808 4.3992 0
M  V30 3762 H 363.748 -1.23898 4.1573 0
M  V30 3763 H 364.419 -2.74586 4.7886 0
M  V30 3764 H 366.895 -3.00411 2.8791 0
M  V30 3765 H 365.771 -4.25719 3.46489 0
M  V30 3766 H 366.032 -4.06482 1.73852 0
M  V30 3767 N 365.091 -1.34144 -0.827227 0
M  V30 3768 C 366.021 -1.28005 -1.95287 0
M  V30 3769 C 367.002 -0.158321 -1.69362 0
M  V30 3770 O 368.187 -0.349987 -1.9102 0
M  V30 3771 C 365.317 -1.03036 -3.31664 0
M  V30 3772 C 364.271 -2.11628 -3.72019 0
M  V30 3773 C 363.597 -1.71854 -5.0633 0
M  V30 3774 C 364.897 -3.53417 -3.8457 0
M  V30 3775 H 366.591 -2.22187 -2.00682 0
M  V30 3776 H 364.137 -1.0696 -0.964135 0
M  V30 3777 H 366.09 -0.973863 -4.09993 0
M  V30 3778 H 364.814 -0.0529391 -3.26557 0
M  V30 3779 H 363.473 -2.16339 -2.95961 0
M  V30 3780 H 363.121 -0.727841 -4.97706 0
M  V30 3781 H 362.821 -2.44531 -5.34302 0
M  V30 3782 H 364.345 -1.67692 -5.87122 0
M  V30 3783 H 365.759 -3.51142 -4.5318 0
M  V30 3784 H 364.156 -4.24679 -4.2399 0
M  V30 3785 H 365.226 -3.91072 -2.86689 0
M  V30 3786 N 366.569 1.04691 -1.17803 0
M  V30 3787 C 367.499 2.14494 -0.92275 0
M  V30 3788 C 368.48 1.69546 0.137179 0
M  V30 3789 O 369.665 1.94195 -0.0141108 0
M  V30 3790 C 366.795 3.44491 -0.440803 0
M  V30 3791 C 365.749 4.03031 -1.4405 0
M  V30 3792 C 365.075 5.28432 -0.81631 0
M  V30 3793 C 366.375 4.39932 -2.81527 0
M  V30 3794 H 368.069 2.36107 -1.84103 0
M  V30 3795 H 365.615 1.1347 -0.886599 0
M  V30 3796 H 367.568 4.2066 -0.249602 0
M  V30 3797 H 366.292 3.22546 0.513025 0
M  V30 3798 H 364.951 3.28937 -1.61853 0
M  V30 3799 H 364.599 5.02792 0.144511 0
M  V30 3800 H 364.299 5.68559 -1.48371 0
M  V30 3801 H 365.823 6.07284 -0.635496 0
M  V30 3802 H 367.237 5.07113 -2.67412 0
M  V30 3803 H 365.634 4.9109 -3.44892 0
M  V30 3804 H 366.704 3.50045 -3.35554 0
M  V30 3805 N 368.047 0.979072 1.23499 0
M  V30 3806 C 369.01 0.523244 2.23147 0
M  V30 3807 C 370.01 -0.386406 1.56088 0
M  V30 3808 O 371.2 -0.180283 1.73265 0
M  V30 3809 C 368.332 -0.240739 3.40049 0
M  V30 3810 H 369.525 1.40432 2.64989 0
M  V30 3811 H 367.078 0.764824 1.36309 0
M  V30 3812 H 367.813 -1.13841 3.03662 0
M  V30 3813 H 367.598 0.412207 3.89927 0
M  V30 3814 H 369.088 -0.548297 4.13985 0
M  V30 3815 N 369.525 -1.3858 0.750561 0
M  V30 3816 C 370.455 -2.33102 0.136237 0
M  V30 3817 C 371.436 -1.54713 -0.706965 0
M  V30 3818 O 372.621 -1.83043 -0.648769 0
M  V30 3819 C 369.751 -3.38882 -0.760017 0
M  V30 3820 C 368.705 -4.27995 -0.0197785 0
M  V30 3821 C 368.031 -5.24605 -1.03408 0
M  V30 3822 C 369.331 -5.09554 1.14684 0
M  V30 3823 H 371.025 -2.84726 0.925822 0
M  V30 3824 H 368.571 -1.36898 0.446654 0
M  V30 3825 H 370.524 -4.0397 -1.19943 0
M  V30 3826 H 369.248 -2.85734 -1.58189 0
M  V30 3827 H 367.907 -3.64409 0.400184 0
M  V30 3828 H 367.555 -4.67746 -1.84994 0
M  V30 3829 H 367.255 -5.85081 -0.543464 0
M  V30 3830 H 368.779 -5.9257 -1.47288 0
M  V30 3831 H 370.193 -5.67899 0.785118 0
M  V30 3832 H 368.59 -5.7925 1.56812 0
M  V30 3833 H 369.66 -4.4347 1.96118 0
M  V30 3834 N 371.003 -0.499398 -1.49478 0
M  V30 3835 C 371.966 0.268838 -2.27618 0
M  V30 3836 C 372.966 0.895383 -1.33565 0
M  V30 3837 O 374.156 0.760164 -1.56739 0
M  V30 3838 C 371.288 1.38559 -3.11471 0
M  V30 3839 H 372.481 -0.416812 -2.96989 0
M  V30 3840 H 370.034 -0.254313 -1.54217 0
M  V30 3841 H 370.769 2.10544 -2.46661 0
M  V30 3842 H 370.554 0.941797 -3.80621 0
M  V30 3843 H 372.044 1.92678 -3.70493 0
M  V30 3844 N 372.481 1.55866 -0.233164 0
M  V30 3845 C 373.709 2.02998 0.399905 0
M  V30 3846 C 374.124 1.11274 1.52524 0
M  V30 3847 O 373.481 0.124528 1.82075 0
M  V30 3848 C 373.532 3.4958 0.920639 0
M  V30 3849 O 373.253 4.37808 -0.159834 0
M  V30 3850 C 374.754 4.12411 1.62578 0
M  V30 3851 H 371.974 0.664006 0.0966281 0
M  V30 3852 H 374.518 2.0143 -0.353013 0
M  V30 3853 H 372.673 3.51727 1.62379 0
M  V30 3854 H 373.087 5.23981 0.23337 0
M  V30 3855 H 374.561 5.16711 1.94201 0
M  V30 3856 H 375.038 3.5809 2.54299 0
M  V30 3857 H 375.644 4.14148 0.967553 0
M  V30 3858 N 373.959 -0.0401083 1.57549 0
M  V30 3859 C 374.889 -1.04384 2.08869 0
M  V30 3860 C 375.87 -1.38407 0.988817 0
M  V30 3861 O 377.055 -1.47483 1.26342 0
M  V30 3862 C 374.185 -2.34808 2.55895 0
M  V30 3863 C 373.139 -2.15057 3.70047 0
M  V30 3864 C 372.465 -3.51145 4.03239 0
M  V30 3865 C 373.765 -1.54576 4.98902 0
M  V30 3866 H 375.459 -0.616666 2.92981 0
M  V30 3867 H 373.005 -0.295184 1.40942 0
M  V30 3868 H 374.958 -3.05346 2.90417 0
M  V30 3869 H 373.682 -2.79565 1.68853 0
M  V30 3870 H 372.341 -1.46954 3.35857 0
M  V30 3871 H 371.989 -3.93529 3.13279 0
M  V30 3872 H 371.689 -3.38758 4.80122 0
M  V30 3873 H 373.213 -4.23062 4.40285 0
M  V30 3874 H 374.627 -2.15017 5.31451 0
M  V30 3875 H 373.024 -1.52796 5.80322 0
M  V30 3876 H 374.094 -0.51039 4.82206 0
M  V30 3877 N 375.437 -1.54477 -0.31217 0
M  V30 3878 C 376.714 -1.63891 -1.06767 0
M  V30 3879 C 377.094 -0.480028 -2.0557 0
M  V30 3880 O 376.442 0.524487 -2.22399 0
M  V30 3881 C 376.652 -3.01402 -1.75948 0
M  V30 3882 C 378 -3.57838 -2.28554 0
M  V30 3883 O 379.024 -3.03782 -1.85998 0
M  V30 3884 O 377.883 -4.52462 -3.06497 0
M  V30 3885 H 374.977 -0.664125 -0.492816 0
M  V30 3886 H 377.523 -1.66823 -0.311149 0
M  V30 3887 H 376.295 -3.77187 -1.04144 0
M  V30 3888 H 375.918 -3.02199 -2.58383 0
M  V30 3889 N 376.915 0.57481 -1.46744 0
M  V30 3890 C 378.161 1.3347 -1.52688 0
M  V30 3891 C 378.494 1.93353 -0.181229 0
M  V30 3892 O 377.769 1.76912 0.808237 0
M  V30 3893 C 378.052 2.45811 -2.63152 0
M  V30 3894 C 377.905 1.90912 -4.07275 0
M  V30 3895 C 379.224 3.47822 -2.69644 0
M  V30 3896 H 376.343 0.483935 -0.555856 0
M  V30 3897 H 378.985 0.644968 -1.78718 0
M  V30 3898 H 377.135 3.04646 -2.41088 0
M  V30 3899 H 378.807 1.36473 -4.4065 0
M  V30 3900 H 377.05 1.21691 -4.16382 0
M  V30 3901 H 377.721 2.72042 -4.80309 0
M  V30 3902 H 380.197 2.9888 -2.895 0
M  V30 3903 H 379.073 4.23876 -3.48742 0
M  V30 3904 H 379.334 4.05555 -1.76005 0
M  V30 3905 N 378.394 1.34581 0.820102 0
M  V30 3906 C 379.805 1.24298 1.39309 0
M  V30 3907 C 380.156 -0.130351 1.95767 0
M  V30 3908 O 379.281 -1.0308 1.90272 0
M  V30 3909 C 379.876 2.25054 2.53251 0
M  V30 3910 C 378.435 2.18552 3.0645 0
M  V30 3911 C 377.582 2.11503 1.79337 0
M  V30 3912 H 380.533 1.45906 0.624262 0
M  V30 3913 H 380.554 1.86917 3.31425 0
M  V30 3914 H 380.066 3.24996 2.1213 0
M  V30 3915 H 378.167 1.21976 3.52069 0
M  V30 3916 H 378.28 3.0993 3.65349 0
M  V30 3917 H 376.644 1.57268 2.00347 0
M  V30 3918 H 377.427 3.13284 1.40386 0
M  V30 3919 N 379.872 -1.04064 1.18357 0
M  V30 3920 C 380.82 -2.14187 0.907007 0
M  V30 3921 C 381.814 -1.68879 -0.132725 0
M  V30 3922 O 383.02 -1.79993 0.0154248 0
M  V30 3923 H 379.395 -0.699585 0.275835 0
M  V30 3924 H 381.366 -2.34711 1.84264 0
M  V30 3925 C 380.115 -3.44785 0.449254 0
M  V30 3926 H 379.438 -3.80058 1.24081 0
M  V30 3927 H 380.878 -4.22974 0.294737 0
M  V30 3928 C 379.337 -3.26391 -0.834909 0
M  V30 3929 O 379.867 -3.53973 -1.89911 0
M  V30 3930 N 378.073 -2.79726 -0.787523 0
M  V30 3931 H 377.62 -2.5748 0.0787347 0
M  V30 3932 H 377.578 -2.67798 -1.64716 0
M  V30 3933 N 381.35 -0.985608 -1.22978 0
M  V30 3934 C 382.596 -0.65836 -1.91816 0
M  V30 3935 C 382.929 0.806692 -1.76653 0
M  V30 3936 O 382.204 1.58252 -1.13078 0
M  V30 3937 C 382.487 -1.056 -3.44268 0
M  V30 3938 C 382.34 -2.57906 -3.68516 0
M  V30 3939 C 383.659 -0.603781 -4.35939 0
M  V30 3940 H 380.778 -0.24065 -0.696604 0
M  V30 3941 H 383.42 -1.22783 -1.44998 0
M  V30 3942 H 381.57 -0.571445 -3.84274 0
M  V30 3943 H 383.242 -3.13976 -3.3796 0
M  V30 3944 H 381.485 -3.00305 -3.13048 0
M  V30 3945 H 382.156 -2.80779 -4.75255 0
M  V30 3946 H 384.632 -1.01987 -4.03408 0
M  V30 3947 H 383.508 -0.910383 -5.41298 0
M  V30 3948 H 383.769 0.495761 -4.39312 0
M  V30 3949 N 382.828 1.3818 -0.7579 0
M  V30 3950 C 383.775 2.30416 -0.133057 0
M  V30 3951 C 384.745 1.50398 0.704957 0
M  V30 3952 O 385.93 1.79014 0.660192 0
M  V30 3953 C 383.07 3.36834 0.750813 0
M  V30 3954 C 382.183 4.31879 -0.102297 0
M  V30 3955 C 381.318 5.25368 0.784979 0
M  V30 3956 C 380.357 6.12058 -0.0715046 0
M  V30 3957 N 379.494 6.97832 0.772972 0
M  V30 3958 H 384.334 2.83274 -0.925186 0
M  V30 3959 H 381.871 1.39461 -0.467866 0
M  V30 3960 H 383.829 3.97145 1.27794 0
M  V30 3961 H 382.459 2.85374 1.50868 0
M  V30 3962 H 381.511 3.72991 -0.747095 0
M  V30 3963 H 382.823 4.92921 -0.763552 0
M  V30 3964 H 381.977 5.90818 1.37911 0
M  V30 3965 H 380.716 4.64703 1.47996 0
M  V30 3966 H 379.721 5.456 -0.678272 0
M  V30 3967 H 380.946 6.74793 -0.763606 0
M  V30 3968 H 378.892 6.3971 1.45282 0
M  V30 3969 H 378.809 7.55812 0.168709 0
M  V30 3970 H 380.077 7.67687 1.35194 0
M  V30 3971 N 384.306 0.507319 1.49211 0
M  V30 3972 C 385.236 -0.256939 2.32082 0
M  V30 3973 C 386.217 -0.956609 1.40652 0
M  V30 3974 O 387.402 -0.946788 1.69557 0
M  V30 3975 C 384.532 -1.31802 3.21318 0
M  V30 3976 C 383.486 -0.737855 4.21592 0
M  V30 3977 C 382.812 -1.89992 4.99807 0
M  V30 3978 C 384.112 0.275325 5.21574 0
M  V30 3979 H 385.806 0.434798 2.96226 0
M  V30 3980 H 383.352 0.210546 1.42452 0
M  V30 3981 H 385.305 -1.86045 3.78107 0
M  V30 3982 H 384.029 -2.03903 2.5513 0
M  V30 3983 H 382.688 -0.217126 3.65956 0
M  V30 3984 H 382.336 -2.60877 4.30061 0
M  V30 3985 H 382.036 -1.51777 5.6766 0
M  V30 3986 H 383.56 -2.44657 5.59442 0
M  V30 3987 H 384.974 -0.179193 5.7302 0
M  V30 3988 H 383.371 0.573649 5.97352 0
M  V30 3989 H 384.441 1.18903 4.70096 0
M  V30 3990 N 385.784 -1.5574 0.241426 0
M  V30 3991 C 387.014 -2.02913 -0.38857 0
M  V30 3992 C 387.422 -1.12014 -1.52478 0
M  V30 3993 O 386.765 -0.125903 -1.83268 0
M  V30 3994 C 386.827 -3.4636 -0.963075 0
M  V30 3995 C 386.491 -4.56982 0.0401916 0
M  V30 3996 C 387.488 -5.12941 0.847766 0
M  V30 3997 C 385.173 -5.0203 0.164699 0
M  V30 3998 C 387.167 -6.12437 1.76636 0
M  V30 3999 C 384.854 -6.01358 1.0868 0
M  V30 4000 C 385.852 -6.5644 1.88616 0
M  V30 4001 O 385.54 -7.53831 2.79273 0
M  V30 4002 H 385.272 -0.668983 -0.0971452 0
M  V30 4003 H 387.826 -2.02198 0.361248 0
M  V30 4004 H 386.056 -3.44206 -1.76235 0
M  V30 4005 H 387.745 -3.77065 -1.50257 0
M  V30 4006 H 388.511 -4.78974 0.762133 0
M  V30 4007 H 384.39 -4.58824 -0.447411 0
M  V30 4008 H 387.934 -6.55355 2.39071 0
M  V30 4009 H 383.831 -6.34746 1.17338 0
M  V30 4010 H 384.599 -7.71428 2.73572 0
M  V30 4011 N 387.262 0.0317525 -1.57568 0
M  V30 4012 C 388.539 0.758366 -1.803 0
M  V30 4013 C 388.919 1.93718 -0.838845 0
M  V30 4014 O 388.267 2.28187 0.119571 0
M  V30 4015 C 388.477 1.19392 -3.27943 0
M  V30 4016 C 389.825 1.61094 -3.92854 0
M  V30 4017 O 390.849 1.28857 -3.32076 0
M  V30 4018 O 389.708 2.20918 -4.99858 0
M  V30 4019 H 386.802 0.366514 -0.741348 0
M  V30 4020 H 389.348 0.00873765 -1.69698 0
M  V30 4021 H 388.12 0.352275 -3.89711 0
M  V30 4022 H 387.743 2.00365 -3.43424 0
M  V30 4023 N 388.74 1.54641 0.303973 0
M  V30 4024 C 389.988 1.73437 1.0375 0
M  V30 4025 C 390.309 0.521449 1.87899 0
M  V30 4026 O 389.579 -0.46432 1.90318 0
M  V30 4027 H 388.159 0.639518 0.386039 0
M  V30 4028 H 390.821 1.91988 0.335675 0
M  V30 4029 H 389.917 2.62235 1.69231 0
M  V30 4030 N 390.218 -0.567019 1.47046 0
M  V30 4031 C 391.181 -1.65696 1.58359 0
M  V30 4032 C 392.181 -1.54097 0.459441 0
M  V30 4033 O 393.371 -1.58432 0.724225 0
M  V30 4034 C 390.503 -3.05197 1.51879 0
M  V30 4035 H 391.696 -1.57019 2.5551 0
M  V30 4036 H 389.249 -0.786148 1.3509 0
M  V30 4037 H 389.984 -3.19417 0.560673 0
M  V30 4038 H 389.769 -3.15025 2.33455 0
M  V30 4039 H 391.259 -3.84511 1.62913 0
M  V30 4040 N 391.696 -1.35014 -0.812953 0
M  V30 4041 C 392.942 -1.29129 -1.57154 0
M  V30 4042 C 393.297 0.134922 -1.91926 0
M  V30 4043 O 392.59 1.08373 -1.58006 0
M  V30 4044 C 392.784 -2.12524 -2.87347 0
M  V30 4045 C 392.613 -3.6311 -2.65294 0
M  V30 4046 C 391.383 -4.32363 -2.61516 0
M  V30 4047 C 393.581 -4.56897 -2.36114 0
M  V30 4048 N 391.563 -5.68735 -2.31113 0
M  V30 4049 C 392.934 -5.81345 -2.15494 0
M  V30 4050 C 394.989 -4.45706 -2.21925 0
M  V30 4051 C 393.692 -6.95862 -1.82122 0
M  V30 4052 C 395.718 -5.60066 -1.89948 0
M  V30 4053 C 395.08 -6.83539 -1.7016 0
M  V30 4054 H 391.179 -0.527764 -0.577052 0
M  V30 4055 H 393.763 -1.6983 -0.952146 0
M  V30 4056 H 391.934 -1.74104 -3.47192 0
M  V30 4057 H 393.666 -1.98207 -3.5284 0
M  V30 4058 H 390.421 -3.84907 -2.75941 0
M  V30 4059 H 390.845 -6.40694 -2.18724 0
M  V30 4060 H 395.487 -3.50855 -2.35925 0
M  V30 4061 H 393.205 -7.90685 -1.6686 0
M  V30 4062 H 396.791 -5.53357 -1.79687 0
M  V30 4063 H 395.671 -7.70531 -1.45777 0
M  V30 4064 N 393.175 1.03435 -1.18907 0
M  V30 4065 C 394.4 1.80919 -1.01406 0
M  V30 4066 C 394.825 1.83055 0.432721 0
M  V30 4067 O 394.183 1.25252 1.31079 0
M  V30 4068 C 394.231 3.24091 -1.58105 0
M  V30 4069 O 393.335 4.04434 -0.806669 0
M  V30 4070 H 392.676 0.558709 -0.358803 0
M  V30 4071 H 395.206 1.30223 -1.57807 0
M  V30 4072 H 395.216 3.74853 -1.61087 0
M  V30 4073 H 393.891 3.21851 -2.6341 0
M  V30 4074 H 392.468 3.63091 -0.849666 0
M  V30 4075 N 394.653 0.992116 1.22453 0
M  V30 4076 C 395.563 0.55065 2.28046 0
M  V30 4077 C 396.579 -0.400189 1.69335 0
M  V30 4078 O 397.755 -0.267215 1.99619 0
M  V30 4079 C 394.82 -0.128496 3.46462 0
M  V30 4080 C 393.881 0.865208 4.20491 0
M  V30 4081 C 393.114 0.218377 5.33253 0
M  V30 4082 O 393.337 -0.987894 5.6178 0
M  V30 4083 O 392.271 0.922845 5.94783 0
M  V30 4084 H 396.097 1.4291 2.67975 0
M  V30 4085 H 393.682 0.760326 1.28606 0
M  V30 4086 H 395.564 -0.508947 4.18315 0
M  V30 4087 H 394.239 -0.981526 3.0846 0
M  V30 4088 H 393.146 1.29658 3.50913 0
M  V30 4089 H 394.479 1.68741 4.62371 0
M  V30 4090 N 396.131 -1.37776 0.765217 0
M  V30 4091 C 397.377 -2.00604 0.336066 0
M  V30 4092 C 397.732 -1.59657 -1.07366 0
M  V30 4093 O 397.025 -0.829565 -1.7271 0
M  V30 4094 C 397.219 -3.5504 0.410053 0
M  V30 4095 C 397.048 -4.10985 1.82542 0
M  V30 4096 C 395.818 -4.42229 2.44461 0
M  V30 4097 C 398.016 -4.32438 2.78392 0
M  V30 4098 N 395.998 -4.8385 3.77839 0
M  V30 4099 C 397.369 -4.76596 3.96556 0
M  V30 4100 C 399.424 -4.14559 2.75764 0
M  V30 4101 C 398.127 -5.04748 5.12466 0
M  V30 4102 C 400.153 -4.43843 3.90842 0
M  V30 4103 C 399.515 -4.88235 5.07746 0
M  V30 4104 H 395.614 -0.763325 0.169881 0
M  V30 4105 H 398.198 -1.67197 0.997656 0
M  V30 4106 H 396.369 -3.87769 -0.221325 0
M  V30 4107 H 398.101 -4.0468 -0.0405285 0
M  V30 4108 H 394.856 -4.31079 1.96131 0
M  V30 4109 H 395.28 -5.08979 4.46396 0
M  V30 4110 H 399.922 -3.79415 1.86558 0
M  V30 4111 H 397.64 -5.38783 6.02277 0
M  V30 4112 H 401.226 -4.31603 3.90141 0
M  V30 4113 H 400.106 -5.10461 5.95315 0
M  V30 4114 N 397.609 -0.515225 -1.4894 0
M  V30 4115 C 398.857 0.0241671 -2.02086 0
M  V30 4116 C 399.178 1.3616 -1.3959 0
M  V30 4117 O 398.448 1.87841 -0.556121 0
M  V30 4118 H 397.028 0.0119203 -0.746905 0
M  V30 4119 H 399.69 -0.675702 -1.82812 0
M  V30 4120 H 398.786 0.143385 -3.1177 0
M  V30 4121 N 399.087 1.5561 -0.249682 0
M  V30 4122 C 400.05 2.20217 0.635394 0
M  V30 4123 C 401.05 1.17227 1.10066 0
M  V30 4124 O 402.24 1.42292 1.00492 0
M  V30 4125 C 399.372 2.84794 1.87363 0
M  V30 4126 H 400.565 2.99814 0.0716752 0
M  V30 4127 H 398.118 1.563 -0.000153234 0
M  V30 4128 H 398.853 2.09142 2.47851 0
M  V30 4129 H 398.638 3.60241 1.5482 0
M  V30 4130 H 400.128 3.3423 2.5036 0
M  V30 4131 N 400.565 -0.0233959 1.57583 0
M  V30 4132 C 401.981 -0.379134 1.55031 0
M  V30 4133 C 402.181 -1.76255 0.976548 0
M  V30 4134 O 401.237 -2.45266 0.600078 0
M  V30 4135 C 402.55 -0.275792 2.99433 0
M  V30 4136 C 404.098 -0.352458 3.11009 0
M  V30 4137 C 404.573 -0.278501 4.57152 0
M  V30 4138 N 406.064 -0.337123 4.61972 0
M  V30 4139 C 406.799 -0.302876 5.726 0
M  V30 4140 N 406.295 -0.220589 6.92449 0
M  V30 4141 N 408.088 -0.353023 5.6099 0
M  V30 4142 H 400.239 0.881869 1.93227 0
M  V30 4143 H 402.502 0.335867 0.886509 0
M  V30 4144 H 402.208 0.675108 3.4516 0
M  V30 4145 H 402.082 -1.06721 3.61788 0
M  V30 4146 H 404.469 -1.29379 2.65226 0
M  V30 4147 H 404.55 0.468409 2.51475 0
M  V30 4148 H 404.194 0.659189 5.03604 0
M  V30 4149 H 404.124 -1.11755 5.14605 0
M  V30 4150 H 406.615 -0.403002 3.75745 0
M  V30 4151 H 406.928 -0.199713 7.72542 0
M  V30 4152 H 405.273 -0.186555 6.9475 0
M  V30 4153 H 408.464 -0.415339 4.66254 0
M  V30 4154 H 408.637 -0.322866 6.47195 0
M  V30 4155 N 402.043 -1.548 -0.295768 0
M  V30 4156 C 403.006 -1.85363 -1.34808 0
M  V30 4157 C 404.006 -0.726817 -1.43436 0
M  V30 4158 O 405.196 -0.995088 -1.42981 0
M  V30 4159 C 402.328 -2.03859 -2.73229 0
M  V30 4160 H 403.521 -2.7941 -1.08949 0
M  V30 4161 H 401.074 -1.46942 -0.532702 0
M  V30 4162 H 401.809 -1.12117 -3.04303 0
M  V30 4163 H 401.594 -2.8588 -2.68356 0
M  V30 4164 H 403.084 -2.28857 -3.49305 0
M  V30 4165 N 403.521 0.559213 -1.47345 0
M  V30 4166 C 404.798 1.31997 -1.44348 0
M  V30 4167 C 405.178 2.1064 -0.139358 0
M  V30 4168 O 404.526 2.1091 0.879153 0
M  V30 4169 C 404.736 2.22618 -2.68779 0
M  V30 4170 C 406.084 2.83701 -3.1591 0
M  V30 4171 O 407.108 2.32921 -2.69493 0
M  V30 4172 O 405.967 3.75993 -3.966 0
M  V30 4173 H 403.061 0.594251 -0.575147 0
M  V30 4174 H 405.607 0.578282 -1.59543 0
M  V30 4175 H 404.379 1.64093 -3.55231 0
M  V30 4176 H 404.002 3.04085 -2.5616 0
M  V30 4177 N 404.999 1.35443 0.805782 0
M  V30 4178 C 405.929 1.31095 1.93226 0
M  V30 4179 C 406.91 0.185244 1.69088 0
M  V30 4180 O 408.095 0.380332 1.90439 0
M  V30 4181 C 405.225 1.08299 3.29983 0
M  V30 4182 C 404.179 2.17519 3.68605 0
M  V30 4183 C 403.505 1.79887 5.03532 0
M  V30 4184 C 404.805 3.5949 3.78898 0
M  V30 4185 H 406.499 2.25352 1.97122 0
M  V30 4186 H 404.045 1.0848 0.946996 0
M  V30 4187 H 405.998 1.03897 4.08391 0
M  V30 4188 H 404.722 0.104885 3.26432 0
M  V30 4189 H 403.381 2.2102 2.92482 0
M  V30 4190 H 403.029 0.80693 4.96485 0
M  V30 4191 H 402.729 2.53001 5.30344 0
M  V30 4192 H 404.253 1.77011 5.84379 0
M  V30 4193 H 405.667 3.58307 4.47536 0
M  V30 4194 H 404.064 4.31371 4.1718 0
M  V30 4195 H 405.134 3.95584 2.80431 0
M  V30 4196 N 406.477 -1.02803 1.19454 0
M  V30 4197 C 407.888 -1.57667 0.999899 0
M  V30 4198 C 408.239 -1.91041 -0.446956 0
M  V30 4199 O 407.364 -1.70978 -1.32648 0
M  V30 4200 C 407.959 -2.86477 1.80877 0
M  V30 4201 C 406.518 -3.37911 1.65811 0
M  V30 4202 C 405.665 -2.11343 1.79526 0
M  V30 4203 H 408.616 -0.853214 1.33813 0
M  V30 4204 H 408.637 -3.57408 1.30536 0
M  V30 4205 H 408.149 -2.62155 2.86175 0
M  V30 4206 H 406.25 -3.67218 0.63102 0
M  V30 4207 H 406.363 -4.10885 2.46395 0
M  V30 4208 H 404.727 -2.23254 1.22596 0
M  V30 4209 H 405.51 -1.89461 2.86285 0
M  V30 4210 N 407.956 -0.998596 -1.21925 0
M  V30 4211 C 409.202 -0.678667 -1.91107 0
M  V30 4212 C 409.535 0.78791 -1.77498 0
M  V30 4213 O 408.81 1.57043 -1.1475 0
M  V30 4214 C 409.093 -1.09245 -3.43129 0
M  V30 4215 C 408.946 -2.61801 -3.6576 0
M  V30 4216 C 410.265 -0.649984 -4.35274 0
M  V30 4217 H 407.384 -0.248025 -0.694012 0
M  V30 4218 H 410.026 -1.24314 -1.43688 0
M  V30 4219 H 408.176 -0.612171 -3.83647 0
M  V30 4220 H 409.848 -3.17543 -3.34611 0
M  V30 4221 H 408.091 -3.03609 -3.09845 0
M  V30 4222 H 408.762 -2.85804 -4.7225 0
M  V30 4223 H 411.238 -1.0626 -4.02303 0
M  V30 4224 H 410.114 -0.967743 -5.40302 0
M  V30 4225 H 410.375 0.449139 -4.39813 0
M  V30 4226 N 409.434 1.37368 -0.772513 0
M  V30 4227 C 410.344 2.34053 -0.160081 0
M  V30 4228 C 411.36 1.60216 0.678728 0
M  V30 4229 O 412.536 1.92303 0.59847 0
M  V30 4230 C 409.601 3.3939 0.708182 0
M  V30 4231 C 408.662 4.29048 -0.147172 0
M  V30 4232 C 407.895 5.29354 0.679744 0
M  V30 4233 O 408.118 5.3723 1.91678 0
M  V30 4234 O 407.052 6.01835 0.0885444 0
M  V30 4235 H 410.878 2.88159 -0.959053 0
M  V30 4236 H 408.463 1.39543 -0.533685 0
M  V30 4237 H 410.345 4.03839 1.20384 0
M  V30 4238 H 409.02 2.8761 1.48533 0
M  V30 4239 H 407.927 3.67697 -0.689205 0
M  V30 4240 H 409.26 4.84134 -0.887423 0
M  V30 4241 N 410.912 0.523116 1.48665 0
M  V30 4242 C 412.323 0.0808997 1.86525 0
M  V30 4243 C 412.674 -1.33975 1.43336 0
M  V30 4244 O 411.799 -2.00221 0.821009 0
M  V30 4245 C 412.394 0.140037 3.3851 0
M  V30 4246 C 410.953 -0.246948 3.75589 0
M  V30 4247 C 410.1 0.502845 2.72703 0
M  V30 4248 H 413.051 0.734736 1.40667 0
M  V30 4249 H 413.072 -0.649945 3.74908 0
M  V30 4250 H 412.584 1.17412 3.69914 0
M  V30 4251 H 410.685 -1.28343 3.49798 0
M  V30 4252 H 410.798 0.0878859 4.79019 0
M  V30 4253 H 409.162 -0.0500581 2.54651 0
M  V30 4254 H 409.945 1.53743 3.0695 0
M  V30 4255 N 412.39 -1.55475 0.257931 0
M  V30 4256 C 413.636 -1.99502 -0.364266 0
M  V30 4257 C 413.969 -1.146 -1.56782 0
M  V30 4258 O 413.244 -0.211968 -1.93342 0
M  V30 4259 C 413.527 -3.51917 -0.763333 0
M  V30 4260 C 413.38 -4.4758 0.446371 0
M  V30 4261 C 414.699 -4.09742 -1.60623 0
M  V30 4262 H 411.818 -0.725277 -0.130929 0
M  V30 4263 H 414.46 -1.8653 0.361446 0
M  V30 4264 H 412.61 -3.63101 -1.38166 0
M  V30 4265 H 414.282 -4.48362 1.08487 0
M  V30 4266 H 412.525 -4.19947 1.08753 0
M  V30 4267 H 413.196 -5.51862 0.123645 0
M  V30 4268 H 415.672 -4.01727 -1.08418 0
M  V30 4269 H 414.548 -5.16631 -1.85429 0
M  V30 4270 H 414.809 -3.58889 -2.58169 0
M  V30 4271 N 413.868 0.0150385 -1.57593 0
M  V30 4272 C 414.815 1.01126 -2.07466 0
M  V30 4273 C 415.785 1.35064 -0.966794 0
M  V30 4274 O 416.97 1.4516 -1.23827 0
M  V30 4275 C 414.11 2.30276 -2.57035 0
M  V30 4276 C 413.223 2.02373 -3.81666 0
M  V30 4277 C 412.358 3.25496 -4.19793 0
M  V30 4278 C 411.397 2.93211 -5.37303 0
M  V30 4279 N 410.534 4.08826 -5.70794 0
M  V30 4280 H 415.374 0.57901 -2.92321 0
M  V30 4281 H 412.911 0.27426 -1.44521 0
M  V30 4282 H 414.869 3.05757 -2.83846 0
M  V30 4283 H 413.499 2.71197 -1.75077 0
M  V30 4284 H 412.551 1.17327 -3.61854 0
M  V30 4285 H 413.863 1.74567 -4.67256 0
M  V30 4286 H 413.017 4.09333 -4.47807 0
M  V30 4287 H 411.756 3.56428 -3.32882 0
M  V30 4288 H 410.761 2.07777 -5.09027 0
M  V30 4289 H 411.986 2.63542 -6.25877 0
M  V30 4290 H 409.932 4.39682 -4.86842 0
M  V30 4291 H 409.849 3.84491 -6.50924 0
M  V30 4292 H 411.117 4.93496 -6.03392 0
M  V30 4293 O 415.385 1.60729 0.157609 0
M  V30 4294 H 416.076 1.76727 0.792919 0
M  V30 END ATOM
M  V30 BEGIN BOND
M  V30 END BOND
M  V30 END CTAB
M  END
$$$$
