drugbank_target|P49761 Dual specificity protein kinase CLK3 (DB07664; DB08691; DB12010)
 OpenBabel12092120453D

  0  0  0     0  0            999 V3000
M  V30 BEGIN CTAB
M  V30 COUNTS 10244 10381 0 0 0
M  V30 BEGIN ATOM
M  V30 1 H -0.908 1.98254 -0.117106 0
M  V30 2 N 0 1.576 0 0
M  V30 3 C 0.933 2.03868 1.02534 0
M  V30 4 C 1.911 0.928543 1.3348 0
M  V30 5 O 3.095 1.19667 1.45644 0
M  V30 6 C 0.222 2.43627 2.35294 0
M  V30 7 C -0.732 3.65373 2.2001 0
M  V30 8 S 0.101 5.13292 1.52614 0
M  V30 9 C 1.257 5.56322 2.86805 0
M  V30 10 H 1.49 2.90518 0.631377 0
M  V30 11 H -0.977 1.52953 0.210867 0
M  V30 12 H 0.981 2.67203 3.11629 0
M  V30 13 H -0.358 1.57376 2.7183 0
M  V30 14 H -1.165 3.90944 3.18086 0
M  V30 15 H -1.563 3.418 1.51819 0
M  V30 16 H 0.729 5.58782 3.83104 0
M  V30 17 H 1.672 6.56266 2.65933 0
M  V30 18 H 2.08 4.83886 2.90714 0
M  V30 19 N 1.4781 -0.272755 1.55222 0
M  V30 20 C 2.8891 -0.84378 1.66545 0
M  V30 21 C 3.2401 -1.87035 0.592641 0
M  V30 22 O 2.3651 -2.14761 -0.265818 0
M  V30 23 C 2.9601 -1.53723 3.01918 0
M  V30 24 C 1.5191 -2.05628 3.15268 0
M  V30 25 C 0.6661 -0.898424 2.62343 0
M  V30 26 H 3.6171 -0.0490998 1.58624 0
M  V30 27 H 3.6381 -2.40421 2.94921 0
M  V30 28 H 3.1501 -0.78983 3.79978 0
M  V30 29 H 1.2511 -2.83329 2.41983 0
M  V30 30 H 1.3641 -2.27142 4.21833 0
M  V30 31 H -0.2719 -1.29186 2.19506 0
M  V30 32 H 0.5111 -0.164528 3.42906 0
M  V30 33 N 2.9562 -1.48159 -0.537278 0
M  V30 34 C 4.2022 -1.56035 -1.29541 0
M  V30 35 C 4.5352 -0.230377 -1.92829 0
M  V30 36 O 3.8102 0.762952 -1.78911 0
M  V30 37 C 4.0932 -2.69323 -2.39034 0
M  V30 38 C 3.9462 -4.12002 -1.80485 0
M  V30 39 C 5.2652 -2.78408 -3.40847 0
M  V30 40 H 2.3842 -0.567992 -0.469632 0
M  V30 41 H 5.0262 -1.80302 -0.599277 0
M  V30 42 H 3.1762 -2.48763 -2.98412 0
M  V30 43 H 4.8482 -4.43981 -1.25215 0
M  V30 44 H 3.0912 -4.19344 -1.11055 0
M  V30 45 H 3.7622 -4.87077 -2.59731 0
M  V30 46 H 6.2382 -2.97012 -2.91416 0
M  V30 47 H 5.1142 -3.59416 -4.14863 0
M  V30 48 H 5.3752 -1.86269 -4.00944 0
M  V30 49 N 4.4343 0.785586 -1.36625 0
M  V30 50 C 5.3643 1.91259 -1.33949 0
M  V30 51 C 6.3453 1.68795 -0.210325 0
M  V30 52 O 7.5303 1.89854 -0.408561 0
M  V30 53 C 4.6603 3.28339 -1.13186 0
M  V30 54 C 3.6143 3.65335 -2.22967 0
M  V30 55 C 2.9403 5.00806 -1.87342 0
M  V30 56 C 4.2403 3.7352 -3.65075 0
M  V30 57 H 5.9343 1.93755 -2.28253 0
M  V30 58 H 3.4803 0.930788 -1.09874 0
M  V30 59 H 5.4333 4.06804 -1.09948 0
M  V30 60 H 4.1573 3.2624 -0.153332 0
M  V30 61 H 2.8163 2.89169 -2.25337 0
M  V30 62 H 2.4643 4.95233 -0.880545 0
M  V30 63 H 2.1643 5.26529 -2.60846 0
M  V30 64 H 3.6883 5.81687 -1.85667 0
M  V30 65 H 5.1023 4.42168 -3.64911 0
M  V30 66 H 3.4993 4.10731 -4.37516 0
M  V30 67 H 4.5693 2.74527 -3.99703 0
M  V30 68 N 5.9124 1.20967 1.01018 0
M  V30 69 C 7.1374 1.0503 1.78839 0
M  V30 70 C 7.5624 -0.395752 1.8389 0
M  V30 71 O 6.9204 -1.28529 1.27867 0
M  V30 72 C 6.9684 1.64602 3.2084 0
M  V30 73 O 6.0724 0.887988 4.02726 0
M  V30 74 H 5.4134 0.369987 0.551367 0
M  V30 75 H 7.9434 1.60399 1.27018 0
M  V30 76 H 7.9534 1.68607 3.71532 0
M  V30 77 H 6.6284 2.69841 3.16479 0
M  V30 78 H 5.2054 0.922648 3.61305 0
M  V30 79 N 7.3905 -1.2043 1.01659 0
M  V30 80 C 8.3535 -2.21433 0.591616 0
M  V30 81 C 9.3535 -1.57203 -0.338226 0
M  V30 82 O 10.5435 -1.73737 -0.126918 0
M  V30 83 C 7.6755 -3.40628 -0.136058 0
M  V30 84 H 8.8685 -2.60545 1.48514 0
M  V30 85 H 6.4215 -1.33893 0.806379 0
M  V30 86 H 7.1565 -3.07019 -1.04449 0
M  V30 87 H 6.9415 -3.88475 0.531917 0
M  V30 88 H 8.4315 -4.15475 -0.420735 0
M  V30 89 N 8.8686 -0.792821 -1.36206 0
M  V30 90 C 10.2846 -0.474903 -1.52371 0
M  V30 91 C 10.4846 1.00622 -1.74578 0
M  V30 92 O 9.5406 1.79162 -1.77924 0
M  V30 93 C 10.8536 -1.3083 -2.70747 0
M  V30 94 C 12.4016 -1.30234 -2.84619 0
M  V30 95 C 12.8766 -2.11956 -4.06004 0
M  V30 96 N 14.3676 -2.09419 -4.13156 0
M  V30 97 C 15.1026 -2.69419 -5.06163 0
M  V30 98 N 14.5986 -3.3829 -6.04592 0
M  V30 99 N 16.3916 -2.59134 -4.98804 0
M  V30 100 H 8.5426 -1.75222 -1.20046 0
M  V30 101 H 10.8056 -0.745024 -0.586211 0
M  V30 102 H 10.5116 -2.35881 -2.6087 0
M  V30 103 H 10.3856 -0.95196 -3.6499 0
M  V30 104 H 12.7726 -0.259748 -2.93955 0
M  V30 105 H 12.8536 -1.69847 -1.91274 0
M  V30 106 H 12.4976 -3.16248 -3.97429 0
M  V30 107 H 12.4276 -1.69711 -4.98503 0
M  V30 108 H 14.9186 -1.59297 -3.42685 0
M  V30 109 H 15.2316 -3.81394 -6.7213 0
M  V30 110 H 13.5766 -3.42393 -6.04807 0
M  V30 111 H 16.7676 -2.04927 -4.20859 0
M  V30 112 H 16.9406 -3.06185 -5.711 0
M  V30 113 N 10.3467 1.47872 -0.545128 0
M  V30 114 C 11.7627 1.5829 -0.204032 0
M  V30 115 C 11.9627 1.54529 1.29317 0
M  V30 116 O 11.0187 1.44232 2.07252 0
M  V30 117 C 12.3317 2.89304 -0.819987 0
M  V30 118 C 13.8797 3.02864 -0.790105 0
M  V30 119 C 14.3547 4.3656 -1.38491 0
M  V30 120 N 15.8457 4.43165 -1.34755 0
M  V30 121 C 16.5807 5.45153 -1.77753 0
M  V30 122 N 16.0767 6.54016 -2.2855 0
M  V30 123 N 17.8697 5.36125 -1.68897 0
M  V30 124 H 10.0207 1.4856 -1.51802 0
M  V30 125 H 12.2837 0.706305 -0.632327 0
M  V30 126 H 11.9897 2.97757 -1.87173 0
M  V30 127 H 11.8637 3.75957 -0.305915 0
M  V30 128 H 14.2507 2.94014 0.252913 0
M  V30 129 H 14.3317 2.17782 -1.34181 0
M  V30 130 H 13.9757 4.46164 -2.42693 0
M  V30 131 H 13.9057 5.20353 -0.808754 0
M  V30 132 H 16.3967 3.65083 -0.975855 0
M  V30 133 H 16.7097 7.27994 -2.59314 0
M  V30 134 H 15.0547 6.54938 -2.32553 0
M  V30 135 H 18.2457 4.49975 -1.28998 0
M  V30 136 H 18.4187 6.15472 -2.02726 0
M  V30 137 N 11.8248 0.280983 1.55075 0
M  V30 138 C 13.2408 -0.0729964 1.59433 0
M  V30 139 C 13.4408 -1.5411 1.29817 0
M  V30 140 O 12.4968 -2.29086 1.06187 0
M  V30 141 C 13.8098 0.306921 2.9913 0
M  V30 142 C 15.3578 0.254023 3.11968 0
M  V30 143 C 15.8328 0.608467 4.5394 0
M  V30 144 N 17.3238 0.560241 4.59799 0
M  V30 145 C 18.0588 0.80722 5.6769 0
M  V30 146 N 17.5548 1.11912 6.83701 0
M  V30 147 N 19.3478 0.735623 5.57266 0
M  V30 148 H 11.4988 1.238 1.7259 0
M  V30 149 H 13.7618 0.500547 0.805082 0
M  V30 150 H 13.4678 1.32816 3.25657 0
M  V30 151 H 13.3418 -0.349363 3.75579 0
M  V30 152 H 15.7288 -0.75794 2.852 0
M  V30 153 H 15.8098 0.944649 2.37718 0
M  V30 154 H 15.4538 1.61814 4.81434 0
M  V30 155 H 15.3838 -0.104013 5.26497 0
M  V30 156 H 17.8748 0.329288 3.76463 0
M  V30 157 H 18.1878 1.29409 7.61888 0
M  V30 158 H 16.5328 1.15695 6.85303 0
M  V30 159 H 19.7238 0.491752 4.6551 0
M  V30 160 H 19.8968 0.931482 6.4127 0
M  V30 161 N 13.3029 -1.57598 0.00835791 0
M  V30 162 C 14.2129 -2.12385 -0.996487 0
M  V30 163 C 15.2289 -1.07108 -1.37127 0
M  V30 164 O 16.4049 -1.39055 -1.4569 0
M  V30 165 C 13.4699 -2.62314 -2.26699 0
M  V30 166 C 12.5309 -3.82225 -1.95456 0
M  V30 167 C 11.7639 -4.29763 -3.16449 0
M  V30 168 O 11.9869 -3.76584 -4.28416 0
M  V30 169 O 10.9209 -5.21832 -2.99958 0
M  V30 170 H 14.7469 -2.98479 -0.560725 0
M  V30 171 H 12.3319 -1.47903 -0.210987 0
M  V30 172 H 14.2139 -2.94589 -3.01322 0
M  V30 173 H 12.8889 -1.79313 -2.69497 0
M  V30 174 H 11.7959 -3.54909 -1.18282 0
M  V30 175 H 13.1289 -4.66324 -1.57489 0
M  V30 176 N 14.781 0.264519 -1.55364 0
M  V30 177 C 15.711 1.33121 -1.91836 0
M  V30 178 C 16.692 1.51101 -0.781192 0
M  V30 179 O 17.877 1.64003 -1.04003 0
M  V30 180 C 15.007 2.68921 -2.19769 0
M  V30 181 C 13.961 2.65661 -3.35571 0
M  V30 182 C 13.287 4.05093 -3.49004 0
M  V30 183 C 14.587 2.24187 -4.71739 0
M  V30 184 H 16.281 1.02844 -2.81182 0
M  V30 185 H 13.827 0.493286 -1.35287 0
M  V30 186 H 15.78 3.43663 -2.43872 0
M  V30 187 H 14.504 3.00799 -1.27231 0
M  V30 188 H 13.163 1.93377 -3.1145 0
M  V30 189 H 12.811 4.34206 -2.53917 0
M  V30 190 H 12.511 4.03804 -4.26868 0
M  V30 191 H 14.035 4.81561 -3.75408 0
M  V30 192 H 15.449 2.88654 -4.9533 0
M  V30 193 H 13.846 2.34044 -5.52579 0
M  V30 194 H 14.916 1.19327 -4.69988 0
M  V30 195 N 16.2591 1.48442 0.529413 0
M  V30 196 C 17.2221 1.62524 1.61612 0
M  V30 197 C 18.2221 0.498509 1.52877 0
M  V30 198 O 19.4121 0.76431 1.56537 0
M  V30 199 C 16.5441 1.59597 3.01233 0
M  V30 200 H 17.7371 2.59423 1.50465 0
M  V30 201 H 15.2901 1.37047 0.751514 0
M  V30 202 H 16.0251 0.641781 3.17886 0
M  V30 203 H 15.8101 2.41397 3.08982 0
M  V30 204 H 17.3001 1.72646 3.80241 0
M  V30 205 N 17.7372 -0.778329 1.37039 0
M  V30 206 C 19.0142 -1.52551 1.22424 0
M  V30 207 C 19.3942 -2.10288 -0.184964 0
M  V30 208 O 18.7422 -1.94953 -1.19187 0
M  V30 209 C 18.9522 -2.61164 2.31504 0
M  V30 210 C 20.3002 -3.28746 2.68721 0
M  V30 211 O 21.3242 -2.71455 2.30631 0
M  V30 212 O 20.1832 -4.3231 3.3432 0
M  V30 213 H 17.2772 -0.675343 0.477326 0
M  V30 214 H 19.8232 -0.815859 1.48801 0
M  V30 215 H 18.5952 -2.16574 3.25901 0
M  V30 216 H 18.2182 -3.39737 2.06554 0
M  V30 217 N 19.2153 -1.21501 -1.00376 0
M  V30 218 C 20.1653 -0.942843 -2.07592 0
M  V30 219 C 21.1493 0.102384 -1.60574 0
M  V30 220 O 22.3413 -0.10671 -1.76678 0
M  V30 221 C 19.4703 -0.510729 -3.3948 0
M  V30 222 C 18.5563 -1.59009 -3.93163 0
M  V30 223 N 18.9473 -2.81544 -4.20198 0
M  V30 224 C 17.2453 -1.45925 -4.21452 0
M  V30 225 C 17.9463 -3.51261 -4.63671 0
M  V30 226 N 16.9223 -2.78703 -4.66718 0
M  V30 227 H 20.7243 -1.87378 -2.26421 0
M  V30 228 H 18.2383 -1.11093 -1.18458 0
M  V30 229 H 20.2353 -0.297101 -4.1584 0
M  V30 230 H 18.8953 0.413436 -3.22057 0
M  V30 231 H 19.9063 -3.18075 -4.08716 0
M  V30 232 H 16.5833 -0.600467 -4.13159 0
M  V30 233 H 17.9733 -4.56183 -4.93302 0
M  V30 234 N 20.6934 1.19889 -1.02296 0
M  V30 235 C 21.6564 2.21116 -0.603351 0
M  V30 236 C 22.6564 1.5738 0.329884 0
M  V30 237 O 23.8464 1.73802 0.117702 0
M  V30 238 C 20.9784 3.40696 0.117992 0
M  V30 239 H 22.1714 2.59754 -1.49893 0
M  V30 240 H 19.7244 1.33463 -0.813468 0
M  V30 241 H 20.4594 3.07569 1.0282 0
M  V30 242 H 20.2444 3.88188 -0.552511 0
M  V30 243 H 21.7344 4.15692 0.398696 0
M  V30 244 N 22.1715 0.800033 1.35784 0
M  V30 245 C 23.4195 0.376597 1.9856 0
M  V30 246 C 23.7405 -1.05812 1.63795 0
M  V30 247 O 23.0105 -1.73103 0.917171 0
M  V30 248 H 21.5905 0.136261 0.734467 0
M  V30 249 H 24.2525 1.02442 1.65806 0
M  V30 250 H 23.3485 0.477002 3.08433 0
M  V30 251 N 23.6496 -1.47581 0.552962 0
M  V30 252 C 24.8746 -2.07378 0.0300593 0
M  V30 253 C 25.2996 -1.40355 -1.25229 0
M  V30 254 O 24.6576 -0.477099 -1.7491 0
M  V30 255 C 24.7056 -3.60274 -0.153231 0
M  V30 256 O 23.8096 -3.94041 -1.21678 0
M  V30 257 H 23.1506 -0.662158 0.0494182 0
M  V30 258 H 25.6806 -1.89662 0.767434 0
M  V30 259 H 25.6906 -4.0633 -0.368761 0
M  V30 260 H 24.3656 -4.08455 0.783397 0
M  V30 261 H 22.9426 -3.59735 -0.982079 0
M  V30 262 N 25.1277 -0.289203 -1.54924 0
M  V30 263 C 26.3757 0.322879 -1.99504 0
M  V30 264 C 26.6967 1.55313 -1.1791 0
M  V30 265 O 25.9667 1.94001 -0.272097 0
M  V30 266 H 24.5467 0.122291 -0.736922 0
M  V30 267 H 27.2087 -0.397802 -1.90797 0
M  V30 268 H 26.3047 0.603061 -3.06218 0
M  V30 269 N 26.6058 1.57591 -0.0167156 0
M  V30 270 C 28.0218 1.55946 0.339557 0
M  V30 271 C 28.2218 1.02109 1.73713 0
M  V30 272 O 27.2778 0.662303 2.43659 0
M  V30 273 C 28.5908 3.00037 0.199499 0
M  V30 274 C 30.1388 3.11805 0.273193 0
M  V30 275 C 30.6138 4.57713 0.162068 0
M  V30 276 N 32.1048 4.6268 0.219444 0
M  V30 277 C 32.8398 5.73185 0.157054 0
M  V30 278 N 32.3358 6.92786 0.0442936 0
M  V30 279 N 34.1288 5.61707 0.21014 0
M  V30 280 H 26.2798 1.90921 -0.930758 0
M  V30 281 H 28.5428 0.877674 -0.358319 0
M  V30 282 H 28.2488 3.4333 -0.76273 0
M  V30 283 H 28.1228 3.64387 0.974786 0
M  V30 284 H 30.5098 2.68433 1.22587 0
M  V30 285 H 30.5908 2.50201 -0.532256 0
M  V30 286 H 30.2348 5.01763 -0.78714 0
M  V30 287 H 30.1648 5.17283 0.986222 0
M  V30 288 H 32.6558 3.76649 0.307246 0
M  V30 289 H 32.9688 7.728 0.00304069 0
M  V30 290 H 31.3138 6.94999 0.00968457 0
M  V30 291 H 34.5048 4.6716 0.296546 0
M  V30 292 H 34.6778 6.47807 0.158054 0
M  V30 293 N 28.0839 -0.256276 1.55502 0
M  V30 294 C 29.4999 -0.604325 1.47716 0
M  V30 295 C 29.6999 -1.88763 0.705039 0
M  V30 296 O 28.7559 -2.51445 0.230613 0
M  V30 297 C 30.0689 -0.715756 2.92057 0
M  V30 298 C 31.6169 -0.808706 3.02372 0
M  V30 299 C 32.0919 -0.951777 4.48001 0
M  V30 300 N 33.5829 -1.01688 4.519 0
M  V30 301 C 34.3179 -1.14668 5.61817 0
M  V30 302 N 33.8139 -1.24261 6.81565 0
M  V30 303 N 35.6069 -1.1791 5.49594 0
M  V30 304 H 27.7579 0.586291 2.04148 0
M  V30 305 H 30.0209 0.201015 0.926443 0
M  V30 306 H 29.7269 0.157027 3.51349 0
M  V30 307 H 29.6009 -1.59071 3.42018 0
M  V30 308 H 31.9879 -1.67195 2.43166 0
M  V30 309 H 32.0689 0.0912063 2.55637 0
M  V30 310 H 31.7129 -0.0931291 5.07815 0
M  V30 311 H 31.6429 -1.86659 4.92408 0
M  V30 312 H 34.1339 -0.954468 3.65648 0
M  V30 313 H 34.4469 -1.34046 7.61086 0
M  V30 314 H 32.7919 -1.21236 6.84344 0
M  V30 315 H 35.9829 -1.10057 4.54978 0
M  V30 316 H 36.1559 -1.27681 6.35296 0
M  V30 317 N 29.562 -1.4872 -0.521534 0
M  V30 318 C 30.787 -1.61101 -1.30618 0
M  V30 319 C 31.212 -0.274611 -1.86085 0
M  V30 320 O 30.57 0.754937 -1.64834 0
M  V30 321 C 30.618 -2.66709 -2.4269 0
M  V30 322 O 29.722 -2.24456 -3.45967 0
M  V30 323 H 29.063 -0.539921 -0.386499 0
M  V30 324 H 31.593 -1.94767 -0.626645 0
M  V30 325 H 31.603 -2.88245 -2.88754 0
M  V30 326 H 30.278 -3.63727 -2.01682 0
M  V30 327 H 28.855 -2.13168 -3.05964 0
M  V30 328 N 31.0401 0.771051 -1.3745 0
M  V30 329 C 32.2881 1.52661 -1.32435 0
M  V30 330 C 32.6091 1.9479 0.0905024 0
M  V30 331 O 31.8791 1.66348 1.03466 0
M  V30 332 H 30.4591 0.566218 -0.487244 0
M  V30 333 H 33.1211 0.917636 -1.71946 0
M  V30 334 H 32.2171 2.42568 -1.96385 0
M  V30 335 N 32.5182 1.22032 0.997298 0
M  V30 336 C 33.9292 1.0397 1.55071 0
M  V30 337 C 34.2802 -0.398192 1.92117 0
M  V30 338 O 33.4052 -1.28254 1.74298 0
M  V30 339 C 34.0002 1.88109 2.81781 0
M  V30 340 C 32.5592 1.74357 3.33581 0
M  V30 341 C 31.7062 1.84846 2.06706 0
M  V30 342 H 34.6572 1.35941 0.818883 0
M  V30 343 H 34.6782 1.39589 3.53971 0
M  V30 344 H 34.1902 2.92754 2.54787 0
M  V30 345 H 32.2912 0.72427 3.65493 0
M  V30 346 H 32.4042 2.56772 4.04481 0
M  V30 347 H 30.7682 1.28238 2.20062 0
M  V30 348 H 31.5512 2.91014 1.82114 0
M  V30 349 N 33.9963 -1.19345 1.0293 0
M  V30 350 C 35.2213 -1.93538 0.745511 0
M  V30 351 C 35.6463 -1.75007 -0.689511 0
M  V30 352 O 35.0043 -1.05265 -1.47611 0
M  V30 353 C 35.0523 -3.43336 1.10239 0
M  V30 354 O 34.1563 -4.11806 0.221289 0
M  V30 355 H 33.4973 -0.604193 0.275404 0
M  V30 356 H 36.0273 -1.5141 1.37609 0
M  V30 357 H 36.0373 -3.94004 1.05947 0
M  V30 358 H 34.7123 -3.56146 2.14786 0
M  V30 359 H 33.2893 -3.715 0.322842 0
M  V30 360 N 35.4744 -0.807222 -1.35358 0
M  V30 361 C 36.8854 -0.44876 -1.81226 0
M  V30 362 C 37.2364 1.02929 -1.67033 0
M  V30 363 O 36.3614 1.79991 -1.20133 0
M  V30 364 C 36.9564 -0.807774 -3.2903 0
M  V30 365 C 35.5154 -0.501901 -3.73039 0
M  V30 366 C 34.6624 -1.03304 -2.57339 0
M  V30 367 H 37.6134 -0.998808 -1.23327 0
M  V30 368 H 37.6344 -0.10554 -3.80354 0
M  V30 369 H 37.1464 -1.88357 -3.39328 0
M  V30 370 H 35.2474 0.565128 -3.68289 0
M  V30 371 H 35.3604 -1.03497 -4.67787 0
M  V30 372 H 33.7244 -0.455339 -2.50597 0
M  V30 373 H 34.5074 -2.11496 -2.70415 0
M  V30 374 N 36.9525 1.47285 -0.560781 0
M  V30 375 C 38.1805 2.06855 -0.0430262 0
M  V30 376 C 38.5955 1.41291 1.25229 0
M  V30 377 O 37.9525 0.510648 1.7521 0
M  V30 378 C 38.0035 3.61178 0.152518 0
M  V30 379 O 37.7245 4.24285 -1.0915 0
M  V30 380 C 39.2255 4.37624 0.707145 0
M  V30 381 H 36.4455 0.669319 -0.0474652 0
M  V30 382 H 38.9895 1.89237 -0.77521 0
M  V30 383 H 37.1445 3.78298 0.834843 0
M  V30 384 H 37.5585 5.16868 -0.891482 0
M  V30 385 H 39.0325 5.46271 0.793244 0
M  V30 386 H 39.5095 4.04152 1.71923 0
M  V30 387 H 40.1155 4.25257 0.0604027 0
M  V30 388 N 38.4306 0.297415 1.54768 0
M  V30 389 C 39.3936 -0.567375 2.22066 0
M  V30 390 C 40.3936 -1.06409 1.20556 0
M  V30 391 O 41.5836 -0.960691 1.45315 0
M  V30 392 C 38.7156 -1.78517 2.90421 0
M  V30 393 H 39.9086 0.0205534 2.99893 0
M  V30 394 H 37.4616 0.0482163 1.56226 0
M  V30 395 H 38.1966 -2.41303 2.16664 0
M  V30 396 H 37.9816 -1.43669 3.64831 0
M  V30 397 H 39.4716 -2.39964 3.41771 0
M  V30 398 N 39.9087 -1.5758 0.0250728 0
M  V30 399 C 41.3247 -1.56124 -0.331282 0
M  V30 400 C 41.5247 -1.03029 -1.73169 0
M  V30 401 O 40.5807 -0.675215 -2.43305 0
M  V30 402 C 41.8937 -3.00139 -0.183584 0
M  V30 403 C 43.4417 -3.11946 -0.256654 0
M  V30 404 C 43.9167 -4.57793 -0.137792 0
M  V30 405 N 45.4077 -4.6279 -0.194904 0
M  V30 406 C 46.1427 -5.7326 -0.126655 0
M  V30 407 N 45.6387 -6.928 -0.00755288 0
M  V30 408 N 47.4317 -5.61811 -0.180348 0
M  V30 409 H 39.5827 -1.90424 0.94087 0
M  V30 410 H 41.8457 -0.875761 0.362968 0
M  V30 411 H 41.5517 -3.4292 0.780927 0
M  V30 412 H 41.4257 -3.64899 -0.955448 0
M  V30 413 H 43.8127 -2.69079 -1.21162 0
M  V30 414 H 43.8937 -2.49915 0.545517 0
M  V30 415 H 43.5377 -5.01339 0.813739 0
M  V30 416 H 43.4677 -5.17798 -0.958775 0
M  V30 417 H 45.9587 -3.76807 -0.287267 0
M  V30 418 H 46.2717 -7.72791 0.0379428 0
M  V30 419 H 44.6167 -6.94995 0.0271731 0
M  V30 420 H 47.8077 -4.6731 -0.271767 0
M  V30 421 H 47.9807 -6.47882 -0.123697 0
M  V30 422 N 41.3868 0.248026 -1.55636 0
M  V30 423 C 42.6118 0.998028 -1.81808 0
M  V30 424 C 43.0368 1.78207 -0.601979 0
M  V30 425 O 42.3948 1.75653 0.448961 0
M  V30 426 C 42.4428 1.9125 -3.05705 0
M  V30 427 O 41.5468 3.00406 -2.82542 0
M  V30 428 H 40.8878 0.284045 -0.600179 0
M  V30 429 H 43.4178 0.269357 -2.02819 0
M  V30 430 H 43.4278 2.32737 -3.35108 0
M  V30 431 H 42.1028 1.33602 -3.93857 0
M  V30 432 H 40.6798 2.63056 -2.64303 0
M  V30 433 N 42.8649 1.48995 0.513639 0
M  V30 434 C 44.1129 1.57531 1.26604 0
M  V30 435 C 44.4339 0.258236 1.93283 0
M  V30 436 O 43.7039 -0.721502 1.8213 0
M  V30 437 H 42.2839 0.580387 0.470276 0
M  V30 438 H 44.9459 1.85552 0.596373 0
M  V30 439 H 44.0419 2.36486 2.03669 0
M  V30 440 N 44.343 -0.763751 1.37857 0
M  V30 441 C 45.754 -1.3405 1.29952 0
M  V30 442 C 46.105 -1.96138 -0.0492898 0
M  V30 443 O 45.23 -1.94372 -0.951239 0
M  V30 444 C 45.825 -2.43729 2.35333 0
M  V30 445 C 44.384 -2.97151 2.31037 0
M  V30 446 C 43.531 -1.70438 2.18738 0
M  V30 447 H 46.482 -0.563396 1.48363 0
M  V30 448 H 46.503 -3.23412 2.00462 0
M  V30 449 H 46.015 -1.9851 3.33489 0
M  V30 450 H 44.116 -3.46724 1.3643 0
M  V30 451 H 44.229 -3.52221 3.24772 0
M  V30 452 H 42.593 -1.93673 1.65418 0
M  V30 453 H 43.376 -1.27312 3.18821 0
M  V30 454 N 45.8211 -1.22559 -0.990812 0
M  V30 455 C 46.7711 -0.964807 -2.0658 0
M  V30 456 C 47.7551 0.0853472 -1.60673 0
M  V30 457 O 48.9471 -0.125443 -1.76555 0
M  V30 458 C 46.0761 -0.546707 -3.38919 0
M  V30 459 C 45.1621 -1.6317 -3.91454 0
M  V30 460 N 45.5531 -2.85985 -4.17189 0
M  V30 461 C 43.8511 -1.50387 -4.19881 0
M  V30 462 C 44.5521 -3.56159 -4.59919 0
M  V30 463 N 43.5281 -2.83637 -4.63736 0
M  V30 464 H 47.3301 -1.89769 -2.24421 0
M  V30 465 H 44.8441 -1.12343 -1.17273 0
M  V30 466 H 46.8411 -0.34119 -4.15502 0
M  V30 467 H 45.5011 0.379254 -3.22478 0
M  V30 468 H 46.5121 -3.22392 -4.05319 0
M  V30 469 H 43.1891 -0.644254 -4.12499 0
M  V30 470 H 44.5791 -4.6139 -4.88435 0
M  V30 471 N 47.2992 1.18797 -1.03562 0
M  V30 472 C 48.2292 2.24472 -0.643019 0
M  V30 473 C 49.2102 1.66433 0.351283 0
M  V30 474 O 50.3952 1.92803 0.232505 0
M  V30 475 C 47.5252 3.473 4.24935e-05 0
M  V30 476 C 46.4792 4.18055 -0.917257 0
M  V30 477 C 45.8052 5.34519 -0.138941 0
M  V30 478 C 47.1052 4.72109 -2.23407 0
M  V30 479 H 48.7992 2.57566 -1.52643 0
M  V30 480 H 46.3452 1.23806 -0.735394 0
M  V30 481 H 48.2982 4.20426 0.286383 0
M  V30 482 H 47.0222 3.13424 0.918299 0
M  V30 483 H 45.6812 3.46821 -1.1879 0
M  V30 484 H 45.3292 4.96891 0.781562 0
M  V30 485 H 45.0292 5.82794 -0.750005 0
M  V30 486 H 46.5532 6.10438 0.1405 0
M  V30 487 H 47.9672 5.36955 -2.00879 0
M  V30 488 H 46.3642 5.30897 -2.79765 0
M  V30 489 H 47.4342 3.89807 -2.88407 0
M  V30 490 N 48.7773 0.814389 1.34928 0
M  V30 491 C 50.0023 0.410097 2.03305 0
M  V30 492 C 50.4273 -0.973464 1.60951 0
M  V30 493 O 49.7853 -1.63185 0.789964 0
M  V30 494 C 49.8333 0.51049 3.56968 0
M  V30 495 O 48.9373 -0.473035 4.09678 0
M  V30 496 H 48.2783 0.170088 0.641846 0
M  V30 497 H 50.8083 1.10244 1.72358 0
M  V30 498 H 50.8183 0.383135 4.06197 0
M  V30 499 H 49.4933 1.51963 3.87144 0
M  V30 500 H 48.0703 -0.305272 3.71648 0
M  V30 501 N 50.2554 -1.46986 0.568584 0
M  V30 502 C 51.2184 -2.28624 -0.162366 0
M  V30 503 C 52.2184 -1.37596 -0.832103 0
M  V30 504 O 53.4084 -1.60115 -0.68622 0
M  V30 505 C 50.5404 -3.17596 -1.23878 0
M  V30 506 H 51.7334 -2.94722 0.554899 0
M  V30 507 H 49.2864 -1.52863 0.325976 0
M  V30 508 H 50.0214 -2.56214 -1.98808 0
M  V30 509 H 49.8064 -3.846 -0.763219 0
M  V30 510 H 51.2964 -3.79078 -1.75185 0
M  V30 511 N 51.7335 -0.305618 -1.54608 0
M  V30 512 C 52.6635 0.561482 -2.26649 0
M  V30 513 C 53.6445 1.13415 -1.26772 0
M  V30 514 O 54.8295 1.16262 -1.55553 0
M  V30 515 C 51.9595 1.73122 -3.01075 0
M  V30 516 C 50.9135 1.2887 -4.08138 0
M  V30 517 C 50.2395 2.54396 -4.70305 0
M  V30 518 C 51.5395 0.416578 -5.20636 0
M  V30 519 H 53.2335 -0.0393902 -2.99374 0
M  V30 520 H 50.7795 -0.020385 -1.43986 0
M  V30 521 H 52.7325 2.34396 -3.50195 0
M  V30 522 H 51.4565 2.3584 -2.25936 0
M  V30 523 H 50.1155 0.698991 -3.59875 0
M  V30 524 H 49.7635 3.15439 -3.918 0
M  V30 525 H 49.4635 2.25486 -5.42614 0
M  V30 526 H 50.9875 3.16464 -5.2219 0
M  V30 527 H 52.4015 0.935116 -5.65622 0
M  V30 528 H 50.7985 0.221046 -5.99693 0
M  V30 529 H 51.8685 -0.557162 -4.81688 0
M  V30 530 N 53.2116 1.57565 -0.0334293 0
M  V30 531 C 54.6276 1.56297 0.322997 0
M  V30 532 C 54.8276 1.03945 1.7262 0
M  V30 533 O 53.8836 0.688109 2.42943 0
M  V30 534 C 55.1966 3.00232 0.167664 0
M  V30 535 C 56.7446 3.12078 0.240107 0
M  V30 536 C 57.2196 4.57859 0.113513 0
M  V30 537 N 58.7106 4.62887 0.170359 0
M  V30 538 C 59.4456 5.73319 0.0962517 0
M  V30 539 N 58.9416 6.92794 -0.0291881 0
M  V30 540 N 60.7346 5.61898 0.150551 0
M  V30 541 H 52.8856 1.89923 -0.950956 0
M  V30 542 H 55.1486 0.873824 -0.367608 0
M  V30 543 H 54.8546 3.42501 -0.799102 0
M  V30 544 H 54.7286 3.654 0.936083 0
M  V30 545 H 57.1156 2.69718 1.19733 0
M  V30 546 H 57.1966 2.49623 -0.558763 0
M  V30 547 H 56.8406 5.009 -0.840314 0
M  V30 548 H 56.7706 5.18299 0.931302 0
M  V30 549 H 59.2616 3.76954 0.26728 0
M  V30 550 H 59.5746 7.7276 -0.0789252 0
M  V30 551 H 57.9196 6.94971 -0.0640299 0
M  V30 552 H 61.1106 4.67448 0.246981 0
M  V30 553 H 61.2836 6.47938 0.0893365 0
M  V30 554 N 54.6897 -0.239769 1.55765 0
M  V30 555 C 55.6527 -1.28038 1.90103 0
M  V30 556 C 56.6527 -1.40723 0.778055 0
M  V30 557 O 57.8427 -1.39301 1.04599 0
M  V30 558 C 54.9747 -2.65702 2.13577 0
M  V30 559 H 56.1677 -0.988048 2.83157 0
M  V30 560 H 53.7207 -0.479382 1.48767 0
M  V30 561 H 54.4557 -3.00063 1.23015 0
M  V30 562 H 54.2407 -2.57875 2.95369 0
M  V30 563 H 55.7307 -3.40828 2.41301 0
M  V30 564 N 56.1678 -1.49265 -0.50573 0
M  V30 565 C 57.0998 -1.617 -1.62437 0
M  V30 566 C 58.1128 -0.499924 -1.54934 0
M  V30 567 O 59.3018 -0.771785 -1.60953 0
M  V30 568 C 56.4018 -1.5533 -3.01207 0
M  V30 569 C 55.5748 -2.8249 -3.33943 0
M  V30 570 C 54.6338 -2.69238 -4.52103 0
M  V30 571 O 53.6598 -3.43167 -4.5412 0
M  V30 572 N 54.8618 -1.80468 -5.51735 0
M  V30 573 H 57.6268 -2.58177 -1.52199 0
M  V30 574 H 55.1878 -1.46294 -0.693511 0
M  V30 575 H 57.1798 -1.44125 -3.78167 0
M  V30 576 H 55.7498 -0.667297 -3.05395 0
M  V30 577 H 54.9698 -3.08081 -2.45926 0
M  V30 578 H 56.2578 -3.66802 -3.5261 0
M  V30 579 H 55.6558 -1.19653 -5.52901 0
M  V30 580 H 54.2128 -1.75188 -6.27816 0
M  V30 581 N 57.6459 0.756429 -1.3826 0
M  V30 582 C 59.0569 1.33359 -1.30661 0
M  V30 583 C 59.4079 1.96161 0.0388875 0
M  V30 584 O 58.5329 1.94874 0.940918 0
M  V30 585 C 59.1279 2.42477 -2.36622 0
M  V30 586 C 57.6869 2.95922 -2.3261 0
M  V30 587 C 56.8339 1.69275 -2.19639 0
M  V30 588 H 59.7849 0.55552 -1.4866 0
M  V30 589 H 59.8059 3.22345 -2.02174 0
M  V30 590 H 59.3179 1.96739 -3.34538 0
M  V30 591 H 57.4189 3.45996 -1.38267 0
M  V30 592 H 57.5319 3.50494 -3.26636 0
M  V30 593 H 55.8959 1.92793 -1.66442 0
M  V30 594 H 56.6789 1.25619 -3.19491 0
M  V30 595 N 59.124 1.23083 0.984299 0
M  V30 596 C 60.087 1.00979 2.05757 0
M  V30 597 C 61.087 -0.0269573 1.60777 0
M  V30 598 O 62.277 0.212403 1.729 0
M  V30 599 C 59.409 0.527072 3.36801 0
M  V30 600 H 60.602 1.9622 2.26799 0
M  V30 601 H 58.155 1.05072 1.15714 0
M  V30 602 H 58.89 -0.429294 3.21446 0
M  V30 603 H 58.675 1.27515 3.70786 0
M  V30 604 H 60.165 0.392942 4.15747 0
M  V30 605 N 60.6021 -1.18246 1.0419 0
M  V30 606 C 62.0181 -1.40269 0.761366 0
M  V30 607 C 62.2181 -1.90777 -0.648578 0
M  V30 608 O 61.2741 -2.0929 -1.41258 0
M  V30 609 C 62.5871 -2.40237 1.8085 0
M  V30 610 C 64.1351 -2.53961 1.82955 0
M  V30 611 C 64.6101 -3.57194 2.86664 0
M  V30 612 N 66.1011 -3.64702 2.85563 0
M  V30 613 C 66.8361 -4.44309 3.6246 0
M  V30 614 N 66.3321 -5.27514 4.49111 0
M  V30 615 N 68.1251 -4.39084 3.50944 0
M  V30 616 H 60.2761 -0.837882 1.95175 0
M  V30 617 H 62.5391 -0.430608 0.84456 0
M  V30 618 H 62.2451 -2.10176 2.81991 0
M  V30 619 H 62.1191 -3.39601 1.64168 0
M  V30 620 H 64.5061 -2.83338 0.824855 0
M  V30 621 H 64.5871 -1.54706 2.03715 0
M  V30 622 H 64.2311 -3.28558 3.87314 0
M  V30 623 H 64.1611 -4.5613 2.6316 0
M  V30 624 H 66.6521 -3.05289 2.22727 0
M  V30 625 H 66.9651 -5.85411 5.04493 0
M  V30 626 H 65.3101 -5.2693 4.53178 0
M  V30 627 H 68.5011 -3.7313 2.82651 0
M  V30 628 H 68.6741 -5.00883 4.11121 0
M  V30 629 N 62.0802 -0.821533 -1.34494 0
M  V30 630 C 63.0432 -0.247847 -2.27856 0
M  V30 631 C 64.0432 0.573453 -1.50227 0
M  V30 632 O 65.2332 0.389759 -1.69784 0
M  V30 633 C 62.3652 0.652698 -3.34593 0
M  V30 634 H 63.5582 -1.07146 -2.80107 0
M  V30 635 H 61.1112 -0.593291 -1.44602 0
M  V30 636 H 61.8462 1.49943 -2.87555 0
M  V30 637 H 61.6312 0.065292 -3.92046 0
M  V30 638 H 63.1212 1.04793 -4.04238 0
M  V30 639 N 63.5583 1.46682 -0.576371 0
M  V30 640 C 64.5213 2.28707 0.150239 0
M  V30 641 C 65.5213 1.38035 0.824794 0
M  V30 642 O 66.7113 1.60476 0.677719 0
M  V30 643 C 63.8433 3.18248 1.22192 0
M  V30 644 H 65.0363 2.94423 -0.570521 0
M  V30 645 H 62.5893 1.52688 -0.334078 0
M  V30 646 H 63.3243 2.57265 1.97447 0
M  V30 647 H 63.1093 3.85 0.742812 0
M  V30 648 H 64.5993 3.80001 1.73172 0
M  V30 649 N 65.0364 0.313813 1.54444 0
M  V30 650 C 65.9864 -0.571898 2.20711 0
M  V30 651 C 66.9704 -1.08913 1.18435 0
M  V30 652 O 68.1624 -1.02777 1.44104 0
M  V30 653 C 65.2914 -1.7371 2.96108 0
M  V30 654 C 64.3774 -1.23522 4.05713 0
M  V30 655 N 64.7684 -0.452288 5.03774 0
M  V30 656 C 63.0664 -1.51482 4.19487 0
M  V30 657 C 63.7674 -0.183438 5.81411 0
M  V30 658 N 62.7434 -0.766845 5.38164 0
M  V30 659 H 66.5454 0.0336802 2.93881 0
M  V30 660 H 64.0594 0.119192 1.61962 0
M  V30 661 H 66.0564 -2.38329 3.4206 0
M  V30 662 H 64.7164 -2.34625 2.24458 0
M  V30 663 H 65.7274 -0.0960131 5.17811 0
M  V30 664 H 62.4044 -2.13053 3.59047 0
M  V30 665 H 63.7944 0.446216 6.70417 0
M  V30 666 N 66.5145 -1.57545 0.0417849 0
M  V30 667 C 67.4445 -2.14009 -0.933929 0
M  V30 668 C 68.4255 -1.05938 -1.33083 0
M  V30 669 O 69.6105 -1.33833 -1.40721 0
M  V30 670 C 66.7405 -2.67747 -2.21199 0
M  V30 671 C 65.6945 -3.80718 -1.95544 0
M  V30 672 C 65.0205 -4.20935 -3.29724 0
M  V30 673 C 66.3205 -5.06258 -1.28452 0
M  V30 674 H 68.0145 -2.95788 -0.463645 0
M  V30 675 H 65.5605 -1.42285 -0.221573 0
M  V30 676 H 67.5135 -3.05886 -2.89848 0
M  V30 677 H 66.2375 -1.83147 -2.70416 0
M  V30 678 H 64.8965 -3.43037 -1.2931 0
M  V30 679 H 64.5445 -3.33298 -3.76724 0
M  V30 680 H 64.2445 -4.9707 -3.13361 0
M  V30 681 H 65.7685 -4.61666 -3.9962 0
M  V30 682 H 67.1825 -5.41903 -1.8712 0
M  V30 683 H 65.5795 -5.87475 -1.22445 0
M  V30 684 H 66.6495 -4.84207 -0.259219 0
M  V30 685 N 67.9926 0.231505 -1.5589 0
M  V30 686 C 69.2176 0.978689 -1.82856 0
M  V30 687 C 69.6426 1.77559 -0.620846 0
M  V30 688 O 69.0006 1.76119 0.430305 0
M  V30 689 C 69.0486 1.87997 -3.07716 0
M  V30 690 O 68.1526 2.97393 -2.85712 0
M  V30 691 H 67.4936 0.277663 -0.603158 0
M  V30 692 H 70.0236 0.24783 -2.03093 0
M  V30 693 H 70.0336 2.2917 -3.37558 0
M  V30 694 H 68.7086 1.29417 -3.95252 0
M  V30 695 H 67.2856 2.60238 -2.67078 0
M  V30 696 N 69.4707 1.49531 0.497807 0
M  V30 697 C 70.7187 1.58865 1.24926 0
M  V30 698 C 71.0397 0.278721 1.92998 0
M  V30 699 O 70.3097 -0.702144 1.82885 0
M  V30 700 H 68.8897 0.585343 0.464094 0
M  V30 701 H 71.5517 1.86174 0.57666 0
M  V30 702 H 70.6477 2.38633 2.01149 0
M  V30 703 N 70.9488 -0.749086 1.3866 0
M  V30 704 C 72.3648 -1.05276 1.19955 0
M  V30 705 C 72.5648 -2.01435 0.05134 0
M  V30 706 O 71.6208 -2.45232 -0.60147 0
M  V30 707 C 72.9338 -1.62853 2.52783 0
M  V30 708 C 74.4818 -1.75002 2.59506 0
M  V30 709 C 74.9568 -2.35991 3.92521 0
M  V30 710 N 76.4478 -2.43416 3.94085 0
M  V30 711 C 77.1828 -2.91511 4.9377 0
M  V30 712 N 76.6788 -3.39608 6.03853 0
M  V30 713 N 78.4718 -2.90592 4.81157 0
M  V30 714 H 70.6228 -0.111066 2.12109 0
M  V30 715 H 72.8858 -0.111901 0.941373 0
M  V30 716 H 72.5918 -0.99664 3.37283 0
M  V30 717 H 72.4658 -2.61854 2.715 0
M  V30 718 H 74.8528 -2.37317 1.75398 0
M  V30 719 H 74.9338 -0.74693 2.44652 0
M  V30 720 H 74.5778 -1.74308 4.77053 0
M  V30 721 H 74.5078 -3.3695 4.04688 0
M  V30 722 H 76.9988 -2.09405 3.14576 0
M  V30 723 H 77.3118 -3.74775 6.75843 0
M  V30 724 H 75.6568 -3.37653 6.07466 0
M  V30 725 H 78.8478 -2.52332 3.94267 0
M  V30 726 H 79.0208 -3.27762 5.58996 0
M  V30 727 N 72.4269 -1.23603 -0.977757 0
M  V30 728 C 73.6749 -1.06759 -1.71601 0
M  V30 729 C 73.9959 0.395929 -1.90938 0
M  V30 730 O 73.2659 1.28356 -1.47992 0
M  V30 731 H 71.8459 -0.392062 -0.635843 0
M  V30 732 H 74.5079 -1.55362 -1.1768 0
M  V30 733 H 73.6039 -1.55763 -2.70452 0
M  V30 734 N 73.905 1.17692 -1.04816 0
M  V30 735 C 75.133 1.91786 -0.776254 0
M  V30 736 C 75.548 1.76604 0.667577 0
M  V30 737 O 74.905 1.10067 1.45573 0
M  V30 738 C 74.956 3.42967 -1.14263 0
M  V30 739 O 74.677 3.57678 -2.52978 0
M  V30 740 C 76.178 4.34144 -0.896311 0
M  V30 741 H 73.398 0.608624 -0.282519 0
M  V30 742 H 75.942 1.49268 -1.39783 0
M  V30 743 H 74.097 3.83245 -0.565874 0
M  V30 744 H 74.511 4.51319 -2.67229 0
M  V30 745 H 75.985 5.38744 -1.20244 0
M  V30 746 H 76.462 4.38876 0.168636 0
M  V30 747 H 77.068 3.99574 -1.45672 0
M  V30 748 N 75.3831 0.828654 1.34056 0
M  V30 749 C 76.6131 0.431993 2.02033 0
M  V30 750 C 77.0211 -0.96844 1.62536 0
M  V30 751 O 76.3641 -1.6391 0.829408 0
M  V30 752 C 76.4261 0.461224 3.56529 0
M  V30 753 C 76.0901 1.81599 4.1937 0
M  V30 754 C 77.0871 2.7777 4.39477 0
M  V30 755 C 74.7721 2.10604 4.56017 0
M  V30 756 C 76.7661 4.01115 4.95364 0
M  V30 757 C 74.4531 3.34207 5.11614 0
M  V30 758 C 75.4511 4.2928 5.31232 0
M  V30 759 O 75.1391 5.50699 5.8565 0
M  V30 760 H 74.8711 0.170943 0.654029 0
M  V30 761 H 77.4251 1.11988 1.72185 0
M  V30 762 H 75.6551 -0.283388 3.8566 0
M  V30 763 H 77.3441 0.0838149 4.05813 0
M  V30 764 H 78.1101 2.56659 4.11523 0
M  V30 765 H 73.9891 1.37402 4.40047 0
M  V30 766 H 77.5331 4.75333 5.10592 0
M  V30 767 H 73.4301 3.55179 5.38997 0
M  V30 768 H 74.1981 5.52298 6.04077 0
M  V30 769 N 76.8612 -1.46375 0.584142 0
M  V30 770 C 78.1072 -2.02678 0.0703716 0
M  V30 771 C 78.4402 -1.4545 -1.28678 0
M  V30 772 O 77.7152 -0.62014 -1.84349 0
M  V30 773 C 77.9982 -3.60099 0.00614674 0
M  V30 774 C 77.8512 -4.27709 1.3923 0
M  V30 775 C 79.1702 -4.34598 -0.693742 0
M  V30 776 H 76.2892 -0.736504 0.027047 0
M  V30 777 H 78.9312 -1.74501 0.751615 0
M  V30 778 H 77.0812 -3.84236 -0.574009 0
M  V30 779 H 78.7532 -4.14832 2.01773 0
M  V30 780 H 76.9962 -3.87016 1.95962 0
M  V30 781 H 77.6672 -5.36478 1.29982 0
M  V30 782 H 80.1432 -4.15615 -0.200869 0
M  V30 783 H 79.0192 -5.44318 -0.707714 0
M  V30 784 H 79.2802 -4.05759 -1.75533 0
M  V30 785 N 78.3393 -0.321999 -1.54275 0
M  V30 786 C 79.7553 0.0306999 -1.5957 0
M  V30 787 C 79.9553 1.50614 -1.33857 0
M  V30 788 O 79.0113 2.2619 -1.12223 0
M  V30 789 C 80.3243 -0.386122 -2.98211 0
M  V30 790 C 81.8723 -0.336647 -3.11184 0
M  V30 791 C 82.3473 -0.728607 -4.52167 0
M  V30 792 N 83.8383 -0.681952 -4.58152 0
M  V30 793 C 84.5733 -0.957449 -5.6535 0
M  V30 794 N 84.0693 -1.3 -6.80494 0
M  V30 795 N 85.8623 -0.883113 -5.55119 0
M  V30 796 H 78.0133 -1.28332 -1.69247 0
M  V30 797 H 80.2763 -0.521716 -0.791528 0
M  V30 798 H 79.9823 -1.41404 -3.22022 0
M  V30 799 H 79.8563 0.249662 -3.76373 0
M  V30 800 H 82.2433 0.682058 -2.8711 0
M  V30 801 H 82.3243 -1.00734 -2.3513 0
M  V30 802 H 81.9683 -1.74522 -4.76974 0
M  V30 803 H 81.8983 -0.0356152 -5.26588 0
M  V30 804 H 84.3893 -0.428985 -3.75457 0
M  V30 805 H 84.7023 -1.49563 -7.58189 0
M  V30 806 H 83.0473 -1.33824 -6.81994 0
M  V30 807 H 86.2383 -0.615001 -4.64042 0
M  V30 808 H 86.4113 -1.10118 -6.38575 0
M  V30 809 N 79.8174 1.5752 -0.0501392 0
M  V30 810 C 81.2334 1.56631 0.306402 0
M  V30 811 C 81.4334 1.0577 1.71508 0
M  V30 812 O 80.4894 0.713837 2.422 0
M  V30 813 C 81.8024 3.00393 0.135811 0
M  V30 814 C 83.3504 3.12315 0.206993 0
M  V30 815 C 83.8254 4.57954 0.064944 0
M  V30 816 N 85.3164 4.63041 0.121254 0
M  V30 817 C 86.0514 5.73389 0.0354381 0
M  V30 818 N 85.5474 6.92724 -0.102666 0
M  V30 819 N 87.3404 5.62026 0.090946 0
M  V30 820 H 79.4914 1.88903 -0.971046 0
M  V30 821 H 81.7544 0.869876 -0.376855 0
M  V30 822 H 81.4604 3.41635 -0.835384 0
M  V30 823 H 81.3344 3.66373 0.897275 0
M  V30 824 H 83.7214 2.70973 1.16866 0
M  V30 825 H 83.8024 2.49016 -0.585208 0
M  V30 826 H 83.4464 4.99981 -0.893394 0
M  V30 827 H 83.3764 5.19258 0.876277 0
M  V30 828 H 85.8674 3.77216 0.227284 0
M  V30 829 H 86.1804 7.72633 -0.160882 0
M  V30 830 H 84.5254 6.94864 -0.137737 0
M  V30 831 H 87.7164 4.67684 0.197388 0
M  V30 832 H 87.8894 6.47997 0.0206089 0
M  V30 833 N 81.2955 -0.223234 1.56011 0
M  V30 834 C 82.5725 -0.972108 1.69733 0
M  V30 835 C 82.9525 -2.02485 0.59691 0
M  V30 836 O 82.3005 -2.25037 -0.396324 0
M  V30 837 C 82.5105 -1.58407 3.10979 0
M  V30 838 C 83.8585 -2.07696 3.70334 0
M  V30 839 O 84.8825 -1.68304 3.1393 0
M  V30 840 O 83.7415 -2.80096 4.69264 0
M  V30 841 H 80.8355 -0.453993 0.691245 0
M  V30 842 H 83.3815 -0.215149 1.68331 0
M  V30 843 H 82.1535 -0.823831 3.82529 0
M  V30 844 H 81.7765 -2.40661 3.16493 0
M  V30 845 N 82.7736 -1.49793 -0.48987 0
M  V30 846 C 84.0016 -1.63568 -1.26701 0
M  V30 847 C 84.4166 -0.311465 -1.86213 0
M  V30 848 O 83.7736 0.704416 -1.68357 0
M  V30 849 C 83.8246 -2.71284 -2.38929 0
M  V30 850 O 83.5456 -3.9857 -1.81861 0
M  V30 851 C 85.0466 -2.95864 -3.3012 0
M  V30 852 H 82.2666 -0.550342 -0.383881 0
M  V30 853 H 84.8106 -1.95898 -0.586864 0
M  V30 854 H 82.9656 -2.417 -3.02753 0
M  V30 855 H 83.3796 -4.57993 -2.55622 0
M  V30 856 H 84.8536 -3.74941 -4.05121 0
M  V30 857 H 85.3306 -2.06206 -3.87783 0
M  V30 858 H 85.9366 -3.26907 -2.72051 0
M  V30 859 N 84.2517 0.741722 -1.39055 0
M  V30 860 C 85.2147 1.83733 -1.37021 0
M  V30 861 C 86.2147 1.58542 -0.268534 0
M  V30 862 O 87.4047 1.66067 -0.526076 0
M  V30 863 C 84.5367 3.2141 -1.13617 0
M  V30 864 H 85.7297 1.86941 -2.34506 0
M  V30 865 H 83.2827 0.944676 -1.24521 0
M  V30 866 H 84.0177 3.23865 -0.167863 0
M  V30 867 H 83.8027 3.4109 -1.93391 0
M  V30 868 H 85.2927 4.01477 -1.14918 0
M  V30 869 N 85.7298 1.2412 0.971189 0
M  V30 870 C 86.9778 1.07668 1.71032 0
M  V30 871 C 87.2988 -0.385797 1.91146 0
M  V30 872 O 86.5688 -1.27569 1.4867 0
M  V30 873 H 85.1488 0.395429 0.633755 0
M  V30 874 H 87.8108 1.55984 1.16855 0
M  V30 875 H 86.9068 1.57195 2.69622 0
M  V30 876 N 87.2079 -1.17134 1.05439 0
M  V30 877 C 88.4559 -1.87085 0.764429 0
M  V30 878 C 88.7769 -1.81584 -0.710787 0
M  V30 879 O 88.0469 -1.24349 -1.51374 0
M  V30 880 H 86.6269 -0.692627 0.279779 0
M  V30 881 H 89.2889 -1.42087 1.33406 0
M  V30 882 H 88.3849 -2.92759 1.0816 0
M  V30 883 N 88.686 -0.835752 -1.33615 0
M  V30 884 C 89.934 -0.429109 -1.97492 0
M  V30 885 C 90.255 1.01433 -1.66543 0
M  V30 886 O 89.525 1.70611 -0.962744 0
M  V30 887 H 88.105 -0.155686 -0.730596 0
M  V30 888 H 90.767 -1.06802 -1.63031 0
M  V30 889 H 89.863 -0.55861 -3.0706 0
M  V30 890 N 90.1641 1.46063 -0.591896 0
M  V30 891 C 91.5751 1.85944 -0.167822 0
M  V30 892 C 91.9261 1.49429 1.27143 0
M  V30 893 O 91.0511 0.913515 1.96173 0
M  V30 894 C 91.6461 3.37489 -0.297794 0
M  V30 895 C 90.2051 3.76332 0.0714732 0
M  V30 896 C 89.3521 2.7006 -0.629509 0
M  V30 897 H 92.3031 1.37087 -0.799555 0
M  V30 898 H 92.3241 3.77532 0.474349 0
M  V30 899 H 91.8361 3.64034 -1.3454 0
M  V30 900 H 89.9371 3.55405 1.11886 0
M  V30 901 H 90.0501 4.78088 -0.311245 0
M  V30 902 H 88.4141 2.54607 -0.0687867 0
M  V30 903 H 89.1971 2.99444 -1.67894 0
M  V30 904 N 91.6422 0.330177 1.54103 0
M  V30 905 C 92.8902 -0.269871 2.0029 0
M  V30 906 C 93.2112 -1.52133 1.21986 0
M  V30 907 O 92.4812 -1.93212 0.323438 0
M  V30 908 H 91.0612 -0.10271 0.739905 0
M  V30 909 H 93.7232 0.448249 1.89675 0
M  V30 910 H 92.8192 -0.52166 3.07709 0
M  V30 911 N 93.1203 -1.57491 0.0584922 0
M  V30 912 C 94.0523 -2.08916 -0.942694 0
M  V30 913 C 95.0653 -1.0185 -1.27006 0
M  V30 914 O 96.2543 -1.29398 -1.22957 0
M  V30 915 C 93.3543 -2.52341 -2.26224 0
M  V30 916 C 92.5273 -3.82827 -2.1157 0
M  V30 917 C 91.5863 -4.12487 -3.26712 0
M  V30 918 O 90.6123 -4.82295 -3.02292 0
M  V30 919 N 91.8143 -3.64978 -4.5141 0
M  V30 920 H 94.5793 -2.95437 -0.503722 0
M  V30 921 H 92.1403 -1.61397 -0.12757 0
M  V30 922 H 94.1323 -2.69254 -3.02133 0
M  V30 923 H 92.7023 -1.7103 -2.61663 0
M  V30 924 H 91.9223 -3.75425 -1.20208 0
M  V30 925 H 93.2103 -4.68263 -1.99015 0
M  V30 926 H 92.6083 -3.08558 -4.7414 0
M  V30 927 H 91.1653 -3.87115 -5.2439 0
M  V30 928 N 94.5984 0.214957 -1.56127 0
M  V30 929 C 95.5614 1.24997 -1.92116 0
M  V30 930 C 96.5614 1.39467 -0.800344 0
M  V30 931 O 97.7514 1.37619 -1.06802 0
M  V30 932 C 94.8834 2.62271 -2.17777 0
M  V30 933 H 96.0764 0.942875 -2.84693 0
M  V30 934 H 93.6294 0.455654 -1.49511 0
M  V30 935 H 94.3644 2.98068 -1.27773 0
M  V30 936 H 94.1494 2.53143 -2.99434 0
M  V30 937 H 95.6394 3.36946 -2.46693 0
M  V30 938 N 96.0765 1.50051 0.48192 0
M  V30 939 C 97.4925 1.37237 0.814756 0
M  V30 940 C 97.6925 0.420109 1.97072 0
M  V30 941 O 96.7485 -0.141246 2.52105 0
M  V30 942 C 98.0615 2.78375 1.13701 0
M  V30 943 C 99.6095 2.87213 1.2441 0
M  V30 944 C 100.084 4.29161 1.59954 0
M  V30 945 N 101.575 4.32061 1.66967 0
M  V30 946 C 102.31 5.38879 1.95952 0
M  V30 947 N 101.806 6.55918 2.23031 0
M  V30 948 N 103.599 5.26312 1.97363 0
M  V30 949 H 95.7505 2.10546 -0.28005 0
M  V30 950 H 98.0135 0.945921 -0.0627454 0
M  V30 951 H 97.7195 3.49845 0.360787 0
M  V30 952 H 97.5935 3.14941 2.07586 0
M  V30 953 H 99.9805 2.15969 2.01101 0
M  V30 954 H 100.061 2.54204 0.285299 0
M  V30 955 H 99.7055 5.00938 0.838067 0
M  V30 956 H 99.6355 4.59648 2.56966 0
M  V30 957 H 102.126 3.47661 1.48123 0
M  V30 958 H 102.439 7.33139 2.44391 0
M  V30 959 H 100.784 6.59112 2.20447 0
M  V30 960 H 103.975 4.33876 1.75697 0
M  V30 961 H 104.148 6.09649 2.19618 0
M  V30 962 N 97.5546 -0.734337 1.39446 0
M  V30 963 C 98.9656 -1.31264 1.32766 0
M  V30 964 C 99.3166 -1.96198 -0.00767497 0
M  V30 965 O 98.4416 -1.96346 -0.909796 0
M  V30 966 C 99.0366 -2.38682 2.4045 0
M  V30 967 C 97.5956 -2.92184 2.37288 0
M  V30 968 C 96.7426 -1.6576 2.22304 0
M  V30 969 H 99.6936 -0.531799 1.49525 0
M  V30 970 H 99.7146 -3.19087 2.07276 0
M  V30 971 H 99.2266 -1.91392 3.37625 0
M  V30 972 H 97.3276 -3.43752 1.43754 0
M  V30 973 H 97.4406 -3.45253 3.3217 0
M  V30 974 H 95.8046 -1.9012 1.69489 0
M  V30 975 H 96.5876 -1.20521 3.21449 0
M  V30 976 N 99.0327 -1.24633 -0.964593 0
M  V30 977 C 99.9627 -1.06611 -2.07741 0
M  V30 978 C 100.944 0.0218666 -1.70086 0
M  V30 979 O 102.129 -0.145793 -1.93652 0
M  V30 980 C 99.2587 -0.673444 -3.40708 0
M  V30 981 C 98.2127 -1.71054 -3.92332 0
M  V30 982 C 97.5387 -1.17285 -5.21678 0
M  V30 983 C 98.8387 -3.10718 -4.19824 0
M  V30 984 H 100.533 -1.99693 -2.23076 0
M  V30 985 H 98.0787 -0.96152 -1.07195 0
M  V30 986 H 100.032 -0.534345 -4.17998 0
M  V30 987 H 98.7557 0.293073 -3.25282 0
M  V30 988 H 97.4147 -1.83791 -3.17201 0
M  V30 989 H 97.0627 -0.196847 -5.02615 0
M  V30 990 H 96.7627 -1.86592 -5.57187 0
M  V30 991 H 98.2867 -1.04593 -6.01575 0
M  V30 992 H 99.7007 -3.01192 -4.87808 0
M  V30 993 H 98.0977 -3.77406 -4.66567 0
M  V30 994 H 99.1677 -3.58524 -3.26479 0
M  V30 995 N 100.511 1.16574 -1.06058 0
M  V30 996 C 101.759 1.86677 -0.77434 0
M  V30 997 C 102.08 1.81959 0.701147 0
M  V30 998 O 101.35 1.2515 1.50713 0
M  V30 999 H 99.9298 0.691134 -0.283449 0
M  V30 1000 H 102.592 1.41378 -1.34158 0
M  V30 1001 H 101.688 2.92181 -1.09711 0
M  V30 1002 N 101.989 0.842826 1.3317 0
M  V30 1003 C 103.4 0.496651 1.79973 0
M  V30 1004 C 103.751 -0.984641 1.69703 0
M  V30 1005 O 102.876 -1.76743 1.24863 0
M  V30 1006 C 103.471 0.894727 3.26772 0
M  V30 1007 C 102.03 0.600629 3.71577 0
M  V30 1008 C 101.177 1.10091 2.5451 0
M  V30 1009 H 104.128 1.03116 1.20635 0
M  V30 1010 H 104.149 0.206347 3.7994 0
M  V30 1011 H 103.661 1.97287 3.34215 0
M  V30 1012 H 101.762 -0.467284 3.69658 0
M  V30 1013 H 101.875 1.15863 4.64879 0
M  V30 1014 H 100.239 0.52162 2.49301 0
M  V30 1015 H 101.022 2.18591 2.64713 0
M  V30 1016 N 103.467 -1.45747 0.599634 0
M  V30 1017 C 104.878 -1.85853 0.177681 0
M  V30 1018 C 105.229 -1.50102 -1.26348 0
M  V30 1019 O 104.354 -0.923905 -1.95686 0
M  V30 1020 C 104.949 -3.37326 0.315688 0
M  V30 1021 C 103.508 -3.76365 -0.0515144 0
M  V30 1022 C 102.655 -2.69722 0.643822 0
M  V30 1023 H 105.606 -1.36661 0.806814 0
M  V30 1024 H 105.627 -3.77778 -0.454321 0
M  V30 1025 H 105.139 -3.63315 1.36468 0
M  V30 1026 H 103.24 -3.55993 -1.09999 0
M  V30 1027 H 103.353 -4.77916 0.336594 0
M  V30 1028 H 101.717 -2.54567 0.0822881 0
M  V30 1029 H 102.5 -2.98549 1.6948 0
M  V30 1030 N 104.945 -0.338344 -1.53925 0
M  V30 1031 C 106.193 0.259245 -2.0043 0
M  V30 1032 C 106.514 1.51484 -1.22791 0
M  V30 1033 O 105.784 1.93037 -0.33368 0
M  V30 1034 H 104.364 0.0987845 -0.740439 0
M  V30 1035 H 107.026 -0.458302 -1.89435 0
M  V30 1036 H 106.122 0.505334 -3.07982 0
M  V30 1037 N 106.423 1.57458 -0.0668435 0
M  V30 1038 C 107.651 1.97624 0.612565 0
M  V30 1039 C 108.066 0.94502 1.63447 0
M  V30 1040 O 107.423 -0.0689276 1.8237 0
M  V30 1041 C 107.474 3.37869 1.28555 0
M  V30 1042 O 107.195 4.3704 0.304557 0
M  V30 1043 C 108.696 3.92882 2.05325 0
M  V30 1044 H 105.916 0.650045 0.166381 0
M  V30 1045 H 108.46 2.04035 -0.137782 0
M  V30 1046 H 106.615 3.3256 1.98702 0
M  V30 1047 H 107.029 5.18565 0.786779 0
M  V30 1048 H 108.503 4.93247 2.47812 0
M  V30 1049 H 108.98 3.29156 2.9078 0
M  V30 1050 H 109.586 4.01577 1.40056 0
M  V30 1051 N 107.901 -0.206675 1.56239 0
M  V30 1052 C 109.126 -0.949474 1.8439 0
M  V30 1053 C 109.551 -1.76549 0.649016 0
M  V30 1054 O 108.909 -1.76782 -0.402231 0
M  V30 1055 C 108.957 -1.83078 3.10668 0
M  V30 1056 O 108.061 -2.9281 2.90407 0
M  V30 1057 H 107.402 -0.268033 0.607499 0
M  V30 1058 H 109.932 -0.215488 2.03462 0
M  V30 1059 H 109.942 -2.2377 3.41161 0
M  V30 1060 H 108.617 -1.23112 3.97261 0
M  V30 1061 H 107.194 -2.55956 2.71184 0
M  V30 1062 N 109.379 -1.50304 -0.473955 0
M  V30 1063 C 110.309 -1.71886 -1.58042 0
M  V30 1064 C 111.29 -0.567799 -1.60344 0
M  V30 1065 O 112.475 -0.806623 -1.76656 0
M  V30 1066 C 109.605 -1.81036 -2.96384 0
M  V30 1067 C 108.559 -2.962 -3.08949 0
M  V30 1068 C 107.885 -2.9049 -4.48909 0
M  V30 1069 C 109.185 -4.36752 -2.86434 0
M  V30 1070 H 110.879 -2.64527 -1.40234 0
M  V30 1071 H 108.425 -1.27295 -0.673201 0
M  V30 1072 H 110.378 -1.94719 -3.73714 0
M  V30 1073 H 109.102 -0.850147 -3.15341 0
M  V30 1074 H 107.761 -2.82164 -2.3405 0
M  V30 1075 H 107.409 -1.92321 -4.64781 0
M  V30 1076 H 107.109 -3.67802 -4.58253 0
M  V30 1077 H 108.633 -3.06218 -5.28264 0
M  V30 1078 H 110.047 -4.5133 -3.53517 0
M  V30 1079 H 108.444 -5.15493 -3.07225 0
M  V30 1080 H 109.514 -4.49321 -1.82316 0
M  V30 1081 N 110.857 0.726932 -1.39834 0
M  V30 1082 C 111.787 1.85405 -1.41941 0
M  V30 1083 C 112.768 1.67751 -0.281728 0
M  V30 1084 O 113.953 1.8795 -0.488717 0
M  V30 1085 C 111.083 3.23243 -1.2701 0
M  V30 1086 C 110.037 3.55549 -2.38262 0
M  V30 1087 C 109.363 4.9241 -2.08415 0
M  V30 1088 C 110.663 3.577 -3.80589 0
M  V30 1089 H 112.357 1.83899 -2.36266 0
M  V30 1090 H 109.903 0.883349 -1.13723 0
M  V30 1091 H 111.856 4.01775 -1.27103 0
M  V30 1092 H 110.58 3.25296 -0.291564 0
M  V30 1093 H 109.239 2.79351 -2.37399 0
M  V30 1094 H 108.887 4.91052 -1.0898 0
M  V30 1095 H 108.587 5.14992 -2.82943 0
M  V30 1096 H 110.111 5.73289 -2.10171 0
M  V30 1097 H 111.525 4.26293 -3.83337 0
M  V30 1098 H 109.922 3.91804 -4.54543 0
M  V30 1099 H 110.992 2.57328 -4.10987 0
M  V30 1100 N 112.336 1.25143 0.95797 0
M  V30 1101 C 113.584 1.09476 1.69881 0
M  V30 1102 C 113.905 -0.365502 1.91544 0
M  V30 1103 O 113.175 -1.25985 1.50015 0
M  V30 1104 H 111.755 0.402128 0.629525 0
M  V30 1105 H 114.417 1.57214 1.15194 0
M  V30 1106 H 113.513 1.60046 2.6794 0
M  V30 1107 N 113.814 -1.1601 1.06675 0
M  V30 1108 C 115.23 -1.38622 0.790948 0
M  V30 1109 C 115.43 -1.92109 -0.607965 0
M  V30 1110 O 114.486 -2.12239 -1.36787 0
M  V30 1111 C 115.799 -2.36347 1.85905 0
M  V30 1112 C 117.347 -2.50023 1.88301 0
M  V30 1113 C 117.822 -3.51033 2.94176 0
M  V30 1114 N 119.313 -3.58563 2.93235 0
M  V30 1115 C 120.048 -4.36521 3.71803 0
M  V30 1116 N 119.544 -5.17869 4.602 0
M  V30 1117 N 121.337 -4.31541 3.60178 0
M  V30 1118 H 113.488 -0.796294 1.96908 0
M  V30 1119 H 115.751 -0.412597 0.853503 0
M  V30 1120 H 115.457 -2.04147 2.86386 0
M  V30 1121 H 115.331 -3.36042 1.71334 0
M  V30 1122 H 117.718 -2.81524 0.884769 0
M  V30 1123 H 117.799 -1.5035 2.06951 0
M  V30 1124 H 117.443 -3.20268 3.94196 0
M  V30 1125 H 117.373 -4.50445 2.72776 0
M  V30 1126 H 119.864 -3.00496 2.29152 0
M  V30 1127 H 120.177 -5.74578 5.16797 0
M  V30 1128 H 118.522 -5.17199 4.64253 0
M  V30 1129 H 121.713 -3.67051 2.90502 0
M  V30 1130 H 121.886 -4.9205 4.21653 0
M  V30 1131 N 115.292 -0.849877 -1.32721 0
M  V30 1132 C 116.54 -0.450032 -1.97026 0
M  V30 1133 C 116.861 0.996604 -1.67609 0
M  V30 1134 O 116.131 1.6958 -0.980786 0
M  V30 1135 H 114.711 -0.163426 -0.728904 0
M  V30 1136 H 117.373 -1.08526 -1.6189 0
M  V30 1137 H 116.469 -0.591146 -3.0645 0
M  V30 1138 N 116.77 1.45427 -0.607355 0
M  V30 1139 C 117.733 2.28974 0.101693 0
M  V30 1140 C 118.733 1.39754 0.795329 0
M  V30 1141 O 119.923 1.61878 0.643527 0
M  V30 1142 C 117.055 3.20768 1.15414 0
M  V30 1143 H 118.248 2.93147 -0.632844 0
M  V30 1144 H 115.801 1.51945 -0.366391 0
M  V30 1145 H 116.536 2.61395 1.91945 0
M  V30 1146 H 116.321 3.86489 0.66098 0
M  V30 1147 H 117.811 3.83589 1.65073 0
M  V30 1148 N 118.248 0.346503 1.53744 0
M  V30 1149 C 119.664 -0.00530975 1.59599 0
M  V30 1150 C 119.864 -1.48465 1.36236 0
M  V30 1151 O 118.92 -2.24376 1.15808 0
M  V30 1152 C 120.233 0.433516 2.97559 0
M  V30 1153 C 121.781 0.386111 3.10609 0
M  V30 1154 C 122.256 0.800451 4.50951 0
M  V30 1155 N 123.747 0.754753 4.5701 0
M  V30 1156 C 124.482 1.04727 5.63755 0
M  V30 1157 N 123.978 1.4081 6.7834 0
M  V30 1158 N 125.771 0.971316 5.53644 0
M  V30 1159 H 117.922 1.31009 1.67184 0
M  V30 1160 H 120.185 0.534242 0.783128 0
M  V30 1161 H 119.891 1.46509 3.19731 0
M  V30 1162 H 119.765 -0.189753 3.76722 0
M  V30 1163 H 122.152 -0.636295 2.88158 0
M  V30 1164 H 122.233 1.04462 2.33498 0
M  V30 1165 H 121.877 1.82088 4.74137 0
M  V30 1166 H 121.807 0.119386 5.26465 0
M  V30 1167 H 124.298 0.488662 3.74727 0
M  V30 1168 H 124.611 1.61607 7.55714 0
M  V30 1169 H 122.956 1.44657 6.79779 0
M  V30 1170 H 126.147 0.688748 4.63005 0
M  V30 1171 H 126.32 1.20263 6.36742 0
M  V30 1172 N 119.726 -1.57421 0.075193 0
M  V30 1173 C 121.142 -1.57099 -0.281444 0
M  V30 1174 C 121.342 -1.08486 -1.69803 0
M  V30 1175 O 120.398 -0.752279 -2.41033 0
M  V30 1176 C 121.711 -3.00571 -0.0880041 0
M  V30 1177 C 123.259 -3.12605 -0.157281 0
M  V30 1178 C 123.734 -4.57999 0.0079207 0
M  V30 1179 N 125.225 -4.63176 -0.0475725 0
M  V30 1180 C 125.96 -5.73373 0.0557876 0
M  V30 1181 N 125.456 -6.92473 0.21286 0
M  V30 1182 N 127.249 -5.621 -0.00152098 0
M  V30 1183 H 119.4 -1.87335 1.00098 0
M  V30 1184 H 121.663 -0.86377 0.390646 0
M  V30 1185 H 121.369 -3.40262 0.889629 0
M  V30 1186 H 121.243 -3.67754 -0.838875 0
M  V30 1187 H 123.63 -2.72798 -1.1254 0
M  V30 1188 H 123.711 -2.48053 0.62475 0
M  V30 1189 H 123.355 -4.98496 0.972824 0
M  V30 1190 H 123.285 -5.20586 -0.793556 0
M  V30 1191 H 125.776 -3.7753 -0.167244 0
M  V30 1192 H 126.089 -7.72279 0.283781 0
M  V30 1193 H 124.434 -6.94556 0.248267 0
M  V30 1194 H 127.625 -4.67938 -0.122958 0
M  V30 1195 H 127.798 -6.47948 0.0824844 0
M  V30 1196 N 121.204 0.198386 -1.56346 0
M  V30 1197 C 122.429 0.939682 -1.84891 0
M  V30 1198 C 122.854 1.76202 -0.658369 0
M  V30 1199 O 122.212 1.76993 0.392851 0
M  V30 1200 C 122.26 1.81428 -3.11635 0
M  V30 1201 O 121.364 2.91265 -2.91956 0
M  V30 1202 H 120.705 0.264807 -0.608912 0
M  V30 1203 H 123.235 0.204695 -2.03573 0
M  V30 1204 H 123.245 2.21958 -3.42343 0
M  V30 1205 H 121.92 1.21004 -3.97908 0
M  V30 1206 H 120.497 2.54514 -2.72538 0
M  V30 1207 N 122.682 1.50554 0.465978 0
M  V30 1208 C 123.93 1.61479 1.21528 0
M  V30 1209 C 124.251 0.319596 1.92363 0
M  V30 1210 O 123.521 -0.663194 1.84333 0
M  V30 1211 H 122.101 0.595055 0.451573 0
M  V30 1212 H 124.763 1.87355 0.53704 0
M  V30 1213 H 123.859 2.42846 1.96042 0
M  V30 1214 N 124.16 -0.719506 1.40217 0
M  V30 1215 C 125.07 -1.86378 1.42479 0
M  V30 1216 C 126.086 -1.71073 0.317834 0
M  V30 1217 O 127.262 -1.93406 0.561794 0
M  V30 1218 C 124.327 -3.22136 1.28178 0
M  V30 1219 C 123.388 -3.49723 2.48982 0
M  V30 1220 C 122.621 -4.79004 2.35353 0
M  V30 1221 O 122.844 -5.53821 1.36524 0
M  V30 1222 O 121.778 -5.06839 3.2465 0
M  V30 1223 H 125.604 -1.87425 2.38968 0
M  V30 1224 H 123.189 -0.869405 1.21498 0
M  V30 1225 H 125.071 -4.03234 1.22395 0
M  V30 1226 H 123.746 -3.21825 0.347934 0
M  V30 1227 H 122.653 -2.6865 2.60342 0
M  V30 1228 H 123.986 -3.54828 3.41113 0
M  V30 1229 N 125.638 -1.25649 -0.95132 0
M  V30 1230 C 126.886 -1.10375 -1.69298 0
M  V30 1231 C 127.207 0.355339 -1.91735 0
M  V30 1232 O 126.477 1.25188 -1.50681 0
M  V30 1233 H 125.057 -0.405461 -0.627384 0
M  V30 1234 H 127.719 -1.57823 -1.14358 0
M  V30 1235 H 126.815 -1.61465 -2.67087 0
M  V30 1236 N 127.117 1.15442 -1.07289 0
M  V30 1237 C 128.363 1.8672 -0.806679 0
M  V30 1238 C 128.718 1.80723 0.660084 0
M  V30 1239 O 128.011 1.21902 1.47819 0
M  V30 1240 C 128.205 3.3489 -1.24834 0
M  V30 1241 C 128.034 3.55313 -2.7565 0
M  V30 1242 C 126.804 3.7082 -3.4325 0
M  V30 1243 C 129.002 3.53188 -3.73848 0
M  V30 1244 N 126.984 3.7929 -4.82713 0
M  V30 1245 C 128.355 3.67765 -4.99149 0
M  V30 1246 C 130.41 3.36459 -3.67015 0
M  V30 1247 C 129.113 3.6734 -6.18428 0
M  V30 1248 C 131.139 3.37333 -4.85758 0
M  V30 1249 C 130.501 3.52438 -6.09891 0
M  V30 1250 H 126.6 0.700433 -0.347733 0
M  V30 1251 H 129.184 1.38441 -1.36902 0
M  V30 1252 H 127.355 3.81786 -0.713713 0
M  V30 1253 H 129.087 3.93875 -0.929745 0
M  V30 1254 H 125.842 3.71568 -2.93656 0
M  V30 1255 H 126.266 3.8727 -5.55294 0
M  V30 1256 H 130.908 3.237 -2.71989 0
M  V30 1257 H 128.626 3.78878 -7.13777 0
M  V30 1258 H 132.212 3.25617 -4.82146 0
M  V30 1259 H 131.092 3.53047 -7.00234 0
M  V30 1260 N 128.595 0.856903 1.32268 0
M  V30 1261 C 129.835 0.467705 1.98977 0
M  V30 1262 C 130.199 -0.959231 1.66321 0
M  V30 1263 O 131.4 -1.4531 2.26138 0
M  V30 1264 C 129.671 0.70256 3.50427 0
M  V30 1265 S 131.23 0.411269 4.36868 0
M  V30 1266 H 128.048 0.175121 0.689096 0
M  V30 1267 H 130.65 1.1101 1.60925 0
M  V30 1268 H 129.354 1.74012 3.71683 0
M  V30 1269 H 128.885 0.0466707 3.93372 0
M  V30 1270 H 130.9 -0.761799 4.90317 0
M  V30 1271 N 130.073 -1.45103 0.615059 0
M  V30 1272 C 131.484 -1.85654 0.197383 0
M  V30 1273 C 131.835 -1.51433 -1.24749 0
M  V30 1274 O 130.96 -0.944608 -1.94695 0
M  V30 1275 C 131.555 -3.36972 0.351448 0
M  V30 1276 C 130.114 -3.76398 -0.011593 0
M  V30 1277 C 129.261 -2.69024 0.672394 0
M  V30 1278 H 132.212 -1.35797 0.821263 0
M  V30 1279 H 132.233 -3.78239 -0.414227 0
M  V30 1280 H 131.745 -3.61847 1.40314 0
M  V30 1281 H 129.846 -3.5714 -1.06217 0
M  V30 1282 H 129.959 -4.77532 0.387265 0
M  V30 1283 H 128.323 -2.54465 0.109284 0
M  V30 1284 H 129.106 -2.96735 1.72636 0
M  V30 1285 N 131.551 -0.354651 -1.53558 0
M  V30 1286 C 132.799 0.237972 -2.00694 0
M  V30 1287 C 133.12 1.50173 -1.24391 0
M  V30 1288 O 132.39 1.92673 -0.354135 0
M  V30 1289 H 130.97 0.0909256 -0.741446 0
M  V30 1290 H 133.632 -0.478368 -1.88938 0
M  V30 1291 H 132.728 0.47264 -3.085 0
M  V30 1292 N 133.029 1.57378 -0.0835403 0
M  V30 1293 C 133.992 2.12252 0.864959 0
M  V30 1294 C 134.992 1.04916 1.21858 0
M  V30 1295 O 136.182 1.30853 1.14991 0
M  V30 1296 C 133.314 2.63358 2.16461 0
M  V30 1297 H 134.507 2.97371 0.388676 0
M  V30 1298 H 132.06 1.55423 0.165317 0
M  V30 1299 H 132.795 1.81727 2.686 0
M  V30 1300 H 132.58 3.41826 1.92087 0
M  V30 1301 H 134.07 3.05847 2.84337 0
M  V30 1302 N 134.507 -0.190092 1.56449 0
M  V30 1303 C 135.754 -0.909705 1.80916 0
M  V30 1304 C 136.082 -1.83047 0.657583 0
M  V30 1305 O 135.337 -1.92428 -0.356356 0
M  V30 1306 C 135.636 -1.75382 3.1141 0
M  V30 1307 C 135.302 -0.983606 4.40041 0
M  V30 1308 C 133.964 -0.770967 4.74984 0
M  V30 1309 C 136.316 -0.442024 5.19322 0
M  V30 1310 C 133.644 -0.0053448 5.867 0
M  V30 1311 C 135.996 0.310412 6.31838 0
M  V30 1312 C 134.66 0.534023 6.6536 0
M  V30 1313 H 133.93 -0.332885 0.662019 0
M  V30 1314 H 136.577 -0.175762 1.90692 0
M  V30 1315 H 134.882 -2.55659 2.96893 0
M  V30 1316 H 136.579 -2.31331 3.27547 0
M  V30 1317 H 133.169 -1.15936 4.12622 0
M  V30 1318 H 137.353 -0.593693 4.92736 0
M  V30 1319 H 132.609 0.177825 6.11141 0
M  V30 1320 H 136.783 0.737419 6.92485 0
M  V30 1321 H 134.41 1.12918 7.51767 0
M  V30 1322 N 135.985 -1.50799 -0.457987 0
M  V30 1323 C 136.895 -1.73426 -1.57989 0
M  V30 1324 C 137.911 -0.617745 -1.62665 0
M  V30 1325 O 139.087 -0.897614 -1.80291 0
M  V30 1326 C 136.152 -1.83557 -2.94122 0
M  V30 1327 C 135.213 -3.07345 -2.99729 0
M  V30 1328 C 134.446 -3.16983 -4.29368 0
M  V30 1329 O 134.669 -2.33077 -5.20607 0
M  V30 1330 O 133.603 -4.09812 -4.40837 0
M  V30 1331 H 137.429 -2.68555 -1.41817 0
M  V30 1332 H 135.014 -1.35052 -0.638859 0
M  V30 1333 H 136.896 -1.92326 -3.74952 0
M  V30 1334 H 135.571 -0.916137 -3.10465 0
M  V30 1335 H 134.478 -3.04068 -2.1793 0
M  V30 1336 H 135.811 -3.9891 -2.88326 0
M  V30 1337 N 137.463 0.71206 -1.40597 0
M  V30 1338 C 138.688 1.50617 -1.42581 0
M  V30 1339 C 139.113 1.88079 -0.0282102 0
M  V30 1340 O 138.471 1.53511 0.964579 0
M  V30 1341 C 138.519 2.7557 -2.3258 0
M  V30 1342 O 137.623 3.72414 -1.77148 0
M  V30 1343 H 136.964 0.453966 -0.484573 0
M  V30 1344 H 139.494 0.876649 -1.84868 0
M  V30 1345 H 139.504 3.2406 -2.47889 0
M  V30 1346 H 138.179 2.47639 -3.34138 0
M  V30 1347 H 136.756 3.31276 -1.71204 0
M  V30 1348 N 138.941 1.26152 0.944643 0
M  V30 1349 C 140.189 1.11271 1.6871 0
M  V30 1350 C 140.51 -0.345166 1.91921 0
M  V30 1351 O 139.78 -1.24387 1.51343 0
M  V30 1352 H 138.36 0.408783 0.625224 0
M  V30 1353 H 141.022 1.58427 1.1352 0
M  V30 1354 H 140.118 1.62879 2.66227 0
M  V30 1355 N 140.419 -1.14872 1.07899 0
M  V30 1356 C 141.382 -2.17986 0.708161 0
M  V30 1357 C 142.382 -1.58775 -0.25442 0
M  V30 1358 O 143.572 -1.74166 -0.034645 0
M  V30 1359 C 140.704 -3.40871 0.0446929 0
M  V30 1360 H 141.897 -2.52306 1.62116 0
M  V30 1361 H 139.45 -1.2943 0.876218 0
M  V30 1362 H 140.185 -3.12124 -0.880281 0
M  V30 1363 H 139.97 -3.8511 0.737091 0
M  V30 1364 H 141.46 -4.17121 -0.19991 0
M  V30 1365 N 141.898 -0.863906 -1.31812 0
M  V30 1366 C 143.314 -0.555004 -1.49639 0
M  V30 1367 C 143.514 0.912266 -1.79666 0
M  V30 1368 O 142.57 1.69479 -1.87171 0
M  V30 1369 C 143.883 -1.44998 -2.63431 0
M  V30 1370 C 145.431 -1.45138 -2.77316 0
M  V30 1371 C 145.906 -2.33179 -3.94197 0
M  V30 1372 N 147.397 -2.31025 -4.01474 0
M  V30 1373 C 148.132 -2.95871 -4.9117 0
M  V30 1374 N 147.628 -3.69863 -5.8581 0
M  V30 1375 N 149.421 -2.85211 -4.84367 0
M  V30 1376 H 141.572 -1.81339 -1.10589 0
M  V30 1377 H 143.835 -0.77505 -0.545895 0
M  V30 1378 H 143.541 -2.49377 -2.48 0
M  V30 1379 H 143.415 -1.14409 -3.59431 0
M  V30 1380 H 145.802 -0.415201 -2.92164 0
M  V30 1381 H 145.883 -1.79747 -1.82001 0
M  V30 1382 H 145.527 -3.3687 -3.80107 0
M  V30 1383 H 145.457 -1.95897 -4.88807 0
M  V30 1384 H 147.948 -1.77238 -3.33759 0
M  V30 1385 H 148.261 -4.16486 -6.50968 0
M  V30 1386 H 146.606 -3.73971 -5.85808 0
M  V30 1387 H 149.797 -2.26948 -4.09405 0
M  V30 1388 H 149.97 -3.36027 -5.54066 0
M  V30 1389 N 143.376 1.44774 -0.622745 0
M  V30 1390 C 144.339 2.29069 0.0774015 0
M  V30 1391 C 145.339 1.4059 0.780461 0
M  V30 1392 O 146.529 1.62551 0.626322 0
M  V30 1393 C 143.661 3.21974 1.12006 0
M  V30 1394 H 144.854 2.92459 -0.663901 0
M  V30 1395 H 142.407 1.51548 -0.382486 0
M  V30 1396 H 143.142 2.63417 1.89162 0
M  V30 1397 H 142.927 3.87168 0.619951 0
M  V30 1398 H 144.417 3.85318 1.60995 0
M  V30 1399 N 144.854 0.36279 1.53368 0
M  V30 1400 C 145.817 -0.472679 2.24273 0
M  V30 1401 C 146.817 -1.012 1.24961 0
M  V30 1402 O 148.007 -0.898194 1.49259 0
M  V30 1403 C 145.139 -1.66039 2.97731 0
M  V30 1404 H 146.332 0.14773 2.99536 0
M  V30 1405 H 143.885 0.114434 1.55881 0
M  V30 1406 H 144.62 -2.31896 2.26704 0
M  V30 1407 H 144.405 -1.28066 3.70596 0
M  V30 1408 H 145.895 -2.25252 3.51641 0
M  V30 1409 N 146.332 -1.57332 0.0918853 0
M  V30 1410 C 147.748 -1.57389 -0.264766 0
M  V30 1411 C 147.948 -1.10281 -1.68643 0
M  V30 1412 O 147.004 -0.777801 -2.40222 0
M  V30 1413 C 148.317 -3.00648 -0.0561195 0
M  V30 1414 C 149.865 -3.12754 -0.124116 0
M  V30 1415 C 150.34 -4.57965 0.0564972 0
M  V30 1416 N 151.831 -4.632 0.00155611 0
M  V30 1417 C 152.566 -5.73281 0.116598 0
M  V30 1418 N 152.062 -6.92208 0.286294 0
M  V30 1419 N 153.855 -5.6207 0.0580973 0
M  V30 1420 H 146.006 -1.86262 1.02079 0
M  V30 1421 H 148.269 -0.859579 0.399786 0
M  V30 1422 H 147.975 -3.393 0.925669 0
M  V30 1423 H 147.849 -3.68623 -0.799823 0
M  V30 1424 H 150.236 -2.73976 -1.09641 0
M  V30 1425 H 150.317 -2.47377 0.651024 0
M  V30 1426 H 149.961 -4.97436 1.02564 0
M  V30 1427 H 149.891 -5.21399 -0.738297 0
M  V30 1428 H 152.382 -3.77686 -0.127192 0
M  V30 1429 H 152.695 -7.71934 0.365676 0
M  V30 1430 H 151.04 -6.94254 0.32192 0
M  V30 1431 H 154.231 -4.68043 -0.0733204 0
M  V30 1432 H 154.404 -6.47824 0.151203 0
M  V30 1433 N 147.81 0.181792 -1.56548 0
M  V30 1434 C 149.221 0.745244 -1.71181 0
M  V30 1435 C 149.572 1.83262 -0.70068 0
M  V30 1436 O 148.697 2.15946 0.140154 0
M  V30 1437 C 149.292 1.35859 -3.10367 0
M  V30 1438 C 147.851 1.86898 -3.2672 0
M  V30 1439 C 146.998 0.743942 -2.67134 0
M  V30 1440 H 149.949 -0.0434661 -1.5864 0
M  V30 1441 H 149.97 2.22817 -3.08436 0
M  V30 1442 H 149.482 0.566948 -3.83937 0
M  V30 1443 H 147.583 2.68738 -2.5809 0
M  V30 1444 H 147.696 2.02162 -4.34359 0
M  V30 1445 H 146.06 1.16169 -2.26665 0
M  V30 1446 H 146.843 -0.035676 -3.43281 0
M  V30 1447 N 149.288 1.51039 0.449983 0
M  V30 1448 C 150.699 1.557 1.03026 0
M  V30 1449 C 151.05 0.372939 1.92623 0
M  V30 1450 O 150.175 -0.511771 2.10261 0
M  V30 1451 C 150.77 2.82171 1.87523 0
M  V30 1452 C 149.329 2.89444 2.40622 0
M  V30 1453 C 148.476 2.50228 1.19504 0
M  V30 1454 H 151.427 1.56999 0.231745 0
M  V30 1455 H 151.448 2.65219 2.72835 0
M  V30 1456 H 150.96 3.68331 1.22286 0
M  V30 1457 H 149.061 2.07685 3.0935 0
M  V30 1458 H 149.174 3.92816 2.74285 0
M  V30 1459 H 147.538 2.03139 1.53644 0
M  V30 1460 H 148.321 3.38719 0.558972 0
M  V30 1461 N 150.766 -0.704594 1.40972 0
M  V30 1462 C 151.991 -1.49858 1.43378 0
M  V30 1463 C 152.416 -1.88061 0.038184 0
M  V30 1464 O 151.774 -1.5402 -0.956425 0
M  V30 1465 C 151.822 -2.74333 2.34038 0
M  V30 1466 O 150.926 -3.7147 1.7912 0
M  V30 1467 H 150.267 -0.45139 0.486974 0
M  V30 1468 H 152.797 -0.866832 1.8533 0
M  V30 1469 H 152.807 -3.22741 2.49604 0
M  V30 1470 H 151.482 -2.45863 3.35446 0
M  V30 1471 H 150.059 -3.30363 1.72958 0
M  V30 1472 N 152.244 -1.26651 -0.937939 0
M  V30 1473 C 153.66 -1.03834 -1.21205 0
M  V30 1474 C 153.86 0.234502 -2.00131 0
M  V30 1475 O 152.916 0.942767 -2.3424 0
M  V30 1476 C 154.229 -2.27167 -1.97017 0
M  V30 1477 C 155.777 -2.32101 -2.09996 0
M  V30 1478 C 156.252 -3.55136 -2.8921 0
M  V30 1479 N 157.743 -3.55632 -2.96783 0
M  V30 1480 C 158.478 -4.475 -3.58512 0
M  V30 1481 N 157.974 -5.4966 -4.21717 0
M  V30 1482 N 159.767 -4.35145 -3.55816 0
M  V30 1483 H 151.918 -2.08398 -0.410391 0
M  V30 1484 H 154.181 -0.916031 -0.244114 0
M  V30 1485 H 153.887 -3.19765 -1.46434 0
M  V30 1486 H 153.761 -2.31672 -2.97671 0
M  V30 1487 H 156.148 -1.40015 -2.59769 0
M  V30 1488 H 156.229 -2.31605 -1.08594 0
M  V30 1489 H 155.873 -4.47553 -2.40123 0
M  V30 1490 H 155.803 -3.5288 -3.90875 0
M  V30 1491 H 158.294 -2.81743 -2.51852 0
M  V30 1492 H 158.607 -6.15943 -4.66727 0
M  V30 1493 H 156.952 -5.53514 -4.20294 0
M  V30 1494 H 160.143 -3.5455 -3.05634 0
M  V30 1495 H 160.316 -5.06934 -4.03636 0
M  V30 1496 N 153.722 1.14298 -1.08507 0
M  V30 1497 C 154.968 1.85633 -0.816581 0
M  V30 1498 C 155.301 1.82784 0.656021 0
M  V30 1499 O 154.576 1.25926 1.48233 0
M  V30 1500 C 154.859 3.34223 -1.34041 0
M  V30 1501 C 154.712 3.45639 -2.87843 0
M  V30 1502 C 156.031 4.29356 -0.9665 0
M  V30 1503 H 153.15 0.67402 -0.298104 0
M  V30 1504 H 155.792 1.34214 -1.34487 0
M  V30 1505 H 153.942 3.78144 -0.89104 0
M  V30 1506 H 155.614 3.10498 -3.41158 0
M  V30 1507 H 153.857 2.86817 -3.25451 0
M  V30 1508 H 154.528 4.50089 -3.19569 0
M  V30 1509 H 157.004 3.93457 -1.35391 0
M  V30 1510 H 155.88 5.3178 -1.3602 0
M  V30 1511 H 156.141 4.41919 0.126362 0
M  V30 1512 N 155.201 0.870884 1.31352 0
M  V30 1513 C 156.111 0.330783 2.32256 0
M  V30 1514 C 157.127 -0.559767 1.6475 0
M  V30 1515 O 158.303 -0.456263 1.96164 0
M  V30 1516 C 155.368 -0.458137 3.4366 0
M  V30 1517 C 154.429 0.460482 4.26823 0
M  V30 1518 C 153.662 -0.290881 5.32907 0
M  V30 1519 O 153.885 -1.51885 5.49806 0
M  V30 1520 O 152.819 0.351732 6.00871 0
M  V30 1521 H 156.645 1.16718 2.80376 0
M  V30 1522 H 154.23 0.634285 1.35267 0
M  V30 1523 H 156.112 -0.905343 4.1156 0
M  V30 1524 H 154.787 -1.27106 2.97701 0
M  V30 1525 H 153.694 0.956207 3.61673 0
M  V30 1526 H 155.027 1.23903 4.7635 0
M  V30 1527 N 156.679 -1.44442 0.630414 0
M  V30 1528 C 158.09 -1.85434 0.217063 0
M  V30 1529 C 158.441 -1.52748 -1.23136 0
M  V30 1530 O 157.566 -0.965205 -1.93682 0
M  V30 1531 C 158.161 -3.36581 0.387168 0
M  V30 1532 C 156.72 -3.76389 0.0283297 0
M  V30 1533 C 155.867 -2.68296 0.700889 0
M  V30 1534 H 158.818 -1.34919 0.83562 0
M  V30 1535 H 158.839 -3.78657 -0.374086 0
M  V30 1536 H 158.351 -3.60339 1.44144 0
M  V30 1537 H 156.452 -3.58246 -1.02423 0
M  V30 1538 H 156.565 -4.77095 0.437892 0
M  V30 1539 H 154.929 -2.54335 0.136267 0
M  V30 1540 H 155.712 -2.94887 1.75774 0
M  V30 1541 N 158.157 -0.370918 -1.53173 0
M  V30 1542 C 159.573 -0.0200818 -1.59587 0
M  V30 1543 C 159.773 1.46279 -1.38581 0
M  V30 1544 O 158.829 2.22506 -1.19363 0
M  V30 1545 C 160.142 -0.4808 -2.96831 0
M  V30 1546 C 161.69 -0.435477 -3.09956 0
M  V30 1547 C 162.165 -0.872092 -4.4962 0
M  V30 1548 N 163.656 -0.827364 -4.55751 0
M  V30 1549 C 164.391 -1.13683 -5.62018 0
M  V30 1550 N 163.887 -1.51584 -6.76014 0
M  V30 1551 N 165.68 -1.05927 -5.52029 0
M  V30 1552 H 157.831 -1.33652 -1.65079 0
M  V30 1553 H 160.094 -0.546634 -0.774529 0
M  V30 1554 H 159.8 -1.51577 -3.1736 0
M  V30 1555 H 159.674 0.129796 -3.76977 0
M  V30 1556 H 162.061 0.590371 -2.89134 0
M  V30 1557 H 162.142 -1.08164 -2.31806 0
M  V30 1558 H 161.786 -1.89608 -4.71181 0
M  V30 1559 H 161.716 -0.203127 -5.26208 0
M  V30 1560 H 164.207 -0.548216 -3.73902 0
M  V30 1561 H 164.52 -1.73609 -7.53047 0
M  V30 1562 H 162.865 -1.55454 -6.77391 0
M  V30 1563 H 166.056 -0.762321 -4.61851 0
M  V30 1564 H 166.229 -1.30378 -6.34749 0
M  V30 1565 N 159.635 1.57281 -0.100228 0
M  V30 1566 C 160.565 2.17328 0.853857 0
M  V30 1567 C 161.546 1.10804 1.2906 0
M  V30 1568 O 162.731 1.38963 1.35657 0
M  V30 1569 C 159.861 2.75772 2.11109 0
M  V30 1570 C 158.815 3.87713 1.81279 0
M  V30 1571 C 158.141 4.32882 3.13874 0
M  V30 1572 C 159.441 5.10677 1.09574 0
M  V30 1573 H 161.135 2.97305 0.353545 0
M  V30 1574 H 158.681 1.43009 0.168612 0
M  V30 1575 H 160.634 3.16433 2.78296 0
M  V30 1576 H 159.358 1.93057 2.63432 0
M  V30 1577 H 158.017 3.476 1.16489 0
M  V30 1578 H 157.665 3.47051 3.64095 0
M  V30 1579 H 157.365 5.08358 2.94696 0
M  V30 1580 H 158.889 4.7618 3.82211 0
M  V30 1581 H 160.303 5.48474 1.66879 0
M  V30 1582 H 158.7 5.91615 1.00557 0
M  V30 1583 H 159.77 4.84835 0.0793299 0
M  V30 1584 N 161.113 -0.173488 1.56642 0
M  V30 1585 C 162.076 -1.19859 1.95362 0
M  V30 1586 C 163.076 -1.37296 0.83704 0
M  V30 1587 O 164.266 -1.34739 1.10413 0
M  V30 1588 C 161.398 -2.56405 2.24654 0
M  V30 1589 H 162.591 -0.867062 2.87092 0
M  V30 1590 H 160.144 -0.415853 1.50666 0
M  V30 1591 H 160.879 -2.94576 1.35631 0
M  V30 1592 H 160.664 -2.45115 3.06041 0
M  V30 1593 H 162.154 -3.30287 2.5554 0
M  V30 1594 N 162.591 -1.51276 -0.441967 0
M  V30 1595 C 163.819 -1.67516 -1.21434 0
M  V30 1596 C 164.234 -0.37055 -1.85128 0
M  V30 1597 O 163.591 0.650498 -1.70513 0
M  V30 1598 C 163.642 -2.78748 -2.30177 0
M  V30 1599 O 163.363 -4.04154 -1.69089 0
M  V30 1600 C 164.864 -3.06217 -3.20541 0
M  V30 1601 H 162.084 -0.562276 -0.366178 0
M  V30 1602 H 164.628 -1.97666 -0.524244 0
M  V30 1603 H 162.783 -2.5121 -2.94911 0
M  V30 1604 H 163.197 -4.65894 -2.40922 0
M  V30 1605 H 164.671 -3.8764 -3.92987 0
M  V30 1606 H 165.148 -2.18439 -3.81026 0
M  V30 1607 H 165.754 -3.35397 -2.61513 0
M  V30 1608 N 164.069 0.697108 -1.41344 0
M  V30 1609 C 165.032 1.79281 -1.42797 0
M  V30 1610 C 166.032 1.57607 -0.318837 0
M  V30 1611 O 167.222 1.64309 -0.578642 0
M  V30 1612 C 164.354 3.17632 -1.23785 0
M  V30 1613 H 165.547 1.79385 -2.40335 0
M  V30 1614 H 163.1 0.904582 -1.27464 0
M  V30 1615 H 163.835 3.23167 -0.270814 0
M  V30 1616 H 163.62 3.34765 -2.04144 0
M  V30 1617 H 165.11 3.97617 -1.27633 0
M  V30 1618 N 165.547 1.27147 0.931209 0
M  V30 1619 C 166.51 1.09615 2.01289 0
M  V30 1620 C 167.51 0.0412581 1.60747 0
M  V30 1621 O 168.7 0.285545 1.71844 0
M  V30 1622 C 165.832 0.669447 3.34262 0
M  V30 1623 H 167.025 2.05662 2.18273 0
M  V30 1624 H 164.578 1.09885 1.11153 0
M  V30 1625 H 165.313 -0.292572 3.22978 0
M  V30 1626 H 165.098 1.43127 3.65044 0
M  V30 1627 H 166.588 0.568921 4.13706 0
M  V30 1628 N 167.025 -1.13721 1.09112 0
M  V30 1629 C 168.25 -1.89314 0.847053 0
M  V30 1630 C 168.675 -1.78416 -0.595774 0
M  V30 1631 O 168.033 -1.12942 -1.41823 0
M  V30 1632 C 168.081 -3.3701 1.28284 0
M  V30 1633 O 167.185 -4.10054 0.439267 0
M  V30 1634 H 166.526 -0.588745 0.307044 0
M  V30 1635 H 169.056 -1.43902 1.45442 0
M  V30 1636 H 169.066 -3.87834 1.26683 0
M  V30 1637 H 167.741 -3.4426 2.33363 0
M  V30 1638 H 166.318 -3.69266 0.519312 0
M  V30 1639 N 168.503 -0.877838 -1.30888 0
M  V30 1640 C 169.919 -0.570844 -1.49042 0
M  V30 1641 C 170.119 0.893159 -1.80624 0
M  V30 1642 O 169.175 1.67485 -1.88958 0
M  V30 1643 C 170.488 -1.47784 -2.61878 0
M  V30 1644 C 172.036 -1.48071 -2.75761 0
M  V30 1645 C 172.511 -2.37347 -3.91702 0
M  V30 1646 N 174.002 -2.35271 -3.99001 0
M  V30 1647 C 174.737 -3.01063 -4.88004 0
M  V30 1648 N 174.233 -3.76055 -5.81854 0
M  V30 1649 N 176.026 -2.90332 -4.81315 0
M  V30 1650 H 168.177 -1.82502 -1.0866 0
M  V30 1651 H 170.44 -0.780797 -0.537644 0
M  V30 1652 H 170.146 -2.51993 -2.45341 0
M  V30 1653 H 170.02 -1.18215 -3.58197 0
M  V30 1654 H 172.407 -0.446166 -2.91708 0
M  V30 1655 H 172.488 -1.81668 -1.80085 0
M  V30 1656 H 172.132 -3.40883 -3.76512 0
M  V30 1657 H 172.062 -2.01071 -4.86701 0
M  V30 1658 H 174.553 -1.80768 -3.3186 0
M  V30 1659 H 174.866 -4.23366 -6.46514 0
M  V30 1660 H 173.211 -3.80163 -5.81808 0
M  V30 1661 H 176.402 -2.31278 -4.06974 0
M  V30 1662 H 176.575 -3.41885 -5.50471 0
M  V30 1663 N 169.982 1.44106 -0.638065 0
M  V30 1664 C 170.892 2.34513 0.0637334 0
M  V30 1665 C 171.908 1.53018 0.828346 0
M  V30 1666 O 173.084 1.85723 0.779036 0
M  V30 1667 C 170.149 3.31095 1.02844 0
M  V30 1668 C 169.21 4.28497 0.26244 0
M  V30 1669 C 168.443 5.20465 1.1812 0
M  V30 1670 O 168.666 5.16514 2.42011 0
M  V30 1671 O 167.6 5.98251 0.661774 0
M  V30 1672 H 171.426 2.95989 -0.68003 0
M  V30 1673 H 169.011 1.43994 -0.398252 0
M  V30 1674 H 170.893 3.90526 1.58327 0
M  V30 1675 H 169.568 2.72144 1.7527 0
M  V30 1676 H 168.475 3.72592 -0.335602 0
M  V30 1677 H 169.808 4.90388 -0.421936 0
M  V30 1678 N 171.46 0.379036 1.52974 0
M  V30 1679 C 172.708 -0.206014 2.01047 0
M  V30 1680 C 173.029 -1.48175 1.26765 0
M  V30 1681 O 172.299 -1.92085 0.384743 0
M  V30 1682 H 170.879 -0.0791184 0.742798 0
M  V30 1683 H 173.541 0.508366 1.88153 0
M  V30 1684 H 172.637 -0.423501 3.09213 0
M  V30 1685 N 172.938 -1.57226 0.108567 0
M  V30 1686 C 173.901 -2.13602 -0.831082 0
M  V30 1687 C 174.901 -1.06841 -1.20173 0
M  V30 1688 O 176.091 -1.32666 -1.12895 0
M  V30 1689 C 173.223 -2.66769 -2.12243 0
M  V30 1690 H 174.416 -2.97951 -0.341317 0
M  V30 1691 H 171.969 -1.55667 -0.14057 0
M  V30 1692 H 172.704 -1.85977 -2.65675 0
M  V30 1693 H 172.489 -3.44839 -1.86625 0
M  V30 1694 H 173.979 -3.10332 -2.79435 0
M  V30 1695 N 174.416 0.165178 -1.56732 0
M  V30 1696 C 175.664 0.879068 -1.8198 0
M  V30 1697 C 175.985 1.82514 -0.686561 0
M  V30 1698 O 175.255 1.93694 0.293146 0
M  V30 1699 H 173.835 0.327608 -0.671329 0
M  V30 1700 H 176.497 0.163526 -1.94213 0
M  V30 1701 H 175.593 1.45228 -2.76252 0
M  V30 1702 N 175.894 1.51508 0.433938 0
M  V30 1703 C 176.824 1.76016 1.53429 0
M  V30 1704 C 177.805 0.610112 1.58782 0
M  V30 1705 O 178.99 0.853177 1.74455 0
M  V30 1706 C 176.12 1.88831 2.9148 0
M  V30 1707 C 175.074 3.04288 3.00987 0
M  V30 1708 C 174.4 3.0229 4.4105 0
M  V30 1709 C 175.7 4.44193 2.74754 0
M  V30 1710 H 177.394 2.68152 1.33171 0
M  V30 1711 H 174.94 1.29035 0.639214 0
M  V30 1712 H 176.893 2.04559 3.6842 0
M  V30 1713 H 175.617 0.933455 3.12976 0
M  V30 1714 H 174.276 2.8827 2.26486 0
M  V30 1715 H 173.924 2.04576 4.59519 0
M  V30 1716 H 173.624 3.79822 4.4834 0
M  V30 1717 H 175.148 3.20116 5.1996 0
M  V30 1718 H 176.562 4.60544 3.41426 0
M  V30 1719 H 174.959 5.23457 2.9345 0
M  V30 1720 H 176.029 4.53996 1.70339 0
M  V30 1721 N 177.372 -0.689602 1.41712 0
M  V30 1722 C 178.783 -1.26973 1.36875 0
M  V30 1723 C 179.134 -1.96124 0.054748 0
M  V30 1724 O 178.259 -1.99141 -0.84687 0
M  V30 1725 C 178.854 -2.30912 2.47922 0
M  V30 1726 C 177.413 -2.84486 2.46464 0
M  V30 1727 C 176.56 -1.58603 2.27465 0
M  V30 1728 H 179.511 -0.48396 1.51141 0
M  V30 1729 H 179.532 -3.12331 2.17323 0
M  V30 1730 H 179.044 -1.80554 3.43543 0
M  V30 1731 H 177.145 -3.39005 1.54617 0
M  V30 1732 H 177.258 -3.34511 3.42986 0
M  V30 1733 H 175.622 -1.84632 1.75451 0
M  V30 1734 H 176.405 -1.10233 3.25121 0
M  V30 1735 N 178.85 -1.27639 -0.924453 0
M  V30 1736 C 180.266 -1.05113 -1.20097 0
M  V30 1737 C 180.466 0.213262 -2.00368 0
M  V30 1738 O 179.522 0.91787 -2.35226 0
M  V30 1739 C 180.835 -2.29244 -1.94596 0
M  V30 1740 C 182.383 -2.34315 -2.07522 0
M  V30 1741 C 182.858 -3.58183 -2.85427 0
M  V30 1742 N 184.349 -3.5876 -2.92994 0
M  V30 1743 C 185.084 -4.51277 -3.53746 0
M  V30 1744 N 184.58 -5.54102 -4.15863 0
M  V30 1745 N 186.373 -4.38894 -3.51181 0
M  V30 1746 H 178.524 -2.08821 -0.388264 0
M  V30 1747 H 180.787 -0.918568 -0.234385 0
M  V30 1748 H 180.493 -3.21301 -1.43034 0
M  V30 1749 H 180.367 -2.34816 -2.95197 0
M  V30 1750 H 182.754 -1.42762 -2.58269 0
M  V30 1751 H 182.835 -2.32744 -1.06131 0
M  V30 1752 H 182.479 -4.50074 -2.35363 0
M  V30 1753 H 182.409 -3.57006 -3.8711 0
M  V30 1754 H 184.9 -2.84398 -2.4885 0
M  V30 1755 H 185.213 -6.20859 -4.60168 0
M  V30 1756 H 183.558 -5.57941 -4.144 0
M  V30 1757 H 186.749 -3.57772 -3.01856 0
M  V30 1758 H 186.922 -5.11186 -3.98237 0
M  V30 1759 N 180.328 1.1314 -1.09713 0
M  V30 1760 C 181.291 2.16831 -0.742751 0
M  V30 1761 C 182.291 1.59159 0.229129 0
M  V30 1762 O 183.481 1.74199 0.00693237 0
M  V30 1763 C 180.613 3.40756 -0.0989168 0
M  V30 1764 H 181.806 2.49695 -1.66109 0
M  V30 1765 H 179.359 1.2802 -0.896699 0
M  V30 1766 H 180.094 3.13485 0.830514 0
M  V30 1767 H 179.879 3.83888 -0.798265 0
M  V30 1768 H 181.369 4.17386 0.133524 0
M  V30 1769 N 181.806 0.884767 1.30421 0
M  V30 1770 C 182.716 0.355398 2.31892 0
M  V30 1771 C 183.732 -0.542261 1.65335 0
M  V30 1772 O 184.908 -0.435432 1.96637 0
M  V30 1773 C 181.973 -0.421661 3.44126 0
M  V30 1774 C 181.034 0.505727 4.26311 0
M  V30 1775 C 180.267 -0.234343 5.33185 0
M  V30 1776 O 180.49 -1.46045 5.51386 0
M  V30 1777 O 179.424 0.415443 6.00465 0
M  V30 1778 H 183.25 1.19685 2.79122 0
M  V30 1779 H 180.835 0.648596 1.34587 0
M  V30 1780 H 182.717 -0.861641 4.12497 0
M  V30 1781 H 181.392 -1.23942 2.99032 0
M  V30 1782 H 180.299 0.994513 3.60639 0
M  V30 1783 H 181.632 1.28948 4.75009 0
M  V30 1784 N 183.284 -1.43765 0.645699 0
M  V30 1785 C 184.53 -2.02197 0.156271 0
M  V30 1786 C 184.863 -1.50776 -1.22393 0
M  V30 1787 O 184.138 -0.697771 -1.81553 0
M  V30 1788 C 184.421 -3.59749 0.158872 0
M  V30 1789 C 184.274 -4.21419 1.57245 0
M  V30 1790 C 185.593 -4.37149 -0.50879 0
M  V30 1791 H 182.712 -0.734694 0.0582602 0
M  V30 1792 H 185.354 -1.71157 0.824951 0
M  V30 1793 H 183.504 -3.86325 -0.410525 0
M  V30 1794 H 185.176 -4.059 2.19186 0
M  V30 1795 H 183.419 -3.78356 2.122 0
M  V30 1796 H 184.09 -5.30482 1.52619 0
M  V30 1797 H 186.566 -4.16093 -0.024412 0
M  V30 1798 H 185.442 -5.4683 -0.476213 0
M  V30 1799 H 185.703 -4.12839 -1.58165 0
M  V30 1800 N 184.763 -0.387143 -1.52771 0
M  V30 1801 C 185.726 0.436939 -2.24997 0
M  V30 1802 C 186.726 0.991991 -1.26555 0
M  V30 1803 O 187.916 0.874335 -1.50669 0
M  V30 1804 C 185.048 1.61281 -3.00335 0
M  V30 1805 H 186.241 -0.195365 -2.99263 0
M  V30 1806 H 183.794 -0.139218 -1.55679 0
M  V30 1807 H 184.529 2.2826 -2.30364 0
M  V30 1808 H 184.314 1.22154 -3.72587 0
M  V30 1809 H 185.804 2.19629 -3.5518 0
M  V30 1810 N 186.241 1.57166 -0.116904 0
M  V30 1811 C 187.204 2.14039 0.819742 0
M  V30 1812 C 188.204 1.07477 1.19605 0
M  V30 1813 O 189.394 1.33263 1.1219 0
M  V30 1814 C 186.526 2.67891 2.10826 0
M  V30 1815 H 187.719 2.98128 0.325511 0
M  V30 1816 H 185.272 1.55739 0.132312 0
M  V30 1817 H 186.007 1.87384 2.64685 0
M  V30 1818 H 185.792 3.45823 1.84793 0
M  V30 1819 H 187.282 3.11809 2.77785 0
M  V30 1820 N 187.719 -0.156864 1.56817 0
M  V30 1821 C 188.967 -0.869404 1.82444 0
M  V30 1822 C 189.288 -1.82147 0.69623 0
M  V30 1823 O 188.558 -1.93847 -0.28287 0
M  V30 1824 H 187.138 -0.324043 0.673056 0
M  V30 1825 H 189.8 -0.153224 1.94297 0
M  V30 1826 H 188.896 -1.43761 2.77019 0
M  V30 1827 N 189.197 -1.51736 -0.425897 0
M  V30 1828 C 190.422 -1.69082 -1.20108 0
M  V30 1829 C 190.847 -0.392398 -1.83962 0
M  V30 1830 O 190.205 0.64858 -1.69302 0
M  V30 1831 C 190.253 -2.81604 -2.25237 0
M  V30 1832 O 189.357 -2.46004 -3.30992 0
M  V30 1833 H 188.698 -0.563408 -0.35138 0
M  V30 1834 H 191.228 -1.98358 -0.501512 0
M  V30 1835 H 191.238 -3.06025 -2.69838 0
M  V30 1836 H 189.913 -3.75817 -1.78142 0
M  V30 1837 H 188.49 -2.32195 -2.91787 0
M  V30 1838 N 190.675 0.682077 -1.42076 0
M  V30 1839 C 191.923 1.4393 -1.41876 0
M  V30 1840 C 192.244 1.94971 -0.0335599 0
M  V30 1841 O 191.514 1.72591 0.926773 0
M  V30 1842 H 190.094 0.534085 -0.522267 0
M  V30 1843 H 192.756 0.806427 -1.77434 0
M  V30 1844 H 191.852 2.29588 -2.11414 0
M  V30 1845 N 192.153 1.28127 0.917671 0
M  V30 1846 C 193.569 1.05749 1.19538 0
M  V30 1847 C 193.769 -0.202633 2.00479 0
M  V30 1848 O 192.825 -0.905382 2.3571 0
M  V30 1849 C 194.138 2.30273 1.93378 0
M  V30 1850 C 195.686 2.35412 2.06277 0
M  V30 1851 C 196.161 3.59692 2.83524 0
M  V30 1852 N 197.652 3.60309 2.91087 0
M  V30 1853 C 198.387 4.53147 3.51348 0
M  V30 1854 N 197.883 5.563 4.12919 0
M  V30 1855 N 199.676 4.40751 3.48849 0
M  V30 1856 H 191.827 2.09024 0.377184 0
M  V30 1857 H 194.09 0.919798 0.22951 0
M  V30 1858 H 193.796 3.22055 1.41328 0
M  V30 1859 H 193.67 2.36378 2.93947 0
M  V30 1860 H 196.057 1.4413 2.57508 0
M  V30 1861 H 196.138 2.33304 1.04895 0
M  V30 1862 H 195.782 4.51316 2.32973 0
M  V30 1863 H 195.712 3.59054 3.85211 0
M  V30 1864 H 198.203 2.85714 2.47338 0
M  V30 1865 H 198.516 6.2329 4.56869 0
M  V30 1866 H 196.861 5.60131 4.11435 0
M  V30 1867 H 200.052 3.59367 2.99955 0
M  V30 1868 H 200.225 5.13291 3.9552 0
M  V30 1869 N 193.631 -1.12557 1.10312 0
M  V30 1870 C 194.879 -1.83675 0.843091 0
M  V30 1871 C 195.2 -1.84435 -0.633131 0
M  V30 1872 O 194.47 -1.30657 -1.45964 0
M  V30 1873 H 193.05 -0.680138 0.308904 0
M  V30 1874 H 195.712 -1.36301 1.39313 0
M  V30 1875 H 194.808 -2.87908 1.2048 0
M  V30 1876 N 195.109 -0.891671 -1.2995 0
M  V30 1877 C 196.072 -0.36828 -2.26222 0
M  V30 1878 C 197.072 0.493014 -1.53056 0
M  V30 1879 O 198.262 0.299213 -1.71611 0
M  V30 1880 C 195.394 0.47442 -3.37583 0
M  V30 1881 H 196.587 -1.21844 -2.74033 0
M  V30 1882 H 194.14 -0.669107 -1.41254 0
M  V30 1883 H 194.875 1.34489 -2.95099 0
M  V30 1884 H 194.66 -0.142615 -3.91841 0
M  V30 1885 H 196.15 0.83218 -4.09224 0
M  V30 1886 N 196.587 1.43421 -0.653314 0
M  V30 1887 C 198.003 1.56341 -0.320886 0
M  V30 1888 C 198.203 1.63696 1.17499 0
M  V30 1889 O 197.259 1.59208 1.95982 0
M  V30 1890 C 198.572 2.82424 -1.03233 0
M  V30 1891 C 200.12 2.96168 -1.01259 0
M  V30 1892 C 200.595 4.25084 -1.70492 0
M  V30 1893 N 202.086 4.31948 -1.67257 0
M  V30 1894 C 202.821 5.30466 -2.17701 0
M  V30 1895 N 202.317 6.35261 -2.76434 0
M  V30 1896 N 204.11 5.2212 -2.082 0
M  V30 1897 H 196.261 1.3689 -1.62403 0
M  V30 1898 H 198.524 0.657455 -0.682977 0
M  V30 1899 H 198.23 2.83053 -2.08744 0
M  V30 1900 H 198.104 3.72653 -0.583948 0
M  V30 1901 H 200.491 2.9508 0.0341235 0
M  V30 1902 H 200.572 2.07229 -1.49966 0
M  V30 1903 H 200.216 4.26932 -2.7512 0
M  V30 1904 H 200.146 5.1292 -1.19251 0
M  V30 1905 H 202.637 3.56838 -1.24398 0
M  V30 1906 H 202.95 7.06754 -3.12601 0
M  V30 1907 H 201.295 6.35884 -2.80495 0
M  V30 1908 H 204.486 4.39166 -1.62021 0
M  V30 1909 H 204.659 5.98739 -2.47822 0
M  V30 1910 N 198.065 0.39524 1.52563 0
M  V30 1911 C 199.29 -0.187456 2.06551 0
M  V30 1912 C 199.715 -1.39249 1.26457 0
M  V30 1913 O 199.073 -1.78947 0.291151 0
M  V30 1914 C 199.121 -0.529985 3.56684 0
M  V30 1915 O 198.225 -1.62307 3.79118 0
M  V30 1916 H 197.566 -0.0202537 0.663691 0
M  V30 1917 H 200.096 0.564426 1.96661 0
M  V30 1918 H 200.106 -0.792598 4.00227 0
M  V30 1919 H 198.781 0.350987 4.14416 0
M  V30 1920 H 197.358 -1.3537 3.47461 0
M  V30 1921 N 199.544 -1.57102 0.125237 0
M  V30 1922 C 200.792 -1.95021 -0.530198 0
M  V30 1923 C 201.113 -1.00982 -1.66816 0
M  V30 1924 O 200.383 -0.0672693 -1.95784 0
M  V30 1925 H 198.963 -0.720046 -0.198853 0
M  V30 1926 H 201.625 -1.93916 0.19564 0
M  V30 1927 H 200.721 -2.98211 -0.920681 0
M  V30 1928 N 201.022 0.148545 -1.56898 0
M  V30 1929 C 201.932 1.20293 -2.01412 0
M  V30 1930 C 202.948 1.47107 -0.929273 0
M  V30 1931 O 204.124 1.58807 -1.23863 0
M  V30 1932 C 201.189 2.51682 -2.38447 0
M  V30 1933 C 200.25 2.32529 -3.60872 0
M  V30 1934 C 199.483 3.57653 -3.96132 0
M  V30 1935 O 199.706 4.63771 -3.32073 0
M  V30 1936 O 198.64 3.50408 -4.89385 0
M  V30 1937 H 202.466 0.855025 -2.91416 0
M  V30 1938 H 200.051 0.357151 -1.45068 0
M  V30 1939 H 201.933 3.29147 -2.63135 0
M  V30 1940 H 200.608 2.86006 -1.51599 0
M  V30 1941 H 199.515 1.53019 -3.41373 0
M  V30 1942 H 200.848 2.03121 -4.48333 0
M  V30 1943 N 202.5 1.5196 0.417844 0
M  V30 1944 C 203.746 1.66793 1.16411 0
M  V30 1945 C 204.101 0.388758 1.88432 0
M  V30 1946 O 203.394 -0.616409 1.81414 0
M  V30 1947 C 203.588 2.82269 2.19223 0
M  V30 1948 C 203.417 4.21293 1.57297 0
M  V30 1949 C 202.187 4.86948 1.34944 0
M  V30 1950 C 204.385 5.03704 1.03858 0
M  V30 1951 N 202.367 6.1003 0.688195 0
M  V30 1952 C 203.738 6.1795 0.503742 0
M  V30 1953 C 205.793 4.89095 0.932203 0
M  V30 1954 C 204.496 7.19188 -0.127034 0
M  V30 1955 C 206.522 5.90559 0.315293 0
M  V30 1956 C 205.884 7.0409 -0.208906 0
M  V30 1957 H 201.983 0.66407 0.412959 0
M  V30 1958 H 204.567 1.89242 0.457772 0
M  V30 1959 H 202.738 2.61451 2.87225 0
M  V30 1960 H 204.47 2.86183 2.86149 0
M  V30 1961 H 201.225 4.45156 1.61657 0
M  V30 1962 H 201.649 6.75964 0.374449 0
M  V30 1963 H 206.291 4.01557 1.32332 0
M  V30 1964 H 204.009 8.06359 -0.530231 0
M  V30 1965 H 207.595 5.81327 0.234625 0
M  V30 1966 H 206.475 7.81257 -0.67875 0
M  V30 1967 N 203.978 -0.674533 1.42435 0
M  V30 1968 C 205.226 -1.43175 1.42637 0
M  V30 1969 C 205.547 -1.94951 0.0438992 0
M  V30 1970 O 204.817 -1.7308 -0.917607 0
M  V30 1971 H 203.397 -0.531307 0.525092 0
M  V30 1972 H 206.059 -0.797006 1.77859 0
M  V30 1973 H 205.155 -2.28463 2.12629 0
M  V30 1974 N 205.456 -1.28612 -0.910864 0
M  V30 1975 C 206.386 -1.15326 -2.03032 0
M  V30 1976 C 207.367 -0.0502924 -1.70026 0
M  V30 1977 O 208.552 -0.227797 -1.92859 0
M  V30 1978 C 205.682 -0.817343 -3.37545 0
M  V30 1979 C 204.636 -1.8754 -3.84724 0
M  V30 1980 C 203.962 -1.39305 -5.16235 0
M  V30 1981 C 205.262 -3.28244 -4.06267 0
M  V30 1982 H 206.956 -2.08975 -2.14406 0
M  V30 1983 H 204.502 -1.00612 -1.03021 0
M  V30 1984 H 206.455 -0.711151 -4.15356 0
M  V30 1985 H 205.179 0.154846 -3.26233 0
M  V30 1986 H 203.838 -1.97079 -3.09121 0
M  V30 1987 H 203.486 -0.409846 -5.01328 0
M  V30 1988 H 203.186 -2.10057 -5.48771 0
M  V30 1989 H 204.71 -1.30014 -5.96598 0
M  V30 1990 H 206.124 -3.21611 -4.74594 0
M  V30 1991 H 204.521 -3.96855 -4.5014 0
M  V30 1992 H 205.591 -3.72048 -3.10979 0
M  V30 1993 N 206.934 1.1197 -1.10907 0
M  V30 1994 C 207.897 2.16031 -0.765707 0
M  V30 1995 C 208.897 1.59393 0.212235 0
M  V30 1996 O 210.087 1.74196 -0.0115441 0
M  V30 1997 C 207.219 3.40632 -0.135053 0
M  V30 1998 H 208.412 2.47919 -1.68748 0
M  V30 1999 H 205.965 1.27061 -0.910226 0
M  V30 2000 H 206.7 3.14348 0.797218 0
M  V30 2001 H 206.485 3.8302 -0.838937 0
M  V30 2002 H 207.975 4.17505 0.0892469 0
M  V30 2003 N 208.412 0.89855 1.29475 0
M  V30 2004 C 209.375 0.380272 2.26023 0
M  V30 2005 C 210.375 -0.484891 1.53315 0
M  V30 2006 O 211.565 -0.290108 1.71767 0
M  V30 2007 C 208.697 -0.45651 3.3783 0
M  V30 2008 H 209.89 1.23295 2.73383 0
M  V30 2009 H 207.443 0.676589 1.40897 0
M  V30 2010 H 208.178 -1.32922 2.95808 0
M  V30 2011 H 207.963 0.163393 3.91759 0
M  V30 2012 H 209.453 -0.810466 4.0966 0
M  V30 2013 N 209.89 -1.43072 0.660911 0
M  V30 2014 C 210.853 -2.29194 -0.0166406 0
M  V30 2015 C 211.853 -1.42609 -0.742912 0
M  V30 2016 O 213.043 -1.64155 -0.583004 0
M  V30 2017 C 210.175 -3.24831 -1.0343 0
M  V30 2018 H 211.368 -2.90596 0.741208 0
M  V30 2019 H 208.921 -1.5048 0.422532 0
M  V30 2020 H 209.656 -2.68339 -1.82111 0
M  V30 2021 H 209.441 -3.88676 -0.517082 0
M  V30 2022 H 210.931 -3.89451 -1.50723 0
M  V30 2023 N 211.368 -0.403325 -1.52352 0
M  V30 2024 C 212.616 0.174003 -2.0135 0
M  V30 2025 C 212.937 1.46139 -1.29106 0
M  V30 2026 O 212.207 1.91448 -0.415253 0
M  V30 2027 H 210.787 0.0672911 -0.743963 0
M  V30 2028 H 213.449 -0.538235 -1.87321 0
M  V30 2029 H 212.545 0.374254 -3.09848 0
M  V30 2030 N 212.846 1.57033 -0.133567 0
M  V30 2031 C 213.809 2.14897 0.796995 0
M  V30 2032 C 214.809 1.0874 1.18458 0
M  V30 2033 O 215.999 1.34446 1.1077 0
M  V30 2034 C 213.131 2.70112 2.07973 0
M  V30 2035 H 214.324 2.98457 0.293873 0
M  V30 2036 H 211.877 1.55871 0.115787 0
M  V30 2037 H 212.612 1.9018 2.62682 0
M  V30 2038 H 212.397 3.47764 1.81115 0
M  V30 2039 H 213.887 3.14738 2.74462 0
M  V30 2040 N 214.325 -0.140222 1.56975 0
M  V30 2041 C 215.571 -0.848084 1.84876 0
M  V30 2042 C 215.926 -1.78481 0.718481 0
M  V30 2043 O 215.219 -1.89497 -0.283093 0
M  V30 2044 C 215.413 -1.65386 3.16832 0
M  V30 2045 C 215.242 -0.79665 4.42587 0
M  V30 2046 C 214.012 -0.459648 5.03205 0
M  V30 2047 C 216.21 -0.12389 5.14151 0
M  V30 2048 N 214.192 0.410446 6.12526 0
M  V30 2049 C 215.563 0.606064 6.17031 0
M  V30 2050 C 217.618 -0.0452654 4.97879 0
M  V30 2051 C 216.321 1.40723 7.054 0
M  V30 2052 C 218.347 0.742658 5.86718 0
M  V30 2053 C 217.709 1.46087 6.89085 0
M  V30 2054 H 213.808 -0.287946 0.727056 0
M  V30 2055 H 216.392 -0.11304 1.94372 0
M  V30 2056 H 214.563 -2.36009 3.08471 0
M  V30 2057 H 216.295 -2.30541 3.32615 0
M  V30 2058 H 213.05 -0.797006 4.66846 0
M  V30 2059 H 213.474 0.836716 6.7181 0
M  V30 2060 H 218.116 -0.586184 4.18717 0
M  V30 2061 H 215.834 1.95938 7.83986 0
M  V30 2062 H 219.42 0.805574 5.76196 0
M  V30 2063 H 218.3 2.06077 7.56639 0
M  V30 2064 N 215.803 -1.52179 -0.40978 0
M  V30 2065 C 216.713 -1.78364 -1.52392 0
M  V30 2066 C 217.729 -0.669183 -1.60617 0
M  V30 2067 O 218.905 -0.954518 -1.77344 0
M  V30 2068 C 215.97 -1.92822 -2.88133 0
M  V30 2069 C 215.031 -3.16725 -2.898 0
M  V30 2070 C 214.264 -3.30483 -4.19067 0
M  V30 2071 O 214.487 -2.49522 -5.12928 0
M  V30 2072 O 213.421 -4.2363 -4.27576 0
M  V30 2073 H 217.247 -2.72931 -1.33201 0
M  V30 2074 H 214.832 -1.37016 -0.59557 0
M  V30 2075 H 216.714 -2.04157 -3.68643 0
M  V30 2076 H 215.389 -1.01444 -3.07393 0
M  V30 2077 H 214.296 -3.10848 -2.08146 0
M  V30 2078 H 215.629 -4.07881 -2.75489 0
M  V30 2079 N 217.281 0.66697 -1.42791 0
M  V30 2080 C 218.509 1.45505 -1.47091 0
M  V30 2081 C 218.924 1.8861 -0.0845873 0
M  V30 2082 O 218.281 1.58632 0.90234 0
M  V30 2083 C 218.332 2.69906 -2.40485 0
M  V30 2084 O 218.053 2.28608 -3.73725 0
M  V30 2085 C 219.554 3.63396 -2.53886 0
M  V30 2086 H 216.774 0.447459 -0.500022 0
M  V30 2087 H 219.318 0.818866 -1.8739 0
M  V30 2088 H 217.473 3.29696 -2.03419 0
M  V30 2089 H 217.887 3.08997 -4.23817 0
M  V30 2090 H 219.361 4.47387 -3.2334 0
M  V30 2091 H 219.838 4.09824 -1.57927 0
M  V30 2092 H 220.444 3.09495 -2.91706 0
M  V30 2093 N 218.759 1.29093 0.90403 0
M  V30 2094 C 219.692 1.08176 2.00931 0
M  V30 2095 C 220.67 -0.005083 1.62599 0
M  V30 2096 O 221.854 0.144765 1.87943 0
M  V30 2097 C 218.981 0.645897 3.32484 0
M  V30 2098 C 218.027 1.73081 3.89801 0
M  V30 2099 S 218.86 3.32905 4.19446 0
M  V30 2100 C 220.016 2.91176 5.54046 0
M  V30 2101 H 220.249 2.01752 2.18365 0
M  V30 2102 H 217.782 1.13191 1.0501 0
M  V30 2103 H 219.74 0.401131 4.08535 0
M  V30 2104 H 218.401 -0.270188 3.12936 0
M  V30 2105 H 217.594 1.37768 4.84805 0
M  V30 2106 H 217.196 1.92888 3.20422 0
M  V30 2107 H 219.488 2.37952 6.34338 0
M  V30 2108 H 220.431 3.85014 5.94281 0
M  V30 2109 H 220.839 2.296 5.15698 0
M  V30 2110 N 220.237 -1.11381 1.11499 0
M  V30 2111 C 221.187 -2.15555 0.74298 0
M  V30 2112 C 222.171 -1.58894 -0.253276 0
M  V30 2113 O 223.363 -1.76897 -0.0602918 0
M  V30 2114 C 220.492 -3.42782 0.188481 0
M  V30 2115 C 219.578 -4.064 1.21244 0
M  V30 2116 N 219.969 -4.44864 2.40685 0
M  V30 2117 C 218.267 -4.3333 1.05552 0
M  V30 2118 C 218.968 -4.94715 3.05994 0
M  V30 2119 N 217.944 -4.90909 2.33472 0
M  V30 2120 H 221.746 -2.43074 1.65203 0
M  V30 2121 H 219.26 -1.28401 0.994329 0
M  V30 2122 H 221.257 -4.16789 -0.0961693 0
M  V30 2123 H 219.917 -3.16727 -0.715149 0
M  V30 2124 H 220.928 -4.36876 2.78136 0
M  V30 2125 H 217.605 -4.1698 0.208372 0
M  V30 2126 H 218.995 -5.34103 4.07656 0
M  V30 2127 N 221.715 -0.905404 -1.28997 0
M  V30 2128 C 222.665 -0.358713 -2.25161 0
M  V30 2129 C 223.649 0.524449 -1.52113 0
M  V30 2130 O 224.841 0.365534 -1.73184 0
M  V30 2131 C 221.97 0.407609 -3.40872 0
M  V30 2132 C 221.056 -0.490797 -4.21251 0
M  V30 2133 N 221.447 -1.60061 -4.79806 0
M  V30 2134 C 219.745 -0.289636 -4.45059 0
M  V30 2135 C 220.446 -2.15757 -5.40207 0
M  V30 2136 N 219.422 -1.44988 -5.23908 0
M  V30 2137 H 223.224 -1.20642 -2.67998 0
M  V30 2138 H 220.738 -0.757103 -1.43672 0
M  V30 2139 H 222.735 0.816046 -4.08835 0
M  V30 2140 H 221.395 1.25251 -2.9957 0
M  V30 2141 H 222.406 -1.98329 -4.7842 0
M  V30 2142 H 219.083 0.51643 -4.14294 0
M  V30 2143 H 220.473 -3.09069 -5.96595 0
M  V30 2144 N 223.193 1.4272 -0.668489 0
M  V30 2145 C 224.433 2.03497 -0.19194 0
M  V30 2146 C 224.797 1.51684 1.17712 0
M  V30 2147 O 225.998 2.04205 1.74796 0
M  V30 2148 C 224.269 3.56734 -0.218032 0
M  V30 2149 S 225.828 4.38395 0.188438 0
M  V30 2150 H 222.646 0.706542 -0.0794959 0
M  V30 2151 H 225.248 1.74563 -0.880235 0
M  V30 2152 H 223.952 3.91943 -1.2169 0
M  V30 2153 H 223.483 3.90333 0.490303 0
M  V30 2154 H 225.498 4.75345 1.42345 0
M  V30 2155 N 224.671 0.411399 1.52136 0
M  V30 2156 C 225.618 -0.412975 2.27075 0
M  V30 2157 C 226.588 -1.03912 1.29582 0
M  V30 2158 O 227.773 -1.06296 1.58448 0
M  V30 2159 C 224.913 -1.52247 3.09701 0
M  V30 2160 C 224.026 -0.917021 4.22155 0
M  V30 2161 C 223.161 -1.9994 4.92135 0
M  V30 2162 C 222.2 -1.37101 5.96548 0
M  V30 2163 N 221.337 -2.39364 6.60038 0
M  V30 2164 H 226.177 0.232499 2.97092 0
M  V30 2165 H 223.714 0.126496 1.46555 0
M  V30 2166 H 225.672 -2.17674 3.55913 0
M  V30 2167 H 224.302 -2.13794 2.41851 0
M  V30 2168 H 223.354 -0.151742 3.80097 0
M  V30 2169 H 224.666 -0.418006 4.97045 0
M  V30 2170 H 223.82 -2.73088 5.41763 0
M  V30 2171 H 222.559 -2.53208 4.16818 0
M  V30 2172 H 221.564 -0.624873 5.46237 0
M  V30 2173 H 222.789 -0.845998 6.7381 0
M  V30 2174 H 220.735 -2.91759 5.87548 0
M  V30 2175 H 220.652 -1.9428 7.3061 0
M  V30 2176 H 221.92 -3.12074 7.14304 0
M  V30 2177 N 226.149 -1.5696 0.141893 0
M  V30 2178 C 227.565 -1.58151 -0.21456 0
M  V30 2179 C 227.765 -1.1559 -1.65049 0
M  V30 2180 O 226.821 -0.853832 -2.37626 0
M  V30 2181 C 228.134 -3.00674 0.0395576 0
M  V30 2182 C 229.682 -3.1299 -0.0245529 0
M  V30 2183 C 230.157 -4.57554 0.202167 0
M  V30 2184 N 231.648 -4.62961 0.148919 0
M  V30 2185 C 232.383 -5.7262 0.298924 0
M  V30 2186 N 231.879 -6.90947 0.50637 0
M  V30 2187 N 233.672 -5.61601 0.236886 0
M  V30 2188 H 225.823 -1.8292 1.07953 0
M  V30 2189 H 228.086 -0.846425 0.42693 0
M  V30 2190 H 227.792 -3.36183 1.03315 0
M  V30 2191 H 227.666 -3.70981 -0.682143 0
M  V30 2192 H 230.053 -2.77326 -1.00869 0
M  V30 2193 H 230.134 -2.4518 0.729396 0
M  V30 2194 H 229.778 -4.93922 1.18338 0
M  V30 2195 H 229.708 -5.23484 -0.572044 0
M  V30 2196 H 232.199 -3.77899 -0.00697015 0
M  V30 2197 H 232.512 -7.7038 0.611076 0
M  V30 2198 H 230.857 -6.92878 0.542628 0
M  V30 2199 H 234.048 -4.68039 0.0756209 0
M  V30 2200 H 234.221 -6.47015 0.357227 0
M  V30 2201 N 227.627 0.131896 -1.57047 0
M  V30 2202 C 228.857 0.855219 -1.88068 0
M  V30 2203 C 229.265 1.74557 -0.729817 0
M  V30 2204 O 228.608 1.81083 0.308962 0
M  V30 2205 C 228.67 1.75119 -3.13964 0
M  V30 2206 C 228.334 1.03646 -4.45091 0
M  V30 2207 C 229.331 0.383276 -5.18485 0
M  V30 2208 C 227.016 1.02148 -4.91804 0
M  V30 2209 C 229.01 -0.275347 -6.36805 0
M  V30 2210 C 226.697 0.359047 -6.10044 0
M  V30 2211 C 227.695 -0.288222 -6.82392 0
M  V30 2212 O 227.383 -0.94011 -7.98384 0
M  V30 2213 H 227.115 0.251864 -0.627328 0
M  V30 2214 H 229.669 0.124782 -2.05021 0
M  V30 2215 H 227.899 2.52295 -2.9306 0
M  V30 2216 H 229.588 2.3478 -3.31109 0
M  V30 2217 H 230.354 0.386562 -4.83457 0
M  V30 2218 H 226.233 1.5147 -4.35405 0
M  V30 2219 H 229.777 -0.781148 -6.93213 0
M  V30 2220 H 225.674 0.35348 -6.44531 0
M  V30 2221 H 226.442 -0.84329 -8.14144 0
M  V30 2222 N 229.106 1.52395 0.401703 0
M  V30 2223 C 230.522 1.41363 0.740864 0
M  V30 2224 C 230.722 0.523982 1.94568 0
M  V30 2225 O 229.778 -0.00741204 2.52499 0
M  V30 2226 C 231.091 2.84011 0.987847 0
M  V30 2227 C 232.639 2.93404 1.09011 0
M  V30 2228 C 233.114 4.37036 1.3698 0
M  V30 2229 N 234.605 4.40304 1.43829 0
M  V30 2230 C 235.34 5.48508 1.67112 0
M  V30 2231 N 234.836 6.66819 1.87949 0
M  V30 2232 N 236.629 5.36034 1.69187 0
M  V30 2233 H 228.78 2.08765 -0.391262 0
M  V30 2234 H 231.043 0.941265 -0.112798 0
M  V30 2235 H 230.749 3.51265 0.174835 0
M  V30 2236 H 230.623 3.25502 1.906 0
M  V30 2237 H 233.01 2.26325 1.8937 0
M  V30 2238 H 233.091 2.55359 0.15015 0
M  V30 2239 H 232.735 5.04676 0.571353 0
M  V30 2240 H 232.665 4.72623 2.3224 0
M  V30 2241 H 235.156 3.55024 1.29486 0
M  V30 2242 H 235.469 7.45063 2.05185 0
M  V30 2243 H 233.814 6.6987 1.85199 0
M  V30 2244 H 237.005 4.42579 1.52451 0
M  V30 2245 H 237.178 6.20434 1.86993 0
M  V30 2246 N 230.584 -0.659388 1.43143 0
M  V30 2247 C 231.809 -1.45221 1.48073 0
M  V30 2248 C 232.234 -1.87845 0.097995 0
M  V30 2249 O 231.592 -1.56985 -0.90694 0
M  V30 2250 C 231.64 -2.66748 2.42647 0
M  V30 2251 O 230.744 -3.65583 1.90848 0
M  V30 2252 H 230.085 -0.435669 0.501088 0
M  V30 2253 H 232.615 -0.807432 1.87994 0
M  V30 2254 H 232.625 -3.14637 2.59745 0
M  V30 2255 H 231.3 -2.35067 3.43098 0
M  V30 2256 H 229.877 -3.24693 1.83381 0
M  V30 2257 N 232.062 -1.29571 -0.897171 0
M  V30 2258 C 233.473 -1.15964 -1.46319 0
M  V30 2259 C 233.824 0.244267 -1.94674 0
M  V30 2260 O 232.949 1.13998 -1.83939 0
M  V30 2261 C 233.544 -2.09906 -2.65942 0
M  V30 2262 C 232.103 -2.00314 -3.18671 0
M  V30 2263 C 231.25 -2.00687 -1.91363 0
M  V30 2264 H 234.201 -1.42019 -0.708268 0
M  V30 2265 H 234.222 -1.67276 -3.41759 0
M  V30 2266 H 233.734 -3.12075 -2.30718 0
M  V30 2267 H 231.835 -1.01242 -3.58582 0
M  V30 2268 H 231.948 -2.88102 -3.82798 0
M  V30 2269 H 230.312 -1.45319 -2.09175 0
M  V30 2270 H 231.095 -3.04566 -1.58413 0
M  V30 2271 N 233.54 1.10788 -1.12088 0
M  V30 2272 C 234.45 2.20599 -0.798338 0
M  V30 2273 C 235.466 1.72712 0.21135 0
M  V30 2274 O 236.642 2.01348 0.0458477 0
M  V30 2275 C 233.707 3.45771 -0.253674 0
M  V30 2276 C 232.768 4.08411 -1.32283 0
M  V30 2277 C 232.001 5.27608 -0.80406 0
M  V30 2278 O 232.224 5.69241 0.363478 0
M  V30 2279 O 231.158 5.8101 -1.57198 0
M  V30 2280 H 234.984 2.50614 -1.7154 0
M  V30 2281 H 232.569 1.19454 -0.897275 0
M  V30 2282 H 234.451 4.21376 0.0453691 0
M  V30 2283 H 233.126 3.1739 0.636005 0
M  V30 2284 H 232.033 3.34507 -1.67499 0
M  V30 2285 H 233.366 4.40986 -2.18614 0
M  V30 2286 N 235.018 0.912232 1.28515 0
M  V30 2287 C 236.429 0.591352 1.77087 0
M  V30 2288 C 236.78 -0.8933 1.74684 0
M  V30 2289 O 235.905 -1.69876 1.34056 0
M  V30 2290 C 236.5 1.06668 3.2157 0
M  V30 2291 C 235.059 0.79675 3.67871 0
M  V30 2292 C 234.206 1.23427 2.48316 0
M  V30 2293 H 237.157 1.09365 1.15 0
M  V30 2294 H 237.178 0.407455 3.78312 0
M  V30 2295 H 236.69 2.14726 3.23287 0
M  V30 2296 H 234.791 -0.270679 3.71616 0
M  V30 2297 H 234.904 1.40343 4.58084 0
M  V30 2298 H 233.268 0.653036 2.46186 0
M  V30 2299 H 234.051 2.32316 2.52753 0
M  V30 2300 N 236.496 -1.42363 0.676048 0
M  V30 2301 C 237.773 -1.95183 0.127726 0
M  V30 2302 C 238.153 -1.61641 -1.35777 0
M  V30 2303 O 237.501 -0.913216 -2.09458 0
M  V30 2304 C 237.711 -3.46721 0.398199 0
M  V30 2305 C 239.059 -4.23427 0.315383 0
M  V30 2306 O 240.083 -3.54649 0.332016 0
M  V30 2307 O 238.942 -5.45888 0.25865 0
M  V30 2308 H 236.036 -0.826992 0.00359427 0
M  V30 2309 H 238.582 -1.52184 0.750864 0
M  V30 2310 H 237.354 -3.64344 1.4272 0
M  V30 2311 H 236.977 -3.96769 -0.256885 0
M  V30 2312 N 237.974 -0.419461 -1.51915 0
M  V30 2313 C 239.385 0.0477853 -1.86639 0
M  V30 2314 C 239.736 1.43531 -1.33766 0
M  V30 2315 O 238.861 2.05401 -0.68113 0
M  V30 2316 C 239.456 0.0934885 -3.38671 0
M  V30 2317 C 238.015 0.505097 -3.72996 0
M  V30 2318 C 237.162 -0.313792 -2.75519 0
M  V30 2319 H 240.113 -0.636088 -1.45395 0
M  V30 2320 H 240.134 0.906667 -3.6954 0
M  V30 2321 H 239.646 -0.916501 -3.77123 0
M  V30 2322 H 237.747 1.52135 -3.40126 0
M  V30 2323 H 237.86 0.242309 -4.78487 0
M  V30 2324 H 236.224 0.225363 -2.53701 0
M  V30 2325 H 237.007 -1.32232 -3.16812 0
M  V30 2326 N 239.452 1.56882 -0.150215 0
M  V30 2327 C 240.682 2.00302 0.506213 0
M  V30 2328 C 241.09 1.02934 1.58749 0
M  V30 2329 O 240.433 0.0188384 1.8369 0
M  V30 2330 C 240.495 3.40156 1.16337 0
M  V30 2331 C 240.159 4.56439 0.226311 0
M  V30 2332 C 241.156 5.17012 -0.547265 0
M  V30 2333 C 238.841 5.02136 0.128279 0
M  V30 2334 C 240.835 6.21693 -1.40629 0
M  V30 2335 C 238.522 6.06672 -0.734345 0
M  V30 2336 C 239.52 6.6632 -1.50023 0
M  V30 2337 O 239.208 7.68831 -2.34848 0
M  V30 2338 H 238.94 0.662182 0.135984 0
M  V30 2339 H 241.494 2.03961 -0.242746 0
M  V30 2340 H 239.724 3.33346 1.96004 0
M  V30 2341 H 241.413 3.67663 1.71985 0
M  V30 2342 H 242.179 4.82603 -0.48158 0
M  V30 2343 H 238.058 4.55435 0.714157 0
M  V30 2344 H 241.602 6.68179 -2.00455 0
M  V30 2345 H 237.499 6.40507 -0.801309 0
M  V30 2346 H 238.267 7.86065 -2.28131 0
M  V30 2347 N 240.93 -0.123565 1.57115 0
M  V30 2348 C 241.86 -1.15309 2.03042 0
M  V30 2349 C 242.841 -1.43454 0.914061 0
M  V30 2350 O 244.026 -1.53973 1.18347 0
M  V30 2351 C 241.156 -2.48043 2.43089 0
M  V30 2352 C 240.11 -2.3437 3.58127 0
M  V30 2353 C 239.436 -3.72026 3.84059 0
M  V30 2354 C 240.736 -1.80804 4.90007 0
M  V30 2355 H 242.43 -0.771102 2.893 0
M  V30 2356 H 239.976 -0.369479 1.39179 0
M  V30 2357 H 241.929 -3.20311 2.73823 0
M  V30 2358 H 240.653 -2.88122 1.53796 0
M  V30 2359 H 239.312 -1.64551 3.27595 0
M  V30 2360 H 238.96 -4.09582 2.91979 0
M  V30 2361 H 238.66 -3.63732 4.6149 0
M  V30 2362 H 240.184 -4.45806 4.1724 0
M  V30 2363 H 241.598 -2.42886 5.19307 0
M  V30 2364 H 239.995 -1.83343 5.71407 0
M  V30 2365 H 241.065 -0.76528 4.78823 0
M  V30 2366 N 242.408 -1.52605 -0.393616 0
M  V30 2367 C 243.633 -1.71592 -1.16495 0
M  V30 2368 C 244.058 -0.43133 -1.83088 0
M  V30 2369 O 243.416 0.612523 -1.7064 0
M  V30 2370 C 243.464 -2.86318 -2.19213 0
M  V30 2371 O 242.568 -2.52969 -3.257 0
M  V30 2372 H 241.909 -0.570734 -0.33935 0
M  V30 2373 H 244.439 -1.99377 -0.459324 0
M  V30 2374 H 244.449 -3.1168 -2.63286 0
M  V30 2375 H 243.124 -3.79511 -1.7013 0
M  V30 2376 H 241.701 -2.38332 -2.86797 0
M  V30 2377 N 243.887 0.651787 -1.4349 0
M  V30 2378 C 245.117 1.43728 -1.48411 0
M  V30 2379 C 245.525 1.8893 -0.10103 0
M  V30 2380 O 244.868 1.60182 0.899307 0
M  V30 2381 C 244.93 2.70411 -2.36893 0
M  V30 2382 C 244.594 2.4714 -3.8441 0
M  V30 2383 C 245.591 2.10271 -4.75481 0
M  V30 2384 C 243.276 2.6142 -4.28912 0
M  V30 2385 C 245.27 1.87982 -6.0905 0
M  V30 2386 C 242.957 2.38746 -5.62533 0
M  V30 2387 C 243.955 2.02083 -6.5242 0
M  V30 2388 O 243.643 1.79647 -7.8357 0
M  V30 2389 H 243.375 0.447962 -0.506267 0
M  V30 2390 H 245.929 0.80624 -1.88915 0
M  V30 2391 H 244.159 3.36079 -1.91278 0
M  V30 2392 H 245.848 3.32364 -2.33 0
M  V30 2393 H 246.614 1.98814 -4.42378 0
M  V30 2394 H 242.493 2.88931 -3.59222 0
M  V30 2395 H 246.037 1.5929 -6.7917 0
M  V30 2396 H 241.934 2.49806 -5.95203 0
M  V30 2397 H 242.702 1.9406 -7.95162 0
M  V30 2398 N 245.365 1.30045 0.890287 0
M  V30 2399 C 246.781 1.08261 1.17268 0
M  V30 2400 C 246.981 -0.160063 2.00863 0
M  V30 2401 O 246.037 -0.855181 2.37577 0
M  V30 2402 C 247.35 2.34323 1.8845 0
M  V30 2403 C 248.898 2.39735 2.01237 0
M  V30 2404 C 249.373 3.65625 2.7583 0
M  V30 2405 N 250.864 3.66402 2.83379 0
M  V30 2406 C 251.599 4.60498 3.41657 0
M  V30 2407 N 251.095 5.64933 4.01026 0
M  V30 2408 N 252.888 4.48051 3.39421 0
M  V30 2409 H 245.039 2.09777 0.332762 0
M  V30 2410 H 247.302 0.92446 0.209948 0
M  V30 2411 H 247.008 3.2498 1.34465 0
M  V30 2412 H 246.882 2.4256 2.88867 0
M  V30 2413 H 249.269 1.4956 2.54393 0
M  V30 2414 H 249.35 2.35476 0.999232 0
M  V30 2415 H 248.994 4.56156 2.23347 0
M  V30 2416 H 248.924 3.67144 3.77509 0
M  V30 2417 H 251.415 2.90896 2.41222 0
M  V30 2418 H 251.728 6.32841 4.43545 0
M  V30 2419 H 250.073 5.68732 3.99461 0
M  V30 2420 H 253.264 3.65649 2.92264 0
M  V30 2421 H 253.437 5.21565 3.84544 0
M  V30 2422 N 246.843 -1.10192 1.12674 0
M  V30 2423 C 248.089 -1.82658 0.894847 0
M  V30 2424 C 248.444 -1.83666 -0.573107 0
M  V30 2425 O 247.737 -1.28816 -1.41835 0
M  V30 2426 C 247.931 -3.28552 1.4067 0
M  V30 2427 C 247.76 -3.41756 2.92289 0
M  V30 2428 C 246.53 -3.54021 3.60551 0
M  V30 2429 C 248.728 -3.34949 3.90274 0
M  V30 2430 N 246.71 -3.55827 5.0026 0
M  V30 2431 C 248.081 -3.43531 5.16127 0
M  V30 2432 C 250.136 -3.18565 3.8265 0
M  V30 2433 C 248.839 -3.37416 6.3525 0
M  V30 2434 C 250.865 -3.13772 5.01299 0
M  V30 2435 C 250.227 -3.22938 6.26012 0
M  V30 2436 H 246.326 -0.683044 0.380756 0
M  V30 2437 H 248.91 -1.31752 1.43351 0
M  V30 2438 H 247.081 -3.77946 0.895055 0
M  V30 2439 H 248.813 -3.88991 1.11661 0
M  V30 2440 H 245.568 -3.57135 3.1105 0
M  V30 2441 H 245.992 -3.60335 5.73138 0
M  V30 2442 H 250.634 -3.10354 2.87124 0
M  V30 2443 H 248.352 -3.44391 7.3104 0
M  V30 2444 H 251.938 -3.02242 4.97133 0
M  V30 2445 H 250.818 -3.19235 7.16281 0
M  V30 2446 N 248.321 -0.919034 -1.28029 0
M  V30 2447 C 249.268 -0.410005 -2.27129 0
M  V30 2448 C 250.238 0.518405 -1.57803 0
M  V30 2449 O 251.423 0.439451 -1.8567 0
M  V30 2450 C 248.563 0.339054 -3.4343 0
M  V30 2451 C 247.676 -0.622468 -4.27492 0
M  V30 2452 C 246.811 0.145567 -5.31001 0
M  V30 2453 C 245.85 -0.809226 -6.06727 0
M  V30 2454 N 244.987 -0.0743728 -7.02061 0
M  V30 2455 H 249.827 -1.26011 -2.70047 0
M  V30 2456 H 247.364 -0.632663 -1.328 0
M  V30 2457 H 249.322 0.789586 -4.0966 0
M  V30 2458 H 247.952 1.15346 -3.01488 0
M  V30 2459 H 247.004 -1.19153 -3.61257 0
M  V30 2460 H 248.316 -1.35252 -4.80113 0
M  V30 2461 H 247.47 0.656417 -6.03139 0
M  V30 2462 H 246.209 0.908643 -4.79161 0
M  V30 2463 H 245.214 -1.3314 -5.33436 0
M  V30 2464 H 246.439 -1.57194 -6.60656 0
M  V30 2465 H 244.385 0.670616 -6.52563 0
M  V30 2466 H 244.302 -0.744157 -7.52329 0
M  V30 2467 H 245.57 0.416109 -7.78389 0
M  V30 2468 N 249.799 1.42003 -0.683588 0
M  V30 2469 C 251.215 1.55625 -0.353976 0
M  V30 2470 C 251.415 1.66151 1.14 0
M  V30 2471 O 250.471 1.63329 1.92561 0
M  V30 2472 C 251.784 2.80171 -1.092 0
M  V30 2473 C 253.332 2.93954 -1.07518 0
M  V30 2474 C 253.807 4.21372 -1.79471 0
M  V30 2475 N 255.298 4.28303 -1.76381 0
M  V30 2476 C 256.033 5.25729 -2.28904 0
M  V30 2477 N 255.529 6.29254 -2.89846 0
M  V30 2478 N 257.322 5.17586 -2.19228 0
M  V30 2479 H 249.473 1.33415 -1.6527 0
M  V30 2480 H 251.736 0.64282 -0.696769 0
M  V30 2481 H 251.442 2.78561 -2.14701 0
M  V30 2482 H 251.316 3.7133 -0.662862 0
M  V30 2483 H 253.703 2.95086 -0.028475 0
M  V30 2484 H 253.784 2.04002 -1.54328 0
M  V30 2485 H 253.428 4.21001 -2.84114 0
M  V30 2486 H 253.358 5.10275 -1.30104 0
M  V30 2487 H 255.849 3.54119 -1.31939 0
M  V30 2488 H 256.162 6.99964 -3.27522 0
M  V30 2489 H 254.507 6.29791 -2.93919 0
M  V30 2490 H 257.698 4.35631 -1.71299 0
M  V30 2491 H 257.871 5.93348 -2.60466 0
M  V30 2492 N 251.277 0.427512 1.51691 0
M  V30 2493 C 252.693 0.0792977 1.59403 0
M  V30 2494 C 252.893 -1.41035 1.43914 0
M  V30 2495 O 251.949 -2.17922 1.27539 0
M  V30 2496 C 253.262 0.590636 2.94842 0
M  V30 2497 C 254.81 0.550215 3.08126 0
M  V30 2498 C 255.285 1.03836 4.46074 0
M  V30 2499 N 256.776 0.995943 4.52366 0
M  V30 2500 C 257.511 1.34463 5.57411 0
M  V30 2501 N 257.007 1.76569 6.69922 0
M  V30 2502 N 258.8 1.26343 5.47717 0
M  V30 2503 H 250.951 1.39687 1.60004 0
M  V30 2504 H 253.214 0.575003 0.753708 0
M  V30 2505 H 252.92 1.63251 3.11516 0
M  V30 2506 H 252.794 0.0102061 3.77199 0
M  V30 2507 H 255.181 -0.482654 2.91126 0
M  V30 2508 H 255.262 1.16693 2.27632 0
M  V30 2509 H 254.906 2.06965 4.63819 0
M  V30 2510 H 254.836 0.398286 5.25092 0
M  V30 2511 H 257.327 0.68661 3.7161 0
M  V30 2512 H 257.64 2.01438 7.46085 0
M  V30 2513 H 255.985 1.80488 6.71155 0
M  V30 2514 H 259.176 0.933209 4.58703 0
M  V30 2515 H 259.349 1.53846 6.29472 0
M  V30 2516 N 252.755 -1.56801 0.158532 0
M  V30 2517 C 254.171 -1.5837 -0.197774 0
M  V30 2518 C 254.371 -1.17334 -1.63814 0
M  V30 2519 O 253.427 -0.878988 -2.36707 0
M  V30 2520 C 254.74 -3.00615 0.0714459 0
M  V30 2521 C 256.288 -3.12999 0.00864533 0
M  V30 2522 C 256.763 -4.57313 0.250685 0
M  V30 2523 N 258.254 -4.62777 0.198014 0
M  V30 2524 C 258.989 -5.72271 0.359642 0
M  V30 2525 N 258.485 -6.90371 0.579625 0
M  V30 2526 N 260.278 -5.61318 0.296438 0
M  V30 2527 H 252.429 -1.81765 1.09887 0
M  V30 2528 H 254.692 -0.841849 0.435884 0
M  V30 2529 H 254.398 -3.35068 1.06874 0
M  V30 2530 H 254.272 -3.71683 -0.642757 0
M  V30 2531 H 256.659 -2.7838 -0.979217 0
M  V30 2532 H 256.74 -2.44393 0.755359 0
M  V30 2533 H 256.384 -4.92639 1.2357 0
M  V30 2534 H 256.314 -5.24061 -0.516489 0
M  V30 2535 H 258.805 -3.77885 0.0331115 0
M  V30 2536 H 259.118 -7.69689 0.69275 0
M  V30 2537 H 257.463 -6.92264 0.616087 0
M  V30 2538 H 260.654 -4.67932 0.125258 0
M  V30 2539 H 260.827 -6.46599 0.425831 0
M  V30 2540 N 254.233 0.115231 -1.57178 0
M  V30 2541 C 255.458 0.840354 -1.89612 0
M  V30 2542 C 255.883 1.72464 -0.750845 0
M  V30 2543 O 255.241 1.78826 0.298478 0
M  V30 2544 C 255.289 1.64654 -3.20814 0
M  V30 2545 O 254.393 2.7538 -3.06985 0
M  V30 2546 H 253.734 0.232158 -0.622092 0
M  V30 2547 H 256.264 0.0964977 -2.04372 0
M  V30 2548 H 256.274 2.03499 -3.53627 0
M  V30 2549 H 254.949 0.997416 -4.03763 0
M  V30 2550 H 253.526 2.3971 -2.85646 0
M  V30 2551 N 255.711 1.52812 0.385517 0
M  V30 2552 C 256.941 1.71658 1.14966 0
M  V30 2553 C 257.349 0.436253 1.84102 0
M  V30 2554 O 256.692 -0.599313 1.73649 0
M  V30 2555 C 256.754 2.81309 2.23843 0
M  V30 2556 C 256.418 4.22313 1.74644 0
M  V30 2557 C 257.415 5.05352 1.22129 0
M  V30 2558 C 255.1 4.68648 1.80761 0
M  V30 2559 C 257.094 6.32807 0.763838 0
M  V30 2560 C 254.781 5.96086 1.34627 0
M  V30 2561 C 255.779 6.77996 0.825264 0
M  V30 2562 O 255.467 8.03045 0.370669 0
M  V30 2563 H 255.199 0.578022 0.350523 0
M  V30 2564 H 257.753 2.00263 0.456509 0
M  V30 2565 H 255.983 2.48133 2.96592 0
M  V30 2566 H 257.672 2.88524 2.85497 0
M  V30 2567 H 258.438 4.70736 1.16758 0
M  V30 2568 H 254.317 4.04979 2.20256 0
M  V30 2569 H 257.861 6.96689 0.356494 0
M  V30 2570 H 253.758 6.30205 1.39686 0
M  V30 2571 H 254.526 8.17021 0.491829 0
M  V30 2572 N 257.189 -0.644168 1.43834 0
M  V30 2573 C 258.414 -1.43642 1.49605 0
M  V30 2574 C 258.839 -1.8773 0.117913 0
M  V30 2575 O 258.197 -1.57938 -0.890239 0
M  V30 2576 C 258.245 -2.6416 2.45463 0
M  V30 2577 O 257.349 -3.63538 1.94714 0
M  V30 2578 H 256.69 -0.430329 0.50568 0
M  V30 2579 H 259.22 -0.787448 1.8884 0
M  V30 2580 H 259.23 -3.11864 2.63068 0
M  V30 2581 H 257.905 -2.31414 3.45572 0
M  V30 2582 H 256.482 -3.2273 1.86814 0
M  V30 2583 N 258.668 -1.30515 -0.883378 0
M  V30 2584 C 260.084 -1.08881 -1.16692 0
M  V30 2585 C 260.284 0.149409 -2.00945 0
M  V30 2586 O 259.34 0.84257 -2.38027 0
M  V30 2587 C 260.653 -2.35319 -1.87204 0
M  V30 2588 C 262.201 -2.40799 -1.99962 0
M  V30 2589 C 262.676 -3.67083 -2.73887 0
M  V30 2590 N 264.167 -3.679 -2.81432 0
M  V30 2591 C 264.902 -4.62303 -3.3921 0
M  V30 2592 N 264.398 -5.67052 -3.98025 0
M  V30 2593 N 266.191 -4.49845 -3.3704 0
M  V30 2594 H 258.342 -2.09951 -0.321633 0
M  V30 2595 H 260.605 -0.92556 -0.205043 0
M  V30 2596 H 260.311 -3.25689 -1.3274 0
M  V30 2597 H 260.185 -2.44089 -2.87577 0
M  V30 2598 H 262.572 -1.50907 -2.53597 0
M  V30 2599 H 262.653 -2.36003 -0.98673 0
M  V30 2600 H 262.297 -4.57334 -2.20925 0
M  V30 2601 H 262.227 -3.69141 -3.75556 0
M  V30 2602 H 264.718 -2.92171 -2.39676 0
M  V30 2603 H 265.031 -6.35184 -4.40183 0
M  V30 2604 H 263.376 -5.70842 -3.96439 0
M  V30 2605 H 266.567 -3.67194 -2.90321 0
M  V30 2606 H 266.74 -5.23597 -3.81772 0
M  V30 2607 N 260.146 1.09593 -1.13257 0
M  V30 2608 C 261.056 2.19739 -0.821691 0
M  V30 2609 C 262.072 1.72926 0.19302 0
M  V30 2610 O 263.248 2.01385 0.0244895 0
M  V30 2611 C 260.313 3.45482 -0.290333 0
M  V30 2612 C 259.374 4.06985 -1.36607 0
M  V30 2613 C 258.607 5.26726 -0.859975 0
M  V30 2614 O 258.83 5.69594 0.303082 0
M  V30 2615 O 257.764 5.7931 -1.63351 0
M  V30 2616 H 261.59 2.48781 -1.74189 0
M  V30 2617 H 259.175 1.18496 -0.909894 0
M  V30 2618 H 261.057 4.214 0.000674022 0
M  V30 2619 H 259.732 3.18047 0.602306 0
M  V30 2620 H 258.639 3.32712 -1.71037 0
M  V30 2621 H 259.972 4.38643 -2.23279 0
M  V30 2622 N 261.624 0.925811 1.2754 0
M  V30 2623 C 262.574 0.394488 2.24561 0
M  V30 2624 C 263.558 -0.500183 1.52928 0
M  V30 2625 O 264.75 -0.337936 1.73744 0
M  V30 2626 C 261.879 -0.353328 3.41477 0
M  V30 2627 C 260.965 0.557752 4.20416 0
M  V30 2628 N 261.356 1.67674 4.77199 0
M  V30 2629 C 259.654 0.360404 4.44541 0
M  V30 2630 C 260.355 2.24324 5.36706 0
M  V30 2631 N 259.331 1.53305 5.21535 0
M  V30 2632 H 263.133 1.2489 2.66045 0
M  V30 2633 H 260.647 0.779864 1.4245 0
M  V30 2634 H 262.644 -0.7509 4.10082 0
M  V30 2635 H 261.304 -1.20469 3.01525 0
M  V30 2636 H 262.315 2.05915 4.75204 0
M  V30 2637 H 258.992 -0.450454 4.15063 0
M  V30 2638 H 260.382 3.18521 5.91603 0
M  V30 2639 N 263.102 -1.41638 0.69111 0
M  V30 2640 C 264.012 -2.34588 0.0233487 0
M  V30 2641 C 265.028 -1.55987 -0.770984 0
M  V30 2642 O 266.204 -1.88486 -0.709569 0
M  V30 2643 C 263.269 -3.34684 -0.904851 0
M  V30 2644 C 262.33 -4.29176 -0.103225 0
M  V30 2645 C 261.563 -5.2449 -0.987216 0
M  V30 2646 O 261.786 -5.2514 -2.22674 0
M  V30 2647 O 260.72 -6.00295 -0.439281 0
M  V30 2648 H 264.546 -2.93261 0.789416 0
M  V30 2649 H 262.131 -1.42417 0.45142 0
M  V30 2650 H 264.013 -3.96133 -1.43724 0
M  V30 2651 H 262.688 -2.78461 -1.65049 0
M  V30 2652 H 261.595 -3.71089 0.473655 0
M  V30 2653 H 262.928 -4.88484 0.60365 0
M  V30 2654 N 264.58 -0.43555 -1.51462 0
M  V30 2655 C 265.828 0.131254 -2.01673 0
M  V30 2656 C 266.149 1.43368 -1.32177 0
M  V30 2657 O 265.419 1.90524 -0.455769 0
M  V30 2658 H 263.999 0.0514954 -0.745223 0
M  V30 2659 H 266.661 -0.577847 -1.86137 0
M  V30 2660 H 265.757 0.308446 -3.10572 0
M  V30 2661 N 266.058 1.56714 -0.166846 0
M  V30 2662 C 267.474 1.58473 0.189372 0
M  V30 2663 C 267.674 1.18201 1.63189 0
M  V30 2664 O 266.73 0.891528 2.36237 0
M  V30 2665 C 268.043 3.00573 -0.0873872 0
M  V30 2666 C 269.591 3.1299 -0.0252443 0
M  V30 2667 C 270.066 4.57174 -0.274934 0
M  V30 2668 N 271.557 4.62665 -0.222553 0
M  V30 2669 C 272.292 5.72072 -0.389985 0
M  V30 2670 N 271.788 6.90054 -0.616229 0
M  V30 2671 N 273.581 5.61153 -0.326202 0
M  V30 2672 H 265.732 1.8118 -1.10849 0
M  V30 2673 H 267.995 0.839525 -0.440342 0
M  V30 2674 H 267.701 3.34497 -1.0865 0
M  V30 2675 H 267.575 3.72019 0.623037 0
M  V30 2676 H 269.962 2.78895 0.96444 0
M  V30 2677 H 270.043 2.43989 -0.768309 0
M  V30 2678 H 269.687 4.91976 -1.26181 0
M  V30 2679 H 269.617 5.24328 0.48869 0
M  V30 2680 H 272.108 3.77863 -0.0531512 0
M  V30 2681 H 272.421 7.69311 -0.733559 0
M  V30 2682 H 270.766 6.91927 -0.652791 0
M  V30 2683 H 273.957 4.67859 -0.150072 0
M  V30 2684 H 274.13 6.46364 -0.460116 0
M  V30 2685 N 267.536 -0.106894 1.57237 0
M  V30 2686 C 268.466 -1.13148 2.04254 0
M  V30 2687 C 269.447 -1.42476 0.929224 0
M  V30 2688 O 270.632 -1.52709 1.19973 0
M  V30 2689 C 267.762 -2.4545 2.45706 0
M  V30 2690 C 266.716 -2.30558 3.60592 0
M  V30 2691 C 266.042 -3.67931 3.87983 0
M  V30 2692 C 267.342 -1.75597 4.91897 0
M  V30 2693 H 269.036 -0.740374 2.90101 0
M  V30 2694 H 266.582 -0.354696 1.39563 0
M  V30 2695 H 268.535 -3.17389 2.77205 0
M  V30 2696 H 267.259 -2.86475 1.56843 0
M  V30 2697 H 265.918 -1.61067 3.29322 0
M  V30 2698 H 265.566 -4.06462 2.96306 0
M  V30 2699 H 265.266 -3.58817 4.65322 0
M  V30 2700 H 266.79 -4.41356 4.21945 0
M  V30 2701 H 268.204 -2.37364 5.21854 0
M  V30 2702 H 266.601 -1.77272 5.73319 0
M  V30 2703 H 267.671 -0.714451 4.79608 0
M  V30 2704 N 269.014 -1.53014 -0.377408 0
M  V30 2705 C 270.43 -1.42523 -0.718281 0
M  V30 2706 C 270.63 -0.55487 -1.9371 0
M  V30 2707 O 269.686 -0.0327593 -2.52479 0
M  V30 2708 C 270.999 -2.85546 -0.942539 0
M  V30 2709 C 272.547 -2.95101 -1.04329 0
M  V30 2710 C 273.022 -4.3916 -1.3001 0
M  V30 2711 N 274.513 -4.42536 -1.36806 0
M  V30 2712 C 275.248 -5.51097 -1.58364 0
M  V30 2713 N 274.744 -6.69724 -1.77317 0
M  V30 2714 N 276.537 -5.38657 -1.60638 0
M  V30 2715 H 268.688 -2.08116 0.424426 0
M  V30 2716 H 270.951 -0.939352 0.127759 0
M  V30 2717 H 270.657 -3.51499 -0.118929 0
M  V30 2718 H 270.531 -3.28493 -1.85397 0
M  V30 2719 H 272.918 -2.29309 -1.85745 0
M  V30 2720 H 272.999 -2.55566 -0.109505 0
M  V30 2721 H 272.643 -5.05521 -0.490991 0
M  V30 2722 H 272.573 -4.76258 -2.24691 0
M  V30 2723 H 275.064 -3.57039 -1.23821 0
M  V30 2724 H 275.377 -7.48233 -1.93306 0
M  V30 2725 H 273.722 -6.72732 -1.74518 0
M  V30 2726 H 276.913 -4.44948 -1.45391 0
M  V30 2727 H 277.086 -6.2333 -1.77098 0
M  V30 2728 N 270.492 0.636531 -1.44174 0
M  V30 2729 C 271.722 1.42146 -1.49927 0
M  V30 2730 C 272.13 1.88812 -0.121063 0
M  V30 2731 O 271.473 1.61126 0.882267 0
M  V30 2732 C 271.535 2.67883 -2.39748 0
M  V30 2733 C 271.199 2.43048 -3.8701 0
M  V30 2734 C 272.196 2.05216 -4.77684 0
M  V30 2735 C 269.881 2.56856 -4.3166 0
M  V30 2736 C 271.875 1.81512 -6.11009 0
M  V30 2737 C 269.562 2.32766 -5.65034 0
M  V30 2738 C 270.56 1.95152 -6.54526 0
M  V30 2739 O 270.248 1.71326 -7.85431 0
M  V30 2740 H 269.98 0.442567 -0.51099 0
M  V30 2741 H 272.534 0.786158 -1.8976 0
M  V30 2742 H 270.764 3.34032 -1.94832 0
M  V30 2743 H 272.453 3.29874 -2.36513 0
M  V30 2744 H 273.219 1.94111 -4.44462 0
M  V30 2745 H 269.098 2.85104 -3.62266 0
M  V30 2746 H 272.642 1.52077 -6.80822 0
M  V30 2747 H 268.539 2.43479 -5.97819 0
M  V30 2748 H 269.307 1.85616 -7.97176 0
M  V30 2749 N 271.97 1.30982 0.876444 0
M  V30 2750 C 273.381 1.18277 1.44456 0
M  V30 2751 C 273.732 -0.213265 1.95037 0
M  V30 2752 O 272.857 -1.11057 1.85729 0
M  V30 2753 C 273.452 2.1411 2.62569 0
M  V30 2754 C 272.011 2.05358 3.15444 0
M  V30 2755 C 271.158 2.03706 1.88146 0
M  V30 2756 H 274.109 1.43127 0.685584 0
M  V30 2757 H 274.13 1.72692 3.39054 0
M  V30 2758 H 273.642 3.15706 2.25724 0
M  V30 2759 H 271.743 1.06934 3.56926 0
M  V30 2760 H 271.856 2.94156 3.78166 0
M  V30 2761 H 270.22 1.48629 2.06837 0
M  V30 2762 H 271.003 3.07047 1.53547 0
M  V30 2763 N 273.449 -1.08991 1.13837 0
M  V30 2764 C 274.674 -1.85551 0.926585 0
M  V30 2765 C 275.099 -1.80782 -0.519566 0
M  V30 2766 O 274.457 -1.18855 -1.36906 0
M  V30 2767 C 274.505 -3.31266 1.42462 0
M  V30 2768 O 273.609 -4.07822 0.612789 0
M  V30 2769 H 272.95 -0.575192 0.331738 0
M  V30 2770 H 275.48 -1.37604 1.51414 0
M  V30 2771 H 275.49 -3.82112 1.43019 0
M  V30 2772 H 274.165 -3.34052 2.47754 0
M  V30 2773 H 272.742 -3.66731 0.675463 0
M  V30 2774 N 274.927 -0.932562 -1.27047 0
M  V30 2775 C 276.343 -0.633544 -1.46487 0
M  V30 2776 C 276.543 0.815746 -1.84249 0
M  V30 2777 O 275.599 1.59319 -1.95892 0
M  V30 2778 C 276.912 -1.58758 -2.55375 0
M  V30 2779 C 278.46 -1.59634 -2.69232 0
M  V30 2780 C 278.935 -2.53747 -3.81283 0
M  V30 2781 N 280.426 -2.51982 -3.88664 0
M  V30 2782 C 281.161 -3.21491 -4.74796 0
M  V30 2783 N 280.657 -4.00395 -5.65381 0
M  V30 2784 N 282.45 -3.10485 -4.68568 0
M  V30 2785 H 274.601 -1.86946 -1.00821 0
M  V30 2786 H 276.864 -0.802897 -0.504044 0
M  V30 2787 H 276.57 -2.62172 -2.34432 0
M  V30 2788 H 276.444 -1.33301 -3.52861 0
M  V30 2789 H 278.831 -0.569488 -2.89553 0
M  V30 2790 H 278.912 -1.89142 -1.72218 0
M  V30 2791 H 278.556 -3.56545 -3.61715 0
M  V30 2792 H 278.486 -2.21532 -4.77735 0
M  V30 2793 H 280.977 -1.94681 -3.23895 0
M  V30 2794 H 281.29 -4.50406 -6.27976 0
M  V30 2795 H 279.635 -4.04498 -5.65161 0
M  V30 2796 H 282.826 -2.48331 -3.96799 0
M  V30 2797 H 282.999 -3.64925 -5.35475 0
M  V30 2798 N 276.405 1.4127 -0.698611 0
M  V30 2799 C 277.821 1.55241 -0.370462 0
M  V30 2800 C 278.021 1.67351 1.12231 0
M  V30 2801 O 277.077 1.65363 1.90818 0
M  V30 2802 C 278.39 2.78997 -1.12165 0
M  V30 2803 C 279.938 2.92797 -1.1063 0
M  V30 2804 C 280.413 4.19445 -1.8393 0
M  V30 2805 N 281.904 4.26409 -1.80914 0
M  V30 2806 C 282.639 5.23271 -2.34467 0
M  V30 2807 N 282.135 6.26145 -2.96504 0
M  V30 2808 N 283.928 5.15232 -2.24706 0
M  V30 2809 H 276.079 1.31654 -1.66676 0
M  V30 2810 H 278.342 0.635393 -0.703548 0
M  V30 2811 H 278.048 2.76268 -2.17644 0
M  V30 2812 H 277.922 3.70606 -0.702209 0
M  V30 2813 H 280.309 2.95039 -0.0597713 0
M  V30 2814 H 280.39 2.02353 -1.56483 0
M  V30 2815 H 280.034 4.17964 -2.88563 0
M  V30 2816 H 279.964 5.08866 -1.35509 0
M  V30 2817 H 282.455 3.527 -1.35687 0
M  V30 2818 H 282.768 6.96451 -3.34927 0
M  V30 2819 H 281.113 6.26638 -3.00583 0
M  V30 2820 H 284.304 4.33789 -1.7591 0
M  V30 2821 H 284.477 5.90552 -2.66745 0
M  V30 2822 N 277.883 0.443576 1.51229 0
M  V30 2823 C 278.793 -0.370721 2.31652 0
M  V30 2824 C 279.809 -1.02186 1.40833 0
M  V30 2825 O 280.985 -1.01586 1.73903 0
M  V30 2826 C 278.05 -1.45376 3.14749 0
M  V30 2827 C 277.111 -0.822099 4.21355 0
M  V30 2828 C 276.344 -1.85353 5.0048 0
M  V30 2829 O 276.567 -3.07656 4.80316 0
M  V30 2830 O 275.501 -1.4406 5.84406 0
M  V30 2831 H 279.327 0.286002 3.0235 0
M  V30 2832 H 276.912 0.20598 1.47973 0
M  V30 2833 H 278.794 -2.08173 3.66391 0
M  V30 2834 H 277.469 -2.09445 2.46809 0
M  V30 2835 H 276.376 -0.155909 3.73775 0
M  V30 2836 H 277.709 -0.224797 4.91686 0
M  V30 2837 N 279.361 -1.56624 0.175154 0
M  V30 2838 C 280.772 -1.83561 -0.340916 0
M  V30 2839 C 281.123 -1.09511 -1.62794 0
M  V30 2840 O 280.248 -0.349389 -2.13561 0
M  V30 2841 C 280.843 -3.32979 -0.625313 0
M  V30 2842 C 279.402 -3.60399 -1.08581 0
M  V30 2843 C 278.549 -2.77024 -0.123722 0
M  V30 2844 H 281.5 -1.53593 0.399344 0
M  V30 2845 H 281.521 -3.50666 -1.47694 0
M  V30 2846 H 281.033 -3.86847 0.311575 0
M  V30 2847 H 279.134 -3.11945 -2.03767 0
M  V30 2848 H 279.247 -4.68711 -0.992317 0
M  V30 2849 H 277.611 -2.46993 -0.621821 0
M  V30 2850 H 278.394 -3.33674 0.807256 0
M  V30 2851 N 280.839 0.0985539 -1.57292 0
M  V30 2852 C 282.25 0.653457 -1.74891 0
M  V30 2853 C 282.601 1.7929 -0.796838 0
M  V30 2854 O 281.726 2.16385 0.0254886 0
M  V30 2855 C 282.321 1.19216 -3.17133 0
M  V30 2856 C 280.88 1.69316 -3.36168 0
M  V30 2857 C 280.027 0.601294 -2.70702 0
M  V30 2858 H 282.978 -0.127497 -1.58187 0
M  V30 2859 H 282.999 2.06154 -3.19814 0
M  V30 2860 H 282.511 0.362635 -3.86402 0
M  V30 2861 H 280.612 2.5468 -2.71972 0
M  V30 2862 H 280.725 1.78853 -4.44464 0
M  V30 2863 H 279.089 1.0399 -2.32504 0
M  V30 2864 H 279.872 -0.217592 -3.4261 0
M  V30 2865 N 282.317 1.53212 0.369288 0
M  V30 2866 C 283.728 1.60943 0.946276 0
M  V30 2867 C 284.079 0.47452 1.90375 0
M  V30 2868 O 283.204 -0.399597 2.12679 0
M  V30 2869 C 283.799 2.91715 1.72302 0
M  V30 2870 C 282.358 3.01792 2.24941 0
M  V30 2871 C 281.505 2.56211 1.06072 0
M  V30 2872 H 284.456 1.58007 0.148198 0
M  V30 2873 H 284.477 2.79309 2.58393 0
M  V30 2874 H 283.989 3.74295 1.0259 0
M  V30 2875 H 282.09 2.23791 2.97906 0
M  V30 2876 H 282.203 4.06803 2.53077 0
M  V30 2877 H 280.567 2.10998 1.4266 0
M  V30 2878 H 281.35 3.41206 0.378639 0
M  V30 2879 N 283.795 -0.628877 1.44509 0
M  V30 2880 C 285.211 -0.947305 1.28446 0
M  V30 2881 C 285.411 -2.00275 0.221872 0
M  V30 2882 O 284.467 -2.49447 -0.391471 0
M  V30 2883 C 285.78 -1.40843 2.65676 0
M  V30 2884 C 287.328 -1.52379 2.73404 0
M  V30 2885 C 287.803 -2.01875 4.11109 0
M  V30 2886 N 289.294 -2.09142 4.13296 0
M  V30 2887 C 290.029 -2.48615 5.16699 0
M  V30 2888 N 289.525 -2.87209 6.30462 0
M  V30 2889 N 291.318 -2.48768 5.04054 0
M  V30 2890 H 283.469 0.0690977 2.12288 0
M  V30 2891 H 285.732 -0.0317164 0.947469 0
M  V30 2892 H 285.438 -0.707206 3.44516 0
M  V30 2893 H 285.312 -2.37902 2.92716 0
M  V30 2894 H 287.699 -2.21598 1.9488 0
M  V30 2895 H 287.78 -0.536898 2.50102 0
M  V30 2896 H 287.424 -1.3325 4.90109 0
M  V30 2897 H 287.354 -3.0144 4.31789 0
M  V30 2898 H 289.845 -1.81991 3.31191 0
M  V30 2899 H 290.158 -3.16149 7.05174 0
M  V30 2900 H 288.503 -2.84955 6.33897 0
M  V30 2901 H 291.694 -2.18009 4.14234 0
M  V30 2902 H 291.867 -2.79207 5.84763 0
M  V30 2903 N 285.273 -1.31445 -0.869486 0
M  V30 2904 C 286.689 -1.10113 -1.15531 0
M  V30 2905 C 286.889 0.128087 -2.01092 0
M  V30 2906 O 285.945 0.817276 -2.38908 0
M  V30 2907 C 287.258 -2.37291 -1.84698 0
M  V30 2908 C 288.806 -2.42906 -1.97397 0
M  V30 2909 C 289.281 -3.69967 -2.69979 0
M  V30 2910 N 290.772 -3.70864 -2.77514 0
M  V30 2911 C 291.507 -4.65875 -3.34287 0
M  V30 2912 N 291.003 -5.71242 -3.91988 0
M  V30 2913 N 292.796 -4.53394 -3.3225 0
M  V30 2914 H 284.947 -2.1028 -0.299347 0
M  V30 2915 H 287.21 -0.927683 -0.195214 0
M  V30 2916 H 286.916 -3.27078 -1.29278 0
M  V30 2917 H 286.79 -2.47125 -2.84972 0
M  V30 2918 H 289.177 -1.53588 -2.51982 0
M  V30 2919 H 289.258 -2.37036 -0.961643 0
M  V30 2920 H 288.902 -4.59652 -2.16062 0
M  V30 2921 H 288.832 -3.73103 -3.7162 0
M  V30 2922 H 291.323 -2.94697 -2.36563 0
M  V30 2923 H 291.636 -6.39817 -4.33421 0
M  V30 2924 H 289.981 -5.75015 -3.90362 0
M  V30 2925 H 293.172 -3.70252 -2.8641 0
M  V30 2926 H 293.345 -5.27617 -3.76197 0
M  V30 2927 N 286.751 1.08385 -1.14413 0
M  V30 2928 C 287.976 1.85057 -0.936413 0
M  V30 2929 C 288.401 1.81055 0.509971 0
M  V30 2930 O 287.759 1.1958 1.36273 0
M  V30 2931 C 287.807 3.30505 -1.44217 0
M  V30 2932 O 286.911 4.07491 -0.634409 0
M  V30 2933 H 286.252 0.573425 -0.334784 0
M  V30 2934 H 288.782 1.36799 -1.52142 0
M  V30 2935 H 288.792 3.81348 -1.45043 0
M  V30 2936 H 287.467 3.32734 -2.49522 0
M  V30 2937 H 286.044 3.66368 -0.694902 0
M  V30 2938 N 288.23 0.939286 1.26551 0
M  V30 2939 C 289.646 0.641304 1.46149 0
M  V30 2940 C 289.846 -0.805964 1.84679 0
M  V30 2941 O 288.902 -1.58278 1.96734 0
M  V30 2942 C 290.215 1.6011 2.54529 0
M  V30 2943 C 291.763 1.6106 2.68382 0
M  V30 2944 C 292.238 2.55765 3.79932 0
M  V30 2945 N 293.729 2.5404 3.87322 0
M  V30 2946 C 294.464 3.24004 4.73085 0
M  V30 2947 N 293.96 4.03388 5.63249 0
M  V30 2948 N 295.753 3.12965 4.66914 0
M  V30 2949 H 287.904 1.87478 0.998285 0
M  V30 2950 H 290.167 0.805559 0.499779 0
M  V30 2951 H 289.873 2.63412 2.33039 0
M  V30 2952 H 289.747 1.35171 3.52149 0
M  V30 2953 H 292.134 0.584835 2.89247 0
M  V30 2954 H 292.215 1.90053 1.71212 0
M  V30 2955 H 291.859 3.58458 3.5982 0
M  V30 2956 H 291.789 2.24063 4.76554 0
M  V30 2957 H 294.28 1.96396 3.22858 0
M  V30 2958 H 294.593 4.5373 6.25579 0
M  V30 2959 H 292.938 4.07489 5.63008 0
M  V30 2960 H 296.129 2.50432 3.95476 0
M  V30 2961 H 296.302 3.67759 5.33533 0
M  V30 2962 N 289.708 -1.40897 0.706093 0
M  V30 2963 C 290.933 -2.05895 0.249435 0
M  V30 2964 C 291.358 -1.52823 -1.09666 0
M  V30 2965 O 290.716 -0.659589 -1.68876 0
M  V30 2966 C 290.764 -3.59872 0.22904 0
M  V30 2967 O 289.868 -4.04708 -0.792784 0
M  V30 2968 H 289.209 -0.653206 0.119241 0
M  V30 2969 H 291.739 -1.80471 0.96391 0
M  V30 2970 H 291.749 -4.07951 0.0634791 0
M  V30 2971 H 290.424 -3.97866 1.21141 0
M  V30 2972 H 289.001 -3.68111 -0.59572 0
M  V30 2973 N 291.186 -0.45159 -1.50991 0
M  V30 2974 C 292.602 -0.104647 -1.59257 0
M  V30 2975 C 292.802 1.38728 -1.4614 0
M  V30 2976 O 291.858 2.15866 -1.30989 0
M  V30 2977 C 293.171 -0.637468 -2.93865 0
M  V30 2978 C 294.719 -0.599166 -3.07212 0
M  V30 2979 C 295.194 -1.1092 -4.44366 0
M  V30 2980 N 296.685 -1.06778 -4.50725 0
M  V30 2981 C 297.42 -1.43314 -5.55201 0
M  V30 2982 N 296.916 -1.87204 -6.67028 0
M  V30 2983 N 298.709 -1.3504 -5.45638 0
M  V30 2984 H 290.86 -1.42214 -1.57762 0
M  V30 2985 H 293.123 -0.586921 -0.744465 0
M  V30 2986 H 292.829 -1.68187 -3.08879 0
M  V30 2987 H 292.703 -0.0702139 -3.77135 0
M  V30 2988 H 295.09 0.436277 -2.91857 0
M  V30 2989 H 295.171 -1.20299 -2.25747 0
M  V30 2990 H 294.815 -2.14318 -4.60467 0
M  V30 2991 H 294.745 -0.481773 -5.24392 0
M  V30 2992 H 297.236 -0.745643 -3.70471 0
M  V30 2993 H 297.549 -2.13282 -7.42786 0
M  V30 2994 H 295.894 -1.91142 -6.68199 0
M  V30 2995 H 299.085 -1.00607 -4.57161 0
M  V30 2996 H 299.258 -1.63841 -6.26945 0
M  V30 2997 N 292.664 1.56529 -0.183458 0
M  V30 2998 C 293.889 2.02064 0.467428 0
M  V30 2999 C 294.314 1.06282 1.55196 0
M  V30 3000 O 293.672 0.0443565 1.81246 0
M  V30 3001 C 293.72 3.46122 1.01153 0
M  V30 3002 O 292.824 3.53437 2.12499 0
M  V30 3003 H 292.165 0.654726 0.110588 0
M  V30 3004 H 294.695 2.02521 -0.290917 0
M  V30 3005 H 294.705 3.85676 1.33108 0
M  V30 3006 H 293.38 4.15331 0.217533 0
M  V30 3007 H 291.957 3.2575 1.81497 0
M  V30 3008 N 294.142 -0.090211 1.57342 0
M  V30 3009 C 295.092 -1.11557 1.98844 0
M  V30 3010 C 296.076 -1.35503 0.867624 0
M  V30 3011 O 297.268 -1.36113 1.13148 0
M  V30 3012 C 294.397 -2.43446 2.42051 0
M  V30 3013 C 293.483 -2.22853 3.60828 0
M  V30 3014 N 293.874 -1.72141 4.75606 0
M  V30 3015 C 292.172 -2.53401 3.67021 0
M  V30 3016 C 292.873 -1.65932 5.57531 0
M  V30 3017 N 291.849 -2.11323 5.00843 0
M  V30 3018 H 295.651 -0.716499 2.85032 0
M  V30 3019 H 293.165 -0.297567 1.59651 0
M  V30 3020 H 295.162 -3.17644 2.70014 0
M  V30 3021 H 293.822 -2.84087 1.57241 0
M  V30 3022 H 294.833 -1.41268 4.98261 0
M  V30 3023 H 291.51 -2.97532 2.92884 0
M  V30 3024 H 292.9 -1.27733 6.59647 0
M  V30 3025 N 295.62 -1.53406 -0.361157 0
M  V30 3026 C 296.897 -1.60411 -1.11927 0
M  V30 3027 C 297.277 -0.414385 -2.06993 0
M  V30 3028 O 296.625 0.594976 -2.20618 0
M  V30 3029 C 296.835 -2.95652 -1.85448 0
M  V30 3030 C 298.183 -3.50386 -2.39823 0
M  V30 3031 O 299.207 -2.97711 -1.95568 0
M  V30 3032 O 298.066 -4.42482 -3.20737 0
M  V30 3033 H 295.16 -0.64811 -0.513695 0
M  V30 3034 H 297.706 -1.65749 -0.364065 0
M  V30 3035 H 296.478 -3.73682 -1.16091 0
M  V30 3036 H 296.101 -2.93825 -2.67866 0
M  V30 3037 N 297.098 0.621204 -1.44841 0
M  V30 3038 C 298.514 0.94048 -1.28946 0
M  V30 3039 C 298.714 2.00154 -0.23249 0
M  V30 3040 O 297.77 2.49651 0.378237 0
M  V30 3041 C 299.083 1.39433 -2.66419 0
M  V30 3042 C 300.631 1.50927 -2.74208 0
M  V30 3043 C 301.106 1.99692 -4.12174 0
M  V30 3044 N 302.597 2.06947 -4.144 0
M  V30 3045 C 303.332 2.45871 -5.1801 0
M  V30 3046 N 302.828 2.83862 -6.31977 0
M  V30 3047 N 304.621 2.46092 -5.05366 0
M  V30 3048 H 296.772 -0.0803548 -2.12248 0
M  V30 3049 H 299.035 0.0266913 -0.947624 0
M  V30 3050 H 298.741 0.688925 -3.44887 0
M  V30 3051 H 298.615 2.36347 -2.93973 0
M  V30 3052 H 301.002 2.20561 -1.96053 0
M  V30 3053 H 301.083 0.523627 -2.50383 0
M  V30 3054 H 300.727 1.30649 -4.90809 0
M  V30 3055 H 300.657 2.99146 -4.33381 0
M  V30 3056 H 303.148 1.80232 -3.32152 0
M  V30 3057 H 303.461 3.12405 -7.0684 0
M  V30 3058 H 301.806 2.8159 -6.35399 0
M  V30 3059 H 304.997 2.1581 -4.15384 0
M  V30 3060 H 305.17 2.76102 -5.86235 0
M  V30 3061 N 298.576 1.31904 0.862503 0
M  V30 3062 C 299.506 1.22782 1.98612 0
M  V30 3063 C 300.487 0.113362 1.69722 0
M  V30 3064 O 301.672 0.299218 1.91881 0
M  V30 3065 C 298.802 0.942058 3.34279 0
M  V30 3066 C 297.756 2.0169 3.77499 0
M  V30 3067 C 297.082 1.58369 5.10709 0
M  V30 3068 C 298.382 3.43096 3.93805 0
M  V30 3069 H 300.076 2.16788 2.06502 0
M  V30 3070 H 297.622 1.04366 0.992154 0
M  V30 3071 H 299.575 0.864818 4.1243 0
M  V30 3072 H 298.299 -0.0336603 3.26583 0
M  V30 3073 H 296.958 2.08416 3.01593 0
M  V30 3074 H 296.606 0.595628 4.99461 0
M  V30 3075 H 296.306 2.30279 5.40597 0
M  V30 3076 H 297.83 1.52067 5.91361 0
M  V30 3077 H 299.244 3.39003 4.62331 0
M  V30 3078 H 297.641 4.13288 4.35101 0
M  V30 3079 H 298.711 3.83334 2.96957 0
M  V30 3080 N 300.054 -1.07777 1.14986 0
M  V30 3081 C 301.465 -1.61766 0.932127 0
M  V30 3082 C 301.816 -1.88974 -0.527581 0
M  V30 3083 O 300.941 -1.65198 -1.39781 0
M  V30 3084 C 301.536 -2.93891 1.68563 0
M  V30 3085 C 300.095 -3.44639 1.5133 0
M  V30 3086 C 299.242 -2.18767 1.704 0
M  V30 3087 H 302.193 -0.909201 1.30074 0
M  V30 3088 H 302.214 -3.62623 1.15259 0
M  V30 3089 H 301.726 -2.74057 2.74799 0
M  V30 3090 H 299.827 -3.69564 0.474702 0
M  V30 3091 H 299.94 -4.20966 2.28746 0
M  V30 3092 H 298.304 -2.28253 1.13016 0
M  V30 3093 H 299.087 -2.01433 2.77992 0
M  V30 3094 N 301.532 -0.945985 -1.26051 0
M  V30 3095 C 302.762 -0.612136 -1.97323 0
M  V30 3096 C 303.17 0.818171 -1.70595 0
M  V30 3097 O 302.513 1.55777 -0.973613 0
M  V30 3098 C 302.575 -0.780347 -3.50929 0
M  V30 3099 C 302.239 -2.18619 -4.01317 0
M  V30 3100 C 303.236 -3.16209 -4.12683 0
M  V30 3101 C 300.921 -2.50805 -4.35203 0
M  V30 3102 C 302.915 -4.44085 -4.57238 0
M  V30 3103 C 300.602 -3.78912 -4.79446 0
M  V30 3104 C 301.6 -4.75365 -4.90425 0
M  V30 3105 O 301.288 -6.01191 -5.3369 0
M  V30 3106 H 301.02 -0.229134 -0.635982 0
M  V30 3107 H 303.574 -1.27036 -1.61404 0
M  V30 3108 H 301.804 -0.0649864 -3.86645 0
M  V30 3109 H 303.493 -0.448842 -4.03411 0
M  V30 3110 H 304.259 -2.92668 -3.86744 0
M  V30 3111 H 300.138 -1.76463 -4.2589 0
M  V30 3112 H 303.682 -5.19373 -4.65723 0
M  V30 3113 H 299.579 -4.02265 -5.0483 0
M  V30 3114 H 300.347 -6.04442 -5.51899 0
M  V30 3115 N 303.011 1.40521 -0.713556 0
M  V30 3116 C 303.943 2.29191 -0.0203126 0
M  V30 3117 C 304.956 1.45723 0.725864 0
M  V30 3118 O 306.145 1.69033 0.573581 0
M  V30 3119 C 303.245 3.2395 0.995486 0
M  V30 3120 C 302.418 4.36262 0.315256 0
M  V30 3121 C 301.477 5.11474 1.23616 0
M  V30 3122 O 300.503 5.64606 0.721719 0
M  V30 3123 N 301.705 5.20638 2.56743 0
M  V30 3124 H 304.47 2.89327 -0.781652 0
M  V30 3125 H 302.031 1.51869 -0.561022 0
M  V30 3126 H 304.023 3.71137 1.61368 0
M  V30 3127 H 302.593 2.64995 1.6582 0
M  V30 3128 H 301.813 3.91228 -0.483106 0
M  V30 3129 H 303.101 5.08558 -0.157004 0
M  V30 3130 H 302.499 4.7895 3.01037 0
M  V30 3131 H 301.056 5.71339 3.13712 0
M  V30 3132 N 304.489 0.459591 1.5075 0
M  V30 3133 C 305.905 0.113092 1.59199 0
M  V30 3134 C 306.105 -1.37951 1.46874 0
M  V30 3135 O 305.161 -2.15168 1.32132 0
M  V30 3136 C 306.474 0.653043 2.93523 0
M  V30 3137 C 308.022 0.615449 3.0689 0
M  V30 3138 C 308.497 1.13275 4.43771 0
M  V30 3139 N 309.988 1.09167 4.50152 0
M  V30 3140 C 310.723 1.46256 5.54434 0
M  V30 3141 N 310.219 1.90739 6.66026 0
M  V30 3142 N 312.012 1.37932 5.44914 0
M  V30 3143 H 304.163 1.43049 1.57005 0
M  V30 3144 H 306.426 0.590861 0.741341 0
M  V30 3145 H 306.132 1.69822 3.07983 0
M  V30 3146 H 306.006 0.0902132 3.77092 0
M  V30 3147 H 308.393 -0.420793 2.92084 0
M  V30 3148 H 308.474 1.21495 2.25106 0
M  V30 3149 H 308.118 2.16757 4.59324 0
M  V30 3150 H 308.048 0.509576 5.24129 0
M  V30 3151 H 310.539 0.76528 3.7007 0
M  V30 3152 H 310.852 2.17218 7.41644 0
M  V30 3153 H 309.197 1.94683 6.67176 0
M  V30 3154 H 312.388 1.0303 4.56621 0
M  V30 3155 H 312.561 1.67164 6.26067 0
M  V30 3156 N 305.967 -1.56429 0.191757 0
M  V30 3157 C 307.383 -1.58754 -0.164137 0
M  V30 3158 C 307.583 -1.20782 -1.61288 0
M  V30 3159 O 306.639 -0.928999 -2.34789 0
M  V30 3160 C 307.952 -3.00396 0.135195 0
M  V30 3161 C 309.5 -3.1291 0.0750351 0
M  V30 3162 C 309.975 -4.56679 0.347632 0
M  V30 3163 N 311.466 -4.62252 0.296131 0
M  V30 3164 C 312.201 -5.71379 0.480948 0
M  V30 3165 N 311.697 -6.88986 0.725933 0
M  V30 3166 N 313.49 -5.60563 0.415435 0
M  V30 3167 H 305.641 -1.79393 1.13718 0
M  V30 3168 H 307.904 -0.832414 0.453643 0
M  V30 3169 H 307.61 -3.32726 1.13958 0
M  V30 3170 H 307.484 -3.72963 -0.563773 0
M  V30 3171 H 309.871 -2.80394 -0.919948 0
M  V30 3172 H 309.952 -2.42736 0.807029 0
M  V30 3173 H 309.596 -4.89907 1.33992 0
M  V30 3174 H 309.526 -5.25039 -0.405212 0
M  V30 3175 H 312.017 -3.7773 0.113259 0
M  V30 3176 H 312.33 -7.68046 0.855857 0
M  V30 3177 H 310.675 -6.90801 0.762788 0
M  V30 3178 H 313.866 -4.67561 0.224486 0
M  V30 3179 H 314.039 -6.45551 0.562889 0
M  V30 3180 N 307.445 0.0818655 -1.57387 0
M  V30 3181 C 308.675 0.794954 -1.90694 0
M  V30 3182 C 309.083 1.72147 -0.784982 0
M  V30 3183 O 308.426 1.81974 0.251196 0
M  V30 3184 C 308.488 1.65042 -3.19376 0
M  V30 3185 C 308.152 0.894337 -4.48164 0
M  V30 3186 C 309.149 0.21813 -5.19442 0
M  V30 3187 C 306.834 0.864495 -4.94805 0
M  V30 3188 C 308.828 -0.477802 -6.35607 0
M  V30 3189 C 306.515 0.164785 -6.10878 0
M  V30 3190 C 307.513 -0.505173 -6.81129 0
M  V30 3191 O 307.201 -1.19363 -7.94989 0
M  V30 3192 H 306.933 0.231779 -0.635023 0
M  V30 3193 H 309.487 0.059493 -2.05314 0
M  V30 3194 H 307.717 2.42844 -3.00938 0
M  V30 3195 H 309.406 2.24127 -3.38411 0
M  V30 3196 H 310.172 0.232558 -4.84442 0
M  V30 3197 H 306.051 1.37542 -4.40004 0
M  V30 3198 H 309.595 -1.00129 -6.90377 0
M  V30 3199 H 305.492 0.148249 -6.4533 0
M  V30 3200 H 306.26 -1.10188 -8.11049 0
M  V30 3201 N 308.923 1.53595 0.353017 0
M  V30 3202 C 310.339 1.43648 0.695516 0
M  V30 3203 C 310.539 0.585617 1.92802 0
M  V30 3204 O 309.595 0.0729223 2.52395 0
M  V30 3205 C 310.908 2.8701 0.896991 0
M  V30 3206 C 312.456 2.96723 0.996209 0
M  V30 3207 C 312.931 4.41173 1.23007 0
M  V30 3208 N 314.422 4.44657 1.29749 0
M  V30 3209 C 315.157 5.53547 1.49577 0
M  V30 3210 N 314.653 6.72461 1.66639 0
M  V30 3211 N 316.446 5.41145 1.52048 0
M  V30 3212 H 308.597 2.07415 -0.457481 0
M  V30 3213 H 310.86 0.9372 -0.142687 0
M  V30 3214 H 310.566 3.51644 0.0629938 0
M  V30 3215 H 310.44 3.31401 1.80148 0
M  V30 3216 H 312.827 2.32235 1.82074 0
M  V30 3217 H 312.908 2.55707 0.0688331 0
M  V30 3218 H 312.552 5.06238 0.410505 0
M  V30 3219 H 312.482 4.79772 2.17086 0
M  V30 3220 H 314.973 3.58963 1.18126 0
M  V30 3221 H 315.286 7.51214 1.81378 0
M  V30 3222 H 313.631 6.75423 1.63794 0
M  V30 3223 H 316.822 4.47205 1.38294 0
M  V30 3224 H 316.995 6.26068 1.67159 0
M  V30 3225 N 310.401 -0.613514 1.45168 0
M  V30 3226 C 311.311 -1.75296 1.55912 0
M  V30 3227 C 312.327 -1.68244 0.443856 0
M  V30 3228 O 313.503 -1.88706 0.70371 0
M  V30 3229 C 310.568 -3.1174 1.5172 0
M  V30 3230 C 309.629 -3.30291 2.74238 0
M  V30 3231 C 308.862 -4.60226 2.70236 0
M  V30 3232 O 309.085 -5.42168 1.77229 0
M  V30 3233 O 308.019 -4.81361 3.61352 0
M  V30 3234 H 311.845 -1.69183 2.52212 0
M  V30 3235 H 309.43 -0.776886 1.27612 0
M  V30 3236 H 311.312 -3.93044 1.51968 0
M  V30 3237 H 309.987 -3.18357 0.585697 0
M  V30 3238 H 308.894 -2.48598 2.79553 0
M  V30 3239 H 310.227 -3.28547 3.66494 0
M  V30 3240 N 311.879 -1.3236 -0.855495 0
M  V30 3241 C 313.295 -1.11332 -1.14356 0
M  V30 3242 C 313.495 0.106751 -2.01217 0
M  V30 3243 O 312.551 0.791891 -2.39761 0
M  V30 3244 C 313.864 -2.39237 -1.82171 0
M  V30 3245 C 315.412 -2.44986 -1.9481 0
M  V30 3246 C 315.887 -3.7281 -2.66039 0
M  V30 3247 N 317.378 -3.73787 -2.73565 0
M  V30 3248 C 318.113 -4.69394 -3.29327 0
M  V30 3249 N 317.609 -5.75367 -3.85907 0
M  V30 3250 N 319.402 -4.56893 -3.27423 0
M  V30 3251 H 311.553 -2.10586 -0.277027 0
M  V30 3252 H 313.816 -0.929701 -0.185364 0
M  V30 3253 H 313.522 -3.28431 -1.25802 0
M  V30 3254 H 313.396 -2.50134 -2.82335 0
M  V30 3255 H 315.783 -1.56252 -2.50338 0
M  V30 3256 H 315.864 -2.38043 -0.936448 0
M  V30 3257 H 315.508 -4.61918 -2.11174 0
M  V30 3258 H 315.438 -3.77024 -3.67642 0
M  V30 3259 H 317.929 -2.97189 -2.33424 0
M  V30 3260 H 318.242 -6.44378 -4.26611 0
M  V30 3261 H 316.587 -5.79123 -3.84242 0
M  V30 3262 H 319.778 -3.73269 -2.82467 0
M  V30 3263 H 319.951 -5.31577 -3.7058 0
M  V30 3264 N 313.357 1.07166 -1.15556 0
M  V30 3265 C 314.773 1.31899 -0.898603 0
M  V30 3266 C 314.973 1.96333 0.453383 0
M  V30 3267 O 314.029 2.22438 1.19489 0
M  V30 3268 C 315.342 2.20826 -2.04099 0
M  V30 3269 C 316.89 2.34269 -2.07574 0
M  V30 3270 C 317.365 3.26546 -3.21141 0
M  V30 3271 N 318.856 3.34127 -3.20801 0
M  V30 3272 C 319.591 4.05595 -4.05315 0
M  V30 3273 N 319.087 4.79661 -4.99897 0
M  V30 3274 N 320.88 4.01555 -3.93332 0
M  V30 3275 H 313.031 0.637302 -2.02613 0
M  V30 3276 H 315.294 0.343468 -0.883591 0
M  V30 3277 H 315 1.80744 -3.01703 0
M  V30 3278 H 314.874 3.21364 -1.97496 0
M  V30 3279 H 317.261 2.73603 -1.10568 0
M  V30 3280 H 317.342 1.33429 -2.18244 0
M  V30 3281 H 316.986 2.87931 -4.184 0
M  V30 3282 H 316.916 4.27345 -3.07708 0
M  V30 3283 H 319.407 2.81336 -2.52306 0
M  V30 3284 H 319.72 5.31694 -5.60822 0
M  V30 3285 H 318.065 4.78671 -5.03884 0
M  V30 3286 H 321.256 3.42806 -3.18751 0
M  V30 3287 H 321.429 4.56987 -4.5942 0
M  V30 3288 N 314.835 0.952656 1.25548 0
M  V30 3289 C 316.112 0.523818 1.88456 0
M  V30 3290 C 316.492 -0.998871 1.85973 0
M  V30 3291 O 315.84 -1.86381 1.3219 0
M  V30 3292 C 316.05 1.0982 3.31271 0
M  V30 3293 C 317.398 1.17385 4.08051 0
M  V30 3294 O 318.422 1.04961 3.40384 0
M  V30 3295 O 317.281 1.36852 5.29088 0
M  V30 3296 H 314.375 0.172485 0.808813 0
M  V30 3297 H 316.921 1.04596 1.33633 0
M  V30 3298 H 315.693 2.1415 3.27499 0
M  V30 3299 H 315.316 0.559191 3.93648 0
M  V30 3300 N 316.313 -1.40141 0.720998 0
M  V30 3301 C 317.538 -2.05618 0.271258 0
M  V30 3302 C 317.963 -1.53978 -1.08039 0
M  V30 3303 O 317.321 -0.677463 -1.68167 0
M  V30 3304 C 317.369 -3.59609 0.267197 0
M  V30 3305 O 316.473 -4.05526 -0.749814 0
M  V30 3306 H 315.814 -0.651904 0.126162 0
M  V30 3307 H 318.344 -1.79439 0.982997 0
M  V30 3308 H 318.354 -4.0786 0.106744 0
M  V30 3309 H 317.029 -3.96559 1.25354 0
M  V30 3310 H 315.606 -3.68722 -0.556644 0
M  V30 3311 N 317.792 -0.46758 -1.50504 0
M  V30 3312 C 319.069 0.15003 -1.95024 0
M  V30 3313 C 319.449 1.57304 -1.40779 0
M  V30 3314 O 318.797 2.20281 -0.607319 0
M  V30 3315 C 319.007 0.0969324 -3.48865 0
M  V30 3316 C 320.355 0.287565 -4.23625 0
M  V30 3317 O 321.379 0.173678 -3.55776 0
M  V30 3318 O 320.238 0.517186 -5.44047 0
M  V30 3319 H 317.332 0.113582 -0.819163 0
M  V30 3320 H 319.878 -0.52773 -1.61286 0
M  V30 3321 H 318.65 -0.896732 -3.80886 0
M  V30 3322 H 318.273 0.816303 -3.8913 0
M  V30 3323 N 319.27 1.56325 -0.20005 0
M  V30 3324 C 320.498 2.02105 0.442874 0
M  V30 3325 C 320.913 1.08014 1.5485 0
M  V30 3326 O 320.27 0.0858797 1.82298 0
M  V30 3327 C 320.321 3.47549 0.994583 0
M  V30 3328 O 320.042 4.38049 -0.0669322 0
M  V30 3329 C 321.543 4.0887 1.7129 0
M  V30 3330 H 318.763 0.661807 0.110691 0
M  V30 3331 H 321.307 2.02134 -0.310207 0
M  V30 3332 H 319.462 3.48204 1.69803 0
M  V30 3333 H 319.876 5.23368 0.344462 0
M  V30 3334 H 321.35 5.12475 2.05118 0
M  V30 3335 H 321.827 3.52615 2.61838 0
M  V30 3336 H 322.433 4.12002 1.05518 0
M  V30 3337 N 320.748 -0.0735177 1.57428 0
M  V30 3338 C 321.978 -0.78483 1.91112 0
M  V30 3339 C 322.386 -1.71729 0.7941 0
M  V30 3340 O 321.729 -1.82105 -0.241542 0
M  V30 3341 C 321.791 -1.63346 3.20247 0
M  V30 3342 C 321.455 -0.870557 4.48632 0
M  V30 3343 C 322.452 -0.19058 5.19551 0
M  V30 3344 C 320.137 -0.838242 4.95256 0
M  V30 3345 C 322.131 0.511503 6.35344 0
M  V30 3346 C 319.818 -0.132386 6.10957 0
M  V30 3347 C 320.816 0.541288 6.80852 0
M  V30 3348 O 320.504 1.23578 7.94345 0
M  V30 3349 H 320.236 -0.228408 0.636244 0
M  V30 3350 H 322.79 -0.0486039 2.05342 0
M  V30 3351 H 321.02 -2.41245 3.02222 0
M  V30 3352 H 322.709 -2.22329 3.39595 0
M  V30 3353 H 323.475 -0.206864 4.84559 0
M  V30 3354 H 319.354 -1.35206 4.40727 0
M  V30 3355 H 322.898 1.03789 6.89836 0
M  V30 3356 H 318.795 -0.114023 6.45399 0
M  V30 3357 H 319.563 1.14487 8.10454 0
M  V30 3358 N 322.226 -1.5378 -0.344866 0
M  V30 3359 C 323.642 -1.44015 -0.687888 0
M  V30 3360 C 323.842 -0.595834 -1.92489 0
M  V30 3361 O 322.898 -0.0863064 -2.52352 0
M  V30 3362 C 324.211 -2.87481 -0.881758 0
M  V30 3363 C 325.759 -2.97247 -0.980459 0
M  V30 3364 C 326.234 -4.41819 -1.20665 0
M  V30 3365 N 327.725 -4.45339 -1.27389 0
M  V30 3366 C 328.46 -5.54333 -1.46639 0
M  V30 3367 N 327.956 -6.73335 -1.63071 0
M  V30 3368 N 329.749 -5.41944 -1.49176 0
M  V30 3369 H 321.9 -2.07169 0.468475 0
M  V30 3370 H 324.163 -0.93643 0.147655 0
M  V30 3371 H 323.869 -3.51672 -0.0443444 0
M  V30 3372 H 323.743 -3.32352 -1.78388 0
M  V30 3373 H 326.13 -2.33197 -1.8084 0
M  V30 3374 H 326.211 -2.5574 -0.0552713 0
M  V30 3375 H 325.855 -5.06449 -0.383652 0
M  V30 3376 H 325.785 -4.80917 -2.14539 0
M  V30 3377 H 328.276 -3.59585 -1.1622 0
M  V30 3378 H 328.589 -7.52165 -1.77391 0
M  V30 3379 H 326.934 -6.76282 -1.60209 0
M  V30 3380 H 330.125 -4.47932 -1.3592 0
M  V30 3381 H 330.298 -6.26946 -1.63837 0
M  V30 3382 N 323.704 0.605807 -1.45491 0
M  V30 3383 C 324.944 1.37606 -1.51142 0
M  V30 3384 C 325.308 1.91413 -0.150075 0
M  V30 3385 O 326.509 2.68677 -0.0812828 0
M  V30 3386 C 324.78 2.49197 -2.56195 0
M  V30 3387 S 326.339 3.36953 -2.81083 0
M  V30 3388 H 323.157 0.469118 -0.534275 0
M  V30 3389 H 325.759 0.698845 -1.82583 0
M  V30 3390 H 324.463 2.0802 -3.53773 0
M  V30 3391 H 323.994 3.21717 -2.26411 0
M  V30 3392 H 326.009 4.47395 -2.14598 0
M  V30 3393 N 325.182 1.32811 0.848464 0
M  V30 3394 C 326.092 1.24278 1.98978 0
M  V30 3395 C 327.108 0.155176 1.73307 0
M  V30 3396 O 328.284 0.376999 1.9784 0
M  V30 3397 C 325.349 0.972444 3.32783 0
M  V30 3398 C 324.41 2.14911 3.71634 0
M  V30 3399 C 323.643 1.89157 4.99054 0
M  V30 3400 O 323.866 0.837165 5.64223 0
M  V30 3401 O 322.8 2.75433 5.35183 0
M  V30 3402 H 326.626 2.20238 2.09115 0
M  V30 3403 H 324.211 1.12762 0.980052 0
M  V30 3404 H 326.093 0.838432 4.12975 0
M  V30 3405 H 324.768 0.043051 3.23671 0
M  V30 3406 H 323.675 2.33862 2.91992 0
M  V30 3407 H 325.008 3.06151 3.85399 0
M  V30 3408 N 326.66 -1.06551 1.16123 0
M  V30 3409 C 327.57 -2.17484 0.879662 0
M  V30 3410 C 328.586 -1.73377 -0.147104 0
M  V30 3411 O 329.762 -2.01379 0.0289128 0
M  V30 3412 C 326.827 -3.44591 0.381829 0
M  V30 3413 C 325.888 -4.0322 1.4735 0
M  V30 3414 C 325.121 -5.24261 0.999324 0
M  V30 3415 O 325.344 -5.70198 -0.151957 0
M  V30 3416 O 324.278 -5.74775 1.78653 0
M  V30 3417 H 328.104 -2.44075 1.80724 0
M  V30 3418 H 325.689 -1.16042 0.940992 0
M  V30 3419 H 327.571 -4.21254 0.111053 0
M  V30 3420 H 326.246 -3.19532 -0.51777 0
M  V30 3421 H 325.153 -3.2806 1.79798 0
M  V30 3422 H 326.486 -4.32568 2.34831 0
M  V30 3423 N 328.138 -0.959301 -1.25041 0
M  V30 3424 C 329.554 -0.664474 -1.4511 0
M  V30 3425 C 329.754 0.776481 -1.85938 0
M  V30 3426 O 328.81 1.55128 -1.99227 0
M  V30 3427 C 330.123 -1.64139 -2.5195 0
M  V30 3428 C 331.671 -1.65309 -2.65786 0
M  V30 3429 C 332.146 -2.61777 -3.75815 0
M  V30 3430 N 333.637 -2.60169 -3.83231 0
M  V30 3431 C 334.372 -3.31489 -4.6787 0
M  V30 3432 N 333.868 -4.12298 -5.56761 0
M  V30 3433 N 335.661 -3.20354 -4.61876 0
M  V30 3434 H 327.812 -1.89043 -0.968332 0
M  V30 3435 H 330.075 -0.813408 -0.4869 0
M  V30 3436 H 329.781 -2.67086 -2.28819 0
M  V30 3437 H 329.655 -1.40756 -3.49954 0
M  V30 3438 H 332.042 -0.630778 -2.8828 0
M  V30 3439 H 332.123 -1.92753 -1.68167 0
M  V30 3440 H 331.767 -3.64137 -3.54071 0
M  V30 3441 H 331.697 -2.31616 -4.72929 0
M  V30 3442 H 334.188 -2.01507 -3.19692 0
M  V30 3443 H 334.501 -4.63625 -6.18281 0
M  V30 3444 H 332.846 -4.16395 -5.56454 0
M  V30 3445 H 336.037 -2.56692 -3.91442 0
M  V30 3446 H 336.21 -3.76201 -5.27614 0
M  V30 3447 N 329.616 1.39756 -0.72842 0
M  V30 3448 C 330.841 2.05472 -0.282159 0
M  V30 3449 C 331.266 1.54549 1.07221 0
M  V30 3450 O 330.624 0.686372 1.67805 0
M  V30 3451 C 330.672 3.59462 -0.286264 0
M  V30 3452 O 329.776 4.05918 0.728298 0
M  V30 3453 H 329.117 0.651226 -0.129618 0
M  V30 3454 H 331.647 1.78915 -0.992499 0
M  V30 3455 H 331.657 4.07798 -0.128373 0
M  V30 3456 H 330.332 3.95889 -1.27456 0
M  V30 3457 H 328.909 3.69012 0.537081 0
M  V30 3458 N 331.094 0.475555 1.50254 0
M  V30 3459 C 332.505 0.0215174 1.86688 0
M  V30 3460 C 332.856 -1.38467 1.39001 0
M  V30 3461 O 331.981 -2.02732 0.756894 0
M  V30 3462 C 332.576 0.0322715 3.38785 0
M  V30 3463 C 331.135 -0.366314 3.74613 0
M  V30 3464 C 330.282 0.415832 2.74164 0
M  V30 3465 H 333.233 0.689612 1.42934 0
M  V30 3466 H 333.254 -0.76889 3.7265 0
M  V30 3467 H 332.766 1.05584 3.73462 0
M  V30 3468 H 330.867 -1.39406 3.45538 0
M  V30 3469 H 330.98 -0.064555 4.79057 0
M  V30 3470 H 329.344 -0.131048 2.54363 0
M  V30 3471 H 330.127 1.43899 3.11686 0
M  V30 3472 N 332.573 -1.56217 0.208337 0
M  V30 3473 C 333.798 -2.02782 -0.435222 0
M  V30 3474 C 334.223 -1.08738 -1.53485 0
M  V30 3475 O 333.581 -0.0731855 -1.81152 0
M  V30 3476 C 333.629 -3.47687 -0.956335 0
M  V30 3477 O 332.733 -3.56773 -2.06849 0
M  V30 3478 H 332.074 -0.656403 -0.100158 0
M  V30 3479 H 334.604 -2.02033 0.3231 0
M  V30 3480 H 334.614 -3.87745 -1.26955 0
M  V30 3481 H 333.289 -4.15624 -0.15143 0
M  V30 3482 H 331.866 -3.28597 -1.76292 0
M  V30 3483 N 334.051 0.0651679 -1.57465 0
M  V30 3484 C 335.298 0.763063 -1.87573 0
M  V30 3485 C 335.626 1.77242 -0.800961 0
M  V30 3486 O 334.881 1.94651 0.202316 0
M  V30 3487 C 335.18 1.50081 -3.24362 0
M  V30 3488 C 334.846 0.630816 -4.46466 0
M  V30 3489 C 333.508 0.391082 -4.79608 0
M  V30 3490 C 335.86 0.0279465 -5.21193 0
M  V30 3491 C 333.188 -0.460894 -5.84887 0
M  V30 3492 C 335.54 -0.811522 -6.27373 0
M  V30 3493 C 334.204 -1.06106 -6.59013 0
M  V30 3494 H 333.474 0.279224 -0.686378 0
M  V30 3495 H 336.121 0.0236726 -1.91485 0
M  V30 3496 H 334.426 2.31258 -3.16271 0
M  V30 3497 H 336.123 2.04571 -3.44894 0
M  V30 3498 H 332.713 0.8278 -4.2053 0
M  V30 3499 H 336.897 0.200262 -4.95896 0
M  V30 3500 H 332.153 -0.662907 -6.07796 0
M  V30 3501 H 336.327 -1.28537 -6.84435 0
M  V30 3502 H 333.954 -1.723 -7.40417 0
M  V30 3503 N 335.529 1.53961 0.336706 0
M  V30 3504 C 336.777 1.71197 1.07405 0
M  V30 3505 C 337.098 0.481475 1.88962 0
M  V30 3506 O 336.368 -0.504585 1.8929 0
M  V30 3507 H 334.948 0.631185 0.399517 0
M  V30 3508 H 337.61 1.91232 0.376323 0
M  V30 3509 H 336.706 2.58587 1.74755 0
M  V30 3510 N 337.007 -0.598083 1.45811 0
M  V30 3511 C 337.917 -1.73632 1.57763 0
M  V30 3512 C 338.933 -1.67763 0.461676 0
M  V30 3513 O 340.109 -1.87949 0.723685 0
M  V30 3514 C 337.174 -3.10114 1.55018 0
M  V30 3515 C 336.235 -3.27364 2.77726 0
M  V30 3516 C 335.468 -4.57334 2.75102 0
M  V30 3517 O 335.691 -5.40258 1.8297 0
M  V30 3518 O 334.625 -4.77502 3.66437 0
M  V30 3519 H 338.451 -1.66498 2.53992 0
M  V30 3520 H 336.036 -0.763308 1.28429 0
M  V30 3521 H 337.918 -3.9141 1.56129 0
M  V30 3522 H 336.593 -3.17718 0.619431 0
M  V30 3523 H 335.5 -2.45619 2.82174 0
M  V30 3524 H 336.833 -3.24641 3.69958 0
M  V30 3525 N 338.485 -1.33259 -0.841409 0
M  V30 3526 C 339.762 -1.15174 -1.58096 0
M  V30 3527 C 340.142 0.282858 -2.09196 0
M  V30 3528 O 339.49 1.28151 -1.89181 0
M  V30 3529 C 339.7 -2.1907 -2.71679 0
M  V30 3530 C 341.048 -2.53093 -3.40924 0
M  V30 3531 O 342.072 -2.17717 -2.81918 0
M  V30 3532 O 340.931 -3.1379 -4.47435 0
M  V30 3533 H 338.025 -0.445303 -0.696875 0
M  V30 3534 H 340.571 -1.44833 -0.884385 0
M  V30 3535 H 339.343 -3.15443 -2.31541 0
M  V30 3536 H 338.966 -1.90481 -3.49002 0
M  V30 3537 N 339.963 1.05934 -1.16686 0
M  V30 3538 C 341.193 1.82226 -0.973515 0
M  V30 3539 C 341.601 1.8297 0.481532 0
M  V30 3540 O 340.944 1.25009 1.34604 0
M  V30 3541 C 341.006 3.29897 -1.42858 0
M  V30 3542 C 340.67 3.52849 -2.90425 0
M  V30 3543 C 341.667 3.45595 -3.88407 0
M  V30 3544 C 339.352 3.80053 -3.28428 0
M  V30 3545 C 341.346 3.65217 -5.22394 0
M  V30 3546 C 339.033 3.99325 -4.62583 0
M  V30 3547 C 340.031 3.91905 -5.59374 0
M  V30 3548 O 339.719 4.10647 -6.91104 0
M  V30 3549 H 339.451 0.581314 -0.345036 0
M  V30 3550 H 342.005 1.3453 -1.55212 0
M  V30 3551 H 340.235 3.78472 -0.793477 0
M  V30 3552 H 341.924 3.87692 -1.20207 0
M  V30 3553 H 342.69 3.24564 -3.60393 0
M  V30 3554 H 338.569 3.84936 -2.53664 0
M  V30 3555 H 342.113 3.59341 -5.9793 0
M  V30 3556 H 338.01 4.19846 -4.90306 0
M  V30 3557 H 338.778 4.27915 -6.97733 0
M  V30 3558 N 341.441 0.965919 1.2453 0
M  V30 3559 C 342.671 0.643451 1.96324 0
M  V30 3560 C 343.079 -0.790927 1.71875 0
M  V30 3561 O 342.422 -1.54208 0.998273 0
M  V30 3562 C 342.484 0.836078 3.49643 0
M  V30 3563 C 342.148 2.24975 3.97788 0
M  V30 3564 C 343.145 3.22735 4.07601 0
M  V30 3565 C 340.83 2.57697 4.31158 0
M  V30 3566 C 342.824 4.51303 4.50116 0
M  V30 3567 C 340.511 3.86492 4.73357 0
M  V30 3568 C 341.509 4.83107 4.828 0
M  V30 3569 O 341.197 6.09605 5.24058 0
M  V30 3570 H 340.929 0.239223 0.632257 0
M  V30 3571 H 343.483 1.29587 1.59362 0
M  V30 3572 H 341.713 0.12649 3.86493 0
M  V30 3573 H 343.402 0.512965 4.02646 0
M  V30 3574 H 344.168 2.98783 3.82039 0
M  V30 3575 H 340.047 1.83216 4.23028 0
M  V30 3576 H 343.591 5.26716 4.57401 0
M  V30 3577 H 339.488 4.10245 4.98366 0
M  V30 3578 H 340.256 6.13146 5.42213 0
M  V30 3579 N 342.919 -1.39368 0.735821 0
M  V30 3580 C 344.167 -2.00101 0.283562 0
M  V30 3581 C 344.488 -1.5868 -1.13338 0
M  V30 3582 O 343.758 -0.835423 -1.77193 0
M  V30 3583 H 342.338 -0.740024 0.101851 0
M  V30 3584 H 345 -1.70404 0.945962 0
M  V30 3585 H 344.096 -3.10323 0.332604 0
M  V30 3586 N 344.397 -0.483516 -1.5 0
M  V30 3587 C 345.808 -0.0314176 -1.86674 0
M  V30 3588 C 346.159 1.37728 -1.39733 0
M  V30 3589 O 345.284 2.02327 -0.767635 0
M  V30 3590 C 345.879 -0.0502376 -3.38763 0
M  V30 3591 C 344.438 0.346442 -3.74802 0
M  V30 3592 C 343.585 -0.430366 -2.7394 0
M  V30 3593 H 346.536 -0.697182 -1.42566 0
M  V30 3594 H 346.557 0.749116 -3.73053 0
M  V30 3595 H 346.069 -1.07563 -3.72897 0
M  V30 3596 H 344.17 1.37572 -3.46273 0
M  V30 3597 H 344.283 0.0391486 -4.79084 0
M  V30 3598 H 342.647 0.117557 -2.54429 0
M  V30 3599 H 343.43 -1.4555 -3.10918 0
M  V30 3600 N 345.875 1.56104 -0.216619 0
M  V30 3601 C 347.1 2.0301 0.424462 0
M  V30 3602 C 347.525 1.0955 1.52907 0
M  V30 3603 O 346.883 0.0827914 1.81111 0
M  V30 3604 C 346.931 3.4819 0.937883 0
M  V30 3605 O 346.035 3.57865 2.04955 0
M  V30 3606 H 345.376 0.656925 0.0966755 0
M  V30 3607 H 347.906 2.01859 -0.33381 0
M  V30 3608 H 347.916 3.88413 1.24897 0
M  V30 3609 H 346.591 4.15699 0.129387 0
M  V30 3610 H 345.168 3.29527 1.74546 0
M  V30 3611 N 347.353 -0.0568162 1.57498 0
M  V30 3612 C 348.769 -0.411933 1.54192 0
M  V30 3613 C 348.969 -1.78287 0.938942 0
M  V30 3614 O 348.025 -2.46483 0.547919 0
M  V30 3615 C 349.338 -0.339244 2.9878 0
M  V30 3616 C 350.886 -0.418348 3.10192 0
M  V30 3617 C 351.361 -0.375407 4.56459 0
M  V30 3618 N 352.852 -0.435038 4.61153 0
M  V30 3619 C 353.587 -0.424265 5.71828 0
M  V30 3620 N 353.083 -0.367418 6.91825 0
M  V30 3621 N 354.876 -0.471938 5.60115 0
M  V30 3622 H 347.027 0.840684 1.95055 0
M  V30 3623 H 349.29 0.316987 0.893433 0
M  V30 3624 H 348.996 0.601742 3.46514 0
M  V30 3625 H 348.87 -1.14371 3.59443 0
M  V30 3626 H 351.257 -1.34976 2.62422 0
M  V30 3627 H 351.338 0.414962 2.52412 0
M  V30 3628 H 350.982 0.552219 5.04889 0
M  V30 3629 H 350.912 -1.22645 5.12119 0
M  V30 3630 H 353.403 -0.482612 3.74806 0
M  V30 3631 H 353.716 -0.363535 7.71944 0
M  V30 3632 H 352.061 -0.333879 6.94198 0
M  V30 3633 H 355.252 -0.514145 4.65268 0
M  V30 3634 H 355.425 -0.460073 6.46365 0
M  V30 3635 N 348.832 -1.54138 -0.328536 0
M  V30 3636 C 350.057 -1.76378 -1.09112 0
M  V30 3637 C 350.482 -0.508596 -1.81094 0
M  V30 3638 O 349.84 0.539598 -1.73084 0
M  V30 3639 C 349.888 -2.95358 -2.06872 0
M  V30 3640 O 348.992 -2.66556 -3.14677 0
M  V30 3641 H 348.333 -0.584614 -0.314838 0
M  V30 3642 H 350.863 -2.01146 -0.374348 0
M  V30 3643 H 350.873 -3.22566 -2.4983 0
M  V30 3644 H 349.548 -3.86385 -1.5388 0
M  V30 3645 H 348.125 -2.50282 -2.7643 0
M  V30 3646 N 350.31 0.590341 -1.46126 0
M  V30 3647 C 351.726 0.912917 -1.30912 0
M  V30 3648 C 351.926 1.99616 -0.274893 0
M  V30 3649 O 350.982 2.50397 0.325197 0
M  V30 3650 C 352.295 1.3375 -2.69317 0
M  V30 3651 C 353.843 1.45077 -2.77348 0
M  V30 3652 C 354.318 1.90904 -4.16317 0
M  V30 3653 N 355.809 1.9811 -4.18696 0
M  V30 3654 C 356.544 2.34828 -5.23109 0
M  V30 3655 N 356.04 2.70393 -6.37856 0
M  V30 3656 N 357.833 2.35317 -5.10473 0
M  V30 3657 H 349.984 -0.125358 -2.1203 0
M  V30 3658 H 352.247 0.00658481 -0.947977 0
M  V30 3659 H 351.953 0.615614 -3.4627 0
M  V30 3660 H 351.827 2.30058 -2.9892 0
M  V30 3661 H 354.214 2.16353 -2.00687 0
M  V30 3662 H 354.295 0.4704 -2.51438 0
M  V30 3663 H 353.939 1.20209 -4.9347 0
M  V30 3664 H 353.869 2.89886 -4.39629 0
M  V30 3665 H 356.36 1.73146 -3.359 0
M  V30 3666 H 356.673 2.97341 -7.13308 0
M  V30 3667 H 355.018 2.68048 -6.41229 0
M  V30 3668 H 358.209 2.0695 -4.19868 0
M  V30 3669 H 358.382 2.63605 -5.9196 0
M  V30 3670 N 351.788 1.33704 0.83433 0
M  V30 3671 C 352.738 1.20899 1.93306 0
M  V30 3672 C 353.722 0.110783 1.60518 0
M  V30 3673 O 354.914 0.339331 1.73717 0
M  V30 3674 C 352.043 0.955018 3.29749 0
M  V30 3675 C 351.129 2.09587 3.68692 0
M  V30 3676 N 351.52 3.34621 3.79292 0
M  V30 3677 C 349.818 2.00358 3.98463 0
M  V30 3678 C 350.519 4.09472 4.13167 0
M  V30 3679 N 349.495 3.37954 4.25779 0
M  V30 3680 H 353.297 2.15665 1.99664 0
M  V30 3681 H 350.811 1.25777 1.02732 0
M  V30 3682 H 352.808 0.844208 4.08263 0
M  V30 3683 H 351.468 0.0159317 3.24696 0
M  V30 3684 H 352.479 3.69313 3.63082 0
M  V30 3685 H 349.156 1.14137 4.01596 0
M  V30 3686 H 350.546 5.17391 4.28668 0
M  V30 3687 N 353.266 -1.05314 1.17247 0
M  V30 3688 C 354.682 -1.30452 0.919473 0
M  V30 3689 C 354.882 -1.9703 -0.42209 0
M  V30 3690 O 353.938 -2.24311 -1.15935 0
M  V30 3691 C 355.251 -2.17551 2.07586 0
M  V30 3692 C 356.799 -2.30937 2.11275 0
M  V30 3693 C 357.274 -3.21396 3.26296 0
M  V30 3694 N 358.765 -3.28981 3.26076 0
M  V30 3695 C 359.5 -3.99095 4.11716 0
M  V30 3696 N 358.996 -4.71648 5.07465 0
M  V30 3697 N 360.789 -3.95247 3.9967 0
M  V30 3698 H 352.94 -0.604988 2.03602 0
M  V30 3699 H 355.203 -0.329368 0.888944 0
M  V30 3700 H 354.909 -1.75921 3.0454 0
M  V30 3701 H 354.783 -3.18182 2.02584 0
M  V30 3702 H 357.17 -2.71809 1.14907 0
M  V30 3703 H 357.251 -1.2994 2.20339 0
M  V30 3704 H 356.895 -2.81238 4.22927 0
M  V30 3705 H 356.825 -4.22395 3.14467 0
M  V30 3706 H 359.316 -2.77286 2.5675 0
M  V30 3707 H 359.629 -5.22705 5.6921 0
M  V30 3708 H 357.974 -4.70594 5.11435 0
M  V30 3709 H 361.165 -3.37691 3.24164 0
M  V30 3710 H 361.338 -4.4962 4.66632 0
M  V30 3711 N 354.744 -0.972509 -1.24016 0
M  V30 3712 C 356.16 -0.679827 -1.44397 0
M  V30 3713 C 356.36 0.756716 -1.86751 0
M  V30 3714 O 355.416 1.53007 -2.00861 0
M  V30 3715 C 356.729 -1.66803 -2.50195 0
M  V30 3716 C 358.277 -1.68119 -2.64017 0
M  V30 3717 C 358.752 -2.65748 -3.73017 0
M  V30 3718 N 360.243 -2.64219 -3.8045 0
M  V30 3719 C 360.978 -3.36433 -4.64328 0
M  V30 3720 N 360.474 -4.1818 -5.52356 0
M  V30 3721 N 362.267 -3.25235 -4.58453 0
M  V30 3722 H 354.418 -1.90059 -0.948228 0
M  V30 3723 H 356.681 -0.818527 -0.478245 0
M  V30 3724 H 356.387 -2.69498 -2.25973 0
M  V30 3725 H 356.261 -1.4446 -3.48441 0
M  V30 3726 H 358.648 -0.661319 -2.87594 0
M  V30 3727 H 358.729 -1.94525 -1.66113 0
M  V30 3728 H 358.373 -3.67872 -3.50189 0
M  V30 3729 H 358.303 -2.36619 -4.70446 0
M  V30 3730 H 360.794 -2.04887 -3.17537 0
M  V30 3731 H 361.107 -4.70157 -6.13329 0
M  V30 3732 H 359.452 -4.22273 -5.52006 0
M  V30 3733 H 362.643 -2.60829 -3.88698 0
M  V30 3734 H 362.816 -3.81776 -5.23594 0
M  V30 3735 N 356.222 1.38976 -0.743202 0
M  V30 3736 C 357.638 1.53984 -0.419664 0
M  V30 3737 C 357.838 1.70837 1.0685 0
M  V30 3738 O 356.894 1.7135 1.8546 0
M  V30 3739 C 358.207 2.75287 -1.20985 0
M  V30 3740 C 359.755 2.89129 -1.19889 0
M  V30 3741 C 360.23 4.13381 -1.97181 0
M  V30 3742 N 361.721 4.20437 -1.94389 0
M  V30 3743 C 362.456 5.15547 -2.50996 0
M  V30 3744 N 361.952 6.16395 -3.16274 0
M  V30 3745 N 363.745 5.07822 -2.40984 0
M  V30 3746 H 355.896 1.26285 -1.7078 0
M  V30 3747 H 358.159 0.612689 -0.723406 0
M  V30 3748 H 357.865 2.69204 -2.26323 0
M  V30 3749 H 357.739 3.68184 -0.819759 0
M  V30 3750 H 360.126 2.947 -0.153606 0
M  V30 3751 H 360.207 1.97272 -1.62841 0
M  V30 3752 H 359.851 4.08572 -3.01714 0
M  V30 3753 H 359.781 5.04298 -1.51629 0
M  V30 3754 H 362.272 3.48205 -1.46839 0
M  V30 3755 H 362.585 6.85443 -3.56915 0
M  V30 3756 H 360.93 6.16758 -3.20367 0
M  V30 3757 H 364.121 4.27973 -1.89622 0
M  V30 3758 H 364.294 5.81767 -2.85397 0
M  V30 3759 N 357.7 0.491464 1.49741 0
M  V30 3760 C 358.925 -0.0557177 2.07325 0
M  V30 3761 C 359.35 -1.30925 1.35056 0
M  V30 3762 O 358.708 -1.76733 0.404365 0
M  V30 3763 C 358.756 -0.302074 3.59333 0
M  V30 3764 O 357.86 -1.37868 3.88672 0
M  V30 3765 H 357.201 0.0219956 0.663636 0
M  V30 3766 H 359.731 0.688352 1.92673 0
M  V30 3767 H 359.741 -0.536464 4.04458 0
M  V30 3768 H 358.416 0.61383 4.11345 0
M  V30 3769 H 356.993 -1.12999 3.55367 0
M  V30 3770 N 359.178 -1.55987 0.224894 0
M  V30 3771 C 360.594 -1.59066 -0.130426 0
M  V30 3772 C 360.794 -1.24176 -1.5869 0
M  V30 3773 O 359.85 -0.978592 -2.32766 0
M  V30 3774 C 361.163 -3.00042 0.198883 0
M  V30 3775 C 362.711 -3.1268 0.141391 0
M  V30 3776 C 363.186 -4.55839 0.444422 0
M  V30 3777 N 364.677 -4.6152 0.394115 0
M  V30 3778 C 365.412 -5.70231 0.602038 0
M  V30 3779 N 364.908 -6.87291 0.871914 0
M  V30 3780 N 366.701 -5.59555 0.534245 0
M  V30 3781 H 358.852 -1.76941 1.17497 0
M  V30 3782 H 361.115 -0.822604 0.471197 0
M  V30 3783 H 360.821 -3.30234 1.2099 0
M  V30 3784 H 360.695 -3.74075 -0.484535 0
M  V30 3785 H 363.082 -2.82283 -0.860265 0
M  V30 3786 H 363.163 -2.40969 0.858335 0
M  V30 3787 H 362.807 -4.86954 1.44353 0
M  V30 3788 H 362.737 -5.2578 -0.293752 0
M  V30 3789 H 365.228 -3.77405 0.193356 0
M  V30 3790 H 365.541 -7.66058 1.01858 0
M  V30 3791 H 363.886 -6.89028 0.909145 0
M  V30 3792 H 367.077 -4.6698 0.323612 0
M  V30 3793 H 367.25 -6.44211 0.699693 0
M  V30 3794 N 360.656 0.0484629 -1.57525 0
M  V30 3795 C 361.566 1.07241 -2.08654 0
M  V30 3796 C 362.582 1.409 -1.02095 0
M  V30 3797 O 363.758 1.50609 -1.33712 0
M  V30 3798 C 360.823 2.36008 -2.5397 0
M  V30 3799 C 359.884 2.09108 -3.7493 0
M  V30 3800 C 359.117 3.31736 -4.18075 0
M  V30 3801 O 359.34 4.41714 -3.60895 0
M  V30 3802 O 358.274 3.18576 -5.10679 0
M  V30 3803 H 362.1 0.667965 -2.96263 0
M  V30 3804 H 359.685 0.26417 -1.47046 0
M  V30 3805 H 361.567 3.11747 -2.83535 0
M  V30 3806 H 360.242 2.75786 -1.69481 0
M  V30 3807 H 359.149 1.31 -3.50414 0
M  V30 3808 H 360.482 1.74198 -4.60343 0
M  V30 3809 N 362.134 1.5431 0.320358 0
M  V30 3810 C 363.55 1.45091 0.664889 0
M  V30 3811 C 363.75 0.626382 1.91517 0
M  V30 3812 O 362.806 0.126443 2.52183 0
M  V30 3813 C 364.119 2.88848 0.83591 0
M  V30 3814 C 365.667 2.9877 0.933046 0
M  V30 3815 C 366.142 4.43683 1.13621 0
M  V30 3816 N 367.633 4.47309 1.20287 0
M  V30 3817 C 368.368 5.56595 1.37801 0
M  V30 3818 N 367.864 6.75844 1.52338 0
M  V30 3819 N 369.657 5.44248 1.40535 0
M  V30 3820 H 361.808 2.06398 -0.501374 0
M  V30 3821 H 364.071 0.933963 -0.162534 0
M  V30 3822 H 363.777 3.51698 -0.0116092 0
M  V30 3823 H 363.651 3.35148 1.73078 0
M  V30 3824 H 366.038 2.36045 1.77107 0
M  V30 3825 H 366.119 2.55796 0.0145782 0
M  V30 3826 H 365.763 5.06995 0.303032 0
M  V30 3827 H 365.693 4.84269 2.0686 0
M  V30 3828 H 368.184 3.61388 1.10485 0
M  V30 3829 H 368.497 7.54892 1.65403 0
M  V30 3830 H 366.842 6.78746 1.4943 0
M  V30 3831 H 370.033 4.50038 1.28777 0
M  V30 3832 H 370.206 6.29473 1.53842 0
M  V30 3833 N 363.613 -0.582584 1.46437 0
M  V30 3834 C 364.861 -1.33814 1.51453 0
M  V30 3835 C 365.182 -1.94277 0.167792 0
M  V30 3836 O 364.452 -1.78566 -0.805677 0
M  V30 3837 H 363.032 -0.496838 0.557818 0
M  V30 3838 H 365.694 -0.682281 1.82568 0
M  V30 3839 H 364.79 -2.14479 2.26728 0
M  V30 3840 N 365.091 -1.34144 -0.827227 0
M  V30 3841 C 366.502 -1.23557 -1.39966 0
M  V30 3842 C 366.853 0.140731 -1.95695 0
M  V30 3843 O 365.978 1.04087 -1.89723 0
M  V30 3844 C 366.573 -2.23708 -2.54441 0
M  V30 3845 C 365.132 -2.16924 -3.07605 0
M  V30 3846 C 364.279 -2.10549 -1.80456 0
M  V30 3847 H 367.23 -1.45573 -0.631991 0
M  V30 3848 H 367.251 -1.85157 -3.32411 0
M  V30 3849 H 366.763 -3.23866 -2.13851 0
M  V30 3850 H 364.864 -1.20107 -3.52711 0
M  V30 3851 H 364.977 -3.07988 -3.66988 0
M  V30 3852 H 363.341 -1.56203 -2.01178 0
M  V30 3853 H 364.124 -3.12535 -1.42046 0
M  V30 3854 N 366.569 1.04691 -1.17803 0
M  V30 3855 C 367.799 1.81183 -0.992788 0
M  V30 3856 C 368.207 1.8347 0.462098 0
M  V30 3857 O 367.55 1.2643 1.33271 0
M  V30 3858 C 367.612 3.28363 -1.46349 0
M  V30 3859 C 367.276 3.49749 -2.94151 0
M  V30 3860 C 368.273 3.41456 -3.92051 0
M  V30 3861 C 365.958 3.76548 -3.32441 0
M  V30 3862 C 367.952 3.59656 -5.26238 0
M  V30 3863 C 365.639 3.94396 -4.66792 0
M  V30 3864 C 366.637 3.8595 -5.635 0
M  V30 3865 O 366.325 4.03294 -6.9542 0
M  V30 3866 H 366.057 0.577622 -0.351182 0
M  V30 3867 H 368.611 1.32876 -1.5663 0
M  V30 3868 H 366.841 3.77609 -0.833574 0
M  V30 3869 H 368.53 3.86395 -1.24313 0
M  V30 3870 H 369.296 3.20723 -3.63815 0
M  V30 3871 H 365.175 3.82224 -2.57732 0
M  V30 3872 H 368.719 3.52979 -6.01707 0
M  V30 3873 H 364.616 4.14622 -4.94731 0
M  V30 3874 H 365.384 4.2049 -7.02232 0
M  V30 3875 N 368.047 0.979072 1.23499 0
M  V30 3876 C 369.463 0.687475 1.44034 0
M  V30 3877 C 369.663 -0.746801 1.8715 0
M  V30 3878 O 368.719 -1.51939 2.0167 0
M  V30 3879 C 370.032 1.68127 2.49307 0
M  V30 3880 C 371.58 1.69516 2.63122 0
M  V30 3881 C 372.055 2.67723 3.71603 0
M  V30 3882 N 373.546 2.66233 3.79044 0
M  V30 3883 C 374.281 3.38891 4.62537 0
M  V30 3884 N 373.777 4.21103 5.50131 0
M  V30 3885 N 375.57 3.27661 4.56721 0
M  V30 3886 H 367.721 1.90559 0.938135 0
M  V30 3887 H 369.984 0.821051 0.473897 0
M  V30 3888 H 369.69 2.70693 2.2454 0
M  V30 3889 H 369.564 1.46306 3.4767 0
M  V30 3890 H 371.951 0.676561 2.8724 0
M  V30 3891 H 372.032 1.95404 1.65079 0
M  V30 3892 H 371.676 3.69724 3.48233 0
M  V30 3893 H 371.606 2.39111 4.69184 0
M  V30 3894 H 374.097 2.06568 3.16446 0
M  V30 3895 H 374.41 4.73403 6.10827 0
M  V30 3896 H 372.755 4.25195 5.49759 0
M  V30 3897 H 375.946 2.62887 3.87309 0
M  V30 3898 H 376.119 3.84547 5.21562 0
M  V30 3899 N 369.525 -1.3858 0.750561 0
M  V30 3900 C 370.753 -2.04471 0.316098 0
M  V30 3901 C 371.168 -1.56606 -1.05452 0
M  V30 3902 O 370.525 -0.737784 -1.66922 0
M  V30 3903 C 370.576 -3.60025 0.326275 0
M  V30 3904 O 370.297 -4.06133 1.6428 0
M  V30 3905 C 371.798 -4.43131 -0.122429 0
M  V30 3906 H 369.018 -0.65717 0.135528 0
M  V30 3907 H 371.562 -1.77329 1.01857 0
M  V30 3908 H 369.717 -3.86014 -0.327431 0
M  V30 3909 H 370.131 -5.00547 1.56693 0
M  V30 3910 H 371.605 -5.51963 -0.0641473 0
M  V30 3911 H 372.082 -4.23333 -1.16988 0
M  V30 3912 H 372.688 -4.22323 0.50229 0
M  V30 3913 N 371.003 -0.499398 -1.49478 0
M  V30 3914 C 372.419 -0.155261 -1.58843 0
M  V30 3915 C 372.619 1.34008 -1.50479 0
M  V30 3916 O 371.675 2.11589 -1.37791 0
M  V30 3917 C 372.988 -0.730636 -2.91689 0
M  V30 3918 C 374.536 -0.696599 -3.0515 0
M  V30 3919 C 375.011 -1.25001 -4.40612 0
M  V30 3920 N 376.502 -1.21064 -4.47099 0
M  V30 3921 C 377.237 -1.60905 -5.50361 0
M  V30 3922 N 376.733 -2.08331 -6.60735 0
M  V30 3923 N 378.526 -1.52331 -5.41065 0
M  V30 3924 H 370.677 -1.47162 -1.53158 0
M  V30 3925 H 372.94 -0.610309 -0.725415 0
M  V30 3926 H 372.646 -1.77928 -3.03372 0
M  V30 3927 H 372.52 -0.190161 -3.7672 0
M  V30 3928 H 374.907 0.343204 -2.93097 0
M  V30 3929 H 374.988 -1.2742 -2.21806 0
M  V30 3930 H 374.632 -2.28859 -4.53416 0
M  V30 3931 H 374.562 -0.64836 -5.22593 0
M  V30 3932 H 377.053 -0.863128 -3.67911 0
M  V30 3933 H 377.366 -2.36805 -7.35624 0
M  V30 3934 H 375.711 -2.12304 -6.6178 0
M  V30 3935 H 378.902 -1.151 -4.53729 0
M  V30 3936 H 379.075 -1.83704 -6.21415 0
M  V30 3937 N 372.481 1.55866 -0.233164 0
M  V30 3938 C 373.428 2.20796 0.67215 0
M  V30 3939 C 374.398 1.16731 1.18166 0
M  V30 3940 O 375.583 1.45129 1.23864 0
M  V30 3941 C 372.723 2.90072 1.86955 0
M  V30 3942 C 371.836 4.08759 1.39786 0
M  V30 3943 C 370.971 4.65787 2.55374 0
M  V30 3944 C 370.01 5.76752 2.04998 0
M  V30 3945 N 369.147 6.28021 3.13901 0
M  V30 3946 H 373.987 2.9779 0.111749 0
M  V30 3947 H 371.524 1.47036 0.0434007 0
M  V30 3948 H 373.482 3.28428 2.57276 0
M  V30 3949 H 372.112 2.15575 2.40265 0
M  V30 3950 H 371.164 3.7581 0.589173 0
M  V30 3951 H 372.476 4.88906 0.98856 0
M  V30 3952 H 371.63 5.06646 3.33758 0
M  V30 3953 H 370.369 3.84828 2.99598 0
M  V30 3954 H 369.374 5.35383 1.25079 0
M  V30 3955 H 370.599 6.59553 1.61759 0
M  V30 3956 H 368.545 5.49971 3.57586 0
M  V30 3957 H 368.462 7.03323 2.7726 0
M  V30 3958 H 369.73 6.73538 3.92386 0
M  V30 3959 N 373.959 -0.0401083 1.57549 0
M  V30 3960 C 374.909 -1.05175 2.02292 0
M  V30 3961 C 375.893 -1.32674 0.910294 0
M  V30 3962 O 377.085 -1.32444 1.17421 0
M  V30 3963 C 374.214 -2.35622 2.49674 0
M  V30 3964 C 373.3 -2.11261 3.67736 0
M  V30 3965 N 373.691 -1.56923 4.80842 0
M  V30 3966 C 371.989 -2.41596 3.74897 0
M  V30 3967 C 372.69 -1.48111 5.62528 0
M  V30 3968 N 371.666 -1.95282 5.07312 0
M  V30 3969 H 375.468 -0.625455 2.87168 0
M  V30 3970 H 372.982 -0.246624 1.60516 0
M  V30 3971 H 374.979 -3.08893 2.79983 0
M  V30 3972 H 373.639 -2.7894 1.662 0
M  V30 3973 H 374.65 -1.25345 5.02503 0
M  V30 3974 H 371.327 -2.88064 3.02201 0
M  V30 3975 H 372.717 -1.06683 6.63377 0
M  V30 3976 N 375.437 -1.54477 -0.31217 0
M  V30 3977 C 376.4 -1.83923 -1.36766 0
M  V30 3978 C 377.4 -0.711563 -1.44199 0
M  V30 3979 O 378.59 -0.979866 -1.44029 0
M  V30 3980 C 375.722 -2.0095 -2.75376 0
M  V30 3981 H 376.915 -2.78239 -1.11906 0
M  V30 3982 H 374.468 -1.46369 -0.548257 0
M  V30 3983 H 375.203 -1.08883 -3.05475 0
M  V30 3984 H 374.988 -2.83018 -2.71373 0
M  V30 3985 H 376.478 -2.2514 -3.51713 0
M  V30 3986 N 376.915 0.57481 -1.46744 0
M  V30 3987 C 377.865 1.67838 -1.54319 0
M  V30 3988 C 378.849 1.55759 -0.40346 0
M  V30 3989 O 380.041 1.6454 -0.652347 0
M  V30 3990 C 377.17 3.06624 -1.5439 0
M  V30 3991 C 376.256 3.23971 -2.73685 0
M  V30 3992 N 376.647 3.11447 -3.9854 0
M  V30 3993 C 374.945 3.5493 -2.70075 0
M  V30 3994 C 375.646 3.31011 -4.78337 0
M  V30 3995 N 374.622 3.56533 -4.10348 0
M  V30 3996 H 378.424 1.56698 -2.48642 0
M  V30 3997 H 375.938 0.779071 -1.42493 0
M  V30 3998 H 377.935 3.85839 -1.57905 0
M  V30 3999 H 376.595 3.1889 -0.611493 0
M  V30 4000 H 377.606 2.89145 -4.29669 0
M  V30 4001 H 374.283 3.73832 -1.85893 0
M  V30 4002 H 375.673 3.26445 -5.87268 0
M  V30 4003 N 378.394 1.34581 0.820102 0
M  V30 4004 C 379.344 1.22943 1.92013 0
M  V30 4005 C 380.328 0.127802 1.60392 0
M  V30 4006 O 381.52 0.357737 1.73347 0
M  V30 4007 C 378.649 0.989938 3.28717 0
M  V30 4008 C 377.735 2.13486 3.66449 0
M  V30 4009 N 378.126 3.38625 3.75722 0
M  V30 4010 C 376.424 2.04573 3.96315 0
M  V30 4011 C 377.125 4.13832 4.08801 0
M  V30 4012 N 376.101 3.42451 4.22171 0
M  V30 4013 H 379.903 2.17771 1.97365 0
M  V30 4014 H 377.417 1.2686 1.01392 0
M  V30 4015 H 379.414 0.887462 4.07345 0
M  V30 4016 H 378.074 0.0503691 3.24661 0
M  V30 4017 H 379.085 3.73143 3.59144 0
M  V30 4018 H 375.762 1.1839 4.00362 0
M  V30 4019 H 377.152 5.21909 4.23156 0
M  V30 4020 N 379.872 -1.04064 1.18357 0
M  V30 4021 C 381.112 -1.78829 0.989921 0
M  V30 4022 C 381.476 -1.86106 -0.472095 0
M  V30 4023 O 382.677 -2.57076 -0.785187 0
M  V30 4024 C 380.948 -3.1823 1.6268 0
M  V30 4025 S 382.507 -4.09332 1.58091 0
M  V30 4026 H 379.325 -0.615754 0.355482 0
M  V30 4027 H 381.927 -1.24778 1.50501 0
M  V30 4028 H 380.631 -3.10543 2.68311 0
M  V30 4029 H 380.162 -3.77357 1.112 0
M  V30 4030 H 382.177 -4.92598 0.596817 0
M  V30 4031 N 381.35 -0.985608 -1.22978 0
M  V30 4032 C 382.3 -0.50118 -2.22423 0
M  V30 4033 C 383.284 0.426649 -1.5514 0
M  V30 4034 O 384.476 0.254656 -1.75159 0
M  V30 4035 C 381.605 0.190003 -3.42774 0
M  V30 4036 C 380.691 -0.757703 -4.17276 0
M  V30 4037 N 381.082 -1.90251 -4.68656 0
M  V30 4038 C 379.38 -0.57209 -4.42316 0
M  V30 4039 C 380.081 -2.49676 -5.25392 0
M  V30 4040 N 379.057 -1.78013 -5.13627 0
M  V30 4041 H 382.859 -1.37441 -2.59783 0
M  V30 4042 H 380.373 -0.846941 -1.38567 0
M  V30 4043 H 382.37 0.55439 -4.13197 0
M  V30 4044 H 381.03 1.05946 -3.06929 0
M  V30 4045 H 382.041 -2.28354 -4.64839 0
M  V30 4046 H 378.718 0.251909 -4.16739 0
M  V30 4047 H 380.108 -3.46384 -5.75732 0
M  V30 4048 N 382.828 1.3818 -0.7579 0
M  V30 4049 C 383.775 2.30416 -0.133057 0
M  V30 4050 C 384.745 1.50398 0.704957 0
M  V30 4051 O 385.93 1.79014 0.660192 0
M  V30 4052 C 383.07 3.36834 0.750813 0
M  V30 4053 C 382.183 4.31879 -0.102297 0
M  V30 4054 C 381.318 5.25368 0.784979 0
M  V30 4055 C 380.357 6.12058 -0.0715046 0
M  V30 4056 N 379.494 6.97832 0.772972 0
M  V30 4057 H 384.334 2.83274 -0.925186 0
M  V30 4058 H 381.871 1.39461 -0.467866 0
M  V30 4059 H 383.829 3.97145 1.27794 0
M  V30 4060 H 382.459 2.85374 1.50868 0
M  V30 4061 H 381.511 3.72991 -0.747095 0
M  V30 4062 H 382.823 4.92921 -0.763552 0
M  V30 4063 H 381.977 5.90818 1.37911 0
M  V30 4064 H 380.716 4.64703 1.47996 0
M  V30 4065 H 379.721 5.456 -0.678272 0
M  V30 4066 H 380.946 6.74793 -0.763606 0
M  V30 4067 H 378.892 6.3971 1.45282 0
M  V30 4068 H 378.809 7.55812 0.168709 0
M  V30 4069 H 380.077 7.67687 1.35194 0
M  V30 4070 N 384.306 0.507319 1.49211 0
M  V30 4071 C 385.722 0.163682 1.58758 0
M  V30 4072 C 385.922 -1.33208 1.51188 0
M  V30 4073 O 384.978 -2.10855 1.38911 0
M  V30 4074 C 386.291 0.746095 2.91297 0
M  V30 4075 C 387.839 0.712773 3.04776 0
M  V30 4076 C 388.314 1.27336 4.39943 0
M  V30 4077 N 389.805 1.23433 4.46451 0
M  V30 4078 C 390.54 1.63821 5.495 0
M  V30 4079 N 390.036 2.11832 6.5962 0
M  V30 4080 N 391.829 1.55198 5.4025 0
M  V30 4081 H 383.98 1.47972 1.52375 0
M  V30 4082 H 386.243 0.614147 0.722168 0
M  V30 4083 H 385.949 1.79534 3.02424 0
M  V30 4084 H 385.823 0.210137 3.76614 0
M  V30 4085 H 388.21 -0.327656 2.93275 0
M  V30 4086 H 388.291 1.28595 2.21127 0
M  V30 4087 H 387.935 2.3126 4.52196 0
M  V30 4088 H 387.865 0.676066 5.22242 0
M  V30 4089 H 390.356 0.882627 3.67448 0
M  V30 4090 H 390.669 2.40703 7.34358 0
M  V30 4091 H 389.014 2.1581 6.60644 0
M  V30 4092 H 392.205 1.17505 4.53112 0
M  V30 4093 H 392.378 1.86997 6.20432 0
M  V30 4094 N 385.784 -1.5574 0.241426 0
M  V30 4095 C 387.2 -1.59196 -0.113548 0
M  V30 4096 C 387.4 -1.25852 -1.57364 0
M  V30 4097 O 386.456 -1.00322 -2.31715 0
M  V30 4098 C 387.769 -2.99814 0.230695 0
M  V30 4099 C 389.317 -3.12513 0.174547 0
M  V30 4100 C 389.792 -4.55342 0.492744 0
M  V30 4101 N 391.283 -4.61076 0.443043 0
M  V30 4102 C 392.018 -5.6956 0.662484 0
M  V30 4103 N 391.514 -6.86328 0.944761 0
M  V30 4104 N 393.307 -5.58957 0.593564 0
M  V30 4105 H 385.458 -1.75685 1.19368 0
M  V30 4106 H 387.721 -0.81756 0.479896 0
M  V30 4107 H 387.427 -3.28932 1.24485 0
M  V30 4108 H 387.301 -3.74568 -0.444833 0
M  V30 4109 H 389.688 -2.83179 -0.830277 0
M  V30 4110 H 389.769 -2.40045 0.883845 0
M  V30 4111 H 389.413 -4.85396 1.4951 0
M  V30 4112 H 389.343 -5.26062 -0.23797 0
M  V30 4113 H 391.834 -3.77179 0.233374 0
M  V30 4114 H 392.147 -7.64935 1.09977 0
M  V30 4115 H 390.492 -6.88025 0.982175 0
M  V30 4116 H 393.683 -4.66611 0.373123 0
M  V30 4117 H 393.856 -6.43433 0.767981 0
M  V30 4118 N 387.262 0.0317525 -1.57568 0
M  V30 4119 C 388.49 0.734949 -1.93407 0
M  V30 4120 C 388.905 1.69036 -0.84096 0
M  V30 4121 O 388.262 1.81582 0.182836 0
M  V30 4122 C 388.313 1.49432 -3.29169 0
M  V30 4123 O 388.034 0.577261 -4.3428 0
M  V30 4124 C 389.535 2.29492 -3.79273 0
M  V30 4125 H 386.755 0.206706 -0.638368 0
M  V30 4126 H 389.299 -0.00992046 -2.04498 0
M  V30 4127 H 387.454 2.1911 -3.19483 0
M  V30 4128 H 387.868 1.10952 -5.1263 0
M  V30 4129 H 389.342 2.78172 -4.76785 0
M  V30 4130 H 389.819 3.10794 -3.10328 0
M  V30 4131 H 390.425 1.64894 -3.92033 0
M  V30 4132 N 388.74 1.54641 0.303973 0
M  V30 4133 C 390.156 1.45788 0.649463 0
M  V30 4134 C 390.356 0.64666 1.90842 0
M  V30 4135 O 389.412 0.153183 2.52035 0
M  V30 4136 C 390.725 2.89718 0.805227 0
M  V30 4137 C 392.273 2.99742 0.901305 0
M  V30 4138 C 392.748 4.44863 1.08909 0
M  V30 4139 N 394.239 4.48559 1.15536 0
M  V30 4140 C 394.974 5.58026 1.3189 0
M  V30 4141 N 394.47 6.77422 1.45161 0
M  V30 4142 N 396.263 5.45708 1.34755 0
M  V30 4143 H 388.414 2.05854 -0.523237 0
M  V30 4144 H 390.677 0.932186 -0.172431 0
M  V30 4145 H 390.383 3.51666 -0.0489108 0
M  V30 4146 H 390.257 3.36964 1.69513 0
M  V30 4147 H 392.644 2.3791 1.74593 0
M  V30 4148 H 392.725 2.55797 -0.0125531 0
M  V30 4149 H 392.369 5.07288 0.249241 0
M  V30 4150 H 392.299 4.86436 2.01713 0
M  V30 4151 H 394.79 3.6254 1.06646 0
M  V30 4152 H 395.103 7.56604 1.57387 0
M  V30 4153 H 393.448 6.80292 1.42223 0
M  V30 4154 H 396.639 4.51378 1.23996 0
M  V30 4155 H 396.812 6.3107 1.47157 0
M  V30 4156 N 390.218 -0.567019 1.47046 0
M  V30 4157 C 391.443 -1.3551 1.57009 0
M  V30 4158 C 391.868 -1.86841 0.217259 0
M  V30 4159 O 391.226 -1.62435 -0.805268 0
M  V30 4160 C 391.274 -2.50777 2.5912 0
M  V30 4161 O 390.378 -3.52706 2.13711 0
M  V30 4162 H 389.719 -0.402919 0.52778 0
M  V30 4163 H 392.249 -0.686241 1.92748 0
M  V30 4164 H 392.259 -2.97481 2.79229 0
M  V30 4165 H 390.934 -2.12771 3.57353 0
M  V30 4166 H 389.511 -3.12374 2.03659 0
M  V30 4167 N 391.696 -1.35014 -0.812953 0
M  V30 4168 C 392.936 -1.29289 -1.58315 0
M  V30 4169 C 393.3 0.132727 -1.91541 0
M  V30 4170 O 394.501 0.314269 -2.66957 0
M  V30 4171 C 392.772 -2.1681 -2.84127 0
M  V30 4172 S 394.331 -2.28538 -3.74588 0
M  V30 4173 H 391.149 -0.459569 -0.542511 0
M  V30 4174 H 393.751 -1.70336 -0.959467 0
M  V30 4175 H 392.455 -3.19379 -2.57731 0
M  V30 4176 H 391.986 -1.76697 -3.51485 0
M  V30 4177 H 394.001 -1.4655 -4.74065 0
M  V30 4178 N 393.175 1.03435 -1.18907 0
M  V30 4179 C 394.4 1.80919 -1.01406 0
M  V30 4180 C 394.825 1.83055 0.432721 0
M  V30 4181 O 394.183 1.25252 1.31079 0
M  V30 4182 C 394.231 3.24091 -1.58105 0
M  V30 4183 O 393.335 4.04434 -0.806669 0
M  V30 4184 H 392.676 0.558709 -0.358803 0
M  V30 4185 H 395.206 1.30223 -1.57807 0
M  V30 4186 H 395.216 3.74853 -1.61087 0
M  V30 4187 H 393.891 3.21851 -2.6341 0
M  V30 4188 H 392.468 3.63091 -0.849666 0
M  V30 4189 N 394.653 0.992116 1.22453 0
M  V30 4190 C 395.878 0.685644 1.95739 0
M  V30 4191 C 396.303 -0.743 1.72804 0
M  V30 4192 O 395.661 -1.50778 1.00676 0
M  V30 4193 C 395.709 0.996293 3.46564 0
M  V30 4194 O 394.813 0.0945512 4.12292 0
M  V30 4195 H 394.154 0.256694 0.612376 0
M  V30 4196 H 396.684 1.32888 1.5557 0
M  V30 4197 H 396.694 0.93781 3.97076 0
M  V30 4198 H 395.369 2.03733 3.62582 0
M  V30 4199 H 393.946 0.208451 3.72317 0
M  V30 4200 N 396.131 -1.37776 0.765217 0
M  V30 4201 C 397.094 -2.28686 0.153416 0
M  V30 4202 C 398.094 -1.47727 -0.635081 0
M  V30 4203 O 399.284 -1.68027 -0.459632 0
M  V30 4204 C 396.416 -3.31608 -0.790495 0
M  V30 4205 H 397.609 -2.84297 0.954723 0
M  V30 4206 H 395.162 -1.46932 0.53299 0
M  V30 4207 H 395.897 -2.81109 -1.61705 0
M  V30 4208 H 395.682 -3.9144 -0.227348 0
M  V30 4209 H 397.172 -3.99559 -1.21419 0
M  V30 4210 N 397.609 -0.515225 -1.4894 0
M  V30 4211 C 398.834 0.022727 -2.07388 0
M  V30 4212 C 399.259 1.2876 -1.37122 0
M  V30 4213 O 398.617 1.76067 -0.432431 0
M  V30 4214 C 398.665 0.244869 -3.59768 0
M  V30 4215 O 397.769 1.31667 -3.90817 0
M  V30 4216 H 397.11 -0.0325506 -0.663202 0
M  V30 4217 H 399.64 -0.718918 -1.91553 0
M  V30 4218 H 399.65 0.47205 -4.0526 0
M  V30 4219 H 398.325 -0.679194 -4.10317 0
M  V30 4220 H 396.902 1.07331 -3.5712 0
M  V30 4221 N 399.087 1.5561 -0.249682 0
M  V30 4222 C 400.312 2.03865 0.381305 0
M  V30 4223 C 400.737 1.12769 1.50548 0
M  V30 4224 O 400.095 0.121189 1.80895 0
M  V30 4225 C 400.143 3.50101 0.863816 0
M  V30 4226 O 399.247 3.62132 1.97318 0
M  V30 4227 H 398.588 0.658827 0.0827194 0
M  V30 4228 H 401.118 2.01105 -0.376552 0
M  V30 4229 H 401.128 3.90975 1.1663 0
M  V30 4230 H 399.803 4.1588 0.0411816 0
M  V30 4231 H 398.38 3.33155 1.67517 0
M  V30 4232 N 400.565 -0.0233959 1.57583 0
M  V30 4233 C 401.981 -0.379134 1.55031 0
M  V30 4234 C 402.181 -1.76255 0.976548 0
M  V30 4235 O 401.237 -2.45266 0.600078 0
M  V30 4236 C 402.55 -0.275792 2.99433 0
M  V30 4237 C 404.098 -0.352458 3.11009 0
M  V30 4238 C 404.573 -0.278501 4.57152 0
M  V30 4239 N 406.064 -0.337123 4.61972 0
M  V30 4240 C 406.799 -0.302876 5.726 0
M  V30 4241 N 406.295 -0.220589 6.92449 0
M  V30 4242 N 408.088 -0.353023 5.6099 0
M  V30 4243 H 400.239 0.881869 1.93227 0
M  V30 4244 H 402.502 0.335867 0.886509 0
M  V30 4245 H 402.208 0.675108 3.4516 0
M  V30 4246 H 402.082 -1.06721 3.61788 0
M  V30 4247 H 404.469 -1.29379 2.65226 0
M  V30 4248 H 404.55 0.468409 2.51475 0
M  V30 4249 H 404.194 0.659189 5.03604 0
M  V30 4250 H 404.124 -1.11755 5.14605 0
M  V30 4251 H 406.615 -0.403002 3.75745 0
M  V30 4252 H 406.928 -0.199713 7.72542 0
M  V30 4253 H 405.273 -0.186555 6.9475 0
M  V30 4254 H 408.464 -0.415339 4.66254 0
M  V30 4255 H 408.637 -0.322866 6.47195 0
M  V30 4256 N 402.043 -1.548 -0.295768 0
M  V30 4257 C 403.268 -1.78653 -1.05346 0
M  V30 4258 C 403.693 -0.546894 -1.79974 0
M  V30 4259 O 403.051 0.502763 -1.7419 0
M  V30 4260 C 403.099 -2.99679 -2.00561 0
M  V30 4261 O 402.203 -2.7317 -3.08953 0
M  V30 4262 H 401.544 -0.59116 -0.302367 0
M  V30 4263 H 404.074 -2.01895 -0.331598 0
M  V30 4264 H 404.084 -3.27793 -2.42932 0
M  V30 4265 H 402.759 -3.89562 -1.4565 0
M  V30 4266 H 401.336 -2.56089 -2.71059 0
M  V30 4267 N 403.521 0.559213 -1.47345 0
M  V30 4268 C 404.453 1.68161 -1.55738 0
M  V30 4269 C 405.466 1.56636 -0.443744 0
M  V30 4270 O 406.655 1.6363 -0.713258 0
M  V30 4271 C 403.755 3.06611 -1.4437 0
M  V30 4272 C 402.928 3.4391 -2.70268 0
M  V30 4273 C 401.987 4.61515 -2.52765 0
M  V30 4274 O 401.013 4.66197 -3.26572 0
M  V30 4275 N 402.215 5.57883 -1.6046 0
M  V30 4276 H 404.98 1.61408 -2.52522 0
M  V30 4277 H 402.541 0.7458 -1.43699 0
M  V30 4278 H 404.533 3.83117 -1.30398 0
M  V30 4279 H 403.103 3.07602 -0.556766 0
M  V30 4280 H 402.323 2.56873 -2.99015 0
M  V30 4281 H 403.611 3.65605 -3.53851 0
M  V30 4282 H 403.009 5.56855 -0.996422 0
M  V30 4283 H 401.566 6.33723 -1.52441 0
M  V30 4284 N 404.999 1.35443 0.805782 0
M  V30 4285 C 405.931 1.24285 1.92577 0
M  V30 4286 C 406.944 0.165962 1.61952 0
M  V30 4287 O 408.133 0.419303 1.73505 0
M  V30 4288 C 405.233 0.891272 3.2697 0
M  V30 4289 C 404.406 2.06669 3.85495 0
M  V30 4290 C 403.465 1.69077 4.98297 0
M  V30 4291 O 402.491 2.4096 5.15681 0
M  V30 4292 N 403.693 0.614869 5.77234 0
M  V30 4293 H 406.458 2.20777 2.02676 0
M  V30 4294 H 404.019 1.28623 0.983243 0
M  V30 4295 H 406.011 0.621256 3.99903 0
M  V30 4296 H 404.581 0.016004 3.12596 0
M  V30 4297 H 403.801 2.50046 3.04747 0
M  V30 4298 H 405.089 2.85237 4.21328 0
M  V30 4299 H 404.487 0.017648 5.65697 0
M  V30 4300 H 403.044 0.404636 6.50543 0
M  V30 4301 N 406.477 -1.02803 1.19454 0
M  V30 4302 C 407.702 -1.80378 1.02364 0
M  V30 4303 C 408.127 -1.83282 -0.423007 0
M  V30 4304 O 407.485 -1.25945 -1.30413 0
M  V30 4305 C 407.533 -3.23248 1.59821 0
M  V30 4306 O 406.637 -4.04 0.828105 0
M  V30 4307 H 405.978 -0.556799 0.361761 0
M  V30 4308 H 408.508 -1.29385 1.58495 0
M  V30 4309 H 408.518 -3.73994 1.63073 0
M  V30 4310 H 407.193 -3.2045 2.65113 0
M  V30 4311 H 405.77 -3.62635 0.86891 0
M  V30 4312 N 407.956 -0.998596 -1.21925 0
M  V30 4313 C 409.181 -0.696015 -1.95372 0
M  V30 4314 C 409.606 0.733826 -1.73195 0
M  V30 4315 O 408.964 1.50242 -1.01474 0
M  V30 4316 C 409.012 -1.01466 -3.4603 0
M  V30 4317 O 408.116 -0.116415 -4.12236 0
M  V30 4318 H 407.457 -0.259938 -0.611006 0
M  V30 4319 H 409.987 -1.33711 -1.54863 0
M  V30 4320 H 409.997 -0.958855 -3.96573 0
M  V30 4321 H 408.672 -2.05653 -3.61497 0
M  V30 4322 H 407.249 -0.228193 -3.72201 0
M  V30 4323 N 409.434 1.37368 -0.772513 0
M  V30 4324 C 410.381 2.30262 -0.157488 0
M  V30 4325 C 411.351 1.51137 0.688965 0
M  V30 4326 O 412.536 1.79704 0.641168 0
M  V30 4327 C 409.676 3.37611 0.715045 0
M  V30 4328 C 408.789 4.31746 -0.148098 0
M  V30 4329 C 407.924 5.26171 0.729213 0
M  V30 4330 C 406.963 6.11948 -0.136418 0
M  V30 4331 N 406.1 6.98613 0.698914 0
M  V30 4332 H 410.94 2.82277 -0.955179 0
M  V30 4333 H 408.477 1.38957 -0.482631 0
M  V30 4334 H 410.435 3.98479 1.23575 0
M  V30 4335 H 409.065 2.86959 1.47833 0
M  V30 4336 H 408.117 3.72178 -0.786613 0
M  V30 4337 H 409.429 4.92084 -0.81579 0
M  V30 4338 H 408.583 5.92247 1.31637 0
M  V30 4339 H 407.322 4.66246 1.43059 0
M  V30 4340 H 406.327 5.4485 -0.736102 0
M  V30 4341 H 407.552 6.73945 -0.835134 0
M  V30 4342 H 405.498 6.41215 1.38489 0
M  V30 4343 H 405.415 7.55948 0.0885358 0
M  V30 4344 H 406.683 7.69077 1.27044 0
M  V30 4345 N 410.912 0.523116 1.48665 0
M  V30 4346 C 412.328 0.180511 1.58576 0
M  V30 4347 C 412.528 -1.31597 1.52592 0
M  V30 4348 O 411.584 -2.0937 1.4114 0
M  V30 4349 C 412.897 0.776949 2.90489 0
M  V30 4350 C 414.445 0.745058 3.04003 0
M  V30 4351 C 414.92 1.31995 4.38567 0
M  V30 4352 N 416.411 1.28162 4.45117 0
M  V30 4353 C 417.146 1.6964 5.47731 0
M  V30 4354 N 416.642 2.18816 6.57337 0
M  V30 4355 N 418.435 1.6092 5.38573 0
M  V30 4356 H 410.586 1.4958 1.50797 0
M  V30 4357 H 412.849 0.621772 0.715614 0
M  V30 4358 H 412.555 1.82732 3.00503 0
M  V30 4359 H 412.429 0.25007 3.7637 0
M  V30 4360 H 414.816 -0.296532 2.93606 0
M  V30 4361 H 414.897 1.30933 2.1975 0
M  V30 4362 H 414.541 2.36043 4.49718 0
M  V30 4363 H 414.471 0.731418 5.21496 0
M  V30 4364 H 416.962 0.92155 3.66491 0
M  V30 4365 H 417.275 2.48478 7.31764 0
M  V30 4366 H 415.62 2.22805 6.58318 0
M  V30 4367 H 418.811 1.22304 4.5184 0
M  V30 4368 H 418.984 1.93567 6.18414 0
M  V30 4369 N 412.39 -1.55475 0.257931 0
M  V30 4370 C 413.615 -2.04064 -0.370488 0
M  V30 4371 C 414.04 -1.13565 -1.49948 0
M  V30 4372 O 413.398 -0.130781 -1.80828 0
M  V30 4373 C 413.446 -3.50554 -0.845237 0
M  V30 4374 O 412.55 -3.63173 -1.95394 0
M  V30 4375 H 411.891 -0.659257 -0.0792243 0
M  V30 4376 H 414.421 -2.00903 0.387212 0
M  V30 4377 H 414.431 -3.91588 -1.14555 0
M  V30 4378 H 413.106 -4.15896 -0.0191259 0
M  V30 4379 H 411.683 -3.34039 -1.65748 0
M  V30 4380 N 413.868 0.0150385 -1.57593 0
M  V30 4381 C 415.093 0.718067 -1.94573 0
M  V30 4382 C 415.518 1.6734 -0.859005 0
M  V30 4383 O 414.876 1.80362 0.184147 0
M  V30 4384 C 414.924 1.43918 -3.30636 0
M  V30 4385 O 414.028 2.55299 -3.23876 0
M  V30 4386 H 413.369 0.192125 -0.635597 0
M  V30 4387 H 415.899 -0.0336708 -2.04572 0
M  V30 4388 H 415.909 1.80598 -3.65853 0
M  V30 4389 H 414.584 0.738619 -4.09289 0
M  V30 4390 H 413.161 2.21058 -3.00312 0
M  V30 4391 N 415.346 1.54954 0.287554 0
M  V30 4392 C 416.762 1.46469 0.633964 0
M  V30 4393 C 416.962 0.666865 1.90145 0
M  V30 4394 O 416.018 0.179906 2.51858 0
M  V30 4395 C 417.331 2.90556 0.774454 0
M  V30 4396 C 418.879 3.00681 0.869462 0
M  V30 4397 C 419.354 4.45993 1.04184 0
M  V30 4398 N 420.845 4.4976 1.10772 0
M  V30 4399 C 421.58 5.59393 1.25964 0
M  V30 4400 N 421.076 6.78923 1.37968 0
M  V30 4401 N 422.869 5.47107 1.28959 0
M  V30 4402 H 415.02 2.05288 -0.545041 0
M  V30 4403 H 417.283 0.930305 -0.182308 0
M  V30 4404 H 416.989 3.51594 -0.086207 0
M  V30 4405 H 416.863 3.38743 1.6593 0
M  V30 4406 H 419.25 2.39749 1.7206 0
M  V30 4407 H 419.331 2.55769 -0.0396831 0
M  V30 4408 H 418.975 5.07524 0.195422 0
M  V30 4409 H 418.905 4.88548 1.96542 0
M  V30 4410 H 421.396 3.63651 1.02794 0
M  V30 4411 H 421.709 7.58231 1.49353 0
M  V30 4412 H 420.054 6.81763 1.34999 0
M  V30 4413 H 423.245 4.52668 1.19202 0
M  V30 4414 H 423.418 6.32595 1.40455 0
M  V30 4415 N 416.824 -0.551391 1.4764 0
M  V30 4416 C 418.049 -1.33837 1.58437 0
M  V30 4417 C 418.474 -1.866 0.237063 0
M  V30 4418 O 417.832 -1.6328 -0.787994 0
M  V30 4419 C 417.88 -2.48014 2.61766 0
M  V30 4420 O 416.984 -3.50419 2.1744 0
M  V30 4421 H 416.325 -0.397299 0.532024 0
M  V30 4422 H 418.855 -0.665759 1.93465 0
M  V30 4423 H 418.865 -2.94503 2.82369 0
M  V30 4424 H 417.54 -2.08969 3.5959 0
M  V30 4425 H 416.117 -3.10196 2.06961 0
M  V30 4426 N 418.302 -1.35869 -0.798587 0
M  V30 4427 C 419.548 -1.2978 -1.55836 0
M  V30 4428 C 419.881 0.125322 -1.93795 0
M  V30 4429 O 419.156 1.07658 -1.61987 0
M  V30 4430 C 419.439 -2.21188 -2.84162 0
M  V30 4431 C 419.292 -3.72155 -2.52628 0
M  V30 4432 C 420.611 -2.11545 -3.85923 0
M  V30 4433 H 417.73 -0.472769 -0.565383 0
M  V30 4434 H 420.372 -1.66341 -0.918192 0
M  V30 4435 H 418.522 -1.90139 -3.38791 0
M  V30 4436 H 420.194 -4.13682 -2.04121 0
M  V30 4437 H 418.437 -3.92042 -1.85704 0
M  V30 4438 H 419.108 -4.31511 -3.44242 0
M  V30 4439 H 421.584 -2.38855 -3.40716 0
M  V30 4440 H 420.46 -2.77688 -4.73477 0
M  V30 4441 H 420.721 -1.09987 -4.282 0
M  V30 4442 N 419.78 1.02168 -1.19998 0
M  V30 4443 C 420.69 2.14069 -0.959774 0
M  V30 4444 C 421.706 1.73804 0.082655 0
M  V30 4445 O 422.882 2.01133 -0.103633 0
M  V30 4446 C 419.947 3.42936 -0.509459 0
M  V30 4447 C 419.008 3.97474 -1.62213 0
M  V30 4448 C 418.241 5.2019 -1.19321 0
M  V30 4449 O 418.464 5.70369 -0.0597726 0
M  V30 4450 O 417.398 5.67749 -1.99863 0
M  V30 4451 H 421.224 2.37199 -1.89658 0
M  V30 4452 H 418.809 1.12469 -0.983411 0
M  V30 4453 H 420.691 4.20551 -0.267322 0
M  V30 4454 H 419.366 3.21234 0.398821 0
M  V30 4455 H 418.273 3.21161 -1.9185 0
M  V30 4456 H 419.606 4.23555 -2.50723 0
M  V30 4457 N 421.258 1.00505 1.21394 0
M  V30 4458 C 422.535 0.603277 1.86064 0
M  V30 4459 C 422.915 -0.919095 1.90042 0
M  V30 4460 O 422.263 -1.80607 1.39977 0
M  V30 4461 C 422.473 1.23772 3.26315 0
M  V30 4462 C 423.821 1.34586 4.02705 0
M  V30 4463 O 424.845 1.19304 3.35626 0
M  V30 4464 O 423.704 1.59169 5.22807 0
M  V30 4465 H 420.798 0.206634 0.800769 0
M  V30 4466 H 423.344 1.1017 1.29076 0
M  V30 4467 H 422.116 2.27848 3.18121 0
M  V30 4468 H 421.739 0.725648 3.90922 0
M  V30 4469 N 422.737 -1.36956 0.779787 0
M  V30 4470 C 424.014 -1.93697 0.272156 0
M  V30 4471 C 424.394 -1.71267 -1.23413 0
M  V30 4472 O 423.742 -1.06607 -2.02107 0
M  V30 4473 C 423.952 -3.42812 0.654291 0
M  V30 4474 C 425.3 -4.19921 0.628602 0
M  V30 4475 O 426.324 -3.51209 0.594172 0
M  V30 4476 O 425.183 -5.42465 0.662864 0
M  V30 4477 H 422.277 -0.824447 0.0649286 0
M  V30 4478 H 424.823 -1.46196 0.861682 0
M  V30 4479 H 423.595 -3.52754 1.69353 0
M  V30 4480 H 423.218 -3.97582 0.0381369 0
M  V30 4481 N 424.215 -0.530993 -1.48385 0
M  V30 4482 C 425.162 0.231223 -2.29639 0
M  V30 4483 C 426.132 0.932864 -1.37429 0
M  V30 4484 O 427.317 0.933692 -1.66394 0
M  V30 4485 C 424.457 1.27155 -3.2082 0
M  V30 4486 C 423.57 0.578655 -4.28107 0
M  V30 4487 C 422.705 1.602 -5.06467 0
M  V30 4488 C 421.744 0.892625 -6.05556 0
M  V30 4489 N 420.881 1.86157 -6.76971 0
M  V30 4490 H 425.721 -0.467848 -2.94305 0
M  V30 4491 H 423.258 -0.242556 -1.45086 0
M  V30 4492 H 425.216 1.88703 -3.72085 0
M  V30 4493 H 423.846 1.939 -2.58075 0
M  V30 4494 H 422.898 -0.150782 -3.80101 0
M  V30 4495 H 424.21 0.0217065 -4.98795 0
M  V30 4496 H 423.364 2.29173 -5.61751 0
M  V30 4497 H 422.103 2.19285 -4.35621 0
M  V30 4498 H 421.108 0.188829 -5.49476 0
M  V30 4499 H 422.333 0.307878 -6.78402 0
M  V30 4500 H 420.279 2.44147 -6.08875 0
M  V30 4501 H 420.196 1.35608 -7.43738 0
M  V30 4502 H 421.464 2.54325 -7.36844 0
M  V30 4503 N 425.693 1.55336 -0.266172 0
M  V30 4504 C 426.603 2.2583 0.635458 0
M  V30 4505 C 427.619 1.28106 1.17749 0
M  V30 4506 O 428.795 1.61024 1.20968 0
M  V30 4507 C 425.86 2.95879 1.80712 0
M  V30 4508 C 424.921 4.09059 1.30265 0
M  V30 4509 C 424.154 4.75759 2.41846 0
M  V30 4510 O 424.377 4.41622 3.61007 0
M  V30 4511 O 423.311 5.63888 2.1051 0
M  V30 4512 H 427.137 3.03631 0.0646693 0
M  V30 4513 H 424.722 1.49361 -0.0339177 0
M  V30 4514 H 426.604 3.39932 2.49047 0
M  V30 4515 H 425.279 2.21002 2.36516 0
M  V30 4516 H 424.186 3.69482 0.586019 0
M  V30 4517 H 425.519 4.85811 0.790458 0
M  V30 4518 N 427.171 -0.0066808 1.57599 0
M  V30 4519 C 428.419 -0.691552 1.899 0
M  V30 4520 C 428.74 -1.74682 0.866672 0
M  V30 4521 O 428.01 -1.95661 -0.0968189 0
M  V30 4522 H 426.59 -0.258416 0.700878 0
M  V30 4523 H 429.252 0.0326655 1.94873 0
M  V30 4524 H 428.348 -1.16702 2.8946 0
M  V30 4525 N 428.649 -1.55105 -0.279332 0
M  V30 4526 C 429.599 -1.83937 -1.34727 0
M  V30 4527 C 430.583 -0.69785 -1.44979 0
M  V30 4528 O 431.775 -0.95904 -1.48766 0
M  V30 4529 C 428.904 -2.1092 -2.70864 0
M  V30 4530 C 427.99 -3.31314 -2.64748 0
M  V30 4531 N 428.381 -4.51371 -2.2825 0
M  V30 4532 C 426.679 -3.33777 -2.95819 0
M  V30 4533 C 427.38 -5.33447 -2.31969 0
M  V30 4534 N 426.356 -4.71697 -2.7019 0
M  V30 4535 H 430.158 -2.74309 -1.05506 0
M  V30 4536 H 427.672 -1.54896 -0.487959 0
M  V30 4537 H 429.669 -2.2973 -3.47893 0
M  V30 4538 H 428.329 -1.21828 -3.00979 0
M  V30 4539 H 429.34 -4.77584 -2.00335 0
M  V30 4540 H 426.017 -2.54858 -3.30687 0
M  V30 4541 H 427.407 -6.39424 -2.06365 0
M  V30 4542 N 430.127 0.543554 -1.4793 0
M  V30 4543 C 431.057 1.65888 -1.64327 0
M  V30 4544 C 432.038 1.62818 -0.492383 0
M  V30 4545 O 433.223 1.80226 -0.723338 0
M  V30 4546 C 430.353 3.04506 -1.67013 0
M  V30 4547 C 429.307 3.2243 -2.81466 0
M  V30 4548 C 428.633 4.61972 -2.69233 0
M  V30 4549 C 429.933 3.06496 -4.22915 0
M  V30 4550 H 431.627 1.52421 -2.57698 0
M  V30 4551 H 429.173 0.731849 -1.24016 0
M  V30 4552 H 431.126 3.82391 -1.77074 0
M  V30 4553 H 429.85 3.18964 -0.70212 0
M  V30 4554 H 428.509 2.46957 -2.70938 0
M  V30 4555 H 428.157 4.73247 -1.7043 0
M  V30 4556 H 427.857 4.74911 -3.46025 0
M  V30 4557 H 429.381 5.41974 -2.81242 0
M  V30 4558 H 430.795 3.74186 -4.34348 0
M  V30 4559 H 429.192 3.30938 -5.006 0
M  V30 4560 H 430.262 2.03077 -4.40327 0
M  V30 4561 N 431.605 1.3629 0.791371 0
M  V30 4562 C 432.851 1.30605 1.55146 0
M  V30 4563 C 433.184 -0.115042 1.93859 0
M  V30 4564 O 432.459 -1.06798 1.62556 0
M  V30 4565 C 432.742 2.22692 2.82985 0
M  V30 4566 C 432.595 3.73489 2.50651 0
M  V30 4567 C 433.914 2.13588 3.84796 0
M  V30 4568 H 431.033 0.475761 0.562868 0
M  V30 4569 H 433.675 1.66825 0.909358 0
M  V30 4570 H 431.825 1.91933 3.37778 0
M  V30 4571 H 433.497 4.14758 2.01924 0
M  V30 4572 H 431.74 3.93021 1.83622 0
M  V30 4573 H 432.411 4.3333 3.41949 0
M  V30 4574 H 434.887 2.40659 3.39445 0
M  V30 4575 H 433.763 2.80195 4.71998 0
M  V30 4576 H 434.024 1.12256 4.27611 0
M  V30 4577 N 433.083 -1.0153 1.20538 0
M  V30 4578 C 434.323 -1.76689 1.02763 0
M  V30 4579 C 434.687 -1.87065 -0.432513 0
M  V30 4580 O 435.888 -2.58684 -0.730481 0
M  V30 4581 C 434.159 -3.14707 1.69393 0
M  V30 4582 S 435.718 -4.05886 1.66738 0
M  V30 4583 H 432.536 -0.608076 0.368463 0
M  V30 4584 H 435.138 -1.21558 1.53114 0
M  V30 4585 H 433.842 -3.04782 2.74838 0
M  V30 4586 H 433.373 -3.74913 1.19179 0
M  V30 4587 H 435.388 -4.91221 0.70117 0
M  V30 4588 N 434.561 -1.01147 -1.20859 0
M  V30 4589 C 435.977 -0.725422 -1.42161 0
M  V30 4590 C 436.177 0.696919 -1.89064 0
M  V30 4591 O 435.233 1.46539 -2.05627 0
M  V30 4592 C 436.546 -1.74678 -2.44761 0
M  V30 4593 C 438.094 -1.76433 -2.58535 0
M  V30 4594 C 438.569 -2.77481 -3.64374 0
M  V30 4595 N 440.06 -2.76189 -3.71852 0
M  V30 4596 C 440.795 -3.51035 -4.53389 0
M  V30 4597 N 440.291 -4.35541 -5.38773 0
M  V30 4598 N 442.084 -3.39655 -4.47873 0
M  V30 4599 H 434.235 -1.92979 -0.887282 0
M  V30 4600 H 436.498 -0.833327 -0.451962 0
M  V30 4601 H 436.204 -2.76551 -2.17285 0
M  V30 4602 H 436.078 -1.55472 -3.43669 0
M  V30 4603 H 438.465 -0.75248 -2.85345 0
M  V30 4604 H 438.546 -1.99712 -1.5984 0
M  V30 4605 H 438.19 -3.78827 -3.38308 0
M  V30 4606 H 438.12 -2.51466 -4.6268 0
M  V30 4607 H 440.611 -2.14885 -3.10858 0
M  V30 4608 H 440.924 -4.89432 -5.98061 0
M  V30 4609 H 439.269 -4.39621 -5.38292 0
M  V30 4610 H 442.46 -2.73063 -3.80203 0
M  V30 4611 H 442.633 -3.9824 -5.11184 0
M  V30 4612 N 436.039 1.36541 -0.78704 0
M  V30 4613 C 437.288 1.98552 -0.35494 0
M  V30 4614 C 437.601 1.63171 1.07864 0
M  V30 4615 O 438.807 2.18399 1.61289 0
M  V30 4616 C 437.263 3.55136 -0.583671 0
M  V30 4617 C 436.871 3.99444 -2.02851 0
M  V30 4618 C 438.615 4.2395 -0.215957 0
M  V30 4619 C 436.522 5.48796 -2.20403 0
M  V30 4620 H 435.452 0.742888 -0.128972 0
M  V30 4621 H 438.103 1.5587 -0.968337 0
M  V30 4622 H 436.485 3.95875 0.0994046 0
M  V30 4623 H 437.659 3.6991 -2.74779 0
M  V30 4624 H 435.974 3.43459 -2.35425 0
M  V30 4625 H 438.571 5.33709 -0.325405 0
M  V30 4626 H 438.914 4.07827 0.835646 0
M  V30 4627 H 439.447 3.88565 -0.852175 0
M  V30 4628 H 436.186 5.69864 -3.23937 0
M  V30 4629 H 435.706 5.79964 -1.52977 0
M  V30 4630 H 437.385 6.14986 -2.01002 0
M  V30 4631 N 437.518 0.538854 1.48102 0
M  V30 4632 C 438.766 0.00798599 2.02098 0
M  V30 4633 C 439.087 -1.33922 1.41739 0
M  V30 4634 O 438.357 -1.86932 0.585934 0
M  V30 4635 H 436.937 -3.62179e-05 0.747 0
M  V30 4636 H 439.599 0.7047 1.81714 0
M  V30 4637 H 438.695 -0.0937672 3.11959 0
M  V30 4638 N 438.996 -1.55193 0.274407 0
M  V30 4639 C 440.273 -1.91584 -0.394331 0
M  V30 4640 C 440.653 -1.19858 -1.73774 0
M  V30 4641 O 440.001 -0.3252 -2.26174 0
M  V30 4642 C 440.211 -3.4487 -0.535311 0
M  V30 4643 C 441.559 -4.16636 -0.818534 0
M  V30 4644 O 442.583 -3.5076 -0.620146 0
M  V30 4645 O 441.442 -5.33209 -1.19792 0
M  V30 4646 H 438.536 -0.798349 -0.215794 0
M  V30 4647 H 441.082 -1.66646 0.320507 0
M  V30 4648 H 439.854 -3.89145 0.410141 0
M  V30 4649 H 439.477 -3.75759 -1.29964 0
M  V30 4650 N 440.474 -0.00167713 -1.576 0
M  V30 4651 C 441.72 0.67819 -1.91761 0
M  V30 4652 C 442.075 1.71288 -0.876256 0
M  V30 4653 O 441.368 1.91276 0.111333 0
M  V30 4654 C 441.562 1.36189 -3.30435 0
M  V30 4655 C 441.391 0.394938 -4.47962 0
M  V30 4656 C 440.161 0.00472875 -5.053 0
M  V30 4657 C 442.359 -0.339521 -5.13178 0
M  V30 4658 N 440.341 -0.960257 -6.06343 0
M  V30 4659 C 441.712 -1.15914 -6.09068 0
M  V30 4660 C 443.767 -0.403177 -4.96265 0
M  V30 4661 C 442.47 -2.03661 -6.89866 0
M  V30 4662 C 444.496 -1.26788 -5.77649 0
M  V30 4663 C 443.858 -2.07535 -6.73134 0
M  V30 4664 H 439.957 0.221317 -0.750028 0
M  V30 4665 H 442.541 -0.0624182 -1.946 0
M  V30 4666 H 440.712 2.07278 -3.28467 0
M  V30 4667 H 442.444 1.99658 -3.52021 0
M  V30 4668 H 439.199 0.373452 -4.72125 0
M  V30 4669 H 439.623 -1.43817 -6.61548 0
M  V30 4670 H 444.265 0.206818 -4.22294 0
M  V30 4671 H 441.983 -2.65727 -7.63161 0
M  V30 4672 H 445.569 -1.32107 -5.66603 0
M  V30 4673 H 444.449 -2.73363 -7.35012 0
M  V30 4674 N 441.952 1.55251 0.271103 0
M  V30 4675 C 442.882 1.9127 1.33933 0
M  V30 4676 C 443.863 0.77478 1.5143 0
M  V30 4677 O 445.048 1.03307 1.64442 0
M  V30 4678 C 442.178 2.18627 2.69851 0
M  V30 4679 C 441.132 3.34442 2.67081 0
M  V30 4680 C 440.458 3.47284 4.06569 0
M  V30 4681 C 441.758 4.70784 2.26185 0
M  V30 4682 H 443.452 2.80744 1.04035 0
M  V30 4683 H 440.998 1.35077 0.499017 0
M  V30 4684 H 442.951 2.42413 3.44694 0
M  V30 4685 H 441.675 1.25955 3.01335 0
M  V30 4686 H 440.334 3.10627 1.94695 0
M  V30 4687 H 439.982 2.52074 4.35279 0
M  V30 4688 H 439.682 4.25152 4.0561 0
M  V30 4689 H 441.206 3.73363 4.83148 0
M  V30 4690 H 442.62 4.94102 2.90751 0
M  V30 4691 H 441.017 5.51582 2.36384 0
M  V30 4692 H 442.087 4.69478 1.21319 0
M  V30 4693 N 443.43 -0.535701 1.48216 0
M  V30 4694 C 444.362 -1.65662 1.58394 0
M  V30 4695 C 445.375 -1.5591 0.468607 0
M  V30 4696 O 446.564 -1.62475 0.7392 0
M  V30 4697 C 443.664 -3.04276 1.4923 0
M  V30 4698 C 442.837 -3.39567 2.75705 0
M  V30 4699 C 441.896 -4.57436 2.60075 0
M  V30 4700 O 440.922 -4.60942 3.33948 0
M  V30 4701 N 442.124 -5.55259 1.69315 0
M  V30 4702 H 444.889 -1.5737 2.55058 0
M  V30 4703 H 442.45 -0.722845 1.44867 0
M  V30 4704 H 444.442 -3.80994 1.36477 0
M  V30 4705 H 443.012 -3.06677 0.605632 0
M  V30 4706 H 442.232 -2.52083 3.03064 0
M  V30 4707 H 443.52 -3.59929 3.59623 0
M  V30 4708 H 442.918 -5.552 1.08489 0
M  V30 4709 H 441.475 -6.31218 1.62504 0
M  V30 4710 N 444.908 -1.36708 -0.784132 0
M  V30 4711 C 445.818 -1.3363 -1.92822 0
M  V30 4712 C 446.834 -0.237686 -1.72369 0
M  V30 4713 O 448.01 -0.470962 -1.95816 0
M  V30 4714 C 445.075 -1.13011 -3.27764 0
M  V30 4715 C 444.136 -2.32397 -3.60957 0
M  V30 4716 C 443.369 -2.12752 -4.89461 0
M  V30 4717 O 443.592 -1.10541 -5.59586 0
M  V30 4718 O 442.526 -3.00653 -5.21432 0
M  V30 4719 H 446.352 -2.29964 -1.98369 0
M  V30 4720 H 443.937 -1.1731 -0.925136 0
M  V30 4721 H 445.819 -1.03451 -4.08504 0
M  V30 4722 H 444.494 -0.19743 -3.23097 0
M  V30 4723 H 443.401 -2.47527 -2.80502 0
M  V30 4724 H 444.734 -3.2419 -3.70354 0
M  V30 4725 N 446.386 1.0089 -1.21074 0
M  V30 4726 C 447.802 1.2695 -0.967257 0
M  V30 4727 C 448.002 1.9846 0.348673 0
M  V30 4728 O 447.058 2.28459 1.0753 0
M  V30 4729 C 448.371 2.09697 -2.15517 0
M  V30 4730 C 449.919 2.22937 -2.197 0
M  V30 4731 C 450.394 3.09064 -3.37999 0
M  V30 4732 N 451.885 3.16653 -3.38061 0
M  V30 4733 C 452.62 3.8354 -4.26245 0
M  V30 4734 N 452.116 4.52488 -5.2462 0
M  V30 4735 N 453.909 3.80141 -4.14064 0
M  V30 4736 H 446.06 0.529005 -2.05707 0
M  V30 4737 H 448.323 0.296148 -0.900556 0
M  V30 4738 H 448.029 1.64497 -3.10859 0
M  V30 4739 H 447.903 3.10444 -2.14253 0
M  V30 4740 H 450.29 2.67357 -1.24916 0
M  V30 4741 H 450.371 1.21673 -2.2501 0
M  V30 4742 H 450.015 2.65347 -4.33074 0
M  V30 4743 H 449.945 4.10433 -3.29928 0
M  V30 4744 H 452.436 2.67566 -2.66865 0
M  V30 4745 H 452.749 5.01219 -5.88217 0
M  V30 4746 H 451.094 4.51288 -5.28549 0
M  V30 4747 H 454.285 3.25427 -3.36474 0
M  V30 4748 H 454.458 4.31992 -4.82998 0
M  V30 4749 N 447.864 1.01787 1.20321 0
M  V30 4750 C 449.094 0.72614 1.93419 0
M  V30 4751 C 449.502 -0.717317 1.75075 0
M  V30 4752 O 448.845 -1.49836 1.06278 0
M  V30 4753 C 448.907 0.983621 3.45782 0
M  V30 4754 C 448.571 2.41645 3.87888 0
M  V30 4755 C 449.568 3.39732 3.93545 0
M  V30 4756 C 447.253 2.75752 4.19841 0
M  V30 4757 C 449.247 4.69988 4.30569 0
M  V30 4758 C 446.934 4.06221 4.56539 0
M  V30 4759 C 447.932 5.0315 4.61876 0
M  V30 4760 O 447.62 6.31284 4.97731 0
M  V30 4761 H 447.352 0.265824 0.621541 0
M  V30 4762 H 449.906 1.3623 1.53722 0
M  V30 4763 H 448.136 0.290301 3.85609 0
M  V30 4764 H 449.825 0.683279 4.00108 0
M  V30 4765 H 450.591 3.14718 3.69022 0
M  V30 4766 H 446.47 2.00993 4.14877 0
M  V30 4767 H 450.014 5.45642 4.3465 0
M  V30 4768 H 445.911 4.31013 4.80518 0
M  V30 4769 H 446.679 6.35591 5.15719 0
M  V30 4770 N 449.342 -1.36122 0.79427 0
M  V30 4771 C 450.252 -2.33769 0.197296 0
M  V30 4772 C 451.268 -1.61276 -0.653153 0
M  V30 4773 O 452.444 -1.9323 -0.5678 0
M  V30 4774 C 449.509 -3.40474 -0.654098 0
M  V30 4775 C 448.57 -4.28759 0.215411 0
M  V30 4776 C 447.803 -5.30368 -0.595443 0
M  V30 4777 O 448.026 -5.40211 -1.83107 0
M  V30 4778 O 446.96 -6.019 0.00721351 0
M  V30 4779 H 450.786 -2.86597 1.00478 0
M  V30 4780 H 448.371 -1.38676 0.555818 0
M  V30 4781 H 450.253 -4.05703 -1.13944 0
M  V30 4782 H 448.928 -2.89937 -1.43938 0
M  V30 4783 H 447.835 -3.66554 0.747615 0
M  V30 4784 H 449.168 -4.82661 0.964332 0
M  V30 4785 N 450.82 -0.546701 -1.47814 0
M  V30 4786 C 452.069 -0.0166497 -2.01693 0
M  V30 4787 C 452.382 1.33721 -1.42752 0
M  V30 4788 O 453.588 1.95658 -1.8823 0
M  V30 4789 C 452.044 0.0206769 -3.59894 0
M  V30 4790 C 451.652 -1.3293 -4.27824 0
M  V30 4791 C 453.396 0.498674 -4.21561 0
M  V30 4792 C 451.303 -1.25165 -5.78003 0
M  V30 4793 H 450.233 -0.0024541 -0.753996 0
M  V30 4794 H 452.884 -0.692984 -1.69912 0
M  V30 4795 H 451.266 0.76244 -3.88591 0
M  V30 4796 H 452.44 -2.08795 -4.10781 0
M  V30 4797 H 450.755 -1.74438 -3.78101 0
M  V30 4798 H 453.352 0.575 -5.31599 0
M  V30 4799 H 453.695 1.5083 -3.88016 0
M  V30 4800 H 454.228 -0.18791 -3.97356 0
M  V30 4801 H 450.967 -2.23695 -6.1615 0
M  V30 4802 H 450.487 -0.53464 -5.97412 0
M  V30 4803 H 452.166 -0.949299 -6.39998 0
M  V30 4804 N 452.299 1.55045 -0.282633 0
M  V30 4805 C 453.545 2.00056 0.332481 0
M  V30 4806 C 453.878 1.1708 1.54939 0
M  V30 4807 O 453.153 0.2427 1.9298 0
M  V30 4808 C 453.436 3.53086 0.70725 0
M  V30 4809 C 453.289 4.46813 -0.517521 0
M  V30 4810 C 454.608 4.12245 1.54084 0
M  V30 4811 H 451.727 0.727268 0.119373 0
M  V30 4812 H 454.369 1.85932 -0.391076 0
M  V30 4813 H 452.519 3.65253 1.32372 0
M  V30 4814 H 454.191 4.46579 -1.15607 0
M  V30 4815 H 452.434 4.18163 -1.1542 0
M  V30 4816 H 453.105 5.51595 -0.211426 0
M  V30 4817 H 455.581 4.03401 1.02013 0
M  V30 4818 H 454.457 5.19515 1.77186 0
M  V30 4819 H 454.718 3.62951 2.52427 0
M  V30 4820 N 453.777 0.010035 1.57597 0
M  V30 4821 C 455.025 -0.671371 1.90623 0
M  V30 4822 C 455.346 -1.73753 0.885151 0
M  V30 4823 O 454.616 -1.95752 -0.0760611 0
M  V30 4824 H 453.196 -0.250968 0.703579 0
M  V30 4825 H 455.858 0.0533325 1.94827 0
M  V30 4826 H 454.954 -1.13626 2.90681 0
M  V30 4827 N 455.255 -1.55392 -0.262866 0
M  V30 4828 C 456.203 -1.8977 -1.345 0
M  V30 4829 C 457.197 -0.775063 -1.50629 0
M  V30 4830 O 458.403 -0.959519 -1.52293 0
M  V30 4831 H 454.778 -0.602467 -0.450041 0
M  V30 4832 H 456.749 -2.80147 -1.02762 0
M  V30 4833 C 455.498 -2.19501 -2.69657 0
M  V30 4834 H 454.821 -3.05378 -2.5804 0
M  V30 4835 H 456.261 -2.47469 -3.44289 0
M  V30 4836 C 454.72 -1.00597 -3.21531 0
M  V30 4837 O 455.25 -0.245768 -4.00947 0
M  V30 4838 N 453.456 -0.800911 -2.79345 0
M  V30 4839 H 453.003 -1.42079 -2.14875 0
M  V30 4840 H 452.961 -0.00697996 -3.14399 0
M  V30 4841 N 456.733 0.527833 -1.48498 0
M  V30 4842 C 457.663 1.64136 -1.66077 0
M  V30 4843 C 458.644 1.62286 -0.509625 0
M  V30 4844 O 459.829 1.79449 -0.742413 0
M  V30 4845 C 456.959 3.02717 -1.70234 0
M  V30 4846 C 455.913 3.19426 -2.8487 0
M  V30 4847 C 455.239 4.5909 -2.74118 0
M  V30 4848 C 456.539 3.01993 -4.26142 0
M  V30 4849 H 458.233 1.4968 -2.593 0
M  V30 4850 H 455.779 0.718654 -1.24785 0
M  V30 4851 H 457.732 3.80491 -1.8112 0
M  V30 4852 H 456.456 3.18201 -0.735911 0
M  V30 4853 H 455.115 2.4407 -2.73542 0
M  V30 4854 H 454.763 4.71413 -1.7544 0
M  V30 4855 H 454.463 4.71214 -3.51042 0
M  V30 4856 H 455.987 5.3896 -2.86974 0
M  V30 4857 H 457.401 3.69558 -4.38292 0
M  V30 4858 H 455.798 3.2561 -5.04082 0
M  V30 4859 H 456.868 1.98396 -4.42456 0
M  V30 4860 N 458.211 1.37122 0.776871 0
M  V30 4861 C 459.459 1.31787 1.53221 0
M  V30 4862 C 459.78 -0.0987589 1.9475 0
M  V30 4863 O 459.05 -1.0417 1.65908 0
M  V30 4864 H 457.63 0.484839 0.568278 0
M  V30 4865 H 460.292 1.71556 0.924917 0
M  V30 4866 H 459.388 1.95355 2.43398 0
M  V30 4867 N 459.689 -1.00246 1.21608 0
M  V30 4868 C 460.599 -2.12515 0.993709 0
M  V30 4869 C 461.615 -1.73913 -0.0549939 0
M  V30 4870 O 462.791 -2.00943 0.135619 0
M  V30 4871 C 459.856 -3.42083 0.563953 0
M  V30 4872 C 458.917 -3.94843 1.68516 0
M  V30 4873 C 458.15 -5.18226 1.27582 0
M  V30 4874 O 458.373 -5.70201 0.150506 0
M  V30 4875 O 457.307 -5.64497 2.0887 0
M  V30 4876 H 461.133 -2.34152 1.93407 0
M  V30 4877 H 458.718 -1.10891 1.00118 0
M  V30 4878 H 460.6 -4.20073 0.334194 0
M  V30 4879 H 459.275 -3.21828 -0.347665 0
M  V30 4880 H 458.182 -3.18068 1.96935 0
M  V30 4881 H 459.515 -4.19512 2.5743 0
M  V30 4882 N 461.167 -1.02423 -1.1978 0
M  V30 4883 C 462.415 -0.716569 -1.8897 0
M  V30 4884 C 462.736 0.756769 -1.79716 0
M  V30 4885 O 462.006 1.5449 -1.20456 0
M  V30 4886 H 460.586 -0.262062 -0.699523 0
M  V30 4887 H 463.248 -1.29747 -1.45436 0
M  V30 4888 H 462.344 -1.00675 -2.95417 0
M  V30 4889 N 462.645 1.35699 -0.801477 0
M  V30 4890 C 463.873 2.03157 -0.391768 0
M  V30 4891 C 464.288 1.60412 0.995668 0
M  V30 4892 O 463.645 0.799228 1.64069 0
M  V30 4893 C 463.696 3.58566 -0.459671 0
M  V30 4894 O 463.417 3.99756 -1.7924 0
M  V30 4895 C 464.918 4.4328 -0.0421205 0
M  V30 4896 H 462.138 0.651688 -0.159825 0
M  V30 4897 H 464.682 1.73426 -1.08368 0
M  V30 4898 H 462.837 3.86963 0.183939 0
M  V30 4899 H 463.251 4.94387 -1.75162 0
M  V30 4900 H 464.725 5.51821 -0.140754 0
M  V30 4901 H 465.202 4.27383 1.01196 0
M  V30 4902 H 465.808 4.20168 -0.658687 0
M  V30 4903 N 464.123 0.554532 1.47522 0
M  V30 4904 C 465.37 0.029479 2.02479 0
M  V30 4905 C 465.698 -1.31929 1.42916 0
M  V30 4906 O 464.953 -1.87112 0.573385 0
M  V30 4907 C 465.252 -0.115927 3.57212 0
M  V30 4908 C 464.918 1.16161 4.3568 0
M  V30 4909 C 463.58 1.51168 4.56839 0
M  V30 4910 C 465.932 2.0083 4.80954 0
M  V30 4911 C 463.26 2.70696 5.2052 0
M  V30 4912 C 465.612 3.19559 5.45953 0
M  V30 4913 C 464.276 3.54882 5.65345 0
M  V30 4914 H 463.546 0.0107871 0.740921 0
M  V30 4915 H 466.193 0.725506 1.77225 0
M  V30 4916 H 464.498 -0.894902 3.81443 0
M  V30 4917 H 466.195 -0.53749 3.97381 0
M  V30 4918 H 462.785 0.879026 4.19489 0
M  V30 4919 H 466.969 1.75093 4.64388 0
M  V30 4920 H 462.225 2.98236 5.33728 0
M  V30 4921 H 466.399 3.85456 5.79997 0
M  V30 4922 H 464.026 4.47596 6.1446 0
M  V30 4923 N 465.601 -1.54893 0.290851 0
M  V30 4924 C 466.849 -1.99538 -0.320756 0
M  V30 4925 C 467.17 -1.18075 -1.55188 0
M  V30 4926 O 466.44 -0.274162 -1.93972 0
M  V30 4927 H 465.02 -0.737052 -0.121507 0
M  V30 4928 H 467.682 -1.90755 0.399832 0
M  V30 4929 H 466.778 -3.06282 -0.599802 0
M  V30 4930 N 467.08 -0.0183926 -1.57589 0
M  V30 4931 C 468.027 0.967022 -2.09565 0
M  V30 4932 C 468.997 1.32983 -0.995225 0
M  V30 4933 O 470.182 1.42501 -1.26878 0
M  V30 4934 C 467.322 2.24772 -2.61861 0
M  V30 4935 C 466.435 1.94232 -3.85873 0
M  V30 4936 C 465.57 3.16518 -4.26603 0
M  V30 4937 C 464.609 2.81748 -5.43401 0
M  V30 4938 N 463.746 3.96626 -5.79338 0
M  V30 4939 H 468.586 0.516874 -2.93483 0
M  V30 4940 H 466.123 0.243544 -1.4507 0
M  V30 4941 H 468.081 2.99667 -2.90268 0
M  V30 4942 H 466.711 2.67423 -1.8079 0
M  V30 4943 H 465.763 1.09625 -3.64262 0
M  V30 4944 H 467.075 1.64616 -4.70853 0
M  V30 4945 H 466.229 3.99743 -4.56389 0
M  V30 4946 H 464.968 3.49286 -3.40368 0
M  V30 4947 H 463.973 1.96933 -5.1332 0
M  V30 4948 H 465.198 2.50207 -6.31327 0
M  V30 4949 H 463.144 4.29257 -4.96059 0
M  V30 4950 H 463.061 3.70598 -6.58933 0
M  V30 4951 H 464.329 4.80586 -6.13724 0
M  V30 4952 N 468.558 1.5553 0.254621 0
M  V30 4953 C 469.804 1.77262 0.985193 0
M  V30 4954 C 470.137 0.582286 1.85265 0
M  V30 4955 O 469.412 -0.419666 1.89919 0
M  V30 4956 C 469.695 3.0881 1.85225 0
M  V30 4957 C 469.548 4.38233 1.0135 0
M  V30 4958 C 470.867 3.3653 2.83612 0
M  V30 4959 H 467.986 0.644906 0.356742 0
M  V30 4960 H 470.628 1.88264 0.256236 0
M  V30 4961 H 468.778 2.99562 2.47376 0
M  V30 4962 H 470.45 4.59463 0.411269 0
M  V30 4963 H 468.693 4.32636 0.317574 0
M  V30 4964 H 469.364 5.26644 1.65379 0
M  V30 4965 H 471.84 3.45691 2.31596 0
M  V30 4966 H 470.716 4.29805 3.41407 0
M  V30 4967 H 470.977 2.57064 3.59681 0
M  V30 4968 N 470.036 -0.519951 1.48776 0
M  V30 4969 C 471.282 -1.27711 1.57536 0
M  V30 4970 C 471.615 -1.92547 0.252866 0
M  V30 4971 O 470.89 -1.7979 -0.742021 0
M  V30 4972 C 471.173 -2.35875 2.72094 0
M  V30 4973 C 471.026 -1.75664 4.1408 0
M  V30 4974 C 472.345 -3.37575 2.82367 0
M  V30 4975 H 469.464 -0.462971 0.573434 0
M  V30 4976 H 472.106 -0.578194 1.80989 0
M  V30 4977 H 470.256 -2.95488 2.52228 0
M  V30 4978 H 471.928 -1.20025 4.45412 0
M  V30 4979 H 470.171 -1.06154 4.20611 0
M  V30 4980 H 470.842 -2.54029 4.90075 0
M  V30 4981 H 473.318 -2.87929 3.00393 0
M  V30 4982 H 472.194 -4.1064 3.64233 0
M  V30 4983 H 472.455 -3.98743 1.90936 0
M  V30 4984 N 471.514 -1.37532 -0.769588 0
M  V30 4985 C 472.424 -1.35668 -1.91393 0
M  V30 4986 C 473.44 -0.255954 -1.72107 0
M  V30 4987 O 474.616 -0.491704 -1.95305 0
M  V30 4988 C 471.681 -1.16481 -3.26547 0
M  V30 4989 C 470.742 -2.36212 -3.58472 0
M  V30 4990 C 469.975 -2.17932 -4.87177 0
M  V30 4991 O 470.198 -1.1647 -5.58382 0
M  V30 4992 O 469.132 -3.06167 -5.18214 0
M  V30 4993 H 472.958 -2.32055 -1.95918 0
M  V30 4994 H 470.543 -1.18284 -0.912641 0
M  V30 4995 H 472.425 -1.07778 -4.07384 0
M  V30 4996 H 471.1 -0.231687 -3.2287 0
M  V30 4997 H 470.007 -2.50488 -2.77861 0
M  V30 4998 H 471.34 -3.281 -3.66894 0
M  V30 4999 N 472.992 0.995999 -1.22138 0
M  V30 5000 C 474.232 1.75032 -1.05561 0
M  V30 5001 C 474.596 1.87729 0.402698 0
M  V30 5002 O 475.797 2.59813 0.689234 0
M  V30 5003 C 474.068 3.11973 -1.74379 0
M  V30 5004 S 475.627 4.03182 -1.73175 0
M  V30 5005 H 472.445 0.602137 -0.37809 0
M  V30 5006 H 475.047 1.19107 -1.55028 0
M  V30 5007 H 473.751 3.00371 -2.79652 0
M  V30 5008 H 473.282 3.7297 -1.25128 0
M  V30 5009 H 475.297 4.90043 -0.77923 0
M  V30 5010 N 474.47 1.03057 1.19235 0
M  V30 5011 C 475.4 0.633497 2.24742 0
M  V30 5012 C 476.381 -0.358335 1.66283 0
M  V30 5013 O 477.566 -0.240676 1.92703 0
M  V30 5014 C 474.696 -0.0147648 3.47297 0
M  V30 5015 C 473.65 0.899527 4.18441 0
M  V30 5016 C 472.976 0.116281 5.34574 0
M  V30 5017 C 474.276 2.21404 4.73051 0
M  V30 5018 H 475.97 1.5155 2.58211 0
M  V30 5019 H 473.516 0.73014 1.24117 0
M  V30 5020 H 475.469 -0.304202 4.20301 0
M  V30 5021 H 474.193 -0.931577 3.13032 0
M  V30 5022 H 472.852 1.17319 3.47321 0
M  V30 5023 H 472.5 -0.802619 4.96555 0
M  V30 5024 H 472.2 0.725293 5.83107 0
M  V30 5025 H 473.724 -0.166376 6.10373 0
M  V30 5026 H 475.138 1.98601 5.37802 0
M  V30 5027 H 473.535 2.77512 5.32078 0
M  V30 5028 H 474.605 2.86752 3.91026 0
M  V30 5029 N 475.948 -1.35272 0.808662 0
M  V30 5030 C 477.225 -1.93077 0.313181 0
M  V30 5031 C 477.605 -1.73847 -1.19752 0
M  V30 5032 O 476.953 -1.1087 -1.998 0
M  V30 5033 C 477.163 -3.41347 0.726859 0
M  V30 5034 C 478.511 -4.18493 0.717532 0
M  V30 5035 O 479.535 -3.4987 0.668535 0
M  V30 5036 O 478.394 -5.40937 0.777779 0
M  V30 5037 H 475.488 -0.822885 0.0824018 0
M  V30 5038 H 478.034 -1.44335 0.892499 0
M  V30 5039 H 476.806 -3.49082 1.76797 0
M  V30 5040 H 476.429 -3.97411 0.122461 0
M  V30 5041 N 477.426 -0.562348 -1.47226 0
M  V30 5042 C 478.376 0.202967 -2.27095 0
M  V30 5043 C 479.36 0.880611 -1.34663 0
M  V30 5044 O 480.552 0.778069 -1.58981 0
M  V30 5045 C 477.681 1.22906 -3.20545 0
M  V30 5046 C 476.767 0.554566 -4.20459 0
M  V30 5047 N 477.158 -0.378295 -5.04383 0
M  V30 5048 C 475.456 0.807854 -4.38623 0
M  V30 5049 C 476.157 -0.770583 -5.76573 0
M  V30 5050 N 475.133 -0.124263 -5.43458 0
M  V30 5051 H 478.935 -0.514196 -2.89367 0
M  V30 5052 H 476.449 -0.382655 -1.57827 0
M  V30 5053 H 478.446 1.79134 -3.76453 0
M  V30 5054 H 477.106 1.94726 -2.59831 0
M  V30 5055 H 478.117 -0.75274 -5.124 0
M  V30 5056 H 474.794 1.51418 -3.89075 0
M  V30 5057 H 476.184 -1.53742 -6.54074 0
M  V30 5058 N 478.904 1.54736 -0.299062 0
M  V30 5059 C 479.867 2.22127 0.565012 0
M  V30 5060 C 480.867 1.20669 1.06281 0
M  V30 5061 O 482.057 1.45417 0.959145 0
M  V30 5062 C 479.189 2.90611 1.78208 0
M  V30 5063 H 480.382 2.99891 -0.0237448 0
M  V30 5064 H 477.935 1.5622 -0.0498788 0
M  V30 5065 H 478.67 2.16921 2.41072 0
M  V30 5066 H 478.455 3.64984 1.43281 0
M  V30 5067 H 479.945 3.42026 2.396 0
M  V30 5068 N 480.382 0.0267497 1.57577 0
M  V30 5069 C 481.798 -0.32962 1.56159 0
M  V30 5070 C 481.998 -1.73059 1.03213 0
M  V30 5071 O 481.054 -2.43233 0.677804 0
M  V30 5072 C 482.367 -0.18039 3.00158 0
M  V30 5073 C 483.915 -0.253334 3.11973 0
M  V30 5074 C 484.39 -0.132921 4.57807 0
M  V30 5075 N 485.881 -0.189979 4.6281 0
M  V30 5076 C 486.616 -0.120554 5.73273 0
M  V30 5077 N 486.112 -0.000180315 6.928 0
M  V30 5078 N 487.905 -0.174369 5.61829 0
M  V30 5079 H 480.056 0.942896 1.90324 0
M  V30 5080 H 482.319 0.3639 0.875375 0
M  V30 5081 H 482.025 0.784576 3.42837 0
M  V30 5082 H 481.899 -0.951565 3.65 0
M  V30 5083 H 484.286 -1.20876 2.69208 0
M  V30 5084 H 484.367 0.548177 2.49857 0
M  V30 5085 H 484.011 0.819073 5.01252 0
M  V30 5086 H 483.941 -0.953264 5.179 0
M  V30 5087 H 486.432 -0.283257 3.76837 0
M  V30 5088 H 486.745 0.0461666 7.72786 0
M  V30 5089 H 485.09 0.034569 6.94991 0
M  V30 5090 H 488.281 -0.266794 4.67339 0
M  V30 5091 H 488.454 -0.116802 6.47895 0
M  V30 5092 N 481.861 -1.55662 -0.24637 0
M  V30 5093 C 483.109 -1.77168 -0.972411 0
M  V30 5094 C 483.43 -0.590827 -1.85834 0
M  V30 5095 O 482.7 0.393365 -1.9191 0
M  V30 5096 H 481.28 -0.653405 -0.362038 0
M  V30 5097 H 483.942 -1.93101 -0.264189 0
M  V30 5098 H 483.038 -2.68335 -1.59382 0
M  V30 5099 N 483.339 0.512053 -1.4905 0
M  V30 5100 C 484.286 1.6148 -1.64902 0
M  V30 5101 C 485.256 1.58687 -0.490673 0
M  V30 5102 O 486.441 1.76842 -0.71636 0
M  V30 5103 C 483.581 2.99676 -1.71139 0
M  V30 5104 C 482.694 3.12568 -2.98203 0
M  V30 5105 C 481.829 4.4143 -2.95487 0
M  V30 5106 C 480.868 4.47916 -4.17179 0
M  V30 5107 N 480.005 5.68191 -4.12437 0
M  V30 5108 H 484.845 1.47271 -2.59066 0
M  V30 5109 H 482.382 0.716713 -1.28459 0
M  V30 5110 H 484.34 3.79761 -1.72736 0
M  V30 5111 H 482.97 3.12614 -0.804508 0
M  V30 5112 H 482.022 2.25618 -3.06269 0
M  V30 5113 H 483.334 3.1322 -3.88194 0
M  V30 5114 H 482.488 5.29825 -2.95585 0
M  V30 5115 H 481.227 4.43326 -2.03256 0
M  V30 5116 H 480.232 3.57925 -4.17337 0
M  V30 5117 H 481.457 4.47744 -5.1059 0
M  V30 5118 H 479.403 5.7095 -3.23036 0
M  V30 5119 H 479.32 5.70413 -4.96151 0
M  V30 5120 H 480.588 6.58823 -4.16621 0
M  V30 5121 N 484.817 1.37938 0.762283 0
M  V30 5122 C 486.042 1.37059 1.55659 0
M  V30 5123 C 486.467 -0.0396123 1.88058 0
M  V30 5124 O 485.825 -1.01929 1.49934 0
M  V30 5125 C 485.873 2.22494 2.83776 0
M  V30 5126 O 484.977 1.63607 3.78559 0
M  V30 5127 H 484.318 0.467892 0.47114 0
M  V30 5128 H 486.848 1.81587 0.942725 0
M  V30 5129 H 486.858 2.36045 3.32786 0
M  V30 5130 H 485.533 3.24993 2.59524 0
M  V30 5131 H 484.11 1.5915 3.37233 0
M  V30 5132 N 486.295 -0.989507 1.22664 0
M  V30 5133 C 487.227 -2.0824 0.957542 0
M  V30 5134 C 488.24 -1.6267 -0.0651098 0
M  V30 5135 O 489.429 -1.77695 0.169312 0
M  V30 5136 C 486.529 -3.36298 0.419145 0
M  V30 5137 C 485.702 -4.10882 1.49982 0
M  V30 5138 C 484.761 -5.17221 0.967904 0
M  V30 5139 O 483.787 -5.44613 1.65487 0
M  V30 5140 N 484.989 -5.80124 -0.20896 0
M  V30 5141 H 487.754 -2.31904 1.89843 0
M  V30 5142 H 485.315 -1.15552 1.13399 0
M  V30 5143 H 487.307 -4.04671 0.0485451 0
M  V30 5144 H 485.877 -3.09671 -0.426937 0
M  V30 5145 H 485.097 -3.37092 2.04359 0
M  V30 5146 H 486.385 -4.57482 2.22682 0
M  V30 5147 H 485.783 -5.60244 -0.783818 0
M  V30 5148 H 484.34 -6.49715 -0.520913 0
M  V30 5149 N 487.773 -1.03688 -1.18687 0
M  V30 5150 C 489.019 -0.739123 -1.88851 0
M  V30 5151 C 489.352 0.731042 -1.79915 0
M  V30 5152 O 488.627 1.53313 -1.19688 0
M  V30 5153 C 488.91 -1.20106 -3.3948 0
M  V30 5154 C 488.763 -2.73304 -3.57246 0
M  V30 5155 C 490.082 -0.788134 -4.32986 0
M  V30 5156 H 487.201 -0.269978 -0.68577 0
M  V30 5157 H 489.843 -1.28822 -1.3966 0
M  V30 5158 H 487.993 -0.733915 -3.81505 0
M  V30 5159 H 489.665 -3.28027 -3.24339 0
M  V30 5160 H 487.908 -3.13313 -3.00029 0
M  V30 5161 H 488.579 -3.00684 -4.62918 0
M  V30 5162 H 491.055 -1.19005 -3.98719 0
M  V30 5163 H 489.931 -1.13915 -5.36949 0
M  V30 5164 H 490.192 0.308988 -4.41019 0
M  V30 5165 N 489.251 1.34841 -0.815825 0
M  V30 5166 C 490.214 2.27959 -0.238185 0
M  V30 5167 C 491.214 1.49983 0.579816 0
M  V30 5168 O 492.404 1.69617 0.396953 0
M  V30 5169 C 489.536 3.34314 0.666876 0
M  V30 5170 H 490.729 2.80558 -1.05958 0
M  V30 5171 H 488.282 1.44852 -0.587156 0
M  V30 5172 H 489.017 2.86916 1.5116 0
M  V30 5173 H 488.802 3.92014 0.0819106 0
M  V30 5174 H 490.292 4.0379 1.06506 0
M  V30 5175 N 490.729 0.570148 1.46925 0
M  V30 5176 C 491.659 -0.158274 2.32963 0
M  V30 5177 C 492.64 -0.896093 1.44583 0
M  V30 5178 O 493.825 -0.874022 1.7342 0
M  V30 5179 C 490.955 -1.18055 3.26619 0
M  V30 5180 C 489.909 -0.558379 4.24342 0
M  V30 5181 C 489.235 -1.68623 5.07415 0
M  V30 5182 C 490.535 0.496295 5.19937 0
M  V30 5183 H 492.229 0.560046 2.94115 0
M  V30 5184 H 489.775 0.270775 1.41431 0
M  V30 5185 H 491.728 -1.69841 3.85658 0
M  V30 5186 H 490.452 -1.92899 2.63548 0
M  V30 5187 H 489.111 -0.0617157 3.66548 0
M  V30 5188 H 488.759 -2.42402 4.40738 0
M  V30 5189 H 488.459 -1.27564 5.73586 0
M  V30 5190 H 489.983 -2.20709 5.69315 0
M  V30 5191 H 491.397 0.0640052 5.73264 0
M  V30 5192 H 489.794 0.82649 5.94381 0
M  V30 5193 H 490.864 1.38735 4.6463 0
M  V30 5194 N 492.207 -1.54576 0.307264 0
M  V30 5195 C 493.154 -2.23751 -0.56604 0
M  V30 5196 C 494.124 -1.22235 -1.12462 0
M  V30 5197 O 495.309 -1.50873 -1.16799 0
M  V30 5198 C 492.449 -2.98661 -1.72903 0
M  V30 5199 C 491.562 -4.14963 -1.20124 0
M  V30 5200 C 490.697 -4.77441 -2.3286 0
M  V30 5201 C 489.736 -5.85875 -1.77247 0
M  V30 5202 N 488.873 -6.42282 -2.8358 0
M  V30 5203 H 493.713 -2.97984 0.0304578 0
M  V30 5204 H 491.25 -1.47076 0.0268015 0
M  V30 5205 H 493.208 -3.40329 -2.41313 0
M  V30 5206 H 491.838 -2.26793 -2.29706 0
M  V30 5207 H 490.89 -3.78193 -0.409198 0
M  V30 5208 H 492.202 -4.93066 -0.754171 0
M  V30 5209 H 491.356 -5.21993 -3.09205 0
M  V30 5210 H 490.095 -3.98684 -2.80896 0
M  V30 5211 H 489.1 -5.40741 -0.993926 0
M  V30 5212 H 490.325 -6.6652 -1.30107 0
M  V30 5213 H 488.271 -5.66406 -3.30939 0
M  V30 5214 H 488.188 -7.1575 -2.43388 0
M  V30 5215 H 489.456 -6.91492 -3.59804 0
M  V30 5216 N 493.685 -0.035106 -1.57561 0
M  V30 5217 C 494.934 0.641604 -1.91223 0
M  V30 5218 C 495.247 1.72944 -0.913761 0
M  V30 5219 O 496.453 2.46321 -1.14185 0
M  V30 5220 C 494.909 1.19249 -3.3957 0
M  V30 5221 C 494.517 0.137616 -4.47789 0
M  V30 5222 C 496.261 1.84537 -3.82291 0
M  V30 5223 C 494.168 0.700478 -5.87237 0
M  V30 5224 H 493.098 0.243417 -0.713627 0
M  V30 5225 H 495.749 -0.101382 -1.8322 0
M  V30 5226 H 494.131 1.98728 -3.42525 0
M  V30 5227 H 495.305 -0.635153 -4.56402 0
M  V30 5228 H 493.62 -0.416855 -4.14308 0
M  V30 5229 H 496.217 2.27616 -4.83834 0
M  V30 5230 H 496.56 2.69054 -3.17672 0
M  V30 5231 H 497.093 1.11739 -3.81784 0
M  V30 5232 H 493.832 -0.106693 -6.55413 0
M  V30 5233 H 493.352 1.4416 -5.82218 0
M  V30 5234 H 495.031 1.18837 -6.35993 0
M  V30 5235 N 495.163 1.55791 0.238111 0
M  V30 5236 C 496.412 1.77234 0.962868 0
M  V30 5237 C 496.725 0.600661 1.86149 0
M  V30 5238 O 497.931 0.698315 2.62366 0
M  V30 5239 C 496.387 3.13808 1.76218 0
M  V30 5240 C 495.995 4.3865 0.910518 0
M  V30 5241 C 497.739 3.44585 2.47914 0
M  V30 5242 C 495.646 5.66252 1.70623 0
M  V30 5243 H 494.576 0.660731 0.36325 0
M  V30 5244 H 497.227 1.8221 0.217242 0
M  V30 5245 H 495.609 3.02963 2.55009 0
M  V30 5246 H 496.783 4.60507 0.164316 0
M  V30 5247 H 495.098 4.15271 0.30647 0
M  V30 5248 H 497.695 4.3714 3.07917 0
M  V30 5249 H 498.038 2.66314 3.19973 0
M  V30 5250 H 498.571 3.56685 1.76127 0
M  V30 5251 H 495.31 6.47369 1.02923 0
M  V30 5252 H 494.83 5.48483 2.42748 0
M  V30 5253 H 496.509 6.05829 2.27114 0
M  V30 5254 N 496.642 -0.504142 1.49319 0
M  V30 5255 C 498.058 -0.835039 1.36012 0
M  V30 5256 C 498.258 -1.97674 0.390808 0
M  V30 5257 O 497.314 -2.51867 -0.178655 0
M  V30 5258 C 498.627 -1.17821 2.76656 0
M  V30 5259 C 500.175 -1.2866 2.85334 0
M  V30 5260 C 500.65 -1.66307 4.26739 0
M  V30 5261 N 502.141 -1.73362 4.29534 0
M  V30 5262 C 502.876 -2.0393 5.35911 0
M  V30 5263 N 502.372 -2.32744 6.52535 0
M  V30 5264 N 504.165 -2.05155 5.23324 0
M  V30 5265 H 496.316 0.248764 2.10938 0
M  V30 5266 H 498.579 0.0486962 0.946748 0
M  V30 5267 H 498.285 -0.412682 3.4927 0
M  V30 5268 H 498.159 -2.12239 3.11825 0
M  V30 5269 H 500.546 -2.04285 2.1296 0
M  V30 5270 H 500.627 -0.323004 2.53752 0
M  V30 5271 H 500.271 -0.91234 4.99639 0
M  V30 5272 H 500.201 -2.63761 4.55782 0
M  V30 5273 H 502.692 -1.53268 3.45424 0
M  V30 5274 H 503.005 -2.55248 7.2943 0
M  V30 5275 H 501.35 -2.30207 6.55767 0
M  V30 5276 H 504.541 -1.82119 4.3122 0
M  V30 5277 H 504.714 -2.28644 6.06322 0
M  V30 5278 N 498.12 -1.38341 -0.754957 0
M  V30 5279 C 499.068 -1.35573 -1.89005 0
M  V30 5280 C 500.062 -0.241824 -1.67665 0
M  V30 5281 O 501.268 -0.410785 -1.7525 0
M  V30 5282 H 497.643 -0.422898 -0.621821 0
M  V30 5283 H 499.614 -2.31359 -1.88455 0
M  V30 5284 C 498.363 -1.19631 -3.26471 0
M  V30 5285 H 497.686 -2.04605 -3.43477 0
M  V30 5286 H 499.126 -1.21748 -4.06144 0
M  V30 5287 C 497.585 0.0968705 -3.36761 0
M  V30 5288 O 498.115 1.07439 -3.87066 0
M  V30 5289 N 496.321 0.153242 -2.90196 0
M  V30 5290 H 495.868 -0.642908 -2.49448 0
M  V30 5291 H 495.826 1.01807 -2.9746 0
M  V30 5292 N 499.598 0.982988 -1.23187 0
M  V30 5293 C 500.844 1.72648 -1.06398 0
M  V30 5294 C 501.177 1.90066 0.398561 0
M  V30 5295 O 500.452 1.45105 1.29518 0
M  V30 5296 C 500.735 3.12627 -1.78707 0
M  V30 5297 C 500.588 3.02795 -3.32618 0
M  V30 5298 C 501.907 4.11997 -1.54747 0
M  V30 5299 H 499.026 0.626649 -0.387918 0
M  V30 5300 H 501.668 1.14455 -1.51658 0
M  V30 5301 H 499.818 3.62308 -1.40234 0
M  V30 5302 H 501.49 2.60659 -3.80598 0
M  V30 5303 H 499.733 2.39362 -3.61785 0
M  V30 5304 H 500.404 4.01893 -3.78399 0
M  V30 5305 H 502.88 3.71114 -1.88186 0
M  V30 5306 H 501.756 5.08037 -2.07821 0
M  V30 5307 H 502.017 4.39462 -0.482249 0
M  V30 5308 N 501.076 1.04316 1.18135 0
M  V30 5309 C 502.324 0.746542 1.87806 0
M  V30 5310 C 502.645 -0.728082 1.80898 0
M  V30 5311 O 501.915 -1.52554 1.22899 0
M  V30 5312 H 500.495 0.273157 0.695265 0
M  V30 5313 H 503.157 1.32044 1.43354 0
M  V30 5314 H 502.253 1.05362 2.93778 0
M  V30 5315 N 502.554 -1.34406 0.822964 0
M  V30 5316 C 503.501 -2.29519 0.24284 0
M  V30 5317 C 504.471 -1.5359 -0.632397 0
M  V30 5318 O 505.656 -1.8196 -0.57403 0
M  V30 5319 C 502.796 -3.40032 -0.58925 0
M  V30 5320 C 501.909 -4.30899 0.308236 0
M  V30 5321 C 501.044 -5.28515 -0.533425 0
M  V30 5322 C 500.083 -6.1102 0.363444 0
M  V30 5323 N 499.22 -7.00725 -0.439147 0
M  V30 5324 H 504.06 -2.78537 1.05929 0
M  V30 5325 H 501.597 -1.3707 0.533872 0
M  V30 5326 H 503.555 -4.0279 -1.087 0
M  V30 5327 H 502.185 -2.92248 -1.37081 0
M  V30 5328 H 501.237 -3.69002 0.924203 0
M  V30 5329 H 502.549 -4.88717 0.997862 0
M  V30 5330 H 501.703 -5.96725 -1.09565 0
M  V30 5331 H 500.442 -4.71235 -1.25656 0
M  V30 5332 H 499.447 -5.41743 0.937812 0
M  V30 5333 H 500.672 -6.70381 1.08469 0
M  V30 5334 H 498.618 -6.45913 -1.14595 0
M  V30 5335 H 498.535 -7.55756 0.19209 0
M  V30 5336 H 499.803 -7.73263 -0.984124 0
M  V30 5337 N 504.032 -0.577932 -1.46621 0
M  V30 5338 C 505.262 -0.0670668 -2.06491 0
M  V30 5339 C 505.67 1.24119 -1.42798 0
M  V30 5340 O 505.013 1.76016 -0.525759 0
M  V30 5341 C 505.075 0.177995 -3.59059 0
M  V30 5342 C 504.739 -1.04394 -4.44917 0
M  V30 5343 C 505.736 -1.95479 -4.81751 0
M  V30 5344 C 503.421 -1.26444 -4.86125 0
M  V30 5345 C 505.415 -3.06965 -5.58615 0
M  V30 5346 C 503.102 -2.38237 -5.62749 0
M  V30 5347 C 504.1 -3.28327 -5.98908 0
M  V30 5348 O 503.788 -4.38179 -6.73984 0
M  V30 5349 H 503.52 -0.0523159 -0.673973 0
M  V30 5350 H 506.074 -0.796966 -1.89308 0
M  V30 5351 H 504.304 0.962451 -3.74531 0
M  V30 5352 H 505.993 0.636782 -4.00874 0
M  V30 5353 H 506.759 -1.79657 -4.50498 0
M  V30 5354 H 502.638 -0.572316 -4.57434 0
M  V30 5355 H 506.182 -3.77309 -5.86757 0
M  V30 5356 H 502.079 -2.54023 -5.93416 0
M  V30 5357 H 502.847 -4.36486 -6.92403 0
M  V30 5358 N 505.51 1.54411 -0.315457 0
M  V30 5359 C 506.926 1.59556 0.037464 0
M  V30 5360 C 507.126 1.33217 1.5118 0
M  V30 5361 O 506.182 1.11264 2.26664 0
M  V30 5362 C 507.495 2.98372 -0.373477 0
M  V30 5363 C 509.043 3.11324 -0.323452 0
M  V30 5364 C 509.518 4.52472 -0.709433 0
M  V30 5365 N 511.009 4.58437 -0.662524 0
M  V30 5366 C 511.744 5.65751 -0.933474 0
M  V30 5367 N 511.24 6.81039 -1.27114 0
M  V30 5368 N 513.033 5.55489 -0.859573 0
M  V30 5369 H 505.184 1.6979 -1.27614 0
M  V30 5370 H 507.447 0.793732 -0.518356 0
M  V30 5371 H 507.153 3.22618 -1.40037 0
M  V30 5372 H 507.027 3.76264 0.265615 0
M  V30 5373 H 509.414 2.86818 0.694223 0
M  V30 5374 H 509.495 2.35555 -0.997367 0
M  V30 5375 H 509.139 4.7771 -1.72498 0
M  V30 5376 H 509.069 5.26598 -0.0132923 0
M  V30 5377 H 511.56 3.75636 -0.413065 0
M  V30 5378 H 511.873 7.58816 -1.46348 0
M  V30 5379 H 510.218 6.82555 -1.30932 0
M  V30 5380 H 513.409 4.64299 -0.595324 0
M  V30 5381 H 513.582 6.39036 -1.0741 0
M  V30 5382 N 506.988 0.0434614 1.5754 0
M  V30 5383 C 507.898 -0.94893 2.14552 0
M  V30 5384 C 508.914 -1.34707 1.10136 0
M  V30 5385 O 510.09 -1.42557 1.42266 0
M  V30 5386 C 507.155 -2.208 2.67298 0
M  V30 5387 C 506.216 -1.86893 3.86484 0
M  V30 5388 C 505.449 -3.06797 4.36705 0
M  V30 5389 O 505.672 -4.19921 3.86034 0
M  V30 5390 O 504.606 -2.8826 5.28384 0
M  V30 5391 H 508.432 -0.494099 2.99654 0
M  V30 5392 H 506.017 -0.177989 1.48336 0
M  V30 5393 H 507.899 -2.94686 3.01228 0
M  V30 5394 H 506.574 -2.65436 1.85272 0
M  V30 5395 H 505.481 -1.10347 3.57455 0
M  V30 5396 H 506.814 -1.47062 4.69716 0
M  V30 5397 N 508.466 -1.55915 -0.229846 0
M  V30 5398 C 509.429 -1.90914 -1.26824 0
M  V30 5399 C 510.429 -0.786999 -1.40225 0
M  V30 5400 O 511.619 -1.05484 -1.38632 0
M  V30 5401 C 508.751 -2.15264 -2.64337 0
M  V30 5402 H 509.944 -2.8378 -0.969998 0
M  V30 5403 H 507.497 -1.49069 -0.4699 0
M  V30 5404 H 508.232 -1.24923 -2.99274 0
M  V30 5405 H 508.017 -2.97005 -2.55989 0
M  V30 5406 H 509.507 -2.43467 -3.39284 0
M  V30 5407 N 509.944 0.496216 -1.49584 0
M  V30 5408 C 510.907 1.57952 -1.66084 0
M  V30 5409 C 511.907 1.51729 -0.53244 0
M  V30 5410 O 513.097 1.54796 -0.79899 0
M  V30 5411 C 510.229 2.97604 -1.66268 0
M  V30 5412 H 511.422 1.44649 -2.6271 0
M  V30 5413 H 508.975 0.7208 -1.38687 0
M  V30 5414 H 509.71 3.16378 -0.712432 0
M  V30 5415 H 509.495 3.03528 -2.4822 0
M  V30 5416 H 510.985 3.76301 -1.81073 0
M  V30 5417 N 511.423 1.38739 0.74761 0
M  V30 5418 C 512.839 1.20067 1.05148 0
M  V30 5419 C 513.039 0.0534835 2.01429 0
M  V30 5420 O 512.095 -0.59886 2.45296 0
M  V30 5421 C 513.408 2.52957 1.62584 0
M  V30 5422 C 514.956 2.59692 1.74726 0
M  V30 5423 C 515.431 3.92772 2.35573 0
M  V30 5424 N 516.922 3.94343 2.42997 0
M  V30 5425 C 517.657 4.9408 2.90985 0
M  V30 5426 N 517.153 6.04214 3.38965 0
M  V30 5427 N 518.946 4.81466 2.9008 0
M  V30 5428 H 511.097 2.12121 0.108808 0
M  V30 5429 H 513.36 0.941491 0.110899 0
M  V30 5430 H 513.066 3.37389 0.993051 0
M  V30 5431 H 512.94 2.71779 2.61565 0
M  V30 5432 H 515.327 1.75651 2.3713 0
M  V30 5433 H 515.408 2.44731 0.744326 0
M  V30 5434 H 515.052 4.77238 1.738 0
M  V30 5435 H 514.982 4.05046 3.36519 0
M  V30 5436 H 517.473 3.14799 2.0907 0
M  V30 5437 H 517.786 6.76241 3.74056 0
M  V30 5438 H 516.131 6.07825 3.37007 0
M  V30 5439 H 519.322 3.94535 2.51912 0
M  V30 5440 H 519.495 5.59344 3.27166 0
M  V30 5441 N 512.901 -0.976442 1.23707 0
M  V30 5442 C 513.831 -2.08749 1.04624 0
M  V30 5443 C 514.812 -1.70057 -0.0380956 0
M  V30 5444 O 515.997 -1.93782 0.127308 0
M  V30 5445 C 513.127 -3.41335 0.640902 0
M  V30 5446 C 512.081 -3.93947 1.67302 0
M  V30 5447 C 511.407 -5.22774 1.12301 0
M  V30 5448 C 512.707 -4.22769 3.06697 0
M  V30 5449 H 514.401 -2.24972 1.97555 0
M  V30 5450 H 511.947 -1.08108 0.951247 0
M  V30 5451 H 513.9 -4.18489 0.494434 0
M  V30 5452 H 512.624 -3.24988 -0.324099 0
M  V30 5453 H 511.283 -3.18941 1.80755 0
M  V30 5454 H 510.931 -5.0278 0.148877 0
M  V30 5455 H 510.631 -5.58942 1.81267 0
M  V30 5456 H 512.155 -6.02546 0.988479 0
M  V30 5457 H 513.569 -4.90659 2.96524 0
M  V30 5458 H 511.966 -4.70147 3.72937 0
M  V30 5459 H 513.036 -3.29885 3.55392 0
M  V30 5460 N 514.379 -1.04941 -1.1758 0
M  V30 5461 C 515.289 -0.658826 -2.25159 0
M  V30 5462 C 516.305 0.318941 -1.71052 0
M  V30 5463 O 517.481 0.171669 -2.00667 0
M  V30 5464 C 514.546 -0.0369522 -3.4668 0
M  V30 5465 C 513.607 -1.06484 -4.15884 0
M  V30 5466 C 512.84 -0.472551 -5.31604 0
M  V30 5467 O 513.063 0.718736 -5.65854 0
M  V30 5468 O 511.997 -1.20557 -5.89703 0
M  V30 5469 H 515.823 -1.55533 -2.60851 0
M  V30 5470 H 513.408 -0.820819 -1.24832 0
M  V30 5471 H 515.29 0.308784 -4.20267 0
M  V30 5472 H 513.965 0.833238 -3.12792 0
M  V30 5473 H 512.872 -1.46253 -3.44327 0
M  V30 5474 H 514.205 -1.9061 -4.53794 0
M  V30 5475 N 515.857 1.33968 -0.830081 0
M  V30 5476 C 517.106 1.97323 -0.417928 0
M  V30 5477 C 517.419 1.6652 1.02618 0
M  V30 5478 O 518.625 2.2342 1.54259 0
M  V30 5479 C 517.081 3.53099 -0.696359 0
M  V30 5480 C 516.689 3.92788 -2.15457 0
M  V30 5481 C 518.433 4.23049 -0.350724 0
M  V30 5482 C 516.34 5.41506 -2.37751 0
M  V30 5483 H 515.27 0.738409 -0.152541 0
M  V30 5484 H 517.921 1.52711 -1.01744 0
M  V30 5485 H 516.303 3.95991 -0.0265904 0
M  V30 5486 H 517.477 3.6098 -2.86408 0
M  V30 5487 H 515.792 3.35795 -2.46232 0
M  V30 5488 H 518.389 5.32403 -0.495036 0
M  V30 5489 H 518.732 4.10279 0.705476 0
M  V30 5490 H 519.265 3.85657 -0.975362 0
M  V30 5491 H 516.004 5.5927 -3.41903 0
M  V30 5492 H 515.524 5.74804 -1.7135 0
M  V30 5493 H 517.203 6.0828 -2.20465 0
M  V30 5494 N 517.335 0.585699 1.46312 0
M  V30 5495 C 518.283 -0.158577 2.32059 0
M  V30 5496 C 519.277 -0.881427 1.44662 0
M  V30 5497 O 520.483 -0.799476 1.61271 0
M  V30 5498 H 516.858 -0.0700066 0.748734 0
M  V30 5499 H 518.829 0.583383 2.92642 0
M  V30 5500 C 517.578 -1.15701 3.27885 0
M  V30 5501 H 516.901 -0.610215 3.95116 0
M  V30 5502 H 518.341 -1.64812 3.90657 0
M  V30 5503 C 516.8 -2.21951 2.53455 0
M  V30 5504 O 517.33 -3.29352 2.29978 0
M  V30 5505 N 515.536 -1.9664 2.13965 0
M  V30 5506 H 515.083 -1.09309 2.33258 0
M  V30 5507 H 515.041 -2.6794 1.64485 0
M  V30 5508 N 518.813 -1.54241 0.323641 0
M  V30 5509 C 520.059 -2.00867 -0.279323 0
M  V30 5510 C 520.392 -1.21146 -1.5178 0
M  V30 5511 O 519.667 -0.29378 -1.92269 0
M  V30 5512 C 519.95 -3.54837 -0.613387 0
M  V30 5513 C 519.803 -4.45284 0.635803 0
M  V30 5514 C 521.122 -4.16186 -1.43099 0
M  V30 5515 H 518.241 -0.730177 -0.100049 0
M  V30 5516 H 520.883 -1.84829 0.440235 0
M  V30 5517 H 519.033 -3.68634 -1.22641 0
M  V30 5518 H 520.705 -4.43357 1.27406 0
M  V30 5519 H 518.948 -4.14956 1.26466 0
M  V30 5520 H 519.619 -5.5084 0.357597 0
M  V30 5521 H 522.095 -4.05964 -0.912814 0
M  V30 5522 H 520.971 -5.24031 -1.6335 0
M  V30 5523 H 521.232 -3.69516 -2.42715 0
M  V30 5524 N 520.291 -0.0518155 -1.57515 0
M  V30 5525 C 521.221 0.920283 -2.146 0
M  V30 5526 C 522.202 1.32406 -1.06783 0
M  V30 5527 O 523.387 1.39866 -1.34726 0
M  V30 5528 C 520.517 2.1949 -2.6915 0
M  V30 5529 C 519.471 1.93116 -3.81956 0
M  V30 5530 C 518.797 3.27037 -4.23026 0
M  V30 5531 C 520.097 1.25225 -5.07066 0
M  V30 5532 H 521.791 0.444801 -2.96077 0
M  V30 5533 H 519.337 0.212508 -1.42423 0
M  V30 5534 H 521.29 2.87894 -3.07725 0
M  V30 5535 H 520.014 2.69244 -1.84865 0
M  V30 5536 H 518.673 1.27123 -3.43854 0
M  V30 5537 H 518.321 3.74595 -3.3569 0
M  V30 5538 H 518.021 3.10189 -4.99056 0
M  V30 5539 H 519.545 3.96673 -4.64202 0
M  V30 5540 H 520.959 1.83666 -5.43083 0
M  V30 5541 H 519.356 1.18702 -5.88243 0
M  V30 5542 H 520.426 0.228382 -4.84362 0
M  V30 5543 N 521.769 1.56035 0.221574 0
M  V30 5544 C 522.716 1.92413 1.27459 0
M  V30 5545 C 523.686 0.781323 1.46576 0
M  V30 5546 O 524.871 1.03721 1.60145 0
M  V30 5547 C 522.011 2.24617 2.61995 0
M  V30 5548 C 521.124 3.51831 2.50677 0
M  V30 5549 C 520.259 3.73482 3.77736 0
M  V30 5550 C 519.298 4.94211 3.6114 0
M  V30 5551 N 518.435 5.12252 4.80148 0
M  V30 5552 H 523.275 2.82203 0.957355 0
M  V30 5553 H 520.812 1.39676 0.461415 0
M  V30 5554 H 522.77 2.41298 3.40339 0
M  V30 5555 H 521.4 1.38 2.91815 0
M  V30 5556 H 520.452 3.43343 1.63767 0
M  V30 5557 H 521.764 4.40328 2.34334 0
M  V30 5558 H 520.918 3.9026 4.64523 0
M  V30 5559 H 519.657 2.83266 3.97003 0
M  V30 5560 H 518.662 4.77384 2.72736 0
M  V30 5561 H 519.887 5.85912 3.43343 0
M  V30 5562 H 517.833 4.24978 4.99729 0
M  V30 5563 H 517.75 5.94881 4.66532 0
M  V30 5564 H 519.018 5.33465 5.68362 0
M  V30 5565 N 523.247 -0.488276 1.49845 0
M  V30 5566 C 524.194 -1.58836 1.67451 0
M  V30 5567 C 525.164 -1.57886 0.515857 0
M  V30 5568 O 526.349 -1.75679 0.744403 0
M  V30 5569 C 523.489 -2.96915 1.75885 0
M  V30 5570 C 522.602 -3.07784 3.03138 0
M  V30 5571 C 521.737 -4.36673 3.02473 0
M  V30 5572 C 520.776 -4.41222 4.24252 0
M  V30 5573 N 519.913 -5.61557 4.21424 0
M  V30 5574 H 524.753 -1.43131 2.61376 0
M  V30 5575 H 522.29 -0.696186 1.29583 0
M  V30 5576 H 524.248 -3.76965 1.78755 0
M  V30 5577 H 522.878 -3.11295 0.85414 0
M  V30 5578 H 521.93 -2.20717 3.09819 0
M  V30 5579 H 523.242 -3.07005 3.93128 0
M  V30 5580 H 522.396 -5.25055 3.03977 0
M  V30 5581 H 521.135 -4.40037 2.10283 0
M  V30 5582 H 520.14 -3.5124 4.22978 0
M  V30 5583 H 521.365 -4.39564 5.17649 0
M  V30 5584 H 519.311 -5.65738 3.32078 0
M  V30 5585 H 519.228 -5.62447 5.05163 0
M  V30 5586 H 520.496 -6.52111 4.2705 0
M  V30 5587 N 524.725 -1.39134 -0.740242 0
M  V30 5588 C 525.974 -1.35384 -1.49512 0
M  V30 5589 C 526.287 0.04919 -1.95538 0
M  V30 5590 O 527.493 0.209257 -2.70692 0
M  V30 5591 C 525.949 -2.37812 -2.70136 0
M  V30 5592 C 525.557 -3.83804 -2.31081 0
M  V30 5593 C 527.301 -2.4313 -3.47977 0
M  V30 5594 C 525.208 -4.77886 -3.48395 0
M  V30 5595 H 524.138 -0.503297 -0.561434 0
M  V30 5596 H 526.789 -1.64754 -0.807974 0
M  V30 5597 H 525.171 -2.01505 -3.40899 0
M  V30 5598 H 526.345 -4.29123 -1.67898 0
M  V30 5599 H 524.66 -3.81732 -1.66343 0
M  V30 5600 H 527.257 -3.10614 -4.35228 0
M  V30 5601 H 527.6 -1.45423 -3.90074 0
M  V30 5602 H 528.133 -2.78304 -2.84239 0
M  V30 5603 H 524.872 -5.76836 -3.11353 0
M  V30 5604 H 524.392 -4.3725 -4.10576 0
M  V30 5605 H 526.071 -4.96538 -4.148 0
M  V30 5606 N 526.204 0.969867 -1.24223 0
M  V30 5607 C 527.151 2.06407 -1.0327 0
M  V30 5608 C 528.121 1.66014 0.0533 0
M  V30 5609 O 529.306 1.90533 -0.100896 0
M  V30 5610 C 526.446 3.3909 -0.641262 0
M  V30 5611 C 525.559 3.9269 -1.80051 0
M  V30 5612 C 524.694 5.13631 -1.35486 0
M  V30 5613 C 523.733 5.59423 -2.48419 0
M  V30 5614 N 522.87 6.71586 -2.04737 0
M  V30 5615 H 527.71 2.23663 -1.96923 0
M  V30 5616 H 525.247 1.09624 -0.980862 0
M  V30 5617 H 527.205 4.15323 -0.395351 0
M  V30 5618 H 525.835 3.21765 0.258269 0
M  V30 5619 H 524.887 3.13116 -2.16014 0
M  V30 5620 H 526.199 4.22636 -2.64916 0
M  V30 5621 H 525.353 5.97231 -1.0677 0
M  V30 5622 H 524.092 4.85364 -0.476722 0
M  V30 5623 H 523.097 4.74398 -2.77897 0
M  V30 5624 H 524.322 5.89705 -3.36786 0
M  V30 5625 H 522.268 6.45058 -1.19318 0
M  V30 5626 H 522.185 7.0097 -2.83156 0
M  V30 5627 H 523.453 7.58633 -1.79154 0
M  V30 5628 N 527.682 1.05563 1.17022 0
M  V30 5629 C 528.592 0.670758 2.24807 0
M  V30 5630 C 529.608 -0.309865 1.71219 0
M  V30 5631 O 530.784 -0.161025 2.00755 0
M  V30 5632 C 527.849 0.055337 3.46656 0
M  V30 5633 C 526.91 1.08688 4.15314 0
M  V30 5634 C 526.143 0.500736 5.31346 0
M  V30 5635 O 526.366 -0.688718 5.66227 0
M  V30 5636 O 525.3 1.23683 5.89055 0
M  V30 5637 H 529.126 1.56914 2.60023 0
M  V30 5638 H 526.711 0.827428 1.24395 0
M  V30 5639 H 528.593 -0.286492 4.20425 0
M  V30 5640 H 527.268 -0.816638 3.13229 0
M  V30 5641 H 526.175 1.48077 3.43546 0
M  V30 5642 H 527.508 1.93014 4.52777 0
M  V30 5643 N 529.16 -1.33526 0.837174 0
M  V30 5644 C 530.107 -2.29248 0.267169 0
M  V30 5645 C 531.077 -1.54252 -0.616071 0
M  V30 5646 O 532.262 -1.82559 -0.554699 0
M  V30 5647 C 529.402 -3.40638 -0.553152 0
M  V30 5648 C 528.515 -4.30548 0.353921 0
M  V30 5649 C 527.65 -5.29051 -0.477339 0
M  V30 5650 C 526.689 -6.106 0.42823 0
M  V30 5651 N 525.826 -7.01152 -0.364801 0
M  V30 5652 H 530.666 -2.77398 1.08877 0
M  V30 5653 H 528.203 -1.36496 0.54838 0
M  V30 5654 H 530.161 -4.03921 -1.04422 0
M  V30 5655 H 528.791 -2.93685 -1.33973 0
M  V30 5656 H 527.843 -3.68001 0.963289 0
M  V30 5657 H 529.155 -4.87631 1.04964 0
M  V30 5658 H 528.309 -5.97853 -1.0323 0
M  V30 5659 H 527.048 -4.72541 -1.2065 0
M  V30 5660 H 526.053 -5.40718 0.995219 0
M  V30 5661 H 527.278 -6.69193 1.15573 0
M  V30 5662 H 525.224 -6.47092 -1.07738 0
M  V30 5663 H 525.141 -7.5551 0.272238 0
M  V30 5664 H 526.409 -7.74263 -0.902054 0
M  V30 5665 N 530.638 -0.59345 -1.46 0
M  V30 5666 C 531.915 -0.0157933 -1.95594 0
M  V30 5667 C 532.295 1.44807 -1.53604 0
M  V30 5668 O 531.643 2.14342 -0.791824 0
M  V30 5669 C 531.853 -0.199081 -3.48432 0
M  V30 5670 C 533.201 -0.0724943 -4.24538 0
M  V30 5671 O 534.225 -0.128469 -3.55968 0
M  V30 5672 O 533.084 0.0542426 -5.46473 0
M  V30 5673 H 530.178 0.043749 -0.825842 0
M  V30 5674 H 532.724 -0.662522 -1.56233 0
M  V30 5675 H 531.496 -1.21631 -3.71916 0
M  V30 5676 H 531.119 0.483576 -3.94648 0
M  V30 5677 N 532.116 1.54067 -0.331816 0
M  V30 5678 C 533.063 2.24623 0.530372 0
M  V30 5679 C 534.033 1.24009 1.10503 0
M  V30 5680 O 535.218 1.52712 1.14384 0
M  V30 5681 C 532.358 3.01374 1.68129 0
M  V30 5682 C 531.471 4.16821 1.13507 0
M  V30 5683 C 530.606 4.81085 2.25234 0
M  V30 5684 C 529.645 5.88621 1.67903 0
M  V30 5685 N 528.782 6.46713 2.73326 0
M  V30 5686 H 533.622 2.97898 -0.0778607 0
M  V30 5687 H 531.159 1.47014 -0.0501965 0
M  V30 5688 H 533.117 3.44125 2.35868 0
M  V30 5689 H 531.747 2.30419 2.26069 0
M  V30 5690 H 530.799 3.78796 0.348979 0
M  V30 5691 H 532.111 4.94203 0.675633 0
M  V30 5692 H 531.265 5.26846 3.00862 0
M  V30 5693 H 530.004 4.03102 2.74518 0
M  V30 5694 H 529.009 5.42254 0.907773 0
M  V30 5695 H 530.234 6.68506 1.19487 0
M  V30 5696 H 528.18 5.71599 3.21886 0
M  V30 5697 H 528.097 7.19532 2.3197 0
M  V30 5698 H 529.365 6.97129 3.48758 0
M  V30 5699 N 533.594 0.0601682 1.57485 0
M  V30 5700 C 534.504 -0.926121 2.15546 0
M  V30 5701 C 535.52 -1.33532 1.11558 0
M  V30 5702 O 536.696 -1.4104 1.4377 0
M  V30 5703 C 533.761 -2.17952 2.69625 0
M  V30 5704 C 532.822 -1.82783 3.88444 0
M  V30 5705 C 532.055 -3.02148 4.39935 0
M  V30 5706 O 532.278 -4.15803 3.90466 0
M  V30 5707 O 531.212 -2.82639 5.31412 0
M  V30 5708 H 535.038 -0.462289 3.00161 0
M  V30 5709 H 532.623 -0.162246 1.48516 0
M  V30 5710 H 534.505 -2.91474 3.04337 0
M  V30 5711 H 533.18 -2.63456 1.88077 0
M  V30 5712 H 532.087 -1.06549 3.58606 0
M  V30 5713 H 533.42 -1.42072 4.7125 0
M  V30 5714 N 535.072 -1.5615 -0.213296 0
M  V30 5715 C 536.02 -1.93953 -1.28394 0
M  V30 5716 C 537.014 -0.822592 -1.48087 0
M  V30 5717 O 538.22 -1.00748 -1.49164 0
M  V30 5718 H 534.595 -0.61648 -0.430646 0
M  V30 5719 H 536.566 -2.83275 -0.937977 0
M  V30 5720 C 535.315 -2.27969 -2.62537 0
M  V30 5721 H 534.638 -3.13432 -2.48194 0
M  V30 5722 H 536.078 -2.58297 -3.36242 0
M  V30 5723 C 534.537 -1.10775 -3.18167 0
M  V30 5724 O 535.067 -0.373201 -3.99963 0
M  V30 5725 N 533.273 -0.889377 -2.76656 0
M  V30 5726 H 532.82 -1.48843 -2.10246 0
M  V30 5727 H 532.778 -0.107 -3.14218 0
M  V30 5728 N 536.55 0.480323 -1.50102 0
M  V30 5729 C 537.497 1.57946 -1.6829 0
M  V30 5730 C 538.467 1.57611 -0.524223 0
M  V30 5731 O 539.652 1.75282 -0.753709 0
M  V30 5732 C 536.792 2.95978 -1.77457 0
M  V30 5733 C 535.905 3.06173 -3.04766 0
M  V30 5734 C 535.04 4.35063 -3.04784 0
M  V30 5735 C 534.079 4.38966 -4.26586 0
M  V30 5736 N 533.216 5.59314 -4.24396 0
M  V30 5737 H 538.056 1.41743 -2.62131 0
M  V30 5738 H 535.593 0.689304 -1.2995 0
M  V30 5739 H 537.551 3.76011 -1.80752 0
M  V30 5740 H 536.181 3.10837 -0.870637 0
M  V30 5741 H 535.233 2.19071 -3.10986 0
M  V30 5742 H 536.545 3.04916 -3.9475 0
M  V30 5743 H 535.699 5.23436 -3.06757 0
M  V30 5744 H 534.438 4.38915 -2.12614 0
M  V30 5745 H 533.443 3.48992 -4.24835 0
M  V30 5746 H 534.668 4.36813 -5.19972 0
M  V30 5747 H 532.614 5.63969 -3.35074 0
M  V30 5748 H 532.531 5.5976 -5.08138 0
M  V30 5749 H 533.799 6.49837 -4.30502 0
M  V30 5750 N 538.028 1.39524 0.732853 0
M  V30 5751 C 539.275 1.36865 1.49246 0
M  V30 5752 C 539.603 -0.0347118 1.94469 0
M  V30 5753 O 538.858 -1.01596 1.67262 0
M  V30 5754 C 539.157 2.28916 2.74468 0
M  V30 5755 C 538.823 3.76506 2.481 0
M  V30 5756 C 537.485 4.16721 2.40619 0
M  V30 5757 C 539.837 4.69846 2.25598 0
M  V30 5758 C 537.165 5.48334 2.08679 0
M  V30 5759 C 539.517 6.01739 1.95174 0
M  V30 5760 C 538.181 6.41015 1.86163 0
M  V30 5761 H 537.451 0.500824 0.546129 0
M  V30 5762 H 540.098 1.72047 0.840958 0
M  V30 5763 H 538.403 1.86859 3.4437 0
M  V30 5764 H 540.1 2.2415 3.32502 0
M  V30 5765 H 536.69 3.44635 2.54803 0
M  V30 5766 H 540.874 4.39608 2.30344 0
M  V30 5767 H 536.13 5.77685 2.00226 0
M  V30 5768 H 540.304 6.73591 1.76771 0
M  V30 5769 H 537.931 7.42917 1.61179 0
M  V30 5770 N 539.506 -0.963266 1.24736 0
M  V30 5771 C 540.436 -2.07628 1.06832 0
M  V30 5772 C 541.417 -1.70088 -0.0200566 0
M  V30 5773 O 542.602 -1.93636 0.147854 0
M  V30 5774 C 539.732 -3.40636 0.677069 0
M  V30 5775 C 538.686 -3.9215 1.71471 0
M  V30 5776 C 538.012 -5.21553 1.1784 0
M  V30 5777 C 539.312 -4.19493 3.11164 0
M  V30 5778 H 541.006 -2.22864 1.9993 0
M  V30 5779 H 538.552 -1.07093 0.96266 0
M  V30 5780 H 540.505 -4.17941 0.538792 0
M  V30 5781 H 539.229 -3.25313 -0.289612 0
M  V30 5782 H 537.888 -3.17005 1.84128 0
M  V30 5783 H 537.536 -5.02593 0.202195 0
M  V30 5784 H 537.236 -5.56988 1.87185 0
M  V30 5785 H 538.76 -6.01463 1.05233 0
M  V30 5786 H 540.174 -4.87487 3.01711 0
M  V30 5787 H 538.571 -4.66165 3.77902 0
M  V30 5788 H 539.641 -3.26097 3.58871 0
M  V30 5789 N 540.985 -1.06182 -1.16461 0
M  V30 5790 C 542.225 -0.787048 -1.8864 0
M  V30 5791 C 542.589 0.674093 -1.79778 0
M  V30 5792 O 543.79 1.06341 -2.46871 0
M  V30 5793 C 542.061 -1.2666 -3.34203 0
M  V30 5794 S 543.62 -1.12071 -4.24247 0
M  V30 5795 H 540.438 -0.285539 -0.651144 0
M  V30 5796 H 543.04 -1.35851 -1.40587 0
M  V30 5797 H 541.744 -2.32496 -3.38192 0
M  V30 5798 H 541.275 -0.689841 -3.87304 0
M  V30 5799 H 543.29 -0.0509341 -4.96174 0
M  V30 5800 N 542.463 1.3308 -0.844243 0
M  V30 5801 C 543.709 1.97898 -0.443206 0
M  V30 5802 C 544.042 1.66699 0.99625 0
M  V30 5803 O 543.317 0.949704 1.69738 0
M  V30 5804 C 543.6 3.53801 -0.670606 0
M  V30 5805 C 543.453 3.94667 -2.15772 0
M  V30 5806 C 544.772 4.39936 -0.120226 0
M  V30 5807 H 541.891 0.718861 -0.162504 0
M  V30 5808 H 544.533 1.57633 -1.06075 0
M  V30 5809 H 542.683 3.88229 -0.14496 0
M  V30 5810 H 544.355 3.70469 -2.74865 0
M  V30 5811 H 542.598 3.44203 -2.6402 0
M  V30 5812 H 543.269 5.03275 -2.26757 0
M  V30 5813 H 545.745 4.12183 -0.5696 0
M  V30 5814 H 544.621 5.4803 -0.308984 0
M  V30 5815 H 544.882 4.31184 0.976347 0
M  V30 5816 N 543.941 0.601185 1.45683 0
M  V30 5817 C 544.871 -0.108824 2.33246 0
M  V30 5818 C 545.852 -0.865223 1.46451 0
M  V30 5819 O 547.037 -0.83704 1.75235 0
M  V30 5820 C 544.167 -1.11101 3.2905 0
M  V30 5821 C 543.121 -0.468244 4.25431 0
M  V30 5822 C 542.447 -1.57822 5.10878 0
M  V30 5823 C 543.747 0.606469 5.18767 0
M  V30 5824 H 545.441 0.622306 2.92861 0
M  V30 5825 H 542.987 0.300714 1.40825 0
M  V30 5826 H 544.94 -1.61622 3.89174 0
M  V30 5827 H 543.664 -1.87265 2.67581 0
M  V30 5828 H 542.323 0.0160484 3.66596 0
M  V30 5829 H 541.971 -2.32998 4.45781 0
M  V30 5830 H 541.671 -1.15369 5.76163 0
M  V30 5831 H 543.195 -2.08583 5.73869 0
M  V30 5832 H 544.609 0.185589 5.73 0
M  V30 5833 H 543.006 0.952381 5.92494 0
M  V30 5834 H 544.076 1.48559 4.61582 0
M  V30 5835 N 545.419 -1.53889 0.339982 0
M  V30 5836 C 546.352 -2.21187 -0.561405 0
M  V30 5837 C 547.33 -1.19463 -1.10306 0
M  V30 5838 O 548.514 -1.48268 -1.164 0
M  V30 5839 C 545.641 -2.8865 -1.77198 0
M  V30 5840 C 544.687 -4.04232 -1.3601 0
M  V30 5841 S 545.52 -5.34129 -0.382909 0
M  V30 5842 C 546.676 -6.05094 -1.60039 0
M  V30 5843 H 546.909 -2.97298 0.0102092 0
M  V30 5844 H 544.442 -1.53901 0.124056 0
M  V30 5845 H 546.4 -3.28138 -2.4665 0
M  V30 5846 H 545.061 -2.12311 -2.3148 0
M  V30 5847 H 544.254 -4.50358 -2.2626 0
M  V30 5848 H 543.856 -3.66503 -0.745098 0
M  V30 5849 H 546.148 -6.2827 -2.53541 0
M  V30 5850 H 547.091 -6.98182 -1.18099 0
M  V30 5851 H 547.499 -5.35207 -1.79483 0
M  V30 5852 N 546.897 -0.0685191 -1.57451 0
M  V30 5853 C 548.122 0.613919 -1.98106 0
M  V30 5854 C 548.547 1.62551 -0.946501 0
M  V30 5855 O 547.905 1.81085 0.0882824 0
M  V30 5856 C 547.953 1.26189 -3.378 0
M  V30 5857 O 547.057 2.37773 -3.36954 0
M  V30 5858 H 546.398 0.158163 -0.644888 0
M  V30 5859 H 548.928 -0.142063 -2.04106 0
M  V30 5860 H 548.938 1.60951 -3.74912 0
M  V30 5861 H 547.613 0.520625 -4.12629 0
M  V30 5862 H 546.19 2.04829 -3.11608 0
M  V30 5863 N 548.375 1.56261 0.205012 0
M  V30 5864 C 549.652 1.70856 0.952233 0
M  V30 5865 C 550.032 0.620501 2.01775 0
M  V30 5866 O 549.38 -0.370035 2.25484 0
M  V30 5867 C 549.59 3.12807 1.54767 0
M  V30 5868 C 550.938 3.72733 2.0336 0
M  V30 5869 O 551.962 3.15873 1.64629 0
M  V30 5870 O 550.821 4.72501 2.746 0
M  V30 5871 H 547.915 0.696496 0.445895 0
M  V30 5872 H 550.461 1.6857 0.195489 0
M  V30 5873 H 549.233 3.83465 0.779132 0
M  V30 5874 H 548.856 3.1928 2.36951 0
M  V30 5875 N 549.853 -0.472356 1.50355 0
M  V30 5876 C 551.099 -1.22348 1.62488 0
M  V30 5877 C 551.454 -1.89711 0.320574 0
M  V30 5878 O 550.747 -1.79074 -0.68141 0
M  V30 5879 C 550.941 -2.29257 2.74182 0
M  V30 5880 C 550.77 -1.72383 4.15348 0
M  V30 5881 C 549.54 -1.52411 4.81766 0
M  V30 5882 C 551.738 -1.21949 4.99633 0
M  V30 5883 N 549.72 -0.907669 6.07153 0
M  V30 5884 C 551.091 -0.726191 6.15732 0
M  V30 5885 C 553.146 -1.10792 4.85417 0
M  V30 5886 C 551.849 -0.132322 7.19178 0
M  V30 5887 C 553.875 -0.52799 5.89038 0
M  V30 5888 C 553.237 -0.0450604 7.04386 0
M  V30 5889 H 549.336 -0.436631 0.648751 0
M  V30 5890 H 551.92 -0.525698 1.87469 0
M  V30 5891 H 550.091 -2.96464 2.50926 0
M  V30 5892 H 551.823 -2.9628 2.75681 0
M  V30 5893 H 548.578 -1.776 4.39039 0
M  V30 5894 H 549.002 -0.617897 6.74174 0
M  V30 5895 H 553.644 -1.46722 3.96525 0
M  V30 5896 H 551.362 0.239187 8.07746 0
M  V30 5897 H 554.948 -0.444046 5.80103 0
M  V30 5898 H 553.828 0.396659 7.83196 0
M  V30 5899 N 551.331 -1.39911 -0.725443 0
M  V30 5900 C 552.578 -1.37654 -1.48518 0
M  V30 5901 C 552.906 0.0243982 -1.94485 0
M  V30 5902 O 552.161 1.00708 -1.67799 0
M  V30 5903 C 552.46 -2.30368 -2.7325 0
M  V30 5904 C 552.126 -3.77817 -2.461 0
M  V30 5905 C 550.788 -4.17991 -2.38405 0
M  V30 5906 C 553.14 -4.71036 -2.23103 0
M  V30 5907 C 550.468 -5.49433 -2.05768 0
M  V30 5908 C 552.82 -6.02766 -1.9198 0
M  V30 5909 C 551.484 -6.41993 -1.82761 0
M  V30 5910 H 550.754 -0.503713 -0.543465 0
M  V30 5911 H 553.401 -1.7249 -0.831822 0
M  V30 5912 H 551.706 -1.88683 -3.43375 0
M  V30 5913 H 553.403 -2.2591 -3.31309 0
M  V30 5914 H 549.993 -3.45982 -2.52972 0
M  V30 5915 H 554.177 -4.40823 -2.2801 0
M  V30 5916 H 549.433 -5.78738 -1.9716 0
M  V30 5917 H 553.607 -6.74519 -1.73197 0
M  V30 5918 H 551.234 -7.43761 -1.57237 0
M  V30 5919 N 552.809 0.956637 -1.25245 0
M  V30 5920 C 553.757 2.0743 -1.0524 0
M  V30 5921 C 554.751 1.69392 0.0160725 0
M  V30 5922 O 555.957 1.7946 -0.139382 0
M  V30 5923 H 552.332 0.678921 -0.323373 0
M  V30 5924 H 554.303 2.2146 -1.99995 0
M  V30 5925 C 553.052 3.40872 -0.685702 0
M  V30 5926 H 552.375 3.70607 -1.49968 0
M  V30 5927 H 553.815 4.19939 -0.585415 0
M  V30 5928 C 552.274 3.31367 0.608082 0
M  V30 5929 O 552.804 3.66214 1.65076 0
M  V30 5930 N 551.01 2.84486 0.592955 0
M  V30 5931 H 550.557 2.56326 -0.25592 0
M  V30 5932 H 550.515 2.78509 1.45877 0
M  V30 5933 N 554.287 1.06798 1.15896 0
M  V30 5934 C 555.534 0.787767 1.86549 0
M  V30 5935 C 555.862 -0.685959 1.82002 0
M  V30 5936 O 555.117 -1.5188 1.23414 0
M  V30 5937 C 555.416 1.23414 3.35416 0
M  V30 5938 C 555.082 2.71285 3.6016 0
M  V30 5939 C 553.744 3.11676 3.66622 0
M  V30 5940 C 556.096 3.6676 3.7032 0
M  V30 5941 C 553.424 4.4637 3.8075 0
M  V30 5942 C 555.776 5.01209 3.8597 0
M  V30 5943 C 554.44 5.41229 3.90676 0
M  V30 5944 H 553.71 0.288264 0.682631 0
M  V30 5945 H 556.357 1.338 1.37003 0
M  V30 5946 H 554.662 0.60319 3.87129 0
M  V30 5947 H 556.359 0.994298 3.88477 0
M  V30 5948 H 552.949 2.39015 3.55767 0
M  V30 5949 H 557.133 3.36685 3.64633 0
M  V30 5950 H 552.389 4.76855 3.82648 0
M  V30 5951 H 556.563 5.75067 3.92773 0
M  V30 5952 H 554.19 6.45602 4.01375 0
M  V30 5953 N 555.766 -1.3263 0.851289 0
M  V30 5954 C 556.716 -2.26451 0.265302 0
M  V30 5955 C 557.7 -1.49814 -0.586899 0
M  V30 5956 O 558.892 -1.71525 -0.436834 0
M  V30 5957 C 556.021 -3.38895 -0.548212 0
M  V30 5958 C 555.107 -4.2292 0.316189 0
M  V30 5959 N 555.498 -4.86014 1.40084 0
M  V30 5960 C 553.796 -4.45876 0.105356 0
M  V30 5961 C 554.497 -5.48667 1.93235 0
M  V30 5962 N 553.473 -5.29455 1.232 0
M  V30 5963 H 557.275 -2.72757 1.09457 0
M  V30 5964 H 554.789 -1.4668 0.697047 0
M  V30 5965 H 556.786 -4.05111 -0.984402 0
M  V30 5966 H 555.446 -2.94135 -1.37531 0
M  V30 5967 H 556.457 -4.86212 1.78377 0
M  V30 5968 H 553.134 -4.11804 -0.687299 0
M  V30 5969 H 554.524 -6.08865 2.84135 0
M  V30 5970 N 557.244 -0.608902 -1.45362 0
M  V30 5971 C 558.492 -0.104401 -2.0183 0
M  V30 5972 C 558.813 1.27007 -1.47967 0
M  V30 5973 O 558.083 1.83924 -0.674455 0
M  V30 5974 H 556.663 -0.0356042 -0.746151 0
M  V30 5975 H 559.325 -0.790596 -1.78145 0
M  V30 5976 H 558.421 -0.0551793 -3.12051 0
M  V30 5977 N 558.722 1.53707 -0.348139 0
M  V30 5978 C 559.672 2.2193 0.522592 0
M  V30 5979 C 560.656 1.20831 1.06248 0
M  V30 5980 O 561.848 1.46357 0.995415 0
M  V30 5981 C 558.977 2.99904 1.6707 0
M  V30 5982 C 558.063 4.08364 1.14454 0
M  V30 5983 N 558.454 5.04656 0.339958 0
M  V30 5984 C 556.752 4.22757 1.421 0
M  V30 5985 C 557.453 5.81675 0.0538806 0
M  V30 5986 N 556.429 5.39739 0.646776 0
M  V30 5987 H 560.231 2.93733 -0.099135 0
M  V30 5988 H 557.745 1.61656 -0.15524 0
M  V30 5989 H 559.742 3.47284 2.30651 0
M  V30 5990 H 558.402 2.29629 2.29566 0
M  V30 5991 H 559.413 5.17896 -0.0193552 0
M  V30 5992 H 556.09 3.63704 2.05002 0
M  V30 5993 H 557.48 6.69256 -0.595443 0
M  V30 5994 N 560.2 0.0768682 1.57412 0
M  V30 5995 C 561.133 -0.924685 2.08626 0
M  V30 5996 C 562.111 -1.28792 0.992542 0
M  V30 5997 O 563.295 -1.39634 1.26628 0
M  V30 5998 C 560.422 -2.23131 2.54814 0
M  V30 5999 C 559.468 -2.01928 3.75669 0
M  V30 6000 S 560.301 -1.27397 5.20125 0
M  V30 6001 C 561.457 -2.59329 5.69648 0
M  V30 6002 H 561.69 -0.488928 2.93252 0
M  V30 6003 H 559.223 -0.136014 1.538 0
M  V30 6004 H 561.181 -2.98226 2.82084 0
M  V30 6005 H 559.842 -2.63831 1.70447 0
M  V30 6006 H 559.035 -2.98639 4.05993 0
M  V30 6007 H 558.637 -1.34967 3.48798 0
M  V30 6008 H 560.929 -3.55394 5.76803 0
M  V30 6009 H 561.872 -2.33608 6.68456 0
M  V30 6010 H 562.28 -2.66767 4.9749 0
M  V30 6011 N 561.678 -1.56367 -0.196722 0
M  V30 6012 C 562.918 -1.82315 -0.92415 0
M  V30 6013 C 563.282 -0.654117 -1.80514 0
M  V30 6014 O 564.483 -0.79345 -2.56823 0
M  V30 6015 C 562.754 -3.13279 -1.72021 0
M  V30 6016 S 564.313 -3.60627 -2.49988 0
M  V30 6017 H 561.131 -0.639862 -0.309997 0
M  V30 6018 H 563.733 -1.94597 -0.187684 0
M  V30 6019 H 562.437 -3.96379 -1.06358 0
M  V30 6020 H 561.968 -3.03871 -2.49852 0
M  V30 6021 H 563.983 -3.25934 -3.74141 0
M  V30 6022 N 563.156 0.464375 -1.50603 0
M  V30 6023 C 564.405 1.21277 -1.61167 0
M  V30 6024 C 564.718 1.92953 -0.320704 0
M  V30 6025 O 565.924 2.69778 -0.30534 0
M  V30 6026 C 564.38 2.20403 -2.84518 0
M  V30 6027 C 563.988 1.54499 -4.20516 0
M  V30 6028 C 565.732 2.95843 -3.0443 0
M  V30 6029 C 563.639 2.51951 -5.35047 0
M  V30 6030 H 562.569 0.456367 -0.600204 0
M  V30 6031 H 565.22 0.48254 -1.77042 0
M  V30 6032 H 563.602 2.96746 -2.62217 0
M  V30 6033 H 564.776 0.83899 -4.53098 0
M  V30 6034 H 563.091 0.913152 -4.06264 0
M  V30 6035 H 565.688 3.6879 -3.87167 0
M  V30 6036 H 566.031 3.55622 -2.16423 0
M  V30 6037 H 566.564 2.26611 -3.26944 0
M  V30 6038 H 563.303 1.96901 -6.25228 0
M  V30 6039 H 562.823 3.20683 -5.06875 0
M  V30 6040 H 564.502 3.13643 -5.65895 0
M  V30 6041 N 564.634 1.40294 0.718013 0
M  V30 6042 C 565.597 1.4012 1.81381 0
M  V30 6043 C 566.597 0.295405 1.58063 0
M  V30 6044 O 567.787 0.554187 1.6515 0
M  V30 6045 C 564.919 1.19056 3.19435 0
M  V30 6046 H 566.112 2.37645 1.82933 0
M  V30 6047 H 563.665 1.26107 0.923405 0
M  V30 6048 H 564.4 0.222809 3.23534 0
M  V30 6049 H 564.185 1.99152 3.37758 0
M  V30 6050 H 565.675 1.21716 3.99468 0
M  V30 6051 N 566.112 -0.949982 1.2575 0
M  V30 6052 C 567.359 -1.69515 1.10774 0
M  V30 6053 C 567.687 -1.91316 -0.350479 0
M  V30 6054 O 566.942 -1.48515 -1.27443 0
M  V30 6055 C 567.241 -3.08039 1.81237 0
M  V30 6056 C 566.907 -3.06023 3.31151 0
M  V30 6057 C 565.569 -3.0518 3.72047 0
M  V30 6058 C 567.921 -2.98998 4.26907 0
M  V30 6059 C 565.249 -2.95067 5.07102 0
M  V30 6060 C 567.601 -2.90426 5.61992 0
M  V30 6061 C 566.265 -2.87922 6.0221 0
M  V30 6062 H 565.535 -0.6203 0.405351 0
M  V30 6063 H 568.182 -1.10953 1.56082 0
M  V30 6064 H 566.487 -3.70172 1.28373 0
M  V30 6065 H 568.184 -3.64526 1.67098 0
M  V30 6066 H 564.774 -3.07453 2.98614 0
M  V30 6067 H 568.958 -2.98764 3.963 0
M  V30 6068 H 564.214 -2.915 5.37436 0
M  V30 6069 H 568.388 -2.83952 6.35881 0
M  V30 6070 H 566.015 -2.79841 7.06819 0
M  V30 6071 N 567.59 -1.07411 -1.15328 0
M  V30 6072 C 568.5 -0.706438 -2.23711 0
M  V30 6073 C 569.516 0.282586 -1.7169 0
M  V30 6074 O 570.692 0.129066 -2.00986 0
M  V30 6075 C 567.757 -0.11048 -3.46524 0
M  V30 6076 C 566.818 -1.15282 -4.13532 0
M  V30 6077 C 566.051 -0.585205 -5.30482 0
M  V30 6078 O 566.274 0.598549 -5.67251 0
M  V30 6079 O 565.208 -1.33039 -5.87013 0
M  V30 6080 H 569.034 -1.61031 -2.57493 0
M  V30 6081 H 566.619 -0.847113 -1.23062 0
M  V30 6082 H 568.501 0.21957 -4.20828 0
M  V30 6083 H 567.176 0.766703 -3.14489 0
M  V30 6084 H 566.083 -1.53523 -3.41147 0
M  V30 6085 H 567.416 -2.00192 -4.49649 0
M  V30 6086 N 569.068 1.32177 -0.85831 0
M  V30 6087 C 569.998 2.31282 -0.321041 0
M  V30 6088 C 570.979 1.59841 0.581786 0
M  V30 6089 O 572.164 1.87619 0.501262 0
M  V30 6090 C 569.294 3.4385 0.48832 0
M  V30 6091 C 568.248 4.26799 -0.320391 0
M  V30 6092 C 567.574 5.31164 0.613934 0
M  V30 6093 C 568.874 4.98829 -1.54813 0
M  V30 6094 H 570.568 2.76469 -1.14915 0
M  V30 6095 H 568.114 1.32916 -0.554028 0
M  V30 6096 H 570.067 4.12224 0.874626 0
M  V30 6097 H 568.791 2.97401 1.34983 0
M  V30 6098 H 567.45 3.60077 -0.688497 0
M  V30 6099 H 567.098 4.80967 1.47239 0
M  V30 6100 H 566.798 5.8755 0.0768097 0
M  V30 6101 H 568.322 6.024 0.997336 0
M  V30 6102 H 569.736 5.59864 -1.23392 0
M  V30 6103 H 568.133 5.64957 -2.02346 0
M  V30 6104 H 569.203 4.26483 -2.30739 0
M  V30 6105 N 570.547 0.616602 1.45037 0
M  V30 6106 C 571.477 -0.0840787 2.33349 0
M  V30 6107 C 572.458 -0.849641 1.4736 0
M  V30 6108 O 573.643 -0.818407 1.76113 0
M  V30 6109 C 570.773 -1.07604 3.3021 0
M  V30 6110 C 569.727 -0.423096 4.25904 0
M  V30 6111 C 569.053 -1.52394 5.12523 0
M  V30 6112 C 570.353 0.661457 5.18095 0
M  V30 6113 H 572.047 0.653333 2.92185 0
M  V30 6114 H 569.593 0.315634 1.40498 0
M  V30 6115 H 571.546 -1.57485 3.90866 0
M  V30 6116 H 570.27 -1.84416 2.69552 0
M  V30 6117 H 568.929 0.05493 3.66559 0
M  V30 6118 H 568.577 -2.28257 4.48227 0
M  V30 6119 H 568.277 -1.09251 5.77354 0
M  V30 6120 H 569.801 -2.02485 5.76049 0
M  V30 6121 H 571.215 0.246353 5.7277 0
M  V30 6122 H 569.612 1.01517 5.91451 0
M  V30 6123 H 570.682 1.53446 4.59981 0
M  V30 6124 N 572.025 -1.5352 0.356285 0
M  V30 6125 C 573.273 -2.00719 -0.235837 0
M  V30 6126 C 573.594 -1.24551 -1.5004 0
M  V30 6127 O 572.864 -0.356185 -1.92635 0
M  V30 6128 H 571.444 -0.741542 -0.0901366 0
M  V30 6129 H 574.106 -1.88887 0.480378 0
M  V30 6130 H 573.202 -3.08551 -0.469357 0
M  V30 6131 N 573.503 -0.0852151 -1.57369 0
M  V30 6132 C 574.45 0.877268 -2.13478 0
M  V30 6133 C 575.42 1.28642 -1.05073 0
M  V30 6134 O 576.605 1.36992 -1.32808 0
M  V30 6135 C 573.745 2.13464 -2.71159 0
M  V30 6136 C 572.858 1.77691 -3.93764 0
M  V30 6137 C 571.993 2.98139 -4.39643 0
M  V30 6138 C 571.032 2.58447 -5.54862 0
M  V30 6139 N 570.169 3.71698 -5.95639 0
M  V30 6140 H 575.009 0.391933 -2.95411 0
M  V30 6141 H 572.546 0.181796 -1.45972 0
M  V30 6142 H 574.504 2.87086 -3.02717 0
M  V30 6143 H 573.134 2.59514 -1.91969 0
M  V30 6144 H 572.186 0.940768 -3.68583 0
M  V30 6145 H 573.498 1.44497 -4.77412 0
M  V30 6146 H 572.652 3.80026 -4.72933 0
M  V30 6147 H 571.391 3.34536 -3.54876 0
M  V30 6148 H 570.396 1.74984 -5.21211 0
M  V30 6149 H 571.621 2.23205 -6.41371 0
M  V30 6150 H 569.567 4.07831 -5.13819 0
M  V30 6151 H 569.484 3.42317 -6.74059 0
M  V30 6152 H 570.752 4.54123 -6.33555 0
M  V30 6153 N 574.981 1.5647 0.188427 0
M  V30 6154 C 575.929 1.95971 1.25293 0
M  V30 6155 C 576.923 0.846047 1.4676 0
M  V30 6156 O 578.129 1.03109 1.47542 0
M  V30 6157 H 574.504 0.623253 0.420784 0
M  V30 6158 H 576.475 2.84731 0.892792 0
M  V30 6159 C 575.224 2.32116 2.58877 0
M  V30 6160 H 574.547 3.17341 2.43176 0
M  V30 6161 H 575.987 2.63613 3.3209 0
M  V30 6162 C 574.446 1.15823 3.16365 0
M  V30 6163 O 574.976 0.436785 3.99318 0
M  V30 6164 N 573.182 0.933278 2.75206 0
M  V30 6165 H 572.729 1.52169 2.07852 0
M  V30 6166 H 572.687 0.156976 3.14008 0
M  V30 6167 N 576.459 -0.456382 1.50847 0
M  V30 6168 C 577.687 -1.23026 1.66349 0
M  V30 6169 C 578.102 -1.85473 0.352868 0
M  V30 6170 O 577.459 -1.69885 -0.666739 0
M  V30 6171 C 577.51 -2.32827 2.76539 0
M  V30 6172 O 577.231 -1.72938 4.02522 0
M  V30 6173 C 578.732 -3.23448 3.03144 0
M  V30 6174 H 575.952 -0.371527 0.558756 0
M  V30 6175 H 578.496 -0.543082 1.97157 0
M  V30 6176 H 576.651 -2.97294 2.48384 0
M  V30 6177 H 577.065 -2.45357 4.63573 0
M  V30 6178 H 578.539 -3.96669 3.83872 0
M  V30 6179 H 579.016 -3.83094 2.14793 0
M  V30 6180 H 579.622 -2.64702 3.32886 0
M  V30 6181 N 577.937 -1.40673 -0.710563 0
M  V30 6182 C 579.184 -1.39222 -1.47049 0
M  V30 6183 C 579.512 0.0037691 -1.945 0
M  V30 6184 O 578.767 0.989224 -1.68857 0
M  V30 6185 C 579.066 -2.33253 -2.70791 0
M  V30 6186 C 578.732 -3.80406 -2.42079 0
M  V30 6187 C 577.394 -4.20496 -2.33959 0
M  V30 6188 C 579.746 -4.73375 -2.18094 0
M  V30 6189 C 577.074 -5.51584 -1.99929 0
M  V30 6190 C 579.426 -6.04768 -1.85576 0
M  V30 6191 C 578.09 -6.43895 -1.75941 0
M  V30 6192 H 577.36 -0.509449 -0.538092 0
M  V30 6193 H 580.007 -1.73363 -0.81348 0
M  V30 6194 H 578.312 -1.92314 -3.41354 0
M  V30 6195 H 580.009 -2.29412 -3.28894 0
M  V30 6196 H 576.599 -3.48645 -2.49288 0
M  V30 6197 H 580.783 -4.43217 -2.23321 0
M  V30 6198 H 576.039 -5.80797 -1.91011 0
M  V30 6199 H 580.213 -6.76318 -1.66033 0
M  V30 6200 H 577.84 -7.45387 -1.4934 0
M  V30 6201 N 579.415 0.9433 -1.26252 0
M  V30 6202 C 580.325 2.07532 -1.09397 0
M  V30 6203 C 581.341 1.73977 -0.0280449 0
M  V30 6204 O 582.517 2.00067 -0.231337 0
M  V30 6205 C 579.582 3.39002 -0.726523 0
M  V30 6206 C 578.643 3.86353 -1.87163 0
M  V30 6207 C 577.876 5.11549 -1.52162 0
M  V30 6208 O 578.099 5.68834 -0.422385 0
M  V30 6209 O 577.033 5.53889 -2.35565 0
M  V30 6210 H 580.859 2.24658 -2.04359 0
M  V30 6211 H 578.444 1.05988 -1.05295 0
M  V30 6212 H 580.326 4.18 -0.534236 0
M  V30 6213 H 579.001 3.2312 0.193721 0
M  V30 6214 H 577.908 3.0831 -2.11886 0
M  V30 6215 H 579.241 4.06752 -2.77152 0
M  V30 6216 N 580.893 1.08022 1.14757 0
M  V30 6217 C 582.14 0.807509 1.85703 0
M  V30 6218 C 582.468 -0.666617 1.8272 0
M  V30 6219 O 581.723 -1.50562 1.25018 0
M  V30 6220 C 582.022 1.26964 3.34088 0
M  V30 6221 C 581.688 2.7509 3.57262 0
M  V30 6222 C 580.35 3.15547 3.63296 0
M  V30 6223 C 582.702 3.70667 3.66409 0
M  V30 6224 C 580.03 4.50384 3.75994 0
M  V30 6225 C 582.382 5.05274 3.80632 0
M  V30 6226 C 581.046 5.45342 3.84913 0
M  V30 6227 H 580.316 0.295488 0.679535 0
M  V30 6228 H 582.963 1.35245 1.35577 0
M  V30 6229 H 581.268 0.644216 3.86467 0
M  V30 6230 H 582.965 1.03544 3.87401 0
M  V30 6231 H 579.555 2.42775 3.53212 0
M  V30 6232 H 583.739 3.40533 3.61041 0
M  V30 6233 H 578.995 4.80886 3.77569 0
M  V30 6234 H 583.169 5.79201 3.86652 0
M  V30 6235 H 580.796 6.49823 3.94505 0
M  V30 6236 N 582.371 -1.3172 0.865308 0
M  V30 6237 C 583.301 -2.31109 0.333302 0
M  V30 6238 C 584.282 -1.60148 -0.573301 0
M  V30 6239 O 585.467 -1.87882 -0.491305 0
M  V30 6240 C 582.597 -3.44104 -0.470078 0
M  V30 6241 C 581.551 -4.26623 0.343021 0
M  V30 6242 C 580.877 -5.31482 -0.585756 0
M  V30 6243 C 582.177 -4.98001 1.57456 0
M  V30 6244 H 583.871 -2.75855 1.1638 0
M  V30 6245 H 581.417 -1.3262 0.561069 0
M  V30 6246 H 583.37 -4.12682 -0.852752 0
M  V30 6247 H 582.094 -2.98112 -1.33404 0
M  V30 6248 H 580.753 -3.59707 0.707583 0
M  V30 6249 H 580.401 -4.81741 -1.44686 0
M  V30 6250 H 580.101 -5.87582 -0.0456494 0
M  V30 6251 H 581.625 -6.0292 -0.965375 0
M  V30 6252 H 583.039 -5.59201 1.26359 0
M  V30 6253 H 581.436 -5.63876 2.05339 0
M  V30 6254 H 582.506 -4.25253 2.32997 0
M  V30 6255 N 583.85 -0.624285 -1.44708 0
M  V30 6256 C 584.797 0.0847135 -2.30644 0
M  V30 6257 C 585.767 0.843575 -1.43084 0
M  V30 6258 O 586.952 0.825982 -1.71995 0
M  V30 6259 C 584.091 1.06495 -3.28257 0
M  V30 6260 C 583.205 0.305224 -4.3092 0
M  V30 6261 C 582.34 1.27667 -5.1563 0
M  V30 6262 C 581.379 0.505706 -6.10007 0
M  V30 6263 N 580.516 1.42727 -6.8744 0
M  V30 6264 H 585.356 -0.654068 -2.90733 0
M  V30 6265 H 582.893 -0.334334 -1.4325 0
M  V30 6266 H 584.851 1.64658 -3.83332 0
M  V30 6267 H 583.481 1.77094 -2.69884 0
M  V30 6268 H 582.533 -0.392207 -3.78373 0
M  V30 6269 H 583.845 -0.295553 -4.97924 0
M  V30 6270 H 582.999 1.92984 -5.75189 0
M  V30 6271 H 581.738 1.91137 -4.48685 0
M  V30 6272 H 580.743 -0.160999 -5.49564 0
M  V30 6273 H 581.968 -0.124183 -6.78986 0
M  V30 6274 H 579.913 2.04931 -6.23169 0
M  V30 6275 H 579.831 0.880345 -7.50857 0
M  V30 6276 H 581.099 2.0695 -7.51526 0
M  V30 6277 N 585.328 1.53329 -0.364422 0
M  V30 6278 C 586.238 2.29414 0.490552 0
M  V30 6279 C 587.254 1.35335 1.09363 0
M  V30 6280 O 588.43 1.68391 1.10483 0
M  V30 6281 C 585.495 3.06772 1.61529 0
M  V30 6282 C 584.556 4.16516 1.03986 0
M  V30 6283 C 583.789 4.90176 2.111 0
M  V30 6284 O 584.012 4.63687 3.32191 0
M  V30 6285 O 582.946 5.76134 1.74222 0
M  V30 6286 H 586.772 3.03428 -0.12856 0
M  V30 6287 H 584.357 1.48843 -0.128837 0
M  V30 6288 H 586.239 3.55082 2.26924 0
M  V30 6289 H 584.914 2.35596 2.21983 0
M  V30 6290 H 583.821 3.7246 0.349856 0
M  V30 6291 H 585.154 4.89855 0.4799 0
M  V30 6292 N 586.806 0.0935595 1.57322 0
M  V30 6293 C 587.754 -0.883457 2.15169 0
M  V30 6294 C 588.748 -1.29324 1.09415 0
M  V30 6295 O 589.954 -1.26795 1.27762 0
M  V30 6296 H 586.329 -0.302923 0.688289 0
M  V30 6297 H 588.3 -0.370845 2.96087 0
M  V30 6298 C 587.049 -2.13345 2.74552 0
M  V30 6299 H 586.372 -1.82702 3.55612 0
M  V30 6300 H 587.812 -2.7977 3.18598 0
M  V30 6301 C 586.271 -2.90646 1.70371 0
M  V30 6302 O 586.801 -3.85133 1.14173 0
M  V30 6303 N 585.007 -2.54157 1.40899 0
M  V30 6304 H 584.554 -1.77391 1.86789 0
M  V30 6305 H 584.512 -3.06178 0.714301 0
M  V30 6306 N 588.284 -1.56567 -0.180126 0
M  V30 6307 C 589.232 -1.96632 -1.24251 0
M  V30 6308 C 590.226 -0.853818 -1.46309 0
M  V30 6309 O 591.432 -1.0389 -1.46993 0
M  V30 6310 H 587.807 -0.625476 -0.417473 0
M  V30 6311 H 589.778 -2.85201 -0.877679 0
M  V30 6312 C 588.527 -2.33486 -2.57642 0
M  V30 6313 H 587.85 -3.18626 -2.4149 0
M  V30 6314 H 589.29 -2.65371 -3.30688 0
M  V30 6315 C 587.749 -1.17499 -3.15746 0
M  V30 6316 O 588.279 -0.457956 -3.99081 0
M  V30 6317 N 586.485 -0.94786 -2.74707 0
M  V30 6318 H 586.032 -1.53269 -2.07042 0
M  V30 6319 H 585.99 -0.173626 -3.1392 0
M  V30 6320 N 589.762 0.448376 -1.51087 0
M  V30 6321 C 591.009 1.19872 -1.63209 0
M  V30 6322 C 591.337 1.91451 -0.343062 0
M  V30 6323 O 590.592 1.83789 0.672321 0
M  V30 6324 C 590.891 2.24866 -2.77795 0
M  V30 6325 C 590.557 1.70378 -4.17471 0
M  V30 6326 C 589.219 1.55241 -4.55471 0
M  V30 6327 C 591.571 1.30203 -5.04675 0
M  V30 6328 C 588.899 0.983844 -5.78392 0
M  V30 6329 C 591.251 0.747798 -6.28165 0
M  V30 6330 C 589.915 0.583233 -6.64947 0
M  V30 6331 H 589.185 0.438642 -0.597222 0
M  V30 6332 H 591.832 0.49136 -1.85089 0
M  V30 6333 H 590.137 3.01598 -2.50092 0
M  V30 6334 H 591.834 2.82723 -2.84374 0
M  V30 6335 H 588.424 1.83134 -3.87505 0
M  V30 6336 H 592.608 1.40723 -4.75932 0
M  V30 6337 H 587.864 0.844007 -6.05546 0
M  V30 6338 H 592.038 0.427927 -6.95084 0
M  V30 6339 H 589.665 0.140532 -7.6007 0
M  V30 6340 N 591.24 1.41047 0.703093 0
M  V30 6341 C 592.172 1.38228 1.82827 0
M  V30 6342 C 593.185 0.285637 1.60275 0
M  V30 6343 O 594.374 0.54685 1.69917 0
M  V30 6344 C 591.474 1.13136 3.19458 0
M  V30 6345 C 590.647 2.34695 3.69103 0
M  V30 6346 C 589.706 2.05574 4.84382 0
M  V30 6347 O 588.732 2.78549 4.96386 0
M  V30 6348 N 589.934 1.04135 5.71083 0
M  V30 6349 H 592.699 2.35203 1.85741 0
M  V30 6350 H 590.26 1.35562 0.885125 0
M  V30 6351 H 592.252 0.916183 3.94193 0
M  V30 6352 H 590.822 0.247836 3.11616 0
M  V30 6353 H 590.042 2.71963 2.85359 0
M  V30 6354 H 591.33 3.15705 3.99009 0
M  V30 6355 H 590.728 0.43722 5.64008 0
M  V30 6356 H 589.285 0.886078 6.45749 0
M  V30 6357 N 592.718 -0.936591 1.26751 0
M  V30 6358 C 594.129 -1.49816 1.1141 0
M  V30 6359 C 594.48 -1.9383 -0.304015 0
M  V30 6360 O 593.605 -1.80346 -1.196 0
M  V30 6361 C 594.2 -2.72271 2.01629 0
M  V30 6362 C 592.759 -3.2468 1.9042 0
M  V30 6363 C 591.906 -1.97444 1.94708 0
M  V30 6364 H 594.857 -0.751604 1.39773 0
M  V30 6365 H 594.878 -3.46741 1.56688 0
M  V30 6366 H 594.39 -2.40205 3.04833 0
M  V30 6367 H 592.491 -3.61525 0.901674 0
M  V30 6368 H 592.604 -3.91476 2.76195 0
M  V30 6369 H 590.968 -2.13545 1.38818 0
M  V30 6370 H 591.751 -1.67703 2.9955 0
M  V30 6371 N 594.196 -1.08629 -1.14182 0
M  V30 6372 C 595.426 -0.837673 -1.88856 0
M  V30 6373 C 595.834 0.614024 -1.78959 0
M  V30 6374 O 595.177 1.43384 -1.14833 0
M  V30 6375 C 595.239 -1.18355 -3.39459 0
M  V30 6376 C 594.903 -2.63848 -3.73139 0
M  V30 6377 C 595.9 -3.62099 -3.73069 0
M  V30 6378 C 593.585 -2.99761 -4.03049 0
M  V30 6379 C 595.579 -4.94292 -4.02435 0
M  V30 6380 C 593.266 -4.32147 -4.32078 0
M  V30 6381 C 594.264 -5.29223 -4.31755 0
M  V30 6382 O 593.952 -6.59229 -4.60079 0
M  V30 6383 H 593.684 -0.301609 -0.604986 0
M  V30 6384 H 596.238 -1.44961 -1.45518 0
M  V30 6385 H 594.468 -0.514628 -3.8326 0
M  V30 6386 H 596.157 -0.915391 -3.95443 0
M  V30 6387 H 596.923 -3.35698 -3.50046 0
M  V30 6388 H 592.802 -2.2484 -4.02453 0
M  V30 6389 H 596.346 -5.70055 -4.02098 0
M  V30 6390 H 592.243 -4.58296 -4.54571 0
M  V30 6391 H 593.011 -6.64578 -4.77785 0
M  V30 6392 N 595.674 1.31259 -0.872281 0
M  V30 6393 C 597.085 1.78822 -0.536617 0
M  V30 6394 C 597.436 1.71855 0.946594 0
M  V30 6395 O 596.561 1.28769 1.73918 0
M  V30 6396 C 597.156 3.24698 -0.967294 0
M  V30 6397 C 595.715 3.70147 -0.683251 0
M  V30 6398 C 594.862 2.51994 -1.15733 0
M  V30 6399 H 597.813 1.18308 -1.05777 0
M  V30 6400 H 597.834 3.79386 -0.290929 0
M  V30 6401 H 597.346 3.29737 -2.04683 0
M  V30 6402 H 595.447 3.70607 0.384825 0
M  V30 6403 H 595.56 4.62183 -1.2619 0
M  V30 6404 H 593.924 2.48078 -0.577024 0
M  V30 6405 H 594.707 2.59778 -2.24434 0
M  V30 6406 N 597.152 0.631951 1.44375 0
M  V30 6407 C 598.082 -0.0593243 2.33425 0
M  V30 6408 C 599.063 -0.833964 1.48253 0
M  V30 6409 O 600.248 -0.799682 1.76971 0
M  V30 6410 C 597.378 -1.04096 3.31333 0
M  V30 6411 C 596.332 -0.377899 4.26328 0
M  V30 6412 C 595.658 -1.4695 5.14111 0
M  V30 6413 C 596.958 0.716371 5.17364 0
M  V30 6414 H 598.652 0.684287 2.91475 0
M  V30 6415 H 596.198 0.330518 1.40156 0
M  V30 6416 H 598.151 -1.53331 3.92514 0
M  V30 6417 H 596.875 -1.81547 2.71493 0
M  V30 6418 H 595.534 0.0938054 3.6648 0
M  V30 6419 H 595.182 -2.2349 4.50623 0
M  V30 6420 H 594.882 -1.03121 5.78481 0
M  V30 6421 H 596.406 -1.96363 5.78164 0
M  V30 6422 H 597.82 0.307089 5.72477 0
M  V30 6423 H 596.217 1.07784 5.90341 0
M  V30 6424 H 597.287 1.58316 4.58327 0
M  V30 6425 N 598.631 -1.53133 0.372548 0
M  V30 6426 C 600.042 -1.86404 -0.105155 0
M  V30 6427 C 600.393 -1.29289 -1.47576 0
M  V30 6428 O 599.518 -0.617646 -2.07398 0
M  V30 6429 C 600.113 -3.38223 -0.197588 0
M  V30 6430 C 598.672 -3.71266 -0.619556 0
M  V30 6431 C 597.819 -2.76353 0.228919 0
M  V30 6432 H 600.77 -1.47282 0.591077 0
M  V30 6433 H 600.791 -3.66577 -1.01987 0
M  V30 6434 H 600.303 -3.79763 0.800099 0
M  V30 6435 H 598.404 -3.35287 -1.62522 0
M  V30 6436 H 598.517 -4.77515 -0.389332 0
M  V30 6437 H 596.881 -2.52888 -0.303271 0
M  V30 6438 H 597.664 -3.20728 1.22428 0
M  V30 6439 N 600.109 -0.101901 -1.5727 0
M  V30 6440 C 601.059 0.865346 -2.1094 0
M  V30 6441 C 602.043 1.2394 -1.02605 0
M  V30 6442 O 603.235 1.21334 -1.28868 0
M  V30 6443 C 600.364 2.12187 -2.69874 0
M  V30 6444 C 599.45 1.77295 -3.85263 0
M  V30 6445 N 599.841 1.12993 -4.93017 0
M  V30 6446 C 598.139 2.06862 -3.95126 0
M  V30 6447 C 598.84 0.968631 -5.73579 0
M  V30 6448 N 597.816 1.48814 -5.22834 0
M  V30 6449 H 601.618 0.364368 -2.91633 0
M  V30 6450 H 599.132 0.101104 -1.62085 0
M  V30 6451 H 601.129 2.82431 -3.06657 0
M  V30 6452 H 599.789 2.62844 -1.90639 0
M  V30 6453 H 600.8 0.795935 -5.11747 0
M  V30 6454 H 597.477 2.59686 -3.26909 0
M  V30 6455 H 598.867 0.465231 -6.70287 0
M  V30 6456 N 601.587 1.56661 0.17182 0
M  V30 6457 C 602.833 1.82235 0.889845 0
M  V30 6458 C 603.166 0.679673 1.81918 0
M  V30 6459 O 602.441 -0.318404 1.91876 0
M  V30 6460 C 602.724 3.18195 1.68595 0
M  V30 6461 C 602.577 4.42989 0.779773 0
M  V30 6462 C 603.896 3.5109 2.65375 0
M  V30 6463 H 601.015 0.66291 0.322056 0
M  V30 6464 H 603.657 1.89358 0.15608 0
M  V30 6465 H 601.807 3.12253 2.3115 0
M  V30 6466 H 603.479 4.60997 0.16714 0
M  V30 6467 H 601.722 4.33711 0.0877964 0
M  V30 6468 H 602.393 5.3467 1.3723 0
M  V30 6469 H 604.869 3.57482 2.12946 0
M  V30 6470 H 603.745 4.47298 3.18144 0
M  V30 6471 H 604.006 2.75768 3.45549 0
M  V30 6472 N 603.065 -0.440357 1.51323 0
M  V30 6473 C 604.481 -0.7766 1.39431 0
M  V30 6474 C 604.681 -1.95838 0.474296 0
M  V30 6475 O 603.737 -2.52398 -0.0716692 0
M  V30 6476 C 605.05 -1.05981 2.81405 0
M  V30 6477 C 606.598 -1.16442 2.90534 0
M  V30 6478 C 607.073 -1.48058 4.33408 0
M  V30 6479 N 608.564 -1.54988 4.36501 0
M  V30 6480 C 609.299 -1.81017 5.44078 0
M  V30 6481 N 608.795 -2.04858 6.61819 0
M  V30 6482 N 610.588 -1.82774 5.31554 0
M  V30 6483 H 602.739 0.338006 2.09693 0
M  V30 6484 H 605.002 0.0888072 0.943831 0
M  V30 6485 H 604.708 -0.264173 3.50706 0
M  V30 6486 H 604.582 -1.98822 3.20546 0
M  V30 6487 H 606.969 -1.95068 2.21432 0
M  V30 6488 H 607.05 -0.215088 2.54894 0
M  V30 6489 H 606.694 -0.699605 5.03059 0
M  V30 6490 H 606.624 -2.44192 4.66559 0
M  V30 6491 H 609.115 -1.38479 3.51613 0
M  V30 6492 H 609.428 -2.2408 7.396 0
M  V30 6493 H 607.773 -2.02187 6.6494 0
M  V30 6494 H 610.964 -1.63665 4.38556 0
M  V30 6495 H 611.137 -2.02722 6.15474 0
M  V30 6496 N 604.543 -1.41418 -0.695603 0
M  V30 6497 C 605.493 -1.39731 -1.80165 0
M  V30 6498 C 606.477 -0.271689 -1.5859 0
M  V30 6499 O 607.669 -0.512354 -1.69422 0
M  V30 6500 C 604.798 -1.28187 -3.1847 0
M  V30 6501 C 603.884 -2.45612 -3.45739 0
M  V30 6502 N 604.275 -3.71077 -3.43708 0
M  V30 6503 C 602.573 -2.39424 -3.76288 0
M  V30 6504 C 603.274 -4.48957 -3.69882 0
M  V30 6505 N 602.25 -3.7907 -3.89624 0
M  V30 6506 H 606.052 -2.34656 -1.76957 0
M  V30 6507 H 603.566 -1.35473 -0.89559 0
M  V30 6508 H 605.563 -1.2506 -3.977 0
M  V30 6509 H 604.223 -0.342468 -3.22889 0
M  V30 6510 H 605.234 -4.03963 -3.2409 0
M  V30 6511 H 601.911 -1.53955 -3.88077 0
M  V30 6512 H 603.301 -5.57887 -3.74448 0
M  V30 6513 N 606.021 0.929856 -1.27246 0
M  V30 6514 C 606.954 2.03069 -1.04106 0
M  V30 6515 C 607.932 1.62556 0.0378417 0
M  V30 6516 O 609.116 1.88197 -0.106869 0
M  V30 6517 C 606.243 3.33718 -0.578778 0
M  V30 6518 C 605.289 3.93209 -1.65193 0
M  V30 6519 S 606.122 4.26068 -3.24386 0
M  V30 6520 C 607.278 5.598 -2.79954 0
M  V30 6521 H 607.511 2.22386 -1.97311 0
M  V30 6522 H 605.044 1.07269 -1.11053 0
M  V30 6523 H 607.002 4.09261 -0.31874 0
M  V30 6524 H 605.663 3.12328 0.333182 0
M  V30 6525 H 604.856 4.87482 -1.27973 0
M  V30 6526 H 604.458 3.24243 -1.86393 0
M  V30 6527 H 606.75 6.39004 -2.25123 0
M  V30 6528 H 607.693 6.01917 -3.72963 0
M  V30 6529 H 608.101 5.20219 -2.19164 0
M  V30 6530 N 607.499 1.09233 1.13605 0
M  V30 6531 C 608.462 0.733553 2.17144 0
M  V30 6532 C 609.462 -0.235873 1.59061 0
M  V30 6533 O 610.652 -0.0143167 1.74194 0
M  V30 6534 C 607.784 0.084471 3.40795 0
M  V30 6535 H 608.977 1.65049 2.50397 0
M  V30 6536 H 606.53 0.891264 1.28399 0
M  V30 6537 H 607.265 -0.843795 3.1313 0
M  V30 6538 H 607.05 0.781985 3.84223 0
M  V30 6539 H 608.54 -0.151216 4.17326 0
M  V30 6540 N 608.977 -1.30795 0.87923 0
M  V30 6541 C 610.207 -2.00237 0.50881 0
M  V30 6542 C 610.615 -1.66115 -0.905682 0
M  V30 6543 O 609.958 -0.89138 -1.60624 0
M  V30 6544 C 610.02 -3.54508 0.597003 0
M  V30 6545 C 609.684 -4.12131 1.97477 0
M  V30 6546 C 610.681 -4.28552 2.94346 0
M  V30 6547 C 608.366 -4.47644 2.2786 0
M  V30 6548 C 610.36 -4.79689 4.19735 0
M  V30 6549 C 608.047 -4.98481 3.53496 0
M  V30 6550 C 609.045 -5.14456 4.49248 0
M  V30 6551 O 608.733 -5.64199 5.72656 0
M  V30 6552 H 608.465 -0.647026 0.195788 0
M  V30 6553 H 611.019 -1.67785 1.1848 0
M  V30 6554 H 609.249 -3.86461 -0.135945 0
M  V30 6555 H 610.938 -4.05198 0.238684 0
M  V30 6556 H 611.704 -4.01424 2.72183 0
M  V30 6557 H 607.583 -4.34481 1.54102 0
M  V30 6558 H 611.127 -4.92073 4.9448 0
M  V30 6559 H 607.024 -5.25044 3.75498 0
M  V30 6560 H 607.792 -5.82551 5.74957 0
M  V30 6561 N 610.455 -0.639598 -1.44038 0
M  V30 6562 C 611.387 0.0987684 -2.28987 0
M  V30 6563 C 612.4 0.80058 -1.41755 0
M  V30 6564 O 613.589 0.660611 -1.65826 0
M  V30 6565 C 610.689 1.16242 -3.18341 0
M  V30 6566 C 609.862 0.541447 -4.34036 0
M  V30 6567 C 608.921 1.50017 -5.04362 0
M  V30 6568 O 607.947 1.01403 -5.60095 0
M  V30 6569 N 609.149 2.83441 -5.06598 0
M  V30 6570 H 611.914 -0.630305 -2.92997 0
M  V30 6571 H 609.475 -0.481376 -1.54578 0
M  V30 6572 H 611.467 1.80429 -3.62253 0
M  V30 6573 H 610.037 1.79362 -2.56024 0
M  V30 6574 H 609.257 -0.27923 -3.9321 0
M  V30 6575 H 610.545 0.107379 -5.08687 0
M  V30 6576 H 609.943 3.2551 -4.62666 0
M  V30 6577 H 608.5 3.42966 -5.54272 0
M  V30 6578 N 611.933 1.52934 -0.380664 0
M  V30 6579 C 612.863 2.29118 0.450268 0
M  V30 6580 C 613.844 1.32153 1.07096 0
M  V30 6581 O 615.029 1.61038 1.08537 0
M  V30 6582 C 612.159 3.09161 1.58231 0
M  V30 6583 C 611.113 4.13938 1.0881 0
M  V30 6584 C 610.439 4.82153 2.31155 0
M  V30 6585 C 611.739 5.22048 0.162146 0
M  V30 6586 H 613.433 2.98826 -0.185361 0
M  V30 6587 H 610.979 1.43715 -0.0905886 0
M  V30 6588 H 612.932 3.61211 2.17036 0
M  V30 6589 H 611.656 2.3717 2.2454 0
M  V30 6590 H 610.315 3.62855 0.522633 0
M  V30 6591 H 609.963 4.06719 2.95953 0
M  V30 6592 H 609.663 5.52966 1.98752 0
M  V30 6593 H 611.187 5.37004 2.90618 0
M  V30 6594 H 612.601 5.6951 0.658126 0
M  V30 6595 H 610.998 6.00057 -0.0717122 0
M  V30 6596 H 612.068 4.78398 -0.791438 0
M  V30 6597 N 613.412 0.11024 1.57214 0
M  V30 6598 C 614.652 -0.553061 1.96775 0
M  V30 6599 C 615.016 -1.64403 0.991753 0
M  V30 6600 O 616.217 -2.36561 1.27642 0
M  V30 6601 C 614.488 -1.08004 3.4069 0
M  V30 6602 S 616.047 -1.75309 4.02259 0
M  V30 6603 H 612.865 -0.18003 0.68783 0
M  V30 6604 H 615.467 0.193242 1.94543 0
M  V30 6605 H 614.171 -0.274735 4.09479 0
M  V30 6606 H 613.702 -1.86182 3.46554 0
M  V30 6607 H 615.717 -3.03834 3.923 0
M  V30 6608 N 614.89 -1.56749 -0.16351 0
M  V30 6609 C 615.84 -1.93424 -1.20712 0
M  V30 6610 C 616.824 -0.803469 -1.39403 0
M  V30 6611 O 618.016 -1.06675 -1.41243 0
M  V30 6612 C 615.145 -2.30431 -2.54473 0
M  V30 6613 C 614.231 -3.5004 -2.39443 0
M  V30 6614 N 614.622 -4.67058 -1.9414 0
M  V30 6615 C 612.92 -3.548 -2.70246 0
M  V30 6616 C 613.621 -5.49184 -1.9176 0
M  V30 6617 N 612.597 -4.9044 -2.34457 0
M  V30 6618 H 616.399 -2.8138 -0.848681 0
M  V30 6619 H 613.913 -1.58089 -0.371717 0
M  V30 6620 H 615.91 -2.54903 -3.29894 0
M  V30 6621 H 614.57 -1.43818 -2.91112 0
M  V30 6622 H 615.581 -4.91128 -1.64357 0
M  V30 6623 H 612.258 -2.78685 -3.10871 0
M  V30 6624 H 613.648 -6.5297 -1.58366 0
M  V30 6625 N 616.368 0.432326 -1.51554 0
M  V30 6626 C 617.331 1.50765 -1.72634 0
M  V30 6627 C 618.331 1.49334 -0.596314 0
M  V30 6628 O 619.521 1.51268 -0.863925 0
M  V30 6629 C 616.653 2.90284 -1.7874 0
M  V30 6630 H 617.846 1.33377 -2.68609 0
M  V30 6631 H 615.399 0.661329 -1.4162 0
M  V30 6632 H 616.134 3.13071 -0.845977 0
M  V30 6633 H 615.919 2.92727 -2.6087 0
M  V30 6634 H 617.409 3.68282 -1.96871 0
M  V30 6635 N 617.846 1.41785 0.688094 0
M  V30 6636 C 618.776 1.47 1.8142 0
M  V30 6637 C 619.757 0.327881 1.6691 0
M  V30 6638 O 620.942 0.540362 1.86531 0
M  V30 6639 C 618.072 1.35876 3.19617 0
M  V30 6640 C 617.026 2.47976 3.48844 0
M  V30 6641 C 616.352 2.21915 4.86475 0
M  V30 6642 C 617.652 3.90309 3.47068 0
M  V30 6643 H 619.346 2.41247 1.77314 0
M  V30 6644 H 616.892 1.16116 0.851651 0
M  V30 6645 H 618.845 1.38134 3.98117 0
M  V30 6646 H 617.569 0.38116 3.24368 0
M  V30 6647 H 616.228 2.45013 2.72698 0
M  V30 6648 H 615.876 1.2248 4.8786 0
M  V30 6649 H 615.576 2.97037 5.06994 0
M  V30 6650 H 617.1 2.25901 5.67275 0
M  V30 6651 H 618.514 3.94947 4.1556 0
M  V30 6652 H 616.911 4.65175 3.7912 0
M  V30 6653 H 617.981 4.17927 2.45896 0
M  V30 6654 N 619.324 -0.923095 1.27737 0
M  V30 6655 C 620.74 -1.19985 1.05241 0
M  V30 6656 C 620.94 -2.00391 -0.21113 0
M  V30 6657 O 619.996 -2.35324 -0.915366 0
M  V30 6658 C 621.309 -1.94352 2.29451 0
M  V30 6659 C 622.857 -2.07273 2.34536 0
M  V30 6660 C 623.332 -2.85046 3.58487 0
M  V30 6661 N 624.823 -2.92612 3.59072 0
M  V30 6662 C 625.558 -3.53266 4.51654 0
M  V30 6663 N 625.054 -4.15274 5.54545 0
M  V30 6664 N 626.847 -3.50714 4.39268 0
M  V30 6665 H 618.998 -0.386042 2.08862 0
M  V30 6666 H 621.261 -0.233407 0.918817 0
M  V30 6667 H 620.967 -1.42692 3.21453 0
M  V30 6668 H 620.841 -2.94947 2.3513 0
M  V30 6669 H 623.228 -2.58117 1.43037 0
M  V30 6670 H 623.309 -1.05884 2.32857 0
M  V30 6671 H 622.953 -2.34884 4.50324 0
M  V30 6672 H 622.883 -3.8673 3.57418 0
M  V30 6673 H 625.374 -2.48547 2.84663 0
M  V30 6674 H 625.687 -4.59507 6.21348 0
M  V30 6675 H 624.032 -4.13806 5.58382 0
M  V30 6676 H 627.223 -3.01475 3.58093 0
M  V30 6677 H 627.396 -3.97693 5.1161 0
M  V30 6678 N 620.802 -1.09834 -1.13024 0
M  V30 6679 C 622.049 -0.83695 -1.84395 0
M  V30 6680 C 622.377 0.637463 -1.83757 0
M  V30 6681 O 621.632 1.48554 -1.27398 0
M  V30 6682 C 621.931 -1.32263 -3.32026 0
M  V30 6683 C 621.597 -2.80739 -3.52841 0
M  V30 6684 C 620.259 -3.21286 -3.5823 0
M  V30 6685 C 622.611 -3.76449 -3.60466 0
M  V30 6686 C 619.939 -4.56308 -3.68781 0
M  V30 6687 C 622.291 -5.11266 -3.72546 0
M  V30 6688 C 620.955 -5.51397 -3.76189 0
M  V30 6689 H 620.225 -0.306262 -0.674748 0
M  V30 6690 H 622.872 -1.37385 -1.33408 0
M  V30 6691 H 621.177 -0.705618 -3.85394 0
M  V30 6692 H 622.874 -1.09695 -3.85705 0
M  V30 6693 H 619.464 -2.48363 -3.49305 0
M  V30 6694 H 623.648 -3.46234 -3.55578 0
M  V30 6695 H 618.904 -4.86832 -3.69871 0
M  V30 6696 H 623.078 -5.85279 -3.77388 0
M  V30 6697 H 620.705 -6.56017 -3.84117 0
M  V30 6698 N 622.28 1.30327 -0.886154 0
M  V30 6699 C 623.21 2.30549 -0.370028 0
M  V30 6700 C 624.191 1.61039 0.547751 0
M  V30 6701 O 625.376 1.8864 0.461353 0
M  V30 6702 C 622.506 3.44808 0.415275 0
M  V30 6703 C 621.46 4.26024 -0.41085 0
M  V30 6704 C 620.786 5.32347 0.501128 0
M  V30 6705 C 622.086 4.95433 -1.65359 0
M  V30 6706 H 623.78 2.73969 -1.20754 0
M  V30 6707 H 621.326 1.3171 -0.582097 0
M  V30 6708 H 623.279 4.13986 0.78699 0
M  V30 6709 H 622.003 3.00197 1.28644 0
M  V30 6710 H 620.662 3.58535 -0.764719 0
M  V30 6711 H 620.31 4.83982 1.37004 0
M  V30 6712 H 620.01 5.87581 -0.0478356 0
M  V30 6713 H 621.534 6.0438 0.869333 0
M  V30 6714 H 622.948 5.5712 -1.35239 0
M  V30 6715 H 621.345 5.60537 -2.14284 0
M  V30 6716 H 622.415 4.21493 -2.39733 0
M  V30 6717 N 623.758 0.647228 1.43697 0
M  V30 6718 C 624.708 -0.0702191 2.27892 0
M  V30 6719 C 625.692 -0.800601 1.39568 0
M  V30 6720 O 626.884 -0.684055 1.63247 0
M  V30 6721 C 624.013 -1.04008 3.27165 0
M  V30 6722 C 623.099 -0.308484 4.22977 0
M  V30 6723 N 623.49 0.671721 5.0132 0
M  V30 6724 C 621.788 -0.550751 4.42586 0
M  V30 6725 C 622.489 1.10543 5.711 0
M  V30 6726 N 621.465 0.440903 5.41809 0
M  V30 6727 H 625.267 0.682031 2.85877 0
M  V30 6728 H 622.781 0.474022 1.55328 0
M  V30 6729 H 624.778 -1.56881 3.86256 0
M  V30 6730 H 623.438 -1.79246 2.70742 0
M  V30 6731 H 624.449 1.0502 5.0714 0
M  V30 6732 H 621.126 -1.28476 3.97241 0
M  V30 6733 H 622.516 1.91614 6.43998 0
M  V30 6734 N 625.236 -1.5273 0.388769 0
M  V30 6735 C 626.146 -2.30165 -0.453993 0
M  V30 6736 C 627.162 -1.37058 -1.07197 0
M  V30 6737 O 628.338 -1.70127 -1.0779 0
M  V30 6738 C 625.403 -3.09303 -1.56628 0
M  V30 6739 C 624.464 -4.18117 -0.973467 0
M  V30 6740 C 623.697 -4.93472 -2.03275 0
M  V30 6741 O 623.92 -4.68913 -3.24772 0
M  V30 6742 O 622.854 -5.78833 -1.65034 0
M  V30 6743 H 626.68 -3.03185 0.176816 0
M  V30 6744 H 624.265 -1.4862 0.152501 0
M  V30 6745 H 626.147 -3.58648 -2.21246 0
M  V30 6746 H 624.822 -2.39098 -2.18206 0
M  V30 6747 H 623.729 -3.7297 -0.290556 0
M  V30 6748 H 625.062 -4.90556 -0.401908 0
M  V30 6749 N 626.714 -0.118576 -1.57153 0
M  V30 6750 C 627.662 0.849114 -2.16547 0
M  V30 6751 C 628.656 1.27567 -1.11458 0
M  V30 6752 O 629.862 1.24746 -1.29763 0
M  V30 6753 H 626.237 0.291935 -0.693021 0
M  V30 6754 H 628.208 0.323693 -2.96639 0
M  V30 6755 C 626.957 2.08951 -2.77912 0
M  V30 6756 H 626.28 1.77021 -3.58474 0
M  V30 6757 H 627.72 2.74666 -3.23008 0
M  V30 6758 C 626.179 2.87899 -1.74974 0
M  V30 6759 O 626.709 3.83268 -1.20285 0
M  V30 6760 N 624.915 2.51884 -1.44924 0
M  V30 6761 H 624.462 1.74397 -1.89587 0
M  V30 6762 H 624.42 3.05003 -0.762921 0
M  V30 6763 N 628.193 1.56834 0.155195 0
M  V30 6764 C 629.125 1.94235 1.21677 0
M  V30 6765 C 630.138 0.83724 1.39621 0
M  V30 6766 O 631.327 1.11567 1.39338 0
M  V30 6767 C 628.427 2.19402 2.58294 0
M  V30 6768 C 627.6 3.50671 2.61436 0
M  V30 6769 C 626.659 3.64475 3.79532 0
M  V30 6770 O 625.685 4.36945 3.64784 0
M  V30 6771 N 626.887 3.00526 4.96653 0
M  V30 6772 H 629.652 2.85901 0.898932 0
M  V30 6773 H 627.213 1.58185 0.34483 0
M  V30 6774 H 629.205 2.25886 3.35794 0
M  V30 6775 H 627.775 1.34042 2.82403 0
M  V30 6776 H 626.995 3.55702 1.69912 0
M  V30 6777 H 628.283 4.3702 2.60559 0
M  V30 6778 H 627.681 2.41549 5.11538 0
M  V30 6779 H 626.238 3.12583 5.71958 0
M  V30 6780 N 629.671 -0.424282 1.51781 0
M  V30 6781 C 630.601 -1.52305 1.7699 0
M  V30 6782 C 631.582 -1.5839 0.620209 0
M  V30 6783 O 632.767 -1.73908 0.864268 0
M  V30 6784 C 629.897 -2.90271 1.90683 0
M  V30 6785 C 628.851 -2.99043 3.06198 0
M  V30 6786 C 628.177 -4.39116 3.05092 0
M  V30 6787 C 629.477 -2.7192 4.45934 0
M  V30 6788 H 631.171 -1.31461 2.68995 0
M  V30 6789 H 628.717 -0.630985 1.29439 0
M  V30 6790 H 630.67 -3.6711 2.06901 0
M  V30 6791 H 629.394 -3.12376 0.953365 0
M  V30 6792 H 628.053 -2.24646 2.89706 0
M  V30 6793 H 627.701 -4.58207 2.07498 0
M  V30 6794 H 627.401 -4.45912 3.82669 0
M  V30 6795 H 628.925 -5.17911 3.2342 0
M  V30 6796 H 630.339 -3.38487 4.62709 0
M  V30 6797 H 628.736 -2.90111 5.25315 0
M  V30 6798 H 629.806 -1.67445 4.55072 0
M  V30 6799 N 631.149 -1.42148 -0.680565 0
M  V30 6800 C 632.377 -1.45696 -1.46902 0
M  V30 6801 C 632.792 -0.0665858 -1.88683 0
M  V30 6802 O 632.149 0.917436 -1.57764 0
M  V30 6803 C 632.2 -2.37898 -2.72188 0
M  V30 6804 O 631.921 -3.71526 -2.32163 0
M  V30 6805 C 633.422 -2.50407 -3.65802 0
M  V30 6806 H 630.642 -0.495729 -0.45221 0
M  V30 6807 H 633.186 -1.866 -0.836709 0
M  V30 6808 H 631.341 -2.00263 -3.31622 0
M  V30 6809 H 631.755 -4.20849 -3.13027 0
M  V30 6810 H 633.229 -3.19056 -4.50452 0
M  V30 6811 H 633.706 -1.5401 -4.11312 0
M  V30 6812 H 634.312 -2.8874 -3.12265 0
M  V30 6813 N 632.627 0.916307 -1.28225 0
M  V30 6814 C 633.577 2.00488 -1.08574 0
M  V30 6815 C 634.561 1.60897 -0.0101874 0
M  V30 6816 O 635.753 1.75499 -0.230034 0
M  V30 6817 C 632.882 3.35076 -0.746943 0
M  V30 6818 C 631.968 3.81077 -1.86121 0
M  V30 6819 N 632.359 3.99475 -3.10247 0
M  V30 6820 C 630.657 4.10212 -1.75048 0
M  V30 6821 C 631.358 4.37965 -3.82834 0
M  V30 6822 N 630.334 4.4608 -3.10667 0
M  V30 6823 H 634.136 2.1276 -2.02757 0
M  V30 6824 H 631.65 1.10397 -1.19107 0
M  V30 6825 H 633.647 4.12743 -0.587252 0
M  V30 6826 H 632.307 3.2416 0.187146 0
M  V30 6827 H 633.318 3.85466 -3.45885 0
M  V30 6828 H 629.995 4.07947 -0.887999 0
M  V30 6829 H 631.385 4.60183 -4.89572 0
M  V30 6830 N 634.105 1.10431 1.1244 0
M  V30 6831 C 635.333 0.868872 1.87772 0
M  V30 6832 C 635.748 -0.580645 1.7965 0
M  V30 6833 O 635.105 -1.40031 1.17036 0
M  V30 6834 C 635.156 1.30855 3.36986 0
M  V30 6835 O 634.877 2.70123 3.44914 0
M  V30 6836 C 636.378 1.107 4.29256 0
M  V30 6837 H 633.598 0.311868 0.59412 0
M  V30 6838 H 636.142 1.46897 1.42273 0
M  V30 6839 H 634.297 0.752126 3.80029 0
M  V30 6840 H 634.711 2.88923 4.37748 0
M  V30 6841 H 636.185 1.46378 5.32238 0
M  V30 6842 H 636.662 0.0456228 4.39176 0
M  V30 6843 H 637.268 1.64988 3.91994 0
M  V30 6844 N 635.583 -1.29855 0.893053 0
M  V30 6845 C 636.86 -1.90694 0.435336 0
M  V30 6846 C 637.24 -1.8111 -1.08454 0
M  V30 6847 O 636.588 -1.23352 -1.92345 0
M  V30 6848 C 636.798 -3.36033 0.942472 0
M  V30 6849 C 638.146 -4.13083 0.982226 0
M  V30 6850 O 639.17 -3.4491 0.889686 0
M  V30 6851 O 638.029 -5.34896 1.12022 0
M  V30 6852 H 635.123 -0.815978 0.134567 0
M  V30 6853 H 637.669 -1.38367 0.982484 0
M  V30 6854 H 636.441 -3.37132 1.9864 0
M  V30 6855 H 636.064 -3.95828 0.374952 0
M  V30 6856 N 637.061 -0.65484 -1.43351 0
M  V30 6857 C 637.991 0.0221809 -2.33489 0
M  V30 6858 C 638.972 0.810272 -1.49561 0
M  V30 6859 O 640.157 0.771426 -1.78221 0
M  V30 6860 C 637.287 0.988117 -3.32947 0
M  V30 6861 C 636.241 0.310026 -4.26876 0
M  V30 6862 C 635.567 1.38752 -5.16384 0
M  V30 6863 C 636.867 -0.798589 -5.16159 0
M  V30 6864 H 638.561 -0.730571 -2.9035 0
M  V30 6865 H 636.107 -0.352773 -1.39612 0
M  V30 6866 H 638.06 1.47067 -3.94904 0
M  V30 6867 H 636.784 1.77205 -2.74346 0
M  V30 6868 H 635.443 -0.152097 -3.66284 0
M  V30 6869 H 635.091 2.16293 -4.54121 0
M  V30 6870 H 634.791 0.939051 -5.80048 0
M  V30 6871 H 636.315 1.87141 -5.81215 0
M  V30 6872 H 637.729 -0.398126 -5.71916 0
M  V30 6873 H 636.126 -1.17163 -5.88552 0
M  V30 6874 H 637.196 -1.65588 -4.55751 0
M  V30 6875 N 638.539 1.52521 -0.396863 0
M  V30 6876 C 639.486 2.26671 0.434624 0
M  V30 6877 C 640.456 1.28584 1.05144 0
M  V30 6878 O 641.641 1.57426 1.07804 0
M  V30 6879 C 638.781 3.08234 1.55196 0
M  V30 6880 C 637.894 4.21261 0.957262 0
M  V30 6881 C 637.029 4.90205 2.04627 0
M  V30 6882 C 636.068 5.95213 1.42787 0
M  V30 6883 N 635.205 6.57723 2.45651 0
M  V30 6884 H 640.045 2.973 -0.204139 0
M  V30 6885 H 637.582 1.46669 -0.112505 0
M  V30 6886 H 639.54 3.53819 2.2106 0
M  V30 6887 H 638.17 2.398 2.16092 0
M  V30 6888 H 637.222 3.79935 0.188005 0
M  V30 6889 H 638.534 4.96624 0.465416 0
M  V30 6890 H 637.688 5.39133 2.78246 0
M  V30 6891 H 636.427 4.14383 2.57174 0
M  V30 6892 H 635.432 5.45616 0.676968 0
M  V30 6893 H 636.657 6.72972 0.910255 0
M  V30 6894 H 634.603 5.84737 2.97353 0
M  V30 6895 H 634.52 7.28723 2.01243 0
M  V30 6896 H 635.788 7.11293 3.18876 0
M  V30 6897 N 640.017 0.126909 1.57088 0
M  V30 6898 C 641.428 -0.397201 1.82426 0
M  V30 6899 C 641.779 -1.66084 1.04453 0
M  V30 6900 O 640.904 -2.14534 0.283552 0
M  V30 6901 C 641.499 -0.727411 3.30899 0
M  V30 6902 C 640.058 -1.19612 3.56889 0
M  V30 6903 C 639.205 -0.20885 2.76512 0
M  V30 6904 H 642.156 0.351924 1.54749 0
M  V30 6905 H 642.177 -1.58407 3.45959 0
M  V30 6906 H 641.689 0.19247 3.87622 0
M  V30 6907 H 639.79 -2.13263 3.05532 0
M  V30 6908 H 639.903 -1.13598 4.65438 0
M  V30 6909 H 638.267 -0.697479 2.44964 0
M  V30 6910 H 639.05 0.704267 3.35998 0
M  V30 6911 N 641.495 -1.56914 -0.146875 0
M  V30 6912 C 642.405 -2.0154 -1.20079 0
M  V30 6913 C 643.421 -0.930838 -1.47008 0
M  V30 6914 O 644.597 -1.24032 -1.58676 0
M  V30 6915 C 641.662 -2.38715 -2.51428 0
M  V30 6916 C 640.723 -3.6112 -2.32145 0
M  V30 6917 C 639.956 -3.96512 -3.57231 0
M  V30 6918 O 640.179 -3.32566 -4.63418 0
M  V30 6919 O 639.113 -4.89758 -3.49887 0
M  V30 6920 H 642.939 -2.91506 -0.851924 0
M  V30 6921 H 640.524 -1.45106 -0.355607 0
M  V30 6922 H 642.406 -2.63485 -3.28867 0
M  V30 6923 H 641.081 -1.51903 -2.85845 0
M  V30 6924 H 639.988 -3.41536 -1.52656 0
M  V30 6925 H 641.321 -4.48549 -2.02644 0
M  V30 6926 N 642.974 0.416227 -1.52004 0
M  V30 6927 C 643.922 1.5272 -1.7544 0
M  V30 6928 C 644.916 1.57596 -0.621289 0
M  V30 6929 O 646.122 1.61087 -0.803172 0
M  V30 6930 H 642.497 0.507772 -0.554682 0
M  V30 6931 H 644.468 1.30136 -2.68528 0
M  V30 6932 C 643.217 2.90165 -1.91571 0
M  V30 6933 H 642.54 2.87154 -2.78178 0
M  V30 6934 H 643.98 3.67211 -2.11972 0
M  V30 6935 C 642.439 3.29947 -0.680942 0
M  V30 6936 O 642.969 4.01403 0.154527 0
M  V30 6937 N 641.175 2.8593 -0.518894 0
M  V30 6938 H 640.722 2.2795 -1.19986 0
M  V30 6939 H 640.68 3.12907 0.305985 0
M  V30 6940 N 644.452 1.42507 0.673017 0
M  V30 6941 C 645.701 1.42364 1.42883 0
M  V30 6942 C 646.014 0.0441598 1.9555 0
M  V30 6943 O 647.22 -0.0798679 2.71382 0
M  V30 6944 C 645.676 2.5043 2.58482 0
M  V30 6945 C 645.284 3.94392 2.12506 0
M  V30 6946 C 647.028 2.59455 3.35981 0
M  V30 6947 C 644.935 4.93964 3.25198 0
M  V30 6948 H 643.865 0.52951 0.536782 0
M  V30 6949 H 646.516 1.68422 0.728448 0
M  V30 6950 H 644.898 2.1754 3.30896 0
M  V30 6951 H 646.072 4.36645 1.47233 0
M  V30 6952 H 644.387 3.89233 1.4794 0
M  V30 6953 H 646.984 3.31025 4.19912 0
M  V30 6954 H 647.327 1.63869 3.82691 0
M  V30 6955 H 647.86 2.91549 2.70637 0
M  V30 6956 H 644.599 5.91034 2.83477 0
M  V30 6957 H 644.119 4.56341 3.89247 0
M  V30 6958 H 645.798 5.15763 3.90637 0
M  V30 6959 N 645.93 -0.909495 1.28709 0
M  V30 6960 C 646.86 -2.0291 1.15542 0
M  V30 6961 C 647.841 -1.7002 0.0521017 0
M  V30 6962 O 649.026 -1.92835 0.229849 0
M  V30 6963 C 646.156 -3.37458 0.820935 0
M  V30 6964 C 645.11 -3.84524 1.87949 0
M  V30 6965 C 644.436 -5.16086 1.39854 0
M  V30 6966 C 645.736 -4.05918 3.28676 0
M  V30 6967 H 647.43 -2.14183 2.09203 0
M  V30 6968 H 644.976 -1.02913 1.00722 0
M  V30 6969 H 646.929 -4.1528 0.715571 0
M  V30 6970 H 645.653 -3.26249 -0.151374 0
M  V30 6971 H 644.312 -3.08911 1.97408 0
M  V30 6972 H 643.96 -5.01284 0.41518 0
M  V30 6973 H 643.66 -5.48547 2.1064 0
M  V30 6974 H 645.184 -5.96459 1.30649 0
M  V30 6975 H 646.598 -4.74252 3.22115 0
M  V30 6976 H 644.995 -4.49717 3.97334 0
M  V30 6977 H 646.065 -3.10583 3.72379 0
M  V30 6978 N 647.408 -1.11026 -1.11852 0
M  V30 6979 C 648.655 -0.85646 -1.83497 0
M  V30 6980 C 648.983 0.617938 -1.84423 0
M  V30 6981 O 648.238 1.47194 -1.28966 0
M  V30 6982 C 648.537 -1.35777 -3.30604 0
M  V30 6983 C 648.203 -2.84465 -3.49843 0
M  V30 6984 C 646.865 -3.25068 -3.54802 0
M  V30 6985 C 649.217 -3.80251 -3.56453 0
M  V30 6986 C 646.545 -4.60194 -3.63921 0
M  V30 6987 C 648.897 -5.15188 -3.67102 0
M  V30 6988 C 647.561 -5.55356 -3.70319 0
M  V30 6989 H 646.831 -0.313401 -0.671462 0
M  V30 6990 H 649.478 -1.38792 -1.31943 0
M  V30 6991 H 647.783 -0.746455 -3.84624 0
M  V30 6992 H 649.48 -1.13779 -3.8452 0
M  V30 6993 H 646.07 -2.52054 -3.46651 0
M  V30 6994 H 650.254 -3.49986 -3.51886 0
M  V30 6995 H 645.51 -4.90728 -3.64686 0
M  V30 6996 H 649.684 -5.89248 -3.71159 0
M  V30 6997 H 647.311 -6.60054 -3.77138 0
M  V30 6998 N 648.886 1.2938 -0.899927 0
M  V30 6999 C 650.132 1.9584 -0.526742 0
M  V30 7000 C 650.465 1.70774 0.924651 0
M  V30 7001 O 649.74 1.02084 1.65557 0
M  V30 7002 C 650.023 3.50638 -0.820062 0
M  V30 7003 C 649.876 3.85161 -2.32317 0
M  V30 7004 C 651.195 4.3903 -0.30671 0
M  V30 7005 H 648.314 0.711322 -0.192848 0
M  V30 7006 H 650.956 1.52992 -1.12665 0
M  V30 7007 H 649.106 3.87265 -0.309491 0
M  V30 7008 H 650.778 3.58477 -2.9033 0
M  V30 7009 H 649.021 3.32696 -2.78381 0
M  V30 7010 H 649.692 4.93204 -2.47898 0
M  V30 7011 H 652.168 4.09396 -0.743908 0
M  V30 7012 H 651.044 5.46226 -0.541144 0
M  V30 7013 H 651.305 4.34937 0.792588 0
M  V30 7014 N 650.364 0.662433 1.43002 0
M  V30 7015 C 651.312 -0.035345 2.32573 0
M  V30 7016 C 652.306 -0.803505 1.49131 0
M  V30 7017 O 653.512 -0.712865 1.65282 0
M  V30 7018 H 649.887 -0.0302194 0.751393 0
M  V30 7019 H 651.858 0.737686 2.89138 0
M  V30 7020 C 650.607 -0.981575 3.33557 0
M  V30 7021 H 649.93 -0.399914 3.97795 0
M  V30 7022 H 651.37 -1.43873 3.98844 0
M  V30 7023 C 649.829 -2.08204 2.64863 0
M  V30 7024 O 650.359 -3.16698 2.47113 0
M  V30 7025 N 648.565 -1.85022 2.24088 0
M  V30 7026 H 648.112 -0.967909 2.38724 0
M  V30 7027 H 648.07 -2.58845 1.78457 0
M  V30 7028 N 651.842 -1.52309 0.404946 0
M  V30 7029 C 653.067 -2.06666 -0.1743 0
M  V30 7030 C 653.492 -1.27341 -1.38441 0
M  V30 7031 O 652.85 -0.302539 -1.78758 0
M  V30 7032 C 652.898 -3.57014 -0.507262 0
M  V30 7033 O 652.002 -3.80144 -1.59889 0
M  V30 7034 H 651.343 -0.663807 -0.0160273 0
M  V30 7035 H 653.873 -1.96297 0.576937 0
M  V30 7036 H 653.883 -4.00724 -0.767098 0
M  V30 7037 H 652.558 -4.14184 0.377368 0
M  V30 7038 H 651.135 -3.48316 -1.33155 0
M  V30 7039 N 653.32 -0.135238 -1.57019 0
M  V30 7040 C 654.23 0.822226 -2.19719 0
M  V30 7041 C 655.246 1.28057 -1.17802 0
M  V30 7042 O 656.422 1.3402 -1.50335 0
M  V30 7043 C 653.487 2.0484 -2.79717 0
M  V30 7044 C 652.548 1.64042 -3.96723 0
M  V30 7045 C 651.781 2.80814 -4.53849 0
M  V30 7046 O 652.004 3.967 -4.0986 0
M  V30 7047 O 650.938 2.56963 -5.44292 0
M  V30 7048 H 654.764 0.318552 -3.02025 0
M  V30 7049 H 652.349 0.0912021 -1.49121 0
M  V30 7050 H 654.231 2.76622 -3.17897 0
M  V30 7051 H 652.906 2.54182 -2.00432 0
M  V30 7052 H 651.813 0.893182 -3.63281 0
M  V30 7053 H 653.146 1.19426 -4.77492 0
M  V30 7054 N 654.798 1.5699 0.138552 0
M  V30 7055 C 656.045 1.83809 0.849732 0
M  V30 7056 C 656.373 0.717409 1.80786 0
M  V30 7057 O 655.628 -0.292897 1.93496 0
M  V30 7058 C 655.927 3.17007 1.65049 0
M  V30 7059 C 655.593 4.43037 0.838398 0
M  V30 7060 C 654.255 4.77262 0.614385 0
M  V30 7061 C 656.607 5.20495 0.271044 0
M  V30 7062 C 653.935 5.864 -0.187552 0
M  V30 7063 C 656.287 6.30476 -0.517979 0
M  V30 7064 C 654.951 6.63245 -0.75249 0
M  V30 7065 H 654.221 0.672605 0.310939 0
M  V30 7066 H 656.868 1.91166 0.112971 0
M  V30 7067 H 655.173 3.05138 2.4576 0
M  V30 7068 H 656.87 3.34975 2.20437 0
M  V30 7069 H 653.46 4.16211 1.02307 0
M  V30 7070 H 657.644 4.94422 0.431371 0
M  V30 7071 H 652.9 6.10226 -0.378659 0
M  V30 7072 H 657.074 6.89686 -0.964694 0
M  V30 7073 H 654.701 7.47648 -1.37573 0
M  V30 7074 N 656.276 -0.40816 1.52223 0
M  V30 7075 C 657.186 -1.52202 1.78526 0
M  V30 7076 C 658.202 -1.60546 0.670892 0
M  V30 7077 O 659.378 -1.77242 0.956404 0
M  V30 7078 C 656.443 -2.87928 1.93128 0
M  V30 7079 C 655.504 -2.89463 3.17033 0
M  V30 7080 C 654.737 -4.18715 3.30929 0
M  V30 7081 O 654.96 -5.12662 2.50067 0
M  V30 7082 O 653.894 -4.27125 4.24084 0
M  V30 7083 H 657.72 -1.32911 2.73072 0
M  V30 7084 H 655.305 -0.594112 1.37079 0
M  V30 7085 H 657.187 -3.68426 2.04549 0
M  V30 7086 H 655.862 -3.07285 1.01772 0
M  V30 7087 H 654.769 -2.07815 3.11069 0
M  V30 7088 H 656.102 -2.75055 4.08174 0
M  V30 7089 N 657.755 -1.42862 -0.66545 0
M  V30 7090 C 658.983 -1.47246 -1.45349 0
M  V30 7091 C 659.398 -0.0865944 -1.88601 0
M  V30 7092 O 658.755 0.900652 -1.58728 0
M  V30 7093 C 658.806 -2.40772 -2.6965 0
M  V30 7094 O 658.527 -3.73968 -2.2821 0
M  V30 7095 C 660.028 -2.54272 -3.63126 0
M  V30 7096 H 657.248 -0.500497 -0.446927 0
M  V30 7097 H 659.792 -1.87477 -0.816871 0
M  V30 7098 H 657.947 -2.0377 -3.29479 0
M  V30 7099 H 658.361 -4.24146 -3.08546 0
M  V30 7100 H 659.835 -3.23815 -4.47043 0
M  V30 7101 H 660.312 -1.58364 -4.09656 0
M  V30 7102 H 660.918 -2.92036 -3.09185 0
M  V30 7103 N 659.233 0.902656 -1.29189 0
M  V30 7104 C 660.163 2.02294 -1.16616 0
M  V30 7105 C 661.144 1.6999 -0.0611175 0
M  V30 7106 O 662.329 1.9271 -0.240072 0
M  V30 7107 C 659.459 3.37018 -0.83882 0
M  V30 7108 C 658.413 3.83522 -1.89986 0
M  V30 7109 C 657.739 5.15337 -1.42589 0
M  V30 7110 C 659.039 4.04169 -3.30824 0
M  V30 7111 H 660.733 2.13071 -2.10336 0
M  V30 7112 H 658.279 1.02378 -1.01266 0
M  V30 7113 H 660.232 4.14895 -0.737584 0
M  V30 7114 H 658.956 3.26325 0.134071 0
M  V30 7115 H 657.615 3.07859 -1.99043 0
M  V30 7116 H 657.263 5.01056 -0.441759 0
M  V30 7117 H 656.963 5.47423 -2.13547 0
M  V30 7118 H 658.487 5.95758 -1.3381 0
M  V30 7119 H 659.901 4.72537 -3.24626 0
M  V30 7120 H 658.298 4.47604 -3.99713 0
M  V30 7121 H 659.368 3.08604 -3.74021 0
M  V30 7122 N 660.711 1.11618 1.11262 0
M  V30 7123 C 661.941 0.88745 1.86569 0
M  V30 7124 C 662.349 -0.56636 1.80524 0
M  V30 7125 O 661.692 -1.40289 1.18594 0
M  V30 7126 C 661.754 1.27313 3.36202 0
M  V30 7127 C 661.418 2.73649 3.66013 0
M  V30 7128 C 662.415 3.71863 3.63337 0
M  V30 7129 C 660.1 3.10342 3.9496 0
M  V30 7130 C 662.094 5.04788 3.89188 0
M  V30 7131 C 659.781 4.43451 4.20469 0
M  V30 7132 C 660.779 5.40484 4.17572 0
M  V30 7133 O 660.467 6.71195 4.42439 0
M  V30 7134 H 660.199 0.317543 0.596777 0
M  V30 7135 H 662.753 1.48768 1.41624 0
M  V30 7136 H 660.983 0.616062 3.81761 0
M  V30 7137 H 662.672 1.01991 3.92877 0
M  V30 7138 H 663.438 3.44861 3.41022 0
M  V30 7139 H 659.317 2.35431 3.9635 0
M  V30 7140 H 662.861 5.80516 3.86842 0
M  V30 7141 H 658.758 4.70187 4.42261 0
M  V30 7142 H 659.526 6.77012 4.59997 0
M  V30 7143 N 662.189 -1.289 0.906776 0
M  V30 7144 C 663.137 -2.29477 0.379873 0
M  V30 7145 C 664.131 -1.61068 -0.524747 0
M  V30 7146 O 665.337 -1.75344 -0.406765 0
M  V30 7147 H 661.712 -0.744742 0.10423 0
M  V30 7148 H 663.683 -2.71353 1.24137 0
M  V30 7149 C 662.432 -3.45713 -0.371154 0
M  V30 7150 H 661.755 -3.98551 0.315716 0
M  V30 7151 H 663.195 -4.18105 -0.704581 0
M  V30 7152 C 661.654 -2.9774 -1.57646 0
M  V30 7153 O 662.184 -2.99618 -2.67567 0
M  V30 7154 N 660.39 -2.53485 -1.42105 0
M  V30 7155 H 659.937 -2.52156 -0.526783 0
M  V30 7156 H 659.895 -2.21747 -2.22881 0
M  V30 7157 N 663.667 -0.670007 -1.42649 0
M  V30 7158 C 664.577 0.0114788 -2.34597 0
M  V30 7159 C 665.593 0.794055 -1.54825 0
M  V30 7160 O 666.769 0.737472 -1.87412 0
M  V30 7161 C 663.834 0.954436 -3.33304 0
M  V30 7162 C 662.895 0.166925 -4.28975 0
M  V30 7163 C 662.128 1.06497 -5.22967 0
M  V30 7164 O 662.351 2.30446 -5.21777 0
M  V30 7165 O 661.285 0.528347 -5.99577 0
M  V30 7166 H 665.111 -0.745794 -2.944 0
M  V30 7167 H 662.696 -0.430228 -1.43071 0
M  V30 7168 H 664.578 1.49589 -3.93956 0
M  V30 7169 H 663.253 1.69164 -2.7598 0
M  V30 7170 H 662.16 -0.418515 -3.71752 0
M  V30 7171 H 663.493 -0.531067 -4.89327 0
M  V30 7172 N 665.145 1.52092 -0.413018 0
M  V30 7173 C 666.095 2.23947 0.427993 0
M  V30 7174 C 667.079 1.25229 1.01027 0
M  V30 7175 O 668.271 1.50448 0.932444 0
M  V30 7176 C 665.4 3.0672 1.542 0
M  V30 7177 C 664.486 4.12851 0.970307 0
M  V30 7178 N 664.877 5.05644 0.125611 0
M  V30 7179 C 663.175 4.28404 1.24042 0
M  V30 7180 C 663.876 5.8138 -0.192876 0
M  V30 7181 N 662.852 5.41996 0.417273 0
M  V30 7182 H 666.654 2.93048 -0.223628 0
M  V30 7183 H 664.168 1.60852 -0.223664 0
M  V30 7184 H 666.165 3.56754 2.15714 0
M  V30 7185 H 664.825 2.39159 2.19621 0
M  V30 7186 H 665.836 5.17348 -0.238995 0
M  V30 7187 H 662.513 3.72071 1.89391 0
M  V30 7188 H 663.903 6.66129 -0.878762 0
M  V30 7189 N 666.623 0.143563 1.56945 0
M  V30 7190 C 667.57 -0.797433 2.16586 0
M  V30 7191 C 668.54 -1.24654 1.09775 0
M  V30 7192 O 669.725 -1.31968 1.37801 0
M  V30 7193 C 666.865 -2.03253 2.78895 0
M  V30 7194 C 665.978 -1.62954 4.00087 0
M  V30 7195 C 665.113 -2.81617 4.50406 0
M  V30 7196 C 664.152 -2.37675 5.64072 0
M  V30 7197 N 663.289 -3.49335 6.09023 0
M  V30 7198 H 668.129 -0.282023 2.96662 0
M  V30 7199 H 665.666 -0.127494 1.46546 0
M  V30 7200 H 667.624 -2.75653 3.13163 0
M  V30 7201 H 666.254 -2.52211 2.01469 0
M  V30 7202 H 665.306 -0.803322 3.71821 0
M  V30 7203 H 666.618 -1.26679 4.82446 0
M  V30 7204 H 665.772 -3.62212 4.86711 0
M  V30 7205 H 664.511 -3.21134 3.67048 0
M  V30 7206 H 663.516 -1.55519 5.27346 0
M  V30 7207 H 664.741 -1.99247 6.49213 0
M  V30 7208 H 662.687 -3.8848 5.28601 0
M  V30 7209 H 662.604 -3.17064 6.86299 0
M  V30 7210 H 663.872 -4.30297 6.49973 0
M  V30 7211 N 668.101 -1.57061 -0.130224 0
M  V30 7212 C 669.326 -1.88802 -0.858409 0
M  V30 7213 C 669.751 -0.734353 -1.73173 0
M  V30 7214 O 669.109 0.315529 -1.78533 0
M  V30 7215 C 669.157 -3.19228 -1.67708 0
M  V30 7216 O 668.261 -3.04343 -2.78297 0
M  V30 7217 H 667.602 -0.619849 -0.238083 0
M  V30 7218 H 670.132 -2.04271 -0.115995 0
M  V30 7219 H 670.142 -3.51669 -2.06864 0
M  V30 7220 H 668.817 -4.02793 -1.0359 0
M  V30 7221 H 667.394 -2.83346 -2.42425 0
M  V30 7222 N 669.579 0.400081 -1.52437 0
M  V30 7223 C 670.819 1.15526 -1.68622 0
M  V30 7224 C 671.183 1.87533 -0.411744 0
M  V30 7225 O 672.384 2.6501 -0.449804 0
M  V30 7226 C 670.655 2.11618 -2.88015 0
M  V30 7227 S 672.214 2.95121 -3.24729 0
M  V30 7228 H 669.032 0.39123 -0.593683 0
M  V30 7229 H 671.634 0.441255 -1.90455 0
M  V30 7230 H 670.338 1.5742 -3.79008 0
M  V30 7231 H 669.869 2.87544 -2.68481 0
M  V30 7232 H 671.884 4.13653 -2.74055 0
M  V30 7233 N 671.057 1.43213 0.657864 0
M  V30 7234 C 671.967 1.50448 1.80007 0
M  V30 7235 C 672.983 0.39191 1.69529 0
M  V30 7236 O 674.159 0.645349 1.90781 0
M  V30 7237 C 671.224 1.42062 3.16258 0
M  V30 7238 C 670.285 2.63951 3.38568 0
M  V30 7239 C 669.518 2.55956 4.68318 0
M  V30 7240 O 669.741 1.60473 5.47361 0
M  V30 7241 O 668.675 3.46378 4.92245 0
M  V30 7242 H 672.501 2.4689 1.76858 0
M  V30 7243 H 670.086 1.25163 0.81576 0
M  V30 7244 H 671.968 1.3981 3.97531 0
M  V30 7245 H 670.643 0.487524 3.20008 0
M  V30 7246 H 669.55 2.71776 2.57077 0
M  V30 7247 H 670.883 3.56217 3.39662 0
M  V30 7248 N 672.536 -0.895792 1.29666 0
M  V30 7249 C 673.446 -2.03329 1.17024 0
M  V30 7250 C 674.462 -1.73753 0.0925962 0
M  V30 7251 O 675.638 -1.99071 0.305431 0
M  V30 7252 C 672.703 -3.36072 0.851841 0
M  V30 7253 C 671.764 -3.7914 2.01373 0
M  V30 7254 C 670.997 -5.05549 1.71043 0
M  V30 7255 O 671.22 -5.66874 0.633213 0
M  V30 7256 O 670.154 -5.44764 2.5596 0
M  V30 7257 H 673.98 -2.16918 2.12556 0
M  V30 7258 H 671.565 -1.02007 1.09156 0
M  V30 7259 H 673.447 -4.15729 0.689006 0
M  V30 7260 H 672.122 -3.23616 -0.0736634 0
M  V30 7261 H 671.029 -3.00233 2.23183 0
M  V30 7262 H 672.362 -3.96186 2.92058 0
M  V30 7263 N 674.014 -1.12206 -1.10668 0
M  V30 7264 C 674.961 -0.787716 -2.16942 0
M  V30 7265 C 675.931 0.244442 -1.64291 0
M  V30 7266 O 677.116 0.119558 -1.90425 0
M  V30 7267 C 674.256 -0.24584 -3.44223 0
M  V30 7268 C 673.369 -1.33552 -4.10838 0
M  V30 7269 C 672.504 -0.753337 -5.25831 0
M  V30 7270 C 671.543 -1.82231 -5.84344 0
M  V30 7271 N 670.68 -1.25902 -6.90719 0
M  V30 7272 H 675.52 -1.69809 -2.44885 0
M  V30 7273 H 673.057 -0.847862 -1.20207 0
M  V30 7274 H 675.015 0.0863639 -4.17111 0
M  V30 7275 H 673.645 0.627702 -3.16638 0
M  V30 7276 H 672.697 -1.78454 -3.35944 0
M  V30 7277 H 674.009 -2.14396 -4.50373 0
M  V30 7278 H 673.163 -0.37166 -6.05561 0
M  V30 7279 H 671.902 0.0863297 -4.87624 0
M  V30 7280 H 670.907 -2.2132 -5.03287 0
M  V30 7281 H 672.132 -2.66515 -6.24617 0
M  V30 7282 H 670.078 -0.44114 -6.54515 0
M  V30 7283 H 669.995 -2.00408 -7.28953 0
M  V30 7284 H 671.263 -0.904498 -7.74235 0
M  V30 7285 N 675.492 1.28418 -0.913599 0
M  V30 7286 C 676.717 1.99643 -0.561899 0
M  V30 7287 C 677.142 1.67819 0.849608 0
M  V30 7288 O 676.5 0.910503 1.56779 0
M  V30 7289 C 676.548 3.52116 -0.777622 0
M  V30 7290 O 675.652 4.12076 0.163457 0
M  V30 7291 H 674.993 0.627229 -0.217898 0
M  V30 7292 H 677.523 1.63575 -1.229 0
M  V30 7293 H 677.533 4.02163 -0.687666 0
M  V30 7294 H 676.208 3.74613 -1.8066 0
M  V30 7295 H 674.785 3.72892 0.0247827 0
M  V30 7296 N 676.97 0.677563 1.42291 0
M  V30 7297 C 678.216 0.201272 2.01799 0
M  V30 7298 C 678.549 -1.19004 1.53465 0
M  V30 7299 O 677.824 -1.79953 0.738039 0
M  V30 7300 C 678.107 0.238968 3.59306 0
M  V30 7301 C 677.96 1.66594 4.17812 0
M  V30 7302 C 679.279 -0.411287 4.38174 0
M  V30 7303 H 676.398 0.0746114 0.733214 0
M  V30 7304 H 679.04 0.862872 1.69276 0
M  V30 7305 H 677.19 -0.324368 3.87144 0
M  V30 7306 H 678.862 2.28173 4.00917 0
M  V30 7307 H 677.105 2.20576 3.73536 0
M  V30 7308 H 677.776 1.64398 5.26951 0
M  V30 7309 H 680.252 0.0682804 4.16044 0
M  V30 7310 H 679.128 -0.354286 5.47755 0
M  V30 7311 H 679.389 -1.4893 4.1626 0
M  V30 7312 N 678.448 -1.51871 0.421078 0
M  V30 7313 C 679.395 -2.27334 -0.398508 0
M  V30 7314 C 680.365 -1.30241 -1.03085 0
M  V30 7315 O 681.55 -1.59121 -1.05285 0
M  V30 7316 C 678.69 -3.10664 -1.50272 0
M  V30 7317 C 677.803 -4.2273 -0.890122 0
M  V30 7318 C 676.938 -4.93399 -1.96803 0
M  V30 7319 C 675.977 -5.97409 -1.333 0
M  V30 7320 N 675.114 -6.61548 -2.35156 0
M  V30 7321 H 679.954 -2.96938 0.251411 0
M  V30 7322 H 677.491 -1.46472 0.135825 0
M  V30 7323 H 679.449 -3.57292 -2.15403 0
M  V30 7324 H 678.079 -2.43207 -2.1225 0
M  V30 7325 H 677.131 -3.80186 -0.127537 0
M  V30 7326 H 678.443 -4.97302 -0.386349 0
M  V30 7327 H 677.597 -5.43491 -2.69633 0
M  V30 7328 H 676.336 -4.18421 -2.50549 0
M  V30 7329 H 675.341 -5.46624 -0.59008 0
M  V30 7330 H 676.566 -6.74335 -0.803076 0
M  V30 7331 H 674.512 -5.89394 -2.88012 0
M  V30 7332 H 674.429 -7.31832 -1.89624 0
M  V30 7333 H 675.697 -7.16276 -3.0752 0
M  V30 7334 N 679.926 -0.151884 -1.56866 0
M  V30 7335 C 680.874 0.80299 -2.183 0
M  V30 7336 C 681.868 1.25174 -1.14139 0
M  V30 7337 O 683.074 1.21966 -1.3238 0
M  V30 7338 H 679.449 0.277169 -0.699057 0
M  V30 7339 H 681.42 0.260699 -2.97259 0
M  V30 7340 C 680.169 2.03009 -2.82281 0
M  V30 7341 H 679.492 1.69377 -3.62148 0
M  V30 7342 H 680.932 2.67753 -3.28762 0
M  V30 7343 C 679.391 2.84123 -1.81041 0
M  V30 7344 O 679.921 3.8063 -1.28388 0
M  V30 7345 N 678.127 2.48753 -1.50234 0
M  V30 7346 H 677.674 1.70337 -1.93244 0
M  V30 7347 H 677.632 3.03316 -0.827445 0
M  V30 7348 N 681.404 1.57128 0.121893 0
M  V30 7349 C 682.632 1.88883 0.844451 0
M  V30 7350 C 683.047 0.742824 1.73573 0
M  V30 7351 O 682.404 -0.286475 1.80238 0
M  V30 7352 C 682.455 3.20076 1.68029 0
M  V30 7353 O 682.176 4.30264 0.824898 0
M  V30 7354 C 683.677 3.65515 2.50826 0
M  V30 7355 H 680.897 0.62549 0.242907 0
M  V30 7356 H 683.441 2.04219 0.107151 0
M  V30 7357 H 681.596 3.06418 2.37038 0
M  V30 7358 H 682.01 5.05439 1.40113 0
M  V30 7359 H 683.484 4.60081 3.05008 0
M  V30 7360 H 683.961 2.92029 3.28048 0
M  V30 7361 H 684.567 3.81952 1.87064 0
M  V30 7362 N 682.882 -0.391992 1.52647 0
M  V30 7363 C 684.107 -1.16312 1.71716 0
M  V30 7364 C 684.532 -1.83042 0.433279 0
M  V30 7365 O 683.89 -1.70705 -0.610707 0
M  V30 7366 C 683.938 -2.18908 2.86551 0
M  V30 7367 O 683.042 -3.2543 2.53316 0
M  V30 7368 H 682.383 -0.338743 0.571095 0
M  V30 7369 H 684.913 -0.457202 1.99426 0
M  V30 7370 H 684.923 -2.62954 3.1196 0
M  V30 7371 H 683.598 -1.69726 3.79692 0
M  V30 7372 H 682.175 -2.86543 2.38637 0
M  V30 7373 N 684.36 -1.4356 -0.65026 0
M  V30 7374 C 685.609 -1.44619 -1.406 0
M  V30 7375 C 685.922 -0.0752645 -1.95455 0
M  V30 7376 O 687.128 0.0366832 -2.71475 0
M  V30 7377 C 685.584 -2.54511 -2.54465 0
M  V30 7378 C 685.192 -3.97723 -2.06204 0
M  V30 7379 C 686.936 -2.64768 -3.31811 0
M  V30 7380 C 684.843 -4.99075 -3.17298 0
M  V30 7381 H 683.773 -0.537983 -0.52829 0
M  V30 7382 H 686.424 -1.69559 -0.701561 0
M  V30 7383 H 684.806 -2.22777 -3.27393 0
M  V30 7384 H 685.98 -4.38932 -1.40267 0
M  V30 7385 H 684.295 -3.91538 -1.41729 0
M  V30 7386 H 686.892 -3.37664 -4.14593 0
M  V30 7387 H 687.235 -1.69936 -3.80036 0
M  V30 7388 H 687.768 -2.95817 -2.65964 0
M  V30 7389 H 684.507 -5.95469 -2.74038 0
M  V30 7390 H 684.027 -4.62476 -3.81937 0
M  V30 7391 H 685.706 -5.21913 -3.82382 0
M  V30 7392 N 685.838 0.888903 -1.30139 0
M  V30 7393 C 687.254 1.17153 -1.08385 0
M  V30 7394 C 687.454 2.0088 0.157925 0
M  V30 7395 O 686.51 2.37668 0.852652 0
M  V30 7396 C 687.823 1.882 -2.34523 0
M  V30 7397 C 689.371 2.00981 -2.39949 0
M  V30 7398 C 689.846 2.75441 -3.65918 0
M  V30 7399 N 691.337 2.82989 -3.66704 0
M  V30 7400 C 692.072 3.41167 -4.60861 0
M  V30 7401 N 691.568 4.00425 -5.6536 0
M  V30 7402 N 693.361 3.38944 -4.48412 0
M  V30 7403 H 685.512 0.33053 -2.09812 0
M  V30 7404 H 687.775 0.208964 -0.924683 0
M  V30 7405 H 687.481 1.34119 -3.25123 0
M  V30 7406 H 687.355 2.88609 -2.42868 0
M  V30 7407 H 689.742 2.54234 -1.4983 0
M  V30 7408 H 689.823 0.996725 -2.35582 0
M  V30 7409 H 689.467 2.22861 -4.56394 0
M  V30 7410 H 689.397 3.77118 -3.67546 0
M  V30 7411 H 691.888 2.40912 -2.91153 0
M  V30 7412 H 692.201 4.42871 -6.33313 0
M  V30 7413 H 690.546 3.98856 -5.69157 0
M  V30 7414 H 693.737 2.91875 -3.6596 0
M  V30 7415 H 693.91 3.83989 -5.21974 0
M  V30 7416 N 687.317 1.12792 1.10072 0
M  V30 7417 C 688.563 0.886857 1.82381 0
M  V30 7418 C 688.896 -0.58576 1.85155 0
M  V30 7419 O 688.171 -1.43317 1.31493 0
M  V30 7420 C 688.454 1.46703 3.28862 0
M  V30 7421 C 688.307 3.00829 3.34398 0
M  V30 7422 C 689.626 1.12971 4.25353 0
M  V30 7423 H 686.745 0.32362 0.662148 0
M  V30 7424 H 689.387 1.39513 1.28982 0
M  V30 7425 H 687.537 1.03476 3.74466 0
M  V30 7426 H 689.209 3.52764 2.97247 0
M  V30 7427 H 687.452 3.36164 2.74183 0
M  V30 7428 H 688.123 3.36519 4.3756 0
M  V30 7429 H 690.599 1.50313 3.88001 0
M  V30 7430 H 689.475 1.56223 5.26199 0
M  V30 7431 H 689.736 0.0424452 4.4208 0
M  V30 7432 N 688.795 -1.27931 0.920396 0
M  V30 7433 C 689.758 -2.25345 0.41858 0
M  V30 7434 C 690.758 -1.54116 -0.458798 0
M  V30 7435 O 691.948 -1.72235 -0.260912 0
M  V30 7436 C 689.08 -3.38556 -0.399104 0
M  V30 7437 H 690.273 -2.71251 1.27918 0
M  V30 7438 H 687.826 -1.39728 0.700406 0
M  V30 7439 H 688.561 -2.98021 -1.27882 0
M  V30 7440 H 688.346 -3.91426 0.229863 0
M  V30 7441 H 689.836 -4.10976 -0.740817 0
M  V30 7442 N 690.273 -0.685099 -1.4193 0
M  V30 7443 C 691.55 -0.140152 -1.95097 0
M  V30 7444 C 691.93 1.34745 -1.62502 0
M  V30 7445 O 691.278 2.08872 -0.926534 0
M  V30 7446 C 691.488 -0.420268 -3.4646 0
M  V30 7447 C 692.836 -0.342338 -4.23218 0
M  V30 7448 O 693.86 -0.354592 -3.54431 0
M  V30 7449 O 692.719 -0.293404 -5.45712 0
M  V30 7450 H 689.813 -0.00885998 -0.826953 0
M  V30 7451 H 692.359 -0.760539 -1.51703 0
M  V30 7452 H 691.131 -1.45037 -3.63428 0
M  V30 7453 H 690.754 0.231616 -3.96925 0
M  V30 7454 N 691.751 1.51645 -0.429126 0
M  V30 7455 C 692.998 2.02015 0.140079 0
M  V30 7456 C 693.326 1.31374 1.43427 0
M  V30 7457 O 692.581 0.414779 1.91254 0
M  V30 7458 C 692.88 3.54989 0.414472 0
M  V30 7459 C 692.546 4.43874 -0.792911 0
M  V30 7460 C 691.208 4.67887 -1.12404 0
M  V30 7461 C 693.56 4.96074 -1.59875 0
M  V30 7462 C 690.888 5.41348 -2.26184 0
M  V30 7463 C 693.24 5.70782 -2.72747 0
M  V30 7464 C 691.904 5.93062 -3.06324 0
M  V30 7465 H 691.174 0.739225 0.0512585 0
M  V30 7466 H 693.821 1.82675 -0.574641 0
M  V30 7467 H 692.126 3.72615 1.21099 0
M  V30 7468 H 693.823 3.91489 0.868173 0
M  V30 7469 H 690.413 4.25374 -0.524871 0
M  V30 7470 H 694.597 4.77412 -1.35614 0
M  V30 7471 H 689.853 5.56815 -2.52522 0
M  V30 7472 H 694.027 6.10221 -3.35564 0
M  V30 7473 H 691.654 6.49764 -3.94602 0
M  V30 7474 N 693.229 0.160201 1.56784 0
M  V30 7475 C 694.477 -0.486625 1.96154 0
M  V30 7476 C 694.798 -1.64525 1.04673 0
M  V30 7477 O 694.068 -1.95586 0.110864 0
M  V30 7478 H 692.648 -0.182764 0.724297 0
M  V30 7479 H 695.31 0.238787 1.93432 0
M  V30 7480 H 694.406 -0.854025 3.00188 0
M  V30 7481 N 694.707 -1.5719 -0.113559 0
M  V30 7482 C 695.932 -1.89702 -0.838336 0
M  V30 7483 C 696.357 -0.752679 -1.72384 0
M  V30 7484 O 695.715 0.296575 -1.78858 0
M  V30 7485 C 695.763 -3.20989 -1.64312 0
M  V30 7486 O 694.867 -3.07278 -2.75053 0
M  V30 7487 H 694.208 -0.622339 -0.231496 0
M  V30 7488 H 696.738 -2.04382 -0.0943228 0
M  V30 7489 H 696.748 -3.53843 -2.03123 0
M  V30 7490 H 695.423 -4.03869 -0.993119 0
M  V30 7491 H 694 -2.85901 -2.39406 0
M  V30 7492 N 696.185 0.383891 -1.52853 0
M  V30 7493 C 697.148 1.45197 -1.77343 0
M  V30 7494 C 698.148 1.47362 -0.643522 0
M  V30 7495 O 699.338 1.48443 -0.911613 0
M  V30 7496 C 696.47 2.8445 -1.87885 0
M  V30 7497 H 697.663 1.24764 -2.72716 0
M  V30 7498 H 695.216 0.615939 -1.43652 0
M  V30 7499 H 695.951 3.10222 -0.94515 0
M  V30 7500 H 695.736 2.8428 -2.70051 0
M  V30 7501 H 697.226 3.61832 -2.08488 0
M  V30 7502 N 697.663 1.43903 0.642637 0
M  V30 7503 C 698.891 1.4954 1.42988 0
M  V30 7504 C 699.306 0.116588 1.8844 0
M  V30 7505 O 698.663 -0.875285 1.60141 0
M  V30 7506 C 698.714 2.45031 2.65785 0
M  V30 7507 O 698.435 3.77551 2.22232 0
M  V30 7508 C 699.936 2.60017 3.59035 0
M  V30 7509 H 697.156 0.507544 0.438907 0
M  V30 7510 H 699.7 1.88752 0.786942 0
M  V30 7511 H 697.855 2.08985 3.26196 0
M  V30 7512 H 698.269 4.29001 3.01759 0
M  V30 7513 H 699.743 3.30887 4.41835 0
M  V30 7514 H 700.22 1.64861 4.07084 0
M  V30 7515 H 700.826 2.96918 3.045 0
M  V30 7516 N 699.141 -0.881989 1.30609 0
M  V30 7517 C 700.388 -1.63405 1.19604 0
M  V30 7518 C 700.716 -1.92905 -0.248574 0
M  V30 7519 O 699.971 -1.55062 -1.19391 0
M  V30 7520 C 700.27 -2.97999 1.97311 0
M  V30 7521 C 699.936 -2.88039 3.46907 0
M  V30 7522 C 698.598 -2.85029 3.877 0
M  V30 7523 C 700.95 -2.75948 4.42156 0
M  V30 7524 C 698.278 -2.67772 5.2203 0
M  V30 7525 C 700.63 -2.60228 5.76597 0
M  V30 7526 C 699.294 -2.55595 6.16626 0
M  V30 7527 H 698.564 -0.597941 0.437662 0
M  V30 7528 H 701.211 -1.02524 1.61744 0
M  V30 7529 H 699.516 -3.62847 1.47815 0
M  V30 7530 H 701.213 -3.55156 1.86186 0
M  V30 7531 H 697.803 -2.91192 3.14492 0
M  V30 7532 H 701.987 -2.77337 4.1158 0
M  V30 7533 H 697.243 -2.62601 5.52133 0
M  V30 7534 H 701.417 -2.49847 6.50038 0
M  V30 7535 H 699.044 -2.41981 7.20659 0
M  V30 7536 N 700.619 -1.13374 -1.09472 0
M  V30 7537 C 701.896 -0.806329 -1.78207 0
M  V30 7538 C 702.276 0.702191 -1.99079 0
M  V30 7539 O 701.624 1.63931 -1.59182 0
M  V30 7540 C 701.834 -1.59271 -3.10538 0
M  V30 7541 C 703.182 -1.78509 -3.85253 0
M  V30 7542 O 704.206 -1.55866 -3.20288 0
M  V30 7543 O 703.065 -2.16287 -5.01879 0
M  V30 7544 H 700.159 -0.29435 -0.772843 0
M  V30 7545 H 702.705 -1.23833 -1.16033 0
M  V30 7546 H 701.477 -2.61792 -2.90828 0
M  V30 7547 H 701.1 -1.15562 -3.80436 0
M  V30 7548 N 702.098 1.27442 -0.927168 0
M  V30 7549 C 703.048 2.24519 -0.396878 0
M  V30 7550 C 704.032 1.52981 0.498555 0
M  V30 7551 O 705.224 1.7378 0.336087 0
M  V30 7552 C 702.353 3.41514 0.349694 0
M  V30 7553 C 701.439 4.20357 -0.562226 0
M  V30 7554 N 701.83 4.7702 -1.68182 0
M  V30 7555 C 700.128 4.44503 -0.365135 0
M  V30 7556 C 700.829 5.36467 -2.24895 0
M  V30 7557 N 699.805 5.21371 -1.5386 0
M  V30 7558 H 703.607 2.65911 -1.25173 0
M  V30 7559 H 701.121 1.42366 -0.78138 0
M  V30 7560 H 703.118 4.10161 0.746536 0
M  V30 7561 H 701.778 3.01653 1.20148 0
M  V30 7562 H 702.789 4.74985 -2.06421 0
M  V30 7563 H 699.466 4.15111 0.446037 0
M  V30 7564 H 700.856 5.91264 -3.1915 0
M  V30 7565 N 703.576 0.692616 1.41565 0
M  V30 7566 C 704.486 0.0258451 2.34586 0
M  V30 7567 C 705.502 -0.769324 1.56069 0
M  V30 7568 O 706.678 -0.707563 1.88562 0
M  V30 7569 C 703.743 -0.901289 3.3478 0
M  V30 7570 C 702.804 -0.0986579 4.29187 0
M  V30 7571 C 702.037 -0.981634 5.24595 0
M  V30 7572 O 702.26 -2.22115 5.25377 0
M  V30 7573 O 701.194 -0.432892 6.00341 0
M  V30 7574 H 705.02 0.792537 2.93177 0
M  V30 7575 H 702.605 0.452935 1.42369 0
M  V30 7576 H 704.487 -1.43302 3.96286 0
M  V30 7577 H 703.162 -1.64752 2.78637 0
M  V30 7578 H 702.069 0.477604 3.71039 0
M  V30 7579 H 703.402 0.608848 4.8842 0
M  V30 7580 N 705.054 -1.51416 0.437162 0
M  V30 7581 C 706.004 -2.24599 -0.392311 0
M  V30 7582 C 706.988 -1.2682 -0.990221 0
M  V30 7583 O 708.18 -1.51912 -0.908391 0
M  V30 7584 C 705.309 -3.09134 -1.49301 0
M  V30 7585 C 704.395 -4.14342 -0.904503 0
M  V30 7586 N 704.786 -5.0578 -0.0451511 0
M  V30 7587 C 703.084 -4.30323 -1.1721 0
M  V30 7588 C 703.785 -5.81 0.285344 0
M  V30 7589 N 702.761 -5.42591 -0.330993 0
M  V30 7590 H 706.563 -2.92655 0.270221 0
M  V30 7591 H 704.077 -1.60476 0.249226 0
M  V30 7592 H 706.074 -3.6014 -2.10011 0
M  V30 7593 H 704.734 -2.42622 -2.15788 0
M  V30 7594 H 705.745 -5.16903 0.321271 0
M  V30 7595 H 702.422 -3.75037 -1.83448 0
M  V30 7596 H 703.812 -6.64646 0.984626 0
M  V30 7597 N 706.532 -0.168513 -1.56696 0
M  V30 7598 C 707.482 0.7751 -2.14421 0
M  V30 7599 C 708.466 1.19476 -1.07769 0
M  V30 7600 O 709.658 1.15759 -1.33898 0
M  V30 7601 C 706.787 2.00549 -2.7863 0
M  V30 7602 C 705.873 1.60795 -3.92436 0
M  V30 7603 N 706.264 0.919812 -4.97366 0
M  V30 7604 C 704.562 1.89917 -4.03544 0
M  V30 7605 C 705.263 0.724485 -5.77171 0
M  V30 7606 N 704.239 1.26505 -5.28675 0
M  V30 7607 H 708.041 0.240349 -2.92916 0
M  V30 7608 H 705.555 0.0322675 -1.62368 0
M  V30 7609 H 707.552 2.6917 -3.1836 0
M  V30 7610 H 706.212 2.54522 -2.01615 0
M  V30 7611 H 707.223 0.578169 -5.14663 0
M  V30 7612 H 703.9 2.45587 -3.37629 0
M  V30 7613 H 705.29 0.180521 -6.71657 0
M  V30 7614 N 708.01 1.57248 0.105221 0
M  V30 7615 C 709.238 1.89768 0.82437 0
M  V30 7616 C 709.653 0.761192 1.72775 0
M  V30 7617 O 709.01 -0.267342 1.80531 0
M  V30 7618 C 709.061 3.2184 1.64625 0
M  V30 7619 O 708.782 4.31115 0.779217 0
M  V30 7620 C 710.283 3.68155 2.46935 0
M  V30 7621 H 707.503 0.628031 0.236259 0
M  V30 7622 H 710.047 2.04321 0.085485 0
M  V30 7623 H 708.202 3.08915 2.33775 0
M  V30 7624 H 708.616 5.06897 1.34745 0
M  V30 7625 H 710.09 4.6329 3.00111 0
M  V30 7626 H 710.567 2.95492 3.24932 0
M  V30 7627 H 711.173 3.83914 1.83002 0
M  V30 7628 N 709.488 -0.375779 1.53054 0
M  V30 7629 C 710.716 -1.14036 1.72637 0
M  V30 7630 C 711.131 -1.83342 0.450687 0
M  V30 7631 O 710.488 -1.7318 -0.575749 0
M  V30 7632 C 710.539 -2.17841 2.88492 0
M  V30 7633 O 710.26 -1.51358 4.11123 0
M  V30 7634 C 711.761 -3.06924 3.19863 0
M  V30 7635 H 708.981 -0.341386 0.577665 0
M  V30 7636 H 711.525 -0.437809 1.99759 0
M  V30 7637 H 709.68 -2.8371 2.63794 0
M  V30 7638 H 710.094 -2.20439 4.75928 0
M  V30 7639 H 711.568 -3.75763 4.04359 0
M  V30 7640 H 712.045 -3.71169 2.34798 0
M  V30 7641 H 712.651 -2.46684 3.46449 0
M  V30 7642 N 710.966 -1.44241 -0.634997 0
M  V30 7643 C 712.215 -1.46102 -1.39058 0
M  V30 7644 C 712.528 -0.0959909 -1.95364 0
M  V30 7645 O 713.734 0.00788751 -2.71499 0
M  V30 7646 C 712.19 -2.57195 -2.51751 0
M  V30 7647 C 711.798 -3.99888 -2.01974 0
M  V30 7648 C 713.542 -2.68272 -3.28984 0
M  V30 7649 C 711.449 -5.02412 -3.11987 0
M  V30 7650 H 710.379 -0.543556 -0.522554 0
M  V30 7651 H 713.03 -1.70294 -0.683538 0
M  V30 7652 H 711.412 -2.26237 -3.25012 0
M  V30 7653 H 712.586 -4.40396 -1.35604 0
M  V30 7654 H 710.901 -3.93019 -1.37568 0
M  V30 7655 H 713.498 -3.42042 -4.10988 0
M  V30 7656 H 713.841 -1.73957 -3.78212 0
M  V30 7657 H 714.374 -2.98622 -2.62812 0
M  V30 7658 H 711.113 -5.98342 -2.67707 0
M  V30 7659 H 710.633 -4.66501 -3.77011 0
M  V30 7660 H 712.312 -5.25939 -3.76825 0
M  V30 7661 N 712.444 0.87505 -1.31075 0
M  V30 7662 C 713.69 1.63009 -1.20647 0
M  V30 7663 C 714.023 1.9276 0.236045 0
M  V30 7664 O 713.298 1.55559 1.16754 0
M  V30 7665 C 713.581 2.96357 -2.0456 0
M  V30 7666 C 713.434 2.73516 -3.57084 0
M  V30 7667 C 714.753 3.974 -1.89107 0
M  V30 7668 H 711.872 0.591518 -0.439631 0
M  V30 7669 H 714.514 1.0119 -1.60812 0
M  V30 7670 H 712.664 3.49119 -1.70435 0
M  V30 7671 H 714.336 2.27465 -4.01319 0
M  V30 7672 H 712.579 2.0784 -3.80769 0
M  V30 7673 H 713.25 3.68377 -4.11099 0
M  V30 7674 H 715.726 3.5383 -2.18961 0
M  V30 7675 H 714.602 4.88596 -2.5013 0
M  V30 7676 H 714.863 4.33794 -0.85296 0
M  V30 7677 N 713.922 1.13953 1.08869 0
M  V30 7678 C 714.885 0.824991 2.13838 0
M  V30 7679 C 715.885 -0.168198 1.59918 0
M  V30 7680 O 717.075 0.0595778 1.74098 0
M  V30 7681 C 714.207 0.228938 3.4013 0
M  V30 7682 H 715.4 1.75521 2.43171 0
M  V30 7683 H 712.953 0.94492 1.24503 0
M  V30 7684 H 713.688 -0.710227 3.16427 0
M  V30 7685 H 713.473 0.944243 3.80561 0
M  V30 7686 H 714.963 0.0259223 4.17592 0
M  V30 7687 N 715.4 -1.26948 0.933913 0
M  V30 7688 C 716.628 -1.98186 0.59414 0
M  V30 7689 C 717.043 -1.69614 -0.829257 0
M  V30 7690 O 716.4 -0.960213 -1.55197 0
M  V30 7691 C 716.451 -3.52123 0.818026 0
M  V30 7692 O 716.172 -3.79698 2.18543 0
M  V30 7693 C 717.673 -4.40608 0.48781 0
M  V30 7694 H 714.893 -0.632305 0.224569 0
M  V30 7695 H 717.437 -1.61646 1.25263 0
M  V30 7696 H 715.592 -3.86851 0.206246 0
M  V30 7697 H 716.006 -4.7426 2.24005 0
M  V30 7698 H 717.48 -5.47606 0.695126 0
M  V30 7699 H 717.957 -4.35394 -0.576913 0
M  V30 7700 H 718.563 -4.11411 1.078 0
M  V30 7701 N 716.879 -0.700114 -1.41195 0
M  V30 7702 C 718.295 -0.372114 -1.55201 0
M  V30 7703 C 718.495 1.12053 -1.6747 0
M  V30 7704 O 717.551 1.90642 -1.65566 0
M  V30 7705 C 718.864 -1.12462 -2.78878 0
M  V30 7706 C 720.412 -1.10941 -2.92679 0
M  V30 7707 C 720.887 -1.84376 -4.19249 0
M  V30 7708 N 722.378 -1.81368 -4.26216 0
M  V30 7709 C 723.113 -2.35024 -5.23021 0
M  V30 7710 N 722.609 -2.9717 -6.25829 0
M  V30 7711 N 724.402 -2.25254 -5.14992 0
M  V30 7712 H 716.553 -1.66816 -1.31477 0
M  V30 7713 H 718.816 -0.704223 -0.634644 0
M  V30 7714 H 718.522 -2.17937 -2.76037 0
M  V30 7715 H 718.396 -0.706152 -3.70531 0
M  V30 7716 H 720.783 -0.062911 -2.95033 0
M  V30 7717 H 720.864 -1.56698 -2.02187 0
M  V30 7718 H 720.508 -2.89008 -4.17656 0
M  V30 7719 H 720.438 -1.3605 -5.08722 0
M  V30 7720 H 722.929 -1.36062 -3.52556 0
M  V30 7721 H 723.242 -3.35668 -6.96094 0
M  V30 7722 H 721.587 -3.01249 -6.26318 0
M  V30 7723 H 724.778 -1.76372 -4.33602 0
M  V30 7724 H 724.951 -2.67373 -5.90268 0
M  V30 7725 N 718.357 1.51182 -0.445186 0
M  V30 7726 C 719.307 2.24804 0.380394 0
M  V30 7727 C 720.291 1.27344 0.983482 0
M  V30 7728 O 721.483 1.52392 0.900322 0
M  V30 7729 C 718.612 3.09922 1.4766 0
M  V30 7730 C 717.698 4.14816 0.882517 0
M  V30 7731 N 718.089 5.05797 0.0183278 0
M  V30 7732 C 716.387 4.30938 1.14927 0
M  V30 7733 C 717.088 5.8084 -0.316152 0
M  V30 7734 N 716.064 5.42759 0.302214 0
M  V30 7735 H 719.866 2.92508 -0.285737 0
M  V30 7736 H 717.38 1.60342 -0.257733 0
M  V30 7737 H 719.377 3.61249 2.08098 0
M  V30 7738 H 718.037 2.43763 2.14498 0
M  V30 7739 H 719.048 5.16725 -0.348679 0
M  V30 7740 H 715.725 3.76005 1.81457 0
M  V30 7741 H 717.115 6.64115 -1.01986 0
M  V30 7742 N 719.835 0.176821 1.56605 0
M  V30 7743 C 721.065 -0.472142 2.01133 0
M  V30 7744 C 721.473 -1.56979 1.05614 0
M  V30 7745 O 720.816 -1.83632 0.0500137 0
M  V30 7746 C 720.878 -1.10547 3.42081 0
M  V30 7747 C 720.542 -0.148806 4.56758 0
M  V30 7748 C 721.539 0.634939 5.16008 0
M  V30 7749 C 719.224 -0.0430325 5.02282 0
M  V30 7750 C 721.218 1.5116 6.19217 0
M  V30 7751 C 718.905 0.83721 6.05338 0
M  V30 7752 C 719.903 1.61311 6.63677 0
M  V30 7753 O 719.591 2.47863 7.64735 0
M  V30 7754 H 719.323 -0.124725 0.664394 0
M  V30 7755 H 721.877 0.277329 2.03519 0
M  V30 7756 H 720.107 -1.90318 3.36625 0
M  V30 7757 H 721.796 -1.6572 3.70529 0
M  V30 7758 H 722.562 0.563424 4.81716 0
M  V30 7759 H 718.441 -0.636753 4.56581 0
M  V30 7760 H 721.985 2.11767 6.64681 0
M  V30 7761 H 717.882 0.909908 6.39055 0
M  V30 7762 H 718.65 2.4144 7.8208 0
M  V30 7763 N 721.313 -1.57302 -0.09688 0
M  V30 7764 C 722.729 -1.53094 -0.451041 0
M  V30 7765 C 722.929 -0.893265 -1.80618 0
M  V30 7766 O 721.985 -0.485013 -2.47798 0
M  V30 7767 C 723.298 -2.9782 -0.415172 0
M  V30 7768 C 724.846 -3.09026 -0.497155 0
M  V30 7769 C 725.321 -4.55356 -0.491452 0
M  V30 7770 N 726.812 -4.59896 -0.552258 0
M  V30 7771 C 727.547 -5.70563 -0.569654 0
M  V30 7772 N 727.043 -6.90666 -0.543365 0
M  V30 7773 N 728.836 -5.58733 -0.614331 0
M  V30 7774 H 720.987 -1.97131 0.790771 0
M  V30 7775 H 723.25 -0.901211 0.294147 0
M  V30 7776 H 722.956 -3.47933 0.513362 0
M  V30 7777 H 722.83 -3.56416 -1.23481 0
M  V30 7778 H 725.217 -2.58902 -1.41611 0
M  V30 7779 H 725.298 -2.53386 0.35059 0
M  V30 7780 H 724.942 -5.06131 0.423549 0
M  V30 7781 H 724.872 -5.08832 -1.35639 0
M  V30 7782 H 727.363 -3.73456 -0.577842 0
M  V30 7783 H 727.676 -7.70769 -0.559873 0
M  V30 7784 H 726.021 -6.93123 -0.510441 0
M  V30 7785 H 729.212 -4.63809 -0.632387 0
M  V30 7786 H 729.385 -6.44984 -0.62442 0
M  V30 7787 N 722.791 0.367657 -1.53252 0
M  V30 7788 C 724.202 0.944563 -1.61043 0
M  V30 7789 C 724.553 1.90325 -0.476546 0
M  V30 7790 O 723.678 2.12721 0.397333 0
M  V30 7791 C 724.273 1.71992 -2.91898 0
M  V30 7792 C 722.832 2.2462 -3.02031 0
M  V30 7793 C 721.979 1.05799 -2.56324 0
M  V30 7794 H 724.93 0.146516 -1.58022 0
M  V30 7795 H 724.951 2.58095 -2.79584 0
M  V30 7796 H 724.463 1.02192 -3.74404 0
M  V30 7797 H 722.564 2.97668 -2.24108 0
M  V30 7798 H 722.677 2.52644 -4.07073 0
M  V30 7799 H 721.041 1.42435 -2.1115 0
M  V30 7800 H 721.824 0.375008 -3.41246 0
M  V30 7801 N 724.269 1.44576 0.627338 0
M  V30 7802 C 725.68 1.42266 1.20902 0
M  V30 7803 C 726.031 0.139964 1.957 0
M  V30 7804 O 725.156 -0.759489 2.02634 0
M  V30 7805 C 725.751 2.57727 2.19914 0
M  V30 7806 C 724.31 2.58599 2.73502 0
M  V30 7807 C 723.457 2.34145 1.48564 0
M  V30 7808 H 726.408 1.53102 0.417791 0
M  V30 7809 H 726.429 2.30697 3.02588 0
M  V30 7810 H 725.941 3.51068 1.65447 0
M  V30 7811 H 724.042 1.6921 3.31962 0
M  V30 7812 H 724.155 3.57205 3.19282 0
M  V30 7813 H 722.519 1.83313 1.76829 0
M  V30 7814 H 723.302 3.29606 0.959935 0
M  V30 7815 N 725.747 -0.868086 1.31537 0
M  V30 7816 C 726.657 -2.00801 1.21311 0
M  V30 7817 C 727.673 -1.73518 0.129431 0
M  V30 7818 O 728.849 -1.98378 0.347588 0
M  V30 7819 C 725.914 -3.3419 0.922935 0
M  V30 7820 C 724.975 -3.74783 2.0937 0
M  V30 7821 C 724.208 -5.01807 1.81728 0
M  V30 7822 O 724.431 -5.65404 0.753313 0
M  V30 7823 O 723.365 -5.39213 2.67457 0
M  V30 7824 H 727.191 -2.12361 2.17109 0
M  V30 7825 H 724.776 -0.996684 1.11295 0
M  V30 7826 H 726.658 -4.14174 0.777033 0
M  V30 7827 H 725.333 -3.237 -0.00500301 0
M  V30 7828 H 724.24 -2.95432 2.29501 0
M  V30 7829 H 725.573 -3.89902 3.00396 0
M  V30 7830 N 727.225 -1.14528 -1.08264 0
M  V30 7831 C 728.471 -0.91576 -1.80947 0
M  V30 7832 C 728.804 0.55623 -1.86064 0
M  V30 7833 O 728.079 1.41207 -1.33756 0
M  V30 7834 C 728.362 -1.51917 -3.26486 0
M  V30 7835 C 728.215 -3.06111 -3.2957 0
M  V30 7836 C 729.534 -1.19724 -4.23502 0
M  V30 7837 H 726.653 -0.334113 -0.656915 0
M  V30 7838 H 729.295 -1.41547 -1.26746 0
M  V30 7839 H 727.445 -1.0942 -3.72773 0
M  V30 7840 H 729.117 -3.57448 -2.91597 0
M  V30 7841 H 727.36 -3.40483 -2.688 0
M  V30 7842 H 728.031 -3.43438 -4.32151 0
M  V30 7843 H 730.507 -1.56467 -3.85561 0
M  V30 7844 H 729.383 -1.64575 -5.23647 0
M  V30 7845 H 729.644 -0.112771 -4.41956 0
M  V30 7846 N 728.703 1.26451 -0.940633 0
M  V30 7847 C 729.952 1.93071 -0.583656 0
M  V30 7848 C 730.265 1.74618 0.881366 0
M  V30 7849 O 731.471 2.35689 1.34769 0
M  V30 7850 C 729.927 3.45927 -0.993106 0
M  V30 7851 C 729.535 3.73115 -2.4797 0
M  V30 7852 C 731.279 4.18554 -0.707998 0
M  V30 7853 C 729.186 5.19408 -2.82788 0
M  V30 7854 H 728.116 0.722824 -0.214572 0
M  V30 7855 H 730.767 1.43538 -1.1432 0
M  V30 7856 H 729.149 3.94341 -0.362099 0
M  V30 7857 H 730.323 3.35408 -3.15971 0
M  V30 7858 H 728.638 3.13719 -2.73805 0
M  V30 7859 H 731.235 5.26293 -0.94447 0
M  V30 7860 H 731.578 4.14782 0.355225 0
M  V30 7861 H 732.111 3.76003 -1.2987 0
M  V30 7862 H 728.85 5.28281 -3.88071 0
M  V30 7863 H 728.37 5.58214 -2.19449 0
M  V30 7864 H 730.049 5.87407 -2.71224 0
M  V30 7865 N 730.181 0.707592 1.40822 0
M  V30 7866 C 731.111 0.0644925 2.33411 0
M  V30 7867 C 732.092 -0.754205 1.52466 0
M  V30 7868 O 733.277 -0.704749 1.80961 0
M  V30 7869 C 730.407 -0.863865 3.36385 0
M  V30 7870 C 729.361 -0.15138 4.27732 0
M  V30 7871 C 728.687 -1.19491 5.21177 0
M  V30 7872 C 729.987 0.989607 5.12839 0
M  V30 7873 H 731.681 0.837829 2.87438 0
M  V30 7874 H 729.227 0.404346 1.38207 0
M  V30 7875 H 731.18 -1.32309 4.0009 0
M  V30 7876 H 729.904 -1.66901 2.80734 0
M  V30 7877 H 728.563 0.287937 3.65467 0
M  V30 7878 H 728.211 -1.9929 4.61836 0
M  V30 7879 H 727.911 -0.723123 5.83134 0
M  V30 7880 H 729.435 -1.6544 5.8776 0
M  V30 7881 H 730.849 0.610114 5.70044 0
M  V30 7882 H 729.246 1.38926 5.83798 0
M  V30 7883 H 730.316 1.82389 4.49291 0
M  V30 7884 N 731.66 -1.50943 0.453197 0
M  V30 7885 C 732.57 -2.31884 -0.355963 0
M  V30 7886 C 733.586 -1.41481 -1.01287 0
M  V30 7887 O 734.762 -1.74546 -1.00477 0
M  V30 7888 C 731.827 -3.15668 -1.43369 0
M  V30 7889 C 730.888 -4.2187 -0.795253 0
M  V30 7890 C 730.121 -5.0165 -1.82162 0
M  V30 7891 O 730.344 -4.82266 -3.04592 0
M  V30 7892 O 729.278 -5.85311 -1.40336 0
M  V30 7893 H 733.104 -3.02162 0.305248 0
M  V30 7894 H 730.689 -1.47839 0.215398 0
M  V30 7895 H 732.571 -3.67709 -2.05836 0
M  V30 7896 H 731.246 -2.48137 -2.07869 0
M  V30 7897 H 730.153 -3.73867 -0.132106 0
M  V30 7898 H 731.486 -4.9182 -0.193484 0
M  V30 7899 N 733.138 -0.185124 -1.56509 0
M  V30 7900 C 734.068 0.735098 -2.21627 0
M  V30 7901 C 735.049 1.2288 -1.1762 0
M  V30 7902 O 736.234 1.27945 -1.46095 0
M  V30 7903 C 733.364 1.95889 -2.86783 0
M  V30 7904 C 732.318 1.6005 -3.96948 0
M  V30 7905 C 731.644 2.90009 -4.4922 0
M  V30 7906 C 732.944 0.818008 -5.15855 0
M  V30 7907 H 734.638 0.192274 -2.98782 0
M  V30 7908 H 732.184 0.0910393 -1.43712 0
M  V30 7909 H 734.137 2.60779 -3.31017 0
M  V30 7910 H 732.861 2.52608 -2.07018 0
M  V30 7911 H 731.52 0.975237 -3.5339 0
M  V30 7912 H 731.168 3.44797 -3.6623 0
M  V30 7913 H 730.868 2.66778 -5.23549 0
M  V30 7914 H 732.392 3.55904 -4.9615 0
M  V30 7915 H 733.806 1.36979 -5.56695 0
M  V30 7916 H 732.203 0.684207 -5.96187 0
M  V30 7917 H 733.273 -0.182939 -4.84555 0
M  V30 7918 N 734.616 1.57351 0.0885366 0
M  V30 7919 C 735.864 1.86051 0.789262 0
M  V30 7920 C 736.185 0.774763 1.78948 0
M  V30 7921 O 735.455 -0.198324 1.94894 0
M  V30 7922 H 734.035 0.686508 0.294475 0
M  V30 7923 H 736.697 1.94779 0.0686055 0
M  V30 7924 H 735.793 2.83007 1.31581 0
M  V30 7925 N 736.094 -0.359525 1.53444 0
M  V30 7926 C 737.34 -1.09958 1.71116 0
M  V30 7927 C 737.695 -1.8681 0.460414 0
M  V30 7928 O 736.988 -1.83635 -0.5467 0
M  V30 7929 C 737.182 -2.08287 2.90433 0
M  V30 7930 C 737.011 -1.41098 4.26991 0
M  V30 7931 C 735.781 -1.16255 4.91745 0
M  V30 7932 C 737.979 -0.845517 5.07302 0
M  V30 7933 N 735.961 -0.454798 6.12213 0
M  V30 7934 C 737.332 -0.267455 6.19423 0
M  V30 7935 C 739.387 -0.744797 4.92298 0
M  V30 7936 C 738.09 0.401511 7.18179 0
M  V30 7937 C 740.116 -0.0896013 5.91332 0
M  V30 7938 C 739.478 0.47756 7.02779 0
M  V30 7939 H 735.577 -0.387305 0.679352 0
M  V30 7940 H 738.161 -0.38519 1.90852 0
M  V30 7941 H 736.332 -2.77034 2.72226 0
M  V30 7942 H 738.064 -2.75015 2.96899 0
M  V30 7943 H 734.819 -1.44544 4.51003 0
M  V30 7944 H 735.243 -0.116108 6.769 0
M  V30 7945 H 739.885 -1.16905 4.06317 0
M  V30 7946 H 737.603 0.837694 8.03746 0
M  V30 7947 H 741.189 -0.0125162 5.81799 0
M  V30 7948 H 740.069 0.976522 7.78096 0
M  V30 7949 N 737.572 -1.44907 -0.619662 0
M  V30 7950 C 738.535 -1.52282 -1.71297 0
M  V30 7951 C 739.535 -0.40359 -1.55653 0
M  V30 7952 O 740.725 -0.666638 -1.6094 0
M  V30 7953 C 737.857 -1.40778 -3.10474 0
M  V30 7954 H 739.05 -2.49683 -1.66128 0
M  V30 7955 H 736.603 -1.32168 -0.834339 0
M  V30 7956 H 737.338 -0.445156 -3.2123 0
M  V30 7957 H 737.123 -2.21947 -3.23237 0
M  V30 7958 H 738.613 -1.48946 -3.90135 0
M  V30 7959 N 739.05 0.861098 -1.31996 0
M  V30 7960 C 739.982 1.97551 -1.16216 0
M  V30 7961 C 740.995 1.625 -0.0988527 0
M  V30 7962 O 742.184 1.75091 -0.3472 0
M  V30 7963 C 739.284 3.30376 -0.755307 0
M  V30 7964 C 738.457 3.93711 -1.90552 0
M  V30 7965 C 737.516 5.04862 -1.48328 0
M  V30 7966 O 736.542 5.25204 -2.19431 0
M  V30 7967 N 737.744 5.79283 -0.375656 0
M  V30 7968 H 740.509 2.11632 -2.12208 0
M  V30 7969 H 738.07 1.03559 -1.24448 0
M  V30 7970 H 740.062 4.0213 -0.455364 0
M  V30 7971 H 738.632 3.12395 0.113269 0
M  V30 7972 H 737.852 3.14825 -2.37231 0
M  V30 7973 H 739.14 4.32762 -2.67571 0
M  V30 7974 H 738.538 5.65286 0.216284 0
M  V30 7975 H 737.095 6.5166 -0.135289 0
M  V30 7976 N 740.528 1.15101 1.07655 0
M  V30 7977 C 741.939 0.933848 1.61667 0
M  V30 7978 C 742.29 -0.525569 1.8903 0
M  V30 7979 O 741.415 -1.39605 1.65346 0
M  V30 7980 C 742.01 1.68876 2.93711 0
M  V30 7981 C 740.569 1.51697 3.44478 0
M  V30 7982 C 739.716 1.70633 2.18586 0
M  V30 7983 H 742.667 1.30171 0.907816 0
M  V30 7984 H 742.688 1.15645 3.625 0
M  V30 7985 H 742.2 2.7509 2.73764 0
M  V30 7986 H 740.301 0.478635 3.69513 0
M  V30 7987 H 740.414 2.29194 4.20722 0
M  V30 7988 H 738.778 1.13259 2.28132 0
M  V30 7989 H 739.561 2.78206 2.01137 0
M  V30 7990 N 742.006 -1.2595 0.947325 0
M  V30 7991 C 743.246 -1.95218 0.605743 0
M  V30 7992 C 743.61 -1.72624 -0.84054 0
M  V30 7993 O 744.811 -2.35748 -1.29136 0
M  V30 7994 C 743.082 -3.44654 0.94596 0
M  V30 7995 S 744.641 -4.32922 0.715849 0
M  V30 7996 H 741.459 -0.675159 0.222894 0
M  V30 7997 H 744.061 -1.52766 1.21995 0
M  V30 7998 H 742.765 -3.586 1.99585 0
M  V30 7999 H 742.296 -3.92082 0.321718 0
M  V30 8000 H 744.311 -4.94445 -0.416959 0
M  V30 8001 N 743.484 -0.715051 -1.40445 0
M  V30 8002 C 744.761 -0.181503 -1.94756 0
M  V30 8003 C 745.141 1.31268 -1.65324 0
M  V30 8004 O 744.489 2.0686 -0.970631 0
M  V30 8005 C 744.699 -0.493663 -3.45491 0
M  V30 8006 C 746.047 -0.432032 -4.22396 0
M  V30 8007 O 747.071 -0.429692 -3.53599 0
M  V30 8008 O 745.93 -0.409091 -5.44967 0
M  V30 8009 H 743.024 -0.0263989 -0.826579 0
M  V30 8010 H 745.57 -0.792546 -1.50056 0
M  V30 8011 H 744.342 -1.52713 -3.6027 0
M  V30 8012 H 743.965 0.14737 -3.97327 0
M  V30 8013 N 744.962 1.50701 -0.461195 0
M  V30 8014 C 746.208 2.02566 0.0973411 0
M  V30 8015 C 746.541 1.3432 1.40257 0
M  V30 8016 O 745.816 0.465692 1.88843 0
M  V30 8017 C 746.099 3.58919 0.291423 0
M  V30 8018 C 745.952 4.37751 -1.03413 0
M  V30 8019 C 747.271 4.27379 1.05048 0
M  V30 8020 H 744.39 0.73622 0.0339026 0
M  V30 8021 H 747.032 1.80115 -0.604855 0
M  V30 8022 H 745.182 3.78179 0.889539 0
M  V30 8023 H 746.854 4.30085 -1.66806 0
M  V30 8024 H 745.097 4.01885 -1.63313 0
M  V30 8025 H 745.768 5.45384 -0.852085 0
M  V30 8026 H 748.244 4.12534 0.543603 0
M  V30 8027 H 747.12 5.36609 1.15506 0
M  V30 8028 H 747.381 3.89868 2.0846 0
M  V30 8029 N 746.441 0.193421 1.56409 0
M  V30 8030 C 747.687 -0.43983 1.98588 0
M  V30 8031 C 748.042 -1.59353 1.07816 0
M  V30 8032 O 747.335 -1.9121 0.122226 0
M  V30 8033 C 747.529 -0.949718 3.44551 0
M  V30 8034 C 747.358 0.153045 4.49439 0
M  V30 8035 C 746.128 0.610119 5.01603 0
M  V30 8036 C 748.326 0.961397 5.05234 0
M  V30 8037 N 746.308 1.69088 5.90155 0
M  V30 8038 C 747.679 1.8916 5.90439 0
M  V30 8039 C 749.734 1.004 4.87672 0
M  V30 8040 C 748.437 2.86086 6.5996 0
M  V30 8041 C 750.463 1.96131 5.57931 0
M  V30 8042 C 749.825 2.87895 6.42881 0
M  V30 8043 H 745.924 -0.128415 0.771384 0
M  V30 8044 H 748.508 0.29873 1.92395 0
M  V30 8045 H 746.679 -1.65772 3.51246 0
M  V30 8046 H 748.411 -1.55344 3.73698 0
M  V30 8047 H 745.166 0.203771 4.73161 0
M  V30 8048 H 745.59 2.23241 6.39134 0
M  V30 8049 H 750.232 0.308536 4.21673 0
M  V30 8050 H 747.95 3.56609 7.25159 0
M  V30 8051 H 751.536 2.00066 5.46319 0
M  V30 8052 H 750.416 3.60763 6.9629 0
M  V30 8053 N 747.919 -1.57396 -0.0801906 0
M  V30 8054 C 749.144 -1.91437 -0.797909 0
M  V30 8055 C 749.569 -0.789075 -1.70749 0
M  V30 8056 O 748.927 0.25857 -1.79447 0
M  V30 8057 C 748.975 -3.24402 -1.57467 0
M  V30 8058 O 748.079 -3.13043 -2.68473 0
M  V30 8059 H 747.42 -0.627109 -0.218243 0
M  V30 8060 H 749.95 -2.04537 -0.050949 0
M  V30 8061 H 749.96 -3.58072 -1.95571 0
M  V30 8062 H 748.635 -4.05884 -0.907229 0
M  V30 8063 H 747.212 -2.90915 -2.33287 0
M  V30 8064 N 749.397 0.351382 -1.53633 0
M  V30 8065 C 750.646 1.08988 -1.69719 0
M  V30 8066 C 750.959 1.90043 -0.462948 0
M  V30 8067 O 752.165 2.66769 -0.504613 0
M  V30 8068 C 750.621 1.98691 -3.00083 0
M  V30 8069 C 750.229 1.22881 -4.30818 0
M  V30 8070 C 751.973 2.72446 -3.25536 0
M  V30 8071 C 749.88 2.11568 -5.52262 0
M  V30 8072 H 748.81 0.410588 -0.632403 0
M  V30 8073 H 751.461 0.349886 -1.80133 0
M  V30 8074 H 749.843 2.76478 -2.83506 0
M  V30 8075 H 751.017 0.500582 -4.58073 0
M  V30 8076 H 749.332 0.60928 -4.11918 0
M  V30 8077 H 751.929 3.39055 -4.13456 0
M  V30 8078 H 752.272 3.38588 -2.42206 0
M  V30 8079 H 752.805 2.01735 -3.42852 0
M  V30 8080 H 749.544 1.4998 -6.38111 0
M  V30 8081 H 749.064 2.82201 -5.29266 0
M  V30 8082 H 750.743 2.70802 -5.87601 0
M  V30 8083 N 750.875 1.45233 0.611969 0
M  V30 8084 C 752.123 1.48727 1.36838 0
M  V30 8085 C 752.444 0.128616 1.94575 0
M  V30 8086 O 751.714 -0.84149 1.76906 0
M  V30 8087 H 750.294 0.547695 0.507976 0
M  V30 8088 H 752.956 1.81156 0.718925 0
M  V30 8089 H 752.052 2.2236 2.19003 0
M  V30 8090 N 752.353 -0.854086 1.3245 0
M  V30 8091 C 753.593 -1.62216 1.2436 0
M  V30 8092 C 753.957 -1.91042 -0.191564 0
M  V30 8093 O 755.158 -2.65864 -0.396211 0
M  V30 8094 C 753.429 -2.9066 2.0797 0
M  V30 8095 S 754.988 -3.81438 2.16911 0
M  V30 8096 H 751.806 -0.556386 0.442669 0
M  V30 8097 H 754.408 -1.01139 1.67305 0
M  V30 8098 H 753.112 -2.6743 3.11302 0
M  V30 8099 H 752.643 -3.56753 1.65805 0
M  V30 8100 H 754.658 -4.78347 1.31903 0
M  V30 8101 N 753.831 -1.1567 -1.07043 0
M  V30 8102 C 755.08 -0.928039 -1.79082 0
M  V30 8103 C 755.393 0.545968 -1.87826 0
M  V30 8104 O 756.599 0.892308 -2.56418 0
M  V30 8105 C 755.055 -1.61103 -3.21829 0
M  V30 8106 C 754.663 -3.12228 -3.21275 0
M  V30 8107 C 756.407 -1.46404 -3.98455 0
M  V30 8108 C 754.314 -3.733 -4.58695 0
M  V30 8109 H 753.244 -0.34357 -0.671175 0
M  V30 8110 H 755.895 -1.38718 -1.20123 0
M  V30 8111 H 754.277 -1.07958 -3.81 0
M  V30 8112 H 755.451 -3.72155 -2.71731 0
M  V30 8113 H 753.766 -3.26725 -2.58147 0
M  V30 8114 H 756.363 -1.8942 -5.00024 0
M  V30 8115 H 756.706 -0.41195 -4.14257 0
M  V30 8116 H 757.239 -1.96663 -3.45787 0
M  V30 8117 H 753.978 -4.78423 -4.48098 0
M  V30 8118 H 753.498 -3.18157 -5.08465 0
M  V30 8119 H 755.177 -3.7441 -5.27661 0
M  V30 8120 N 755.309 1.25446 -0.953992 0
M  V30 8121 C 756.239 2.28264 -0.491717 0
M  V30 8122 C 757.22 1.63717 0.461617 0
M  V30 8123 O 758.405 1.90821 0.36071 0
M  V30 8124 C 755.535 3.46525 0.231915 0
M  V30 8125 C 754.489 4.23247 -0.636098 0
M  V30 8126 C 753.815 5.34254 0.218238 0
M  V30 8127 C 755.115 4.85971 -1.91389 0
M  V30 8128 H 756.809 2.67183 -1.35106 0
M  V30 8129 H 754.355 1.2844 -0.651095 0
M  V30 8130 H 756.308 4.17576 0.566439 0
M  V30 8131 H 755.032 3.06594 1.12551 0
M  V30 8132 H 753.691 3.53978 -0.953696 0
M  V30 8133 H 753.339 4.90564 1.11156 0
M  V30 8134 H 753.039 5.86501 -0.359232 0
M  V30 8135 H 754.563 6.08138 0.547743 0
M  V30 8136 H 755.977 5.49168 -1.64581 0
M  V30 8137 H 754.374 5.48391 -2.43696 0
M  V30 8138 H 755.444 4.08192 -2.61738 0
M  V30 8139 N 756.787 0.722489 1.40064 0
M  V30 8140 C 758.034 0.264979 2.00759 0
M  V30 8141 C 758.362 -1.14395 1.57302 0
M  V30 8142 O 757.617 -1.79165 0.787298 0
M  V30 8143 C 757.916 0.300682 3.56133 0
M  V30 8144 C 757.582 1.66087 4.19197 0
M  V30 8145 C 756.244 2.03319 4.36136 0
M  V30 8146 C 758.596 2.55452 4.54306 0
M  V30 8147 C 755.924 3.29448 4.8547 0
M  V30 8148 C 758.276 3.8094 5.05042 0
M  V30 8149 C 756.94 4.1828 5.2019 0
M  V30 8150 H 756.21 0.0969625 0.734629 0
M  V30 8151 H 758.857 0.926877 1.67575 0
M  V30 8152 H 757.162 -0.44479 3.89267 0
M  V30 8153 H 758.859 -0.0712542 4.00937 0
M  V30 8154 H 755.449 1.36137 4.06405 0
M  V30 8155 H 759.633 2.27961 4.40849 0
M  V30 8156 H 754.889 3.58338 4.95382 0
M  V30 8157 H 759.063 4.50351 5.31184 0
M  V30 8158 H 756.69 5.16081 5.58179 0
M  V30 8159 N 758.265 -1.50454 0.469181 0
M  V30 8160 C 759.175 -2.32248 -0.331349 0
M  V30 8161 C 760.191 -1.42548 -0.997807 0
M  V30 8162 O 761.367 -1.75602 -0.9862 0
M  V30 8163 C 758.432 -3.17171 -1.40012 0
M  V30 8164 C 757.493 -4.2269 -0.750463 0
M  V30 8165 C 756.726 -5.03554 -1.76831 0
M  V30 8166 O 756.949 -4.85469 -2.99459 0
M  V30 8167 O 755.883 -5.86767 -1.3412 0
M  V30 8168 H 759.709 -3.01821 0.337279 0
M  V30 8169 H 757.294 -1.47602 0.231066 0
M  V30 8170 H 759.176 -3.69871 -2.01924 0
M  V30 8171 H 757.851 -2.50328 -2.05226 0
M  V30 8172 H 756.758 -3.73986 -0.0924446 0
M  V30 8173 H 758.091 -4.91997 -0.14131 0
M  V30 8174 N 759.743 -0.201713 -1.56304 0
M  V30 8175 C 760.973 0.440084 -2.01858 0
M  V30 8176 C 761.381 1.55279 -1.08098 0
M  V30 8177 O 760.724 1.83529 -0.0792216 0
M  V30 8178 C 760.786 1.05091 -3.43797 0
M  V30 8179 C 760.45 0.0761208 -4.56937 0
M  V30 8180 C 761.447 -0.716951 -5.14933 0
M  V30 8181 C 759.132 -0.0368815 -5.02286 0
M  V30 8182 C 761.126 -1.60993 -6.16733 0
M  V30 8183 C 758.813 -0.933409 -6.03929 0
M  V30 8184 C 759.811 -1.71849 -6.61027 0
M  V30 8185 O 759.499 -2.59998 -7.60695 0
M  V30 8186 H 759.231 0.114139 -0.666294 0
M  V30 8187 H 761.785 -0.309672 -2.03052 0
M  V30 8188 H 760.015 1.84938 -3.3961 0
M  V30 8189 H 761.704 1.59804 -3.73118 0
M  V30 8190 H 762.47 -0.63999 -4.80759 0
M  V30 8191 H 758.349 0.564034 -4.57537 0
M  V30 8192 H 761.893 -2.22315 -6.61227 0
M  V30 8193 H 757.79 -1.01146 -6.37526 0
M  V30 8194 H 758.558 -2.53851 -7.7814 0
M  V30 8195 N 761.222 1.57436 0.0718424 0
M  V30 8196 C 762.452 1.91196 0.782795 0
M  V30 8197 C 762.86 0.795927 1.71644 0
M  V30 8198 O 762.203 -0.239604 1.82131 0
M  V30 8199 C 762.265 3.20421 1.63005 0
M  V30 8200 C 761.929 4.48724 0.865782 0
M  V30 8201 C 762.926 5.19571 0.185051 0
M  V30 8202 C 760.611 4.95345 0.832971 0
M  V30 8203 C 762.605 6.3529 -0.518264 0
M  V30 8204 C 760.292 6.1097 0.125884 0
M  V30 8205 C 761.29 6.80794 -0.548533 0
M  V30 8206 O 760.978 7.94213 -1.24423 0
M  V30 8207 H 760.71 0.636486 0.227731 0
M  V30 8208 H 763.264 2.05348 0.0464187 0
M  V30 8209 H 761.494 3.02478 2.40923 0
M  V30 8210 H 763.183 3.39831 2.21968 0
M  V30 8211 H 763.949 4.8458 0.201707 0
M  V30 8212 H 759.828 4.40871 1.34737 0
M  V30 8213 H 763.372 6.89725 -1.04523 0
M  V30 8214 H 759.269 6.45411 0.107155 0
M  V30 8215 H 760.037 8.10331 -1.1535 0
M  V30 8216 N 762.7 -0.34323 1.53817 0
M  V30 8217 C 764.116 -0.686355 1.44088 0
M  V30 8218 C 764.316 -1.92426 0.597882 0
M  V30 8219 O 763.372 -2.52343 0.0889918 0
M  V30 8220 C 764.685 -0.878698 2.87575 0
M  V30 8221 C 766.233 -0.977296 2.97352 0
M  V30 8222 C 766.708 -1.20195 4.41947 0
M  V30 8223 N 768.199 -1.26915 4.45474 0
M  V30 8224 C 768.934 -1.46049 5.54488 0
M  V30 8225 N 768.43 -1.62354 6.73508 0
M  V30 8226 N 770.223 -1.48599 5.42102 0
M  V30 8227 H 762.374 0.470679 2.07119 0
M  V30 8228 H 764.637 0.148652 0.936273 0
M  V30 8229 H 764.343 -0.040602 3.51677 0
M  V30 8230 H 764.217 -1.78034 3.32541 0
M  V30 8231 H 766.604 -1.80591 2.3339 0
M  V30 8232 H 766.685 -0.0525498 2.55746 0
M  V30 8233 H 766.329 -0.378262 5.06489 0
M  V30 8234 H 766.259 -2.14027 4.81145 0
M  V30 8235 H 768.75 -1.15837 3.59708 0
M  V30 8236 H 769.063 -1.76591 7.52353 0
M  V30 8237 H 767.408 -1.5949 6.76453 0
M  V30 8238 H 770.599 -1.35443 4.48077 0
M  V30 8239 H 770.772 -1.6317 6.2712 0
M  V30 8240 N 764.178 -1.45556 -0.604258 0
M  V30 8241 C 765.426 -1.4945 -1.36048 0
M  V30 8242 C 765.747 -0.138933 -1.94504 0
M  V30 8243 O 765.017 0.832097 -1.7735 0
M  V30 8244 H 763.597 -0.550381 -0.505064 0
M  V30 8245 H 766.259 -1.81535 -0.709308 0
M  V30 8246 H 765.355 -2.23519 -2.17821 0
M  V30 8247 N 765.656 0.84705 -1.32902 0
M  V30 8248 C 766.903 1.60176 -1.23894 0
M  V30 8249 C 767.231 1.93496 0.197341 0
M  V30 8250 O 766.486 1.58173 1.15238 0
M  V30 8251 C 766.785 2.92663 -2.05142 0
M  V30 8252 C 766.451 2.7874 -3.54422 0
M  V30 8253 C 765.113 2.7465 -3.95121 0
M  V30 8254 C 767.465 2.64128 -4.49317 0
M  V30 8255 C 764.793 2.53837 -5.28946 0
M  V30 8256 C 767.145 2.44849 -5.83294 0
M  V30 8257 C 765.809 2.39156 -6.23186 0
M  V30 8258 H 765.079 0.586127 -0.453361 0
M  V30 8259 H 767.726 0.981994 -1.64405 0
M  V30 8260 H 766.031 3.588 -1.57383 0
M  V30 8261 H 767.728 3.50095 -1.95537 0
M  V30 8262 H 764.318 2.82751 -3.22102 0
M  V30 8263 H 768.502 2.66327 -4.18788 0
M  V30 8264 H 763.758 2.4787 -5.58901 0
M  V30 8265 H 767.932 2.32524 -6.56434 0
M  V30 8266 H 765.559 2.22789 -7.26821 0
M  V30 8267 N 767.134 1.16236 1.06428 0
M  V30 8268 C 768.362 0.967184 1.82902 0
M  V30 8269 C 768.777 -0.484601 1.82475 0
M  V30 8270 O 768.134 -1.33631 1.24294 0
M  V30 8271 C 768.185 1.48534 3.29576 0
M  V30 8272 O 767.906 2.88026 3.3011 0
M  V30 8273 C 769.407 1.33298 4.22784 0
M  V30 8274 H 766.627 0.342923 0.576754 0
M  V30 8275 H 769.171 1.54232 1.34286 0
M  V30 8276 H 767.326 0.952513 3.75508 0
M  V30 8277 H 767.74 3.11721 4.21818 0
M  V30 8278 H 769.214 1.74385 5.23731 0
M  V30 8279 H 769.691 0.278356 4.38317 0
M  V30 8280 H 770.297 1.85535 3.82697 0
M  V30 8281 N 768.612 -1.24939 0.960631 0
M  V30 8282 C 769.542 -2.28 0.503815 0
M  V30 8283 C 770.523 -1.63959 -0.452928 0
M  V30 8284 O 771.708 -1.91009 -0.350585 0
M  V30 8285 C 768.838 -3.46643 -0.213535 0
M  V30 8286 C 767.792 -4.22903 0.658535 0
M  V30 8287 C 767.118 -5.34363 -0.189902 0
M  V30 8288 C 768.418 -4.84949 1.93963 0
M  V30 8289 H 770.112 -2.66462 1.36521 0
M  V30 8290 H 767.658 -1.28093 0.657897 0
M  V30 8291 H 769.611 -4.1787 -0.544286 0
M  V30 8292 H 768.335 -3.07187 -1.10923 0
M  V30 8293 H 766.994 -3.53467 0.972455 0
M  V30 8294 H 766.642 -4.91147 -1.08553 0
M  V30 8295 H 766.342 -5.86302 0.390331 0
M  V30 8296 H 767.866 -6.0842 -0.515484 0
M  V30 8297 H 769.28 -5.48288 1.67491 0
M  V30 8298 H 767.677 -5.47091 2.46601 0
M  V30 8299 H 768.747 -4.06799 2.639 0
M  V30 8300 N 770.09 -0.729906 -1.39679 0
M  V30 8301 C 771.337 -0.275622 -2.00615 0
M  V30 8302 C 771.665 1.13559 -1.57907 0
M  V30 8303 O 770.92 1.78745 -0.796789 0
M  V30 8304 C 771.219 -0.319564 -3.55968 0
M  V30 8305 C 770.885 -1.68308 -4.1831 0
M  V30 8306 C 769.547 -2.05629 -4.35052 0
M  V30 8307 C 771.899 -2.57857 -4.52945 0
M  V30 8308 C 769.227 -3.32018 -4.83716 0
M  V30 8309 C 771.579 -3.83613 -5.03015 0
M  V30 8310 C 770.243 -4.21033 -5.17965 0
M  V30 8311 H 769.513 -0.100857 -0.734104 0
M  V30 8312 H 772.16 -0.93575 -1.67081 0
M  V30 8313 H 770.465 0.42414 -3.89497 0
M  V30 8314 H 772.162 0.0499905 -4.00969 0
M  V30 8315 H 768.752 -1.3829 -4.05677 0
M  V30 8316 H 772.936 -2.30295 -4.39634 0
M  V30 8317 H 768.192 -3.6096 -4.93475 0
M  V30 8318 H 772.366 -4.53162 -5.28788 0
M  V30 8319 H 769.993 -5.19034 -5.55435 0
M  V30 8320 N 771.568 1.50203 -0.477153 0
M  V30 8321 C 772.5 2.26508 0.350239 0
M  V30 8322 C 773.513 1.32081 0.95176 0
M  V30 8323 O 774.702 1.57546 0.839139 0
M  V30 8324 C 771.802 3.0361 1.50579 0
M  V30 8325 C 770.975 4.25438 1.01595 0
M  V30 8326 C 770.034 4.84783 2.04626 0
M  V30 8327 O 769.06 5.45528 1.62442 0
M  V30 8328 N 770.262 4.72318 3.37485 0
M  V30 8329 H 773.027 2.98155 -0.30394 0
M  V30 8330 H 770.588 1.58938 -0.308289 0
M  V30 8331 H 772.58 3.4019 2.1921 0
M  V30 8332 H 771.15 2.34724 2.06455 0
M  V30 8333 H 770.37 3.93894 0.155316 0
M  V30 8334 H 771.658 5.04413 0.666694 0
M  V30 8335 H 771.056 4.24022 3.74462 0
M  V30 8336 H 769.613 5.13149 4.01897 0
M  V30 8337 N 773.046 0.209999 1.56195 0
M  V30 8338 C 774.274 -0.429996 2.02382 0
M  V30 8339 C 774.689 -1.54159 1.08998 0
M  V30 8340 O 774.046 -1.82239 0.0974856 0
M  V30 8341 C 774.097 -0.972433 3.48175 0
M  V30 8342 O 773.818 0.0948231 4.37997 0
M  V30 8343 C 775.319 -1.68683 4.09952 0
M  V30 8344 H 772.539 -0.106475 0.662498 0
M  V30 8345 H 775.083 0.323072 2.01932 0
M  V30 8346 H 773.238 -1.67582 3.49278 0
M  V30 8347 H 773.652 -0.31113 5.23576 0
M  V30 8348 H 775.126 -2.01851 5.13771 0
M  V30 8349 H 775.603 -2.59587 3.54276 0
M  V30 8350 H 776.209 -1.02893 4.12666 0
M  V30 8351 N 774.524 -1.57472 -0.0634922 0
M  V30 8352 C 775.474 -2.00709 -1.08166 0
M  V30 8353 C 776.458 -0.890498 -1.34011 0
M  V30 8354 O 777.65 -1.15441 -1.34173 0
M  V30 8355 C 774.779 -2.46148 -2.39303 0
M  V30 8356 C 773.865 -3.64559 -2.16697 0
M  V30 8357 N 774.256 -4.78459 -1.64043 0
M  V30 8358 C 772.554 -3.71269 -2.47135 0
M  V30 8359 C 773.255 -5.60268 -1.56445 0
M  V30 8360 N 772.231 -5.04357 -2.02792 0
M  V30 8361 H 776.033 -2.86208 -0.668016 0
M  V30 8362 H 773.547 -1.60133 -0.270426 0
M  V30 8363 H 775.544 -2.75367 -3.13016 0
M  V30 8364 H 774.204 -1.62041 -2.81377 0
M  V30 8365 H 775.215 -5.00587 -1.32791 0
M  V30 8366 H 771.892 -2.97891 -2.92518 0
M  V30 8367 H 773.282 -6.6172 -1.16519 0
M  V30 8368 N 776.003 0.335068 -1.53997 0
M  V30 8369 C 776.913 1.43511 -1.85585 0
M  V30 8370 C 777.929 1.57162 -0.746726 0
M  V30 8371 O 779.105 1.72477 -1.03988 0
M  V30 8372 C 776.17 2.78386 -2.06646 0
M  V30 8373 C 775.231 2.74007 -3.30483 0
M  V30 8374 C 774.464 4.02449 -3.50529 0
M  V30 8375 O 774.687 5.00147 -2.74242 0
M  V30 8376 O 773.621 4.06405 -4.4398 0
M  V30 8377 H 777.447 1.19731 -2.79102 0
M  V30 8378 H 775.032 0.528033 -1.39758 0
M  V30 8379 H 776.914 3.58247 -2.21894 0
M  V30 8380 H 775.589 3.0208 -1.16317 0
M  V30 8381 H 774.496 1.92736 -3.2063 0
M  V30 8382 H 775.829 2.55267 -4.20832 0
M  V30 8383 N 777.481 1.45874 0.596531 0
M  V30 8384 C 778.429 1.55739 1.72766 0
M  V30 8385 C 779.423 0.426666 1.63939 0
M  V30 8386 O 780.629 0.60301 1.69599 0
M  V30 8387 H 777.004 0.489386 0.570968 0
M  V30 8388 H 778.975 2.50871 1.61575 0
M  V30 8389 C 777.724 1.55174 3.11153 0
M  V30 8390 H 777.047 2.41511 3.1861 0
M  V30 8391 H 778.487 1.66133 3.90097 0
M  V30 8392 C 776.946 0.278001 3.35751 0
M  V30 8393 O 777.476 -0.637557 3.96608 0
M  V30 8394 N 775.682 0.170227 2.90101 0
M  V30 8395 H 775.229 0.916159 2.40758 0
M  V30 8396 H 775.187 -0.68117 3.06932 0
M  V30 8397 N 778.959 -0.83999 1.33349 0
M  V30 8398 C 780.375 -1.13049 1.12659 0
M  V30 8399 C 780.575 -2.01328 -0.0832613 0
M  V30 8400 O 779.631 -2.40669 -0.763856 0
M  V30 8401 C 780.944 -1.79366 2.41347 0
M  V30 8402 C 782.492 -1.91937 2.47243 0
M  V30 8403 C 782.967 -2.6167 3.75889 0
M  V30 8404 N 784.458 -2.69184 3.76954 0
M  V30 8405 C 785.193 -3.23827 4.73206 0
M  V30 8406 N 784.689 -3.79166 5.79832 0
M  V30 8407 N 786.482 -3.22068 4.60683 0
M  V30 8408 H 778.633 -0.252432 2.10895 0
M  V30 8409 H 780.896 -0.174501 0.931801 0
M  V30 8410 H 780.602 -1.2196 3.29877 0
M  V30 8411 H 780.476 -2.79396 2.53412 0
M  V30 8412 H 782.863 -2.48498 1.59163 0
M  V30 8413 H 782.944 -0.908604 2.39119 0
M  V30 8414 H 782.588 -2.05769 4.64351 0
M  V30 8415 H 782.518 -3.63217 3.81289 0
M  V30 8416 H 785.009 -2.2994 2.99893 0
M  V30 8417 H 785.322 -4.19061 6.49313 0
M  V30 8418 H 783.667 -3.77457 5.83568 0
M  V30 8419 H 786.858 -2.78092 3.7654 0
M  V30 8420 H 787.031 -3.64351 5.35866 0
M  V30 8421 N 780.437 -1.16799 -1.0581 0
M  V30 8422 C 781.347 -0.893492 -2.16919 0
M  V30 8423 C 782.363 0.136061 -1.73467 0
M  V30 8424 O 783.539 -0.0417348 -2.01357 0
M  V30 8425 C 780.604 -0.403763 -3.44341 0
M  V30 8426 C 779.665 -1.49914 -4.02274 0
M  V30 8427 C 778.898 -1.03269 -5.23614 0
M  V30 8428 O 779.121 0.115647 -5.70283 0
M  V30 8429 O 778.055 -1.8231 -5.73626 0
M  V30 8430 H 781.881 -1.82274 -2.42919 0
M  V30 8431 H 779.466 -0.948361 -1.1544 0
M  V30 8432 H 781.348 -0.137874 -4.21174 0
M  V30 8433 H 780.023 0.497413 -3.19855 0
M  V30 8434 H 778.93 -1.81883 -3.26909 0
M  V30 8435 H 780.263 -2.3758 -4.31064 0
M  V30 8436 N 781.915 1.24427 -0.967243 0
M  V30 8437 C 782.865 2.23143 -0.468106 0
M  V30 8438 C 783.849 1.5449 0.449633 0
M  V30 8439 O 785.041 1.74761 0.28063 0
M  V30 8440 C 782.17 3.42454 0.240867 0
M  V30 8441 C 781.256 4.18355 -0.695674 0
M  V30 8442 N 781.647 4.71428 -1.83273 0
M  V30 8443 C 779.945 4.43116 -0.506365 0
M  V30 8444 C 780.646 5.29041 -2.41849 0
M  V30 8445 N 779.622 5.16213 -1.70369 0
M  V30 8446 H 783.424 2.61795 -1.3357 0
M  V30 8447 H 780.938 1.39809 -0.826277 0
M  V30 8448 H 782.935 4.12329 0.615668 0
M  V30 8449 H 781.595 3.05323 1.10491 0
M  V30 8450 H 782.606 4.68177 -2.21428 0
M  V30 8451 H 779.283 4.16319 0.313747 0
M  V30 8452 H 780.673 5.80811 -3.37799 0
M  V30 8453 N 783.393 0.737304 1.3929 0
M  V30 8454 C 784.323 0.113988 2.33222 0
M  V30 8455 C 785.304 -0.721695 1.54031 0
M  V30 8456 O 786.489 -0.666206 1.82415 0
M  V30 8457 C 783.619 -0.792319 3.38141 0
M  V30 8458 C 782.573 -0.0606178 4.27957 0
M  V30 8459 C 781.899 -1.08409 5.23595 0
M  V30 8460 C 783.199 1.09817 5.10625 0
M  V30 8461 H 784.893 0.898611 2.85596 0
M  V30 8462 H 782.439 0.433571 1.37318 0
M  V30 8463 H 784.392 -1.23793 4.02807 0
M  V30 8464 H 783.116 -1.60908 2.84211 0
M  V30 8465 H 781.775 0.365393 3.64775 0
M  V30 8466 H 781.423 -1.89449 4.6596 0
M  V30 8467 H 781.123 -0.599269 5.84536 0
M  V30 8468 H 782.647 -1.52936 5.91137 0
M  V30 8469 H 784.061 0.730892 5.68622 0
M  V30 8470 H 782.458 1.51278 5.80719 0
M  V30 8471 H 783.528 1.91878 4.45321 0
M  V30 8472 N 784.871 -1.49948 0.485112 0
M  V30 8473 C 786.117 -2.02695 -0.0651022 0
M  V30 8474 C 786.45 -1.36534 -1.38102 0
M  V30 8475 O 785.725 -0.495677 -1.88078 0
M  V30 8476 C 786.008 -3.59337 -0.234285 0
M  V30 8477 C 785.861 -4.3605 1.10364 0
M  V30 8478 C 787.18 -4.28996 -0.982351 0
M  V30 8479 H 784.299 -0.736666 -0.0221856 0
M  V30 8480 H 786.941 -1.7913 0.633433 0
M  V30 8481 H 785.091 -3.79546 -0.829262 0
M  V30 8482 H 786.763 -4.27377 1.73627 0
M  V30 8483 H 785.006 -3.99236 1.69686 0
M  V30 8484 H 785.677 -5.43959 0.938743 0
M  V30 8485 H 788.153 -4.13346 -0.477904 0
M  V30 8486 H 787.029 -5.38379 -1.06955 0
M  V30 8487 H 787.29 -3.93135 -2.02231 0
M  V30 8488 N 786.349 -0.21828 -1.56081 0
M  V30 8489 C 787.282 0.733096 -2.16104 0
M  V30 8490 C 788.26 1.19333 -1.10447 0
M  V30 8491 O 789.444 1.27666 -1.38685 0
M  V30 8492 C 786.571 1.99283 -2.73868 0
M  V30 8493 C 785.617 1.67285 -3.92324 0
M  V30 8494 S 786.45 0.800511 -5.29483 0
M  V30 8495 C 787.606 2.06988 -5.90683 0
M  V30 8496 H 787.839 0.222917 -2.96463 0
M  V30 8497 H 785.372 -0.00300946 -1.544 0
M  V30 8498 H 787.33 2.71618 -3.07789 0
M  V30 8499 H 785.991 2.47414 -1.93508 0
M  V30 8500 H 785.184 2.60874 -4.31232 0
M  V30 8501 H 784.786 1.03016 -3.59533 0
M  V30 8502 H 787.078 3.02019 -6.06457 0
M  V30 8503 H 788.021 1.72476 -6.86773 0
M  V30 8504 H 788.429 2.20893 -5.19487 0
M  V30 8505 N 787.827 1.57504 0.0551401 0
M  V30 8506 C 788.76 2.00155 1.09604 0
M  V30 8507 C 789.738 0.881274 1.36647 0
M  V30 8508 O 790.922 1.14498 1.49742 0
M  V30 8509 C 788.049 2.35246 2.43674 0
M  V30 8510 C 787.095 3.57452 2.32659 0
M  V30 8511 S 787.928 5.07639 1.7048 0
M  V30 8512 C 789.084 5.45947 3.06093 0
M  V30 8513 H 789.317 2.88131 0.732635 0
M  V30 8514 H 786.85 1.52122 0.264252 0
M  V30 8515 H 788.808 2.56136 3.20787 0
M  V30 8516 H 787.469 1.47769 2.7717 0
M  V30 8517 H 786.662 3.79576 3.31569 0
M  V30 8518 H 786.264 3.36279 1.63685 0
M  V30 8519 H 788.556 5.45036 4.0242 0
M  V30 8520 H 789.499 6.4656 2.88732 0
M  V30 8521 H 789.907 4.73419 3.07466 0
M  V30 8522 N 789.305 -0.326896 1.54172 0
M  V30 8523 C 790.215 -1.42525 1.86343 0
M  V30 8524 C 791.231 -1.56764 0.75505 0
M  V30 8525 O 792.407 -1.71924 1.04901 0
M  V30 8526 C 789.472 -2.77286 2.08119 0
M  V30 8527 C 788.533 -2.7225 3.31931 0
M  V30 8528 C 787.766 -4.00584 3.52659 0
M  V30 8529 O 787.989 -4.98686 2.76891 0
M  V30 8530 O 786.923 -4.04045 4.46129 0
M  V30 8531 H 790.749 -1.18249 2.79734 0
M  V30 8532 H 788.334 -0.520614 1.40036 0
M  V30 8533 H 790.216 -3.57065 2.23791 0
M  V30 8534 H 788.891 -3.01459 1.17917 0
M  V30 8535 H 787.798 -1.91033 3.21647 0
M  V30 8536 H 789.131 -2.53032 4.2218 0
M  V30 8537 N 790.784 -1.46188 -0.588786 0
M  V30 8538 C 791.731 -1.56292 -1.69828 0
M  V30 8539 C 792.701 -0.407581 -1.61022 0
M  V30 8540 O 793.886 -0.623532 -1.80324 0
M  V30 8541 C 791.026 -1.55341 -3.08161 0
M  V30 8542 C 790.139 -2.81564 -3.27636 0
M  V30 8543 C 789.274 -2.72158 -4.56183 0
M  V30 8544 C 788.313 -3.93348 -4.68981 0
M  V30 8545 N 787.45 -3.82365 -5.88848 0
M  V30 8546 H 792.29 -2.51066 -1.6053 0
M  V30 8547 H 789.827 -1.24562 -0.782474 0
M  V30 8548 H 791.785 -1.52776 -3.88221 0
M  V30 8549 H 790.415 -0.641034 -3.16371 0
M  V30 8550 H 789.467 -2.94136 -2.41223 0
M  V30 8551 H 790.779 -3.714 -3.32962 0
M  V30 8552 H 789.933 -2.67665 -5.44464 0
M  V30 8553 H 788.672 -1.79953 -4.53286 0
M  V30 8554 H 787.677 -3.98181 -3.7912 0
M  V30 8555 H 788.902 -4.86643 -4.73662 0
M  V30 8556 H 786.848 -2.92942 -5.86959 0
M  V30 8557 H 786.765 -4.65851 -5.95415 0
M  V30 8558 H 788.033 -3.81836 -6.79575 0
M  V30 8559 N 792.262 0.832906 -1.33792 0
M  V30 8560 C 793.511 1.58351 -1.24932 0
M  V30 8561 C 793.824 1.94754 0.181703 0
M  V30 8562 O 795.03 2.6865 0.392375 0
M  V30 8563 C 793.486 2.85643 -2.18943 0
M  V30 8564 C 793.094 2.56581 -3.67247 0
M  V30 8565 C 794.838 3.63667 -2.18968 0
M  V30 8566 C 792.745 3.80006 -4.53155 0
M  V30 8567 H 791.675 0.594278 -0.464058 0
M  V30 8568 H 794.326 0.91786 -1.58895 0
M  V30 8569 H 792.708 3.53781 -1.77919 0
M  V30 8570 H 793.882 1.96617 -4.16747 0
M  V30 8571 H 792.197 1.91851 -3.6957 0
M  V30 8572 H 794.794 4.55293 -2.80379 0
M  V30 8573 H 795.137 3.99039 -1.18631 0
M  V30 8574 H 795.67 3.0246 -2.58384 0
M  V30 8575 H 792.409 3.4976 -5.5439 0
M  V30 8576 H 791.929 4.39288 -4.08395 0
M  V30 8577 H 793.608 4.47523 -4.6726 0
M  V30 8578 N 793.74 1.17359 1.05189 0
M  V30 8579 C 794.67 0.91365 2.14883 0
M  V30 8580 C 795.651 -0.144365 1.69486 0
M  V30 8581 O 796.836 0.00587861 1.94199 0
M  V30 8582 C 793.966 0.426196 3.44675 0
M  V30 8583 C 792.92 1.4234 4.03638 0
M  V30 8584 C 792.246 0.793902 5.28773 0
M  V30 8585 C 793.546 2.7966 4.41121 0
M  V30 8586 H 795.24 1.831 2.36885 0
M  V30 8587 H 792.786 0.881781 1.13845 0
M  V30 8588 H 794.739 0.231767 4.20762 0
M  V30 8589 H 793.463 -0.526693 3.22325 0
M  V30 8590 H 792.122 1.60457 3.2962 0
M  V30 8591 H 791.77 -0.165824 5.02727 0
M  V30 8592 H 791.47 1.45959 5.69183 0
M  V30 8593 H 792.994 0.609747 6.07548 0
M  V30 8594 H 794.408 2.6526 5.08242 0
M  V30 8595 H 792.805 3.42807 4.92548 0
M  V30 8596 H 793.875 3.34068 3.51464 0
M  V30 8597 N 795.218 -1.23913 0.973828 0
M  V30 8598 C 796.466 -1.91771 0.637817 0
M  V30 8599 C 796.787 -1.76434 -0.830435 0
M  V30 8600 O 796.057 -1.13965 -1.59339 0
M  V30 8601 H 794.637 -0.709761 0.232912 0
M  V30 8602 H 797.299 -1.50677 1.23622 0
M  V30 8603 H 796.395 -2.99327 0.883731 0
M  V30 8604 N 796.696 -0.74468 -1.38897 0
M  V30 8605 C 798.107 -0.36568 -1.83084 0
M  V30 8606 C 798.458 1.10436 -1.62168 0
M  V30 8607 O 797.583 1.85281 -1.11804 0
M  V30 8608 C 798.178 -0.656946 -3.3237 0
M  V30 8609 C 796.737 -0.331329 -3.74939 0
M  V30 8610 C 795.884 -0.914661 -2.61781 0
M  V30 8611 H 798.835 -0.941551 -1.27752 0
M  V30 8612 H 798.856 0.0679546 -3.80439 0
M  V30 8613 H 798.368 -1.72693 -3.47561 0
M  V30 8614 H 796.469 0.732426 -3.6533 0
M  V30 8615 H 796.582 -0.820655 -4.72019 0
M  V30 8616 H 794.946 -0.34063 -2.52412 0
M  V30 8617 H 795.729 -1.98949 -2.79775 0
M  V30 8618 N 798.174 1.49689 -0.493057 0
M  V30 8619 C 799.423 2.01622 0.0560733 0
M  V30 8620 C 799.736 1.37838 1.3878 0
M  V30 8621 O 800.942 1.81054 2.02316 0
M  V30 8622 C 799.398 3.59586 0.150409 0
M  V30 8623 C 799.006 4.32338 -1.1742 0
M  V30 8624 C 800.75 4.19489 0.650327 0
M  V30 8625 C 798.657 5.8214 -1.04246 0
M  V30 8626 H 797.587 0.753594 0.0247297 0
M  V30 8627 H 800.238 1.723 -0.631279 0
M  V30 8628 H 798.62 3.8559 0.902035 0
M  V30 8629 H 799.794 4.18042 -1.9385 0
M  V30 8630 H 798.109 3.84144 -1.60694 0
M  V30 8631 H 800.706 5.29181 0.766272 0
M  V30 8632 H 801.049 3.82326 1.6472 0
M  V30 8633 H 801.582 3.97775 -0.0445371 0
M  V30 8634 H 798.321 6.23814 -2.01336 0
M  V30 8635 H 797.841 5.98952 -0.31892 0
M  V30 8636 H 799.52 6.43004 -0.717957 0
M  V30 8637 N 799.652 0.226554 1.55963 0
M  V30 8638 C 801.063 -0.280381 1.84583 0
M  V30 8639 C 801.414 -1.59105 1.14804 0
M  V30 8640 O 800.539 -2.12297 0.419414 0
M  V30 8641 C 801.134 -0.515499 3.34855 0
M  V30 8642 C 799.693 -0.966733 3.63774 0
M  V30 8643 C 798.84 -0.0325753 2.77281 0
M  V30 8644 H 801.791 0.449626 1.52197 0
M  V30 8645 H 801.812 -1.36085 3.55332 0
M  V30 8646 H 801.324 0.438594 3.85614 0
M  V30 8647 H 799.425 -1.93401 3.18476 0
M  V30 8648 H 799.538 -0.837679 4.7172 0
M  V30 8649 H 797.902 -0.540279 2.48904 0
M  V30 8650 H 798.685 0.916524 3.30839 0
M  V30 8651 N 801.13 -1.57531 -0.0467866 0
M  V30 8652 C 802.355 -1.93087 -0.757123 0
M  V30 8653 C 802.78 -0.825116 -1.69037 0
M  V30 8654 O 802.138 0.220449 -1.79955 0
M  V30 8655 C 802.186 -3.27669 -1.5055 0
M  V30 8656 O 801.29 -3.18667 -2.61773 0
M  V30 8657 H 800.631 -0.631597 -0.204892 0
M  V30 8658 H 803.161 -2.04599 -0.00755232 0
M  V30 8659 H 803.171 -3.6214 -1.87932 0
M  V30 8660 H 801.846 -4.07717 -0.820931 0
M  V30 8661 H 800.423 -2.95798 -2.27064 0
M  V30 8662 N 802.608 0.318715 -1.54344 0
M  V30 8663 C 803.558 1.39364 -1.80448 0
M  V30 8664 C 804.542 1.46708 -0.660728 0
M  V30 8665 O 805.734 1.51159 -0.920869 0
M  V30 8666 C 802.863 2.76144 -2.03959 0
M  V30 8667 C 801.949 2.73094 -3.24469 0
M  V30 8668 N 802.34 2.39663 -4.45416 0
M  V30 8669 C 800.638 3.04218 -3.2614 0
M  V30 8670 C 801.339 2.45469 -5.27371 0
M  V30 8671 N 800.315 2.82107 -4.64668 0
M  V30 8672 H 804.117 1.12453 -2.71535 0
M  V30 8673 H 801.631 0.527221 -1.53604 0
M  V30 8674 H 803.628 3.53627 -2.20802 0
M  V30 8675 H 802.288 3.03982 -1.14129 0
M  V30 8676 H 803.299 2.12424 -4.72331 0
M  V30 8677 H 799.976 3.37066 -2.4636 0
M  V30 8678 H 801.366 2.22571 -6.33965 0
M  V30 8679 N 804.086 1.46499 0.581025 0
M  V30 8680 C 805.019 1.51706 1.70472 0
M  V30 8681 C 805.997 0.371036 1.5831 0
M  V30 8682 O 807.181 0.575426 1.79502 0
M  V30 8683 C 804.308 1.3972 3.08538 0
M  V30 8684 C 803.354 2.58525 3.39215 0
M  V30 8685 S 804.187 4.20872 3.311 0
M  V30 8686 C 805.343 4.11398 4.71702 0
M  V30 8687 H 805.576 2.46777 1.65796 0
M  V30 8688 H 803.109 1.34405 0.759908 0
M  V30 8689 H 805.067 1.33492 3.88188 0
M  V30 8690 H 803.728 0.460742 3.10702 0
M  V30 8691 H 802.921 2.46137 4.3981 0
M  V30 8692 H 802.523 2.61752 2.67136 0
M  V30 8693 H 804.815 3.78182 5.62125 0
M  V30 8694 H 805.758 5.11997 4.89147 0
M  V30 8695 H 806.166 3.42624 4.48631 0
M  V30 8696 N 805.565 -0.825799 1.34232 0
M  V30 8697 C 806.814 -1.57686 1.2577 0
M  V30 8698 C 807.127 -1.94848 -0.171372 0
M  V30 8699 O 808.333 -2.68854 -0.378123 0
M  V30 8700 C 806.789 -2.84478 2.20454 0
M  V30 8701 C 806.397 -2.54629 3.68603 0
M  V30 8702 C 808.141 -3.625 2.20893 0
M  V30 8703 C 806.048 -3.77597 4.55164 0
M  V30 8704 H 804.978 -0.591809 0.467203 0
M  V30 8705 H 807.629 -0.909421 1.59379 0
M  V30 8706 H 806.011 -3.52832 1.79793 0
M  V30 8707 H 807.185 -1.94404 4.17784 0
M  V30 8708 H 805.5 -1.89888 3.70582 0
M  V30 8709 H 808.097 -4.538 2.82789 0
M  V30 8710 H 808.44 -3.98404 1.20746 0
M  V30 8711 H 808.973 -3.01086 2.59985 0
M  V30 8712 H 805.712 -3.46815 5.56237 0
M  V30 8713 H 805.232 -4.37116 4.10719 0
M  V30 8714 H 806.911 -4.45039 4.69627 0
M  V30 8715 N 807.043 -1.17915 -1.04565 0
M  V30 8716 C 807.993 -0.869634 -2.10764 0
M  V30 8717 C 808.977 0.158502 -1.60117 0
M  V30 8718 O 810.169 -0.04483 -1.76943 0
M  V30 8719 C 807.298 -0.391642 -3.41059 0
M  V30 8720 C 806.384 -1.45156 -3.98485 0
M  V30 8721 N 806.775 -2.6667 -4.29792 0
M  V30 8722 C 805.073 -1.3109 -4.263 0
M  V30 8723 C 805.774 -3.34823 -4.75677 0
M  V30 8724 N 804.75 -2.62203 -4.76183 0
M  V30 8725 H 808.552 -1.79342 -2.32838 0
M  V30 8726 H 806.066 -1.0688 -1.22272 0
M  V30 8727 H 808.063 -0.151428 -4.16625 0
M  V30 8728 H 806.723 0.525862 -3.20413 0
M  V30 8729 H 807.734 -3.0358 -4.19594 0
M  V30 8730 H 804.411 -0.455545 -4.15007 0
M  V30 8731 H 805.801 -4.38645 -5.0896 0
M  V30 8732 N 808.521 1.23394 -0.980386 0
M  V30 8733 C 809.937 1.43961 -0.689008 0
M  V30 8734 C 810.137 1.87229 0.744809 0
M  V30 8735 O 809.193 2.01831 1.51725 0
M  V30 8736 C 810.506 2.49128 -1.68392 0
M  V30 8737 C 812.054 2.62941 -1.69796 0
M  V30 8738 C 812.529 3.71317 -2.68118 0
M  V30 8739 N 814.02 3.7876 -2.66636 0
M  V30 8740 C 814.755 4.62176 -3.39383 0
M  V30 8741 N 814.251 5.49682 -4.21688 0
M  V30 8742 N 816.044 4.56372 -3.28147 0
M  V30 8743 H 808.195 0.936106 -1.90659 0
M  V30 8744 H 810.458 0.473023 -0.821555 0
M  V30 8745 H 810.164 2.24252 -2.70931 0
M  V30 8746 H 810.038 3.47514 -1.46675 0
M  V30 8747 H 812.425 2.87168 -0.679617 0
M  V30 8748 H 812.506 1.64871 -1.95579 0
M  V30 8749 H 812.15 3.4784 -3.70095 0
M  V30 8750 H 812.08 4.68929 -2.3961 0
M  V30 8751 H 814.571 3.16226 -2.06904 0
M  V30 8752 H 814.884 6.10323 -4.74053 0
M  V30 8753 H 813.229 5.49306 -4.25779 0
M  V30 8754 H 816.42 3.87029 -2.63299 0
M  V30 8755 H 816.593 5.21153 -3.85102 0
M  V30 8756 N 809.999 0.752036 1.385 0
M  V30 8757 C 811.227 0.318274 2.04437 0
M  V30 8758 C 811.642 -1.05285 1.56718 0
M  V30 8759 O 810.999 -1.66844 0.73956 0
M  V30 8760 C 811.05 0.330106 3.5999 0
M  V30 8761 O 810.771 1.64712 4.05957 0
M  V30 8762 C 812.272 -0.117713 4.43144 0
M  V30 8763 H 809.492 0.136228 0.657026 0
M  V30 8764 H 812.036 1.02045 1.7722 0
M  V30 8765 H 810.191 -0.323323 3.86048 0
M  V30 8766 H 810.605 1.57225 5.0038 0
M  V30 8767 H 812.079 -0.0582735 5.51969 0
M  V30 8768 H 812.556 -1.16538 4.23457 0
M  V30 8769 H 813.162 0.506784 4.2227 0
M  V30 8770 N 811.477 -1.49425 0.500989 0
M  V30 8771 C 812.893 -1.58826 0.156951 0
M  V30 8772 C 813.093 -1.50622 -1.33848 0
M  V30 8773 O 812.149 -1.38016 -2.11442 0
M  V30 8774 C 813.462 -2.91611 0.73374 0
M  V30 8775 C 815.01 -3.05076 0.699846 0
M  V30 8776 C 815.485 -4.40479 1.2547 0
M  V30 8777 N 816.976 -4.4697 1.2154 0
M  V30 8778 C 817.711 -5.50189 1.6149 0
M  V30 8779 N 817.207 -6.60512 2.09034 0
M  V30 8780 N 819 -5.40903 1.52907 0
M  V30 8781 H 811.151 -1.53001 1.47324 0
M  V30 8782 H 813.414 -0.724765 0.61108 0
M  V30 8783 H 813.12 -3.03182 1.78251 0
M  V30 8784 H 812.994 -3.767 0.19417 0
M  V30 8785 H 815.381 -2.93134 -0.340085 0
M  V30 8786 H 815.462 -2.2167 1.27656 0
M  V30 8787 H 815.106 -4.53172 2.29341 0
M  V30 8788 H 815.036 -5.22524 0.653921 0
M  V30 8789 H 817.527 -3.67819 0.867043 0
M  V30 8790 H 817.84 -7.35372 2.37588 0
M  V30 8791 H 816.185 -6.61553 2.13008 0
M  V30 8792 H 819.376 -4.53606 1.15583 0
M  V30 8793 H 819.549 -6.21219 1.84365 0
M  V30 8794 N 812.955 -0.234822 -1.55841 0
M  V30 8795 C 813.902 0.6698 -2.20867 0
M  V30 8796 C 814.872 1.18042 -1.16856 0
M  V30 8797 O 816.057 1.23709 -1.45261 0
M  V30 8798 C 813.197 1.86646 -2.90271 0
M  V30 8799 C 812.31 1.39351 -4.08908 0
M  V30 8800 C 811.445 2.54878 -4.66059 0
M  V30 8801 C 810.484 2.04384 -5.76969 0
M  V30 8802 N 809.621 3.13233 -6.28355 0
M  V30 8803 H 814.461 0.10858 -2.97802 0
M  V30 8804 H 811.998 0.041836 -1.4704 0
M  V30 8805 H 813.956 2.56926 -3.28702 0
M  V30 8806 H 812.586 2.40035 -2.15831 0
M  V30 8807 H 811.638 0.585173 -3.75872 0
M  V30 8808 H 812.95 0.983356 -4.89011 0
M  V30 8809 H 812.104 3.33219 -5.07001 0
M  V30 8810 H 810.843 2.99188 -3.85146 0
M  V30 8811 H 809.848 1.24509 -5.35516 0
M  V30 8812 H 811.073 1.61057 -6.59725 0
M  V30 8813 H 809.019 3.57 -5.50352 0
M  V30 8814 H 808.936 2.76511 -7.03618 0
M  V30 8815 H 810.204 3.91669 -6.73955 0
M  V30 8816 N 814.433 1.57553 0.0384317 0
M  V30 8817 C 815.365 2.02726 1.06934 0
M  V30 8818 C 816.378 0.938502 1.33026 0
M  V30 8819 O 817.567 1.21595 1.30678 0
M  V30 8820 C 814.667 2.37958 2.41308 0
M  V30 8821 C 813.84 3.69098 2.34703 0
M  V30 8822 C 812.899 3.91623 3.51451 0
M  V30 8823 O 811.925 4.628 3.31368 0
M  V30 8824 N 813.127 3.36538 4.72993 0
M  V30 8825 H 815.892 2.91781 0.684381 0
M  V30 8826 H 813.453 1.60307 0.226542 0
M  V30 8827 H 815.445 2.50172 3.18113 0
M  V30 8828 H 814.015 1.54621 2.71682 0
M  V30 8829 H 813.235 3.67325 1.43059 0
M  V30 8830 H 814.523 4.55144 2.27424 0
M  V30 8831 H 813.921 2.78828 4.92211 0
M  V30 8832 H 812.478 3.54148 5.47195 0
M  V30 8833 N 815.911 -0.310526 1.54511 0
M  V30 8834 C 816.858 -1.38264 1.84802 0
M  V30 8835 C 817.828 -1.50808 0.696141 0
M  V30 8836 O 819.013 -1.6582 0.943846 0
M  V30 8837 C 816.153 -2.74422 2.09252 0
M  V30 8838 C 815.266 -2.70405 3.36906 0
M  V30 8839 C 814.401 -3.98495 3.51248 0
M  V30 8840 C 813.44 -3.88836 4.72729 0
M  V30 8841 N 812.577 -5.08683 4.83928 0
M  V30 8842 H 817.417 -1.11732 2.76261 0
M  V30 8843 H 814.954 -0.540609 1.36806 0
M  V30 8844 H 816.912 -3.53593 2.21422 0
M  V30 8845 H 815.542 -2.99235 1.2107 0
M  V30 8846 H 814.594 -1.83151 3.33406 0
M  V30 8847 H 815.906 -2.59155 4.26193 0
M  V30 8848 H 815.06 -4.861 3.63031 0
M  V30 8849 H 813.799 -4.12567 2.60077 0
M  V30 8850 H 812.804 -2.99615 4.60989 0
M  V30 8851 H 814.029 -3.76318 5.65298 0
M  V30 8852 H 811.975 -5.23236 3.95677 0
M  V30 8853 H 811.892 -4.99819 5.67201 0
M  V30 8854 H 813.16 -5.97966 5.00057 0
M  V30 8855 N 817.389 -1.46805 -0.573248 0
M  V30 8856 C 818.619 -1.55965 -1.35494 0
M  V30 8857 C 819.027 -0.203038 -1.88107 0
M  V30 8858 O 818.37 0.81138 -1.6481 0
M  V30 8859 C 818.432 -2.51168 -2.57206 0
M  V30 8860 C 818.096 -3.97211 -2.25993 0
M  V30 8861 C 819.093 -4.86155 -1.84254 0
M  V30 8862 C 816.778 -4.42419 -2.37846 0
M  V30 8863 C 818.772 -6.18323 -1.54776 0
M  V30 8864 C 816.459 -5.74619 -2.0798 0
M  V30 8865 C 817.457 -6.62392 -1.66511 0
M  V30 8866 O 817.145 -7.92137 -1.37016 0
M  V30 8867 H 816.877 -0.529748 -0.419932 0
M  V30 8868 H 819.431 -1.92998 -0.702914 0
M  V30 8869 H 817.661 -2.09171 -3.25245 0
M  V30 8870 H 819.35 -2.50631 -3.19279 0
M  V30 8871 H 820.116 -4.52481 -1.74603 0
M  V30 8872 H 815.995 -3.74319 -2.69085 0
M  V30 8873 H 819.539 -6.8679 -1.22334 0
M  V30 8874 H 815.436 -6.0784 -2.17258 0
M  V30 8875 H 816.204 -8.04492 -1.50782 0
M  V30 8876 N 818.867 0.818669 -1.34668 0
M  V30 8877 C 820.114 1.57512 -1.27264 0
M  V30 8878 C 820.442 1.93871 0.156254 0
M  V30 8879 O 819.697 1.60582 1.11857 0
M  V30 8880 C 819.996 2.88245 -2.11304 0
M  V30 8881 C 819.662 2.71159 -3.60255 0
M  V30 8882 C 818.324 2.66207 -4.00858 0
M  V30 8883 C 820.676 2.54538 -4.54819 0
M  V30 8884 C 818.004 2.4256 -5.34211 0
M  V30 8885 C 820.356 2.32421 -5.88356 0
M  V30 8886 C 819.02 2.25884 -6.28118 0
M  V30 8887 H 818.29 0.576378 -0.465692 0
M  V30 8888 H 820.937 0.9469 -1.66451 0
M  V30 8889 H 819.242 3.55381 -1.64958 0
M  V30 8890 H 820.939 3.45869 -2.02919 0
M  V30 8891 H 817.529 2.75856 -3.28027 0
M  V30 8892 H 821.713 2.57384 -4.24343 0
M  V30 8893 H 816.969 2.35959 -5.64033 0
M  V30 8894 H 821.143 2.18548 -6.61218 0
M  V30 8895 H 818.77 2.07322 -7.31383 0
M  V30 8896 N 820.346 1.18468 1.03938 0
M  V30 8897 C 821.576 1.0043 1.80547 0
M  V30 8898 C 821.984 -0.450407 1.83761 0
M  V30 8899 O 821.327 -1.32463 1.27276 0
M  V30 8900 C 821.389 1.48437 3.27424 0
M  V30 8901 C 821.053 2.96372 3.47869 0
M  V30 8902 C 822.05 3.94217 3.38953 0
M  V30 8903 C 819.735 3.34831 3.74424 0
M  V30 8904 C 821.729 5.28517 3.56298 0
M  V30 8905 C 819.416 4.69294 3.91416 0
M  V30 8906 C 820.414 5.65946 3.82354 0
M  V30 8907 O 820.102 6.97974 3.98858 0
M  V30 8908 H 819.834 0.354853 0.575374 0
M  V30 8909 H 822.388 1.57473 1.31876 0
M  V30 8910 H 820.618 0.857601 3.7707 0
M  V30 8911 H 822.307 1.2677 3.85596 0
M  V30 8912 H 823.073 3.6585 3.184 0
M  V30 8913 H 818.952 2.60161 3.80575 0
M  V30 8914 H 822.496 6.03943 3.49141 0
M  V30 8915 H 818.393 4.97361 4.11463 0
M  V30 8916 H 819.161 7.04895 4.1601 0
M  V30 8917 N 821.824 -1.22873 0.986916 0
M  V30 8918 C 822.771 -2.2458 0.532215 0
M  V30 8919 C 823.741 -1.60375 -0.432322 0
M  V30 8920 O 824.926 -1.87775 -0.338416 0
M  V30 8921 C 822.066 -3.44761 -0.152864 0
M  V30 8922 C 821.179 -4.23501 0.852704 0
M  V30 8923 C 820.314 -5.31011 0.14176 0
M  V30 8924 C 819.353 -6.01464 1.1361 0
M  V30 8925 N 818.49 -7.00631 0.453871 0
M  V30 8926 H 823.33 -2.62838 1.40428 0
M  V30 8927 H 820.867 -1.29185 0.703543 0
M  V30 8928 H 822.825 -4.1333 -0.566926 0
M  V30 8929 H 821.455 -3.07284 -0.988756 0
M  V30 8930 H 820.507 -3.54286 1.38512 0
M  V30 8931 H 821.819 -4.72097 1.61014 0
M  V30 8932 H 820.973 -6.05805 -0.329337 0
M  V30 8933 H 819.712 -4.83373 -0.648229 0
M  V30 8934 H 818.717 -5.25456 1.61789 0
M  V30 8935 H 819.942 -6.5119 1.92686 0
M  V30 8936 H 817.888 -6.55235 -0.316791 0
M  V30 8937 H 817.805 -7.47204 1.14986 0
M  V30 8938 H 819.073 -7.795 0.00537823 0
M  V30 8939 N 823.302 -0.75937 -1.38099 0
M  V30 8940 C 824.55 -0.317485 -1.99591 0
M  V30 8941 C 824.871 1.10628 -1.60581 0
M  V30 8942 O 824.141 1.7575 -0.865378 0
M  V30 8943 H 822.721 -0.114397 -0.738189 0
M  V30 8944 H 825.383 -0.974749 -1.68774 0
M  V30 8945 H 824.479 -0.385227 -3.09713 0
M  V30 8946 N 824.78 1.49157 -0.508906 0
M  V30 8947 C 826.028 2.02073 0.0327335 0
M  V30 8948 C 826.349 1.39012 1.3675 0
M  V30 8949 O 825.619 0.548153 1.88075 0
M  V30 8950 H 824.199 0.746848 0.0150864 0
M  V30 8951 H 826.861 1.83097 -0.667946 0
M  V30 8952 H 825.957 3.11707 0.1566 0
M  V30 8953 N 826.258 0.243083 1.55714 0
M  V30 8954 C 827.188 -0.652336 2.24203 0
M  V30 8955 C 828.169 -1.1843 1.221 0
M  V30 8956 O 829.354 -1.22435 1.50743 0
M  V30 8957 C 826.484 -1.85111 2.93856 0
M  V30 8958 C 825.438 -1.45208 4.02615 0
M  V30 8959 C 824.764 -2.73137 4.59674 0
M  V30 8960 C 826.064 -0.625988 5.18535 0
M  V30 8961 H 827.758 -0.0812504 2.9929 0
M  V30 8962 H 825.304 -0.0376388 1.43951 0
M  V30 8963 H 827.257 -2.48314 3.40468 0
M  V30 8964 H 825.981 -2.44751 2.16251 0
M  V30 8965 H 824.64 -0.843406 3.56766 0
M  V30 8966 H 824.288 -3.30967 3.78774 0
M  V30 8967 H 823.988 -2.47163 5.33089 0
M  V30 8968 H 825.512 -3.37245 5.09017 0
M  V30 8969 H 826.926 -1.16223 5.61396 0
M  V30 8970 H 825.323 -0.462465 5.98315 0
M  V30 8971 H 826.393 0.362652 4.83542 0
M  V30 8972 N 827.736 -1.57571 -0.0300757 0
M  V30 8973 C 828.982 -1.89506 -0.722159 0
M  V30 8974 C 829.315 -0.840699 -1.7506 0
M  V30 8975 O 828.59 0.144358 -1.93964 0
M  V30 8976 C 828.873 -3.32081 -1.39262 0
M  V30 8977 C 828.726 -4.48211 -0.377768 0
M  V30 8978 C 830.045 -3.73557 -2.32687 0
M  V30 8979 H 827.164 -0.689213 -0.261064 0
M  V30 8980 H 829.806 -1.89994 0.0150388 0
M  V30 8981 H 827.956 -3.31796 -2.02098 0
M  V30 8982 H 829.628 -4.6063 0.248591 0
M  V30 8983 H 827.871 -4.3274 0.303045 0
M  V30 8984 H 828.542 -5.44854 -0.885347 0
M  V30 8985 H 831.018 -3.75202 -1.79896 0
M  V30 8986 H 829.894 -4.74125 -2.7658 0
M  V30 8987 H 830.155 -3.05759 -3.19317 0
M  V30 8988 N 829.214 0.302327 -1.54673 0
M  V30 8989 C 830.46 1.03532 -1.75079 0
M  V30 8990 C 830.815 1.84972 -0.52943 0
M  V30 8991 O 830.108 1.85537 0.478169 0
M  V30 8992 C 830.302 1.97365 -2.97963 0
M  V30 8993 C 830.131 1.25154 -4.31934 0
M  V30 8994 C 828.901 0.979243 -4.95721 0
M  V30 8995 C 831.099 0.656653 -5.10091 0
M  V30 8996 N 829.081 0.227265 -6.13479 0
M  V30 8997 C 830.452 0.0373759 -6.19989 0
M  V30 8998 C 832.507 0.561571 -4.94723 0
M  V30 8999 C 831.21 -0.667782 -7.16194 0
M  V30 9000 C 833.236 -0.12993 -5.91257 0
M  V30 9001 C 832.598 -0.738063 -7.00523 0
M  V30 9002 H 828.697 0.361824 -0.693258 0
M  V30 9003 H 831.281 0.314091 -1.9215 0
M  V30 9004 H 829.452 2.66739 -2.8232 0
M  V30 9005 H 831.184 2.63806 -3.06902 0
M  V30 9006 H 827.939 1.27706 -4.56057 0
M  V30 9007 H 828.363 -0.135199 -6.76865 0
M  V30 9008 H 833.005 1.01744 -4.10375 0
M  V30 9009 H 830.723 -1.13542 -8.00084 0
M  V30 9010 H 834.309 -0.203423 -5.81444 0
M  V30 9011 H 833.189 -1.26463 -7.73936 0
M  V30 9012 N 830.692 1.47107 0.565454 0
M  V30 9013 C 831.969 1.43787 1.32607 0
M  V30 9014 C 832.349 0.130428 2.10697 0
M  V30 9015 O 831.697 -0.888086 2.10536 0
M  V30 9016 C 831.907 2.67833 2.23755 0
M  V30 9017 C 833.255 3.14704 2.85037 0
M  V30 9018 O 834.279 2.68503 2.34061 0
M  V30 9019 O 833.138 3.95002 3.77671 0
M  V30 9020 H 830.232 0.572623 0.596684 0
M  V30 9021 H 832.778 1.59296 0.58504 0
M  V30 9022 H 831.55 3.54532 1.65597 0
M  V30 9023 H 831.173 2.54869 3.05168 0
M  V30 9024 N 832.17 -0.811516 1.35101 0
M  V30 9025 C 833.08 -1.95475 1.29718 0
M  V30 9026 C 834.096 -1.72813 0.202909 0
M  V30 9027 O 835.272 -1.96725 0.431414 0
M  V30 9028 C 832.337 -3.29975 1.06385 0
M  V30 9029 C 831.398 -3.65566 2.25077 0
M  V30 9030 C 830.631 -4.93648 2.02848 0
M  V30 9031 O 830.854 -5.617 0.992442 0
M  V30 9032 O 829.788 -5.27384 2.90087 0
M  V30 9033 H 833.614 -2.02961 2.25921 0
M  V30 9034 H 831.199 -0.948583 1.15422 0
M  V30 9035 H 833.081 -4.10506 0.951999 0
M  V30 9036 H 831.756 -3.2343 0.132294 0
M  V30 9037 H 830.663 -2.85432 2.41825 0
M  V30 9038 H 831.996 -3.7681 3.16662 0
M  V30 9039 N 833.648 -1.19017 -1.03309 0
M  V30 9040 C 834.596 -0.920627 -2.13605 0
M  V30 9041 C 835.59 0.121969 -1.6896 0
M  V30 9042 O 836.796 -0.0268854 -1.7998 0
M  V30 9043 H 833.171 -0.280284 -0.697814 0
M  V30 9044 H 835.142 -1.85755 -2.33533 0
M  V30 9045 C 833.891 -0.471198 -3.44492 0
M  V30 9046 H 833.214 -1.26499 -3.7926 0
M  V30 9047 H 834.654 -0.321663 -4.22778 0
M  V30 9048 C 833.113 0.81411 -3.26916 0
M  V30 9049 O 833.643 1.87654 -3.55175 0
M  V30 9050 N 831.849 0.769695 -2.80221 0
M  V30 9051 H 831.396 -0.0951278 -2.57424 0
M  V30 9052 H 831.354 1.63008 -2.68842 0
M  V30 9053 N 835.127 1.22348 -0.993418 0
M  V30 9054 C 836.352 1.95666 -0.687727 0
M  V30 9055 C 836.777 1.72883 0.741161 0
M  V30 9056 O 836.135 1.00837 1.50671 0
M  V30 9057 C 836.183 3.46457 -0.99998 0
M  V30 9058 O 835.287 4.12281 -0.0989386 0
M  V30 9059 H 834.628 0.612102 -0.257346 0
M  V30 9060 H 837.158 1.55428 -1.33054 0
M  V30 9061 H 837.168 3.96976 -0.942035 0
M  V30 9062 H 835.843 3.62365 -2.04118 0
M  V30 9063 H 834.42 3.72295 -0.212413 0
M  V30 9064 N 836.605 0.766683 1.37694 0
M  V30 9065 C 837.83 0.338715 2.04615 0
M  V30 9066 C 838.255 -1.02918 1.57447 0
M  V30 9067 O 837.613 -1.65849 0.732386 0
M  V30 9068 C 837.661 0.385284 3.58536 0
M  V30 9069 O 836.765 -0.616081 4.07772 0
M  V30 9070 H 836.106 0.147527 0.647404 0
M  V30 9071 H 838.636 1.04146 1.7611 0
M  V30 9072 H 838.646 0.240782 4.07289 0
M  V30 9073 H 837.321 1.38325 3.92223 0
M  V30 9074 H 835.898 -0.435115 3.70353 0
M  V30 9075 N 838.083 -1.48885 0.516809 0
M  V30 9076 C 839.36 -1.95412 -0.0858293 0
M  V30 9077 C 839.74 -1.45875 -1.5259 0
M  V30 9078 O 839.088 -0.679415 -2.18166 0
M  V30 9079 C 839.298 -3.48995 0.0178194 0
M  V30 9080 C 840.646 -4.24342 -0.14813 0
M  V30 9081 O 841.67 -3.56155 -0.0566125 0
M  V30 9082 O 840.529 -5.45454 -0.338035 0
M  V30 9083 H 837.623 -0.822455 -0.0865884 0
M  V30 9084 H 840.169 -1.59464 0.580472 0
M  V30 9085 H 838.941 -3.77732 1.02147 0
M  V30 9086 H 838.564 -3.91604 -0.687924 0
M  V30 9087 N 839.561 -0.251338 -1.55583 0
M  V30 9088 C 840.809 0.371434 -1.98657 0
M  V30 9089 C 841.13 1.58143 -1.14087 0
M  V30 9090 O 840.4 1.94607 -0.224708 0
M  V30 9091 H 838.98 0.140225 -0.733721 0
M  V30 9092 H 841.642 -0.351157 -1.9171 0
M  V30 9093 H 840.738 0.677554 -3.04657 0
M  V30 9094 N 841.039 1.57585 0.0217189 0
M  V30 9095 C 842.455 1.55072 0.377484 0
M  V30 9096 C 842.655 0.978423 1.76151 0
M  V30 9097 O 841.711 0.602688 2.45202 0
M  V30 9098 C 843.024 2.99462 0.272605 0
M  V30 9099 C 844.572 3.11047 0.349148 0
M  V30 9100 C 845.047 4.57182 0.273636 0
M  V30 9101 N 846.538 4.62007 0.332206 0
M  V30 9102 C 847.273 5.72631 0.296782 0
M  V30 9103 N 846.769 6.92472 0.21322 0
M  V30 9104 N 848.562 5.61028 0.347053 0
M  V30 9105 H 840.713 1.93133 -0.883925 0
M  V30 9106 H 842.976 0.886151 -0.33681 0
M  V30 9107 H 842.682 3.45088 -0.67878 0
M  V30 9108 H 842.556 3.61901 1.06335 0
M  V30 9109 H 844.943 2.65364 1.29097 0
M  V30 9110 H 845.024 2.51425 -0.471085 0
M  V30 9111 H 844.668 5.03534 -0.664548 0
M  V30 9112 H 844.598 5.14724 1.11207 0
M  V30 9113 H 847.089 3.75788 0.399003 0
M  V30 9114 H 847.402 7.72563 0.191492 0
M  V30 9115 H 845.747 6.94769 0.179161 0
M  V30 9116 H 848.938 4.66298 0.410378 0
M  V30 9117 H 849.111 6.47229 0.315979 0
M  V30 9118 N 842.517 -0.29412 1.54831 0
M  V30 9119 C 843.747 -1.04572 1.7818 0
M  V30 9120 C 844.155 -1.81187 0.544776 0
M  V30 9121 O 843.498 -1.769 -0.495169 0
M  V30 9122 C 843.56 -2.06748 2.94101 0
M  V30 9123 C 843.224 -1.49265 4.31936 0
M  V30 9124 C 844.221 -0.919136 5.11711 0
M  V30 9125 C 841.906 -1.52621 4.78552 0
M  V30 9126 C 843.9 -0.386824 6.36225 0
M  V30 9127 C 841.587 -0.990031 6.03027 0
M  V30 9128 C 842.585 -0.421315 6.81699 0
M  V30 9129 O 842.273 0.106713 8.03829 0
M  V30 9130 H 842.005 -0.31559 0.597812 0
M  V30 9131 H 844.559 -0.336817 2.0262 0
M  V30 9132 H 842.789 -2.81339 2.65303 0
M  V30 9133 H 844.478 -2.67865 3.04964 0
M  V30 9134 H 845.244 -0.886062 4.76837 0
M  V30 9135 H 841.123 -1.95826 4.17341 0
M  V30 9136 H 844.667 0.0577248 6.97576 0
M  V30 9137 H 840.564 -1.02027 6.37386 0
M  V30 9138 H 841.332 -0.00593526 8.185 0
M  V30 9139 N 843.995 -1.47404 -0.557645 0
M  V30 9140 C 845.241 -1.54235 -1.31679 0
M  V30 9141 C 845.574 -0.203782 -1.93128 0
M  V30 9142 O 844.849 0.787536 -1.77843 0
M  V30 9143 C 845.132 -2.66003 -2.42723 0
M  V30 9144 C 844.985 -4.09475 -1.86145 0
M  V30 9145 C 846.304 -2.73685 -3.44652 0
M  V30 9146 H 843.423 -0.561466 -0.477415 0
M  V30 9147 H 846.065 -1.79459 -0.624067 0
M  V30 9148 H 844.215 -2.44627 -3.01811 0
M  V30 9149 H 845.887 -4.42213 -1.31321 0
M  V30 9150 H 844.13 -4.17774 -1.16823 0
M  V30 9151 H 844.801 -4.83451 -2.66418 0
M  V30 9152 H 847.277 -2.92968 -2.95481 0
M  V30 9153 H 846.153 -3.53665 -4.19777 0
M  V30 9154 H 846.414 -1.80726 -4.03473 0
M  V30 9155 N 845.473 0.80434 -1.35529 0
M  V30 9156 C 846.42 1.91629 -1.28635 0
M  V30 9157 C 847.39 1.65348 -0.157862 0
M  V30 9158 O 848.575 1.87711 -0.341934 0
M  V30 9159 C 845.715 3.28207 -1.0665 0
M  V30 9160 C 844.828 3.66659 -2.28441 0
M  V30 9161 C 843.963 4.92279 -1.99588 0
M  V30 9162 C 843.002 5.23365 -3.1742 0
M  V30 9163 N 842.139 6.40165 -2.88328 0
M  V30 9164 H 846.979 1.96858 -2.23721 0
M  V30 9165 H 844.516 0.962871 -1.11208 0
M  V30 9166 H 846.474 4.06945 -0.919343 0
M  V30 9167 H 845.104 3.22441 -0.152253 0
M  V30 9168 H 844.156 2.83164 -2.54013 0
M  V30 9169 H 845.468 3.8559 -3.1642 0
M  V30 9170 H 844.622 5.78847 -1.81715 0
M  V30 9171 H 843.361 4.75387 -1.08896 0
M  V30 9172 H 842.366 4.35285 -3.35867 0
M  V30 9173 H 843.591 5.42185 -4.08916 0
M  V30 9174 H 841.537 6.24694 -2.00233 0
M  V30 9175 H 841.454 6.59357 -3.69843 0
M  V30 9176 H 842.722 7.29755 -2.74002 0
M  V30 9177 N 846.951 1.19563 1.02676 0
M  V30 9178 C 847.861 0.950691 2.14474 0
M  V30 9179 C 848.877 -0.0900219 1.73767 0
M  V30 9180 O 850.053 0.0951063 2.01175 0
M  V30 9181 C 847.118 0.494917 3.43149 0
M  V30 9182 C 846.179 1.60527 3.98158 0
M  V30 9183 C 845.412 1.17115 5.20692 0
M  V30 9184 O 845.635 0.0355937 5.70389 0
M  V30 9185 O 844.569 1.97454 5.68591 0
M  V30 9186 H 848.395 1.88651 2.38001 0
M  V30 9187 H 845.98 0.978635 1.12885 0
M  V30 9188 H 847.862 0.249492 4.20661 0
M  V30 9189 H 846.537 -0.412434 3.21062 0
M  V30 9190 H 845.444 1.90487 3.21971 0
M  V30 9191 H 846.777 2.48925 4.24614 0
M  V30 9192 N 848.429 -1.21819 0.999893 0
M  V30 9193 C 849.377 -2.26027 0.549047 0
M  V30 9194 C 850.371 -1.64516 -0.403826 0
M  V30 9195 O 851.577 -1.77878 -0.275578 0
M  V30 9196 H 847.952 -0.734958 0.159185 0
M  V30 9197 H 849.923 -2.61398 1.43923 0
M  V30 9198 C 848.672 -3.47514 -0.11369 0
M  V30 9199 H 847.995 -3.95112 0.610482 0
M  V30 9200 H 849.435 -4.22179 -0.3925 0
M  V30 9201 C 847.894 -3.08614 -1.35126 0
M  V30 9202 O 848.424 -3.1864 -2.44605 0
M  V30 9203 N 846.63 -2.63327 -1.22911 0
M  V30 9204 H 846.177 -2.55369 -0.338288 0
M  V30 9205 H 846.135 -2.37668 -2.05818 0
M  V30 9206 N 849.908 -0.773975 -1.37286 0
M  V30 9207 C 851.148 -0.344505 -2.01476 0
M  V30 9208 C 851.512 1.05966 -1.6011 0
M  V30 9209 O 852.713 1.58937 -2.16778 0
M  V30 9210 C 850.984 -0.485816 -3.54083 0
M  V30 9211 S 852.543 -0.141939 -4.3857 0
M  V30 9212 H 849.361 -0.13243 -0.698558 0
M  V30 9213 H 851.963 -1.00908 -1.67445 0
M  V30 9214 H 850.667 -1.50835 -3.81677 0
M  V30 9215 H 850.198 0.195232 -3.92915 0
M  V30 9216 H 852.213 1.06177 -4.84707 0
M  V30 9217 N 851.386 1.48609 -0.524698 0
M  V30 9218 C 852.333 2.29539 0.240956 0
M  V30 9219 C 853.303 1.37033 0.938681 0
M  V30 9220 O 854.488 1.65996 0.940737 0
M  V30 9221 C 851.628 3.20278 1.28514 0
M  V30 9222 C 850.741 4.27858 0.596798 0
M  V30 9223 C 849.876 5.05784 1.62346 0
M  V30 9224 C 848.915 6.05173 0.918287 0
M  V30 9225 N 848.052 6.76176 1.89025 0
M  V30 9226 H 852.892 2.945 -0.455368 0
M  V30 9227 H 850.429 1.45188 -0.236403 0
M  V30 9228 H 852.387 3.71281 1.90279 0
M  V30 9229 H 851.017 2.57251 1.94992 0
M  V30 9230 H 850.069 3.80162 -0.134668 0
M  V30 9231 H 851.381 4.98782 0.0428506 0
M  V30 9232 H 850.535 5.60775 2.31553 0
M  V30 9233 H 849.274 4.34687 2.2113 0
M  V30 9234 H 848.279 5.49391 0.21212 0
M  V30 9235 H 849.504 6.78265 0.336633 0
M  V30 9236 H 847.45 6.07834 2.46726 0
M  V30 9237 H 847.367 7.43157 1.3876 0
M  V30 9238 H 848.635 7.35759 2.57446 0
M  V30 9239 N 852.864 0.259585 1.55447 0
M  V30 9240 C 854.275 -0.241165 1.85136 0
M  V30 9241 C 854.626 -1.56634 1.18153 0
M  V30 9242 O 853.751 -2.11359 0.464351 0
M  V30 9243 C 854.346 -0.444355 3.35873 0
M  V30 9244 C 852.905 -0.889354 3.65742 0
M  V30 9245 C 852.052 0.0262474 2.77288 0
M  V30 9246 H 855.003 0.481808 1.51209 0
M  V30 9247 H 855.024 -1.28517 3.58139 0
M  V30 9248 H 854.536 0.520289 3.84597 0
M  V30 9249 H 852.637 -1.86602 3.22507 0
M  V30 9250 H 852.75 -0.737432 4.73391 0
M  V30 9251 H 851.114 -0.487361 2.49994 0
M  V30 9252 H 851.897 0.986494 3.28821 0
M  V30 9253 N 854.342 -1.57594 -0.0133615 0
M  V30 9254 C 855.272 -2.10611 -1.00823 0
M  V30 9255 C 856.253 -1.01217 -1.36708 0
M  V30 9256 O 857.438 -1.28827 -1.45318 0
M  V30 9257 C 854.568 -2.59844 -2.30431 0
M  V30 9258 C 853.522 -3.73644 -2.08745 0
M  V30 9259 C 852.848 -4.09141 -3.4425 0
M  V30 9260 C 854.148 -5.01454 -1.46086 0
M  V30 9261 H 855.842 -2.93985 -0.566849 0
M  V30 9262 H 853.388 -1.41423 -0.271219 0
M  V30 9263 H 855.341 -2.95557 -3.00373 0
M  V30 9264 H 854.065 -1.73573 -2.76658 0
M  V30 9265 H 852.724 -3.38303 -1.41232 0
M  V30 9266 H 852.372 -3.19914 -3.88155 0
M  V30 9267 H 852.072 -4.85802 -3.3056 0
M  V30 9268 H 853.596 -4.47402 -4.15528 0
M  V30 9269 H 855.01 -5.35024 -2.05966 0
M  V30 9270 H 853.407 -5.82832 -1.42924 0
M  V30 9271 H 854.477 -4.83003 -0.428471 0
M  V30 9272 N 855.82 0.285905 -1.54985 0
M  V30 9273 C 856.767 1.35306 -1.86978 0
M  V30 9274 C 857.737 1.49682 -0.720046 0
M  V30 9275 O 858.922 1.64297 -0.970107 0
M  V30 9276 C 856.062 2.71059 -2.13591 0
M  V30 9277 C 855.175 2.6501 -3.41165 0
M  V30 9278 C 854.31 3.92856 -3.57544 0
M  V30 9279 C 853.349 3.81266 -4.78855 0
M  V30 9280 N 852.486 5.00919 -4.9196 0
M  V30 9281 H 857.326 1.07323 -2.78003 0
M  V30 9282 H 854.863 0.518776 -1.37649 0
M  V30 9283 H 856.821 3.50026 -2.27019 0
M  V30 9284 H 855.451 2.97271 -1.25816 0
M  V30 9285 H 854.503 1.77824 -3.36278 0
M  V30 9286 H 855.815 2.52342 -4.30262 0
M  V30 9287 H 854.969 4.80263 -3.70718 0
M  V30 9288 H 853.708 4.08377 -2.66608 0
M  V30 9289 H 852.713 2.92243 -4.65698 0
M  V30 9290 H 853.938 3.67277 -5.71213 0
M  V30 9291 H 851.884 5.16875 -4.03951 0
M  V30 9292 H 851.801 4.90732 -5.75081 0
M  V30 9293 H 853.069 5.89935 -5.09507 0
M  V30 9294 N 857.298 1.47698 0.54982 0
M  V30 9295 C 858.523 1.58579 1.33669 0
M  V30 9296 C 858.948 0.239049 1.86575 0
M  V30 9297 O 858.306 -0.786256 1.63364 0
M  V30 9298 C 858.354 2.62029 2.47736 0
M  V30 9299 O 857.458 2.17813 3.50188 0
M  V30 9300 H 856.799 0.532447 0.396732 0
M  V30 9301 H 859.329 1.93536 0.6637 0
M  V30 9302 H 859.339 2.82682 2.94202 0
M  V30 9303 H 858.014 3.59812 2.08586 0
M  V30 9304 H 856.591 2.07291 3.09976 0
M  V30 9305 N 858.776 -0.797141 1.35954 0
M  V30 9306 C 860.006 -1.5835 1.32698 0
M  V30 9307 C 860.414 -1.88959 -0.0955298 0
M  V30 9308 O 859.757 -1.49987 -1.06064 0
M  V30 9309 C 859.819 -2.93529 2.0756 0
M  V30 9310 C 859.483 -2.85688 3.56695 0
M  V30 9311 C 860.48 -2.58467 4.51099 0
M  V30 9312 C 858.165 -3.04508 3.99475 0
M  V30 9313 C 860.159 -2.50157 5.8626 0
M  V30 9314 C 857.846 -2.9582 5.34728 0
M  V30 9315 C 858.844 -2.68681 6.27933 0
M  V30 9316 O 858.532 -2.59973 7.60703 0
M  V30 9317 H 858.264 -0.49807 0.457059 0
M  V30 9318 H 860.818 -0.997889 1.79531 0
M  V30 9319 H 859.048 -3.54111 1.55378 0
M  V30 9320 H 860.737 -3.54744 1.9726 0
M  V30 9321 H 861.503 -2.43638 4.19363 0
M  V30 9322 H 857.382 -3.24641 3.27306 0
M  V30 9323 H 860.926 -2.28894 6.58979 0
M  V30 9324 H 856.823 -3.10211 5.66074 0
M  V30 9325 H 857.591 -2.75511 7.70737 0
M  V30 9326 N 860.254 -1.20106 -1.0204 0
M  V30 9327 C 861.187 -0.889795 -2.10138 0
M  V30 9328 C 862.165 0.156595 -1.61844 0
M  V30 9329 O 863.349 0.0310192 -1.88474 0
M  V30 9330 C 860.476 -0.333227 -3.37057 0
M  V30 9331 C 859.522 -1.36001 -4.04235 0
M  V30 9332 S 860.355 -2.92366 -4.48645 0
M  V30 9333 C 861.511 -2.38274 -5.78771 0
M  V30 9334 H 861.744 -1.80523 -2.36217 0
M  V30 9335 H 859.277 -1.02912 -1.15102 0
M  V30 9336 H 861.235 -0.0186507 -4.10496 0
M  V30 9337 H 859.896 0.560652 -3.09056 0
M  V30 9338 H 859.089 -0.919874 -4.95534 0
M  V30 9339 H 858.691 -1.62186 -3.37004 0
M  V30 9340 H 860.983 -1.77799 -6.53754 0
M  V30 9341 H 861.926 -3.27955 -6.27576 0
M  V30 9342 H 862.334 -1.8054 -5.34851 0
M  V30 9343 N 861.732 1.21287 -1.00634 0
M  V30 9344 C 862.662 2.25973 -0.588089 0
M  V30 9345 C 863.643 1.65527 0.391764 0
M  V30 9346 O 864.828 1.92179 0.279452 0
M  V30 9347 C 861.958 3.47197 0.0847336 0
M  V30 9348 C 860.912 4.20168 -0.815039 0
M  V30 9349 C 860.238 5.34699 -0.00855393 0
M  V30 9350 C 861.538 4.77416 -2.11828 0
M  V30 9351 H 863.232 2.61212 -1.46317 0
M  V30 9352 H 860.778 1.25563 -0.704985 0
M  V30 9353 H 862.731 4.19602 0.388821 0
M  V30 9354 H 861.455 3.11092 0.994456 0
M  V30 9355 H 860.114 3.49614 -1.10297 0
M  V30 9356 H 859.762 4.94837 0.902499 0
M  V30 9357 H 859.462 5.84449 -0.607664 0
M  V30 9358 H 860.986 6.09914 0.289317 0
M  V30 9359 H 862.4 5.41694 -1.87725 0
M  V30 9360 H 860.797 5.37561 -2.66736 0
M  V30 9361 H 861.867 3.96724 -2.78816 0
M  V30 9362 N 863.21 0.781244 1.36873 0
M  V30 9363 C 864.142 0.132075 2.28819 0
M  V30 9364 C 865.155 -0.653925 1.49089 0
M  V30 9365 O 866.344 -0.490453 1.7163 0
M  V30 9366 C 863.444 -0.836297 3.28419 0
M  V30 9367 C 862.617 -0.102097 4.37281 0
M  V30 9368 C 861.676 -0.985217 5.16894 0
M  V30 9369 O 860.702 -0.445478 5.67454 0
M  V30 9370 N 861.904 -2.31043 5.3254 0
M  V30 9371 H 864.669 0.921838 2.85171 0
M  V30 9372 H 862.23 0.634427 1.48952 0
M  V30 9373 H 864.222 -1.43074 3.78566 0
M  V30 9374 H 862.792 -1.52698 2.72767 0
M  V30 9375 H 862.012 0.67335 3.88407 0
M  V30 9376 H 863.3 0.404862 5.07187 0
M  V30 9377 H 862.698 -2.77318 4.93063 0
M  V30 9378 H 861.255 -2.85472 5.8596 0
M  V30 9379 N 864.689 -1.48329 0.532571 0
M  V30 9380 C 865.966 -1.95492 -0.0650985 0
M  V30 9381 C 866.346 -1.47485 -1.51034 0
M  V30 9382 O 865.694 -0.702516 -2.17433 0
M  V30 9383 C 865.904 -3.48957 0.0548341 0
M  V30 9384 C 867.252 -4.24475 -0.103115 0
M  V30 9385 O 868.276 -3.56195 -0.0188343 0
M  V30 9386 O 867.135 -5.45781 -0.280164 0
M  V30 9387 H 864.229 -0.823327 -0.0778603 0
M  V30 9388 H 866.775 -1.58839 0.597353 0
M  V30 9389 H 865.547 -3.76628 1.06148 0
M  V30 9390 H 865.17 -3.92311 -0.64635 0
M  V30 9391 N 866.167 -0.267825 -1.55308 0
M  V30 9392 C 867.392 0.357487 -2.04296 0
M  V30 9393 C 867.817 1.49222 -1.14518 0
M  V30 9394 O 867.175 1.80741 -0.142292 0
M  V30 9395 C 867.223 0.822899 -3.51085 0
M  V30 9396 O 866.327 1.93078 -3.6441 0
M  V30 9397 H 865.668 0.075025 -0.659748 0
M  V30 9398 H 868.198 -0.399996 -2.00652 0
M  V30 9399 H 868.208 1.12059 -3.92309 0
M  V30 9400 H 866.883 -0.0073562 -4.15899 0
M  V30 9401 H 865.46 1.63618 -3.35087 0
M  V30 9402 N 867.645 1.57599 0.00500368 0
M  V30 9403 C 868.575 2.11143 0.99705 0
M  V30 9404 C 869.556 1.0194 1.3617 0
M  V30 9405 O 870.741 1.29596 1.44632 0
M  V30 9406 C 867.871 2.61062 2.2905 0
M  V30 9407 C 866.825 3.74745 2.0676 0
M  V30 9408 C 866.151 4.10961 3.42075 0
M  V30 9409 C 867.451 5.02222 1.43424 0
M  V30 9410 H 869.145 2.94281 0.551251 0
M  V30 9411 H 866.691 1.41565 0.263715 0
M  V30 9412 H 868.644 2.97146 2.98801 0
M  V30 9413 H 867.368 1.75038 2.75734 0
M  V30 9414 H 866.027 3.39047 1.39436 0
M  V30 9415 H 865.675 3.21968 3.86453 0
M  V30 9416 H 865.375 4.87549 3.27979 0
M  V30 9417 H 866.899 4.49599 4.1315 0
M  V30 9418 H 868.313 5.36109 2.03125 0
M  V30 9419 H 866.71 5.83581 1.39831 0
M  V30 9420 H 867.78 4.83224 0.40285 0
M  V30 9421 N 869.123 -0.277682 1.55134 0
M  V30 9422 C 870.033 -1.36524 1.90783 0
M  V30 9423 C 871.049 -1.54283 0.804542 0
M  V30 9424 O 872.225 -1.68499 1.10318 0
M  V30 9425 C 869.29 -2.70524 2.16835 0
M  V30 9426 C 868.351 -2.61552 3.40424 0
M  V30 9427 C 867.584 -3.89162 3.65224 0
M  V30 9428 O 867.807 -4.89624 2.92616 0
M  V30 9429 O 866.741 -3.89647 4.58758 0
M  V30 9430 H 870.567 -1.0929 2.83354 0
M  V30 9431 H 868.152 -0.475799 1.41621 0
M  V30 9432 H 870.034 -3.49765 2.35038 0
M  V30 9433 H 868.709 -2.97555 1.27448 0
M  V30 9434 H 867.616 -1.80704 3.27562 0
M  V30 9435 H 868.949 -2.39472 4.30016 0
M  V30 9436 N 870.601 -1.47988 -0.541979 0
M  V30 9437 C 871.551 -1.58019 -1.64359 0
M  V30 9438 C 872.535 -0.438056 -1.54822 0
M  V30 9439 O 873.727 -0.688837 -1.63046 0
M  V30 9440 C 870.856 -1.61182 -3.03109 0
M  V30 9441 C 869.942 -2.80834 -3.17794 0
M  V30 9442 N 870.333 -4.05379 -3.02492 0
M  V30 9443 C 868.631 -2.77914 -3.48826 0
M  V30 9444 C 869.332 -4.85592 -3.20274 0
M  V30 9445 N 868.308 -4.18188 -3.47304 0
M  V30 9446 H 872.11 -2.52071 -1.5112 0
M  V30 9447 H 869.624 -1.44193 -0.747137 0
M  V30 9448 H 871.621 -1.66461 -3.82226 0
M  V30 9449 H 870.281 -0.682375 -3.17449 0
M  V30 9450 H 871.292 -4.36003 -2.79503 0
M  V30 9451 H 867.969 -1.94174 -3.69598 0
M  V30 9452 H 869.359 -5.94394 -3.13282 0
M  V30 9453 N 872.079 0.78992 -1.36375 0
M  V30 9454 C 873.325 1.55007 -1.3077 0
M  V30 9455 C 873.658 1.93871 0.112979 0
M  V30 9456 O 872.933 1.6267 1.06625 0
M  V30 9457 C 873.216 2.82748 -2.22993 0
M  V30 9458 C 873.069 2.50253 -3.73756 0
M  V30 9459 C 874.388 3.84569 -2.13998 0
M  V30 9460 H 871.507 0.562362 -0.476359 0
M  V30 9461 H 874.149 0.907582 -1.66922 0
M  V30 9462 H 872.299 3.37573 -1.92292 0
M  V30 9463 H 873.971 2.01482 -4.14973 0
M  V30 9464 H 872.214 1.83203 -3.93216 0
M  V30 9465 H 872.885 3.41487 -4.33694 0
M  V30 9466 H 875.361 3.39188 -2.4102 0
M  V30 9467 H 874.237 4.717 -2.80697 0
M  V30 9468 H 874.498 4.27491 -1.12711 0
M  V30 9469 N 873.557 1.20646 1.01402 0
M  V30 9470 C 874.489 0.915392 2.10127 0
M  V30 9471 C 875.502 -0.0978705 1.62506 0
M  V30 9472 O 876.691 0.133477 1.78 0
M  V30 9473 C 873.791 0.351304 3.37074 0
M  V30 9474 C 872.964 1.41673 4.13821 0
M  V30 9475 C 872.023 0.8635 5.19067 0
M  V30 9476 O 871.049 1.54481 5.47836 0
M  V30 9477 N 872.251 -0.325799 5.79585 0
M  V30 9478 H 875.016 1.85132 2.35682 0
M  V30 9479 H 872.577 1.11048 1.17813 0
M  V30 9480 H 874.569 -0.032996 4.04687 0
M  V30 9481 H 873.139 -0.489242 3.08748 0
M  V30 9482 H 872.359 1.97526 3.41141 0
M  V30 9483 H 873.647 2.1342 4.61876 0
M  V30 9484 H 873.045 -0.896534 5.58551 0
M  V30 9485 H 871.602 -0.651708 6.48534 0
M  V30 9486 N 875.035 -1.20752 1.01276 0
M  V30 9487 C 875.965 -2.25658 0.600064 0
M  V30 9488 C 876.946 -1.65733 -0.38298 0
M  V30 9489 O 878.131 -1.92324 -0.269256 0
M  V30 9490 C 875.261 -3.47237 -0.0663197 0
M  V30 9491 C 874.215 -4.1973 0.83731 0
M  V30 9492 C 873.541 -5.34687 0.0369102 0
M  V30 9493 C 874.841 -4.76286 2.14357 0
M  V30 9494 H 876.535 -2.60432 1.477 0
M  V30 9495 H 874.081 -1.25187 0.711634 0
M  V30 9496 H 876.034 -4.19803 -0.366563 0
M  V30 9497 H 874.758 -3.11615 -0.977944 0
M  V30 9498 H 873.417 -3.49024 1.1215 0
M  V30 9499 H 873.065 -4.95309 -0.876244 0
M  V30 9500 H 872.765 -5.84119 0.63865 0
M  V30 9501 H 874.289 -6.10059 -0.256968 0
M  V30 9502 H 875.703 -5.40691 1.90595 0
M  V30 9503 H 874.1 -5.36139 2.69583 0
M  V30 9504 H 875.17 -3.9524 2.80916 0
M  V30 9505 N 876.513 -0.788492 -1.36457 0
M  V30 9506 C 877.76 -0.360461 -1.99266 0
M  V30 9507 C 878.088 1.0676 -1.62581 0
M  V30 9508 O 877.343 1.75205 -0.871884 0
M  V30 9509 C 877.642 -0.470255 -3.54293 0
M  V30 9510 C 877.308 -1.85899 -4.10795 0
M  V30 9511 C 875.97 -2.23896 -4.25939 0
M  V30 9512 C 878.322 -2.76836 -4.41601 0
M  V30 9513 C 875.65 -3.52235 -4.69199 0
M  V30 9514 C 878.002 -4.04602 -4.86292 0
M  V30 9515 C 876.666 -4.42623 -4.99641 0
M  V30 9516 H 875.936 -0.131902 -0.729166 0
M  V30 9517 H 878.583 -1.00577 -1.62962 0
M  V30 9518 H 876.888 0.258559 -3.90946 0
M  V30 9519 H 878.585 -0.120119 -4.0082 0
M  V30 9520 H 875.175 -1.55372 -3.99447 0
M  V30 9521 H 879.359 -2.48735 -4.2947 0
M  V30 9522 H 874.615 -3.81565 -4.77722 0
M  V30 9523 H 878.789 -4.75182 -5.09092 0
M  V30 9524 H 876.416 -5.42125 -5.32921 0
M  V30 9525 N 877.991 1.48044 -0.54043 0
M  V30 9526 C 879.268 1.95523 0.0547302 0
M  V30 9527 C 879.648 1.48284 1.5025 0
M  V30 9528 O 878.996 0.714037 2.17057 0
M  V30 9529 C 879.206 3.48923 -0.0733393 0
M  V30 9530 C 880.554 4.24523 0.0806026 0
M  V30 9531 O 881.578 3.562 -5.58687e-05 0
M  V30 9532 O 880.437 5.45922 0.251216 0
M  V30 9533 H 877.531 0.823728 0.073493 0
M  V30 9534 H 880.077 1.5852 -0.605768 0
M  V30 9535 H 878.849 3.76059 -1.08144 0
M  V30 9536 H 878.472 3.92648 0.625536 0
M  V30 9537 N 879.47 0.276058 1.55163 0
M  V30 9538 C 880.4 -0.604633 2.25536 0
M  V30 9539 C 881.381 -1.15813 1.24585 0
M  V30 9540 O 882.566 -1.1921 1.53306 0
M  V30 9541 C 879.696 -1.78836 2.97716 0
M  V30 9542 C 878.65 -1.36635 4.05604 0
M  V30 9543 C 877.976 -2.63325 4.65364 0
M  V30 9544 C 879.276 -0.515858 5.19746 0
M  V30 9545 H 880.97 -0.0177483 2.99395 0
M  V30 9546 H 878.516 -0.00709627 1.43998 0
M  V30 9547 H 880.469 -2.41036 3.45658 0
M  V30 9548 H 879.193 -2.40109 2.21394 0
M  V30 9549 H 877.852 -0.767541 3.58475 0
M  V30 9550 H 877.5 -3.22858 3.85709 0
M  V30 9551 H 877.2 -2.358 5.38212 0
M  V30 9552 H 878.724 -3.26372 5.16056 0
M  V30 9553 H 880.138 -1.04289 5.63735 0
M  V30 9554 H 878.535 -0.335449 5.99162 0
M  V30 9555 H 879.605 0.465137 4.82664 0
M  V30 9556 N 880.948 -1.576 0.00335426 0
M  V30 9557 C 881.881 -2.04085 -1.021 0
M  V30 9558 C 882.859 -0.931382 -1.33282 0
M  V30 9559 O 884.043 -1.19976 -1.45389 0
M  V30 9560 C 881.17 -2.44128 -2.34775 0
M  V30 9561 C 880.216 -3.65841 -2.19232 0
M  V30 9562 S 881.049 -5.13616 -1.51521 0
M  V30 9563 C 882.205 -5.56931 -2.8562 0
M  V30 9564 H 882.438 -2.90652 -0.625192 0
M  V30 9565 H 879.971 -1.52998 -0.207611 0
M  V30 9566 H 881.929 -2.67866 -3.1106 0
M  V30 9567 H 880.59 -1.57954 -2.71495 0
M  V30 9568 H 879.783 -3.9162 -3.17253 0
M  V30 9569 H 879.385 -3.42122 -1.51091 0
M  V30 9570 H 881.677 -5.59596 -3.81914 0
M  V30 9571 H 882.62 -6.5683 -2.64536 0
M  V30 9572 H 883.028 -4.84504 -2.89683 0
M  V30 9573 N 882.426 0.269451 -1.5528 0
M  V30 9574 C 883.842 0.616827 -1.47199 0
M  V30 9575 C 884.042 1.89354 -0.68901 0
M  V30 9576 O 883.098 2.51631 -0.209287 0
M  V30 9577 C 884.411 0.740492 -2.9144 0
M  V30 9578 C 885.959 0.834312 -3.01676 0
M  V30 9579 C 886.434 0.989725 -4.47178 0
M  V30 9580 N 887.925 1.05516 -4.51022 0
M  V30 9581 C 888.66 1.19427 -5.60825 0
M  V30 9582 N 888.156 1.30035 -6.80487 0
M  V30 9583 N 889.949 1.22566 -5.48575 0
M  V30 9584 H 882.1 -0.568962 -2.04638 0
M  V30 9585 H 884.363 -0.193153 -0.928114 0
M  V30 9586 H 884.069 -0.127234 -3.5147 0
M  V30 9587 H 883.943 1.61965 -3.40657 0
M  V30 9588 H 886.33 1.6925 -2.4174 0
M  V30 9589 H 886.411 -0.0695298 -2.55705 0
M  V30 9590 H 886.055 0.136179 -5.07717 0
M  V30 9591 H 885.985 1.90827 -4.90808 0
M  V30 9592 H 888.476 0.985434 -3.64825 0
M  V30 9593 H 888.789 1.40494 -7.59922 0
M  V30 9594 H 887.134 1.27033 -6.83292 0
M  V30 9595 H 890.325 1.13911 -4.54029 0
M  V30 9596 H 890.498 1.33063 -6.34191 0
M  V30 9597 N 883.904 1.48273 0.534124 0
M  V30 9598 C 885.32 1.34302 0.862272 0
M  V30 9599 C 885.52 0.350902 1.98421 0
M  V30 9600 O 884.576 -0.229364 2.51456 0
M  V30 9601 C 885.889 2.74227 1.23371 0
M  V30 9602 C 887.437 2.82684 1.34383 0
M  V30 9603 C 887.912 4.23301 1.74871 0
M  V30 9604 N 889.403 4.25954 1.81981 0
M  V30 9605 C 890.138 5.31693 2.14686 0
M  V30 9606 N 889.634 6.47714 2.45844 0
M  V30 9607 N 891.427 5.19084 2.15657 0
M  V30 9608 H 883.578 2.11397 -0.206215 0
M  V30 9609 H 885.841 0.947537 -0.0296116 0
M  V30 9610 H 885.547 3.48368 0.482967 0
M  V30 9611 H 885.421 3.07485 2.18478 0
M  V30 9612 H 887.808 2.08801 2.08534 0
M  V30 9613 H 887.889 2.5305 0.374063 0
M  V30 9614 H 887.533 4.97699 1.01282 0
M  V30 9615 H 887.463 4.50376 2.7289 0
M  V30 9616 H 889.954 3.42266 1.60196 0
M  V30 9617 H 890.267 7.2414 2.69892 0
M  V30 9618 H 888.612 6.50995 2.43372 0
M  V30 9619 H 891.803 4.27463 1.9077 0
M  V30 9620 H 891.976 6.01592 2.40813 0
M  V30 9621 N 885.382 -0.782676 1.36792 0
M  V30 9622 C 886.315 -1.90241 1.2603 0
M  V30 9623 C 887.293 -1.61969 0.143055 0
M  V30 9624 O 888.477 -1.85843 0.315366 0
M  V30 9625 C 885.604 -3.25218 0.946082 0
M  V30 9626 C 884.65 -3.72414 2.0787 0
M  V30 9627 S 885.483 -3.87376 3.69729 0
M  V30 9628 C 886.639 -5.25219 3.40435 0
M  V30 9629 H 886.872 -1.99079 2.20805 0
M  V30 9630 H 884.405 -0.942625 1.22286 0
M  V30 9631 H 886.363 -4.03183 0.771612 0
M  V30 9632 H 885.024 -3.14096 0.0159991 0
M  V30 9633 H 884.217 -4.7024 1.81358 0
M  V30 9634 H 883.819 -3.01519 2.21274 0
M  V30 9635 H 886.111 -6.10025 2.94746 0
M  V30 9636 H 887.054 -5.56738 4.37549 0
M  V30 9637 H 887.462 -4.92638 2.75622 0
M  V30 9638 N 886.86 -1.21182 -1.00761 0
M  V30 9639 C 887.79 -0.992773 -2.11344 0
M  V30 9640 C 888.771 0.0813618 -1.69905 0
M  V30 9641 O 889.956 -0.0779503 -1.94043 0
M  V30 9642 C 887.086 -0.553826 -3.42856 0
M  V30 9643 C 886.04 -1.57223 -3.98077 0
M  V30 9644 C 885.366 -0.989605 -5.25463 0
M  V30 9645 C 886.666 -2.95839 -4.30438 0
M  V30 9646 H 888.36 -1.91766 -2.29927 0
M  V30 9647 H 885.906 -0.923426 -1.10494 0
M  V30 9648 H 887.859 -0.387771 -4.19612 0
M  V30 9649 H 886.583 0.406702 -3.24058 0
M  V30 9650 H 885.242 -1.7258 -3.23437 0
M  V30 9651 H 884.89 -0.0208743 -5.02996 0
M  V30 9652 H 884.59 -1.66984 -5.63374 0
M  V30 9653 H 886.114 -0.834815 -6.04866 0
M  V30 9654 H 887.528 -2.8394 -4.98047 0
M  V30 9655 H 885.925 -3.60851 -4.79486 0
M  V30 9656 H 886.995 -3.46882 -3.38823 0
M  V30 9657 N 888.338 1.20213 -1.01915 0
M  V30 9658 C 889.248 2.26763 -0.601311 0
M  V30 9659 C 890.264 1.70185 0.362369 0
M  V30 9660 O 891.44 2.00165 0.222682 0
M  V30 9661 C 888.505 3.46662 0.0512879 0
M  V30 9662 C 887.566 4.18459 -0.958659 0
M  V30 9663 C 886.799 5.32634 -0.337107 0
M  V30 9664 O 887.022 5.63841 0.86251 0
M  V30 9665 O 885.956 5.9258 -1.05511 0
M  V30 9666 H 889.782 2.64725 -1.48844 0
M  V30 9667 H 887.367 1.2688 -0.788784 0
M  V30 9668 H 889.249 4.19345 0.41564 0
M  V30 9669 H 887.924 3.1057 0.912572 0
M  V30 9670 H 886.831 3.47937 -1.37442 0
M  V30 9671 H 888.164 4.58498 -1.78999 0
M  V30 9672 N 889.816 0.795718 1.36037 0
M  V30 9673 C 891.063 0.371024 1.99072 0
M  V30 9674 C 891.391 -1.05896 1.63145 0
M  V30 9675 O 890.646 -1.7474 0.881163 0
M  V30 9676 C 890.945 0.489038 3.54038 0
M  V30 9677 C 890.611 1.88075 4.09803 0
M  V30 9678 C 889.273 2.26152 4.24745 0
M  V30 9679 C 891.625 2.79174 4.40126 0
M  V30 9680 C 888.953 3.54718 4.67324 0
M  V30 9681 C 891.305 4.07175 4.8414 0
M  V30 9682 C 889.969 4.45266 4.97287 0
M  V30 9683 H 889.239 0.135767 0.728456 0
M  V30 9684 H 891.886 1.0144 1.62426 0
M  V30 9685 H 890.191 -0.237823 3.91078 0
M  V30 9686 H 891.888 0.141374 4.00751 0
M  V30 9687 H 888.478 1.57488 3.98617 0
M  V30 9688 H 892.662 2.51009 4.28145 0
M  V30 9689 H 887.918 3.84093 4.75691 0
M  V30 9690 H 892.092 4.77875 5.06565 0
M  V30 9691 H 889.719 5.44943 5.30038 0
M  V30 9692 N 891.294 -1.47756 0.548274 0
M  V30 9693 C 892.571 -1.9555 -0.0443603 0
M  V30 9694 C 892.951 -1.49079 -1.49462 0
M  V30 9695 O 892.299 -0.725538 -2.16675 0
M  V30 9696 C 892.509 -3.48879 0.0918425 0
M  V30 9697 C 893.857 -4.2456 -0.0580879 0
M  V30 9698 O 894.881 -3.56195 0.018946 0
M  V30 9699 O 893.74 -5.46048 -0.222261 0
M  V30 9700 H 890.834 -0.824106 -0.0691235 0
M  V30 9701 H 893.38 -1.58196 0.614166 0
M  V30 9702 H 892.152 -3.7548 1.10137 0
M  V30 9703 H 891.775 -3.92975 -0.604704 0
M  V30 9704 N 892.772 -0.284283 -1.55015 0
M  V30 9705 C 894.183 0.211681 -1.85496 0
M  V30 9706 C 894.534 1.54735 -1.2063 0
M  V30 9707 O 893.659 2.10594 -0.497918 0
M  V30 9708 C 894.254 0.390864 -3.36538 0
M  V30 9709 C 892.813 0.831055 -3.67111 0
M  V30 9710 C 891.96 -0.0703581 -2.77211 0
M  V30 9711 H 894.911 -0.505803 -1.50424 0
M  V30 9712 H 894.932 1.22803 -3.60138 0
M  V30 9713 H 894.444 -0.581409 -3.8372 0
M  V30 9714 H 892.545 1.81447 -3.25434 0
M  V30 9715 H 892.658 0.662026 -4.74504 0
M  V30 9716 H 891.022 0.447528 -2.50737 0
M  V30 9717 H 891.805 -1.03868 -3.2721 0
M  V30 9718 N 894.251 1.57596 -0.0117121 0
M  V30 9719 C 895.214 2.08089 0.960816 0
M  V30 9720 C 896.214 0.992519 1.26514 0
M  V30 9721 O 897.404 1.25475 1.20837 0
M  V30 9722 C 894.536 2.53217 2.28241 0
M  V30 9723 H 895.729 2.9529 0.523829 0
M  V30 9724 H 893.282 1.54508 0.235995 0
M  V30 9725 H 894.017 1.69294 2.76604 0
M  V30 9726 H 893.802 3.32714 2.0747 0
M  V30 9727 H 895.292 2.92568 2.97983 0
M  V30 9728 N 895.729 -0.261212 1.5542 0
M  V30 9729 C 896.661 -1.34571 1.85535 0
M  V30 9730 C 897.674 -1.44979 0.740612 0
M  V30 9731 O 898.863 -1.46584 1.01859 0
M  V30 9732 C 895.963 -2.7258 2.01378 0
M  V30 9733 C 895.136 -2.84618 3.32131 0
M  V30 9734 C 894.195 -4.03379 3.37893 0
M  V30 9735 O 893.221 -3.93581 4.11197 0
M  V30 9736 N 894.423 -5.15893 2.66148 0
M  V30 9737 H 897.188 -1.09078 2.79145 0
M  V30 9738 H 894.749 -0.451327 1.55482 0
M  V30 9739 H 896.741 -3.50342 2.0259 0
M  V30 9740 H 895.311 -2.90844 1.14579 0
M  V30 9741 H 894.531 -1.93647 3.43358 0
M  V30 9742 H 895.819 -2.896 4.18341 0
M  V30 9743 H 895.217 -5.26743 2.06297 0
M  V30 9744 H 893.774 -5.91842 2.73069 0
M  V30 9745 N 897.207 -1.48554 -0.526253 0
M  V30 9746 C 898.623 -1.34757 -0.855138 0
M  V30 9747 C 898.823 -0.36142 -1.98232 0
M  V30 9748 O 897.879 0.216026 -2.51574 0
M  V30 9749 C 899.192 -2.74877 -1.21915 0
M  V30 9750 C 900.74 -2.83393 -1.32882 0
M  V30 9751 C 901.215 -4.24223 -1.72624 0
M  V30 9752 N 902.706 -4.26913 -1.7972 0
M  V30 9753 C 903.441 -5.32824 -2.11863 0
M  V30 9754 N 902.937 -6.49008 -2.42405 0
M  V30 9755 N 904.73 -5.20221 -2.12901 0
M  V30 9756 H 896.881 -2.11284 0.217422 0
M  V30 9757 H 899.144 -0.947367 0.0346362 0
M  V30 9758 H 898.85 -3.48619 -0.464486 0
M  V30 9759 H 898.724 -3.0864 -2.16844 0
M  V30 9760 H 901.111 -2.09904 -2.07424 0
M  V30 9761 H 901.192 -2.53245 -0.360638 0
M  V30 9762 H 900.836 -4.98229 -0.986411 0
M  V30 9763 H 900.766 -4.51817 -2.70498 0
M  V30 9764 H 903.257 -3.4311 -1.58379 0
M  V30 9765 H 903.57 -7.25561 -2.66048 0
M  V30 9766 H 901.915 -6.52277 -2.39917 0
M  V30 9767 H 905.106 -4.28469 -1.885 0
M  V30 9768 H 905.279 -6.02861 -2.37619 0
M  V30 9769 N 898.685 0.775411 -1.37205 0
M  V30 9770 C 899.934 1.52909 -1.31536 0
M  V30 9771 C 900.247 1.9535 0.0989374 0
M  V30 9772 O 901.453 2.70072 0.278079 0
M  V30 9773 C 899.909 2.761 -2.30861 0
M  V30 9774 C 899.517 2.40773 -3.77799 0
M  V30 9775 C 901.261 3.54052 -2.34195 0
M  V30 9776 C 899.168 3.60444 -4.68865 0
M  V30 9777 H 898.098 0.574061 -0.488845 0
M  V30 9778 H 900.749 0.849642 -1.62645 0
M  V30 9779 H 899.131 3.45916 -1.92764 0
M  V30 9780 H 900.305 1.78764 -4.24712 0
M  V30 9781 H 898.62 1.76004 -3.77375 0
M  V30 9782 H 901.217 4.42992 -2.99437 0
M  V30 9783 H 901.56 3.93649 -1.35449 0
M  V30 9784 H 902.093 2.91229 -2.7098 0
M  V30 9785 H 898.832 3.25932 -5.68725 0
M  V30 9786 H 898.352 4.21571 -4.26659 0
M  V30 9787 H 900.031 4.27302 -4.85821 0
M  V30 9788 N 900.163 1.21714 1.00117 0
M  V30 9789 C 901.391 1.06278 1.77518 0
M  V30 9790 C 901.806 -0.387193 1.84787 0
M  V30 9791 O 901.163 -1.26854 1.31203 0
M  V30 9792 C 901.214 1.65795 3.21239 0
M  V30 9793 O 900.935 3.05119 3.14378 0
M  V30 9794 C 902.436 1.55521 4.15124 0
M  V30 9795 H 899.656 0.373013 0.557765 0
M  V30 9796 H 902.2 1.61133 1.25922 0
M  V30 9797 H 900.355 1.15022 3.69931 0
M  V30 9798 H 900.769 3.33643 4.04701 0
M  V30 9799 H 902.243 2.01902 5.13751 0
M  V30 9800 H 902.72 0.510307 4.36225 0
M  V30 9801 H 903.326 2.0556 3.72324 0
M  V30 9802 N 901.641 -1.19671 1.02551 0
M  V30 9803 C 902.571 -2.25009 0.623965 0
M  V30 9804 C 903.552 -1.66129 -0.36538 0
M  V30 9805 O 904.737 -1.92599 -0.248842 0
M  V30 9806 C 901.867 -3.47287 -0.0294869 0
M  V30 9807 C 900.821 -4.18818 0.881781 0
M  V30 9808 C 900.147 -5.34618 0.0936189 0
M  V30 9809 C 901.447 -4.73986 2.19396 0
M  V30 9810 H 903.141 -2.58851 1.50454 0
M  V30 9811 H 900.687 -1.24425 0.724872 0
M  V30 9812 H 902.64 -4.20168 -0.322016 0
M  V30 9813 H 901.364 -3.12635 -0.944838 0
M  V30 9814 H 900.023 -3.47815 1.15845 0
M  V30 9815 H 899.671 -4.9621 -0.823661 0
M  V30 9816 H 899.371 -5.83409 0.700568 0
M  V30 9817 H 900.895 -6.10297 -0.192249 0
M  V30 9818 H 902.309 -5.38639 1.96319 0
M  V30 9819 H 900.706 -5.3325 2.75254 0
M  V30 9820 H 901.776 -3.92238 2.85092 0
M  V30 9821 N 903.119 -0.802921 -1.35613 0
M  V30 9822 C 904.082 -0.216422 -2.28176 0
M  V30 9823 C 905.082 0.594101 -1.49422 0
M  V30 9824 O 906.272 0.41312 -1.6923 0
M  V30 9825 C 903.404 0.698746 -3.33662 0
M  V30 9826 H 904.597 -1.03276 -2.81557 0
M  V30 9827 H 902.15 -0.573307 -1.45406 0
M  V30 9828 H 902.885 1.53891 -2.85461 0
M  V30 9829 H 902.67 0.119314 -3.91918 0
M  V30 9830 H 904.16 1.10354 -4.02755 0
M  V30 9831 N 904.597 1.47463 -0.556102 0
M  V30 9832 C 905.507 2.33785 0.195378 0
M  V30 9833 C 906.523 1.48123 0.913 0
M  V30 9834 O 907.699 1.81053 0.882141 0
M  V30 9835 C 904.764 3.24795 1.21282 0
M  V30 9836 C 903.825 4.26346 0.502747 0
M  V30 9837 C 903.058 5.13007 1.47172 0
M  V30 9838 O 903.281 5.02103 2.70646 0
M  V30 9839 O 902.215 5.93588 0.996814 0
M  V30 9840 H 906.041 2.99341 -0.512676 0
M  V30 9841 H 903.626 1.46004 -0.31673 0
M  V30 9842 H 905.508 3.81015 1.80016 0
M  V30 9843 H 904.183 2.61868 1.90282 0
M  V30 9844 H 903.09 3.73889 -0.125757 0
M  V30 9845 H 904.423 4.91984 -0.145779 0
M  V30 9846 N 906.075 0.2925 1.54862 0
M  V30 9847 C 907.038 -0.574423 2.21885 0
M  V30 9848 C 908.038 -1.06791 1.20218 0
M  V30 9849 O 909.228 -0.9653 1.45009 0
M  V30 9850 C 906.36 -1.79438 2.89853 0
M  V30 9851 H 907.553 0.0110319 2.99898 0
M  V30 9852 H 905.106 0.043256 1.5624 0
M  V30 9853 H 905.841 -2.4199 2.15897 0
M  V30 9854 H 905.626 -1.44827 3.64373 0
M  V30 9855 H 907.116 -2.41048 3.41007 0
M  V30 9856 N 907.553 -1.57587 0.0200696 0
M  V30 9857 C 908.483 -2.12702 -0.963333 0
M  V30 9858 C 909.464 -1.04094 -1.34531 0
M  V30 9859 O 910.649 -1.31881 -1.42552 0
M  V30 9860 C 907.779 -2.64673 -2.24868 0
M  V30 9861 C 906.733 -3.77987 -2.00772 0
M  V30 9862 C 906.059 -4.16351 -3.35494 0
M  V30 9863 C 907.359 -5.0444 -1.35416 0
M  V30 9864 H 909.053 -2.95121 -0.504363 0
M  V30 9865 H 906.599 -1.41966 -0.24116 0
M  V30 9866 H 908.552 -3.01862 -2.94036 0
M  V30 9867 H 907.276 -1.79403 -2.72914 0
M  V30 9868 H 905.935 -3.41223 -1.34025 0
M  V30 9869 H 905.583 -3.28075 -3.81282 0
M  V30 9870 H 905.283 -4.92705 -3.20181 0
M  V30 9871 H 906.807 -4.56115 -4.05945 0
M  V30 9872 H 908.221 -5.39273 -1.94571 0
M  V30 9873 H 906.618 -5.85732 -1.30529 0
M  V30 9874 H 907.688 -4.83803 -0.325923 0
M  V30 9875 N 909.032 0.252966 -1.55557 0
M  V30 9876 C 909.962 1.31691 -1.9282 0
M  V30 9877 C 910.943 1.50516 -0.7924 0
M  V30 9878 O 912.128 1.63225 -1.05219 0
M  V30 9879 C 909.258 2.67281 -2.21762 0
M  V30 9880 C 908.212 2.6316 -3.37536 0
M  V30 9881 C 907.538 4.02488 -3.52005 0
M  V30 9882 C 908.838 2.20675 -4.73392 0
M  V30 9883 H 910.532 1.00751 -2.81939 0
M  V30 9884 H 908.078 0.483219 -1.3565 0
M  V30 9885 H 910.031 3.41842 -2.46419 0
M  V30 9886 H 908.755 2.99845 -1.29463 0
M  V30 9887 H 907.414 1.91057 -3.12878 0
M  V30 9888 H 907.062 4.32307 -2.57137 0
M  V30 9889 H 906.762 4.00621 -4.29857 0
M  V30 9890 H 908.286 4.78758 -3.78977 0
M  V30 9891 H 909.7 2.84965 -4.97461 0
M  V30 9892 H 908.097 2.29931 -5.54303 0
M  V30 9893 H 909.167 1.15831 -4.70862 0
M  V30 9894 N 910.51 1.48831 0.518367 0
M  V30 9895 C 911.46 1.60614 1.61824 0
M  V30 9896 C 912.444 0.462631 1.54106 0
M  V30 9897 O 913.636 0.714689 1.6193 0
M  V30 9898 C 910.765 1.65984 3.00507 0
M  V30 9899 C 909.851 2.85854 3.13286 0
M  V30 9900 N 910.242 4.1014 2.96005 0
M  V30 9901 C 908.54 2.83429 3.4436 0
M  V30 9902 C 909.241 4.90626 3.12508 0
M  V30 9903 N 908.217 4.2366 3.40607 0
M  V30 9904 H 912.019 2.54443 1.47091 0
M  V30 9905 H 909.533 1.45363 0.724102 0
M  V30 9906 H 911.53 1.72521 3.79529 0
M  V30 9907 H 910.19 0.732792 3.16323 0
M  V30 9908 H 911.201 4.40395 2.72531 0
M  V30 9909 H 907.878 2.0003 3.66462 0
M  V30 9910 H 909.268 5.99302 3.03786 0
M  V30 9911 N 911.988 -0.768124 1.37614 0
M  V30 9912 C 913.399 -1.34462 1.29525 0
M  V30 9913 C 913.75 -1.96121 -0.0555168 0
M  V30 9914 O 912.875 -1.94069 -0.957406 0
M  V30 9915 C 913.47 -2.44475 2.34558 0
M  V30 9916 C 912.029 -2.97883 2.30093 0
M  V30 9917 C 911.176 -1.71131 2.18196 0
M  V30 9918 H 914.127 -0.568103 1.48183 0
M  V30 9919 H 914.148 -3.24047 1.99434 0
M  V30 9920 H 913.66 -1.99568 3.32858 0
M  V30 9921 H 911.761 -3.47156 1.35328 0
M  V30 9922 H 911.874 -3.53251 3.23652 0
M  V30 9923 H 910.238 -1.94197 1.64802 0
M  V30 9924 H 911.021 -1.28323 3.18415 0
M  V30 9925 N 913.466 -1.22244 -0.994698 0
M  V30 9926 C 914.713 -1.04591 -1.73398 0
M  V30 9927 C 915.041 0.419223 -1.89928 0
M  V30 9928 O 914.296 1.32714 -1.43824 0
M  V30 9929 C 914.595 -1.70014 -3.14372 0
M  V30 9930 C 914.261 -3.19903 -3.17762 0
M  V30 9931 C 912.923 -3.60803 -3.18394 0
M  V30 9932 C 915.275 -4.15851 -3.14194 0
M  V30 9933 C 912.603 -4.96135 -3.13157 0
M  V30 9934 C 914.955 -5.51157 -3.10498 0
M  V30 9935 C 913.619 -5.91439 -3.09445 0
M  V30 9936 H 912.889 -0.382725 -0.63451 0
M  V30 9937 H 915.536 -1.51981 -1.16508 0
M  V30 9938 H 913.841 -1.14945 -3.7456 0
M  V30 9939 H 915.538 -1.53848 -3.70313 0
M  V30 9940 H 912.128 -2.87336 -3.18019 0
M  V30 9941 H 916.312 -3.85272 -3.12857 0
M  V30 9942 H 911.568 -5.26578 -3.10685 0
M  V30 9943 H 915.742 -6.2523 -3.06692 0
M  V30 9944 H 913.369 -6.96271 -3.05141 0
M  V30 9945 N 914.944 1.19125 -1.03184 0
M  V30 9946 C 916.191 1.88883 -0.730029 0
M  V30 9947 C 916.519 1.79807 0.741602 0
M  V30 9948 O 915.774 1.18686 1.55603 0
M  V30 9949 C 916.073 3.39052 -1.13041 0
M  V30 9950 C 915.739 3.68332 -2.60082 0
M  V30 9951 C 914.401 3.76033 -3.00254 0
M  V30 9952 C 916.753 3.81423 -3.55199 0
M  V30 9953 C 914.081 3.94296 -4.34451 0
M  V30 9954 C 916.433 4.012 -4.89103 0
M  V30 9955 C 915.097 4.07134 -5.28959 0
M  V30 9956 H 914.367 0.691172 -0.267137 0
M  V30 9957 H 917.014 1.41053 -1.29523 0
M  V30 9958 H 915.319 3.88801 -0.48386 0
M  V30 9959 H 917.016 3.91351 -0.874368 0
M  V30 9960 H 913.606 3.62948 -2.27961 0
M  V30 9961 H 917.79 3.74814 -3.25313 0
M  V30 9962 H 913.046 3.97131 -4.64863 0
M  V30 9963 H 917.22 4.10271 -5.62717 0
M  V30 9964 H 914.847 4.21038 -6.32954 0
M  V30 9965 N 916.422 0.810101 1.35185 0
M  V30 9966 C 917.385 0.22852 2.28058 0
M  V30 9967 C 918.385 -0.586168 1.49735 0
M  V30 9968 O 919.575 -0.40414 1.69447 0
M  V30 9969 C 916.707 -0.681041 3.34028 0
M  V30 9970 H 917.9 1.04768 2.81005 0
M  V30 9971 H 915.453 0.58101 1.451 0
M  V30 9972 H 916.188 -1.52375 2.86273 0
M  V30 9973 H 915.973 -0.0985276 3.91976 0
M  V30 9974 H 917.463 -1.08217 4.03335 0
M  V30 9975 N 917.9 -1.47166 0.563914 0
M  V30 9976 C 919.148 -2.02056 0.0422873 0
M  V30 9977 C 919.469 -1.43992 -1.31497 0
M  V30 9978 O 918.739 -0.617578 -1.85911 0
M  V30 9979 H 917.319 -0.746893 0.0126427 0
M  V30 9980 H 919.981 -1.80492 0.735441 0
M  V30 9981 H 919.077 -3.12073 -0.0408044 0
M  V30 9982 N 919.378 -0.300708 -1.54705 0
M  V30 9983 C 920.308 0.568675 -2.26469 0
M  V30 9984 C 921.289 1.13817 -1.26411 0
M  V30 9985 O 922.474 1.16756 -1.55183 0
M  V30 9986 C 919.604 1.74077 -3.00524 0
M  V30 9987 C 918.558 1.30165 -4.07727 0
M  V30 9988 C 917.884 2.55888 -4.69495 0
M  V30 9989 C 919.184 0.433106 -5.20501 0
M  V30 9990 H 920.878 -0.0298851 -2.99385 0
M  V30 9991 H 918.424 -0.0158135 -1.43991 0
M  V30 9992 H 920.377 2.35506 -3.49449 0
M  V30 9993 H 919.101 2.36556 -2.25186 0
M  V30 9994 H 917.76 0.710414 -3.59651 0
M  V30 9995 H 917.408 3.16681 -3.90797 0
M  V30 9996 H 917.108 2.27207 -5.41895 0
M  V30 9997 H 918.632 3.18121 -5.21183 0
M  V30 9998 H 920.046 0.95307 -5.65322 0
M  V30 9999 H 918.443 0.240085 -5.9962 0
M  V30 10000 H 919.513 -0.541866 -4.81863 0
M  V30 10001 N 920.856 1.57574 -0.0284266 0
M  V30 10002 C 922.084 1.96071 0.660575 0
M  V30 10003 C 922.499 0.904881 1.65703 0
M  V30 10004 O 921.856 -0.113379 1.82147 0
M  V30 10005 C 921.907 3.34634 1.36756 0
M  V30 10006 O 921.628 4.36167 0.411041 0
M  V30 10007 C 923.129 3.87758 2.14845 0
M  V30 10008 H 920.349 0.645794 0.182183 0
M  V30 10009 H 922.893 2.04311 -0.0879858 0
M  V30 10010 H 921.048 3.27616 2.06753 0
M  V30 10011 H 921.462 5.16493 0.913 0
M  V30 10012 H 922.936 4.87058 2.59767 0
M  V30 10013 H 923.413 3.21967 2.9872 0
M  V30 10014 H 924.019 3.98043 1.49807 0
M  V30 10015 N 922.334 -0.244713 1.55689 0
M  V30 10016 C 923.745 -0.813603 1.6804 0
M  V30 10017 C 924.096 -1.85936 0.626281 0
M  V30 10018 O 923.221 -2.15206 -0.227038 0
M  V30 10019 C 923.816 -1.48252 3.04642 0
M  V30 10020 C 922.375 -1.99908 3.18926 0
M  V30 10021 C 921.522 -0.850958 2.6392 0
M  V30 10022 H 924.473 -0.0204805 1.58687 0
M  V30 10023 H 924.494 -2.35062 2.99209 0
M  V30 10024 H 924.006 -0.721164 3.81341 0
M  V30 10025 H 922.107 -2.78918 2.47054 0
M  V30 10026 H 922.22 -2.19497 4.25862 0
M  V30 10027 H 920.584 -1.25206 2.21801 0
M  V30 10028 H 921.367 -0.10265 3.43146 0
M  V30 10029 N 923.813 -1.49104 -0.510467 0
M  V30 10030 C 924.723 -1.67792 -1.6396 0
M  V30 10031 C 925.739 -0.560454 -1.64727 0
M  V30 10032 O 926.915 -0.833985 -1.83321 0
M  V30 10033 C 923.98 -1.73154 -3.00364 0
M  V30 10034 C 923.041 -2.9667 -3.10299 0
M  V30 10035 C 922.274 -3.01767 -4.40196 0
M  V30 10036 O 922.497 -2.1472 -5.28443 0
M  V30 10037 O 921.431 -3.94137 -4.54906 0
M  V30 10038 H 925.257 -2.63428 -1.51126 0
M  V30 10039 H 922.842 -1.32734 -0.685719 0
M  V30 10040 H 924.724 -1.79089 -3.81451 0
M  V30 10041 H 923.399 -0.806952 -3.1348 0
M  V30 10042 H 922.306 -2.96257 -2.28435 0
M  V30 10043 H 923.639 -3.88578 -3.02106 0
M  V30 10044 N 925.291 0.760815 -1.38019 0
M  V30 10045 C 926.201 1.90526 -1.36884 0
M  V30 10046 C 927.217 1.71941 -0.266908 0
M  V30 10047 O 928.393 1.94988 -0.50413 0
M  V30 10048 C 925.458 3.25799 -1.18558 0
M  V30 10049 C 924.519 3.56961 -2.3849 0
M  V30 10050 C 923.752 4.8578 -2.21029 0
M  V30 10051 O 923.975 5.57629 -1.20023 0
M  V30 10052 O 922.909 5.16254 -3.0946 0
M  V30 10053 H 926.735 1.94437 -2.33298 0
M  V30 10054 H 924.32 0.905091 -1.18863 0
M  V30 10055 H 926.202 4.0669 -1.1037 0
M  V30 10056 H 924.877 3.22716 -0.252241 0
M  V30 10057 H 923.784 2.7626 -2.52252 0
M  V30 10058 H 925.117 3.64798 -3.30429 0
M  V30 10059 N 926.769 1.22769 0.988202 0
M  V30 10060 C 928.185 0.988665 1.2529 0
M  V30 10061 C 928.385 -0.314938 1.99024 0
M  V30 10062 O 927.441 -1.03637 2.30251 0
M  V30 10063 C 928.754 2.19046 2.06009 0
M  V30 10064 C 930.302 2.23452 2.19176 0
M  V30 10065 C 930.777 3.43196 3.03283 0
M  V30 10066 N 932.268 3.43387 3.10869 0
M  V30 10067 C 933.003 4.32693 3.7625 0
M  V30 10068 N 932.499 5.32224 4.43519 0
M  V30 10069 N 934.292 4.20457 3.73058 0
M  V30 10070 H 926.443 2.06575 0.494014 0
M  V30 10071 H 928.706 0.905452 0.28082 0
M  V30 10072 H 928.412 3.13607 1.59197 0
M  V30 10073 H 928.286 2.19492 3.06763 0
M  V30 10074 H 930.673 1.29436 2.65199 0
M  V30 10075 H 930.754 2.27042 1.17836 0
M  V30 10076 H 930.398 4.37515 2.57959 0
M  V30 10077 H 930.328 3.36847 4.04774 0
M  V30 10078 H 932.819 2.71368 2.62998 0
M  V30 10079 H 933.132 5.9664 4.91163 0
M  V30 10080 H 931.477 5.36133 4.42252 0
M  V30 10081 H 934.668 3.41949 3.19669 0
M  V30 10082 H 934.841 4.90261 4.23731 0
M  V30 10083 N 928.247 -1.18576 1.03814 0
M  V30 10084 C 929.472 -1.92978 0.759873 0
M  V30 10085 C 929.897 -1.75514 -0.676486 0
M  V30 10086 O 929.255 -1.06359 -1.46824 0
M  V30 10087 C 929.303 -3.42507 1.12788 0
M  V30 10088 O 928.407 -4.1163 0.251886 0
M  V30 10089 H 927.748 -0.602129 0.279886 0
M  V30 10090 H 930.278 -1.50383 1.3873 0
M  V30 10091 H 930.288 -3.93206 1.08872 0
M  V30 10092 H 928.963 -3.5454 2.17427 0
M  V30 10093 H 927.54 -3.7125 0.350441 0
M  V30 10094 N 929.725 -0.817259 -1.34754 0
M  V30 10095 C 930.972 -0.402648 -1.98457 0
M  V30 10096 C 931.3 1.03287 -1.64809 0
M  V30 10097 O 930.555 1.73316 -0.908851 0
M  V30 10098 C 930.854 -0.5453 -3.53216 0
M  V30 10099 C 930.52 -1.9457 -4.06759 0
M  V30 10100 C 929.182 -2.32881 -4.21094 0
M  V30 10101 C 931.534 -2.86141 -4.35629 0
M  V30 10102 C 928.862 -3.62108 -4.61622 0
M  V30 10103 C 931.214 -4.14826 -4.776 0
M  V30 10104 C 929.878 -4.53121 -4.9014 0
M  V30 10105 H 929.148 -0.147339 -0.726204 0
M  V30 10106 H 931.795 -1.04011 -1.60791 0
M  V30 10107 H 930.1 0.175576 -3.91406 0
M  V30 10108 H 931.797 -0.205112 -4.00475 0
M  V30 10109 H 928.387 -1.6381 -3.96061 0
M  V30 10110 H 932.571 -2.57788 -4.24098 0
M  V30 10111 H 927.827 -3.91613 -4.69521 0
M  V30 10112 H 932.001 -4.85874 -4.98899 0
M  V30 10113 H 929.628 -5.53307 -5.21302 0
M  V30 10114 N 931.203 1.46865 -0.571711 0
M  V30 10115 C 932.153 2.27219 0.188503 0
M  V30 10116 C 933.137 1.35221 0.872019 0
M  V30 10117 O 934.329 1.59474 0.76793 0
M  V30 10118 C 931.458 3.21321 1.20862 0
M  V30 10119 C 930.544 4.20803 0.527783 0
M  V30 10120 N 930.935 5.04132 -0.410403 0
M  V30 10121 C 929.233 4.39128 0.779909 0
M  V30 10122 C 929.934 5.76071 -0.80728 0
M  V30 10123 N 928.91 5.43368 -0.158865 0
M  V30 10124 H 932.712 2.89034 -0.532611 0
M  V30 10125 H 930.226 1.57581 -0.392696 0
M  V30 10126 H 932.223 3.77586 1.76733 0
M  V30 10127 H 930.883 2.61065 1.93067 0
M  V30 10128 H 931.894 5.11911 -0.785351 0
M  V30 10129 H 928.571 3.90031 1.48937 0
M  V30 10130 H 929.961 6.53082 -1.57903 0
M  V30 10131 N 932.681 0.308908 1.54543 0
M  V30 10132 C 933.909 -0.300418 2.04707 0
M  V30 10133 C 934.324 -1.46915 1.18581 0
M  V30 10134 O 933.681 -1.81251 0.213186 0
M  V30 10135 C 933.732 -0.749038 3.53655 0
M  V30 10136 O 933.453 0.373181 4.36508 0
M  V30 10137 C 934.954 -1.4227 4.1985 0
M  V30 10138 H 932.174 -0.0641267 0.667929 0
M  V30 10139 H 934.718 0.450839 1.99469 0
M  V30 10140 H 932.873 -1.4503 3.59228 0
M  V30 10141 H 933.287 0.0224752 5.24495 0
M  V30 10142 H 934.761 -1.68768 5.25568 0
M  V30 10143 H 935.238 -2.36531 3.70067 0
M  V30 10144 H 935.844 -0.764404 4.18374 0
M  V30 10145 N 934.159 -1.57557 0.0367827 0
M  V30 10146 C 935.384 -1.96828 -0.653707 0
M  V30 10147 C 935.809 -0.913559 -1.64425 0
M  V30 10148 O 935.167 0.124749 -1.8087 0
M  V30 10149 C 935.215 -3.35189 -1.32969 0
M  V30 10150 O 934.319 -3.32095 -2.44513 0
M  V30 10151 H 933.66 -0.64157 -0.171124 0
M  V30 10152 H 936.19 -2.04351 0.100912 0
M  V30 10153 H 936.2 -3.71593 -1.68472 0
M  V30 10154 H 934.875 -4.11496 -0.603654 0
M  V30 10155 H 933.452 -3.07418 -2.11065 0
M  V30 10156 N 935.637 0.236453 -1.55816 0
M  V30 10157 C 937.053 0.585465 -1.48474 0
M  V30 10158 C 937.253 1.8785 -0.72902 0
M  V30 10159 O 936.309 2.51131 -0.262614 0
M  V30 10160 C 937.622 0.678506 -2.92945 0
M  V30 10161 C 939.17 0.770135 -3.03378 0
M  V30 10162 C 939.645 0.894649 -4.49177 0
M  V30 10163 N 941.136 0.959253 -4.53158 0
M  V30 10164 C 941.871 1.07505 -5.63232 0
M  V30 10165 N 941.367 1.15572 -6.83092 0
M  V30 10166 N 943.16 1.10902 -5.51051 0
M  V30 10167 H 935.311 -0.612241 -2.03385 0
M  V30 10168 H 937.574 -0.212796 -0.923808 0
M  V30 10169 H 937.28 -0.201757 -3.51121 0
M  V30 10170 H 937.154 1.54703 -3.44016 0
M  V30 10171 H 939.541 1.64085 -2.45276 0
M  V30 10172 H 939.622 -0.123753 -2.555 0
M  V30 10173 H 939.266 0.0284537 -5.07892 0
M  V30 10174 H 939.196 1.80373 -4.94745 0
M  V30 10175 H 941.687 0.907827 -3.66834 0
M  V30 10176 H 942 1.24343 -7.62731 0
M  V30 10177 H 940.345 1.12511 -6.85833 0
M  V30 10178 H 943.536 1.04255 -4.56343 0
M  V30 10179 H 943.709 1.19581 -6.36871 0
M  V30 10180 N 937.115 1.49373 0.502552 0
M  V30 10181 C 938.063 1.66411 1.62512 0
M  V30 10182 C 939.057 0.530062 1.60893 0
M  V30 10183 O 940.263 0.709648 1.65421 0
M  V30 10184 H 936.638 0.524707 0.538689 0
M  V30 10185 H 938.609 2.60639 1.45293 0
M  V30 10186 C 937.358 1.74648 3.00655 0
M  V30 10187 H 936.681 2.61285 3.02606 0
M  V30 10188 H 938.121 1.90605 3.78742 0
M  V30 10189 C 936.58 0.490963 3.33303 0
M  V30 10190 O 937.11 -0.384039 3.9986 0
M  V30 10191 N 935.316 0.354375 2.88431 0
M  V30 10192 H 934.863 1.06742 2.34444 0
M  V30 10193 H 934.821 -0.484593 3.10643 0
M  V30 10194 N 938.594 -0.753485 1.38421 0
M  V30 10195 C 940.005 -1.33081 1.30944 0
M  V30 10196 C 940.356 -1.96169 -0.0347124 0
M  V30 10197 O 939.481 -1.95073 -0.936768 0
M  V30 10198 C 940.076 -2.41973 2.37138 0
M  V30 10199 C 938.635 -2.95426 2.33239 0
M  V30 10200 C 937.782 -1.68808 2.19998 0
M  V30 10201 H 940.733 -0.552354 1.48777 0
M  V30 10202 H 940.754 -3.21913 2.02859 0
M  V30 10203 H 940.266 -1.96027 3.34956 0
M  V30 10204 H 938.367 -3.45701 1.39003 0
M  V30 10205 H 938.48 -3.49798 3.27381 0
M  V30 10206 H 936.844 -1.92438 1.66852 0
M  V30 10207 H 937.627 -1.24939 3.19758 0
M  V30 10208 N 940.072 -1.23292 -0.981677 0
M  V30 10209 C 941.297 -1.09176 -1.76339 0
M  V30 10210 C 941.722 0.352726 -1.84763 0
M  V30 10211 O 941.08 1.25509 -1.30832 0
M  V30 10212 C 941.128 -1.72046 -3.16911 0
M  V30 10213 O 940.232 -0.98174 -4.00544 0
M  V30 10214 H 939.573 -0.382755 -0.542581 0
M  V30 10215 H 942.103 -1.63319 -1.23239 0
M  V30 10216 H 942.113 -1.77232 -3.67495 0
M  V30 10217 H 940.788 -2.77154 -3.10095 0
M  V30 10218 H 939.365 -1.00672 -3.59054 0
M  V30 10219 N 941.55 1.18024 -1.04442 0
M  V30 10220 C 942.966 1.40107 -0.76435 0
M  V30 10221 C 943.166 1.90914 0.644516 0
M  V30 10222 O 942.222 2.0959 1.40813 0
M  V30 10223 C 943.535 2.39851 -1.81361 0
M  V30 10224 C 945.083 2.53571 -1.83496 0
M  V30 10225 C 945.558 3.56583 -2.87424 0
M  V30 10226 N 947.049 3.64094 -2.86339 0
M  V30 10227 C 947.784 4.43537 -3.63405 0
M  V30 10228 N 947.28 5.26557 -4.50233 0
M  V30 10229 N 949.073 4.38336 -3.51877 0
M  V30 10230 H 941.224 0.833726 -1.95353 0
M  V30 10231 H 943.487 0.42881 -0.845474 0
M  V30 10232 H 943.193 2.09576 -2.82438 0
M  V30 10233 H 943.067 3.39251 -1.6489 0
M  V30 10234 H 945.454 2.83161 -0.830883 0
M  V30 10235 H 945.535 1.54272 -2.04044 0
M  V30 10236 H 945.179 3.27733 -3.88012 0
M  V30 10237 H 945.109 4.55569 -2.6413 0
M  V30 10238 H 947.6 3.04814 -2.23376 0
M  V30 10239 H 947.913 5.84336 -5.05738 0
M  V30 10240 H 946.258 5.25964 -4.54298 0
M  V30 10241 H 949.449 3.72528 -2.83444 0
M  V30 10242 H 949.622 5.00007 -4.12186 0
M  V30 10243 O 943.067 0.959562 1.29903 0
M  V30 10244 H 943.758 0.594984 1.84336 0
M  V30 END ATOM
M  V30 BEGIN BOND
M  V30 END BOND
M  V30 END CTAB
M  END
$$$$
