drugbank_target|Q9N587 Acetylcholine receptor subunit alpha-type unc-63 (DB00848)
 OpenBabel12092121013D

  0  0  0     0  0            999 V3000
M  V30 BEGIN CTAB
M  V30 COUNTS 8095 8206 0 0 0
M  V30 BEGIN ATOM
M  V30 1 H -0.908 1.98254 -0.117106 0
M  V30 2 N 0 1.576 0 0
M  V30 3 C 0.933 2.03868 1.02534 0
M  V30 4 C 1.911 0.928543 1.3348 0
M  V30 5 O 3.095 1.19667 1.45644 0
M  V30 6 C 0.222 2.43627 2.35294 0
M  V30 7 C -0.732 3.65373 2.2001 0
M  V30 8 S 0.101 5.13292 1.52614 0
M  V30 9 C 1.257 5.56322 2.86805 0
M  V30 10 H 1.49 2.90518 0.631377 0
M  V30 11 H -0.977 1.52953 0.210867 0
M  V30 12 H 0.981 2.67203 3.11629 0
M  V30 13 H -0.358 1.57376 2.7183 0
M  V30 14 H -1.165 3.90944 3.18086 0
M  V30 15 H -1.563 3.418 1.51819 0
M  V30 16 H 0.729 5.58782 3.83104 0
M  V30 17 H 1.672 6.56266 2.65933 0
M  V30 18 H 2.08 4.83886 2.90714 0
M  V30 19 N 1.4781 -0.272755 1.55222 0
M  V30 20 C 2.7261 -1.00234 1.75492 0
M  V30 21 C 3.0471 -1.8681 0.5592 0
M  V30 22 O 2.3171 -1.91215 -0.425882 0
M  V30 23 H 0.8971 -0.373076 0.647166 0
M  V30 24 H 3.5591 -0.296926 1.92625 0
M  V30 25 H 2.6551 -1.63913 2.65592 0
M  V30 26 N 2.9562 -1.48159 -0.537278 0
M  V30 27 C 4.3672 -1.49429 -1.11928 0
M  V30 28 C 4.7182 -0.26 -1.9447 0
M  V30 29 O 3.8432 0.633489 -2.0692 0
M  V30 30 C 4.4382 -2.70758 -2.03656 0
M  V30 31 C 2.9972 -2.74923 -2.57088 0
M  V30 32 C 2.1442 -2.42835 -1.3389 0
M  V30 33 H 5.0952 -1.55381 -0.322886 0
M  V30 34 H 5.1162 -2.48861 -2.87834 0
M  V30 35 H 4.6282 -3.60575 -1.43553 0
M  V30 36 H 2.7292 -1.89296 -3.20933 0
M  V30 37 H 2.8422 -3.76157 -2.9672 0
M  V30 38 H 1.2062 -1.93836 -1.65226 0
M  V30 39 H 1.9892 -3.34884 -0.755504 0
M  V30 40 N 4.4343 0.785586 -1.36625 0
M  V30 41 C 5.3823 1.91978 -1.31329 0
M  V30 42 C 6.3763 1.68162 -0.204416 0
M  V30 43 O 7.5823 1.76122 -0.371645 0
M  V30 44 H 3.9573 0.631087 -0.408942 0
M  V30 45 H 5.9283 1.93562 -2.27104 0
M  V30 46 C 4.6773 3.29055 -1.12329 0
M  V30 47 H 4.0003 3.4795 -1.96903 0
M  V30 48 H 5.4403 4.08756 -1.12671 0
M  V30 49 C 3.8993 3.36461 0.171861 0
M  V30 50 O 4.4293 3.84576 1.16035 0
M  V30 51 N 2.6353 2.89782 0.217846 0
M  V30 52 H 2.1823 2.50819 -0.587183 0
M  V30 53 H 2.1403 2.95119 1.08408 0
M  V30 54 N 5.9124 1.20967 1.01018 0
M  V30 55 C 7.1894 0.93264 1.71934 0
M  V30 56 C 7.5694 -0.55692 2.03621 0
M  V30 57 O 6.9174 -1.52035 1.7058 0
M  V30 58 C 7.1274 1.81233 2.98254 0
M  V30 59 C 8.4754 2.05804 3.71389 0
M  V30 60 O 9.4994 1.78539 3.08225 0
M  V30 61 O 8.3584 2.51888 4.84989 0
M  V30 62 H 5.4524 0.349272 0.749625 0
M  V30 63 H 7.9984 1.31871 1.06808 0
M  V30 64 H 6.7704 2.82067 2.71208 0
M  V30 65 H 6.3934 1.42674 3.7112 0
M  V30 66 N 7.3905 -1.2043 1.01659 0
M  V30 67 C 8.3405 -2.21076 0.557623 0
M  V30 68 C 9.3245 -1.56176 -0.387029 0
M  V30 69 O 10.5165 -1.7575 -0.209996 0
M  V30 70 C 7.6455 -3.43146 -0.102707 0
M  V30 71 C 6.7315 -4.15213 0.863652 0
M  V30 72 N 7.1225 -4.63662 2.02117 0
M  V30 73 C 5.4205 -4.40716 0.684472 0
M  V30 74 C 6.1215 -5.18868 2.62966 0
M  V30 75 N 5.0975 -5.0893 1.91027 0
M  V30 76 H 8.8995 -2.56201 1.44008 0
M  V30 77 H 6.4135 -1.36366 0.881931 0
M  V30 78 H 8.4105 -4.14475 -0.449054 0
M  V30 79 H 7.0705 -3.09526 -0.981003 0
M  V30 80 H 8.0815 -4.58877 2.40109 0
M  V30 81 H 4.7585 -4.17245 -0.14577 0
M  V30 82 H 6.1485 -5.6673 3.60924 0
M  V30 83 N 8.8686 -0.792821 -1.36206 0
M  V30 84 C 10.1166 -0.366062 -1.98757 0
M  V30 85 C 10.4376 1.0668 -1.63231 0
M  V30 86 O 9.7076 1.73587 -0.907978 0
M  V30 87 H 8.2876 -0.132364 -0.735179 0
M  V30 88 H 10.9496 -1.01562 -1.66347 0
M  V30 89 H 10.0456 -0.460638 -3.08682 0
M  V30 90 N 10.3467 1.47872 -0.545128 0
M  V30 91 C 11.5937 2.02493 -0.0165858 0
M  V30 92 C 11.9217 1.42073 1.32836 0
M  V30 93 O 11.1767 0.561459 1.87473 0
M  V30 94 C 11.4757 3.57131 0.13867 0
M  V30 95 C 11.1417 4.36411 -1.13384 0
M  V30 96 C 9.8037 4.57792 -1.48256 0
M  V30 97 C 12.1557 4.82223 -1.97764 0
M  V30 98 C 9.4837 5.22233 -2.67376 0
M  V30 99 C 11.8357 5.47977 -3.16076 0
M  V30 100 C 10.4997 5.67593 -3.51275 0
M  V30 101 H 9.7697 0.740975 -0.00606918 0
M  V30 102 H 12.4167 1.77683 -0.714207 0
M  V30 103 H 10.7217 3.80865 0.919172 0
M  V30 104 H 12.4187 3.97031 0.562782 0
M  V30 105 H 9.0087 4.2004 -0.852297 0
M  V30 106 H 13.1927 4.65493 -1.72132 0
M  V30 107 H 8.4487 5.35616 -2.94831 0
M  V30 108 H 12.6227 5.8244 -3.81755 0
M  V30 109 H 10.2497 6.17298 -4.43675 0
M  V30 110 N 11.8248 0.280983 1.55075 0
M  V30 111 C 12.7878 -0.590896 2.21452 0
M  V30 112 C 13.7878 -1.07682 1.19421 0
M  V30 113 O 14.9778 -0.97605 1.44288 0
M  V30 114 C 12.1098 -1.81587 2.88511 0
M  V30 115 H 13.3028 -0.0112554 2.99898 0
M  V30 116 H 10.8558 0.0316438 1.56268 0
M  V30 117 H 11.5908 -2.43587 2.14093 0
M  V30 118 H 11.3758 -1.4753 3.63287 0
M  V30 119 H 12.8658 -2.43575 3.39206 0
M  V30 120 N 13.3029 -1.57598 0.00835791 0
M  V30 121 C 14.5329 -1.94931 -0.684496 0
M  V30 122 C 14.9409 -0.882233 -1.67372 0
M  V30 123 O 14.2839 0.146621 -1.83114 0
M  V30 124 C 14.3459 -3.283 -1.4649 0
M  V30 125 C 14.0099 -4.52548 -0.63634 0
M  V30 126 C 15.0069 -5.19839 0.0795586 0
M  V30 127 C 12.6919 -4.98942 -0.579849 0
M  V30 128 C 14.6859 -6.3183 0.840843 0
M  V30 129 C 12.3729 -6.10819 0.185155 0
M  V30 130 C 13.3709 -6.77121 0.894227 0
M  V30 131 O 13.0589 -7.86853 1.64673 0
M  V30 132 H 12.7909 -0.647249 -0.19505 0
M  V30 133 H 15.3449 -2.05318 0.0581272 0
M  V30 134 H 13.5749 -3.14345 -2.2522 0
M  V30 135 H 15.2639 -3.50685 -2.04389 0
M  V30 136 H 16.0299 -4.84979 0.0451202 0
M  V30 137 H 11.9089 -4.47155 -1.1213 0
M  V30 138 H 15.4529 -6.83513 1.39483 0
M  V30 139 H 11.3499 -6.4512 0.221384 0
M  V30 140 H 12.1179 -8.03412 1.56432 0
M  V30 141 N 14.781 0.264519 -1.55364 0
M  V30 142 C 16.03 0.992812 -1.75574 0
M  V30 143 C 16.343 1.87142 -0.568979 0
M  V30 144 O 17.549 2.63513 -0.653682 0
M  V30 145 C 16.005 1.81519 -3.10771 0
M  V30 146 C 15.613 0.984839 -4.37041 0
M  V30 147 C 17.357 2.53727 -3.40327 0
M  V30 148 C 15.264 1.80209 -5.63275 0
M  V30 149 H 14.194 0.374412 -0.65447 0
M  V30 150 H 16.845 0.248138 -1.81815 0
M  V30 151 H 15.227 2.60115 -2.98591 0
M  V30 152 H 16.401 0.242455 -4.60162 0
M  V30 153 H 14.716 0.37691 -4.14691 0
M  V30 154 H 17.313 3.15292 -4.3185 0
M  V30 155 H 17.656 3.24447 -2.60845 0
M  V30 156 H 18.189 1.82156 -3.53644 0
M  V30 157 H 14.928 1.13896 -6.45529 0
M  V30 158 H 14.448 2.52022 -5.44284 0
M  V30 159 H 16.127 2.37364 -6.01887 0
M  V30 160 N 16.2591 1.48442 0.529413 0
M  V30 161 C 17.1891 1.65902 1.64313 0
M  V30 162 C 18.1701 0.507897 1.6234 0
M  V30 163 O 19.3551 0.740503 1.79528 0
M  V30 164 C 16.4851 1.69911 3.02898 0
M  V30 165 C 15.4391 2.8453 3.19729 0
M  V30 166 C 14.7651 2.73629 4.59381 0
M  V30 167 C 16.0651 4.25821 3.02447 0
M  V30 168 H 17.7591 2.5914 1.49955 0
M  V30 169 H 15.3051 1.24709 0.719982 0
M  V30 170 H 17.2581 1.80715 3.80684 0
M  V30 171 H 15.9821 0.732524 3.18279 0
M  V30 172 H 14.6411 2.73283 2.44361 0
M  V30 173 H 14.2891 1.74938 4.71599 0
M  V30 174 H 13.9891 3.50541 4.71588 0
M  V30 175 H 15.5131 2.86401 5.39265 0
M  V30 176 H 16.9271 4.37898 3.70024 0
M  V30 177 H 15.3241 5.03735 3.26146 0
M  V30 178 H 16.3941 4.42244 1.98867 0
M  V30 179 N 17.7372 -0.778329 1.37039 0
M  V30 180 C 18.9862 -1.53189 1.3121 0
M  V30 181 C 19.2992 -1.95328 -0.103095 0
M  V30 182 O 20.5052 -2.70012 -0.283826 0
M  V30 183 C 18.9612 -2.76591 2.30272 0
M  V30 184 C 18.5692 -2.41577 3.77286 0
M  V30 185 C 20.3132 -3.5455 2.33441 0
M  V30 186 C 18.2202 -3.61441 4.68096 0
M  V30 187 H 17.1502 -0.5751 0.487622 0
M  V30 188 H 19.8012 -0.853101 1.62464 0
M  V30 189 H 18.1832 -3.46326 1.92027 0
M  V30 190 H 19.3572 -1.79668 4.2433 0
M  V30 191 H 17.6722 -1.76806 3.76999 0
M  V30 192 H 20.2692 -4.43628 2.98493 0
M  V30 193 H 20.6122 -3.93936 1.34611 0
M  V30 194 H 21.1452 -2.91805 2.7036 0
M  V30 195 H 17.8842 -3.27142 5.6803 0
M  V30 196 H 17.4042 -4.22478 4.25761 0
M  V30 197 H 19.0832 -4.28335 4.8491 0
M  V30 198 N 19.2153 -1.21501 -1.00376 0
M  V30 199 C 20.4623 -1.03299 -1.74171 0
M  V30 200 C 20.7903 0.433326 -1.89612 0
M  V30 201 O 20.0453 1.33779 -1.42834 0
M  V30 202 C 20.3443 -1.67673 -3.15627 0
M  V30 203 C 20.0103 -3.17533 -3.2013 0
M  V30 204 C 18.6723 -3.58427 -3.21067 0
M  V30 205 C 21.0243 -4.13504 -3.17275 0
M  V30 206 C 18.3523 -4.93794 -3.16835 0
M  V30 207 C 20.7043 -5.48834 -3.14585 0
M  V30 208 C 19.3683 -5.89123 -3.13831 0
M  V30 209 H 18.6383 -0.377999 -0.637336 0
M  V30 210 H 21.2853 -1.51111 -1.17634 0
M  V30 211 H 19.5903 -1.12158 -3.75404 0
M  V30 212 H 21.2873 -1.51091 -3.71446 0
M  V30 213 H 17.8773 -2.84965 -3.20145 0
M  V30 214 H 22.0613 -3.82936 -3.15711 0
M  V30 215 H 17.3173 -5.24255 -3.1459 0
M  V30 216 H 21.4913 -6.22934 -3.1133 0
M  V30 217 H 19.1183 -6.93984 -3.10307 0
M  V30 218 N 20.6934 1.19889 -1.02296 0
M  V30 219 C 21.6234 2.25141 -0.619174 0
M  V30 220 C 22.6044 1.66051 0.368915 0
M  V30 221 O 23.7894 1.92546 0.252941 0
M  V30 222 C 20.9194 3.4728 0.0368783 0
M  V30 223 C 19.8734 4.19005 -0.872865 0
M  V30 224 C 19.1994 5.34637 -0.0822402 0
M  V30 225 C 20.4994 4.74452 -2.18387 0
M  V30 226 H 22.1934 2.59171 -1.49903 0
M  V30 227 H 19.7394 1.24579 -0.722222 0
M  V30 228 H 21.6924 4.20098 0.330958 0
M  V30 229 H 20.4164 3.12433 0.95149 0
M  V30 230 H 19.0754 3.48061 -1.15105 0
M  V30 231 H 18.7234 4.96034 0.83422 0
M  V30 232 H 18.4234 5.83557 -0.688149 0
M  V30 233 H 19.9474 6.10255 0.205238 0
M  V30 234 H 21.3614 5.39055 -1.95172 0
M  V30 235 H 19.7584 5.33834 -2.74119 0
M  V30 236 H 20.8284 3.92844 -2.84257 0
M  V30 237 N 22.1715 0.800033 1.35784 0
M  V30 238 C 23.1015 0.220184 2.3246 0
M  V30 239 C 24.0825 -0.65073 1.57161 0
M  V30 240 O 25.2675 -0.582359 1.85263 0
M  V30 241 C 22.3975 -0.637353 3.41402 0
M  V30 242 C 21.3515 0.134531 4.27789 0
M  V30 243 C 20.6775 -0.844285 5.27992 0
M  V30 244 C 21.9775 1.32979 5.05088 0
M  V30 245 H 23.6715 1.02787 2.81203 0
M  V30 246 H 21.2175 0.495717 1.35199 0
M  V30 247 H 23.1705 -1.05302 4.08031 0
M  V30 248 H 21.8945 -1.47785 2.91251 0
M  V30 249 H 20.5535 0.531296 3.6273 0
M  V30 250 H 20.2015 -1.68011 4.74111 0
M  V30 251 H 19.9015 -0.332184 5.8666 0
M  V30 252 H 21.4255 -1.2583 5.97494 0
M  V30 253 H 22.8395 0.98934 5.64699 0
M  V30 254 H 21.2365 1.77593 5.7322 0
M  V30 255 H 22.3065 2.11978 4.36111 0
M  V30 256 N 23.6496 -1.47581 0.552962 0
M  V30 257 C 24.5796 -2.32762 -0.185451 0
M  V30 258 C 25.5606 -1.43527 -0.912905 0
M  V30 259 O 26.7456 -1.72388 -0.894201 0
M  V30 260 C 23.8756 -3.25219 -1.21859 0
M  V30 261 C 22.8296 -4.23661 -0.607864 0
M  V30 262 C 22.1556 -5.05413 -1.74533 0
M  V30 263 C 23.4556 -5.20481 0.435582 0
M  V30 264 H 25.1496 -2.94749 0.525684 0
M  V30 265 H 22.6956 -1.41738 0.254251 0
M  V30 266 H 24.6486 -3.8365 -1.7433 0
M  V30 267 H 23.3726 -2.61279 -1.95961 0
M  V30 268 H 22.0316 -3.66451 -0.104489 0
M  V30 269 H 21.6796 -4.3788 -2.47529 0
M  V30 270 H 21.3796 -5.72059 -1.34249 0
M  V30 271 H 22.9036 -5.66701 -2.27338 0
M  V30 272 H 24.3176 -5.733 -0.00290157 0
M  V30 273 H 22.7146 -5.95305 0.757067 0
M  V30 274 H 23.7846 -4.66217 1.33303 0
M  V30 275 N 25.1277 -0.289203 -1.54924 0
M  V30 276 C 26.3527 0.329299 -2.04769 0
M  V30 277 C 26.7777 1.4763 -1.16564 0
M  V30 278 O 26.1357 1.80527 -0.167186 0
M  V30 279 C 26.1837 0.774438 -3.52186 0
M  V30 280 O 25.2877 1.88038 -3.67036 0
M  V30 281 H 24.6287 0.0659259 -0.660719 0
M  V30 282 H 27.1587 -0.42761 -2.00082 0
M  V30 283 H 27.1687 1.06642 -3.93816 0
M  V30 284 H 25.8437 -0.0646707 -4.1585 0
M  V30 285 H 24.4207 1.58985 -3.3731 0
M  V30 286 N 26.6058 1.57591 -0.0167156 0
M  V30 287 C 28.0168 1.79201 0.523834 0
M  V30 288 C 28.3678 0.925796 1.72984 0
M  V30 289 O 27.4928 0.132792 2.15992 0
M  V30 290 C 28.0878 3.25 0.957091 0
M  V30 291 C 26.6468 3.47648 1.44283 0
M  V30 292 C 25.7938 2.74374 0.401757 0
M  V30 293 H 28.7448 1.56831 -0.242816 0
M  V30 294 H 28.7658 3.34031 1.82219 0
M  V30 295 H 28.2778 3.88019 0.0791415 0
M  V30 296 H 26.3788 2.89866 2.34113 0
M  V30 297 H 26.4918 4.56352 1.45877 0
M  V30 298 H 24.8558 2.39485 0.867121 0
M  V30 299 H 25.6388 3.40102 -0.467513 0
M  V30 300 N 28.0839 -0.256276 1.55502 0
M  V30 301 C 29.4949 -0.826068 1.67431 0
M  V30 302 C 29.8459 -1.86396 0.612446 0
M  V30 303 O 28.9709 -2.15031 -0.243025 0
M  V30 304 C 29.5659 -1.50512 3.03532 0
M  V30 305 C 28.1249 -2.02273 3.17431 0
M  V30 306 C 27.2719 -0.870548 2.63281 0
M  V30 307 H 30.2229 -0.0322728 1.58667 0
M  V30 308 H 30.2439 -2.37279 2.97454 0
M  V30 309 H 29.7559 -0.749484 3.80794 0
M  V30 310 H 27.8569 -2.80746 2.44974 0
M  V30 311 H 27.9699 -2.22655 4.24219 0
M  V30 312 H 26.3339 -1.26851 2.20864 0
M  V30 313 H 27.1169 -0.128149 3.43061 0
M  V30 314 N 29.562 -1.4872 -0.521534 0
M  V30 315 C 30.79 -1.60843 -1.30142 0
M  V30 316 C 31.205 -0.271897 -1.86832 0
M  V30 317 O 30.562 0.739969 -1.66825 0
M  V30 318 C 30.613 -2.66155 -2.4463 0
M  V30 319 O 30.334 -3.94623 -1.90275 0
M  V30 320 C 31.835 -2.88795 -3.36322 0
M  V30 321 H 29.055 -0.542075 -0.395468 0
M  V30 322 H 31.599 -1.94609 -0.628285 0
M  V30 323 H 29.754 -2.35224 -3.07812 0
M  V30 324 H 30.168 -4.52468 -2.65279 0
M  V30 325 H 31.642 -3.66264 -4.12983 0
M  V30 326 H 32.119 -1.97934 -3.9207 0
M  V30 327 H 32.725 -3.21063 -2.78924 0
M  V30 328 N 31.0401 0.771051 -1.3745 0
M  V30 329 C 31.9901 1.87456 -1.29785 0
M  V30 330 C 32.9741 1.59827 -0.185541 0
M  V30 331 O 34.1661 1.71945 -0.419997 0
M  V30 332 C 31.2951 3.24935 -1.1078 0
M  V30 333 C 30.3811 3.58514 -2.26558 0
M  V30 334 N 30.7721 3.6327 -3.5195 0
M  V30 335 C 29.0701 3.88683 -2.18727 0
M  V30 336 C 29.7711 3.93616 -4.283 0
M  V30 337 N 28.7471 4.09551 -3.57448 0
M  V30 338 H 32.5491 1.89386 -2.24745 0
M  V30 339 H 30.0631 0.967531 -1.30432 0
M  V30 340 H 32.0601 4.03881 -1.03374 0
M  V30 341 H 30.7201 3.24268 -0.16738 0
M  V30 342 H 31.7311 3.45458 -3.85848 0
M  V30 343 H 28.4081 3.95834 -1.32746 0
M  V30 344 H 29.7981 4.04066 -5.36824 0
M  V30 345 N 32.5182 1.22032 0.997298 0
M  V30 346 C 33.4812 0.987909 2.06816 0
M  V30 347 C 34.4812 -0.0440084 1.6074 0
M  V30 348 O 35.6712 0.194053 1.73116 0
M  V30 349 C 32.8032 0.49132 3.37341 0
M  V30 350 H 33.9962 1.93803 2.28868 0
M  V30 351 H 31.5492 1.03838 1.16822 0
M  V30 352 H 32.2842 -0.463364 3.20973 0
M  V30 353 H 32.0692 1.23575 3.72118 0
M  V30 354 H 33.5592 0.348824 4.16141 0
M  V30 355 N 33.9963 -1.19345 1.0293 0
M  V30 356 C 34.9443 -2.24621 0.604001 0
M  V30 357 C 35.9383 -1.65452 -0.363587 0
M  V30 358 O 37.1443 -1.78497 -0.23212 0
M  V30 359 H 33.5193 -0.730858 0.177061 0
M  V30 360 H 35.4903 -2.5781 1.50255 0
M  V30 361 C 34.2393 -3.47688 -0.0289127 0
M  V30 362 H 33.5623 -3.93505 0.706651 0
M  V30 363 H 35.0023 -4.23011 -0.289432 0
M  V30 364 C 33.4613 -3.11817 -1.2756 0
M  V30 365 O 33.9913 -3.2451 -2.36762 0
M  V30 366 N 32.1973 -2.66246 -1.16453 0
M  V30 367 H 31.7443 -2.56118 -0.275914 0
M  V30 368 H 31.7023 -2.42617 -1.99961 0
M  V30 369 N 35.4744 -0.807222 -1.35358 0
M  V30 370 C 36.8904 -0.491038 -1.51858 0
M  V30 371 C 37.0904 0.987648 -1.75635 0
M  V30 372 O 36.1464 1.77265 -1.79815 0
M  V30 373 C 37.4594 -1.33695 -2.69344 0
M  V30 374 C 39.0074 -1.33246 -2.83222 0
M  V30 375 C 39.4824 -2.1625 -4.03733 0
M  V30 376 N 40.9734 -2.1379 -4.10911 0
M  V30 377 C 41.7084 -2.74772 -5.03277 0
M  V30 378 N 41.2044 -3.44684 -6.0097 0
M  V30 379 N 42.9974 -2.6441 -4.96028 0
M  V30 380 H 35.1484 -1.76485 -1.18181 0
M  V30 381 H 37.4114 -0.751199 -0.578276 0
M  V30 382 H 37.1174 -2.38634 -2.58354 0
M  V30 383 H 36.9914 -0.990618 -3.6396 0
M  V30 384 H 39.3784 -0.290911 -2.93663 0
M  V30 385 H 39.4594 -1.71866 -1.89461 0
M  V30 386 H 39.1034 -3.20445 -3.94052 0
M  V30 387 H 39.0334 -1.74989 -4.96675 0
M  V30 388 H 41.5244 -1.62923 -3.40976 0
M  V30 389 H 41.8374 -3.88501 -6.68047 0
M  V30 390 H 40.1824 -3.48788 -6.01142 0
M  V30 391 H 43.3734 -2.0938 -4.18662 0
M  V30 392 H 43.5464 -3.12225 -5.6782 0
M  V30 393 N 36.9525 1.47285 -0.560781 0
M  V30 394 C 38.2295 1.9558 0.0277798 0
M  V30 395 C 38.6095 1.5034 1.48192 0
M  V30 396 O 37.9575 0.743882 2.16052 0
M  V30 397 C 38.1675 3.48789 -0.121418 0
M  V30 398 C 39.5155 4.24594 0.0220912 0
M  V30 399 O 40.5395 3.56166 -0.0491439 0
M  V30 400 O 39.3985 5.46217 0.175958 0
M  V30 401 H 36.4925 0.824663 0.0621342 0
M  V30 402 H 39.0385 1.5767 -0.627556 0
M  V30 403 H 37.8105 3.74533 -1.13316 0
M  V30 404 H 37.4335 3.93473 0.571366 0
M  V30 405 N 38.4306 0.297415 1.54768 0
M  V30 406 C 39.3936 -0.567375 2.22066 0
M  V30 407 C 40.3936 -1.06409 1.20556 0
M  V30 408 O 41.5836 -0.960691 1.45315 0
M  V30 409 C 38.7156 -1.78517 2.90421 0
M  V30 410 H 39.9086 0.0205534 2.99893 0
M  V30 411 H 37.4616 0.0482163 1.56226 0
M  V30 412 H 38.1966 -2.41303 2.16664 0
M  V30 413 H 37.9816 -1.43669 3.64831 0
M  V30 414 H 39.4716 -2.39964 3.41771 0
M  V30 415 N 39.9087 -1.5758 0.0250728 0
M  V30 416 C 40.8567 -2.11125 -0.97617 0
M  V30 417 C 41.8507 -1.03689 -1.33959 0
M  V30 418 O 43.0567 -1.22128 -1.3223 0
M  V30 419 H 39.4317 -0.674468 -0.332561 0
M  V30 420 H 41.4027 -2.94194 -0.499223 0
M  V30 421 C 40.1517 -2.65017 -2.2508 0
M  V30 422 H 39.4747 -3.47333 -1.9799 0
M  V30 423 H 40.9147 -3.06133 -2.93357 0
M  V30 424 C 39.3737 -1.57574 -2.97779 0
M  V30 425 O 39.9037 -0.973203 -3.89733 0
M  V30 426 N 38.1097 -1.29716 -2.60043 0
M  V30 427 H 37.6567 -1.789 -1.85345 0
M  V30 428 H 37.6147 -0.58051 -3.08994 0
M  V30 429 N 41.3868 0.248026 -1.55636 0
M  V30 430 C 42.8028 0.596483 -1.48035 0
M  V30 431 C 43.0028 1.88386 -0.715039 0
M  V30 432 O 42.0588 2.51319 -0.243944 0
M  V30 433 C 43.3718 0.700258 -2.92433 0
M  V30 434 C 44.9198 0.792659 -3.02797 0
M  V30 435 C 45.3948 0.928005 -4.485 0
M  V30 436 N 46.8858 0.992903 -4.52433 0
M  V30 437 C 47.6208 1.11687 -5.62418 0
M  V30 438 N 47.1168 1.20645 -6.82214 0
M  V30 439 N 48.9098 1.14994 -5.50212 0
M  V30 440 H 41.0608 -0.597109 -2.03834 0
M  V30 441 H 43.3238 -0.205925 -0.925364 0
M  V30 442 H 43.0298 -0.175658 -3.51261 0
M  V30 443 H 42.9038 1.57255 -3.42857 0
M  V30 444 H 45.2908 1.65903 -2.4405 0
M  V30 445 H 45.3718 -0.104762 -2.55585 0
M  V30 446 H 45.0158 0.0661971 -5.07857 0
M  V30 447 H 44.9458 1.84045 -4.93391 0
M  V30 448 H 47.4368 0.935064 -3.66149 0
M  V30 449 H 47.7498 1.30008 -7.61786 0
M  V30 450 H 46.0948 1.17605 -6.84977 0
M  V30 451 H 49.2858 1.07643 -4.55555 0
M  V30 452 H 49.4588 1.24311 -6.35965 0
M  V30 453 N 42.8649 1.48995 0.513639 0
M  V30 454 C 43.7949 1.67636 1.62544 0
M  V30 455 C 44.7759 0.525087 1.61793 0
M  V30 456 O 45.9609 0.759502 1.78732 0
M  V30 457 C 43.0909 1.73114 3.01079 0
M  V30 458 C 42.0449 2.87905 3.16693 0
M  V30 459 C 41.3709 2.78486 4.56453 0
M  V30 460 C 42.6709 4.29005 2.97913 0
M  V30 461 H 44.3649 2.60716 1.47198 0
M  V30 462 H 41.9109 1.25465 0.706714 0
M  V30 463 H 43.8639 1.84742 3.78746 0
M  V30 464 H 42.5879 0.766241 3.17484 0
M  V30 465 H 41.2469 2.75859 2.41448 0
M  V30 466 H 40.8949 1.7993 4.69717 0
M  V30 467 H 40.5949 3.55523 4.67843 0
M  V30 468 H 42.1189 2.92104 5.36197 0
M  V30 469 H 43.5329 4.41798 3.65359 0
M  V30 470 H 41.9299 5.07166 3.20785 0
M  V30 471 H 42.9999 4.44329 1.94165 0
M  V30 472 N 44.343 -0.763751 1.37857 0
M  V30 473 C 45.59 -1.52257 1.33506 0
M  V30 474 C 45.918 -1.94343 -0.078022 0
M  V30 475 O 45.173 -1.64958 -1.05297 0
M  V30 476 C 45.472 -2.79499 2.22745 0
M  V30 477 C 45.138 -2.56426 3.70886 0
M  V30 478 C 43.8 -2.49842 4.11257 0
M  V30 479 C 46.152 -2.36008 4.64704 0
M  V30 480 C 43.48 -2.20841 5.43549 0
M  V30 481 C 45.832 -2.0853 5.97242 0
M  V30 482 C 44.496 -2.00396 6.36709 0
M  V30 483 H 43.766 -0.557149 0.488534 0
M  V30 484 H 46.413 -0.879073 1.70131 0
M  V30 485 H 44.718 -3.48447 1.79142 0
M  V30 486 H 46.415 -3.37413 2.16688 0
M  V30 487 H 43.005 -2.62416 3.38874 0
M  V30 488 H 47.189 -2.40079 4.34368 0
M  V30 489 H 42.445 -2.13045 5.73081 0
M  V30 490 H 46.619 -1.91732 6.69486 0
M  V30 491 H 44.246 -1.77688 7.39142 0
M  V30 492 N 45.8211 -1.22559 -0.990812 0
M  V30 493 C 46.7311 -1.01394 -2.11557 0
M  V30 494 C 47.7471 0.0383962 -1.73958 0
M  V30 495 O 48.9231 -0.154787 -2.00804 0
M  V30 496 C 45.9881 -0.596569 -3.41529 0
M  V30 497 C 45.0491 -1.72276 -3.93217 0
M  V30 498 C 44.2821 -1.32521 -5.16985 0
M  V30 499 O 44.5051 -0.204909 -5.70032 0
M  V30 500 O 43.4391 -2.14247 -5.62478 0
M  V30 501 H 47.2651 -1.95633 -2.32296 0
M  V30 502 H 44.8501 -1.01172 -1.0993 0
M  V30 503 H 46.7321 -0.374263 -4.19735 0
M  V30 504 H 45.4071 0.316939 -3.22145 0
M  V30 505 H 44.3141 -1.99961 -3.16174 0
M  V30 506 H 45.6471 -2.61421 -4.17037 0
M  V30 507 N 47.2992 1.18797 -1.03562 0
M  V30 508 C 48.5762 1.84469 -0.650434 0
M  V30 509 C 48.9562 1.92319 0.870433 0
M  V30 510 O 48.3042 1.44528 1.76986 0
M  V30 511 C 48.5142 3.2306 -1.32036 0
M  V30 512 C 49.8622 3.9915 -1.44792 0
M  V30 513 O 50.8862 3.32481 -1.27806 0
M  V30 514 O 49.7452 5.18587 -1.72423 0
M  V30 515 H 46.8392 0.795251 -0.226946 0
M  V30 516 H 49.3852 1.26231 -1.13419 0
M  V30 517 H 48.1572 3.1222 -2.3587 0
M  V30 518 H 47.7802 3.88949 -0.8249 0
M  V30 519 N 48.7773 0.814389 1.34928 0
M  V30 520 C 49.7073 0.244827 2.32213 0
M  V30 521 C 50.6883 -0.634024 1.57842 0
M  V30 522 O 51.8733 -0.562676 1.8587 0
M  V30 523 C 49.0033 -0.601106 3.42058 0
M  V30 524 C 47.9573 0.179896 4.27622 0
M  V30 525 C 47.2833 -0.788237 5.28858 0
M  V30 526 C 48.5833 1.38329 5.03649 0
M  V30 527 H 50.2773 1.05763 2.80097 0
M  V30 528 H 47.8233 0.510029 1.34665 0
M  V30 529 H 49.7763 -1.00968 4.09125 0
M  V30 530 H 48.5003 -1.44688 2.92802 0
M  V30 531 H 47.1593 0.569739 3.62146 0
M  V30 532 H 46.8073 -1.62973 4.75866 0
M  V30 533 H 46.5073 -0.269942 5.8698 0
M  V30 534 H 48.0313 -1.19485 5.98795 0
M  V30 535 H 49.4453 1.04918 5.63618 0
M  V30 536 H 47.8423 1.83662 5.71304 0
M  V30 537 H 48.9123 2.16592 4.33839 0
M  V30 538 N 50.2554 -1.46986 0.568584 0
M  V30 539 C 51.5044 -2.01646 0.0465894 0
M  V30 540 C 51.8174 -1.44721 -1.31587 0
M  V30 541 O 53.0234 -1.91113 -1.92842 0
M  V30 542 C 51.4794 -3.59885 0.032752 0
M  V30 543 C 51.0874 -4.25804 1.39266 0
M  V30 544 C 52.8314 -4.22255 -0.436038 0
M  V30 545 C 50.7384 -5.76081 1.33732 0
M  V30 546 H 49.6684 -0.753876 0.013647 0
M  V30 547 H 52.3194 -1.68864 0.718131 0
M  V30 548 H 50.7014 -3.8968 -0.704669 0
M  V30 549 H 51.8754 -4.07637 2.1487 0
M  V30 550 H 50.1904 -3.7547 1.80032 0
M  V30 551 H 52.7874 -5.32394 -0.49602 0
M  V30 552 H 53.1304 -3.90212 -1.45053 0
M  V30 553 H 53.6634 -3.97033 0.246877 0
M  V30 554 H 50.4024 -6.12761 2.32817 0
M  V30 555 H 49.9224 -5.96553 0.623267 0
M  V30 556 H 51.6014 -6.38518 1.0442 0
M  V30 557 N 51.7335 -0.305618 -1.54608 0
M  V30 558 C 52.6965 0.555591 -2.22364 0
M  V30 559 C 53.6965 1.05768 -1.21119 0
M  V30 560 O 54.8865 0.952972 -1.45822 0
M  V30 561 C 52.0185 1.76974 -2.91364 0
M  V30 562 H 53.2115 -0.0364572 -2.99878 0
M  V30 563 H 50.7645 -0.0565007 -1.56198 0
M  V30 564 H 51.4995 2.40151 -2.17941 0
M  V30 565 H 51.2845 1.41732 -3.65588 0
M  V30 566 H 52.7745 2.38148 -3.43038 0
M  V30 567 N 53.2116 1.57565 -0.0334293 0
M  V30 568 C 54.4886 1.83282 0.683163 0
M  V30 569 C 54.8686 0.91823 1.90084 0
M  V30 570 O 54.2166 -0.025113 2.28486 0
M  V30 571 C 54.4266 3.32599 1.0573 0
M  V30 572 C 55.7746 3.99179 1.44711 0
M  V30 573 O 56.7986 3.3712 1.15015 0
M  V30 574 O 55.6576 5.08565 2.0006 0
M  V30 575 H 52.7516 0.755869 0.335546 0
M  V30 576 H 55.2976 1.69589 -0.0614402 0
M  V30 577 H 54.0696 3.90834 0.190828 0
M  V30 578 H 53.6926 3.51415 1.85993 0
M  V30 579 N 54.6897 -0.239769 1.55765 0
M  V30 580 C 55.9197 -0.982743 1.8173 0
M  V30 581 C 56.3277 -1.7917 0.607835 0
M  V30 582 O 55.6707 -1.78525 -0.432973 0
M  V30 583 C 55.7327 -1.96332 3.01155 0
M  V30 584 C 55.3967 -1.34062 4.36894 0
M  V30 585 C 56.3937 -0.739539 5.14613 0
M  V30 586 C 54.0787 -1.35784 4.83599 0
M  V30 587 C 56.0727 -0.163989 6.37189 0
M  V30 588 C 53.7597 -0.778441 6.06122 0
M  V30 589 C 54.7577 -0.182548 6.82756 0
M  V30 590 O 54.4457 0.387887 8.02964 0
M  V30 591 H 54.1777 -0.294481 0.608487 0
M  V30 592 H 56.7317 -0.26572 2.03674 0
M  V30 593 H 54.9617 -2.71884 2.74984 0
M  V30 594 H 56.6507 -2.57032 3.14149 0
M  V30 595 H 57.4167 -0.718687 4.79646 0
M  V30 596 H 53.2957 -1.81105 4.23936 0
M  V30 597 H 56.8397 0.301753 6.96947 0
M  V30 598 H 52.7367 -0.796645 6.40565 0
M  V30 599 H 53.5047 0.28044 8.18019 0
M  V30 600 N 56.1678 -1.49265 -0.50573 0
M  V30 601 C 57.1158 -1.66065 -1.62866 0
M  V30 602 C 58.1098 -0.526636 -1.61006 0
M  V30 603 O 59.3158 -0.706126 -1.65571 0
M  V30 604 H 55.6908 -0.52356 -0.539805 0
M  V30 605 H 57.6618 -2.60329 -1.45848 0
M  V30 606 C 56.4108 -1.74008 -3.01026 0
M  V30 607 H 55.7338 -2.6064 -3.03161 0
M  V30 608 H 57.1738 -1.89798 -3.79147 0
M  V30 609 C 55.6328 -0.483868 -3.33407 0
M  V30 610 O 56.1628 0.392548 -3.99777 0
M  V30 611 N 54.3688 -0.348236 -2.88506 0
M  V30 612 H 53.9158 -1.06242 -2.34671 0
M  V30 613 H 53.8738 0.491204 -3.10539 0
M  V30 614 N 57.6459 0.756429 -1.3826 0
M  V30 615 C 58.5929 1.87011 -1.35261 0
M  V30 616 C 59.5629 1.64695 -0.215616 0
M  V30 617 O 60.7479 1.864 -0.407399 0
M  V30 618 C 57.8879 3.24275 -1.18068 0
M  V30 619 C 57.0009 3.58442 -2.41129 0
M  V30 620 C 56.1359 4.84994 -2.16689 0
M  V30 621 C 55.1749 5.11939 -3.35537 0
M  V30 622 N 54.3119 6.29685 -3.10549 0
M  V30 623 H 59.1519 1.8891 -2.30472 0
M  V30 624 H 56.6889 0.923373 -1.14509 0
M  V30 625 H 58.6469 4.03479 -1.06116 0
M  V30 626 H 57.2769 3.21711 -0.264973 0
M  V30 627 H 56.3289 2.74103 -2.63764 0
M  V30 628 H 57.6409 3.74283 -3.29717 0
M  V30 629 H 56.7949 5.72135 -2.01857 0
M  V30 630 H 55.5339 4.71286 -1.25462 0
M  V30 631 H 54.5389 4.23268 -3.50891 0
M  V30 632 H 55.7639 5.27546 -4.27635 0
M  V30 633 H 53.7099 6.17306 -2.21967 0
M  V30 634 H 53.6269 6.46014 -3.92686 0
M  V30 635 H 54.8949 7.19722 -2.99367 0
M  V30 636 N 59.124 1.23083 0.984299 0
M  V30 637 C 60.054 1.03292 2.09411 0
M  V30 638 C 61.035 -0.048923 1.7003 0
M  V30 639 O 62.22 0.114967 1.93859 0
M  V30 640 C 59.35 0.619155 3.41736 0
M  V30 641 C 58.304 1.64791 3.95004 0
M  V30 642 C 57.63 1.0897 5.23478 0
M  V30 643 C 58.93 3.03999 4.24714 0
M  V30 644 H 60.624 1.96119 2.26225 0
M  V30 645 H 58.17 0.944344 1.08711 0
M  V30 646 H 60.123 0.467777 4.18796 0
M  V30 647 H 58.847 -0.344786 3.24775 0
M  V30 648 H 57.506 1.78721 3.20085 0
M  V30 649 H 57.154 0.11686 5.02864 0
M  V30 650 H 56.854 1.77704 5.60085 0
M  V30 651 H 58.378 0.950093 6.03163 0
M  V30 652 H 59.792 2.93393 4.92538 0
M  V30 653 H 58.189 3.69936 4.72512 0
M  V30 654 H 59.259 3.53285 3.32142 0
M  V30 655 N 60.6021 -1.18246 1.0419 0
M  V30 656 C 61.8481 -1.88536 0.747122 0
M  V30 657 C 62.1811 -1.80223 -0.723409 0
M  V30 658 O 61.4561 -1.20337 -1.52804 0
M  V30 659 C 61.7391 -3.38968 1.21544 0
M  V30 660 C 61.5921 -3.56084 2.74816 0
M  V30 661 C 62.9111 -4.32648 0.806482 0
M  V30 662 H 60.0301 -0.684619 0.272883 0
M  V30 663 H 62.6721 -1.39113 1.29413 0
M  V30 664 H 60.8221 -3.8119 0.750081 0
M  V30 665 H 62.4941 -3.22946 3.29399 0
M  V30 666 H 60.7371 -2.98699 3.14582 0
M  V30 667 H 61.4081 -4.61639 3.02644 0
M  V30 668 H 63.8841 -3.98211 1.20695 0
M  V30 669 H 62.7601 -5.36462 1.1619 0
M  V30 670 H 63.0211 -4.41146 -0.29029 0
M  V30 671 N 62.0802 -0.821533 -1.34494 0
M  V30 672 C 63.4962 -0.507117 -1.51329 0
M  V30 673 C 63.6962 0.968964 -1.76673 0
M  V30 674 O 62.7522 1.75348 -1.81685 0
M  V30 675 C 64.0652 -1.36544 -2.67911 0
M  V30 676 C 65.6132 -1.36242 -2.81793 0
M  V30 677 C 66.0882 -2.2052 -4.01416 0
M  V30 678 N 67.5792 -2.18136 -4.08621 0
M  V30 679 C 68.3142 -2.80095 -5.00334 0
M  V30 680 N 67.8102 -3.51039 -5.9728 0
M  V30 681 N 69.6032 -2.69656 -4.93196 0
M  V30 682 H 61.7542 -1.77729 -1.16302 0
M  V30 683 H 64.0172 -0.757291 -0.570276 0
M  V30 684 H 63.7232 -2.41361 -2.55808 0
M  V30 685 H 63.5972 -1.02917 -3.62888 0
M  V30 686 H 65.9842 -0.322041 -2.93338 0
M  V30 687 H 66.0652 -1.73866 -1.87628 0
M  V30 688 H 65.7092 -3.24607 -3.90631 0
M  V30 689 H 65.6392 -1.80247 -4.94791 0
M  V30 690 H 68.1302 -1.6653 -3.39229 0
M  V30 691 H 68.4432 -3.95565 -6.63889 0
M  V30 692 H 66.7882 -3.55145 -5.97409 0
M  V30 693 H 69.9792 -2.13808 -4.16418 0
M  V30 694 H 70.1522 -3.1823 -5.64476 0
M  V30 695 N 63.5583 1.46682 -0.576371 0
M  V30 696 C 64.9693 1.86112 -0.148091 0
M  V30 697 C 65.3203 1.48073 1.2872 0
M  V30 698 O 64.4453 0.892656 1.97131 0
M  V30 699 C 65.0403 3.37786 -0.261982 0
M  V30 700 C 63.5993 3.76235 0.111384 0
M  V30 701 C 62.7463 2.70713 -0.60083 0
M  V30 702 H 65.6973 1.37927 -0.78497 0
M  V30 703 H 65.7183 3.77007 0.514364 0
M  V30 704 H 65.2303 3.6544 -1.30671 0
M  V30 705 H 63.3313 3.54198 1.15649 0
M  V30 706 H 63.4443 4.78391 -0.26052 0
M  V30 707 H 61.8083 2.54666 -0.0417783 0
M  V30 708 H 62.5913 3.01208 -1.64708 0
M  V30 709 N 65.0364 0.313813 1.54444 0
M  V30 710 C 66.2824 -0.292108 2.00685 0
M  V30 711 C 66.6154 -1.52548 1.20177 0
M  V30 712 O 65.8904 -1.92452 0.281531 0
M  V30 713 C 66.1734 -0.635968 3.5444 0
M  V30 714 C 66.0264 0.607437 4.4568 0
M  V30 715 C 67.3454 -1.45747 4.15266 0
M  V30 716 H 64.4644 -0.104697 0.729526 0
M  V30 717 H 67.1064 0.428457 1.85106 0
M  V30 718 H 65.2564 -1.24986 3.67846 0
M  V30 719 H 66.9284 1.24581 4.44159 0
M  V30 720 H 65.1714 1.23822 4.15753 0
M  V30 721 H 65.8424 0.322515 5.51057 0
M  V30 722 H 68.3184 -0.938645 4.05375 0
M  V30 723 H 67.1944 -1.66683 5.2298 0
M  V30 724 H 67.4554 -2.45063 3.67963 0
M  V30 725 N 66.5145 -1.57545 0.0417849 0
M  V30 726 C 67.7395 -1.97035 -0.647455 0
M  V30 727 C 68.1645 -0.918775 -1.64135 0
M  V30 728 O 67.5225 0.119006 -1.80909 0
M  V30 729 C 67.5705 -3.35609 -1.31905 0
M  V30 730 O 66.6745 -3.3287 -2.43457 0
M  V30 731 H 66.0155 -0.64211 -0.169086 0
M  V30 732 H 68.5455 -2.04318 0.107399 0
M  V30 733 H 68.5555 -3.72126 -1.67291 0
M  V30 734 H 67.2305 -4.11685 -0.590586 0
M  V30 735 H 65.8075 -3.08087 -2.10088 0
M  V30 736 N 67.9926 0.231505 -1.5589 0
M  V30 737 C 68.9026 1.308 -1.94752 0
M  V30 738 C 69.9186 1.51826 -0.849989 0
M  V30 739 O 71.0946 1.6515 -1.15271 0
M  V30 740 C 68.1596 2.63968 -2.24771 0
M  V30 741 C 67.2206 2.51331 -3.48039 0
M  V30 742 C 66.4536 3.78148 -3.76616 0
M  V30 743 O 66.6766 4.80722 -3.07022 0
M  V30 744 O 65.6106 3.75857 -4.70123 0
M  V30 745 H 69.4366 1.0083 -2.86474 0
M  V30 746 H 67.0216 0.433547 -1.42971 0
M  V30 747 H 68.9036 3.42633 -2.45318 0
M  V30 748 H 67.5786 2.9364 -1.36225 0
M  V30 749 H 66.4856 1.709 -3.32782 0
M  V30 750 H 67.8186 2.26601 -4.36936 0
M  V30 751 N 69.4707 1.49531 0.497807 0
M  V30 752 C 70.4187 1.66926 1.61983 0
M  V30 753 C 71.4127 0.535167 1.60724 0
M  V30 754 O 72.6187 0.714896 1.65195 0
M  V30 755 H 68.9937 0.526415 0.537021 0
M  V30 756 H 70.9647 2.61098 1.44465 0
M  V30 757 C 69.7137 1.75602 3.00099 0
M  V30 758 H 69.0367 2.62244 3.01775 0
M  V30 759 H 70.4767 1.91807 3.78135 0
M  V30 760 C 68.9357 0.501543 3.33146 0
M  V30 761 O 69.4657 -0.371342 3.9998 0
M  V30 762 N 67.6717 0.363531 2.88317 0
M  V30 763 H 67.2187 1.07485 2.34104 0
M  V30 764 H 67.1767 -0.474728 3.10795 0
M  V30 765 N 70.9488 -0.749086 1.3866 0
M  V30 766 C 72.1968 -1.50535 1.34847 0
M  V30 767 C 72.5178 -1.94909 -0.0595016 0
M  V30 768 O 71.7878 -1.67973 -1.00806 0
M  V30 769 H 70.3678 -0.558395 0.49619 0
M  V30 770 H 73.0298 -0.890165 1.73384 0
M  V30 771 H 72.1258 -2.39413 2.00219 0
M  V30 772 N 72.4269 -1.23603 -0.977757 0
M  V30 773 C 73.3369 -1.03632 -2.1047 0
M  V30 774 C 74.3529 0.0199435 -1.73989 0
M  V30 775 O 75.5289 -0.176076 -2.00629 0
M  V30 776 C 72.5939 -0.63276 -3.40877 0
M  V30 777 C 71.6549 -1.76437 -3.91367 0
M  V30 778 C 70.8879 -1.37997 -5.15551 0
M  V30 779 O 71.1109 -0.265357 -5.69782 0
M  V30 780 O 70.0449 -2.20201 -5.60174 0
M  V30 781 H 73.8709 -1.98086 -2.30208 0
M  V30 782 H 71.4559 -1.02332 -1.08851 0
M  V30 783 H 73.3379 -0.418761 -4.19314 0
M  V30 784 H 72.0129 0.282754 -3.22463 0
M  V30 785 H 70.9199 -2.03304 -3.14036 0
M  V30 786 H 72.2529 -2.6583 -4.14241 0
M  V30 787 N 73.905 1.17692 -1.04816 0
M  V30 788 C 75.133 1.91786 -0.776254 0
M  V30 789 C 75.548 1.76604 0.667577 0
M  V30 790 O 74.905 1.10067 1.45573 0
M  V30 791 C 74.956 3.42967 -1.14263 0
M  V30 792 O 74.677 3.57678 -2.52978 0
M  V30 793 C 76.178 4.34144 -0.896311 0
M  V30 794 H 73.398 0.608624 -0.282519 0
M  V30 795 H 75.942 1.49268 -1.39783 0
M  V30 796 H 74.097 3.83245 -0.565874 0
M  V30 797 H 74.511 4.51319 -2.67229 0
M  V30 798 H 75.985 5.38744 -1.20244 0
M  V30 799 H 76.462 4.38876 0.168636 0
M  V30 800 H 77.068 3.99574 -1.45672 0
M  V30 801 N 75.3831 0.828654 1.34056 0
M  V30 802 C 76.3131 0.269443 2.3194 0
M  V30 803 C 77.2941 -0.617247 1.58506 0
M  V30 804 O 78.4791 -0.542931 1.86456 0
M  V30 805 C 75.6091 -0.564793 3.42677 0
M  V30 806 C 74.5631 0.225241 4.27407 0
M  V30 807 C 73.8891 -0.7321 5.29664 0
M  V30 808 C 75.1891 1.43663 5.02154 0
M  V30 809 H 76.8831 1.08728 2.7896 0
M  V30 810 H 74.4291 0.524283 1.34117 0
M  V30 811 H 76.3821 -0.966233 4.10173 0
M  V30 812 H 75.1061 -1.41574 2.9432 0
M  V30 813 H 73.7651 0.608117 3.61521 0
M  V30 814 H 73.4131 -1.57916 4.77568 0
M  V30 815 H 73.1131 -0.20767 5.87233 0
M  V30 816 H 74.6371 -1.13128 6.00029 0
M  V30 817 H 76.0511 1.1089 5.62473 0
M  V30 818 H 74.4481 1.89711 5.69324 0
M  V30 819 H 75.5181 2.21181 4.31517 0
M  V30 820 N 76.8612 -1.46375 0.584142 0
M  V30 821 C 78.1072 -2.02678 0.0703716 0
M  V30 822 C 78.4402 -1.4545 -1.28678 0
M  V30 823 O 77.7152 -0.62014 -1.84349 0
M  V30 824 C 77.9982 -3.60099 0.00614674 0
M  V30 825 C 77.8512 -4.27709 1.3923 0
M  V30 826 C 79.1702 -4.34598 -0.693742 0
M  V30 827 H 76.2892 -0.736504 0.027047 0
M  V30 828 H 78.9312 -1.74501 0.751615 0
M  V30 829 H 77.0812 -3.84236 -0.574009 0
M  V30 830 H 78.7532 -4.14832 2.01773 0
M  V30 831 H 76.9962 -3.87016 1.95962 0
M  V30 832 H 77.6672 -5.36478 1.29982 0
M  V30 833 H 80.1432 -4.15615 -0.200869 0
M  V30 834 H 79.0192 -5.44318 -0.707714 0
M  V30 835 H 79.2802 -4.05759 -1.75533 0
M  V30 836 N 78.3393 -0.321999 -1.54275 0
M  V30 837 C 79.5853 0.281461 -2.00837 0
M  V30 838 C 79.9183 1.51909 -1.20985 0
M  V30 839 O 79.1933 1.923 -0.291733 0
M  V30 840 C 79.4763 0.617162 -3.54772 0
M  V30 841 C 79.3293 -0.631064 -4.45351 0
M  V30 842 C 80.6483 1.43542 -4.16033 0
M  V30 843 H 77.7673 0.100826 -0.730071 0
M  V30 844 H 80.4093 -0.438268 -1.84876 0
M  V30 845 H 78.5593 1.23034 -3.68504 0
M  V30 846 H 80.2313 -1.26934 -4.43492 0
M  V30 847 H 78.4743 -1.26025 -4.15091 0
M  V30 848 H 79.1453 -0.351735 -5.50878 0
M  V30 849 H 81.6213 0.917134 -4.05867 0
M  V30 850 H 80.4973 1.63907 -5.23856 0
M  V30 851 H 80.7583 2.43108 -3.69257 0
M  V30 852 N 79.8174 1.5752 -0.0501392 0
M  V30 853 C 81.0454 1.96963 0.633492 0
M  V30 854 C 81.4604 0.927631 1.6444 0
M  V30 855 O 80.8174 -0.0882665 1.82286 0
M  V30 856 C 80.8684 3.36487 1.32132 0
M  V30 857 O 80.5894 4.36693 0.350894 0
M  V30 858 C 82.0904 3.90682 2.09481 0
M  V30 859 H 79.3104 0.648244 0.173266 0
M  V30 860 H 81.8544 2.0417 -0.116134 0
M  V30 861 H 80.0094 3.30434 2.02218 0
M  V30 862 H 80.4234 5.17702 0.841735 0
M  V30 863 H 81.8974 4.90591 2.5303 0
M  V30 864 H 82.3744 3.26053 2.94255 0
M  V30 865 H 82.9804 4.00069 1.44307 0
M  V30 866 N 81.2955 -0.223234 1.56011 0
M  V30 867 C 82.5425 -0.947875 1.78946 0
M  V30 868 C 82.8705 -1.844 0.618608 0
M  V30 869 O 82.1255 -1.91629 -0.397093 0
M  V30 870 C 82.4245 -1.81948 3.0762 0
M  V30 871 C 82.0905 -1.07672 4.37856 0
M  V30 872 C 80.7525 -0.871544 4.73242 0
M  V30 873 C 83.1045 -0.552081 5.18268 0
M  V30 874 C 80.4325 -0.129791 5.86556 0
M  V30 875 C 82.7845 0.17632 6.32354 0
M  V30 876 C 81.4485 0.39277 6.66343 0
M  V30 877 H 80.7185 -0.346852 0.654809 0
M  V30 878 H 83.3655 -0.216171 1.90276 0
M  V30 879 H 81.6705 -2.61899 2.91404 0
M  V30 880 H 83.3675 -2.38227 3.22566 0
M  V30 881 H 79.9575 -1.24662 4.1007 0
M  V30 882 H 84.1415 -0.698076 4.91366 0
M  V30 883 H 79.3975 0.048153 6.11381 0
M  V30 884 H 83.5715 0.590367 6.93893 0
M  V30 885 H 81.1985 0.969466 7.53993 0
M  V30 886 N 82.7736 -1.49793 -0.48987 0
M  V30 887 C 83.7206 -1.67281 -1.59014 0
M  V30 888 C 84.6906 -0.514177 -1.57941 0
M  V30 889 O 85.8756 -0.742533 -1.75759 0
M  V30 890 C 83.0156 -1.75569 -2.97102 0
M  V30 891 C 82.1286 -3.0281 -3.08107 0
M  V30 892 C 81.2636 -3.02008 -4.36995 0
M  V30 893 C 80.3026 -4.23782 -4.41673 0
M  V30 894 N 79.4396 -4.20826 -5.62005 0
M  V30 895 H 84.2796 -2.61224 -1.43409 0
M  V30 896 H 81.8166 -1.29508 -0.697565 0
M  V30 897 H 83.7746 -1.78354 -3.77155 0
M  V30 898 H 82.4046 -0.850827 -3.11385 0
M  V30 899 H 81.4566 -3.09584 -2.21047 0
M  V30 900 H 82.7686 -3.92801 -3.07423 0
M  V30 901 H 81.9226 -3.03418 -5.25378 0
M  V30 902 H 80.6616 -2.09815 -4.4026 0
M  V30 903 H 79.6666 -4.22604 -3.5169 0
M  V30 904 H 80.8916 -5.17181 -4.40115 0
M  V30 905 H 78.8376 -3.31476 -5.66091 0
M  V30 906 H 78.7546 -5.04564 -5.62984 0
M  V30 907 H 80.0226 -4.26355 -6.52565 0
M  V30 908 N 84.2517 0.741722 -1.39055 0
M  V30 909 C 85.1817 1.869 -1.39966 0
M  V30 910 C 86.1627 1.6804 -0.26392 0
M  V30 911 O 87.3477 1.88458 -0.468755 0
M  V30 912 C 84.4777 3.24572 -1.23574 0
M  V30 913 C 83.4317 3.58056 -2.34477 0
M  V30 914 C 82.7577 4.94593 -2.0318 0
M  V30 915 C 84.0577 3.61716 -3.76774 0
M  V30 916 H 85.7517 1.86395 -2.34302 0
M  V30 917 H 83.2977 0.895361 -1.1278 0
M  V30 918 H 85.2507 4.031 -1.22834 0
M  V30 919 H 83.9747 3.25587 -0.257045 0
M  V30 920 H 82.6337 2.81854 -2.34423 0
M  V30 921 H 82.2817 4.92181 -1.03765 0
M  V30 922 H 81.9817 5.17964 -2.77465 0
M  V30 923 H 83.5057 5.75486 -2.04079 0
M  V30 924 H 84.9197 4.30335 -3.78794 0
M  V30 925 H 83.3167 3.96603 -4.50362 0
M  V30 926 H 84.3867 2.61672 -4.08235 0
M  V30 927 N 85.7298 1.2412 0.971189 0
M  V30 928 C 86.6768 1.0305 2.06517 0
M  V30 929 C 87.6468 -0.0550666 1.66009 0
M  V30 930 O 88.8318 0.0988688 1.90544 0
M  V30 931 C 85.9718 0.637653 3.39158 0
M  V30 932 C 85.0848 1.79633 3.92882 0
M  V30 933 C 84.2198 1.34939 5.13775 0
M  V30 934 C 83.2588 2.47823 5.59687 0
M  V30 935 N 82.3958 2.04022 6.71803 0
M  V30 936 H 87.2358 1.96685 2.23873 0
M  V30 937 H 84.7728 0.979694 1.09729 0
M  V30 938 H 86.7308 0.390931 4.15364 0
M  V30 939 H 85.3608 -0.261693 3.21737 0
M  V30 940 H 84.4128 2.15681 3.13346 0
M  V30 941 H 85.7248 2.64466 4.22918 0
M  V30 942 H 84.8788 1.06134 5.97345 0
M  V30 943 H 83.6178 0.471557 4.85415 0
M  V30 944 H 82.6228 2.77392 4.74693 0
M  V30 945 H 83.8478 3.36158 5.90063 0
M  V30 946 H 81.7938 1.18632 6.45184 0
M  V30 947 H 81.7108 2.82409 7.01271 0
M  V30 948 H 82.9788 1.78347 7.58823 0
M  V30 949 N 87.2079 -1.17134 1.05439 0
M  V30 950 C 88.1379 -2.2342 0.678649 0
M  V30 951 C 89.1189 -1.66971 -0.32476 0
M  V30 952 O 90.3039 -1.93149 -0.201802 0
M  V30 953 C 87.4339 -3.47256 0.0552099 0
M  V30 954 C 86.3879 -4.16543 0.98365 0
M  V30 955 C 85.7139 -5.34231 0.223961 0
M  V30 956 C 87.0139 -4.68495 2.3089 0
M  V30 957 H 88.7079 -2.55105 1.56722 0
M  V30 958 H 86.2539 -1.2262 0.754998 0
M  V30 959 H 88.2069 -4.20828 -0.21946 0
M  V30 960 H 86.9309 -3.14846 -0.868319 0
M  V30 961 H 85.5899 -3.44887 1.24293 0
M  V30 962 H 85.2379 -4.98071 -0.702412 0
M  V30 963 H 84.9379 -5.81527 0.842627 0
M  V30 964 H 86.4619 -6.10585 -0.0433671 0
M  V30 965 H 87.8759 -5.33691 2.09396 0
M  V30 966 H 86.2729 -5.26379 2.88176 0
M  V30 967 H 87.3429 -3.85169 2.94572 0
M  V30 968 N 88.686 -0.835752 -1.33615 0
M  V30 969 C 89.911 -0.442389 -2.02627 0
M  V30 970 C 90.336 0.947735 -1.62479 0
M  V30 971 O 89.694 1.61907 -0.815826 0
M  V30 972 C 89.742 -0.567216 -3.56111 0
M  V30 973 O 88.846 0.407799 -4.10379 0
M  V30 974 H 88.187 -0.180278 -0.639059 0
M  V30 975 H 90.717 -1.12972 -1.70583 0
M  V30 976 H 90.727 -0.447708 -4.05536 0
M  V30 977 H 89.402 -1.58103 -3.84677 0
M  V30 978 H 87.979 0.246107 -3.72087 0
M  V30 979 N 90.1641 1.46063 -0.591896 0
M  V30 980 C 91.0961 2.28539 0.174001 0
M  V30 981 C 92.1091 1.39047 0.846753 0
M  V30 982 O 93.2981 1.63564 0.714774 0
M  V30 983 C 90.3981 3.14347 1.26645 0
M  V30 984 C 89.5711 4.32021 0.683856 0
M  V30 985 C 88.6301 4.99157 1.66518 0
M  V30 986 O 87.6561 5.56458 1.19763 0
M  V30 987 N 88.8581 4.97005 2.99943 0
M  V30 988 H 91.6231 2.94911 -0.533633 0
M  V30 989 H 89.1841 1.56077 -0.430294 0
M  V30 990 H 91.1761 3.56125 1.92242 0
M  V30 991 H 89.7461 2.49988 1.87682 0
M  V30 992 H 88.9661 3.93915 -0.1498 0
M  V30 993 H 90.2541 5.08059 0.274567 0
M  V30 994 H 89.6521 4.51714 3.40545 0
M  V30 995 H 88.2091 5.42696 3.61004 0
M  V30 996 N 91.6422 0.330177 1.54103 0
M  V30 997 C 92.5722 -0.525353 2.27513 0
M  V30 998 C 93.5532 -1.11383 1.2856 0
M  V30 999 O 94.7382 -1.13773 1.57383 0
M  V30 1000 C 91.8682 -1.6831 3.03791 0
M  V30 1001 C 90.8222 -1.2236 4.10137 0
M  V30 1002 C 90.1482 -2.46882 4.74293 0
M  V30 1003 C 91.4482 -0.333697 5.21233 0
M  V30 1004 H 93.1422 0.087013 2.99274 0
M  V30 1005 H 90.6882 0.0432893 1.43935 0
M  V30 1006 H 92.6412 -2.28795 3.5388 0
M  V30 1007 H 91.3652 -2.32216 2.29659 0
M  V30 1008 H 90.0242 -0.64165 3.60941 0
M  V30 1009 H 89.6722 -3.09165 3.96769 0
M  V30 1010 H 89.3722 -2.16825 5.46133 0
M  V30 1011 H 90.8962 -3.08117 5.27159 0
M  V30 1012 H 92.3102 -0.845013 5.67038 0
M  V30 1013 H 90.7072 -0.125612 5.99969 0
M  V30 1014 H 91.7772 0.633724 4.80741 0
M  V30 1015 N 93.1203 -1.57491 0.0584922 0
M  V30 1016 C 94.0503 -2.14988 -0.911178 0
M  V30 1017 C 95.0313 -1.07343 -1.31952 0
M  V30 1018 O 96.2163 -1.35318 -1.39294 0
M  V30 1019 C 93.3463 -2.70078 -2.18347 0
M  V30 1020 C 92.3003 -3.82771 -1.91495 0
M  V30 1021 C 91.6263 -4.24408 -3.25241 0
M  V30 1022 C 92.9263 -5.07592 -1.23075 0
M  V30 1023 H 94.6203 -2.96263 -0.432246 0
M  V30 1024 H 92.1663 -1.42512 -0.206469 0
M  V30 1025 H 94.1193 -3.08943 -2.86587 0
M  V30 1026 H 92.8433 -1.86005 -2.68458 0
M  V30 1027 H 91.5023 -3.44389 -1.25664 0
M  V30 1028 H 91.1503 -3.37275 -3.73168 0
M  V30 1029 H 90.8503 -5.00366 -3.08071 0
M  V30 1030 H 92.3743 -4.65879 -3.94701 0
M  V30 1031 H 93.7883 -5.43857 -1.81362 0
M  V30 1032 H 92.1853 -5.88741 -1.16207 0
M  V30 1033 H 93.2553 -4.84454 -0.207847 0
M  V30 1034 N 94.5984 0.214957 -1.56127 0
M  V30 1035 C 95.8754 0.963093 -1.70247 0
M  V30 1036 C 96.2554 2.02166 -0.60764 0
M  V30 1037 O 95.6034 2.25244 0.384385 0
M  V30 1038 C 95.8134 1.56756 -3.11815 0
M  V30 1039 C 97.1614 2.0573 -3.7143 0
M  V30 1040 O 98.1854 1.66637 -3.14818 0
M  V30 1041 O 97.0444 2.77603 -4.70743 0
M  V30 1042 H 94.1384 0.450321 -0.693643 0
M  V30 1043 H 96.6844 0.206219 -1.68442 0
M  V30 1044 H 95.4564 0.803533 -3.82961 0
M  V30 1045 H 95.0794 2.3898 -3.17765 0
M  V30 1046 N 96.0765 1.50051 0.48192 0
M  V30 1047 C 97.3225 1.60736 1.2366 0
M  V30 1048 C 97.6555 0.301786 1.91841 0
M  V30 1049 O 96.9305 -0.696025 1.8162 0
M  V30 1050 C 97.2135 2.78009 2.28874 0
M  V30 1051 C 97.0665 4.18416 1.65069 0
M  V30 1052 C 98.3855 2.90867 3.30279 0
M  V30 1053 H 95.5045 0.585031 0.448228 0
M  V30 1054 H 98.1465 1.82402 0.531946 0
M  V30 1055 H 96.2965 2.59667 2.88973 0
M  V30 1056 H 97.9685 4.48322 1.0865 0
M  V30 1057 H 96.2115 4.23177 0.954148 0
M  V30 1058 H 96.8825 4.96381 2.41474 0
M  V30 1059 H 99.3585 3.07623 2.80191 0
M  V30 1060 H 98.2345 3.74566 4.01238 0
M  V30 1061 H 98.4955 2.01021 3.93755 0
M  V30 1062 N 97.5546 -0.734337 1.39446 0
M  V30 1063 C 98.5046 -1.83949 1.34709 0
M  V30 1064 C 99.4886 -1.59279 0.227851 0
M  V30 1065 O 100.681 -1.70771 0.465438 0
M  V30 1066 C 97.8096 -3.21884 1.19356 0
M  V30 1067 C 96.8956 -3.52381 2.35984 0
M  V30 1068 N 97.2866 -3.53811 3.61457 0
M  V30 1069 C 95.5846 -3.82747 2.28956 0
M  V30 1070 C 96.2856 -3.82122 4.38586 0
M  V30 1071 N 95.2616 -3.9993 3.68181 0
M  V30 1072 H 99.0636 -1.83361 2.29687 0
M  V30 1073 H 96.5776 -0.932609 1.32952 0
M  V30 1074 H 98.5746 -4.00998 1.14046 0
M  V30 1075 H 97.2346 -3.23711 0.253295 0
M  V30 1076 H 98.2456 -3.35107 3.94872 0
M  V30 1077 H 94.9226 -3.92175 1.43194 0
M  V30 1078 H 96.3126 -3.89691 5.47349 0
M  V30 1079 N 99.0327 -1.24633 -0.964593 0
M  V30 1080 C 99.9427 -1.05859 -2.09359 0
M  V30 1081 C 100.959 0.00148855 -1.74 0
M  V30 1082 O 102.135 -0.197346 -2.00431 0
M  V30 1083 C 99.1997 -0.668879 -3.40187 0
M  V30 1084 C 98.2607 -1.80578 -3.89474 0
M  V30 1085 C 97.4937 -1.43457 -5.14058 0
M  V30 1086 O 97.7167 -0.325775 -5.69469 0
M  V30 1087 O 96.6507 -2.2613 -5.57807 0
M  V30 1088 H 100.477 -2.00516 -2.28094 0
M  V30 1089 H 98.0617 -1.03481 -1.0776 0
M  V30 1090 H 99.9437 -0.463211 -4.18846 0
M  V30 1091 H 98.6187 0.248536 -3.22744 0
M  V30 1092 H 97.5257 -2.06623 -3.11862 0
M  V30 1093 H 98.8587 -2.70208 -4.11398 0
M  V30 1094 N 100.511 1.16574 -1.06058 0
M  V30 1095 C 101.458 2.20883 -0.669263 0
M  V30 1096 C 102.428 1.62729 0.332918 0
M  V30 1097 O 103.613 1.895 0.222346 0
M  V30 1098 C 100.753 3.45049 -0.0593572 0
M  V30 1099 C 99.8658 4.17458 -1.11143 0
M  V30 1100 C 99.0008 5.29135 -0.467916 0
M  V30 1101 C 98.0398 5.93343 -1.50369 0
M  V30 1102 N 97.1768 6.96516 -0.883706 0
M  V30 1103 H 102.017 2.53709 -1.5632 0
M  V30 1104 H 99.5538 1.24616 -0.781625 0
M  V30 1105 H 101.512 4.16033 0.311771 0
M  V30 1106 H 100.142 3.12781 0.797992 0
M  V30 1107 H 99.1938 3.45101 -1.60029 0
M  V30 1108 H 100.506 4.61307 -1.89731 0
M  V30 1109 H 99.6598 6.06684 -0.0436871 0
M  V30 1110 H 98.3988 4.86443 0.349864 0
M  V30 1111 H 97.4038 5.14517 -1.93784 0
M  V30 1112 H 98.6288 6.38114 -2.32352 0
M  V30 1113 H 96.5748 6.55943 -0.086595 0
M  V30 1114 H 96.4918 7.38723 -1.607 0
M  V30 1115 H 97.7598 7.77993 -0.484543 0
M  V30 1116 N 101.989 0.842826 1.3317 0
M  V30 1117 C 102.937 0.267495 2.31057 0
M  V30 1118 C 103.931 -0.602682 1.58316 0
M  V30 1119 O 105.137 -0.491803 1.73151 0
M  V30 1120 H 101.512 0.0677813 0.748939 0
M  V30 1121 H 103.483 1.10754 2.77085 0
M  V30 1122 C 102.232 -0.539331 3.43492 0
M  V30 1123 H 101.555 0.12095 3.99617 0
M  V30 1124 H 102.995 -0.90767 4.14171 0
M  V30 1125 C 101.454 -1.71981 2.89697 0
M  V30 1126 O 101.984 -2.81862 2.86211 0
M  V30 1127 N 100.19 -1.54299 2.46252 0
M  V30 1128 H 99.7369 -0.649143 2.49287 0
M  V30 1129 H 99.6949 -2.33431 2.10612 0
M  V30 1130 N 103.467 -1.45747 0.599634 0
M  V30 1131 C 104.399 -2.28628 -0.161879 0
M  V30 1132 C 105.412 -1.39494 -0.839367 0
M  V30 1133 O 106.601 -1.63941 -0.706089 0
M  V30 1134 C 103.701 -3.15014 -1.24976 0
M  V30 1135 C 102.874 -4.32378 -0.660935 0
M  V30 1136 C 101.933 -5.00033 -1.63869 0
M  V30 1137 O 100.959 -5.57085 -1.1681 0
M  V30 1138 N 102.161 -4.98589 -2.97303 0
M  V30 1139 H 104.926 -2.94624 0.549265 0
M  V30 1140 H 102.487 -1.55847 0.438565 0
M  V30 1141 H 104.479 -3.5714 -1.9035 0
M  V30 1142 H 103.049 -2.5098 -1.86354 0
M  V30 1143 H 102.269 -3.9383 0.170688 0
M  V30 1144 H 103.557 -5.08197 -0.247619 0
M  V30 1145 H 102.955 -4.53514 -3.38145 0
M  V30 1146 H 101.512 -5.44603 -3.58121 0
M  V30 1147 N 104.945 -0.338344 -1.53925 0
M  V30 1148 C 106.194 0.260732 -2.00008 0
M  V30 1149 C 106.507 1.52073 -1.23017 0
M  V30 1150 O 107.713 2.19672 -1.5955 0
M  V30 1151 C 106.169 0.51515 -3.56194 0
M  V30 1152 C 105.777 -0.728645 -4.42035 0
M  V30 1153 C 107.521 1.07337 -4.10706 0
M  V30 1154 C 105.428 -0.445315 -5.89721 0
M  V30 1155 H 104.358 0.101205 -0.747177 0
M  V30 1156 H 107.009 -0.452866 -1.77824 0
M  V30 1157 H 105.391 1.28932 -3.74423 0
M  V30 1158 H 106.565 -1.50352 -4.35581 0
M  V30 1159 H 104.88 -1.20813 -3.98489 0
M  V30 1160 H 107.477 1.30022 -5.18651 0
M  V30 1161 H 107.82 2.0273 -3.63602 0
M  V30 1162 H 108.353 0.360034 -3.96167 0
M  V30 1163 H 105.092 -1.36883 -6.41049 0
M  V30 1164 H 104.612 0.291569 -5.99091 0
M  V30 1165 H 106.291 -0.0606218 -6.46972 0
M  V30 1166 N 106.423 1.57458 -0.0668435 0
M  V30 1167 C 107.356 2.08033 0.93795 0
M  V30 1168 C 108.334 0.984321 1.29421 0
M  V30 1169 O 109.518 1.25736 1.40437 0
M  V30 1170 C 106.645 2.53388 2.24749 0
M  V30 1171 C 105.691 3.74376 2.04315 0
M  V30 1172 S 106.524 5.19303 1.30706 0
M  V30 1173 C 107.68 5.67986 2.62951 0
M  V30 1174 H 107.913 2.92935 0.50759 0
M  V30 1175 H 105.446 1.5371 0.145804 0
M  V30 1176 H 107.404 2.8018 3.00016 0
M  V30 1177 H 106.065 1.68763 2.64911 0
M  V30 1178 H 105.258 4.04083 3.01218 0
M  V30 1179 H 104.86 3.47931 1.37186 0
M  V30 1180 H 107.152 5.74528 3.5906 0
M  V30 1181 H 108.095 6.66955 2.3786 0
M  V30 1182 H 108.503 4.95781 2.69929 0
M  V30 1183 N 107.901 -0.206675 1.56239 0
M  V30 1184 C 109.129 -0.945345 1.8404 0
M  V30 1185 C 109.544 -1.77336 0.647885 0
M  V30 1186 O 108.901 -1.78425 -0.383511 0
M  V30 1187 C 108.952 -1.8509 3.10522 0
M  V30 1188 O 108.673 -1.05634 4.25174 0
M  V30 1189 C 110.174 -2.70222 3.51418 0
M  V30 1190 H 107.394 -0.276372 0.61144 0
M  V30 1191 H 109.938 -0.217417 2.03341 0
M  V30 1192 H 108.093 -2.53259 2.93153 0
M  V30 1193 H 108.507 -1.67238 4.97124 0
M  V30 1194 H 109.981 -3.29438 4.42916 0
M  V30 1195 H 110.458 -3.43358 2.73864 0
M  V30 1196 H 111.064 -2.07443 3.71278 0
M  V30 1197 N 109.379 -1.50304 -0.473955 0
M  V30 1198 C 110.607 -1.64902 -1.24959 0
M  V30 1199 C 111.022 -0.331198 -1.85872 0
M  V30 1200 O 110.379 0.68652 -1.69095 0
M  V30 1201 C 110.43 -2.73803 -2.36038 0
M  V30 1202 O 110.151 -4.00477 -1.77624 0
M  V30 1203 C 111.652 -2.99349 -3.26964 0
M  V30 1204 H 108.872 -0.554383 -0.378022 0
M  V30 1205 H 111.416 -1.9651 -0.566054 0
M  V30 1206 H 109.571 -2.44898 -3.00173 0
M  V30 1207 H 109.985 -4.60678 -2.5075 0
M  V30 1208 H 111.459 -3.79217 -4.01121 0
M  V30 1209 H 111.936 -2.10307 -3.85574 0
M  V30 1210 H 112.542 -3.29774 -2.68569 0
M  V30 1211 N 110.857 0.726932 -1.39834 0
M  V30 1212 C 111.805 1.86235 -1.39353 0
M  V30 1213 C 112.799 1.67144 -0.275555 0
M  V30 1214 O 114.005 1.74387 -0.44601 0
M  V30 1215 H 110.38 0.613174 -0.43534 0
M  V30 1216 H 112.351 1.83756 -2.35109 0
M  V30 1217 C 111.1 3.23995 -1.26185 0
M  V30 1218 H 110.423 3.39285 -2.11484 0
M  V30 1219 H 111.863 4.03609 -1.29907 0
M  V30 1220 C 110.322 3.36888 0.0290018 0
M  V30 1221 O 110.852 3.89152 0.99619 0
M  V30 1222 N 109.058 2.90446 0.0947437 0
M  V30 1223 H 108.605 2.48102 -0.693035 0
M  V30 1224 H 108.563 2.99451 0.957932 0
M  V30 1225 N 112.336 1.25143 0.95797 0
M  V30 1226 C 113.582 1.09855 1.70469 0
M  V30 1227 C 113.915 -0.360187 1.90831 0
M  V30 1228 O 113.19 -1.26568 1.47685 0
M  V30 1229 C 113.473 1.8497 3.08963 0
M  V30 1230 C 113.326 3.38652 2.96032 0
M  V30 1231 C 114.645 1.63016 4.08795 0
M  V30 1232 H 111.764 0.400465 0.618706 0
M  V30 1233 H 114.406 1.53933 1.11376 0
M  V30 1234 H 112.556 1.47505 3.59409 0
M  V30 1235 H 114.228 3.85772 2.52938 0
M  V30 1236 H 112.471 3.66534 2.32025 0
M  V30 1237 H 113.142 3.8642 3.94187 0
M  V30 1238 H 115.618 1.95625 3.67247 0
M  V30 1239 H 114.494 2.18015 5.03747 0
M  V30 1240 H 114.755 0.570692 4.38401 0
M  V30 1241 N 113.814 -1.1601 1.06675 0
M  V30 1242 C 115.06 -1.87145 0.796766 0
M  V30 1243 C 115.415 -1.8037 -0.669658 0
M  V30 1244 O 114.708 -1.21116 -1.48463 0
M  V30 1245 C 114.902 -3.35547 1.23057 0
M  V30 1246 C 114.731 -3.56769 2.73762 0
M  V30 1247 C 113.501 -3.72635 3.41279 0
M  V30 1248 C 115.699 -3.55166 3.7197 0
M  V30 1249 N 113.681 -3.81845 4.80695 0
M  V30 1250 C 115.052 -3.70406 4.97191 0
M  V30 1251 C 117.107 -3.384 3.65226 0
M  V30 1252 C 115.81 -3.70615 6.16471 0
M  V30 1253 C 117.836 -3.39904 4.83962 0
M  V30 1254 C 117.198 -3.55667 6.08013 0
M  V30 1255 H 113.297 -0.702267 0.344014 0
M  V30 1256 H 115.881 -1.39165 1.36166 0
M  V30 1257 H 114.052 -3.82159 0.693456 0
M  V30 1258 H 115.784 -3.94363 0.908844 0
M  V30 1259 H 112.539 -3.73121 2.91681 0
M  V30 1260 H 112.963 -3.90209 5.53232 0
M  V30 1261 H 117.605 -3.25138 2.70269 0
M  V30 1262 H 115.323 -3.82658 7.11757 0
M  V30 1263 H 118.909 -3.28169 4.80413 0
M  V30 1264 H 117.789 -3.56755 6.98352 0
M  V30 1265 N 115.292 -0.849877 -1.32721 0
M  V30 1266 C 116.222 -0.306308 -2.31482 0
M  V30 1267 C 117.203 0.591952 -1.59468 0
M  V30 1268 O 118.388 0.513199 -1.87296 0
M  V30 1269 C 115.518 0.510204 -3.43532 0
M  V30 1270 C 114.472 -0.293209 -4.26994 0
M  V30 1271 C 113.798 0.647743 -5.30762 0
M  V30 1272 C 115.098 -1.51634 -4.99804 0
M  V30 1273 H 116.792 -1.13153 -2.77195 0
M  V30 1274 H 114.338 -0.545553 -1.33266 0
M  V30 1275 H 116.291 0.900856 -4.11658 0
M  V30 1276 H 115.015 1.36874 -2.96535 0
M  V30 1277 H 113.674 -0.665555 -3.60508 0
M  V30 1278 H 113.322 1.50299 -4.8002 0
M  V30 1279 H 113.022 0.11422 -5.87489 0
M  V30 1280 H 114.546 1.03567 -6.01753 0
M  V30 1281 H 115.96 -1.19824 -5.60638 0
M  V30 1282 H 114.357 -1.98745 -5.66234 0
M  V30 1283 H 115.427 -2.28018 -4.27943 0
M  V30 1284 N 116.77 1.45427 -0.607355 0
M  V30 1285 C 117.702 2.2871 0.149752 0
M  V30 1286 C 118.715 1.39937 0.831958 0
M  V30 1287 O 119.904 1.64313 0.697385 0
M  V30 1288 C 117.004 3.15673 1.23304 0
M  V30 1289 C 116.177 4.32722 0.637996 0
M  V30 1290 C 115.236 5.00895 1.61215 0
M  V30 1291 O 114.262 5.57697 1.13854 0
M  V30 1292 N 115.464 5.00159 2.94655 0
M  V30 1293 H 118.229 2.94328 -0.564882 0
M  V30 1294 H 115.79 1.55612 -0.446823 0
M  V30 1295 H 117.782 3.58144 1.88454 0
M  V30 1296 H 116.352 2.51965 1.8502 0
M  V30 1297 H 115.572 3.93734 -0.191572 0
M  V30 1298 H 116.86 5.08321 0.220665 0
M  V30 1299 H 116.258 4.553 3.35735 0
M  V30 1300 H 114.815 5.46495 3.55228 0
M  V30 1301 N 118.248 0.346503 1.53744 0
M  V30 1302 C 119.198 -0.524953 2.21874 0
M  V30 1303 C 120.182 -1.06376 1.20718 0
M  V30 1304 O 121.374 -0.996972 1.46251 0
M  V30 1305 C 118.503 -1.6739 2.99726 0
M  V30 1306 C 117.589 -1.14888 4.08242 0
M  V30 1307 N 117.98 -0.345329 5.0462 0
M  V30 1308 C 116.278 -1.4255 4.22606 0
M  V30 1309 C 116.979 -0.0600706 5.81669 0
M  V30 1310 N 115.955 -0.65252 5.39669 0
M  V30 1311 H 119.757 0.0960091 2.93743 0
M  V30 1312 H 117.271 0.15352 1.61673 0
M  V30 1313 H 119.268 -2.3102 3.47038 0
M  V30 1314 H 117.928 -2.29811 2.29384 0
M  V30 1315 H 118.939 0.0138439 5.17898 0
M  V30 1316 H 115.616 -2.05389 3.63486 0
M  V30 1317 H 117.006 0.588321 6.69319 0
M  V30 1318 N 119.726 -1.57421 0.075193 0
M  V30 1319 C 120.951 -1.98364 -0.605515 0
M  V30 1320 C 121.376 -0.953383 -1.62149 0
M  V30 1321 O 120.734 0.0806053 -1.81121 0
M  V30 1322 C 120.782 -3.38332 -1.24756 0
M  V30 1323 O 119.886 -3.37959 -2.36342 0
M  V30 1324 H 119.227 -0.645553 -0.155428 0
M  V30 1325 H 121.757 -2.04044 0.150714 0
M  V30 1326 H 121.767 -3.75591 -1.5936 0
M  V30 1327 H 120.442 -4.12846 -0.503129 0
M  V30 1328 H 119.019 -3.12474 -2.03506 0
M  V30 1329 N 121.204 0.198386 -1.56346 0
M  V30 1330 C 122.45 0.916115 -1.81601 0
M  V30 1331 C 122.805 1.81025 -0.651744 0
M  V30 1332 O 122.098 1.88316 0.353229 0
M  V30 1333 C 122.292 1.77031 -3.10475 0
M  V30 1334 C 122.121 0.960365 -4.39326 0
M  V30 1335 C 120.891 0.646093 -5.01152 0
M  V30 1336 C 123.089 0.314628 -5.13337 0
M  V30 1337 N 121.071 -0.182828 -6.13628 0
M  V30 1338 C 122.442 -0.37664 -6.18855 0
M  V30 1339 C 124.497 0.230019 -4.97368 0
M  V30 1340 C 123.2 -1.14445 -7.10137 0
M  V30 1341 C 125.226 -0.524389 -5.89071 0
M  V30 1342 C 124.588 -1.20412 -6.94032 0
M  V30 1343 H 120.687 0.314732 -0.715868 0
M  V30 1344 H 123.271 0.185102 -1.93818 0
M  V30 1345 H 121.442 2.47295 -2.99499 0
M  V30 1346 H 123.174 2.42727 -3.2383 0
M  V30 1347 H 119.929 0.969724 -4.63566 0
M  V30 1348 H 120.353 -0.586802 -6.74452 0
M  V30 1349 H 124.995 0.741184 -4.16253 0
M  V30 1350 H 122.713 -1.66706 -7.90718 0
M  V30 1351 H 126.299 -0.591167 -5.78789 0
M  V30 1352 H 125.179 -1.77853 -7.63766 0
M  V30 1353 N 122.682 1.50554 0.465978 0
M  V30 1354 C 123.615 1.64436 1.58227 0
M  V30 1355 C 124.593 0.492367 1.54966 0
M  V30 1356 O 125.777 0.712536 1.74514 0
M  V30 1357 C 122.904 1.63165 2.96808 0
M  V30 1358 C 121.95 2.83987 3.18204 0
M  V30 1359 S 122.783 4.45219 2.97557 0
M  V30 1360 C 123.939 4.46649 4.3847 0
M  V30 1361 H 124.172 2.58861 1.46213 0
M  V30 1362 H 121.705 1.3988 0.653678 0
M  V30 1363 H 123.663 1.63116 3.76701 0
M  V30 1364 H 122.324 0.69967 3.06208 0
M  V30 1365 H 121.517 2.79416 4.19455 0
M  V30 1366 H 121.119 2.81629 2.46092 0
M  V30 1367 H 123.411 4.20526 5.31191 0
M  V30 1368 H 124.354 5.48295 4.48082 0
M  V30 1369 H 124.762 3.76296 4.20787 0
M  V30 1370 N 124.16 -0.719506 1.40217 0
M  V30 1371 C 125.437 -1.47221 1.28784 0
M  V30 1372 C 125.817 -2.10883 -0.0956067 0
M  V30 1373 O 125.165 -1.99833 -1.10811 0
M  V30 1374 C 125.375 -2.5111 2.42373 0
M  V30 1375 C 126.723 -3.17053 2.82423 0
M  V30 1376 O 127.747 -2.61429 2.41937 0
M  V30 1377 O 126.606 -4.17742 3.52355 0
M  V30 1378 H 123.7 -0.654491 0.50554 0
M  V30 1379 H 126.246 -0.752014 1.52128 0
M  V30 1380 H 125.018 -2.02556 3.34793 0
M  V30 1381 H 124.641 -3.3067 2.20778 0
M  V30 1382 N 125.638 -1.25649 -0.95132 0
M  V30 1383 C 126.868 -1.13179 -1.72841 0
M  V30 1384 C 127.276 0.316827 -1.86528 0
M  V30 1385 O 126.619 1.22948 -1.3649 0
M  V30 1386 C 126.681 -1.71644 -3.15878 0
M  V30 1387 C 126.345 -3.20667 -3.25609 0
M  V30 1388 C 127.342 -4.17616 -3.09666 0
M  V30 1389 C 125.027 -3.6094 -3.49324 0
M  V30 1390 C 127.021 -5.52817 -3.17289 0
M  V30 1391 C 124.708 -4.96278 -3.56584 0
M  V30 1392 C 125.706 -5.92025 -3.40581 0
M  V30 1393 O 125.394 -7.24899 -3.47528 0
M  V30 1394 H 125.126 -0.395389 -0.54831 0
M  V30 1395 H 127.68 -1.66566 -1.20187 0
M  V30 1396 H 125.91 -1.12707 -3.69911 0
M  V30 1397 H 127.599 -1.54225 -3.75459 0
M  V30 1398 H 128.365 -3.87842 -2.91211 0
M  V30 1399 H 124.244 -2.86907 -3.6084 0
M  V30 1400 H 127.788 -6.2753 -3.04716 0
M  V30 1401 H 123.685 -5.25716 -3.74556 0
M  V30 1402 H 124.453 -7.33039 -3.64138 0
M  V30 1403 N 127.117 1.15442 -1.07289 0
M  V30 1404 C 128.064 2.20161 -0.692653 0
M  V30 1405 C 129.034 1.63073 0.31564 0
M  V30 1406 O 130.219 1.89725 0.202235 0
M  V30 1407 C 127.359 3.44967 -0.0959509 0
M  V30 1408 C 126.472 4.16256 -1.15564 0
M  V30 1409 C 125.607 5.28609 -0.524011 0
M  V30 1410 C 124.646 5.91715 -1.56653 0
M  V30 1411 N 123.783 6.9554 -0.957531 0
M  V30 1412 H 128.623 2.52037 -1.59002 0
M  V30 1413 H 126.16 1.2378 -0.794798 0
M  V30 1414 H 128.118 4.16341 0.267628 0
M  V30 1415 H 126.748 3.1361 0.764772 0
M  V30 1416 H 125.8 3.43385 -1.6368 0
M  V30 1417 H 127.112 4.59268 -1.94613 0
M  V30 1418 H 126.266 6.06604 -0.108032 0
M  V30 1419 H 125.005 4.86787 0.29825 0
M  V30 1420 H 124.01 5.12433 -1.9923 0
M  V30 1421 H 125.235 6.35614 -2.39107 0
M  V30 1422 H 123.181 6.55814 -0.156162 0
M  V30 1423 H 123.098 7.36977 -1.68526 0
M  V30 1424 H 124.366 7.77435 -0.567032 0
M  V30 1425 N 128.595 0.856903 1.32268 0
M  V30 1426 C 129.525 0.31858 2.31316 0
M  V30 1427 C 130.506 -0.583487 1.59779 0
M  V30 1428 O 131.691 -0.503259 1.87566 0
M  V30 1429 C 128.821 -0.491979 3.43798 0
M  V30 1430 C 127.775 0.315849 4.26833 0
M  V30 1431 C 127.101 -0.619586 5.31098 0
M  V30 1432 C 128.401 1.54282 4.98993 0
M  V30 1433 H 130.095 1.14621 2.76591 0
M  V30 1434 H 127.641 0.552613 1.32974 0
M  V30 1435 H 129.594 -0.879012 4.1213 0
M  V30 1436 H 128.318 -1.35299 2.97257 0
M  V30 1437 H 126.977 0.684664 3.6015 0
M  V30 1438 H 126.625 -1.47751 4.8081 0
M  V30 1439 H 126.325 -0.0830621 5.87541 0
M  V30 1440 H 127.849 -1.00375 6.02293 0
M  V30 1441 H 129.263 1.22796 5.59995 0
M  V30 1442 H 127.66 2.01745 5.65172 0
M  V30 1443 H 128.73 2.30285 4.26728 0
M  V30 1444 N 130.073 -1.45103 0.615059 0
M  V30 1445 C 131.489 -1.57137 0.279322 0
M  V30 1446 C 131.689 -1.60523 -1.21797 0
M  V30 1447 O 130.745 -1.53956 -2.00134 0
M  V30 1448 C 132.058 -2.85062 0.957083 0
M  V30 1449 C 133.606 -2.98749 0.933706 0
M  V30 1450 C 134.081 -4.29455 1.59162 0
M  V30 1451 N 135.572 -4.36231 1.55746 0
M  V30 1452 C 136.307 -5.36051 2.0356 0
M  V30 1453 N 135.803 -6.42367 2.59494 0
M  V30 1454 N 137.596 -5.27456 1.94284 0
M  V30 1455 H 129.747 -1.41148 1.58717 0
M  V30 1456 H 132.01 -0.675331 0.665306 0
M  V30 1457 H 131.716 -2.88488 2.01166 0
M  V30 1458 H 131.59 -3.7407 0.48494 0
M  V30 1459 H 133.977 -2.94886 -0.112347 0
M  V30 1460 H 134.058 -2.11132 1.44419 0
M  V30 1461 H 133.702 -4.34077 2.63704 0
M  V30 1462 H 133.632 -5.15901 1.0561 0
M  V30 1463 H 136.123 -3.60011 1.14893 0
M  V30 1464 H 136.436 -7.14793 2.93752 0
M  V30 1465 H 134.781 -6.43097 2.63537 0
M  V30 1466 H 137.972 -4.43308 1.5032 0
M  V30 1467 H 138.145 -6.05099 2.3186 0
M  V30 1468 N 131.551 -0.354651 -1.53558 0
M  V30 1469 C 132.797 0.231422 -2.02079 0
M  V30 1470 C 133.152 1.47308 -1.23767 0
M  V30 1471 O 132.445 1.8891 -0.319947 0
M  V30 1472 C 132.639 0.587121 -3.52545 0
M  V30 1473 C 132.468 -0.618513 -4.45426 0
M  V30 1474 C 131.238 -1.12724 -4.92566 0
M  V30 1475 C 133.436 -1.48039 -4.92533 0
M  V30 1476 N 131.418 -2.29404 -5.69427 0
M  V30 1477 C 132.789 -2.49397 -5.67628 0
M  V30 1478 C 134.844 -1.50454 -4.74624 0
M  V30 1479 C 133.547 -3.53013 -6.26717 0
M  V30 1480 C 135.573 -2.52958 -5.34571 0
M  V30 1481 C 134.935 -3.5304 -6.09543 0
M  V30 1482 H 131.034 0.0476909 -0.780544 0
M  V30 1483 H 133.618 -0.496727 -1.88257 0
M  V30 1484 H 131.789 1.28436 -3.6655 0
M  V30 1485 H 133.521 1.15734 -3.87799 0
M  V30 1486 H 130.276 -0.693577 -4.68494 0
M  V30 1487 H 130.7 -2.88347 -6.12524 0
M  V30 1488 H 135.342 -0.744356 -4.16196 0
M  V30 1489 H 133.06 -4.2992 -6.84247 0
M  V30 1490 H 136.646 -2.55667 -5.22614 0
M  V30 1491 H 135.526 -4.31056 -6.55103 0
M  V30 1492 N 133.029 1.57378 -0.0835403 0
M  V30 1493 C 134.306 1.85363 0.624507 0
M  V30 1494 C 134.686 0.978239 1.87066 0
M  V30 1495 O 134.034 0.0475908 2.2845 0
M  V30 1496 C 134.244 3.35795 0.950947 0
M  V30 1497 C 135.592 4.03581 1.31939 0
M  V30 1498 O 136.616 3.40609 1.04232 0
M  V30 1499 O 135.475 5.14672 1.83779 0
M  V30 1500 H 132.569 0.766162 0.311329 0
M  V30 1501 H 135.115 1.69307 -0.115362 0
M  V30 1502 H 133.887 3.91244 0.0663899 0
M  V30 1503 H 133.51 3.57154 1.74719 0
M  V30 1504 N 134.507 -0.190092 1.56449 0
M  V30 1505 C 135.918 -0.754312 1.70784 0
M  V30 1506 C 136.269 -1.83631 0.690951 0
M  V30 1507 O 135.394 -2.15868 -0.151604 0
M  V30 1508 C 135.989 -1.37503 3.09642 0
M  V30 1509 C 134.548 -1.88628 3.25725 0
M  V30 1510 C 133.695 -0.758098 2.66736 0
M  V30 1511 H 136.646 0.0350524 1.58661 0
M  V30 1512 H 136.667 -2.2445 3.0725 0
M  V30 1513 H 136.179 -0.587302 3.83631 0
M  V30 1514 H 134.28 -2.70103 2.56661 0
M  V30 1515 H 134.393 -2.04462 4.3328 0
M  V30 1516 H 132.757 -1.17369 2.26046 0
M  V30 1517 H 133.54 0.0174705 3.43296 0
M  V30 1518 N 135.985 -1.50799 -0.457987 0
M  V30 1519 C 137.231 -1.62683 -1.21088 0
M  V30 1520 C 137.564 -0.332268 -1.91336 0
M  V30 1521 O 136.839 0.667043 -1.82704 0
M  V30 1522 C 137.122 -2.81615 -2.24422 0
M  V30 1523 C 136.975 -4.20989 -1.58392 0
M  V30 1524 C 138.294 -2.96085 -3.2561 0
M  V30 1525 H 135.413 -0.592087 -0.438864 0
M  V30 1526 H 138.055 -1.83225 -0.50286 0
M  V30 1527 H 136.205 -2.64231 -2.84806 0
M  V30 1528 H 137.877 -4.49994 -1.01504 0
M  V30 1529 H 136.12 -4.24641 -0.886704 0
M  V30 1530 H 136.791 -5.0016 -2.33547 0
M  V30 1531 H 139.267 -3.12042 -2.75262 0
M  V30 1532 H 138.143 -3.80902 -3.95228 0
M  V30 1533 H 138.404 -2.0726 -3.90507 0
M  V30 1534 N 137.463 0.71206 -1.40597 0
M  V30 1535 C 138.373 1.8562 -1.43466 0
M  V30 1536 C 139.389 1.70902 -0.326902 0
M  V30 1537 O 140.565 1.93105 -0.572043 0
M  V30 1538 C 137.63 3.21451 -1.29884 0
M  V30 1539 C 136.691 3.48398 -2.50833 0
M  V30 1540 C 135.924 4.77749 -2.3789 0
M  V30 1541 O 136.147 5.53089 -1.39459 0
M  V30 1542 O 135.081 5.05111 -3.27333 0
M  V30 1543 H 138.907 1.86155 -2.39958 0
M  V30 1544 H 136.492 0.86295 -1.21957 0
M  V30 1545 H 138.374 4.02579 -1.24531 0
M  V30 1546 H 137.049 3.21636 -0.364997 0
M  V30 1547 H 135.956 2.67265 -2.61763 0
M  V30 1548 H 137.289 3.53014 -3.4299 0
M  V30 1549 N 138.941 1.26152 0.944643 0
M  V30 1550 C 140.171 1.14094 1.72239 0
M  V30 1551 C 140.579 -0.306931 1.86694 0
M  V30 1552 O 139.922 -1.22222 1.3714 0
M  V30 1553 C 139.984 1.73316 3.14963 0
M  V30 1554 C 139.648 3.2239 3.23904 0
M  V30 1555 C 140.645 4.19252 3.07447 0
M  V30 1556 C 138.33 3.62788 3.47405 0
M  V30 1557 C 140.324 5.54491 3.14353 0
M  V30 1558 C 138.011 4.98162 3.53947 0
M  V30 1559 C 139.009 5.93823 3.37436 0
M  V30 1560 O 138.697 7.26732 3.43679 0
M  V30 1561 H 138.429 0.398292 0.546205 0
M  V30 1562 H 140.983 1.67201 1.19301 0
M  V30 1563 H 139.213 1.14667 3.69308 0
M  V30 1564 H 140.902 1.56214 3.74636 0
M  V30 1565 H 141.668 3.8938 2.8915 0
M  V30 1566 H 137.547 2.88816 3.59313 0
M  V30 1567 H 141.091 6.29137 3.01384 0
M  V30 1568 H 136.988 5.27695 3.71763 0
M  V30 1569 H 137.756 7.3496 3.60245 0
M  V30 1570 N 140.419 -1.14872 1.07899 0
M  V30 1571 C 141.667 -1.85422 0.803941 0
M  V30 1572 C 141.988 -1.83051 -0.67211 0
M  V30 1573 O 141.258 -1.27532 -1.48703 0
M  V30 1574 H 139.838 -0.686537 0.294408 0
M  V30 1575 H 142.5 -1.39226 1.3639 0
M  V30 1576 H 141.596 -2.90399 1.14346 0
M  V30 1577 N 141.898 -0.863906 -1.31812 0
M  V30 1578 C 143.146 -0.470904 -1.96537 0
M  V30 1579 C 143.467 0.978771 -1.68657 0
M  V30 1580 O 142.737 1.6853 -0.998717 0
M  V30 1581 H 141.317 -0.171148 -0.72713 0
M  V30 1582 H 143.979 -1.10236 -1.60729 0
M  V30 1583 H 143.075 -0.623616 -3.05806 0
M  V30 1584 N 143.376 1.44774 -0.622745 0
M  V30 1585 C 144.622 2.0242 -0.124083 0
M  V30 1586 C 144.955 1.4881 1.24777 0
M  V30 1587 O 144.23 0.668799 1.8264 0
M  V30 1588 C 144.513 3.59957 -0.101619 0
M  V30 1589 C 144.366 4.23867 -1.50521 0
M  V30 1590 C 145.685 4.36284 0.578272 0
M  V30 1591 H 142.804 0.735528 -0.0465645 0
M  V30 1592 H 145.446 1.72447 -0.797617 0
M  V30 1593 H 143.596 3.85623 0.471934 0
M  V30 1594 H 145.268 4.09336 -2.12701 0
M  V30 1595 H 143.511 3.81684 -2.06154 0
M  V30 1596 H 144.182 5.32843 -1.4416 0
M  V30 1597 H 146.658 4.16001 0.0906057 0
M  V30 1598 H 145.534 5.46004 0.563149 0
M  V30 1599 H 145.795 4.10271 1.64713 0
M  V30 1600 N 144.854 0.36279 1.53368 0
M  V30 1601 C 145.764 -0.492994 2.29362 0
M  V30 1602 C 146.78 -1.09507 1.35219 0
M  V30 1603 O 147.956 -1.10662 1.68273 0
M  V30 1604 C 145.021 -1.61855 3.066 0
M  V30 1605 C 144.082 -1.04429 4.16405 0
M  V30 1606 C 143.315 -2.11621 4.89951 0
M  V30 1607 O 143.538 -3.32684 4.63333 0
M  V30 1608 O 142.472 -1.74835 5.75948 0
M  V30 1609 H 146.298 0.125331 3.03441 0
M  V30 1610 H 143.883 0.127253 1.48857 0
M  V30 1611 H 145.765 -2.27302 3.54841 0
M  V30 1612 H 144.44 -2.22233 2.3536 0
M  V30 1613 H 143.347 -0.353819 3.72423 0
M  V30 1614 H 144.68 -0.485113 4.89804 0
M  V30 1615 N 146.332 -1.57332 0.0918853 0
M  V30 1616 C 147.578 -1.94524 -0.573425 0
M  V30 1617 C 147.911 -0.973578 -1.68033 0
M  V30 1618 O 147.186 -0.00609226 -1.94499 0
M  V30 1619 C 147.469 -3.41858 -1.13161 0
M  V30 1620 C 147.322 -4.4979 -0.0299747 0
M  V30 1621 C 148.641 -3.90435 -2.03098 0
M  V30 1622 H 145.76 -0.70734 -0.206975 0
M  V30 1623 H 148.402 -1.89309 0.161942 0
M  V30 1624 H 146.552 -3.46433 -1.7583 0
M  V30 1625 H 148.224 -4.57327 0.604112 0
M  V30 1626 H 146.467 -4.291 0.636833 0
M  V30 1627 H 147.138 -5.50069 -0.461287 0
M  V30 1628 H 149.614 -3.87992 -1.50338 0
M  V30 1629 H 148.49 -4.94097 -2.39081 0
M  V30 1630 H 148.751 -3.29541 -2.94712 0
M  V30 1631 N 147.81 0.181792 -1.56548 0
M  V30 1632 C 148.74 1.22765 -1.98623 0
M  V30 1633 C 149.721 1.46747 -0.860189 0
M  V30 1634 O 150.906 1.58259 -1.12551 0
M  V30 1635 C 148.036 2.56894 -2.33715 0
M  V30 1636 C 146.99 2.475 -3.49182 0
M  V30 1637 C 146.316 3.86023 -3.69986 0
M  V30 1638 C 147.616 1.98866 -4.82959 0
M  V30 1639 H 149.31 0.877942 -2.86239 0
M  V30 1640 H 146.856 0.42088 -1.37712 0
M  V30 1641 H 148.809 3.30253 -2.61746 0
M  V30 1642 H 147.533 2.93632 -1.42997 0
M  V30 1643 H 146.192 1.76596 -3.21262 0
M  V30 1644 H 145.84 4.20136 -2.76576 0
M  V30 1645 H 145.54 3.80609 -4.47672 0
M  V30 1646 H 147.064 4.60984 -4.00407 0
M  V30 1647 H 148.478 2.61992 -5.09934 0
M  V30 1648 H 146.875 2.04424 -5.64208 0
M  V30 1649 H 147.945 0.942465 -4.75653 0
M  V30 1650 N 149.288 1.51039 0.449983 0
M  V30 1651 C 150.518 1.66627 1.22143 0
M  V30 1652 C 150.926 0.357776 1.85786 0
M  V30 1653 O 150.269 -0.672424 1.70951 0
M  V30 1654 C 150.331 2.71562 2.35573 0
M  V30 1655 C 149.995 4.14526 1.92399 0
M  V30 1656 C 150.992 4.99717 1.43453 0
M  V30 1657 C 148.677 4.60559 2.00475 0
M  V30 1658 C 150.671 6.28998 1.03155 0
M  V30 1659 C 148.358 5.8984 1.59788 0
M  V30 1660 C 149.356 6.73886 1.11208 0
M  V30 1661 O 149.044 8.0075 0.710935 0
M  V30 1662 H 148.776 0.562635 0.374724 0
M  V30 1663 H 151.33 1.98146 0.541036 0
M  V30 1664 H 149.56 2.3533 3.06849 0
M  V30 1665 H 151.249 2.76156 2.97478 0
M  V30 1666 H 152.015 4.65361 1.36618 0
M  V30 1667 H 147.894 3.95273 2.37235 0
M  V30 1668 H 151.438 6.9455 0.651663 0
M  V30 1669 H 147.335 6.23713 1.66289 0
M  V30 1670 H 148.103 8.142 0.837913 0
M  V30 1671 N 150.766 -0.704594 1.40972 0
M  V30 1672 C 152.012 -1.46675 1.40051 0
M  V30 1673 C 152.345 -1.94199 0.00641102 0
M  V30 1674 O 151.62 -1.68916 -0.964235 0
M  V30 1675 C 151.903 -2.68505 2.39952 0
M  V30 1676 C 151.756 -2.26805 3.88432 0
M  V30 1677 C 153.075 -3.70686 2.37233 0
M  V30 1678 H 150.194 -0.532015 0.510028 0
M  V30 1679 H 152.836 -0.803255 1.72185 0
M  V30 1680 H 150.986 -3.25114 2.1268 0
M  V30 1681 H 152.658 -1.75592 4.26574 0
M  V30 1682 H 150.901 -1.58685 4.03734 0
M  V30 1683 H 151.572 -3.14181 4.53866 0
M  V30 1684 H 154.048 -3.23731 2.61415 0
M  V30 1685 H 152.924 -4.53553 3.09162 0
M  V30 1686 H 153.185 -4.19754 1.38777 0
M  V30 1687 N 152.244 -1.26651 -0.937939 0
M  V30 1688 C 153.655 -1.1125 -1.49934 0
M  V30 1689 C 154.006 0.306077 -1.93798 0
M  V30 1690 O 153.131 1.19792 -1.80219 0
M  V30 1691 C 153.726 -2.01339 -2.72485 0
M  V30 1692 C 152.285 -1.90074 -3.24883 0
M  V30 1693 C 151.432 -1.94498 -1.97651 0
M  V30 1694 H 154.383 -1.39693 -0.753091 0
M  V30 1695 H 154.404 -1.56319 -3.46907 0
M  V30 1696 H 153.916 -3.04577 -2.40529 0
M  V30 1697 H 152.017 -0.897827 -3.61621 0
M  V30 1698 H 152.13 -2.75778 -3.9177 0
M  V30 1699 H 150.494 -1.38591 -2.13693 0
M  V30 1700 H 151.277 -2.99372 -1.68022 0
M  V30 1701 N 153.722 1.14298 -1.08507 0
M  V30 1702 C 154.947 1.8976 -0.837001 0
M  V30 1703 C 155.372 1.78097 0.605228 0
M  V30 1704 O 154.73 1.12188 1.4242 0
M  V30 1705 C 154.778 3.37685 -1.26495 0
M  V30 1706 O 153.882 4.10281 -0.417514 0
M  V30 1707 H 153.223 0.590365 -0.303917 0
M  V30 1708 H 155.753 1.44672 -1.44676 0
M  V30 1709 H 155.763 3.88501 -1.24625 0
M  V30 1710 H 154.438 3.45492 -2.31534 0
M  V30 1711 H 153.015 3.69536 -0.499722 0
M  V30 1712 N 155.201 0.870884 1.31352 0
M  V30 1713 C 156.478 0.402907 1.91405 0
M  V30 1714 C 156.858 -1.11512 1.79244 0
M  V30 1715 O 156.206 -1.94411 1.2007 0
M  V30 1716 C 156.416 0.885301 3.37585 0
M  V30 1717 C 157.764 0.911971 4.14691 0
M  V30 1718 O 158.788 0.831016 3.46371 0
M  V30 1719 O 157.647 1.02927 5.3672 0
M  V30 1720 H 154.741 0.120698 0.818145 0
M  V30 1721 H 157.287 0.958857 1.40014 0
M  V30 1722 H 156.059 1.92889 3.40455 0
M  V30 1723 H 155.682 0.307714 3.96407 0
M  V30 1724 N 156.679 -1.44442 0.630414 0
M  V30 1725 C 157.907 -2.06414 0.141671 0
M  V30 1726 C 158.322 -1.47105 -1.18345 0
M  V30 1727 O 157.679 -0.593662 -1.72574 0
M  V30 1728 C 157.73 -3.61494 0.0199784 0
M  V30 1729 O 157.451 -4.18594 1.29269 0
M  V30 1730 C 158.952 -4.40499 -0.497544 0
M  V30 1731 H 156.172 -0.666292 0.0793452 0
M  V30 1732 H 158.716 -1.85323 0.864614 0
M  V30 1733 H 156.871 -3.8185 -0.653402 0
M  V30 1734 H 157.285 -5.12026 1.13707 0
M  V30 1735 H 158.759 -5.49433 -0.531708 0
M  V30 1736 H 159.236 -4.11895 -1.52445 0
M  V30 1737 H 159.842 -4.25061 0.142562 0
M  V30 1738 N 158.157 -0.370918 -1.53173 0
M  V30 1739 C 159.406 0.218249 -2.00516 0
M  V30 1740 C 159.719 1.49429 -1.26215 0
M  V30 1741 O 160.925 2.16239 -1.64174 0
M  V30 1742 C 159.381 0.43948 -3.57207 0
M  V30 1743 C 158.989 -0.822244 -4.4039 0
M  V30 1744 C 160.733 0.986012 -4.1289 0
M  V30 1745 C 158.64 -0.570304 -5.88644 0
M  V30 1746 H 157.57 0.0853333 -0.749156 0
M  V30 1747 H 160.221 -0.490483 -1.76823 0
M  V30 1748 H 158.603 1.20961 -3.77074 0
M  V30 1749 H 159.777 -1.59557 -4.32294 0
M  V30 1750 H 158.092 -1.29238 -3.95836 0
M  V30 1751 H 160.689 1.18991 -5.21292 0
M  V30 1752 H 161.032 1.94972 -3.6782 0
M  V30 1753 H 161.565 0.27592 -3.96842 0
M  V30 1754 H 158.304 -1.50449 -6.38001 0
M  V30 1755 H 157.824 0.164427 -5.99575 0
M  V30 1756 H 159.503 -0.19784 -6.46697 0
M  V30 1757 N 159.635 1.57281 -0.100228 0
M  V30 1758 C 160.881 1.95626 0.556946 0
M  V30 1759 C 161.236 0.981655 1.65473 0
M  V30 1760 O 160.529 0.00849847 1.91598 0
M  V30 1761 C 160.723 3.38305 1.15259 0
M  V30 1762 C 160.552 4.49555 0.114035 0
M  V30 1763 C 159.322 5.0434 -0.311266 0
M  V30 1764 C 161.52 5.10051 -0.659768 0
M  V30 1765 N 159.502 5.99152 -1.33755 0
M  V30 1766 C 160.873 6.00628 -1.53774 0
M  V30 1767 C 162.928 4.92772 -0.712723 0
M  V30 1768 C 161.631 6.7578 -2.46403 0
M  V30 1769 C 163.657 5.6859 -1.62663 0
M  V30 1770 C 163.019 6.58838 -2.49222 0
M  V30 1771 H 159.118 0.7624 0.173982 0
M  V30 1772 H 161.702 1.93829 -0.183988 0
M  V30 1773 H 159.873 3.40786 1.86332 0
M  V30 1774 H 161.605 3.63817 1.77254 0
M  V30 1775 H 158.36 4.73537 0.0774812 0
M  V30 1776 H 158.784 6.5126 -1.84905 0
M  V30 1777 H 163.426 4.22761 -0.0576648 0
M  V30 1778 H 161.144 7.4505 -3.12931 0
M  V30 1779 H 164.73 5.57233 -1.67281 0
M  V30 1780 H 163.61 7.16479 -3.18791 0
M  V30 1781 N 161.113 -0.173488 1.56642 0
M  V30 1782 C 162.043 -1.2171 1.99271 0
M  V30 1783 C 163.024 -1.46289 0.867959 0
M  V30 1784 O 164.209 -1.5766 1.13388 0
M  V30 1785 C 161.339 -2.55651 2.35074 0
M  V30 1786 C 160.293 -2.45645 3.50489 0
M  V30 1787 C 159.619 -3.84056 3.72028 0
M  V30 1788 C 160.919 -1.96302 4.84007 0
M  V30 1789 H 162.613 -0.86275 2.867 0
M  V30 1790 H 160.159 -0.413571 1.37933 0
M  V30 1791 H 162.112 -3.2886 2.63494 0
M  V30 1792 H 160.836 -2.92869 1.44552 0
M  V30 1793 H 159.495 -1.7489 3.22194 0
M  V30 1794 H 159.143 -4.18664 2.788 0
M  V30 1795 H 158.843 -3.7823 4.49684 0
M  V30 1796 H 160.367 -4.58854 4.02846 0
M  V30 1797 H 161.781 -2.59284 5.11317 0
M  V30 1798 H 160.178 -2.01429 5.65284 0
M  V30 1799 H 161.248 -0.917226 4.76146 0
M  V30 1800 N 162.591 -1.51276 -0.441967 0
M  V30 1801 C 164.002 -1.56244 -1.02199 0
M  V30 1802 C 164.353 -0.383149 -1.92422 0
M  V30 1803 O 163.478 0.500613 -2.1053 0
M  V30 1804 C 164.073 -2.83162 -1.86024 0
M  V30 1805 C 162.632 -2.90716 -2.39084 0
M  V30 1806 C 161.779 -2.50858 -1.18175 0
M  V30 1807 H 164.73 -1.5712 -0.223416 0
M  V30 1808 H 164.751 -2.66663 -2.71425 0
M  V30 1809 H 164.263 -3.68974 -1.20331 0
M  V30 1810 H 162.364 -2.09323 -3.08244 0
M  V30 1811 H 162.477 -3.94266 -2.72198 0
M  V30 1812 H 160.841 -2.03951 -1.52565 0
M  V30 1813 H 161.624 -3.3901 -0.541001 0
M  V30 1814 N 164.069 0.697108 -1.41344 0
M  V30 1815 C 165.346 1.45154 -1.31109 0
M  V30 1816 C 165.726 2.11009 0.0620449 0
M  V30 1817 O 165.074 2.01571 1.07618 0
M  V30 1818 C 165.284 2.47223 -2.46337 0
M  V30 1819 C 166.632 3.1252 -2.87431 0
M  V30 1820 O 167.656 2.57547 -2.46065 0
M  V30 1821 O 166.515 4.12083 -3.58957 0
M  V30 1822 H 163.609 0.646365 -0.515889 0
M  V30 1823 H 166.155 0.727716 -1.53305 0
M  V30 1824 H 164.927 1.97204 -3.37974 0
M  V30 1825 H 164.55 3.27116 -2.2601 0
M  V30 1826 N 165.547 1.27147 0.931209 0
M  V30 1827 C 166.793 1.13446 1.68101 0
M  V30 1828 C 167.126 -0.319628 1.91552 0
M  V30 1829 O 166.401 -1.23407 1.50336 0
M  V30 1830 C 166.684 1.91482 3.0497 0
M  V30 1831 C 166.537 3.44855 2.88782 0
M  V30 1832 C 167.856 1.71651 4.05246 0
M  V30 1833 H 164.975 0.413498 0.610072 0
M  V30 1834 H 167.617 1.56261 1.08086 0
M  V30 1835 H 165.767 1.55095 3.56199 0
M  V30 1836 H 167.439 3.9105 2.44698 0
M  V30 1837 H 165.682 3.71373 2.24198 0
M  V30 1838 H 166.353 3.94694 3.85902 0
M  V30 1839 H 168.829 2.0337 3.63015 0
M  V30 1840 H 167.705 2.28651 4.99009 0
M  V30 1841 H 167.966 0.663555 4.37092 0
M  V30 1842 N 167.025 -1.13721 1.09112 0
M  V30 1843 C 168.271 -1.85198 0.826414 0
M  V30 1844 C 168.604 -1.83129 -0.646319 0
M  V30 1845 O 167.879 -1.2671 -1.47563 0
M  V30 1846 C 168.162 -3.33507 1.35812 0
M  V30 1847 C 168.015 -3.44108 2.89672 0
M  V30 1848 C 169.334 -4.28838 0.989256 0
M  V30 1849 H 166.453 -0.67243 0.301675 0
M  V30 1850 H 169.095 -1.33499 1.35197 0
M  V30 1851 H 167.245 -3.77666 0.911082 0
M  V30 1852 H 168.917 -3.08684 3.428 0
M  V30 1853 H 167.16 -2.85087 3.26967 0
M  V30 1854 H 167.831 -4.48388 3.21951 0
M  V30 1855 H 170.307 -3.92734 1.37475 0
M  V30 1856 H 169.183 -5.31051 1.38838 0
M  V30 1857 H 169.444 -4.4198 -0.102924 0
M  V30 1858 N 168.503 -0.877838 -1.30888 0
M  V30 1859 C 169.433 -0.35534 -2.3078 0
M  V30 1860 C 170.414 0.557994 -1.60687 0
M  V30 1861 O 171.599 0.473355 -1.88343 0
M  V30 1862 C 168.729 0.437221 -3.44537 0
M  V30 1863 C 167.683 -0.383715 -4.26276 0
M  V30 1864 C 167.009 0.535014 -5.32017 0
M  V30 1865 C 168.309 -1.62201 -4.96476 0
M  V30 1866 H 170.003 -1.19007 -2.74732 0
M  V30 1867 H 167.549 -0.573698 -1.32078 0
M  V30 1868 H 169.502 0.813334 -4.13477 0
M  V30 1869 H 168.226 1.30553 -2.99372 0
M  V30 1870 H 166.885 -0.741874 -3.59015 0
M  V30 1871 H 166.533 1.40083 -4.831 0
M  V30 1872 H 166.233 -0.0104211 -5.87599 0
M  V30 1873 H 167.757 0.907799 -6.03814 0
M  V30 1874 H 169.171 -1.31689 -5.5797 0
M  V30 1875 H 167.568 -2.10711 -5.61891 0
M  V30 1876 H 168.638 -2.37044 -4.23011 0
M  V30 1877 N 169.982 1.44106 -0.638065 0
M  V30 1878 C 171.212 2.06037 -0.152394 0
M  V30 1879 C 171.62 1.47808 1.18108 0
M  V30 1880 O 170.963 0.598092 1.73691 0
M  V30 1881 C 171.025 3.59488 0.0293714 0
M  V30 1882 C 170.689 4.4022 -1.22702 0
M  V30 1883 C 171.686 4.73256 -2.15232 0
M  V30 1884 C 169.371 4.8048 -1.46437 0
M  V30 1885 C 171.365 5.45444 -3.29802 0
M  V30 1886 C 169.052 5.52417 -2.61303 0
M  V30 1887 C 170.05 5.84819 -3.52811 0
M  V30 1888 O 169.738 6.55289 -4.65673 0
M  V30 1889 H 169.47 0.671233 -0.0801401 0
M  V30 1890 H 172.024 1.85851 -0.874563 0
M  V30 1891 H 170.254 3.78191 0.806758 0
M  V30 1892 H 171.943 4.03164 0.470475 0
M  V30 1893 H 172.709 4.42684 -1.98131 0
M  V30 1894 H 168.588 4.54676 -0.760977 0
M  V30 1895 H 172.132 5.70653 -4.01249 0
M  V30 1896 H 168.029 5.82404 -2.78344 0
M  V30 1897 H 168.797 6.73762 -4.64744 0
M  V30 1898 N 171.46 0.379036 1.52974 0
M  V30 1899 C 172.408 -0.476033 2.27677 0
M  V30 1900 C 173.402 -1.0719 1.31174 0
M  V30 1901 O 174.608 -1.01355 1.48752 0
M  V30 1902 H 170.983 -0.172255 0.732006 0
M  V30 1903 H 172.954 0.175615 2.97883 0
M  V30 1904 C 171.703 -1.5967 3.0887 0
M  V30 1905 H 171.026 -1.1475 3.82978 0
M  V30 1906 H 172.466 -2.16943 3.64296 0
M  V30 1907 C 170.925 -2.54682 2.20542 0
M  V30 1908 O 171.455 -3.57836 1.82527 0
M  V30 1909 N 169.661 -2.24183 1.84907 0
M  V30 1910 H 169.208 -1.40333 2.1602 0
M  V30 1911 H 169.166 -2.88006 1.26096 0
M  V30 1912 N 172.938 -1.57226 0.108567 0
M  V30 1913 C 173.886 -2.16002 -0.862885 0
M  V30 1914 C 174.88 -1.10644 -1.28274 0
M  V30 1915 O 176.086 -1.28966 -1.2557 0
M  V30 1916 H 172.461 -0.691148 -0.296342 0
M  V30 1917 H 174.432 -2.96427 -0.342575 0
M  V30 1918 C 173.181 -2.76576 -2.10716 0
M  V30 1919 H 172.504 -3.5734 -1.793 0
M  V30 1920 H 173.944 -3.21253 -2.76717 0
M  V30 1921 C 172.403 -1.73137 -2.89007 0
M  V30 1922 O 172.933 -1.17842 -3.84026 0
M  V30 1923 N 171.139 -1.43317 -2.52801 0
M  V30 1924 H 170.686 -1.88473 -1.75601 0
M  V30 1925 H 170.644 -0.743485 -3.05483 0
M  V30 1926 N 174.416 0.165178 -1.56732 0
M  V30 1927 C 175.379 1.18822 -1.95995 0
M  V30 1928 C 176.379 1.3685 -0.84431 0
M  V30 1929 O 177.569 1.34152 -1.11126 0
M  V30 1930 C 174.701 2.5521 -2.26011 0
M  V30 1931 H 175.894 0.851825 -2.87548 0
M  V30 1932 H 173.447 0.407857 -1.50885 0
M  V30 1933 H 174.182 2.93852 -1.37191 0
M  V30 1934 H 173.967 2.43489 -3.07336 0
M  V30 1935 H 175.457 3.28927 -2.57288 0
M  V30 1936 N 175.894 1.51508 0.433938 0
M  V30 1937 C 177.171 1.54888 1.19453 0
M  V30 1938 C 177.551 0.315154 2.08734 0
M  V30 1939 O 176.899 -0.699558 2.17528 0
M  V30 1940 C 177.109 2.86467 1.99342 0
M  V30 1941 C 178.457 3.38545 2.56267 0
M  V30 1942 O 179.481 2.88041 2.0955 0
M  V30 1943 O 178.34 4.26675 3.41483 0
M  V30 1944 H 175.434 0.622863 0.544032 0
M  V30 1945 H 177.98 1.63823 0.442732 0
M  V30 1946 H 176.752 3.67718 1.33788 0
M  V30 1947 H 176.375 2.8071 2.8158 0
M  V30 1948 N 177.372 -0.689602 1.41712 0
M  V30 1949 C 178.62 -1.4468 1.4111 0
M  V30 1950 C 178.941 -1.94986 0.0232196 0
M  V30 1951 O 178.211 -1.72097 -0.935913 0
M  V30 1952 H 176.791 -0.536847 0.519427 0
M  V30 1953 H 179.453 -0.815825 1.77004 0
M  V30 1954 H 178.549 -2.30706 2.10193 0
M  V30 1955 N 178.85 -1.27639 -0.924453 0
M  V30 1956 C 179.798 -1.10485 -2.04685 0
M  V30 1957 C 180.792 -0.0270421 -1.69378 0
M  V30 1958 O 181.998 -0.185008 -1.79047 0
M  V30 1959 H 178.373 -0.340546 -0.670472 0
M  V30 1960 H 180.344 -2.05566 -2.16298 0
M  V30 1961 C 179.093 -0.772229 -3.39016 0
M  V30 1962 H 178.416 -1.59351 -3.66671 0
M  V30 1963 H 179.856 -0.692097 -4.18313 0
M  V30 1964 C 178.315 0.523554 -3.32807 0
M  V30 1965 O 178.845 1.55702 -3.70297 0
M  V30 1966 N 177.051 0.520363 -2.85903 0
M  V30 1967 H 176.598 -0.32107 -2.55591 0
M  V30 1968 H 176.556 1.38742 -2.82131 0
M  V30 1969 N 180.328 1.1314 -1.09713 0
M  V30 1970 C 181.558 1.88048 -0.855656 0
M  V30 1971 C 181.966 1.79537 0.596919 0
M  V30 1972 O 181.309 1.16196 1.42282 0
M  V30 1973 C 181.371 3.38314 -1.21589 0
M  V30 1974 C 181.035 3.70605 -2.67397 0
M  V30 1975 C 182.032 3.69596 -3.65643 0
M  V30 1976 C 179.717 4.0017 -3.03593 0
M  V30 1977 C 181.711 3.977 -4.9811 0
M  V30 1978 C 179.398 4.27935 -4.36251 0
M  V30 1979 C 180.396 4.26685 -5.33318 0
M  V30 1980 O 180.084 4.53767 -6.63589 0
M  V30 1981 H 179.816 0.60208 -0.307368 0
M  V30 1982 H 182.37 1.44128 -1.46343 0
M  V30 1983 H 180.6 3.82752 -0.551177 0
M  V30 1984 H 182.289 3.94552 -0.953083 0
M  V30 1985 H 183.055 3.46826 -3.39023 0
M  V30 1986 H 178.934 4.00289 -2.2867 0
M  V30 1987 H 182.478 3.9664 -5.73866 0
M  V30 1988 H 178.375 4.50178 -4.62613 0
M  V30 1989 H 179.143 4.71422 -6.69107 0
M  V30 1990 N 181.806 0.884767 1.30421 0
M  V30 1991 C 182.738 0.308655 2.27112 0
M  V30 1992 C 183.751 -0.536655 1.53701 0
M  V30 1993 O 184.94 -0.35624 1.74909 0
M  V30 1994 C 182.04 -0.579782 3.33904 0
M  V30 1995 C 181.213 0.236417 4.36761 0
M  V30 1996 C 180.272 -0.582482 5.22966 0
M  V30 1997 O 179.298 -0.00525502 5.692 0
M  V30 1998 N 180.5 -1.89163 5.48815 0
M  V30 1999 H 183.265 1.13964 2.77186 0
M  V30 2000 H 180.826 0.747731 1.43599 0
M  V30 2001 H 182.818 -1.13366 3.88497 0
M  V30 2002 H 181.388 -1.31144 2.83761 0
M  V30 2003 H 180.608 0.97174 3.82035 0
M  V30 2004 H 181.896 0.795924 5.02536 0
M  V30 2005 H 181.294 -2.38352 5.13035 0
M  V30 2006 H 179.851 -2.39296 6.06284 0
M  V30 2007 N 183.284 -1.43765 0.645699 0
M  V30 2008 C 184.53 -2.02197 0.156271 0
M  V30 2009 C 184.863 -1.50776 -1.22393 0
M  V30 2010 O 184.138 -0.697771 -1.81553 0
M  V30 2011 C 184.421 -3.59749 0.158872 0
M  V30 2012 C 184.274 -4.21419 1.57245 0
M  V30 2013 C 185.593 -4.37149 -0.50879 0
M  V30 2014 H 182.712 -0.734694 0.0582602 0
M  V30 2015 H 185.354 -1.71157 0.824951 0
M  V30 2016 H 183.504 -3.86325 -0.410525 0
M  V30 2017 H 185.176 -4.059 2.19186 0
M  V30 2018 H 183.419 -3.78356 2.122 0
M  V30 2019 H 184.09 -5.30482 1.52619 0
M  V30 2020 H 186.566 -4.16093 -0.024412 0
M  V30 2021 H 185.442 -5.4683 -0.476213 0
M  V30 2022 H 185.703 -4.12839 -1.58165 0
M  V30 2023 N 184.763 -0.387143 -1.52771 0
M  V30 2024 C 185.991 0.195869 -2.05971 0
M  V30 2025 C 186.406 1.40691 -1.25903 0
M  V30 2026 O 185.763 1.79931 -0.305134 0
M  V30 2027 C 185.814 0.56812 -3.57008 0
M  V30 2028 O 185.535 -0.594803 -4.34043 0
M  V30 2029 C 187.036 1.20723 -4.26545 0
M  V30 2030 H 184.256 0.0300578 -0.670326 0
M  V30 2031 H 186.8 -0.551749 -1.96916 0
M  V30 2032 H 184.955 1.26564 -3.66143 0
M  V30 2033 H 185.369 -0.289322 -5.23701 0
M  V30 2034 H 186.843 1.41807 -5.33474 0
M  V30 2035 H 187.32 2.17395 -3.81623 0
M  V30 2036 H 187.926 0.550535 -4.21722 0
M  V30 2037 N 186.241 1.57166 -0.116904 0
M  V30 2038 C 187.49 1.94298 0.541407 0
M  V30 2039 C 187.803 1.00236 1.67964 0
M  V30 2040 O 189.009 1.26826 2.40057 0
M  V30 2041 C 187.465 3.45306 1.01449 0
M  V30 2042 C 187.073 4.47899 -0.0951738 0
M  V30 2043 C 188.817 3.91361 1.6443 0
M  V30 2044 C 186.724 5.90083 0.394491 0
M  V30 2045 H 185.654 0.725308 0.206019 0
M  V30 2046 H 188.305 1.82446 -0.196419 0
M  V30 2047 H 186.687 3.52385 1.80667 0
M  V30 2048 H 187.861 4.52486 -0.871374 0
M  V30 2049 H 186.176 4.11583 -0.631505 0
M  V30 2050 H 188.773 4.95004 2.02176 0
M  V30 2051 H 189.116 3.3122 2.52189 0
M  V30 2052 H 189.649 3.87073 0.917559 0
M  V30 2053 H 186.388 6.53974 -0.447004 0
M  V30 2054 H 185.908 5.88921 1.13722 0
M  V30 2055 H 187.587 6.41307 0.856399 0
M  V30 2056 N 187.719 -0.156864 1.56817 0
M  V30 2057 C 188.652 -1.22316 1.9265 0
M  V30 2058 C 189.63 -1.42059 0.791076 0
M  V30 2059 O 190.814 -1.56831 1.04576 0
M  V30 2060 C 187.941 -2.58375 2.18998 0
M  V30 2061 C 186.987 -2.55284 3.41661 0
M  V30 2062 S 187.82 -2.02946 4.95553 0
M  V30 2063 C 188.976 -3.40753 5.25013 0
M  V30 2064 H 189.209 -0.917403 2.82791 0
M  V30 2065 H 186.742 -0.362059 1.50095 0
M  V30 2066 H 188.7 -3.36677 2.34859 0
M  V30 2067 H 187.361 -2.86145 1.29538 0
M  V30 2068 H 186.554 -3.55418 3.57343 0
M  V30 2069 H 186.156 -1.85086 3.24991 0
M  V30 2070 H 188.448 -4.36819 5.17876 0
M  V30 2071 H 189.391 -3.29933 6.26538 0
M  V30 2072 H 189.799 -3.37433 4.52548 0
M  V30 2073 N 189.197 -1.51736 -0.425897 0
M  V30 2074 C 190.425 -1.68794 -1.1965 0
M  V30 2075 C 190.84 -0.390164 -1.84725 0
M  V30 2076 O 190.197 0.632376 -1.71194 0
M  V30 2077 C 190.248 -2.81174 -2.27208 0
M  V30 2078 O 189.969 -4.05925 -1.64793 0
M  V30 2079 C 191.47 -3.09599 -3.17275 0
M  V30 2080 H 188.69 -0.566128 -0.360194 0
M  V30 2081 H 191.234 -1.98211 -0.503249 0
M  V30 2082 H 189.389 -2.54324 -2.9223 0
M  V30 2083 H 189.803 -4.68423 -2.35967 0
M  V30 2084 H 191.277 -3.91786 -3.88854 0
M  V30 2085 H 191.754 -2.22468 -3.78688 0
M  V30 2086 H 192.36 -3.38151 -2.57941 0
M  V30 2087 N 190.675 0.682077 -1.42076 0
M  V30 2088 C 191.622 1.79578 -1.44984 0
M  V30 2089 C 192.592 1.6332 -0.302614 0
M  V30 2090 O 193.777 1.83978 -0.505633 0
M  V30 2091 C 190.917 3.1756 -1.35091 0
M  V30 2092 C 190.03 3.45156 -2.59791 0
M  V30 2093 C 189.165 4.72826 -2.42093 0
M  V30 2094 C 188.204 4.93433 -3.62202 0
M  V30 2095 N 187.341 6.12338 -3.43491 0
M  V30 2096 H 192.181 1.76427 -2.40161 0
M  V30 2097 H 189.718 0.861376 -1.19242 0
M  V30 2098 H 191.676 3.97287 -1.27354 0
M  V30 2099 H 190.306 3.19854 -0.435133 0
M  V30 2100 H 189.358 2.59736 -2.77923 0
M  V30 2101 H 190.67 3.5628 -3.49094 0
M  V30 2102 H 189.824 5.60631 -2.319 0
M  V30 2103 H 188.563 4.63973 -1.50268 0
M  V30 2104 H 187.568 4.04073 -3.72834 0
M  V30 2105 H 188.793 5.04136 -4.54998 0
M  V30 2106 H 186.739 6.04672 -2.54377 0
M  V30 2107 H 186.656 6.2429 -4.26377 0
M  V30 2108 H 187.924 7.02841 -3.37097 0
M  V30 2109 N 192.153 1.28127 0.917671 0
M  V30 2110 C 193.116 1.11744 2.00115 0
M  V30 2111 C 194.116 0.0583052 1.60694 0
M  V30 2112 O 195.306 0.303755 1.71531 0
M  V30 2113 C 192.438 0.704862 3.33533 0
M  V30 2114 H 193.631 2.07966 2.16079 0
M  V30 2115 H 191.184 1.11058 1.09981 0
M  V30 2116 H 191.919 -0.258299 3.2327 0
M  V30 2117 H 191.704 1.4699 3.63505 0
M  V30 2118 H 193.194 0.612768 4.1308 0
M  V30 2119 N 193.631 -1.12557 1.10312 0
M  V30 2120 C 194.578 -2.18247 0.750781 0
M  V30 2121 C 195.548 -1.63853 -0.272293 0
M  V30 2122 O 196.733 -1.90195 -0.151862 0
M  V30 2123 C 193.873 -3.44591 0.187379 0
M  V30 2124 C 192.986 -4.13046 1.2656 0
M  V30 2125 C 192.121 -5.27034 0.663978 0
M  V30 2126 C 191.16 -5.87353 1.72287 0
M  V30 2127 N 190.297 -6.92757 1.1416 0
M  V30 2128 H 195.137 -2.47732 1.65628 0
M  V30 2129 H 192.674 -1.21629 0.827337 0
M  V30 2130 H 194.632 -4.16904 -0.157148 0
M  V30 2131 H 193.262 -3.15527 -0.681355 0
M  V30 2132 H 192.314 -3.38924 1.72727 0
M  V30 2133 H 193.626 -4.53947 2.06721 0
M  V30 2134 H 192.78 -6.06104 0.268824 0
M  V30 2135 H 191.519 -4.87407 -0.169082 0
M  V30 2136 H 190.524 -5.06971 2.12746 0
M  V30 2137 H 191.749 -6.29051 2.55875 0
M  V30 2138 H 189.695 -6.5517 0.329984 0
M  V30 2139 H 189.612 -7.3225 1.88007 0
M  V30 2140 H 190.88 -7.75658 0.772956 0
M  V30 2141 N 195.109 -0.891671 -1.2995 0
M  V30 2142 C 196.039 -0.379797 -2.30391 0
M  V30 2143 C 197.02 0.540919 -1.6127 0
M  V30 2144 O 198.205 0.453352 -1.88834 0
M  V30 2145 C 195.335 0.400654 -3.44981 0
M  V30 2146 C 194.289 -0.428905 -4.25846 0
M  V30 2147 C 193.615 0.478557 -5.32554 0
M  V30 2148 C 194.915 -1.67458 -4.94727 0
M  V30 2149 H 196.609 -1.21914 -2.73454 0
M  V30 2150 H 194.155 -0.587675 -1.31462 0
M  V30 2151 H 196.108 0.769434 -4.14316 0
M  V30 2152 H 194.832 1.27371 -3.0074 0
M  V30 2153 H 193.491 -0.779911 -3.58208 0
M  V30 2154 H 193.139 1.34951 -4.84559 0
M  V30 2155 H 192.839 -0.0727433 -5.87555 0
M  V30 2156 H 194.363 0.843705 -6.04743 0
M  V30 2157 H 195.777 -1.376 -5.56542 0
M  V30 2158 H 194.174 -2.16659 -5.59624 0
M  V30 2159 H 195.244 -2.41518 -4.20473 0
M  V30 2160 N 196.587 1.43421 -0.653314 0
M  V30 2161 C 197.815 2.06163 -0.174491 0
M  V30 2162 C 198.23 1.48969 1.1599 0
M  V30 2163 O 197.587 0.621042 1.71608 0
M  V30 2164 C 197.638 3.61417 -0.0774865 0
M  V30 2165 O 197.359 4.16485 -1.35912 0
M  V30 2166 C 198.86 4.41235 0.427402 0
M  V30 2167 H 196.08 0.664946 -0.0899353 0
M  V30 2168 H 198.624 1.83924 -0.893988 0
M  V30 2169 H 196.779 3.82841 0.59257 0
M  V30 2170 H 197.193 5.10153 -1.21839 0
M  V30 2171 H 198.667 5.5021 0.44423 0
M  V30 2172 H 199.144 4.14268 1.45873 0
M  V30 2173 H 199.75 4.2478 -0.210167 0
M  V30 2174 N 198.065 0.39524 1.52563 0
M  V30 2175 C 199.295 -0.184675 2.05773 0
M  V30 2176 C 199.703 -1.40571 1.26635 0
M  V30 2177 O 199.046 -1.81105 0.30769 0
M  V30 2178 C 199.108 -0.613551 3.54226 0
M  V30 2179 C 198.772 0.49484 4.54313 0
M  V30 2180 C 199.769 1.3541 5.01956 0
M  V30 2181 C 197.454 0.663565 4.97898 0
M  V30 2182 C 199.448 2.36716 5.91814 0
M  V30 2183 C 197.135 1.67996 5.87555 0
M  V30 2184 C 198.133 2.53017 6.34406 0
M  V30 2185 O 197.821 3.52917 7.22291 0
M  V30 2186 H 197.553 -0.030077 0.675331 0
M  V30 2187 H 200.107 0.560708 1.97599 0
M  V30 2188 H 198.337 -1.411 3.60038 0
M  V30 2189 H 200.026 -1.11981 3.90148 0
M  V30 2190 H 200.792 1.23509 4.6901 0
M  V30 2191 H 196.671 0.0114913 4.60999 0
M  V30 2192 H 200.215 3.03113 6.28306 0
M  V30 2193 H 196.112 1.79933 6.19915 0
M  V30 2194 H 196.88 3.48996 7.40367 0
M  V30 2195 N 199.544 -1.57102 0.125237 0
M  V30 2196 C 200.492 -2.16905 -0.839927 0
M  V30 2197 C 201.486 -1.11998 -1.27094 0
M  V30 2198 O 202.692 -1.3029 -1.24195 0
M  V30 2199 H 199.067 -0.694252 -0.288995 0
M  V30 2200 H 201.038 -2.96774 -0.311115 0
M  V30 2201 C 199.787 -2.78795 -2.07771 0
M  V30 2202 H 199.11 -3.59221 -1.755 0
M  V30 2203 H 200.55 -3.2417 -2.73295 0
M  V30 2204 C 199.009 -1.76193 -2.87155 0
M  V30 2205 O 199.539 -1.21909 -3.82755 0
M  V30 2206 N 197.745 -1.45991 -2.51267 0
M  V30 2207 H 197.292 -1.90325 -1.73592 0
M  V30 2208 H 197.25 -0.775844 -3.04677 0
M  V30 2209 N 201.022 0.148545 -1.56898 0
M  V30 2210 C 202.27 0.859717 -1.82902 0
M  V30 2211 C 202.591 1.81775 -0.70588 0
M  V30 2212 O 201.861 1.93994 0.272586 0
M  V30 2213 H 200.441 0.320469 -0.674766 0
M  V30 2214 H 203.103 0.142918 -1.94375 0
M  V30 2215 H 202.199 1.4229 -2.77777 0
M  V30 2216 N 202.5 1.5196 0.417844 0
M  V30 2217 C 203.728 1.69426 1.18753 0
M  V30 2218 C 204.143 0.399955 1.84515 0
M  V30 2219 O 203.5 -0.623288 1.71527 0
M  V30 2220 C 203.551 2.82375 2.25714 0
M  V30 2221 O 203.272 4.06793 1.62638 0
M  V30 2222 C 204.773 3.11277 3.15628 0
M  V30 2223 H 201.993 0.568031 0.357186 0
M  V30 2224 H 204.537 1.98475 0.49273 0
M  V30 2225 H 202.692 2.5587 2.90877 0
M  V30 2226 H 203.106 4.69667 2.3348 0
M  V30 2227 H 204.58 3.93843 3.86771 0
M  V30 2228 H 205.057 2.24473 3.77503 0
M  V30 2229 H 205.663 3.39515 2.56144 0
M  V30 2230 N 203.978 -0.674533 1.42435 0
M  V30 2231 C 205.224 -1.43671 1.43131 0
M  V30 2232 C 205.557 -1.94142 0.0476021 0
M  V30 2233 O 204.832 -1.70924 -0.928188 0
M  V30 2234 C 205.115 -2.63355 2.45594 0
M  V30 2235 C 204.968 -2.18514 3.93156 0
M  V30 2236 C 206.287 -3.65571 2.45043 0
M  V30 2237 H 203.406 -0.521077 0.521198 0
M  V30 2238 H 206.048 -0.766551 1.7385 0
M  V30 2239 H 204.198 -3.2053 2.19528 0
M  V30 2240 H 205.87 -1.66504 4.30202 0
M  V30 2241 H 204.113 -1.50086 4.07009 0
M  V30 2242 H 204.784 -3.04484 4.60428 0
M  V30 2243 H 207.26 -3.18113 2.68223 0
M  V30 2244 H 206.136 -4.46893 3.18713 0
M  V30 2245 H 206.397 -4.16716 1.47649 0
M  V30 2246 N 205.456 -1.28612 -0.910864 0
M  V30 2247 C 206.366 -1.14643 -2.0468 0
M  V30 2248 C 207.382 -0.0723121 -1.7385 0
M  V30 2249 O 208.558 -0.282178 -1.99413 0
M  V30 2250 C 205.623 -0.812561 -3.37044 0
M  V30 2251 C 204.684 -1.96935 -3.81465 0
M  V30 2252 C 203.917 -1.65131 -5.07511 0
M  V30 2253 O 204.14 -0.567013 -5.67575 0
M  V30 2254 O 203.074 -2.49585 -5.47714 0
M  V30 2255 H 206.9 -2.1001 -2.19384 0
M  V30 2256 H 204.485 -1.07958 -1.03274 0
M  V30 2257 H 206.367 -0.640441 -4.16505 0
M  V30 2258 H 205.042 0.111426 -3.23508 0
M  V30 2259 H 203.949 -2.19664 -3.02818 0
M  V30 2260 H 205.282 -2.87414 -3.99567 0
M  V30 2261 N 206.934 1.1197 -1.10907 0
M  V30 2262 C 208.18 1.84059 -0.865674 0
M  V30 2263 C 208.535 1.82731 0.602254 0
M  V30 2264 O 207.828 1.26543 1.43866 0
M  V30 2265 C 208.022 3.30749 -1.35425 0
M  V30 2266 C 207.851 3.46363 -2.86815 0
M  V30 2267 C 206.621 3.59712 -3.54874 0
M  V30 2268 C 208.819 3.41116 -3.84895 0
M  V30 2269 N 206.801 3.63741 -4.94536 0
M  V30 2270 C 208.172 3.51698 -5.10596 0
M  V30 2271 C 210.227 3.24612 -3.77533 0
M  V30 2272 C 208.93 3.4748 -6.29802 0
M  V30 2273 C 210.956 3.21708 -4.96244 0
M  V30 2274 C 210.318 3.32856 -6.20795 0
M  V30 2275 H 206.417 0.689015 -0.369841 0
M  V30 2276 H 209.001 1.34016 -1.41237 0
M  V30 2277 H 207.172 3.79322 -0.834814 0
M  V30 2278 H 208.904 3.90718 -1.05458 0
M  V30 2279 H 205.659 3.62038 -3.05329 0
M  V30 2280 H 206.083 3.69408 -5.67333 0
M  V30 2281 H 210.725 3.14883 -2.8215 0
M  V30 2282 H 208.443 3.55978 -7.25469 0
M  V30 2283 H 212.029 3.10113 -4.92261 0
M  V30 2284 H 210.909 3.3059 -7.11112 0
M  V30 2285 N 208.412 0.89855 1.29475 0
M  V30 2286 C 209.375 0.380272 2.26023 0
M  V30 2287 C 210.375 -0.484891 1.53315 0
M  V30 2288 O 211.565 -0.290108 1.71767 0
M  V30 2289 C 208.697 -0.45651 3.3783 0
M  V30 2290 H 209.89 1.23295 2.73383 0
M  V30 2291 H 207.443 0.676589 1.40897 0
M  V30 2292 H 208.178 -1.32922 2.95808 0
M  V30 2293 H 207.963 0.163393 3.91759 0
M  V30 2294 H 209.453 -0.810466 4.0966 0
M  V30 2295 N 209.89 -1.43072 0.660911 0
M  V30 2296 C 211.301 -1.84932 0.256348 0
M  V30 2297 C 211.652 -1.55325 -1.19868 0
M  V30 2298 O 210.777 -1.00607 -1.91591 0
M  V30 2299 C 211.372 -3.35684 0.458475 0
M  V30 2300 C 209.931 -3.76245 0.108161 0
M  V30 2301 C 209.078 -2.66749 0.757641 0
M  V30 2302 H 212.029 -1.33116 0.864051 0
M  V30 2303 H 212.05 -3.79365 -0.293683 0
M  V30 2304 H 211.562 -3.572 1.51755 0
M  V30 2305 H 209.663 -3.60338 -0.948014 0
M  V30 2306 H 209.776 -4.76058 0.538992 0
M  V30 2307 H 208.14 -2.53989 0.190185 0
M  V30 2308 H 208.923 -2.91092 1.81989 0
M  V30 2309 N 211.368 -0.403325 -1.52352 0
M  V30 2310 C 212.779 0.0675782 -1.86578 0
M  V30 2311 C 213.13 1.44941 -1.32236 0
M  V30 2312 O 212.255 2.06112 -0.659307 0
M  V30 2313 C 212.85 0.129404 -3.38553 0
M  V30 2314 C 211.409 0.544629 -3.72439 0
M  V30 2315 C 210.556 -0.284551 -2.75836 0
M  V30 2316 H 213.507 -0.620631 -1.46061 0
M  V30 2317 H 213.528 0.94581 -3.68558 0
M  V30 2318 H 213.04 -0.87645 -3.78074 0
M  V30 2319 H 211.141 1.55734 -3.38493 0
M  V30 2320 H 211.254 0.293046 -4.78203 0
M  V30 2321 H 209.618 0.252258 -2.53448 0
M  V30 2322 H 210.401 -1.28865 -3.18196 0
M  V30 2323 N 212.846 1.57033 -0.133567 0
M  V30 2324 C 213.809 2.14897 0.796995 0
M  V30 2325 C 214.809 1.0874 1.18458 0
M  V30 2326 O 215.999 1.34446 1.1077 0
M  V30 2327 C 213.131 2.70112 2.07973 0
M  V30 2328 H 214.324 2.98457 0.293873 0
M  V30 2329 H 211.877 1.55871 0.115787 0
M  V30 2330 H 212.612 1.9018 2.62682 0
M  V30 2331 H 212.397 3.47764 1.81115 0
M  V30 2332 H 213.887 3.14738 2.74462 0
M  V30 2333 N 214.325 -0.140222 1.56975 0
M  V30 2334 C 215.574 -0.850152 1.82908 0
M  V30 2335 C 215.887 -1.82028 0.715892 0
M  V30 2336 O 217.093 -2.57485 0.861016 0
M  V30 2337 C 215.549 -1.5625 3.24213 0
M  V30 2338 C 215.157 -0.63443 4.43485 0
M  V30 2339 C 216.901 -2.25881 3.59413 0
M  V30 2340 C 214.808 -1.34879 5.75814 0
M  V30 2341 H 213.738 -0.321221 0.682153 0
M  V30 2342 H 216.389 -0.102874 1.83211 0
M  V30 2343 H 214.771 -2.35565 3.18316 0
M  V30 2344 H 215.945 0.12398 4.60633 0
M  V30 2345 H 214.26 -0.0461836 4.16374 0
M  V30 2346 H 216.857 -2.79978 4.5554 0
M  V30 2347 H 217.2 -3.02693 2.85802 0
M  V30 2348 H 217.733 -1.53477 3.67001 0
M  V30 2349 H 214.472 -0.622385 6.52539 0
M  V30 2350 H 213.992 -2.07974 5.6259 0
M  V30 2351 H 215.671 -1.88784 6.18845 0
M  V30 2352 N 215.803 -1.52179 -0.40978 0
M  V30 2353 C 217.033 -1.69807 -1.17682 0
M  V30 2354 C 217.441 -0.406908 -1.84773 0
M  V30 2355 O 216.784 0.626863 -1.72673 0
M  V30 2356 C 216.846 -2.77712 -2.2829 0
M  V30 2357 C 216.51 -4.19481 -1.81341 0
M  V30 2358 C 217.507 -5.03345 -1.30154 0
M  V30 2359 C 215.192 -4.65713 -1.88194 0
M  V30 2360 C 217.186 -6.31511 -0.864416 0
M  V30 2361 C 214.873 -5.93869 -1.44093 0
M  V30 2362 C 215.871 -6.76597 -0.933023 0
M  V30 2363 O 215.559 -8.02354 -0.49838 0
M  V30 2364 H 215.291 -0.572372 -0.359675 0
M  V30 2365 H 217.845 -1.99511 -0.488311 0
M  V30 2366 H 216.075 -2.43383 -3.00502 0
M  V30 2367 H 217.764 -2.83946 -2.90051 0
M  V30 2368 H 218.53 -4.68819 -1.24232 0
M  V30 2369 H 214.409 -4.01424 -2.26671 0
M  V30 2370 H 217.953 -6.96033 -0.467286 0
M  V30 2371 H 213.85 -6.27903 -1.49694 0
M  V30 2372 H 214.618 -8.16135 -0.621747 0
M  V30 2373 N 217.281 0.66697 -1.42791 0
M  V30 2374 C 218.228 1.7803 -1.4688 0
M  V30 2375 C 219.198 1.6299 -0.319919 0
M  V30 2376 O 220.383 1.83432 -0.525118 0
M  V30 2377 C 217.523 3.1611 -1.38451 0
M  V30 2378 C 216.636 3.42381 -2.63437 0
M  V30 2379 C 215.771 4.70232 -2.47094 0
M  V30 2380 C 214.81 4.89564 -3.67415 0
M  V30 2381 N 213.947 6.08661 -3.49966 0
M  V30 2382 H 218.787 1.7387 -2.42019 0
M  V30 2383 H 216.324 0.84868 -1.20149 0
M  V30 2384 H 218.282 3.95914 -1.31561 0
M  V30 2385 H 216.912 3.19374 -0.469033 0
M  V30 2386 H 215.964 2.56774 -2.80662 0
M  V30 2387 H 217.276 3.52557 -3.52853 0
M  V30 2388 H 216.43 5.5814 -2.37834 0
M  V30 2389 H 215.169 4.62353 -1.5518 0
M  V30 2390 H 214.174 4.00096 -3.77099 0
M  V30 2391 H 215.399 4.99282 -4.6032 0
M  V30 2392 H 213.345 6.0194 -2.60776 0
M  V30 2393 H 213.262 6.19733 -4.32975 0
M  V30 2394 H 214.53 6.99226 -3.44532 0
M  V30 2395 N 218.759 1.29093 0.90403 0
M  V30 2396 C 219.984 1.19809 1.69294 0
M  V30 2397 C 220.409 -0.238481 1.86582 0
M  V30 2398 O 219.767 -1.1723 1.383 0
M  V30 2399 C 219.815 1.91202 3.05736 0
M  V30 2400 O 218.919 1.22611 3.93752 0
M  V30 2401 H 218.26 0.415385 0.518027 0
M  V30 2402 H 220.79 1.70586 1.12967 0
M  V30 2403 H 220.8 1.99487 3.55906 0
M  V30 2404 H 219.475 2.95692 2.92471 0
M  V30 2405 H 218.052 1.22554 3.52186 0
M  V30 2406 N 220.237 -1.11381 1.11499 0
M  V30 2407 C 221.17 -2.16621 0.71769 0
M  V30 2408 C 222.148 -1.60058 -0.286413 0
M  V30 2409 O 223.332 -1.87613 -0.182689 0
M  V30 2410 C 220.459 -3.38646 0.0607265 0
M  V30 2411 C 219.505 -4.13874 1.03008 0
M  V30 2412 S 220.338 -4.70731 2.55289 0
M  V30 2413 C 221.494 -5.96079 1.90895 0
M  V30 2414 H 221.727 -2.49987 1.60915 0
M  V30 2415 H 219.26 -1.23015 0.933092 0
M  V30 2416 H 221.218 -4.09313 -0.311965 0
M  V30 2417 H 219.879 -3.03537 -0.807702 0
M  V30 2418 H 219.072 -5.01333 0.517853 0
M  V30 2419 H 218.674 -3.4897 1.34522 0
M  V30 2420 H 220.966 -6.65948 1.24577 0
M  V30 2421 H 221.909 -6.51946 2.76354 0
M  V30 2422 H 222.317 -5.47652 1.36885 0
M  V30 2423 N 221.715 -0.905404 -1.28997 0
M  V30 2424 C 222.955 -0.541232 -1.97104 0
M  V30 2425 C 223.319 0.896841 -1.69767 0
M  V30 2426 O 224.52 1.36817 -2.31375 0
M  V30 2427 C 222.791 -0.832134 -3.47578 0
M  V30 2428 S 224.35 -0.573127 -4.35041 0
M  V30 2429 H 221.168 -0.200576 -0.682122 0
M  V30 2430 H 223.77 -1.16906 -1.56694 0
M  V30 2431 H 222.474 -1.87687 -3.64968 0
M  V30 2432 H 222.005 -0.192636 -3.92928 0
M  V30 2433 H 224.02 0.579297 -4.92807 0
M  V30 2434 N 223.193 1.4272 -0.668489 0
M  V30 2435 C 224.125 2.2914 0.052613 0
M  V30 2436 C 225.138 1.43339 0.771857 0
M  V30 2437 O 226.327 1.67123 0.627067 0
M  V30 2438 C 223.427 3.20618 1.09804 0
M  V30 2439 C 222.6 4.35039 0.45389 0
M  V30 2440 C 221.659 5.07282 1.39825 0
M  V30 2441 O 220.685 5.62024 0.900978 0
M  V30 2442 N 221.887 5.12206 2.73176 0
M  V30 2443 H 224.652 2.91668 -0.689209 0
M  V30 2444 H 222.213 1.53577 -0.512422 0
M  V30 2445 H 224.205 3.65815 1.73094 0
M  V30 2446 H 222.775 2.59585 1.74167 0
M  V30 2447 H 221.995 3.92567 -0.358396 0
M  V30 2448 H 223.283 5.088 0.00486972 0
M  V30 2449 H 222.681 4.6913 3.16122 0
M  V30 2450 H 221.238 5.61069 3.31729 0
M  V30 2451 N 224.671 0.411399 1.52136 0
M  V30 2452 C 225.92 -0.165009 2.01024 0
M  V30 2453 C 226.233 -1.4603 1.30133 0
M  V30 2454 O 227.439 -2.1181 1.69849 0
M  V30 2455 C 225.895 -0.344618 3.58246 0
M  V30 2456 C 225.503 0.938716 4.38055 0
M  V30 2457 C 227.247 -0.876195 4.15359 0
M  V30 2458 C 225.154 0.726172 5.86925 0
M  V30 2459 H 224.084 -0.0654407 0.751155 0
M  V30 2460 H 226.735 0.537192 1.75461 0
M  V30 2461 H 225.117 -1.10921 3.80148 0
M  V30 2462 H 226.291 1.70963 4.27912 0
M  V30 2463 H 224.606 1.39688 3.92271 0
M  V30 2464 H 227.203 -1.05128 5.24263 0
M  V30 2465 H 227.546 -1.85152 3.7286 0
M  V30 2466 H 228.079 -0.170607 3.97434 0
M  V30 2467 H 224.818 1.67312 6.33788 0
M  V30 2468 H 224.338 -0.00540283 5.998 0
M  V30 2469 H 226.017 0.369231 6.45946 0
M  V30 2470 N 226.149 -1.5696 0.141893 0
M  V30 2471 C 227.426 -1.87553 -0.555281 0
M  V30 2472 C 227.806 -1.04699 -1.83306 0
M  V30 2473 O 227.154 -0.132346 -2.28116 0
M  V30 2474 C 227.364 -3.39093 -0.825664 0
M  V30 2475 C 228.712 -4.08199 -1.16869 0
M  V30 2476 O 229.736 -3.44242 -0.915185 0
M  V30 2477 O 228.595 -5.21139 -1.6455 0
M  V30 2478 H 225.689 -0.777188 -0.282679 0
M  V30 2479 H 228.235 -1.68763 0.17812 0
M  V30 2480 H 227.007 -3.91221 0.0788633 0
M  V30 2481 H 226.63 -3.63393 -1.61343 0
M  V30 2482 N 227.627 0.131896 -1.57047 0
M  V30 2483 C 228.873 0.843179 -1.84441 0
M  V30 2484 C 229.206 1.80129 -0.725749 0
M  V30 2485 O 228.481 1.92624 0.269469 0
M  V30 2486 C 228.764 1.60442 -3.22382 0
M  V30 2487 C 228.617 0.666782 -4.4483 0
M  V30 2488 C 229.936 2.56354 -3.5773 0
M  V30 2489 H 227.055 0.305081 -0.670891 0
M  V30 2490 H 229.697 0.107839 -1.89694 0
M  V30 2491 H 227.847 2.23128 -3.18035 0
M  V30 2492 H 229.519 0.0497646 -4.61273 0
M  V30 2493 H 227.762 -0.022609 -4.33794 0
M  V30 2494 H 228.433 1.23579 -5.37989 0
M  V30 2495 H 230.909 2.0378 -3.62785 0
M  V30 2496 H 229.785 3.06657 -4.5525 0
M  V30 2497 H 230.046 3.38419 -2.84473 0
M  V30 2498 N 229.106 1.52395 0.401703 0
M  V30 2499 C 230.016 1.7917 1.51444 0
M  V30 2500 C 231.032 0.677691 1.6026 0
M  V30 2501 O 232.208 0.963909 1.76835 0
M  V30 2502 C 229.273 1.94347 2.87107 0
M  V30 2503 C 228.334 3.18257 2.88116 0
M  V30 2504 C 227.567 3.32701 4.17308 0
M  V30 2505 O 227.79 2.52238 5.11598 0
M  V30 2506 O 226.724 4.25891 4.25324 0
M  V30 2507 H 230.55 2.73633 1.31752 0
M  V30 2508 H 228.135 1.3733 0.588296 0
M  V30 2509 H 230.017 2.06109 3.67555 0
M  V30 2510 H 228.692 1.03073 3.06851 0
M  V30 2511 H 227.599 3.11947 2.06494 0
M  V30 2512 H 228.932 4.09336 2.73322 0
M  V30 2513 N 230.584 -0.659388 1.43143 0
M  V30 2514 C 231.831 -1.41935 1.44433 0
M  V30 2515 C 232.159 -1.94387 0.0663522 0
M  V30 2516 O 231.414 -1.72314 -0.927706 0
M  V30 2517 C 231.713 -2.62206 2.42864 0
M  V30 2518 C 231.379 -2.28208 3.88886 0
M  V30 2519 C 230.041 -2.18647 4.28657 0
M  V30 2520 C 232.393 -2.00887 4.8093 0
M  V30 2521 C 229.721 -1.79914 5.58433 0
M  V30 2522 C 232.073 -1.63653 6.11065 0
M  V30 2523 C 230.737 -1.52614 6.49819 0
M  V30 2524 H 230.007 -0.519376 0.528517 0
M  V30 2525 H 232.654 -0.750453 1.76183 0
M  V30 2526 H 230.959 -3.34199 2.04495 0
M  V30 2527 H 232.656 -3.2041 2.41119 0
M  V30 2528 H 229.246 -2.36557 3.57406 0
M  V30 2529 H 233.43 -2.07198 4.5098 0
M  V30 2530 H 228.686 -1.69948 5.87305 0
M  V30 2531 H 232.86 -1.41543 6.81864 0
M  V30 2532 H 230.487 -1.22371 7.50286 0
M  V30 2533 N 232.062 -1.29571 -0.897171 0
M  V30 2534 C 233.309 -1.17689 -1.6479 0
M  V30 2535 C 233.637 0.27107 -1.92602 0
M  V30 2536 O 232.892 1.21193 -1.53658 0
M  V30 2537 C 233.191 -1.9382 -3.00281 0
M  V30 2538 C 232.857 -3.43522 -2.92068 0
M  V30 2539 C 231.519 -3.84348 -2.89535 0
M  V30 2540 C 233.871 -4.38906 -2.81089 0
M  V30 2541 C 231.199 -5.18869 -2.73846 0
M  V30 2542 C 233.551 -5.73521 -2.66939 0
M  V30 2543 C 232.215 -6.13601 -2.62774 0
M  V30 2544 H 231.485 -0.430654 -0.603008 0
M  V30 2545 H 234.132 -1.60536 -1.04404 0
M  V30 2546 H 232.437 -1.4357 -3.64547 0
M  V30 2547 H 234.134 -1.82028 -3.57305 0
M  V30 2548 H 230.724 -3.11072 -2.94842 0
M  V30 2549 H 234.908 -4.08315 -2.82121 0
M  V30 2550 H 230.164 -5.4903 -2.69027 0
M  V30 2551 H 234.338 -6.47078 -2.57416 0
M  V30 2552 H 231.965 -7.17786 -2.50375 0
M  V30 2553 N 233.54 1.10788 -1.12088 0
M  V30 2554 C 234.951 1.64181 -0.88891 0
M  V30 2555 C 235.302 1.87508 0.577498 0
M  V30 2556 O 234.427 1.61434 1.44112 0
M  V30 2557 C 235.022 2.98257 -1.60712 0
M  V30 2558 C 233.581 3.4853 -1.42139 0
M  V30 2559 C 232.728 2.23208 -1.6454 0
M  V30 2560 H 235.679 0.943368 -1.27618 0
M  V30 2561 H 235.7 3.65552 -1.05604 0
M  V30 2562 H 235.212 2.81246 -2.67436 0
M  V30 2563 H 233.313 3.70692 -0.376552 0
M  V30 2564 H 233.426 4.26882 -2.17505 0
M  V30 2565 H 231.79 2.31169 -1.06925 0
M  V30 2566 H 232.573 2.08733 -2.72554 0
M  V30 2567 N 235.018 0.912232 1.28515 0
M  V30 2568 C 236.265 0.544599 1.95039 0
M  V30 2569 C 236.593 -0.911435 1.71823 0
M  V30 2570 O 235.848 -1.66317 1.03137 0
M  V30 2571 C 236.147 0.798392 3.48368 0
M  V30 2572 C 235.813 2.23374 3.91682 0
M  V30 2573 C 234.475 2.62617 4.03219 0
M  V30 2574 C 236.827 3.16786 4.13879 0
M  V30 2575 C 234.155 3.94429 4.3433 0
M  V30 2576 C 236.507 4.48161 4.46469 0
M  V30 2577 C 235.171 4.8726 4.56217 0
M  V30 2578 H 234.441 0.199283 0.7137 0
M  V30 2579 H 237.088 1.15327 1.52879 0
M  V30 2580 H 235.393 0.106908 3.91654 0
M  V30 2581 H 237.09 0.493141 3.97956 0
M  V30 2582 H 233.68 1.91922 3.83228 0
M  V30 2583 H 237.864 2.87677 4.0442 0
M  V30 2584 H 233.12 4.24426 4.40082 0
M  V30 2585 H 237.294 5.20559 4.62592 0
M  V30 2586 H 234.921 5.89431 4.80078 0
M  V30 2587 N 236.496 -1.42363 0.676048 0
M  V30 2588 C 237.773 -1.95183 0.127726 0
M  V30 2589 C 238.153 -1.61641 -1.35777 0
M  V30 2590 O 237.501 -0.913216 -2.09458 0
M  V30 2591 C 237.711 -3.46721 0.398199 0
M  V30 2592 C 239.059 -4.23427 0.315383 0
M  V30 2593 O 240.083 -3.54649 0.332016 0
M  V30 2594 O 238.942 -5.45888 0.25865 0
M  V30 2595 H 236.036 -0.826992 0.00359427 0
M  V30 2596 H 238.582 -1.52184 0.750864 0
M  V30 2597 H 237.354 -3.64344 1.4272 0
M  V30 2598 H 236.977 -3.96769 -0.256885 0
M  V30 2599 N 237.974 -0.419461 -1.51915 0
M  V30 2600 C 239.39 -0.0708431 -1.59443 0
M  V30 2601 C 239.59 1.41796 -1.43164 0
M  V30 2602 O 238.646 2.18596 -1.26381 0
M  V30 2603 C 239.959 -0.574991 -2.95151 0
M  V30 2604 C 241.507 -0.533867 -3.08413 0
M  V30 2605 C 241.982 -1.01469 -4.46618 0
M  V30 2606 N 243.473 -0.971939 -4.52888 0
M  V30 2607 C 244.208 -1.31505 -5.58116 0
M  V30 2608 N 243.704 -1.73014 -6.70849 0
M  V30 2609 N 245.497 -1.23436 -5.48379 0
M  V30 2610 H 237.648 -1.38836 -1.60743 0
M  V30 2611 H 239.911 -0.570998 -0.756747 0
M  V30 2612 H 239.617 -1.61597 -3.12377 0
M  V30 2613 H 239.491 0.00979777 -3.77199 0
M  V30 2614 H 241.878 0.498086 -2.90866 0
M  V30 2615 H 241.959 -1.15484 -2.28248 0
M  V30 2616 H 241.603 -2.04502 -4.6491 0
M  V30 2617 H 241.533 -0.370433 -5.25295 0
M  V30 2618 H 244.024 -0.666893 -3.71969 0
M  V30 2619 H 244.337 -1.97479 -7.47143 0
M  V30 2620 H 242.682 -1.76926 -6.72103 0
M  V30 2621 H 245.873 -0.908869 -4.59192 0
M  V30 2622 H 246.046 -1.50506 -6.30279 0
M  V30 2623 N 239.452 1.56882 -0.150215 0
M  V30 2624 C 240.384 2.14057 0.819286 0
M  V30 2625 C 241.397 1.09082 1.20851 0
M  V30 2626 O 242.586 1.36347 1.15203 0
M  V30 2627 C 239.686 2.65102 2.11127 0
M  V30 2628 C 238.859 3.94511 1.88891 0
M  V30 2629 C 237.918 4.30834 3.02107 0
M  V30 2630 O 236.944 4.99099 2.73659 0
M  V30 2631 N 238.146 3.90676 4.29363 0
M  V30 2632 H 240.911 2.97871 0.330618 0
M  V30 2633 H 238.472 1.61866 0.0332538 0
M  V30 2634 H 240.464 2.86411 2.85921 0
M  V30 2635 H 239.034 1.85994 2.51247 0
M  V30 2636 H 238.254 3.81795 0.981152 0
M  V30 2637 H 239.542 4.7907 1.71376 0
M  V30 2638 H 238.94 3.35677 4.55343 0
M  V30 2639 H 237.497 4.1703 5.00928 0
M  V30 2640 N 240.93 -0.123565 1.57115 0
M  V30 2641 C 241.862 -1.17739 1.96648 0
M  V30 2642 C 242.875 -1.37906 0.865201 0
M  V30 2643 O 244.064 -1.37062 1.14351 0
M  V30 2644 C 241.164 -2.53821 2.24562 0
M  V30 2645 C 240.337 -2.54317 3.55867 0
M  V30 2646 C 239.396 -3.72112 3.72047 0
M  V30 2647 O 238.422 -3.55907 4.44206 0
M  V30 2648 N 239.624 -4.90498 3.10471 0
M  V30 2649 H 242.389 -0.841147 2.87654 0
M  V30 2650 H 239.95 -0.31289 1.58848 0
M  V30 2651 H 241.942 -3.31175 2.32606 0
M  V30 2652 H 240.512 -2.79645 1.39705 0
M  V30 2653 H 239.732 -1.62711 3.59053 0
M  V30 2654 H 241.02 -2.51701 4.42181 0
M  V30 2655 H 240.418 -5.06567 2.51806 0
M  V30 2656 H 238.975 -5.65544 3.24043 0
M  V30 2657 N 242.408 -1.52605 -0.393616 0
M  V30 2658 C 243.648 -1.6911 -1.1481 0
M  V30 2659 C 244.012 -0.41969 -1.87357 0
M  V30 2660 O 245.213 -0.461034 -2.64817 0
M  V30 2661 C 243.484 -2.88909 -2.10395 0
M  V30 2662 S 245.043 -3.25977 -2.93742 0
M  V30 2663 H 241.861 -0.595337 -0.38871 0
M  V30 2664 H 244.463 -1.90641 -0.433178 0
M  V30 2665 H 243.167 -3.79672 -1.55812 0
M  V30 2666 H 242.698 -2.69698 -2.86403 0
M  V30 2667 H 244.713 -2.75806 -4.12487 0
M  V30 2668 N 243.887 0.651787 -1.4349 0
M  V30 2669 C 244.797 1.79368 -1.5121 0
M  V30 2670 C 245.813 1.69361 -0.399093 0
M  V30 2671 O 246.989 1.90505 -0.653431 0
M  V30 2672 C 244.054 3.15653 -1.43401 0
M  V30 2673 C 243.115 3.37446 -2.65384 0
M  V30 2674 C 242.348 4.67229 -2.57939 0
M  V30 2675 O 242.571 5.46676 -1.62792 0
M  V30 2676 O 241.505 4.90773 -3.48462 0
M  V30 2677 H 245.331 1.7581 -2.47638 0
M  V30 2678 H 242.916 0.810447 -1.25507 0
M  V30 2679 H 244.798 3.96935 -1.41494 0
M  V30 2680 H 243.473 3.19798 -0.501085 0
M  V30 2681 H 242.38 2.55923 -2.72863 0
M  V30 2682 H 243.713 3.38148 -3.57654 0
M  V30 2683 N 245.365 1.30045 0.890287 0
M  V30 2684 C 246.298 1.10301 1.99772 0
M  V30 2685 C 247.276 0.0121631 1.62595 0
M  V30 2686 O 248.46 0.16469 1.87779 0
M  V30 2687 C 245.587 0.681125 3.31781 0
M  V30 2688 C 244.633 1.77206 3.87944 0
M  V30 2689 S 245.466 3.37335 4.15891 0
M  V30 2690 C 246.622 2.97036 5.50927 0
M  V30 2691 H 246.855 2.04057 2.16213 0
M  V30 2692 H 244.388 1.14299 1.03804 0
M  V30 2693 H 246.346 0.444439 4.08087 0
M  V30 2694 H 245.007 -0.236981 3.13205 0
M  V30 2695 H 244.2 1.42903 4.83316 0
M  V30 2696 H 243.802 1.96275 3.18358 0
M  V30 2697 H 246.094 2.44666 6.31779 0
M  V30 2698 H 247.037 3.91296 5.90164 0
M  V30 2699 H 247.445 2.35057 5.13233 0
M  V30 2700 N 246.843 -1.10192 1.12674 0
M  V30 2701 C 247.79 -2.16606 0.796906 0
M  V30 2702 C 248.76 -1.64394 -0.237476 0
M  V30 2703 O 249.945 -1.90474 -0.111484 0
M  V30 2704 C 247.085 -3.44116 0.26043 0
M  V30 2705 C 246.198 -4.10268 1.35293 0
M  V30 2706 C 245.333 -5.25507 0.775621 0
M  V30 2707 C 244.372 -5.83567 1.84706 0
M  V30 2708 N 243.509 -6.90179 1.28829 0
M  V30 2709 H 248.349 -2.44163 1.70846 0
M  V30 2710 H 245.886 -1.19846 0.85295 0
M  V30 2711 H 247.844 -4.17143 -0.0686814 0
M  V30 2712 H 246.474 -3.16901 -0.614274 0
M  V30 2713 H 245.526 -3.35184 1.79877 0
M  V30 2714 H 246.838 -4.4946 2.16303 0
M  V30 2715 H 245.992 -6.05398 0.397327 0
M  V30 2716 H 244.731 -4.87656 -0.0656581 0
M  V30 2717 H 243.736 -5.02344 2.23452 0
M  V30 2718 H 244.961 -6.23482 2.69161 0
M  V30 2719 H 242.907 -6.54322 0.468881 0
M  V30 2720 H 242.824 -7.28097 2.03497 0
M  V30 2721 H 244.092 -7.73844 0.937311 0
M  V30 2722 N 248.321 -0.919034 -1.28029 0
M  V30 2723 C 249.568 -0.554934 -1.94748 0
M  V30 2724 C 249.896 0.90231 -1.72304 0
M  V30 2725 O 249.151 1.65767 -1.04018 0
M  V30 2726 C 249.45 -0.816855 -3.4794 0
M  V30 2727 C 249.116 -2.25448 -3.90492 0
M  V30 2728 C 247.778 -2.64752 -4.01821 0
M  V30 2729 C 250.13 -3.18977 -4.12193 0
M  V30 2730 C 247.458 -3.96727 -4.32232 0
M  V30 2731 C 249.81 -4.50523 -4.44086 0
M  V30 2732 C 248.474 -4.89673 -4.53626 0
M  V30 2733 H 247.744 -0.203065 -0.712633 0
M  V30 2734 H 250.391 -1.16136 -1.52265 0
M  V30 2735 H 248.696 -0.127677 -3.91592 0
M  V30 2736 H 250.393 -0.514238 -3.97689 0
M  V30 2737 H 246.983 -1.93952 -3.82205 0
M  V30 2738 H 251.167 -2.89817 -4.02889 0
M  V30 2739 H 246.423 -4.26754 -4.37825 0
M  V30 2740 H 250.597 -5.23005 -4.59825 0
M  V30 2741 H 248.224 -5.91969 -4.76946 0
M  V30 2742 N 249.799 1.42003 -0.683588 0
M  V30 2743 C 251.047 2.01015 -0.209101 0
M  V30 2744 C 251.368 1.54365 1.19149 0
M  V30 2745 O 250.638 0.769083 1.80172 0
M  V30 2746 H 249.218 0.743294 -0.074315 0
M  V30 2747 H 251.88 1.73798 -0.882066 0
M  V30 2748 H 250.976 3.11343 -0.2172 0
M  V30 2749 N 251.277 0.427512 1.51691 0
M  V30 2750 C 252.502 -0.143601 2.06902 0
M  V30 2751 C 252.927 -1.36536 1.29382 0
M  V30 2752 O 252.285 -1.78289 0.329043 0
M  V30 2753 C 252.333 -0.454207 3.57728 0
M  V30 2754 O 251.437 -1.54228 3.82475 0
M  V30 2755 H 250.778 -0.00617128 0.663971 0
M  V30 2756 H 253.308 0.606014 1.95419 0
M  V30 2757 H 253.318 -0.707525 4.01818 0
M  V30 2758 H 251.993 0.438812 4.13579 0
M  V30 2759 H 250.57 -1.2797 3.50254 0
M  V30 2760 N 252.755 -1.56801 0.158532 0
M  V30 2761 C 254.001 -1.97559 -0.483957 0
M  V30 2762 C 254.356 -1.04239 -1.61716 0
M  V30 2763 O 253.649 -0.079603 -1.91435 0
M  V30 2764 C 253.843 -3.4235 -1.02623 0
M  V30 2765 C 253.672 -4.49669 0.0528929 0
M  V30 2766 C 252.442 -5.02838 0.498234 0
M  V30 2767 C 254.64 -5.0725 0.848616 0
M  V30 2768 N 252.622 -5.93775 1.559 0
M  V30 2769 C 253.993 -5.94506 1.7596 0
M  V30 2770 C 256.048 -4.89788 0.895121 0
M  V30 2771 C 254.751 -6.66169 2.71314 0
M  V30 2772 C 256.777 -5.62161 1.83654 0
M  V30 2773 C 256.139 -6.49134 2.73503 0
M  V30 2774 H 252.238 -0.768332 -0.145566 0
M  V30 2775 H 254.822 -1.93012 0.255799 0
M  V30 2776 H 252.993 -3.47467 -1.73555 0
M  V30 2777 H 254.725 -3.70145 -1.63629 0
M  V30 2778 H 251.48 -4.73498 0.0983222 0
M  V30 2779 H 251.904 -6.43948 2.08949 0
M  V30 2780 H 256.546 -4.22255 0.21453 0
M  V30 2781 H 254.264 -7.32923 3.40367 0
M  V30 2782 H 257.85 -5.5064 1.87847 0
M  V30 2783 H 256.73 -7.04153 3.45163 0
M  V30 2784 N 254.233 0.115231 -1.57178 0
M  V30 2785 C 255.461 0.836437 -1.89239 0
M  V30 2786 C 255.876 1.73256 -0.750175 0
M  V30 2787 O 255.233 1.80357 0.278832 0
M  V30 2788 C 255.284 1.66671 -3.20785 0
M  V30 2789 O 255.005 0.806652 -4.3061 0
M  V30 2790 C 256.506 2.49274 -3.66575 0
M  V30 2791 H 253.726 0.240253 -0.626514 0
M  V30 2792 H 256.27 0.0984932 -2.04263 0
M  V30 2793 H 254.425 2.35737 -3.0742 0
M  V30 2794 H 254.839 1.37969 -5.06028 0
M  V30 2795 H 256.313 3.03055 -4.6137 0
M  V30 2796 H 256.79 3.26807 -2.93417 0
M  V30 2797 H 257.396 1.85443 -3.82741 0
M  V30 2798 N 255.711 1.52812 0.385517 0
M  V30 2799 C 256.941 1.71658 1.14966 0
M  V30 2800 C 257.349 0.436253 1.84102 0
M  V30 2801 O 256.692 -0.599313 1.73649 0
M  V30 2802 C 256.754 2.81309 2.23843 0
M  V30 2803 C 256.418 4.22313 1.74644 0
M  V30 2804 C 257.415 5.05352 1.22129 0
M  V30 2805 C 255.1 4.68648 1.80761 0
M  V30 2806 C 257.094 6.32807 0.763838 0
M  V30 2807 C 254.781 5.96086 1.34627 0
M  V30 2808 C 255.779 6.77996 0.825264 0
M  V30 2809 O 255.467 8.03045 0.370669 0
M  V30 2810 H 255.199 0.578022 0.350523 0
M  V30 2811 H 257.753 2.00263 0.456509 0
M  V30 2812 H 255.983 2.48133 2.96592 0
M  V30 2813 H 257.672 2.88524 2.85497 0
M  V30 2814 H 258.438 4.70736 1.16758 0
M  V30 2815 H 254.317 4.04979 2.20256 0
M  V30 2816 H 257.861 6.96689 0.356494 0
M  V30 2817 H 253.758 6.30205 1.39686 0
M  V30 2818 H 254.526 8.17021 0.491829 0
M  V30 2819 N 257.189 -0.644168 1.43834 0
M  V30 2820 C 258.437 -1.40117 1.45642 0
M  V30 2821 C 258.758 -1.94814 0.0852413 0
M  V30 2822 O 258.028 -1.74988 -0.880688 0
M  V30 2823 H 256.608 -0.52005 0.536243 0
M  V30 2824 H 259.27 -0.7591 1.7951 0
M  V30 2825 H 258.366 -2.23902 2.17427 0
M  V30 2826 N 258.668 -1.30515 -0.883378 0
M  V30 2827 C 259.916 -1.19194 -1.63209 0
M  V30 2828 C 260.237 0.253205 -1.93349 0
M  V30 2829 O 259.507 1.17025 -1.57105 0
M  V30 2830 H 258.087 -0.438148 -0.605009 0
M  V30 2831 H 260.749 -1.63663 -1.05832 0
M  V30 2832 H 259.845 -1.75396 -2.58153 0
M  V30 2833 N 260.146 1.09593 -1.13257 0
M  V30 2834 C 261.076 2.18214 -0.830946 0
M  V30 2835 C 262.057 1.68812 0.208966 0
M  V30 2836 O 263.242 1.9408 0.0682666 0
M  V30 2837 C 260.372 3.46051 -0.294296 0
M  V30 2838 C 259.326 4.08778 -1.26826 0
M  V30 2839 C 258.652 5.31419 -0.591449 0
M  V30 2840 C 259.952 4.51476 -2.62615 0
M  V30 2841 H 261.646 2.43703 -1.73923 0
M  V30 2842 H 259.192 1.17128 -0.837675 0
M  V30 2843 H 261.145 4.2134 -0.0709606 0
M  V30 2844 H 259.869 3.20079 0.649366 0
M  V30 2845 H 258.528 3.35505 -1.47756 0
M  V30 2846 H 258.176 5.01727 0.357633 0
M  V30 2847 H 257.876 5.74341 -1.24123 0
M  V30 2848 H 259.4 6.09433 -0.377355 0
M  V30 2849 H 260.814 5.17999 -2.45663 0
M  V30 2850 H 259.211 5.05277 -3.23752 0
M  V30 2851 H 260.281 3.63962 -3.20406 0
M  V30 2852 N 261.624 0.925811 1.2754 0
M  V30 2853 C 262.534 0.428993 2.30644 0
M  V30 2854 C 263.55 -0.489387 1.66976 0
M  V30 2855 O 264.726 -0.372653 1.97922 0
M  V30 2856 C 261.791 -0.311967 3.45294 0
M  V30 2857 C 260.852 0.641098 4.24486 0
M  V30 2858 C 260.085 -0.0645955 5.33661 0
M  V30 2859 O 260.308 -1.28429 5.55754 0
M  V30 2860 O 259.242 0.606265 5.98839 0
M  V30 2861 H 263.068 1.28504 2.75173 0
M  V30 2862 H 260.653 0.691086 1.32455 0
M  V30 2863 H 262.535 -0.729972 4.15029 0
M  V30 2864 H 261.21 -1.14365 3.02824 0
M  V30 2865 H 260.117 1.10874 3.57292 0
M  V30 2866 H 261.45 1.43995 4.70666 0
M  V30 2867 N 263.102 -1.41638 0.69111 0
M  V30 2868 C 264.348 -2.01598 0.220519 0
M  V30 2869 C 264.681 -1.54594 -1.17535 0
M  V30 2870 O 263.956 -0.755177 -1.79241 0
M  V30 2871 C 264.239 -3.59062 0.273243 0
M  V30 2872 C 264.092 -4.16203 1.70573 0
M  V30 2873 C 265.411 -4.38546 -0.369457 0
M  V30 2874 H 262.53 -0.732468 0.0816045 0
M  V30 2875 H 265.172 -1.68445 0.878986 0
M  V30 2876 H 263.322 -3.87435 -0.287411 0
M  V30 2877 H 264.994 -3.98722 2.31989 0
M  V30 2878 H 263.237 -3.71414 2.2413 0
M  V30 2879 H 263.908 -5.25358 1.69419 0
M  V30 2880 H 266.384 -4.1596 0.107977 0
M  V30 2881 H 265.26 -5.48069 -0.302002 0
M  V30 2882 H 265.521 -4.17662 -1.44951 0
M  V30 2883 N 264.58 -0.43555 -1.51462 0
M  V30 2884 C 265.857 0.191364 -1.94662 0
M  V30 2885 C 266.237 1.60254 -1.37411 0
M  V30 2886 O 265.585 2.2152 -0.560458 0
M  V30 2887 C 265.795 0.17091 -3.48581 0
M  V30 2888 C 267.143 0.377357 -4.2292 0
M  V30 2889 O 268.167 0.249104 -3.55328 0
M  V30 2890 O 267.026 0.63247 -5.42828 0
M  V30 2891 H 264.12 0.130932 -0.816569 0
M  V30 2892 H 266.666 -0.4934 -1.62369 0
M  V30 2893 H 265.438 -0.815738 -3.82703 0
M  V30 2894 H 265.061 0.898659 -3.87311 0
M  V30 2895 N 266.058 1.56714 -0.166846 0
M  V30 2896 C 266.988 2.20754 0.760913 0
M  V30 2897 C 267.969 1.16178 1.24244 0
M  V30 2898 O 269.154 1.44592 1.29641 0
M  V30 2899 C 266.284 2.84478 1.99223 0
M  V30 2900 C 265.238 3.95053 1.64672 0
M  V30 2901 C 264.564 4.45805 2.95232 0
M  V30 2902 C 265.864 5.14865 0.878155 0
M  V30 2903 H 267.558 2.98537 0.22713 0
M  V30 2904 H 265.104 1.43596 0.107805 0
M  V30 2905 H 267.057 3.27951 2.64624 0
M  V30 2906 H 265.781 2.04056 2.55007 0
M  V30 2907 H 264.44 3.52228 1.01641 0
M  V30 2908 H 264.088 3.62181 3.49047 0
M  V30 2909 H 263.788 5.204 2.7287 0
M  V30 2910 H 265.312 4.91962 3.6167 0
M  V30 2911 H 266.726 5.55059 1.43466 0
M  V30 2912 H 265.123 5.95348 0.753738 0
M  V30 2913 H 266.193 4.84735 -0.126377 0
M  V30 2914 N 267.536 -0.106894 1.57237 0
M  V30 2915 C 268.468 -1.15646 1.97885 0
M  V30 2916 C 269.481 -1.36981 0.879779 0
M  V30 2917 O 270.67 -1.35841 1.15799 0
M  V30 2918 C 267.77 -2.51425 2.27241 0
M  V30 2919 C 266.943 -2.50529 3.58545 0
M  V30 2920 C 266.002 -3.68145 3.75973 0
M  V30 2921 O 265.028 -3.51176 4.47956 0
M  V30 2922 N 266.23 -4.87177 3.15656 0
M  V30 2923 H 268.995 -0.81059 2.8853 0
M  V30 2924 H 266.556 -0.296024 1.59171 0
M  V30 2925 H 268.548 -3.28689 2.36105 0
M  V30 2926 H 267.118 -2.78147 1.42663 0
M  V30 2927 H 266.338 -1.58894 3.60758 0
M  V30 2928 H 267.626 -2.46997 4.44826 0
M  V30 2929 H 267.024 -5.03868 2.57165 0
M  V30 2930 H 265.581 -5.62075 3.30023 0
M  V30 2931 N 269.014 -1.53014 -0.377408 0
M  V30 2932 C 269.964 -1.74996 -1.46152 0
M  V30 2933 C 270.948 -0.604236 -1.49123 0
M  V30 2934 O 272.14 -0.862489 -1.54564 0
M  V30 2935 C 269.269 -1.93267 -2.8373 0
M  V30 2936 C 268.355 -3.13807 -2.85283 0
M  V30 2937 N 268.746 -4.35941 -2.56493 0
M  V30 2938 C 267.044 -3.14288 -3.16448 0
M  V30 2939 C 267.745 -5.17615 -2.65424 0
M  V30 2940 N 266.721 -4.53559 -2.99641 0
M  V30 2941 H 270.523 -2.67044 -1.22738 0
M  V30 2942 H 268.037 -1.51479 -0.585479 0
M  V30 2943 H 270.034 -2.0714 -3.61799 0
M  V30 2944 H 268.694 -1.0244 -3.08117 0
M  V30 2945 H 269.705 -4.63876 -2.30302 0
M  V30 2946 H 266.382 -2.33312 -3.46225 0
M  V30 2947 H 267.772 -6.25006 -2.46612 0
M  V30 2948 N 270.492 0.636531 -1.44174 0
M  V30 2949 C 271.908 0.954104 -1.27941 0
M  V30 2950 C 272.108 2.0039 -0.211248 0
M  V30 2951 O 271.164 2.49236 0.404695 0
M  V30 2952 C 272.477 1.4225 -2.64925 0
M  V30 2953 C 274.025 1.53827 -2.72592 0
M  V30 2954 C 274.5 2.04053 -4.10032 0
M  V30 2955 N 275.991 2.11331 -4.12182 0
M  V30 2956 C 276.726 2.51352 -5.15374 0
M  V30 2957 N 276.222 2.90549 -6.2893 0
M  V30 2958 N 278.015 2.51438 -5.02728 0
M  V30 2959 H 270.166 -0.0578386 -2.12321 0
M  V30 2960 H 272.429 0.0367406 -0.947288 0
M  V30 2961 H 272.135 0.725466 -3.44136 0
M  V30 2962 H 272.009 2.39451 -2.9145 0
M  V30 2963 H 274.396 2.22628 -1.93702 0
M  V30 2964 H 274.477 0.550154 -2.49814 0
M  V30 2965 H 274.121 1.35848 -4.89395 0
M  V30 2966 H 274.051 3.03726 -4.30184 0
M  V30 2967 H 276.542 1.83745 -3.30222 0
M  V30 2968 H 276.855 3.19884 -7.03487 0
M  V30 2969 H 275.2 2.88313 -6.32377 0
M  V30 2970 H 278.391 2.20203 -4.13072 0
M  V30 2971 H 278.564 2.82304 -5.83274 0
M  V30 2972 N 271.97 1.30982 0.876444 0
M  V30 2973 C 273.247 1.10942 1.61094 0
M  V30 2974 C 273.627 -0.338223 2.08373 0
M  V30 2975 O 272.975 -1.33122 1.85717 0
M  V30 2976 C 273.185 2.11789 2.77392 0
M  V30 2977 C 274.533 2.43965 3.47514 0
M  V30 2978 O 275.557 2.10166 2.87591 0
M  V30 2979 O 274.416 3.01817 4.55597 0
M  V30 2980 H 271.51 0.42667 0.708436 0
M  V30 2981 H 274.056 1.42438 0.922474 0
M  V30 2982 H 272.828 3.09194 2.39823 0
M  V30 2983 H 272.451 1.81161 3.5393 0
M  V30 2984 N 273.449 -1.08991 1.13837 0
M  V30 2985 C 274.396 -2.15748 0.819835 0
M  V30 2986 C 275.366 -1.64636 -0.220026 0
M  V30 2987 O 276.551 -1.90582 -0.0912757 0
M  V30 2988 C 273.691 -3.4382 0.296913 0
M  V30 2989 C 272.804 -4.0881 1.39636 0
M  V30 2990 C 271.939 -5.24655 0.831314 0
M  V30 2991 C 270.978 -5.81575 1.90886 0
M  V30 2992 N 270.115 -6.88774 1.36142 0
M  V30 2993 H 274.955 -2.42338 1.73426 0
M  V30 2994 H 272.492 -1.18935 0.865613 0
M  V30 2995 H 274.45 -4.17193 -0.0244339 0
M  V30 2996 H 273.08 -3.17535 -0.580628 0
M  V30 2997 H 272.132 -3.33258 1.83422 0
M  V30 2998 H 273.444 -4.47141 2.21058 0
M  V30 2999 H 272.598 -6.04942 0.461515 0
M  V30 3000 H 271.337 -4.87698 -0.013932 0
M  V30 3001 H 270.342 -4.99946 2.28767 0
M  V30 3002 H 271.567 -6.20592 2.75758 0
M  V30 3003 H 269.513 -6.53788 0.538254 0
M  V30 3004 H 269.43 -7.25898 2.11208 0
M  V30 3005 H 270.698 -7.72806 1.01933 0
M  V30 3006 N 274.927 -0.932562 -1.27047 0
M  V30 3007 C 275.877 -0.406392 -2.24349 0
M  V30 3008 C 276.861 0.492066 -1.53191 0
M  V30 3009 O 278.053 0.328717 -1.73921 0
M  V30 3010 C 275.182 0.335214 -3.41659 0
M  V30 3011 C 274.268 -0.58004 -4.20115 0
M  V30 3012 N 274.659 -1.70203 -4.76303 0
M  V30 3013 C 272.957 -0.383974 -4.44344 0
M  V30 3014 C 273.658 -2.27167 -5.35509 0
M  V30 3015 N 272.634 -1.56068 -5.20715 0
M  V30 3016 H 276.436 -1.26299 -2.65378 0
M  V30 3017 H 273.95 -0.787408 -1.42034 0
M  V30 3018 H 275.947 0.729142 -4.10474 0
M  V30 3019 H 274.607 1.18868 -3.0216 0
M  V30 3020 H 275.618 -2.08433 -4.74106 0
M  V30 3021 H 272.295 0.428436 -4.15296 0
M  V30 3022 H 273.685 -3.21654 -5.89905 0
M  V30 3023 N 276.405 1.4127 -0.698611 0
M  V30 3024 C 277.335 2.33447 -0.049629 0
M  V30 3025 C 278.316 1.51982 0.763898 0
M  V30 3026 O 279.501 1.80509 0.716257 0
M  V30 3027 C 276.631 3.35828 0.885267 0
M  V30 3028 C 275.585 4.27627 0.178613 0
M  V30 3029 C 274.911 5.20406 1.22807 0
M  V30 3030 C 276.211 5.13459 -0.956933 0
M  V30 3031 H 277.905 2.87966 -0.81951 0
M  V30 3032 H 275.451 1.38461 -0.395538 0
M  V30 3033 H 277.404 3.9924 1.34854 0
M  V30 3034 H 276.128 2.79666 1.68685 0
M  V30 3035 H 274.787 3.65643 -0.26466 0
M  V30 3036 H 274.435 4.60558 2.02226 0
M  V30 3037 H 274.135 5.82661 0.760239 0
M  V30 3038 H 275.659 5.86695 1.69179 0
M  V30 3039 H 277.073 5.70421 -0.573805 0
M  V30 3040 H 275.47 5.8467 -1.35205 0
M  V30 3041 H 276.54 4.50443 -1.79524 0
M  V30 3042 N 277.883 0.443576 1.51229 0
M  V30 3043 C 278.793 -0.370721 2.31652 0
M  V30 3044 C 279.809 -1.02186 1.40833 0
M  V30 3045 O 280.985 -1.01586 1.73903 0
M  V30 3046 C 278.05 -1.45376 3.14749 0
M  V30 3047 C 277.111 -0.822099 4.21355 0
M  V30 3048 C 276.344 -1.85353 5.0048 0
M  V30 3049 O 276.567 -3.07656 4.80316 0
M  V30 3050 O 275.501 -1.4406 5.84406 0
M  V30 3051 H 279.327 0.286002 3.0235 0
M  V30 3052 H 276.912 0.20598 1.47973 0
M  V30 3053 H 278.794 -2.08173 3.66391 0
M  V30 3054 H 277.469 -2.09445 2.46809 0
M  V30 3055 H 276.376 -0.155909 3.73775 0
M  V30 3056 H 277.709 -0.224797 4.91686 0
M  V30 3057 N 279.361 -1.56624 0.175154 0
M  V30 3058 C 280.308 -2.18149 -0.753634 0
M  V30 3059 C 281.278 -1.12265 -1.22417 0
M  V30 3060 O 282.463 -1.40432 -1.29165 0
M  V30 3061 C 279.603 -2.82933 -1.97592 0
M  V30 3062 C 278.716 -4.03289 -1.5486 0
M  V30 3063 C 277.851 -4.55988 -2.72485 0
M  V30 3064 C 276.89 -5.68746 -2.26262 0
M  V30 3065 N 276.027 -6.15938 -3.36994 0
M  V30 3066 H 280.867 -2.9717 -0.222195 0
M  V30 3067 H 278.404 -1.46774 -0.0979422 0
M  V30 3068 H 280.362 -3.18653 -2.69288 0
M  V30 3069 H 278.992 -2.06509 -2.481 0
M  V30 3070 H 278.044 -3.73364 -0.728246 0
M  V30 3071 H 279.356 -4.849 -1.16933 0
M  V30 3072 H 278.51 -4.9391 -3.52332 0
M  V30 3073 H 277.249 -3.73443 -3.13674 0
M  V30 3074 H 276.254 -5.30372 -1.44863 0
M  V30 3075 H 277.479 -6.53095 -1.86127 0
M  V30 3076 H 275.425 -5.36321 -3.77751 0
M  V30 3077 H 275.342 -6.92548 -3.03172 0
M  V30 3078 H 276.61 -6.58511 -4.17114 0
M  V30 3079 N 280.839 0.0985539 -1.57292 0
M  V30 3080 C 281.749 1.13824 -2.05137 0
M  V30 3081 C 282.765 1.44076 -0.975604 0
M  V30 3082 O 283.941 1.54786 -1.28853 0
M  V30 3083 C 281.006 2.43969 -2.46333 0
M  V30 3084 C 280.067 2.2093 -3.68087 0
M  V30 3085 C 279.3 3.44869 -4.0731 0
M  V30 3086 O 279.523 4.52972 -3.46659 0
M  V30 3087 O 278.457 3.34661 -5.00285 0
M  V30 3088 H 282.283 0.761881 -2.93988 0
M  V30 3089 H 279.868 0.310818 -1.46131 0
M  V30 3090 H 281.75 3.20609 -2.73473 0
M  V30 3091 H 280.425 2.81038 -1.60621 0
M  V30 3092 H 279.332 1.42081 -3.46069 0
M  V30 3093 H 280.665 1.88755 -4.54568 0
M  V30 3094 N 282.317 1.53212 0.369288 0
M  V30 3095 C 283.566 1.68436 1.10961 0
M  V30 3096 C 283.879 0.440738 1.9057 0
M  V30 3097 O 285.085 0.473446 2.6734 0
M  V30 3098 C 283.541 2.97744 2.0218 0
M  V30 3099 C 283.149 4.29355 1.279 0
M  V30 3100 C 284.893 3.22334 2.76226 0
M  V30 3101 C 282.8 5.49755 2.17999 0
M  V30 3102 H 281.73 0.627568 0.41794 0
M  V30 3103 H 284.381 1.79713 0.370884 0
M  V30 3104 H 282.763 2.8026 2.79768 0
M  V30 3105 H 283.937 4.57458 0.554007 0
M  V30 3106 H 282.252 4.11179 0.657311 0
M  V30 3107 H 284.849 4.09471 3.43857 0
M  V30 3108 H 285.192 2.38238 3.41392 0
M  V30 3109 H 285.725 3.40475 2.05723 0
M  V30 3110 H 282.464 6.36318 1.57417 0
M  V30 3111 H 281.984 5.25937 2.88359 0
M  V30 3112 H 283.663 5.84401 2.77641 0
M  V30 3113 N 283.795 -0.628877 1.44509 0
M  V30 3114 C 284.705 -1.7694 1.54044 0
M  V30 3115 C 285.721 -1.68705 0.425987 0
M  V30 3116 O 286.897 -1.89442 0.683656 0
M  V30 3117 C 283.962 -3.13332 1.48405 0
M  V30 3118 C 283.023 -3.33181 2.70719 0
M  V30 3119 C 282.256 -4.63067 2.6534 0
M  V30 3120 O 282.479 -5.44017 1.71469 0
M  V30 3121 O 281.413 -4.85167 3.56226 0
M  V30 3122 H 285.239 -1.71848 2.50403 0
M  V30 3123 H 282.824 -0.790378 1.26781 0
M  V30 3124 H 284.706 -3.94634 1.47791 0
M  V30 3125 H 283.381 -3.1896 0.551898 0
M  V30 3126 H 282.288 -2.51549 2.769 0
M  V30 3127 H 283.621 -3.32416 3.62988 0
M  V30 3128 N 285.273 -1.31445 -0.869486 0
M  V30 3129 C 286.183 -1.21097 -2.0093 0
M  V30 3130 C 287.199 -0.127584 -1.73532 0
M  V30 3131 O 288.375 -0.345477 -1.98415 0
M  V30 3132 C 285.44 -0.919378 -3.34288 0
M  V30 3133 C 284.501 -2.08971 -3.75006 0
M  V30 3134 C 283.734 -1.81194 -5.02001 0
M  V30 3135 O 283.957 -0.747296 -5.65484 0
M  V30 3136 O 282.891 -2.66883 -5.39497 0
M  V30 3137 H 286.717 -2.16883 -2.12592 0
M  V30 3138 H 284.302 -1.11189 -0.997868 0
M  V30 3139 H 286.184 -0.772625 -4.14257 0
M  V30 3140 H 284.859 0.00844772 -3.23699 0
M  V30 3141 H 283.766 -2.29187 -2.95676 0
M  V30 3142 H 285.099 -2.9998 -3.90221 0
M  V30 3143 N 286.751 1.08385 -1.14413 0
M  V30 3144 C 288.028 1.77429 -0.823297 0
M  V30 3145 C 288.408 1.9974 0.683163 0
M  V30 3146 O 287.756 1.60739 1.62405 0
M  V30 3147 C 287.966 3.09004 -1.62227 0
M  V30 3148 C 289.314 3.83532 -1.82177 0
M  V30 3149 O 290.338 3.18786 -1.58915 0
M  V30 3150 O 289.197 4.99792 -2.21067 0
M  V30 3151 H 286.291 0.769999 -0.301712 0
M  V30 3152 H 288.837 1.14846 -1.24934 0
M  V30 3153 H 287.609 2.88316 -2.64555 0
M  V30 3154 H 287.232 3.79316 -1.19187 0
M  V30 3155 N 288.23 0.939286 1.26551 0
M  V30 3156 C 289.476 0.586715 1.94128 0
M  V30 3157 C 289.809 -0.8717 1.73537 0
M  V30 3158 O 289.084 -1.62339 1.07127 0
M  V30 3159 C 289.367 0.927497 3.4795 0
M  V30 3160 C 289.22 2.44052 3.77834 0
M  V30 3161 C 290.539 0.441569 4.37879 0
M  V30 3162 H 287.658 0.21463 0.705055 0
M  V30 3163 H 290.3 1.17316 1.49455 0
M  V30 3164 H 288.45 0.428431 3.8613 0
M  V30 3165 H 290.122 3.01216 3.4938 0
M  V30 3166 H 288.365 2.8848 3.23978 0
M  V30 3167 H 289.036 2.62947 4.85348 0
M  V30 3168 H 291.512 0.869448 4.06915 0
M  V30 3169 H 290.388 0.708856 5.44304 0
M  V30 3170 H 290.649 -0.658467 4.37169 0
M  V30 3171 N 289.708 -1.40897 0.706093 0
M  V30 3172 C 290.618 -2.3455 0.0482286 0
M  V30 3173 C 291.634 -1.56796 -0.754396 0
M  V30 3174 O 292.81 -1.89228 -0.689538 0
M  V30 3175 C 289.875 -3.35625 -0.869303 0
M  V30 3176 C 288.936 -4.29261 -0.0576994 0
M  V30 3177 C 288.169 -5.25508 -0.931531 0
M  V30 3178 O 288.392 -5.27472 -2.17092 0
M  V30 3179 O 287.326 -6.00727 -0.375587 0
M  V30 3180 H 291.152 -2.92407 0.820476 0
M  V30 3181 H 288.737 -1.4193 0.4665 0
M  V30 3182 H 290.619 -3.97635 -1.39514 0
M  V30 3183 H 289.294 -2.80196 -1.62086 0
M  V30 3184 H 288.201 -3.70566 0.512988 0
M  V30 3185 H 289.534 -4.87817 0.655426 0
M  V30 3186 N 291.186 -0.45159 -1.50991 0
M  V30 3187 C 292.434 0.109857 -2.01801 0
M  V30 3188 C 292.755 1.41958 -1.3369 0
M  V30 3189 O 292.025 1.9003 -0.475951 0
M  V30 3190 H 290.605 0.0435884 -0.745727 0
M  V30 3191 H 293.267 -0.597557 -1.85514 0
M  V30 3192 H 292.363 0.275489 -3.10882 0
M  V30 3193 N 292.664 1.56529 -0.183458 0
M  V30 3194 C 293.91 1.97537 0.459036 0
M  V30 3195 C 294.243 1.06989 1.62071 0
M  V30 3196 O 293.518 0.11948 1.94133 0
M  V30 3197 C 293.801 3.47874 0.930368 0
M  V30 3198 C 293.654 4.492 -0.232317 0
M  V30 3199 C 294.973 4.01612 1.79989 0
M  V30 3200 H 292.092 0.718204 0.165383 0
M  V30 3201 H 294.734 1.88042 -0.272038 0
M  V30 3202 H 292.884 3.56095 1.55333 0
M  V30 3203 H 294.556 4.53027 -0.86972 0
M  V30 3204 H 292.799 4.24657 -0.885928 0
M  V30 3205 H 293.47 5.51823 0.139796 0
M  V30 3206 H 295.946 3.96097 1.27461 0
M  V30 3207 H 294.822 5.07195 2.09867 0
M  V30 3208 H 295.083 3.46163 2.74998 0
M  V30 3209 N 294.142 -0.090211 1.57342 0
M  V30 3210 C 295.419 -0.824761 1.77361 0
M  V30 3211 C 295.799 -1.96698 0.76637 0
M  V30 3212 O 295.147 -2.27586 -0.204179 0
M  V30 3213 C 295.357 -1.31481 3.23286 0
M  V30 3214 C 296.705 -1.75563 3.86604 0
M  V30 3215 O 297.729 -1.41093 3.27065 0
M  V30 3216 O 296.588 -2.39317 4.91314 0
M  V30 3217 H 293.682 -0.393776 0.727234 0
M  V30 3218 H 296.228 -0.0717138 1.69548 0
M  V30 3219 H 295 -0.496671 3.88135 0
M  V30 3220 H 294.623 -2.12973 3.35751 0
M  V30 3221 N 295.62 -1.53406 -0.361157 0
M  V30 3222 C 296.868 -1.69467 -1.10115 0
M  V30 3223 C 297.189 -0.451352 -1.89705 0
M  V30 3224 O 296.459 0.534636 -1.88463 0
M  V30 3225 H 295.039 -0.624749 -0.409508 0
M  V30 3226 H 297.701 -1.90609 -0.406699 0
M  V30 3227 H 296.797 -2.55774 -1.78847 0
M  V30 3228 N 297.098 0.621204 -1.44841 0
M  V30 3229 C 298.509 1.20298 -1.42777 0
M  V30 3230 C 298.86 1.95639 -0.148259 0
M  V30 3231 O 297.985 2.02955 0.750892 0
M  V30 3232 C 298.58 2.1882 -2.58657 0
M  V30 3233 C 297.139 2.72403 -2.59756 0
M  V30 3234 C 296.286 1.4757 -2.34773 0
M  V30 3235 H 299.237 0.411297 -1.53278 0
M  V30 3236 H 299.258 3.01607 -2.31977 0
M  V30 3237 H 298.77 1.63957 -3.51766 0
M  V30 3238 H 296.871 3.31242 -1.70615 0
M  V30 3239 H 296.984 3.17765 -3.58556 0
M  V30 3240 H 295.348 1.76051 -1.8406 0
M  V30 3241 H 296.131 0.945954 -3.3001 0
M  V30 3242 N 298.576 1.31904 0.862503 0
M  V30 3243 C 299.804 1.24998 1.64873 0
M  V30 3244 C 300.219 -0.183425 1.87907 0
M  V30 3245 O 299.576 -1.11794 1.44251 0
M  V30 3246 C 299.627 1.99829 3.01248 0
M  V30 3247 O 299.348 3.37575 2.79239 0
M  V30 3248 C 300.849 1.99852 3.95694 0
M  V30 3249 H 298.069 0.431599 0.513773 0
M  V30 3250 H 300.613 1.73901 1.07604 0
M  V30 3251 H 298.768 1.54668 3.55185 0
M  V30 3252 H 299.182 3.75776 3.65914 0
M  V30 3253 H 300.656 2.56709 4.88676 0
M  V30 3254 H 301.133 0.982852 4.28062 0
M  V30 3255 H 301.739 2.44926 3.47694 0
M  V30 3256 N 300.054 -1.07777 1.14986 0
M  V30 3257 C 301.001 -2.14867 0.842672 0
M  V30 3258 C 301.971 -1.6486 -0.202552 0
M  V30 3259 O 303.156 -1.90668 -0.0710568 0
M  V30 3260 C 300.296 -3.43486 0.333363 0
M  V30 3261 C 299.409 -4.07306 1.43965 0
M  V30 3262 C 298.544 -5.23744 0.886914 0
M  V30 3263 C 297.583 -5.79517 1.97043 0
M  V30 3264 N 296.72 -6.87291 1.4344 0
M  V30 3265 H 301.56 -2.40485 1.75986 0
M  V30 3266 H 299.097 -1.1801 0.878179 0
M  V30 3267 H 301.055 -4.17195 0.0198163 0
M  V30 3268 H 299.685 -3.18133 -0.546916 0
M  V30 3269 H 298.737 -3.31293 1.86946 0
M  V30 3270 H 300.049 -4.44771 2.25788 0
M  V30 3271 H 299.203 -6.04419 0.525651 0
M  V30 3272 H 297.942 -4.87685 0.0377957 0
M  V30 3273 H 296.947 -4.97491 2.34057 0
M  V30 3274 H 298.172 -6.17632 2.82325 0
M  V30 3275 H 296.118 -6.5318 0.607567 0
M  V30 3276 H 296.035 -7.23617 2.18895 0
M  V30 3277 H 297.303 -7.71682 1.10124 0
M  V30 3278 N 301.532 -0.945985 -1.26051 0
M  V30 3279 C 302.442 -0.465633 -2.29933 0
M  V30 3280 C 303.458 0.462761 -1.67733 0
M  V30 3281 O 304.634 0.341118 -1.9849 0
M  V30 3282 C 301.699 0.256994 -3.45746 0
M  V30 3283 C 300.76 -0.708549 -4.23412 0
M  V30 3284 C 299.993 -0.0203135 -5.33696 0
M  V30 3285 O 300.216 1.19571 -5.57726 0
M  V30 3286 O 299.15 -0.701459 -5.97799 0
M  V30 3287 H 302.976 -1.32866 -2.73094 0
M  V30 3288 H 300.561 -0.712071 -1.31339 0
M  V30 3289 H 302.443 0.663852 -4.16138 0
M  V30 3290 H 301.118 1.09533 -3.04605 0
M  V30 3291 H 300.025 -1.16545 -3.55483 0
M  V30 3292 H 301.358 -1.51465 -4.68315 0
M  V30 3293 N 303.011 1.40521 -0.713556 0
M  V30 3294 C 304.26 2.00155 -0.249192 0
M  V30 3295 C 304.573 1.57224 1.16362 0
M  V30 3296 O 305.779 2.09542 1.72639 0
M  V30 3297 C 304.235 3.5773 -0.3946 0
M  V30 3298 C 303.843 4.09635 -1.81392 0
M  V30 3299 C 305.587 4.24499 0.00907364 0
M  V30 3300 C 303.494 5.59707 -1.91003 0
M  V30 3301 H 302.424 0.74868 -0.0894114 0
M  V30 3302 H 305.075 1.60784 -0.884352 0
M  V30 3303 H 303.457 3.94792 0.30911 0
M  V30 3304 H 304.631 3.83955 -2.54785 0
M  V30 3305 H 302.946 3.55456 -2.16888 0
M  V30 3306 H 305.543 5.34683 -0.0420404 0
M  V30 3307 H 305.886 4.02824 1.05065 0
M  V30 3308 H 306.419 3.92536 -0.645007 0
M  V30 3309 H 303.158 5.86234 -2.93275 0
M  V30 3310 H 302.678 5.87258 -1.22019 0
M  V30 3311 H 304.357 6.24776 -1.6812 0
M  V30 3312 N 304.489 0.459591 1.5075 0
M  V30 3313 C 305.735 -0.0994966 2.02556 0
M  V30 3314 C 306.068 -1.40399 1.3417 0
M  V30 3315 O 305.343 -1.88892 0.463683 0
M  V30 3316 C 305.626 -0.295242 3.58888 0
M  V30 3317 C 305.479 1.02947 4.37861 0
M  V30 3318 C 306.798 -1.05502 4.27267 0
M  V30 3319 H 303.917 -0.034686 0.736183 0
M  V30 3320 H 306.559 0.602938 1.8018 0
M  V30 3321 H 304.709 -0.893563 3.78084 0
M  V30 3322 H 306.381 1.66348 4.30263 0
M  V30 3323 H 304.624 1.62885 4.02058 0
M  V30 3324 H 305.295 0.846281 5.45474 0
M  V30 3325 H 307.771 -0.547993 4.12476 0
M  V30 3326 H 306.647 -1.16077 5.36486 0
M  V30 3327 H 306.908 -2.08875 3.89645 0
M  V30 3328 N 305.967 -1.56429 0.191757 0
M  V30 3329 C 307.213 -1.98541 -0.441943 0
M  V30 3330 C 307.568 -1.07646 -1.59468 0
M  V30 3331 O 306.861 -0.120191 -1.91223 0
M  V30 3332 C 307.055 -3.44449 -0.953384 0
M  V30 3333 C 306.884 -4.49456 0.148262 0
M  V30 3334 C 305.654 -5.01668 0.604781 0
M  V30 3335 C 307.852 -5.05336 0.95602 0
M  V30 3336 N 305.834 -5.90334 1.6846 0
M  V30 3337 C 307.205 -5.9064 1.88531 0
M  V30 3338 C 309.26 -4.87779 0.998811 0
M  V30 3339 C 307.963 -6.60264 2.85383 0
M  V30 3340 C 309.989 -5.58139 1.95537 0
M  V30 3341 C 309.351 -6.43187 2.8721 0
M  V30 3342 H 305.45 -0.771247 -0.129236 0
M  V30 3343 H 308.034 -1.92426 0.296682 0
M  V30 3344 H 306.205 -3.5107 -1.66146 0
M  V30 3345 H 307.937 -3.73533 -1.55741 0
M  V30 3346 H 304.692 -4.73183 0.198736 0
M  V30 3347 H 305.116 -6.39371 2.22561 0
M  V30 3348 H 309.758 -4.21705 0.304048 0
M  V30 3349 H 307.476 -7.25538 3.55837 0
M  V30 3350 H 311.062 -5.46532 1.99484 0
M  V30 3351 H 309.942 -6.96674 3.60022 0
M  V30 3352 N 307.445 0.0818655 -1.57387 0
M  V30 3353 C 308.691 0.784074 -1.8703 0
M  V30 3354 C 309.024 1.77729 -0.782689 0
M  V30 3355 O 308.299 1.93384 0.208051 0
M  V30 3356 C 308.582 1.50105 -3.27323 0
M  V30 3357 C 308.435 0.524925 -4.46727 0
M  V30 3358 C 309.754 2.44843 -3.65705 0
M  V30 3359 H 306.873 0.283582 -0.680257 0
M  V30 3360 H 309.515 0.0474352 -1.89941 0
M  V30 3361 H 307.665 2.12897 -3.24972 0
M  V30 3362 H 309.337 -0.0970111 -4.61198 0
M  V30 3363 H 307.58 -0.160606 -4.33503 0
M  V30 3364 H 308.251 1.064 -5.41648 0
M  V30 3365 H 310.727 1.92135 -3.69085 0
M  V30 3366 H 309.603 2.92018 -4.64776 0
M  V30 3367 H 309.864 3.29197 -2.95096 0
M  V30 3368 N 308.923 1.53595 0.353017 0
M  V30 3369 C 310.169 1.70638 1.09593 0
M  V30 3370 C 310.502 0.463286 1.88593 0
M  V30 3371 O 309.777 -0.539597 1.86865 0
M  V30 3372 C 310.06 2.96406 2.04489 0
M  V30 3373 C 309.913 4.30901 1.29014 0
M  V30 3374 C 311.232 3.17812 3.0444 0
M  V30 3375 H 308.351 0.620913 0.397034 0
M  V30 3376 H 310.993 1.86254 0.375446 0
M  V30 3377 H 309.143 2.83223 2.65927 0
M  V30 3378 H 310.815 4.55917 0.702638 0
M  V30 3379 H 309.058 4.29741 0.592071 0
M  V30 3380 H 309.729 5.1506 1.98537 0
M  V30 3381 H 312.205 3.30263 2.53112 0
M  V30 3382 H 311.081 4.07223 3.6805 0
M  V30 3383 H 311.342 2.33669 3.75301 0
M  V30 3384 N 310.401 -0.613514 1.45168 0
M  V30 3385 C 311.678 -1.37263 1.39349 0
M  V30 3386 C 312.058 -2.11012 0.0610848 0
M  V30 3387 O 311.406 -2.07502 -0.956825 0
M  V30 3388 C 311.616 -2.3244 2.60332 0
M  V30 3389 C 312.964 -2.9523 3.05163 0
M  V30 3390 O 313.988 -2.42762 2.60663 0
M  V30 3391 O 312.847 -3.90454 3.82372 0
M  V30 3392 H 309.941 -0.615188 0.552696 0
M  V30 3393 H 312.487 -0.637097 1.57287 0
M  V30 3394 H 311.259 -1.77164 3.48896 0
M  V30 3395 H 310.882 -3.13383 2.44698 0
M  V30 3396 N 311.879 -1.3236 -0.855495 0
M  V30 3397 C 313.295 -1.11332 -1.14356 0
M  V30 3398 C 313.495 0.106751 -2.01217 0
M  V30 3399 O 312.551 0.791891 -2.39761 0
M  V30 3400 C 313.864 -2.39237 -1.82171 0
M  V30 3401 C 315.412 -2.44986 -1.9481 0
M  V30 3402 C 315.887 -3.7281 -2.66039 0
M  V30 3403 N 317.378 -3.73787 -2.73565 0
M  V30 3404 C 318.113 -4.69394 -3.29327 0
M  V30 3405 N 317.609 -5.75367 -3.85907 0
M  V30 3406 N 319.402 -4.56893 -3.27423 0
M  V30 3407 H 311.553 -2.10586 -0.277027 0
M  V30 3408 H 313.816 -0.929701 -0.185364 0
M  V30 3409 H 313.522 -3.28431 -1.25802 0
M  V30 3410 H 313.396 -2.50134 -2.82335 0
M  V30 3411 H 315.783 -1.56252 -2.50338 0
M  V30 3412 H 315.864 -2.38043 -0.936448 0
M  V30 3413 H 315.508 -4.61918 -2.11174 0
M  V30 3414 H 315.438 -3.77024 -3.67642 0
M  V30 3415 H 317.929 -2.97189 -2.33424 0
M  V30 3416 H 318.242 -6.44378 -4.26611 0
M  V30 3417 H 316.587 -5.79123 -3.84242 0
M  V30 3418 H 319.778 -3.73269 -2.82467 0
M  V30 3419 H 319.951 -5.31577 -3.7058 0
M  V30 3420 N 313.357 1.07166 -1.15556 0
M  V30 3421 C 314.605 1.79443 -0.929764 0
M  V30 3422 C 314.926 1.87246 0.544414 0
M  V30 3423 O 314.196 1.37473 1.39564 0
M  V30 3424 H 312.776 0.664625 -0.341003 0
M  V30 3425 H 315.438 1.29499 -1.45657 0
M  V30 3426 H 314.534 2.81832 -1.34079 0
M  V30 3427 N 314.835 0.952656 1.25548 0
M  V30 3428 C 316.084 0.602053 1.92505 0
M  V30 3429 C 316.397 -0.864663 1.75451 0
M  V30 3430 O 317.603 -1.32514 2.36965 0
M  V30 3431 C 316.059 1.02607 3.44963 0
M  V30 3432 C 315.667 2.51519 3.70732 0
M  V30 3433 C 317.411 0.747905 4.1786 0
M  V30 3434 C 315.318 2.87732 5.16686 0
M  V30 3435 H 314.248 0.22146 0.720744 0
M  V30 3436 H 316.899 1.15684 1.42441 0
M  V30 3437 H 315.281 0.399712 3.93978 0
M  V30 3438 H 316.455 3.19157 3.32378 0
M  V30 3439 H 314.77 2.76786 3.11092 0
M  V30 3440 H 317.367 0.994647 5.25367 0
M  V30 3441 H 317.71 -0.315629 4.15102 0
M  V30 3442 H 318.243 1.33452 3.74747 0
M  V30 3443 H 314.982 3.93095 5.24554 0
M  V30 3444 H 314.502 2.24765 5.56094 0
M  V30 3445 H 316.181 2.76817 5.84792 0
M  V30 3446 N 316.313 -1.40141 0.720998 0
M  V30 3447 C 317.59 -1.94677 0.189757 0
M  V30 3448 C 317.97 -1.65879 -1.30566 0
M  V30 3449 O 317.318 -0.979391 -2.06447 0
M  V30 3450 C 317.528 -3.45279 0.508304 0
M  V30 3451 C 318.876 -4.22209 0.449934 0
M  V30 3452 O 319.9 -3.53413 0.444677 0
M  V30 3453 O 318.759 -5.44788 0.432189 0
M  V30 3454 H 315.853 -0.826459 0.0299026 0
M  V30 3455 H 318.399 -1.49719 0.7989 0
M  V30 3456 H 317.171 -3.59619 1.54239 0
M  V30 3457 H 316.794 -3.97386 -0.130525 0
M  V30 3458 N 317.792 -0.46758 -1.50504 0
M  V30 3459 C 318.722 0.318381 -2.31319 0
M  V30 3460 C 319.703 0.993564 -1.38066 0
M  V30 3461 O 320.888 0.991411 -1.66987 0
M  V30 3462 C 318.018 1.40275 -3.17711 0
M  V30 3463 C 316.972 0.849373 -4.19487 0
M  V30 3464 C 316.298 2.03177 -4.94594 0
M  V30 3465 C 317.598 -0.136942 -5.2212 0
M  V30 3466 H 319.292 -0.356106 -2.97275 0
M  V30 3467 H 316.838 -0.172703 -1.42961 0
M  V30 3468 H 318.791 1.96004 -3.73042 0
M  V30 3469 H 317.515 2.10596 -2.49634 0
M  V30 3470 H 316.174 0.314076 -3.65252 0
M  V30 3471 H 315.822 2.72187 -4.22993 0
M  V30 3472 H 315.522 1.66774 -5.63436 0
M  V30 3473 H 317.046 2.59403 -5.52759 0
M  V30 3474 H 318.46 0.331056 -5.72343 0
M  V30 3475 H 316.857 -0.41507 -5.98663 0
M  V30 3476 H 317.927 -1.06398 -4.73083 0
M  V30 3477 N 319.27 1.56325 -0.20005 0
M  V30 3478 C 320.495 2.02548 0.44597 0
M  V30 3479 C 320.92 1.07922 1.5406 0
M  V30 3480 O 320.278 0.0635775 1.81188 0
M  V30 3481 C 320.326 3.47175 0.974761 0
M  V30 3482 O 319.43 3.55671 2.08739 0
M  V30 3483 H 318.771 0.655862 0.103638 0
M  V30 3484 H 321.301 2.02201 -0.312381 0
M  V30 3485 H 321.311 3.87067 1.2901 0
M  V30 3486 H 319.986 4.15538 0.17347 0
M  V30 3487 H 318.563 3.27657 1.78032 0
M  V30 3488 N 320.748 -0.0735177 1.57428 0
M  V30 3489 C 322.025 -0.805903 1.78226 0
M  V30 3490 C 322.405 -1.95874 0.787189 0
M  V30 3491 O 321.753 -2.2779 -0.180029 0
M  V30 3492 C 321.963 -1.28045 3.24662 0
M  V30 3493 C 323.311 -1.71453 3.88444 0
M  V30 3494 O 324.335 -1.37616 3.28543 0
M  V30 3495 O 323.194 -2.34093 4.93825 0
M  V30 3496 H 320.288 -0.386041 0.73137 0
M  V30 3497 H 322.834 -0.0537269 1.69615 0
M  V30 3498 H 321.606 -0.455476 3.8864 0
M  V30 3499 H 321.229 -2.094 3.37991 0
M  V30 3500 N 322.226 -1.5378 -0.344866 0
M  V30 3501 C 323.456 -1.74646 -1.10374 0
M  V30 3502 C 323.864 -0.48491 -1.8288 0
M  V30 3503 O 323.207 0.553062 -1.75177 0
M  V30 3504 C 323.269 -2.87145 -2.16306 0
M  V30 3505 C 322.933 -4.26795 -1.63386 0
M  V30 3506 C 323.93 -5.08412 -1.08688 0
M  V30 3507 C 321.615 -4.73276 -1.68272 0
M  V30 3508 C 323.609 -6.34609 -0.595792 0
M  V30 3509 C 321.296 -5.99446 -1.18776 0
M  V30 3510 C 322.294 -6.79946 -0.645215 0
M  V30 3511 O 321.982 -8.03745 -0.157626 0
M  V30 3512 H 321.714 -0.587112 -0.335075 0
M  V30 3513 H 324.268 -2.01403 -0.403252 0
M  V30 3514 H 322.498 -2.55909 -2.89909 0
M  V30 3515 H 324.187 -2.95992 -2.77747 0
M  V30 3516 H 324.953 -4.73666 -1.04236 0
M  V30 3517 H 320.832 -4.10677 -2.09442 0
M  V30 3518 H 324.376 -6.97389 -0.171654 0
M  V30 3519 H 320.273 -6.33687 -1.22928 0
M  V30 3520 H 321.041 -8.18038 -0.275037 0
M  V30 3521 N 323.704 0.605807 -1.45491 0
M  V30 3522 C 324.934 1.38934 -1.52908 0
M  V30 3523 C 325.342 1.88513 -0.161086 0
M  V30 3524 O 324.685 1.62962 0.847891 0
M  V30 3525 C 324.747 2.62737 -2.45376 0
M  V30 3526 C 324.411 2.34785 -3.92078 0
M  V30 3527 C 325.408 1.95038 -4.8193 0
M  V30 3528 C 323.093 2.47642 -4.37011 0
M  V30 3529 C 325.087 1.68511 -6.14722 0
M  V30 3530 C 322.774 2.20728 -5.69844 0
M  V30 3531 C 323.772 1.81225 -6.58519 0
M  V30 3532 O 323.46 1.54627 -7.88889 0
M  V30 3533 H 323.192 0.431629 -0.520262 0
M  V30 3534 H 325.746 0.74573 -1.91384 0
M  V30 3535 H 323.976 3.29824 -2.01874 0
M  V30 3536 H 325.665 3.24783 -2.43456 0
M  V30 3537 H 326.431 1.84639 -4.48479 0
M  V30 3538 H 322.31 2.77356 -3.68232 0
M  V30 3539 H 325.854 1.37602 -6.83894 0
M  V30 3540 H 321.751 2.30744 -6.02849 0
M  V30 3541 H 322.519 1.68665 -8.00933 0
M  V30 3542 N 325.182 1.32811 0.848464 0
M  V30 3543 C 326.593 1.21315 1.41914 0
M  V30 3544 C 326.944 -0.171847 1.95446 0
M  V30 3545 O 326.069 -1.07093 1.88043 0
M  V30 3546 C 326.664 2.19631 2.57968 0
M  V30 3547 C 325.223 2.12003 3.11017 0
M  V30 3548 C 324.37 2.07651 1.83783 0
M  V30 3549 H 327.321 1.44549 0.655071 0
M  V30 3550 H 327.342 1.79845 3.35315 0
M  V30 3551 H 326.854 3.20423 2.18976 0
M  V30 3552 H 324.955 1.14481 3.54577 0
M  V30 3553 H 325.068 3.02111 3.71841 0
M  V30 3554 H 323.432 1.52983 2.03638 0
M  V30 3555 H 324.215 3.10235 1.47 0
M  V30 3556 N 326.66 -1.06551 1.16123 0
M  V30 3557 C 327.885 -1.83544 0.965735 0
M  V30 3558 C 328.31 -1.81843 -0.481102 0
M  V30 3559 O 327.668 -1.21732 -1.34354 0
M  V30 3560 C 327.716 -3.28169 1.49457 0
M  V30 3561 O 326.82 -4.0643 0.699157 0
M  V30 3562 H 326.161 -0.568026 0.343864 0
M  V30 3563 H 328.691 -1.34362 1.54299 0
M  V30 3564 H 328.701 -3.78992 1.51092 0
M  V30 3565 H 327.376 -3.28722 2.54784 0
M  V30 3566 H 325.953 -3.65216 0.7531 0
M  V30 3567 N 328.138 -0.959301 -1.25041 0
M  V30 3568 C 329.384 -0.617525 -1.9317 0
M  V30 3569 C 329.717 0.843981 -1.74902 0
M  V30 3570 O 328.992 1.60615 -1.09696 0
M  V30 3571 C 329.275 -0.982736 -3.46431 0
M  V30 3572 C 329.128 -2.50032 -3.73904 0
M  V30 3573 C 330.447 -0.511176 -4.37121 0
M  V30 3574 H 327.566 -0.22582 -0.701552 0
M  V30 3575 H 330.208 -1.19679 -1.4757 0
M  V30 3576 H 328.358 -0.489806 -3.854 0
M  V30 3577 H 330.03 -3.06737 -3.44544 0
M  V30 3578 H 328.273 -2.93598 -3.19348 0
M  V30 3579 H 328.944 -2.70635 -4.81103 0
M  V30 3580 H 331.42 -0.934075 -4.0548 0
M  V30 3581 H 330.296 -0.795361 -5.43107 0
M  V30 3582 H 330.557 0.588834 -4.38161 0
M  V30 3583 N 329.616 1.39756 -0.72842 0
M  V30 3584 C 330.526 2.34444 -0.0855374 0
M  V30 3585 C 331.542 1.57976 0.729356 0
M  V30 3586 O 332.718 1.90301 0.659346 0
M  V30 3587 C 329.783 3.36965 0.815798 0
M  V30 3588 C 328.844 4.29299 -0.0105996 0
M  V30 3589 C 328.077 5.26923 0.84781 0
M  V30 3590 O 328.3 5.30859 2.08673 0
M  V30 3591 O 327.234 6.01249 0.279969 0
M  V30 3592 H 331.06 2.91065 -0.866892 0
M  V30 3593 H 328.645 1.4117 -0.48902 0
M  V30 3594 H 330.527 3.99804 1.33171 0
M  V30 3595 H 329.202 2.82739 1.57608 0
M  V30 3596 H 328.109 3.69703 -0.571877 0
M  V30 3597 H 329.442 4.86712 -0.73295 0
M  V30 3598 N 331.094 0.475555 1.50254 0
M  V30 3599 C 332.34 -0.0701075 2.03279 0
M  V30 3600 C 332.695 -1.37007 1.35081 0
M  V30 3601 O 331.988 -1.8577 0.469052 0
M  V30 3602 C 332.182 -0.305114 3.56095 0
M  V30 3603 C 332.011 0.970515 4.39103 0
M  V30 3604 C 330.781 1.51509 4.82051 0
M  V30 3605 C 332.979 1.8671 4.79212 0
M  V30 3606 N 330.961 2.73928 5.49397 0
M  V30 3607 C 332.332 2.93715 5.46014 0
M  V30 3608 C 334.387 1.87695 4.61167 0
M  V30 3609 C 333.09 4.01699 5.96683 0
M  V30 3610 C 335.116 2.94637 5.12779 0
M  V30 3611 C 334.478 4.00361 5.79561 0
M  V30 3612 H 330.577 0.014486 0.781866 0
M  V30 3613 H 333.161 0.644755 1.83714 0
M  V30 3614 H 331.332 -0.989019 3.75597 0
M  V30 3615 H 333.064 -0.845516 3.95769 0
M  V30 3616 H 329.819 1.06367 4.61501 0
M  V30 3617 H 330.243 3.36109 5.87673 0
M  V30 3618 H 334.885 1.07273 4.08965 0
M  V30 3619 H 332.603 4.82934 6.4792 0
M  V30 3620 H 336.189 2.96388 5.00645 0
M  V30 3621 H 335.069 4.81751 6.18778 0
M  V30 3622 N 332.573 -1.56217 0.208337 0
M  V30 3623 C 333.85 -1.89739 -0.475234 0
M  V30 3624 C 334.23 -1.1238 -1.78701 0
M  V30 3625 O 333.578 -0.228979 -2.2735 0
M  V30 3626 C 333.788 -3.42289 -0.681101 0
M  V30 3627 C 335.136 -4.12789 -0.994507 0
M  V30 3628 O 336.16 -3.47814 -0.768357 0
M  V30 3629 O 335.019 -5.27649 -1.42299 0
M  V30 3630 H 332.113 -0.788478 -0.249461 0
M  V30 3631 H 334.659 -1.67855 0.249538 0
M  V30 3632 H 333.431 -3.90534 0.244722 0
M  V30 3633 H 333.054 -3.69909 -1.45785 0
M  V30 3634 N 334.051 0.0651679 -1.57465 0
M  V30 3635 C 335.3 0.761916 -1.86756 0
M  V30 3636 C 335.613 1.78406 -0.801925 0
M  V30 3637 O 336.819 2.53084 -0.982885 0
M  V30 3638 C 335.275 1.40603 -3.31299 0
M  V30 3639 C 334.883 0.422115 -4.46007 0
M  V30 3640 C 336.627 2.08476 -3.69781 0
M  V30 3641 C 334.534 1.07252 -5.81593 0
M  V30 3642 H 333.464 0.288308 -0.696702 0
M  V30 3643 H 336.115 0.015344 -1.83494 0
M  V30 3644 H 334.497 2.20109 -3.29193 0
M  V30 3645 H 335.671 -0.343613 -4.59517 0
M  V30 3646 H 333.986 -0.152527 -4.16121 0
M  V30 3647 H 336.583 2.57925 -4.68379 0
M  V30 3648 H 336.926 2.88712 -2.99919 0
M  V30 3649 H 337.459 1.35792 -3.73905 0
M  V30 3650 H 334.198 0.310342 -6.54765 0
M  V30 3651 H 333.718 1.80895 -5.71872 0
M  V30 3652 H 335.397 1.59043 -6.27148 0
M  V30 3653 N 335.529 1.53961 0.336706 0
M  V30 3654 C 336.459 1.85417 1.41925 0
M  V30 3655 C 337.44 0.709856 1.5458 0
M  V30 3656 O 338.625 0.962396 1.68676 0
M  V30 3657 C 335.755 2.06985 2.78881 0
M  V30 3658 C 334.709 3.22813 2.81026 0
M  V30 3659 C 334.035 3.29727 4.20932 0
M  V30 3660 C 335.335 4.60767 2.45949 0
M  V30 3661 H 337.029 2.76079 1.15848 0
M  V30 3662 H 334.575 1.32839 0.555859 0
M  V30 3663 H 336.528 2.27575 3.54665 0
M  V30 3664 H 335.252 1.13061 3.06406 0
M  V30 3665 H 333.911 3.0209 2.07695 0
M  V30 3666 H 333.559 2.33385 4.45579 0
M  V30 3667 H 333.259 4.07566 4.23277 0
M  V30 3668 H 334.783 3.52536 4.98549 0
M  V30 3669 H 336.197 4.81325 3.11446 0
M  V30 3670 H 334.594 5.4106 2.59566 0
M  V30 3671 H 335.664 4.6391 1.41122 0
M  V30 3672 N 337.007 -0.598083 1.45811 0
M  V30 3673 C 337.955 -1.72932 1.55555 0
M  V30 3674 C 338.949 -1.63984 0.424921 0
M  V30 3675 O 340.155 -1.69663 0.601205 0
M  V30 3676 H 336.53 -0.571489 0.488779 0
M  V30 3677 H 338.501 -1.61842 2.50699 0
M  V30 3678 C 337.25 -3.11318 1.54843 0
M  V30 3679 H 336.573 -3.18867 2.41172 0
M  V30 3680 H 338.013 -3.90274 1.65717 0
M  V30 3681 C 336.472 -3.3578 0.274427 0
M  V30 3682 O 337.002 -3.9654 -0.641778 0
M  V30 3683 N 335.208 -2.90119 0.167139 0
M  V30 3684 H 334.755 -2.40855 0.913596 0
M  V30 3685 H 334.713 -3.0686 -0.684435 0
M  V30 3686 N 338.485 -1.33259 -0.841409 0
M  V30 3687 C 339.731 -1.24757 -1.59886 0
M  V30 3688 C 340.064 0.186913 -1.93298 0
M  V30 3689 O 339.339 1.12757 -1.5848 0
M  V30 3690 C 339.622 -2.12036 -2.91055 0
M  V30 3691 C 339.475 -3.63929 -2.6434 0
M  V30 3692 C 340.794 -1.9916 -3.92458 0
M  V30 3693 H 337.913 -0.454542 -0.580138 0
M  V30 3694 H 340.555 -1.63335 -0.970647 0
M  V30 3695 H 338.705 -1.79265 -3.44669 0
M  V30 3696 H 340.377 -4.06978 -2.17178 0
M  V30 3697 H 338.62 -3.85935 -1.98082 0
M  V30 3698 H 339.291 -4.20341 -3.57796 0
M  V30 3699 H 341.767 -2.27895 -3.48143 0
M  V30 3700 H 340.643 -2.62484 -4.82072 0
M  V30 3701 H 340.904 -0.963082 -4.31482 0
M  V30 3702 N 339.963 1.05934 -1.16686 0
M  V30 3703 C 341.374 1.60263 -0.957745 0
M  V30 3704 C 341.725 1.89789 0.49745 0
M  V30 3705 O 340.85 1.67401 1.37135 0
M  V30 3706 C 341.445 2.91172 -1.73218 0
M  V30 3707 C 340.004 3.42188 -1.56794 0
M  V30 3708 C 339.151 2.16028 -1.73859 0
M  V30 3709 H 342.102 0.888392 -1.31504 0
M  V30 3710 H 342.123 3.60744 -1.21014 0
M  V30 3711 H 341.635 2.6965 -2.79124 0
M  V30 3712 H 339.736 3.68762 -0.533437 0
M  V30 3713 H 339.849 4.17273 -2.35414 0
M  V30 3714 H 338.213 2.26426 -1.16633 0
M  V30 3715 H 338.996 1.96985 -2.81161 0
M  V30 3716 N 341.441 0.965919 1.2453 0
M  V30 3717 C 342.689 0.625593 1.92174 0
M  V30 3718 C 343.01 -0.841652 1.75901 0
M  V30 3719 O 342.28 -1.60061 1.12948 0
M  V30 3720 H 340.86 0.228388 0.71123 0
M  V30 3721 H 343.522 1.2266 1.51461 0
M  V30 3722 H 342.618 0.864653 2.99884 0
M  V30 3723 N 342.919 -1.39368 0.735821 0
M  V30 3724 C 343.866 -2.30599 0.0963825 0
M  V30 3725 C 344.836 -1.49257 -0.728794 0
M  V30 3726 O 346.021 -1.77941 -0.688588 0
M  V30 3727 C 343.161 -3.35596 -0.804305 0
M  V30 3728 C 342.274 -4.31987 0.0335761 0
M  V30 3729 C 341.409 -5.24053 -0.868461 0
M  V30 3730 C 340.448 -6.12095 -0.0258776 0
M  V30 3731 N 339.585 -6.96514 -0.883893 0
M  V30 3732 H 344.425 -2.8471 0.880002 0
M  V30 3733 H 341.962 -1.40188 0.445619 0
M  V30 3734 H 343.92 -3.95062 -1.34096 0
M  V30 3735 H 342.55 -2.82938 -1.55389 0
M  V30 3736 H 341.602 -3.74133 0.68766 0
M  V30 3737 H 342.914 -4.94074 0.685036 0
M  V30 3738 H 342.068 -5.88549 -1.47293 0
M  V30 3739 H 340.807 -4.62289 -1.5537 0
M  V30 3740 H 339.812 -5.4661 0.591386 0
M  V30 3741 H 341.037 -6.75923 0.656156 0
M  V30 3742 H 338.983 -6.37318 -1.55441 0
M  V30 3743 H 338.9 -7.55448 -0.288931 0
M  V30 3744 H 340.168 -7.65439 -1.4739 0
M  V30 3745 N 344.397 -0.483516 -1.5 0
M  V30 3746 C 345.813 -0.138404 -1.58999 0
M  V30 3747 C 346.013 1.35597 -1.4905 0
M  V30 3748 O 345.069 2.13039 -1.35539 0
M  V30 3749 C 346.382 -0.699658 -2.92447 0
M  V30 3750 C 347.93 -0.664195 -3.05872 0
M  V30 3751 C 348.405 -1.20321 -4.41913 0
M  V30 3752 N 349.896 -1.16315 -4.48358 0
M  V30 3753 C 350.631 -1.55058 -5.52037 0
M  V30 3754 N 350.127 -2.01311 -6.62907 0
M  V30 3755 N 351.92 -1.46584 -5.42651 0
M  V30 3756 H 344.071 -1.45529 -1.5471 0
M  V30 3757 H 346.334 -0.60258 -0.731848 0
M  V30 3758 H 346.04 -1.747 -3.05242 0
M  V30 3759 H 345.914 -0.150194 -3.76901 0
M  V30 3760 H 348.301 0.374272 -2.92717 0
M  V30 3761 H 348.382 -1.25061 -2.23144 0
M  V30 3762 H 348.026 -2.24037 -4.55818 0
M  V30 3763 H 347.956 -0.592896 -5.23252 0
M  V30 3764 H 350.447 -0.824058 -3.68806 0
M  V30 3765 H 350.76 -2.2899 -7.38095 0
M  V30 3766 H 349.105 -2.05273 -6.63994 0
M  V30 3767 H 352.296 -1.10281 -4.54924 0
M  V30 3768 H 352.469 -1.77103 -6.23329 0
M  V30 3769 N 345.875 1.56104 -0.216619 0
M  V30 3770 C 346.825 2.16703 0.708798 0
M  V30 3771 C 347.809 1.11392 1.16106 0
M  V30 3772 O 349.001 1.37395 1.11587 0
M  V30 3773 C 346.13 2.84666 1.91886 0
M  V30 3774 C 345.216 3.97195 1.48651 0
M  V30 3775 N 345.607 4.99959 0.766434 0
M  V30 3776 C 343.905 4.09193 1.77418 0
M  V30 3777 C 344.606 5.79126 0.546659 0
M  V30 3778 N 343.582 5.32315 1.10188 0
M  V30 3779 H 347.384 2.93516 0.150162 0
M  V30 3780 H 344.898 1.6239 -0.0176768 0
M  V30 3781 H 346.895 3.26486 2.59253 0
M  V30 3782 H 345.555 2.09347 2.48202 0
M  V30 3783 H 346.566 5.16197 0.419634 0
M  V30 3784 H 343.243 3.45021 2.35088 0
M  V30 3785 H 344.633 6.71895 -0.026103 0
M  V30 3786 N 347.353 -0.0568162 1.57498 0
M  V30 3787 C 348.578 -0.769402 1.92601 0
M  V30 3788 C 349.003 -1.69559 0.814336 0
M  V30 3789 O 348.361 -1.79811 -0.231903 0
M  V30 3790 C 348.409 -1.52634 3.26704 0
M  V30 3791 O 347.513 -2.63797 3.16994 0
M  V30 3792 H 346.854 -0.208909 0.63028 0
M  V30 3793 H 349.384 -0.0205798 2.0459 0
M  V30 3794 H 349.394 -1.90234 3.60936 0
M  V30 3795 H 348.069 -0.846875 4.07186 0
M  V30 3796 H 346.646 -2.28943 2.94346 0
M  V30 3797 N 348.832 -1.54138 -0.328536 0
M  V30 3798 C 349.779 -1.83176 -1.40411 0
M  V30 3799 C 350.749 -0.678494 -1.5161 0
M  V30 3800 O 351.934 -0.92443 -1.6691 0
M  V30 3801 C 349.074 -2.06035 -2.76846 0
M  V30 3802 C 348.187 -3.33727 -2.74318 0
M  V30 3803 C 347.322 -3.46574 -4.02567 0
M  V30 3804 C 346.361 -4.68159 -3.94327 0
M  V30 3805 N 345.498 -4.77959 -5.14296 0
M  V30 3806 H 350.338 -2.74938 -1.14948 0
M  V30 3807 H 347.875 -1.36166 -0.556538 0
M  V30 3808 H 349.833 -2.1728 -3.56153 0
M  V30 3809 H 348.463 -1.1757 -3.00628 0
M  V30 3810 H 347.515 -3.31246 -1.8703 0
M  V30 3811 H 348.827 -4.23139 -2.64111 0
M  V30 3812 H 347.981 -3.57333 -4.90304 0
M  V30 3813 H 346.72 -2.55245 -4.15574 0
M  V30 3814 H 345.725 -4.57461 -3.04974 0
M  V30 3815 H 346.95 -5.60868 -3.82889 0
M  V30 3816 H 344.896 -3.89544 -5.27818 0
M  V30 3817 H 344.813 -5.6133 -5.06404 0
M  V30 3818 H 346.081 -4.93044 -6.03761 0
M  V30 3819 N 350.31 0.590341 -1.46126 0
M  V30 3820 C 351.726 0.912917 -1.30912 0
M  V30 3821 C 351.926 1.99616 -0.274893 0
M  V30 3822 O 350.982 2.50397 0.325197 0
M  V30 3823 C 352.295 1.3375 -2.69317 0
M  V30 3824 C 353.843 1.45077 -2.77348 0
M  V30 3825 C 354.318 1.90904 -4.16317 0
M  V30 3826 N 355.809 1.9811 -4.18696 0
M  V30 3827 C 356.544 2.34828 -5.23109 0
M  V30 3828 N 356.04 2.70393 -6.37856 0
M  V30 3829 N 357.833 2.35317 -5.10473 0
M  V30 3830 H 349.984 -0.125358 -2.1203 0
M  V30 3831 H 352.247 0.00658481 -0.947977 0
M  V30 3832 H 351.953 0.615614 -3.4627 0
M  V30 3833 H 351.827 2.30058 -2.9892 0
M  V30 3834 H 354.214 2.16353 -2.00687 0
M  V30 3835 H 354.295 0.4704 -2.51438 0
M  V30 3836 H 353.939 1.20209 -4.9347 0
M  V30 3837 H 353.869 2.89886 -4.39629 0
M  V30 3838 H 356.36 1.73146 -3.359 0
M  V30 3839 H 356.673 2.97341 -7.13308 0
M  V30 3840 H 355.018 2.68048 -6.41229 0
M  V30 3841 H 358.209 2.0695 -4.19868 0
M  V30 3842 H 358.382 2.63605 -5.9196 0
M  V30 3843 N 351.788 1.33704 0.83433 0
M  V30 3844 C 353.018 1.28281 1.6195 0
M  V30 3845 C 353.426 -0.147603 1.88623 0
M  V30 3846 O 352.769 -1.1016 1.47005 0
M  V30 3847 C 352.831 1.99386 2.99141 0
M  V30 3848 C 352.495 3.48681 2.95416 0
M  V30 3849 C 353.492 4.438 2.70809 0
M  V30 3850 C 351.177 3.90925 3.15409 0
M  V30 3851 C 353.171 5.79138 2.66229 0
M  V30 3852 C 350.858 5.26366 3.10454 0
M  V30 3853 C 351.856 6.20284 2.85895 0
M  V30 3854 O 351.544 7.53245 2.80852 0
M  V30 3855 H 351.276 0.44315 0.510484 0
M  V30 3856 H 353.83 1.76711 1.04702 0
M  V30 3857 H 352.06 1.45554 3.58261 0
M  V30 3858 H 353.749 1.87403 3.60049 0
M  V30 3859 H 354.515 4.12485 2.5511 0
M  V30 3860 H 350.394 3.18229 3.33543 0
M  V30 3861 H 353.938 6.52416 2.4698 0
M  V30 3862 H 349.835 5.57304 3.25703 0
M  V30 3863 H 350.603 7.62846 2.96661 0
M  V30 3864 N 353.266 -1.05314 1.17247 0
M  V30 3865 C 354.677 -1.59753 0.96623 0
M  V30 3866 C 355.028 -1.9005 -0.487378 0
M  V30 3867 O 354.153 -1.68126 -1.36245 0
M  V30 3868 C 354.748 -2.90249 1.74759 0
M  V30 3869 C 353.307 -3.41352 1.58606 0
M  V30 3870 C 352.454 -2.15103 1.75002 0
M  V30 3871 H 355.405 -0.881406 1.31973 0
M  V30 3872 H 355.426 -3.60097 1.22925 0
M  V30 3873 H 354.938 -2.68166 2.8055 0
M  V30 3874 H 353.039 -3.68474 0.552985 0
M  V30 3875 H 353.152 -4.16019 2.37624 0
M  V30 3876 H 351.516 -2.25804 1.17833 0
M  V30 3877 H 352.299 -1.95491 2.82202 0
M  V30 3878 N 354.744 -0.972509 -1.24016 0
M  V30 3879 C 355.984 -0.644951 -1.93958 0
M  V30 3880 C 356.348 0.80559 -1.74282 0
M  V30 3881 O 357.549 1.2436 -2.38302 0
M  V30 3882 C 355.82 -1.01521 -3.42678 0
M  V30 3883 S 357.379 -0.802927 -4.31391 0
M  V30 3884 H 354.197 -0.236452 -0.670531 0
M  V30 3885 H 356.799 -1.25048 -1.50277 0
M  V30 3886 H 355.503 -2.06769 -3.54506 0
M  V30 3887 H 355.034 -0.400648 -3.91355 0
M  V30 3888 H 357.049 0.317256 -4.95185 0
M  V30 3889 N 356.222 1.38976 -0.743202 0
M  V30 3890 C 357.462 2.02193 -0.29954 0
M  V30 3891 C 357.826 1.5771 1.09506 0
M  V30 3892 O 359.027 2.13184 1.63726 0
M  V30 3893 C 357.298 3.55077 -0.406822 0
M  V30 3894 S 358.857 4.38778 -0.0442109 0
M  V30 3895 H 355.675 0.701335 -0.116836 0
M  V30 3896 H 358.277 1.69651 -0.971529 0
M  V30 3897 H 356.981 3.84942 -1.42295 0
M  V30 3898 H 356.512 3.92383 0.282707 0
M  V30 3899 H 358.527 4.82222 1.16947 0
M  V30 3900 N 357.7 0.491464 1.49741 0
M  V30 3901 C 358.61 -0.296835 2.32715 0
M  V30 3902 C 359.626 -0.976536 1.44013 0
M  V30 3903 O 360.802 -0.960023 1.77047 0
M  V30 3904 C 357.867 -1.35288 3.19215 0
M  V30 3905 C 356.928 -0.687632 4.23757 0
M  V30 3906 C 356.161 -1.69336 5.06123 0
M  V30 3907 O 356.384 -2.92219 4.89861 0
M  V30 3908 O 355.318 -1.25394 5.88693 0
M  V30 3909 H 359.144 0.382048 3.01287 0
M  V30 3910 H 356.729 0.252953 1.47243 0
M  V30 3911 H 358.611 -1.96411 3.72828 0
M  V30 3912 H 357.286 -2.01487 2.53347 0
M  V30 3913 H 356.193 -0.0369159 3.74082 0
M  V30 3914 H 357.526 -0.0682566 4.92153 0
M  V30 3915 N 359.178 -1.55987 0.224894 0
M  V30 3916 C 360.403 -2.03232 -0.41369 0
M  V30 3917 C 360.828 -1.10359 -1.52323 0
M  V30 3918 O 360.186 -0.092395 -1.81064 0
M  V30 3919 C 360.234 -3.48682 -0.919405 0
M  V30 3920 O 359.338 -3.58947 -2.03054 0
M  V30 3921 H 358.679 -0.657428 -0.0931903 0
M  V30 3922 H 361.209 -2.01679 0.34451 0
M  V30 3923 H 361.219 -3.8907 -1.22835 0
M  V30 3924 H 359.894 -4.15761 -0.107339 0
M  V30 3925 H 358.471 -3.30448 -1.72796 0
M  V30 3926 N 360.656 0.0484629 -1.57525 0
M  V30 3927 C 362.067 0.597486 -1.76881 0
M  V30 3928 C 362.418 1.76664 -0.853475 0
M  V30 3929 O 361.543 2.16357 -0.0433656 0
M  V30 3930 C 362.138 1.09066 -3.20765 0
M  V30 3931 C 360.697 1.58535 -3.41385 0
M  V30 3932 C 359.844 0.514868 -2.72478 0
M  V30 3933 H 362.795 -0.177758 -1.57701 0
M  V30 3934 H 362.816 1.95875 -3.2621 0
M  V30 3935 H 362.328 0.239521 -3.8736 0
M  V30 3936 H 360.429 2.45898 -2.79937 0
M  V30 3937 H 360.542 1.64622 -4.49929 0
M  V30 3938 H 358.906 0.965407 -2.35695 0
M  V30 3939 H 359.689 -0.32648 -3.41744 0
M  V30 3940 N 362.134 1.5431 0.320358 0
M  V30 3941 C 363.381 1.72668 1.05792 0
M  V30 3942 C 363.709 0.502084 1.87908 0
M  V30 3943 O 362.964 -0.516149 1.88771 0
M  V30 3944 C 363.263 2.95639 2.00828 0
M  V30 3945 C 362.929 4.30265 1.34843 0
M  V30 3946 C 361.591 4.66865 1.16578 0
M  V30 3947 C 363.943 5.13801 0.875095 0
M  V30 3948 C 361.271 5.84597 0.496336 0
M  V30 3949 C 363.623 6.32219 0.219463 0
M  V30 3950 C 362.287 6.67495 0.0246915 0
M  V30 3951 H 361.557 0.631837 0.387121 0
M  V30 3952 H 364.204 1.88552 0.334735 0
M  V30 3953 H 362.509 2.74456 2.79609 0
M  V30 3954 H 364.206 3.07038 2.57932 0
M  V30 3955 H 360.796 4.01472 1.50061 0
M  V30 3956 H 364.98 4.86039 1.00398 0
M  V30 3957 H 360.236 6.10486 0.334264 0
M  V30 3958 H 364.41 6.96227 -0.155291 0
M  V30 3959 H 362.037 7.5858 -0.496065 0
M  V30 3960 N 363.613 -0.582584 1.46437 0
M  V30 3961 C 364.862 -1.337 1.5102 0
M  V30 3962 C 365.175 -1.94891 0.166359 0
M  V30 3963 O 366.381 -2.71351 0.0899954 0
M  V30 3964 C 364.837 -2.42315 2.66104 0
M  V30 3965 C 364.445 -1.87427 4.06909 0
M  V30 3966 C 366.189 -3.19099 2.79958 0
M  V30 3967 C 364.096 -2.93672 5.13333 0
M  V30 3968 H 363.026 -0.502619 0.562041 0
M  V30 3969 H 365.677 -0.621701 1.72647 0
M  V30 3970 H 364.059 -3.16645 2.37807 0
M  V30 3971 H 365.233 -1.19639 4.44998 0
M  V30 3972 H 363.548 -1.2331 3.97723 0
M  V30 3973 H 366.145 -3.9839 3.56636 0
M  V30 3974 H 366.488 -3.71695 1.87479 0
M  V30 3975 H 367.021 -2.51875 3.07902 0
M  V30 3976 H 363.76 -2.45962 6.07604 0
M  V30 3977 H 363.28 -3.59948 4.79789 0
M  V30 3978 H 364.959 -3.5762 5.39182 0
M  V30 3979 N 365.091 -1.34144 -0.827227 0
M  V30 3980 C 366.368 -1.16844 -1.56865 0
M  V30 3981 C 366.748 0.260654 -2.09485 0
M  V30 3982 O 366.096 1.26138 -1.9053 0
M  V30 3983 C 366.306 -2.21939 -2.6934 0
M  V30 3984 C 367.654 -2.56695 -3.3822 0
M  V30 3985 O 368.678 -2.20695 -2.79593 0
M  V30 3986 O 367.537 -3.18518 -4.44082 0
M  V30 3987 H 364.631 -0.452669 -0.692112 0
M  V30 3988 H 367.177 -1.45763 -0.868973 0
M  V30 3989 H 365.949 -3.17882 -2.28182 0
M  V30 3990 H 365.572 -1.94172 -3.46962 0
M  V30 3991 N 366.569 1.04691 -1.17803 0
M  V30 3992 C 367.818 1.77176 -0.963931 0
M  V30 3993 C 368.131 1.88888 0.508015 0
M  V30 3994 O 369.337 2.58164 0.840465 0
M  V30 3995 C 367.793 3.18518 -1.67555 0
M  V30 3996 C 367.401 3.14919 -3.18637 0
M  V30 3997 C 369.145 3.95424 -1.54402 0
M  V30 3998 C 367.052 4.51081 -3.82466 0
M  V30 3999 H 365.982 0.664116 -0.357023 0
M  V30 4000 H 368.633 1.17303 -1.4111 0
M  V30 4001 H 367.015 3.78748 -1.15613 0
M  V30 4002 H 368.189 2.64178 -3.77554 0
M  V30 4003 H 366.504 2.51512 -3.31859 0
M  V30 4004 H 369.101 4.96106 -1.99456 0
M  V30 4005 H 369.444 4.13343 -0.495329 0
M  V30 4006 H 369.977 3.41754 -2.0359 0
M  V30 4007 H 366.716 4.38368 -4.87354 0
M  V30 4008 H 366.236 5.01951 -3.28337 0
M  V30 4009 H 367.915 5.2001 -3.84965 0
M  V30 4010 N 368.047 0.979072 1.23499 0
M  V30 4011 C 369.275 0.665202 1.95915 0
M  V30 4012 C 369.69 -0.767571 1.72493 0
M  V30 4013 O 369.047 -1.51635 1.01554 0
M  V30 4014 C 369.098 0.944438 3.48945 0
M  V30 4015 O 368.819 2.3209 3.71572 0
M  V30 4016 C 370.32 0.646336 4.38563 0
M  V30 4017 H 367.54 0.247218 0.623798 0
M  V30 4018 H 370.084 1.31009 1.57025 0
M  V30 4019 H 368.239 0.345575 3.85856 0
M  V30 4020 H 368.653 2.40957 4.65876 0
M  V30 4021 H 370.127 0.892091 5.44744 0
M  V30 4022 H 370.604 -0.419575 4.37191 0
M  V30 4023 H 371.21 1.22562 4.07258 0
M  V30 4024 N 369.525 -1.3858 0.750561 0
M  V30 4025 C 370.755 -2.04175 0.31564 0
M  V30 4026 C 371.163 -1.56726 -1.05989 0
M  V30 4027 O 370.506 -0.734225 -1.68389 0
M  V30 4028 C 370.568 -3.58585 0.256389 0
M  V30 4029 C 370.232 -4.29077 1.57296 0
M  V30 4030 C 371.229 -4.54656 2.52159 0
M  V30 4031 C 368.914 -4.67324 1.84156 0
M  V30 4032 C 370.908 -5.17512 3.72103 0
M  V30 4033 C 368.595 -5.29905 3.04374 0
M  V30 4034 C 369.593 -5.54933 3.98168 0
M  V30 4035 O 369.281 -6.16212 5.16273 0
M  V30 4036 H 369.013 -0.662742 0.133226 0
M  V30 4037 H 371.567 -1.78313 1.01948 0
M  V30 4038 H 369.797 -3.83406 -0.503677 0
M  V30 4039 H 371.486 -4.05628 -0.148612 0
M  V30 4040 H 372.252 -4.25539 2.32683 0
M  V30 4041 H 368.131 -4.47191 1.11988 0
M  V30 4042 H 371.675 -5.36963 4.45327 0
M  V30 4043 H 367.572 -5.58444 3.23745 0
M  V30 4044 H 368.34 -6.34701 5.16815 0
M  V30 4045 N 371.003 -0.499398 -1.49478 0
M  V30 4046 C 371.913 0.284489 -2.32869 0
M  V30 4047 C 372.929 0.968885 -1.44529 0
M  V30 4048 O 374.105 0.95062 -1.77553 0
M  V30 4049 C 371.17 1.33594 -3.19928 0
M  V30 4050 C 370.231 0.665149 -4.24116 0
M  V30 4051 C 369.464 1.6665 -5.07014 0
M  V30 4052 O 369.687 2.89618 -4.91404 0
M  V30 4053 O 368.621 1.22271 -5.8935 0
M  V30 4054 H 372.447 -0.39802 -3.01081 0
M  V30 4055 H 370.032 -0.260758 -1.47107 0
M  V30 4056 H 371.914 1.94431 -3.73864 0
M  V30 4057 H 370.589 2.0014 -2.54412 0
M  V30 4058 H 369.496 0.0170769 -3.74096 0
M  V30 4059 H 370.829 0.0421555 -4.92182 0
M  V30 4060 N 372.481 1.55866 -0.233164 0
M  V30 4061 C 373.73 1.97779 0.39579 0
M  V30 4062 C 374.043 1.12419 1.60066 0
M  V30 4063 O 375.249 1.44283 2.29988 0
M  V30 4064 C 373.705 3.5188 0.755556 0
M  V30 4065 C 373.313 4.45959 -0.427152 0
M  V30 4066 C 375.057 4.02479 1.34946 0
M  V30 4067 C 372.964 5.91383 -0.0443043 0
M  V30 4068 H 371.894 0.738592 0.15165 0
M  V30 4069 H 374.545 1.80486 -0.331212 0
M  V30 4070 H 372.927 3.64816 1.5403 0
M  V30 4071 H 374.101 4.44776 -1.20462 0
M  V30 4072 H 372.416 4.05765 -0.935068 0
M  V30 4073 H 375.013 5.08637 1.649 0
M  V30 4074 H 375.356 3.49014 2.26925 0
M  V30 4075 H 375.889 3.92813 0.62791 0
M  V30 4076 H 372.628 6.48857 -0.930874 0
M  V30 4077 H 372.148 5.95734 0.697238 0
M  V30 4078 H 373.827 6.45893 0.378334 0
M  V30 4079 N 373.959 -0.0401083 1.57549 0
M  V30 4080 C 374.909 -1.05175 2.02292 0
M  V30 4081 C 375.893 -1.32674 0.910294 0
M  V30 4082 O 377.085 -1.32444 1.17421 0
M  V30 4083 C 374.214 -2.35622 2.49674 0
M  V30 4084 C 373.3 -2.11261 3.67736 0
M  V30 4085 N 373.691 -1.56923 4.80842 0
M  V30 4086 C 371.989 -2.41596 3.74897 0
M  V30 4087 C 372.69 -1.48111 5.62528 0
M  V30 4088 N 371.666 -1.95282 5.07312 0
M  V30 4089 H 375.468 -0.625455 2.87168 0
M  V30 4090 H 372.982 -0.246624 1.60516 0
M  V30 4091 H 374.979 -3.08893 2.79983 0
M  V30 4092 H 373.639 -2.7894 1.662 0
M  V30 4093 H 374.65 -1.25345 5.02503 0
M  V30 4094 H 371.327 -2.88064 3.02201 0
M  V30 4095 H 372.717 -1.06683 6.63377 0
M  V30 4096 N 375.437 -1.54477 -0.31217 0
M  V30 4097 C 376.367 -1.87652 -1.38957 0
M  V30 4098 C 377.348 -0.734358 -1.53431 0
M  V30 4099 O 378.533 -0.98911 -1.67123 0
M  V30 4100 C 375.663 -2.11396 -2.75552 0
M  V30 4101 C 374.617 -3.27243 -2.75855 0
M  V30 4102 C 373.943 -3.36382 -4.15633 0
M  V30 4103 C 375.243 -4.64622 -2.38587 0
M  V30 4104 H 376.937 -2.77887 -1.11442 0
M  V30 4105 H 374.483 -1.33707 -0.534655 0
M  V30 4106 H 376.436 -2.33189 -3.51 0
M  V30 4107 H 375.16 -1.17921 -3.04569 0
M  V30 4108 H 373.819 -3.05356 -2.02863 0
M  V30 4109 H 373.467 -2.40445 -4.41809 0
M  V30 4110 H 373.167 -4.14249 -4.1674 0
M  V30 4111 H 374.691 -3.60422 -4.92877 0
M  V30 4112 H 376.105 -4.86219 -3.03749 0
M  V30 4113 H 374.502 -5.45121 -2.50925 0
M  V30 4114 H 375.572 -4.66097 -1.33723 0
M  V30 4115 N 376.915 0.57481 -1.46744 0
M  V30 4116 C 378.331 0.898981 -1.31873 0
M  V30 4117 C 378.531 1.99313 -0.29605 0
M  V30 4118 O 377.587 2.50728 0.298621 0
M  V30 4119 C 378.9 1.30886 -2.7072 0
M  V30 4120 C 380.448 1.42127 -2.78871 0
M  V30 4121 C 380.923 1.86478 -4.18318 0
M  V30 4122 N 382.414 1.93658 -4.20774 0
M  V30 4123 C 383.149 2.29267 -5.2557 0
M  V30 4124 N 382.645 2.63612 -6.40688 0
M  V30 4125 N 384.438 2.29889 -5.1294 0
M  V30 4126 H 376.589 -0.147839 -2.11885 0
M  V30 4127 H 378.852 -0.00347013 -0.947994 0
M  V30 4128 H 378.558 0.578853 -3.46904 0
M  V30 4129 H 378.432 2.26874 -3.01343 0
M  V30 4130 H 380.819 2.14213 -2.0297 0
M  V30 4131 H 380.9 0.443705 -2.51922 0
M  V30 4132 H 380.544 1.14968 -4.94717 0
M  V30 4133 H 380.474 2.85207 -4.42679 0
M  V30 4134 H 382.965 1.69574 -3.37718 0
M  V30 4135 H 383.278 2.89759 -7.16421 0
M  V30 4136 H 381.623 2.61232 -6.44036 0
M  V30 4137 H 384.814 2.02485 -4.22039 0
M  V30 4138 H 384.987 2.57312 -5.94722 0
M  V30 4139 N 378.394 1.34581 0.820102 0
M  V30 4140 C 379.81 1.14325 1.11364 0
M  V30 4141 C 380.01 -0.0533648 2.01429 0
M  V30 4142 O 379.066 -0.728044 2.41776 0
M  V30 4143 C 380.379 2.43983 1.75764 0
M  V30 4144 C 381.927 2.50065 1.88246 0
M  V30 4145 C 382.402 3.79732 2.56061 0
M  V30 4146 N 383.893 3.80908 2.63558 0
M  V30 4147 C 384.628 4.77961 3.16766 0
M  V30 4148 N 384.124 5.85397 3.70517 0
M  V30 4149 N 385.917 4.65413 3.15194 0
M  V30 4150 H 378.068 2.11246 0.221096 0
M  V30 4151 H 380.331 0.934289 0.160649 0
M  V30 4152 H 380.037 3.31651 1.1705 0
M  V30 4153 H 379.911 2.57531 2.75604 0
M  V30 4154 H 382.298 1.62834 2.46108 0
M  V30 4155 H 382.379 2.40442 0.873006 0
M  V30 4156 H 382.023 4.67354 1.98853 0
M  V30 4157 H 381.953 3.86639 3.57516 0
M  V30 4158 H 384.444 3.03274 2.25463 0
M  V30 4159 H 384.757 6.55463 4.09376 0
M  V30 4160 H 383.102 5.89107 3.68752 0
M  V30 4161 H 386.293 3.80627 2.72471 0
M  V30 4162 H 386.466 5.41216 3.56356 0
M  V30 4163 N 379.872 -1.04064 1.18357 0
M  V30 4164 C 380.819 -2.12077 0.910603 0
M  V30 4165 C 381.789 -1.65421 -0.15 0
M  V30 4166 O 382.974 -1.90797 -0.0103614 0
M  V30 4167 C 380.114 -3.42252 0.442472 0
M  V30 4168 C 379.227 -4.0252 1.5685 0
M  V30 4169 C 378.362 -5.20657 1.05309 0
M  V30 4170 C 377.401 -5.72955 2.1538 0
M  V30 4171 N 376.538 -6.8238 1.65233 0
M  V30 4172 H 381.378 -2.34764 1.83548 0
M  V30 4173 H 378.915 -1.15157 0.915279 0
M  V30 4174 H 380.873 -4.16921 0.152534 0
M  V30 4175 H 379.503 -3.19712 -0.445428 0
M  V30 4176 H 378.555 -3.25178 1.97391 0
M  V30 4177 H 379.867 -4.37362 2.39824 0
M  V30 4178 H 379.021 -6.0244 0.717677 0
M  V30 4179 H 377.76 -4.87318 0.19293 0
M  V30 4180 H 376.765 -4.89793 2.49766 0
M  V30 4181 H 377.99 -6.08337 3.01832 0
M  V30 4182 H 375.936 -6.50917 0.815064 0
M  V30 4183 H 375.853 -7.16286 2.41805 0
M  V30 4184 H 377.121 -7.67788 1.34619 0
M  V30 4185 N 381.35 -0.985608 -1.22978 0
M  V30 4186 C 382.578 -0.675582 -1.95559 0
M  V30 4187 C 382.993 0.758413 -1.72897 0
M  V30 4188 O 382.35 1.51094 -1.02357 0
M  V30 4189 C 382.401 -0.96293 -3.48439 0
M  V30 4190 O 382.122 -2.34057 -3.70336 0
M  V30 4191 C 383.623 -0.669585 -4.38214 0
M  V30 4192 H 380.843 -0.250523 -0.622478 0
M  V30 4193 H 383.387 -1.3184 -1.56328 0
M  V30 4194 H 381.542 -0.366033 -3.85667 0
M  V30 4195 H 381.956 -2.43424 -4.64591 0
M  V30 4196 H 383.43 -0.920967 -5.44263 0
M  V30 4197 H 383.907 0.396383 -4.37408 0
M  V30 4198 H 384.513 -1.2472 -4.06602 0
M  V30 4199 N 382.828 1.3818 -0.7579 0
M  V30 4200 C 383.758 2.33027 -0.148597 0
M  V30 4201 C 384.739 1.55085 0.69875 0
M  V30 4202 O 385.924 1.83384 0.639053 0
M  V30 4203 C 383.054 3.3928 0.742034 0
M  V30 4204 C 382.008 4.28 -0.00291946 0
M  V30 4205 C 381.334 5.25146 1.00625 0
M  V30 4206 C 382.634 5.08938 -1.17385 0
M  V30 4207 H 384.328 2.84231 -0.940909 0
M  V30 4208 H 381.874 1.36659 -0.453908 0
M  V30 4209 H 383.827 4.046 1.17799 0
M  V30 4210 H 382.551 2.86569 1.56671 0
M  V30 4211 H 381.21 3.64192 -0.419504 0
M  V30 4212 H 380.858 4.68721 1.8251 0
M  V30 4213 H 380.558 5.85361 0.512428 0
M  V30 4214 H 382.082 5.93342 1.44143 0
M  V30 4215 H 383.496 5.67474 -0.815224 0
M  V30 4216 H 381.893 5.7841 -1.59882 0
M  V30 4217 H 382.963 4.42424 -1.98468 0
M  V30 4218 N 384.306 0.507319 1.49211 0
M  V30 4219 C 385.553 -0.0349529 2.0247 0
M  V30 4220 C 385.881 -1.36409 1.38647 0
M  V30 4221 O 385.136 -1.88841 0.513566 0
M  V30 4222 C 385.435 -0.229513 3.56662 0
M  V30 4223 C 385.101 1.02241 4.39156 0
M  V30 4224 C 383.763 1.36557 4.61417 0
M  V30 4225 C 386.115 1.85428 4.871 0
M  V30 4226 C 383.443 2.53999 5.28868 0
M  V30 4227 C 385.795 3.02028 5.55843 0
M  V30 4228 C 384.459 3.36717 5.76349 0
M  V30 4229 H 383.729 -0.0127902 0.74089 0
M  V30 4230 H 386.376 0.668756 1.79443 0
M  V30 4231 H 384.681 -1.0158 3.78403 0
M  V30 4232 H 386.378 -0.663641 3.9547 0
M  V30 4233 H 382.968 0.745124 4.22073 0
M  V30 4234 H 387.152 1.6023 4.69723 0
M  V30 4235 H 382.408 2.81105 5.42946 0
M  V30 4236 H 386.582 3.66808 5.91967 0
M  V30 4237 H 384.209 4.27821 6.28389 0
M  V30 4238 N 385.784 -1.5574 0.241426 0
M  V30 4239 C 387.014 -2.02913 -0.38857 0
M  V30 4240 C 387.422 -1.12014 -1.52478 0
M  V30 4241 O 386.765 -0.125903 -1.83268 0
M  V30 4242 C 386.827 -3.4636 -0.963075 0
M  V30 4243 C 386.491 -4.56982 0.0401916 0
M  V30 4244 C 387.488 -5.12941 0.847766 0
M  V30 4245 C 385.173 -5.0203 0.164699 0
M  V30 4246 C 387.167 -6.12437 1.76636 0
M  V30 4247 C 384.854 -6.01358 1.0868 0
M  V30 4248 C 385.852 -6.5644 1.88616 0
M  V30 4249 O 385.54 -7.53831 2.79273 0
M  V30 4250 H 385.272 -0.668983 -0.0971452 0
M  V30 4251 H 387.826 -2.02198 0.361248 0
M  V30 4252 H 386.056 -3.44206 -1.76235 0
M  V30 4253 H 387.745 -3.77065 -1.50257 0
M  V30 4254 H 388.511 -4.78974 0.762133 0
M  V30 4255 H 384.39 -4.58824 -0.447411 0
M  V30 4256 H 387.934 -6.55355 2.39071 0
M  V30 4257 H 383.831 -6.34746 1.17338 0
M  V30 4258 H 384.599 -7.71428 2.73572 0
M  V30 4259 N 387.262 0.0317525 -1.57568 0
M  V30 4260 C 388.49 0.734949 -1.93407 0
M  V30 4261 C 388.905 1.69036 -0.84096 0
M  V30 4262 O 388.262 1.81582 0.182836 0
M  V30 4263 C 388.313 1.49432 -3.29169 0
M  V30 4264 O 388.034 0.577261 -4.3428 0
M  V30 4265 C 389.535 2.29492 -3.79273 0
M  V30 4266 H 386.755 0.206706 -0.638368 0
M  V30 4267 H 389.299 -0.00992046 -2.04498 0
M  V30 4268 H 387.454 2.1911 -3.19483 0
M  V30 4269 H 387.868 1.10952 -5.1263 0
M  V30 4270 H 389.342 2.78172 -4.76785 0
M  V30 4271 H 389.819 3.10794 -3.10328 0
M  V30 4272 H 390.425 1.64894 -3.92033 0
M  V30 4273 N 388.74 1.54641 0.303973 0
M  V30 4274 C 389.986 1.74038 1.04109 0
M  V30 4275 C 390.319 0.523051 1.87024 0
M  V30 4276 O 389.594 -0.479874 1.88487 0
M  V30 4277 C 389.877 3.02761 1.94955 0
M  V30 4278 C 389.73 4.34787 1.1524 0
M  V30 4279 C 391.049 3.27336 2.94175 0
M  V30 4280 H 388.168 0.63323 0.377079 0
M  V30 4281 H 390.81 1.87354 0.316001 0
M  V30 4282 H 388.96 2.9154 2.56782 0
M  V30 4283 H 390.632 4.57922 0.557236 0
M  V30 4284 H 388.875 4.31407 0.455053 0
M  V30 4285 H 389.546 5.21116 1.8205 0
M  V30 4286 H 392.022 3.38148 2.42477 0
M  V30 4287 H 390.898 4.18726 3.54908 0
M  V30 4288 H 391.159 2.45491 3.67677 0
M  V30 4289 N 390.218 -0.567019 1.47046 0
M  V30 4290 C 391.166 -1.69593 1.59188 0
M  V30 4291 C 392.16 -1.63046 0.459609 0
M  V30 4292 O 393.366 -1.6835 0.637058 0
M  V30 4293 H 389.741 -0.560993 0.500791 0
M  V30 4294 H 391.712 -1.56488 2.54075 0
M  V30 4295 C 390.461 -3.07964 1.61411 0
M  V30 4296 H 389.784 -3.13679 2.47881 0
M  V30 4297 H 391.224 -3.86671 1.73958 0
M  V30 4298 C 389.683 -3.35123 0.34559 0
M  V30 4299 O 390.213 -3.97812 -0.557521 0
M  V30 4300 N 388.419 -2.89699 0.22864 0
M  V30 4301 H 387.966 -2.38863 0.964479 0
M  V30 4302 H 387.924 -3.08242 -0.619192 0
M  V30 4303 N 391.696 -1.35014 -0.812953 0
M  V30 4304 C 392.626 -1.30069 -1.93919 0
M  V30 4305 C 393.607 -0.176275 -1.69184 0
M  V30 4306 O 394.792 -0.370227 -1.90638 0
M  V30 4307 C 391.922 -1.06547 -3.30552 0
M  V30 4308 C 390.876 -2.15561 -3.69753 0
M  V30 4309 C 390.202 -1.77214 -5.04479 0
M  V30 4310 C 391.502 -3.57476 -3.808 0
M  V30 4311 H 393.196 -2.24303 -1.98314 0
M  V30 4312 H 390.742 -1.07977 -0.952736 0
M  V30 4313 H 392.695 -1.01729 -4.08937 0
M  V30 4314 H 391.419 -0.0875719 -3.26483 0
M  V30 4315 H 390.078 -2.19466 -2.9365 0
M  V30 4316 H 389.726 -0.780589 -4.96906 0
M  V30 4317 H 389.426 -2.50184 -5.31678 0
M  V30 4318 H 390.95 -1.7391 -5.8531 0
M  V30 4319 H 392.364 -3.55929 -4.4943 0
M  V30 4320 H 390.761 -4.29152 -4.19462 0
M  V30 4321 H 391.831 -3.94091 -2.82525 0
M  V30 4322 N 393.175 1.03435 -1.18907 0
M  V30 4323 C 394.424 1.76143 -0.982669 0
M  V30 4324 C 394.737 1.89416 0.487953 0
M  V30 4325 O 395.943 2.59041 0.813036 0
M  V30 4326 C 394.399 3.16722 -1.70924 0
M  V30 4327 C 394.007 3.11522 -3.21959 0
M  V30 4328 C 395.751 3.93764 -1.58588 0
M  V30 4329 C 393.658 4.46999 -3.87228 0
M  V30 4330 H 392.588 0.660292 -0.364047 0
M  V30 4331 H 395.239 1.158 -1.42347 0
M  V30 4332 H 393.621 3.775 -1.19623 0
M  V30 4333 H 394.795 2.60158 -3.80335 0
M  V30 4334 H 393.11 2.47978 -3.34508 0
M  V30 4335 H 395.707 4.93963 -2.04707 0
M  V30 4336 H 396.05 4.12794 -0.539142 0
M  V30 4337 H 396.583 3.39576 -2.07203 0
M  V30 4338 H 393.322 4.33174 -4.91976 0
M  V30 4339 H 392.842 4.98441 -3.33642 0
M  V30 4340 H 394.521 5.15898 -3.90459 0
M  V30 4341 N 394.653 0.992116 1.22453 0
M  V30 4342 C 395.9 0.667534 1.91181 0
M  V30 4343 C 396.228 -0.800317 1.77271 0
M  V30 4344 O 395.483 -1.59421 1.13505 0
M  V30 4345 C 395.782 1.01832 3.42586 0
M  V30 4346 C 395.448 2.47831 3.76684 0
M  V30 4347 C 394.11 2.87729 3.85701 0
M  V30 4348 C 396.462 3.42466 3.92895 0
M  V30 4349 C 393.79 4.21252 4.08367 0
M  V30 4350 C 396.142 4.75648 4.17064 0
M  V30 4351 C 394.806 5.15288 4.24305 0
M  V30 4352 H 394.076 0.244268 0.699581 0
M  V30 4353 H 396.723 1.24816 1.45235 0
M  V30 4354 H 395.028 0.355769 3.90181 0
M  V30 4355 H 396.725 0.745228 3.94014 0
M  V30 4356 H 393.315 2.15905 3.70247 0
M  V30 4357 H 397.499 3.12814 3.85307 0
M  V30 4358 H 392.755 4.51554 4.122 0
M  V30 4359 H 396.929 5.48924 4.2855 0
M  V30 4360 H 394.556 6.18769 4.41621 0
M  V30 4361 N 396.131 -1.37776 0.765217 0
M  V30 4362 C 397.542 -1.82521 0.392819 0
M  V30 4363 C 397.893 -1.63789 -1.08017 0
M  V30 4364 O 397.018 -1.14542 -1.83601 0
M  V30 4365 C 397.613 -3.31358 0.706214 0
M  V30 4366 C 396.172 -3.74406 0.386952 0
M  V30 4367 C 395.319 -2.60394 0.953422 0
M  V30 4368 H 398.27 -1.2634 0.960412 0
M  V30 4369 H 398.291 -3.80498 -0.0114706 0
M  V30 4370 H 397.803 -3.44959 1.77833 0
M  V30 4371 H 395.904 -3.66377 -0.678112 0
M  V30 4372 H 396.017 -4.70749 0.890636 0
M  V30 4373 H 394.381 -2.51878 0.378064 0
M  V30 4374 H 395.164 -2.76791 2.03081 0
M  V30 4375 N 397.609 -0.515225 -1.4894 0
M  V30 4376 C 398.834 0.022727 -2.07388 0
M  V30 4377 C 399.259 1.2876 -1.37122 0
M  V30 4378 O 398.617 1.76067 -0.432431 0
M  V30 4379 C 398.665 0.244869 -3.59768 0
M  V30 4380 O 397.769 1.31667 -3.90817 0
M  V30 4381 H 397.11 -0.0325506 -0.663202 0
M  V30 4382 H 399.64 -0.718918 -1.91553 0
M  V30 4383 H 399.65 0.47205 -4.0526 0
M  V30 4384 H 398.325 -0.679194 -4.10317 0
M  V30 4385 H 396.902 1.07331 -3.5712 0
M  V30 4386 N 399.087 1.5561 -0.249682 0
M  V30 4387 C 400.333 1.99306 0.374841 0
M  V30 4388 C 400.666 1.13767 1.57387 0
M  V30 4389 O 399.941 0.201711 1.93451 0
M  V30 4390 C 400.224 3.51507 0.781986 0
M  V30 4391 C 400.077 4.4781 -0.422629 0
M  V30 4392 C 401.396 4.08884 1.62793 0
M  V30 4393 H 398.515 0.724572 0.134773 0
M  V30 4394 H 401.157 1.86719 -0.351549 0
M  V30 4395 H 399.307 3.62363 1.4009 0
M  V30 4396 H 400.979 4.48931 -1.06108 0
M  V30 4397 H 399.222 4.20518 -1.06524 0
M  V30 4398 H 399.893 5.51919 -0.0943766 0
M  V30 4399 H 402.369 4.01147 1.10547 0
M  V30 4400 H 401.245 5.1564 1.88166 0
M  V30 4401 H 401.506 3.57515 2.60068 0
M  V30 4402 N 400.565 -0.0233959 1.57583 0
M  V30 4403 C 401.813 -0.711654 1.89156 0
M  V30 4404 C 402.134 -1.75591 0.848096 0
M  V30 4405 O 401.404 -1.95547 -0.117566 0
M  V30 4406 H 399.984 -0.265835 0.698098 0
M  V30 4407 H 402.646 0.0119948 1.94896 0
M  V30 4408 H 401.742 -1.19766 2.88206 0
M  V30 4409 N 402.043 -1.548 -0.295768 0
M  V30 4410 C 403.292 -1.73538 -1.02798 0
M  V30 4411 C 403.605 -0.531159 -1.8825 0
M  V30 4412 O 404.811 -0.600458 -2.64777 0
M  V30 4413 C 403.267 -3.07051 -1.87744 0
M  V30 4414 C 402.875 -4.34968 -1.07269 0
M  V30 4415 C 404.619 -3.35146 -2.60533 0
M  V30 4416 C 402.526 -5.5953 -1.91521 0
M  V30 4417 H 401.456 -0.646794 -0.387522 0
M  V30 4418 H 404.107 -1.81278 -0.284718 0
M  V30 4419 H 402.489 -2.93289 -2.66078 0
M  V30 4420 H 403.663 -4.5958 -0.335117 0
M  V30 4421 H 401.978 -4.13847 -0.460384 0
M  V30 4422 H 404.575 -4.2541 -3.23929 0
M  V30 4423 H 404.918 -2.54255 -3.29636 0
M  V30 4424 H 405.451 -3.49902 -1.89244 0
M  V30 4425 H 402.19 -6.43103 -1.26878 0
M  V30 4426 H 401.71 -5.39096 -2.62937 0
M  V30 4427 H 403.389 -5.96982 -2.49442 0
M  V30 4428 N 403.521 0.559213 -1.47345 0
M  V30 4429 C 404.746 1.34676 -1.57725 0
M  V30 4430 C 405.171 1.86723 -0.227164 0
M  V30 4431 O 404.529 1.6286 0.796642 0
M  V30 4432 C 404.577 2.49399 -2.60447 0
M  V30 4433 O 403.681 3.51567 -2.15578 0
M  V30 4434 H 403.022 0.400115 -0.52991 0
M  V30 4435 H 405.552 0.676009 -1.93109 0
M  V30 4436 H 405.562 2.95996 -2.80803 0
M  V30 4437 H 404.237 2.10873 -3.58477 0
M  V30 4438 H 402.814 3.11289 -2.05313 0
M  V30 4439 N 404.999 1.35443 0.805782 0
M  V30 4440 C 406.246 1.28761 1.56291 0
M  V30 4441 C 406.574 -0.137747 1.94012 0
M  V30 4442 O 405.829 -1.1032 1.61642 0
M  V30 4443 C 406.128 2.14045 2.86216 0
M  V30 4444 C 405.794 3.62826 2.67709 0
M  V30 4445 C 404.456 4.0338 2.6237 0
M  V30 4446 C 406.808 4.57227 2.50186 0
M  V30 4447 C 404.136 5.36501 2.37451 0
M  V30 4448 C 406.488 5.90547 2.26797 0
M  V30 4449 C 405.152 6.30245 2.1988 0
M  V30 4450 H 404.422 0.471171 0.571908 0
M  V30 4451 H 407.069 1.67347 0.930974 0
M  V30 4452 H 405.374 1.68342 3.53791 0
M  V30 4453 H 407.071 2.0621 3.43917 0
M  V30 4454 H 403.661 3.30644 2.72713 0
M  V30 4455 H 407.845 4.2678 2.53323 0
M  V30 4456 H 403.101 5.66259 2.30567 0
M  V30 4457 H 407.275 6.63274 2.12228 0
M  V30 4458 H 404.902 7.33328 2.00333 0
M  V30 4459 N 406.477 -1.02803 1.19454 0
M  V30 4460 C 407.407 -2.12999 0.956758 0
M  V30 4461 C 408.388 -1.69743 -0.110188 0
M  V30 4462 O 409.573 -1.94148 0.0450038 0
M  V30 4463 C 406.703 -3.43746 0.495553 0
M  V30 4464 C 405.657 -4.00688 1.50443 0
M  V30 4465 C 404.983 -5.27067 0.900275 0
M  V30 4466 C 406.283 -4.35397 2.8849 0
M  V30 4467 H 407.977 -2.33148 1.87836 0
M  V30 4468 H 405.523 -1.12045 0.904539 0
M  V30 4469 H 407.476 -4.2021 0.316493 0
M  V30 4470 H 406.2 -3.23321 -0.461646 0
M  V30 4471 H 404.859 -3.2632 1.67065 0
M  V30 4472 H 404.507 -5.02959 -0.064503 0
M  V30 4473 H 404.207 -5.66127 1.57397 0
M  V30 4474 H 405.731 -6.06196 0.73203 0
M  V30 4475 H 407.145 -5.02795 2.75446 0
M  V30 4476 H 405.542 -4.85541 3.52661 0
M  V30 4477 H 406.612 -3.44662 3.41081 0
M  V30 4478 N 407.956 -0.998596 -1.21925 0
M  V30 4479 C 409.184 -0.696286 -1.94832 0
M  V30 4480 C 409.599 0.740032 -1.73692 0
M  V30 4481 O 408.956 1.5 -1.03953 0
M  V30 4482 C 409.007 -0.999833 -3.47398 0
M  V30 4483 O 408.728 -2.37972 -3.67833 0
M  V30 4484 C 410.229 -0.716025 -4.37479 0
M  V30 4485 H 407.449 -0.257111 -0.619786 0
M  V30 4486 H 409.993 -1.33491 -1.54921 0
M  V30 4487 H 408.148 -0.406918 -3.85257 0
M  V30 4488 H 408.562 -2.48338 -4.61983 0
M  V30 4489 H 410.036 -0.978642 -5.43256 0
M  V30 4490 H 410.513 0.349968 -4.37803 0
M  V30 4491 H 411.119 -1.29025 -4.05256 0
M  V30 4492 N 409.434 1.37368 -0.772513 0
M  V30 4493 C 410.397 2.28601 -0.165541 0
M  V30 4494 C 411.397 1.48062 0.627238 0
M  V30 4495 O 412.587 1.68268 0.450715 0
M  V30 4496 C 409.719 3.32023 0.772897 0
M  V30 4497 H 410.912 2.83787 -0.969787 0
M  V30 4498 H 408.465 1.46647 -0.540775 0
M  V30 4499 H 409.2 2.81962 1.60212 0
M  V30 4500 H 408.985 3.91555 0.206585 0
M  V30 4501 H 410.475 4.00197 1.19298 0
M  V30 4502 N 410.912 0.523116 1.48665 0
M  V30 4503 C 411.842 -0.23231 2.32342 0
M  V30 4504 C 412.823 -0.941637 1.41659 0
M  V30 4505 O 414.008 -0.928751 1.70552 0
M  V30 4506 C 411.138 -1.28387 3.22698 0
M  V30 4507 C 410.092 -0.693098 4.22351 0
M  V30 4508 C 409.418 -1.8468 5.01794 0
M  V30 4509 C 410.718 0.33063 5.21252 0
M  V30 4510 H 412.412 0.466192 2.95748 0
M  V30 4511 H 409.958 0.225643 1.42221 0
M  V30 4512 H 411.911 -1.82024 3.80059 0
M  V30 4513 H 410.635 -2.01186 2.57278 0
M  V30 4514 H 409.294 -0.178299 3.66166 0
M  V30 4515 H 408.942 -2.56301 4.32804 0
M  V30 4516 H 408.642 -1.45747 5.69238 0
M  V30 4517 H 410.166 -2.38709 5.62006 0
M  V30 4518 H 411.58 -0.118407 5.73178 0
M  V30 4519 H 409.977 0.636974 5.9671 0
M  V30 4520 H 411.047 1.23883 4.68808 0
M  V30 4521 N 412.39 -1.55475 0.257931 0
M  V30 4522 C 413.636 -1.99502 -0.364266 0
M  V30 4523 C 413.969 -1.146 -1.56782 0
M  V30 4524 O 413.244 -0.211968 -1.93342 0
M  V30 4525 C 413.527 -3.51917 -0.763333 0
M  V30 4526 C 413.38 -4.4758 0.446371 0
M  V30 4527 C 414.699 -4.09742 -1.60623 0
M  V30 4528 H 411.818 -0.725277 -0.130929 0
M  V30 4529 H 414.46 -1.8653 0.361446 0
M  V30 4530 H 412.61 -3.63101 -1.38166 0
M  V30 4531 H 414.282 -4.48362 1.08487 0
M  V30 4532 H 412.525 -4.19947 1.08753 0
M  V30 4533 H 413.196 -5.51862 0.123645 0
M  V30 4534 H 415.672 -4.01727 -1.08418 0
M  V30 4535 H 414.548 -5.16631 -1.85429 0
M  V30 4536 H 414.809 -3.58889 -2.58169 0
M  V30 4537 N 413.868 0.0150385 -1.57593 0
M  V30 4538 C 415.115 0.703001 -1.89906 0
M  V30 4539 C 415.443 1.74604 -0.856944 0
M  V30 4540 O 414.698 1.95197 0.140287 0
M  V30 4541 C 414.997 1.39686 -3.28972 0
M  V30 4542 C 414.663 0.488457 -4.48246 0
M  V30 4543 C 413.325 0.2383 -4.8061 0
M  V30 4544 C 415.677 -0.137881 -5.21018 0
M  V30 4545 C 413.005 -0.646738 -5.83125 0
M  V30 4546 C 415.357 -1.0107 -6.24474 0
M  V30 4547 C 414.021 -1.27019 -6.55303 0
M  V30 4548 H 413.291 0.257246 -0.694914 0
M  V30 4549 H 415.938 -0.037259 -1.91464 0
M  V30 4550 H 414.243 2.21079 -3.23468 0
M  V30 4551 H 415.94 1.93495 -3.51227 0
M  V30 4552 H 412.53 0.693593 -4.22951 0
M  V30 4553 H 416.714 0.0423953 -4.96282 0
M  V30 4554 H 411.97 -0.855937 -6.05379 0
M  V30 4555 H 416.144 -1.50247 -6.79999 0
M  V30 4556 H 413.771 -1.95769 -7.3456 0
M  V30 4557 N 415.346 1.54954 0.287554 0
M  V30 4558 C 416.576 1.78622 1.03816 0
M  V30 4559 C 416.984 0.552451 1.80955 0
M  V30 4560 O 416.327 -0.487665 1.77109 0
M  V30 4561 C 416.389 2.94975 2.055 0
M  V30 4562 C 416.053 4.32565 1.47433 0
M  V30 4563 C 417.05 5.12096 0.897436 0
M  V30 4564 C 414.735 4.79195 1.50591 0
M  V30 4565 C 416.729 6.36383 0.359851 0
M  V30 4566 C 414.416 6.03441 0.964459 0
M  V30 4567 C 415.414 6.81872 0.392413 0
M  V30 4568 O 415.102 8.03777 -0.140788 0
M  V30 4569 H 414.834 0.599144 0.313053 0
M  V30 4570 H 417.388 2.02761 0.328225 0
M  V30 4571 H 415.618 2.66493 2.80211 0
M  V30 4572 H 417.307 3.06097 2.6657 0
M  V30 4573 H 418.073 4.77209 0.865841 0
M  V30 4574 H 413.952 4.18167 1.94055 0
M  V30 4575 H 417.496 6.97545 -0.0872951 0
M  V30 4576 H 413.393 6.37813 0.993246 0
M  V30 4577 H 414.161 8.18495 -0.0287617 0
M  V30 4578 N 416.824 -0.551391 1.4764 0
M  V30 4579 C 417.754 -1.66757 1.63445 0
M  V30 4580 C 418.735 -1.63077 0.483742 0
M  V30 4581 O 419.92 -1.80607 0.71377 0
M  V30 4582 C 417.05 -3.05387 1.65396 0
M  V30 4583 C 416.004 -3.23918 2.79752 0
M  V30 4584 C 415.33 -4.63393 2.66779 0
M  V30 4585 C 416.63 -3.08735 4.21284 0
M  V30 4586 H 418.324 -1.53786 2.56886 0
M  V30 4587 H 415.87 -0.738415 1.23626 0
M  V30 4588 H 417.823 -3.83325 1.75043 0
M  V30 4589 H 416.547 -3.19332 0.685195 0
M  V30 4590 H 415.206 -2.48391 2.69625 0
M  V30 4591 H 414.854 -4.74144 1.67918 0
M  V30 4592 H 414.554 -4.7674 3.43501 0
M  V30 4593 H 416.078 -5.43458 2.78364 0
M  V30 4594 H 417.492 -3.76484 4.32357 0
M  V30 4595 H 415.889 -3.33588 4.98838 0
M  V30 4596 H 416.959 -2.0541 4.39243 0
M  V30 4597 N 418.302 -1.35869 -0.798587 0
M  V30 4598 C 419.713 -1.26498 -1.37314 0
M  V30 4599 C 420.064 0.0991899 -1.95949 0
M  V30 4600 O 419.189 1.0004 -1.91888 0
M  V30 4601 C 419.784 -2.29054 -2.49639 0
M  V30 4602 C 418.343 -2.234 -3.02935 0
M  V30 4603 C 417.49 -2.14329 -1.75949 0
M  V30 4604 H 420.441 -1.46881 -0.600971 0
M  V30 4605 H 420.462 -1.92166 -3.28409 0
M  V30 4606 H 419.974 -3.2833 -2.06933 0
M  V30 4607 H 418.075 -1.27562 -3.50084 0
M  V30 4608 H 418.188 -3.15703 -3.60372 0
M  V30 4609 H 416.552 -1.60435 -1.9782 0
M  V30 4610 H 417.335 -3.15477 -1.35384 0
M  V30 4611 N 419.78 1.02168 -1.19998 0
M  V30 4612 C 421.005 1.79833 -1.03319 0
M  V30 4613 C 421.43 1.83504 0.413281 0
M  V30 4614 O 420.788 1.26635 1.29743 0
M  V30 4615 C 420.836 3.22396 -1.61533 0
M  V30 4616 O 419.94 4.03555 -0.849519 0
M  V30 4617 H 419.281 0.554872 -0.364709 0
M  V30 4618 H 421.811 1.28542 -1.59179 0
M  V30 4619 H 421.821 3.73124 -1.65054 0
M  V30 4620 H 420.496 3.19039 -2.66809 0
M  V30 4621 H 419.073 3.62169 -0.888129 0
M  V30 4622 N 421.258 1.00505 1.21394 0
M  V30 4623 C 422.535 0.603277 1.86064 0
M  V30 4624 C 422.915 -0.919095 1.90042 0
M  V30 4625 O 422.263 -1.80607 1.39977 0
M  V30 4626 C 422.473 1.23772 3.26315 0
M  V30 4627 C 423.821 1.34586 4.02705 0
M  V30 4628 O 424.845 1.19304 3.35626 0
M  V30 4629 O 423.704 1.59169 5.22807 0
M  V30 4630 H 420.798 0.206634 0.800769 0
M  V30 4631 H 423.344 1.1017 1.29076 0
M  V30 4632 H 422.116 2.27848 3.18121 0
M  V30 4633 H 421.739 0.725648 3.90922 0
M  V30 4634 N 422.737 -1.36956 0.779787 0
M  V30 4635 C 423.985 -1.99097 0.347079 0
M  V30 4636 C 424.306 -1.62206 -1.08232 0
M  V30 4637 O 423.576 -0.891373 -1.74446 0
M  V30 4638 H 422.156 -0.736409 0.125342 0
M  V30 4639 H 424.818 -1.67308 0.999696 0
M  V30 4640 H 423.914 -3.09107 0.431162 0
M  V30 4641 N 424.215 -0.530993 -1.48385 0
M  V30 4642 C 425.463 0.00273189 -2.021 0
M  V30 4643 C 425.784 1.34672 -1.41027 0
M  V30 4644 O 425.054 1.8724 -0.576012 0
M  V30 4645 H 423.634 0.00399774 -0.746989 0
M  V30 4646 H 426.296 -0.695054 -1.82085 0
M  V30 4647 H 425.392 0.11031 -3.11905 0
M  V30 4648 N 425.693 1.55336 -0.266172 0
M  V30 4649 C 426.603 2.2583 0.635458 0
M  V30 4650 C 427.619 1.28106 1.17749 0
M  V30 4651 O 428.795 1.61024 1.20968 0
M  V30 4652 C 425.86 2.95879 1.80712 0
M  V30 4653 C 424.921 4.09059 1.30265 0
M  V30 4654 C 424.154 4.75759 2.41846 0
M  V30 4655 O 424.377 4.41622 3.61007 0
M  V30 4656 O 423.311 5.63888 2.1051 0
M  V30 4657 H 427.137 3.03631 0.0646693 0
M  V30 4658 H 424.722 1.49361 -0.0339177 0
M  V30 4659 H 426.604 3.39932 2.49047 0
M  V30 4660 H 425.279 2.21002 2.36516 0
M  V30 4661 H 424.186 3.69482 0.586019 0
M  V30 4662 H 425.519 4.85811 0.790458 0
M  V30 4663 N 427.171 -0.0066808 1.57599 0
M  V30 4664 C 428.118 -1.00024 2.08 0
M  V30 4665 C 429.088 -1.34549 0.973943 0
M  V30 4666 O 430.273 -1.44502 1.24595 0
M  V30 4667 C 427.413 -2.2891 2.58252 0
M  V30 4668 C 426.526 -2.00346 3.82734 0
M  V30 4669 C 425.661 -3.23265 4.21513 0
M  V30 4670 C 424.7 -2.90357 5.3885 0
M  V30 4671 N 423.837 -4.05793 5.72954 0
M  V30 4672 H 428.677 -0.563499 2.92624 0
M  V30 4673 H 426.214 -0.266592 1.44664 0
M  V30 4674 H 428.172 -3.04247 2.85464 0
M  V30 4675 H 426.802 -2.70265 1.76512 0
M  V30 4676 H 425.854 -1.15406 3.62471 0
M  V30 4677 H 427.166 -1.72086 4.68175 0
M  V30 4678 H 426.32 -4.06953 4.49971 0
M  V30 4679 H 425.059 -3.54657 3.34768 0
M  V30 4680 H 424.064 -2.05075 5.10122 0
M  V30 4681 H 425.289 -2.60219 6.27266 0
M  V30 4682 H 423.235 -4.37094 4.89167 0
M  V30 4683 H 423.152 -3.81034 6.52954 0
M  V30 4684 H 424.42 -4.90289 6.06001 0
M  V30 4685 N 428.649 -1.55105 -0.279332 0
M  V30 4686 C 429.898 -1.74618 -1.00952 0
M  V30 4687 C 430.211 -0.551096 -1.87676 0
M  V30 4688 O 431.417 -0.628507 -2.64125 0
M  V30 4689 C 429.873 -3.09025 -1.84476 0
M  V30 4690 C 429.481 -4.36081 -1.0265 0
M  V30 4691 C 431.225 -3.37891 -2.56963 0
M  V30 4692 C 429.132 -5.6153 -1.85576 0
M  V30 4693 H 428.062 -0.650868 -0.38064 0
M  V30 4694 H 430.713 -1.81569 -0.265475 0
M  V30 4695 H 429.095 -2.96095 -2.62952 0
M  V30 4696 H 430.269 -4.59909 -0.286354 0
M  V30 4697 H 428.584 -4.14312 -0.416464 0
M  V30 4698 H 431.181 -4.28822 -3.19399 0
M  V30 4699 H 431.524 -2.57737 -3.26921 0
M  V30 4700 H 432.057 -3.5189 -1.85522 0
M  V30 4701 H 428.796 -6.44413 -1.2005 0
M  V30 4702 H 428.316 -5.41854 -2.57204 0
M  V30 4703 H 429.995 -5.99594 -2.43096 0
M  V30 4704 N 430.127 0.543554 -1.4793 0
M  V30 4705 C 431.352 1.32995 -1.59145 0
M  V30 4706 C 431.777 1.86472 -0.246956 0
M  V30 4707 O 431.135 1.63696 0.779324 0
M  V30 4708 C 431.183 2.46623 -2.63077 0
M  V30 4709 O 430.287 3.49261 -2.19295 0
M  V30 4710 H 429.628 0.394472 -0.534124 0
M  V30 4711 H 432.158 0.655489 -1.93816 0
M  V30 4712 H 432.168 2.93001 -2.83926 0
M  V30 4713 H 430.843 2.07059 -3.60693 0
M  V30 4714 H 429.42 3.09094 -2.08603 0
M  V30 4715 N 431.605 1.3629 0.791371 0
M  V30 4716 C 432.535 1.33137 1.91825 0
M  V30 4717 C 433.516 0.203168 1.68882 0
M  V30 4718 O 434.701 0.400509 1.90025 0
M  V30 4719 C 431.831 1.11793 3.28816 0
M  V30 4720 C 430.785 2.21417 3.66277 0
M  V30 4721 C 430.111 1.85218 5.01596 0
M  V30 4722 C 431.411 3.63489 3.75064 0
M  V30 4723 H 433.105 2.2743 1.9472 0
M  V30 4724 H 430.651 1.09479 0.935437 0
M  V30 4725 H 432.604 1.08222 4.07266 0
M  V30 4726 H 431.328 0.139501 3.26302 0
M  V30 4727 H 429.987 2.2411 2.90121 0
M  V30 4728 H 429.635 0.859544 4.95602 0
M  V30 4729 H 429.335 2.58611 5.27631 0
M  V30 4730 H 430.859 1.832 5.82469 0
M  V30 4731 H 432.273 3.63034 4.43711 0
M  V30 4732 H 430.67 4.35771 4.12582 0
M  V30 4733 H 431.74 3.98536 2.76219 0
M  V30 4734 N 433.083 -1.0153 1.20538 0
M  V30 4735 C 434.323 -1.76689 1.02763 0
M  V30 4736 C 434.687 -1.87065 -0.432513 0
M  V30 4737 O 435.888 -2.58684 -0.730481 0
M  V30 4738 C 434.159 -3.14707 1.69393 0
M  V30 4739 S 435.718 -4.05886 1.66738 0
M  V30 4740 H 432.536 -0.608076 0.368463 0
M  V30 4741 H 435.138 -1.21558 1.53114 0
M  V30 4742 H 433.842 -3.04782 2.74838 0
M  V30 4743 H 433.373 -3.74913 1.19179 0
M  V30 4744 H 435.388 -4.91221 0.70117 0
M  V30 4745 N 434.561 -1.01147 -1.20859 0
M  V30 4746 C 435.81 -0.693214 -1.89413 0
M  V30 4747 C 436.123 0.779969 -1.79376 0
M  V30 4748 O 437.329 1.21057 -2.43017 0
M  V30 4749 C 435.785 -1.18949 -3.39675 0
M  V30 4750 C 435.393 -2.68921 -3.58309 0
M  V30 4751 C 437.137 -0.94642 -4.13815 0
M  V30 4752 C 435.044 -3.12056 -5.0237 0
M  V30 4753 H 433.974 -0.255595 -0.709357 0
M  V30 4754 H 436.625 -1.22349 -1.36759 0
M  V30 4755 H 435.007 -0.587228 -3.91622 0
M  V30 4756 H 436.181 -3.34652 -3.16772 0
M  V30 4757 H 434.496 -2.91314 -2.97532 0
M  V30 4758 H 437.093 -1.24417 -5.20023 0
M  V30 4759 H 437.436 0.117219 -4.16135 0
M  V30 4760 H 437.969 -1.5118 -3.67953 0
M  V30 4761 H 434.708 -4.17674 -5.05202 0
M  V30 4762 H 434.228 -2.51041 -5.44737 0
M  V30 4763 H 435.907 -3.04403 -5.70918 0
M  V30 4764 N 436.039 1.36541 -0.78704 0
M  V30 4765 C 437.264 2.0409 -0.369053 0
M  V30 4766 C 437.689 1.58957 1.00569 0
M  V30 4767 O 437.047 0.756926 1.64743 0
M  V30 4768 C 437.095 3.57924 -0.438466 0
M  V30 4769 O 436.199 4.08642 0.555479 0
M  V30 4770 H 435.54 0.645142 -0.157122 0
M  V30 4771 H 438.07 1.74545 -1.06749 0
M  V30 4772 H 438.08 4.06887 -0.301218 0
M  V30 4773 H 436.755 3.90127 -1.44132 0
M  V30 4774 H 435.332 3.70958 0.380088 0
M  V30 4775 N 437.518 0.538854 1.48102 0
M  V30 4776 C 438.767 0.0059532 2.01699 0
M  V30 4777 C 439.08 -1.34476 1.42041 0
M  V30 4778 O 440.286 -1.96653 1.87189 0
M  V30 4779 C 438.742 -0.0397627 3.59878 0
M  V30 4780 C 438.35 1.30659 4.28523 0
M  V30 4781 C 440.094 -0.521024 4.2129 0
M  V30 4782 C 438.001 1.22098 5.78659 0
M  V30 4783 H 436.931 -0.00154456 0.753998 0
M  V30 4784 H 439.582 0.683963 1.70277 0
M  V30 4785 H 437.964 -0.783037 3.88181 0
M  V30 4786 H 439.138 2.06613 4.11883 0
M  V30 4787 H 437.453 1.7243 3.79021 0
M  V30 4788 H 440.05 -0.603184 5.31287 0
M  V30 4789 H 440.393 -1.52885 3.8721 0
M  V30 4790 H 440.926 0.166834 3.9745 0
M  V30 4791 H 437.665 2.20424 6.17328 0
M  V30 4792 H 437.185 0.50295 5.97688 0
M  V30 4793 H 438.864 0.915345 6.40492 0
M  V30 4794 N 438.996 -1.55193 0.274407 0
M  V30 4795 C 439.926 -2.25471 -0.607032 0
M  V30 4796 C 440.907 -1.24461 -1.15946 0
M  V30 4797 O 442.092 -1.53179 -1.19373 0
M  V30 4798 C 439.222 -2.97526 -1.79153 0
M  V30 4799 C 438.176 -4.05459 -1.37067 0
M  V30 4800 C 437.502 -4.65084 -2.6382 0
M  V30 4801 C 438.802 -5.19691 -0.521389 0
M  V30 4802 H 440.496 -2.99393 -0.0209343 0
M  V30 4803 H 438.042 -1.43997 -0.00862866 0
M  V30 4804 H 439.995 -3.45402 -2.41404 0
M  V30 4805 H 438.719 -2.21138 -2.40344 0
M  V30 4806 H 437.378 -3.58393 -0.771355 0
M  V30 4807 H 437.026 -3.85365 -3.23268 0
M  V30 4808 H 436.726 -5.37961 -2.36372 0
M  V30 4809 H 438.25 -5.15708 -3.26921 0
M  V30 4810 H 439.664 -5.63623 -1.04889 0
M  V30 4811 H 438.061 -5.99126 -0.341825 0
M  V30 4812 H 439.131 -4.82713 0.46 0
M  V30 4813 N 440.474 -0.00167713 -1.576 0
M  V30 4814 C 441.723 0.682021 -1.89819 0
M  V30 4815 C 442.036 1.74844 -0.876871 0
M  V30 4816 O 443.242 2.48688 -1.08934 0
M  V30 4817 C 441.698 1.26425 -3.36964 0
M  V30 4818 C 441.306 0.232568 -4.47396 0
M  V30 4819 C 443.05 1.92604 -3.78291 0
M  V30 4820 C 440.957 0.824882 -5.85619 0
M  V30 4821 H 439.887 0.258499 -0.708304 0
M  V30 4822 H 442.538 -0.0624957 -1.83394 0
M  V30 4823 H 440.92 2.05949 -3.38232 0
M  V30 4824 H 442.094 -0.5382 -4.57646 0
M  V30 4825 H 440.409 -0.32888 -4.15099 0
M  V30 4826 H 443.006 2.37827 -4.78897 0
M  V30 4827 H 443.349 2.75732 -3.11894 0
M  V30 4828 H 443.882 1.19812 -3.79328 0
M  V30 4829 H 440.621 0.0323542 -6.55492 0
M  V30 4830 H 440.141 1.56477 -5.79029 0
M  V30 4831 H 441.82 1.32301 -6.33329 0
M  V30 4832 N 441.952 1.55251 0.271103 0
M  V30 4833 C 443.177 1.80306 1.02491 0
M  V30 4834 C 443.602 0.575457 1.79081 0
M  V30 4835 O 442.96 -0.474987 1.74967 0
M  V30 4836 C 443.008 3.02832 1.95768 0
M  V30 4837 O 442.112 2.78051 3.04568 0
M  V30 4838 H 441.453 0.595896 0.292923 0
M  V30 4839 H 443.983 2.02397 0.299436 0
M  V30 4840 H 443.993 3.31616 2.37686 0
M  V30 4841 H 442.668 3.9183 1.39434 0
M  V30 4842 H 441.245 2.60369 2.66951 0
M  V30 4843 N 443.43 -0.535701 1.48216 0
M  V30 4844 C 444.36 -1.65014 1.65204 0
M  V30 4845 C 445.341 -1.62554 0.501011 0
M  V30 4846 O 446.526 -1.7984 0.732886 0
M  V30 4847 C 443.656 -3.03616 1.68626 0
M  V30 4848 C 442.61 -3.20932 2.83172 0
M  V30 4849 C 441.936 -4.60537 2.71679 0
M  V30 4850 C 443.236 -3.04249 4.24535 0
M  V30 4851 H 444.93 -1.51053 2.58502 0
M  V30 4852 H 442.476 -0.725262 1.24402 0
M  V30 4853 H 444.429 -3.81446 1.79099 0
M  V30 4854 H 443.153 -3.18587 0.719026 0
M  V30 4855 H 441.812 -2.45517 2.72244 0
M  V30 4856 H 441.46 -4.72336 1.72937 0
M  V30 4857 H 441.16 -4.73069 3.48538 0
M  V30 4858 H 442.684 -5.40475 2.84112 0
M  V30 4859 H 444.098 -3.71877 4.36326 0
M  V30 4860 H 442.495 -3.28278 5.02348 0
M  V30 4861 H 443.565 -2.00739 4.41397 0
M  V30 4862 N 444.908 -1.36708 -0.784132 0
M  V30 4863 C 446.136 -1.34398 -1.57305 0
M  V30 4864 C 446.551 0.0735577 -1.88657 0
M  V30 4865 O 445.908 1.03193 -1.50524 0
M  V30 4866 C 445.959 -2.17053 -2.89085 0
M  V30 4867 O 445.68 -3.53281 -2.59083 0
M  V30 4868 C 447.181 -2.22583 -3.83369 0
M  V30 4869 H 444.401 -0.460819 -0.487736 0
M  V30 4870 H 446.945 -1.79879 -0.972819 0
M  V30 4871 H 445.1 -1.75113 -3.45564 0
M  V30 4872 H 445.514 -3.9647 -3.43383 0
M  V30 4873 H 446.988 -2.84763 -4.72878 0
M  V30 4874 H 447.465 -1.23075 -4.21603 0
M  V30 4875 H 448.071 -2.64781 -3.32823 0
M  V30 4876 N 446.386 1.0089 -1.21074 0
M  V30 4877 C 447.632 1.74866 -1.02712 0
M  V30 4878 C 447.965 1.89178 0.438787 0
M  V30 4879 O 447.24 1.42325 1.32567 0
M  V30 4880 C 447.523 3.16347 -1.72036 0
M  V30 4881 C 447.376 3.09782 -3.26121 0
M  V30 4882 C 448.695 4.15187 -1.45973 0
M  V30 4883 H 445.814 0.634736 -0.374539 0
M  V30 4884 H 448.456 1.17646 -1.49196 0
M  V30 4885 H 446.606 3.65201 -1.32517 0
M  V30 4886 H 448.278 2.68673 -3.74983 0
M  V30 4887 H 446.521 2.46982 -3.56626 0
M  V30 4888 H 447.192 4.09829 -3.6979 0
M  V30 4889 H 449.668 3.75022 -1.80272 0
M  V30 4890 H 448.544 5.12331 -1.96999 0
M  V30 4891 H 448.805 4.40386 -0.388924 0
M  V30 4892 N 447.864 1.01787 1.20321 0
M  V30 4893 C 449.111 0.707936 1.89722 0
M  V30 4894 C 449.439 -0.762535 1.78929 0
M  V30 4895 O 448.694 -1.56977 1.16861 0
M  V30 4896 C 448.993 1.09076 3.40349 0
M  V30 4897 C 448.659 2.55765 3.71342 0
M  V30 4898 C 447.321 2.95845 3.79511 0
M  V30 4899 C 449.673 3.50723 3.85542 0
M  V30 4900 C 447.001 4.2982 3.99339 0
M  V30 4901 C 449.353 4.84387 4.06881 0
M  V30 4902 C 448.017 5.24172 4.1328 0
M  V30 4903 H 447.287 0.259052 0.694243 0
M  V30 4904 H 449.934 1.27868 1.42555 0
M  V30 4905 H 448.239 0.438453 3.89339 0
M  V30 4906 H 449.936 0.828636 3.92345 0
M  V30 4907 H 446.526 2.2371 3.65584 0
M  V30 4908 H 450.71 3.20916 3.78585 0
M  V30 4909 H 445.966 4.60196 4.02529 0
M  V30 4910 H 450.14 5.57891 4.1681 0
M  V30 4911 H 447.767 6.27997 4.28396 0
M  V30 4912 N 449.342 -1.36122 0.79427 0
M  V30 4913 C 450.589 -1.99111 0.368905 0
M  V30 4914 C 450.917 -1.63032 -1.0607 0
M  V30 4915 O 450.172 -0.879303 -1.74833 0
M  V30 4916 C 450.471 -3.5409 0.48527 0
M  V30 4917 C 450.137 -4.10003 1.87638 0
M  V30 4918 C 448.799 -4.24986 2.257 0
M  V30 4919 C 451.151 -4.40423 2.78706 0
M  V30 4920 C 448.479 -4.67701 3.54221 0
M  V30 4921 C 450.831 -4.84573 4.0666 0
M  V30 4922 C 449.495 -4.97761 4.44737 0
M  V30 4923 H 448.765 -0.7286 0.134992 0
M  V30 4924 H 451.412 -1.62534 1.01267 0
M  V30 4925 H 449.717 -3.91052 -0.241984 0
M  V30 4926 H 451.414 -4.00766 0.137109 0
M  V30 4927 H 448.004 -3.98784 1.57064 0
M  V30 4928 H 452.188 -4.28412 2.50553 0
M  V30 4929 H 447.444 -4.761 3.83587 0
M  V30 4930 H 451.618 -5.07074 4.77336 0
M  V30 4931 H 449.245 -5.30618 5.44379 0
M  V30 4932 N 450.82 -0.546701 -1.47814 0
M  V30 4933 C 451.75 0.195317 -2.32682 0
M  V30 4934 C 452.731 0.918981 -1.43139 0
M  V30 4935 O 453.916 0.901501 -1.72008 0
M  V30 4936 C 451.046 1.23237 -3.247 0
M  V30 4937 C 450 0.625818 -4.234 0
M  V30 4938 C 449.326 1.76674 -5.04669 0
M  V30 4939 C 450.626 -0.413515 -5.2066 0
M  V30 4940 H 452.32 -0.513184 -2.94969 0
M  V30 4941 H 449.866 -0.248241 -1.41844 0
M  V30 4942 H 451.819 1.75955 -3.82907 0
M  V30 4943 H 450.543 1.97067 -2.60446 0
M  V30 4944 H 449.202 0.120023 -3.66403 0
M  V30 4945 H 448.85 2.49383 -4.36826 0
M  V30 4946 H 448.55 1.36673 -5.71484 0
M  V30 4947 H 450.074 2.29738 -5.65732 0
M  V30 4948 H 451.488 0.0272042 -5.73294 0
M  V30 4949 H 449.885 -0.731825 -5.95621 0
M  V30 4950 H 450.955 -1.31325 -4.66778 0
M  V30 4951 N 452.299 1.55045 -0.282633 0
M  V30 4952 C 453.229 2.2579 0.595066 0
M  V30 4953 C 454.21 1.25074 1.15284 0
M  V30 4954 O 455.395 1.5381 1.18559 0
M  V30 4955 C 452.525 2.98472 1.77572 0
M  V30 4956 C 451.479 4.0618 1.34914 0
M  V30 4957 C 450.805 4.66477 2.6135 0
M  V30 4958 C 452.105 5.1996 0.493821 0
M  V30 4959 H 453.799 2.994 0.00505653 0
M  V30 4960 H 451.345 1.44 0.000992001 0
M  V30 4961 H 453.298 3.46677 2.39568 0
M  V30 4962 H 452.022 2.2241 2.39168 0
M  V30 4963 H 450.681 3.58797 0.752338 0
M  V30 4964 H 450.329 3.87074 3.2122 0
M  V30 4965 H 450.029 5.39207 2.33516 0
M  V30 4966 H 451.553 5.17435 3.24181 0
M  V30 4967 H 452.967 5.64172 1.01898 0
M  V30 4968 H 451.364 5.99299 0.310047 0
M  V30 4969 H 452.434 4.82462 -0.485593 0
M  V30 4970 N 453.777 0.010035 1.57597 0
M  V30 4971 C 454.707 -0.976857 2.12084 0
M  V30 4972 C 455.688 -1.35191 1.03235 0
M  V30 4973 O 456.873 -1.43389 1.3097 0
M  V30 4974 C 454.003 -2.26548 2.63236 0
M  V30 4975 C 452.957 -2.03175 3.76701 0
M  V30 4976 C 452.283 -3.38138 4.14206 0
M  V30 4977 C 453.583 -1.38625 5.03568 0
M  V30 4978 H 455.277 -0.523145 2.94794 0
M  V30 4979 H 452.823 -0.250195 1.4181 0
M  V30 4980 H 454.776 -2.95952 2.99984 0
M  V30 4981 H 453.5 -2.74051 1.77661 0
M  V30 4982 H 452.159 -1.36195 3.40362 0
M  V30 4983 H 451.807 -3.83363 3.25641 0
M  V30 4984 H 451.507 -3.23312 4.90656 0
M  V30 4985 H 453.031 -4.08841 4.53521 0
M  V30 4986 H 454.445 -1.98 5.38023 0
M  V30 4987 H 452.842 -1.34256 5.84889 0
M  V30 4988 H 453.912 -0.356722 4.83586 0
M  V30 4989 N 455.255 -1.55392 -0.262866 0
M  V30 4990 C 456.501 -1.76737 -0.99458 0
M  V30 4991 C 456.834 -0.572453 -1.85571 0
M  V30 4992 O 456.109 0.429732 -1.89693 0
M  V30 4993 C 456.392 -3.07824 -1.8686 0
M  V30 4994 C 456.245 -4.3769 -1.03672 0
M  V30 4995 C 457.564 -3.35021 -2.85393 0
M  V30 4996 H 454.683 -0.643005 -0.360157 0
M  V30 4997 H 457.325 -1.88126 -0.266216 0
M  V30 4998 H 455.475 -2.98245 -2.48962 0
M  V30 4999 H 457.147 -4.59238 -0.43563 0
M  V30 5000 H 455.39 -4.32461 -0.340513 0
M  V30 5001 H 456.061 -5.25759 -1.6817 0
M  V30 5002 H 458.537 -3.44458 -2.33426 0
M  V30 5003 H 457.413 -4.27989 -3.43681 0
M  V30 5004 H 457.674 -2.55153 -3.61039 0
M  V30 5005 N 456.733 0.527833 -1.48498 0
M  V30 5006 C 457.643 1.65907 -1.65867 0
M  V30 5007 C 458.659 1.6537 -0.541192 0
M  V30 5008 O 459.835 1.84282 -0.812534 0
M  V30 5009 C 456.9 3.02364 -1.69637 0
M  V30 5010 C 455.961 3.1374 -2.93028 0
M  V30 5011 C 455.194 4.43688 -2.96609 0
M  V30 5012 O 455.417 5.30913 -2.08538 0
M  V30 5013 O 454.351 4.59475 -3.88802 0
M  V30 5014 H 458.177 1.5419 -2.61647 0
M  V30 5015 H 455.762 0.701163 -1.31924 0
M  V30 5016 H 457.644 3.83515 -1.74625 0
M  V30 5017 H 456.319 3.14401 -0.770312 0
M  V30 5018 H 455.226 2.31877 -2.93571 0
M  V30 5019 H 456.559 3.06621 -3.85026 0
M  V30 5020 N 458.211 1.37122 0.776871 0
M  V30 5021 C 459.46 1.31373 1.53049 0
M  V30 5022 C 459.773 -0.101016 1.95339 0
M  V30 5023 O 460.979 -0.280953 2.70042 0
M  V30 5024 C 459.435 2.30567 2.76346 0
M  V30 5025 C 459.043 3.77543 2.41175 0
M  V30 5026 C 460.787 2.33818 3.54301 0
M  V30 5027 C 458.694 4.68481 3.60943 0
M  V30 5028 H 457.624 0.488234 0.574581 0
M  V30 5029 H 460.275 1.62554 0.851372 0
M  V30 5030 H 458.657 1.92396 3.46121 0
M  V30 5031 H 459.831 4.24521 1.79216 0
M  V30 5032 H 458.146 3.77187 1.76405 0
M  V30 5033 H 460.743 2.98965 4.4331 0
M  V30 5034 H 461.086 1.3503 3.93793 0
M  V30 5035 H 461.619 2.7067 2.91518 0
M  V30 5036 H 458.358 5.68378 3.26537 0
M  V30 5037 H 457.878 4.2621 4.22025 0
M  V30 5038 H 459.557 4.85366 4.27819 0
M  V30 5039 N 459.689 -1.00246 1.21608 0
M  V30 5040 C 460.938 -1.73476 1.02902 0
M  V30 5041 C 461.251 -1.90643 -0.437561 0
M  V30 5042 O 462.457 -2.61105 -0.74407 0
M  V30 5043 C 460.913 -3.12079 1.79261 0
M  V30 5044 C 460.521 -3.02877 3.30106 0
M  V30 5045 C 462.265 -3.89421 1.68972 0
M  V30 5046 C 460.172 -4.36575 3.98944 0
M  V30 5047 H 459.102 -0.650408 0.381425 0
M  V30 5048 H 461.753 -1.11985 1.45367 0
M  V30 5049 H 460.135 -3.74196 1.2959 0
M  V30 5050 H 461.309 -2.49983 3.87098 0
M  V30 5051 H 459.624 -2.39022 3.40965 0
M  V30 5052 H 462.221 -4.88362 2.17731 0
M  V30 5053 H 462.564 -4.1122 0.648397 0
M  V30 5054 H 463.097 -3.33963 2.16133 0
M  V30 5055 H 459.836 -4.19978 5.03288 0
M  V30 5056 H 459.356 -4.8942 3.4674 0
M  V30 5057 H 461.035 -5.05364 4.04 0
M  V30 5058 N 461.167 -1.02423 -1.1978 0
M  V30 5059 C 462.578 -0.748389 -1.71044 0
M  V30 5060 C 462.929 0.732398 -1.82017 0
M  V30 5061 O 462.054 1.57116 -1.48807 0
M  V30 5062 C 462.649 -1.35187 -3.1066 0
M  V30 5063 C 461.208 -1.12472 -3.59203 0
M  V30 5064 C 460.355 -1.45283 -2.36195 0
M  V30 5065 H 463.306 -1.19275 -1.04686 0
M  V30 5066 H 463.327 -0.746408 -3.73107 0
M  V30 5067 H 462.839 -2.4296 -3.02642 0
M  V30 5068 H 460.94 -0.0649983 -3.72543 0
M  V30 5069 H 461.053 -1.81016 -4.43588 0
M  V30 5070 H 459.417 -0.872034 -2.39307 0
M  V30 5071 H 460.2 -2.54129 -2.30811 0
M  V30 5072 N 462.645 1.35699 -0.801477 0
M  V30 5073 C 463.87 2.03687 -0.390678 0
M  V30 5074 C 464.295 1.60015 0.988778 0
M  V30 5075 O 463.653 0.774357 1.63931 0
M  V30 5076 C 463.701 3.57439 -0.476404 0
M  V30 5077 O 462.805 4.09208 0.512106 0
M  V30 5078 H 462.146 0.64344 -0.163956 0
M  V30 5079 H 464.676 1.73403 -1.08594 0
M  V30 5080 H 464.686 4.06544 -0.344357 0
M  V30 5081 H 463.361 3.88576 -1.48262 0
M  V30 5082 H 461.938 3.7134 0.340721 0
M  V30 5083 N 464.123 0.554532 1.47522 0
M  V30 5084 C 465.351 0.034257 2.06872 0
M  V30 5085 C 465.766 -1.25826 1.40759 0
M  V30 5086 O 465.123 -1.75425 0.503217 0
M  V30 5087 C 465.174 -0.167827 3.6111 0
M  V30 5088 O 464.895 1.07351 4.24744 0
M  V30 5089 C 466.396 -0.72569 4.3732 0
M  V30 5090 H 463.616 0.0446275 0.669514 0
M  V30 5091 H 466.16 0.767181 1.89564 0
M  V30 5092 H 464.315 -0.850872 3.7794 0
M  V30 5093 H 464.729 0.869563 5.17242 0
M  V30 5094 H 466.203 -0.816394 5.45929 0
M  V30 5095 H 466.68 -1.73635 4.0342 0
M  V30 5096 H 467.286 -0.0784292 4.25228 0
M  V30 5097 N 465.601 -1.54893 0.290851 0
M  V30 5098 C 466.826 -2.04804 -0.32712 0
M  V30 5099 C 467.251 -1.16721 -1.47506 0
M  V30 5100 O 466.609 -0.169107 -1.8051 0
M  V30 5101 C 466.657 -3.52268 -0.770689 0
M  V30 5102 O 465.761 -3.67236 -1.87647 0
M  V30 5103 H 465.102 -0.660789 -0.0652227 0
M  V30 5104 H 467.632 -2.00036 0.429739 0
M  V30 5105 H 467.642 -3.9393 -1.06223 0
M  V30 5106 H 466.317 -4.15843 0.069096 0
M  V30 5107 H 464.894 -3.37479 -1.58626 0
M  V30 5108 N 467.08 -0.0183926 -1.57589 0
M  V30 5109 C 468.01 0.965596 -2.12599 0
M  V30 5110 C 468.991 1.34641 -1.0395 0
M  V30 5111 O 470.176 1.42693 -1.31729 0
M  V30 5112 C 467.306 2.25149 -2.64434 0
M  V30 5113 C 466.26 2.01175 -3.77773 0
M  V30 5114 C 465.586 3.35937 -4.15994 0
M  V30 5115 C 466.886 1.35953 -5.04296 0
M  V30 5116 H 468.58 0.507504 -2.95067 0
M  V30 5117 H 466.126 0.242671 -1.41941 0
M  V30 5118 H 468.079 2.94357 -3.01549 0
M  V30 5119 H 466.803 2.73105 -1.79112 0
M  V30 5120 H 465.462 1.34388 -3.4108 0
M  V30 5121 H 465.11 3.81631 -3.27669 0
M  V30 5122 H 464.81 3.20705 -4.92364 0
M  V30 5123 H 466.334 4.0643 -4.55683 0
M  V30 5124 H 467.748 1.95144 -5.39065 0
M  V30 5125 H 466.145 1.31152 -5.85593 0
M  V30 5126 H 467.215 0.331071 -4.83768 0
M  V30 5127 N 468.558 1.5553 0.254621 0
M  V30 5128 C 469.804 1.77262 0.985193 0
M  V30 5129 C 470.137 0.582286 1.85265 0
M  V30 5130 O 469.412 -0.419666 1.89919 0
M  V30 5131 C 469.695 3.0881 1.85225 0
M  V30 5132 C 469.548 4.38233 1.0135 0
M  V30 5133 C 470.867 3.3653 2.83612 0
M  V30 5134 H 467.986 0.644906 0.356742 0
M  V30 5135 H 470.628 1.88264 0.256236 0
M  V30 5136 H 468.778 2.99562 2.47376 0
M  V30 5137 H 470.45 4.59463 0.411269 0
M  V30 5138 H 468.693 4.32636 0.317574 0
M  V30 5139 H 469.364 5.26644 1.65379 0
M  V30 5140 H 471.84 3.45691 2.31596 0
M  V30 5141 H 470.716 4.29805 3.41407 0
M  V30 5142 H 470.977 2.57064 3.59681 0
M  V30 5143 N 470.036 -0.519951 1.48776 0
M  V30 5144 C 471.285 -1.27175 1.56555 0
M  V30 5145 C 471.598 -1.9401 0.248869 0
M  V30 5146 O 472.804 -2.70725 0.205004 0
M  V30 5147 C 471.26 -2.30811 2.76142 0
M  V30 5148 C 470.868 -1.7 4.14493 0
M  V30 5149 C 472.612 -3.06937 2.9324 0
M  V30 5150 C 470.519 -2.71635 5.25327 0
M  V30 5151 H 469.449 -0.478329 0.582853 0
M  V30 5152 H 472.1 -0.547916 1.75129 0
M  V30 5153 H 470.482 -3.06274 2.51023 0
M  V30 5154 H 471.656 -1.00658 4.49672 0
M  V30 5155 H 469.971 -1.06331 4.02595 0
M  V30 5156 H 472.568 -3.82905 3.73213 0
M  V30 5157 H 472.911 -3.63409 2.03075 0
M  V30 5158 H 473.444 -2.38589 3.18308 0
M  V30 5159 H 470.183 -2.1997 6.1749 0
M  V30 5160 H 469.703 -3.39275 4.94624 0
M  V30 5161 H 471.382 -3.34429 5.53865 0
M  V30 5162 N 471.514 -1.37532 -0.769588 0
M  V30 5163 C 472.925 -1.29382 -1.346 0
M  V30 5164 C 473.276 0.0576039 -1.96115 0
M  V30 5165 O 472.401 0.95947 -1.93967 0
M  V30 5166 C 472.996 -2.34298 -2.44724 0
M  V30 5167 C 471.555 -2.29776 -2.98128 0
M  V30 5168 C 470.702 -2.18013 -1.71364 0
M  V30 5169 H 473.653 -1.48123 -0.56968 0
M  V30 5170 H 473.674 -1.99089 -3.24259 0
M  V30 5171 H 473.186 -3.32645 -1.99922 0
M  V30 5172 H 471.287 -1.34959 -3.47299 0
M  V30 5173 H 471.4 -3.23276 -3.53595 0
M  V30 5174 H 469.764 -1.64595 -1.94372 0
M  V30 5175 H 470.547 -3.18278 -1.28662 0
M  V30 5176 N 472.992 0.995999 -1.22138 0
M  V30 5177 C 473.922 2.10387 -1.01289 0
M  V30 5178 C 474.903 1.69975 0.0651454 0
M  V30 5179 O 476.088 1.9396 -0.0964628 0
M  V30 5180 C 473.218 3.42312 -0.586517 0
M  V30 5181 C 472.172 3.96558 -1.61014 0
M  V30 5182 C 471.498 5.24494 -1.0397 0
M  V30 5183 C 472.798 4.27595 -2.99933 0
M  V30 5184 H 474.492 2.28086 -1.93951 0
M  V30 5185 H 472.038 1.09607 -0.933928 0
M  V30 5186 H 473.991 4.19223 -0.427793 0
M  V30 5187 H 472.715 3.24431 0.375761 0
M  V30 5188 H 471.374 3.21776 -1.75658 0
M  V30 5189 H 471.022 5.02953 -0.0688703 0
M  V30 5190 H 470.722 5.61755 -1.72352 0
M  V30 5191 H 472.246 6.04042 -0.892494 0
M  V30 5192 H 473.66 4.95315 -2.8868 0
M  V30 5193 H 472.057 4.76021 -3.6541 0
M  V30 5194 H 473.127 3.35498 -3.50099 0
M  V30 5195 N 474.47 1.03057 1.19235 0
M  V30 5196 C 475.719 0.72326 1.88287 0
M  V30 5197 C 476.032 -0.751333 1.80594 0
M  V30 5198 O 477.238 -1.17176 2.44912 0
M  V30 5199 C 475.694 1.24338 3.3774 0
M  V30 5200 C 475.302 2.74587 3.53986 0
M  V30 5201 C 477.046 1.01213 4.12257 0
M  V30 5202 C 474.953 3.20009 4.97341 0
M  V30 5203 H 473.883 0.266848 0.705201 0
M  V30 5204 H 476.534 1.24509 1.34795 0
M  V30 5205 H 474.916 0.649457 3.90638 0
M  V30 5206 H 476.09 3.39649 3.11408 0
M  V30 5207 H 474.405 2.9601 2.9286 0
M  V30 5208 H 477.002 1.32675 5.17978 0
M  V30 5209 H 477.345 -0.051001 4.16269 0
M  V30 5210 H 477.878 1.57014 3.65501 0
M  V30 5211 H 474.617 4.25659 4.98493 0
M  V30 5212 H 474.137 2.59676 5.40674 0
M  V30 5213 H 475.816 3.13447 5.66003 0
M  V30 5214 N 475.948 -1.35272 0.808662 0
M  V30 5215 C 477.196 -1.98316 0.389233 0
M  V30 5216 C 477.517 -1.64465 -1.04767 0
M  V30 5217 O 476.787 -0.928175 -1.72516 0
M  V30 5218 H 475.367 -0.733585 0.140935 0
M  V30 5219 H 478.029 -1.6515 1.03496 0
M  V30 5220 H 477.125 -3.08123 0.496631 0
M  V30 5221 N 477.426 -0.562348 -1.47226 0
M  V30 5222 C 478.373 0.182461 -2.30078 0
M  V30 5223 C 479.343 0.903503 -1.39377 0
M  V30 5224 O 480.528 0.898188 -1.68337 0
M  V30 5225 C 477.668 1.20322 -3.23445 0
M  V30 5226 C 476.781 0.487717 -4.29238 0
M  V30 5227 C 475.916 1.49422 -5.09752 0
M  V30 5228 C 474.955 0.763976 -6.07314 0
M  V30 5229 N 474.092 1.71755 -6.80768 0
M  V30 5230 H 478.932 -0.530169 -2.93246 0
M  V30 5231 H 476.469 -0.273276 -1.44539 0
M  V30 5232 H 478.427 1.80768 -3.76004 0
M  V30 5233 H 477.057 1.88382 -2.6213 0
M  V30 5234 H 476.109 -0.231374 -3.79696 0
M  V30 5235 H 477.421 -0.0841003 -4.98729 0
M  V30 5236 H 476.575 2.17206 -5.66486 0
M  V30 5237 H 475.314 2.09995 -4.40174 0
M  V30 5238 H 474.319 0.0722344 -5.49753 0
M  V30 5239 H 475.544 0.16391 -6.78902 0
M  V30 5240 H 473.49 2.31177 -6.13916 0
M  V30 5241 H 473.407 1.19802 -7.46447 0
M  V30 5242 H 474.675 2.38638 -7.42073 0
M  V30 5243 N 478.904 1.54736 -0.299062 0
M  V30 5244 C 480.134 2.04215 0.312992 0
M  V30 5245 C 480.542 1.17596 1.48215 0
M  V30 5246 O 479.885 0.193835 1.82674 0
M  V30 5247 C 479.947 3.49696 0.833862 0
M  V30 5248 C 479.611 4.56518 -0.20977 0
M  V30 5249 C 480.608 5.09442 -1.03756 0
M  V30 5250 C 478.293 5.01073 -0.35091 0
M  V30 5251 C 480.287 6.05459 -1.99244 0
M  V30 5252 C 477.974 5.9691 -1.30924 0
M  V30 5253 C 478.972 6.48987 -2.1285 0
M  V30 5254 O 478.66 7.42947 -3.07059 0
M  V30 5255 H 478.392 0.672128 0.0722494 0
M  V30 5256 H 480.946 2.00718 -0.436043 0
M  V30 5257 H 479.176 3.5051 1.63339 0
M  V30 5258 H 480.865 3.82381 1.36159 0
M  V30 5259 H 481.631 4.75816 -0.939376 0
M  V30 5260 H 477.51 4.60168 0.276813 0
M  V30 5261 H 481.054 6.46031 -2.63229 0
M  V30 5262 H 476.951 6.29953 -1.40815 0
M  V30 5263 H 477.719 7.60743 -3.02015 0
M  V30 5264 N 480.382 0.0267497 1.57577 0
M  V30 5265 C 481.312 -0.954308 2.13108 0
M  V30 5266 C 482.293 -1.34088 1.04663 0
M  V30 5267 O 483.478 -1.41992 1.32484 0
M  V30 5268 C 480.608 -2.23744 2.65624 0
M  V30 5269 C 479.562 -1.99168 3.78835 0
M  V30 5270 C 478.888 -3.33726 4.17769 0
M  V30 5271 C 480.188 -1.33277 5.0501 0
M  V30 5272 H 481.882 -0.491848 2.95332 0
M  V30 5273 H 479.428 -0.23514 1.42067 0
M  V30 5274 H 481.381 -2.92754 3.03106 0
M  V30 5275 H 480.105 -2.72151 1.80558 0
M  V30 5276 H 478.764 -1.32577 3.41788 0
M  V30 5277 H 478.412 -3.79888 3.29688 0
M  V30 5278 H 478.112 -3.18089 4.94058 0
M  V30 5279 H 479.636 -4.04008 4.57832 0
M  V30 5280 H 481.05 -1.92283 5.40093 0
M  V30 5281 H 479.447 -1.28045 5.8628 0
M  V30 5282 H 480.517 -0.305411 4.83937 0
M  V30 5283 N 481.861 -1.55662 -0.24637 0
M  V30 5284 C 482.791 -1.93377 -1.30873 0
M  V30 5285 C 483.772 -0.798773 -1.50179 0
M  V30 5286 O 484.957 -1.0591 -1.62778 0
M  V30 5287 C 482.087 -2.22893 -2.66338 0
M  V30 5288 C 481.041 -3.38649 -2.61727 0
M  V30 5289 C 480.367 -3.53708 -4.00992 0
M  V30 5290 C 481.667 -4.74323 -2.18666 0
M  V30 5291 H 483.361 -2.82363 -0.995552 0
M  V30 5292 H 480.907 -1.35854 -0.477464 0
M  V30 5293 H 482.86 -2.47866 -3.40794 0
M  V30 5294 H 481.584 -1.30733 -2.99293 0
M  V30 5295 H 480.243 -3.13685 -1.89729 0
M  V30 5296 H 479.891 -2.58967 -4.31214 0
M  V30 5297 H 479.591 -4.31551 -3.98795 0
M  V30 5298 H 481.115 -3.81003 -4.77147 0
M  V30 5299 H 482.529 -4.98665 -2.82854 0
M  V30 5300 H 480.926 -5.55273 -2.27579 0
M  V30 5301 H 481.996 -4.71349 -1.13834 0
M  V30 5302 N 483.339 0.512053 -1.4905 0
M  V30 5303 C 484.586 1.26686 -1.57978 0
M  V30 5304 C 484.914 1.92733 -0.261553 0
M  V30 5305 O 484.169 1.80772 0.749667 0
M  V30 5306 C 484.468 2.36446 -2.68008 0
M  V30 5307 C 484.134 1.87932 -4.09869 0
M  V30 5308 C 482.796 1.74419 -4.48477 0
M  V30 5309 C 485.148 1.5149 -4.98698 0
M  V30 5310 C 482.476 1.22827 -5.73699 0
M  V30 5311 C 484.828 1.01355 -6.24428 0
M  V30 5312 C 483.492 0.864735 -6.61875 0
M  V30 5313 H 482.762 0.463577 -0.578081 0
M  V30 5314 H 485.409 0.569421 -1.82838 0
M  V30 5315 H 483.714 3.11933 -2.37076 0
M  V30 5316 H 485.411 2.9453 -2.72127 0
M  V30 5317 H 482.001 1.99405 -3.79389 0
M  V30 5318 H 486.185 1.60782 -4.69535 0
M  V30 5319 H 481.441 1.10008 -6.01422 0
M  V30 5320 H 485.615 0.722351 -6.92644 0
M  V30 5321 H 483.242 0.462777 -7.5879 0
M  V30 5322 N 484.817 1.37938 0.762283 0
M  V30 5323 C 486.045 1.36883 1.55147 0
M  V30 5324 C 486.46 -0.0435348 1.8875 0
M  V30 5325 O 485.817 -1.00786 1.52146 0
M  V30 5326 C 485.868 2.21624 2.85596 0
M  V30 5327 O 485.589 3.57358 2.5343 0
M  V30 5328 C 487.09 2.28653 3.7978 0
M  V30 5329 H 484.31 0.468521 0.480343 0
M  V30 5330 H 486.854 1.81404 0.944079 0
M  V30 5331 H 485.009 1.80588 3.42734 0
M  V30 5332 H 485.423 4.01883 3.37032 0
M  V30 5333 H 486.897 2.9225 4.68288 0
M  V30 5334 H 487.374 1.29767 4.19592 0
M  V30 5335 H 487.98 2.70043 3.28568 0
M  V30 5336 N 486.295 -0.989507 1.22664 0
M  V30 5337 C 487.228 -2.07805 0.942985 0
M  V30 5338 C 488.206 -1.6219 -0.115356 0
M  V30 5339 O 489.39 -1.88492 0.0169565 0
M  V30 5340 C 486.517 -3.361 0.418898 0
M  V30 5341 C 485.563 -4.00643 1.46244 0
M  V30 5342 S 486.396 -4.41059 3.03689 0
M  V30 5343 C 487.552 -5.7252 2.52927 0
M  V30 5344 H 487.785 -2.31547 1.86476 0
M  V30 5345 H 485.318 -1.12446 1.05808 0
M  V30 5346 H 487.276 -4.10315 0.123114 0
M  V30 5347 H 485.937 -3.10383 -0.481818 0
M  V30 5348 H 485.13 -4.93033 1.04569 0
M  V30 5349 H 484.732 -3.32767 1.7071 0
M  V30 5350 H 487.024 -6.49017 1.94379 0
M  V30 5351 H 487.967 -6.19026 3.4382 0
M  V30 5352 H 488.375 -5.30083 1.94094 0
M  V30 5353 N 487.773 -1.03688 -1.18687 0
M  V30 5354 C 489.019 -0.739123 -1.88851 0
M  V30 5355 C 489.352 0.731042 -1.79915 0
M  V30 5356 O 488.627 1.53313 -1.19688 0
M  V30 5357 C 488.91 -1.20106 -3.3948 0
M  V30 5358 C 488.763 -2.73304 -3.57246 0
M  V30 5359 C 490.082 -0.788134 -4.32986 0
M  V30 5360 H 487.201 -0.269978 -0.68577 0
M  V30 5361 H 489.843 -1.28822 -1.3966 0
M  V30 5362 H 487.993 -0.733915 -3.81505 0
M  V30 5363 H 489.665 -3.28027 -3.24339 0
M  V30 5364 H 487.908 -3.13313 -3.00029 0
M  V30 5365 H 488.579 -3.00684 -4.62918 0
M  V30 5366 H 491.055 -1.19005 -3.98719 0
M  V30 5367 H 489.931 -1.13915 -5.36949 0
M  V30 5368 H 490.192 0.308988 -4.41019 0
M  V30 5369 N 489.251 1.34841 -0.815825 0
M  V30 5370 C 490.181 2.32187 -0.247298 0
M  V30 5371 C 491.162 1.5791 0.632344 0
M  V30 5372 O 492.347 1.8593 0.560698 0
M  V30 5373 C 489.477 3.42122 0.597466 0
M  V30 5374 C 488.431 4.27602 -0.184446 0
M  V30 5375 C 487.757 5.28942 0.782609 0
M  V30 5376 C 489.057 5.03502 -1.38865 0
M  V30 5377 H 490.751 2.79985 -1.06061 0
M  V30 5378 H 488.297 1.34611 -0.511461 0
M  V30 5379 H 490.25 4.09232 1.00533 0
M  V30 5380 H 488.974 2.92956 1.44376 0
M  V30 5381 H 487.633 3.62085 -0.573592 0
M  V30 5382 H 487.281 4.7604 1.62466 0
M  V30 5383 H 486.981 5.87008 0.263695 0
M  V30 5384 H 488.505 5.98922 1.18848 0
M  V30 5385 H 489.919 5.63506 -1.05518 0
M  V30 5386 H 488.316 5.71108 -1.8427 0
M  V30 5387 H 489.386 4.33608 -2.17054 0
M  V30 5388 N 490.729 0.570148 1.46925 0
M  V30 5389 C 491.975 0.0510284 2.02736 0
M  V30 5390 C 492.308 -1.3006 1.44215 0
M  V30 5391 O 491.583 -1.84932 0.602521 0
M  V30 5392 C 491.866 -0.028215 3.60089 0
M  V30 5393 C 491.719 1.35142 4.29018 0
M  V30 5394 C 493.038 -0.735181 4.33916 0
M  V30 5395 H 490.157 0.0200178 0.736728 0
M  V30 5396 H 492.799 0.73493 1.75211 0
M  V30 5397 H 490.949 -0.610648 3.83671 0
M  V30 5398 H 492.621 1.97806 4.16738 0
M  V30 5399 H 490.864 1.9226 3.88868 0
M  V30 5400 H 491.535 1.24857 5.37694 0
M  V30 5401 H 494.011 -0.240519 4.15404 0
M  V30 5402 H 492.887 -0.759622 5.43618 0
M  V30 5403 H 493.148 -1.79397 4.04066 0
M  V30 5404 N 492.207 -1.54576 0.307264 0
M  V30 5405 C 493.435 -2.04675 -0.302597 0
M  V30 5406 C 493.85 -1.18425 -1.47041 0
M  V30 5407 O 493.207 -0.211257 -1.81273 0
M  V30 5408 C 493.258 -3.53575 -0.752801 0
M  V30 5409 O 492.979 -4.36547 0.368536 0
M  V30 5410 C 494.48 -4.19699 -1.42717 0
M  V30 5411 H 491.7 -0.66786 -0.0648374 0
M  V30 5412 H 494.244 -1.99516 0.448716 0
M  V30 5413 H 492.399 -3.59074 -1.45412 0
M  V30 5414 H 492.813 -5.24497 0.0168937 0
M  V30 5415 H 494.287 -5.25388 -1.69327 0
M  V30 5416 H 494.764 -3.69815 -2.36925 0
M  V30 5417 H 495.37 -4.18293 -0.768856 0
M  V30 5418 N 493.685 -0.035106 -1.57561 0
M  V30 5419 C 494.615 0.942993 -2.13612 0
M  V30 5420 C 495.596 1.33531 -1.05373 0
M  V30 5421 O 496.781 1.41287 -1.33235 0
M  V30 5422 C 493.911 2.22332 -2.66807 0
M  V30 5423 C 492.865 1.97156 -3.79886 0
M  V30 5424 C 492.191 3.31506 -4.19533 0
M  V30 5425 C 493.491 1.30596 -5.05709 0
M  V30 5426 H 495.185 0.476179 -2.95589 0
M  V30 5427 H 492.731 0.227602 -1.4219 0
M  V30 5428 H 494.684 2.91142 -3.04654 0
M  V30 5429 H 493.408 2.7119 -1.81999 0
M  V30 5430 H 492.067 1.30763 -3.42486 0
M  V30 5431 H 491.715 3.78134 -3.31698 0
M  V30 5432 H 491.415 3.15465 -4.95738 0
M  V30 5433 H 492.939 4.01574 -4.59968 0
M  V30 5434 H 494.353 1.89416 -5.41105 0
M  V30 5435 H 492.75 1.24934 -5.86951 0
M  V30 5436 H 493.82 0.279742 -4.84092 0
M  V30 5437 N 495.163 1.55791 0.238111 0
M  V30 5438 C 496.388 1.8244 0.986432 0
M  V30 5439 C 496.813 0.613314 1.7782 0
M  V30 5440 O 496.171 -0.437767 1.75935 0
M  V30 5441 C 496.219 3.06917 1.893 0
M  V30 5442 O 495.323 2.84449 2.98601 0
M  V30 5443 H 494.664 0.601975 0.280218 0
M  V30 5444 H 497.194 2.02987 0.256437 0
M  V30 5445 H 497.204 3.36583 2.30598 0
M  V30 5446 H 495.879 3.947 1.31091 0
M  V30 5447 H 494.456 2.65972 2.61368 0
M  V30 5448 N 496.642 -0.504142 1.49319 0
M  V30 5449 C 497.888 -1.26033 1.58882 0
M  V30 5450 C 498.221 -1.92268 0.273274 0
M  V30 5451 O 497.496 -1.80567 -0.72291 0
M  V30 5452 C 497.779 -2.32976 2.7458 0
M  V30 5453 C 497.632 -1.71263 4.1592 0
M  V30 5454 C 498.951 -3.34561 2.85932 0
M  V30 5455 H 496.07 -0.456863 0.578312 0
M  V30 5456 H 498.712 -0.558965 1.81592 0
M  V30 5457 H 496.862 -2.92796 2.55348 0
M  V30 5458 H 498.534 -1.15294 4.4666 0
M  V30 5459 H 496.777 -1.01686 4.21714 0
M  V30 5460 H 497.448 -2.48816 4.92742 0
M  V30 5461 H 499.924 -2.84727 3.0343 0
M  V30 5462 H 498.8 -4.06754 3.68568 0
M  V30 5463 H 499.061 -3.96695 1.95154 0
M  V30 5464 N 498.12 -1.38341 -0.754957 0
M  V30 5465 C 499.366 -1.34672 -1.51628 0
M  V30 5466 C 499.699 0.0636036 -1.94096 0
M  V30 5467 O 498.974 1.0245 -1.6533 0
M  V30 5468 C 499.257 -2.30116 -2.76981 0
M  V30 5469 C 499.11 -3.80003 -2.4066 0
M  V30 5470 C 500.429 -2.23715 -3.78998 0
M  V30 5471 H 497.548 -0.490517 -0.550056 0
M  V30 5472 H 500.19 -1.69178 -0.864807 0
M  V30 5473 H 498.34 -2.00821 -3.3257 0
M  V30 5474 H 500.012 -4.19966 -1.90856 0
M  V30 5475 H 498.255 -3.97751 -1.73137 0
M  V30 5476 H 498.926 -4.42244 -3.30339 0
M  V30 5477 H 501.402 -2.49574 -3.32945 0
M  V30 5478 H 500.278 -2.9261 -4.64403 0
M  V30 5479 H 500.539 -1.23554 -4.24484 0
M  V30 5480 N 499.598 0.982988 -1.23187 0
M  V30 5481 C 500.844 1.72648 -1.06398 0
M  V30 5482 C 501.177 1.90066 0.398561 0
M  V30 5483 O 500.452 1.45105 1.29518 0
M  V30 5484 C 500.735 3.12627 -1.78707 0
M  V30 5485 C 500.588 3.02795 -3.32618 0
M  V30 5486 C 501.907 4.11997 -1.54747 0
M  V30 5487 H 499.026 0.626649 -0.387918 0
M  V30 5488 H 501.668 1.14455 -1.51658 0
M  V30 5489 H 499.818 3.62308 -1.40234 0
M  V30 5490 H 501.49 2.60659 -3.80598 0
M  V30 5491 H 499.733 2.39362 -3.61785 0
M  V30 5492 H 500.404 4.01893 -3.78399 0
M  V30 5493 H 502.88 3.71114 -1.88186 0
M  V30 5494 H 501.756 5.08037 -2.07821 0
M  V30 5495 H 502.017 4.39462 -0.482249 0
M  V30 5496 N 501.076 1.04316 1.18135 0
M  V30 5497 C 502.304 0.768117 1.92113 0
M  V30 5498 C 502.719 -0.675057 1.76319 0
M  V30 5499 O 502.076 -1.46038 1.09449 0
M  V30 5500 C 502.127 1.12808 3.43448 0
M  V30 5501 O 501.848 2.5146 3.58747 0
M  V30 5502 C 503.349 0.8779 4.3452 0
M  V30 5503 H 500.569 0.279937 0.609817 0
M  V30 5504 H 503.113 1.39149 1.49859 0
M  V30 5505 H 501.268 0.549623 3.83481 0
M  V30 5506 H 501.682 2.65313 4.52448 0
M  V30 5507 H 503.156 1.17959 5.39249 0
M  V30 5508 H 503.633 -0.187239 4.38801 0
M  V30 5509 H 504.239 1.43977 4.00188 0
M  V30 5510 N 502.554 -1.34406 0.822964 0
M  V30 5511 C 503.8 -1.98578 0.411666 0
M  V30 5512 C 504.133 -1.65093 -1.02264 0
M  V30 5513 O 503.408 -0.92258 -1.71227 0
M  V30 5514 C 503.691 -3.54823 0.614235 0
M  V30 5515 C 503.544 -3.9805 2.09466 0
M  V30 5516 C 504.863 -4.40071 0.050221 0
M  V30 5517 H 501.982 -0.721355 0.151047 0
M  V30 5518 H 504.624 -1.59301 1.03554 0
M  V30 5519 H 502.774 -3.88411 0.0831774 0
M  V30 5520 H 504.446 -3.74795 2.68936 0
M  V30 5521 H 502.689 -3.4836 2.5851 0
M  V30 5522 H 503.36 -5.06819 2.18721 0
M  V30 5523 H 505.836 -4.13037 0.503953 0
M  V30 5524 H 504.712 -5.48452 0.221759 0
M  V30 5525 H 504.973 -4.29576 -1.04482 0
M  V30 5526 N 504.032 -0.577932 -1.46621 0
M  V30 5527 C 505.278 -0.0617793 -2.02706 0
M  V30 5528 C 505.611 1.29294 -1.44903 0
M  V30 5529 O 504.886 1.8461 -0.61232 0
M  V30 5530 C 505.169 0.00911824 -3.60099 0
M  V30 5531 C 505.022 -1.37416 -4.28295 0
M  V30 5532 C 506.341 0.712159 -4.343 0
M  V30 5533 H 503.46 -0.0239246 -0.736612 0
M  V30 5534 H 506.102 -0.744211 -1.74818 0
M  V30 5535 H 504.252 0.590292 -3.83989 0
M  V30 5536 H 505.924 -2.00013 -4.15683 0
M  V30 5537 H 504.167 -1.94319 -3.87843 0
M  V30 5538 H 504.838 -1.27707 -5.37024 0
M  V30 5539 H 507.314 0.218486 -4.15526 0
M  V30 5540 H 506.19 0.730782 -5.44014 0
M  V30 5541 H 506.451 1.77251 -4.05012 0
M  V30 5542 N 505.51 1.54411 -0.315457 0
M  V30 5543 C 506.738 2.04833 0.291738 0
M  V30 5544 C 507.153 1.19203 1.46411 0
M  V30 5545 O 506.51 0.220867 1.81159 0
M  V30 5546 C 506.561 3.53969 0.73404 0
M  V30 5547 O 506.282 4.36346 -0.391682 0
M  V30 5548 C 507.783 4.2045 1.40489 0
M  V30 5549 H 505.003 0.668195 0.0612947 0
M  V30 5550 H 507.547 1.99276 -0.45929 0
M  V30 5551 H 505.702 3.5984 1.43506 0
M  V30 5552 H 506.116 5.24481 -0.0447088 0
M  V30 5553 H 507.59 5.26278 1.66539 0
M  V30 5554 H 508.067 3.71067 2.3496 0
M  V30 5555 H 508.673 4.18694 0.746662 0
M  V30 5556 N 506.988 0.0434614 1.5754 0
M  V30 5557 C 507.918 -0.931651 2.14109 0
M  V30 5558 C 508.899 -1.32971 1.06079 0
M  V30 5559 O 510.084 -1.40579 1.33982 0
M  V30 5560 C 507.214 -2.20914 2.67982 0
M  V30 5561 C 506.168 -1.95139 3.80926 0
M  V30 5562 C 505.494 -3.29276 4.21285 0
M  V30 5563 C 506.794 -1.27913 5.06395 0
M  V30 5564 H 508.488 -0.460497 2.95837 0
M  V30 5565 H 506.034 -0.220058 1.42309 0
M  V30 5566 H 507.987 -2.89522 3.06194 0
M  V30 5567 H 506.711 -2.70221 1.83434 0
M  V30 5568 H 505.37 -1.28945 3.43175 0
M  V30 5569 H 505.018 -3.76369 3.33699 0
M  V30 5570 H 504.718 -3.12831 4.97404 0
M  V30 5571 H 506.242 -3.99129 4.62091 0
M  V30 5572 H 507.656 -1.86544 5.42102 0
M  V30 5573 H 506.053 -1.2182 5.87605 0
M  V30 5574 H 507.123 -0.254066 4.84234 0
M  V30 5575 N 508.466 -1.55915 -0.229846 0
M  V30 5576 C 509.414 -1.9258 -1.30444 0
M  V30 5577 C 510.408 -0.806839 -1.48951 0
M  V30 5578 O 511.614 -0.991606 -1.50224 0
M  V30 5579 H 507.989 -0.611878 -0.437161 0
M  V30 5580 H 509.96 -2.82264 -0.96797 0
M  V30 5581 C 508.709 -2.25171 -2.6494 0
M  V30 5582 H 508.032 -3.10782 -2.51504 0
M  V30 5583 H 509.472 -2.54716 -3.38963 0
M  V30 5584 C 507.931 -1.07394 -3.19324 0
M  V30 5585 O 508.461 -0.330759 -4.00336 0
M  V30 5586 N 506.667 -0.859984 -2.77584 0
M  V30 5587 H 506.214 -1.46605 -2.11813 0
M  V30 5588 H 506.172 -0.0736671 -3.14314 0
M  V30 5589 N 509.944 0.496216 -1.49584 0
M  V30 5590 C 511.19 1.25189 -1.59548 0
M  V30 5591 C 511.523 1.9212 -0.283466 0
M  V30 5592 O 510.798 1.80947 0.713324 0
M  V30 5593 C 511.081 2.31516 -2.75812 0
M  V30 5594 C 510.934 1.69054 -4.16822 0
M  V30 5595 C 512.253 3.3304 -2.87702 0
M  V30 5596 H 509.372 0.45379 -0.580727 0
M  V30 5597 H 512.014 0.549327 -1.81886 0
M  V30 5598 H 510.164 2.91438 -2.56897 0
M  V30 5599 H 511.836 1.12923 -4.47265 0
M  V30 5600 H 510.079 0.994485 -4.22247 0
M  V30 5601 H 510.75 2.462 -4.94054 0
M  V30 5602 H 513.226 2.83114 -3.04936 0
M  V30 5603 H 512.102 4.04794 -3.7072 0
M  V30 5604 H 512.363 3.95655 -1.97255 0
M  V30 5605 N 511.423 1.38739 0.74761 0
M  V30 5606 C 512.373 1.32948 1.85226 0
M  V30 5607 C 513.357 0.212642 1.59489 0
M  V30 5608 O 514.549 0.449121 1.71207 0
M  V30 5609 C 511.678 1.16279 3.23008 0
M  V30 5610 C 510.764 2.32611 3.54617 0
M  V30 5611 N 511.155 3.58065 3.57244 0
M  V30 5612 C 509.453 2.25293 3.84914 0
M  V30 5613 C 510.154 4.34919 3.8629 0
M  V30 5614 N 509.13 3.64348 4.03425 0
M  V30 5615 H 512.932 2.27927 1.85544 0
M  V30 5616 H 510.446 1.32056 0.945253 0
M  V30 5617 H 512.443 1.10214 4.02068 0
M  V30 5618 H 511.103 0.222394 3.23937 0
M  V30 5619 H 512.114 3.91656 3.3886 0
M  V30 5620 H 508.791 1.39446 3.93524 0
M  V30 5621 H 510.181 5.43605 3.94896 0
M  V30 5622 N 512.901 -0.976442 1.23707 0
M  V30 5623 C 514.131 -1.75087 1.09673 0
M  V30 5624 C 514.539 -1.85852 -0.354344 0
M  V30 5625 O 513.882 -1.33985 -1.25673 0
M  V30 5626 C 513.944 -3.19272 1.65245 0
M  V30 5627 C 513.608 -3.32004 3.14042 0
M  V30 5628 C 514.605 -3.18017 4.11292 0
M  V30 5629 C 512.29 -3.56525 3.53829 0
M  V30 5630 C 514.284 -3.28363 5.46312 0
M  V30 5631 C 511.971 -3.6651 4.88993 0
M  V30 5632 C 512.969 -3.52439 5.85043 0
M  V30 5633 O 512.657 -3.62063 7.1775 0
M  V30 5634 H 512.389 -0.556164 0.384262 0
M  V30 5635 H 514.943 -1.23518 1.64111 0
M  V30 5636 H 513.173 -3.72107 1.05231 0
M  V30 5637 H 514.862 -3.7849 1.46629 0
M  V30 5638 H 515.628 -2.98966 3.81896 0
M  V30 5639 H 511.507 -3.66547 2.79579 0
M  V30 5640 H 515.051 -3.17297 6.21263 0
M  V30 5641 H 510.948 -3.85072 5.18063 0
M  V30 5642 H 511.716 -3.78833 7.25553 0
M  V30 5643 N 514.379 -1.04941 -1.1758 0
M  V30 5644 C 515.795 -0.770282 -1.39781 0
M  V30 5645 C 515.995 0.636417 -1.91186 0
M  V30 5646 O 515.051 1.39923 -2.10185 0
M  V30 5647 C 516.364 -1.82376 -2.3908 0
M  V30 5648 C 517.912 -1.84569 -2.52791 0
M  V30 5649 C 518.387 -2.88933 -3.55361 0
M  V30 5650 N 519.878 -2.8788 -3.62877 0
M  V30 5651 C 520.613 -3.65282 -4.41992 0
M  V30 5652 N 520.109 -4.52461 -5.24643 0
M  V30 5653 N 521.902 -3.53732 -4.36841 0
M  V30 5654 H 514.053 -1.95705 -0.825438 0
M  V30 5655 H 516.316 -0.847284 -0.425222 0
M  V30 5656 H 516.022 -2.83323 -2.08376 0
M  V30 5657 H 515.896 -1.66327 -3.38549 0
M  V30 5658 H 518.283 -0.842879 -2.82807 0
M  V30 5659 H 518.364 -2.04696 -1.53406 0
M  V30 5660 H 518.008 -3.89398 -3.26085 0
M  V30 5661 H 517.938 -2.66059 -4.54445 0
M  V30 5662 H 520.429 -2.24666 -3.03864 0
M  V30 5663 H 520.742 -5.08211 -5.82187 0
M  V30 5664 H 519.087 -4.56524 -5.24033 0
M  V30 5665 H 522.278 -2.85021 -3.71323 0
M  V30 5666 H 522.451 -4.14302 -4.98255 0
M  V30 5667 N 515.857 1.33968 -0.830081 0
M  V30 5668 C 517.082 2.02813 -0.433796 0
M  V30 5669 C 517.507 1.62076 0.954614 0
M  V30 5670 O 516.865 0.808955 1.62252 0
M  V30 5671 C 516.913 3.56348 -0.552115 0
M  V30 5672 O 516.017 4.10202 0.425191 0
M  V30 5673 H 515.358 0.639817 -0.177567 0
M  V30 5674 H 517.888 1.7106 -1.12248 0
M  V30 5675 H 517.898 4.05722 -0.430513 0
M  V30 5676 H 516.573 3.85344 -1.56471 0
M  V30 5677 H 515.15 3.71979 0.261878 0
M  V30 5678 N 517.335 0.585699 1.46312 0
M  V30 5679 C 518.746 0.159938 1.86014 0
M  V30 5680 C 519.097 -1.27775 1.48889 0
M  V30 5681 O 518.222 -1.96559 0.90519 0
M  V30 5682 C 518.817 0.283485 3.37612 0
M  V30 5683 C 517.376 -0.0874256 3.76298 0
M  V30 5684 C 516.523 0.618055 2.70325 0
M  V30 5685 H 519.474 0.793737 1.37425 0
M  V30 5686 H 519.495 -0.490348 3.77327 0
M  V30 5687 H 519.007 1.32995 3.64601 0
M  V30 5688 H 517.108 -1.13391 3.54927 0
M  V30 5689 H 517.221 0.290975 4.78216 0
M  V30 5690 H 515.585 0.057993 2.54634 0
M  V30 5691 H 516.368 1.66623 3.00153 0
M  V30 5692 N 518.813 -1.54241 0.323641 0
M  V30 5693 C 520.041 -2.04985 -0.280871 0
M  V30 5694 C 520.456 -1.19978 -1.45777 0
M  V30 5695 O 519.813 -0.230471 -1.81039 0
M  V30 5696 C 519.864 -3.54353 -0.715258 0
M  V30 5697 O 519.585 -4.36132 0.414817 0
M  V30 5698 C 521.086 -4.21189 -1.38257 0
M  V30 5699 H 518.306 -0.66851 -0.0577502 0
M  V30 5700 H 520.85 -1.99029 0.469852 0
M  V30 5701 H 519.005 -3.60596 -1.41596 0
M  V30 5702 H 519.419 -5.2445 0.0725227 0
M  V30 5703 H 520.893 -5.27154 -1.63745 0
M  V30 5704 H 521.37 -3.72307 -2.32989 0
M  V30 5705 H 521.976 -4.19085 -0.724447 0
M  V30 5706 N 520.291 -0.0518155 -1.57515 0
M  V30 5707 C 521.519 0.631395 -1.9703 0
M  V30 5708 C 521.934 1.64341 -0.92938 0
M  V30 5709 O 521.291 1.82296 0.0863266 0
M  V30 5710 C 521.342 1.31774 -3.36627 0
M  V30 5711 O 521.063 0.346247 -4.3673 0
M  V30 5712 C 522.564 2.09065 -3.90905 0
M  V30 5713 H 519.784 0.172576 -0.648428 0
M  V30 5714 H 522.328 -0.118306 -2.04158 0
M  V30 5715 H 520.483 2.01867 -3.30649 0
M  V30 5716 H 520.897 0.836226 -5.17791 0
M  V30 5717 H 522.371 2.52508 -4.9086 0
M  V30 5718 H 522.848 2.93908 -3.26366 0
M  V30 5719 H 523.454 1.43882 -4.00223 0
M  V30 5720 N 521.769 1.56035 0.221574 0
M  V30 5721 C 522.719 1.8881 1.27807 0
M  V30 5722 C 523.703 0.751177 1.42289 0
M  V30 5723 O 524.895 1.01359 1.45104 0
M  V30 5724 C 522.024 2.20828 2.6285 0
M  V30 5725 C 521.11 3.40912 2.52269 0
M  V30 5726 N 521.501 4.59531 2.1134 0
M  V30 5727 C 519.799 3.44526 2.83228 0
M  V30 5728 C 520.5 5.41689 2.1201 0
M  V30 5729 N 519.476 4.814 2.52497 0
M  V30 5730 H 523.278 2.78036 0.952529 0
M  V30 5731 H 520.792 1.566 0.430134 0
M  V30 5732 H 522.789 2.42483 3.39127 0
M  V30 5733 H 521.449 1.32914 2.9625 0
M  V30 5734 H 522.46 4.8469 1.82472 0
M  V30 5735 H 519.137 2.66956 3.21 0
M  V30 5736 H 520.527 6.46643 1.82491 0
M  V30 5737 N 523.247 -0.488276 1.49845 0
M  V30 5738 C 524.475 -1.26527 1.63702 0
M  V30 5739 C 524.89 -1.8618 0.313447 0
M  V30 5740 O 524.247 -1.68432 -0.702624 0
M  V30 5741 C 524.298 -2.3864 2.71538 0
M  V30 5742 O 524.019 -1.81437 3.98763 0
M  V30 5743 C 525.52 -3.29805 2.96215 0
M  V30 5744 H 522.74 -0.383295 0.55075 0
M  V30 5745 H 525.284 -0.584779 1.95961 0
M  V30 5746 H 523.439 -3.02496 2.42023 0
M  V30 5747 H 523.853 -2.55135 4.58265 0
M  V30 5748 H 525.327 -4.04722 3.75372 0
M  V30 5749 H 525.804 -3.87563 2.06619 0
M  V30 5750 H 526.41 -2.71703 3.27196 0
M  V30 5751 N 524.725 -1.39134 -0.740242 0
M  V30 5752 C 525.658 -1.3182 -1.86276 0
M  V30 5753 C 526.636 -0.192794 -1.61453 0
M  V30 5754 O 527.82 -0.372365 -1.84786 0
M  V30 5755 C 524.947 -1.04564 -3.22155 0
M  V30 5756 C 523.993 -2.19224 -3.65846 0
M  V30 5757 S 524.826 -3.81466 -3.75824 0
M  V30 5758 C 525.982 -3.56425 -5.14502 0
M  V30 5759 H 526.215 -2.26822 -1.92195 0
M  V30 5760 H 523.748 -1.25127 -0.904576 0
M  V30 5761 H 525.706 -0.895228 -4.00619 0
M  V30 5762 H 524.367 -0.112578 -3.13898 0
M  V30 5763 H 523.56 -1.95732 -4.6444 0
M  V30 5764 H 523.162 -2.30441 -2.94572 0
M  V30 5765 H 525.454 -3.13366 -6.00673 0
M  V30 5766 H 526.397 -4.54462 -5.43019 0
M  V30 5767 H 526.805 -2.90641 -4.8393 0
M  V30 5768 N 526.204 0.969867 -1.24223 0
M  V30 5769 C 527.615 1.52717 -1.07399 0
M  V30 5770 C 527.966 1.92956 0.355298 0
M  V30 5771 O 527.091 1.77112 1.2434 0
M  V30 5772 C 527.686 2.77521 -1.94339 0
M  V30 5773 C 526.245 3.29615 -1.81744 0
M  V30 5774 C 525.392 2.02537 -1.89405 0
M  V30 5775 H 528.343 0.788399 -1.37732 0
M  V30 5776 H 528.364 3.50773 -1.47439 0
M  V30 5777 H 527.876 2.48203 -2.98357 0
M  V30 5778 H 525.977 3.63789 -0.805505 0
M  V30 5779 H 526.09 3.98661 -2.65718 0
M  V30 5780 H 524.454 2.17151 -1.33108 0
M  V30 5781 H 525.237 1.75587 -2.94999 0
M  V30 5782 N 527.682 1.05563 1.17022 0
M  V30 5783 C 528.629 0.659893 2.21165 0
M  V30 5784 C 529.599 -0.339813 1.62587 0
M  V30 5785 O 530.784 -0.230378 1.89404 0
M  V30 5786 C 527.924 0.0447297 3.45071 0
M  V30 5787 C 527.037 1.09372 4.17926 0
M  V30 5788 C 526.172 0.445481 5.29329 0
M  V30 5789 C 525.211 1.47852 5.93975 0
M  V30 5790 N 524.348 0.854172 6.96885 0
M  V30 5791 H 529.188 1.55243 2.54369 0
M  V30 5792 H 526.725 0.776336 1.24946 0
M  V30 5793 H 528.683 -0.329404 4.15898 0
M  V30 5794 H 527.313 -0.811244 3.1244 0
M  V30 5795 H 526.365 1.58564 3.45777 0
M  V30 5796 H 527.677 1.87773 4.62107 0
M  V30 5797 H 526.831 0.0179688 6.06697 0
M  V30 5798 H 525.57 -0.370481 4.86291 0
M  V30 5799 H 524.575 1.91601 5.15334 0
M  V30 5800 H 525.8 2.29645 6.39093 0
M  V30 5801 H 523.746 0.0587882 6.55974 0
M  V30 5802 H 523.663 1.57567 7.39397 0
M  V30 5803 H 524.931 0.451559 7.78191 0
M  V30 5804 N 529.16 -1.33526 0.837174 0
M  V30 5805 C 530.406 -1.98541 0.44193 0
M  V30 5806 C 530.761 -1.65124 -0.987517 0
M  V30 5807 O 530.054 -0.919948 -1.6807 0
M  V30 5808 C 530.248 -3.52367 0.597675 0
M  V30 5809 C 530.077 -4.00731 2.04071 0
M  V30 5810 C 528.847 -4.28649 2.67559 0
M  V30 5811 C 531.045 -4.17073 3.00923 0
M  V30 5812 N 529.027 -4.63142 4.02955 0
M  V30 5813 C 530.398 -4.54905 4.21261 0
M  V30 5814 C 532.453 -3.99358 2.97351 0
M  V30 5815 C 531.156 -4.76874 5.38501 0
M  V30 5816 C 533.182 -4.22501 4.1382 0
M  V30 5817 C 532.544 -4.60634 5.32912 0
M  V30 5818 H 528.643 -0.753246 0.210105 0
M  V30 5819 H 531.227 -1.61674 1.08488 0
M  V30 5820 H 529.398 -3.88397 -0.0154658 0
M  V30 5821 H 531.13 -4.04326 0.17404 0
M  V30 5822 H 527.885 -4.20077 2.18706 0
M  V30 5823 H 528.309 -4.84601 4.72748 0
M  V30 5824 H 532.951 -3.68993 2.06408 0
M  V30 5825 H 530.669 -5.06101 6.2999 0
M  V30 5826 H 534.255 -4.10316 4.12471 0
M  V30 5827 H 533.135 -4.78187 6.21536 0
M  V30 5828 N 530.638 -0.59345 -1.46 0
M  V30 5829 C 531.571 0.182196 -2.27472 0
M  V30 5830 C 532.549 0.886901 -1.36282 0
M  V30 5831 O 533.733 0.898627 -1.65701 0
M  V30 5832 C 530.86 1.26236 -3.14296 0
M  V30 5833 C 529.906 0.662331 -4.21326 0
M  V30 5834 S 530.739 -0.519017 -5.32979 0
M  V30 5835 C 531.895 0.562086 -6.23371 0
M  V30 5836 H 532.128 -0.509056 -2.92909 0
M  V30 5837 H 529.661 -0.380607 -1.49635 0
M  V30 5838 H 531.619 1.88075 -3.64881 0
M  V30 5839 H 530.28 1.92562 -2.48151 0
M  V30 5840 H 529.473 1.47461 -4.81945 0
M  V30 5841 H 529.075 0.119381 -3.73809 0
M  V30 5842 H 531.367 1.44494 -6.61912 0
M  V30 5843 H 532.31 -0.00760776 -7.081 0
M  V30 5844 H 532.718 0.871061 -5.57739 0
M  V30 5845 N 532.116 1.54067 -0.331816 0
M  V30 5846 C 533.063 2.24623 0.530372 0
M  V30 5847 C 534.033 1.24009 1.10503 0
M  V30 5848 O 535.218 1.52712 1.14384 0
M  V30 5849 C 532.358 3.01374 1.68129 0
M  V30 5850 C 531.471 4.16821 1.13507 0
M  V30 5851 C 530.606 4.81085 2.25234 0
M  V30 5852 C 529.645 5.88621 1.67903 0
M  V30 5853 N 528.782 6.46713 2.73326 0
M  V30 5854 H 533.622 2.97898 -0.0778607 0
M  V30 5855 H 531.159 1.47014 -0.0501965 0
M  V30 5856 H 533.117 3.44125 2.35868 0
M  V30 5857 H 531.747 2.30419 2.26069 0
M  V30 5858 H 530.799 3.78796 0.348979 0
M  V30 5859 H 532.111 4.94203 0.675633 0
M  V30 5860 H 531.265 5.26846 3.00862 0
M  V30 5861 H 530.004 4.03102 2.74518 0
M  V30 5862 H 529.009 5.42254 0.907773 0
M  V30 5863 H 530.234 6.68506 1.19487 0
M  V30 5864 H 528.18 5.71599 3.21886 0
M  V30 5865 H 528.097 7.19532 2.3197 0
M  V30 5866 H 529.365 6.97129 3.48758 0
M  V30 5867 N 533.594 0.0601682 1.57485 0
M  V30 5868 C 535.01 -0.296422 1.56823 0
M  V30 5869 C 535.21 -1.70831 1.0686 0
M  V30 5870 O 534.266 -2.4174 0.729245 0
M  V30 5871 C 535.579 -0.116681 3.00474 0
M  V30 5872 C 537.127 -0.187103 3.1244 0
M  V30 5873 C 537.602 -0.035783 4.57986 0
M  V30 5874 N 539.093 -0.0917676 4.63109 0
M  V30 5875 C 539.828 0.00107251 5.734 0
M  V30 5876 N 539.324 0.146773 6.92645 0
M  V30 5877 N 541.117 -0.0551577 5.62073 0
M  V30 5878 H 533.268 0.983055 1.88281 0
M  V30 5879 H 535.531 0.382386 0.867459 0
M  V30 5880 H 535.237 0.85712 3.41096 0
M  V30 5881 H 535.111 -0.873929 3.66936 0
M  V30 5882 H 537.498 -1.15138 2.71712 0
M  V30 5883 H 537.579 0.601052 2.48638 0
M  V30 5884 H 537.223 0.925212 4.99402 0
M  V30 5885 H 537.153 -0.843196 5.19806 0
M  V30 5886 H 539.644 -0.203261 3.77353 0
M  V30 5887 H 539.957 0.210076 7.72514 0
M  V30 5888 H 538.302 0.181979 6.94762 0
M  V30 5889 H 541.493 -0.167605 4.678 0
M  V30 5890 H 541.666 0.020652 6.47997 0
M  V30 5891 N 535.072 -1.5615 -0.213296 0
M  V30 5892 C 536.002 -1.96109 -1.26742 0
M  V30 5893 C 536.983 -0.830448 -1.48451 0
M  V30 5894 O 538.168 -1.09339 -1.60495 0
M  V30 5895 C 535.298 -2.28492 -2.61551 0
M  V30 5896 C 534.252 -3.44124 -2.54485 0
M  V30 5897 C 533.578 -3.62134 -3.93399 0
M  V30 5898 C 534.878 -4.78855 -2.08556 0
M  V30 5899 H 536.572 -2.84412 -0.935434 0
M  V30 5900 H 534.118 -1.36836 -0.44854 0
M  V30 5901 H 536.071 -2.55039 -3.3546 0
M  V30 5902 H 534.795 -1.37052 -2.96453 0
M  V30 5903 H 533.454 -3.17639 -1.83033 0
M  V30 5904 H 533.102 -2.68055 -4.25623 0
M  V30 5905 H 532.802 -4.39913 -3.89551 0
M  V30 5906 H 534.326 -3.91038 -4.68958 0
M  V30 5907 H 535.74 -5.04552 -2.72213 0
M  V30 5908 H 534.137 -5.59975 -2.1575 0
M  V30 5909 H 535.207 -4.73657 -1.03811 0
M  V30 5910 N 536.55 0.480323 -1.50102 0
M  V30 5911 C 537.797 1.23307 -1.60629 0
M  V30 5912 C 538.125 1.92135 -0.302375 0
M  V30 5913 O 537.38 1.82321 0.711154 0
M  V30 5914 C 537.679 2.30708 -2.72963 0
M  V30 5915 C 537.345 1.79195 -4.13763 0
M  V30 5916 C 536.007 1.64867 -4.52076 0
M  V30 5917 C 538.359 1.40878 -5.018 0
M  V30 5918 C 535.687 1.10631 -5.76175 0
M  V30 5919 C 538.039 0.880872 -6.26437 0
M  V30 5920 C 536.703 0.724146 -6.6356 0
M  V30 5921 H 535.973 0.451211 -0.587784 0
M  V30 5922 H 538.62 0.53051 -1.84005 0
M  V30 5923 H 536.925 3.06834 -2.43639 0
M  V30 5924 H 538.622 2.88692 -2.78313 0
M  V30 5925 H 535.212 1.91313 -3.83533 0
M  V30 5926 H 539.396 1.50786 -4.7284 0
M  V30 5927 H 534.652 0.972263 -6.0362 0
M  V30 5928 H 538.826 0.575269 -6.9402 0
M  V30 5929 H 536.453 0.301722 -7.59601 0
M  V30 5930 N 538.028 1.39524 0.732853 0
M  V30 5931 C 539.274 1.37068 1.49467 0
M  V30 5932 C 539.607 -0.0327166 1.94172 0
M  V30 5933 O 538.882 -0.998071 1.66939 0
M  V30 5934 C 539.165 2.34494 2.73285 0
M  V30 5935 C 539.018 3.83784 2.34585 0
M  V30 5936 C 540.337 2.29717 3.75391 0
M  V30 5937 H 537.456 0.499206 0.542183 0
M  V30 5938 H 540.098 1.70532 0.837783 0
M  V30 5939 H 538.248 2.06087 3.29333 0
M  V30 5940 H 539.92 4.22949 1.84151 0
M  V30 5941 H 538.163 4.00455 1.66787 0
M  V30 5942 H 538.834 4.47444 3.23262 0
M  V30 5943 H 541.31 2.54839 3.28932 0
M  V30 5944 H 540.186 2.99962 4.59689 0
M  V30 5945 H 540.447 1.30291 4.22465 0
M  V30 5946 N 539.506 -0.963266 1.24736 0
M  V30 5947 C 540.783 -1.68248 0.9976 0
M  V30 5948 C 541.163 -2.05599 -0.478776 0
M  V30 5949 O 540.511 -1.7626 -1.45412 0
M  V30 5950 C 540.721 -2.91118 1.92487 0
M  V30 5951 C 542.069 -3.63261 2.19833 0
M  V30 5952 O 543.093 -3.01184 1.90176 0
M  V30 5953 O 541.952 -4.75019 2.7022 0
M  V30 5954 H 539.046 -0.735744 0.377637 0
M  V30 5955 H 541.592 -1.01696 1.35853 0
M  V30 5956 H 540.364 -2.60242 2.92215 0
M  V30 5957 H 539.987 -3.65402 1.56738 0
M  V30 5958 N 540.985 -1.06182 -1.16461 0
M  V30 5959 C 542.232 -0.777863 -1.86964 0
M  V30 5960 C 542.56 0.695602 -1.81636 0
M  V30 5961 O 541.815 1.52532 -1.22607 0
M  V30 5962 C 542.114 -1.21633 -3.36066 0
M  V30 5963 C 541.78 -2.69371 -3.61594 0
M  V30 5964 C 540.442 -3.09727 -3.6827 0
M  V30 5965 C 542.794 -3.64791 -3.7226 0
M  V30 5966 C 540.122 -4.44345 -3.83112 0
M  V30 5967 C 542.474 -4.99155 -3.88623 0
M  V30 5968 C 541.138 -5.39149 -3.93541 0
M  V30 5969 H 540.408 -0.28464 -0.68415 0
M  V30 5970 H 543.055 -1.33071 -1.37711 0
M  V30 5971 H 541.36 -0.582651 -3.87443 0
M  V30 5972 H 543.057 -0.973682 -3.88999 0
M  V30 5973 H 539.647 -2.37124 -3.57029 0
M  V30 5974 H 543.831 -3.34746 -3.66413 0
M  V30 5975 H 539.087 -4.74819 -3.85172 0
M  V30 5976 H 543.261 -5.72976 -3.95817 0
M  V30 5977 H 540.888 -6.43464 -4.04794 0
M  V30 5978 N 542.463 1.3308 -0.844243 0
M  V30 5979 C 543.393 2.3161 -0.296493 0
M  V30 5980 C 544.374 1.59215 0.598707 0
M  V30 5981 O 545.559 1.87077 0.521134 0
M  V30 5982 C 542.689 3.43313 0.524762 0
M  V30 5983 C 541.643 4.27115 -0.275106 0
M  V30 5984 C 540.969 5.30483 0.670236 0
M  V30 5985 C 542.269 5.00443 -1.49514 0
M  V30 5986 H 543.963 2.77672 -1.11976 0
M  V30 5987 H 541.509 1.33496 -0.539899 0
M  V30 5988 H 543.462 4.11273 0.918298 0
M  V30 5989 H 542.186 2.95952 1.3813 0
M  V30 5990 H 540.845 3.60787 -0.650267 0
M  V30 5991 H 540.493 4.79379 1.52332 0
M  V30 5992 H 540.193 5.87435 0.139123 0
M  V30 5993 H 541.717 6.01308 1.06117 0
M  V30 5994 H 543.131 5.61141 -1.17447 0
M  V30 5995 H 541.528 5.67071 -1.96343 0
M  V30 5996 H 542.598 4.28906 -2.26202 0
M  V30 5997 N 543.941 0.601185 1.45683 0
M  V30 5998 C 545.352 0.179659 1.85834 0
M  V30 5999 C 545.703 -1.26189 1.50236 0
M  V30 6000 O 544.828 -1.95587 0.925987 0
M  V30 6001 C 545.423 0.319277 3.37292 0
M  V30 6002 C 543.982 -0.0475092 3.7637 0
M  V30 6003 C 543.129 0.646692 2.69654 0
M  V30 6004 H 546.08 0.808268 1.36575 0
M  V30 6005 H 546.101 -0.4503 3.77826 0
M  V30 6006 H 545.613 1.36855 3.6317 0
M  V30 6007 H 543.714 -1.0962 3.5611 0
M  V30 6008 H 543.827 0.34168 4.7788 0
M  V30 6009 H 542.191 0.0849971 2.54558 0
M  V30 6010 H 542.974 1.69797 2.98369 0
M  V30 6011 N 545.419 -1.53889 0.339982 0
M  V30 6012 C 546.366 -2.24902 -0.518452 0
M  V30 6013 C 547.336 -1.24593 -1.09844 0
M  V30 6014 O 548.521 -1.53317 -1.13572 0
M  V30 6015 C 545.661 -3.02262 -1.66529 0
M  V30 6016 C 544.774 -4.17418 -1.11295 0
M  V30 6017 C 543.909 -4.82273 -2.2268 0
M  V30 6018 C 542.948 -5.89503 -1.6478 0
M  V30 6019 N 542.085 -6.48153 -2.69893 0
M  V30 6020 H 546.925 -2.97853 0.0936579 0
M  V30 6021 H 544.462 -1.46986 0.0579924 0
M  V30 6022 H 546.42 -3.45371 -2.3404 0
M  V30 6023 H 545.05 -2.31614 -2.24844 0
M  V30 6024 H 544.102 -3.78976 -0.328886 0
M  V30 6025 H 545.414 -4.94554 -0.649414 0
M  V30 6026 H 544.568 -5.28435 -2.98063 0
M  V30 6027 H 543.307 -4.04552 -2.72376 0
M  V30 6028 H 542.312 -5.42728 -0.879004 0
M  V30 6029 H 543.537 -6.6913 -1.1594 0
M  V30 6030 H 541.483 -5.73298 -3.1885 0
M  V30 6031 H 541.4 -7.20752 -2.28151 0
M  V30 6032 H 542.668 -6.98968 -3.45056 0
M  V30 6033 N 546.897 -0.0685191 -1.57451 0
M  V30 6034 C 548.127 0.609577 -1.97402 0
M  V30 6035 C 548.535 1.63882 -0.945489 0
M  V30 6036 O 547.878 1.8354 0.0766052 0
M  V30 6037 C 547.94 1.3385 -3.33653 0
M  V30 6038 C 547.604 0.463103 -4.54648 0
M  V30 6039 C 548.601 -0.277964 -5.19156 0
M  V30 6040 C 546.286 0.388941 -5.00792 0
M  V30 6041 C 548.28 -1.08145 -6.28159 0
M  V30 6042 C 545.967 -0.418217 -6.09667 0
M  V30 6043 C 546.965 -1.15208 -6.73213 0
M  V30 6044 O 546.653 -1.94594 -7.79993 0
M  V30 6045 H 546.385 0.170197 -0.654224 0
M  V30 6046 H 548.939 -0.13647 -2.04946 0
M  V30 6047 H 547.169 2.13055 -3.22714 0
M  V30 6048 H 548.858 1.90851 -3.58233 0
M  V30 6049 H 549.624 -0.230241 -4.84453 0
M  V30 6050 H 545.503 0.949769 -4.5111 0
M  V30 6051 H 549.047 -1.65476 -6.7769 0
M  V30 6052 H 544.944 -0.467515 -6.43805 0
M  V30 6053 H 545.712 -1.8699 -7.96854 0
M  V30 6054 N 548.375 1.56261 0.205012 0
M  V30 6055 C 549.305 1.96779 1.257 0
M  V30 6056 C 550.286 0.838309 1.48008 0
M  V30 6057 O 551.471 1.10189 1.59913 0
M  V30 6058 C 548.601 2.29876 2.60335 0
M  V30 6059 C 547.555 3.45469 2.52656 0
M  V30 6060 C 546.881 3.64215 3.91473 0
M  V30 6061 C 548.181 4.79954 2.06014 0
M  V30 6062 H 549.875 2.84904 0.920338 0
M  V30 6063 H 547.421 1.37072 0.441277 0
M  V30 6064 H 549.374 2.56814 3.34102 0
M  V30 6065 H 548.098 1.38622 2.95722 0
M  V30 6066 H 546.757 3.18605 1.81345 0
M  V30 6067 H 546.405 2.70309 4.24196 0
M  V30 6068 H 546.105 4.41973 3.87213 0
M  V30 6069 H 547.629 3.93519 4.66878 0
M  V30 6070 H 549.043 5.05989 2.69533 0
M  V30 6071 H 547.44 5.61111 2.12777 0
M  V30 6072 H 548.51 4.74201 1.01297 0
M  V30 6073 N 549.853 -0.472356 1.50355 0
M  V30 6074 C 550.783 -1.57859 1.72055 0
M  V30 6075 C 551.764 -1.60283 0.569505 0
M  V30 6076 O 552.949 -1.7657 0.808503 0
M  V30 6077 C 550.079 -2.96191 1.81351 0
M  V30 6078 C 549.033 -3.08633 2.96529 0
M  V30 6079 C 548.359 -4.486 2.90968 0
M  V30 6080 C 549.659 -2.85969 4.37057 0
M  V30 6081 H 551.353 -1.39953 2.64676 0
M  V30 6082 H 548.899 -0.671846 1.27367 0
M  V30 6083 H 550.852 -3.73507 1.95117 0
M  V30 6084 H 549.576 -3.15251 0.853502 0
M  V30 6085 H 548.235 -2.33749 2.82413 0
M  V30 6086 H 547.883 -4.64577 1.92815 0
M  V30 6087 H 547.583 -4.57861 3.68289 0
M  V30 6088 H 549.107 -5.27938 3.0678 0
M  V30 6089 H 550.521 -3.53036 4.51706 0
M  V30 6090 H 548.918 -3.06677 5.15819 0
M  V30 6091 H 549.988 -1.81838 4.49514 0
M  V30 6092 N 551.331 -1.39911 -0.725443 0
M  V30 6093 C 552.264 -1.33788 -1.84867 0
M  V30 6094 C 553.242 -0.209907 -1.61239 0
M  V30 6095 O 554.426 -0.391943 -1.8438 0
M  V30 6096 C 551.553 -1.07975 -3.21028 0
M  V30 6097 C 550.599 -2.23092 -3.635 0
M  V30 6098 S 551.432 -3.85431 -3.71757 0
M  V30 6099 C 552.588 -3.61862 -5.10692 0
M  V30 6100 H 552.821 -2.28848 -1.89779 0
M  V30 6101 H 550.354 -1.26079 -0.891254 0
M  V30 6102 H 552.312 -0.937669 -3.99647 0
M  V30 6103 H 550.973 -0.145865 -3.13761 0
M  V30 6104 H 550.166 -2.00647 -4.62338 0
M  V30 6105 H 549.768 -2.33553 -2.92112 0
M  V30 6106 H 552.06 -3.19719 -5.97316 0
M  V30 6107 H 553.003 -4.60196 -5.38169 0
M  V30 6108 H 553.411 -2.95757 -4.8082 0
M  V30 6109 N 552.809 0.956637 -1.25245 0
M  V30 6110 C 554.037 1.73571 -1.12608 0
M  V30 6111 C 554.452 1.86063 0.320324 0
M  V30 6112 O 553.809 1.35691 1.22042 0
M  V30 6113 C 553.86 3.15053 -1.77268 0
M  V30 6114 O 553.581 3.03174 -3.16255 0
M  V30 6115 C 555.082 4.09248 -1.70386 0
M  V30 6116 H 552.302 0.543955 -0.392879 0
M  V30 6117 H 554.846 1.20031 -1.65568 0
M  V30 6118 H 553.001 3.65543 -1.28284 0
M  V30 6119 H 553.415 3.9241 -3.48015 0
M  V30 6120 H 554.889 5.06138 -2.20291 0
M  V30 6121 H 555.366 4.34102 -0.667239 0
M  V30 6122 H 555.972 3.64672 -2.18849 0
M  V30 6123 N 554.287 1.06798 1.15896 0
M  V30 6124 C 555.703 0.792423 1.38538 0
M  V30 6125 C 555.903 -0.60592 1.92174 0
M  V30 6126 O 554.959 -1.36561 2.12385 0
M  V30 6127 C 556.272 1.86157 2.36149 0
M  V30 6128 C 557.82 1.88567 2.49823 0
M  V30 6129 C 558.295 2.9455 3.5072 0
M  V30 6130 N 559.786 2.93616 3.58251 0
M  V30 6131 C 560.521 3.72267 4.36125 0
M  V30 6132 N 560.017 4.60751 5.17379 0
M  V30 6133 N 561.81 3.60637 4.31158 0
M  V30 6134 H 553.961 1.96993 0.794198 0
M  V30 6135 H 556.224 0.853942 0.411688 0
M  V30 6136 H 555.93 2.86603 2.03843 0
M  V30 6137 H 555.804 1.71692 3.3586 0
M  V30 6138 H 558.191 0.887765 2.8143 0
M  V30 6139 H 558.272 2.0711 1.5013 0
M  V30 6140 H 557.916 3.94537 3.19849 0
M  V30 6141 H 557.846 2.73255 4.50155 0
M  V30 6142 H 560.337 2.29472 3.00252 0
M  V30 6143 H 560.65 5.17408 5.74028 0
M  V30 6144 H 558.995 4.64803 5.16704 0
M  V30 6145 H 562.186 2.90892 3.66742 0
M  V30 6146 H 562.359 4.22176 4.91601 0
M  V30 6147 N 555.766 -1.3263 0.851289 0
M  V30 6148 C 557.177 -1.79653 0.5081 0
M  V30 6149 C 557.528 -1.70327 -0.973815 0
M  V30 6150 O 556.653 -1.25986 -1.75944 0
M  V30 6151 C 557.248 -3.26196 0.915515 0
M  V30 6152 C 555.807 -3.71187 0.624277 0
M  V30 6153 C 554.954 -2.53804 1.11709 0
M  V30 6154 H 557.905 -1.19976 1.03882 0
M  V30 6155 H 557.926 -3.79801 0.230535 0
M  V30 6156 H 557.438 -3.32952 1.99411 0
M  V30 6157 H 555.539 -3.69948 -0.443737 0
M  V30 6158 H 555.652 -4.64132 1.18821 0
M  V30 6159 H 554.016 -2.48964 0.537484 0
M  V30 6160 H 554.799 -2.63315 2.20272 0
M  V30 6161 N 557.244 -0.608902 -1.45362 0
M  V30 6162 C 558.176 0.147318 -2.28726 0
M  V30 6163 C 559.189 0.830468 -1.40025 0
M  V30 6164 O 560.378 0.695636 -1.64387 0
M  V30 6165 C 557.478 1.22968 -3.15804 0
M  V30 6166 C 556.651 0.633391 -4.3279 0
M  V30 6167 C 555.71 1.60682 -5.01067 0
M  V30 6168 O 554.736 1.13261 -5.57818 0
M  V30 6169 N 555.938 2.94123 -5.00472 0
M  V30 6170 H 558.703 -0.568014 -2.94268 0
M  V30 6171 H 556.264 -0.448479 -1.55564 0
M  V30 6172 H 558.256 1.88072 -3.58345 0
M  V30 6173 H 556.826 1.84752 -2.52162 0
M  V30 6174 H 556.046 -0.195762 -3.93714 0
M  V30 6175 H 557.334 0.215255 -5.08344 0
M  V30 6176 H 556.732 3.3525 -4.55657 0
M  V30 6177 H 555.289 3.54646 -5.46872 0
M  V30 6178 N 558.722 1.53707 -0.348139 0
M  V30 6179 C 560.133 1.86213 0.134797 0
M  V30 6180 C 560.484 1.26925 1.49614 0
M  V30 6181 O 559.609 0.584573 2.08355 0
M  V30 6182 C 560.204 3.37866 0.251371 0
M  V30 6183 C 558.763 3.70233 0.678543 0
M  V30 6184 C 557.91 2.76683 -0.184925 0
M  V30 6185 H 560.861 1.48204 -0.567571 0
M  V30 6186 H 560.882 3.64908 1.07806 0
M  V30 6187 H 560.394 3.80988 -0.739581 0
M  V30 6188 H 558.495 3.32659 1.67835 0
M  V30 6189 H 558.608 4.76836 0.465251 0
M  V30 6190 H 556.972 2.52374 0.343465 0
M  V30 6191 H 557.755 3.22635 -1.1731 0
M  V30 6192 N 560.2 0.0768682 1.57412 0
M  V30 6193 C 561.611 -0.455037 1.8107 0
M  V30 6194 C 561.962 -1.69323 0.991162 0
M  V30 6195 O 561.087 -2.15328 0.215156 0
M  V30 6196 C 561.682 -0.832316 3.28417 0
M  V30 6197 C 560.241 -1.30906 3.52903 0
M  V30 6198 C 559.388 -0.296714 2.75708 0
M  V30 6199 H 562.339 0.302514 1.5579 0
M  V30 6200 H 562.36 -1.69333 3.40744 0
M  V30 6201 H 561.872 0.0690532 3.88039 0
M  V30 6202 H 559.973 -2.22875 2.98592 0
M  V30 6203 H 560.086 -1.28348 4.61588 0
M  V30 6204 H 558.45 -0.775059 2.42621 0
M  V30 6205 H 559.233 0.597015 3.38069 0
M  V30 6206 N 561.678 -1.56367 -0.196722 0
M  V30 6207 C 562.926 -1.80172 -0.915554 0
M  V30 6208 C 563.247 -0.649649 -1.8386 0
M  V30 6209 O 562.517 0.332111 -1.93064 0
M  V30 6210 H 561.097 -0.664592 -0.341067 0
M  V30 6211 H 563.759 -1.93844 -0.202622 0
M  V30 6212 H 562.855 -2.7327 -1.50764 0
M  V30 6213 N 563.156 0.464375 -1.50603 0
M  V30 6214 C 564.106 1.55929 -1.66343 0
M  V30 6215 C 565.09 1.52338 -0.517887 0
M  V30 6216 O 566.282 1.59248 -0.772601 0
M  V30 6217 C 563.411 2.94327 -1.7671 0
M  V30 6218 C 562.497 3.02777 -2.96962 0
M  V30 6219 N 562.888 2.81026 -4.20545 0
M  V30 6220 C 561.186 3.33919 -2.95659 0
M  V30 6221 C 561.887 2.94618 -5.01573 0
M  V30 6222 N 560.863 3.25112 -4.35664 0
M  V30 6223 H 564.665 1.37822 -2.59581 0
M  V30 6224 H 562.179 0.671227 -1.47879 0
M  V30 6225 H 564.176 3.73063 -1.86091 0
M  V30 6226 H 562.836 3.13476 -0.846353 0
M  V30 6227 H 563.847 2.56477 -4.49933 0
M  V30 6228 H 560.524 3.59013 -2.13111 0
M  V30 6229 H 561.914 2.81984 -6.09865 0
M  V30 6230 N 564.634 1.40294 0.718013 0
M  V30 6231 C 565.584 1.36847 1.82365 0
M  V30 6232 C 566.568 0.246424 1.59002 0
M  V30 6233 O 567.76 0.485336 1.70216 0
M  V30 6234 C 564.889 1.23105 3.20469 0
M  V30 6235 C 563.975 2.4008 3.49603 0
M  V30 6236 N 564.366 3.65562 3.49568 0
M  V30 6237 C 562.664 2.33407 3.80049 0
M  V30 6238 C 563.365 4.43015 3.76978 0
M  V30 6239 N 562.341 3.72823 3.95606 0
M  V30 6240 H 566.143 2.31811 1.80668 0
M  V30 6241 H 563.657 1.34031 0.91703 0
M  V30 6242 H 565.654 1.18718 3.9964 0
M  V30 6243 H 564.314 0.291056 3.23393 0
M  V30 6244 H 565.325 3.98756 3.30476 0
M  V30 6245 H 562.002 1.47762 3.90478 0
M  V30 6246 H 563.392 5.51859 3.83276 0
M  V30 6247 N 566.112 -0.949982 1.2575 0
M  V30 6248 C 567.337 -1.73503 1.13628 0
M  V30 6249 C 567.762 -1.85601 -0.30559 0
M  V30 6250 O 567.12 -1.33984 -1.22139 0
M  V30 6251 C 567.168 -3.1243 1.80055 0
M  V30 6252 O 566.272 -3.97916 1.08336 0
M  V30 6253 H 565.613 -0.532665 0.396439 0
M  V30 6254 H 568.143 -1.19043 1.66403 0
M  V30 6255 H 568.153 -3.62866 1.86527 0
M  V30 6256 H 566.828 -3.02941 2.84956 0
M  V30 6257 H 565.405 -3.56375 1.09777 0
M  V30 6258 N 567.59 -1.07411 -1.15328 0
M  V30 6259 C 568.537 -0.694995 -2.20087 0
M  V30 6260 C 569.507 0.313904 -1.63107 0
M  V30 6261 O 570.692 0.200216 -1.89747 0
M  V30 6262 C 567.832 -0.0996218 -3.44956 0
M  V30 6263 C 566.945 -1.16007 -4.16133 0
M  V30 6264 C 566.08 -0.529636 -5.28553 0
M  V30 6265 C 565.119 -1.57283 -5.91548 0
M  V30 6266 N 564.256 -0.964932 -6.95438 0
M  V30 6267 H 569.096 -1.5927 -2.51867 0
M  V30 6268 H 566.633 -0.796115 -1.23695 0
M  V30 6269 H 568.591 0.263197 -4.16369 0
M  V30 6270 H 567.221 0.761435 -3.13691 0
M  V30 6271 H 566.273 -1.64045 -3.4321 0
M  V30 6272 H 567.585 -1.95101 -4.59061 0
M  V30 6273 H 566.739 -0.114487 -6.06592 0
M  V30 6274 H 565.478 0.29307 -4.86819 0
M  V30 6275 H 564.483 -1.99775 -5.12221 0
M  V30 6276 H 565.708 -2.39783 -6.35359 0
M  V30 6277 H 563.654 -0.16314 -6.55797 0
M  V30 6278 H 563.571 -1.69311 -7.36797 0
M  V30 6279 H 564.839 -0.575305 -7.77374 0
M  V30 6280 N 569.068 1.32177 -0.85831 0
M  V30 6281 C 570.479 1.79381 -0.517621 0
M  V30 6282 C 570.83 1.70841 0.964769 0
M  V30 6283 O 569.955 1.26917 1.75274 0
M  V30 6284 C 570.55 3.25706 -0.932801 0
M  V30 6285 C 569.109 3.70851 -0.643953 0
M  V30 6286 C 568.256 2.53208 -1.13054 0
M  V30 6287 H 571.207 1.19424 -1.04516 0
M  V30 6288 H 571.228 3.79673 -0.250674 0
M  V30 6289 H 570.74 3.31889 -2.01174 0
M  V30 6290 H 568.841 3.70178 0.424112 0
M  V30 6291 H 568.954 4.63495 -1.21281 0
M  V30 6292 H 567.318 2.48676 -0.550679 0
M  V30 6293 H 568.101 2.62143 -2.21666 0
M  V30 6294 N 570.547 0.616602 1.45037 0
M  V30 6295 C 571.495 -0.109318 2.32343 0
M  V30 6296 C 572.489 -0.850543 1.465 0
M  V30 6297 O 573.695 -0.765088 1.62931 0
M  V30 6298 H 570.07 -0.0541091 0.750051 0
M  V30 6299 H 572.041 0.645326 2.91338 0
M  V30 6300 C 570.79 -1.0872 3.30266 0
M  V30 6301 H 570.113 -0.526267 3.96321 0
M  V30 6302 H 571.553 -1.56489 3.94065 0
M  V30 6303 C 570.012 -2.16525 2.58105 0
M  V30 6304 O 570.542 -3.244 2.36913 0
M  V30 6305 N 568.748 -1.92057 2.18088 0
M  V30 6306 H 568.295 -1.04337 2.35524 0
M  V30 6307 H 568.253 -2.64391 1.70131 0
M  V30 6308 N 572.025 -1.5352 0.356285 0
M  V30 6309 C 573.441 -1.59599 0.00485267 0
M  V30 6310 C 573.641 -1.37179 -1.47595 0
M  V30 6311 O 572.697 -1.17234 -2.23635 0
M  V30 6312 C 574.01 -2.97277 0.452454 0
M  V30 6313 C 575.558 -3.10357 0.405881 0
M  V30 6314 C 576.033 -4.50432 0.829148 0
M  V30 6315 N 577.524 -4.5652 0.783838 0
M  V30 6316 C 578.259 -5.63077 1.08315 0
M  V30 6317 N 577.755 -6.77429 1.45126 0
M  V30 6318 N 579.548 -5.53014 1.00655 0
M  V30 6319 H 571.699 -1.66346 1.32071 0
M  V30 6320 H 573.962 -0.77971 0.539218 0
M  V30 6321 H 573.668 -3.18792 1.48542 0
M  V30 6322 H 573.542 -3.76836 -0.165762 0
M  V30 6323 H 575.929 -2.88558 -0.617934 0
M  V30 6324 H 576.01 -2.32828 1.05947 0
M  V30 6325 H 575.654 -4.72968 1.85103 0
M  V30 6326 H 575.584 -5.26378 0.152906 0
M  V30 6327 H 578.075 -3.74408 0.512513 0
M  V30 6328 H 578.388 -7.54669 1.66415 0
M  V30 6329 H 576.733 -6.78844 1.48983 0
M  V30 6330 H 579.924 -4.62557 0.718215 0
M  V30 6331 H 580.097 -6.35964 1.24315 0
M  V30 6332 N 573.503 -0.0852151 -1.57369 0
M  V30 6333 C 574.45 0.877268 -2.13478 0
M  V30 6334 C 575.42 1.28642 -1.05073 0
M  V30 6335 O 576.605 1.36992 -1.32808 0
M  V30 6336 C 573.745 2.13464 -2.71159 0
M  V30 6337 C 572.858 1.77691 -3.93764 0
M  V30 6338 C 571.993 2.98139 -4.39643 0
M  V30 6339 C 571.032 2.58447 -5.54862 0
M  V30 6340 N 570.169 3.71698 -5.95639 0
M  V30 6341 H 575.009 0.391933 -2.95411 0
M  V30 6342 H 572.546 0.181796 -1.45972 0
M  V30 6343 H 574.504 2.87086 -3.02717 0
M  V30 6344 H 573.134 2.59514 -1.91969 0
M  V30 6345 H 572.186 0.940768 -3.68583 0
M  V30 6346 H 573.498 1.44497 -4.77412 0
M  V30 6347 H 572.652 3.80026 -4.72933 0
M  V30 6348 H 571.391 3.34536 -3.54876 0
M  V30 6349 H 570.396 1.74984 -5.21211 0
M  V30 6350 H 571.621 2.23205 -6.41371 0
M  V30 6351 H 569.567 4.07831 -5.13819 0
M  V30 6352 H 569.484 3.42317 -6.74059 0
M  V30 6353 H 570.752 4.54123 -6.33555 0
M  V30 6354 N 574.981 1.5647 0.188427 0
M  V30 6355 C 576.228 1.81013 0.907779 0
M  V30 6356 C 576.556 0.65953 1.82977 0
M  V30 6357 O 575.811 -0.354308 1.92466 0
M  V30 6358 C 576.11 3.11596 1.7505 0
M  V30 6359 C 575.776 4.40145 0.978922 0
M  V30 6360 C 574.438 4.75066 0.765912 0
M  V30 6361 C 576.79 5.19369 0.436498 0
M  V30 6362 C 574.118 5.867 -0.00089868 0
M  V30 6363 C 576.47 6.31805 -0.317136 0
M  V30 6364 C 575.134 6.65303 -0.541103 0
M  V30 6365 H 574.404 0.662373 0.33218 0
M  V30 6366 H 577.051 1.9071 0.173732 0
M  V30 6367 H 575.356 2.97165 2.55343 0
M  V30 6368 H 577.053 3.27793 2.30983 0
M  V30 6369 H 573.643 4.12745 1.15497 0
M  V30 6370 H 577.827 4.92799 0.588449 0
M  V30 6371 H 573.083 6.11122 -0.184329 0
M  V30 6372 H 577.257 6.92406 -0.744788 0
M  V30 6373 H 574.884 7.51646 -1.13718 0
M  V30 6374 N 576.459 -0.456382 1.50847 0
M  V30 6375 C 577.736 -1.21739 1.53098 0
M  V30 6376 C 578.116 -2.09179 0.284132 0
M  V30 6377 O 577.464 -2.16466 -0.731773 0
M  V30 6378 C 577.674 -2.03573 2.83477 0
M  V30 6379 C 579.022 -2.61264 3.34703 0
M  V30 6380 O 580.046 -2.13802 2.84898 0
M  V30 6381 O 578.905 -3.47779 4.21559 0
M  V30 6382 H 575.999 -0.553219 0.614718 0
M  V30 6383 H 578.545 -0.467003 1.63148 0
M  V30 6384 H 577.317 -1.39232 3.65691 0
M  V30 6385 H 576.94 -2.85716 2.76499 0
M  V30 6386 N 577.937 -1.40673 -0.710563 0
M  V30 6387 C 579.162 -1.42741 -1.50465 0
M  V30 6388 C 579.587 -0.0302116 -1.88076 0
M  V30 6389 O 578.945 0.962945 -1.53613 0
M  V30 6390 C 578.993 -2.32873 -2.75322 0
M  V30 6391 O 578.097 -1.77544 -3.72226 0
M  V30 6392 H 577.438 -0.485056 -0.45345 0
M  V30 6393 H 579.968 -1.84961 -0.874681 0
M  V30 6394 H 579.978 -2.48233 -3.23797 0
M  V30 6395 H 578.653 -3.34401 -2.47283 0
M  V30 6396 H 577.23 -1.71556 -3.31093 0
M  V30 6397 N 579.415 0.9433 -1.26252 0
M  V30 6398 C 580.831 1.21644 -1.03319 0
M  V30 6399 C 581.031 2.0003 0.242983 0
M  V30 6400 O 580.087 2.33838 0.952688 0
M  V30 6401 C 581.4 1.97978 -2.2633 0
M  V30 6402 C 582.948 2.10978 -2.31209 0
M  V30 6403 C 583.423 2.90713 -3.53907 0
M  V30 6404 N 584.914 2.98287 -3.54371 0
M  V30 6405 C 585.649 3.60406 -4.45976 0
M  V30 6406 N 585.145 4.24043 -5.47868 0
M  V30 6407 N 586.938 3.57658 -4.33633 0
M  V30 6408 H 579.089 0.419221 -2.08222 0
M  V30 6409 H 581.352 0.247995 -0.914988 0
M  V30 6410 H 581.058 1.47788 -3.19142 0
M  V30 6411 H 580.932 2.9865 -2.30408 0
M  V30 6412 H 583.319 2.6036 -1.38913 0
M  V30 6413 H 583.4 1.09575 -2.31143 0
M  V30 6414 H 583.044 2.42018 -4.46531 0
M  V30 6415 H 582.974 3.92367 -3.5122 0
M  V30 6416 H 585.465 2.53044 -2.80673 0
M  V30 6417 H 585.778 4.69334 -6.13959 0
M  V30 6418 H 584.123 4.22637 -5.51728 0
M  V30 6419 H 587.314 3.07134 -3.53251 0
M  V30 6420 H 587.487 4.05782 -5.05218 0
M  V30 6421 N 580.893 1.08022 1.14757 0
M  V30 6422 C 581.856 0.71048 2.1791 0
M  V30 6423 C 582.856 -0.252731 1.58801 0
M  V30 6424 O 584.046 -0.0327915 1.74169 0
M  V30 6425 C 581.178 0.0483203 3.40866 0
M  V30 6426 H 582.371 1.62384 2.52134 0
M  V30 6427 H 579.924 0.877595 1.29337 0
M  V30 6428 H 580.659 -0.876959 3.12218 0
M  V30 6429 H 580.444 0.741189 3.85031 0
M  V30 6430 H 581.934 -0.195471 4.17142 0
M  V30 6431 N 582.371 -1.3172 0.865308 0
M  V30 6432 C 583.596 -2.01591 0.487415 0
M  V30 6433 C 584.021 -1.6455 -0.911307 0
M  V30 6434 O 583.379 -0.851689 -1.6005 0
M  V30 6435 C 583.427 -3.54759 0.646401 0
M  V30 6436 O 582.531 -4.11185 -0.316284 0
M  V30 6437 H 581.872 -0.634884 0.194468 0
M  V30 6438 H 584.402 -1.68024 1.16744 0
M  V30 6439 H 584.412 -4.04438 0.537932 0
M  V30 6440 H 583.087 -3.8106 1.66632 0
M  V30 6441 H 581.664 -3.72543 -0.163162 0
M  V30 6442 N 583.85 -0.624285 -1.44708 0
M  V30 6443 C 585.077 -0.132919 -2.06473 0
M  V30 6444 C 585.493 1.18967 -1.46602 0
M  V30 6445 O 584.85 1.72824 -0.586341 0
M  V30 6446 C 584.901 -0.00465418 -3.615 0
M  V30 6447 O 584.622 -1.27494 -4.19138 0
M  V30 6448 C 586.123 0.516213 -4.40284 0
M  V30 6449 H 583.343 -0.0765201 -0.666623 0
M  V30 6450 H 585.887 -0.856751 -1.85688 0
M  V30 6451 H 584.042 0.669583 -3.8157 0
M  V30 6452 H 584.456 -1.11536 -5.12504 0
M  V30 6453 H 585.93 0.554994 -5.49203 0
M  V30 6454 H 586.407 1.5419 -4.11245 0
M  V30 6455 H 587.013 -0.124542 -4.25118 0
M  V30 6456 N 585.328 1.53329 -0.364422 0
M  V30 6457 C 586.575 2.01239 0.225634 0
M  V30 6458 C 586.903 1.25172 1.48869 0
M  V30 6459 O 586.158 0.333289 1.92841 0
M  V30 6460 C 586.457 3.52911 0.564661 0
M  V30 6461 C 586.123 4.46837 -0.603936 0
M  V30 6462 C 584.785 4.72234 -0.924585 0
M  V30 6463 C 587.137 5.02409 -1.38691 0
M  V30 6464 C 584.465 5.50454 -2.0302 0
M  V30 6465 C 586.817 5.81836 -2.48293 0
M  V30 6466 C 585.481 6.0552 -2.80894 0
M  V30 6467 H 584.751 0.736386 0.0825654 0
M  V30 6468 H 587.398 1.84948 -0.496645 0
M  V30 6469 H 585.703 3.67144 1.36794 0
M  V30 6470 H 587.4 3.87455 1.03344 0
M  V30 6471 H 583.99 4.27217 -0.343983 0
M  V30 6472 H 588.174 4.82735 -1.15243 0
M  V30 6473 H 583.43 5.67024 -2.28678 0
M  V30 6474 H 587.604 6.23905 -3.0938 0
M  V30 6475 H 585.231 6.65916 -3.66688 0
M  V30 6476 N 586.806 0.0935595 1.57322 0
M  V30 6477 C 588.031 -0.582324 1.99057 0
M  V30 6478 C 588.456 -1.61025 0.972242 0
M  V30 6479 O 587.814 -1.81202 -0.0594622 0
M  V30 6480 C 587.862 -1.20799 3.39765 0
M  V30 6481 O 586.966 -2.32382 3.40694 0
M  V30 6482 H 586.307 -0.147884 0.647323 0
M  V30 6483 H 588.837 0.174516 2.03854 0
M  V30 6484 H 588.847 -1.54966 3.77425 0
M  V30 6485 H 587.522 -0.454914 4.13405 0
M  V30 6486 H 586.099 -1.99845 3.14827 0
M  V30 6487 N 588.284 -1.56567 -0.180126 0
M  V30 6488 C 589.533 -1.80685 -0.896426 0
M  V30 6489 C 589.846 -0.669335 -1.83791 0
M  V30 6490 O 591.052 -0.795209 -2.59593 0
M  V30 6491 C 589.508 -3.20132 -1.6445 0
M  V30 6492 C 589.116 -4.41727 -0.747088 0
M  V30 6493 C 590.86 -3.53549 -2.34955 0
M  V30 6494 C 588.767 -5.72195 -1.49489 0
M  V30 6495 H 587.697 -0.673758 -0.338477 0
M  V30 6496 H 590.348 -1.8289 -0.149467 0
M  V30 6497 H 588.73 -3.12218 -2.43589 0
M  V30 6498 H 589.904 -4.608 0.00671129 0
M  V30 6499 H 588.219 -4.16122 -0.152134 0
M  V30 6500 H 590.816 -4.48267 -2.91481 0
M  V30 6501 H 591.159 -2.78006 -3.09868 0
M  V30 6502 H 591.692 -3.62976 -1.62768 0
M  V30 6503 H 588.431 -6.50743 -0.788251 0
M  V30 6504 H 587.951 -5.57115 -2.22224 0
M  V30 6505 H 589.63 -6.1384 -2.04472 0
M  V30 6506 N 589.762 0.448376 -1.51087 0
M  V30 6507 C 591.01 1.19635 -1.62886 0
M  V30 6508 C 591.331 1.91977 -0.342024 0
M  V30 6509 O 590.601 1.85094 0.641636 0
M  V30 6510 H 589.181 0.444598 -0.600285 0
M  V30 6511 H 591.843 0.515138 -1.87969 0
M  V30 6512 H 590.939 1.93194 -2.45117 0
M  V30 6513 N 591.24 1.41047 0.703093 0
M  V30 6514 C 592.486 1.40207 1.46526 0
M  V30 6515 C 592.819 0.00847763 1.94198 0
M  V30 6516 O 592.094 -0.962437 1.69019 0
M  V30 6517 C 592.377 2.40238 2.6825 0
M  V30 6518 C 592.23 3.88674 2.26391 0
M  V30 6519 C 593.549 2.37627 3.70434 0
M  V30 6520 H 590.668 0.510594 0.531472 0
M  V30 6521 H 593.31 1.72271 0.801422 0
M  V30 6522 H 591.46 2.13026 3.24888 0
M  V30 6523 H 593.132 4.2676 1.75138 0
M  V30 6524 H 591.375 4.03903 1.58255 0
M  V30 6525 H 592.046 4.542 3.13698 0
M  V30 6526 H 594.522 2.61759 3.23452 0
M  V30 6527 H 593.398 3.09645 4.53223 0
M  V30 6528 H 593.659 1.39223 4.19606 0
M  V30 6529 N 592.718 -0.936591 1.26751 0
M  V30 6530 C 593.666 -2.0573 1.08527 0
M  V30 6531 C 594.66 -1.69397 0.0108784 0
M  V30 6532 O 595.866 -1.79215 0.167915 0
M  V30 6533 H 592.241 -0.673691 0.334133 0
M  V30 6534 H 594.212 -2.1825 2.03493 0
M  V30 6535 C 592.961 -3.39738 0.739845 0
M  V30 6536 H 592.284 -3.68174 1.55845 0
M  V30 6537 H 593.724 -4.18955 0.652149 0
M  V30 6538 C 592.183 -3.32292 -0.555288 0
M  V30 6539 O 592.713 -3.68794 -1.59229 0
M  V30 6540 N 590.919 -2.85394 -0.54762 0
M  V30 6541 H 590.466 -2.55886 0.296667 0
M  V30 6542 H 590.424 -2.80795 -1.41427 0
M  V30 6543 N 594.196 -1.08629 -1.14182 0
M  V30 6544 C 595.146 -0.687882 -2.17376 0
M  V30 6545 C 596.13 0.293632 -1.58198 0
M  V30 6546 O 597.322 0.105292 -1.76687 0
M  V30 6547 C 594.451 -0.101184 -3.43151 0
M  V30 6548 C 593.537 -1.10862 -4.09354 0
M  V30 6549 N 593.928 -2.29285 -4.50846 0
M  V30 6550 C 592.226 -0.944897 -4.35876 0
M  V30 6551 C 592.927 -2.93305 -5.02342 0
M  V30 6552 N 591.903 -2.20903 -4.96692 0
M  V30 6553 H 595.705 -1.58963 -2.472 0
M  V30 6554 H 593.219 -0.961329 -1.3089 0
M  V30 6555 H 595.216 0.202209 -4.16409 0
M  V30 6556 H 593.876 0.795522 -3.14804 0
M  V30 6557 H 594.887 -2.66927 -4.43813 0
M  V30 6558 H 591.564 -0.102186 -4.17375 0
M  V30 6559 H 592.954 -3.93932 -5.44304 0
M  V30 6560 N 595.674 1.31259 -0.872281 0
M  V30 6561 C 596.92 1.96913 -0.485083 0
M  V30 6562 C 597.253 1.68774 0.960667 0
M  V30 6563 O 596.528 0.985495 1.67685 0
M  V30 6564 C 596.811 3.52299 -0.745502 0
M  V30 6565 C 596.664 3.90002 -2.24095 0
M  V30 6566 C 597.983 4.39582 -0.213516 0
M  V30 6567 H 595.102 0.715252 -0.177716 0
M  V30 6568 H 597.744 1.55347 -1.09395 0
M  V30 6569 H 595.894 3.87835 -0.227276 0
M  V30 6570 H 597.566 3.64555 -2.82661 0
M  V30 6571 H 595.809 3.38526 -2.71261 0
M  V30 6572 H 596.48 4.98352 -2.37381 0
M  V30 6573 H 598.956 4.10882 -0.656902 0
M  V30 6574 H 597.832 5.47251 -0.42516 0
M  V30 6575 H 598.093 4.33158 0.884666 0
M  V30 6576 N 597.152 0.631951 1.44375 0
M  V30 6577 C 598.082 -0.0593243 2.33425 0
M  V30 6578 C 599.063 -0.833964 1.48253 0
M  V30 6579 O 600.248 -0.799682 1.76971 0
M  V30 6580 C 597.378 -1.04096 3.31333 0
M  V30 6581 C 596.332 -0.377899 4.26328 0
M  V30 6582 C 595.658 -1.4695 5.14111 0
M  V30 6583 C 596.958 0.716371 5.17364 0
M  V30 6584 H 598.652 0.684287 2.91475 0
M  V30 6585 H 596.198 0.330518 1.40156 0
M  V30 6586 H 598.151 -1.53331 3.92514 0
M  V30 6587 H 596.875 -1.81547 2.71493 0
M  V30 6588 H 595.534 0.0938054 3.6648 0
M  V30 6589 H 595.182 -2.2349 4.50623 0
M  V30 6590 H 594.882 -1.03121 5.78481 0
M  V30 6591 H 596.406 -1.96363 5.78164 0
M  V30 6592 H 597.82 0.307089 5.72477 0
M  V30 6593 H 596.217 1.07784 5.90341 0
M  V30 6594 H 597.287 1.58316 4.58327 0
M  V30 6595 N 598.631 -1.53133 0.372548 0
M  V30 6596 C 599.879 -2.00958 -0.214534 0
M  V30 6597 C 600.2 -1.26135 -1.48711 0
M  V30 6598 O 599.47 -0.376597 -1.92246 0
M  V30 6599 H 598.05 -0.742456 -0.0822664 0
M  V30 6600 H 600.712 -1.88367 0.500385 0
M  V30 6601 H 599.808 -3.09031 -0.436605 0
M  V30 6602 N 600.109 -0.101901 -1.5727 0
M  V30 6603 C 601.041 0.884723 -2.11436 0
M  V30 6604 C 602.054 1.24149 -1.05314 0
M  V30 6605 O 603.243 1.19341 -1.3274 0
M  V30 6606 C 600.343 2.19179 -2.58484 0
M  V30 6607 C 599.516 2.00933 -3.88516 0
M  V30 6608 C 598.575 3.15213 -4.2134 0
M  V30 6609 O 597.601 2.88877 -4.90448 0
M  V30 6610 N 598.803 4.41174 -3.77288 0
M  V30 6611 H 601.568 0.422058 -2.96713 0
M  V30 6612 H 599.129 0.0830128 -1.61687 0
M  V30 6613 H 601.121 2.94593 -2.77484 0
M  V30 6614 H 599.691 2.56847 -1.7818 0
M  V30 6615 H 598.911 1.09809 -3.78597 0
M  V30 6616 H 600.199 1.86026 -4.73573 0
M  V30 6617 H 599.597 4.6545 -3.21516 0
M  V30 6618 H 598.154 5.13515 -4.01429 0
M  V30 6619 N 601.587 1.56661 0.17182 0
M  V30 6620 C 602.535 1.97289 1.23207 0
M  V30 6621 C 603.529 0.861566 1.45854 0
M  V30 6622 O 604.735 1.04668 1.4644 0
M  V30 6623 H 601.11 0.627681 0.41415 0
M  V30 6624 H 603.081 2.85662 0.862542 0
M  V30 6625 C 601.83 2.34849 2.564 0
M  V30 6626 H 601.153 3.19903 2.39797 0
M  V30 6627 H 602.593 2.67121 3.29276 0
M  V30 6628 C 601.052 1.19172 3.15119 0
M  V30 6629 O 601.582 0.479113 3.98833 0
M  V30 6630 N 599.788 0.962415 2.74201 0
M  V30 6631 H 599.335 1.54365 2.06226 0
M  V30 6632 H 599.293 0.190272 3.13824 0
M  V30 6633 N 603.065 -0.440357 1.51323 0
M  V30 6634 C 604.29 -1.21716 1.67928 0
M  V30 6635 C 604.715 -1.84328 0.374826 0
M  V30 6636 O 604.073 -1.68675 -0.664706 0
M  V30 6637 C 604.121 -2.27914 2.79442 0
M  V30 6638 O 603.225 -3.33325 2.42834 0
M  V30 6639 H 602.566 -0.35674 0.560029 0
M  V30 6640 H 605.096 -0.520417 1.97871 0
M  V30 6641 H 605.106 -2.72746 3.03436 0
M  V30 6642 H 603.781 -1.8172 3.741 0
M  V30 6643 H 602.358 -2.9399 2.294 0
M  V30 6644 N 604.543 -1.41418 -0.695603 0
M  V30 6645 C 605.453 -1.45622 -1.83933 0
M  V30 6646 C 606.469 -0.346825 -1.70508 0
M  V30 6647 O 607.645 -0.59454 -1.92424 0
M  V30 6648 C 604.71 -1.33627 -3.19914 0
M  V30 6649 C 603.771 -2.54882 -3.45447 0
M  V30 6650 C 603.004 -2.43449 -4.7494 0
M  V30 6651 O 603.227 -1.45905 -5.51424 0
M  V30 6652 O 602.161 -3.33206 -5.01256 0
M  V30 6653 H 605.987 -2.42114 -1.83342 0
M  V30 6654 H 603.572 -1.22956 -0.848658 0
M  V30 6655 H 605.454 -1.29221 -4.01098 0
M  V30 6656 H 604.129 -0.402508 -3.21188 0
M  V30 6657 H 603.036 -2.64865 -2.64192 0
M  V30 6658 H 604.369 -3.47087 -3.48987 0
M  V30 6659 N 606.021 0.929856 -1.27246 0
M  V30 6660 C 606.951 2.04722 -1.12299 0
M  V30 6661 C 607.932 1.70082 -0.0250464 0
M  V30 6662 O 609.117 1.93176 -0.199141 0
M  V30 6663 C 606.247 3.38721 -0.767145 0
M  V30 6664 C 605.201 3.87466 -1.81808 0
M  V30 6665 C 604.527 5.18246 -1.31626 0
M  V30 6666 C 605.827 4.11095 -3.22177 0
M  V30 6667 H 607.521 2.17485 -2.05769 0
M  V30 6668 H 605.067 1.04503 -0.990715 0
M  V30 6669 H 607.02 4.16366 -0.649413 0
M  V30 6670 H 605.744 3.25967 0.203259 0
M  V30 6671 H 604.403 3.12012 -1.92468 0
M  V30 6672 H 604.051 5.01881 -0.335378 0
M  V30 6673 H 603.751 5.51829 -2.01887 0
M  V30 6674 H 605.275 5.98462 -1.21143 0
M  V30 6675 H 606.689 4.79316 -3.1453 0
M  V30 6676 H 605.086 4.55982 -3.90129 0
M  V30 6677 H 606.156 3.16468 -3.67391 0
M  V30 6678 N 607.499 1.09233 1.13605 0
M  V30 6679 C 608.429 0.751738 2.21068 0
M  V30 6680 C 609.41 -0.269688 1.67948 0
M  V30 6681 O 610.595 -0.13819 1.93708 0
M  V30 6682 C 607.725 0.16935 3.46887 0
M  V30 6683 C 606.679 1.12007 4.13084 0
M  V30 6684 C 606.005 0.399483 5.33206 0
M  V30 6685 C 607.305 2.46168 4.6065 0
M  V30 6686 H 608.999 1.65024 2.49815 0
M  V30 6687 H 606.545 0.794905 1.20072 0
M  V30 6688 H 608.498 -0.0809824 4.21322 0
M  V30 6689 H 607.222 -0.764335 3.1753 0
M  V30 6690 H 605.881 1.35564 3.40614 0
M  V30 6691 H 605.529 -0.538277 5.00112 0
M  V30 6692 H 605.229 1.03337 5.78442 0
M  V30 6693 H 606.753 0.157403 6.10397 0
M  V30 6694 H 608.167 2.26829 5.26518 0
M  V30 6695 H 606.564 3.05326 5.1662 0
M  V30 6696 H 607.634 3.07076 3.75276 0
M  V30 6697 N 608.977 -1.30795 0.87923 0
M  V30 6698 C 610.202 -2.01063 0.508769 0
M  V30 6699 C 610.627 -1.65508 -0.893803 0
M  V30 6700 O 609.985 -0.868616 -1.59138 0
M  V30 6701 C 610.033 -3.54054 0.683991 0
M  V30 6702 O 609.137 -4.11498 -0.272654 0
M  V30 6703 H 608.478 -0.632786 0.201191 0
M  V30 6704 H 611.008 -1.66776 1.18519 0
M  V30 6705 H 611.018 -4.03845 0.580798 0
M  V30 6706 H 609.693 -3.79271 1.70665 0
M  V30 6707 H 608.27 -3.72695 -0.12364 0
M  V30 6708 N 610.455 -0.639598 -1.44038 0
M  V30 6709 C 611.866 -0.228866 -1.85292 0
M  V30 6710 C 612.217 1.22161 -1.53529 0
M  V30 6711 O 611.342 1.93064 -0.977518 0
M  V30 6712 C 611.937 -0.408592 -3.36327 0
M  V30 6713 C 610.496 -0.0522953 -3.76364 0
M  V30 6714 C 609.643 -0.717959 -2.67844 0
M  V30 6715 H 612.594 -0.844194 -1.34384 0
M  V30 6716 H 612.615 0.349968 -3.78887 0
M  V30 6717 H 612.127 -1.46435 -3.59414 0
M  V30 6718 H 610.228 1.0014 -3.58891 0
M  V30 6719 H 610.341 -0.468261 -4.76806 0
M  V30 6720 H 608.705 -0.152459 -2.54243 0
M  V30 6721 H 609.488 -1.77648 -2.93762 0
M  V30 6722 N 611.933 1.52934 -0.380664 0
M  V30 6723 C 613.181 2.01069 0.203874 0
M  V30 6724 C 613.502 1.26922 1.4804 0
M  V30 6725 O 612.772 0.386787 1.92044 0
M  V30 6726 H 611.352 0.742882 0.0783279 0
M  V30 6727 H 614.014 1.88099 -0.510368 0
M  V30 6728 H 613.11 3.09258 0.42021 0
M  V30 6729 N 613.412 0.11024 1.57214 0
M  V30 6730 C 614.342 -0.840002 2.17867 0
M  V30 6731 C 615.323 -1.28352 1.11624 0
M  V30 6732 O 616.508 -1.3477 1.39824 0
M  V30 6733 C 613.638 -2.09349 2.77111 0
M  V30 6734 C 612.592 -1.78807 3.8886 0
M  V30 6735 C 611.918 -3.11112 4.34872 0
M  V30 6736 C 613.218 -1.0632 5.11364 0
M  V30 6737 H 614.912 -0.334608 2.97524 0
M  V30 6738 H 612.458 -0.159502 1.43114 0
M  V30 6739 H 614.411 -2.76275 3.18198 0
M  V30 6740 H 613.135 -2.62198 1.9473 0
M  V30 6741 H 611.794 -1.14273 3.48335 0
M  V30 6742 H 611.442 -3.61877 3.49362 0
M  V30 6743 H 611.142 -2.91453 5.10224 0
M  V30 6744 H 612.666 -3.79171 4.78604 0
M  V30 6745 H 614.08 -1.63383 5.49526 0
M  V30 6746 H 612.477 -0.967876 5.92243 0
M  V30 6747 H 613.547 -0.0484569 4.84876 0
M  V30 6748 N 614.89 -1.56749 -0.16351 0
M  V30 6749 C 615.838 -1.97939 -1.22159 0
M  V30 6750 C 616.832 -0.869288 -1.45395 0
M  V30 6751 O 618.038 -1.05443 -1.45883 0
M  V30 6752 H 614.413 -0.629869 -0.410815 0
M  V30 6753 H 616.384 -2.86115 -0.847381 0
M  V30 6754 C 615.133 -2.36206 -2.55151 0
M  V30 6755 H 614.456 -3.2117 -2.38097 0
M  V30 6756 H 615.896 -2.68863 -3.27854 0
M  V30 6757 C 614.355 -1.20841 -3.14482 0
M  V30 6758 O 614.885 -0.500258 -3.98573 0
M  V30 6759 N 613.091 -0.976943 -2.73686 0
M  V30 6760 H 612.638 -1.55457 -2.05404 0
M  V30 6761 H 612.596 -0.206912 -3.13718 0
M  V30 6762 N 616.368 0.432326 -1.51554 0
M  V30 6763 C 617.593 1.20824 -1.68571 0
M  V30 6764 C 618.018 1.84126 -0.384596 0
M  V30 6765 O 617.376 1.69025 0.655751 0
M  V30 6766 C 617.424 2.26429 -2.80646 0
M  V30 6767 O 616.528 3.32032 -2.44598 0
M  V30 6768 H 615.869 0.353765 -0.561913 0
M  V30 6769 H 618.399 0.509916 -1.98144 0
M  V30 6770 H 618.409 2.71133 -3.04878 0
M  V30 6771 H 617.084 1.79733 -3.75058 0
M  V30 6772 H 615.661 2.92769 -2.30956 0
M  V30 6773 N 617.846 1.41785 0.688094 0
M  V30 6774 C 618.794 1.44436 1.82321 0
M  V30 6775 C 619.788 0.321544 1.6632 0
M  V30 6776 O 620.994 0.493931 1.73091 0
M  V30 6777 H 617.369 0.452084 0.600936 0
M  V30 6778 H 619.34 2.40087 1.77202 0
M  V30 6779 C 618.089 1.35071 3.20392 0
M  V30 6780 H 617.412 2.2076 3.33324 0
M  V30 6781 H 618.852 1.40988 3.99873 0
M  V30 6782 C 617.311 0.0639127 3.36839 0
M  V30 6783 O 617.841 -0.888495 3.91751 0
M  V30 6784 N 616.047 -0.0146114 2.90596 0
M  V30 6785 H 615.594 0.761191 2.46097 0
M  V30 6786 H 615.552 -0.874988 3.01979 0
M  V30 6787 N 619.324 -0.923095 1.27737 0
M  V30 6788 C 620.74 -1.19985 1.05241 0
M  V30 6789 C 620.94 -2.00391 -0.21113 0
M  V30 6790 O 619.996 -2.35324 -0.915366 0
M  V30 6791 C 621.309 -1.94352 2.29451 0
M  V30 6792 C 622.857 -2.07273 2.34536 0
M  V30 6793 C 623.332 -2.85046 3.58487 0
M  V30 6794 N 624.823 -2.92612 3.59072 0
M  V30 6795 C 625.558 -3.53266 4.51654 0
M  V30 6796 N 625.054 -4.15274 5.54545 0
M  V30 6797 N 626.847 -3.50714 4.39268 0
M  V30 6798 H 618.998 -0.386042 2.08862 0
M  V30 6799 H 621.261 -0.233407 0.918817 0
M  V30 6800 H 620.967 -1.42692 3.21453 0
M  V30 6801 H 620.841 -2.94947 2.3513 0
M  V30 6802 H 623.228 -2.58117 1.43037 0
M  V30 6803 H 623.309 -1.05884 2.32857 0
M  V30 6804 H 622.953 -2.34884 4.50324 0
M  V30 6805 H 622.883 -3.8673 3.57418 0
M  V30 6806 H 625.374 -2.48547 2.84663 0
M  V30 6807 H 625.687 -4.59507 6.21348 0
M  V30 6808 H 624.032 -4.13806 5.58382 0
M  V30 6809 H 627.223 -3.01475 3.58093 0
M  V30 6810 H 627.396 -3.97693 5.1161 0
M  V30 6811 N 620.802 -1.09834 -1.13024 0
M  V30 6812 C 621.712 -0.753731 -2.22162 0
M  V30 6813 C 622.728 0.246105 -1.72251 0
M  V30 6814 O 623.904 0.0864051 -2.01215 0
M  V30 6815 C 620.969 -0.183958 -3.46212 0
M  V30 6816 C 620.03 -1.24028 -4.10993 0
M  V30 6817 C 619.263 -0.697597 -5.29121 0
M  V30 6818 O 619.486 0.478092 -5.68393 0
M  V30 6819 O 618.42 -1.4546 -5.84059 0
M  V30 6820 H 622.246 -1.66456 -2.5402 0
M  V30 6821 H 619.831 -0.873026 -1.21238 0
M  V30 6822 H 621.713 0.130257 -4.21199 0
M  V30 6823 H 620.388 0.699823 -3.16045 0
M  V30 6824 H 619.295 -1.60725 -3.37814 0
M  V30 6825 H 620.628 -2.09685 -4.45301 0
M  V30 6826 N 622.28 1.30327 -0.886154 0
M  V30 6827 C 623.19 2.31854 -0.357866 0
M  V30 6828 C 624.206 1.65392 0.540502 0
M  V30 6829 O 625.382 1.96683 0.433339 0
M  V30 6830 C 622.447 3.44171 0.417999 0
M  V30 6831 C 621.508 4.26257 -0.510263 0
M  V30 6832 C 620.741 5.3321 0.228669 0
M  V30 6833 O 620.964 5.51542 1.45458 0
M  V30 6834 O 619.898 6.0042 -0.421832 0
M  V30 6835 H 623.724 2.78995 -1.19982 0
M  V30 6836 H 621.309 1.34518 -0.650028 0
M  V30 6837 H 623.191 4.12588 0.857251 0
M  V30 6838 H 621.866 2.99164 1.23623 0
M  V30 6839 H 620.773 3.60533 -0.99835 0
M  V30 6840 H 622.106 4.74871 -1.29454 0
M  V30 6841 N 623.758 0.647228 1.43697 0
M  V30 6842 C 624.983 0.164083 2.0675 0
M  V30 6843 C 625.408 -1.15892 1.48158 0
M  V30 6844 O 624.766 -1.71459 0.589194 0
M  V30 6845 C 624.814 0.0800368 3.60511 0
M  V30 6846 O 623.918 -0.959453 4.01084 0
M  V30 6847 H 623.259 0.0921288 0.657578 0
M  V30 6848 H 625.789 0.88846 1.84303 0
M  V30 6849 H 625.799 -0.105263 4.07864 0
M  V30 6850 H 624.474 1.04586 4.02535 0
M  V30 6851 H 623.051 -0.747425 3.65333 0
M  V30 6852 N 625.236 -1.5273 0.388769 0
M  V30 6853 C 626.461 -2.0647 -0.19621 0
M  V30 6854 C 626.886 -1.25865 -1.39784 0
M  V30 6855 O 626.244 -0.283562 -1.79069 0
M  V30 6856 C 626.292 -3.56456 -0.5451 0
M  V30 6857 O 625.396 -3.78426 -1.63912 0
M  V30 6858 H 624.737 -0.663599 -0.023067 0
M  V30 6859 H 627.267 -1.96898 0.556084 0
M  V30 6860 H 627.277 -3.99888 -0.809557 0
M  V30 6861 H 625.952 -4.14561 0.333417 0
M  V30 6862 H 624.529 -3.46884 -1.36842 0
M  V30 6863 N 626.714 -0.118576 -1.57153 0
M  V30 6864 C 627.961 0.539526 -1.9518 0
M  V30 6865 C 628.289 1.66714 -1.00184 0
M  V30 6866 O 627.544 1.95683 -0.0256482 0
M  V30 6867 C 627.843 1.11303 -3.39627 0
M  V30 6868 C 627.509 0.106809 -4.50773 0
M  V30 6869 C 626.171 -0.169876 -4.809 0
M  V30 6870 C 628.523 -0.57895 -5.17975 0
M  V30 6871 C 625.851 -1.13861 -5.75545 0
M  V30 6872 C 628.203 -1.53631 -6.13661 0
M  V30 6873 C 626.867 -1.82099 -6.42181 0
M  V30 6874 H 626.137 0.197427 -0.714215 0
M  V30 6875 H 628.784 -0.199391 -1.90459 0
M  V30 6876 H 627.089 1.92869 -3.4104 0
M  V30 6877 H 628.786 1.63032 -3.66363 0
M  V30 6878 H 625.376 0.332645 -4.27307 0
M  V30 6879 H 629.56 -0.378359 -4.94856 0
M  V30 6880 H 624.816 -1.36592 -5.95947 0
M  V30 6881 H 628.99 -2.07337 -6.64819 0
M  V30 6882 H 626.617 -2.57319 -7.15326 0
M  V30 6883 N 628.193 1.56834 0.155195 0
M  V30 6884 C 629.421 1.87049 0.884326 0
M  V30 6885 C 629.836 0.705839 1.7511 0
M  V30 6886 O 629.193 -0.324641 1.79589 0
M  V30 6887 C 629.244 3.1644 1.74781 0
M  V30 6888 O 628.965 4.28417 0.915978 0
M  V30 6889 C 630.466 3.60113 2.58522 0
M  V30 6890 H 627.686 0.620196 0.25612 0
M  V30 6891 H 630.23 2.03946 0.150445 0
M  V30 6892 H 628.385 3.01321 2.43484 0
M  V30 6893 H 628.799 5.02353 1.50803 0
M  V30 6894 H 630.273 4.53508 3.14698 0
M  V30 6895 H 630.75 2.85005 3.34169 0
M  V30 6896 H 631.356 3.77898 1.95124 0
M  V30 6897 N 629.671 -0.424282 1.51781 0
M  V30 6898 C 630.601 -1.52305 1.7699 0
M  V30 6899 C 631.582 -1.5839 0.620209 0
M  V30 6900 O 632.767 -1.73908 0.864268 0
M  V30 6901 C 629.897 -2.90271 1.90683 0
M  V30 6902 C 628.851 -2.99043 3.06198 0
M  V30 6903 C 628.177 -4.39116 3.05092 0
M  V30 6904 C 629.477 -2.7192 4.45934 0
M  V30 6905 H 631.171 -1.31461 2.68995 0
M  V30 6906 H 628.717 -0.630985 1.29439 0
M  V30 6907 H 630.67 -3.6711 2.06901 0
M  V30 6908 H 629.394 -3.12376 0.953365 0
M  V30 6909 H 628.053 -2.24646 2.89706 0
M  V30 6910 H 627.701 -4.58207 2.07498 0
M  V30 6911 H 627.401 -4.45912 3.82669 0
M  V30 6912 H 628.925 -5.17911 3.2342 0
M  V30 6913 H 630.339 -3.38487 4.62709 0
M  V30 6914 H 628.736 -2.90111 5.25315 0
M  V30 6915 H 629.806 -1.67445 4.55072 0
M  V30 6916 N 631.149 -1.42148 -0.680565 0
M  V30 6917 C 632.56 -1.3768 -1.26099 0
M  V30 6918 C 632.911 -0.0672348 -1.96085 0
M  V30 6919 O 632.036 0.834172 -1.99676 0
M  V30 6920 C 632.631 -2.49387 -2.29328 0
M  V30 6921 C 631.19 -2.4827 -2.82911 0
M  V30 6922 C 630.337 -2.2847 -1.57152 0
M  V30 6923 H 633.288 -1.51446 -0.474326 0
M  V30 6924 H 633.309 -2.19307 -3.10941 0
M  V30 6925 H 632.821 -3.44686 -1.78363 0
M  V30 6926 H 630.922 -1.56773 -3.38013 0
M  V30 6927 H 631.035 -3.45109 -3.3232 0
M  V30 6928 H 629.399 -1.76623 -1.83511 0
M  V30 6929 H 630.182 -3.25816 -1.0816 0
M  V30 6930 N 632.627 0.916307 -1.28225 0
M  V30 6931 C 634.043 1.19425 -1.05876 0
M  V30 6932 C 634.243 2.005 0.2005 0
M  V30 6933 O 633.299 2.35806 0.902873 0
M  V30 6934 C 634.612 1.93133 -2.30478 0
M  V30 6935 C 636.16 2.06026 -2.35632 0
M  V30 6936 C 636.635 2.83141 -3.59994 0
M  V30 6937 N 638.126 2.90704 -3.60618 0
M  V30 6938 C 638.861 3.50865 -4.53521 0
M  V30 6939 N 638.357 4.12327 -5.56739 0
M  V30 6940 N 640.15 3.48379 -4.41122 0
M  V30 6941 H 632.301 0.37496 -2.09064 0
M  V30 6942 H 634.564 0.228531 -0.920042 0
M  V30 6943 H 634.27 1.40985 -3.22205 0
M  V30 6944 H 634.144 2.93696 -2.36691 0
M  V30 6945 H 636.531 2.57355 -1.44404 0
M  V30 6946 H 636.612 1.04647 -2.33415 0
M  V30 6947 H 636.256 2.32492 -4.51564 0
M  V30 6948 H 636.186 3.84829 -3.59464 0
M  V30 6949 H 638.677 2.47034 -2.85977 0
M  V30 6950 H 638.99 4.56205 -6.23776 0
M  V30 6951 H 637.335 4.10839 -5.60568 0
M  V30 6952 H 640.526 2.99572 -3.59686 0
M  V30 6953 H 640.699 3.94974 -5.13712 0
M  V30 6954 N 634.105 1.10431 1.1244 0
M  V30 6955 C 635.382 0.758797 1.80282 0
M  V30 6956 C 635.762 -0.754727 1.97147 0
M  V30 6957 O 635.11 -1.68094 1.54779 0
M  V30 6958 C 635.32 1.50982 3.14651 0
M  V30 6959 C 636.668 1.68232 3.8985 0
M  V30 6960 O 637.692 1.47319 3.24308 0
M  V30 6961 O 636.551 2.02905 5.07437 0
M  V30 6962 H 633.645 0.273756 0.780376 0
M  V30 6963 H 636.191 1.20713 1.19275 0
M  V30 6964 H 634.963 2.53989 2.97666 0
M  V30 6965 H 634.586 1.05435 3.83366 0
M  V30 6966 N 635.583 -1.29855 0.893053 0
M  V30 6967 C 636.531 -2.29867 0.355512 0
M  V30 6968 C 637.525 -1.60502 -0.541801 0
M  V30 6969 O 638.731 -1.74902 -0.425339 0
M  V30 6970 H 635.106 -0.745805 0.0963247 0
M  V30 6971 H 637.077 -2.72655 1.21252 0
M  V30 6972 C 635.826 -3.453 -0.407801 0
M  V30 6973 H 635.149 -3.98864 0.273426 0
M  V30 6974 H 636.589 -4.17334 -0.748887 0
M  V30 6975 C 635.048 -2.96051 -1.60795 0
M  V30 6976 O 635.578 -2.96763 -2.7073 0
M  V30 6977 N 633.784 -2.51963 -1.44786 0
M  V30 6978 H 633.331 -2.51583 -0.553498 0
M  V30 6979 H 633.289 -2.1937 -2.2522 0
M  V30 6980 N 637.061 -0.65484 -1.43351 0
M  V30 6981 C 638.286 -0.175046 -2.0666 0
M  V30 6982 C 638.711 1.15104 -1.4877 0
M  V30 6983 O 638.069 1.71144 -0.598279 0
M  V30 6984 C 638.117 -0.0991544 -3.60464 0
M  V30 6985 O 637.221 0.938169 -4.01587 0
M  V30 6986 H 636.562 -0.0956148 -0.65708 0
M  V30 6987 H 639.092 -0.898222 -1.83829 0
M  V30 6988 H 639.102 0.083632 -4.07914 0
M  V30 6989 H 637.777 -1.06719 -4.01975 0
M  V30 6990 H 636.354 0.72804 -3.65724 0
M  V30 6991 N 638.539 1.52521 -0.396863 0
M  V30 6992 C 639.95 1.86547 0.0754868 0
M  V30 6993 C 640.301 1.31621 1.45501 0
M  V30 6994 O 639.426 0.650563 2.0639 0
M  V30 6995 C 640.021 3.38495 0.143754 0
M  V30 6996 C 638.58 3.72205 0.560413 0
M  V30 6997 C 637.727 2.75954 -0.272856 0
M  V30 6998 H 640.678 1.46323 -0.614434 0
M  V30 6999 H 640.699 3.68153 0.961425 0
M  V30 7000 H 640.211 3.78442 -0.860415 0
M  V30 7001 H 638.312 3.3783 1.57167 0
M  V30 7002 H 638.425 4.78074 0.313314 0
M  V30 7003 H 636.789 2.53339 0.263 0
M  V30 7004 H 637.572 3.1874 -1.27515 0
M  V30 7005 N 640.017 0.126909 1.57088 0
M  V30 7006 C 641.263 -0.529952 1.95753 0
M  V30 7007 C 641.596 -1.65823 1.01077 0
M  V30 7008 O 640.871 -1.94437 0.0494162 0
M  V30 7009 C 641.154 -1.05517 3.44294 0
M  V30 7010 C 641.007 0.0702253 4.49745 0
M  V30 7011 C 642.326 -1.9435 3.94862 0
M  V30 7012 H 639.445 -0.191168 0.711775 0
M  V30 7013 H 642.087 0.204071 1.88901 0
M  V30 7014 H 640.237 -1.68069 3.50264 0
M  V30 7015 H 641.909 0.705834 4.55868 0
M  V30 7016 H 640.152 0.732259 4.27575 0
M  V30 7017 H 640.823 -0.338642 5.5096 0
M  V30 7018 H 643.299 -1.41658 3.91244 0
M  V30 7019 H 642.175 -2.28015 4.993 0
M  V30 7020 H 642.436 -2.87299 3.36024 0
M  V30 7021 N 641.495 -1.56914 -0.146875 0
M  V30 7022 C 642.911 -1.51582 -0.499518 0
M  V30 7023 C 643.111 -0.83535 -1.83369 0
M  V30 7024 O 642.167 -0.405932 -2.49216 0
M  V30 7025 C 643.48 -2.96349 -0.509711 0
M  V30 7026 C 645.028 -3.07288 -0.595217 0
M  V30 7027 C 645.503 -4.53562 -0.636071 0
M  V30 7028 N 646.994 -4.57906 -0.69829 0
M  V30 7029 C 647.729 -5.68462 -0.750886 0
M  V30 7030 N 647.225 -6.88588 -0.76282 0
M  V30 7031 N 649.018 -5.56496 -0.791777 0
M  V30 7032 H 641.169 -1.99547 0.727656 0
M  V30 7033 H 643.432 -0.910113 0.265327 0
M  V30 7034 H 643.138 -3.4939 0.402409 0
M  V30 7035 H 643.012 -3.52307 -1.34758 0
M  V30 7036 H 645.399 -2.54266 -1.49776 0
M  V30 7037 H 645.48 -2.54373 0.2698 0
M  V30 7038 H 645.124 -5.07222 0.262313 0
M  V30 7039 H 645.054 -5.04259 -1.51758 0
M  V30 7040 H 647.545 -3.71429 -0.696362 0
M  V30 7041 H 647.858 -7.68598 -0.804804 0
M  V30 7042 H 646.203 -6.91148 -0.730694 0
M  V30 7043 H 649.394 -4.61562 -0.779624 0
M  V30 7044 H 649.567 -6.42671 -0.829301 0
M  V30 7045 N 642.974 0.416227 -1.52004 0
M  V30 7046 C 644.199 1.19029 -1.69843 0
M  V30 7047 C 644.624 1.83708 -0.404103 0
M  V30 7048 O 643.982 1.69711 0.637787 0
M  V30 7049 C 644.03 2.23439 -2.83032 0
M  V30 7050 O 643.134 3.29419 -2.48106 0
M  V30 7051 H 642.475 0.347785 -0.565634 0
M  V30 7052 H 645.005 0.488871 -1.98674 0
M  V30 7053 H 645.015 2.67884 -3.07737 0
M  V30 7054 H 643.69 1.75745 -3.76944 0
M  V30 7055 H 642.267 2.90303 -2.34048 0
M  V30 7056 N 644.452 1.42507 0.673017 0
M  V30 7057 C 645.415 1.4582 1.76831 0
M  V30 7058 C 646.415 0.345542 1.57043 0
M  V30 7059 O 647.605 0.606447 1.63303 0
M  V30 7060 C 644.737 1.29158 3.15485 0
M  V30 7061 H 645.93 2.43345 1.7528 0
M  V30 7062 H 643.483 1.28981 0.882817 0
M  V30 7063 H 644.218 0.325626 3.22661 0
M  V30 7064 H 644.003 2.09797 3.31252 0
M  V30 7065 H 645.493 1.34363 3.95394 0
M  V30 7066 N 645.93 -0.909495 1.28709 0
M  V30 7067 C 647.176 -1.66151 1.16283 0
M  V30 7068 C 647.509 -1.92067 -0.287069 0
M  V30 7069 O 646.784 -1.52409 -1.20837 0
M  V30 7070 C 647.067 -3.01676 1.9663 0
M  V30 7071 C 646.92 -2.82888 3.49707 0
M  V30 7072 C 648.239 -4.02274 1.78504 0
M  V30 7073 H 645.358 -0.602966 0.423793 0
M  V30 7074 H 648 -1.05418 1.58073 0
M  V30 7075 H 646.15 -3.53515 1.61119 0
M  V30 7076 H 647.822 -2.38026 3.95147 0
M  V30 7077 H 646.065 -2.17862 3.75125 0
M  V30 7078 H 646.736 -3.79147 4.01187 0
M  V30 7079 H 649.212 -3.59511 2.09503 0
M  V30 7080 H 648.088 -4.95056 2.37088 0
M  V30 7081 H 648.349 -4.35903 0.737647 0
M  V30 7082 N 647.408 -1.11026 -1.11852 0
M  V30 7083 C 648.318 -0.777252 -2.2135 0
M  V30 7084 C 649.334 0.227821 -1.72502 0
M  V30 7085 O 650.51 0.0650587 -2.01295 0
M  V30 7086 C 647.575 -0.220668 -3.45997 0
M  V30 7087 C 646.636 -1.2838 -4.09655 0
M  V30 7088 C 645.869 -0.753678 -5.28352 0
M  V30 7089 O 646.092 0.417779 -5.68868 0
M  V30 7090 O 645.026 -1.51647 -5.82483 0
M  V30 7091 H 648.852 -1.69141 -2.5224 0
M  V30 7092 H 646.437 -0.885836 -1.20305 0
M  V30 7093 H 648.319 0.0855756 -4.21313 0
M  V30 7094 H 646.994 0.666262 -3.16769 0
M  V30 7095 H 645.901 -1.64299 -3.3609 0
M  V30 7096 H 647.234 -2.14396 -4.43052 0
M  V30 7097 N 648.886 1.2938 -0.899927 0
M  V30 7098 C 650.111 2.00228 -0.540692 0
M  V30 7099 C 650.536 1.66909 0.867359 0
M  V30 7100 O 649.894 0.893824 1.57735 0
M  V30 7101 C 649.942 3.52921 -0.740232 0
M  V30 7102 O 649.046 4.11879 0.207154 0
M  V30 7103 H 648.387 0.629505 -0.211233 0
M  V30 7104 H 650.917 1.6487 -1.21158 0
M  V30 7105 H 650.927 4.0287 -0.644973 0
M  V30 7106 H 649.602 3.76508 -1.76677 0
M  V30 7107 H 648.179 3.72845 0.0643315 0
M  V30 7108 N 650.364 0.662433 1.43002 0
M  V30 7109 C 651.61 0.179857 2.02001 0
M  V30 7110 C 651.943 -1.20625 1.52195 0
M  V30 7111 O 651.218 -1.80726 0.718911 0
M  V30 7112 C 651.501 0.200845 3.59539 0
M  V30 7113 C 651.354 1.62153 4.19555 0
M  V30 7114 C 652.673 -0.457738 4.37713 0
M  V30 7115 H 649.792 0.0668305 0.733964 0
M  V30 7116 H 652.434 0.84487 1.70182 0
M  V30 7117 H 650.584 -0.365411 3.86778 0
M  V30 7118 H 652.256 2.23908 4.03315 0
M  V30 7119 H 650.499 2.16601 3.75854 0
M  V30 7120 H 651.17 1.58799 5.28665 0
M  V30 7121 H 653.646 0.0241495 4.16093 0
M  V30 7122 H 652.522 -0.412363 5.47349 0
M  V30 7123 H 652.783 -1.53336 4.14657 0
M  V30 7124 N 651.842 -1.52309 0.404946 0
M  V30 7125 C 652.805 -2.25491 -0.410651 0
M  V30 7126 C 653.805 -1.27704 -0.977154 0
M  V30 7127 O 654.995 -1.51679 -0.856691 0
M  V30 7128 C 652.127 -3.02197 -1.57765 0
M  V30 7129 H 653.32 -2.99015 0.230277 0
M  V30 7130 H 650.873 -1.55506 0.157377 0
M  V30 7131 H 651.608 -2.33013 -2.25556 0
M  V30 7132 H 651.393 -3.73987 -1.17797 0
M  V30 7133 H 652.883 -3.57719 -2.15469 0
M  V30 7134 N 653.32 -0.135238 -1.57019 0
M  V30 7135 C 654.55 0.525303 -1.9981 0
M  V30 7136 C 654.958 1.59724 -1.01415 0
M  V30 7137 O 654.301 1.837 -0.00130938 0
M  V30 7138 C 654.363 1.19578 -3.3903 0
M  V30 7139 C 654.027 0.269855 -4.56203 0
M  V30 7140 C 655.024 -0.497905 -5.1751 0
M  V30 7141 C 652.709 0.176188 -5.01991 0
M  V30 7142 C 654.703 -1.3469 -6.23007 0
M  V30 7143 C 652.39 -0.676422 -6.07345 0
M  V30 7144 C 653.388 -1.43658 -6.67721 0
M  V30 7145 O 653.076 -2.27501 -7.71037 0
M  V30 7146 H 652.808 0.142296 -0.660854 0
M  V30 7147 H 655.362 -0.223272 -2.04183 0
M  V30 7148 H 653.592 1.99176 -3.3146 0
M  V30 7149 H 655.281 1.75486 -3.66005 0
M  V30 7150 H 656.047 -0.435507 -4.83041 0
M  V30 7151 H 651.926 0.757583 -4.54733 0
M  V30 7152 H 655.47 -1.9407 -6.70062 0
M  V30 7153 H 651.367 -0.740154 -6.41243 0
M  V30 7154 H 652.135 -2.20619 -7.88206 0
M  V30 7155 N 654.798 1.5699 0.138552 0
M  V30 7156 C 656.047 1.82998 0.848205 0
M  V30 7157 C 656.36 0.717829 1.81952 0
M  V30 7158 O 657.566 0.863756 2.57394 0
M  V30 7159 C 656.022 3.24379 1.55904 0
M  V30 7160 C 655.63 4.43552 0.62971 0
M  V30 7161 C 657.374 3.59654 2.25498 0
M  V30 7162 C 655.281 5.75957 1.34266 0
M  V30 7163 H 654.211 0.682495 0.320495 0
M  V30 7164 H 656.862 1.83222 0.100924 0
M  V30 7165 H 655.244 3.18567 2.35226 0
M  V30 7166 H 656.418 4.6062 -0.128882 0
M  V30 7167 H 654.733 4.16379 0.0417526 0
M  V30 7168 H 657.33 4.55837 2.79493 0
M  V30 7169 H 657.673 2.86124 3.02388 0
M  V30 7170 H 658.206 3.67164 1.53087 0
M  V30 7171 H 654.945 6.52604 0.615441 0
M  V30 7172 H 654.465 5.62811 2.07375 0
M  V30 7173 H 656.144 6.19046 1.88126 0
M  V30 7174 N 656.276 -0.40816 1.52223 0
M  V30 7175 C 657.239 -1.48 1.7501 0
M  V30 7176 C 658.239 -1.48367 0.619996 0
M  V30 7177 O 659.429 -1.49874 0.887881 0
M  V30 7178 C 656.561 -2.87403 1.83336 0
M  V30 7179 H 657.754 -1.29086 2.70697 0
M  V30 7180 H 655.307 -0.638715 1.42654 0
M  V30 7181 H 656.042 -3.11686 0.895677 0
M  V30 7182 H 655.827 -2.8854 2.65494 0
M  V30 7183 H 657.317 -3.65103 2.02705 0
M  V30 7184 N 657.755 -1.42862 -0.66545 0
M  V30 7185 C 659.032 -1.3431 -1.42197 0
M  V30 7186 C 659.412 0.0150265 -2.11095 0
M  V30 7187 O 658.76 1.03101 -2.03918 0
M  V30 7188 C 658.97 -2.51783 -2.41674 0
M  V30 7189 C 660.318 -2.94321 -3.0604 0
M  V30 7190 O 661.342 -2.51741 -2.52001 0
M  V30 7191 O 660.201 -3.68047 -4.03985 0
M  V30 7192 H 657.295 -0.530159 -0.634713 0
M  V30 7193 H 659.841 -1.54888 -0.693386 0
M  V30 7194 H 658.613 -3.42282 -1.89627 0
M  V30 7195 H 658.236 -2.33241 -3.22001 0
M  V30 7196 N 659.233 0.902656 -1.29189 0
M  V30 7197 C 660.183 1.99326 -1.10695 0
M  V30 7198 C 661.167 1.60877 -0.0272521 0
M  V30 7199 O 662.359 1.75245 -0.248635 0
M  V30 7200 C 659.488 3.34265 -0.78244 0
M  V30 7201 C 658.574 3.79081 -1.90153 0
M  V30 7202 N 658.965 3.96162 -3.14466 0
M  V30 7203 C 657.263 4.08333 -1.79389 0
M  V30 7204 C 657.964 4.3388 -3.87458 0
M  V30 7205 N 656.94 4.42759 -3.15381 0
M  V30 7206 H 660.742 2.10597 -2.05003 0
M  V30 7207 H 658.256 1.09127 -1.20271 0
M  V30 7208 H 660.253 4.12097 -0.630996 0
M  V30 7209 H 658.913 3.2434 0.152754 0
M  V30 7210 H 659.924 3.81775 -3.49954 0
M  V30 7211 H 656.601 4.06982 -0.931217 0
M  V30 7212 H 657.991 4.54965 -4.94425 0
M  V30 7213 N 660.711 1.11618 1.11262 0
M  V30 7214 C 661.641 0.79846 2.19424 0
M  V30 7215 C 662.622 -0.234003 1.68483 0
M  V30 7216 O 663.807 -0.0970704 1.93957 0
M  V30 7217 C 660.937 0.242892 3.4645 0
M  V30 7218 C 659.891 1.20744 4.10615 0
M  V30 7219 C 659.217 0.512494 5.32238 0
M  V30 7220 C 660.517 2.55884 4.55325 0
M  V30 7221 H 662.211 1.70286 2.46258 0
M  V30 7222 H 659.757 0.820195 1.18359 0
M  V30 7223 H 661.71 0.00840447 4.21399 0
M  V30 7224 H 660.434 -0.696811 3.1908 0
M  V30 7225 H 659.093 1.42759 3.37662 0
M  V30 7226 H 658.741 -0.432075 5.01141 0
M  V30 7227 H 658.441 1.15583 5.7612 0
M  V30 7228 H 659.965 0.286842 6.09926 0
M  V30 7229 H 661.379 2.37946 5.21588 0
M  V30 7230 H 659.776 3.16216 5.10027 0
M  V30 7231 H 660.846 3.14968 3.68678 0
M  V30 7232 N 662.189 -1.289 0.906776 0
M  V30 7233 C 663.136 -2.2751 0.388313 0
M  V30 7234 C 664.106 -1.57301 -0.533439 0
M  V30 7235 O 665.291 -1.85243 -0.457148 0
M  V30 7236 C 662.431 -3.43091 -0.37181 0
M  V30 7237 C 661.544 -4.28066 0.581647 0
M  V30 7238 C 660.679 -5.30837 -0.19623 0
M  V30 7239 C 659.718 -6.07472 0.751294 0
M  V30 7240 N 658.855 -7.021 0.00737727 0
M  V30 7241 H 663.695 -2.71237 1.23428 0
M  V30 7242 H 661.232 -1.33397 0.619962 0
M  V30 7243 H 663.19 -4.08888 -0.828641 0
M  V30 7244 H 661.82 -3.00374 -1.18218 0
M  V30 7245 H 660.872 -3.62378 1.157 0
M  V30 7246 H 662.184 -4.81382 1.30665 0
M  V30 7247 H 661.338 -6.02485 -0.71394 0
M  V30 7248 H 660.077 -4.78272 -0.954324 0
M  V30 7249 H 659.082 -5.34682 1.28044 0
M  V30 7250 H 660.307 -6.62126 1.50883 0
M  V30 7251 H 658.253 -6.51894 -0.732854 0
M  V30 7252 H 658.17 -7.53004 0.672334 0
M  V30 7253 H 659.438 -7.77956 -0.490365 0
M  V30 7254 N 663.667 -0.670007 -1.42649 0
M  V30 7255 C 664.615 0.0230106 -2.32589 0
M  V30 7256 C 665.609 0.795585 -1.49555 0
M  V30 7257 O 666.815 0.70409 -1.65658 0
M  V30 7258 H 663.19 0.0262342 -0.751542 0
M  V30 7259 H 665.161 -0.753009 -2.88743 0
M  V30 7260 C 663.91 0.963872 -3.34073 0
M  V30 7261 H 663.233 0.378813 -3.98001 0
M  V30 7262 H 664.673 1.41755 -3.99602 0
M  V30 7263 C 663.132 2.06797 -2.65964 0
M  V30 7264 O 663.662 3.15383 -2.48789 0
M  V30 7265 N 661.868 1.83831 -2.25066 0
M  V30 7266 H 661.415 0.955235 -2.39234 0
M  V30 7267 H 661.373 2.57895 -1.79827 0
M  V30 7268 N 665.145 1.52092 -0.413018 0
M  V30 7269 C 666.055 2.30858 0.417318 0
M  V30 7270 C 667.071 1.38746 1.05003 0
M  V30 7271 O 668.247 1.71821 1.05069 0
M  V30 7272 C 665.312 3.11756 1.51687 0
M  V30 7273 C 664.373 4.19613 0.906825 0
M  V30 7274 C 663.606 4.96644 1.95399 0
M  V30 7275 O 663.829 4.7402 3.17271 0
M  V30 7276 O 662.763 5.81385 1.55805 0
M  V30 7277 H 666.589 3.02865 -0.225028 0
M  V30 7278 H 664.174 1.48358 -0.176126 0
M  V30 7279 H 666.056 3.62122 2.15512 0
M  V30 7280 H 664.731 2.42539 2.14375 0
M  V30 7281 H 663.638 3.73385 0.231183 0
M  V30 7282 H 664.971 4.91134 0.323814 0
M  V30 7283 N 666.623 0.143563 1.56945 0
M  V30 7284 C 667.533 -0.810562 2.20152 0
M  V30 7285 C 668.549 -1.27431 1.1848 0
M  V30 7286 O 669.725 -1.33221 1.51044 0
M  V30 7287 C 666.79 -2.03353 2.80799 0
M  V30 7288 C 665.851 -1.61936 3.97587 0
M  V30 7289 C 665.084 -2.78403 4.55332 0
M  V30 7290 O 665.307 -3.94521 4.11958 0
M  V30 7291 O 664.241 -2.54073 5.45647 0
M  V30 7292 H 668.067 -0.30253 3.02189 0
M  V30 7293 H 665.652 -0.0832925 1.49168 0
M  V30 7294 H 667.534 -2.74932 3.19359 0
M  V30 7295 H 666.209 -2.53116 2.01777 0
M  V30 7296 H 665.116 -0.873904 3.6375 0
M  V30 7297 H 666.449 -1.16892 4.78118 0
M  V30 7298 N 668.101 -1.57061 -0.130224 0
M  V30 7299 C 669.378 -1.75205 -0.869631 0
M  V30 7300 C 669.758 -0.716063 -1.98584 0
M  V30 7301 O 669.106 0.262032 -2.26993 0
M  V30 7302 C 669.316 -3.19835 -1.39666 0
M  V30 7303 C 670.664 -3.82011 -1.85345 0
M  V30 7304 O 671.688 -3.23368 -1.49371 0
M  V30 7305 O 670.547 -4.85064 -2.51744 0
M  V30 7306 H 667.641 -0.716977 -0.412157 0
M  V30 7307 H 670.187 -1.69311 -0.11484 0
M  V30 7308 H 668.959 -3.86745 -0.595288 0
M  V30 7309 H 668.582 -3.30222 -2.21448 0
M  V30 7310 N 669.579 0.400081 -1.52437 0
M  V30 7311 C 670.856 1.15973 -1.57511 0
M  V30 7312 C 671.236 2.0798 -0.361572 0
M  V30 7313 O 670.584 2.19032 0.650929 0
M  V30 7314 C 670.794 1.92912 -2.90837 0
M  V30 7315 C 672.142 2.48662 -3.44169 0
M  V30 7316 O 673.166 2.03081 -2.92637 0
M  V30 7317 O 672.025 3.31894 -4.34176 0
M  V30 7318 H 669.119 0.530023 -0.634827 0
M  V30 7319 H 671.665 0.40613 -1.64769 0
M  V30 7320 H 670.437 1.25564 -3.70607 0
M  V30 7321 H 670.06 2.75257 -2.86913 0
M  V30 7322 N 671.057 1.43213 0.657864 0
M  V30 7323 C 672.004 1.48011 1.77092 0
M  V30 7324 C 672.974 0.330291 1.62783 0
M  V30 7325 O 674.159 0.536787 1.83094 0
M  V30 7326 C 671.299 1.40461 3.15222 0
M  V30 7327 C 670.412 2.65612 3.40697 0
M  V30 7328 C 669.547 2.50083 4.68649 0
M  V30 7329 C 668.586 3.70525 4.87214 0
M  V30 7330 N 667.723 3.53835 6.0642 0
M  V30 7331 H 672.563 2.43121 1.72326 0
M  V30 7332 H 670.1 1.20687 0.841013 0
M  V30 7333 H 672.058 1.34079 3.95068 0
M  V30 7334 H 670.688 0.489359 3.19069 0
M  V30 7335 H 669.74 2.82292 2.54982 0
M  V30 7336 H 671.052 3.5509 3.50303 0
M  V30 7337 H 670.206 2.41383 5.56614 0
M  V30 7338 H 668.945 1.58121 4.61356 0
M  V30 7339 H 667.95 3.79639 3.97686 0
M  V30 7340 H 669.175 4.63489 4.96341 0
M  V30 7341 H 667.121 2.64604 6.00267 0
M  V30 7342 H 667.038 4.36912 6.16963 0
M  V30 7343 H 668.306 3.48978 6.97019 0
M  V30 7344 N 672.536 -0.895792 1.29666 0
M  V30 7345 C 673.468 -2.00563 1.10937 0
M  V30 7346 C 674.481 -1.62705 0.055734 0
M  V30 7347 O 675.67 -1.7595 0.300656 0
M  V30 7348 C 672.77 -3.32262 0.667448 0
M  V30 7349 C 671.943 -3.98625 1.80047 0
M  V30 7350 C 671.002 -5.08617 1.3489 0
M  V30 7351 O 670.028 -5.30837 2.05429 0
M  V30 7352 N 671.23 -5.80076 0.221937 0
M  V30 7353 H 673.995 -2.17184 2.06522 0
M  V30 7354 H 671.556 -1.06822 1.21658 0
M  V30 7355 H 673.548 -4.03196 0.348586 0
M  V30 7356 H 672.118 -3.11985 -0.196055 0
M  V30 7357 H 671.338 -3.21005 2.28801 0
M  V30 7358 H 672.626 -4.39704 2.56003 0
M  V30 7359 H 672.024 -5.64514 -0.366084 0
M  V30 7360 H 670.581 -6.51789 -0.0375346 0
M  V30 7361 N 674.014 -1.12206 -1.10668 0
M  V30 7362 C 675.26 -0.877172 -1.82848 0
M  V30 7363 C 675.593 0.595571 -1.84842 0
M  V30 7364 O 674.868 1.44013 -1.30731 0
M  V30 7365 C 675.151 -1.44957 -3.29635 0
M  V30 7366 C 675.004 -2.99051 -3.35989 0
M  V30 7367 C 676.323 -1.10714 -4.25946 0
M  V30 7368 H 673.442 -0.320103 -0.663854 0
M  V30 7369 H 676.084 -1.38827 -1.2972 0
M  V30 7370 H 674.234 -1.01488 -3.7501 0
M  V30 7371 H 675.906 -3.51182 -2.99113 0
M  V30 7372 H 674.149 -3.34705 -2.75962 0
M  V30 7373 H 674.82 -3.34194 -4.39339 0
M  V30 7374 H 677.296 -1.48254 -3.88793 0
M  V30 7375 H 676.172 -1.5343 -5.2702 0
M  V30 7376 H 676.433 -0.019 -4.42096 0
M  V30 7377 N 675.492 1.28418 -0.913599 0
M  V30 7378 C 676.741 1.94265 -0.542572 0
M  V30 7379 C 677.054 1.72709 0.918207 0
M  V30 7380 O 678.26 2.32778 1.39738 0
M  V30 7381 C 676.716 3.47956 -0.919507 0
M  V30 7382 C 676.324 3.78291 -2.4 0
M  V30 7383 C 678.068 4.19962 -0.619057 0
M  V30 7384 C 675.975 5.2529 -2.71707 0
M  V30 7385 H 674.905 0.727213 -0.199192 0
M  V30 7386 H 677.556 1.45931 -1.11249 0
M  V30 7387 H 675.938 3.9502 -0.278372 0
M  V30 7388 H 677.112 3.42035 -3.08786 0
M  V30 7389 H 675.427 3.19456 -2.67089 0
M  V30 7390 H 678.024 5.28178 -0.832623 0
M  V30 7391 H 678.367 4.13935 0.443126 0
M  V30 7392 H 678.9 3.78674 -1.21865 0
M  V30 7393 H 675.639 5.36394 -3.76778 0
M  V30 7394 H 675.159 5.62743 -2.07559 0
M  V30 7395 H 676.838 5.93027 -2.58703 0
M  V30 7396 N 676.97 0.677563 1.42291 0
M  V30 7397 C 677.88 0.000962654 2.346 0
M  V30 7398 C 678.896 -0.785833 1.55244 0
M  V30 7399 O 680.072 -0.727523 1.87801 0
M  V30 7400 C 677.137 -0.936746 3.33805 0
M  V30 7401 C 676.198 -0.144173 4.29058 0
M  V30 7402 C 675.431 -1.03722 5.23524 0
M  V30 7403 O 675.654 -2.27675 5.22992 0
M  V30 7404 O 674.588 -0.496542 5.99848 0
M  V30 7405 H 678.414 0.761397 2.94001 0
M  V30 7406 H 675.999 0.43781 1.42841 0
M  V30 7407 H 677.881 -1.47497 3.94744 0
M  V30 7408 H 676.556 -1.67698 2.76874 0
M  V30 7409 H 675.463 0.438224 3.71524 0
M  V30 7410 H 676.796 0.55701 4.89038 0
M  V30 7411 N 678.448 -1.51871 0.421078 0
M  V30 7412 C 679.725 -1.9447 -0.20993 0
M  V30 7413 C 680.105 -1.35875 -1.61558 0
M  V30 7414 O 679.453 -0.539294 -2.22045 0
M  V30 7415 C 679.663 -3.48402 -0.204165 0
M  V30 7416 C 681.011 -4.2254 -0.417696 0
M  V30 7417 O 682.035 -3.55074 -0.282999 0
M  V30 7418 O 680.894 -5.422 -0.684239 0
M  V30 7419 H 677.988 -0.815283 -0.138718 0
M  V30 7420 H 680.534 -1.62832 0.477884 0
M  V30 7421 H 679.306 -3.83464 0.779183 0
M  V30 7422 H 678.929 -3.86436 -0.935576 0
M  V30 7423 N 679.926 -0.151884 -1.56866 0
M  V30 7424 C 681.172 0.492327 -1.97352 0
M  V30 7425 C 681.527 1.62156 -1.03553 0
M  V30 7426 O 680.82 1.91467 -0.0714872 0
M  V30 7427 C 681.014 1.04074 -3.41911 0
M  V30 7428 C 680.843 -0.0338306 -4.49687 0
M  V30 7429 C 679.613 -0.476914 -5.03044 0
M  V30 7430 C 681.811 -0.827105 -5.07606 0
M  V30 7431 N 679.793 -1.53382 -5.9443 0
M  V30 7432 C 681.164 -1.73439 -5.95247 0
M  V30 7433 C 683.219 -0.874351 -4.90163 0
M  V30 7434 C 681.922 -2.68488 -6.67313 0
M  V30 7435 C 683.948 -1.81269 -5.62935 0
M  V30 7436 C 683.31 -2.70749 -6.50288 0
M  V30 7437 H 679.409 0.148822 -0.767708 0
M  V30 7438 H 681.993 -0.247615 -1.93119 0
M  V30 7439 H 680.164 1.75027 -3.46728 0
M  V30 7440 H 681.896 1.65197 -3.69448 0
M  V30 7441 H 678.651 -0.0782493 -4.73535 0
M  V30 7442 H 679.075 -2.06217 -6.44828 0
M  V30 7443 H 683.717 -0.196628 -4.22343 0
M  V30 7444 H 681.435 -3.37257 -7.34359 0
M  V30 7445 H 685.021 -1.85511 -5.51432 0
M  V30 7446 H 683.901 -3.42175 -7.0561 0
M  V30 7447 N 681.404 1.57128 0.121893 0
M  V30 7448 C 682.351 2.0013 1.14964 0
M  V30 7449 C 683.321 0.872959 1.4131 0
M  V30 7450 O 684.506 1.13696 1.53225 0
M  V30 7451 C 681.646 2.40824 2.4718 0
M  V30 7452 C 680.759 3.67061 2.27794 0
M  V30 7453 C 679.894 3.96749 3.53219 0
M  V30 7454 C 678.933 5.16178 3.28978 0
M  V30 7455 N 678.07 5.41751 4.46599 0
M  V30 7456 H 682.91 2.8772 0.775947 0
M  V30 7457 H 680.447 1.42328 0.371652 0
M  V30 7458 H 682.405 2.62454 3.24305 0
M  V30 7459 H 681.035 1.56279 2.82448 0
M  V30 7460 H 680.087 3.53063 1.416 0
M  V30 7461 H 681.399 4.5434 2.05857 0
M  V30 7462 H 680.553 4.19012 4.38764 0
M  V30 7463 H 679.292 3.07941 3.78185 0
M  V30 7464 H 678.297 4.93762 2.41824 0
M  V30 7465 H 679.522 6.06561 3.05386 0
M  V30 7466 H 677.468 4.55899 4.71691 0
M  V30 7467 H 677.385 6.23347 4.27756 0
M  V30 7468 H 678.653 5.68531 5.33285 0
M  V30 7469 N 682.882 -0.391992 1.52647 0
M  V30 7470 C 684.112 -1.15692 1.71169 0
M  V30 7471 C 684.52 -1.84285 0.428444 0
M  V30 7472 O 683.863 -1.73393 -0.606669 0
M  V30 7473 C 683.925 -2.25033 2.80357 0
M  V30 7474 C 683.589 -1.76433 4.21569 0
M  V30 7475 C 684.586 -1.2427 5.0483 0
M  V30 7476 C 682.271 -1.82746 4.67877 0
M  V30 7477 C 684.265 -0.790657 6.32477 0
M  V30 7478 C 681.952 -1.37153 5.9551 0
M  V30 7479 C 682.95 -0.853997 6.7764 0
M  V30 7480 O 682.638 -0.404708 8.02881 0
M  V30 7481 H 682.37 -0.35297 0.576531 0
M  V30 7482 H 684.924 -0.464994 2.00067 0
M  V30 7483 H 683.154 -2.97641 2.46874 0
M  V30 7484 H 684.843 -2.86718 2.87311 0
M  V30 7485 H 685.609 -1.18752 4.70237 0
M  V30 7486 H 681.488 -2.21971 4.04042 0
M  V30 7487 H 685.032 -0.386024 6.96531 0
M  V30 7488 H 680.929 -1.42356 6.29607 0
M  V30 7489 H 681.697 -0.526459 8.16805 0
M  V30 7490 N 684.36 -1.4356 -0.65026 0
M  V30 7491 C 685.609 -1.44619 -1.406 0
M  V30 7492 C 685.922 -0.0752645 -1.95455 0
M  V30 7493 O 687.128 0.0366832 -2.71475 0
M  V30 7494 C 685.584 -2.54511 -2.54465 0
M  V30 7495 C 685.192 -3.97723 -2.06204 0
M  V30 7496 C 686.936 -2.64768 -3.31811 0
M  V30 7497 C 684.843 -4.99075 -3.17298 0
M  V30 7498 H 683.773 -0.537983 -0.52829 0
M  V30 7499 H 686.424 -1.69559 -0.701561 0
M  V30 7500 H 684.806 -2.22777 -3.27393 0
M  V30 7501 H 685.98 -4.38932 -1.40267 0
M  V30 7502 H 684.295 -3.91538 -1.41729 0
M  V30 7503 H 686.892 -3.37664 -4.14593 0
M  V30 7504 H 687.235 -1.69936 -3.80036 0
M  V30 7505 H 687.768 -2.95817 -2.65964 0
M  V30 7506 H 684.507 -5.95469 -2.74038 0
M  V30 7507 H 684.027 -4.62476 -3.81937 0
M  V30 7508 H 685.706 -5.21913 -3.82382 0
M  V30 7509 N 685.838 0.888903 -1.30139 0
M  V30 7510 C 687.063 1.67884 -1.21777 0
M  V30 7511 C 687.488 1.86848 0.216689 0
M  V30 7512 O 686.846 1.39659 1.15608 0
M  V30 7513 C 686.894 3.03483 -1.94757 0
M  V30 7514 O 685.998 3.92294 -1.27198 0
M  V30 7515 H 685.339 0.513144 -0.421402 0
M  V30 7516 H 687.869 1.10968 -1.71893 0
M  V30 7517 H 687.879 3.53553 -2.03627 0
M  V30 7518 H 686.554 2.89 -2.99085 0
M  V30 7519 H 685.131 3.50732 -1.26655 0
M  V30 7520 N 687.317 1.12792 1.10072 0
M  V30 7521 C 688.563 0.886857 1.82381 0
M  V30 7522 C 688.896 -0.58576 1.85155 0
M  V30 7523 O 688.171 -1.43317 1.31493 0
M  V30 7524 C 688.454 1.46703 3.28862 0
M  V30 7525 C 688.307 3.00829 3.34398 0
M  V30 7526 C 689.626 1.12971 4.25353 0
M  V30 7527 H 686.745 0.32362 0.662148 0
M  V30 7528 H 689.387 1.39513 1.28982 0
M  V30 7529 H 687.537 1.03476 3.74466 0
M  V30 7530 H 689.209 3.52764 2.97247 0
M  V30 7531 H 687.452 3.36164 2.74183 0
M  V30 7532 H 688.123 3.36519 4.3756 0
M  V30 7533 H 690.599 1.50313 3.88001 0
M  V30 7534 H 689.475 1.56223 5.26199 0
M  V30 7535 H 689.736 0.0424452 4.4208 0
M  V30 7536 N 688.795 -1.27931 0.920396 0
M  V30 7537 C 690.041 -1.94977 0.557832 0
M  V30 7538 C 690.374 -1.72224 -0.897365 0
M  V30 7539 O 689.649 -1.04705 -1.63912 0
M  V30 7540 C 689.932 -3.49289 0.875741 0
M  V30 7541 C 689.785 -3.81416 2.38416 0
M  V30 7542 C 691.104 -4.38486 0.376517 0
M  V30 7543 H 688.223 -0.708164 0.20414 0
M  V30 7544 H 690.865 -1.5118 1.15085 0
M  V30 7545 H 689.015 -3.86724 0.371062 0
M  V30 7546 H 690.687 -3.53813 2.95997 0
M  V30 7547 H 688.93 -3.28225 2.83639 0
M  V30 7548 H 689.601 -4.89198 2.55713 0
M  V30 7549 H 692.077 -4.08161 0.808945 0
M  V30 7550 H 690.953 -5.45296 0.627976 0
M  V30 7551 H 691.214 -4.36143 -0.723293 0
M  V30 7552 N 690.273 -0.685099 -1.4193 0
M  V30 7553 C 691.206 0.0371639 -2.2817 0
M  V30 7554 C 692.184 0.798436 -1.41647 0
M  V30 7555 O 693.368 0.791428 -1.71081 0
M  V30 7556 C 690.495 1.05993 -3.21688 0
M  V30 7557 C 689.541 0.393043 -4.24685 0
M  V30 7558 S 690.374 -0.856921 -5.28599 0
M  V30 7559 C 691.53 0.164508 -6.25684 0
M  V30 7560 H 691.763 -0.694305 -2.89079 0
M  V30 7561 H 689.296 -0.474999 -1.46912 0
M  V30 7562 H 691.254 1.64489 -3.76103 0
M  V30 7563 H 689.915 1.7639 -2.59895 0
M  V30 7564 H 689.108 1.16513 -4.90348 0
M  V30 7565 H 688.71 -0.118589 -3.73812 0
M  V30 7566 H 691.002 1.02106 -6.69762 0
M  V30 7567 H 691.945 -0.457917 -7.06618 0
M  V30 7568 H 692.353 0.514596 -5.6215 0
M  V30 7569 N 691.751 1.51645 -0.429126 0
M  V30 7570 C 693.028 1.94579 0.199614 0
M  V30 7571 C 693.408 1.3673 1.60836 0
M  V30 7572 O 692.756 0.551062 2.21756 0
M  V30 7573 C 692.966 3.48506 0.185685 0
M  V30 7574 C 694.314 4.22756 0.395282 0
M  V30 7575 O 695.338 3.55219 0.264165 0
M  V30 7576 O 694.197 5.42555 0.655475 0
M  V30 7577 H 691.291 0.816007 0.134393 0
M  V30 7578 H 693.837 1.62577 -0.486513 0
M  V30 7579 H 692.609 3.83045 -0.799508 0
M  V30 7580 H 692.232 3.86927 0.91507 0
M  V30 7581 N 693.229 0.160201 1.56784 0
M  V30 7582 C 694.645 -0.196089 1.58391 0
M  V30 7583 C 694.845 -1.63689 1.17508 0
M  V30 7584 O 693.901 -2.36613 0.881506 0
M  V30 7585 C 695.214 0.0746449 3.00607 0
M  V30 7586 C 696.762 0.0119762 3.12998 0
M  V30 7587 C 697.237 0.255551 4.57286 0
M  V30 7588 N 698.728 0.202938 4.62755 0
M  V30 7589 C 699.463 0.365731 5.72232 0
M  V30 7590 N 698.959 0.586972 6.90309 0
M  V30 7591 N 700.752 0.302411 5.61286 0
M  V30 7592 H 692.903 1.1008 1.81648 0
M  V30 7593 H 695.166 0.436779 0.841384 0
M  V30 7594 H 694.872 1.07231 3.34954 0
M  V30 7595 H 694.746 -0.638802 3.71751 0
M  V30 7596 H 697.133 -0.976254 2.78484 0
M  V30 7597 H 697.214 0.75796 2.44313 0
M  V30 7598 H 696.858 1.24094 4.92507 0
M  V30 7599 H 696.788 -0.510912 5.24116 0
M  V30 7600 H 699.279 0.0371328 3.77882 0
M  V30 7601 H 699.592 0.700941 7.69615 0
M  V30 7602 H 697.937 0.623453 6.92198 0
M  V30 7603 H 701.128 0.130238 4.67919 0
M  V30 7604 H 701.301 0.432712 6.46554 0
M  V30 7605 N 694.707 -1.5719 -0.113559 0
M  V30 7606 C 695.956 -1.84325 -0.818984 0
M  V30 7607 C 696.269 -0.746685 -1.80787 0
M  V30 7608 O 697.475 -0.904596 -2.55987 0
M  V30 7609 C 695.931 -3.26818 -1.50724 0
M  V30 7610 C 695.539 -4.44498 -0.559065 0
M  V30 7611 C 697.283 -3.63196 -2.19748 0
M  V30 7612 C 695.19 -5.7802 -1.25086 0
M  V30 7613 H 694.12 -0.687507 -0.309596 0
M  V30 7614 H 696.771 -1.8336 -0.0717621 0
M  V30 7615 H 695.153 -3.22269 -2.30128 0
M  V30 7616 H 696.327 -4.60356 0.202146 0
M  V30 7617 H 694.642 -4.16393 0.024495 0
M  V30 7618 H 697.239 -4.60226 -2.72206 0
M  V30 7619 H 697.582 -2.90899 -2.97798 0
M  V30 7620 H 698.115 -3.69553 -1.47226 0
M  V30 7621 H 694.854 -6.53501 -0.511539 0
M  V30 7622 H 694.374 -5.66038 -1.98395 0
M  V30 7623 H 696.053 -6.2196 -1.78253 0
M  V30 7624 N 696.185 0.383891 -1.52853 0
M  V30 7625 C 697.432 1.12842 -1.68146 0
M  V30 7626 C 697.76 1.89823 -0.423954 0
M  V30 7627 O 697.015 1.86475 0.593765 0
M  V30 7628 C 697.314 2.12881 -2.87082 0
M  V30 7629 C 696.98 1.52519 -4.24322 0
M  V30 7630 C 695.642 1.35783 -4.61645 0
M  V30 7631 C 697.994 1.0868 -5.09743 0
M  V30 7632 C 695.322 0.737643 -5.82044 0
M  V30 7633 C 697.674 0.480699 -6.30771 0
M  V30 7634 C 696.338 0.300681 -6.66822 0
M  V30 7635 H 695.608 0.412917 -0.615289 0
M  V30 7636 H 698.255 0.412416 -1.87006 0
M  V30 7637 H 696.56 2.90719 -2.62659 0
M  V30 7638 H 698.257 2.70408 -2.96109 0
M  V30 7639 H 694.847 1.66534 -3.94923 0
M  V30 7640 H 699.031 1.2041 -4.81472 0
M  V30 7641 H 694.287 0.586415 -6.08581 0
M  V30 7642 H 698.461 0.132733 -6.96273 0
M  V30 7643 H 696.088 -0.181966 -7.59982 0
M  V30 7644 N 697.663 1.43903 0.642637 0
M  V30 7645 C 698.593 1.52697 1.76652 0
M  V30 7646 C 699.574 0.380816 1.65782 0
M  V30 7647 O 700.759 0.599432 1.84717 0
M  V30 7648 C 697.889 1.45975 3.15133 0
M  V30 7649 C 696.843 2.58949 3.40778 0
M  V30 7650 C 696.169 2.37279 4.79169 0
M  V30 7651 C 697.469 4.01153 3.34475 0
M  V30 7652 H 699.163 2.46766 1.69549 0
M  V30 7653 H 696.709 1.18767 0.814279 0
M  V30 7654 H 698.662 1.5073 3.93521 0
M  V30 7655 H 697.386 0.484162 3.22991 0
M  V30 7656 H 696.045 2.53564 2.64765 0
M  V30 7657 H 695.693 1.37939 4.83717 0
M  V30 7658 H 695.393 3.13016 4.97287 0
M  V30 7659 H 696.917 2.43834 5.59801 0
M  V30 7660 H 698.331 4.07968 4.02784 0
M  V30 7661 H 696.728 4.77001 3.64129 0
M  V30 7662 H 697.798 4.25539 2.32475 0
M  V30 7663 N 699.141 -0.881989 1.30609 0
M  V30 7664 C 700.39 -1.62878 1.18969 0
M  V30 7665 C 700.703 -1.93946 -0.253859 0
M  V30 7666 O 701.909 -2.67008 -0.491813 0
M  V30 7667 C 700.365 -2.93573 2.0819 0
M  V30 7668 C 699.973 -2.70034 3.57471 0
M  V30 7669 C 701.717 -3.71543 2.0532 0
M  V30 7670 C 699.624 -3.96563 4.38739 0
M  V30 7671 H 698.554 -0.611092 0.441682 0
M  V30 7672 H 701.205 -0.976201 1.55379 0
M  V30 7673 H 699.587 -3.6014 1.64666 0
M  V30 7674 H 700.761 -2.11949 4.09163 0
M  V30 7675 H 699.076 -2.05435 3.62195 0
M  V30 7676 H 701.673 -4.65386 2.63288 0
M  V30 7677 H 702.016 -4.03167 1.03739 0
M  V30 7678 H 702.549 -3.11842 2.46981 0
M  V30 7679 H 699.288 -3.70095 5.41027 0
M  V30 7680 H 698.808 -4.54142 3.9181 0
M  V30 7681 H 700.487 -4.64557 4.50329 0
M  V30 7682 N 700.619 -1.13374 -1.09472 0
M  V30 7683 C 701.847 -0.918351 -1.85402 0
M  V30 7684 C 702.262 0.53281 -1.81126 0
M  V30 7685 O 701.619 1.36879 -1.20708 0
M  V30 7686 C 701.67 -1.39743 -3.33398 0
M  V30 7687 O 701.391 -2.79172 -3.37631 0
M  V30 7688 C 702.892 -1.22042 -4.2617 0
M  V30 7689 H 700.112 -0.327511 -0.585643 0
M  V30 7690 H 702.656 -1.50617 -1.38328 0
M  V30 7691 H 700.811 -0.852619 -3.77901 0
M  V30 7692 H 701.225 -3.00428 -4.29934 0
M  V30 7693 H 702.699 -1.60438 -5.2817 0
M  V30 7694 H 703.176 -0.162047 -4.38901 0
M  V30 7695 H 703.782 -1.75323 -3.87482 0
M  V30 7696 N 702.098 1.27442 -0.927168 0
M  V30 7697 C 703.345 1.94391 -0.567324 0
M  V30 7698 C 703.673 1.72875 0.891321 0
M  V30 7699 O 702.928 1.05071 1.65102 0
M  V30 7700 C 703.227 3.47413 -0.838994 0
M  V30 7701 C 702.893 3.89049 -2.2793 0
M  V30 7702 C 701.555 4.00127 -2.67305 0
M  V30 7703 C 703.907 4.10154 -3.21595 0
M  V30 7704 C 701.235 4.29697 -3.99471 0
M  V30 7705 C 703.587 4.41208 -4.53341 0
M  V30 7706 C 702.251 4.50499 -4.92551 0
M  V30 7707 H 701.521 0.711325 -0.207598 0
M  V30 7708 H 704.168 1.51523 -1.17103 0
M  V30 7709 H 702.473 3.91503 -0.152609 0
M  V30 7710 H 704.17 3.97354 -0.53955 0
M  V30 7711 H 700.76 3.80962 -1.96381 0
M  V30 7712 H 704.944 4.01036 -2.92377 0
M  V30 7713 H 700.2 4.35099 -4.29533 0
M  V30 7714 H 704.374 4.56486 -5.25922 0
M  V30 7715 H 702.001 4.73167 -5.94994 0
M  V30 7716 N 703.576 0.692616 1.41565 0
M  V30 7717 C 704.804 0.231279 2.05603 0
M  V30 7718 C 705.219 -1.11837 1.52111 0
M  V30 7719 O 704.576 -1.6983 0.66813 0
M  V30 7720 C 704.627 0.177125 3.61066 0
M  V30 7721 O 704.348 1.47346 4.12578 0
M  V30 7722 C 705.849 -0.30556 4.42246 0
M  V30 7723 H 703.069 0.108238 0.662213 0
M  V30 7724 H 705.613 0.944369 1.81389 0
M  V30 7725 H 703.768 -0.486769 3.8433 0
M  V30 7726 H 704.182 1.35861 5.06599 0
M  V30 7727 H 705.656 -0.29233 5.51225 0
M  V30 7728 H 706.133 -1.34393 4.18133 0
M  V30 7729 H 706.739 0.327229 4.24039 0
M  V30 7730 N 705.054 -1.51416 0.437162 0
M  V30 7731 C 706.301 -2.02086 -0.129364 0
M  V30 7732 C 706.629 -1.32133 -1.42728 0
M  V30 7733 O 705.884 -0.424916 -1.91031 0
M  V30 7734 C 706.183 -3.55203 -0.39564 0
M  V30 7735 C 705.849 -4.43447 0.81644 0
M  V30 7736 C 704.511 -4.67285 1.14884 0
M  V30 7737 C 706.863 -4.95219 1.62503 0
M  V30 7738 C 704.191 -5.40141 2.29052 0
M  V30 7739 C 706.543 -5.69327 2.7577 0
M  V30 7740 C 705.207 -5.91429 3.09464 0
M  V30 7741 H 704.477 -0.739486 -0.0473375 0
M  V30 7742 H 707.124 -1.82368 0.584321 0
M  V30 7743 H 705.429 -3.73252 -1.19121 0
M  V30 7744 H 707.126 -3.91944 -0.847399 0
M  V30 7745 H 703.716 -4.2509 0.547422 0
M  V30 7746 H 707.9 -4.76686 1.38144 0
M  V30 7747 H 703.156 -5.55468 2.55471 0
M  V30 7748 H 707.33 -6.08433 3.38795 0
M  V30 7749 H 704.957 -6.47662 3.98042 0
M  V30 7750 N 706.532 -0.168513 -1.56696 0
M  V30 7751 C 707.495 0.748928 -2.16619 0
M  V30 7752 C 708.495 1.16007 -1.11351 0
M  V30 7753 O 709.685 1.07748 -1.3688 0
M  V30 7754 C 706.817 2.01904 -2.74677 0
M  V30 7755 H 708.01 0.227317 -2.99037 0
M  V30 7756 H 705.563 0.0810372 -1.5609 0
M  V30 7757 H 706.298 2.58381 -1.95985 0
M  V30 7758 H 706.083 1.73323 -3.51712 0
M  V30 7759 H 707.573 2.67383 -3.20774 0
M  V30 7760 N 708.01 1.57248 0.105221 0
M  V30 7761 C 709.25 1.87393 0.816283 0
M  V30 7762 C 709.614 0.758249 1.76393 0
M  V30 7763 O 710.815 0.941835 2.5176 0
M  V30 7764 C 709.086 3.22775 1.53463 0
M  V30 7765 S 710.645 3.74588 2.28537 0
M  V30 7766 H 707.463 0.656847 0.272164 0
M  V30 7767 H 710.065 1.9536 0.073909 0
M  V30 7768 H 708.769 4.01905 0.830674 0
M  V30 7769 H 708.3 3.17921 2.3171 0
M  V30 7770 H 710.315 3.47193 3.54502 0
M  V30 7771 N 709.488 -0.375779 1.53054 0
M  V30 7772 C 710.451 -1.44254 1.7811 0
M  V30 7773 C 711.451 -1.47018 0.651328 0
M  V30 7774 O 712.641 -1.47957 0.919472 0
M  V30 7775 C 709.773 -2.8345 1.89391 0
M  V30 7776 H 710.966 -1.23316 2.73374 0
M  V30 7777 H 708.519 -0.608312 1.43977 0
M  V30 7778 H 709.254 -3.09716 0.961589 0
M  V30 7779 H 709.039 -2.82844 2.71555 0
M  V30 7780 H 710.529 -3.60722 2.10404 0
M  V30 7781 N 710.966 -1.44241 -0.634997 0
M  V30 7782 C 712.213 -1.46821 -1.39463 0
M  V30 7783 C 712.541 -0.0993362 -1.94246 0
M  V30 7784 O 711.796 0.898325 -1.73864 0
M  V30 7785 C 712.095 -2.47279 -2.58046 0
M  V30 7786 C 711.761 -3.92703 -2.21574 0
M  V30 7787 C 710.423 -4.32306 -2.1134 0
M  V30 7788 C 712.775 -4.84271 -1.92695 0
M  V30 7789 C 710.103 -5.61407 -1.70409 0
M  V30 7790 C 712.455 -6.13755 -1.53258 0
M  V30 7791 C 711.119 -6.52316 -1.41562 0
M  V30 7792 H 710.389 -0.537256 -0.51033 0
M  V30 7793 H 713.036 -1.77431 -0.720441 0
M  V30 7794 H 711.341 -2.10138 -3.3068 0
M  V30 7795 H 713.038 -2.46523 -3.16271 0
M  V30 7796 H 709.628 -3.61369 -2.30456 0
M  V30 7797 H 713.812 -4.54432 -1.99513 0
M  V30 7798 H 709.068 -5.90105 -1.59955 0
M  V30 7799 H 713.242 -6.84168 -1.29949 0
M  V30 7800 H 710.869 -7.52255 -1.09619 0
M  V30 7801 N 712.444 0.87505 -1.31075 0
M  V30 7802 C 713.692 1.62447 -1.20231 0
M  V30 7803 C 714.013 1.93506 0.240888 0
M  V30 7804 O 713.283 1.57847 1.16022 0
M  V30 7805 H 711.863 0.602207 -0.441991 0
M  V30 7806 H 714.525 1.04788 -1.64334 0
M  V30 7807 H 713.621 2.57031 -1.77036 0
M  V30 7808 N 713.922 1.13953 1.08869 0
M  V30 7809 C 715.15 0.92817 1.84912 0
M  V30 7810 C 715.565 -0.523197 1.81406 0
M  V30 7811 O 714.922 -1.36237 1.21432 0
M  V30 7812 C 714.973 1.41509 3.32652 0
M  V30 7813 O 714.694 2.80959 3.36145 0
M  V30 7814 C 716.195 1.243 4.25517 0
M  V30 7815 H 713.415 0.330612 0.583898 0
M  V30 7816 H 715.959 1.51349 1.37527 0
M  V30 7817 H 714.114 0.872648 3.77444 0
M  V30 7818 H 714.528 3.02704 4.28335 0
M  V30 7819 H 716.002 1.63237 5.27312 0
M  V30 7820 H 716.479 0.18532 4.38809 0
M  V30 7821 H 717.085 1.77375 3.86546 0
M  V30 7822 N 715.4 -1.26948 0.933913 0
M  V30 7823 C 716.646 -1.94374 0.57848 0
M  V30 7824 C 716.979 -1.73166 -0.879048 0
M  V30 7825 O 716.254 -1.06438 -1.62792 0
M  V30 7826 C 716.537 -3.4834 0.912739 0
M  V30 7827 C 716.39 -3.78866 2.42448 0
M  V30 7828 C 717.709 -4.38062 0.423003 0
M  V30 7829 H 714.828 -0.705959 0.211639 0
M  V30 7830 H 717.47 -1.49951 1.16682 0
M  V30 7831 H 715.62 -3.86309 0.412058 0
M  V30 7832 H 717.292 -3.50654 2.99733 0
M  V30 7833 H 715.535 -3.25198 2.87104 0
M  V30 7834 H 716.206 -4.86458 2.60887 0
M  V30 7835 H 718.682 -4.0728 0.852191 0
M  V30 7836 H 717.558 -5.44599 0.685776 0
M  V30 7837 H 717.819 -4.36886 -0.676994 0
M  V30 7838 N 716.879 -0.700114 -1.41195 0
M  V30 7839 C 718.125 -0.233351 -2.01453 0
M  V30 7840 C 718.458 1.16548 -1.55339 0
M  V30 7841 O 717.733 1.78756 -0.766575 0
M  V30 7842 C 718.016 -0.2961 -3.58881 0
M  V30 7843 C 717.869 -1.7322 -4.15108 0
M  V30 7844 C 719.188 0.341525 -4.38773 0
M  V30 7845 H 716.307 -0.0862667 -0.731934 0
M  V30 7846 H 718.949 -0.889693 -1.67882 0
M  V30 7847 H 717.099 0.262736 -3.87611 0
M  V30 7848 H 718.771 -2.34523 -3.97236 0
M  V30 7849 H 717.014 -2.2649 -3.69979 0
M  V30 7850 H 717.685 -1.7276 -5.24269 0
M  V30 7851 H 720.161 -0.134461 -4.15883 0
M  V30 7852 H 719.037 0.267098 -5.4825 0
M  V30 7853 H 719.298 1.42289 -4.18577 0
M  V30 7854 N 718.357 1.51182 -0.445186 0
M  V30 7855 C 719.606 2.01342 0.120189 0
M  V30 7856 C 719.919 1.33353 1.43095 0
M  V30 7857 O 721.125 1.74525 2.07974 0
M  V30 7858 C 719.581 3.58925 0.264732 0
M  V30 7859 C 719.189 4.35855 -1.03606 0
M  V30 7860 C 720.933 4.17208 0.783455 0
M  V30 7861 C 718.84 5.85162 -0.856731 0
M  V30 7862 H 717.77 0.752426 0.0486922 0
M  V30 7863 H 720.421 1.74221 -0.576143 0
M  V30 7864 H 718.803 3.82525 1.02425 0
M  V30 7865 H 719.977 4.23997 -1.80452 0
M  V30 7866 H 718.292 3.89062 -1.48391 0
M  V30 7867 H 720.889 5.26475 0.934239 0
M  V30 7868 H 721.232 3.76892 1.768 0
M  V30 7869 H 721.765 3.97715 0.0820346 0
M  V30 7870 H 718.504 6.29904 -1.81388 0
M  V30 7871 H 718.024 5.99663 -0.128206 0
M  V30 7872 H 719.703 6.44963 -0.513027 0
M  V30 7873 N 719.835 0.176821 1.56605 0
M  V30 7874 C 721.084 -0.466833 1.96223 0
M  V30 7875 C 721.397 -1.64015 1.06576 0
M  V30 7876 O 722.603 -2.3504 1.35898 0
M  V30 7877 C 721.059 -0.881921 3.48927 0
M  V30 7878 C 720.667 0.266102 4.47209 0
M  V30 7879 C 722.411 -1.49368 3.97353 0
M  V30 7880 C 720.318 -0.168923 5.91159 0
M  V30 7881 H 719.248 -0.178178 0.732645 0
M  V30 7882 H 721.899 0.265929 1.81563 0
M  V30 7883 H 720.281 -1.67082 3.59026 0
M  V30 7884 H 721.455 1.04349 4.4883 0
M  V30 7885 H 719.77 0.788178 4.08872 0
M  V30 7886 H 722.367 -1.8313 5.02362 0
M  V30 7887 H 722.71 -2.3936 3.40606 0
M  V30 7888 H 723.243 -0.769114 3.90294 0
M  V30 7889 H 719.982 0.696351 6.51791 0
M  V30 7890 H 719.502 -0.911552 5.92833 0
M  V30 7891 H 721.181 -0.610938 6.44109 0
M  V30 7892 N 721.313 -1.57302 -0.09688 0
M  V30 7893 C 722.276 -2.00976 -1.10188 0
M  V30 7894 C 723.276 -0.903009 -1.3305 0
M  V30 7895 O 724.466 -1.16853 -1.29194 0
M  V30 7896 C 721.598 -2.36893 -2.45142 0
M  V30 7897 H 722.791 -2.9098 -0.726003 0
M  V30 7898 H 720.344 -1.52515 -0.341872 0
M  V30 7899 H 721.079 -1.49837 -2.8761 0
M  V30 7900 H 720.864 -3.17632 -2.29897 0
M  V30 7901 H 722.354 -2.71345 -3.1743 0
M  V30 7902 N 722.791 0.367657 -1.53252 0
M  V30 7903 C 724.207 0.709191 -1.42978 0
M  V30 7904 C 724.407 1.93352 -0.567193 0
M  V30 7905 O 723.463 2.52453 -0.0488349 0
M  V30 7906 C 724.776 0.924338 -2.86141 0
M  V30 7907 C 726.324 1.02448 -2.95759 0
M  V30 7908 C 726.799 1.27211 -4.39979 0
M  V30 7909 N 728.29 1.33986 -4.43398 0
M  V30 7910 C 729.025 1.54852 -5.52095 0
M  V30 7911 N 728.521 1.73049 -6.7084 0
M  V30 7912 N 730.314 1.57205 -5.39669 0
M  V30 7913 H 722.465 -0.437669 -2.07842 0
M  V30 7914 H 724.728 -0.133737 -0.938519 0
M  V30 7915 H 724.434 0.0965455 -3.51567 0
M  V30 7916 H 724.308 1.83302 -3.29667 0
M  V30 7917 H 726.695 1.84282 -2.30487 0
M  V30 7918 H 726.776 0.0932301 -2.5563 0
M  V30 7919 H 726.42 0.458792 -5.05824 0
M  V30 7920 H 726.35 2.21654 -4.77679 0
M  V30 7921 H 728.841 1.21545 -3.5782 0
M  V30 7922 H 729.154 1.88538 -7.49449 0
M  V30 7923 H 727.499 1.70231 -6.7383 0
M  V30 7924 H 730.69 1.42555 -4.45865 0
M  V30 7925 H 730.863 1.73126 -6.24445 0
M  V30 7926 N 724.269 1.44576 0.627338 0
M  V30 7927 C 725.232 1.51372 1.72102 0
M  V30 7928 C 726.232 0.395329 1.55865 0
M  V30 7929 O 727.422 0.658094 1.61291 0
M  V30 7930 C 724.554 1.39129 3.11217 0
M  V30 7931 H 725.747 2.48798 1.6745 0
M  V30 7932 H 723.3 1.31724 0.841336 0
M  V30 7933 H 724.035 0.428114 3.21462 0
M  V30 7934 H 723.82 2.20229 3.24409 0
M  V30 7935 H 725.31 1.46874 3.90919 0
M  V30 7936 N 725.747 -0.868086 1.31537 0
M  V30 7937 C 727.158 -1.437 1.19195 0
M  V30 7938 C 727.509 -1.95169 -0.200842 0
M  V30 7939 O 726.634 -1.86432 -1.09872 0
M  V30 7940 C 727.229 -2.612 2.15778 0
M  V30 7941 C 725.788 -3.1413 2.07363 0
M  V30 7942 C 724.935 -1.86845 2.049 0
M  V30 7943 H 727.886 -0.676457 1.43561 0
M  V30 7944 H 727.907 -3.37948 1.74847 0
M  V30 7945 H 727.419 -2.23709 3.17137 0
M  V30 7946 H 725.52 -3.56238 1.09204 0
M  V30 7947 H 725.633 -3.76285 2.96557 0
M  V30 7948 H 723.997 -2.05886 1.49943 0
M  V30 7949 H 724.78 -1.51589 3.08019 0
M  V30 7950 N 727.225 -1.14528 -1.08264 0
M  V30 7951 C 728.45 -0.938381 -1.84957 0
M  V30 7952 C 728.875 0.508044 -1.81109 0
M  V30 7953 O 728.233 1.36146 -1.19724 0
M  V30 7954 C 728.281 -1.44568 -3.30352 0
M  V30 7955 O 727.385 -0.638745 -4.07423 0
M  V30 7956 H 726.726 -0.335394 -0.573068 0
M  V30 7957 H 729.256 -1.52287 -1.36637 0
M  V30 7958 H 729.266 -1.45449 -3.81194 0
M  V30 7959 H 727.941 -2.49876 -3.32468 0
M  V30 7960 H 726.518 -0.698801 -3.66294 0
M  V30 7961 N 728.703 1.26451 -0.940633 0
M  V30 7962 C 729.952 1.93071 -0.583656 0
M  V30 7963 C 730.265 1.74618 0.881366 0
M  V30 7964 O 731.471 2.35689 1.34769 0
M  V30 7965 C 729.927 3.45927 -0.993106 0
M  V30 7966 C 729.535 3.73115 -2.4797 0
M  V30 7967 C 731.279 4.18554 -0.707998 0
M  V30 7968 C 729.186 5.19408 -2.82788 0
M  V30 7969 H 728.116 0.722824 -0.214572 0
M  V30 7970 H 730.767 1.43538 -1.1432 0
M  V30 7971 H 729.149 3.94341 -0.362099 0
M  V30 7972 H 730.323 3.35408 -3.15971 0
M  V30 7973 H 728.638 3.13719 -2.73805 0
M  V30 7974 H 731.235 5.26293 -0.94447 0
M  V30 7975 H 731.578 4.14782 0.355225 0
M  V30 7976 H 732.111 3.76003 -1.2987 0
M  V30 7977 H 728.85 5.28281 -3.88071 0
M  V30 7978 H 728.37 5.58214 -2.19449 0
M  V30 7979 H 730.049 5.87407 -2.71224 0
M  V30 7980 N 730.181 0.707592 1.40822 0
M  V30 7981 C 731.411 0.252706 2.05049 0
M  V30 7982 C 731.819 -1.10758 1.53393 0
M  V30 7983 O 731.162 -1.70567 0.682097 0
M  V30 7984 C 731.224 0.146001 3.59203 0
M  V30 7985 C 730.888 1.44027 4.33711 0
M  V30 7986 C 731.885 2.38058 4.62195 0
M  V30 7987 C 729.57 1.69698 4.72766 0
M  V30 7988 C 731.564 3.56013 5.28709 0
M  V30 7989 C 729.251 2.87936 5.39014 0
M  V30 7990 C 730.249 3.80915 5.66915 0
M  V30 7991 O 729.937 4.9708 6.31796 0
M  V30 7992 H 729.669 0.112784 0.666525 0
M  V30 7993 H 732.223 0.96417 1.81364 0
M  V30 7994 H 730.453 -0.621338 3.81676 0
M  V30 7995 H 732.142 -0.273275 4.04979 0
M  V30 7996 H 732.908 2.19487 4.32493 0
M  V30 7997 H 728.787 0.981835 4.50423 0
M  V30 7998 H 732.331 4.28604 5.50404 0
M  V30 7999 H 728.228 3.06419 5.68135 0
M  V30 8000 H 728.996 4.97053 6.50293 0
M  V30 8001 N 731.66 -1.50943 0.453197 0
M  V30 8002 C 732.937 -1.94872 -0.168633 0
M  V30 8003 C 733.317 -1.39272 -1.5864 0
M  V30 8004 O 732.665 -0.586272 -2.20851 0
M  V30 8005 C 732.875 -3.48757 -0.130217 0
M  V30 8006 C 734.223 -4.23331 -0.327975 0
M  V30 8007 O 735.247 -3.55594 -0.207619 0
M  V30 8008 O 734.106 -5.43529 -0.569077 0
M  V30 8009 H 731.2 -0.818042 -0.121394 0
M  V30 8010 H 733.746 -1.61782 0.512316 0
M  V30 8011 H 732.518 -3.81725 0.860346 0
M  V30 8012 H 732.141 -3.88333 -0.853397 0
M  V30 8013 N 733.138 -0.185124 -1.56509 0
M  V30 8014 C 734.086 0.756505 -2.19954 0
M  V30 8015 C 735.08 1.22725 -1.16769 0
M  V30 8016 O 736.286 1.1913 -1.34937 0
M  V30 8017 H 732.661 0.262279 -0.704779 0
M  V30 8018 H 734.632 0.197587 -2.97745 0
M  V30 8019 C 733.381 1.96975 -2.86524 0
M  V30 8020 H 732.704 1.61658 -3.65659 0
M  V30 8021 H 734.144 2.60719 -3.34367 0
M  V30 8022 C 732.603 2.80219 -1.87027 0
M  V30 8023 O 733.133 3.77821 -1.36433 0
M  V30 8024 N 731.339 2.4551 -1.55477 0
M  V30 8025 H 730.886 1.66199 -1.96813 0
M  V30 8026 H 730.844 3.01493 -0.891597 0
M  V30 8027 N 734.616 1.57351 0.0885366 0
M  V30 8028 C 735.844 1.90631 0.804196 0
M  V30 8029 C 736.259 0.779474 1.71958 0
M  V30 8030 O 735.616 -0.248179 1.80805 0
M  V30 8031 C 735.667 3.23568 1.61202 0
M  V30 8032 O 735.388 4.31917 0.733447 0
M  V30 8033 C 736.889 3.70753 2.43016 0
M  V30 8034 H 734.109 0.630501 0.229585 0
M  V30 8035 H 736.653 2.044 0.0638092 0
M  V30 8036 H 734.808 3.11377 2.30485 0
M  V30 8037 H 735.222 5.08297 1.29361 0
M  V30 8038 H 736.696 4.66447 2.9518 0
M  V30 8039 H 737.173 2.98922 3.2178 0
M  V30 8040 H 737.779 3.85834 1.7892 0
M  V30 8041 N 736.094 -0.359525 1.53444 0
M  V30 8042 C 737.505 -0.936009 1.61542 0
M  V30 8043 C 737.856 -1.90069 0.486633 0
M  V30 8044 O 736.981 -2.12929 -0.386047 0
M  V30 8045 C 737.576 -1.70441 2.92806 0
M  V30 8046 C 736.135 -2.23015 3.03218 0
M  V30 8047 C 735.282 -1.04438 2.56881 0
M  V30 8048 H 738.233 -0.138134 1.58098 0
M  V30 8049 H 738.254 -2.56609 2.80948 0
M  V30 8050 H 737.766 -1.00205 3.74941 0
M  V30 8051 H 735.867 -2.96475 2.25684 0
M  V30 8052 H 735.98 -2.50481 4.08407 0
M  V30 8053 H 734.344 -1.41314 2.11902 0
M  V30 8054 H 735.127 -0.356905 3.4144 0
M  V30 8055 N 737.572 -1.44907 -0.619662 0
M  V30 8056 C 738.535 -1.52282 -1.71297 0
M  V30 8057 C 739.535 -0.40359 -1.55653 0
M  V30 8058 O 740.725 -0.666638 -1.6094 0
M  V30 8059 C 737.857 -1.40778 -3.10474 0
M  V30 8060 H 739.05 -2.49683 -1.66128 0
M  V30 8061 H 736.603 -1.32168 -0.834339 0
M  V30 8062 H 737.338 -0.445156 -3.2123 0
M  V30 8063 H 737.123 -2.21947 -3.23237 0
M  V30 8064 H 738.613 -1.48946 -3.90135 0
M  V30 8065 N 739.05 0.861098 -1.31996 0
M  V30 8066 C 739.98 1.98482 -1.22993 0
M  V30 8067 C 740.961 1.6971 -0.115168 0
M  V30 8068 O 742.146 1.91849 -0.30126 0
M  V30 8069 C 739.276 3.34179 -0.945615 0
M  V30 8070 C 738.23 3.77284 -2.02091 0
M  V30 8071 C 737.556 5.1054 -1.58912 0
M  V30 8072 C 738.856 3.93439 -3.43515 0
M  V30 8073 H 740.55 2.06271 -2.17008 0
M  V30 8074 H 738.096 0.991043 -1.04472 0
M  V30 8075 H 740.049 4.12338 -0.869206 0
M  V30 8076 H 738.773 3.26586 0.0301849 0
M  V30 8077 H 737.432 3.01371 -2.08737 0
M  V30 8078 H 737.08 4.99397 -0.600942 0
M  V30 8079 H 736.78 5.40352 -2.30854 0
M  V30 8080 H 738.304 5.91199 -1.52696 0
M  V30 8081 H 739.718 4.6197 -3.39495 0
M  V30 8082 H 738.115 4.34661 -4.13751 0
M  V30 8083 H 739.185 2.96548 -3.8365 0
M  V30 8084 N 740.528 1.15101 1.07655 0
M  V30 8085 C 741.491 0.847625 2.12951 0
M  V30 8086 C 742.491 -0.151227 1.60087 0
M  V30 8087 O 743.681 0.0780399 1.74025 0
M  V30 8088 C 740.813 0.265 3.39868 0
M  V30 8089 H 742.006 1.7809 2.41296 0
M  V30 8090 H 739.559 0.958072 1.23494 0
M  V30 8091 H 740.294 -0.676625 3.17163 0
M  V30 8092 H 740.079 0.984554 3.79538 0
M  V30 8093 H 741.569 0.0702121 4.17541 0
M  V30 8094 O 742.045 -1.2028 1.07773 0
M  V30 8095 H 742.736 -1.77907 0.76608 0
M  V30 END ATOM
M  V30 BEGIN BOND
M  V30 END BOND
M  V30 END CTAB
M  END
$$$$
