drugbank_drug|DB00028 IgA2
 OpenBabel12092119123D

  0  0  0     0  0            999 V3000
M  V30 BEGIN CTAB
M  V30 COUNTS 10146 10278 0 0 0
M  V30 BEGIN ATOM
M  V30 1 H -0.908 1.98254 -0.117106 0
M  V30 2 N 0 1.576 0 0
M  V30 3 C 0.91 2.11853 1.00774 0
M  V30 4 C 1.926 1.06379 1.37693 0
M  V30 5 O 3.102 1.3828 1.46426 0
M  V30 6 C 0.167 2.61108 2.28087 0
M  V30 7 C -0.772 3.81183 1.9748 0
M  V30 8 C -1.539 4.28079 3.18723 0
M  V30 9 O -1.316 3.74307 4.30407 0
M  V30 10 O -2.382 5.20234 3.02721 0
M  V30 11 H 1.444 2.98177 0.576547 0
M  V30 12 H -0.971 1.47789 0.218828 0
M  V30 13 H 0.911 2.92987 3.0288 0
M  V30 14 H -0.414 1.77881 2.70444 0
M  V30 15 H -1.507 3.54277 1.20162 0
M  V30 16 H -0.174 4.65482 1.5996 0
M  V30 17 N 1.4781 -0.272755 1.55222 0
M  V30 18 C 2.4081 -1.34136 1.91127 0
M  V30 19 C 3.3891 -1.51513 0.773168 0
M  V30 20 O 4.5741 -1.64552 1.03132 0
M  V30 21 C 1.7041 -2.70083 2.1834 0
M  V30 22 C 0.6581 -2.67437 3.34158 0
M  V30 23 C -0.0159 -4.06938 3.46851 0
M  V30 24 C 1.2841 -2.26686 4.70543 0
M  V30 25 H 2.9781 -1.04333 2.80633 0
M  V30 26 H 0.5241 -0.500454 1.35024 0
M  V30 27 H 2.4771 -3.44952 2.42046 0
M  V30 28 H 1.2011 -3.01469 1.25634 0
M  V30 29 H -0.1399 -1.95026 3.1042 0
M  V30 30 H -0.4919 -4.35547 2.51611 0
M  V30 31 H -0.7919 -4.06062 4.2472 0
M  V30 32 H 0.7321 -4.83545 3.72849 0
M  V30 33 H 2.1461 -2.91277 4.93792 0
M  V30 34 H 0.5431 -2.36971 5.5133 0
M  V30 35 H 1.6131 -1.21818 4.69349 0
M  V30 36 N 2.9562 -1.48159 -0.537278 0
M  V30 37 C 4.2022 -1.56035 -1.29541 0
M  V30 38 C 4.5352 -0.230377 -1.92829 0
M  V30 39 O 3.8102 0.762952 -1.78911 0
M  V30 40 C 4.0932 -2.69323 -2.39034 0
M  V30 41 C 3.9462 -4.12002 -1.80485 0
M  V30 42 C 5.2652 -2.78408 -3.40847 0
M  V30 43 H 2.3842 -0.567992 -0.469632 0
M  V30 44 H 5.0262 -1.80302 -0.599277 0
M  V30 45 H 3.1762 -2.48763 -2.98412 0
M  V30 46 H 4.8482 -4.43981 -1.25215 0
M  V30 47 H 3.0912 -4.19344 -1.11055 0
M  V30 48 H 3.7622 -4.87077 -2.59731 0
M  V30 49 H 6.2382 -2.97012 -2.91416 0
M  V30 50 H 5.1142 -3.59416 -4.14863 0
M  V30 51 H 5.3752 -1.86269 -4.00944 0
M  V30 52 N 4.4343 0.785586 -1.36625 0
M  V30 53 C 5.3673 1.90509 -1.25625 0
M  V30 54 C 6.3453 1.62 -0.139607 0
M  V30 55 O 7.5293 1.8591 -0.31141 0
M  V30 56 C 4.6563 3.25419 -0.939158 0
M  V30 57 C 3.7023 3.72856 -2.07077 0
M  V30 58 S 4.5353 3.88162 -3.68904 0
M  V30 59 C 5.6913 5.25942 -3.39317 0
M  V30 60 H 5.9243 1.99549 -2.20381 0
M  V30 61 H 3.4573 0.945226 -1.22085 0
M  V30 62 H 5.4153 4.03346 -0.763029 0
M  V30 63 H 4.0763 3.14099 -0.00931402 0
M  V30 64 H 3.2693 4.70624 -1.80357 0
M  V30 65 H 2.8713 3.01989 -2.20632 0
M  V30 66 H 5.1633 6.10651 -2.93447 0
M  V30 67 H 6.1063 5.57668 -4.36363 0
M  V30 68 H 6.5143 4.93224 -2.74573 0
M  V30 69 N 5.9124 1.20967 1.01018 0
M  V30 70 C 7.1404 1.04956 1.78303 0
M  V30 71 C 7.5554 -0.400915 1.84494 0
M  V30 72 O 6.9124 -1.27826 1.30257 0
M  V30 73 C 6.9634 1.63403 3.22462 0
M  V30 74 O 6.6844 3.02775 3.16637 0
M  V30 75 C 8.1854 1.52432 4.16268 0
M  V30 76 H 5.4054 0.368858 0.560522 0
M  V30 77 H 7.9494 1.60193 1.27116 0
M  V30 78 H 6.1044 1.1227 3.70775 0
M  V30 79 H 6.5184 3.30626 4.07169 0
M  V30 80 H 7.9924 1.98078 5.15237 0
M  V30 81 H 8.4694 0.477875 4.36592 0
M  V30 82 H 9.0754 2.02787 3.73841 0
M  V30 83 N 7.3905 -1.2043 1.01659 0
M  V30 84 C 8.3225 -2.22626 0.544988 0
M  V30 85 C 9.3355 -1.58479 -0.372609 0
M  V30 86 O 10.5245 -1.77679 -0.170958 0
M  V30 87 C 7.6245 -3.38141 -0.22663 0
M  V30 88 C 6.7975 -4.31877 0.692876 0
M  V30 89 C 5.8565 -5.26191 -0.0311616 0
M  V30 90 O 4.8825 -5.6612 0.591343 0
M  V30 91 N 6.0845 -5.65618 -1.30601 0
M  V30 92 H 8.8495 -2.63716 1.42388 0
M  V30 93 H 6.4105 -1.34971 0.894116 0
M  V30 94 H 8.4025 -3.98239 -0.72024 0
M  V30 95 H 6.9725 -2.95943 -1.00681 0
M  V30 96 H 6.1925 -3.69746 1.36679 0
M  V30 97 H 7.4805 -4.91426 1.31824 0
M  V30 98 H 6.8785 -5.3519 -1.83269 0
M  V30 99 H 5.4355 -6.28025 -1.74435 0
M  V30 100 N 8.8686 -0.792821 -1.36206 0
M  V30 101 C 10.0936 -0.377701 -2.03932 0
M  V30 102 C 10.5186 0.998947 -1.59382 0
M  V30 103 O 9.8766 1.64421 -0.763903 0
M  V30 104 C 9.9246 -0.453635 -3.57735 0
M  V30 105 O 9.0286 0.538151 -4.08874 0
M  V30 106 H 8.3696 -0.159855 -0.644471 0
M  V30 107 H 10.8996 -1.07488 -1.7409 0
M  V30 108 H 10.9096 -0.318464 -4.06755 0
M  V30 109 H 9.5846 -1.45784 -3.89512 0
M  V30 110 H 8.1616 0.364359 -3.71116 0
M  V30 111 N 10.3467 1.47872 -0.545128 0
M  V30 112 C 11.7577 1.86384 -0.108581 0
M  V30 113 C 12.1087 1.45309 1.31832 0
M  V30 114 O 11.2337 0.850641 1.9898 0
M  V30 115 C 11.8287 3.38265 -0.190274 0
M  V30 116 C 10.3877 3.75914 0.191164 0
M  V30 117 C 9.5347 2.71926 -0.543273 0
M  V30 118 H 12.4857 1.39561 -0.755537 0
M  V30 119 H 12.5067 3.75831 0.594217 0
M  V30 120 H 12.0187 3.6813 -1.2289 0
M  V30 121 H 10.1197 3.51665 1.23136 0
M  V30 122 H 10.2327 4.78836 -0.158987 0
M  V30 123 H 8.5967 2.54697 0.0122495 0
M  V30 124 H 9.3797 3.04634 -1.58282 0
M  V30 125 N 11.8248 0.280983 1.55075 0
M  V30 126 C 13.0498 -0.340154 2.04592 0
M  V30 127 C 13.4748 -1.48246 1.15779 0
M  V30 128 O 12.8328 -1.80614 0.15761 0
M  V30 129 C 12.8808 -0.793104 3.5177 0
M  V30 130 O 11.9848 -1.89981 3.66034 0
M  V30 131 H 11.3258 -0.0694289 0.66036 0
M  V30 132 H 13.8558 0.416993 2.00306 0
M  V30 133 H 13.8658 -1.08729 3.93245 0
M  V30 134 H 12.5408 0.0426163 4.15878 0
M  V30 135 H 11.1178 -1.60771 3.36463 0
M  V30 136 N 13.3029 -1.57598 0.00835791 0
M  V30 137 C 14.5279 -1.95617 -0.689103 0
M  V30 138 C 14.9529 -0.883753 -1.66046 0
M  V30 139 O 14.3109 0.157352 -1.80616 0
M  V30 140 C 14.3589 -3.32736 -1.38994 0
M  V30 141 O 13.4629 -3.27631 -2.50463 0
M  V30 142 H 12.8039 -0.638379 -0.182668 0
M  V30 143 H 15.3339 -2.045 0.064036 0
M  V30 144 H 15.3439 -3.68494 -1.75147 0
M  V30 145 H 14.0189 -4.1034 -0.677778 0
M  V30 146 H 12.5959 -3.03561 -2.16576 0
M  V30 147 N 14.781 0.264519 -1.55364 0
M  V30 148 C 15.711 1.33121 -1.91836 0
M  V30 149 C 16.692 1.51101 -0.781192 0
M  V30 150 O 17.877 1.64003 -1.04003 0
M  V30 151 C 15.007 2.68921 -2.19769 0
M  V30 152 C 13.961 2.65661 -3.35571 0
M  V30 153 C 13.287 4.05093 -3.49004 0
M  V30 154 C 14.587 2.24187 -4.71739 0
M  V30 155 H 16.281 1.02844 -2.81182 0
M  V30 156 H 13.827 0.493286 -1.35287 0
M  V30 157 H 15.78 3.43663 -2.43872 0
M  V30 158 H 14.504 3.00799 -1.27231 0
M  V30 159 H 13.163 1.93377 -3.1145 0
M  V30 160 H 12.811 4.34206 -2.53917 0
M  V30 161 H 12.511 4.03804 -4.26868 0
M  V30 162 H 14.035 4.81561 -3.75408 0
M  V30 163 H 15.449 2.88654 -4.9533 0
M  V30 164 H 13.846 2.34044 -5.52579 0
M  V30 165 H 14.916 1.19327 -4.69988 0
M  V30 166 N 16.2591 1.48442 0.529413 0
M  V30 167 C 17.4841 1.60406 1.31471 0
M  V30 168 C 17.9091 0.264738 1.86228 0
M  V30 169 O 17.2671 -0.763668 1.64432 0
M  V30 170 C 17.3151 2.65419 2.44101 0
M  V30 171 O 16.4191 2.22618 3.47153 0
M  V30 172 H 15.7601 0.537863 0.389357 0
M  V30 173 H 18.2901 1.94432 0.636965 0
M  V30 174 H 18.3001 2.86709 2.90279 0
M  V30 175 H 16.9751 3.62652 2.03608 0
M  V30 176 H 15.5521 2.11543 3.0709 0
M  V30 177 N 17.7372 -0.778329 1.37039 0
M  V30 178 C 18.7002 -1.87301 1.32102 0
M  V30 179 C 19.7002 -1.59198 0.226405 0
M  V30 180 O 20.8902 -1.67403 0.481861 0
M  V30 181 C 18.0222 -3.24309 1.05055 0
M  V30 182 H 19.2152 -1.93093 2.29467 0
M  V30 183 H 16.7682 -0.977358 1.21973 0
M  V30 184 H 17.5032 -3.24196 0.0819373 0
M  V30 185 H 17.2882 -3.46098 1.84279 0
M  V30 186 H 18.7782 -4.04382 1.04234 0
M  V30 187 N 19.2153 -1.21501 -1.00376 0
M  V30 188 C 20.4403 -1.05977 -1.78279 0
M  V30 189 C 20.8653 0.385994 -1.84097 0
M  V30 190 O 20.2233 1.27849 -1.28547 0
M  V30 191 C 20.2713 -1.66302 -3.19963 0
M  V30 192 O 19.3753 -0.909333 -4.0225 0
M  V30 193 H 18.7163 -0.372906 -0.549397 0
M  V30 194 H 21.2463 -1.6107 -1.26165 0
M  V30 195 H 21.2563 -1.70574 -3.70632 0
M  V30 196 H 19.9313 -2.71515 -3.15043 0
M  V30 197 H 18.5083 -0.941795 -3.60811 0
M  V30 198 N 20.6934 1.19889 -1.02296 0
M  V30 199 C 21.9394 1.89701 -0.717033 0
M  V30 200 C 22.2724 1.7905 0.751989 0
M  V30 201 O 21.5474 1.17891 1.547 0
M  V30 202 C 21.8304 3.40858 -1.16136 0
M  V30 203 C 21.6834 3.60411 -2.69117 0
M  V30 204 C 23.0024 4.33876 -0.737549 0
M  V30 205 H 20.1214 0.688874 -0.261957 0
M  V30 206 H 22.7634 1.41154 -1.27183 0
M  V30 207 H 20.9134 3.82335 -0.689342 0
M  V30 208 H 22.5854 3.28145 -3.2422 0
M  V30 209 H 20.8284 3.03665 -3.0979 0
M  V30 210 H 21.4994 4.66396 -2.95261 0
M  V30 211 H 23.9754 4.00081 -1.14344 0
M  V30 212 H 22.8514 5.38242 -1.0764 0
M  V30 213 H 23.1124 4.40628 0.360436 0
M  V30 214 N 22.1715 0.800033 1.35784 0
M  V30 215 C 23.4195 0.376597 1.9856 0
M  V30 216 C 23.7405 -1.05812 1.63795 0
M  V30 217 O 23.0105 -1.73103 0.917171 0
M  V30 218 H 21.5905 0.136261 0.734467 0
M  V30 219 H 24.2525 1.02442 1.65806 0
M  V30 220 H 23.3485 0.477002 3.08433 0
M  V30 221 N 23.6496 -1.47581 0.552962 0
M  V30 222 C 24.9266 -1.95563 -0.0381515 0
M  V30 223 C 25.3066 -1.49552 -1.48988 0
M  V30 224 O 24.6546 -0.732414 -2.16444 0
M  V30 225 C 24.8646 -3.48848 0.102919 0
M  V30 226 C 26.2126 -4.24577 -0.0446082 0
M  V30 227 O 27.2366 -3.56187 0.0302548 0
M  V30 228 O 26.0956 -5.46116 -0.204923 0
M  V30 229 H 23.1896 -0.824321 -0.0665067 0
M  V30 230 H 25.7356 -1.58001 0.619186 0
M  V30 231 H 24.5076 -3.75129 1.11328 0
M  V30 232 H 24.1306 -3.93165 -0.592224 0
M  V30 233 N 25.1277 -0.289203 -1.54924 0
M  V30 234 C 26.5437 0.0645403 -1.59469 0
M  V30 235 C 26.7437 1.53419 -1.30632 0
M  V30 236 O 25.7997 2.2852 -1.074 0
M  V30 237 C 27.1127 -0.32278 -2.98963 0
M  V30 238 C 28.6607 -0.270564 -3.11828 0
M  V30 239 C 29.1357 -0.632532 -4.53611 0
M  V30 240 N 30.6267 -0.584617 -4.59496 0
M  V30 241 C 31.3617 -0.837314 -5.67254 0
M  V30 242 N 30.8577 -1.15536 -6.83098 0
M  V30 243 N 32.6507 -0.765166 -5.56868 0
M  V30 244 H 24.8017 -1.24714 -1.71931 0
M  V30 245 H 27.0647 -0.504809 -0.802416 0
M  V30 246 H 26.7707 -1.34541 -3.24948 0
M  V30 247 H 26.6447 0.32944 -3.75759 0
M  V30 248 H 29.0317 0.742805 -2.85598 0
M  V30 249 H 29.1127 -0.957242 -2.37214 0
M  V30 250 H 28.7567 -1.64365 -4.80569 0
M  V30 251 H 28.6867 0.07609 -5.26545 0
M  V30 252 H 31.1777 -0.349248 -3.76283 0
M  V30 253 H 31.4907 -1.33447 -7.61191 0
M  V30 254 H 29.8357 -1.19328 -6.84679 0
M  V30 255 H 33.0267 -0.516432 -4.65243 0
M  V30 256 H 33.1997 -0.965477 -6.40767 0
M  V30 257 N 26.6058 1.57591 -0.0167156 0
M  V30 258 C 27.8518 1.91567 0.665582 0
M  V30 259 C 28.1848 0.892298 1.72487 0
M  V30 260 O 27.4598 -0.0867127 1.94307 0
M  V30 261 C 27.7428 3.36069 1.29342 0
M  V30 262 C 27.5958 4.49135 0.244541 0
M  V30 263 C 28.9148 3.803 2.21495 0
M  V30 264 H 26.0338 0.69666 0.240488 0
M  V30 265 H 28.6758 1.89866 -0.0714356 0
M  V30 266 H 26.8258 3.3765 1.92158 0
M  V30 267 H 28.4978 4.59689 -0.385228 0
M  V30 268 H 26.7408 4.3165 -0.431379 0
M  V30 269 H 27.4118 5.47242 0.723207 0
M  V30 270 H 29.8878 3.80377 1.68678 0
M  V30 271 H 28.7638 4.82127 2.62382 0
M  V30 272 H 29.0248 3.15104 3.101 0
M  V30 273 N 28.0839 -0.256276 1.55502 0
M  V30 274 C 29.0319 -1.33694 1.90338 0
M  V30 275 C 30.0259 -1.50299 0.781441 0
M  V30 276 O 31.2319 -1.51885 0.965966 0
M  V30 277 H 27.6069 -0.447483 0.60437 0
M  V30 278 H 29.5779 -1.01574 2.8058 0
M  V30 279 C 28.3269 -2.68724 2.20642 0
M  V30 280 H 27.6499 -2.56743 3.06469 0
M  V30 281 H 29.0899 -3.43237 2.48926 0
M  V30 282 C 27.5489 -3.21101 1.01959 0
M  V30 283 O 28.0789 -4.0084 0.262762 0
M  V30 284 N 26.2849 -2.79003 0.812746 0
M  V30 285 H 25.8319 -2.14271 1.42989 0
M  V30 286 H 25.7899 -3.14393 0.0203076 0
M  V30 287 N 29.562 -1.4872 -0.521534 0
M  V30 288 C 30.811 -1.56419 -1.27341 0
M  V30 289 C 31.124 -0.246805 -1.94037 0
M  V30 290 O 32.33 -0.202122 -2.70747 0
M  V30 291 C 30.786 -2.75896 -2.31105 0
M  V30 292 C 30.394 -4.14311 -1.70441 0
M  V30 293 C 32.138 -2.92913 -3.07249 0
M  V30 294 C 30.045 -5.25038 -2.72194 0
M  V30 295 H 28.975 -0.582344 -0.478949 0
M  V30 296 H 31.626 -1.75071 -0.549779 0
M  V30 297 H 30.008 -2.50697 -3.06541 0
M  V30 298 H 31.182 -4.49564 -1.01136 0
M  V30 299 H 29.497 -4.02482 -1.06759 0
M  V30 300 H 32.094 -3.72805 -3.83302 0
M  V30 301 H 32.437 -2.02689 -3.63625 0
M  V30 302 H 32.97 -3.18054 -2.38928 0
M  V30 303 H 29.709 -6.17255 -2.20627 0
M  V30 304 H 29.229 -4.94263 -3.39801 0
M  V30 305 H 30.908 -5.53508 -3.35019 0
M  V30 306 N 31.0401 0.771051 -1.3745 0
M  V30 307 C 32.0031 1.86598 -1.33093 0
M  V30 308 C 33.0031 1.59076 -0.234845 0
M  V30 309 O 34.1931 1.67145 -0.490732 0
M  V30 310 C 31.3251 3.23747 -1.06773 0
M  V30 311 H 32.5181 1.91873 -2.30488 0
M  V30 312 H 30.0711 0.970876 -1.2249 0
M  V30 313 H 30.8061 3.24148 -0.099129 0
M  V30 314 H 30.5911 3.45115 -1.86112 0
M  V30 315 H 32.0811 4.03824 -1.06377 0
M  V30 316 N 32.5182 1.22032 0.997298 0
M  V30 317 C 33.7582 1.05375 1.75144 0
M  V30 318 C 34.1222 -0.404696 1.87686 0
M  V30 319 O 35.3232 -0.691998 2.5974 0
M  V30 320 C 33.5942 1.74046 3.12158 0
M  V30 321 S 35.1532 1.72745 4.03366 0
M  V30 322 H 31.9712 0.377449 0.602539 0
M  V30 323 H 34.5732 1.54902 1.19272 0
M  V30 324 H 33.2772 2.79332 3.00669 0
M  V30 325 H 32.8082 1.24731 3.73103 0
M  V30 326 H 34.8232 0.774015 4.90126 0
M  V30 327 N 33.9963 -1.19345 1.0293 0
M  V30 328 C 35.4123 -1.41069 0.746446 0
M  V30 329 C 35.6123 -1.90078 -0.668776 0
M  V30 330 O 34.6683 -2.0778 -1.4347 0
M  V30 331 C 35.9813 -2.42141 1.78292 0
M  V30 332 C 37.5293 -2.55887 1.80252 0
M  V30 333 C 38.0043 -3.60214 2.8286 0
M  V30 334 N 39.4953 -3.67711 2.81679 0
M  V30 335 C 40.2303 -4.48128 3.57727 0
M  V30 336 N 39.7263 -5.32248 4.43491 0
M  V30 337 N 41.5193 -4.42782 3.46267 0
M  V30 338 H 33.6703 -0.858536 1.94275 0
M  V30 339 H 35.9333 -0.439541 0.839945 0
M  V30 340 H 35.6393 -2.13155 2.79746 0
M  V30 341 H 35.5133 -3.41323 1.60557 0
M  V30 342 H 37.9003 -2.84196 0.794757 0
M  V30 343 H 37.9813 -1.56858 2.02062 0
M  V30 344 H 37.6253 -3.32647 3.83807 0
M  V30 345 H 37.5553 -4.58895 2.58307 0
M  V30 346 H 40.0463 -3.07634 2.19476 0
M  V30 347 H 40.3593 -5.90729 4.98256 0
M  V30 348 H 38.7043 -5.31707 4.47564 0
M  V30 349 H 41.8953 -3.76107 2.78677 0
M  V30 350 H 42.0683 -5.05215 4.05785 0
M  V30 351 N 35.4744 -0.807222 -1.35358 0
M  V30 352 C 36.4374 -0.223665 -2.28106 0
M  V30 353 C 37.4374 0.589354 -1.4961 0
M  V30 354 O 38.6274 0.407745 -1.69361 0
M  V30 355 C 35.7594 0.688149 -3.33882 0
M  V30 356 H 36.9524 -1.04169 -2.81227 0
M  V30 357 H 34.5054 -0.577921 -1.45223 0
M  V30 358 H 35.2404 1.52984 -2.85948 0
M  V30 359 H 35.0254 0.10687 -3.91954 0
M  V30 360 H 36.5154 1.09075 -4.03104 0
M  V30 361 N 36.9525 1.47285 -0.560781 0
M  V30 362 C 38.1775 2.07359 -0.0410566 0
M  V30 363 C 38.6025 1.41017 1.24483 0
M  V30 364 O 37.9605 0.486368 1.74654 0
M  V30 365 C 38.0085 3.6035 0.134123 0
M  V30 366 O 37.1125 3.94681 1.19587 0
M  V30 367 H 36.4535 0.661887 -0.0529291 0
M  V30 368 H 38.9835 1.89252 -0.777482 0
M  V30 369 H 38.9935 4.0652 0.347207 0
M  V30 370 H 37.6685 4.08034 -0.805047 0
M  V30 371 H 36.2455 3.60251 0.962987 0
M  V30 372 N 38.4306 0.297415 1.54768 0
M  V30 373 C 39.3626 -0.613881 2.20826 0
M  V30 374 C 40.3756 -1.10032 1.19987 0
M  V30 375 O 41.5646 -1.01839 1.46598 0
M  V30 376 C 38.6646 -1.852 2.83821 0
M  V30 377 C 37.8376 -1.50865 4.10559 0
M  V30 378 C 36.8966 -2.60154 4.57391 0
M  V30 379 O 35.9226 -2.25398 5.2267 0
M  V30 380 N 37.1246 -3.90629 4.29406 0
M  V30 381 H 39.8896 -0.048389 2.99661 0
M  V30 382 H 37.4506 0.11946 1.61459 0
M  V30 383 H 39.4426 -2.57652 3.12086 0
M  V30 384 H 38.0126 -2.32597 2.08847 0
M  V30 385 H 37.2326 -0.616925 3.89343 0
M  V30 386 H 38.5206 -1.25458 4.9309 0
M  V30 387 H 37.9186 -4.21677 3.77101 0
M  V30 388 H 36.4756 -4.59391 4.62388 0
M  V30 389 N 39.9087 -1.5758 0.0250728 0
M  V30 390 C 41.1567 -1.91255 -0.653151 0
M  V30 391 C 41.4777 -0.901691 -1.729 0
M  V30 392 O 40.7477 0.0573785 -1.95816 0
M  V30 393 H 39.3277 -0.705942 -0.244243 0
M  V30 394 H 41.9897 -1.94767 0.0719209 0
M  V30 395 H 41.0857 -2.91752 -1.10847 0
M  V30 396 N 41.3868 0.248026 -1.55636 0
M  V30 397 C 42.6358 0.974134 -1.76617 0
M  V30 398 C 42.9488 1.86528 -0.588796 0
M  V30 399 O 44.1548 2.62805 -0.681594 0
M  V30 400 C 42.6108 1.78213 -3.12679 0
M  V30 401 C 42.2188 0.93843 -4.38061 0
M  V30 402 C 43.9628 2.50104 -3.42999 0
M  V30 403 C 41.8698 1.74225 -5.65155 0
M  V30 404 H 40.7998 0.36745 -0.658405 0
M  V30 405 H 43.4508 0.22884 -1.82067 0
M  V30 406 H 41.8328 2.56933 -3.01333 0
M  V30 407 H 43.0068 0.193635 -4.60393 0
M  V30 408 H 41.3218 0.332905 -4.15067 0
M  V30 409 H 43.9188 3.10694 -4.3517 0
M  V30 410 H 44.2618 3.21662 -2.64271 0
M  V30 411 H 44.7948 1.78395 -3.55556 0
M  V30 412 H 41.5338 1.07043 -6.46701 0
M  V30 413 H 41.0538 2.46235 -5.46926 0
M  V30 414 H 42.7328 2.30967 -6.0437 0
M  V30 415 N 42.8649 1.48995 0.513639 0
M  V30 416 C 44.0899 1.61792 1.29762 0
M  V30 417 C 44.5149 0.284475 1.85936 0
M  V30 418 O 43.8729 -0.746185 1.65232 0
M  V30 419 C 43.9209 2.67993 2.41272 0
M  V30 420 O 43.0249 2.26287 3.44772 0
M  V30 421 H 42.3659 0.541963 0.38363 0
M  V30 422 H 44.8959 1.95097 0.616307 0
M  V30 423 H 44.9059 2.89772 2.87221 0
M  V30 424 H 43.5809 3.64791 1.9975 0
M  V30 425 H 42.1579 2.14788 3.04829 0
M  V30 426 N 44.343 -0.763751 1.37857 0
M  V30 427 C 45.568 -1.55805 1.36893 0
M  V30 428 C 45.993 -1.88054 -0.0416135 0
M  V30 429 O 45.351 -1.49825 -1.02089 0
M  V30 430 C 45.399 -2.84012 2.22192 0
M  V30 431 O 44.503 -3.78732 1.63204 0
M  V30 432 H 43.844 -0.471638 0.46739 0
M  V30 433 H 46.374 -0.944657 1.81487 0
M  V30 434 H 46.384 -3.33037 2.35691 0
M  V30 435 H 45.059 -2.59869 3.24716 0
M  V30 436 H 43.636 -3.37402 1.58791 0
M  V30 437 N 45.8211 -1.22559 -0.990812 0
M  V30 438 C 46.7841 -0.998863 -2.0629 0
M  V30 439 C 47.7841 0.0354834 -1.60761 0
M  V30 440 O 48.9741 -0.203231 -1.7301 0
M  V30 441 C 46.1061 -0.509203 -3.37076 0
M  V30 442 H 47.2991 -1.95014 -2.27837 0
M  V30 443 H 44.8521 -1.04456 -1.16269 0
M  V30 444 H 45.5871 0.446335 -3.21214 0
M  V30 445 H 45.3721 -1.25547 -3.71457 0
M  V30 446 H 46.8621 -0.370888 -4.1595 0
M  V30 447 N 47.2992 1.18797 -1.03562 0
M  V30 448 C 48.2292 2.24472 -0.643019 0
M  V30 449 C 49.2102 1.66433 0.351283 0
M  V30 450 O 50.3952 1.92803 0.232505 0
M  V30 451 C 47.5252 3.473 4.24935e-05 0
M  V30 452 C 46.4792 4.18055 -0.917257 0
M  V30 453 C 45.8052 5.34519 -0.138941 0
M  V30 454 C 47.1052 4.72109 -2.23407 0
M  V30 455 H 48.7992 2.57566 -1.52643 0
M  V30 456 H 46.3452 1.23806 -0.735394 0
M  V30 457 H 48.2982 4.20426 0.286383 0
M  V30 458 H 47.0222 3.13424 0.918299 0
M  V30 459 H 45.6812 3.46821 -1.1879 0
M  V30 460 H 45.3292 4.96891 0.781562 0
M  V30 461 H 45.0292 5.82794 -0.750005 0
M  V30 462 H 46.5532 6.10438 0.1405 0
M  V30 463 H 47.9672 5.36955 -2.00879 0
M  V30 464 H 46.3642 5.30897 -2.79765 0
M  V30 465 H 47.4342 3.89807 -2.88407 0
M  V30 466 N 48.7773 0.814389 1.34928 0
M  V30 467 C 49.7403 0.235759 2.27984 0
M  V30 468 C 50.7403 -0.581412 1.49921 0
M  V30 469 O 51.9303 -0.398758 1.69575 0
M  V30 470 C 49.0623 -0.670433 3.34242 0
M  V30 471 H 50.2553 1.05659 2.80671 0
M  V30 472 H 47.8083 0.585614 1.44915 0
M  V30 473 H 48.5433 -1.51466 2.86755 0
M  V30 474 H 48.3283 -0.0860822 3.92005 0
M  V30 475 H 49.8183 -1.06935 4.03676 0
M  V30 476 N 50.2554 -1.46986 0.568584 0
M  V30 477 C 51.5014 -2.0332 0.0571487 0
M  V30 478 C 51.8564 -1.43384 -1.28291 0
M  V30 479 O 51.1494 -0.584304 -1.82473 0
M  V30 480 C 51.3434 -3.57306 -0.081836 0
M  V30 481 C 51.1724 -4.32174 1.24321 0
M  V30 482 C 49.9424 -4.71633 1.81358 0
M  V30 483 C 52.1404 -4.66598 2.16312 0
M  V30 484 N 50.1224 -5.31191 3.07748 0
M  V30 485 C 51.4934 -5.26578 3.27285 0
M  V30 486 C 53.5484 -4.48527 2.16166 0
M  V30 487 C 52.2514 -5.70395 4.38226 0
M  V30 488 C 54.2774 -4.93351 3.26127 0
M  V30 489 C 53.6394 -5.5339 4.3582 0
M  V30 490 H 49.7384 -0.77943 0.063351 0
M  V30 491 H 52.3224 -1.79323 0.758378 0
M  V30 492 H 50.4934 -3.81046 -0.752207 0
M  V30 493 H 52.2254 -4.00282 -0.59637 0
M  V30 494 H 48.9804 -4.53946 1.35019 0
M  V30 495 H 49.4044 -5.65505 3.72201 0
M  V30 496 H 54.0464 -4.01456 1.32638 0
M  V30 497 H 51.7644 -6.16452 5.22506 0
M  V30 498 H 55.3504 -4.81131 3.27115 0
M  V30 499 H 54.2304 -5.87441 5.19503 0
M  V30 500 N 51.7335 -0.305618 -1.54608 0
M  V30 501 C 52.9635 0.304333 -2.04346 0
M  V30 502 C 53.3715 1.47715 -1.18224 0
M  V30 503 O 52.7145 1.82591 -0.201577 0
M  V30 504 C 52.7765 0.819031 -3.50046 0
M  V30 505 C 52.4405 -0.22912 -4.56425 0
M  V30 506 C 53.4375 -1.05914 -5.08997 0
M  V30 507 C 51.1225 -0.372148 -5.0092 0
M  V30 508 C 53.1165 -2.01809 -6.04609 0
M  V30 509 C 50.8035 -1.33454 -5.9635 0
M  V30 510 C 51.8015 -2.15599 -6.48079 0
M  V30 511 O 51.4895 -3.10205 -7.41639 0
M  V30 512 H 51.2215 0.0693996 -0.672428 0
M  V30 513 H 53.7755 -0.444548 -2.00532 0
M  V30 514 H 52.0055 1.61852 -3.51199 0
M  V30 515 H 53.6945 1.34537 -3.82955 0
M  V30 516 H 54.4605 -0.959538 -4.75413 0
M  V30 517 H 50.3395 0.257304 -4.60281 0
M  V30 518 H 53.8835 -2.65966 -6.44909 0
M  V30 519 H 49.7805 -1.43485 -6.29351 0
M  V30 520 H 50.5485 -3.05237 -7.59455 0
M  V30 521 N 53.2116 1.57565 -0.0334293 0
M  V30 522 C 54.1436 2.0739 0.975811 0
M  V30 523 C 55.1566 0.998166 1.2861 0
M  V30 524 O 56.3456 1.27426 1.25 0
M  V30 525 C 53.4456 2.4871 2.30209 0
M  V30 526 C 52.6186 3.79413 2.17634 0
M  V30 527 C 51.6776 4.07237 3.33233 0
M  V30 528 O 50.7036 4.77425 3.09927 0
M  V30 529 N 51.9056 3.5775 4.5716 0
M  V30 530 H 54.6706 2.94598 0.55066 0
M  V30 531 H 52.2316 1.61173 0.15323 0
M  V30 532 H 54.2236 2.64413 3.06378 0
M  V30 533 H 52.7936 1.66845 2.64351 0
M  V30 534 H 52.0136 3.73465 1.26165 0
M  V30 535 H 53.3016 4.65038 2.0644 0
M  V30 536 H 52.6996 3.00976 4.78989 0
M  V30 537 H 51.2566 3.78724 5.30482 0
M  V30 538 N 54.6897 -0.239769 1.55765 0
M  V30 539 C 55.6217 -1.32001 1.87372 0
M  V30 540 C 56.6347 -1.43944 0.760522 0
M  V30 541 O 57.8237 -1.45167 1.0387 0
M  V30 542 C 54.9237 -2.69779 2.05115 0
M  V30 543 C 54.0967 -2.80014 3.36022 0
M  V30 544 C 53.1557 -3.98684 3.4342 0
M  V30 545 O 52.1817 -3.87877 4.16582 0
M  V30 546 N 53.3837 -5.12176 2.73232 0
M  V30 547 H 56.1487 -1.0522 2.80622 0
M  V30 548 H 53.7097 -0.429857 1.56089 0
M  V30 549 H 55.7017 -3.47517 2.07399 0
M  V30 550 H 54.2717 -2.89237 1.18577 0
M  V30 551 H 53.4917 -1.88896 3.45994 0
M  V30 552 H 54.7797 -2.83808 4.22292 0
M  V30 553 H 54.1777 -5.2385 2.13536 0
M  V30 554 H 52.7347 -5.88022 2.81199 0
M  V30 555 N 56.1678 -1.49265 -0.50573 0
M  V30 556 C 57.1148 -1.65585 -1.6078 0
M  V30 557 C 58.0848 -0.497396 -1.58478 0
M  V30 558 O 59.2698 -0.72385 -1.76536 0
M  V30 559 C 56.4098 -1.72408 -2.98948 0
M  V30 560 C 55.5228 -2.99525 -3.11301 0
M  V30 561 C 54.6578 -2.97356 -4.40174 0
M  V30 562 C 53.6968 -4.19074 -4.46143 0
M  V30 563 N 52.8338 -4.14841 -5.66437 0
M  V30 564 H 57.6738 -2.59688 -1.46172 0
M  V30 565 H 55.2108 -1.28761 -0.711261 0
M  V30 566 H 57.1688 -1.74344 -3.79025 0
M  V30 567 H 55.7988 -0.817753 -3.1227 0
M  V30 568 H 54.8508 -3.07222 -2.24318 0
M  V30 569 H 56.1628 -3.89518 -3.11572 0
M  V30 570 H 55.3168 -2.97829 -5.28567 0
M  V30 571 H 54.0558 -2.05133 -4.42461 0
M  V30 572 H 53.0608 -4.1885 -3.56153 0
M  V30 573 H 54.2858 -5.12483 -4.45575 0
M  V30 574 H 52.2318 -3.25453 -5.69575 0
M  V30 575 H 52.1488 -4.98564 -5.68304 0
M  V30 576 H 53.4168 -4.1941 -6.57051 0
M  V30 577 N 57.6459 0.756429 -1.3826 0
M  V30 578 C 59.0569 1.33359 -1.30661 0
M  V30 579 C 59.4079 1.96161 0.0388875 0
M  V30 580 O 58.5329 1.94874 0.940918 0
M  V30 581 C 59.1279 2.42477 -2.36622 0
M  V30 582 C 57.6869 2.95922 -2.3261 0
M  V30 583 C 56.8339 1.69275 -2.19639 0
M  V30 584 H 59.7849 0.55552 -1.4866 0
M  V30 585 H 59.8059 3.22345 -2.02174 0
M  V30 586 H 59.3179 1.96739 -3.34538 0
M  V30 587 H 57.4189 3.45996 -1.38267 0
M  V30 588 H 57.5319 3.50494 -3.26636 0
M  V30 589 H 55.8959 1.92793 -1.66442 0
M  V30 590 H 56.6789 1.25619 -3.19491 0
M  V30 591 N 59.124 1.23083 0.984299 0
M  V30 592 C 60.372 1.05848 1.72165 0
M  V30 593 C 60.693 -0.406049 1.90726 0
M  V30 594 O 59.963 -1.29139 1.47309 0
M  V30 595 H 58.543 0.388685 0.637913 0
M  V30 596 H 61.205 1.54736 1.18503 0
M  V30 597 H 60.301 1.54327 2.71274 0
M  V30 598 N 60.6021 -1.18246 1.0419 0
M  V30 599 C 61.5491 -2.2192 0.634037 0
M  V30 600 C 62.5191 -1.62179 -0.358765 0
M  V30 601 O 63.7041 -1.89122 -0.252466 0
M  V30 602 C 60.8441 -3.451 0.00445535 0
M  V30 603 C 59.9571 -4.19174 1.04487 0
M  V30 604 C 59.0921 -5.29813 0.383676 0
M  V30 605 C 58.1311 -5.9566 1.4091 0
M  V30 606 N 57.2681 -6.97834 0.772784 0
M  V30 607 H 62.1081 -2.56164 1.52263 0
M  V30 608 H 59.6451 -1.25843 0.761701 0
M  V30 609 H 61.6031 -4.15485 -0.377919 0
M  V30 610 H 60.2331 -3.11472 -0.847652 0
M  V30 611 H 59.2851 -3.47604 1.54518 0
M  V30 612 H 60.5971 -4.64267 1.82368 0
M  V30 613 H 59.7511 -6.06677 -0.0528366 0
M  V30 614 H 58.4901 -4.85825 -0.427208 0
M  V30 615 H 57.4951 -5.17535 1.85574 0
M  V30 616 H 58.7201 -6.4173 2.22171 0
M  V30 617 H 56.6661 -6.55998 -0.0177708 0
M  V30 618 H 56.5831 -7.41186 1.48928 0
M  V30 619 H 57.8511 -7.78665 0.36071 0
M  V30 620 N 62.0802 -0.821533 -1.34494 0
M  V30 621 C 63.0432 -0.247847 -2.27856 0
M  V30 622 C 64.0432 0.573453 -1.50227 0
M  V30 623 O 65.2332 0.389759 -1.69784 0
M  V30 624 C 62.3652 0.652698 -3.34593 0
M  V30 625 H 63.5582 -1.07146 -2.80107 0
M  V30 626 H 61.1112 -0.593291 -1.44602 0
M  V30 627 H 61.8462 1.49943 -2.87555 0
M  V30 628 H 61.6312 0.065292 -3.92046 0
M  V30 629 H 63.1212 1.04793 -4.04238 0
M  V30 630 N 63.5583 1.46682 -0.576371 0
M  V30 631 C 64.9693 1.86112 -0.148091 0
M  V30 632 C 65.3203 1.48073 1.2872 0
M  V30 633 O 64.4453 0.892656 1.97131 0
M  V30 634 C 65.0403 3.37786 -0.261982 0
M  V30 635 C 63.5993 3.76235 0.111384 0
M  V30 636 C 62.7463 2.70713 -0.60083 0
M  V30 637 H 65.6973 1.37927 -0.78497 0
M  V30 638 H 65.7183 3.77007 0.514364 0
M  V30 639 H 65.2303 3.6544 -1.30671 0
M  V30 640 H 63.3313 3.54198 1.15649 0
M  V30 641 H 63.4443 4.78391 -0.26052 0
M  V30 642 H 61.8083 2.54666 -0.0417783 0
M  V30 643 H 62.5913 3.01208 -1.64708 0
M  V30 644 N 65.0364 0.313813 1.54444 0
M  V30 645 C 66.4524 -0.0391619 1.59552 0
M  V30 646 C 66.6524 -1.51322 1.33056 0
M  V30 647 O 65.7084 -2.26782 1.11022 0
M  V30 648 C 67.0214 0.370302 2.98411 0
M  V30 649 C 68.5694 0.320139 3.11358 0
M  V30 650 C 69.0444 0.704617 4.52547 0
M  V30 651 N 70.5354 0.657645 4.58508 0
M  V30 652 C 71.2704 0.927453 5.6585 0
M  V30 653 N 70.7664 1.26389 6.81174 0
M  V30 654 N 72.5594 0.853662 5.5558 0
M  V30 655 H 64.7104 1.27433 1.69925 0
M  V30 656 H 66.9734 0.517511 0.794284 0
M  V30 657 H 66.6794 1.39694 3.22767 0
M  V30 658 H 66.5534 -0.269619 3.76235 0
M  V30 659 H 68.9404 -0.697275 2.86744 0
M  V30 660 H 69.0214 0.99486 2.35661 0
M  V30 661 H 68.6654 1.7199 4.77893 0
M  V30 662 H 68.5954 0.00768843 5.26599 0
M  V30 663 H 71.0864 0.409067 3.75679 0
M  V30 664 H 71.3994 1.4554 7.58972 0
M  V30 665 H 69.7444 1.30206 6.82694 0
M  V30 666 H 72.9354 0.590383 4.64362 0
M  V30 667 H 73.1084 1.0673 6.3915 0
M  V30 668 N 66.5145 -1.57545 0.0417849 0
M  V30 669 C 67.4445 -2.14009 -0.933929 0
M  V30 670 C 68.4255 -1.05938 -1.33083 0
M  V30 671 O 69.6105 -1.33833 -1.40721 0
M  V30 672 C 66.7405 -2.67747 -2.21199 0
M  V30 673 C 65.6945 -3.80718 -1.95544 0
M  V30 674 C 65.0205 -4.20935 -3.29724 0
M  V30 675 C 66.3205 -5.06258 -1.28452 0
M  V30 676 H 68.0145 -2.95788 -0.463645 0
M  V30 677 H 65.5605 -1.42285 -0.221573 0
M  V30 678 H 67.5135 -3.05886 -2.89848 0
M  V30 679 H 66.2375 -1.83147 -2.70416 0
M  V30 680 H 64.8965 -3.43037 -1.2931 0
M  V30 681 H 64.5445 -3.33298 -3.76724 0
M  V30 682 H 64.2445 -4.9707 -3.13361 0
M  V30 683 H 65.7685 -4.61666 -3.9962 0
M  V30 684 H 67.1825 -5.41903 -1.8712 0
M  V30 685 H 65.5795 -5.87475 -1.22445 0
M  V30 686 H 66.6495 -4.84207 -0.259219 0
M  V30 687 N 67.9926 0.231505 -1.5589 0
M  V30 688 C 68.9226 1.29022 -1.94617 0
M  V30 689 C 69.9036 1.4941 -0.813067 0
M  V30 690 O 71.0886 1.6176 -1.07459 0
M  V30 691 C 68.2186 2.64199 -2.25424 0
M  V30 692 C 67.1726 2.58484 -3.41131 0
M  V30 693 C 66.4986 3.97599 -3.57518 0
M  V30 694 C 67.7986 2.1413 -4.76388 0
M  V30 695 H 69.4926 0.968563 -2.83301 0
M  V30 696 H 67.0386 0.464479 -1.36303 0
M  V30 697 H 68.9916 3.38413 -2.51107 0
M  V30 698 H 67.7156 2.98032 -1.33583 0
M  V30 699 H 66.3746 1.86727 -3.15481 0
M  V30 700 H 66.0226 4.28723 -2.6307 0
M  V30 701 H 65.7226 3.94659 -4.35337 0
M  V30 702 H 67.2466 4.7349 -3.85538 0
M  V30 703 H 68.6606 2.78083 -5.01341 0
M  V30 704 H 67.0576 2.2227 -5.57419 0
M  V30 705 H 68.1276 1.09331 -4.72414 0
M  V30 706 N 69.4707 1.49531 0.497807 0
M  V30 707 C 70.7197 1.58426 1.24837 0
M  V30 708 C 71.0327 0.277643 1.93619 0
M  V30 709 O 72.2387 0.24517 2.70391 0
M  V30 710 C 70.6947 2.79538 2.26686 0
M  V30 711 C 70.3027 4.16971 1.63828 0
M  V30 712 C 72.0467 2.97764 3.0255 0
M  V30 713 C 69.9537 5.29301 2.63807 0
M  V30 714 H 68.8837 0.58989 0.469623 0
M  V30 715 H 71.5347 1.75923 0.521857 0
M  V30 716 H 69.9167 2.55542 3.02514 0
M  V30 717 H 71.0907 4.51116 0.939711 0
M  V30 718 H 69.4057 4.04129 1.00342 0
M  V30 719 H 72.0027 3.78856 3.77323 0
M  V30 720 H 72.3457 2.08448 3.60354 0
M  V30 721 H 72.8787 3.21815 2.33838 0
M  V30 722 H 69.6177 6.20687 2.10779 0
M  V30 723 H 69.1377 4.99606 3.31894 0
M  V30 724 H 70.8167 5.58768 3.2617 0
M  V30 725 N 70.9488 -0.749086 1.3866 0
M  V30 726 C 72.1788 -1.53611 1.38157 0
M  V30 727 C 72.5868 -1.89177 -0.0293595 0
M  V30 728 O 71.9298 -1.53606 -1.00752 0
M  V30 729 C 71.9918 -2.86087 2.17702 0
M  V30 730 C 71.6558 -2.73034 3.66472 0
M  V30 731 C 72.6528 -2.42526 4.59866 0
M  V30 732 C 70.3378 -2.90345 4.09884 0
M  V30 733 C 72.3318 -2.29492 5.94653 0
M  V30 734 C 70.0188 -2.7693 5.4475 0
M  V30 735 C 71.0168 -2.46547 6.36949 0
M  V30 736 O 70.7048 -2.33199 7.69333 0
M  V30 737 H 70.4368 -0.481773 0.474205 0
M  V30 738 H 72.9908 -0.934465 1.82912 0
M  V30 739 H 71.2208 -3.48458 1.67672 0
M  V30 740 H 72.9098 -3.47625 2.09551 0
M  V30 741 H 73.6758 -2.28816 4.27631 0
M  V30 742 H 69.5548 -3.1299 3.38464 0
M  V30 743 H 73.0988 -2.05698 6.66584 0
M  V30 744 H 68.9958 -2.90215 5.76581 0
M  V30 745 H 69.7638 -2.48376 7.79905 0
M  V30 746 N 72.4269 -1.23603 -0.977757 0
M  V30 747 C 73.7039 -0.977897 -1.69401 0
M  V30 748 C 74.0839 0.502738 -2.05026 0
M  V30 749 O 73.4319 1.47459 -1.74551 0
M  V30 750 C 73.6419 -1.89077 -2.93345 0
M  V30 751 C 74.9899 -2.15579 -3.65802 0
M  V30 752 O 76.0139 -1.86648 -3.03383 0
M  V30 753 O 74.8729 -2.64658 -4.78141 0
M  V30 754 H 71.9669 -0.369025 -0.740101 0
M  V30 755 H 74.5129 -1.34657 -1.03274 0
M  V30 756 H 73.2849 -2.89158 -2.63634 0
M  V30 757 H 72.9079 -1.52463 -3.67207 0
M  V30 758 N 73.905 1.17692 -1.04816 0
M  V30 759 C 74.868 2.19787 -0.650117 0
M  V30 760 C 75.868 1.58044 0.296427 0
M  V30 761 O 77.058 1.74012 0.0808097 0
M  V30 762 C 74.19 3.40869 0.0456987 0
M  V30 763 H 75.383 2.56516 -1.5537 0
M  V30 764 H 72.936 1.31708 -0.841594 0
M  V30 765 H 73.671 3.09681 0.962726 0
M  V30 766 H 73.456 3.86928 -0.634727 0
M  V30 767 H 74.946 4.16445 0.310432 0
M  V30 768 N 75.3831 0.828654 1.34056 0
M  V30 769 C 76.6081 0.431637 2.02859 0
M  V30 770 C 77.0331 -0.956339 1.61975 0
M  V30 771 O 76.3911 -1.62338 0.807228 0
M  V30 772 C 76.4391 0.548323 3.56407 0
M  V30 773 O 75.5431 -0.429556 4.10157 0
M  V30 774 H 74.8841 0.176886 0.640006 0
M  V30 775 H 77.4141 1.12066 1.71179 0
M  V30 776 H 77.4241 0.426196 4.05768 0
M  V30 777 H 76.0991 1.5606 3.8551 0
M  V30 778 H 74.6761 -0.265836 3.71951 0
M  V30 779 N 76.8612 -1.46375 0.584142 0
M  V30 780 C 77.8092 -2.32042 -0.161047 0
M  V30 781 C 78.8032 -1.44569 -0.882966 0
M  V30 782 O 80.0092 -1.61186 -0.801191 0
M  V30 783 H 76.3842 -0.748659 -0.0708033 0
M  V30 784 H 78.3552 -2.92704 0.580269 0
M  V30 785 C 77.1042 -3.27762 -1.1605 0
M  V30 786 H 76.4272 -3.95051 -0.614419 0
M  V30 787 H 77.8672 -3.90481 -1.65228 0
M  V30 788 C 76.3262 -2.53218 -2.22221 0
M  V30 789 O 76.8562 -2.29628 -3.29597 0
M  V30 790 N 75.0622 -2.13756 -1.96868 0
M  V30 791 H 74.6092 -2.33142 -1.09557 0
M  V30 792 H 74.5672 -1.642 -2.68115 0
M  V30 793 N 78.3393 -0.321999 -1.54275 0
M  V30 794 C 79.2693 0.537411 -2.27231 0
M  V30 795 C 80.2503 1.12064 -1.27968 0
M  V30 796 O 81.4353 1.14606 -1.56777 0
M  V30 797 C 78.5653 1.69919 -3.02894 0
M  V30 798 C 77.5193 1.24534 -4.09482 0
M  V30 799 C 76.8453 2.49394 -4.72977 0
M  V30 800 C 78.1453 0.361335 -5.21049 0
M  V30 801 H 79.8393 -0.0711406 -2.99315 0
M  V30 802 H 77.3853 -0.0356555 -1.43956 0
M  V30 803 H 79.3383 2.30668 -3.52662 0
M  V30 804 H 78.0623 2.33431 -2.28424 0
M  V30 805 H 76.7213 0.660782 -3.60596 0
M  V30 806 H 76.3693 3.11265 -3.95124 0
M  V30 807 H 76.0693 2.19718 -5.44975 0
M  V30 808 H 77.5933 3.10908 -5.25517 0
M  V30 809 H 79.0073 0.875072 -5.66582 0
M  V30 810 H 77.4043 0.157428 -5.99893 0
M  V30 811 H 78.4743 -0.60822 -4.8107 0
M  V30 812 N 79.8174 1.5752 -0.0501392 0
M  V30 813 C 80.7274 2.14952 0.939827 0
M  V30 814 C 81.7434 1.10706 1.34239 0
M  V30 815 O 82.9194 1.42869 1.41952 0
M  V30 816 C 79.9844 2.68232 2.19665 0
M  V30 817 C 79.0454 3.87272 1.85253 0
M  V30 818 C 78.2784 4.38002 3.04943 0
M  V30 819 O 78.5014 3.87811 4.18281 0
M  V30 820 O 77.4354 5.29602 2.86017 0
M  V30 821 H 81.2614 2.9986 0.481392 0
M  V30 822 H 78.8464 1.4841 0.171699 0
M  V30 823 H 80.7284 3.02475 2.93406 0
M  V30 824 H 79.4034 1.86395 2.64648 0
M  V30 825 H 78.3104 3.5792 1.0883 0
M  V30 826 H 79.6434 4.70336 1.4507 0
M  V30 827 N 81.2955 -0.223234 1.56011 0
M  V30 828 C 82.5205 -0.968978 1.83373 0
M  V30 829 C 82.9455 -1.77227 0.630254 0
M  V30 830 O 82.3035 -1.76345 -0.420959 0
M  V30 831 C 82.3515 -1.86363 3.08709 0
M  V30 832 O 81.4555 -2.95873 2.87285 0
M  V30 833 H 80.7965 -0.274461 0.604622 0
M  V30 834 H 83.3265 -0.237056 2.03222 0
M  V30 835 H 83.3365 -2.27376 3.38768 0
M  V30 836 H 82.0115 -1.27319 3.95933 0
M  V30 837 H 80.5885 -2.58818 2.68454 0
M  V30 838 N 82.7736 -1.49793 -0.48987 0
M  V30 839 C 84.0216 -1.59525 -1.24081 0
M  V30 840 C 84.3426 -0.288953 -1.92847 0
M  V30 841 O 83.6126 0.692436 -1.83254 0
M  V30 842 H 82.1926 -0.587796 -0.460983 0
M  V30 843 H 84.8546 -1.86477 -0.566778 0
M  V30 844 H 83.9506 -2.39696 -1.99881 0
M  V30 845 N 84.2517 0.741722 -1.39055 0
M  V30 846 C 85.4977 1.50336 -1.36113 0
M  V30 847 C 85.8307 1.94148 0.0450796 0
M  V30 848 O 85.1057 1.66301 1.00868 0
M  V30 849 C 85.3887 2.74773 -2.32749 0
M  V30 850 C 85.2417 2.37023 -3.82283 0
M  V30 851 C 86.5607 3.76846 -2.27322 0
M  V30 852 H 83.6797 0.545351 -0.495743 0
M  V30 853 H 86.3217 0.848624 -1.69995 0
M  V30 854 H 84.4717 3.30639 -2.03986 0
M  V30 855 H 86.1437 1.8684 -4.21768 0
M  V30 856 H 84.3867 1.69334 -3.99385 0
M  V30 857 H 85.0577 3.26104 -4.45376 0
M  V30 858 H 87.5337 3.30548 -2.5274 0
M  V30 859 H 86.4097 4.6159 -2.97028 0
M  V30 860 H 86.6707 4.23286 -1.27599 0
M  V30 861 N 85.7298 1.2412 0.971189 0
M  V30 862 C 87.1408 1.07236 1.52831 0
M  V30 863 C 87.4918 -0.357352 1.92918 0
M  V30 864 O 86.6168 -1.24528 1.76979 0
M  V30 865 C 87.2118 1.94043 2.77728 0
M  V30 866 C 85.7708 1.81394 3.29808 0
M  V30 867 C 84.9178 1.89189 2.02738 0
M  V30 868 H 87.8688 1.37648 0.789864 0
M  V30 869 H 87.8898 1.47066 3.5093 0
M  V30 870 H 87.4018 2.98093 2.4852 0
M  V30 871 H 85.5028 0.801634 3.63874 0
M  V30 872 H 85.6158 2.65294 3.98944 0
M  V30 873 H 83.9798 1.32877 2.17292 0
M  V30 874 H 84.7628 2.94812 1.759 0
M  V30 875 N 87.2079 -1.17134 1.05439 0
M  V30 876 C 88.4329 -1.91913 0.786396 0
M  V30 877 C 88.8579 -1.7643 -0.652234 0
M  V30 878 O 88.2159 -1.08372 -1.45345 0
M  V30 879 C 88.2639 -3.40921 1.17497 0
M  V30 880 O 87.3679 -4.11244 0.308589 0
M  V30 881 H 86.7089 -0.598215 0.288158 0
M  V30 882 H 89.2389 -1.48457 1.4079 0
M  V30 883 H 89.2489 -3.91668 1.14281 0
M  V30 884 H 87.9239 -3.5151 2.22292 0
M  V30 885 H 86.5009 -3.70731 0.40157 0
M  V30 886 N 88.686 -0.835752 -1.33615 0
M  V30 887 C 90.102 -0.523139 -1.50783 0
M  V30 888 C 90.302 0.950171 -1.77691 0
M  V30 889 O 89.358 1.73411 -1.83534 0
M  V30 890 C 90.671 -1.39378 -2.66448 0
M  V30 891 C 92.219 -1.39223 -2.80332 0
M  V30 892 C 92.694 -2.24765 -3.99055 0
M  V30 893 N 94.185 -2.22458 -4.06284 0
M  V30 894 C 94.92 -2.85386 -4.97336 0
M  V30 895 N 94.416 -3.57354 -5.93523 0
M  V30 896 N 96.209 -2.74872 -4.90308 0
M  V30 897 H 88.36 -1.78952 -1.14411 0
M  V30 898 H 90.623 -0.763297 -0.562212 0
M  V30 899 H 90.329 -2.44061 -2.53234 0
M  V30 900 H 90.203 -1.0676 -3.61776 0
M  V30 901 H 92.59 -0.353136 -2.92979 0
M  V30 902 H 92.671 -1.75846 -1.85773 0
M  V30 903 H 92.315 -3.28732 -3.87167 0
M  V30 904 H 92.245 -1.85485 -4.92852 0
M  V30 905 H 94.736 -1.70119 -3.37443 0
M  V30 906 H 95.049 -4.02584 -6.59656 0
M  V30 907 H 93.394 -3.61461 -5.93608 0
M  V30 908 H 96.585 -2.18213 -4.14126 0
M  V30 909 H 96.758 -3.24199 -5.61069 0
M  V30 910 N 90.1641 1.46063 -0.591896 0
M  V30 911 C 91.4111 2.02338 -0.0809991 0
M  V30 912 C 91.7391 1.46228 1.28249 0
M  V30 913 O 90.9941 0.620818 1.85592 0
M  V30 914 C 91.2931 3.57391 0.0249813 0
M  V30 915 C 90.9591 4.32583 -1.27211 0
M  V30 916 C 89.6211 4.52844 -1.62745 0
M  V30 917 C 91.9731 4.75687 -2.13005 0
M  V30 918 C 89.3011 5.13462 -2.83855 0
M  V30 919 C 91.6531 5.37644 -3.3335 0
M  V30 920 C 90.3171 5.5613 -3.69155 0
M  V30 921 H 89.5871 0.740407 -0.0296397 0
M  V30 922 H 92.2341 1.75321 -0.770374 0
M  V30 923 H 90.5391 3.83597 0.797537 0
M  V30 924 H 92.2361 3.98621 0.436184 0
M  V30 925 H 88.8261 4.17116 -0.985499 0
M  V30 926 H 93.0101 4.59782 -1.86855 0
M  V30 927 H 88.2661 5.25965 -3.11722 0
M  V30 928 H 92.4401 5.7 -4.00092 0
M  V30 929 H 90.0671 6.0287 -4.63089 0
M  V30 930 N 91.6422 0.330177 1.54103 0
M  V30 931 C 92.8672 -0.274893 2.0557 0
M  V30 932 C 93.2922 -1.44487 1.20437 0
M  V30 933 O 92.6502 -1.80021 0.214991 0
M  V30 934 C 92.6982 -0.68079 3.54115 0
M  V30 935 O 91.8022 -1.7824 3.71893 0
M  V30 936 H 91.1432 -0.0483849 0.662235 0
M  V30 937 H 93.6732 0.480508 1.98878 0
M  V30 938 H 93.6832 -0.961635 3.96505 0
M  V30 939 H 92.3582 0.174903 4.15532 0
M  V30 940 H 90.9352 -1.49985 3.41407 0
M  V30 941 N 93.1203 -1.57491 0.0584922 0
M  V30 942 C 94.3683 -1.92597 -0.612436 0
M  V30 943 C 94.6893 -0.938162 -1.70949 0
M  V30 944 O 93.9593 0.0158301 -1.95894 0
M  V30 945 H 92.5393 -0.710964 -0.229214 0
M  V30 946 H 95.2013 -1.94571 0.113218 0
M  V30 947 H 94.2973 -2.94038 -1.04633 0
M  V30 948 N 94.5984 0.214957 -1.56127 0
M  V30 949 C 95.8234 0.95924 -1.83884 0
M  V30 950 C 96.2484 1.7689 -0.639644 0
M  V30 951 O 95.6064 1.76566 0.411601 0
M  V30 952 C 95.6544 1.84723 -3.09693 0
M  V30 953 O 94.7584 2.94346 -2.8885 0
M  V30 954 H 94.0994 0.27125 -0.606069 0
M  V30 955 H 96.6294 0.226276 -2.03345 0
M  V30 956 H 96.6394 2.25576 -3.39969 0
M  V30 957 H 95.3144 1.25218 -3.96602 0
M  V30 958 H 93.8914 2.57391 -2.69823 0
M  V30 959 N 96.0765 1.50051 0.48192 0
M  V30 960 C 97.3245 1.60181 1.23234 0
M  V30 961 C 97.6455 0.299176 1.92691 0
M  V30 962 O 96.9155 -0.682708 1.83619 0
M  V30 963 H 95.4955 0.590232 0.457859 0
M  V30 964 H 98.1575 1.86775 0.556881 0
M  V30 965 H 97.2535 2.40753 1.98607 0
M  V30 966 N 97.5546 -0.734337 1.39446 0
M  V30 967 C 98.7796 -1.52866 1.40167 0
M  V30 968 C 99.2046 -1.881 -0.00171513 0
M  V30 969 O 98.5626 -1.51957 -0.988879 0
M  V30 970 C 98.6106 -2.79235 2.28167 0
M  V30 971 O 97.7146 -3.75185 1.71201 0
M  V30 972 H 97.0556 -0.461618 0.477289 0
M  V30 973 H 99.5856 -0.905949 1.8345 0
M  V30 974 H 99.5956 -3.27963 2.42702 0
M  V30 975 H 98.2706 -2.52923 3.30156 0
M  V30 976 H 96.8476 -3.33958 1.65912 0
M  V30 977 N 99.0327 -1.24633 -0.964593 0
M  V30 978 C 100.281 -1.08573 -1.70459 0
M  V30 979 C 100.602 0.375655 -1.91347 0
M  V30 980 O 99.8717 1.26779 -1.49345 0
M  V30 981 H 98.4517 -0.398784 -0.631649 0
M  V30 982 H 101.114 -1.56601 -1.16026 0
M  V30 983 H 100.21 -1.58623 -2.68785 0
M  V30 984 N 100.511 1.16574 -1.06058 0
M  V30 985 C 101.739 1.90952 -0.796552 0
M  V30 986 C 102.154 1.77302 0.648808 0
M  V30 987 O 101.511 1.11605 1.44397 0
M  V30 988 C 101.562 3.41736 -1.17894 0
M  V30 989 O 101.283 3.54975 -2.56758 0
M  V30 990 C 102.784 4.33169 -0.942308 0
M  V30 991 H 100.004 0.605594 -0.288959 0
M  V30 992 H 102.548 1.47777 -1.41358 0
M  V30 993 H 100.703 3.82623 -0.606491 0
M  V30 994 H 101.117 4.4846 -2.72 0
M  V30 995 H 102.591 5.37439 -1.25952 0
M  V30 996 H 103.068 4.3903 0.122078 0
M  V30 997 H 103.674 3.98007 -1.49902 0
M  V30 998 N 101.989 0.842826 1.3317 0
M  V30 999 C 103.266 0.362216 1.92217 0
M  V30 1000 C 103.646 -1.15289 1.76838 0
M  V30 1001 O 102.994 -1.96914 1.15919 0
M  V30 1002 C 103.204 0.813495 3.39387 0
M  V30 1003 C 104.552 0.823804 4.16532 0
M  V30 1004 O 105.576 0.757358 3.48055 0
M  V30 1005 O 104.435 0.915193 5.38782 0
M  V30 1006 H 101.529 0.103317 0.820521 0
M  V30 1007 H 104.075 0.928942 1.42017 0
M  V30 1008 H 102.847 1.85624 3.4447 0
M  V30 1009 H 102.47 0.223561 3.96971 0
M  V30 1010 N 103.467 -1.45747 0.599634 0
M  V30 1011 C 104.714 -2.02292 0.0917284 0
M  V30 1012 C 105.042 -1.46906 -1.27472 0
M  V30 1013 O 104.297 -0.630652 -1.8526 0
M  V30 1014 C 104.596 -3.57399 -0.00602758 0
M  V30 1015 C 104.262 -4.31902 1.29503 0
M  V30 1016 C 102.924 -4.51974 1.65144 0
M  V30 1017 C 105.276 -4.74551 2.15525 0
M  V30 1018 C 102.604 -5.11949 2.86574 0
M  V30 1019 C 104.956 -5.35868 3.36196 0
M  V30 1020 C 103.62 -5.54165 3.72099 0
M  V30 1021 H 102.89 -0.740239 0.0335658 0
M  V30 1022 H 105.537 -1.7491 0.779661 0
M  V30 1023 H 103.842 -3.84014 -0.777183 0
M  V30 1024 H 105.539 -3.98846 -0.415038 0
M  V30 1025 H 102.129 -4.16588 1.00761 0
M  V30 1026 H 106.313 -4.58784 1.8929 0
M  V30 1027 H 101.569 -5.24305 3.14507 0
M  V30 1028 H 105.743 -5.6787 4.03109 0
M  V30 1029 H 103.37 -6.00406 4.6628 0
M  V30 1030 N 104.945 -0.338344 -1.53925 0
M  V30 1031 C 106.173 0.261298 -2.05243 0
M  V30 1032 C 106.588 1.44625 -1.21363 0
M  V30 1033 O 105.945 1.80811 -0.247736 0
M  V30 1034 C 105.996 0.681412 -3.5502 0
M  V30 1035 O 105.717 -0.456414 -4.35716 0
M  V30 1036 C 107.218 1.34232 -4.22489 0
M  V30 1037 H 104.438 0.0513685 -0.669031 0
M  V30 1038 H 106.982 -0.488822 -1.98572 0
M  V30 1039 H 105.137 1.38148 -3.61931 0
M  V30 1040 H 105.551 -0.122564 -5.24357 0
M  V30 1041 H 107.025 1.58708 -5.28693 0
M  V30 1042 H 107.502 2.29426 -3.74514 0
M  V30 1043 H 108.108 0.684424 -4.19757 0
M  V30 1044 N 106.423 1.57458 -0.0668435 0
M  V30 1045 C 107.353 2.15468 0.899764 0
M  V30 1046 C 108.334 1.08042 1.31381 0
M  V30 1047 O 109.519 1.36054 1.38574 0
M  V30 1048 C 106.649 2.71232 2.16911 0
M  V30 1049 C 105.603 3.83781 1.89463 0
M  V30 1050 C 104.929 4.26127 3.22986 0
M  V30 1051 C 106.229 5.08238 1.20381 0
M  V30 1052 H 107.923 2.96488 0.416529 0
M  V30 1053 H 105.469 1.4262 0.198908 0
M  V30 1054 H 107.422 3.10458 2.84945 0
M  V30 1055 H 106.146 1.87426 2.67468 0
M  V30 1056 H 104.805 3.45051 1.23836 0
M  V30 1057 H 104.453 3.39249 3.71374 0
M  V30 1058 H 104.153 5.01993 3.05413 0
M  V30 1059 H 105.677 4.67966 3.92225 0
M  V30 1060 H 107.091 5.44811 1.78475 0
M  V30 1061 H 105.488 5.89349 1.13083 0
M  V30 1062 H 106.558 4.84558 0.182153 0
M  V30 1063 N 107.901 -0.206675 1.56239 0
M  V30 1064 C 109.129 -0.945345 1.8404 0
M  V30 1065 C 109.544 -1.77336 0.647885 0
M  V30 1066 O 108.901 -1.78425 -0.383511 0
M  V30 1067 C 108.952 -1.8509 3.10522 0
M  V30 1068 O 108.673 -1.05634 4.25174 0
M  V30 1069 C 110.174 -2.70222 3.51418 0
M  V30 1070 H 107.394 -0.276372 0.61144 0
M  V30 1071 H 109.938 -0.217417 2.03341 0
M  V30 1072 H 108.093 -2.53259 2.93153 0
M  V30 1073 H 108.507 -1.67238 4.97124 0
M  V30 1074 H 109.981 -3.29438 4.42916 0
M  V30 1075 H 110.458 -3.43358 2.73864 0
M  V30 1076 H 111.064 -2.07443 3.71278 0
M  V30 1077 N 109.379 -1.50304 -0.473955 0
M  V30 1078 C 110.628 -1.60392 -1.22301 0
M  V30 1079 C 110.941 -0.308411 -1.93153 0
M  V30 1080 O 112.147 -0.288156 -2.69966 0
M  V30 1081 C 110.603 -2.83109 -2.2221 0
M  V30 1082 C 110.211 -4.19524 -1.57173 0
M  V30 1083 C 111.955 -3.0254 -2.97775 0
M  V30 1084 C 109.862 -5.33431 -2.55353 0
M  V30 1085 H 108.792 -0.597286 -0.460179 0
M  V30 1086 H 111.443 -1.76731 -0.493803 0
M  V30 1087 H 109.825 -2.60322 -2.9841 0
M  V30 1088 H 110.999 -4.52554 -0.867824 0
M  V30 1089 H 109.314 -4.05674 -0.939002 0
M  V30 1090 H 111.911 -3.84811 -3.71248 0
M  V30 1091 H 112.254 -2.14154 -3.56992 0
M  V30 1092 H 112.787 -3.25494 -2.28688 0
M  V30 1093 H 109.526 -6.23962 -2.00878 0
M  V30 1094 H 109.046 -5.04823 -3.23904 0
M  V30 1095 H 110.725 -5.63887 -3.17239 0
M  V30 1096 N 110.857 0.726932 -1.39834 0
M  V30 1097 C 112.082 1.52121 -1.40976 0
M  V30 1098 C 112.507 1.88098 -0.00826029 0
M  V30 1099 O 111.865 1.52479 0.980807 0
M  V30 1100 C 111.913 2.78021 -2.29644 0
M  V30 1101 O 111.017 3.74272 -1.73188 0
M  V30 1102 H 110.358 0.45908 -0.479731 0
M  V30 1103 H 112.888 0.896207 -1.83927 0
M  V30 1104 H 112.898 3.26671 -2.44438 0
M  V30 1105 H 111.573 2.51169 -3.31492 0
M  V30 1106 H 110.15 3.33073 -1.6768 0
M  V30 1107 N 112.336 1.25143 0.95797 0
M  V30 1108 C 113.561 1.12521 1.74223 0
M  V30 1109 C 113.986 -0.317402 1.85403 0
M  V30 1110 O 113.344 -1.2299 1.33204 0
M  V30 1111 C 113.392 1.78062 3.1357 0
M  V30 1112 O 112.496 1.058 3.98598 0
M  V30 1113 H 111.837 0.39304 0.535178 0
M  V30 1114 H 114.367 1.65641 1.201 0
M  V30 1115 H 114.377 1.84213 3.64046 0
M  V30 1116 H 113.052 2.83021 3.04749 0
M  V30 1117 H 111.629 1.07506 3.57067 0
M  V30 1118 N 113.814 -1.1601 1.06675 0
M  V30 1119 C 114.744 -2.22688 0.702307 0
M  V30 1120 C 115.725 -1.67306 -0.307032 0
M  V30 1121 O 116.91 -1.93352 -0.181305 0
M  V30 1122 C 114.04 -3.47178 0.092038 0
M  V30 1123 C 112.994 -4.15477 1.02777 0
M  V30 1124 C 112.32 -5.33963 0.28061 0
M  V30 1125 C 113.62 -4.66019 2.35846 0
M  V30 1126 H 115.314 -2.53429 1.59419 0
M  V30 1127 H 112.86 -1.21813 0.767961 0
M  V30 1128 H 114.813 -4.21037 -0.174814 0
M  V30 1129 H 113.537 -3.15749 -0.834877 0
M  V30 1130 H 112.196 -3.43549 1.27944 0
M  V30 1131 H 111.844 -4.98788 -0.649545 0
M  V30 1132 H 111.544 -5.806 0.904258 0
M  V30 1133 H 113.068 -6.10596 0.021396 0
M  V30 1134 H 114.482 -5.3144 2.15045 0
M  V30 1135 H 112.879 -5.23293 2.93743 0
M  V30 1136 H 113.949 -3.82023 2.98641 0
M  V30 1137 N 115.292 -0.849877 -1.32721 0
M  V30 1138 C 116.224 -0.248332 -2.27851 0
M  V30 1139 C 117.237 0.577218 -1.52224 0
M  V30 1140 O 118.426 0.402489 -1.73903 0
M  V30 1141 C 115.526 0.668107 -3.32249 0
M  V30 1142 C 114.699 -0.120534 -4.37234 0
M  V30 1143 C 113.758 0.720932 -5.21238 0
M  V30 1144 O 112.784 0.156166 -5.68986 0
M  V30 1145 N 113.986 2.03647 -5.43607 0
M  V30 1146 H 116.751 -1.06575 -2.80111 0
M  V30 1147 H 114.312 -0.709395 -1.45531 0
M  V30 1148 H 116.304 1.23627 -3.85355 0
M  V30 1149 H 114.874 1.38621 -2.80184 0
M  V30 1150 H 114.094 -0.870108 -3.84477 0
M  V30 1151 H 115.382 -0.662406 -5.0447 0
M  V30 1152 H 114.78 2.51871 -5.06535 0
M  V30 1153 H 113.337 2.55287 -5.99727 0
M  V30 1154 N 116.77 1.45427 -0.607355 0
M  V30 1155 C 118.181 1.85756 -0.187535 0
M  V30 1156 C 118.532 1.5077 1.25551 0
M  V30 1157 O 117.657 0.93427 1.95193 0
M  V30 1158 C 118.252 3.37154 -0.333572 0
M  V30 1159 C 116.811 3.76387 0.0315542 0
M  V30 1160 C 115.958 2.69377 -0.658117 0
M  V30 1161 H 118.909 1.36231 -0.81405 0
M  V30 1162 H 118.93 3.78014 0.43428 0
M  V30 1163 H 118.442 3.62586 -1.38393 0
M  V30 1164 H 116.543 3.56571 1.0811 0
M  V30 1165 H 116.656 4.77731 -0.361935 0
M  V30 1166 H 115.02 2.5452 -0.0957873 0
M  V30 1167 H 115.803 2.97646 -1.7106 0
M  V30 1168 N 118.248 0.346503 1.53744 0
M  V30 1169 C 119.158 -0.517293 2.28826 0
M  V30 1170 C 120.174 -1.10935 1.3405 0
M  V30 1171 O 121.35 -1.1244 1.6709 0
M  V30 1172 C 118.415 -1.65098 3.04866 0
M  V30 1173 C 117.476 -1.0884 4.15274 0
M  V30 1174 C 116.709 -2.16806 4.87679 0
M  V30 1175 O 116.932 -3.3758 4.59778 0
M  V30 1176 O 115.866 -1.80934 5.74061 0
M  V30 1177 H 119.692 0.0931396 3.03557 0
M  V30 1178 H 117.277 0.111458 1.48984 0
M  V30 1179 H 119.159 -2.31053 3.5241 0
M  V30 1180 H 117.834 -2.24717 2.32989 0
M  V30 1181 H 116.741 -0.3933 3.72027 0
M  V30 1182 H 118.074 -0.537036 4.89261 0
M  V30 1183 N 119.726 -1.57421 0.075193 0
M  V30 1184 C 121.003 -1.85029 -0.634329 0
M  V30 1185 C 121.383 -0.968305 -1.87582 0
M  V30 1186 O 120.731 -0.0354749 -2.28472 0
M  V30 1187 C 120.941 -3.35286 -0.968742 0
M  V30 1188 C 122.289 -4.02875 -1.34077 0
M  V30 1189 O 123.313 -3.40051 -1.06037 0
M  V30 1190 O 122.172 -5.13691 -1.86506 0
M  V30 1191 H 119.266 -0.7645 -0.315387 0
M  V30 1192 H 121.812 -1.69366 0.106382 0
M  V30 1193 H 120.584 -3.91203 -0.0871376 0
M  V30 1194 H 120.207 -3.56223 -1.7661 0
M  V30 1195 N 121.204 0.198386 -1.56346 0
M  V30 1196 C 122.451 0.919286 -1.80431 0
M  V30 1197 C 122.779 1.83393 -0.647866 0
M  V30 1198 O 122.034 1.92236 0.366556 0
M  V30 1199 C 122.333 1.77031 -3.10475 0
M  V30 1200 C 121.999 1.00693 -4.39513 0
M  V30 1201 C 120.661 0.796145 -4.74568 0
M  V30 1202 C 123.013 0.469559 -5.19081 0
M  V30 1203 C 120.341 0.0364588 -5.86689 0
M  V30 1204 C 122.693 -0.2769 -6.31994 0
M  V30 1205 C 121.357 -0.49873 -6.65634 0
M  V30 1206 H 120.627 0.336391 -0.660244 0
M  V30 1207 H 123.274 0.185872 -1.90596 0
M  V30 1208 H 121.579 2.5723 -2.95533 0
M  V30 1209 H 123.276 2.33065 -3.26315 0
M  V30 1210 H 119.866 1.18122 -4.12001 0
M  V30 1211 H 124.05 0.619816 -4.92414 0
M  V30 1212 H 119.306 -0.145412 -6.11227 0
M  V30 1213 H 123.48 -0.700684 -6.92866 0
M  V30 1214 H 121.107 -1.0893 -7.52355 0
M  V30 1215 N 122.682 1.50554 0.465978 0
M  V30 1216 C 123.645 1.69233 1.54574 0
M  V30 1217 C 124.645 0.562901 1.50626 0
M  V30 1218 O 125.835 0.830016 1.53155 0
M  V30 1219 C 122.967 1.7223 2.94193 0
M  V30 1220 H 124.16 2.65571 1.39327 0
M  V30 1221 H 121.713 1.40111 0.692711 0
M  V30 1222 H 122.448 0.77603 3.14878 0
M  V30 1223 H 122.233 2.54285 2.98466 0
M  V30 1224 H 123.723 1.88618 3.72576 0
M  V30 1225 N 124.16 -0.719506 1.40217 0
M  V30 1226 C 125.409 -1.47486 1.37589 0
M  V30 1227 C 125.722 -1.9559 -0.0201568 0
M  V30 1228 O 126.928 -2.70973 -0.169049 0
M  V30 1229 C 125.384 -2.66575 2.41796 0
M  V30 1230 C 124.992 -2.25358 3.87192 0
M  V30 1231 C 126.736 -3.4433 2.48269 0
M  V30 1232 C 124.643 -3.41262 4.83005 0
M  V30 1233 H 123.573 -0.553901 0.511576 0
M  V30 1234 H 126.224 -0.783427 1.65936 0
M  V30 1235 H 124.606 -3.3787 2.06543 0
M  V30 1236 H 125.78 -1.61509 4.31569 0
M  V30 1237 H 124.095 -1.60657 3.84159 0
M  V30 1238 H 126.692 -4.30569 3.17041 0
M  V30 1239 H 127.035 -3.87872 1.51198 0
M  V30 1240 H 127.568 -2.80076 2.82493 0
M  V30 1241 H 124.307 -3.02755 5.81394 0
M  V30 1242 H 123.827 -4.0404 4.43297 0
M  V30 1243 H 125.506 -4.07383 5.02641 0
M  V30 1244 N 125.638 -1.25649 -0.95132 0
M  V30 1245 C 126.868 -1.13179 -1.72841 0
M  V30 1246 C 127.276 0.316827 -1.86528 0
M  V30 1247 O 126.619 1.22948 -1.3649 0
M  V30 1248 C 126.681 -1.71644 -3.15878 0
M  V30 1249 C 126.345 -3.20667 -3.25609 0
M  V30 1250 C 127.342 -4.17616 -3.09666 0
M  V30 1251 C 125.027 -3.6094 -3.49324 0
M  V30 1252 C 127.021 -5.52817 -3.17289 0
M  V30 1253 C 124.708 -4.96278 -3.56584 0
M  V30 1254 C 125.706 -5.92025 -3.40581 0
M  V30 1255 O 125.394 -7.24899 -3.47528 0
M  V30 1256 H 125.126 -0.395389 -0.54831 0
M  V30 1257 H 127.68 -1.66566 -1.20187 0
M  V30 1258 H 125.91 -1.12707 -3.69911 0
M  V30 1259 H 127.599 -1.54225 -3.75459 0
M  V30 1260 H 128.365 -3.87842 -2.91211 0
M  V30 1261 H 124.244 -2.86907 -3.6084 0
M  V30 1262 H 127.788 -6.2753 -3.04716 0
M  V30 1263 H 123.685 -5.25716 -3.74556 0
M  V30 1264 H 124.453 -7.33039 -3.64138 0
M  V30 1265 N 127.117 1.15442 -1.07289 0
M  V30 1266 C 128.347 1.89821 -0.815576 0
M  V30 1267 C 128.755 1.7823 0.634867 0
M  V30 1268 O 128.098 1.13152 1.44715 0
M  V30 1269 C 128.16 3.40817 -1.14385 0
M  V30 1270 C 127.824 3.76193 -2.59476 0
M  V30 1271 C 128.821 3.77269 -3.57721 0
M  V30 1272 C 126.506 4.0652 -2.95037 0
M  V30 1273 C 128.5 4.08176 -4.89562 0
M  V30 1274 C 126.187 4.37092 -4.27076 0
M  V30 1275 C 127.185 4.37902 -5.24148 0
M  V30 1276 O 126.873 4.67741 -6.53815 0
M  V30 1277 H 126.605 0.608465 -0.294528 0
M  V30 1278 H 129.159 1.472 -1.43252 0
M  V30 1279 H 127.389 3.83835 -0.469865 0
M  V30 1280 H 129.078 3.96485 -0.869179 0
M  V30 1281 H 129.844 3.5394 -3.3159 0
M  V30 1282 H 125.723 4.05049 -2.20128 0
M  V30 1283 H 129.267 4.08723 -5.65324 0
M  V30 1284 H 125.164 4.59889 -4.5296 0
M  V30 1285 H 125.932 4.85509 -6.58957 0
M  V30 1286 N 128.595 0.856903 1.32268 0
M  V30 1287 C 129.835 0.467705 1.98977 0
M  V30 1288 C 130.199 -0.959231 1.66321 0
M  V30 1289 O 131.4 -1.4531 2.26138 0
M  V30 1290 C 129.671 0.70256 3.50427 0
M  V30 1291 S 131.23 0.411269 4.36868 0
M  V30 1292 H 128.048 0.175121 0.689096 0
M  V30 1293 H 130.65 1.1101 1.60925 0
M  V30 1294 H 129.354 1.74012 3.71683 0
M  V30 1295 H 128.885 0.0466707 3.93372 0
M  V30 1296 H 130.9 -0.761799 4.90317 0
M  V30 1297 N 130.073 -1.45103 0.615059 0
M  V30 1298 C 131.005 -2.28786 -0.13762 0
M  V30 1299 C 132.018 -1.40376 -0.824525 0
M  V30 1300 O 133.207 -1.64681 -0.688662 0
M  V30 1301 C 130.307 -3.16322 -1.21628 0
M  V30 1302 C 129.48 -4.33054 -0.615039 0
M  V30 1303 C 128.539 -5.01743 -1.58556 0
M  V30 1304 O 127.565 -5.58293 -1.10895 0
M  V30 1305 N 128.767 -5.01714 -2.91998 0
M  V30 1306 H 131.532 -2.94025 0.580483 0
M  V30 1307 H 129.093 -1.55373 0.45507 0
M  V30 1308 H 131.085 -3.59139 -1.86552 0
M  V30 1309 H 129.655 -2.52943 -1.83681 0
M  V30 1310 H 128.875 -3.93627 0.21245 0
M  V30 1311 H 130.163 -5.08431 -0.193704 0
M  V30 1312 H 129.561 -4.57075 -3.33316 0
M  V30 1313 H 128.118 -5.48371 -3.52325 0
M  V30 1314 N 131.551 -0.354651 -1.53558 0
M  V30 1315 C 132.483 0.5315 -2.22952 0
M  V30 1316 C 133.496 1.05503 -1.23988 0
M  V30 1317 O 134.685 0.963279 -1.50277 0
M  V30 1318 C 131.785 1.74538 -2.90499 0
M  V30 1319 C 130.958 1.35524 -4.15875 0
M  V30 1320 C 130.017 2.42999 -4.66731 0
M  V30 1321 O 129.043 2.05844 -5.30676 0
M  V30 1322 N 130.245 3.74423 -4.43608 0
M  V30 1323 H 133.01 -0.0628615 -2.99634 0
M  V30 1324 H 130.571 -0.179302 -1.60904 0
M  V30 1325 H 132.563 2.45892 -3.21433 0
M  V30 1326 H 131.133 2.24686 -2.17336 0
M  V30 1327 H 130.353 0.471998 -3.91364 0
M  V30 1328 H 131.641 1.07071 -4.97406 0
M  V30 1329 H 131.039 4.07391 -3.92491 0
M  V30 1330 H 129.596 4.41913 -4.7912 0
M  V30 1331 N 133.029 1.57378 -0.0835403 0
M  V30 1332 C 134.276 1.9393 0.58287 0
M  V30 1333 C 134.604 0.964455 1.68904 0
M  V30 1334 O 133.859 -0.0179474 1.95692 0
M  V30 1335 C 134.158 3.37063 1.1884 0
M  V30 1336 C 133.824 4.50424 0.207194 0
M  V30 1337 C 132.486 4.81159 -0.0627115 0
M  V30 1338 C 134.838 5.19136 -0.463426 0
M  V30 1339 C 132.166 5.77939 -1.01012 0
M  V30 1340 C 134.518 6.16931 -1.39924 0
M  V30 1341 C 133.182 6.46078 -1.67749 0
M  V30 1342 H 132.452 0.70964 0.213287 0
M  V30 1343 H 135.099 1.90856 -0.156916 0
M  V30 1344 H 133.404 3.3666 2.00418 0
M  V30 1345 H 135.101 3.6264 1.71153 0
M  V30 1346 H 131.691 4.2646 0.427747 0
M  V30 1347 H 135.875 4.95576 -0.268034 0
M  V30 1348 H 131.131 5.98842 -1.23283 0
M  V30 1349 H 135.305 6.69273 -1.92476 0
M  V30 1350 H 132.932 7.2088 -2.41321 0
M  V30 1351 N 134.507 -0.190092 1.56449 0
M  V30 1352 C 135.455 -1.25501 1.95837 0
M  V30 1353 C 136.449 -1.4685 0.844485 0
M  V30 1354 O 137.655 -1.47651 1.02952 0
M  V30 1355 H 134.03 -0.421447 0.622805 0
M  V30 1356 H 136.001 -0.895821 2.84636 0
M  V30 1357 C 134.75 -2.59124 2.31841 0
M  V30 1358 H 134.073 -2.43514 3.17082 0
M  V30 1359 H 135.513 -3.32371 2.6326 0
M  V30 1360 C 133.972 -3.16488 1.15486 0
M  V30 1361 O 134.502 -3.99365 0.432535 0
M  V30 1362 N 132.708 -2.75305 0.930349 0
M  V30 1363 H 132.255 -2.08013 1.51948 0
M  V30 1364 H 132.213 -3.14024 0.153634 0
M  V30 1365 N 135.985 -1.50799 -0.457987 0
M  V30 1366 C 137.21 -1.66496 -1.23668 0
M  V30 1367 C 137.635 -0.353288 -1.84752 0
M  V30 1368 O 136.993 0.684346 -1.67888 0
M  V30 1369 C 137.041 -2.76763 -2.3116 0
M  V30 1370 O 136.145 -2.38928 -3.36136 0
M  V30 1371 H 135.486 -0.555828 -0.363252 0
M  V30 1372 H 138.016 -1.9725 -0.543474 0
M  V30 1373 H 138.026 -3.00232 -2.76269 0
M  V30 1374 H 136.701 -3.71954 -1.86073 0
M  V30 1375 H 135.278 -2.25953 -2.96647 0
M  V30 1376 N 137.463 0.71206 -1.40597 0
M  V30 1377 C 138.693 1.49894 -1.42181 0
M  V30 1378 C 139.101 1.89189 -0.0208078 0
M  V30 1379 O 138.444 1.56223 0.966436 0
M  V30 1380 C 138.506 2.80215 -2.25211 0
M  V30 1381 C 138.17 2.63221 -3.73582 0
M  V30 1382 C 139.167 2.30249 -4.66135 0
M  V30 1383 C 136.852 2.79376 -4.17438 0
M  V30 1384 C 138.846 2.13645 -6.00529 0
M  V30 1385 C 136.533 2.6239 -5.51901 0
M  V30 1386 C 137.531 2.29573 -6.43262 0
M  V30 1387 O 137.219 2.12719 -7.75246 0
M  V30 1388 H 136.951 0.469031 -0.486812 0
M  V30 1389 H 139.505 0.88564 -1.85326 0
M  V30 1390 H 137.735 3.4389 -1.76852 0
M  V30 1391 H 139.424 3.41947 -2.18694 0
M  V30 1392 H 140.19 2.17398 -4.33547 0
M  V30 1393 H 136.069 3.03906 -3.46644 0
M  V30 1394 H 139.613 1.87953 -6.71803 0
M  V30 1395 H 135.51 2.74826 -5.84073 0
M  V30 1396 H 136.278 2.27611 -7.86216 0
M  V30 1397 N 138.941 1.26152 0.944643 0
M  V30 1398 C 140.352 1.10454 1.50522 0
M  V30 1399 C 140.703 -0.31635 1.93633 0
M  V30 1400 O 139.828 -1.20746 1.79581 0
M  V30 1401 C 140.423 1.99891 2.73549 0
M  V30 1402 C 138.982 1.88348 3.25886 0
M  V30 1403 C 138.129 1.93447 1.9868 0
M  V30 1404 H 141.08 1.39292 0.760489 0
M  V30 1405 H 141.101 1.54477 3.47732 0
M  V30 1406 H 140.613 3.03297 2.42141 0
M  V30 1407 H 138.714 0.878636 3.62092 0
M  V30 1408 H 138.827 2.73696 3.93227 0
M  V30 1409 H 137.191 1.37456 2.14425 0
M  V30 1410 H 137.974 2.98476 1.69607 0
M  V30 1411 N 140.419 -1.14872 1.07899 0
M  V30 1412 C 141.349 -2.2193 0.725887 0
M  V30 1413 C 142.33 -1.67622 -0.28927 0
M  V30 1414 O 143.515 -1.93533 -0.160787 0
M  V30 1415 C 140.645 -3.47061 0.128856 0
M  V30 1416 C 139.599 -4.14363 1.07178 0
M  V30 1417 C 138.925 -5.33636 0.337229 0
M  V30 1418 C 140.225 -4.63492 2.40775 0
M  V30 1419 H 141.919 -2.51724 1.62097 0
M  V30 1420 H 139.465 -1.20991 0.780838 0
M  V30 1421 H 141.418 -4.21199 -0.130147 0
M  V30 1422 H 140.142 -3.16617 -0.80134 0
M  V30 1423 H 138.801 -3.42173 1.3158 0
M  V30 1424 H 138.449 -4.99449 -0.596606 0
M  V30 1425 H 138.149 -5.79609 0.965788 0
M  V30 1426 H 139.673 -6.10539 0.0861567 0
M  V30 1427 H 141.087 -5.2913 2.20669 0
M  V30 1428 H 139.484 -5.20148 2.99276 0
M  V30 1429 H 140.554 -3.78834 3.02676 0
M  V30 1430 N 141.898 -0.863906 -1.31812 0
M  V30 1431 C 143.126 -0.486111 -2.01108 0
M  V30 1432 C 143.541 0.919755 -1.64882 0
M  V30 1433 O 142.898 1.60162 -0.874893 0
M  V30 1434 C 142.949 -0.626435 -3.56031 0
M  V30 1435 O 142.67 -1.97693 -3.90959 0
M  V30 1436 C 144.171 -0.248857 -4.42601 0
M  V30 1437 H 141.391 -0.190052 -0.643523 0
M  V30 1438 H 143.935 -1.1634 -1.68182 0
M  V30 1439 H 142.09 0.00322717 -3.874 0
M  V30 1440 H 142.504 -1.98034 -4.85678 0
M  V30 1441 H 143.978 -0.398016 -5.50563 0
M  V30 1442 H 144.455 0.811489 -4.31638 0
M  V30 1443 H 145.061 -0.853971 -4.16638 0
M  V30 1444 N 143.376 1.44774 -0.622745 0
M  V30 1445 C 144.623 2.02121 -0.1239 0
M  V30 1446 C 144.951 1.48915 1.25118 0
M  V30 1447 O 144.206 0.660045 1.84233 0
M  V30 1448 C 144.505 3.57364 -0.0508323 0
M  V30 1449 C 144.171 4.29787 -1.36358 0
M  V30 1450 C 142.833 4.4929 -1.72314 0
M  V30 1451 C 145.185 4.71062 -2.23048 0
M  V30 1452 C 142.513 5.07325 -2.94682 0
M  V30 1453 C 144.865 5.30452 -3.44679 0
M  V30 1454 C 143.529 5.48175 -3.80868 0
M  V30 1455 H 142.799 0.739612 -0.0453381 0
M  V30 1456 H 145.446 1.73648 -0.807389 0
M  V30 1457 H 143.751 3.85202 0.715991 0
M  V30 1458 H 145.448 3.99456 0.351533 0
M  V30 1459 H 142.038 4.14932 -1.07375 0
M  V30 1460 H 146.222 4.55715 -1.96565 0
M  V30 1461 H 141.478 5.19235 -3.22809 0
M  V30 1462 H 145.652 5.61385 -4.12092 0
M  V30 1463 H 143.279 5.92912 -4.75773 0
M  V30 1464 N 144.854 0.36279 1.53368 0
M  V30 1465 C 146.102 -0.227326 2.00817 0
M  V30 1466 C 146.423 -1.49511 1.25186 0
M  V30 1467 O 145.693 -1.92482 0.364348 0
M  V30 1468 H 144.273 -0.0869923 0.741917 0
M  V30 1469 H 146.935 0.488381 1.88682 0
M  V30 1470 H 146.031 -0.456273 3.08747 0
M  V30 1471 N 146.332 -1.57332 0.0918853 0
M  V30 1472 C 147.58 -1.93853 -0.571446 0
M  V30 1473 C 147.901 -0.974212 -1.6892 0
M  V30 1474 O 147.171 -0.0257254 -1.95883 0
M  V30 1475 H 145.751 -0.715666 -0.214082 0
M  V30 1476 H 148.413 -1.94287 0.154464 0
M  V30 1477 H 147.509 -2.96191 -0.983729 0
M  V30 1478 N 147.81 0.181792 -1.56548 0
M  V30 1479 C 149.058 0.89832 -1.81038 0
M  V30 1480 C 149.379 1.83232 -0.667164 0
M  V30 1481 O 148.649 1.93372 0.313673 0
M  V30 1482 H 147.229 0.33471 -0.667816 0
M  V30 1483 H 149.891 0.184116 -1.94028 0
M  V30 1484 H 148.987 1.4815 -2.74696 0
M  V30 1485 N 149.288 1.51039 0.449983 0
M  V30 1486 C 150.516 1.66869 1.2232 0
M  V30 1487 C 150.931 0.360727 1.85322 0
M  V30 1488 O 150.288 -0.659531 1.70166 0
M  V30 1489 C 150.339 2.77524 2.31652 0
M  V30 1490 O 150.06 4.03252 1.7123 0
M  V30 1491 C 151.561 3.04512 3.2216 0
M  V30 1492 H 148.781 0.560326 0.369155 0
M  V30 1493 H 151.325 1.97385 0.534719 0
M  V30 1494 H 149.48 2.49642 2.96239 0
M  V30 1495 H 149.894 4.64609 2.43389 0
M  V30 1496 H 151.368 3.85551 3.95038 0
M  V30 1497 H 151.845 2.16415 3.8218 0
M  V30 1498 H 152.451 3.34005 2.63288 0
M  V30 1499 N 150.766 -0.704594 1.40972 0
M  V30 1500 C 151.713 -1.81862 1.42109 0
M  V30 1501 C 152.683 -1.63781 0.276593 0
M  V30 1502 O 153.868 -1.84759 0.4763 0
M  V30 1503 C 151.008 -3.19669 1.30022 0
M  V30 1504 C 150.121 -3.49246 2.54267 0
M  V30 1505 C 149.256 -4.76618 2.3454 0
M  V30 1506 C 148.295 -4.99133 3.54306 0
M  V30 1507 N 147.432 -6.17726 3.33706 0
M  V30 1508 H 152.272 -1.80226 2.37324 0
M  V30 1509 H 149.809 -0.880238 1.17857 0
M  V30 1510 H 151.767 -3.99263 1.21018 0
M  V30 1511 H 150.397 -3.20506 0.384192 0
M  V30 1512 H 149.449 -2.64125 2.73756 0
M  V30 1513 H 150.761 -3.61788 3.43381 0
M  V30 1514 H 149.915 -5.64249 2.22952 0
M  V30 1515 H 148.654 -4.66305 1.42867 0
M  V30 1516 H 147.659 -4.09953 3.66359 0
M  V30 1517 H 148.884 -5.11311 4.4692 0
M  V30 1518 H 146.83 -6.08642 2.44725 0
M  V30 1519 H 146.747 -6.30995 4.16391 0
M  V30 1520 H 148.015 -7.08115 3.25873 0
M  V30 1521 N 152.244 -1.26651 -0.937939 0
M  V30 1522 C 153.49 -1.12553 -1.687 0
M  V30 1523 C 153.823 0.329782 -1.91379 0
M  V30 1524 O 153.098 1.24202 -1.4968 0
M  V30 1525 C 153.381 -1.89862 -3.05981 0
M  V30 1526 C 153.234 -3.43318 -2.90607 0
M  V30 1527 C 154.553 -1.69499 -4.0615 0
M  V30 1528 H 151.672 -0.410257 -0.612257 0
M  V30 1529 H 154.314 -1.55685 -1.08913 0
M  V30 1530 H 152.464 -1.53204 -3.57017 0
M  V30 1531 H 154.136 -3.89747 -2.46769 0
M  V30 1532 H 152.379 -3.70179 -2.26164 0
M  V30 1533 H 153.05 -3.92642 -3.8799 0
M  V30 1534 H 155.526 -2.01442 -3.64088 0
M  V30 1535 H 154.402 -2.26002 -5.00214 0
M  V30 1536 H 154.663 -0.640365 -4.37438 0
M  V30 1537 N 153.722 1.14298 -1.08507 0
M  V30 1538 C 154.632 2.23027 -0.727753 0
M  V30 1539 C 155.648 1.71952 0.26619 0
M  V30 1540 O 156.824 2.011 0.109882 0
M  V30 1541 C 153.889 3.46403 -0.143541 0
M  V30 1542 C 152.95 4.12413 -1.19223 0
M  V30 1543 C 152.183 5.29899 -0.635798 0
M  V30 1544 O 152.406 5.67796 0.544393 0
M  V30 1545 O 151.34 5.85717 -1.38634 0
M  V30 1546 H 155.166 2.55945 -1.63481 0
M  V30 1547 H 152.751 1.22248 -0.858817 0
M  V30 1548 H 154.633 4.21018 0.179404 0
M  V30 1549 H 153.308 3.15206 0.736659 0
M  V30 1550 H 152.215 3.39667 -1.56772 0
M  V30 1551 H 153.548 4.47718 -2.04474 0
M  V30 1552 N 155.201 0.870884 1.31352 0
M  V30 1553 C 156.45 0.478408 1.95944 0
M  V30 1554 C 156.763 -0.974493 1.69597 0
M  V30 1555 O 157.969 -1.47316 2.28058 0
M  V30 1556 C 156.425 0.804609 3.50791 0
M  V30 1557 C 156.033 2.27433 3.85977 0
M  V30 1558 C 157.777 0.480648 4.2177 0
M  V30 1559 C 155.684 2.5429 5.33939 0
M  V30 1560 H 154.614 0.175175 0.733369 0
M  V30 1561 H 157.265 1.06391 1.4951 0
M  V30 1562 H 155.647 0.148347 3.95722 0
M  V30 1563 H 156.821 2.97373 3.52002 0
M  V30 1564 H 155.136 2.56442 3.28065 0
M  V30 1565 H 157.733 0.658519 5.30629 0
M  V30 1566 H 158.076 -0.578979 4.12254 0
M  V30 1567 H 158.609 1.09349 3.82476 0
M  V30 1568 H 155.348 3.58939 5.48491 0
M  V30 1569 H 154.868 1.88945 5.69263 0
M  V30 1570 H 156.547 2.39066 6.01212 0
M  V30 1571 N 156.679 -1.44442 0.630414 0
M  V30 1572 C 157.626 -2.30678 -0.0749355 0
M  V30 1573 C 158.596 -1.4344 -0.837502 0
M  V30 1574 O 159.781 -1.72343 -0.818684 0
M  V30 1575 C 156.921 -3.28706 -1.05103 0
M  V30 1576 C 156.034 -4.31046 -0.286954 0
M  V30 1577 C 155.169 -5.16167 -1.2548 0
M  V30 1578 C 154.208 -6.10216 -0.479843 0
M  V30 1579 N 153.345 -6.88039 -1.39811 0
M  V30 1580 H 158.185 -2.90454 0.666386 0
M  V30 1581 H 155.722 -1.43107 0.340404 0
M  V30 1582 H 157.68 -3.84027 -1.63031 0
M  V30 1583 H 156.31 -2.70632 -1.75949 0
M  V30 1584 H 155.362 -3.78203 0.408243 0
M  V30 1585 H 156.674 -4.97794 0.316657 0
M  V30 1586 H 155.828 -5.76002 -1.90544 0
M  V30 1587 H 154.567 -4.49491 -1.89233 0
M  V30 1588 H 153.572 -5.49491 0.184295 0
M  V30 1589 H 154.797 -6.78928 0.152965 0
M  V30 1590 H 152.743 -6.24032 -2.02287 0
M  V30 1591 H 152.66 -7.51223 -0.848508 0
M  V30 1592 H 153.928 -7.52397 -2.03762 0
M  V30 1593 N 158.157 -0.370918 -1.53173 0
M  V30 1594 C 159.573 -0.0200818 -1.59587 0
M  V30 1595 C 159.773 1.46279 -1.38581 0
M  V30 1596 O 158.829 2.22506 -1.19363 0
M  V30 1597 C 160.142 -0.4808 -2.96831 0
M  V30 1598 C 161.69 -0.435477 -3.09956 0
M  V30 1599 C 162.165 -0.872092 -4.4962 0
M  V30 1600 N 163.656 -0.827364 -4.55751 0
M  V30 1601 C 164.391 -1.13683 -5.62018 0
M  V30 1602 N 163.887 -1.51584 -6.76014 0
M  V30 1603 N 165.68 -1.05927 -5.52029 0
M  V30 1604 H 157.831 -1.33652 -1.65079 0
M  V30 1605 H 160.094 -0.546634 -0.774529 0
M  V30 1606 H 159.8 -1.51577 -3.1736 0
M  V30 1607 H 159.674 0.129796 -3.76977 0
M  V30 1608 H 162.061 0.590371 -2.89134 0
M  V30 1609 H 162.142 -1.08164 -2.31806 0
M  V30 1610 H 161.786 -1.89608 -4.71181 0
M  V30 1611 H 161.716 -0.203127 -5.26208 0
M  V30 1612 H 164.207 -0.548216 -3.73902 0
M  V30 1613 H 164.52 -1.73609 -7.53047 0
M  V30 1614 H 162.865 -1.55454 -6.77391 0
M  V30 1615 H 166.056 -0.762321 -4.61851 0
M  V30 1616 H 166.229 -1.30378 -6.34749 0
M  V30 1617 N 159.635 1.57281 -0.100228 0
M  V30 1618 C 160.863 1.98879 0.570509 0
M  V30 1619 C 161.278 0.979476 1.61405 0
M  V30 1620 O 160.635 -0.0302288 1.82475 0
M  V30 1621 C 160.686 3.4052 1.2136 0
M  V30 1622 O 160.407 4.37588 0.211786 0
M  V30 1623 C 161.908 3.97149 1.96945 0
M  V30 1624 H 159.128 0.653428 0.152555 0
M  V30 1625 H 161.672 2.03697 -0.18103 0
M  V30 1626 H 159.827 3.367 1.91603 0
M  V30 1627 H 160.241 5.20118 0.676607 0
M  V30 1628 H 161.715 4.98393 2.37294 0
M  V30 1629 H 162.192 3.3525 2.83733 0
M  V30 1630 H 162.798 4.04458 1.31506 0
M  V30 1631 N 161.113 -0.173488 1.56642 0
M  V30 1632 C 162.359 -0.891784 1.8214 0
M  V30 1633 C 162.692 -1.8199 0.677736 0
M  V30 1634 O 161.967 -1.91842 -0.320446 0
M  V30 1635 C 162.25 -1.68933 3.18015 0
M  V30 1636 C 162.103 -0.784487 4.42906 0
M  V30 1637 C 163.422 -2.65748 3.50808 0
M  V30 1638 H 160.541 -0.322761 0.662567 0
M  V30 1639 H 163.183 -0.158095 1.89341 0
M  V30 1640 H 161.333 -2.31482 3.12007 0
M  V30 1641 H 163.005 -0.172046 4.60979 0
M  V30 1642 H 161.248 -0.0924117 4.33702 0
M  V30 1643 H 161.919 -1.37799 5.34524 0
M  V30 1644 H 164.395 -2.13327 3.57255 0
M  V30 1645 H 163.271 -3.18619 4.4696 0
M  V30 1646 H 163.532 -3.45842 2.75401 0
M  V30 1647 N 162.591 -1.51276 -0.441967 0
M  V30 1648 C 163.554 -1.7167 -1.51862 0
M  V30 1649 C 164.554 -0.586793 -1.49711 0
M  V30 1650 O 165.744 -0.854276 -1.51815 0
M  V30 1651 C 162.876 -1.76889 -2.91416 0
M  V30 1652 H 164.069 -2.67754 -1.35084 0
M  V30 1653 H 161.622 -1.41196 -0.670333 0
M  V30 1654 H 162.357 -0.826026 -3.13604 0
M  V30 1655 H 162.142 -2.59001 -2.94382 0
M  V30 1656 H 163.632 -1.94522 -3.69528 0
M  V30 1657 N 164.069 0.697108 -1.41344 0
M  V30 1658 C 165.032 1.79281 -1.42797 0
M  V30 1659 C 166.032 1.57607 -0.318837 0
M  V30 1660 O 167.222 1.64309 -0.578642 0
M  V30 1661 C 164.354 3.17632 -1.23785 0
M  V30 1662 H 165.547 1.79385 -2.40335 0
M  V30 1663 H 163.1 0.904582 -1.27464 0
M  V30 1664 H 163.835 3.23167 -0.270814 0
M  V30 1665 H 163.62 3.34765 -2.04144 0
M  V30 1666 H 165.11 3.97617 -1.27633 0
M  V30 1667 N 165.547 1.27147 0.931209 0
M  V30 1668 C 166.958 1.12044 1.49342 0
M  V30 1669 C 167.309 -0.295795 1.93957 0
M  V30 1670 O 166.434 -1.18835 1.80852 0
M  V30 1671 C 167.029 2.02781 2.71414 0
M  V30 1672 C 165.588 1.91794 3.2387 0
M  V30 1673 C 164.735 1.95543 1.96617 0
M  V30 1674 H 167.686 1.40091 0.745672 0
M  V30 1675 H 167.707 1.58156 3.46074 0
M  V30 1676 H 167.219 3.05848 2.38911 0
M  V30 1677 H 165.32 0.916992 3.6114 0
M  V30 1678 H 165.433 2.77852 3.90302 0
M  V30 1679 H 163.797 1.39722 2.12955 0
M  V30 1680 H 164.58 3.00259 1.66432 0
M  V30 1681 N 167.025 -1.13721 1.09112 0
M  V30 1682 C 168.25 -1.89314 0.847053 0
M  V30 1683 C 168.675 -1.78416 -0.595774 0
M  V30 1684 O 168.033 -1.12942 -1.41823 0
M  V30 1685 C 168.081 -3.3701 1.28284 0
M  V30 1686 O 167.185 -4.10054 0.439267 0
M  V30 1687 H 166.526 -0.588745 0.307044 0
M  V30 1688 H 169.056 -1.43902 1.45442 0
M  V30 1689 H 169.066 -3.87834 1.26683 0
M  V30 1690 H 167.741 -3.4426 2.33363 0
M  V30 1691 H 166.318 -3.69266 0.519312 0
M  V30 1692 N 168.503 -0.877838 -1.30888 0
M  V30 1693 C 169.749 -0.493426 -1.96706 0
M  V30 1694 C 170.082 0.953504 -1.6918 0
M  V30 1695 O 169.357 1.67266 -0.992594 0
M  V30 1696 C 169.64 -0.760429 -3.51979 0
M  V30 1697 C 169.493 -2.25747 -3.89048 0
M  V30 1698 C 170.812 -0.232148 -4.39487 0
M  V30 1699 H 167.931 -0.180746 -0.714493 0
M  V30 1700 H 170.573 -1.10052 -1.54882 0
M  V30 1701 H 168.723 -0.243715 -3.87735 0
M  V30 1702 H 170.395 -2.84204 -3.63354 0
M  V30 1703 H 168.638 -2.72694 -3.37373 0
M  V30 1704 H 169.309 -2.39491 -4.97341 0
M  V30 1705 H 171.785 -0.674314 -4.106 0
M  V30 1706 H 170.661 -0.448355 -5.47066 0
M  V30 1707 H 170.922 0.866297 -4.33529 0
M  V30 1708 N 169.982 1.44106 -0.638065 0
M  V30 1709 C 171.229 2.01978 -0.14533 0
M  V30 1710 C 171.557 1.50234 1.23532 0
M  V30 1711 O 170.812 0.679548 1.83523 0
M  V30 1712 C 171.111 3.5729 -0.0887327 0
M  V30 1713 C 170.777 4.28317 -1.40909 0
M  V30 1714 C 169.439 4.47437 -1.77069 0
M  V30 1715 C 171.791 4.6867 -2.28031 0
M  V30 1716 C 169.119 5.04171 -3.00047 0
M  V30 1717 C 171.471 5.26766 -3.50286 0
M  V30 1718 C 170.135 5.44104 -3.86661 0
M  V30 1719 H 169.405 0.739089 -0.0531801 0
M  V30 1720 H 172.052 1.72781 -0.825761 0
M  V30 1721 H 170.357 3.8594 0.675095 0
M  V30 1722 H 172.054 3.99807 0.309145 0
M  V30 1723 H 168.644 4.1377 -1.1177 0
M  V30 1724 H 172.828 4.53604 -2.01388 0
M  V30 1725 H 168.084 5.15782 -3.28298 0
M  V30 1726 H 172.258 5.56983 -4.18023 0
M  V30 1727 H 169.885 5.87832 -4.82034 0
M  V30 1728 N 171.46 0.379036 1.52974 0
M  V30 1729 C 172.709 -0.207612 2.00629 0
M  V30 1730 C 173.022 -1.48758 1.27006 0
M  V30 1731 O 174.228 -2.15365 1.65318 0
M  V30 1732 C 172.684 -0.42053 3.57435 0
M  V30 1733 C 172.292 0.845587 4.39948 0
M  V30 1734 C 174.036 -0.964102 4.13407 0
M  V30 1735 C 171.943 0.601513 5.88333 0
M  V30 1736 H 170.873 -0.0813591 0.749598 0
M  V30 1737 H 173.524 0.499853 1.76561 0
M  V30 1738 H 171.906 -1.18959 3.7771 0
M  V30 1739 H 173.08 1.61848 4.31442 0
M  V30 1740 H 171.395 1.31336 3.95145 0
M  V30 1741 H 173.992 -1.16225 5.21916 0
M  V30 1742 H 174.335 -1.93019 3.68849 0
M  V30 1743 H 174.868 -0.25487 3.96983 0
M  V30 1744 H 171.607 1.53831 6.37194 0
M  V30 1745 H 171.127 -0.132628 5.99653 0
M  V30 1746 H 172.806 0.232134 6.46583 0
M  V30 1747 N 172.938 -1.57226 0.108567 0
M  V30 1748 C 174.185 -1.94833 -0.551943 0
M  V30 1749 C 174.513 -0.991204 -1.67348 0
M  V30 1750 O 173.768 -0.0131878 -1.95696 0
M  V30 1751 C 174.067 -3.38911 -1.13463 0
M  V30 1752 C 173.733 -4.50696 -0.135509 0
M  V30 1753 C 172.395 -4.80998 0.139252 0
M  V30 1754 C 174.747 -5.18333 0.545957 0
M  V30 1755 C 172.075 -5.76259 1.10194 0
M  V30 1756 C 174.427 -6.14627 1.49721 0
M  V30 1757 C 173.091 -6.43327 1.78006 0
M  V30 1758 H 172.361 -0.712944 -0.20197 0
M  V30 1759 H 175.008 -1.90582 0.18726 0
M  V30 1760 H 173.313 -3.39805 -1.95037 0
M  V30 1761 H 175.01 -3.65317 -1.65362 0
M  V30 1762 H 171.6 -4.27087 -0.359846 0
M  V30 1763 H 175.784 -4.95087 0.346842 0
M  V30 1764 H 171.04 -5.96804 1.32795 0
M  V30 1765 H 175.214 -6.66126 2.03099 0
M  V30 1766 H 172.841 -7.1695 2.52759 0
M  V30 1767 N 174.416 0.165178 -1.56732 0
M  V30 1768 C 175.827 0.727046 -1.71962 0
M  V30 1769 C 176.178 1.82508 -0.720078 0
M  V30 1770 O 175.303 2.16082 0.117242 0
M  V30 1771 C 175.898 1.32559 -3.11791 0
M  V30 1772 C 174.457 1.83422 -3.28684 0
M  V30 1773 C 173.604 0.715567 -2.67908 0
M  V30 1774 H 176.555 -0.0602896 -1.58585 0
M  V30 1775 H 176.576 2.19533 -3.10782 0
M  V30 1776 H 176.088 0.526195 -3.84516 0
M  V30 1777 H 174.189 2.65986 -2.60926 0
M  V30 1778 H 174.302 1.97543 -4.36478 0
M  V30 1779 H 172.666 1.13758 -2.27884 0
M  V30 1780 H 173.449 -0.0720836 -3.43224 0
M  V30 1781 N 175.894 1.51508 0.433938 0
M  V30 1782 C 177.305 1.56784 1.01369 0
M  V30 1783 C 177.656 0.393349 1.92217 0
M  V30 1784 O 176.781 -0.489441 2.10792 0
M  V30 1785 C 177.376 2.84144 1.8452 0
M  V30 1786 C 175.935 2.9198 2.37539 0
M  V30 1787 C 175.082 2.51482 1.16843 0
M  V30 1788 H 178.033 1.57236 0.215081 0
M  V30 1789 H 178.054 2.68098 2.70007 0
M  V30 1790 H 177.566 3.69607 1.18373 0
M  V30 1791 H 175.667 2.10955 3.0713 0
M  V30 1792 H 175.78 3.95704 2.70103 0
M  V30 1793 H 174.144 2.04758 1.51481 0
M  V30 1794 H 174.927 3.39293 0.523015 0
M  V30 1795 N 177.372 -0.689602 1.41712 0
M  V30 1796 C 178.597 -1.48329 1.44959 0
M  V30 1797 C 179.022 -1.8801 0.0581283 0
M  V30 1798 O 178.38 -1.55026 -0.940035 0
M  V30 1799 C 178.428 -2.71835 2.36935 0
M  V30 1800 O 177.532 -3.69549 1.8305 0
M  V30 1801 H 176.873 -0.446199 0.491734 0
M  V30 1802 H 179.403 -0.847127 1.86239 0
M  V30 1803 H 179.413 -3.20076 2.53013 0
M  V30 1804 H 178.088 -2.42291 3.38035 0
M  V30 1805 H 176.665 -3.2851 1.76452 0
M  V30 1806 N 178.85 -1.27639 -0.924453 0
M  V30 1807 C 180.127 -1.04887 -1.651 0
M  V30 1808 C 180.507 0.415327 -2.06974 0
M  V30 1809 O 179.855 1.39923 -1.80648 0
M  V30 1810 C 180.065 -2.01348 -2.85061 0
M  V30 1811 C 181.413 -2.30899 -3.56329 0
M  V30 1812 O 182.437 -1.99348 -2.95193 0
M  V30 1813 O 181.296 -2.84699 -4.66485 0
M  V30 1814 H 178.39 -0.400083 -0.723784 0
M  V30 1815 H 180.936 -1.38916 -0.974703 0
M  V30 1816 H 179.708 -3.0008 -2.51133 0
M  V30 1817 H 179.331 -1.679 -3.6041 0
M  V30 1818 N 180.328 1.1314 -1.09713 0
M  V30 1819 C 181.238 2.22242 -0.751367 0
M  V30 1820 C 182.254 1.72224 0.247938 0
M  V30 1821 O 183.43 2.01205 0.0885463 0
M  V30 1822 C 180.495 3.46231 -0.180274 0
M  V30 1823 C 179.556 4.11125 -1.2359 0
M  V30 1824 C 178.789 5.29195 -0.691966 0
M  V30 1825 O 179.012 5.68342 0.48414 0
M  V30 1826 O 177.946 5.84214 -1.44838 0
M  V30 1827 H 181.772 2.54197 -1.66186 0
M  V30 1828 H 179.357 1.21331 -0.871735 0
M  V30 1829 H 181.239 4.21185 0.134739 0
M  V30 1830 H 179.914 3.1597 0.703185 0
M  V30 1831 H 178.821 3.37985 -1.60366 0
M  V30 1832 H 180.154 4.45524 -2.09211 0
M  V30 1833 N 181.806 0.884767 1.30421 0
M  V30 1834 C 182.738 0.308655 2.27112 0
M  V30 1835 C 183.751 -0.536655 1.53701 0
M  V30 1836 O 184.94 -0.35624 1.74909 0
M  V30 1837 C 182.04 -0.579782 3.33904 0
M  V30 1838 C 181.213 0.236417 4.36761 0
M  V30 1839 C 180.272 -0.582482 5.22966 0
M  V30 1840 O 179.298 -0.00525502 5.692 0
M  V30 1841 N 180.5 -1.89163 5.48815 0
M  V30 1842 H 183.265 1.13964 2.77186 0
M  V30 1843 H 180.826 0.747731 1.43599 0
M  V30 1844 H 182.818 -1.13366 3.88497 0
M  V30 1845 H 181.388 -1.31144 2.83761 0
M  V30 1846 H 180.608 0.97174 3.82035 0
M  V30 1847 H 181.896 0.795924 5.02536 0
M  V30 1848 H 181.294 -2.38352 5.13035 0
M  V30 1849 H 179.851 -2.39296 6.06284 0
M  V30 1850 N 183.284 -1.43765 0.645699 0
M  V30 1851 C 184.214 -2.33471 -0.0370477 0
M  V30 1852 C 185.195 -1.49042 -0.819779 0
M  V30 1853 O 186.38 -1.77726 -0.782758 0
M  V30 1854 C 183.51 -3.32311 -1.0093 0
M  V30 1855 C 182.464 -4.2667 -0.337201 0
M  V30 1856 C 181.79 -5.1549 -1.42037 0
M  V30 1857 C 183.09 -5.16657 0.765706 0
M  V30 1858 H 184.784 -2.90809 0.712069 0
M  V30 1859 H 182.33 -1.39834 0.343876 0
M  V30 1860 H 184.283 -3.9396 -1.49578 0
M  V30 1861 H 183.007 -2.73213 -1.78948 0
M  V30 1862 H 181.666 -3.66374 0.128771 0
M  V30 1863 H 181.314 -4.52735 -2.1918 0
M  V30 1864 H 181.014 -5.79438 -0.975966 0
M  V30 1865 H 182.538 -5.80012 -1.90838 0
M  V30 1866 H 183.952 -5.72158 0.361702 0
M  V30 1867 H 182.349 -5.89286 1.13413 0
M  V30 1868 H 183.419 -4.56796 1.62683 0
M  V30 1869 N 184.763 -0.387143 -1.52771 0
M  V30 1870 C 185.71 0.449048 -2.26389 0
M  V30 1871 C 186.68 1.05961 -1.27912 0
M  V30 1872 O 187.865 1.08804 -1.56737 0
M  V30 1873 C 185.005 1.57155 -3.0724 0
M  V30 1874 C 184.118 0.984066 -4.20643 0
M  V30 1875 C 183.253 2.07745 -4.88892 0
M  V30 1876 C 182.292 1.46574 -5.94292 0
M  V30 1877 N 181.429 2.49834 -6.56146 0
M  V30 1878 H 186.269 -0.185205 -2.97424 0
M  V30 1879 H 183.806 -0.103164 -1.46738 0
M  V30 1880 H 185.764 2.23309 -3.52405 0
M  V30 1881 H 184.394 2.17615 -2.38419 0
M  V30 1882 H 183.446 0.212193 -3.79808 0
M  V30 1883 H 184.758 0.497029 -4.96318 0
M  V30 1884 H 183.912 2.81673 -5.3735 0
M  V30 1885 H 182.651 2.59807 -4.12737 0
M  V30 1886 H 181.656 0.711696 -5.45174 0
M  V30 1887 H 182.881 0.953088 -6.72379 0
M  V30 1888 H 180.827 3.0107 -5.82832 0
M  V30 1889 H 180.744 2.05879 -7.27427 0
M  V30 1890 H 182.012 3.23399 -7.09249 0
M  V30 1891 N 186.241 1.57166 -0.116904 0
M  V30 1892 C 187.466 1.999 0.55271 0
M  V30 1893 C 187.891 0.996039 1.59564 0
M  V30 1894 O 187.249 -0.032556 1.81271 0
M  V30 1895 C 187.297 3.4152 1.15742 0
M  V30 1896 O 186.401 3.44106 2.27299 0
M  V30 1897 H 185.742 0.649447 0.138258 0
M  V30 1898 H 188.272 2.03573 -0.204759 0
M  V30 1899 H 188.282 3.79684 1.49346 0
M  V30 1900 H 186.957 4.14034 0.393493 0
M  V30 1901 H 185.534 3.17759 1.9515 0
M  V30 1902 N 187.719 -0.156864 1.56817 0
M  V30 1903 C 188.967 -0.869404 1.82444 0
M  V30 1904 C 189.288 -1.82147 0.69623 0
M  V30 1905 O 188.558 -1.93847 -0.28287 0
M  V30 1906 H 187.138 -0.324043 0.673056 0
M  V30 1907 H 189.8 -0.153224 1.94297 0
M  V30 1908 H 188.896 -1.43761 2.77019 0
M  V30 1909 N 189.197 -1.51736 -0.425897 0
M  V30 1910 C 190.425 -1.68794 -1.1965 0
M  V30 1911 C 190.84 -0.390164 -1.84725 0
M  V30 1912 O 190.197 0.632376 -1.71194 0
M  V30 1913 C 190.248 -2.81174 -2.27208 0
M  V30 1914 O 189.969 -4.05925 -1.64793 0
M  V30 1915 C 191.47 -3.09599 -3.17275 0
M  V30 1916 H 188.69 -0.566128 -0.360194 0
M  V30 1917 H 191.234 -1.98211 -0.503249 0
M  V30 1918 H 189.389 -2.54324 -2.9223 0
M  V30 1919 H 189.803 -4.68423 -2.35967 0
M  V30 1920 H 191.277 -3.91786 -3.88854 0
M  V30 1921 H 191.754 -2.22468 -3.78688 0
M  V30 1922 H 192.36 -3.38151 -2.57941 0
M  V30 1923 N 190.675 0.682077 -1.42076 0
M  V30 1924 C 191.638 1.77756 -1.44691 0
M  V30 1925 C 192.638 1.5726 -0.335535 0
M  V30 1926 O 193.828 1.63686 -0.596037 0
M  V30 1927 C 190.96 3.16301 -1.27146 0
M  V30 1928 H 192.153 1.76826 -2.42224 0
M  V30 1929 H 189.706 0.891012 -1.28416 0
M  V30 1930 H 190.441 3.22862 -0.305075 0
M  V30 1931 H 190.226 3.32581 -2.07683 0
M  V30 1932 H 191.716 3.96241 -1.31843 0
M  V30 1933 N 192.153 1.28127 0.917671 0
M  V30 1934 C 193.378 1.18007 1.70555 0
M  V30 1935 C 193.803 -0.258257 1.86319 0
M  V30 1936 O 193.161 -1.1869 1.37049 0
M  V30 1937 C 193.209 1.87948 3.07746 0
M  V30 1938 O 192.313 1.18427 3.9503 0
M  V30 1939 H 191.654 0.409867 0.522403 0
M  V30 1940 H 194.184 1.69379 1.1477 0
M  V30 1941 H 194.194 1.95701 3.58001 0
M  V30 1942 H 192.869 2.92573 2.95591 0
M  V30 1943 H 191.446 1.18811 3.53466 0
M  V30 1944 N 193.631 -1.12557 1.10312 0
M  V30 1945 C 194.877 -1.84311 0.846011 0
M  V30 1946 C 195.21 -1.83805 -0.626859 0
M  V30 1947 O 194.485 -1.28268 -1.46211 0
M  V30 1948 C 194.768 -3.32048 1.39341 0
M  V30 1949 C 194.621 -3.41016 2.93305 0
M  V30 1950 C 195.94 -4.27764 1.03468 0
M  V30 1951 H 193.059 -0.669192 0.30879 0
M  V30 1952 H 195.701 -1.32057 1.36605 0
M  V30 1953 H 193.851 -3.76678 0.951087 0
M  V30 1954 H 195.523 -3.05031 3.46055 0
M  V30 1955 H 193.766 -2.81603 3.29973 0
M  V30 1956 H 194.437 -4.44948 3.26689 0
M  V30 1957 H 196.913 -3.91253 1.41633 0
M  V30 1958 H 195.789 -5.29549 1.44463 0
M  V30 1959 H 196.05 -4.42064 -0.0560404 0
M  V30 1960 N 195.109 -0.891671 -1.2995 0
M  V30 1961 C 196.355 -0.514261 -1.96171 0
M  V30 1962 C 196.688 0.935506 -1.70182 0
M  V30 1963 O 195.963 1.66204 -1.01028 0
M  V30 1964 C 196.246 -0.797719 -3.51153 0
M  V30 1965 C 196.099 -2.2986 -3.86632 0
M  V30 1966 C 197.418 -0.278749 -4.39216 0
M  V30 1967 H 194.537 -0.188314 -0.712535 0
M  V30 1968 H 197.179 -1.11689 -1.53706 0
M  V30 1969 H 195.329 -0.284826 -3.87455 0
M  V30 1970 H 197.001 -2.88042 -3.60319 0
M  V30 1971 H 195.244 -2.76257 -3.34462 0
M  V30 1972 H 195.915 -2.44753 -4.94773 0
M  V30 1973 H 198.391 -0.717825 -4.09862 0
M  V30 1974 H 197.267 -0.506353 -5.46559 0
M  V30 1975 H 197.528 0.820266 -4.34424 0
M  V30 1976 N 196.587 1.43421 -0.653314 0
M  V30 1977 C 197.827 2.03689 -0.170346 0
M  V30 1978 C 198.191 1.50427 1.19314 0
M  V30 1979 O 199.392 2.0234 1.76952 0
M  V30 1980 C 197.663 3.56946 -0.180183 0
M  V30 1981 S 199.222 4.38171 0.234925 0
M  V30 1982 H 196.04 0.707345 -0.0719976 0
M  V30 1983 H 198.642 1.75486 -0.86167 0
M  V30 1984 H 197.346 3.93212 -1.17526 0
M  V30 1985 H 196.877 3.89791 0.531675 0
M  V30 1986 H 198.892 4.73808 1.47378 0
M  V30 1987 N 198.065 0.39524 1.52563 0
M  V30 1988 C 198.995 -0.428384 2.29537 0
M  V30 1989 C 199.976 -1.05831 1.33169 0
M  V30 1990 O 201.161 -1.06995 1.62067 0
M  V30 1991 C 198.291 -1.55274 3.10656 0
M  V30 1992 C 197.245 -1.04855 4.14957 0
M  V30 1993 C 196.571 -2.26543 4.84337 0
M  V30 1994 C 197.871 -0.112324 5.22179 0
M  V30 1995 H 199.565 0.213867 2.98635 0
M  V30 1996 H 197.111 0.104298 1.43622 0
M  V30 1997 H 199.064 -2.1358 3.63265 0
M  V30 1998 H 197.788 -2.22266 2.39302 0
M  V30 1999 H 196.447 -0.487985 3.63338 0
M  V30 2000 H 196.095 -2.92059 4.09525 0
M  V30 2001 H 195.795 -1.93466 5.54837 0
M  V30 2002 H 197.319 -2.85481 5.39753 0
M  V30 2003 H 198.733 -0.603752 5.70112 0
M  V30 2004 H 197.13 0.128968 5.99961 0
M  V30 2005 H 198.2 0.837052 4.77621 0
M  V30 2006 N 199.544 -1.57102 0.125237 0
M  V30 2007 C 200.474 -2.18659 -0.819174 0
M  V30 2008 C 201.455 -1.12843 -1.27281 0
M  V30 2009 O 202.64 -1.41104 -1.33429 0
M  V30 2010 C 199.77 -2.79096 -2.06695 0
M  V30 2011 C 198.724 -3.90548 -1.75088 0
M  V30 2012 C 198.05 -4.37821 -3.06948 0
M  V30 2013 C 199.35 -5.12356 -1.01435 0
M  V30 2014 H 201.044 -2.9783 -0.306202 0
M  V30 2015 H 198.59 -1.4326 -0.145839 0
M  V30 2016 H 200.543 -3.2082 -2.73226 0
M  V30 2017 H 199.267 -1.97223 -2.60328 0
M  V30 2018 H 197.926 -3.49409 -1.10944 0
M  V30 2019 H 197.574 -3.52799 -3.58527 0
M  V30 2020 H 197.274 -5.12982 -2.86571 0
M  V30 2021 H 198.798 -4.822 -3.74587 0
M  V30 2022 H 200.212 -5.5106 -1.58132 0
M  V30 2023 H 198.609 -5.9314 -0.911319 0
M  V30 2024 H 199.679 -4.849 -0.00218681 0
M  V30 2025 N 201.022 0.148545 -1.56898 0
M  V30 2026 C 201.97 1.20265 -1.99096 0
M  V30 2027 C 202.964 1.44559 -0.883123 0
M  V30 2028 O 204.17 1.4487 -1.0683 0
M  V30 2029 H 200.545 0.404786 -0.63376 0
M  V30 2030 H 202.516 0.82004 -2.86911 0
M  V30 2031 C 201.265 2.52886 -2.3863 0
M  V30 2032 H 200.588 2.35021 -3.23427 0
M  V30 2033 H 202.028 3.25274 -2.7198 0
M  V30 2034 C 200.487 3.13315 -1.23837 0
M  V30 2035 O 201.017 3.98077 -0.538268 0
M  V30 2036 N 199.223 2.72742 -1.00301 0
M  V30 2037 H 198.77 2.03912 -1.5741 0
M  V30 2038 H 198.728 3.13507 -0.236838 0
M  V30 2039 N 202.5 1.5196 0.417844 0
M  V30 2040 C 203.448 1.75278 1.52907 0
M  V30 2041 C 204.442 0.619611 1.57662 0
M  V30 2042 O 205.648 0.801457 1.61173 0
M  V30 2043 H 202.023 0.554141 0.508362 0
M  V30 2044 H 203.994 2.68389 1.30422 0
M  V30 2045 C 202.743 1.91262 2.90369 0
M  V30 2046 H 202.066 2.77872 2.8745 0
M  V30 2047 H 203.506 2.11581 3.67436 0
M  V30 2048 C 201.965 0.677431 3.30019 0
M  V30 2049 O 202.495 -0.158799 4.01386 0
M  V30 2050 N 200.701 0.515851 2.85985 0
M  V30 2051 H 200.248 1.19744 2.28077 0
M  V30 2052 H 200.206 -0.309315 3.12875 0
M  V30 2053 N 203.978 -0.674533 1.42435 0
M  V30 2054 C 205.225 -1.43459 1.42919 0
M  V30 2055 C 205.553 -1.94446 0.0457312 0
M  V30 2056 O 204.808 -1.7132 -0.94593 0
M  V30 2057 C 205.107 -2.64767 2.40069 0
M  V30 2058 C 204.773 -2.3232 3.86443 0
M  V30 2059 C 203.435 -2.23182 4.26314 0
M  V30 2060 C 205.787 -2.05977 4.78773 0
M  V30 2061 C 203.115 -1.85827 5.56494 0
M  V30 2062 C 205.467 -1.70125 6.09295 0
M  V30 2063 C 204.131 -1.59498 6.48164 0
M  V30 2064 H 203.401 -0.524952 0.522978 0
M  V30 2065 H 206.048 -0.769097 1.75377 0
M  V30 2066 H 204.353 -3.36349 2.00939 0
M  V30 2067 H 206.05 -3.22949 2.37707 0
M  V30 2068 H 202.64 -2.40334 3.54877 0
M  V30 2069 H 206.824 -2.11969 4.48757 0
M  V30 2070 H 202.08 -1.76168 5.8547 0
M  V30 2071 H 206.254 -1.48767 6.80324 0
M  V30 2072 H 203.881 -1.30322 7.48946 0
M  V30 2073 N 205.456 -1.28612 -0.910864 0
M  V30 2074 C 206.686 -1.1862 -1.69153 0
M  V30 2075 C 207.094 0.257324 -1.87442 0
M  V30 2076 O 206.437 1.18543 -1.40332 0
M  V30 2077 C 206.499 -1.81606 -3.10257 0
M  V30 2078 C 206.163 -3.30864 -3.15243 0
M  V30 2079 C 207.16 -4.27256 -2.96223 0
M  V30 2080 C 204.845 -3.71871 -3.37664 0
M  V30 2081 C 206.839 -5.62631 -2.99541 0
M  V30 2082 C 204.526 -5.07371 -3.40614 0
M  V30 2083 C 205.524 -6.02561 -3.21573 0
M  V30 2084 O 205.212 -7.35589 -3.2429 0
M  V30 2085 H 204.944 -0.412633 -0.535453 0
M  V30 2086 H 207.498 -1.70306 -1.14827 0
M  V30 2087 H 205.728 -1.24418 -3.66138 0
M  V30 2088 H 207.417 -1.66092 -3.70362 0
M  V30 2089 H 208.183 -3.9691 -2.78725 0
M  V30 2090 H 204.062 -2.98241 -3.5153 0
M  V30 2091 H 207.606 -6.36907 -2.84597 0
M  V30 2092 H 203.503 -5.37366 -3.57642 0
M  V30 2093 H 204.271 -7.44252 -3.40633 0
M  V30 2094 N 206.934 1.1197 -1.10907 0
M  V30 2095 C 208.345 1.65114 -0.871446 0
M  V30 2096 C 208.696 1.86885 0.597353 0
M  V30 2097 O 207.821 1.59896 1.45816 0
M  V30 2098 C 208.416 2.99944 -1.5754 0
M  V30 2099 C 206.975 3.50018 -1.38435 0
M  V30 2100 C 206.122 2.24941 -1.62164 0
M  V30 2101 H 209.073 0.956851 -1.2661 0
M  V30 2102 H 209.094 3.66651 -1.01721 0
M  V30 2103 H 208.606 2.84067 -2.64438 0
M  V30 2104 H 206.707 3.71071 -0.337214 0
M  V30 2105 H 206.82 4.29165 -2.12965 0
M  V30 2106 H 205.184 2.3229 -1.04467 0
M  V30 2107 H 205.967 2.11612 -2.70324 0
M  V30 2108 N 208.412 0.89855 1.29475 0
M  V30 2109 C 209.828 0.594483 1.48115 0
M  V30 2110 C 210.028 -0.86431 1.82022 0
M  V30 2111 O 209.084 -1.64457 1.91599 0
M  V30 2112 C 210.397 1.51932 2.59494 0
M  V30 2113 C 211.945 1.5244 2.7337 0
M  V30 2114 C 212.42 2.43548 3.87877 0
M  V30 2115 N 213.911 2.41589 3.95208 0
M  V30 2116 C 214.646 3.08789 4.83153 0
M  V30 2117 N 214.142 3.85265 5.75798 0
M  V30 2118 N 215.935 2.97952 4.76635 0
M  V30 2119 H 208.086 1.84207 1.05742 0
M  V30 2120 H 210.349 0.789251 0.525154 0
M  V30 2121 H 210.055 2.55865 2.41301 0
M  V30 2122 H 209.929 1.23899 3.56271 0
M  V30 2123 H 212.316 0.492518 2.90961 0
M  V30 2124 H 212.397 1.8451 1.77172 0
M  V30 2125 H 212.041 3.46829 3.71041 0
M  V30 2126 H 211.971 2.08788 4.83441 0
M  V30 2127 H 214.462 1.86025 3.28943 0
M  V30 2128 H 214.775 4.33598 6.39697 0
M  V30 2129 H 213.12 3.89371 5.75687 0
M  V30 2130 H 216.311 2.37723 4.03244 0
M  V30 2131 H 216.484 3.50599 5.44962 0
M  V30 2132 N 209.89 -1.43072 0.660911 0
M  V30 2133 C 210.8 -2.34585 -0.0264163 0
M  V30 2134 C 211.816 -1.54316 -0.803898 0
M  V30 2135 O 212.992 -1.86939 -0.749391 0
M  V30 2136 C 210.057 -3.32689 -0.975639 0
M  V30 2137 C 209.118 -4.2886 -0.194236 0
M  V30 2138 C 208.351 -5.22278 -1.09825 0
M  V30 2139 O 208.574 -5.20299 -2.33763 0
M  V30 2140 O 207.508 -5.99228 -0.566513 0
M  V30 2141 H 211.334 -2.94869 0.727034 0
M  V30 2142 H 208.919 -1.43342 0.42111 0
M  V30 2143 H 210.801 -3.92995 -1.52094 0
M  V30 2144 H 209.476 -2.74898 -1.70918 0
M  V30 2145 H 208.383 -3.72011 0.394835 0
M  V30 2146 H 209.716 -4.89655 0.499899 0
M  V30 2147 N 211.368 -0.403325 -1.52352 0
M  V30 2148 C 212.331 0.413051 -2.25447 0
M  V30 2149 C 213.331 0.978513 -1.276 0
M  V30 2150 O 214.521 0.858305 -1.51587 0
M  V30 2151 C 211.653 1.58087 -3.02029 0
M  V30 2152 H 212.846 -0.227094 -2.99039 0
M  V30 2153 H 210.399 -0.155722 -1.55522 0
M  V30 2154 H 211.134 2.25804 -2.32772 0
M  V30 2155 H 210.919 1.18195 -3.73861 0
M  V30 2156 H 212.409 2.1585 -3.57489 0
M  V30 2157 N 212.846 1.57033 -0.133567 0
M  V30 2158 C 213.793 2.16074 0.811208 0
M  V30 2159 C 214.763 1.08979 1.2535 0
M  V30 2160 O 215.948 1.36958 1.32843 0
M  V30 2161 C 213.088 2.77595 2.05024 0
M  V30 2162 C 212.201 3.99042 1.65498 0
M  V30 2163 C 211.336 4.48603 2.84479 0
M  V30 2164 C 210.375 5.62547 2.41262 0
M  V30 2165 N 209.512 6.06787 3.53206 0
M  V30 2166 H 214.352 2.96477 0.300906 0
M  V30 2167 H 211.889 1.46462 0.136822 0
M  V30 2168 H 213.847 3.11402 2.77642 0
M  V30 2169 H 212.477 1.99859 2.53488 0
M  V30 2170 H 211.529 3.71302 0.826981 0
M  V30 2171 H 212.841 4.81629 1.29748 0
M  V30 2172 H 211.995 4.84395 3.65303 0
M  V30 2173 H 210.734 3.64995 3.23465 0
M  V30 2174 H 209.739 5.26345 1.58874 0
M  V30 2175 H 210.964 6.47931 2.03377 0
M  V30 2176 H 208.91 5.26117 3.91838 0
M  V30 2177 H 208.827 6.84266 3.21427 0
M  V30 2178 H 210.095 6.4722 4.34427 0
M  V30 2179 N 214.325 -0.140222 1.56975 0
M  V30 2180 C 215.571 -0.852949 1.83991 0
M  V30 2181 C 215.904 -1.80512 0.716187 0
M  V30 2182 O 215.179 -1.92479 -0.279681 0
M  V30 2183 C 215.462 -1.6215 3.21527 0
M  V30 2184 C 215.315 -0.690363 4.4447 0
M  V30 2185 C 216.634 -2.58247 3.56366 0
M  V30 2186 H 213.753 -0.308634 0.669264 0
M  V30 2187 H 216.395 -0.117898 1.89634 0
M  V30 2188 H 214.545 -2.24812 3.16847 0
M  V30 2189 H 216.217 -0.0742264 4.6124 0
M  V30 2190 H 214.46 -0.000396433 4.338 0
M  V30 2191 H 215.131 -1.2643 5.37326 0
M  V30 2192 H 217.607 -2.05701 3.61699 0
M  V30 2193 H 216.483 -3.09067 4.53617 0
M  V30 2194 H 216.744 -3.39923 2.82674 0
M  V30 2195 N 215.803 -1.52179 -0.40978 0
M  V30 2196 C 216.735 -1.71703 -1.51825 0
M  V30 2197 C 217.748 -0.597445 -1.51441 0
M  V30 2198 O 218.937 -0.872582 -1.55719 0
M  V30 2199 C 216.037 -1.74171 -2.90719 0
M  V30 2200 C 215.21 -3.03156 -3.15302 0
M  V30 2201 C 214.269 -2.97445 -4.34065 0
M  V30 2202 O 213.295 -3.71352 -4.31377 0
M  V30 2203 N 214.497 -2.15191 -5.39141 0
M  V30 2204 H 217.262 -2.67334 -1.35472 0
M  V30 2205 H 214.823 -1.50409 -0.599069 0
M  V30 2206 H 216.815 -1.67884 -3.68235 0
M  V30 2207 H 215.385 -0.860166 -3.00533 0
M  V30 2208 H 214.605 -3.23097 -2.25836 0
M  V30 2209 H 215.893 -3.88484 -3.28569 0
M  V30 2210 H 215.291 -1.54573 -5.44173 0
M  V30 2211 H 213.848 -2.1476 -6.15403 0
M  V30 2212 N 217.281 0.66697 -1.42791 0
M  V30 2213 C 218.527 1.42754 -1.44889 0
M  V30 2214 C 218.882 1.92283 -0.0669755 0
M  V30 2215 O 218.175 1.68494 0.912154 0
M  V30 2216 C 218.369 2.6349 -2.4147 0
M  V30 2217 C 218.198 2.25776 -3.88915 0
M  V30 2218 C 216.968 2.1476 -4.57391 0
M  V30 2219 C 219.166 1.86927 -4.79127 0
M  V30 2220 N 217.148 1.70232 -5.89826 0
M  V30 2221 C 218.519 1.53378 -6.00729 0
M  V30 2222 C 220.574 1.73989 -4.66511 0
M  V30 2223 C 219.277 1.08187 -7.11117 0
M  V30 2224 C 221.303 1.30203 -5.76889 0
M  V30 2225 C 220.665 0.975818 -6.97608 0
M  V30 2226 H 216.764 0.518559 -0.585338 0
M  V30 2227 H 219.348 0.768906 -1.78874 0
M  V30 2228 H 217.519 3.27033 -2.09533 0
M  V30 2229 H 219.251 3.30123 -2.34096 0
M  V30 2230 H 216.006 2.3408 -4.11708 0
M  V30 2231 H 216.43 1.50369 -6.6009 0
M  V30 2232 H 221.072 1.97853 -3.7365 0
M  V30 2233 H 218.79 0.830701 -8.03819 0
M  V30 2234 H 222.376 1.20701 -5.69142 0
M  V30 2235 H 221.256 0.642157 -7.81566 0
M  V30 2236 N 218.759 1.29093 0.90403 0
M  V30 2237 C 219.706 1.13853 2.00764 0
M  V30 2238 C 220.676 0.0330084 1.66067 0
M  V30 2239 O 221.861 0.199733 1.89752 0
M  V30 2240 C 219.001 0.816537 3.35301 0
M  V30 2241 C 218.114 2.00206 3.82807 0
M  V30 2242 C 217.249 1.61983 5.059 0
M  V30 2243 C 216.288 2.77143 5.45764 0
M  V30 2244 N 215.425 2.39346 6.60044 0
M  V30 2245 H 220.265 2.08276 2.13132 0
M  V30 2246 H 217.802 1.03648 1.04381 0
M  V30 2247 H 219.76 0.610557 4.12708 0
M  V30 2248 H 218.39 -0.090779 3.22672 0
M  V30 2249 H 217.442 2.31988 3.01473 0
M  V30 2250 H 218.754 2.86512 4.08304 0
M  V30 2251 H 217.908 1.37649 5.90879 0
M  V30 2252 H 216.647 0.728202 4.82233 0
M  V30 2253 H 215.652 3.02165 4.59322 0
M  V30 2254 H 216.877 3.66964 5.71414 0
M  V30 2255 H 214.823 1.52665 6.37989 0
M  V30 2256 H 214.74 3.19185 6.85315 0
M  V30 2257 H 216.008 2.1832 7.48303 0
M  V30 2258 N 220.237 -1.11381 1.11499 0
M  V30 2259 C 221.483 -1.83403 0.865512 0
M  V30 2260 C 221.816 -1.84459 -0.607329 0
M  V30 2261 O 221.091 -1.29811 -1.44842 0
M  V30 2262 C 221.374 -3.30552 1.42855 0
M  V30 2263 C 221.227 -3.37886 2.96906 0
M  V30 2264 C 222.546 -4.26643 1.08 0
M  V30 2265 H 219.665 -0.665879 0.31587 0
M  V30 2266 H 222.307 -1.30601 1.37998 0
M  V30 2267 H 220.457 -3.75648 0.990985 0
M  V30 2268 H 222.129 -3.01343 3.49271 0
M  V30 2269 H 220.372 -2.78088 3.32941 0
M  V30 2270 H 221.043 -4.41458 3.31389 0
M  V30 2271 H 223.519 -3.89729 1.45775 0
M  V30 2272 H 222.395 -5.27986 1.50072 0
M  V30 2273 H 222.656 -4.42099 -0.00915037 0
M  V30 2274 N 221.715 -0.905404 -1.28997 0
M  V30 2275 C 222.992 -0.453513 -1.9027 0
M  V30 2276 C 223.372 1.06721 -1.82137 0
M  V30 2277 O 222.72 1.91159 -1.25182 0
M  V30 2278 C 222.93 -0.974494 -3.35119 0
M  V30 2279 C 224.278 -1.0216 -4.12127 0
M  V30 2280 O 225.302 -0.922557 -3.44046 0
M  V30 2281 O 224.161 -1.17121 -5.33802 0
M  V30 2282 H 221.255 -0.142347 -0.814657 0
M  V30 2283 H 223.801 -0.995642 -1.37423 0
M  V30 2284 H 222.573 -2.01848 -3.35221 0
M  V30 2285 H 222.196 -0.412706 -3.95452 0
M  V30 2286 N 223.193 1.4272 -0.668489 0
M  V30 2287 C 224.141 2.32586 0.0254857 0
M  V30 2288 C 225.135 1.49471 0.797176 0
M  V30 2289 O 226.341 1.65583 0.705853 0
M  V30 2290 H 222.716 0.751514 0.0270339 0
M  V30 2291 H 224.687 2.88823 -0.749936 0
M  V30 2292 C 223.436 3.3397 0.967427 0
M  V30 2293 H 222.759 3.97961 0.383048 0
M  V30 2294 H 224.199 3.9945 1.42181 0
M  V30 2295 C 222.658 2.65744 2.0708 0
M  V30 2296 O 223.188 2.48454 3.15648 0
M  V30 2297 N 221.394 2.2487 1.8407 0
M  V30 2298 H 220.941 2.39132 0.95778 0
M  V30 2299 H 220.899 1.79552 2.58086 0
M  V30 2300 N 224.671 0.411399 1.52136 0
M  V30 2301 C 225.634 -0.401089 2.25663 0
M  V30 2302 C 226.634 -0.971732 1.28117 0
M  V30 2303 O 227.824 -0.850254 1.52041 0
M  V30 2304 C 224.956 -1.56483 3.02863 0
M  V30 2305 H 226.149 0.24295 2.98914 0
M  V30 2306 H 223.702 0.163968 1.55438 0
M  V30 2307 H 224.437 -2.24567 2.33967 0
M  V30 2308 H 224.222 -1.16211 3.74483 0
M  V30 2309 H 225.712 -2.13951 3.58629 0
M  V30 2310 N 226.149 -1.5696 0.141893 0
M  V30 2311 C 227.079 -2.19516 -0.795936 0
M  V30 2312 C 228.06 -1.14187 -1.26077 0
M  V30 2313 O 229.245 -1.42511 -1.31925 0
M  V30 2314 C 226.375 -2.81272 -2.03723 0
M  V30 2315 C 225.329 -3.92384 -1.70936 0
M  V30 2316 C 224.655 -4.41052 -3.02287 0
M  V30 2317 C 225.955 -5.13403 -0.959954 0
M  V30 2318 H 227.649 -2.98138 -0.274596 0
M  V30 2319 H 225.195 -1.43406 -0.130636 0
M  V30 2320 H 227.148 -3.237 -2.69808 0
M  V30 2321 H 225.872 -1.99973 -2.58221 0
M  V30 2322 H 224.531 -3.50566 -1.07232 0
M  V30 2323 H 224.179 -3.56582 -3.54765 0
M  V30 2324 H 223.879 -5.15993 -2.81114 0
M  V30 2325 H 225.403 -4.86146 -3.69451 0
M  V30 2326 H 226.817 -5.52706 -1.52279 0
M  V30 2327 H 225.214 -5.94073 -0.848357 0
M  V30 2328 H 226.284 -4.84875 0.0492434 0
M  V30 2329 N 227.627 0.131896 -1.57047 0
M  V30 2330 C 228.559 1.1878 -1.9602 0
M  V30 2331 C 229.572 1.38363 -0.857875 0
M  V30 2332 O 230.761 1.37666 -1.13623 0
M  V30 2333 C 227.861 2.55008 -2.23213 0
M  V30 2334 C 227.034 2.56201 -3.54513 0
M  V30 2335 C 226.093 3.7408 -3.70069 0
M  V30 2336 O 225.119 3.58258 -4.42312 0
M  V30 2337 N 226.321 4.92137 -3.07866 0
M  V30 2338 H 229.086 0.85639 -2.87204 0
M  V30 2339 H 226.647 0.321309 -1.5868 0
M  V30 2340 H 228.639 3.32404 -2.30846 0
M  V30 2341 H 227.209 2.80382 -1.3822 0
M  V30 2342 H 226.429 1.64613 -3.58185 0
M  V30 2343 H 227.717 2.54043 -4.4084 0
M  V30 2344 H 227.115 5.07895 -2.49116 0
M  V30 2345 H 225.672 5.67254 -3.21039 0
M  V30 2346 N 229.106 1.52395 0.401703 0
M  V30 2347 C 230.331 1.70972 1.17403 0
M  V30 2348 C 230.756 0.421615 1.83314 0
M  V30 2349 O 230.114 -0.621564 1.70312 0
M  V30 2350 C 230.162 2.85151 2.20728 0
M  V30 2351 O 229.266 2.51238 3.27037 0
M  V30 2352 H 228.607 0.568927 0.342372 0
M  V30 2353 H 231.137 1.99131 0.469891 0
M  V30 2354 H 231.147 3.10279 2.64936 0
M  V30 2355 H 229.822 3.78603 1.7214 0
M  V30 2356 H 228.399 2.36808 2.88057 0
M  V30 2357 N 230.584 -0.659388 1.43143 0
M  V30 2358 C 231.832 -1.41654 1.44147 0
M  V30 2359 C 232.153 -1.94893 0.0645739 0
M  V30 2360 O 231.423 -1.74044 -0.899198 0
M  V30 2361 H 230.003 -0.525708 0.530697 0
M  V30 2362 H 232.665 -0.778097 1.78694 0
M  V30 2363 H 231.761 -2.26195 2.1504 0
M  V30 2364 N 232.062 -1.29571 -0.897171 0
M  V30 2365 C 233.01 -1.14802 -2.02295 0
M  V30 2366 C 234.004 -0.0629637 -1.69283 0
M  V30 2367 O 235.21 -0.222945 -1.78614 0
M  V30 2368 H 231.585 -0.354692 -0.663097 0
M  V30 2369 H 233.556 -2.10108 -2.11889 0
M  V30 2370 C 232.305 -0.843966 -3.37302 0
M  V30 2371 H 231.628 -1.67093 -3.63208 0
M  V30 2372 H 233.068 -0.780672 -4.16751 0
M  V30 2373 C 231.527 0.452843 -3.33843 0
M  V30 2374 O 232.057 1.47813 -3.73516 0
M  V30 2375 N 230.263 0.459601 -2.86943 0
M  V30 2376 H 229.81 -0.375213 -2.54853 0
M  V30 2377 H 229.768 1.32726 -2.85011 0
M  V30 2378 N 233.54 1.10788 -1.12088 0
M  V30 2379 C 234.765 1.87002 -0.896949 0
M  V30 2380 C 235.19 1.79933 0.548261 0
M  V30 2381 O 234.548 1.16662 1.38779 0
M  V30 2382 C 234.596 3.3349 -1.37174 0
M  V30 2383 O 233.7 4.08745 -0.547831 0
M  V30 2384 H 233.041 0.580397 -0.322545 0
M  V30 2385 H 235.571 1.39996 -1.49206 0
M  V30 2386 H 235.581 3.84339 -1.36922 0
M  V30 2387 H 234.256 3.37951 -2.42408 0
M  V30 2388 H 232.833 3.6776 -0.617034 0
M  V30 2389 N 235.018 0.912232 1.28515 0
M  V30 2390 C 235.95 0.35676 2.26406 0
M  V30 2391 C 236.963 -0.503933 1.54804 0
M  V30 2392 O 238.152 -0.319059 1.75625 0
M  V30 2393 C 235.252 -0.508825 3.35058 0
M  V30 2394 C 234.425 0.329007 4.36161 0
M  V30 2395 C 233.484 -0.471422 5.24084 0
M  V30 2396 O 232.51 0.115482 5.69083 0
M  V30 2397 N 233.712 -1.77479 5.52704 0
M  V30 2398 H 236.477 1.19818 2.74707 0
M  V30 2399 H 234.038 0.778022 1.4198 0
M  V30 2400 H 236.03 -1.051 3.90815 0
M  V30 2401 H 234.6 -1.25095 2.86478 0
M  V30 2402 H 233.82 1.05256 3.79888 0
M  V30 2403 H 235.108 0.90234 5.00735 0
M  V30 2404 H 234.506 -2.27417 5.17975 0
M  V30 2405 H 233.063 -2.26382 6.11224 0
M  V30 2406 N 236.496 -1.42363 0.676048 0
M  V30 2407 C 237.406 -2.346 -0.00153389 0
M  V30 2408 C 238.422 -1.5516 -0.787485 0
M  V30 2409 O 239.598 -1.87723 -0.729521 0
M  V30 2410 C 236.663 -3.33705 -0.940298 0
M  V30 2411 C 235.724 -4.29042 -0.148739 0
M  V30 2412 C 234.957 -5.23413 -1.04279 0
M  V30 2413 O 235.18 -5.22749 -2.28232 0
M  V30 2414 O 234.114 -5.99795 -0.502925 0
M  V30 2415 H 237.94 -2.94082 0.758268 0
M  V30 2416 H 235.525 -1.42888 0.436289 0
M  V30 2417 H 237.407 -3.94586 -1.47917 0
M  V30 2418 H 236.082 -2.76695 -1.67993 0
M  V30 2419 H 234.989 -3.71571 0.43427 0
M  V30 2420 H 236.322 -4.89097 0.551805 0
M  V30 2421 N 237.974 -0.419461 -1.51915 0
M  V30 2422 C 239.199 0.154572 -2.06823 0
M  V30 2423 C 239.624 1.3722 -1.28656 0
M  V30 2424 O 238.982 1.78461 -0.319583 0
M  V30 2425 C 239.03 0.473172 -3.57482 0
M  V30 2426 O 238.134 1.56255 -3.81652 0
M  V30 2427 H 237.475 0.0096924 -0.663929 0
M  V30 2428 H 240.005 -0.595642 -1.95738 0
M  V30 2429 H 240.015 0.728825 -4.01438 0
M  V30 2430 H 238.69 -0.416873 -4.13805 0
M  V30 2431 H 237.267 1.29825 -3.49571 0
M  V30 2432 N 239.452 1.56882 -0.150215 0
M  V30 2433 C 240.698 1.96518 0.500834 0
M  V30 2434 C 241.031 1.03527 1.64304 0
M  V30 2435 O 240.306 0.0782751 1.94342 0
M  V30 2436 C 240.589 3.45822 1.00395 0
M  V30 2437 C 240.442 4.49591 -0.136983 0
M  V30 2438 C 241.761 3.97704 1.88467 0
M  V30 2439 H 238.88 0.714535 0.18058 0
M  V30 2440 H 241.522 1.88577 -0.232091 0
M  V30 2441 H 239.672 3.5272 1.62851 0
M  V30 2442 H 241.344 4.5477 -0.77343 0
M  V30 2443 H 239.587 4.26441 -0.795652 0
M  V30 2444 H 240.258 5.51402 0.256815 0
M  V30 2445 H 242.734 3.93304 1.35834 0
M  V30 2446 H 241.61 5.0263 2.20578 0
M  V30 2447 H 241.871 3.40252 2.82279 0
M  V30 2448 N 240.93 -0.123565 1.57115 0
M  V30 2449 C 242.158 -0.846461 1.88793 0
M  V30 2450 C 242.573 -1.73652 0.740976 0
M  V30 2451 O 241.93 -1.80207 -0.288393 0
M  V30 2452 C 241.981 -1.6837 3.19897 0
M  V30 2453 O 241.702 -0.829477 4.30176 0
M  V30 2454 C 243.203 -2.51214 3.65248 0
M  V30 2455 H 240.423 -0.243573 0.625231 0
M  V30 2456 H 242.967 -0.109324 2.04208 0
M  V30 2457 H 241.122 -2.37364 3.06165 0
M  V30 2458 H 241.536 -1.40651 5.0529 0
M  V30 2459 H 243.01 -3.05497 4.59756 0
M  V30 2460 H 243.487 -3.28359 2.9168 0
M  V30 2461 H 244.093 -1.8747 3.81752 0
M  V30 2462 N 242.408 -1.52605 -0.393616 0
M  V30 2463 C 243.318 -1.79971 -1.50492 0
M  V30 2464 C 244.334 -0.686181 -1.59899 0
M  V30 2465 O 245.51 -0.973274 -1.76322 0
M  V30 2466 C 242.575 -1.95867 -2.86072 0
M  V30 2467 C 241.636 -3.19781 -2.86424 0
M  V30 2468 C 240.869 -3.34909 -4.15538 0
M  V30 2469 O 241.092 -2.54948 -5.10253 0
M  V30 2470 O 240.026 -4.28141 -4.23059 0
M  V30 2471 H 243.852 -2.74328 -1.30299 0
M  V30 2472 H 241.437 -1.3764 -0.581005 0
M  V30 2473 H 243.319 -2.08056 -3.66457 0
M  V30 2474 H 241.994 -1.04699 -3.063 0
M  V30 2475 H 240.901 -3.13038 -2.04837 0
M  V30 2476 H 242.234 -4.1078 -2.71147 0
M  V30 2477 N 243.887 0.651787 -1.4349 0
M  V30 2478 C 244.819 1.77725 -1.44729 0
M  V30 2479 C 245.832 1.59141 -0.343231 0
M  V30 2480 O 247.021 1.67835 -0.607751 0
M  V30 2481 C 244.121 3.15172 -1.24579 0
M  V30 2482 C 243.294 3.60402 -2.47849 0
M  V30 2483 C 242.353 4.76656 -2.22902 0
M  V30 2484 O 241.379 4.86022 -2.96263 0
M  V30 2485 N 242.581 5.66958 -1.24656 0
M  V30 2486 H 245.346 1.77141 -2.41746 0
M  V30 2487 H 242.907 0.835678 -1.38665 0
M  V30 2488 H 244.899 3.90634 -1.0577 0
M  V30 2489 H 243.469 3.1052 -0.360015 0
M  V30 2490 H 242.689 2.75369 -2.82073 0
M  V30 2491 H 243.977 3.87368 -3.29884 0
M  V30 2492 H 243.375 5.62065 -0.640265 0
M  V30 2493 H 241.932 6.42135 -1.1183 0
M  V30 2494 N 245.365 1.30045 0.890287 0
M  V30 2495 C 246.642 1.09227 1.62262 0
M  V30 2496 C 247.022 -0.360305 2.08002 0
M  V30 2497 O 246.37 -1.35084 1.84295 0
M  V30 2498 C 246.58 2.08835 2.79623 0
M  V30 2499 C 247.928 2.40266 3.50082 0
M  V30 2500 O 248.952 2.07104 2.89804 0
M  V30 2501 O 247.811 2.96967 4.58773 0
M  V30 2502 H 244.905 0.419132 0.712922 0
M  V30 2503 H 247.451 1.41451 0.937529 0
M  V30 2504 H 246.223 3.06633 2.43089 0
M  V30 2505 H 245.846 1.77397 3.55832 0
M  V30 2506 N 246.843 -1.10192 1.12674 0
M  V30 2507 C 248.068 -1.86523 0.906853 0
M  V30 2508 C 248.493 -1.80221 -0.538711 0
M  V30 2509 O 247.851 -1.17396 -1.38158 0
M  V30 2510 C 247.899 -3.32758 1.3894 0
M  V30 2511 O 247.003 -4.08449 0.5695 0
M  V30 2512 H 246.344 -0.578678 0.325619 0
M  V30 2513 H 248.874 -1.39203 1.49946 0
M  V30 2514 H 248.884 -3.83608 1.38958 0
M  V30 2515 H 247.559 -3.36661 2.44197 0
M  V30 2516 H 246.136 -3.67427 0.636528 0
M  V30 2517 N 248.321 -0.919034 -1.28029 0
M  V30 2518 C 249.268 -0.410005 -2.27129 0
M  V30 2519 C 250.238 0.518405 -1.57803 0
M  V30 2520 O 251.423 0.439451 -1.8567 0
M  V30 2521 C 248.563 0.339054 -3.4343 0
M  V30 2522 C 247.676 -0.622468 -4.27492 0
M  V30 2523 C 246.811 0.145567 -5.31001 0
M  V30 2524 C 245.85 -0.809226 -6.06727 0
M  V30 2525 N 244.987 -0.0743728 -7.02061 0
M  V30 2526 H 249.827 -1.26011 -2.70047 0
M  V30 2527 H 247.364 -0.632663 -1.328 0
M  V30 2528 H 249.322 0.789586 -4.0966 0
M  V30 2529 H 247.952 1.15346 -3.01488 0
M  V30 2530 H 247.004 -1.19153 -3.61257 0
M  V30 2531 H 248.316 -1.35252 -4.80113 0
M  V30 2532 H 247.47 0.656417 -6.03139 0
M  V30 2533 H 246.209 0.908643 -4.79161 0
M  V30 2534 H 245.214 -1.3314 -5.33436 0
M  V30 2535 H 246.439 -1.57194 -6.60656 0
M  V30 2536 H 244.385 0.670616 -6.52563 0
M  V30 2537 H 244.302 -0.744157 -7.52329 0
M  V30 2538 H 245.57 0.416109 -7.78389 0
M  V30 2539 N 249.799 1.42003 -0.683588 0
M  V30 2540 C 251.076 1.95112 -0.138075 0
M  V30 2541 C 251.456 1.62359 1.34918 0
M  V30 2542 O 250.804 0.924311 2.08971 0
M  V30 2543 C 251.014 3.46505 -0.416581 0
M  V30 2544 C 252.362 4.23254 -0.337834 0
M  V30 2545 O 253.386 3.54468 -0.35082 0
M  V30 2546 O 252.245 5.45743 -0.287596 0
M  V30 2547 H 249.339 0.826961 -0.00797996 0
M  V30 2548 H 251.885 1.51784 -0.758924 0
M  V30 2549 H 250.657 3.63582 -1.4465 0
M  V30 2550 H 250.28 3.969 0.235839 0
M  V30 2551 N 251.277 0.427512 1.51691 0
M  V30 2552 C 252.502 -0.143601 2.06902 0
M  V30 2553 C 252.927 -1.36536 1.29382 0
M  V30 2554 O 252.285 -1.78289 0.329043 0
M  V30 2555 C 252.333 -0.454207 3.57728 0
M  V30 2556 O 251.437 -1.54228 3.82475 0
M  V30 2557 H 250.778 -0.00617128 0.663971 0
M  V30 2558 H 253.308 0.606014 1.95419 0
M  V30 2559 H 253.318 -0.707525 4.01818 0
M  V30 2560 H 251.993 0.438812 4.13579 0
M  V30 2561 H 250.57 -1.2797 3.50254 0
M  V30 2562 N 252.755 -1.56801 0.158532 0
M  V30 2563 C 253.983 -2.00859 -0.496303 0
M  V30 2564 C 254.398 -1.03871 -1.57659 0
M  V30 2565 O 253.755 -0.0375165 -1.82461 0
M  V30 2566 C 253.806 -3.4479 -1.08638 0
M  V30 2567 O 253.527 -4.38072 -0.0492322 0
M  V30 2568 C 255.028 -4.04185 -1.8207 0
M  V30 2569 H 252.248 -0.65864 -0.128199 0
M  V30 2570 H 254.792 -2.02885 0.256506 0
M  V30 2571 H 252.947 -3.43579 -1.78975 0
M  V30 2572 H 253.361 -5.2227 -0.483102 0
M  V30 2573 H 254.835 -5.06857 -2.18633 0
M  V30 2574 H 255.312 -3.45549 -2.71095 0
M  V30 2575 H 255.918 -4.0906 -1.16405 0
M  V30 2576 N 254.233 0.115231 -1.57178 0
M  V30 2577 C 255.463 0.835224 -1.88964 0
M  V30 2578 C 255.871 1.73774 -0.74829 0
M  V30 2579 O 255.214 1.81401 0.289739 0
M  V30 2580 C 255.276 1.7178 -3.15804 0
M  V30 2581 C 254.94 0.989198 -4.46166 0
M  V30 2582 C 255.937 0.328263 -5.18863 0
M  V30 2583 C 253.622 0.969256 -4.9286 0
M  V30 2584 C 255.616 -0.342873 -6.36477 0
M  V30 2585 C 253.303 0.294324 -6.10391 0
M  V30 2586 C 254.301 -0.360582 -6.82048 0
M  V30 2587 O 253.989 -1.02474 -7.97342 0
M  V30 2588 H 253.721 0.245197 -0.629964 0
M  V30 2589 H 256.275 0.10303 -2.05141 0
M  V30 2590 H 254.505 2.49173 -2.95719 0
M  V30 2591 H 256.194 2.31255 -3.33581 0
M  V30 2592 H 256.96 0.335263 -4.8384 0
M  V30 2593 H 252.839 1.46844 -4.36987 0
M  V30 2594 H 256.383 -0.854629 -6.92345 0
M  V30 2595 H 252.28 0.285099 -6.4487 0
M  V30 2596 H 253.048 -0.929594 -8.13204 0
M  V30 2597 N 255.711 1.52812 0.385517 0
M  V30 2598 C 256.936 1.72207 1.15583 0
M  V30 2599 C 257.361 0.441034 1.82857 0
M  V30 2600 O 256.719 -0.603465 1.70962 0
M  V30 2601 C 256.767 2.87476 2.17692 0
M  V30 2602 O 255.871 2.54693 3.24354 0
M  V30 2603 H 255.212 0.572526 0.336319 0
M  V30 2604 H 257.742 1.99618 0.448744 0
M  V30 2605 H 257.752 3.13072 2.6163 0
M  V30 2606 H 256.427 3.80408 1.68115 0
M  V30 2607 H 255.004 2.3985 2.85529 0
M  V30 2608 N 257.189 -0.644168 1.43834 0
M  V30 2609 C 258.119 -1.76814 1.52509 0
M  V30 2610 C 259.1 -1.65823 0.379052 0
M  V30 2611 O 260.285 -1.84781 0.597466 0
M  V30 2612 C 257.415 -3.15288 1.4564 0
M  V30 2613 C 256.369 -3.41053 2.58586 0
M  V30 2614 C 255.695 -4.79421 2.36769 0
M  V30 2615 C 256.995 -3.34902 4.00797 0
M  V30 2616 H 258.689 -1.69812 2.46586 0
M  V30 2617 H 256.235 -0.815542 1.1868 0
M  V30 2618 H 258.188 -3.93681 1.50311 0
M  V30 2619 H 256.912 -3.23043 0.480725 0
M  V30 2620 H 255.571 -2.65035 2.53282 0
M  V30 2621 H 255.219 -4.83863 1.37424 0
M  V30 2622 H 254.919 -4.9762 3.12487 0
M  V30 2623 H 256.443 -5.6006 2.43238 0
M  V30 2624 H 257.857 -4.03218 4.07539 0
M  V30 2625 H 256.254 -3.64637 4.76613 0
M  V30 2626 H 257.324 -2.32928 4.25291 0
M  V30 2627 N 258.668 -1.30515 -0.883378 0
M  V30 2628 C 259.893 -1.22487 -1.67367 0
M  V30 2629 C 260.318 0.208767 -1.86938 0
M  V30 2630 O 259.676 1.15015 -1.40148 0
M  V30 2631 C 259.724 -1.96041 -3.02655 0
M  V30 2632 O 258.828 -1.28859 -3.91751 0
M  V30 2633 H 258.169 -0.423573 -0.511353 0
M  V30 2634 H 260.699 -1.72362 -1.10239 0
M  V30 2635 H 260.709 -2.05124 -3.52687 0
M  V30 2636 H 259.384 -3.00307 -2.8773 0
M  V30 2637 H 257.961 -1.28141 -3.50192 0
M  V30 2638 N 260.146 1.09593 -1.13257 0
M  V30 2639 C 261.371 1.8604 -0.916732 0
M  V30 2640 C 261.796 1.80504 0.529146 0
M  V30 2641 O 261.154 1.18127 1.37534 0
M  V30 2642 C 261.202 3.32017 -1.40703 0
M  V30 2643 O 260.306 4.08141 -0.591153 0
M  V30 2644 H 259.647 0.576943 -0.328683 0
M  V30 2645 H 262.177 1.38405 -1.50682 0
M  V30 2646 H 262.187 3.82865 -1.4099 0
M  V30 2647 H 260.862 3.35361 -2.45979 0
M  V30 2648 H 259.439 3.67084 -0.656005 0
M  V30 2649 N 261.624 0.925811 1.2754 0
M  V30 2650 C 262.852 0.581509 1.9856 0
M  V30 2651 C 263.267 -0.840041 1.69082 0
M  V30 2652 O 262.624 -1.55805 0.950312 0
M  V30 2653 C 262.675 0.795589 3.52637 0
M  V30 2654 O 262.396 2.16121 3.81082 0
M  V30 2655 C 263.897 0.459744 4.4091 0
M  V30 2656 H 261.117 0.220538 0.633722 0
M  V30 2657 H 263.661 1.24232 1.6244 0
M  V30 2658 H 261.816 0.18161 3.86974 0
M  V30 2659 H 262.23 2.2098 4.75676 0
M  V30 2660 H 263.704 0.660244 5.48037 0
M  V30 2661 H 264.181 -0.604625 4.35018 0
M  V30 2662 H 264.787 1.05178 4.12089 0
M  V30 2663 N 263.102 -1.41638 0.69111 0
M  V30 2664 C 264.032 -2.3347 0.037248 0
M  V30 2665 C 265.013 -1.51575 -0.771947 0
M  V30 2666 O 266.198 -1.80126 -0.72582 0
M  V30 2667 C 263.328 -3.35354 -0.903064 0
M  V30 2668 C 262.282 -4.27526 -0.201288 0
M  V30 2669 C 261.608 -5.19747 -1.25565 0
M  V30 2670 C 262.908 -5.13959 0.929689 0
M  V30 2671 H 264.602 -2.88397 0.804227 0
M  V30 2672 H 262.148 -1.38669 0.388189 0
M  V30 2673 H 264.101 -3.98519 -1.36969 0
M  V30 2674 H 262.825 -2.78767 -1.70166 0
M  V30 2675 H 261.484 -3.65779 0.245265 0
M  V30 2676 H 261.132 -4.59479 -2.04666 0
M  V30 2677 H 260.832 -5.8225 -0.791128 0
M  V30 2678 H 262.356 -5.85789 -1.72288 0
M  V30 2679 H 263.77 -5.70718 0.543546 0
M  V30 2680 H 262.167 -5.85379 1.32103 0
M  V30 2681 H 263.237 -4.51389 1.77133 0
M  V30 2682 N 264.58 -0.43555 -1.51462 0
M  V30 2683 C 265.808 0.130242 -2.0649 0
M  V30 2684 C 266.223 1.36614 -1.30315 0
M  V30 2685 O 265.58 1.78869 -0.362223 0
M  V30 2686 C 265.631 0.454253 -3.58635 0
M  V30 2687 O 265.352 -0.73259 -4.31931 0
M  V30 2688 C 266.853 1.07091 -4.3017 0
M  V30 2689 H 264.073 0.00871669 -0.670943 0
M  V30 2690 H 266.617 -0.614117 -1.95061 0
M  V30 2691 H 264.772 1.14851 -3.69984 0
M  V30 2692 H 265.186 -0.455787 -5.22516 0
M  V30 2693 H 266.66 1.24764 -5.37716 0
M  V30 2694 H 267.137 2.05144 -3.88346 0
M  V30 2695 H 267.743 0.416089 -4.2326 0
M  V30 2696 N 266.058 1.56714 -0.166846 0
M  V30 2697 C 266.988 2.20754 0.760913 0
M  V30 2698 C 267.969 1.16178 1.24244 0
M  V30 2699 O 269.154 1.44592 1.29641 0
M  V30 2700 C 266.284 2.84478 1.99223 0
M  V30 2701 C 265.238 3.95053 1.64672 0
M  V30 2702 C 264.564 4.45805 2.95232 0
M  V30 2703 C 265.864 5.14865 0.878155 0
M  V30 2704 H 267.558 2.98537 0.22713 0
M  V30 2705 H 265.104 1.43596 0.107805 0
M  V30 2706 H 267.057 3.27951 2.64624 0
M  V30 2707 H 265.781 2.04056 2.55007 0
M  V30 2708 H 264.44 3.52228 1.01641 0
M  V30 2709 H 264.088 3.62181 3.49047 0
M  V30 2710 H 263.788 5.204 2.7287 0
M  V30 2711 H 265.312 4.91962 3.6167 0
M  V30 2712 H 266.726 5.55059 1.43466 0
M  V30 2713 H 265.123 5.95348 0.753738 0
M  V30 2714 H 266.193 4.84735 -0.126377 0
M  V30 2715 N 267.536 -0.106894 1.57237 0
M  V30 2716 C 268.761 -0.830287 1.90055 0
M  V30 2717 C 269.186 -1.72064 0.75998 0
M  V30 2718 O 268.544 -1.78982 -0.288991 0
M  V30 2719 C 268.592 -1.6295 3.21683 0
M  V30 2720 O 267.696 -2.73748 3.08441 0
M  V30 2721 H 267.037 -0.228855 0.623315 0
M  V30 2722 H 269.567 -0.085658 2.04421 0
M  V30 2723 H 269.577 -2.01621 3.54701 0
M  V30 2724 H 268.252 -0.975989 4.04286 0
M  V30 2725 H 266.829 -2.38192 2.86913 0
M  V30 2726 N 269.014 -1.53014 -0.377408 0
M  V30 2727 C 269.961 -1.78616 -1.46168 0
M  V30 2728 C 270.931 -0.629917 -1.53692 0
M  V30 2729 O 272.116 -0.870861 -1.69766 0
M  V30 2730 C 269.256 -1.97123 -2.8326 0
M  V30 2731 C 268.369 -3.24831 -2.84796 0
M  V30 2732 C 267.504 -3.33591 -4.13389 0
M  V30 2733 C 266.543 -4.55377 -4.09021 0
M  V30 2734 N 265.68 -4.61355 -5.29241 0
M  V30 2735 H 270.52 -2.71142 -1.23637 0
M  V30 2736 H 268.057 -1.34326 -0.599577 0
M  V30 2737 H 270.015 -2.05839 -3.62886 0
M  V30 2738 H 268.645 -1.07946 -3.04216 0
M  V30 2739 H 267.697 -3.25128 -1.97474 0
M  V30 2740 H 269.009 -4.14523 -2.77439 0
M  V30 2741 H 268.163 -3.41554 -5.01424 0
M  V30 2742 H 266.902 -2.41894 -4.23484 0
M  V30 2743 H 265.907 -4.47527 -3.19373 0
M  V30 2744 H 267.132 -5.48402 -4.00539 0
M  V30 2745 H 265.078 -3.72554 -5.39944 0
M  V30 2746 H 264.995 -5.44935 -5.24006 0
M  V30 2747 H 266.263 -4.73586 -6.19141 0
M  V30 2748 N 270.492 0.636531 -1.44174 0
M  V30 2749 C 271.455 1.73063 -1.50273 0
M  V30 2750 C 272.455 1.56113 -0.385397 0
M  V30 2751 O 273.645 1.61707 -0.64781 0
M  V30 2752 C 270.777 3.12096 -1.37145 0
M  V30 2753 H 271.97 1.69031 -2.47727 0
M  V30 2754 H 269.523 0.849706 -1.31186 0
M  V30 2755 H 270.258 3.21728 -0.407636 0
M  V30 2756 H 270.043 3.25805 -2.18159 0
M  V30 2757 H 271.533 3.91846 -1.44382 0
M  V30 2758 N 271.97 1.30982 0.876444 0
M  V30 2759 C 273.247 1.10942 1.61094 0
M  V30 2760 C 273.627 -0.338223 2.08373 0
M  V30 2761 O 272.975 -1.33122 1.85717 0
M  V30 2762 C 273.185 2.11789 2.77392 0
M  V30 2763 C 274.533 2.43965 3.47514 0
M  V30 2764 O 275.557 2.10166 2.87591 0
M  V30 2765 O 274.416 3.01817 4.55597 0
M  V30 2766 H 271.51 0.42667 0.708436 0
M  V30 2767 H 274.056 1.42438 0.922474 0
M  V30 2768 H 272.828 3.09194 2.39823 0
M  V30 2769 H 272.451 1.81161 3.5393 0
M  V30 2770 N 273.449 -1.08991 1.13837 0
M  V30 2771 C 274.679 -1.84743 0.924859 0
M  V30 2772 C 275.087 -1.81629 -0.529874 0
M  V30 2773 O 274.43 -1.21397 -1.37872 0
M  V30 2774 C 274.492 -3.33568 1.34061 0
M  V30 2775 C 274.156 -3.60425 2.80968 0
M  V30 2776 C 275.153 -3.55771 3.79108 0
M  V30 2777 C 272.838 -3.88627 3.18236 0
M  V30 2778 C 274.832 -3.78939 5.12527 0
M  V30 2779 C 272.519 -4.11449 4.51833 0
M  V30 2780 C 273.517 -4.06598 5.48787 0
M  V30 2781 O 273.205 -4.28826 6.79973 0
M  V30 2782 H 272.937 -0.590258 0.329502 0
M  V30 2783 H 275.491 -1.38598 1.51591 0
M  V30 2784 H 273.721 -3.80442 0.692853 0
M  V30 2785 H 275.41 -3.90743 1.09886 0
M  V30 2786 H 276.176 -3.34005 3.51661 0
M  V30 2787 H 272.055 -3.91526 2.43369 0
M  V30 2788 H 275.599 -3.75068 5.88192 0
M  V30 2789 H 271.496 -4.32698 4.79002 0
M  V30 2790 H 272.264 -4.46264 6.86142 0
M  V30 2791 N 274.927 -0.932562 -1.27047 0
M  V30 2792 C 275.837 -0.441219 -2.30414 0
M  V30 2793 C 276.853 0.480525 -1.67233 0
M  V30 2794 O 278.029 0.362151 -1.98117 0
M  V30 2795 C 275.094 0.293651 -3.45454 0
M  V30 2796 C 274.155 -0.663601 -4.2414 0
M  V30 2797 C 273.388 0.0362932 -5.33688 0
M  V30 2798 O 273.611 1.2548 -5.56427 0
M  V30 2799 O 272.545 -0.638015 -5.98509 0
M  V30 2800 H 276.371 -1.29962 -2.74488 0
M  V30 2801 H 273.956 -0.6981 -1.32087 0
M  V30 2802 H 275.838 0.707951 -4.15411 0
M  V30 2803 H 274.513 1.12758 -3.03426 0
M  V30 2804 H 273.42 -1.12768 -3.56699 0
M  V30 2805 H 274.753 -1.46489 -4.69896 0
M  V30 2806 N 276.405 1.4127 -0.698611 0
M  V30 2807 C 277.352 2.30773 -0.0352094 0
M  V30 2808 C 278.322 1.47273 0.768111 0
M  V30 2809 O 279.507 1.76053 0.735524 0
M  V30 2810 C 276.647 3.33346 0.893 0
M  V30 2811 C 275.76 4.31924 0.0809695 0
M  V30 2812 C 274.895 5.21566 1.0071 0
M  V30 2813 C 273.934 6.11811 0.188155 0
M  V30 2814 N 273.071 6.93926 1.06825 0
M  V30 2815 H 277.911 2.86943 -0.804207 0
M  V30 2816 H 275.448 1.4132 -0.408294 0
M  V30 2817 H 277.406 3.91368 1.44523 0
M  V30 2818 H 276.036 2.78719 1.62836 0
M  V30 2819 H 275.088 3.75825 -0.588224 0
M  V30 2820 H 276.4 4.95716 -0.553801 0
M  V30 2821 H 275.554 5.84437 1.62845 0
M  V30 2822 H 274.293 4.58008 1.67572 0
M  V30 2823 H 273.298 5.47986 -0.446254 0
M  V30 2824 H 274.523 6.77425 -0.476716 0
M  V30 2825 H 272.469 6.32973 1.72283 0
M  V30 2826 H 272.386 7.54416 0.489123 0
M  V30 2827 H 273.654 7.61262 1.67632 0
M  V30 2828 N 277.883 0.443576 1.51229 0
M  V30 2829 C 278.833 -0.382787 2.24764 0
M  V30 2830 C 279.817 -0.984836 1.27239 0
M  V30 2831 O 281.009 -0.901943 1.52296 0
M  V30 2832 C 278.138 -1.47989 3.09765 0
M  V30 2833 C 277.224 -0.886931 4.14722 0
M  V30 2834 N 277.615 -0.0237103 5.05794 0
M  V30 2835 C 275.913 -1.15385 4.30816 0
M  V30 2836 C 276.614 0.309971 5.80874 0
M  V30 2837 N 275.59 -0.307989 5.42727 0
M  V30 2838 H 279.392 0.282624 2.92538 0
M  V30 2839 H 276.906 0.256027 1.60369 0
M  V30 2840 H 278.903 -2.08482 3.61027 0
M  V30 2841 H 277.563 -2.14758 2.43535 0
M  V30 2842 H 278.574 0.34318 5.16762 0
M  V30 2843 H 275.251 -1.81857 3.75812 0
M  V30 2844 H 276.641 1.01279 6.64223 0
M  V30 2845 N 279.361 -1.56624 0.175154 0
M  V30 2846 C 280.308 -2.18149 -0.753634 0
M  V30 2847 C 281.278 -1.12265 -1.22417 0
M  V30 2848 O 282.463 -1.40432 -1.29165 0
M  V30 2849 C 279.603 -2.82933 -1.97592 0
M  V30 2850 C 278.716 -4.03289 -1.5486 0
M  V30 2851 C 277.851 -4.55988 -2.72485 0
M  V30 2852 C 276.89 -5.68746 -2.26262 0
M  V30 2853 N 276.027 -6.15938 -3.36994 0
M  V30 2854 H 280.867 -2.9717 -0.222195 0
M  V30 2855 H 278.404 -1.46774 -0.0979422 0
M  V30 2856 H 280.362 -3.18653 -2.69288 0
M  V30 2857 H 278.992 -2.06509 -2.481 0
M  V30 2858 H 278.044 -3.73364 -0.728246 0
M  V30 2859 H 279.356 -4.849 -1.16933 0
M  V30 2860 H 278.51 -4.9391 -3.52332 0
M  V30 2861 H 277.249 -3.73443 -3.13674 0
M  V30 2862 H 276.254 -5.30372 -1.44863 0
M  V30 2863 H 277.479 -6.53095 -1.86127 0
M  V30 2864 H 275.425 -5.36321 -3.77751 0
M  V30 2865 H 275.342 -6.92548 -3.03172 0
M  V30 2866 H 276.61 -6.58511 -4.17114 0
M  V30 2867 N 280.839 0.0985539 -1.57292 0
M  V30 2868 C 282.085 0.803867 -1.86188 0
M  V30 2869 C 282.418 1.78549 -0.763794 0
M  V30 2870 O 281.693 1.93153 0.22855 0
M  V30 2871 C 281.976 1.53568 -3.25713 0
M  V30 2872 C 281.829 0.572277 -4.46145 0
M  V30 2873 C 283.148 2.48708 -3.63087 0
M  V30 2874 H 280.267 0.290781 -0.677211 0
M  V30 2875 H 282.909 0.0675783 -1.8988 0
M  V30 2876 H 281.059 2.16332 -3.22696 0
M  V30 2877 H 282.731 -0.0480894 -4.61275 0
M  V30 2878 H 280.974 -0.114618 -4.33649 0
M  V30 2879 H 281.645 1.12139 -5.40489 0
M  V30 2880 H 284.121 1.96039 -3.67026 0
M  V30 2881 H 282.997 2.96932 -4.61652 0
M  V30 2882 H 283.258 3.32309 -2.91588 0
M  V30 2883 N 282.317 1.53212 0.369288 0
M  V30 2884 C 283.547 1.72868 1.13139 0
M  V30 2885 C 283.955 0.455754 1.83629 0
M  V30 2886 O 283.298 -0.580861 1.74275 0
M  V30 2887 C 283.36 2.83667 2.20847 0
M  V30 2888 C 283.024 4.24142 1.70155 0
M  V30 2889 C 284.021 5.06619 1.16763 0
M  V30 2890 C 281.706 4.70539 1.7578 0
M  V30 2891 C 283.7 6.33581 0.696678 0
M  V30 2892 C 281.387 5.97481 1.28297 0
M  V30 2893 C 282.385 6.78833 0.753307 0
M  V30 2894 O 282.073 8.03393 0.285475 0
M  V30 2895 H 281.805 0.581707 0.344373 0
M  V30 2896 H 284.359 2.00736 0.435243 0
M  V30 2897 H 282.589 2.51265 2.93944 0
M  V30 2898 H 284.278 2.91536 2.82421 0
M  V30 2899 H 285.044 4.71948 1.11758 0
M  V30 2900 H 280.923 4.07293 2.15949 0
M  V30 2901 H 284.467 6.97027 0.282581 0
M  V30 2902 H 280.364 6.31651 1.32994 0
M  V30 2903 H 281.132 8.17497 0.405145 0
M  V30 2904 N 283.795 -0.628877 1.44509 0
M  V30 2905 C 284.758 -1.72263 1.51188 0
M  V30 2906 C 285.758 -1.55907 0.39367 0
M  V30 2907 O 286.948 -1.61361 0.656377 0
M  V30 2908 C 284.08 -3.11365 1.38798 0
M  V30 2909 H 285.273 -1.67714 2.4862 0
M  V30 2910 H 282.826 -0.842737 1.31634 0
M  V30 2911 H 283.561 -3.21507 0.424693 0
M  V30 2912 H 283.346 -3.24644 2.19884 0
M  V30 2913 H 284.836 -3.91075 1.46458 0
M  V30 2914 N 285.273 -1.31445 -0.869486 0
M  V30 2915 C 286.513 -1.22458 -1.63656 0
M  V30 2916 C 286.877 0.213846 -1.90805 0
M  V30 2917 O 288.078 0.427212 -2.65383 0
M  V30 2918 C 286.349 -2.04564 -2.93067 0
M  V30 2919 S 287.908 -2.12445 -3.83944 0
M  V30 2920 H 284.726 -0.436145 -0.561514 0
M  V30 2921 H 287.328 -1.66114 -1.03085 0
M  V30 2922 H 286.032 -3.0816 -2.71045 0
M  V30 2923 H 285.563 -1.6163 -3.58663 0
M  V30 2924 H 287.578 -1.26312 -4.79854 0
M  V30 2925 N 286.751 1.08385 -1.14413 0
M  V30 2926 C 287.661 2.18856 -0.844951 0
M  V30 2927 C 288.677 1.73121 0.174668 0
M  V30 2928 O 289.853 2.014 0.00312857 0
M  V30 2929 C 286.918 3.45155 -0.32696 0
M  V30 2930 C 285.979 4.05513 -1.40916 0
M  V30 2931 C 285.212 5.25784 -0.915793 0
M  V30 2932 O 285.435 5.69884 0.242651 0
M  V30 2933 O 284.369 5.77545 -1.69487 0
M  V30 2934 H 288.195 2.46919 -1.76818 0
M  V30 2935 H 285.78 1.17524 -0.922411 0
M  V30 2936 H 287.662 4.21377 -0.0440211 0
M  V30 2937 H 286.337 3.18668 0.568539 0
M  V30 2938 H 285.244 3.30879 -1.74556 0
M  V30 2939 H 286.577 4.3625 -2.27919 0
M  V30 2940 N 288.23 0.939286 1.26551 0
M  V30 2941 C 289.476 0.586715 1.94128 0
M  V30 2942 C 289.809 -0.8717 1.73537 0
M  V30 2943 O 289.084 -1.62339 1.07127 0
M  V30 2944 C 289.367 0.927497 3.4795 0
M  V30 2945 C 289.22 2.44052 3.77834 0
M  V30 2946 C 290.539 0.441569 4.37879 0
M  V30 2947 H 287.658 0.21463 0.705055 0
M  V30 2948 H 290.3 1.17316 1.49455 0
M  V30 2949 H 288.45 0.428431 3.8613 0
M  V30 2950 H 290.122 3.01216 3.4938 0
M  V30 2951 H 288.365 2.8848 3.23978 0
M  V30 2952 H 289.036 2.62947 4.85348 0
M  V30 2953 H 291.512 0.869448 4.06915 0
M  V30 2954 H 290.388 0.708856 5.44304 0
M  V30 2955 H 290.649 -0.658467 4.37169 0
M  V30 2956 N 289.708 -1.40897 0.706093 0
M  V30 2957 C 290.936 -2.05373 0.250887 0
M  V30 2958 C 291.351 -1.53172 -1.10381 0
M  V30 2959 O 290.708 -0.684305 -1.69185 0
M  V30 2960 C 290.759 -3.6088 0.211571 0
M  V30 2961 O 290.48 -4.11153 1.51276 0
M  V30 2962 C 291.981 -4.42517 -0.263346 0
M  V30 2963 H 289.201 -0.66115 0.114552 0
M  V30 2964 H 291.745 -1.80479 0.961635 0
M  V30 2965 H 289.9 -3.84777 -0.450073 0
M  V30 2966 H 290.314 -5.05279 1.40689 0
M  V30 2967 H 291.788 -5.51479 -0.239718 0
M  V30 2968 H 292.265 -4.19396 -1.30397 0
M  V30 2969 H 292.871 -4.23708 0.367677 0
M  V30 2970 N 291.186 -0.45159 -1.50991 0
M  V30 2971 C 292.136 0.370861 -2.24964 0
M  V30 2972 C 293.12 0.978074 -1.2776 0
M  V30 2973 O 294.312 0.893854 -1.52772 0
M  V30 2974 C 291.441 1.46344 -3.10545 0
M  V30 2975 C 290.527 0.864924 -4.15187 0
M  V30 2976 N 290.918 -0.00311354 -5.058 0
M  V30 2977 C 289.216 1.13099 -4.31422 0
M  V30 2978 C 289.917 -0.340772 -5.80701 0
M  V30 2979 N 288.893 0.279203 -5.42883 0
M  V30 2980 H 292.695 -0.298134 -2.92384 0
M  V30 2981 H 290.209 -0.264528 -1.60231 0
M  V30 2982 H 292.206 2.06565 -3.62128 0
M  V30 2983 H 290.866 2.13463 -2.4467 0
M  V30 2984 H 291.877 -0.37058 -5.16572 0
M  V30 2985 H 288.554 1.79861 -3.76771 0
M  V30 2986 H 289.944 -1.048 -6.63677 0
M  V30 2987 N 292.664 1.56529 -0.183458 0
M  V30 2988 C 293.596 2.15747 0.773697 0
M  V30 2989 C 294.609 1.1162 1.1851 0
M  V30 2990 O 295.798 1.3876 1.12285 0
M  V30 2991 C 292.898 2.6952 2.05456 0
M  V30 2992 C 292.071 3.98429 1.8048 0
M  V30 2993 C 291.13 4.37145 2.92901 0
M  V30 2994 O 290.156 5.04791 2.6301 0
M  V30 2995 N 291.358 3.99695 4.2098 0
M  V30 2996 H 294.123 2.98505 0.26736 0
M  V30 2997 H 291.684 1.619 -0.0010878 0
M  V30 2998 H 293.676 2.92412 2.79781 0
M  V30 2999 H 292.246 1.91282 2.47245 0
M  V30 3000 H 291.466 3.8379 0.899947 0
M  V30 3001 H 292.754 4.82597 1.61175 0
M  V30 3002 H 292.152 3.4526 4.48121 0
M  V30 3003 H 290.709 4.27562 4.9197 0
M  V30 3004 N 294.142 -0.090211 1.57342 0
M  V30 3005 C 295.39 -0.791241 1.85967 0
M  V30 3006 C 295.711 -1.7903 0.772859 0
M  V30 3007 O 294.981 -1.94872 -0.200398 0
M  V30 3008 H 293.561 -0.295205 0.686195 0
M  V30 3009 H 296.223 -0.0706782 1.94772 0
M  V30 3010 H 295.319 -1.31882 2.82867 0
M  V30 3011 N 295.62 -1.53406 -0.361157 0
M  V30 3012 C 296.55 -1.83136 -1.44857 0
M  V30 3013 C 297.531 -0.685174 -1.5569 0
M  V30 3014 O 298.716 -0.93544 -1.70186 0
M  V30 3015 C 295.846 -2.02522 -2.82138 0
M  V30 3016 C 294.8 -3.18302 -2.86126 0
M  V30 3017 C 294.126 -3.22989 -4.26125 0
M  V30 3018 C 295.426 -4.56796 -2.53248 0
M  V30 3019 H 297.12 -2.74201 -1.20226 0
M  V30 3020 H 294.666 -1.31938 -0.576922 0
M  V30 3021 H 296.619 -2.21904 -3.58241 0
M  V30 3022 H 295.343 -1.08172 -3.08166 0
M  V30 3023 H 294.002 -2.98747 -2.12475 0
M  V30 3024 H 293.65 -2.26267 -4.49235 0
M  V30 3025 H 293.35 -4.00781 -4.29708 0
M  V30 3026 H 294.874 -3.44559 -5.04094 0
M  V30 3027 H 296.288 -4.7631 -3.19064 0
M  V30 3028 H 294.685 -5.36862 -2.68141 0
M  V30 3029 H 295.755 -4.61606 -1.48484 0
M  V30 3030 N 297.098 0.621204 -1.44841 0
M  V30 3031 C 298.323 1.41244 -1.51871 0
M  V30 3032 C 298.748 1.87519 -0.147764 0
M  V30 3033 O 298.106 1.59334 0.865 0
M  V30 3034 C 298.154 2.60221 -2.49634 0
M  V30 3035 O 297.258 3.60395 -2.00473 0
M  V30 3036 H 296.599 0.42223 -0.512463 0
M  V30 3037 H 299.129 0.757305 -1.90069 0
M  V30 3038 H 299.139 3.0764 -2.67996 0
M  V30 3039 H 297.814 2.25887 -3.4921 0
M  V30 3040 H 296.391 3.19717 -1.91925 0
M  V30 3041 N 298.576 1.31904 0.862503 0
M  V30 3042 C 299.801 1.25135 1.65397 0
M  V30 3043 C 300.226 -0.179 1.87246 0
M  V30 3044 O 299.584 -1.1277 1.4196 0
M  V30 3045 C 299.632 2.00832 2.99498 0
M  V30 3046 O 298.736 1.35075 3.89652 0
M  V30 3047 H 298.077 0.431655 0.504549 0
M  V30 3048 H 300.607 1.74094 1.07483 0
M  V30 3049 H 300.617 2.10709 3.49379 0
M  V30 3050 H 299.292 3.04847 2.82916 0
M  V30 3051 H 297.869 1.33696 3.48109 0
M  V30 3052 N 300.054 -1.07777 1.14986 0
M  V30 3053 C 301.465 -1.61766 0.932127 0
M  V30 3054 C 301.816 -1.88974 -0.527581 0
M  V30 3055 O 300.941 -1.65198 -1.39781 0
M  V30 3056 C 301.536 -2.93891 1.68563 0
M  V30 3057 C 300.095 -3.44639 1.5133 0
M  V30 3058 C 299.242 -2.18767 1.704 0
M  V30 3059 H 302.193 -0.909201 1.30074 0
M  V30 3060 H 302.214 -3.62623 1.15259 0
M  V30 3061 H 301.726 -2.74057 2.74799 0
M  V30 3062 H 299.827 -3.69564 0.474702 0
M  V30 3063 H 299.94 -4.20966 2.28746 0
M  V30 3064 H 298.304 -2.28253 1.13016 0
M  V30 3065 H 299.087 -2.01433 2.77992 0
M  V30 3066 N 301.532 -0.945985 -1.26051 0
M  V30 3067 C 302.778 -0.597002 -1.93814 0
M  V30 3068 C 303.111 0.862484 -1.73997 0
M  V30 3069 O 302.386 1.61769 -1.07986 0
M  V30 3070 C 302.669 -0.945937 -3.47454 0
M  V30 3071 C 302.522 -2.46052 -3.76535 0
M  V30 3072 C 303.841 -0.464785 -4.37639 0
M  V30 3073 H 300.96 -0.218366 -0.703907 0
M  V30 3074 H 303.602 -1.18107 -1.48831 0
M  V30 3075 H 301.752 -0.448902 -3.85898 0
M  V30 3076 H 303.424 -3.03065 -3.47778 0
M  V30 3077 H 301.667 -2.90194 -3.22444 0
M  V30 3078 H 302.338 -2.65517 -4.83947 0
M  V30 3079 H 304.814 -0.891016 -4.06448 0
M  V30 3080 H 303.69 -0.737712 -5.4392 0
M  V30 3081 H 303.951 0.635274 -4.37512 0
M  V30 3082 N 303.011 1.40521 -0.713556 0
M  V30 3083 C 304.239 2.05237 -0.261775 0
M  V30 3084 C 304.654 1.53755 1.09567 0
M  V30 3085 O 304.011 0.693268 1.6882 0
M  V30 3086 C 304.062 3.60763 -0.230706 0
M  V30 3087 O 303.783 4.10345 -1.53455 0
M  V30 3088 C 305.284 4.42651 0.239874 0
M  V30 3089 H 302.504 0.660533 -0.118057 0
M  V30 3090 H 305.048 1.79967 -0.971192 0
M  V30 3091 H 303.203 3.8501 0.429661 0
M  V30 3092 H 303.617 5.04526 -1.43366 0
M  V30 3093 H 305.091 5.51599 0.210468 0
M  V30 3094 H 305.568 4.20082 1.28171 0
M  V30 3095 H 306.174 4.23507 -0.390142 0
M  V30 3096 N 304.489 0.459591 1.5075 0
M  V30 3097 C 305.436 -0.340524 2.28274 0
M  V30 3098 C 306.406 -0.997371 1.32822 0
M  V30 3099 O 307.591 -1.01202 1.61749 0
M  V30 3100 C 304.731 -1.42317 3.14388 0
M  V30 3101 C 303.844 -0.782251 4.24859 0
M  V30 3102 C 302.979 -1.84182 4.98247 0
M  V30 3103 C 302.018 -1.18053 6.00608 0
M  V30 3104 N 301.155 -2.18244 6.67319 0
M  V30 3105 H 305.995 0.326899 2.96202 0
M  V30 3106 H 303.532 0.173057 1.46078 0
M  V30 3107 H 305.49 -2.06241 3.62658 0
M  V30 3108 H 304.12 -2.05992 2.4853 0
M  V30 3109 H 303.172 -0.0307404 3.80388 0
M  V30 3110 H 304.484 -0.259663 4.98124 0
M  V30 3111 H 303.638 -2.55714 5.50177 0
M  V30 3112 H 302.377 -2.39819 4.24662 0
M  V30 3113 H 301.382 -0.450776 5.47949 0
M  V30 3114 H 302.607 -0.631202 6.7616 0
M  V30 3115 H 300.553 -2.72919 5.96533 0
M  V30 3116 H 300.47 -1.70938 7.36421 0
M  V30 3117 H 301.738 -2.89191 7.23871 0
M  V30 3118 N 305.967 -1.56429 0.191757 0
M  V30 3119 C 307.192 -2.02309 -0.456706 0
M  V30 3120 C 307.617 -1.07103 -1.5463 0
M  V30 3121 O 306.975 -0.0539677 -1.8122 0
M  V30 3122 C 307.023 -3.46654 -0.993159 0
M  V30 3123 O 306.127 -3.54559 -2.10622 0
M  V30 3124 H 305.468 -0.655303 -0.107114 0
M  V30 3125 H 307.998 -2.02364 0.301653 0
M  V30 3126 H 308.008 -3.86377 -1.31061 0
M  V30 3127 H 306.683 -4.1544 -0.195504 0
M  V30 3128 H 305.26 -3.26708 -1.79767 0
M  V30 3129 N 307.445 0.0818655 -1.57387 0
M  V30 3130 C 308.692 0.782914 -1.86753 0
M  V30 3131 C 309.02 1.78082 -0.782118 0
M  V30 3132 O 308.275 1.94426 0.22295 0
M  V30 3133 C 308.574 1.53513 -3.22752 0
M  V30 3134 C 308.24 0.678134 -4.45771 0
M  V30 3135 C 306.902 0.441929 -4.79166 0
M  V30 3136 C 309.254 0.0832243 -5.21134 0
M  V30 3137 C 306.582 -0.398833 -5.85343 0
M  V30 3138 C 308.934 -0.744935 -6.28199 0
M  V30 3139 C 307.598 -0.991107 -6.60101 0
M  V30 3140 H 306.868 0.286489 -0.683378 0
M  V30 3141 H 309.515 0.0439808 -1.91449 0
M  V30 3142 H 307.82 2.34599 -3.138 0
M  V30 3143 H 309.517 2.08218 -3.42705 0
M  V30 3144 H 306.107 0.872357 -4.19628 0
M  V30 3145 H 310.291 0.252847 -4.95655 0
M  V30 3146 H 305.547 -0.598405 -6.08465 0
M  V30 3147 H 309.721 -1.21271 -6.8576 0
M  V30 3148 H 307.348 -1.64437 -7.42202 0
M  V30 3149 N 308.923 1.53595 0.353017 0
M  V30 3150 C 309.871 1.81605 1.45335 0
M  V30 3151 C 310.865 0.685923 1.54892 0
M  V30 3152 O 312.071 0.869095 1.57628 0
M  V30 3153 H 308.446 0.575204 0.484401 0
M  V30 3154 H 310.417 2.73679 1.18921 0
M  V30 3155 C 309.166 2.03406 2.81995 0
M  V30 3156 H 308.489 2.89814 2.75405 0
M  V30 3157 H 309.929 2.26975 3.58132 0
M  V30 3158 C 308.388 0.816794 3.26849 0
M  V30 3159 O 308.918 0.0115856 4.01698 0
M  V30 3160 N 307.124 0.636682 2.8354 0
M  V30 3161 H 306.671 1.2931 2.22793 0
M  V30 3162 H 306.629 -0.176336 3.13905 0
M  V30 3163 N 310.401 -0.613514 1.45168 0
M  V30 3164 C 311.817 -0.933629 1.29443 0
M  V30 3165 C 312.017 -2.00028 0.243101 0
M  V30 3166 O 311.073 -2.49848 -0.364992 0
M  V30 3167 C 312.386 -1.38018 2.67155 0
M  V30 3168 C 313.934 -1.49471 2.75004 0
M  V30 3169 C 314.409 -1.97503 4.13227 0
M  V30 3170 N 315.9 -2.04746 4.15491 0
M  V30 3171 C 316.635 -2.43121 5.19307 0
M  V30 3172 N 316.131 -2.80506 6.33473 0
M  V30 3173 N 317.924 -2.43408 5.06664 0
M  V30 3174 H 310.075 0.0916097 2.12202 0
M  V30 3175 H 312.338 -0.0216655 0.947752 0
M  V30 3176 H 312.044 -0.670625 3.45247 0
M  V30 3177 H 311.918 -2.34784 2.95222 0
M  V30 3178 H 314.305 -2.19519 1.9722 0
M  V30 3179 H 314.386 -0.510342 2.50657 0
M  V30 3180 H 314.03 -1.28045 4.91495 0
M  V30 3181 H 313.96 -2.96843 4.34962 0
M  V30 3182 H 316.451 -1.78468 3.33103 0
M  V30 3183 H 316.764 -3.08652 7.08487 0
M  V30 3184 H 315.109 -2.78216 6.36884 0
M  V30 3185 H 318.3 -2.13604 4.16523 0
M  V30 3186 H 318.473 -2.72989 5.87691 0
M  V30 3187 N 311.879 -1.3236 -0.855495 0
M  V30 3188 C 313.127 -1.22629 -1.60644 0
M  V30 3189 C 313.448 0.212136 -1.93843 0
M  V30 3190 O 312.718 1.13666 -1.59552 0
M  V30 3191 H 311.298 -0.450882 -0.595579 0
M  V30 3192 H 313.96 -1.65871 -1.02337 0
M  V30 3193 H 313.056 -1.80832 -2.54374 0
M  V30 3194 N 313.357 1.07166 -1.15556 0
M  V30 3195 C 314.267 2.17947 -0.868116 0
M  V30 3196 C 315.283 1.73297 0.156297 0
M  V30 3197 O 316.459 2.01392 -0.0182327 0
M  V30 3198 C 313.524 3.44789 -0.36355 0
M  V30 3199 C 312.585 4.03996 -1.45209 0
M  V30 3200 C 311.818 5.24783 -0.971508 0
M  V30 3201 O 312.041 5.70109 0.182194 0
M  V30 3202 O 310.975 5.75715 -1.75603 0
M  V30 3203 H 314.801 2.4503 -1.79427 0
M  V30 3204 H 312.386 1.16539 -0.934824 0
M  V30 3205 H 314.268 4.21307 -0.0887113 0
M  V30 3206 H 312.943 3.19253 0.534708 0
M  V30 3207 H 311.85 3.29009 -1.78056 0
M  V30 3208 H 313.183 4.33808 -2.32533 0
M  V30 3209 N 314.835 0.952656 1.25548 0
M  V30 3210 C 316.075 0.614013 1.9496 0
M  V30 3211 C 316.439 -0.833215 1.72978 0
M  V30 3212 O 317.64 -1.28135 2.36294 0
M  V30 3213 C 315.911 0.960562 3.4425 0
M  V30 3214 S 317.47 0.734195 4.32614 0
M  V30 3215 H 314.288 0.225754 0.674208 0
M  V30 3216 H 316.89 1.22641 1.52248 0
M  V30 3217 H 315.594 2.01103 3.57751 0
M  V30 3218 H 315.125 0.338336 3.91942 0
M  V30 3219 H 317.14 -0.395995 4.94617 0
M  V30 3220 N 316.313 -1.40141 0.720998 0
M  V30 3221 C 317.245 -2.29177 0.0324669 0
M  V30 3222 C 318.258 -1.46105 -0.718126 0
M  V30 3223 O 319.447 -1.69335 -0.564608 0
M  V30 3224 C 316.547 -3.24473 -0.978292 0
M  V30 3225 C 315.72 -4.36423 -0.292115 0
M  V30 3226 C 314.779 -5.12122 -1.20901 0
M  V30 3227 O 313.805 -5.64981 -0.691766 0
M  V30 3228 N 315.007 -5.21992 -2.53978 0
M  V30 3229 H 317.772 -2.88909 0.796984 0
M  V30 3230 H 315.333 -1.51569 0.569068 0
M  V30 3231 H 317.325 -3.71987 -1.59398 0
M  V30 3232 H 315.895 -2.65871 -1.64413 0
M  V30 3233 H 315.115 -3.90967 0.503847 0
M  V30 3234 H 316.403 -5.08467 0.183971 0
M  V30 3235 H 315.801 -4.8054 -2.98493 0
M  V30 3236 H 314.358 -5.72995 -3.10677 0
M  V30 3237 N 317.792 -0.46758 -1.50504 0
M  V30 3238 C 319.038 0.0887532 -2.02606 0
M  V30 3239 C 319.371 1.39686 -1.34913 0
M  V30 3240 O 318.646 1.88644 -0.473694 0
M  V30 3241 C 318.929 0.276206 -3.59039 0
M  V30 3242 C 318.782 -1.05267 -4.37309 0
M  V30 3243 C 320.101 1.03235 -4.27821 0
M  V30 3244 H 317.22 0.0307814 -0.736357 0
M  V30 3245 H 319.862 -0.612485 -1.79857 0
M  V30 3246 H 318.012 0.8735 -3.78553 0
M  V30 3247 H 319.684 -1.68628 -4.29374 0
M  V30 3248 H 317.927 -1.65015 -4.01189 0
M  V30 3249 H 318.598 -0.875197 -5.45018 0
M  V30 3250 H 321.074 0.526111 -4.12761 0
M  V30 3251 H 319.95 1.1323 -5.37094 0
M  V30 3252 H 320.211 2.06806 -3.90748 0
M  V30 3253 N 319.27 1.56325 -0.20005 0
M  V30 3254 C 320.217 2.1932 0.718833 0
M  V30 3255 C 321.187 1.14198 1.20615 0
M  V30 3256 O 322.372 1.42469 1.26914 0
M  V30 3257 C 319.512 2.86041 1.93066 0
M  V30 3258 C 318.625 4.05702 1.48425 0
M  V30 3259 C 317.76 4.60266 2.65196 0
M  V30 3260 C 316.799 5.72273 2.17185 0
M  V30 3261 N 315.936 6.21221 3.27152 0
M  V30 3262 H 320.776 2.97486 0.17489 0
M  V30 3263 H 318.313 1.46911 0.0745794 0
M  V30 3264 H 320.271 3.22897 2.64184 0
M  V30 3265 H 318.901 2.1043 2.44783 0
M  V30 3266 H 317.953 3.74475 0.668755 0
M  V30 3267 H 319.265 4.86699 1.09204 0
M  V30 3268 H 318.419 4.99453 3.4443 0
M  V30 3269 H 317.158 3.78386 3.07693 0
M  V30 3270 H 316.163 5.3261 1.36407 0
M  V30 3271 H 317.388 6.55974 1.75713 0
M  V30 3272 H 315.334 5.42263 3.69171 0
M  V30 3273 H 315.251 6.97284 2.92116 0
M  V30 3274 H 316.519 6.65063 4.06585 0
M  V30 3275 N 320.748 -0.0735177 1.57428 0
M  V30 3276 C 321.678 -1.0879 2.06608 0
M  V30 3277 C 322.659 -1.40473 0.959237 0
M  V30 3278 O 323.844 -1.5013 1.23185 0
M  V30 3279 C 320.974 -2.40183 2.50857 0
M  V30 3280 C 319.928 -2.22858 3.65402 0
M  V30 3281 C 319.254 -3.59619 3.957 0
M  V30 3282 C 320.554 -1.65123 4.95511 0
M  V30 3283 H 322.248 -0.678673 2.91607 0
M  V30 3284 H 319.794 -0.325013 1.40284 0
M  V30 3285 H 321.747 -3.11437 2.83874 0
M  V30 3286 H 320.471 -2.83083 1.62885 0
M  V30 3287 H 319.13 -1.54045 3.32664 0
M  V30 3288 H 318.778 -4.00086 3.04861 0
M  V30 3289 H 318.478 -3.48866 4.72828 0
M  V30 3290 H 320.002 -4.32306 4.31212 0
M  V30 3291 H 321.416 -2.26241 5.26771 0
M  V30 3292 H 319.813 -1.65071 5.7695 0
M  V30 3293 H 320.883 -0.612559 4.81015 0
M  V30 3294 N 322.226 -1.5378 -0.344866 0
M  V30 3295 C 323.156 -1.84662 -1.42906 0
M  V30 3296 C 324.137 -0.701648 -1.54955 0
M  V30 3297 O 325.322 -0.953438 -1.69184 0
M  V30 3298 C 322.452 -2.05503 -2.79974 0
M  V30 3299 C 321.406 -3.21318 -2.82734 0
M  V30 3300 C 320.732 -3.2749 -4.22675 0
M  V30 3301 C 322.032 -4.59456 -2.48389 0
M  V30 3302 H 323.726 -2.75461 -1.17311 0
M  V30 3303 H 321.272 -1.32542 -0.562896 0
M  V30 3304 H 323.225 -2.25691 -3.55867 0
M  V30 3305 H 321.949 -1.11434 -3.07002 0
M  V30 3306 H 320.608 -3.00984 -2.09294 0
M  V30 3307 H 320.256 -2.31019 -4.4681 0
M  V30 3308 H 319.956 -4.05316 -4.25433 0
M  V30 3309 H 321.48 -3.49887 -5.00412 0
M  V30 3310 H 322.894 -4.79667 -3.13995 0
M  V30 3311 H 321.291 -5.39675 -2.62432 0
M  V30 3312 H 322.361 -4.63155 -1.4358 0
M  V30 3313 N 323.704 0.605807 -1.45491 0
M  V30 3314 C 324.614 1.74466 -1.56839 0
M  V30 3315 C 325.63 1.68006 -0.452772 0
M  V30 3316 O 326.806 1.8833 -0.713708 0
M  V30 3317 C 323.871 3.10931 -1.53371 0
M  V30 3318 C 322.932 3.28832 -2.75986 0
M  V30 3319 C 322.165 4.58787 -2.72673 0
M  V30 3320 O 322.388 5.4122 -1.80102 0
M  V30 3321 O 321.322 4.79438 -3.63899 0
M  V30 3322 H 325.148 1.67843 -2.53106 0
M  V30 3323 H 322.733 0.770108 -1.28022 0
M  V30 3324 H 324.615 3.92233 -1.54051 0
M  V30 3325 H 323.29 3.18042 -0.602572 0
M  V30 3326 H 322.197 2.47112 -2.80867 0
M  V30 3327 H 323.53 3.26599 -3.68231 0
M  V30 3328 N 325.182 1.32811 0.848464 0
M  V30 3329 C 326.114 1.18095 1.96433 0
M  V30 3330 C 327.127 0.114354 1.62398 0
M  V30 3331 O 328.316 0.363892 1.74751 0
M  V30 3332 C 325.416 0.786798 3.2964 0
M  V30 3333 C 324.589 1.943 3.91875 0
M  V30 3334 C 323.648 1.53138 5.03423 0
M  V30 3335 O 322.674 2.24432 5.23086 0
M  V30 3336 N 323.876 0.430915 5.78898 0
M  V30 3337 H 326.641 2.14218 2.09597 0
M  V30 3338 H 324.202 1.2543 1.02367 0
M  V30 3339 H 326.194 0.493715 4.01677 0
M  V30 3340 H 324.764 -0.0834541 3.12489 0
M  V30 3341 H 323.984 2.40224 3.12547 0
M  V30 3342 H 325.272 2.71689 4.30189 0
M  V30 3343 H 324.67 -0.162333 5.65467 0
M  V30 3344 H 323.227 0.197466 6.51501 0
M  V30 3345 N 326.66 -1.06551 1.16123 0
M  V30 3346 C 327.885 -1.83544 0.965735 0
M  V30 3347 C 328.31 -1.81843 -0.481102 0
M  V30 3348 O 327.668 -1.21732 -1.34354 0
M  V30 3349 C 327.716 -3.28169 1.49457 0
M  V30 3350 O 326.82 -4.0643 0.699157 0
M  V30 3351 H 326.161 -0.568026 0.343864 0
M  V30 3352 H 328.691 -1.34362 1.54299 0
M  V30 3353 H 328.701 -3.78992 1.51092 0
M  V30 3354 H 327.376 -3.28722 2.54784 0
M  V30 3355 H 325.953 -3.65216 0.7531 0
M  V30 3356 N 328.138 -0.959301 -1.25041 0
M  V30 3357 C 329.386 -0.615393 -1.92503 0
M  V30 3358 C 329.707 0.850969 -1.75452 0
M  V30 3359 O 328.977 1.60658 -1.12098 0
M  V30 3360 H 327.557 -0.224613 -0.712431 0
M  V30 3361 H 330.219 -1.21855 -1.5211 0
M  V30 3362 H 329.315 -0.848738 -3.00338 0
M  V30 3363 N 329.616 1.39756 -0.72842 0
M  V30 3364 C 330.579 2.29012 -0.0927297 0
M  V30 3365 C 331.579 1.45992 0.674025 0
M  V30 3366 O 332.769 1.66749 0.50402 0
M  V30 3367 C 329.901 3.29396 0.878137 0
M  V30 3368 H 331.094 2.86729 -0.879011 0
M  V30 3369 H 328.647 1.48293 -0.493847 0
M  V30 3370 H 329.382 2.76722 1.69101 0
M  V30 3371 H 329.167 3.907 0.331051 0
M  V30 3372 H 330.657 3.96199 1.3197 0
M  V30 3373 N 331.094 0.475555 1.50254 0
M  V30 3374 C 332.004 -0.321501 2.32387 0
M  V30 3375 C 333.02 -0.991755 1.42969 0
M  V30 3376 O 334.196 -0.978747 1.76018 0
M  V30 3377 C 331.261 -1.38667 3.17762 0
M  V30 3378 C 330.322 -0.732538 4.23004 0
M  V30 3379 C 329.555 -1.74695 5.04299 0
M  V30 3380 O 329.778 -2.97399 4.86734 0
M  V30 3381 O 328.712 -1.31631 5.8733 0
M  V30 3382 H 332.538 0.350071 3.01676 0
M  V30 3383 H 330.123 0.237321 1.47503 0
M  V30 3384 H 332.005 -2.00354 3.70724 0
M  V30 3385 H 330.68 -2.04163 2.51196 0
M  V30 3386 H 329.587 -0.0765902 3.74022 0
M  V30 3387 H 330.92 -0.120452 4.92053 0
M  V30 3388 N 332.573 -1.56217 0.208337 0
M  V30 3389 C 333.819 -1.98242 -0.427552 0
M  V30 3390 C 334.152 -1.09554 -1.60348 0
M  V30 3391 O 333.427 -0.15035 -1.93918 0
M  V30 3392 C 333.71 -3.4931 -0.874907 0
M  V30 3393 C 333.563 -4.48773 0.303751 0
M  V30 3394 C 334.882 -4.04424 -1.73577 0
M  V30 3395 H 332.001 -0.720744 -0.153936 0
M  V30 3396 H 334.643 -1.87586 0.30192 0
M  V30 3397 H 332.793 -3.58522 -1.49648 0
M  V30 3398 H 334.465 -4.51586 0.941682 0
M  V30 3399 H 332.708 -4.23194 0.953375 0
M  V30 3400 H 333.379 -5.51976 -0.0519883 0
M  V30 3401 H 335.855 -3.98075 -1.21143 0
M  V30 3402 H 334.731 -5.1047 -2.01771 0
M  V30 3403 H 334.992 -3.50494 -2.69456 0
M  V30 3404 N 334.051 0.0651679 -1.57465 0
M  V30 3405 C 334.998 1.07675 -2.04144 0
M  V30 3406 C 335.968 1.38071 -0.923335 0
M  V30 3407 O 337.153 1.49026 -1.19146 0
M  V30 3408 C 334.293 2.38337 -2.49579 0
M  V30 3409 C 333.406 2.14413 -3.75035 0
M  V30 3410 C 332.541 3.38686 -4.09225 0
M  V30 3411 C 331.58 3.10156 -5.27702 0
M  V30 3412 N 330.717 4.26778 -5.57499 0
M  V30 3413 H 335.557 0.671716 -2.90331 0
M  V30 3414 H 333.094 0.3201 -1.43575 0
M  V30 3415 H 335.052 3.14632 -2.73975 0
M  V30 3416 H 333.682 2.7663 -1.6636 0
M  V30 3417 H 332.734 1.2878 -3.57939 0
M  V30 3418 H 334.046 1.89344 -4.61466 0
M  V30 3419 H 333.2 4.23373 -4.34558 0
M  V30 3420 H 331.939 3.66837 -3.21374 0
M  V30 3421 H 330.944 2.23866 -5.02159 0
M  V30 3422 H 332.169 2.8332 -6.17176 0
M  V30 3423 H 330.115 4.54948 -4.72608 0
M  V30 3424 H 330.032 4.05005 -6.38362 0
M  V30 3425 H 331.3 5.12443 -5.87386 0
M  V30 3426 N 335.529 1.53961 0.336706 0
M  V30 3427 C 336.476 1.82428 1.41381 0
M  V30 3428 C 337.446 0.670444 1.51968 0
M  V30 3429 O 338.631 0.915565 1.67398 0
M  V30 3430 C 335.771 2.04564 2.77934 0
M  V30 3431 C 334.884 3.32267 2.76084 0
M  V30 3432 C 334.019 3.44434 4.04399 0
M  V30 3433 C 333.058 4.66061 3.96804 0
M  V30 3434 N 332.195 4.75224 5.16823 0
M  V30 3435 H 337.035 2.74324 1.16405 0
M  V30 3436 H 334.572 1.35869 0.563752 0
M  V30 3437 H 336.53 2.15388 3.57301 0
M  V30 3438 H 335.16 1.15974 3.01247 0
M  V30 3439 H 334.212 3.3025 1.88784 0
M  V30 3440 H 335.524 4.21733 2.66351 0
M  V30 3441 H 334.678 3.54728 4.92192 0
M  V30 3442 H 333.417 2.53037 4.16921 0
M  V30 3443 H 332.422 4.55838 3.07396 0
M  V30 3444 H 333.647 5.58829 3.85858 0
M  V30 3445 H 331.593 3.86739 5.29876 0
M  V30 3446 H 331.51 5.58636 5.09374 0
M  V30 3447 H 332.778 4.89835 6.06367 0
M  V30 3448 N 337.007 -0.598083 1.45811 0
M  V30 3449 C 338.418 -1.18011 1.44673 0
M  V30 3450 C 338.769 -1.95378 0.179364 0
M  V30 3451 O 337.894 -2.04124 -0.718509 0
M  V30 3452 C 338.489 -2.14677 2.62105 0
M  V30 3453 C 337.048 -2.68236 2.64057 0
M  V30 3454 C 336.195 -1.43816 2.37091 0
M  V30 3455 H 339.146 -0.38686 1.53913 0
M  V30 3456 H 339.167 -2.97878 2.36746 0
M  V30 3457 H 338.679 -1.5834 3.5433 0
M  V30 3458 H 336.78 -3.28486 1.75864 0
M  V30 3459 H 336.893 -3.12021 3.63566 0
M  V30 3460 H 335.257 -1.731 1.86838 0
M  V30 3461 H 336.04 -0.893333 3.31473 0
M  V30 3462 N 338.485 -1.33259 -0.841409 0
M  V30 3463 C 339.733 -1.24326 -1.59334 0
M  V30 3464 C 340.054 0.191564 -1.94057 0
M  V30 3465 O 339.324 1.11967 -1.60749 0
M  V30 3466 H 337.904 -0.457174 -0.590763 0
M  V30 3467 H 340.566 -1.66947 -1.00571 0
M  V30 3468 H 339.662 -1.8352 -2.52442 0
M  V30 3469 N 339.963 1.05934 -1.16686 0
M  V30 3470 C 340.926 2.11669 -0.879144 0
M  V30 3471 C 341.926 1.60294 0.127445 0
M  V30 3472 O 343.116 1.7389 -0.103865 0
M  V30 3473 C 340.248 3.39438 -0.315425 0
M  V30 3474 H 341.441 2.38626 -1.81653 0
M  V30 3475 H 338.994 1.22058 -0.976299 0
M  V30 3476 H 339.729 3.18132 0.629468 0
M  V30 3477 H 339.514 3.78034 -1.04079 0
M  V30 3478 H 341.004 4.17391 -0.132189 0
M  V30 3479 N 341.441 0.965919 1.2453 0
M  V30 3480 C 342.666 0.643971 1.97149 0
M  V30 3481 C 343.091 -0.779487 1.71189 0
M  V30 3482 O 342.449 -1.5288 0.974553 0
M  V30 3483 C 342.497 0.922557 3.48599 0
M  V30 3484 O 341.601 0.00707672 4.12399 0
M  V30 3485 H 340.942 0.243647 0.617683 0
M  V30 3486 H 343.472 1.29558 1.58353 0
M  V30 3487 H 343.482 0.853373 3.98976 0
M  V30 3488 H 342.157 1.95996 3.66822 0
M  V30 3489 H 340.734 0.12943 3.72675 0
M  V30 3490 N 342.919 -1.39368 0.735821 0
M  V30 3491 C 344.165 -2.00794 0.284544 0
M  V30 3492 C 344.498 -1.58255 -1.12557 0
M  V30 3493 O 343.773 -0.811819 -1.76748 0
M  V30 3494 C 344.056 -3.58011 0.387337 0
M  V30 3495 C 343.909 -4.10566 1.83728 0
M  V30 3496 C 345.228 -4.395 -0.22975 0
M  V30 3497 H 342.347 -0.729501 0.104866 0
M  V30 3498 H 344.989 -1.65564 0.93213 0
M  V30 3499 H 343.139 -3.88154 -0.164006 0
M  V30 3500 H 344.811 -3.91139 2.44556 0
M  V30 3501 H 343.054 -3.64095 2.35833 0
M  V30 3502 H 343.725 -5.19702 1.86047 0
M  V30 3503 H 346.201 -4.15406 0.240257 0
M  V30 3504 H 345.077 -5.48752 -0.127485 0
M  V30 3505 H 345.338 -4.22062 -1.3159 0
M  V30 3506 N 344.397 -0.483516 -1.5 0
M  V30 3507 C 345.344 0.304164 -2.28787 0
M  V30 3508 C 346.314 0.976114 -1.34392 0
M  V30 3509 O 347.499 0.986156 -1.63339 0
M  V30 3510 C 344.639 1.37298 -3.16612 0
M  V30 3511 C 343.752 0.714561 -4.26049 0
M  V30 3512 C 342.887 1.76232 -5.01114 0
M  V30 3513 C 341.926 1.08483 -6.0241 0
M  V30 3514 N 341.063 2.076 -6.70706 0
M  V30 3515 H 345.903 -0.373981 -2.95644 0
M  V30 3516 H 343.44 -0.196275 -1.45785 0
M  V30 3517 H 345.398 2.00445 -3.65893 0
M  V30 3518 H 344.028 2.02012 -2.51776 0
M  V30 3519 H 343.08 -0.0297798 -3.80388 0
M  V30 3520 H 344.392 0.180383 -4.98474 0
M  V30 3521 H 343.546 2.46929 -5.54176 0
M  V30 3522 H 342.285 2.33033 -4.28424 0
M  V30 3523 H 341.29 0.363545 -5.48597 0
M  V30 3524 H 342.515 0.523551 -6.77079 0
M  V30 3525 H 340.461 2.63394 -6.00799 0
M  V30 3526 H 340.378 1.59201 -7.39047 0
M  V30 3527 H 341.646 2.77639 -7.2838 0
M  V30 3528 N 345.875 1.56104 -0.216619 0
M  V30 3529 C 347.121 1.98466 0.417033 0
M  V30 3530 C 347.454 1.10403 1.59765 0
M  V30 3531 O 346.729 0.160632 1.93836 0
M  V30 3532 C 347.012 3.49769 0.85637 0
M  V30 3533 C 346.865 4.48606 -0.327546 0
M  V30 3534 C 348.184 4.05339 1.7143 0
M  V30 3535 H 345.303 0.721551 0.150112 0
M  V30 3536 H 347.945 1.87423 -0.311864 0
M  V30 3537 H 346.095 3.5931 1.47745 0
M  V30 3538 H 347.767 4.5108 -0.965618 0
M  V30 3539 H 346.01 4.22682 -0.975805 0
M  V30 3540 H 346.681 5.51995 0.0227149 0
M  V30 3541 H 349.157 3.98712 1.19031 0
M  V30 3542 H 348.033 5.11533 1.99061 0
M  V30 3543 H 348.294 3.51918 2.67593 0
M  V30 3544 N 347.353 -0.0568162 1.57498 0
M  V30 3545 C 348.578 -0.769402 1.92601 0
M  V30 3546 C 349.003 -1.69559 0.814336 0
M  V30 3547 O 348.361 -1.79811 -0.231903 0
M  V30 3548 C 348.409 -1.52634 3.26704 0
M  V30 3549 O 347.513 -2.63797 3.16994 0
M  V30 3550 H 346.854 -0.208909 0.63028 0
M  V30 3551 H 349.384 -0.0205798 2.0459 0
M  V30 3552 H 349.394 -1.90234 3.60936 0
M  V30 3553 H 348.069 -0.846875 4.07186 0
M  V30 3554 H 346.646 -2.28943 2.94346 0
M  V30 3555 N 348.832 -1.54138 -0.328536 0
M  V30 3556 C 350.072 -1.73827 -1.07534 0
M  V30 3557 C 350.436 -0.498777 -1.85408 0
M  V30 3558 O 351.637 -0.572937 -2.62623 0
M  V30 3559 C 349.908 -2.97573 -1.97952 0
M  V30 3560 S 351.467 -3.38143 -2.79652 0
M  V30 3561 H 348.285 -0.611287 -0.36311 0
M  V30 3562 H 350.887 -1.92306 -0.351931 0
M  V30 3563 H 349.591 -3.85939 -1.39569 0
M  V30 3564 H 349.122 -2.81603 -2.74706 0
M  V30 3565 H 351.137 -2.93052 -4.00418 0
M  V30 3566 N 350.31 0.590341 -1.46126 0
M  V30 3567 C 351.257 1.69994 -1.56111 0
M  V30 3568 C 352.227 1.61065 -0.405867 0
M  V30 3569 O 353.412 1.8039 -0.621613 0
M  V30 3570 C 350.552 3.08326 -1.55013 0
M  V30 3571 C 349.665 3.27936 -2.81215 0
M  V30 3572 C 348.8 4.56473 -2.71673 0
M  V30 3573 C 347.839 4.694 -3.92849 0
M  V30 3574 N 346.976 5.89254 -3.81738 0
M  V30 3575 H 351.816 1.60797 -2.50895 0
M  V30 3576 H 349.353 0.783799 -1.24479 0
M  V30 3577 H 351.311 3.88383 -1.52362 0
M  V30 3578 H 349.941 3.16439 -0.637667 0
M  V30 3579 H 348.993 2.41536 -2.93879 0
M  V30 3580 H 350.305 3.33357 -3.71045 0
M  V30 3581 H 349.459 5.44748 -2.67085 0
M  V30 3582 H 348.198 4.53477 -1.7947 0
M  V30 3583 H 347.203 3.79544 -3.97777 0
M  V30 3584 H 348.428 4.7418 -4.86138 0
M  V30 3585 H 346.374 5.87271 -2.92317 0
M  V30 3586 H 346.291 5.95911 -4.65217 0
M  V30 3587 H 347.559 6.79981 -3.81112 0
M  V30 3588 N 351.788 1.33704 0.83433 0
M  V30 3589 C 352.751 1.24244 1.92603 0
M  V30 3590 C 353.751 0.160383 1.59998 0
M  V30 3591 O 354.941 0.412228 1.69252 0
M  V30 3592 C 352.073 0.91555 3.28376 0
M  V30 3593 H 353.266 2.21287 2.02416 0
M  V30 3594 H 350.819 1.17827 1.02696 0
M  V30 3595 H 351.554 -0.0521886 3.24258 0
M  V30 3596 H 351.339 1.69811 3.53422 0
M  V30 3597 H 352.829 0.874231 4.08347 0
M  V30 3598 N 353.266 -1.05314 1.17247 0
M  V30 3599 C 354.491 -1.82509 0.985148 0
M  V30 3600 C 354.916 -1.82343 -0.461788 0
M  V30 3601 O 354.274 -1.23151 -1.33055 0
M  V30 3602 C 354.322 -3.26566 1.52929 0
M  V30 3603 O 353.426 -4.05666 0.742225 0
M  V30 3604 H 352.767 -0.564347 0.349869 0
M  V30 3605 H 355.297 -1.32718 1.55715 0
M  V30 3606 H 355.307 -3.77369 1.55103 0
M  V30 3607 H 353.982 -3.26001 2.58256 0
M  V30 3608 H 352.559 -3.64397 0.791794 0
M  V30 3609 N 354.744 -0.972509 -1.24016 0
M  V30 3610 C 355.992 -0.635776 -1.91839 0
M  V30 3611 C 356.313 0.832312 -1.76345 0
M  V30 3612 O 355.583 1.5946 -1.13795 0
M  V30 3613 H 354.163 -0.232157 -0.710009 0
M  V30 3614 H 356.825 -1.23462 -1.50809 0
M  V30 3615 H 355.921 -0.880545 -2.99421 0
M  V30 3616 N 356.222 1.38976 -0.743202 0
M  V30 3617 C 357.452 2.04339 -0.304807 0
M  V30 3618 C 357.86 1.56162 1.06819 0
M  V30 3619 O 357.203 0.725284 1.68776 0
M  V30 3620 C 357.265 3.58716 -0.237369 0
M  V30 3621 C 356.929 4.29905 -1.55018 0
M  V30 3622 C 357.926 4.55987 -2.49744 0
M  V30 3623 C 355.611 4.68294 -1.81675 0
M  V30 3624 C 357.605 5.19478 -3.69353 0
M  V30 3625 C 355.292 5.31512 -3.0156 0
M  V30 3626 C 356.29 5.57037 -3.9522 0
M  V30 3627 O 355.978 6.18941 -5.12998 0
M  V30 3628 H 355.71 0.663439 -0.12971 0
M  V30 3629 H 358.264 1.78852 -1.01001 0
M  V30 3630 H 356.494 3.83133 0.524003 0
M  V30 3631 H 358.183 4.05543 0.170121 0
M  V30 3632 H 358.949 4.26767 -2.30423 0
M  V30 3633 H 354.828 4.47779 -1.09615 0
M  V30 3634 H 358.372 5.39318 -4.42473 0
M  V30 3635 H 354.269 5.60153 -3.20778 0
M  V30 3636 H 355.037 6.37433 -5.13441 0
M  V30 3637 N 357.7 0.491464 1.49741 0
M  V30 3638 C 358.925 -0.0557177 2.07325 0
M  V30 3639 C 359.35 -1.30925 1.35056 0
M  V30 3640 O 358.708 -1.76733 0.404365 0
M  V30 3641 C 358.756 -0.302074 3.59333 0
M  V30 3642 O 357.86 -1.37868 3.88672 0
M  V30 3643 H 357.201 0.0219956 0.663636 0
M  V30 3644 H 359.731 0.688352 1.92673 0
M  V30 3645 H 359.741 -0.536464 4.04458 0
M  V30 3646 H 358.416 0.61383 4.11345 0
M  V30 3647 H 356.993 -1.12999 3.55367 0
M  V30 3648 N 359.178 -1.55987 0.224894 0
M  V30 3649 C 360.425 -1.9839 -0.4059 0
M  V30 3650 C 360.753 -1.11261 -1.59535 0
M  V30 3651 O 360.008 -0.158314 -1.95059 0
M  V30 3652 C 360.307 -3.46394 -0.880106 0
M  V30 3653 C 359.973 -4.5046 0.19918 0
M  V30 3654 C 358.635 -4.7864 0.495661 0
M  V30 3655 C 360.987 -5.12855 0.928939 0
M  V30 3656 C 358.315 -5.66497 1.52636 0
M  V30 3657 C 360.667 -6.01828 1.949 0
M  V30 3658 C 359.331 -6.28351 2.25236 0
M  V30 3659 H 358.601 -0.725961 -0.148529 0
M  V30 3660 H 361.248 -1.88668 0.328113 0
M  V30 3661 H 359.553 -3.53337 -1.69294 0
M  V30 3662 H 361.25 -3.76577 -1.37808 0
M  V30 3663 H 357.84 -4.28579 -0.0420526 0
M  V30 3664 H 362.024 -4.9115 0.713129 0
M  V30 3665 H 357.28 -5.8531 1.76698 0
M  V30 3666 H 361.454 -6.49225 2.51951 0
M  V30 3667 H 359.081 -6.96226 3.05244 0
M  V30 3668 N 360.656 0.0484629 -1.57525 0
M  V30 3669 C 361.884 0.755421 -1.92616 0
M  V30 3670 C 362.299 1.69919 -0.822984 0
M  V30 3671 O 361.656 1.81378 0.202085 0
M  V30 3672 C 361.707 1.52915 -3.27566 0
M  V30 3673 O 361.428 0.62329 -4.33644 0
M  V30 3674 C 362.929 2.33502 -3.76818 0
M  V30 3675 H 360.149 0.213465 -0.63614 0
M  V30 3676 H 362.693 0.0117698 -2.04497 0
M  V30 3677 H 360.848 2.22486 -3.17142 0
M  V30 3678 H 361.262 1.16383 -5.11425 0
M  V30 3679 H 362.736 2.83214 -4.73808 0
M  V30 3680 H 363.213 3.14068 -3.07014 0
M  V30 3681 H 363.819 1.69043 -3.90262 0
M  V30 3682 N 362.134 1.5431 0.320358 0
M  V30 3683 C 363.359 1.76954 1.08175 0
M  V30 3684 C 363.784 0.518193 1.80821 0
M  V30 3685 O 363.142 -0.530411 1.73368 0
M  V30 3686 C 363.19 2.96451 2.05303 0
M  V30 3687 O 362.294 2.68221 3.13259 0
M  V30 3688 H 361.635 0.586275 0.311733 0
M  V30 3689 H 364.165 2.01342 0.363676 0
M  V30 3690 H 364.175 3.23887 2.48116 0
M  V30 3691 H 362.85 3.87196 1.51829 0
M  V30 3692 H 361.427 2.51744 2.75099 0
M  V30 3693 N 363.613 -0.582584 1.46437 0
M  V30 3694 C 364.843 -1.36484 1.55099 0
M  V30 3695 C 365.251 -1.88233 0.191056 0
M  V30 3696 O 364.594 -1.6429 -0.821858 0
M  V30 3697 C 364.656 -2.588 2.49525 0
M  V30 3698 C 364.32 -2.28517 3.95764 0
M  V30 3699 C 365.317 -1.87346 4.84972 0
M  V30 3700 C 363.002 -2.40658 4.40896 0
M  V30 3701 C 364.996 -1.5871 6.17325 0
M  V30 3702 C 362.683 -2.11635 5.73284 0
M  V30 3703 C 363.681 -1.70725 6.61318 0
M  V30 3704 O 363.369 -1.42057 7.91249 0
M  V30 3705 H 363.101 -0.423297 0.527063 0
M  V30 3706 H 365.655 -0.715188 1.92547 0
M  V30 3707 H 363.885 -3.26571 2.07095 0
M  V30 3708 H 365.574 -3.20868 2.48593 0
M  V30 3709 H 366.34 -1.77481 4.5136 0
M  V30 3710 H 362.219 -2.71463 3.72598 0
M  V30 3711 H 365.763 -1.26704 6.85997 0
M  V30 3712 H 361.66 -2.21124 6.06444 0
M  V30 3713 H 362.428 -1.55901 8.03515 0
M  V30 3714 N 365.091 -1.34144 -0.827227 0
M  V30 3715 C 366.339 -1.26009 -1.58007 0
M  V30 3716 C 366.66 0.170971 -1.94249 0
M  V30 3717 O 365.93 1.10256 -1.61927 0
M  V30 3718 H 364.51 -0.463414 -0.585881 0
M  V30 3719 H 367.172 -1.68005 -0.987951 0
M  V30 3720 H 366.268 -1.86187 -2.50481 0
M  V30 3721 N 366.569 1.04691 -1.17803 0
M  V30 3722 C 367.499 2.14494 -0.92275 0
M  V30 3723 C 368.48 1.69546 0.137179 0
M  V30 3724 O 369.665 1.94195 -0.0141108 0
M  V30 3725 C 366.795 3.44491 -0.440803 0
M  V30 3726 C 365.749 4.03031 -1.4405 0
M  V30 3727 C 365.075 5.28432 -0.81631 0
M  V30 3728 C 366.375 4.39932 -2.81527 0
M  V30 3729 H 368.069 2.36107 -1.84103 0
M  V30 3730 H 365.615 1.1347 -0.886599 0
M  V30 3731 H 367.568 4.2066 -0.249602 0
M  V30 3732 H 366.292 3.22546 0.513025 0
M  V30 3733 H 364.951 3.28937 -1.61853 0
M  V30 3734 H 364.599 5.02792 0.144511 0
M  V30 3735 H 364.299 5.68559 -1.48371 0
M  V30 3736 H 365.823 6.07284 -0.635496 0
M  V30 3737 H 367.237 5.07113 -2.67412 0
M  V30 3738 H 365.634 4.9109 -3.44892 0
M  V30 3739 H 366.704 3.50045 -3.35554 0
M  V30 3740 N 368.047 0.979072 1.23499 0
M  V30 3741 C 368.997 0.489378 2.22686 0
M  V30 3742 C 369.981 -0.434871 1.54912 0
M  V30 3743 O 371.173 -0.263941 1.75021 0
M  V30 3744 C 368.302 -0.208178 3.42668 0
M  V30 3745 C 367.388 0.735563 4.17672 0
M  V30 3746 N 367.779 1.87763 4.69658 0
M  V30 3747 C 366.077 0.548625 4.42613 0
M  V30 3748 C 366.778 2.46886 5.26709 0
M  V30 3749 N 365.754 1.75287 5.14563 0
M  V30 3750 H 369.556 1.36062 2.60508 0
M  V30 3751 H 367.07 0.83958 1.39014 0
M  V30 3752 H 369.067 -0.576295 4.12898 0
M  V30 3753 H 367.727 -1.07572 3.06363 0
M  V30 3754 H 368.738 2.25885 4.66043 0
M  V30 3755 H 365.415 -0.274006 4.166 0
M  V30 3756 H 366.805 3.43326 5.77561 0
M  V30 3757 N 369.525 -1.3858 0.750561 0
M  V30 3758 C 370.771 -2.0095 0.31477 0
M  V30 3759 C 371.126 -1.58509 -1.09053 0
M  V30 3760 O 370.419 -0.8112 -1.7358 0
M  V30 3761 C 370.613 -3.55455 0.372373 0
M  V30 3762 C 370.442 -4.12898 1.78173 0
M  V30 3763 C 369.212 -4.44797 2.39757 0
M  V30 3764 C 371.41 -4.35366 2.7379 0
M  V30 3765 N 369.392 -4.87831 3.72685 0
M  V30 3766 C 370.763 -4.80775 3.91478 0
M  V30 3767 C 372.818 -4.1746 2.71351 0
M  V30 3768 C 371.521 -5.10155 5.07084 0
M  V30 3769 C 373.547 -4.47963 3.86113 0
M  V30 3770 C 372.909 -4.93593 5.02539 0
M  V30 3771 H 369.008 -0.765083 0.161776 0
M  V30 3772 H 371.592 -1.68246 0.979867 0
M  V30 3773 H 369.763 -3.87512 -0.26244 0
M  V30 3774 H 371.495 -4.04614 -0.0834479 0
M  V30 3775 H 368.25 -4.33135 1.91548 0
M  V30 3776 H 368.674 -5.13685 4.40972 0
M  V30 3777 H 373.316 -3.81372 1.82524 0
M  V30 3778 H 371.034 -5.45141 5.96529 0
M  V30 3779 H 374.62 -4.35717 3.85542 0
M  V30 3780 H 373.5 -5.16746 5.89867 0
M  V30 3781 N 371.003 -0.499398 -1.49478 0
M  V30 3782 C 372.249 0.0457576 -2.02748 0
M  V30 3783 C 372.582 1.36793 -1.37846 0
M  V30 3784 O 371.857 1.87596 -0.513601 0
M  V30 3785 C 372.14 0.199986 -3.59544 0
M  V30 3786 C 371.993 -1.1452 -4.34977 0
M  V30 3787 C 373.312 0.94137 -4.29914 0
M  V30 3788 H 370.431 0.0151552 -0.736844 0
M  V30 3789 H 373.073 -0.650498 -1.78518 0
M  V30 3790 H 371.223 0.793007 -3.8032 0
M  V30 3791 H 372.895 -1.77697 -4.25701 0
M  V30 3792 H 371.138 -1.73488 -3.97598 0
M  V30 3793 H 371.809 -0.990607 -5.43039 0
M  V30 3794 H 374.285 0.43844 -4.13784 0
M  V30 3795 H 373.161 1.01812 -5.39375 0
M  V30 3796 H 373.422 1.98471 -3.95046 0
M  V30 3797 N 372.481 1.55866 -0.233164 0
M  V30 3798 C 373.897 1.59133 0.121988 0
M  V30 3799 C 374.097 1.25016 1.58029 0
M  V30 3800 O 373.153 0.990922 2.32243 0
M  V30 3801 C 374.466 2.99932 -0.214792 0
M  V30 3802 C 376.014 3.12601 -0.157971 0
M  V30 3803 C 376.489 4.55597 -0.46859 0
M  V30 3804 N 377.98 4.61305 -0.418585 0
M  V30 3805 C 378.715 5.69903 -0.63227 0
M  V30 3806 N 378.211 6.86819 -0.90835 0
M  V30 3807 N 380.004 5.59264 -0.563913 0
M  V30 3808 H 372.155 1.76315 -1.18434 0
M  V30 3809 H 374.418 0.820093 -0.475553 0
M  V30 3810 H 374.124 3.29588 -1.22739 0
M  V30 3811 H 373.998 3.74327 0.464691 0
M  V30 3812 H 376.385 2.82735 0.845283 0
M  V30 3813 H 376.466 2.40511 -0.871102 0
M  V30 3814 H 376.11 4.86182 -1.46934 0
M  V30 3815 H 376.04 5.25928 0.265865 0
M  V30 3816 H 378.531 3.77297 -0.213368 0
M  V30 3817 H 378.844 7.65507 -1.05919 0
M  V30 3818 H 377.189 6.88536 -0.945673 0
M  V30 3819 H 380.38 4.66802 -0.348372 0
M  V30 3820 H 380.553 6.43831 -0.733847 0
M  V30 3821 N 373.959 -0.0401083 1.57549 0
M  V30 3822 C 374.891 -1.07149 2.02612 0
M  V30 3823 C 375.904 -1.33126 0.937085 0
M  V30 3824 O 377.093 -1.30808 1.21456 0
M  V30 3825 C 374.193 -2.41561 2.37701 0
M  V30 3826 C 373.366 -2.35096 3.68848 0
M  V30 3827 C 372.425 -3.51867 3.91249 0
M  V30 3828 O 371.451 -3.3186 4.62447 0
M  V30 3829 N 372.653 -4.73351 3.36035 0
M  V30 3830 H 375.418 -0.687485 2.91708 0
M  V30 3831 H 372.979 -0.228248 1.60283 0
M  V30 3832 H 374.971 -3.18379 2.49833 0
M  V30 3833 H 373.541 -2.71846 1.54332 0
M  V30 3834 H 372.761 -1.4345 3.67173 0
M  V30 3835 H 374.049 -2.27908 4.54901 0
M  V30 3836 H 373.447 -4.92507 2.78304 0
M  V30 3837 H 372.004 -5.47572 3.53565 0
M  V30 3838 N 375.437 -1.54477 -0.31217 0
M  V30 3839 C 376.4 -1.83923 -1.36766 0
M  V30 3840 C 377.4 -0.711563 -1.44199 0
M  V30 3841 O 378.59 -0.979866 -1.44029 0
M  V30 3842 C 375.722 -2.0095 -2.75376 0
M  V30 3843 H 376.915 -2.78239 -1.11906 0
M  V30 3844 H 374.468 -1.46369 -0.548257 0
M  V30 3845 H 375.203 -1.08883 -3.05475 0
M  V30 3846 H 374.988 -2.83018 -2.71373 0
M  V30 3847 H 376.478 -2.2514 -3.51713 0
M  V30 3848 N 376.915 0.57481 -1.46744 0
M  V30 3849 C 378.326 1.15695 -1.46532 0
M  V30 3850 C 378.677 1.95068 -0.210425 0
M  V30 3851 O 377.802 2.05241 0.685944 0
M  V30 3852 C 378.397 2.1048 -2.65487 0
M  V30 3853 C 376.956 2.64002 -2.68291 0
M  V30 3854 C 376.103 1.40026 -2.39349 0
M  V30 3855 H 379.054 0.362325 -1.54509 0
M  V30 3856 H 379.075 2.94074 -2.41455 0
M  V30 3857 H 378.587 1.52683 -3.56805 0
M  V30 3858 H 376.688 3.25646 -1.81067 0
M  V30 3859 H 376.801 3.06197 -3.68483 0
M  V30 3860 H 375.165 1.70106 -1.89568 0
M  V30 3861 H 375.948 0.840485 -3.32852 0
M  V30 3862 N 378.394 1.34581 0.820102 0
M  V30 3863 C 379.642 1.26845 1.57336 0
M  V30 3864 C 379.963 -0.160667 1.94337 0
M  V30 3865 O 379.233 -1.09396 1.6251 0
M  V30 3866 H 377.813 0.466514 0.583415 0
M  V30 3867 H 380.475 1.68526 0.979027 0
M  V30 3868 H 379.571 1.87513 2.4949 0
M  V30 3869 N 379.872 -1.04064 1.18357 0
M  V30 3870 C 380.804 -2.12114 0.868358 0
M  V30 3871 C 381.817 -1.62247 -0.134045 0
M  V30 3872 O 383.006 -1.78253 0.0937933 0
M  V30 3873 C 380.106 -3.37773 0.276132 0
M  V30 3874 C 379.279 -4.16874 1.3242 0
M  V30 3875 C 378.338 -5.20861 0.747662 0
M  V30 3876 O 377.364 -5.51141 1.42239 0
M  V30 3877 N 378.566 -5.78715 -0.454823 0
M  V30 3878 H 381.331 -2.39748 1.79836 0
M  V30 3879 H 378.892 -1.20258 1.08396 0
M  V30 3880 H 380.884 -4.04513 -0.123133 0
M  V30 3881 H 379.454 -3.07581 -0.557895 0
M  V30 3882 H 378.674 -3.45456 1.89878 0
M  V30 3883 H 379.962 -4.66516 2.03078 0
M  V30 3884 H 379.36 -5.56415 -1.02073 0
M  V30 3885 H 377.917 -6.46921 -0.79601 0
M  V30 3886 N 381.35 -0.985608 -1.22978 0
M  V30 3887 C 382.766 -0.695104 -1.43668 0
M  V30 3888 C 382.966 0.736866 -1.87543 0
M  V30 3889 O 382.022 1.50868 -2.02473 0
M  V30 3890 C 383.335 -1.69447 -2.48412 0
M  V30 3891 C 384.883 -1.70909 -2.62219 0
M  V30 3892 C 385.358 -2.6969 -3.70178 0
M  V30 3893 N 386.849 -2.6824 -3.77626 0
M  V30 3894 C 387.584 -3.41339 -4.60733 0
M  V30 3895 N 387.08 -4.24015 -5.4789 0
M  V30 3896 N 388.873 -3.30079 -4.54977 0
M  V30 3897 H 381.024 -1.91054 -0.928016 0
M  V30 3898 H 383.287 -0.823553 -0.469536 0
M  V30 3899 H 382.993 -2.7188 -2.23102 0
M  V30 3900 H 382.867 -1.48147 -3.46889 0
M  V30 3901 H 385.254 -0.691785 -2.86877 0
M  V30 3902 H 385.335 -1.96276 -1.6404 0
M  V30 3903 H 384.979 -3.71566 -3.46268 0
M  V30 3904 H 384.909 -2.41595 -4.67909 0
M  V30 3905 H 387.4 -2.08243 -3.15346 0
M  V30 3906 H 387.713 -4.76636 -6.08308 0
M  V30 3907 H 386.058 -4.28104 -5.47496 0
M  V30 3908 H 389.249 -2.64937 -3.85909 0
M  V30 3909 H 389.422 -3.87308 -5.19516 0
M  V30 3910 N 382.828 1.3818 -0.7579 0
M  V30 3911 C 383.758 2.33027 -0.148597 0
M  V30 3912 C 384.739 1.55085 0.69875 0
M  V30 3913 O 385.924 1.83384 0.639053 0
M  V30 3914 C 383.054 3.3928 0.742034 0
M  V30 3915 C 382.008 4.28 -0.00291946 0
M  V30 3916 C 381.334 5.25146 1.00625 0
M  V30 3917 C 382.634 5.08938 -1.17385 0
M  V30 3918 H 384.328 2.84231 -0.940909 0
M  V30 3919 H 381.874 1.36659 -0.453908 0
M  V30 3920 H 383.827 4.046 1.17799 0
M  V30 3921 H 382.551 2.86569 1.56671 0
M  V30 3922 H 381.21 3.64192 -0.419504 0
M  V30 3923 H 380.858 4.68721 1.8251 0
M  V30 3924 H 380.558 5.85361 0.512428 0
M  V30 3925 H 382.082 5.93342 1.44143 0
M  V30 3926 H 383.496 5.67474 -0.815224 0
M  V30 3927 H 381.893 5.7841 -1.59882 0
M  V30 3928 H 382.963 4.42424 -1.98468 0
M  V30 3929 N 384.306 0.507319 1.49211 0
M  V30 3930 C 385.216 -0.272136 2.33016 0
M  V30 3931 C 386.232 -0.961206 1.45041 0
M  V30 3932 O 387.408 -0.941191 1.78055 0
M  V30 3933 C 384.473 -1.31895 3.20631 0
M  V30 3934 C 383.534 -0.642648 4.24463 0
M  V30 3935 C 382.767 -1.63959 5.07891 0
M  V30 3936 O 382.99 -2.87007 4.92933 0
M  V30 3937 O 381.924 -1.19143 5.8999 0
M  V30 3938 H 385.75 0.413982 3.00865 0
M  V30 3939 H 383.335 0.268556 1.46966 0
M  V30 3940 H 385.217 -1.92446 3.7489 0
M  V30 3941 H 383.892 -1.98788 2.5547 0
M  V30 3942 H 382.799 0.00276252 3.741 0
M  V30 3943 H 384.132 -0.0160534 4.92197 0
M  V30 3944 N 385.784 -1.5574 0.241426 0
M  V30 3945 C 387.03 -1.99846 -0.378555 0
M  V30 3946 C 387.385 -1.12665 -1.55963 0
M  V30 3947 O 386.678 -0.180966 -1.90743 0
M  V30 3948 C 386.872 -3.47308 -0.843317 0
M  V30 3949 C 386.701 -4.48756 0.291178 0
M  V30 3950 C 385.471 -4.9949 0.764077 0
M  V30 3951 C 387.669 -5.02039 1.11631 0
M  V30 3952 N 385.651 -5.84676 1.87156 0
M  V30 3953 C 387.022 -5.84343 2.07226 0
M  V30 3954 C 389.077 -4.84354 1.15349 0
M  V30 3955 C 387.78 -6.50851 3.06245 0
M  V30 3956 C 389.806 -5.51636 2.13195 0
M  V30 3957 C 389.168 -6.33724 3.07528 0
M  V30 3958 H 385.267 -0.774968 -0.104634 0
M  V30 3959 H 387.851 -1.91385 0.357751 0
M  V30 3960 H 386.022 -3.56178 -1.54893 0
M  V30 3961 H 387.754 -3.78299 -1.43779 0
M  V30 3962 H 384.509 -4.72311 0.349175 0
M  V30 3963 H 384.933 -6.31967 2.42789 0
M  V30 3964 H 389.575 -4.20525 0.438057 0
M  V30 3965 H 387.293 -7.1385 3.78739 0
M  V30 3966 H 390.879 -5.39909 2.16771 0
M  V30 3967 H 389.759 -6.84867 3.82003 0
M  V30 3968 N 387.262 0.0317525 -1.57568 0
M  V30 3969 C 388.195 1.06621 -2.0176 0
M  V30 3970 C 389.173 1.35323 -0.901462 0
M  V30 3971 O 390.357 1.48025 -1.16708 0
M  V30 3972 C 387.484 2.40155 -2.38837 0
M  V30 3973 C 386.53 2.27327 -3.60867 0
M  V30 3974 S 387.363 1.62925 -5.10113 0
M  V30 3975 C 388.519 2.97955 -5.5043 0
M  V30 3976 H 388.752 0.689781 -2.89187 0
M  V30 3977 H 386.285 0.24164 -1.52497 0
M  V30 3978 H 388.243 3.1695 -2.6087 0
M  V30 3979 H 386.904 2.74946 -1.51867 0
M  V30 3980 H 386.097 3.25898 -3.84456 0
M  V30 3981 H 385.699 1.58675 -3.38671 0
M  V30 3982 H 387.991 3.94285 -5.5095 0
M  V30 3983 H 388.934 2.79102 -6.50775 0
M  V30 3984 H 389.342 3.00404 -4.77931 0
M  V30 3985 N 388.74 1.54641 0.303973 0
M  V30 3986 C 389.988 1.73437 1.0375 0
M  V30 3987 C 390.309 0.521449 1.87899 0
M  V30 3988 O 389.579 -0.46432 1.90318 0
M  V30 3989 H 388.159 0.639518 0.386039 0
M  V30 3990 H 390.821 1.91988 0.335675 0
M  V30 3991 H 389.917 2.62235 1.69231 0
M  V30 3992 N 390.218 -0.567019 1.47046 0
M  V30 3993 C 391.464 -1.32434 1.54379 0
M  V30 3994 C 391.819 -1.91365 0.199276 0
M  V30 3995 O 391.112 -1.74378 -0.793915 0
M  V30 3996 C 391.306 -2.4623 2.59047 0
M  V30 3997 C 391.135 -1.98448 4.03545 0
M  V30 3998 C 389.905 -1.82741 4.71098 0
M  V30 3999 C 392.103 -1.53477 4.90866 0
M  V30 4000 N 390.085 -1.29196 6.00151 0
M  V30 4001 C 391.456 -1.1163 6.09868 0
M  V30 4002 C 393.511 -1.41438 4.77388 0
M  V30 4003 C 392.214 -0.589425 7.16881 0
M  V30 4004 C 394.24 -0.901528 5.84488 0
M  V30 4005 C 393.602 -0.492932 7.02673 0
M  V30 4006 H 389.701 -0.477005 0.61967 0
M  V30 4007 H 392.285 -0.643856 1.83746 0
M  V30 4008 H 390.456 -3.11821 2.31564 0
M  V30 4009 H 392.188 -3.13213 2.56281 0
M  V30 4010 H 388.943 -2.05162 4.26855 0
M  V30 4011 H 389.367 -1.0454 6.6888 0
M  V30 4012 H 394.009 -1.71643 3.86392 0
M  V30 4013 H 391.727 -0.274994 8.07632 0
M  V30 4014 H 395.313 -0.812071 5.76105 0
M  V30 4015 H 394.193 -0.102227 7.84133 0
M  V30 4016 N 391.696 -1.35014 -0.812953 0
M  V30 4017 C 392.945 -1.27269 -1.56479 0
M  V30 4018 C 393.258 0.152771 -1.95002 0
M  V30 4019 O 394.464 0.352451 -2.69203 0
M  V30 4020 C 392.92 -2.23159 -2.82362 0
M  V30 4021 C 392.528 -3.71016 -2.511 0
M  V30 4022 C 394.272 -2.24342 -3.60376 0
M  V30 4023 C 392.179 -4.58746 -3.73237 0
M  V30 4024 H 391.109 -0.472829 -0.587324 0
M  V30 4025 H 393.76 -1.6024 -0.894171 0
M  V30 4026 H 392.142 -1.83151 -3.51101 0
M  V30 4027 H 393.316 -4.1962 -1.90409 0
M  V30 4028 H 391.631 -3.72378 -1.86343 0
M  V30 4029 H 394.228 -2.87107 -4.51081 0
M  V30 4030 H 394.571 -1.24542 -3.97234 0
M  V30 4031 H 395.104 -2.62846 -2.98591 0
M  V30 4032 H 391.843 -5.59521 -3.41492 0
M  V30 4033 H 391.363 -4.14871 -4.33176 0
M  V30 4034 H 393.042 -4.73852 -4.40537 0
M  V30 4035 N 393.175 1.03435 -1.18907 0
M  V30 4036 C 394.4 1.80919 -1.01406 0
M  V30 4037 C 394.825 1.83055 0.432721 0
M  V30 4038 O 394.183 1.25252 1.31079 0
M  V30 4039 C 394.231 3.24091 -1.58105 0
M  V30 4040 O 393.335 4.04434 -0.806669 0
M  V30 4041 H 392.676 0.558709 -0.358803 0
M  V30 4042 H 395.206 1.30223 -1.57807 0
M  V30 4043 H 395.216 3.74853 -1.61087 0
M  V30 4044 H 393.891 3.21851 -2.6341 0
M  V30 4045 H 392.468 3.63091 -0.849666 0
M  V30 4046 N 394.653 0.992116 1.22453 0
M  V30 4047 C 395.616 0.546883 2.2258 0
M  V30 4048 C 396.616 -0.369829 1.56489 0
M  V30 4049 O 397.806 -0.161896 1.73446 0
M  V30 4050 C 394.938 -0.204659 3.40285 0
M  V30 4051 H 396.131 1.43234 2.63484 0
M  V30 4052 H 393.684 0.779239 1.3549 0
M  V30 4053 H 394.419 -1.10614 3.04853 0
M  V30 4054 H 394.204 0.45354 3.89468 0
M  V30 4055 H 395.694 -0.504358 4.14543 0
M  V30 4056 N 396.131 -1.37776 0.765217 0
M  V30 4057 C 397.379 -1.99454 0.325943 0
M  V30 4058 C 397.7 -1.61049 -1.09947 0
M  V30 4059 O 396.97 -0.872821 -1.75381 0
M  V30 4060 H 395.55 -0.737697 0.117525 0
M  V30 4061 H 398.212 -1.68359 0.981895 0
M  V30 4062 H 397.308 -3.09547 0.398353 0
M  V30 4063 N 397.609 -0.515225 -1.4894 0
M  V30 4064 C 398.837 0.0206034 -2.0689 0
M  V30 4065 C 399.252 1.29514 -1.37374 0
M  V30 4066 O 398.609 1.76698 -0.456529 0
M  V30 4067 C 398.66 0.26351 -3.60538 0
M  V30 4068 O 398.381 -0.960517 -4.27441 0
M  V30 4069 C 399.882 0.841383 -4.35242 0
M  V30 4070 H 397.102 -0.0268608 -0.670462 0
M  V30 4071 H 399.646 -0.716651 -1.91532 0
M  V30 4072 H 397.801 0.950777 -3.75552 0
M  V30 4073 H 398.215 -0.73212 -5.19365 0
M  V30 4074 H 399.689 0.96085 -5.43573 0
M  V30 4075 H 400.166 1.8427 -3.98674 0
M  V30 4076 H 400.772 0.191143 -4.2487 0
M  V30 4077 N 399.087 1.5561 -0.249682 0
M  V30 4078 C 400.335 1.98618 0.373548 0
M  V30 4079 C 400.656 1.13919 1.58264 0
M  V30 4080 O 399.926 0.222637 1.94631 0
M  V30 4081 H 398.506 0.733571 0.141006 0
M  V30 4082 H 401.168 1.91748 -0.349117 0
M  V30 4083 H 400.264 3.04584 0.680796 0
M  V30 4084 N 400.565 -0.0233959 1.57583 0
M  V30 4085 C 401.513 -1.04063 2.08023 0
M  V30 4086 C 402.507 -1.37084 0.995204 0
M  V30 4087 O 403.713 -1.35923 1.18004 0
M  V30 4088 H 400.088 -0.353144 0.663922 0
M  V30 4089 H 402.059 -0.589453 2.9252 0
M  V30 4090 C 400.808 -2.33123 2.57971 0
M  V30 4091 H 400.131 -2.08577 3.4108 0
M  V30 4092 H 401.571 -3.02632 2.96967 0
M  V30 4093 C 400.03 -3.02483 1.48342 0
M  V30 4094 O 400.56 -3.92541 0.852898 0
M  V30 4095 N 398.766 -2.63909 1.21658 0
M  V30 4096 H 398.313 -1.90758 1.73116 0
M  V30 4097 H 398.271 -3.10633 0.485218 0
M  V30 4098 N 402.043 -1.548 -0.295768 0
M  V30 4099 C 403.271 -1.78327 -1.04914 0
M  V30 4100 C 403.686 -0.545316 -1.80753 0
M  V30 4101 O 403.043 0.485013 -1.75937 0
M  V30 4102 C 403.094 -2.99418 -2.02561 0
M  V30 4103 O 402.815 -4.18431 -1.29798 0
M  V30 4104 C 404.316 -3.35375 -2.89895 0
M  V30 4105 H 401.536 -0.594618 -0.310918 0
M  V30 4106 H 404.08 -2.01763 -0.333454 0
M  V30 4107 H 402.235 -2.78175 -2.69624 0
M  V30 4108 H 402.649 -4.86736 -1.95419 0
M  V30 4109 H 404.123 -4.23332 -3.54251 0
M  V30 4110 H 404.6 -2.53761 -3.58472 0
M  V30 4111 H 405.206 -3.58796 -2.28355 0
M  V30 4112 N 403.521 0.559213 -1.47345 0
M  V30 4113 C 404.468 1.66645 -1.59682 0
M  V30 4114 C 405.438 1.60168 -0.43994 0
M  V30 4115 O 406.623 1.79031 -0.659736 0
M  V30 4116 C 403.763 3.04969 -1.61518 0
M  V30 4117 C 402.876 3.21897 -2.88108 0
M  V30 4118 C 402.011 4.50608 -2.81294 0
M  V30 4119 C 401.05 4.60961 -4.02717 0
M  V30 4120 N 400.187 5.81024 -3.94151 0
M  V30 4121 H 405.027 1.55439 -2.54249 0
M  V30 4122 H 402.564 0.757219 -1.26113 0
M  V30 4123 H 404.522 3.85064 -1.60566 0
M  V30 4124 H 403.152 3.15015 -0.704645 0
M  V30 4125 H 402.204 2.35248 -2.98936 0
M  V30 4126 H 403.516 3.25412 -3.78032 0
M  V30 4127 H 402.67 5.3896 -2.7858 0
M  V30 4128 H 401.409 4.49568 -1.89049 0
M  V30 4129 H 400.414 3.71021 -4.05738 0
M  V30 4130 H 401.639 4.63761 -4.96087 0
M  V30 4131 H 399.585 5.80938 -3.04708 0
M  V30 4132 H 399.502 5.85909 -4.77752 0
M  V30 4133 H 400.77 6.71744 -3.9545 0
M  V30 4134 N 404.999 1.35443 0.805782 0
M  V30 4135 C 406.229 1.31687 1.59192 0
M  V30 4136 C 406.637 -0.10756 1.88894 0
M  V30 4137 O 405.98 -1.07017 1.49309 0
M  V30 4138 C 406.042 2.05686 2.94845 0
M  V30 4139 C 405.706 3.54868 2.87954 0
M  V30 4140 C 406.703 4.49444 2.61335 0
M  V30 4141 C 404.388 3.97528 3.07046 0
M  V30 4142 C 406.382 5.84655 2.53885 0
M  V30 4143 C 404.069 5.32833 2.99219 0
M  V30 4144 C 405.067 6.26209 2.72674 0
M  V30 4145 O 404.755 7.59032 2.64811 0
M  V30 4146 H 404.487 0.453878 0.50097 0
M  V30 4147 H 407.041 1.78892 1.0093 0
M  V30 4148 H 405.271 1.5312 3.55093 0
M  V30 4149 H 406.96 1.94998 3.55993 0
M  V30 4150 H 407.726 4.17804 2.46303 0
M  V30 4151 H 403.605 3.25233 3.26718 0
M  V30 4152 H 407.149 6.57508 2.33086 0
M  V30 4153 H 403.046 5.64087 3.13809 0
M  V30 4154 H 403.814 7.68967 2.80413 0
M  V30 4155 N 406.477 -1.02803 1.19454 0
M  V30 4156 C 407.702 -1.80378 1.02364 0
M  V30 4157 C 408.127 -1.83282 -0.423007 0
M  V30 4158 O 407.485 -1.25945 -1.30413 0
M  V30 4159 C 407.533 -3.23248 1.59821 0
M  V30 4160 O 406.637 -4.04 0.828105 0
M  V30 4161 H 405.978 -0.556799 0.361761 0
M  V30 4162 H 408.508 -1.29385 1.58495 0
M  V30 4163 H 408.518 -3.73994 1.63073 0
M  V30 4164 H 407.193 -3.2045 2.65113 0
M  V30 4165 H 405.77 -3.62635 0.86891 0
M  V30 4166 N 407.956 -0.998596 -1.21925 0
M  V30 4167 C 408.888 -0.511879 -2.23411 0
M  V30 4168 C 409.901 0.396094 -1.57908 0
M  V30 4169 O 411.09 0.197316 -1.77406 0
M  V30 4170 C 408.19 0.276802 -3.37768 0
M  V30 4171 C 407.363 -0.628687 -4.32858 0
M  V30 4172 C 406.422 0.109272 -5.26087 0
M  V30 4173 O 405.448 -0.507237 -5.66935 0
M  V30 4174 N 406.65 1.38983 -5.63617 0
M  V30 4175 H 409.415 -1.38457 -2.658 0
M  V30 4176 H 406.976 -0.873981 -1.36283 0
M  V30 4177 H 408.968 0.77928 -3.97126 0
M  V30 4178 H 407.538 1.05063 -2.94415 0
M  V30 4179 H 406.758 -1.31175 -3.71735 0
M  V30 4180 H 408.046 -1.24514 -4.93329 0
M  V30 4181 H 407.444 1.91194 -5.32411 0
M  V30 4182 H 406.001 1.83739 -6.25367 0
M  V30 4183 N 409.434 1.37368 -0.772513 0
M  V30 4184 C 410.381 2.30262 -0.157488 0
M  V30 4185 C 411.351 1.51137 0.688965 0
M  V30 4186 O 412.536 1.79704 0.641168 0
M  V30 4187 C 409.676 3.37611 0.715045 0
M  V30 4188 C 408.789 4.31746 -0.148098 0
M  V30 4189 C 407.924 5.26171 0.729213 0
M  V30 4190 C 406.963 6.11948 -0.136418 0
M  V30 4191 N 406.1 6.98613 0.698914 0
M  V30 4192 H 410.94 2.82277 -0.955179 0
M  V30 4193 H 408.477 1.38957 -0.482631 0
M  V30 4194 H 410.435 3.98479 1.23575 0
M  V30 4195 H 409.065 2.86959 1.47833 0
M  V30 4196 H 408.117 3.72178 -0.786613 0
M  V30 4197 H 409.429 4.92084 -0.81579 0
M  V30 4198 H 408.583 5.92247 1.31637 0
M  V30 4199 H 407.322 4.66246 1.43059 0
M  V30 4200 H 406.327 5.4485 -0.736102 0
M  V30 4201 H 407.552 6.73945 -0.835134 0
M  V30 4202 H 405.498 6.41215 1.38489 0
M  V30 4203 H 405.415 7.55948 0.0885358 0
M  V30 4204 H 406.683 7.69077 1.27044 0
M  V30 4205 N 410.912 0.523116 1.48665 0
M  V30 4206 C 412.159 -0.0134763 2.02496 0
M  V30 4207 C 412.487 -1.3493 1.40086 0
M  V30 4208 O 411.742 -1.88286 0.533567 0
M  V30 4209 C 412.041 -0.191671 3.56886 0
M  V30 4210 C 411.707 1.06893 4.38046 0
M  V30 4211 C 410.369 1.41443 4.59943 0
M  V30 4212 C 412.721 1.90584 4.85106 0
M  V30 4213 C 410.049 2.59594 5.26144 0
M  V30 4214 C 412.401 3.07907 5.52609 0
M  V30 4215 C 411.065 3.42811 5.72745 0
M  V30 4216 H 410.335 -0.00493133 0.740984 0
M  V30 4217 H 412.982 0.687751 1.78724 0
M  V30 4218 H 411.287 -0.97561 3.79459 0
M  V30 4219 H 412.984 -0.621659 3.96152 0
M  V30 4220 H 409.574 0.789848 4.21259 0
M  V30 4221 H 413.758 1.65203 4.67997 0
M  V30 4222 H 409.014 2.86847 5.39934 0
M  V30 4223 H 413.188 3.73066 5.88043 0
M  V30 4224 H 410.815 4.34462 6.23816 0
M  V30 4225 N 412.39 -1.55475 0.257931 0
M  V30 4226 C 413.806 -1.59307 -0.0966563 0
M  V30 4227 C 414.006 -1.27514 -1.5602 0
M  V30 4228 O 413.062 -1.02774 -2.30637 0
M  V30 4229 C 414.375 -2.99552 0.262481 0
M  V30 4230 C 415.923 -3.1231 0.207683 0
M  V30 4231 C 416.398 -4.54793 0.541012 0
M  V30 4232 N 417.889 -4.6058 0.491921 0
M  V30 4233 C 418.624 -5.68825 0.722857 0
M  V30 4234 N 418.12 -6.85287 1.0175 0
M  V30 4235 N 419.913 -5.58296 0.652815 0
M  V30 4236 H 412.064 -1.74409 1.21224 0
M  V30 4237 H 414.327 -0.812424 0.48854 0
M  V30 4238 H 414.033 -3.27593 1.27967 0
M  V30 4239 H 413.907 -3.75019 -0.40508 0
M  V30 4240 H 416.294 -2.84044 -0.800195 0
M  V30 4241 H 416.375 -2.39095 0.909255 0
M  V30 4242 H 416.019 -4.83783 1.5465 0
M  V30 4243 H 415.949 -5.26285 -0.18216 0
M  V30 4244 H 418.44 -3.7691 0.273366 0
M  V30 4245 H 418.753 -7.63725 1.18084 0
M  V30 4246 H 417.098 -6.86945 1.05509 0
M  V30 4247 H 420.289 -4.66189 0.422592 0
M  V30 4248 H 420.462 -6.42582 0.836182 0
M  V30 4249 N 413.868 0.0150385 -1.57593 0
M  V30 4250 C 415.116 0.701613 -1.8953 0
M  V30 4251 C 415.437 1.75139 -0.857396 0
M  V30 4252 O 414.707 1.95607 0.107194 0
M  V30 4253 H 413.287 0.26213 -0.699498 0
M  V30 4254 H 415.949 -0.0223304 -1.94887 0
M  V30 4255 H 415.045 1.18236 -2.88837 0
M  V30 4256 N 415.346 1.54954 0.287554 0
M  V30 4257 C 416.762 1.46469 0.633964 0
M  V30 4258 C 416.962 0.666865 1.90145 0
M  V30 4259 O 416.018 0.179906 2.51858 0
M  V30 4260 C 417.331 2.90556 0.774454 0
M  V30 4261 C 418.879 3.00681 0.869462 0
M  V30 4262 C 419.354 4.45993 1.04184 0
M  V30 4263 N 420.845 4.4976 1.10772 0
M  V30 4264 C 421.58 5.59393 1.25964 0
M  V30 4265 N 421.076 6.78923 1.37968 0
M  V30 4266 N 422.869 5.47107 1.28959 0
M  V30 4267 H 415.02 2.05288 -0.545041 0
M  V30 4268 H 417.283 0.930305 -0.182308 0
M  V30 4269 H 416.989 3.51594 -0.086207 0
M  V30 4270 H 416.863 3.38743 1.6593 0
M  V30 4271 H 419.25 2.39749 1.7206 0
M  V30 4272 H 419.331 2.55769 -0.0396831 0
M  V30 4273 H 418.975 5.07524 0.195422 0
M  V30 4274 H 418.905 4.88548 1.96542 0
M  V30 4275 H 421.396 3.63651 1.02794 0
M  V30 4276 H 421.709 7.58231 1.49353 0
M  V30 4277 H 420.054 6.81763 1.34999 0
M  V30 4278 H 423.245 4.52668 1.19202 0
M  V30 4279 H 423.418 6.32595 1.40455 0
M  V30 4280 N 416.824 -0.551391 1.4764 0
M  V30 4281 C 418.07 -1.31024 1.54792 0
M  V30 4282 C 418.403 -1.9304 0.211967 0
M  V30 4283 O 417.678 -1.78175 -0.77999 0
M  V30 4284 C 417.961 -2.41593 2.67029 0
M  V30 4285 C 417.814 -1.84408 4.10261 0
M  V30 4286 C 419.133 -3.43488 2.75143 0
M  V30 4287 H 416.252 -0.475031 0.563485 0
M  V30 4288 H 418.894 -0.616454 1.79722 0
M  V30 4289 H 417.044 -3.00772 2.45904 0
M  V30 4290 H 418.716 -1.29445 4.42766 0
M  V30 4291 H 416.959 -1.15051 4.18265 0
M  V30 4292 H 417.63 -2.64367 4.84576 0
M  V30 4293 H 420.106 -2.94236 2.94218 0
M  V30 4294 H 418.982 -4.18274 3.55441 0
M  V30 4295 H 419.243 -4.02703 1.82435 0
M  V30 4296 N 418.302 -1.35869 -0.798587 0
M  V30 4297 C 419.53 -1.32722 -1.58722 0
M  V30 4298 C 419.945 0.0935631 -1.88568 0
M  V30 4299 O 419.302 1.04784 -1.49421 0
M  V30 4300 C 419.353 -2.13974 -2.91371 0
M  V30 4301 O 419.074 -3.50514 -2.62815 0
M  V30 4302 C 420.575 -2.18504 -3.85708 0
M  V30 4303 H 417.795 -0.45562 -0.492596 0
M  V30 4304 H 420.339 -1.78837 -0.991843 0
M  V30 4305 H 418.494 -1.71438 -3.47402 0
M  V30 4306 H 418.908 -3.92806 -3.47568 0
M  V30 4307 H 420.382 -2.79732 -4.75872 0
M  V30 4308 H 420.859 -1.18597 -4.22885 0
M  V30 4309 H 421.465 -2.61236 -3.35612 0
M  V30 4310 N 419.78 1.02168 -1.19998 0
M  V30 4311 C 421.027 1.75685 -1.00702 0
M  V30 4312 C 421.355 1.88947 0.461426 0
M  V30 4313 O 420.61 1.40832 1.35885 0
M  V30 4314 C 420.909 3.18081 -1.62969 0
M  V30 4315 C 420.575 3.24809 -3.12746 0
M  V30 4316 C 419.237 3.26352 -3.53621 0
M  V30 4317 C 421.589 3.23379 -4.08749 0
M  V30 4318 C 418.917 3.2413 -4.89036 0
M  V30 4319 C 421.269 3.22698 -5.44104 0
M  V30 4320 C 419.933 3.22542 -5.84399 0
M  V30 4321 H 419.203 0.642877 -0.368496 0
M  V30 4322 H 421.85 1.19865 -1.49348 0
M  V30 4323 H 420.155 3.77027 -1.06573 0
M  V30 4324 H 421.852 3.73648 -1.45561 0
M  V30 4325 H 418.442 3.2434 -2.80181 0
M  V30 4326 H 422.626 3.21361 -3.78207 0
M  V30 4327 H 417.882 3.22338 -5.19527 0
M  V30 4328 H 422.056 3.20543 -6.18244 0
M  V30 4329 H 419.683 3.20575 -6.89301 0
M  V30 4330 N 421.258 1.00505 1.21394 0
M  V30 4331 C 422.486 0.706609 1.9446 0
M  V30 4332 C 422.901 -0.73081 1.74082 0
M  V30 4333 O 422.258 -1.49446 1.04747 0
M  V30 4334 C 422.309 1.01824 3.46863 0
M  V30 4335 O 422.03 2.39919 3.66566 0
M  V30 4336 C 423.531 0.739216 4.37093 0
M  V30 4337 H 420.751 0.260394 0.618414 0
M  V30 4338 H 423.295 1.34311 1.54211 0
M  V30 4339 H 421.45 0.427343 3.85036 0
M  V30 4340 H 421.864 2.50784 4.6066 0
M  V30 4341 H 423.338 1.00744 5.42729 0
M  V30 4342 H 423.815 -0.326746 4.37983 0
M  V30 4343 H 424.421 1.31173 4.04566 0
M  V30 4344 N 422.737 -1.36956 0.779787 0
M  V30 4345 C 424.153 -1.52817 0.460342 0
M  V30 4346 C 424.353 -1.7361 -1.02283 0
M  V30 4347 O 423.409 -1.76207 -1.80852 0
M  V30 4348 C 424.722 -2.71983 1.28241 0
M  V30 4349 C 426.27 -2.85849 1.27512 0
M  V30 4350 C 426.745 -4.08008 2.08072 0
M  V30 4351 N 428.236 -4.15135 2.05467 0
M  V30 4352 C 428.971 -5.08711 2.64577 0
M  V30 4353 N 428.467 -6.07792 3.32506 0
M  V30 4354 N 430.26 -5.01254 2.54363 0
M  V30 4355 H 422.411 -1.21713 1.74068 0
M  V30 4356 H 424.674 -0.593294 0.739396 0
M  V30 4357 H 424.38 -2.63109 2.33381 0
M  V30 4358 H 424.254 -3.65882 0.917088 0
M  V30 4359 H 426.641 -2.94189 0.231686 0
M  V30 4360 H 426.722 -1.92886 1.68014 0
M  V30 4361 H 426.366 -4.00429 3.12441 0
M  V30 4362 H 426.296 -5.001 1.64947 0
M  V30 4363 H 428.787 -3.44189 1.5602 0
M  V30 4364 H 429.1 -6.75739 3.74963 0
M  V30 4365 H 427.445 -6.08047 3.36606 0
M  V30 4366 H 430.636 -4.22795 2.00902 0
M  V30 4367 H 430.809 -5.73995 3.00722 0
M  V30 4368 N 424.215 -0.530993 -1.48385 0
M  V30 4369 C 425.492 0.0671788 -1.95485 0
M  V30 4370 C 425.872 1.51191 -1.47324 0
M  V30 4371 O 425.22 2.17507 -0.700202 0
M  V30 4372 C 425.43 -0.0511206 -3.48963 0
M  V30 4373 C 426.778 0.107632 -4.24464 0
M  V30 4374 O 427.802 0.0226248 -3.56193 0
M  V30 4375 O 426.661 0.285972 -5.45751 0
M  V30 4376 H 423.755 0.0787365 -0.823243 0
M  V30 4377 H 426.301 -0.595662 -1.58902 0
M  V30 4378 H 425.073 -1.05747 -3.7674 0
M  V30 4379 H 424.696 0.650525 -3.92242 0
M  V30 4380 N 425.693 1.55336 -0.266172 0
M  V30 4381 C 426.921 2.03801 0.356756 0
M  V30 4382 C 427.336 1.14485 1.50129 0
M  V30 4383 O 426.693 0.163121 1.8177 0
M  V30 4384 C 426.744 3.51455 0.846281 0
M  V30 4385 O 426.465 4.37371 -0.252663 0
M  V30 4386 C 427.966 4.15767 1.53794 0
M  V30 4387 H 425.186 0.665906 0.0825218 0
M  V30 4388 H 427.73 2.00636 -0.39566 0
M  V30 4389 H 425.885 3.55092 1.54881 0
M  V30 4390 H 426.299 5.24358 0.122173 0
M  V30 4391 H 427.773 5.20714 1.83198 0
M  V30 4392 H 428.25 3.63404 2.46646 0
M  V30 4393 H 428.856 4.16107 0.879488 0
M  V30 4394 N 427.171 -0.0066808 1.57599 0
M  V30 4395 C 428.396 -0.707738 1.94951 0
M  V30 4396 C 428.821 -1.66882 0.867868 0
M  V30 4397 O 428.179 -1.80457 -0.17458 0
M  V30 4398 C 428.227 -1.42162 3.31394 0
M  V30 4399 O 427.331 -2.53578 3.25226 0
M  V30 4400 H 426.672 -0.188752 0.636607 0
M  V30 4401 H 429.202 0.0445193 2.04552 0
M  V30 4402 H 429.212 -1.78655 3.66806 0
M  V30 4403 H 427.887 -0.716903 4.09675 0
M  V30 4404 H 426.464 -2.19463 3.01481 0
M  V30 4405 N 428.649 -1.55105 -0.279332 0
M  V30 4406 C 429.612 -1.86783 -1.32834 0
M  V30 4407 C 430.612 -0.74199 -1.42657 0
M  V30 4408 O 431.802 -1.0102 -1.41918 0
M  V30 4409 C 428.934 -2.06746 -2.71052 0
M  V30 4410 H 430.127 -2.8055 -1.05979 0
M  V30 4411 H 427.68 -1.47499 -0.517087 0
M  V30 4412 H 428.415 -1.15339 -3.03097 0
M  V30 4413 H 428.2 -2.88711 -2.65309 0
M  V30 4414 H 429.69 -2.32549 -3.46858 0
M  V30 4415 N 430.127 0.543554 -1.4793 0
M  V30 4416 C 431.355 1.32516 -1.58894 0
M  V30 4417 C 431.77 1.87215 -0.244131 0
M  V30 4418 O 431.127 1.65709 0.764652 0
M  V30 4419 C 431.178 2.48554 -2.62494 0
M  V30 4420 O 430.899 1.96112 -3.91755 0
M  V30 4421 C 432.4 3.40572 -2.8377 0
M  V30 4422 H 429.62 0.403472 -0.536145 0
M  V30 4423 H 432.164 0.657106 -1.93655 0
M  V30 4424 H 430.319 3.1127 -2.30629 0
M  V30 4425 H 430.733 2.71967 -4.4848 0
M  V30 4426 H 432.207 4.18375 -3.60093 0
M  V30 4427 H 432.684 3.94965 -1.92092 0
M  V30 4428 H 433.29 2.8366 -3.16887 0
M  V30 4429 N 431.605 1.3629 0.791371 0
M  V30 4430 C 432.833 1.33562 1.58016 0
M  V30 4431 C 433.248 -0.0835616 1.88615 0
M  V30 4432 O 432.605 -1.0399 1.49974 0
M  V30 4433 C 432.656 2.15517 2.90232 0
M  V30 4434 O 432.377 3.51902 2.60953 0
M  V30 4435 C 433.878 2.20546 3.84544 0
M  V30 4436 H 431.098 0.458226 0.490173 0
M  V30 4437 H 433.642 1.79361 0.982345 0
M  V30 4438 H 431.797 1.73278 3.46487 0
M  V30 4439 H 432.211 3.94644 3.4548 0
M  V30 4440 H 433.685 2.82252 4.74382 0
M  V30 4441 H 434.162 1.20838 4.2225 0
M  V30 4442 H 434.768 2.63013 3.34222 0
M  V30 4443 N 433.083 -1.0153 1.20538 0
M  V30 4444 C 434.046 -2.0826 0.957098 0
M  V30 4445 C 435.046 -1.60657 -0.0678655 0
M  V30 4446 O 436.236 -1.73385 0.168332 0
M  V30 4447 C 433.368 -3.38033 0.441188 0
M  V30 4448 H 434.561 -2.31719 1.90384 0
M  V30 4449 H 432.114 -1.1835 1.02093 0
M  V30 4450 H 432.849 -3.20249 -0.510961 0
M  V30 4451 H 432.634 -3.73911 1.18038 0
M  V30 4452 H 434.124 -4.16613 0.287009 0
M  V30 4453 N 434.561 -1.01147 -1.20859 0
M  V30 4454 C 435.791 -0.715872 -1.93801 0
M  V30 4455 C 436.199 0.726592 -1.74692 0
M  V30 4456 O 435.542 1.50397 -1.05482 0
M  V30 4457 C 435.604 -0.965269 -3.46299 0
M  V30 4458 C 435.268 -2.39584 -3.89164 0
M  V30 4459 C 436.265 -3.3764 -3.95342 0
M  V30 4460 C 433.95 -2.73522 -4.21297 0
M  V30 4461 C 435.944 -4.67698 -4.33056 0
M  V30 4462 C 433.631 -4.03794 -4.58687 0
M  V30 4463 C 434.629 -5.00693 -4.64538 0
M  V30 4464 O 434.317 -6.28635 -5.01072 0
M  V30 4465 H 434.049 -0.262524 -0.622942 0
M  V30 4466 H 436.603 -1.35413 -1.54443 0
M  V30 4467 H 434.833 -0.269847 -3.85757 0
M  V30 4468 H 436.522 -0.662051 -4.00464 0
M  V30 4469 H 437.288 -3.12757 -3.70686 0
M  V30 4470 H 433.167 -1.9879 -4.15937 0
M  V30 4471 H 436.711 -5.4333 -4.37537 0
M  V30 4472 H 432.608 -4.28459 -4.82797 0
M  V30 4473 H 433.376 -6.32847 -5.19083 0
M  V30 4474 N 436.039 1.36541 -0.78704 0
M  V30 4475 C 436.972 2.27831 -0.129765 0
M  V30 4476 C 437.95 1.47105 0.692732 0
M  V30 4477 O 439.134 1.7641 0.664222 0
M  V30 4478 C 436.261 3.28577 0.821883 0
M  V30 4479 C 435.307 4.26422 0.0814771 0
M  V30 4480 S 436.14 5.20919 -1.24112 0
M  V30 4481 C 437.296 6.25212 -0.293409 0
M  V30 4482 H 437.529 2.83229 -0.903811 0
M  V30 4483 H 435.062 1.43046 -0.581144 0
M  V30 4484 H 437.02 3.87123 1.3655 0
M  V30 4485 H 435.681 2.72096 1.56916 0
M  V30 4486 H 434.874 4.97554 0.803485 0
M  V30 4487 H 434.476 3.71944 -0.391589 0
M  V30 4488 H 436.768 6.75435 0.528622 0
M  V30 4489 H 437.711 7.01378 -0.973344 0
M  V30 4490 H 438.119 5.64407 0.102196 0
M  V30 4491 N 437.518 0.538854 1.48102 0
M  V30 4492 C 438.766 0.00798599 2.02098 0
M  V30 4493 C 439.087 -1.33922 1.41739 0
M  V30 4494 O 438.357 -1.86932 0.585934 0
M  V30 4495 H 436.937 -3.62179e-05 0.747 0
M  V30 4496 H 439.599 0.7047 1.81714 0
M  V30 4497 H 438.695 -0.0937672 3.11959 0
M  V30 4498 N 438.996 -1.55193 0.274407 0
M  V30 4499 C 439.926 -2.25471 -0.607032 0
M  V30 4500 C 440.907 -1.24461 -1.15946 0
M  V30 4501 O 442.092 -1.53179 -1.19373 0
M  V30 4502 C 439.222 -2.97526 -1.79153 0
M  V30 4503 C 438.176 -4.05459 -1.37067 0
M  V30 4504 C 437.502 -4.65084 -2.6382 0
M  V30 4505 C 438.802 -5.19691 -0.521389 0
M  V30 4506 H 440.496 -2.99393 -0.0209343 0
M  V30 4507 H 438.042 -1.43997 -0.00862866 0
M  V30 4508 H 439.995 -3.45402 -2.41404 0
M  V30 4509 H 438.719 -2.21138 -2.40344 0
M  V30 4510 H 437.378 -3.58393 -0.771355 0
M  V30 4511 H 437.026 -3.85365 -3.23268 0
M  V30 4512 H 436.726 -5.37961 -2.36372 0
M  V30 4513 H 438.25 -5.15708 -3.26921 0
M  V30 4514 H 439.664 -5.63623 -1.04889 0
M  V30 4515 H 438.061 -5.99126 -0.341825 0
M  V30 4516 H 439.131 -4.82713 0.46 0
M  V30 4517 N 440.474 -0.00167713 -1.576 0
M  V30 4518 C 441.699 0.69739 -1.95323 0
M  V30 4519 C 442.124 1.6642 -0.876706 0
M  V30 4520 O 441.482 1.80548 0.165007 0
M  V30 4521 C 441.53 1.40403 -3.32144 0
M  V30 4522 O 440.634 2.5185 -3.26566 0
M  V30 4523 H 439.975 0.185373 -0.637599 0
M  V30 4524 H 442.505 -0.0553665 -2.04525 0
M  V30 4525 H 442.515 1.76707 -3.67748 0
M  V30 4526 H 441.19 0.695167 -4.10049 0
M  V30 4527 H 439.767 2.17861 -3.0264 0
M  V30 4528 N 441.952 1.55251 0.271103 0
M  V30 4529 C 443.177 1.80306 1.02491 0
M  V30 4530 C 443.602 0.575457 1.79081 0
M  V30 4531 O 442.96 -0.474987 1.74967 0
M  V30 4532 C 443.008 3.02832 1.95768 0
M  V30 4533 O 442.112 2.78051 3.04568 0
M  V30 4534 H 441.453 0.595896 0.292923 0
M  V30 4535 H 443.983 2.02397 0.299436 0
M  V30 4536 H 443.993 3.31616 2.37686 0
M  V30 4537 H 442.668 3.9183 1.39434 0
M  V30 4538 H 441.245 2.60369 2.66951 0
M  V30 4539 N 443.43 -0.535701 1.48216 0
M  V30 4540 C 444.36 -1.65014 1.65204 0
M  V30 4541 C 445.341 -1.62554 0.501011 0
M  V30 4542 O 446.526 -1.7984 0.732886 0
M  V30 4543 C 443.656 -3.03616 1.68626 0
M  V30 4544 C 442.61 -3.20932 2.83172 0
M  V30 4545 C 441.936 -4.60537 2.71679 0
M  V30 4546 C 443.236 -3.04249 4.24535 0
M  V30 4547 H 444.93 -1.51053 2.58502 0
M  V30 4548 H 442.476 -0.725262 1.24402 0
M  V30 4549 H 444.429 -3.81446 1.79099 0
M  V30 4550 H 443.153 -3.18587 0.719026 0
M  V30 4551 H 441.812 -2.45517 2.72244 0
M  V30 4552 H 441.46 -4.72336 1.72937 0
M  V30 4553 H 441.16 -4.73069 3.48538 0
M  V30 4554 H 442.684 -5.40475 2.84112 0
M  V30 4555 H 444.098 -3.71877 4.36326 0
M  V30 4556 H 442.495 -3.28278 5.02348 0
M  V30 4557 H 443.565 -2.00739 4.41397 0
M  V30 4558 N 444.908 -1.36708 -0.784132 0
M  V30 4559 C 446.324 -1.17237 -1.08294 0
M  V30 4560 C 446.524 -5.93947e-05 -2.015 0
M  V30 4561 O 445.58 0.663686 -2.43622 0
M  V30 4562 C 446.893 -2.48557 -1.69233 0
M  V30 4563 C 448.441 -2.54968 -1.8155 0
M  V30 4564 C 448.916 -3.86388 -2.45904 0
M  V30 4565 N 450.407 -3.87762 -2.53367 0
M  V30 4566 C 451.142 -4.86191 -3.03983 0
M  V30 4567 N 450.638 -5.95015 -3.54866 0
M  V30 4568 N 452.431 -4.73606 -3.02743 0
M  V30 4569 H 444.582 -2.11758 -0.16501 0
M  V30 4570 H 446.845 -0.93822 -0.135822 0
M  V30 4571 H 446.551 -3.34638 -1.08215 0
M  V30 4572 H 446.425 -2.64748 -2.68679 0
M  V30 4573 H 448.812 -1.69302 -2.41704 0
M  V30 4574 H 448.893 -2.42672 -0.80895 0
M  V30 4575 H 448.537 -4.72462 -1.86392 0
M  V30 4576 H 448.467 -3.95982 -3.4714 0
M  V30 4577 H 450.958 -3.09145 -2.17343 0
M  V30 4578 H 451.271 -6.66086 -3.91854 0
M  V30 4579 H 449.616 -5.98676 -3.53003 0
M  V30 4580 H 452.807 -3.87717 -2.62284 0
M  V30 4581 H 452.98 -5.50473 -3.41881 0
M  V30 4582 N 446.386 1.0089 -1.21074 0
M  V30 4583 C 447.797 1.56056 -1.02486 0
M  V30 4584 C 448.148 1.91728 0.416506 0
M  V30 4585 O 447.273 1.73066 1.29912 0
M  V30 4586 C 447.868 2.83563 -1.85411 0
M  V30 4587 C 446.427 3.3523 -1.71166 0
M  V30 4588 C 445.574 2.0846 -1.82865 0
M  V30 4589 H 448.525 0.831818 -1.35154 0
M  V30 4590 H 448.546 3.55286 -1.36205 0
M  V30 4591 H 448.058 2.57569 -2.9031 0
M  V30 4592 H 446.159 3.66167 -0.689361 0
M  V30 4593 H 446.272 4.06913 -2.52901 0
M  V30 4594 H 444.636 2.21275 -1.26132 0
M  V30 4595 H 445.419 1.84883 -2.89263 0
M  V30 4596 N 447.864 1.01787 1.20321 0
M  V30 4597 C 448.774 0.598898 2.26827 0
M  V30 4598 C 449.79 -0.36418 1.70146 0
M  V30 4599 O 450.966 -0.224812 2.00141 0
M  V30 4600 C 448.031 -0.0549769 3.46656 0
M  V30 4601 C 447.092 0.954205 4.18561 0
M  V30 4602 C 446.325 0.331439 5.3267 0
M  V30 4603 O 446.548 -0.86851 5.63749 0
M  V30 4604 O 445.482 1.0488 5.92692 0
M  V30 4605 H 449.308 1.48562 2.64883 0
M  V30 4606 H 446.893 0.787434 1.26964 0
M  V30 4607 H 448.775 -0.420102 4.19301 0
M  V30 4608 H 447.45 -0.915876 3.10473 0
M  V30 4609 H 446.357 1.37072 3.48083 0
M  V30 4610 H 447.69 1.78511 4.58688 0
M  V30 4611 N 449.342 -1.36122 0.79427 0
M  V30 4612 C 450.619 -1.93398 0.292685 0
M  V30 4613 C 450.999 -1.72567 -1.21589 0
M  V30 4614 O 450.347 -1.08745 -2.00965 0
M  V30 4615 C 450.557 -3.42099 0.690614 0
M  V30 4616 C 451.905 -4.19231 0.673105 0
M  V30 4617 O 452.929 -3.50559 0.631389 0
M  V30 4618 O 451.788 -5.41732 0.720362 0
M  V30 4619 H 448.882 -0.823712 0.0736693 0
M  V30 4620 H 451.428 -1.45273 0.87714 0
M  V30 4621 H 450.2 -3.50938 1.73085 0
M  V30 4622 H 449.823 -3.97519 0.0803036 0
M  V30 4623 N 450.82 -0.546701 -1.47814 0
M  V30 4624 C 452.048 -0.0232857 -2.06887 0
M  V30 4625 C 452.463 1.26571 -1.4009 0
M  V30 4626 O 451.82 1.7569 -0.493906 0
M  V30 4627 C 451.871 0.186975 -3.61016 0
M  V30 4628 O 451.592 -1.05097 -4.25307 0
M  V30 4629 C 453.093 0.748872 -4.36929 0
M  V30 4630 H 450.313 -0.0410763 -0.669742 0
M  V30 4631 H 452.857 -0.757117 -1.89968 0
M  V30 4632 H 451.012 0.870903 -3.77484 0
M  V30 4633 H 451.426 -0.842121 -5.17695 0
M  V30 4634 H 452.9 0.845334 -5.45489 0
M  V30 4635 H 453.377 1.75772 -4.02493 0
M  V30 4636 H 453.983 0.100979 -4.2518 0
M  V30 4637 N 452.299 1.55045 -0.282633 0
M  V30 4638 C 453.262 2.21515 0.588539 0
M  V30 4639 C 454.262 1.19535 1.07554 0
M  V30 4640 O 455.452 1.44391 0.974514 0
M  V30 4641 C 452.584 2.88704 1.8128 0
M  V30 4642 H 453.777 2.99899 0.00806397 0
M  V30 4643 H 451.33 1.56265 -0.0333067 0
M  V30 4644 H 452.065 2.14352 2.43359 0
M  V30 4645 H 451.85 3.63443 1.47144 0
M  V30 4646 H 453.34 3.39465 2.43214 0
M  V30 4647 N 453.777 0.010035 1.57597 0
M  V30 4648 C 455.023 -0.673697 1.91283 0
M  V30 4649 C 455.356 -1.72863 0.884979 0
M  V30 4650 O 454.631 -1.94268 -0.0949487 0
M  V30 4651 C 454.914 -1.30766 3.35518 0
M  V30 4652 C 454.767 -0.263578 4.49027 0
M  V30 4653 C 456.086 -2.23105 3.79358 0
M  V30 4654 H 453.205 -0.243439 0.695634 0
M  V30 4655 H 455.847 0.0633864 1.89894 0
M  V30 4656 H 453.997 -1.93588 3.36832 0
M  V30 4657 H 455.669 0.365738 4.59848 0
M  V30 4658 H 453.912 0.413077 4.31829 0
M  V30 4659 H 454.583 -0.746398 5.4693 0
M  V30 4660 H 457.059 -1.70289 3.79659 0
M  V30 4661 H 455.935 -2.64424 4.81011 0
M  V30 4662 H 456.196 -3.11433 3.13787 0
M  V30 4663 N 455.255 -1.55392 -0.262866 0
M  V30 4664 C 456.485 -1.80251 -1.00961 0
M  V30 4665 C 456.893 -0.58117 -1.80053 0
M  V30 4666 O 456.236 0.459427 -1.77862 0
M  V30 4667 C 456.298 -2.98207 -2.00781 0
M  V30 4668 C 455.962 -4.34856 -1.40533 0
M  V30 4669 C 456.959 -5.13459 -0.815853 0
M  V30 4670 C 454.644 -4.8153 -1.42948 0
M  V30 4671 C 456.638 -6.36875 -0.258562 0
M  V30 4672 C 454.325 -6.04899 -0.868334 0
M  V30 4673 C 455.323 -6.8241 -0.283884 0
M  V30 4674 O 455.011 -8.03451 0.268644 0
M  V30 4675 H 454.743 -0.604049 -0.303482 0
M  V30 4676 H 457.297 -2.03257 -0.295926 0
M  V30 4677 H 455.527 -2.70917 -2.75936 0
M  V30 4678 H 457.216 -3.10299 -2.61667 0
M  V30 4679 H 457.982 -4.78526 -0.789812 0
M  V30 4680 H 453.861 -4.21201 -1.87378 0
M  V30 4681 H 457.405 -6.97318 0.198257 0
M  V30 4682 H 453.302 -6.39312 -0.891649 0
M  V30 4683 H 454.07 -8.18346 0.158974 0
M  V30 4684 N 456.733 0.527833 -1.48498 0
M  V30 4685 C 457.963 1.30633 -1.60058 0
M  V30 4686 C 458.371 1.87394 -0.260786 0
M  V30 4687 O 457.714 1.67227 0.760317 0
M  V30 4688 C 457.776 2.49361 -2.58958 0
M  V30 4689 C 457.44 2.13671 -4.03972 0
M  V30 4690 C 458.437 1.69217 -4.91591 0
M  V30 4691 C 456.122 2.24129 -4.49524 0
M  V30 4692 C 458.116 1.35689 -6.2279 0
M  V30 4693 C 455.803 1.90212 -5.80743 0
M  V30 4694 C 456.801 1.46063 -6.67199 0
M  V30 4695 O 456.489 1.12593 -7.95976 0
M  V30 4696 H 456.221 0.403444 -0.54241 0
M  V30 4697 H 458.775 0.643233 -1.95068 0
M  V30 4698 H 457.005 3.18659 -2.19073 0
M  V30 4699 H 458.694 3.11421 -2.6033 0
M  V30 4700 H 459.46 1.60607 -4.57636 0
M  V30 4701 H 455.339 2.57447 -3.82416 0
M  V30 4702 H 458.883 1.01157 -6.90227 0
M  V30 4703 H 454.78 1.98464 -6.14233 0
M  V30 4704 H 455.548 1.25972 -8.08748 0
M  V30 4705 N 458.211 1.37122 0.776871 0
M  V30 4706 C 459.451 1.33441 1.54831 0
M  V30 4707 C 459.815 -0.0818963 1.91825 0
M  V30 4708 O 461.016 -0.24338 2.67696 0
M  V30 4709 C 459.287 2.24267 2.78279 0
M  V30 4710 S 460.846 2.38389 3.68397 0
M  V30 4711 H 457.664 0.473791 0.530135 0
M  V30 4712 H 460.266 1.7282 0.913968 0
M  V30 4713 H 458.97 3.261 2.49173 0
M  V30 4714 H 458.501 1.85953 3.46677 0
M  V30 4715 H 460.516 1.59068 4.70013 0
M  V30 4716 N 459.689 -1.00246 1.21608 0
M  V30 4717 C 460.652 -2.07233 0.979133 0
M  V30 4718 C 461.652 -1.6072 -0.0508219 0
M  V30 4719 O 462.842 -1.73196 0.186712 0
M  V30 4720 C 459.974 -3.37546 0.477016 0
M  V30 4721 H 461.167 -2.29687 1.92831 0
M  V30 4722 H 458.72 -1.17261 1.03342 0
M  V30 4723 H 459.455 -3.20773 -0.476966 0
M  V30 4724 H 459.24 -3.72638 1.21997 0
M  V30 4725 H 460.73 -4.16285 0.331181 0
M  V30 4726 N 461.167 -1.02423 -1.1978 0
M  V30 4727 C 462.583 -0.740459 -1.41384 0
M  V30 4728 C 462.783 0.676827 -1.89793 0
M  V30 4729 O 461.839 1.4435 -2.0717 0
M  V30 4730 C 463.152 -1.77264 -2.42895 0
M  V30 4731 C 464.7 -1.79165 -2.56649 0
M  V30 4732 C 465.175 -2.8133 -3.6141 0
M  V30 4733 N 466.666 -2.80118 -3.68901 0
M  V30 4734 C 467.401 -3.55824 -4.49641 0
M  V30 4735 N 466.897 -4.41231 -5.34123 0
M  V30 4736 N 468.69 -3.44387 -4.44246 0
M  V30 4737 H 460.841 -1.9391 -0.866764 0
M  V30 4738 H 463.104 -0.838074 -0.443098 0
M  V30 4739 H 462.81 -2.7884 -2.14339 0
M  V30 4740 H 462.684 -1.59108 -3.42001 0
M  V30 4741 H 465.071 -0.782702 -2.84531 0
M  V30 4742 H 465.152 -2.01396 -1.57713 0
M  V30 4743 H 464.796 -3.82394 -3.34271 0
M  V30 4744 H 464.726 -2.56359 -4.59986 0
M  V30 4745 H 467.217 -2.1817 -3.08562 0
M  V30 4746 H 467.53 -4.95747 -5.92836 0
M  V30 4747 H 465.875 -4.45306 -5.33599 0
M  V30 4748 H 469.066 -2.7708 -3.77285 0
M  V30 4749 H 469.239 -4.0364 -5.06931 0
M  V30 4750 N 462.645 1.35699 -0.801477 0
M  V30 4751 C 463.922 1.9324 -0.302937 0
M  V30 4752 C 464.302 1.73209 1.20672 0
M  V30 4753 O 463.65 1.09809 2.00385 0
M  V30 4754 C 463.86 3.41728 -0.708747 0
M  V30 4755 C 465.208 4.18868 -0.695328 0
M  V30 4756 O 466.232 3.5022 -0.649971 0
M  V30 4757 O 465.091 5.41342 -0.749081 0
M  V30 4758 H 462.185 0.82331 -0.0780367 0
M  V30 4759 H 464.731 1.44806 -0.884832 0
M  V30 4760 H 463.503 3.50015 -1.74944 0
M  V30 4761 H 463.126 3.97471 -0.101384 0
M  V30 4762 N 464.123 0.554532 1.47522 0
M  V30 4763 C 465.534 0.120446 1.86311 0
M  V30 4764 C 465.885 -1.30904 1.46145 0
M  V30 4765 O 465.01 -1.98434 0.863294 0
M  V30 4766 C 465.605 0.211808 3.38137 0
M  V30 4767 C 464.164 -0.167224 3.76028 0
M  V30 4768 C 463.311 0.560576 2.71575 0
M  V30 4769 H 466.262 0.764408 1.39077 0
M  V30 4770 H 466.283 -0.570275 3.76202 0
M  V30 4771 H 465.795 1.25232 3.6734 0
M  V30 4772 H 463.896 -1.20894 3.52442 0
M  V30 4773 H 464.009 0.189473 4.78725 0
M  V30 4774 H 462.373 0.00396836 2.547 0
M  V30 4775 H 463.156 1.60219 3.0362 0
M  V30 4776 N 465.601 -1.54893 0.290851 0
M  V30 4777 C 466.831 -2.04047 -0.323818 0
M  V30 4778 C 467.239 -1.16809 -1.48837 0
M  V30 4779 O 466.582 -0.184145 -1.82775 0
M  V30 4780 C 466.644 -3.49248 -0.852395 0
M  V30 4781 C 466.308 -4.56623 0.185557 0
M  V30 4782 C 467.305 -5.09985 1.01053 0
M  V30 4783 C 464.99 -5.01252 0.324332 0
M  V30 4784 C 466.984 -6.06507 1.96031 0
M  V30 4785 C 464.671 -5.97596 1.27757 0
M  V30 4786 C 465.669 -6.50107 2.09405 0
M  V30 4787 O 465.357 -7.44565 3.03114 0
M  V30 4788 H 465.089 -0.671735 -0.0758129 0
M  V30 4789 H 467.643 -2.00947 0.425393 0
M  V30 4790 H 465.873 -3.49639 -1.65195 0
M  V30 4791 H 467.562 -3.81654 -1.38185 0
M  V30 4792 H 468.328 -4.76307 0.914129 0
M  V30 4793 H 464.207 -4.60015 -0.301213 0
M  V30 4794 H 467.751 -6.47418 2.598 0
M  V30 4795 H 463.648 -6.30691 1.37473 0
M  V30 4796 H 464.416 -7.62334 2.97976 0
M  V30 4797 N 467.08 -0.0183926 -1.57589 0
M  V30 4798 C 468.328 0.661253 -1.90976 0
M  V30 4799 C 468.649 1.73281 -0.894353 0
M  V30 4800 O 467.919 1.9579 0.0656788 0
M  V30 4801 H 466.499 0.247233 -0.704901 0
M  V30 4802 H 469.161 -0.0636639 -1.94796 0
M  V30 4803 H 468.257 1.12083 -2.9128 0
M  V30 4804 N 468.558 1.5553 0.254621 0
M  V30 4805 C 469.806 1.7665 0.981793 0
M  V30 4806 C 470.127 0.580963 1.86145 0
M  V30 4807 O 469.397 -0.403537 1.91699 0
M  V30 4808 H 467.977 0.651475 0.365498 0
M  V30 4809 H 470.639 1.92958 0.274426 0
M  V30 4810 H 469.735 2.67486 1.60802 0
M  V30 4811 N 470.036 -0.519951 1.48776 0
M  V30 4812 C 471.284 -1.2727 1.56993 0
M  V30 4813 C 471.605 -1.9339 0.25004 0
M  V30 4814 O 470.875 -1.81822 -0.729216 0
M  V30 4815 H 469.455 -0.472732 0.578389 0
M  V30 4816 H 472.117 -0.604234 1.85297 0
M  V30 4817 H 471.213 -2.04669 2.3562 0
M  V30 4818 N 471.514 -1.37532 -0.769588 0
M  V30 4819 C 472.461 -1.3347 -1.88293 0
M  V30 4820 C 473.431 -0.199891 -1.64893 0
M  V30 4821 O 474.616 -0.389594 -1.8678 0
M  V30 4822 C 471.756 -1.14968 -3.25387 0
M  V30 4823 C 470.869 -2.37698 -3.60727 0
M  V30 4824 C 470.004 -2.12051 -4.8704 0
M  V30 4825 C 469.043 -3.30636 -5.15117 0
M  V30 4826 N 468.18 -3.04527 -6.3262 0
M  V30 4827 H 473.02 -2.28658 -1.911 0
M  V30 4828 H 470.557 -1.13622 -0.934257 0
M  V30 4829 H 472.515 -1.02261 -4.04473 0
M  V30 4830 H 471.145 -0.234263 -3.21949 0
M  V30 4831 H 470.197 -2.61137 -2.76608 0
M  V30 4832 H 471.509 -3.26131 -3.77413 0
M  V30 4833 H 470.663 -1.96388 -5.74035 0
M  V30 4834 H 469.402 -1.20959 -4.72462 0
M  V30 4835 H 468.407 -3.46836 -4.26597 0
M  V30 4836 H 469.632 -4.22582 -5.31603 0
M  V30 4837 H 467.578 -2.16067 -6.19396 0
M  V30 4838 H 467.495 -3.86503 -6.49732 0
M  V30 4839 H 468.763 -2.92485 -7.22546 0
M  V30 4840 N 472.992 0.995999 -1.22138 0
M  V30 4841 C 474.217 1.77601 -1.0711 0
M  V30 4842 C 474.642 1.84339 0.374264 0
M  V30 4843 O 474 1.29359 1.27028 0
M  V30 4844 C 474.048 3.18897 -1.68336 0
M  V30 4845 O 473.152 4.01663 -0.934928 0
M  V30 4846 H 472.493 0.547011 -0.376397 0
M  V30 4847 H 475.023 1.25137 -1.6187 0
M  V30 4848 H 475.033 3.69539 -1.72931 0
M  V30 4849 H 473.708 3.13308 -2.73516 0
M  V30 4850 H 472.285 3.60204 -0.964751 0
M  V30 4851 N 474.47 1.03057 1.19235 0
M  V30 4852 C 475.38 0.622922 2.26179 0
M  V30 4853 C 476.396 -0.346113 1.70523 0
M  V30 4854 O 477.572 -0.203572 2.00369 0
M  V30 4855 C 474.637 -0.0182063 3.46695 0
M  V30 4856 C 473.698 0.998546 4.17526 0
M  V30 4857 C 472.931 0.387917 5.32288 0
M  V30 4858 O 473.154 -0.808668 5.64639 0
M  V30 4859 O 472.088 1.1116 5.91546 0
M  V30 4860 H 475.914 1.51363 2.63292 0
M  V30 4861 H 473.499 0.800856 1.26122 0
M  V30 4862 H 475.381 -0.375606 4.19723 0
M  V30 4863 H 474.056 -0.882895 3.11427 0
M  V30 4864 H 472.963 1.40756 3.4661 0
M  V30 4865 H 474.296 1.83366 4.56769 0
M  V30 4866 N 475.948 -1.35272 0.808662 0
M  V30 4867 C 477.195 -1.98709 0.390003 0
M  V30 4868 C 477.523 -1.64148 -1.04335 0
M  V30 4869 O 476.778 -0.897797 -1.73891 0
M  V30 4870 C 477.077 -3.53556 0.522798 0
M  V30 4871 C 476.743 -4.0799 1.91977 0
M  V30 4872 C 475.405 -4.22568 2.30195 0
M  V30 4873 C 477.757 -4.37442 2.83361 0
M  V30 4874 C 475.085 -4.63918 3.59162 0
M  V30 4875 C 477.437 -4.80232 4.11776 0
M  V30 4876 C 476.101 -4.93016 4.49991 0
M  V30 4877 H 475.371 -0.727127 0.142712 0
M  V30 4878 H 478.018 -1.6145 1.02985 0
M  V30 4879 H 476.323 -3.91287 -0.200494 0
M  V30 4880 H 478.02 -4.00598 0.179608 0
M  V30 4881 H 474.61 -3.97096 1.61284 0
M  V30 4882 H 478.794 -4.25731 2.55083 0
M  V30 4883 H 474.05 -4.72005 3.88615 0
M  V30 4884 H 478.224 -5.01982 4.82687 0
M  V30 4885 H 475.851 -5.24814 5.49976 0
M  V30 4886 N 477.426 -0.562348 -1.47226 0
M  V30 4887 C 478.703 0.0256985 -1.95583 0
M  V30 4888 C 479.083 1.48032 -1.50498 0
M  V30 4889 O 478.431 2.15973 -0.746181 0
M  V30 4890 C 478.641 -0.125129 -3.48776 0
M  V30 4891 C 479.989 0.0175728 -4.24596 0
M  V30 4892 O 481.013 -0.0529341 -3.56161 0
M  V30 4893 O 479.872 0.170145 -5.46235 0
M  V30 4894 H 476.966 0.0612565 -0.824728 0
M  V30 4895 H 479.512 -0.629233 -1.57603 0
M  V30 4896 H 478.284 -1.13715 -3.74412 0
M  V30 4897 H 477.907 0.567178 -3.93534 0
M  V30 4898 N 478.904 1.54736 -0.299062 0
M  V30 4899 C 480.134 2.04215 0.312992 0
M  V30 4900 C 480.542 1.17596 1.48215 0
M  V30 4901 O 479.885 0.193835 1.82674 0
M  V30 4902 C 479.947 3.49696 0.833862 0
M  V30 4903 C 479.611 4.56518 -0.20977 0
M  V30 4904 C 480.608 5.09442 -1.03756 0
M  V30 4905 C 478.293 5.01073 -0.35091 0
M  V30 4906 C 480.287 6.05459 -1.99244 0
M  V30 4907 C 477.974 5.9691 -1.30924 0
M  V30 4908 C 478.972 6.48987 -2.1285 0
M  V30 4909 O 478.66 7.42947 -3.07059 0
M  V30 4910 H 478.392 0.672128 0.0722494 0
M  V30 4911 H 480.946 2.00718 -0.436043 0
M  V30 4912 H 479.176 3.5051 1.63339 0
M  V30 4913 H 480.865 3.82381 1.36159 0
M  V30 4914 H 481.631 4.75816 -0.939376 0
M  V30 4915 H 477.51 4.60168 0.276813 0
M  V30 4916 H 481.054 6.46031 -2.63229 0
M  V30 4917 H 476.951 6.29953 -1.40815 0
M  V30 4918 H 477.719 7.60743 -3.02015 0
M  V30 4919 N 480.382 0.0267497 1.57577 0
M  V30 4920 C 481.628 -0.647596 1.92815 0
M  V30 4921 C 481.983 -1.69872 0.903396 0
M  V30 4922 O 481.276 -1.91429 -0.0808881 0
M  V30 4923 C 481.47 -1.30914 3.3256 0
M  V30 4924 C 481.299 -0.323621 4.48534 0
M  V30 4925 C 480.069 0.0756607 5.05243 0
M  V30 4926 C 482.267 0.42112 5.12573 0
M  V30 4927 N 480.249 1.0566 6.04739 0
M  V30 4928 C 481.62 1.25589 6.07147 0
M  V30 4929 C 483.675 0.482077 4.95561 0
M  V30 4930 C 482.378 2.1461 6.86538 0
M  V30 4931 C 484.404 1.35962 5.75559 0
M  V30 4932 C 483.766 2.18217 6.69747 0
M  V30 4933 H 479.865 -0.209357 0.753454 0
M  V30 4934 H 482.449 0.0933695 1.94476 0
M  V30 4935 H 480.62 -2.02026 3.31723 0
M  V30 4936 H 482.352 -1.94033 3.55153 0
M  V30 4937 H 479.107 -0.298294 4.7266 0
M  V30 4938 H 479.531 1.54324 6.59176 0
M  V30 4939 H 484.173 -0.139609 4.22569 0
M  V30 4940 H 481.891 2.77835 7.58837 0
M  V30 4941 H 485.477 1.41105 5.6443 0
M  V30 4942 H 484.357 2.85022 7.3057 0
M  V30 4943 N 481.861 -1.55662 -0.24637 0
M  V30 4944 C 483.109 -1.77168 -0.972411 0
M  V30 4945 C 483.43 -0.590827 -1.85834 0
M  V30 4946 O 482.7 0.393365 -1.9191 0
M  V30 4947 H 481.28 -0.653405 -0.362038 0
M  V30 4948 H 483.942 -1.93101 -0.264189 0
M  V30 4949 H 483.038 -2.68335 -1.59382 0
M  V30 4950 N 483.339 0.512053 -1.4905 0
M  V30 4951 C 484.271 1.63121 -1.6101 0
M  V30 4952 C 485.284 1.55145 -0.493352 0
M  V30 4953 O 486.473 1.61278 -0.764955 0
M  V30 4954 C 483.573 3.01863 -1.54052 0
M  V30 4955 C 482.746 3.35138 -2.81072 0
M  V30 4956 C 481.805 4.5324 -2.67319 0
M  V30 4957 O 480.831 4.55571 -3.41238 0
M  V30 4958 N 482.033 5.52495 -1.78127 0
M  V30 4959 H 484.798 1.53292 -2.5753 0
M  V30 4960 H 482.359 0.699706 -1.45999 0
M  V30 4961 H 484.351 3.78774 -1.42521 0
M  V30 4962 H 482.921 3.05675 -0.654345 0
M  V30 4963 H 482.141 2.4723 -3.07036 0
M  V30 4964 H 483.429 3.54162 -3.65304 0
M  V30 4965 H 482.827 5.53403 -1.17308 0
M  V30 4966 H 481.384 6.28553 -1.72525 0
M  V30 4967 N 484.817 1.37938 0.762283 0
M  V30 4968 C 486.065 1.33404 1.51815 0
M  V30 4969 C 486.386 -0.0780975 1.94844 0
M  V30 4970 O 485.656 -1.02405 1.67003 0
M  V30 4971 H 484.236 0.490839 0.563104 0
M  V30 4972 H 486.898 1.72527 0.906669 0
M  V30 4973 H 485.994 1.97926 2.41313 0
M  V30 4974 N 486.295 -0.989507 1.22664 0
M  V30 4975 C 487.523 -1.76496 1.07967 0
M  V30 4976 C 487.938 -1.85148 -0.369543 0
M  V30 4977 O 487.295 -1.32408 -1.25596 0
M  V30 4978 C 487.346 -3.19642 1.68853 0
M  V30 4979 O 487.067 -3.11453 3.08105 0
M  V30 4980 C 488.568 -4.13621 1.59475 0
M  V30 4981 H 485.788 -0.55418 0.378319 0
M  V30 4982 H 488.332 -1.24378 1.62328 0
M  V30 4983 H 486.487 -3.68816 1.18547 0
M  V30 4984 H 486.901 -4.01499 3.37489 0
M  V30 4985 H 488.375 -5.11801 2.06795 0
M  V30 4986 H 488.852 -4.35718 0.55191 0
M  V30 4987 H 489.458 -3.70346 2.09103 0
M  V30 4988 N 487.773 -1.03688 -1.18687 0
M  V30 4989 C 488.703 -0.645407 -2.24403 0
M  V30 4990 C 489.684 0.349511 -1.66471 0
M  V30 4991 O 490.869 0.230453 -1.92828 0
M  V30 4992 C 487.999 -0.00365337 -3.473 0
M  V30 4993 C 486.953 -0.921705 -4.17958 0
M  V30 4994 C 486.279 -0.144629 -5.34504 0
M  V30 4995 C 487.579 -2.23909 -4.71871 0
M  V30 4996 H 489.273 -1.52917 -2.57404 0
M  V30 4997 H 486.819 -0.736711 -1.23728 0
M  V30 4998 H 488.772 0.281908 -4.20456 0
M  V30 4999 H 487.496 0.914963 -3.13522 0
M  V30 5000 H 486.155 -1.19159 -3.46694 0
M  V30 5001 H 485.803 0.776274 -4.96974 0
M  V30 5002 H 485.503 -0.756206 -5.82714 0
M  V30 5003 H 487.027 0.134004 -6.10453 0
M  V30 5004 H 488.441 -2.0145 -5.36741 0
M  V30 5005 H 486.838 -2.8033 -5.30599 0
M  V30 5006 H 487.908 -2.88822 -3.895 0
M  V30 5007 N 489.251 1.34841 -0.815825 0
M  V30 5008 C 490.497 1.98793 -0.401129 0
M  V30 5009 C 490.83 1.64548 1.03139 0
M  V30 5010 O 490.105 0.913487 1.71714 0
M  V30 5011 C 490.388 3.55143 -0.595409 0
M  V30 5012 C 490.241 3.99155 -2.07352 0
M  V30 5013 C 491.56 4.40092 -0.0268823 0
M  V30 5014 H 488.679 0.722146 -0.14722 0
M  V30 5015 H 491.321 1.59847 -1.02707 0
M  V30 5016 H 489.471 3.8845 -0.0625779 0
M  V30 5017 H 491.143 3.76216 -2.66945 0
M  V30 5018 H 489.386 3.49726 -2.56659 0
M  V30 5019 H 490.057 5.07971 -2.1603 0
M  V30 5020 H 492.533 4.13298 -0.482042 0
M  V30 5021 H 491.409 5.48562 -0.19267 0
M  V30 5022 H 491.67 4.29016 1.06759 0
M  V30 5023 N 490.729 0.570148 1.46925 0
M  V30 5024 C 491.957 0.0561966 2.06824 0
M  V30 5025 C 492.372 -1.24326 1.42086 0
M  V30 5026 O 491.729 -1.74882 0.521794 0
M  V30 5027 C 491.78 -0.129517 3.61268 0
M  V30 5028 O 491.501 1.1185 4.23581 0
M  V30 5029 C 493.002 -0.679266 4.38065 0
M  V30 5030 H 490.222 0.0517261 0.669003 0
M  V30 5031 H 492.766 0.787243 1.8874 0
M  V30 5032 H 490.921 -0.810739 3.78822 0
M  V30 5033 H 491.335 0.924375 5.1629 0
M  V30 5034 H 492.809 -0.758445 5.46765 0
M  V30 5035 H 493.286 -1.69346 4.05239 0
M  V30 5036 H 493.892 -0.0333237 4.25287 0
M  V30 5037 N 492.207 -1.54576 0.307264 0
M  V30 5038 C 493.453 -2.0056 -0.300612 0
M  V30 5039 C 493.786 -1.1953 -1.53057 0
M  V30 5040 O 493.061 -0.27337 -1.92569 0
M  V30 5041 C 493.344 -3.54167 -0.650987 0
M  V30 5042 C 493.197 -4.45933 0.588539 0
M  V30 5043 C 494.516 -4.14645 -1.47506 0
M  V30 5044 H 491.635 -0.729075 -0.107788 0
M  V30 5045 H 494.277 -1.85286 0.420606 0
M  V30 5046 H 492.427 -3.67313 -1.26544 0
M  V30 5047 H 494.099 -4.44683 1.22697 0
M  V30 5048 H 492.342 -4.16274 1.22058 0
M  V30 5049 H 493.013 -5.51189 0.299153 0
M  V30 5050 H 495.489 -4.04973 -0.955821 0
M  V30 5051 H 494.365 -5.22269 -1.68899 0
M  V30 5052 H 494.626 -3.66921 -2.4662 0
M  V30 5053 N 493.685 -0.035106 -1.57561 0
M  V30 5054 C 494.91 0.655802 -1.96759 0
M  V30 5055 C 495.335 1.64523 -0.911809 0
M  V30 5056 O 494.693 1.80857 0.126673 0
M  V30 5057 C 494.741 1.33326 -3.35047 0
M  V30 5058 O 493.845 2.44866 -3.31835 0
M  V30 5059 H 493.186 0.171807 -0.641388 0
M  V30 5060 H 495.716 -0.0987369 -2.04362 0
M  V30 5061 H 495.726 1.68867 -3.71413 0
M  V30 5062 H 494.401 0.608033 -4.11431 0
M  V30 5063 H 492.978 2.11392 -3.07193 0
M  V30 5064 N 495.163 1.55791 0.238111 0
M  V30 5065 C 496.388 1.8244 0.986432 0
M  V30 5066 C 496.813 0.613314 1.7782 0
M  V30 5067 O 496.171 -0.437767 1.75935 0
M  V30 5068 C 496.219 3.06917 1.893 0
M  V30 5069 O 495.323 2.84449 2.98601 0
M  V30 5070 H 494.664 0.601975 0.280218 0
M  V30 5071 H 497.194 2.02987 0.256437 0
M  V30 5072 H 497.204 3.36583 2.30598 0
M  V30 5073 H 495.879 3.947 1.31091 0
M  V30 5074 H 494.456 2.65972 2.61368 0
M  V30 5075 N 496.642 -0.504142 1.49319 0
M  V30 5076 C 497.605 -1.5883 1.65244 0
M  V30 5077 C 498.605 -1.52009 0.524386 0
M  V30 5078 O 499.795 -1.55218 0.79077 0
M  V30 5079 C 496.927 -2.98481 1.64687 0
M  V30 5080 H 498.12 -1.4604 2.61939 0
M  V30 5081 H 495.673 -0.728144 1.38303 0
M  V30 5082 H 496.408 -3.16751 0.695644 0
M  V30 5083 H 496.193 -3.0484 2.46607 0
M  V30 5084 H 497.683 -3.77256 1.79075 0
M  V30 5085 N 498.12 -1.38341 -0.754957 0
M  V30 5086 C 499.345 -1.37882 -1.5493 0
M  V30 5087 C 499.77 0.0296385 -1.88077 0
M  V30 5088 O 499.128 1.01133 -1.50472 0
M  V30 5089 C 499.176 -2.23996 -2.82592 0
M  V30 5090 O 498.28 -1.65612 -3.77686 0
M  V30 5091 H 497.621 -0.470384 -0.468652 0
M  V30 5092 H 500.151 -1.82084 -0.933082 0
M  V30 5093 H 500.161 -2.37806 -3.3153 0
M  V30 5094 H 498.836 -3.26365 -2.57796 0
M  V30 5095 H 497.413 -1.60936 -3.36384 0
M  V30 5096 N 499.598 0.982988 -1.23187 0
M  V30 5097 C 501.009 1.53847 -1.05773 0
M  V30 5098 C 501.36 1.92568 0.375744 0
M  V30 5099 O 500.485 1.75783 1.26211 0
M  V30 5100 C 501.08 2.79567 -1.91384 0
M  V30 5101 C 499.639 3.31524 -1.78238 0
M  V30 5102 C 498.786 2.04534 -1.87246 0
M  V30 5103 H 501.737 0.802962 -1.36888 0
M  V30 5104 H 501.758 3.52317 -1.43711 0
M  V30 5105 H 501.27 2.51353 -2.95708 0
M  V30 5106 H 499.371 3.64623 -0.766875 0
M  V30 5107 H 499.484 4.01457 -2.61475 0
M  V30 5108 H 497.848 2.1855 -1.30797 0
M  V30 5109 H 498.631 1.78706 -2.9312 0
M  V30 5110 N 501.076 1.04316 1.18135 0
M  V30 5111 C 502.304 0.768117 1.92113 0
M  V30 5112 C 502.719 -0.675057 1.76319 0
M  V30 5113 O 502.076 -1.46038 1.09449 0
M  V30 5114 C 502.127 1.12808 3.43448 0
M  V30 5115 O 501.848 2.5146 3.58747 0
M  V30 5116 C 503.349 0.8779 4.3452 0
M  V30 5117 H 500.569 0.279937 0.609817 0
M  V30 5118 H 503.113 1.39149 1.49859 0
M  V30 5119 H 501.268 0.549623 3.83481 0
M  V30 5120 H 501.682 2.65313 4.52448 0
M  V30 5121 H 503.156 1.17959 5.39249 0
M  V30 5122 H 503.633 -0.187239 4.38801 0
M  V30 5123 H 504.239 1.43977 4.00188 0
M  V30 5124 N 502.554 -1.34406 0.822964 0
M  V30 5125 C 503.779 -2.0304 0.423034 0
M  V30 5126 C 504.204 -1.61568 -0.963196 0
M  V30 5127 O 503.562 -0.800339 -1.62678 0
M  V30 5128 C 503.61 -3.56636 0.53321 0
M  V30 5129 O 502.714 -4.09971 -0.446939 0
M  V30 5130 H 502.055 -0.64075 0.174171 0
M  V30 5131 H 504.585 -1.71653 1.11339 0
M  V30 5132 H 504.595 -4.05945 0.408991 0
M  V30 5133 H 503.27 -3.86168 1.54425 0
M  V30 5134 H 501.847 -3.71835 -0.281601 0
M  V30 5135 N 504.032 -0.577932 -1.46621 0
M  V30 5136 C 505.443 -0.150071 -1.86096 0
M  V30 5137 C 505.794 1.28563 -1.48209 0
M  V30 5138 O 504.919 1.97036 -0.894754 0
M  V30 5139 C 505.514 -0.265576 -3.37758 0
M  V30 5140 C 504.073 0.10738 -3.76247 0
M  V30 5141 C 503.22 -0.603711 -2.70649 0
M  V30 5142 H 506.171 -0.786438 -1.37844 0
M  V30 5143 H 506.192 0.510352 -3.77062 0
M  V30 5144 H 505.704 -1.3106 -3.65301 0
M  V30 5145 H 503.805 1.15272 -3.54321 0
M  V30 5146 H 503.918 -0.26561 -4.78363 0
M  V30 5147 H 502.282 -0.0444884 -2.54661 0
M  V30 5148 H 503.065 -1.65029 -3.01032 0
M  V30 5149 N 505.51 1.54411 -0.315457 0
M  V30 5150 C 506.457 2.24048 0.554166 0
M  V30 5151 C 507.427 1.2283 1.11812 0
M  V30 5152 O 508.612 1.51491 1.15997 0
M  V30 5153 C 505.752 2.99574 1.71316 0
M  V30 5154 C 504.865 4.15594 1.17922 0
M  V30 5155 C 504 4.78669 2.30324 0
M  V30 5156 C 503.039 5.86807 1.74137 0
M  V30 5157 N 502.176 6.43777 2.8017 0
M  V30 5158 H 507.016 2.97964 -0.0462602 0
M  V30 5159 H 504.553 1.47059 -0.0346009 0
M  V30 5160 H 506.511 3.41604 2.39505 0
M  V30 5161 H 505.141 2.28008 2.285 0
M  V30 5162 H 504.193 3.78404 0.389136 0
M  V30 5163 H 505.505 4.93459 0.728012 0
M  V30 5164 H 504.659 5.23626 3.06433 0
M  V30 5165 H 503.398 4.00168 2.78778 0
M  V30 5166 H 502.403 5.41261 0.965236 0
M  V30 5167 H 503.628 6.67201 1.2657 0
M  V30 5168 H 501.574 5.68153 3.2793 0
M  V30 5169 H 501.491 7.17031 2.39588 0
M  V30 5170 H 502.759 6.9339 3.56132 0
M  V30 5171 N 506.988 0.0434614 1.5754 0
M  V30 5172 C 508.234 -0.632971 1.92669 0
M  V30 5173 C 508.567 -1.70947 0.921446 0
M  V30 5174 O 507.842 -1.94426 -0.0537202 0
M  V30 5175 C 508.125 -1.23619 3.38216 0
M  V30 5176 C 507.978 -0.168274 4.49485 0
M  V30 5177 C 509.297 -2.15008 3.84005 0
M  V30 5178 H 506.416 -0.228629 0.700641 0
M  V30 5179 H 509.058 0.103651 1.89717 0
M  V30 5180 H 507.208 -1.864 3.40863 0
M  V30 5181 H 508.88 0.463196 4.58969 0
M  V30 5182 H 507.123 0.504581 4.30855 0
M  V30 5183 H 507.794 -0.630218 5.48391 0
M  V30 5184 H 510.27 -1.62198 3.83185 0
M  V30 5185 H 509.146 -2.54161 4.86511 0
M  V30 5186 H 509.407 -3.04707 3.20322 0
M  V30 5187 N 508.466 -1.55915 -0.229846 0
M  V30 5188 C 509.713 -1.78542 -0.955452 0
M  V30 5189 C 510.041 -0.610785 -1.84661 0
M  V30 5190 O 509.296 0.405213 -1.91459 0
M  V30 5191 C 509.595 -3.06845 -1.8325 0
M  V30 5192 C 509.261 -4.37395 -1.09528 0
M  V30 5193 C 507.923 -4.72868 -0.891598 0
M  V30 5194 C 510.275 -5.18029 -0.574046 0
M  V30 5195 C 507.603 -5.86496 -0.154655 0
M  V30 5196 C 509.955 -6.32423 0.149513 0
M  V30 5197 C 508.619 -6.66504 0.364519 0
M  V30 5198 H 507.889 -0.653333 -0.349625 0
M  V30 5199 H 510.536 -1.90183 -0.224235 0
M  V30 5200 H 508.841 -2.90291 -2.63132 0
M  V30 5201 H 510.538 -3.21553 -2.39592 0
M  V30 5202 H 507.128 -4.09538 -1.26399 0
M  V30 5203 H 511.312 -4.91066 -0.718899 0
M  V30 5204 H 506.568 -6.11396 0.0222356 0
M  V30 5205 H 510.742 -6.94137 0.560947 0
M  V30 5206 H 508.369 -7.54397 0.937495 0
M  V30 5207 N 509.944 0.496216 -1.49584 0
M  V30 5208 C 511.355 1.07765 -1.52459 0
M  V30 5209 C 511.706 1.93679 -0.31353 0
M  V30 5210 O 510.831 2.08588 0.576186 0
M  V30 5211 C 511.426 1.96111 -2.76271 0
M  V30 5212 C 509.985 2.49409 -2.81908 0
M  V30 5213 C 509.132 1.27142 -2.46435 0
M  V30 5214 H 512.083 0.279914 -1.56212 0
M  V30 5215 H 512.104 2.80862 -2.56704 0
M  V30 5216 H 511.616 1.33555 -3.64396 0
M  V30 5217 H 509.717 3.1559 -1.98074 0
M  V30 5218 H 509.83 2.86234 -3.84196 0
M  V30 5219 H 508.194 1.59818 -1.98319 0
M  V30 5220 H 508.977 0.662866 -3.3684 0
M  V30 5221 N 511.423 1.38739 0.74761 0
M  V30 5222 C 512.353 1.39173 1.87492 0
M  V30 5223 C 513.334 0.256794 1.6815 0
M  V30 5224 O 514.519 0.460762 1.88655 0
M  V30 5225 C 511.649 1.22197 3.25093 0
M  V30 5226 C 510.603 2.32957 3.59047 0
M  V30 5227 C 509.929 2.01082 4.95449 0
M  V30 5228 C 511.229 3.75237 3.6331 0
M  V30 5229 H 512.923 2.3351 1.87386 0
M  V30 5230 H 510.469 1.12399 0.900134 0
M  V30 5231 H 512.422 1.21124 4.03617 0
M  V30 5232 H 511.146 0.243241 3.25693 0
M  V30 5233 H 509.805 2.33226 2.82845 0
M  V30 5234 H 509.453 1.01678 4.92616 0
M  V30 5235 H 509.153 2.75267 5.19136 0
M  V30 5236 H 510.677 2.01638 5.76346 0
M  V30 5237 H 512.091 3.76966 4.31937 0
M  V30 5238 H 510.488 4.48677 3.98509 0
M  V30 5239 H 511.558 4.07122 2.634 0
M  V30 5240 N 512.901 -0.976442 1.23707 0
M  V30 5241 C 514.126 -1.75875 1.09922 0
M  V30 5242 C 514.551 -1.84911 -0.34489 0
M  V30 5243 O 513.909 -1.31363 -1.24954 0
M  V30 5244 C 513.957 -3.16179 1.73388 0
M  V30 5245 O 513.061 -4.00124 0.99871 0
M  V30 5246 H 512.402 -0.540954 0.385052 0
M  V30 5247 H 514.932 -1.22546 1.6384 0
M  V30 5248 H 514.942 -3.66741 1.78788 0
M  V30 5249 H 513.617 -3.08917 2.78466 0
M  V30 5250 H 512.194 -3.58624 1.02193 0
M  V30 5251 N 514.379 -1.04941 -1.1758 0
M  V30 5252 C 515.309 -0.669172 -2.23706 0
M  V30 5253 C 516.29 0.331835 -1.66832 0
M  V30 5254 O 517.475 0.209988 -1.93061 0
M  V30 5255 C 514.605 -0.0404889 -3.47276 0
M  V30 5256 C 513.559 -0.965983 -4.16957 0
M  V30 5257 C 512.885 -0.201312 -5.34321 0
M  V30 5258 C 514.185 -2.28902 -4.69469 0
M  V30 5259 H 515.879 -1.55639 -2.55767 0
M  V30 5260 H 513.425 -0.749793 -1.22939 0
M  V30 5261 H 515.378 0.237298 -4.20731 0
M  V30 5262 H 514.102 0.881658 -3.14475 0
M  V30 5263 H 512.761 -1.22829 -3.45411 0
M  V30 5264 H 512.409 0.723519 -4.97769 0
M  V30 5265 H 512.109 -0.817968 -5.81879 0
M  V30 5266 H 513.633 0.0692499 -6.10561 0
M  V30 5267 H 515.047 -2.07132 -5.34574 0
M  V30 5268 H 513.444 -2.85942 -5.27596 0
M  V30 5269 H 514.514 -2.92937 -3.86414 0
M  V30 5270 N 515.857 1.33968 -0.830081 0
M  V30 5271 C 517.134 1.92554 -0.343858 0
M  V30 5272 C 517.514 1.7573 1.16971 0
M  V30 5273 O 516.862 1.14035 1.98011 0
M  V30 5274 C 517.072 3.40147 -0.781073 0
M  V30 5275 C 518.42 4.17299 -0.78402 0
M  V30 5276 O 519.444 3.48762 -0.724112 0
M  V30 5277 O 518.303 5.39631 -0.863739 0
M  V30 5278 H 515.397 0.821469 -0.0954827 0
M  V30 5279 H 517.943 1.42897 -0.915348 0
M  V30 5280 H 516.715 3.46225 -1.82329 0
M  V30 5281 H 516.338 3.97166 -0.18567 0
M  V30 5282 N 517.335 0.585699 1.46312 0
M  V30 5283 C 518.56 0.0762461 2.0726 0
M  V30 5284 C 518.985 -1.22071 1.43109 0
M  V30 5285 O 518.343 -1.73804 0.515942 0
M  V30 5286 C 518.391 -0.0729404 3.60526 0
M  V30 5287 O 517.495 -1.1287 3.96654 0
M  V30 5288 H 516.836 0.0641558 0.660893 0
M  V30 5289 H 519.366 0.809492 1.87905 0
M  V30 5290 H 519.376 -0.278158 4.07051 0
M  V30 5291 H 518.051 0.874188 4.06609 0
M  V30 5292 H 516.628 -0.901703 3.61834 0
M  V30 5293 N 518.813 -1.54241 0.323641 0
M  V30 5294 C 520.041 -2.04985 -0.280871 0
M  V30 5295 C 520.456 -1.19978 -1.45777 0
M  V30 5296 O 519.813 -0.230471 -1.81039 0
M  V30 5297 C 519.864 -3.54353 -0.715258 0
M  V30 5298 O 519.585 -4.36132 0.414817 0
M  V30 5299 C 521.086 -4.21189 -1.38257 0
M  V30 5300 H 518.306 -0.66851 -0.0577502 0
M  V30 5301 H 520.85 -1.99029 0.469852 0
M  V30 5302 H 519.005 -3.60596 -1.41596 0
M  V30 5303 H 519.419 -5.2445 0.0725227 0
M  V30 5304 H 520.893 -5.27154 -1.63745 0
M  V30 5305 H 521.37 -3.72307 -2.32989 0
M  V30 5306 H 521.976 -4.19085 -0.724447 0
M  V30 5307 N 520.291 -0.0518155 -1.57515 0
M  V30 5308 C 521.702 0.483787 -1.80323 0
M  V30 5309 C 522.053 1.70879 -0.964099 0
M  V30 5310 O 521.178 2.15643 -0.180872 0
M  V30 5311 C 521.773 0.884459 -3.27052 0
M  V30 5312 C 520.332 1.36504 -3.50776 0
M  V30 5313 C 519.479 0.340539 -2.75201 0
M  V30 5314 H 522.43 -0.277691 -1.56252 0
M  V30 5315 H 522.451 1.74733 -3.38007 0
M  V30 5316 H 521.963 -0.00731093 -3.88099 0
M  V30 5317 H 520.064 2.27598 -2.95009 0
M  V30 5318 H 520.177 1.35675 -4.59488 0
M  V30 5319 H 518.541 0.81356 -2.41357 0
M  V30 5320 H 519.324 -0.543156 -3.38976 0
M  V30 5321 N 521.769 1.56035 0.221574 0
M  V30 5322 C 522.701 1.889 1.29805 0
M  V30 5323 C 523.714 0.777269 1.43047 0
M  V30 5324 O 524.903 1.05557 1.43945 0
M  V30 5325 C 522.003 2.0825 2.67367 0
M  V30 5326 C 521.176 3.39267 2.76073 0
M  V30 5327 C 520.235 3.48049 3.94649 0
M  V30 5328 O 519.261 4.2108 3.82988 0
M  V30 5329 N 520.463 2.79191 5.08953 0
M  V30 5330 H 523.228 2.81831 1.01938 0
M  V30 5331 H 520.789 1.5658 0.411612 0
M  V30 5332 H 522.781 2.11441 3.45072 0
M  V30 5333 H 521.351 1.21944 2.87834 0
M  V30 5334 H 520.571 3.48175 1.84846 0
M  V30 5335 H 521.859 4.25575 2.7886 0
M  V30 5336 H 521.257 2.19635 5.21322 0
M  V30 5337 H 519.814 2.88043 5.84701 0
M  V30 5338 N 523.247 -0.488276 1.49845 0
M  V30 5339 C 524.524 -1.24959 1.50481 0
M  V30 5340 C 524.904 -2.09735 0.239698 0
M  V30 5341 O 524.252 -2.14865 -0.777524 0
M  V30 5342 C 524.462 -2.0954 2.79095 0
M  V30 5343 C 525.81 -2.68305 3.29086 0
M  V30 5344 O 526.834 -2.19797 2.80299 0
M  V30 5345 O 525.693 -3.56643 4.14087 0
M  V30 5346 H 522.787 -0.566133 0.602845 0
M  V30 5347 H 525.333 -0.501504 1.6212 0
M  V30 5348 H 524.105 -1.46958 3.62656 0
M  V30 5349 H 523.728 -2.91517 2.70377 0
M  V30 5350 N 524.725 -1.39134 -0.740242 0
M  V30 5351 C 525.973 -1.35803 -1.49673 0
M  V30 5352 C 526.294 0.0470897 -1.94943 0
M  V30 5353 O 525.564 0.997347 -1.68611 0
M  V30 5354 H 524.144 -0.499736 -0.555224 0
M  V30 5355 H 526.806 -1.73947 -0.879107 0
M  V30 5356 H 525.902 -2.0174 -2.38133 0
M  V30 5357 N 526.204 0.969867 -1.24223 0
M  V30 5358 C 527.152 2.08535 -1.03034 0
M  V30 5359 C 528.146 1.69366 0.0340379 0
M  V30 5360 O 529.352 1.79597 -0.12034 0
M  V30 5361 H 525.727 0.682313 -0.316154 0
M  V30 5362 H 527.698 2.23569 -1.97635 0
M  V30 5363 C 526.447 3.4158 -0.649509 0
M  V30 5364 H 525.77 3.72177 -1.46028 0
M  V30 5365 H 527.21 4.20536 -0.540841 0
M  V30 5366 C 525.669 3.30703 0.643194 0
M  V30 5367 O 526.199 3.64443 1.68951 0
M  V30 5368 N 524.405 2.83841 0.623095 0
M  V30 5369 H 523.952 2.56583 -0.228719 0
M  V30 5370 H 523.91 2.76946 1.48823 0
M  V30 5371 N 527.682 1.05563 1.17022 0
M  V30 5372 C 528.928 0.769074 1.87652 0
M  V30 5373 C 529.261 -0.702326 1.81055 0
M  V30 5374 O 528.536 -1.5139 1.22112 0
M  V30 5375 C 528.819 1.25492 3.37526 0
M  V30 5376 C 528.672 2.78953 3.52853 0
M  V30 5377 C 529.991 0.856919 4.31677 0
M  V30 5378 H 527.11 0.280854 0.681388 0
M  V30 5379 H 529.752 1.31027 1.37593 0
M  V30 5380 H 527.902 0.794516 3.80289 0
M  V30 5381 H 529.574 3.33146 3.19079 0
M  V30 5382 H 527.817 3.18046 2.95007 0
M  V30 5383 H 528.488 3.08011 4.58076 0
M  V30 5384 H 530.964 1.25334 3.96775 0
M  V30 5385 H 529.84 1.22443 5.35069 0
M  V30 5386 H 530.101 -0.238787 4.41455 0
M  V30 5387 N 529.16 -1.33526 0.837174 0
M  V30 5388 C 530.406 -1.9813 0.432704 0
M  V30 5389 C 530.739 -1.66168 -1.00508 0
M  V30 5390 O 530.014 -0.94069 -1.70239 0
M  V30 5391 C 530.297 -3.54151 0.651834 0
M  V30 5392 C 530.15 -3.95806 2.13676 0
M  V30 5393 C 531.469 -4.39993 0.0968937 0
M  V30 5394 H 528.588 -0.719713 0.15869 0
M  V30 5395 H 531.23 -1.58193 1.05237 0
M  V30 5396 H 529.38 -3.88301 0.124369 0
M  V30 5397 H 531.052 -3.71921 2.72896 0
M  V30 5398 H 529.295 -3.45599 2.62191 0
M  V30 5399 H 529.966 -5.0447 2.24084 0
M  V30 5400 H 532.442 -4.12479 0.547733 0
M  V30 5401 H 531.318 -5.48186 0.279917 0
M  V30 5402 H 531.579 -4.3066 -0.9992 0
M  V30 5403 N 530.638 -0.59345 -1.46 0
M  V30 5404 C 531.884 -0.0832754 -2.02629 0
M  V30 5405 C 532.217 1.27749 -1.46266 0
M  V30 5406 O 531.492 1.8395 -0.631866 0
M  V30 5407 C 531.775 -0.0290756 -3.60088 0
M  V30 5408 C 531.628 -1.41951 -4.26814 0
M  V30 5409 C 532.947 0.666055 -4.35031 0
M  V30 5410 H 530.066 -0.031736 -0.736316 0
M  V30 5411 H 532.708 -0.762711 -1.74019 0
M  V30 5412 H 530.858 0.549532 -3.84594 0
M  V30 5413 H 532.53 -2.04411 -4.13538 0
M  V30 5414 H 530.773 -1.98422 -3.8576 0
M  V30 5415 H 531.444 -1.33395 -5.3564 0
M  V30 5416 H 533.92 0.174401 -4.15734 0
M  V30 5417 H 532.796 0.673041 -5.44758 0
M  V30 5418 H 533.057 1.72946 -4.06869 0
M  V30 5419 N 532.116 1.54067 -0.331816 0
M  V30 5420 C 533.079 2.23275 0.517768 0
M  V30 5421 C 534.079 1.22897 1.03697 0
M  V30 5422 O 535.269 1.47419 0.928084 0
M  V30 5423 C 532.401 2.94326 1.72004 0
M  V30 5424 H 533.594 2.99773 -0.0873507 0
M  V30 5425 H 531.147 1.56079 -0.0830042 0
M  V30 5426 H 531.882 2.21986 2.36417 0
M  V30 5427 H 531.667 3.67941 1.35507 0
M  V30 5428 H 533.157 3.47031 2.32291 0
M  V30 5429 N 533.594 0.0601682 1.57485 0
M  V30 5430 C 534.834 -0.615384 1.94916 0
M  V30 5431 C 535.198 -1.67475 0.938948 0
M  V30 5432 O 536.399 -2.40502 1.20051 0
M  V30 5433 C 534.67 -1.18788 3.37082 0
M  V30 5434 S 536.229 -1.88018 3.96478 0
M  V30 5435 H 533.047 -0.201821 0.681754 0
M  V30 5436 H 535.649 0.131252 1.95059 0
M  V30 5437 H 534.353 -0.404869 4.08398 0
M  V30 5438 H 533.884 -1.97114 3.40455 0
M  V30 5439 H 535.899 -3.16161 3.82435 0
M  V30 5440 N 535.072 -1.5615 -0.213296 0
M  V30 5441 C 536.002 -1.96109 -1.26742 0
M  V30 5442 C 536.983 -0.830448 -1.48451 0
M  V30 5443 O 538.168 -1.09339 -1.60495 0
M  V30 5444 C 535.298 -2.28492 -2.61551 0
M  V30 5445 C 534.252 -3.44124 -2.54485 0
M  V30 5446 C 533.578 -3.62134 -3.93399 0
M  V30 5447 C 534.878 -4.78855 -2.08556 0
M  V30 5448 H 536.572 -2.84412 -0.935434 0
M  V30 5449 H 534.118 -1.36836 -0.44854 0
M  V30 5450 H 536.071 -2.55039 -3.3546 0
M  V30 5451 H 534.795 -1.37052 -2.96453 0
M  V30 5452 H 533.454 -3.17639 -1.83033 0
M  V30 5453 H 533.102 -2.68055 -4.25623 0
M  V30 5454 H 532.802 -4.39913 -3.89551 0
M  V30 5455 H 534.326 -3.91038 -4.68958 0
M  V30 5456 H 535.74 -5.04552 -2.72213 0
M  V30 5457 H 534.137 -5.59975 -2.1575 0
M  V30 5458 H 535.207 -4.73657 -1.03811 0
M  V30 5459 N 536.55 0.480323 -1.50102 0
M  V30 5460 C 537.796 1.23489 -1.60867 0
M  V30 5461 C 538.129 1.91809 -0.303827 0
M  V30 5462 O 537.404 1.81694 0.694092 0
M  V30 5463 C 537.687 2.28578 -2.78252 0
M  V30 5464 C 537.54 1.64624 -4.18592 0
M  V30 5465 C 538.859 3.2997 -2.91218 0
M  V30 5466 H 535.978 0.447605 -0.585507 0
M  V30 5467 H 538.62 0.530005 -1.82458 0
M  V30 5468 H 536.77 2.88697 -2.59974 0
M  V30 5469 H 538.442 1.08173 -4.48438 0
M  V30 5470 H 536.685 0.949645 -4.23278 0
M  V30 5471 H 537.356 2.40946 -4.96638 0
M  V30 5472 H 539.832 2.79864 -3.07921 0
M  V30 5473 H 538.708 4.00839 -3.74993 0
M  V30 5474 H 538.969 3.93541 -2.0144 0
M  V30 5475 N 538.028 1.39524 0.732853 0
M  V30 5476 C 538.96 1.34318 1.85718 0
M  V30 5477 C 539.973 0.251576 1.60844 0
M  V30 5478 O 541.162 0.510685 1.71039 0
M  V30 5479 C 538.262 1.06334 3.21786 0
M  V30 5480 C 537.435 2.26813 3.73998 0
M  V30 5481 C 536.494 1.95253 4.88634 0
M  V30 5482 O 535.52 2.67957 5.02183 0
M  V30 5483 N 536.722 0.919984 5.73164 0
M  V30 5484 H 539.487 2.3121 1.90688 0
M  V30 5485 H 537.048 1.33654 0.91368 0
M  V30 5486 H 539.04 0.832363 3.96048 0
M  V30 5487 H 537.61 0.181682 3.12072 0
M  V30 5488 H 536.83 2.65849 2.91064 0
M  V30 5489 H 538.118 3.0717 4.05616 0
M  V30 5490 H 537.516 0.317487 5.64808 0
M  V30 5491 H 536.073 0.748905 6.47483 0
M  V30 5492 N 539.506 -0.963266 1.24736 0
M  V30 5493 C 540.754 -1.70343 1.08755 0
M  V30 5494 C 541.075 -1.91387 -0.373619 0
M  V30 5495 O 540.345 -1.4948 -1.2662 0
M  V30 5496 H 538.925 -0.631224 0.399456 0
M  V30 5497 H 541.587 -1.15859 1.56725 0
M  V30 5498 H 540.683 -2.68616 1.58909 0
M  V30 5499 N 540.985 -1.06182 -1.16461 0
M  V30 5500 C 542.232 -0.777863 -1.86964 0
M  V30 5501 C 542.56 0.695602 -1.81636 0
M  V30 5502 O 541.815 1.52532 -1.22607 0
M  V30 5503 C 542.114 -1.21633 -3.36066 0
M  V30 5504 C 541.78 -2.69371 -3.61594 0
M  V30 5505 C 540.442 -3.09727 -3.6827 0
M  V30 5506 C 542.794 -3.64791 -3.7226 0
M  V30 5507 C 540.122 -4.44345 -3.83112 0
M  V30 5508 C 542.474 -4.99155 -3.88623 0
M  V30 5509 C 541.138 -5.39149 -3.93541 0
M  V30 5510 H 540.408 -0.28464 -0.68415 0
M  V30 5511 H 543.055 -1.33071 -1.37711 0
M  V30 5512 H 541.36 -0.582651 -3.87443 0
M  V30 5513 H 543.057 -0.973682 -3.88999 0
M  V30 5514 H 539.647 -2.37124 -3.57029 0
M  V30 5515 H 543.831 -3.34746 -3.66413 0
M  V30 5516 H 539.087 -4.74819 -3.85172 0
M  V30 5517 H 543.261 -5.72976 -3.95817 0
M  V30 5518 H 540.888 -6.43464 -4.04794 0
M  V30 5519 N 542.463 1.3308 -0.844243 0
M  V30 5520 C 543.71 1.97605 -0.44255 0
M  V30 5521 C 544.038 1.66856 0.999458 0
M  V30 5522 O 543.293 0.943586 1.7145 0
M  V30 5523 C 543.592 3.52045 -0.616354 0
M  V30 5524 C 543.258 4.02757 -2.02726 0
M  V30 5525 C 541.92 4.16316 -2.41317 0
M  V30 5526 C 544.272 4.29776 -2.9486 0
M  V30 5527 C 541.6 4.54232 -3.71335 0
M  V30 5528 C 543.952 4.69146 -4.24364 0
M  V30 5529 C 542.616 4.80911 -4.62904 0
M  V30 5530 H 541.886 0.723088 -0.161941 0
M  V30 5531 H 544.533 1.58663 -1.0723 0
M  V30 5532 H 542.838 3.91681 0.0966812 0
M  V30 5533 H 544.535 3.99981 -0.285756 0
M  V30 5534 H 541.125 3.9268 -1.71756 0
M  V30 5535 H 545.309 4.18818 -2.6628 0
M  V30 5536 H 540.565 4.61535 -4.00993 0
M  V30 5537 H 544.739 4.89008 -4.95827 0
M  V30 5538 H 542.366 5.10048 -5.63698 0
M  V30 5539 N 543.941 0.601185 1.45683 0
M  V30 5540 C 545.352 0.179659 1.85834 0
M  V30 5541 C 545.703 -1.26189 1.50236 0
M  V30 5542 O 544.828 -1.95587 0.925987 0
M  V30 5543 C 545.423 0.319277 3.37292 0
M  V30 5544 C 543.982 -0.0475092 3.7637 0
M  V30 5545 C 543.129 0.646692 2.69654 0
M  V30 5546 H 546.08 0.808268 1.36575 0
M  V30 5547 H 546.101 -0.4503 3.77826 0
M  V30 5548 H 545.613 1.36855 3.6317 0
M  V30 5549 H 543.714 -1.0962 3.5611 0
M  V30 5550 H 543.827 0.34168 4.7788 0
M  V30 5551 H 542.191 0.0849971 2.54558 0
M  V30 5552 H 542.974 1.69797 2.98369 0
M  V30 5553 N 545.419 -1.53889 0.339982 0
M  V30 5554 C 546.351 -2.22435 -0.55275 0
M  V30 5555 C 547.364 -1.22975 -1.06681 0
M  V30 5556 O 548.553 -1.49351 -0.977575 0
M  V30 5557 C 545.653 -2.8882 -1.77302 0
M  V30 5558 C 544.826 -4.14563 -1.39486 0
M  V30 5559 C 543.885 -4.64391 -2.47442 0
M  V30 5560 O 542.911 -5.28687 -2.10899 0
M  V30 5561 N 544.113 -4.40015 -3.78639 0
M  V30 5562 H 546.878 -2.9968 0.0342669 0
M  V30 5563 H 544.439 -1.61068 0.16394 0
M  V30 5564 H 546.431 -3.19072 -2.48948 0
M  V30 5565 H 545.001 -2.15182 -2.26749 0
M  V30 5566 H 544.221 -3.90896 -0.509321 0
M  V30 5567 H 545.509 -4.96362 -1.11813 0
M  V30 5568 H 544.907 -3.88586 -4.11118 0
M  V30 5569 H 543.464 -4.74881 -4.46465 0
M  V30 5570 N 546.897 -0.0685191 -1.57451 0
M  V30 5571 C 547.807 0.914677 -2.16034 0
M  V30 5572 C 548.823 1.32938 -1.12265 0
M  V30 5573 O 549.999 1.40275 -1.44516 0
M  V30 5574 C 547.064 2.16519 -2.70777 0
M  V30 5575 C 546.125 1.80721 -3.89408 0
M  V30 5576 C 545.358 2.9981 -4.41531 0
M  V30 5577 O 545.581 4.13727 -3.92666 0
M  V30 5578 O 544.515 2.79817 -5.32903 0
M  V30 5579 H 548.341 0.446364 -3.00402 0
M  V30 5580 H 545.926 0.154367 -1.486 0
M  V30 5581 H 547.808 2.89856 -3.05878 0
M  V30 5582 H 546.483 2.62454 -1.89471 0
M  V30 5583 H 545.39 1.04646 -3.59166 0
M  V30 5584 H 546.723 1.39571 -4.71997 0
M  V30 5585 N 548.375 1.56261 0.205012 0
M  V30 5586 C 549.786 1.70056 0.770574 0
M  V30 5587 C 550.137 0.673398 1.84282 0
M  V30 5588 O 549.262 -0.172196 2.15714 0
M  V30 5589 C 549.857 3.08316 1.40451 0
M  V30 5590 C 548.416 3.2391 1.91727 0
M  V30 5591 C 547.563 2.66001 0.783516 0
M  V30 5592 H 550.514 1.58688 -0.019911 0
M  V30 5593 H 550.535 3.05094 2.27371 0
M  V30 5594 H 550.047 3.83053 0.623882 0
M  V30 5595 H 548.148 2.54072 2.7254 0
M  V30 5596 H 548.261 4.3131 2.08588 0
M  V30 5597 H 546.625 2.24915 1.19521 0
M  V30 5598 H 547.408 3.43297 0.0152883 0
M  V30 5599 N 549.853 -0.472356 1.50355 0
M  V30 5600 C 550.783 -1.57859 1.72055 0
M  V30 5601 C 551.764 -1.60283 0.569505 0
M  V30 5602 O 552.949 -1.7657 0.808503 0
M  V30 5603 C 550.079 -2.96191 1.81351 0
M  V30 5604 C 549.033 -3.08633 2.96529 0
M  V30 5605 C 548.359 -4.486 2.90968 0
M  V30 5606 C 549.659 -2.85969 4.37057 0
M  V30 5607 H 551.353 -1.39953 2.64676 0
M  V30 5608 H 548.899 -0.671846 1.27367 0
M  V30 5609 H 550.852 -3.73507 1.95117 0
M  V30 5610 H 549.576 -3.15251 0.853502 0
M  V30 5611 H 548.235 -2.33749 2.82413 0
M  V30 5612 H 547.883 -4.64577 1.92815 0
M  V30 5613 H 547.583 -4.57861 3.68289 0
M  V30 5614 H 549.107 -5.27938 3.0678 0
M  V30 5615 H 550.521 -3.53036 4.51706 0
M  V30 5616 H 548.918 -3.06677 5.15819 0
M  V30 5617 H 549.988 -1.81838 4.49514 0
M  V30 5618 N 551.331 -1.39911 -0.725443 0
M  V30 5619 C 552.556 -1.41137 -1.5197 0
M  V30 5620 C 552.981 -0.010262 -1.88097 0
M  V30 5621 O 552.339 0.979184 -1.52583 0
M  V30 5622 C 552.387 -2.2994 -2.77777 0
M  V30 5623 O 551.491 -1.73586 -3.74088 0
M  V30 5624 H 550.832 -0.480219 -0.458569 0
M  V30 5625 H 553.362 -1.84023 -0.894249 0
M  V30 5626 H 553.372 -2.44785 -3.26411 0
M  V30 5627 H 552.047 -3.31759 -2.50816 0
M  V30 5628 H 550.624 -1.68035 -3.32894 0
M  V30 5629 N 552.809 0.956637 -1.25245 0
M  V30 5630 C 554.055 1.70352 -1.10036 0
M  V30 5631 C 554.388 1.90869 0.358156 0
M  V30 5632 O 553.663 1.47819 1.26411 0
M  V30 5633 C 553.946 3.08766 -1.85298 0
M  V30 5634 C 553.799 2.95672 -3.38966 0
M  V30 5635 C 555.118 4.08622 -1.63451 0
M  V30 5636 H 552.237 0.618279 -0.401123 0
M  V30 5637 H 554.879 1.11212 -1.54051 0
M  V30 5638 H 553.029 3.59252 -1.47887 0
M  V30 5639 H 554.701 2.52527 -3.86041 0
M  V30 5640 H 552.944 2.31634 -3.6678 0
M  V30 5641 H 553.615 3.93776 -3.86839 0
M  V30 5642 H 556.091 3.67038 -1.96015 0
M  V30 5643 H 554.967 5.03514 -2.18551 0
M  V30 5644 H 555.228 4.3834 -0.575357 0
M  V30 5645 N 554.287 1.06798 1.15896 0
M  V30 5646 C 555.515 0.808694 1.90441 0
M  V30 5647 C 555.93 -0.637506 1.77711 0
M  V30 5648 O 555.287 -1.43684 1.12522 0
M  V30 5649 C 555.338 1.20068 3.40978 0
M  V30 5650 O 555.059 2.59013 3.53333 0
M  V30 5651 C 556.56 0.96987 4.3256 0
M  V30 5652 H 553.78 0.292809 0.603742 0
M  V30 5653 H 556.324 1.42296 1.46874 0
M  V30 5654 H 554.479 0.630842 3.82229 0
M  V30 5655 H 554.893 2.7485 4.46719 0
M  V30 5656 H 556.367 1.29371 5.36626 0
M  V30 5657 H 556.844 -0.0941209 4.39099 0
M  V30 5658 H 557.45 1.52433 3.97044 0
M  V30 5659 N 555.766 -1.3263 0.851289 0
M  V30 5660 C 557.012 -1.98061 0.462963 0
M  V30 5661 C 557.367 -1.66162 -0.969948 0
M  V30 5662 O 556.66 -0.937723 -1.67085 0
M  V30 5663 C 556.854 -3.51713 0.635015 0
M  V30 5664 C 556.683 -3.98544 2.0831 0
M  V30 5665 C 555.453 -4.25787 2.72091 0
M  V30 5666 C 557.651 -4.13858 3.0533 0
M  V30 5667 N 555.633 -4.58842 4.07845 0
M  V30 5668 C 557.004 -4.50412 4.26063 0
M  V30 5669 C 559.059 -3.96182 3.0157 0
M  V30 5670 C 557.762 -4.71136 5.43529 0
M  V30 5671 C 559.788 -4.18088 4.18278 0
M  V30 5672 C 559.15 -4.54956 5.37768 0
M  V30 5673 H 555.249 -0.750976 0.218082 0
M  V30 5674 H 557.833 -1.60514 1.10197 0
M  V30 5675 H 556.004 -3.88391 0.0257298 0
M  V30 5676 H 557.736 -4.04118 0.216915 0
M  V30 5677 H 554.491 -4.17734 2.23149 0
M  V30 5678 H 554.915 -4.7956 4.77862 0
M  V30 5679 H 559.557 -3.66783 2.1031 0
M  V30 5680 H 557.275 -4.9939 6.35323 0
M  V30 5681 H 560.861 -4.05918 4.168 0
M  V30 5682 H 559.741 -4.71567 6.26573 0
M  V30 5683 N 557.244 -0.608902 -1.45362 0
M  V30 5684 C 558.469 -0.10921 -2.07112 0
M  V30 5685 C 558.894 1.19779 -1.45033 0
M  V30 5686 O 558.252 1.72961 -0.543527 0
M  V30 5687 C 558.3 0.0155745 -3.60597 0
M  V30 5688 O 557.404 1.06546 -3.98399 0
M  V30 5689 H 556.745 -0.0746619 -0.659789 0
M  V30 5690 H 559.275 -0.839283 -1.86594 0
M  V30 5691 H 559.285 0.213364 -4.07442 0
M  V30 5692 H 557.96 -0.938765 -4.05167 0
M  V30 5693 H 556.537 0.844024 -3.63223 0
M  V30 5694 N 558.722 1.53707 -0.348139 0
M  V30 5695 C 559.632 2.28881 0.514857 0
M  V30 5696 C 560.648 1.34168 1.10793 0
M  V30 5697 O 561.824 1.6721 1.12262 0
M  V30 5698 C 558.889 3.05042 1.64774 0
M  V30 5699 C 557.95 4.15389 1.08398 0
M  V30 5700 C 557.183 4.87909 2.16287 0
M  V30 5701 O 557.406 4.60137 3.3709 0
M  V30 5702 O 556.34 5.74254 1.80323 0
M  V30 5703 H 560.166 3.03547 -0.0963699 0
M  V30 5704 H 557.751 1.48972 -0.113043 0
M  V30 5705 H 559.633 3.52656 2.30677 0
M  V30 5706 H 558.308 2.33228 2.24469 0
M  V30 5707 H 557.215 3.72068 0.389341 0
M  V30 5708 H 558.548 4.89318 0.531829 0
M  V30 5709 N 560.2 0.0768682 1.57412 0
M  V30 5710 C 561.425 -0.603404 1.98428 0
M  V30 5711 C 561.85 -1.62047 0.955108 0
M  V30 5712 O 561.208 -1.81129 -0.0786778 0
M  V30 5713 C 561.256 -1.24396 3.38464 0
M  V30 5714 O 560.36 -2.35982 3.3821 0
M  V30 5715 H 559.701 -0.154741 0.645718 0
M  V30 5716 H 562.231 0.152885 2.04028 0
M  V30 5717 H 562.241 -1.5896 3.7576 0
M  V30 5718 H 560.916 -0.498735 4.12899 0
M  V30 5719 H 559.493 -2.03173 3.1269 0
M  V30 5720 N 561.678 -1.56367 -0.196722 0
M  V30 5721 C 562.926 -1.80172 -0.915554 0
M  V30 5722 C 563.247 -0.649649 -1.8386 0
M  V30 5723 O 562.517 0.332111 -1.93064 0
M  V30 5724 H 561.097 -0.664592 -0.341067 0
M  V30 5725 H 563.759 -1.93844 -0.202622 0
M  V30 5726 H 562.855 -2.7327 -1.50764 0
M  V30 5727 N 563.156 0.464375 -1.50603 0
M  V30 5728 C 564.088 1.57916 -1.66118 0
M  V30 5729 C 565.101 1.53497 -0.54246 0
M  V30 5730 O 566.29 1.58763 -0.815877 0
M  V30 5731 C 563.39 2.96809 -1.63577 0
M  V30 5732 C 562.563 3.26026 -2.91592 0
M  V30 5733 C 561.622 4.44506 -2.81604 0
M  V30 5734 O 560.648 4.44484 -3.55559 0
M  V30 5735 N 561.85 5.46549 -1.95614 0
M  V30 5736 H 564.615 1.45022 -2.62276 0
M  V30 5737 H 562.176 0.652903 -1.48151 0
M  V30 5738 H 564.168 3.74048 -1.54499 0
M  V30 5739 H 562.738 3.03438 -0.751262 0
M  V30 5740 H 561.958 2.37337 -3.14746 0
M  V30 5741 H 563.246 3.42361 -3.76386 0
M  V30 5742 H 562.644 5.49391 -1.34854 0
M  V30 5743 H 561.201 6.22746 -1.92435 0
M  V30 5744 N 564.634 1.40294 0.718013 0
M  V30 5745 C 565.582 1.40536 1.85344 0
M  V30 5746 C 566.576 0.286192 1.66965 0
M  V30 5747 O 567.782 0.457105 1.74099 0
M  V30 5748 H 564.157 0.439236 0.61039 0
M  V30 5749 H 566.128 2.36275 1.82255 0
M  V30 5750 C 564.877 1.28245 3.23185 0
M  V30 5751 H 564.2 2.1364 3.37932 0
M  V30 5752 H 565.64 1.32474 4.02774 0
M  V30 5753 C 564.099 -0.0075503 3.36899 0
M  V30 5754 O 564.629 -0.971391 3.89778 0
M  V30 5755 N 562.835 -0.0762479 2.905 0
M  V30 5756 H 562.382 0.708819 2.47656 0
M  V30 5757 H 562.34 -0.938846 3.00055 0
M  V30 5758 N 566.112 -0.949982 1.2575 0
M  V30 5759 C 567.358 -1.69766 1.10938 0
M  V30 5760 C 567.691 -1.91056 -0.348028 0
M  V30 5761 O 566.966 -1.48488 -1.25625 0
M  V30 5762 C 567.249 -3.07779 1.86933 0
M  V30 5763 C 567.102 -2.9387 3.4053 0
M  V30 5764 C 568.421 -4.07749 1.65616 0
M  V30 5765 H 565.54 -0.616144 0.404396 0
M  V30 5766 H 568.182 -1.10394 1.54639 0
M  V30 5767 H 566.332 -3.58462 1.4979 0
M  V30 5768 H 568.004 -2.50476 3.87375 0
M  V30 5769 H 566.247 -2.29686 3.68004 0
M  V30 5770 H 566.918 -3.91719 3.88922 0
M  V30 5771 H 569.394 -3.65994 1.97959 0
M  V30 5772 H 568.27 -5.02348 2.21218 0
M  V30 5773 H 568.531 -4.38029 0.598595 0
M  V30 5774 N 567.59 -1.07411 -1.15328 0
M  V30 5775 C 568.818 -0.818782 -1.90009 0
M  V30 5776 C 569.233 0.628072 -1.78047 0
M  V30 5777 O 568.59 1.43085 -1.13282 0
M  V30 5778 C 568.641 -1.21874 -3.40337 0
M  V30 5779 O 568.362 -2.60883 -3.51954 0
M  V30 5780 C 569.863 -0.992796 -4.3204 0
M  V30 5781 H 567.083 -0.296007 -0.60218 0
M  V30 5782 H 569.627 -1.43073 -1.46117 0
M  V30 5783 H 567.782 -0.651103 -3.81889 0
M  V30 5784 H 568.196 -2.77216 -4.45255 0
M  V30 5785 H 569.67 -1.32215 -5.35932 0
M  V30 5786 H 570.147 0.0708331 -4.39143 0
M  V30 5787 H 570.753 -1.54537 -3.9623 0
M  V30 5788 N 569.068 1.32177 -0.85831 0
M  V30 5789 C 570.031 2.27086 -0.310588 0
M  V30 5790 C 571.031 1.51751 0.531806 0
M  V30 5791 O 572.221 1.70794 0.34279 0
M  V30 5792 C 569.353 3.36266 0.560179 0
M  V30 5793 H 570.546 2.77045 -1.1483 0
M  V30 5794 H 568.099 1.42911 -0.632942 0
M  V30 5795 H 568.834 2.9158 1.41956 0
M  V30 5796 H 568.619 3.92077 -0.0428473 0
M  V30 5797 H 570.109 4.06974 0.936056 0
M  V30 5798 N 570.547 0.616602 1.45037 0
M  V30 5799 C 571.963 0.280994 1.57107 0
M  V30 5800 C 572.163 -1.21627 1.60653 0
M  V30 5801 O 571.219 -1.9997 1.54169 0
M  V30 5802 C 572.532 0.960116 2.8496 0
M  V30 5803 C 574.08 0.936884 2.98649 0
M  V30 5804 C 574.555 1.59619 4.29285 0
M  V30 5805 N 576.046 1.5621 4.36065 0
M  V30 5806 C 576.781 2.04131 5.35834 0
M  V30 5807 N 576.277 2.60177 6.4209 0
M  V30 5808 N 578.07 1.94845 5.27249 0
M  V30 5809 H 570.221 1.58867 1.40979 0
M  V30 5810 H 572.484 0.666024 0.674623 0
M  V30 5811 H 572.19 2.01473 2.88273 0
M  V30 5812 H 572.064 0.488921 3.74018 0
M  V30 5813 H 574.451 -0.109209 2.94898 0
M  V30 5814 H 574.532 1.44643 2.10979 0
M  V30 5815 H 574.176 2.64166 4.33796 0
M  V30 5816 H 574.106 1.06159 5.15789 0
M  V30 5817 H 576.597 1.15276 3.59889 0
M  V30 5818 H 576.91 2.94513 7.1448 0
M  V30 5819 H 575.255 2.64221 6.42816 0
M  V30 5820 H 578.446 1.50792 4.43147 0
M  V30 5821 H 578.619 2.32504 6.04852 0
M  V30 5822 N 572.025 -1.5352 0.356285 0
M  V30 5823 C 572.973 -2.26945 -0.50978 0
M  V30 5824 C 573.967 -1.29569 -1.09125 0
M  V30 5825 O 575.173 -1.47231 -1.03552 0
M  V30 5826 H 571.548 -0.729368 -0.183102 0
M  V30 5827 H 573.519 -2.98111 0.131374 0
M  V30 5828 C 572.268 -3.06466 -1.64237 0
M  V30 5829 H 571.591 -3.81233 -1.20423 0
M  V30 5830 H 573.031 -3.61035 -2.22327 0
M  V30 5831 C 571.49 -2.16737 -2.57928 0
M  V30 5832 O 572.02 -1.77195 -3.60507 0
M  V30 5833 N 570.226 -1.81558 -2.26903 0
M  V30 5834 H 569.773 -2.13913 -1.43524 0
M  V30 5835 H 569.731 -1.21806 -2.89846 0
M  V30 5836 N 573.503 -0.0852151 -1.57369 0
M  V30 5837 C 574.75 0.580806 -1.93992 0
M  V30 5838 C 575.078 1.68801 -0.966252 0
M  V30 5839 O 574.333 1.95694 0.0158649 0
M  V30 5840 C 574.632 1.18482 -3.3719 0
M  V30 5841 C 574.298 0.2024 -4.50446 0
M  V30 5842 C 572.96 -0.0678318 -4.81152 0
M  V30 5843 C 575.312 -0.46895 -5.19086 0
M  V30 5844 C 572.64 -1.01627 -5.77831 0
M  V30 5845 C 574.992 -1.4058 -6.16782 0
M  V30 5846 C 573.656 -1.68436 -6.45899 0
M  V30 5847 H 572.926 0.212532 -0.709867 0
M  V30 5848 H 575.573 -0.158947 -1.90839 0
M  V30 5849 H 573.878 2.0006 -3.36873 0
M  V30 5850 H 575.575 1.70767 -3.62822 0
M  V30 5851 H 572.165 0.423208 -4.26505 0
M  V30 5852 H 576.349 -0.273307 -4.95547 0
M  V30 5853 H 571.605 -1.2392 -5.9871 0
M  V30 5854 H 575.779 -1.93188 -6.69068 0
M  V30 5855 H 573.406 -2.42088 -7.20623 0
M  V30 5856 N 574.981 1.5647 0.188427 0
M  V30 5857 C 576.392 1.70864 0.752494 0
M  V30 5858 C 576.743 0.692905 1.83557 0
M  V30 5859 O 575.868 -0.149307 2.15884 0
M  V30 5860 C 576.463 3.09789 1.37173 0
M  V30 5861 C 575.022 3.25925 1.88281 0
M  V30 5862 C 574.169 2.66817 0.755259 0
M  V30 5863 H 577.12 1.58657 -0.0367408 0
M  V30 5864 H 577.141 3.07489 2.24122 0
M  V30 5865 H 576.653 3.83693 0.583219 0
M  V30 5866 H 574.754 2.56948 2.6983 0
M  V30 5867 H 574.867 4.33498 2.04001 0
M  V30 5868 H 573.231 2.2617 1.17128 0
M  V30 5869 H 574.014 3.43294 -0.0211237 0
M  V30 5870 N 576.459 -0.456382 1.50847 0
M  V30 5871 C 577.87 -1.03685 1.55262 0
M  V30 5872 C 578.221 -1.92779 0.364771 0
M  V30 5873 O 577.346 -2.10043 -0.52068 0
M  V30 5874 C 577.941 -1.88718 2.81374 0
M  V30 5875 C 576.5 -2.41847 2.88422 0
M  V30 5876 C 575.647 -1.20564 2.49719 0
M  V30 5877 H 578.598 -0.238399 1.56899 0
M  V30 5878 H 578.619 -2.73957 2.6406 0
M  V30 5879 H 578.131 -1.23847 3.67809 0
M  V30 5880 H 576.232 -3.10228 2.06372 0
M  V30 5881 H 576.345 -2.75947 3.9165 0
M  V30 5882 H 574.709 -1.54504 2.02486 0
M  V30 5883 H 575.492 -0.573326 3.38479 0
M  V30 5884 N 577.937 -1.40673 -0.710563 0
M  V30 5885 C 579.162 -1.42741 -1.50465 0
M  V30 5886 C 579.587 -0.0302116 -1.88076 0
M  V30 5887 O 578.945 0.962945 -1.53613 0
M  V30 5888 C 578.993 -2.32873 -2.75322 0
M  V30 5889 O 578.097 -1.77544 -3.72226 0
M  V30 5890 H 577.438 -0.485056 -0.45345 0
M  V30 5891 H 579.968 -1.84961 -0.874681 0
M  V30 5892 H 579.978 -2.48233 -3.23797 0
M  V30 5893 H 578.653 -3.34401 -2.47283 0
M  V30 5894 H 577.23 -1.71556 -3.31093 0
M  V30 5895 N 579.415 0.9433 -1.26252 0
M  V30 5896 C 580.347 2.04542 -1.03417 0
M  V30 5897 C 581.36 1.62799 0.0046911 0
M  V30 5898 O 582.549 1.76944 -0.235146 0
M  V30 5899 C 579.649 3.34511 -0.543671 0
M  V30 5900 C 578.822 4.05033 -1.65128 0
M  V30 5901 C 577.881 5.13273 -1.1592 0
M  V30 5902 O 576.907 5.38095 -1.85586 0
M  V30 5903 N 578.109 5.805 -0.00649279 0
M  V30 5904 H 580.874 2.24699 -1.98319 0
M  V30 5905 H 578.435 1.11264 -1.1761 0
M  V30 5906 H 580.427 4.04212 -0.198703 0
M  V30 5907 H 578.997 3.11042 0.311711 0
M  V30 5908 H 578.217 3.29275 -2.16729 0
M  V30 5909 H 579.505 4.48903 -2.39508 0
M  V30 5910 H 578.903 5.62767 0.575347 0
M  V30 5911 H 577.46 6.51201 0.279416 0
M  V30 5912 N 580.893 1.08022 1.14757 0
M  V30 5913 C 582.17 0.720386 1.81851 0
M  V30 5914 C 582.55 -0.796375 1.95502 0
M  V30 5915 O 581.898 -1.71339 1.51179 0
M  V30 5916 C 582.108 1.44273 3.17783 0
M  V30 5917 C 583.456 1.59925 3.93331 0
M  V30 5918 O 584.48 1.40407 3.2736 0
M  V30 5919 O 583.339 1.92096 5.11626 0
M  V30 5920 H 580.433 0.257142 0.786007 0
M  V30 5921 H 582.979 1.18155 1.21809 0
M  V30 5922 H 581.751 2.47618 3.02987 0
M  V30 5923 H 581.374 0.97279 3.85516 0
M  V30 5924 N 582.371 -1.3172 0.865308 0
M  V30 5925 C 583.334 -2.26918 0.322627 0
M  V30 5926 C 584.334 -1.52031 -0.523751 0
M  V30 5927 O 585.524 -1.70973 -0.333727 0
M  V30 5928 C 582.656 -3.36558 -0.542338 0
M  V30 5929 H 583.849 -2.76432 1.16298 0
M  V30 5930 H 581.402 -1.42573 0.640512 0
M  V30 5931 H 582.137 -2.92329 -1.40407 0
M  V30 5932 H 581.922 -3.92048 0.0636395 0
M  V30 5933 H 583.412 -4.07465 -0.91446 0
M  V30 5934 N 583.85 -0.624285 -1.44708 0
M  V30 5935 C 585.075 -0.131171 -2.06985 0
M  V30 5936 C 585.5 1.18234 -1.46295 0
M  V30 5937 O 584.858 1.72375 -0.561842 0
M  V30 5938 C 584.906 -0.0226724 -3.60593 0
M  V30 5939 O 584.01 1.02314 -3.99507 0
M  V30 5940 H 583.351 -0.0816556 -0.65896 0
M  V30 5941 H 585.88 -0.859027 -1.85693 0
M  V30 5942 H 585.891 0.170138 -4.07645 0
M  V30 5943 H 584.566 -0.981685 -4.04148 0
M  V30 5944 H 583.143 0.805452 -3.64097 0
M  V30 5945 N 585.328 1.53329 -0.364422 0
M  V30 5946 C 586.576 2.00842 0.225189 0
M  V30 5947 C 586.897 1.25345 1.49378 0
M  V30 5948 O 586.167 0.366396 1.92443 0
M  V30 5949 H 584.747 0.742009 0.0862027 0
M  V30 5950 H 587.409 1.8863 -0.490389 0
M  V30 5951 H 586.505 3.08795 0.452987 0
M  V30 5952 N 586.806 0.0935595 1.57322 0
M  V30 5953 C 588.083 -0.612692 1.85756 0
M  V30 5954 C 588.463 -1.86439 0.99013 0
M  V30 5955 O 587.811 -2.28416 0.0621362 0
M  V30 5956 C 588.021 -0.929547 3.36393 0
M  V30 5957 C 589.369 -1.29366 4.04413 0
M  V30 5958 O 590.393 -1.02061 3.41265 0
M  V30 5959 O 589.252 -1.80498 5.15832 0
M  V30 5960 H 586.346 -0.306444 0.768128 0
M  V30 5961 H 588.892 0.126141 1.69231 0
M  V30 5962 H 587.664 -0.0414766 3.91278 0
M  V30 5963 H 587.287 -1.72441 3.5826 0
M  V30 5964 N 588.284 -1.56567 -0.180126 0
M  V30 5965 C 589.214 -1.98753 -1.22553 0
M  V30 5966 C 590.195 -0.86175 -1.46656 0
M  V30 5967 O 591.38 -1.12719 -1.58139 0
M  V30 5968 C 588.51 -2.33988 -2.56645 0
M  V30 5969 C 587.464 -3.49445 -2.47128 0
M  V30 5970 C 586.79 -3.70397 -3.8563 0
M  V30 5971 C 588.09 -4.83171 -1.98352 0
M  V30 5972 H 589.784 -2.86332 -0.874896 0
M  V30 5973 H 587.33 -1.37757 -0.419414 0
M  V30 5974 H 589.283 -2.62097 -3.29974 0
M  V30 5975 H 588.007 -1.43309 -2.93479 0
M  V30 5976 H 586.666 -3.2145 -1.76254 0
M  V30 5977 H 586.314 -2.77023 -4.19842 0
M  V30 5978 H 586.014 -4.48077 -3.80132 0
M  V30 5979 H 587.538 -4.00897 -4.60558 0
M  V30 5980 H 588.952 -5.10213 -2.61449 0
M  V30 5981 H 587.349 -5.64425 -2.03823 0
M  V30 5982 H 588.419 -4.75753 -0.937402 0
M  V30 5983 N 589.762 0.448376 -1.51087 0
M  V30 5984 C 590.992 1.21965 -1.66757 0
M  V30 5985 C 591.4 1.85748 -0.359753 0
M  V30 5986 O 590.743 1.71022 0.670604 0
M  V30 5987 C 590.805 2.35284 -2.71812 0
M  V30 5988 C 590.469 1.91957 -4.1473 0
M  V30 5989 C 591.466 1.42921 -4.9987 0
M  V30 5990 C 589.151 1.99985 -4.60772 0
M  V30 5991 C 591.145 1.02485 -6.29107 0
M  V30 5992 C 588.832 1.5916 -5.90009 0
M  V30 5993 C 589.83 1.10491 -6.74004 0
M  V30 5994 O 589.518 0.702413 -8.00825 0
M  V30 5995 H 589.25 0.374125 -0.563034 0
M  V30 5996 H 591.804 0.538927 -1.98204 0
M  V30 5997 H 590.034 3.06599 -2.35657 0
M  V30 5998 H 591.723 2.97184 -2.76472 0
M  V30 5999 H 592.489 1.36123 -4.65506 0
M  V30 6000 H 588.368 2.36814 -3.95525 0
M  V30 6001 H 591.912 0.644271 -6.94619 0
M  V30 6002 H 587.809 1.65626 -6.2389 0
M  V30 6003 H 588.577 0.829248 -8.14288 0
M  V30 6004 N 591.24 1.41047 0.703093 0
M  V30 6005 C 592.468 1.4334 1.49202 0
M  V30 6006 C 592.883 0.0365596 1.88765 0
M  V30 6007 O 592.24 -0.942419 1.56284 0
M  V30 6008 C 592.291 2.33538 2.75939 0
M  V30 6009 O 592.012 3.67786 2.38045 0
M  V30 6010 C 593.513 2.44555 3.6974 0
M  V30 6011 H 590.733 0.488472 0.460039 0
M  V30 6012 H 593.277 1.85245 0.86629 0
M  V30 6013 H 591.432 1.94962 3.34766 0
M  V30 6014 H 591.846 4.15816 3.19683 0
M  V30 6015 H 593.32 3.11849 4.55471 0
M  V30 6016 H 593.797 1.47447 4.1371 0
M  V30 6017 H 594.403 2.83735 3.16819 0
M  V30 6018 N 592.718 -0.936591 1.26751 0
M  V30 6019 C 593.946 -1.71758 1.15355 0
M  V30 6020 C 594.361 -1.86549 -0.290683 0
M  V30 6021 O 593.718 -1.37616 -1.19868 0
M  V30 6022 C 593.769 -3.12193 1.82258 0
M  V30 6023 O 593.49 -2.98105 3.21038 0
M  V30 6024 C 594.991 -4.06485 1.76875 0
M  V30 6025 H 592.211 -0.537636 0.401483 0
M  V30 6026 H 594.755 -1.17382 1.67457 0
M  V30 6027 H 592.91 -3.63456 1.34083 0
M  V30 6028 H 593.324 -3.86824 3.54214 0
M  V30 6029 H 594.798 -5.02569 2.28316 0
M  V30 6030 H 595.275 -4.32986 0.736216 0
M  V30 6031 H 595.881 -3.61144 2.24623 0
M  V30 6032 N 594.196 -1.08629 -1.14182 0
M  V30 6033 C 595.421 -0.83902 -1.89671 0
M  V30 6034 C 595.846 0.603332 -1.78161 0
M  V30 6035 O 595.204 1.42301 -1.12339 0
M  V30 6036 C 595.252 -1.26854 -3.37551 0
M  V30 6037 O 594.356 -0.42188 -4.10236 0
M  V30 6038 H 593.697 -0.304545 -0.590041 0
M  V30 6039 H 596.227 -1.4483 -1.44518 0
M  V30 6040 H 596.237 -1.25038 -3.88368 0
M  V30 6041 H 594.912 -2.31901 -3.45246 0
M  V30 6042 H 593.489 -0.503654 -3.69483 0
M  V30 6043 N 595.674 1.31259 -0.872281 0
M  V30 6044 C 596.899 2.0133 -0.498099 0
M  V30 6045 C 597.324 1.65031 0.902568 0
M  V30 6046 O 596.682 0.860164 1.59596 0
M  V30 6047 C 596.73 3.54411 -0.665205 0
M  V30 6048 O 595.834 4.11347 0.294473 0
M  V30 6049 H 595.175 0.633844 -0.197832 0
M  V30 6050 H 597.705 1.67402 -1.17633 0
M  V30 6051 H 597.715 4.04147 -0.559373 0
M  V30 6052 H 596.39 3.80171 -1.68651 0
M  V30 6053 H 594.967 3.72624 0.143403 0
M  V30 6054 N 597.152 0.631951 1.44375 0
M  V30 6055 C 598.084 -0.110911 2.28931 0
M  V30 6056 C 599.097 -0.808086 1.41329 0
M  V30 6057 O 600.286 -0.669396 1.65473 0
M  V30 6058 C 597.386 -1.17928 3.1772 0
M  V30 6059 C 596.559 -0.564458 4.33743 0
M  V30 6060 C 595.618 -1.5269 5.0356 0
M  V30 6061 O 594.644 -1.04372 5.59549 0
M  V30 6062 N 595.846 -2.86123 5.05088 0
M  V30 6063 H 598.611 0.614758 2.93327 0
M  V30 6064 H 596.172 0.473171 1.54831 0
M  V30 6065 H 598.164 -1.82348 3.61291 0
M  V30 6066 H 596.734 -1.80717 2.55069 0
M  V30 6067 H 595.954 0.258373 3.93352 0
M  V30 6068 H 597.242 -0.134355 5.08623 0
M  V30 6069 H 596.64 -3.27959 4.60933 0
M  V30 6070 H 595.197 -3.45901 5.52445 0
M  V30 6071 N 598.631 -1.53133 0.372548 0
M  V30 6072 C 599.561 -2.28876 -0.462412 0
M  V30 6073 C 600.542 -1.31583 -1.07796 0
M  V30 6074 O 601.727 -1.60461 -1.09389 0
M  V30 6075 C 598.857 -3.08317 -1.59868 0
M  V30 6076 C 597.811 -4.13355 -1.11003 0
M  V30 6077 C 597.137 -4.8092 -2.33708 0
M  V30 6078 C 598.437 -5.21955 -0.18983 0
M  V30 6079 H 600.131 -2.9892 0.169511 0
M  V30 6080 H 597.677 -1.43761 0.0829658 0
M  V30 6081 H 599.63 -3.60055 -2.18949 0
M  V30 6082 H 598.354 -2.35976 -2.25794 0
M  V30 6083 H 597.013 -3.62573 -0.541869 0
M  V30 6084 H 596.661 -4.05144 -2.98106 0
M  V30 6085 H 596.361 -5.51904 -2.01682 0
M  V30 6086 H 597.885 -5.35455 -2.93462 0
M  V30 6087 H 599.299 -5.69153 -0.688319 0
M  V30 6088 H 597.696 -6.00087 0.0398887 0
M  V30 6089 H 598.766 -4.78811 0.766057 0
M  V30 6090 N 600.109 -0.101901 -1.5727 0
M  V30 6091 C 601.337 0.568392 -1.98939 0
M  V30 6092 C 601.752 1.61301 -0.981194 0
M  V30 6093 O 601.109 1.82478 0.0282869 0
M  V30 6094 C 601.16 1.20997 -3.40649 0
M  V30 6095 O 600.881 0.207129 -4.3761 0
M  V30 6096 C 602.382 1.96523 -3.97358 0
M  V30 6097 H 599.602 0.15186 -0.65359 0
M  V30 6098 H 602.146 -0.183198 -2.03678 0
M  V30 6099 H 600.301 1.91245 -3.36904 0
M  V30 6100 H 600.715 0.671071 -5.20189 0
M  V30 6101 H 602.189 2.36764 -4.98645 0
M  V30 6102 H 602.666 2.83376 -3.35552 0
M  V30 6103 H 603.272 1.31076 -4.04598 0
M  V30 6104 N 601.587 1.56661 0.17182 0
M  V30 6105 C 602.517 1.99401 1.21498 0
M  V30 6106 C 603.498 0.869516 1.46197 0
M  V30 6107 O 604.683 1.13556 1.57539 0
M  V30 6108 C 601.813 2.35346 2.55401 0
M  V30 6109 C 600.767 3.5075 2.45272 0
M  V30 6110 C 600.093 3.72437 3.8366 0
M  V30 6111 C 601.393 4.84216 1.95787 0
M  V30 6112 H 603.087 2.86792 0.859699 0
M  V30 6113 H 600.633 1.37977 0.412103 0
M  V30 6114 H 602.586 2.63843 3.2858 0
M  V30 6115 H 601.31 1.44864 2.92715 0
M  V30 6116 H 599.969 3.2238 1.74547 0
M  V30 6117 H 599.617 2.79246 4.18367 0
M  V30 6118 H 599.317 4.50087 3.77751 0
M  V30 6119 H 600.841 4.03334 4.58426 0
M  V30 6120 H 602.255 5.11592 2.5874 0
M  V30 6121 H 600.652 5.65498 2.00827 0
M  V30 6122 H 601.722 4.76243 0.912159 0
M  V30 6123 N 603.065 -0.440357 1.51323 0
M  V30 6124 C 604.476 -1.02032 1.56353 0
M  V30 6125 C 604.827 -1.92382 0.385197 0
M  V30 6126 O 603.952 -2.10583 -0.498373 0
M  V30 6127 C 604.547 -1.85723 2.83359 0
M  V30 6128 C 603.106 -2.38774 2.90971 0
M  V30 6129 C 602.253 -1.17908 2.50984 0
M  V30 6130 H 605.204 -0.221744 1.57143 0
M  V30 6131 H 605.225 -2.71141 2.66951 0
M  V30 6132 H 604.737 -1.19939 3.69102 0
M  V30 6133 H 602.838 -3.08021 2.09651 0
M  V30 6134 H 602.951 -2.71778 3.94555 0
M  V30 6135 H 601.315 -1.52347 2.04114 0
M  V30 6136 H 602.098 -0.537393 3.39068 0
M  V30 6137 N 604.543 -1.41418 -0.695603 0
M  V30 6138 C 605.506 -1.42988 -1.79129 0
M  V30 6139 C 606.506 -0.320514 -1.57573 0
M  V30 6140 O 607.696 -0.58039 -1.64247 0
M  V30 6141 C 604.828 -1.24122 -3.175 0
M  V30 6142 H 606.021 -2.40526 -1.7913 0
M  V30 6143 H 603.574 -1.2756 -0.903225 0
M  V30 6144 H 604.309 -0.274253 -3.23138 0
M  V30 6145 H 604.094 -2.045 -3.34547 0
M  V30 6146 H 605.584 -1.28056 -3.97481 0
M  V30 6147 N 606.021 0.929856 -1.27246 0
M  V30 6148 C 607.249 1.71144 -1.16265 0
M  V30 6149 C 607.664 1.867 0.280786 0
M  V30 6150 O 607.021 1.38249 1.19136 0
M  V30 6151 C 607.072 3.11222 -1.83911 0
M  V30 6152 O 606.793 2.96398 -3.22614 0
M  V30 6153 C 608.294 4.05541 -1.79028 0
M  V30 6154 H 605.514 0.535499 -0.404328 0
M  V30 6155 H 608.058 1.16492 -1.68077 0
M  V30 6156 H 606.213 3.6274 -1.36009 0
M  V30 6157 H 606.627 3.8494 -3.56261 0
M  V30 6158 H 608.101 5.01351 -2.30978 0
M  V30 6159 H 608.578 4.32589 -0.759168 0
M  V30 6160 H 609.184 3.59947 -2.26535 0
M  V30 6161 N 607.499 1.09233 1.13605 0
M  V30 6162 C 608.431 0.687794 2.18637 0
M  V30 6163 C 609.444 -0.26936 1.60556 0
M  V30 6164 O 610.633 -0.0557162 1.78413 0
M  V30 6165 C 607.733 -0.00751901 3.38899 0
M  V30 6166 C 606.906 0.97067 4.26494 0
M  V30 6167 C 605.965 0.309129 5.25291 0
M  V30 6168 O 604.991 0.956149 5.61112 0
M  V30 6169 N 606.193 -0.937555 5.72879 0
M  V30 6170 H 608.958 1.59141 2.53957 0
M  V30 6171 H 606.519 0.979515 1.28907 0
M  V30 6172 H 608.511 -0.461238 4.02063 0
M  V30 6173 H 607.081 -0.813353 3.01833 0
M  V30 6174 H 606.301 1.603 3.60135 0
M  V30 6175 H 607.589 1.63323 4.81875 0
M  V30 6176 H 606.987 -1.48281 5.4592 0
M  V30 6177 H 605.544 -1.33463 6.3799 0
M  V30 6178 N 608.977 -1.30795 0.87923 0
M  V30 6179 C 610.217 -1.98155 0.50141 0
M  V30 6180 C 610.581 -1.67925 -0.930863 0
M  V30 6181 O 611.782 -2.28572 -1.41451 0
M  V30 6182 C 610.053 -3.49184 0.761937 0
M  V30 6183 S 611.612 -4.36107 0.485361 0
M  V30 6184 H 608.43 -0.686025 0.186792 0
M  V30 6185 H 611.032 -1.59018 1.13726 0
M  V30 6186 H 609.736 -3.68676 1.80295 0
M  V30 6187 H 609.267 -3.93236 0.113432 0
M  V30 6188 H 611.282 -4.9154 -0.678467 0
M  V30 6189 N 610.455 -0.639598 -1.44038 0
M  V30 6190 C 611.866 -0.228866 -1.85292 0
M  V30 6191 C 612.217 1.22161 -1.53529 0
M  V30 6192 O 611.342 1.93064 -0.977518 0
M  V30 6193 C 611.937 -0.408592 -3.36327 0
M  V30 6194 C 610.496 -0.0522953 -3.76364 0
M  V30 6195 C 609.643 -0.717959 -2.67844 0
M  V30 6196 H 612.594 -0.844194 -1.34384 0
M  V30 6197 H 612.615 0.349968 -3.78887 0
M  V30 6198 H 612.127 -1.46435 -3.59414 0
M  V30 6199 H 610.228 1.0014 -3.58891 0
M  V30 6200 H 610.341 -0.468261 -4.76806 0
M  V30 6201 H 608.705 -0.152459 -2.54243 0
M  V30 6202 H 609.488 -1.77648 -2.93762 0
M  V30 6203 N 611.933 1.52934 -0.380664 0
M  V30 6204 C 613.21 1.93845 0.261417 0
M  V30 6205 C 613.59 1.31544 1.65104 0
M  V30 6206 O 612.938 0.480234 2.23397 0
M  V30 6207 C 613.148 3.47739 0.296466 0
M  V30 6208 C 614.496 4.21284 0.529578 0
M  V30 6209 O 615.52 3.54199 0.377041 0
M  V30 6210 O 614.379 5.40195 0.827753 0
M  V30 6211 H 611.473 0.811318 0.160285 0
M  V30 6212 H 614.019 1.64042 -0.434544 0
M  V30 6213 H 612.791 3.85395 -0.67724 0
M  V30 6214 H 612.414 3.8382 1.0377 0
M  V30 6215 N 613.412 0.11024 1.57214 0
M  V30 6216 C 614.66 -0.548783 1.94506 0
M  V30 6217 C 614.981 -1.67772 0.99386 0
M  V30 6218 O 614.251 -1.9584 0.0485841 0
M  V30 6219 H 612.831 -0.205715 0.718116 0
M  V30 6220 H 615.493 0.177127 1.94093 0
M  V30 6221 H 614.589 -0.949096 2.97319 0
M  V30 6222 N 614.89 -1.56749 -0.16351 0
M  V30 6223 C 615.837 -1.97011 -1.2023 0
M  V30 6224 C 616.807 -0.835186 -1.43575 0
M  V30 6225 O 617.992 -1.09594 -1.56185 0
M  V30 6226 C 615.132 -2.34186 -2.53478 0
M  V30 6227 C 614.245 -3.60893 -2.37446 0
M  V30 6228 C 613.38 -3.87245 -3.63614 0
M  V30 6229 C 612.419 -5.07274 -3.42548 0
M  V30 6230 N 611.556 -5.29719 -4.60806 0
M  V30 6231 H 616.396 -2.85562 -0.851958 0
M  V30 6232 H 613.933 -1.41292 -0.409257 0
M  V30 6233 H 615.891 -2.53764 -3.31149 0
M  V30 6234 H 614.521 -1.48736 -2.86492 0
M  V30 6235 H 613.573 -3.49185 -1.50911 0
M  V30 6236 H 614.885 -4.48722 -2.1783 0
M  V30 6237 H 614.039 -4.07232 -4.49719 0
M  V30 6238 H 612.778 -2.97806 -3.86216 0
M  V30 6239 H 611.783 -4.87177 -2.5483 0
M  V30 6240 H 613.008 -5.98251 -3.2136 0
M  V30 6241 H 610.954 -4.43233 -4.83612 0
M  V30 6242 H 610.871 -6.11786 -4.44132 0
M  V30 6243 H 612.139 -5.54192 -5.48171 0
M  V30 6244 N 616.368 0.432326 -1.51554 0
M  V30 6245 C 617.593 1.20824 -1.68571 0
M  V30 6246 C 618.018 1.84126 -0.384596 0
M  V30 6247 O 617.376 1.69025 0.655751 0
M  V30 6248 C 617.424 2.26429 -2.80646 0
M  V30 6249 O 616.528 3.32032 -2.44598 0
M  V30 6250 H 615.869 0.353765 -0.561913 0
M  V30 6251 H 618.399 0.509916 -1.98144 0
M  V30 6252 H 618.409 2.71133 -3.04878 0
M  V30 6253 H 617.084 1.79733 -3.75058 0
M  V30 6254 H 615.661 2.92769 -2.30956 0
M  V30 6255 N 617.846 1.41785 0.688094 0
M  V30 6256 C 619.092 1.41753 1.4503 0
M  V30 6257 C 619.425 0.0290745 1.94178 0
M  V30 6258 O 618.7 -0.944456 1.7003 0
M  V30 6259 C 618.983 2.43069 2.65686 0
M  V30 6260 C 618.836 3.91053 2.22256 0
M  V30 6261 C 620.155 2.41543 3.67893 0
M  V30 6262 H 617.274 0.516202 0.526027 0
M  V30 6263 H 619.916 1.73111 0.783105 0
M  V30 6264 H 618.066 2.1646 3.2261 0
M  V30 6265 H 619.738 4.28594 1.70602 0
M  V30 6266 H 617.981 4.05559 1.53963 0
M  V30 6267 H 618.652 4.57501 3.08863 0
M  V30 6268 H 621.128 2.65175 3.20658 0
M  V30 6269 H 620.004 3.14434 4.49914 0
M  V30 6270 H 620.265 1.43666 4.18106 0
M  V30 6271 N 619.324 -0.923095 1.27737 0
M  V30 6272 C 620.552 -1.70525 1.17171 0
M  V30 6273 C 620.967 -1.86847 -0.270881 0
M  V30 6274 O 620.324 -1.38879 -1.18401 0
M  V30 6275 C 620.375 -3.10242 1.85559 0
M  V30 6276 O 620.096 -2.94683 3.24182 0
M  V30 6277 C 621.597 -4.04586 1.81176 0
M  V30 6278 H 618.817 -0.533347 0.407163 0
M  V30 6279 H 621.361 -1.15599 1.68692 0
M  V30 6280 H 619.516 -3.62014 1.3793 0
M  V30 6281 H 619.93 -3.83045 3.58297 0
M  V30 6282 H 621.404 -5.00119 2.33633 0
M  V30 6283 H 621.881 -4.3218 0.782099 0
M  V30 6284 H 622.487 -3.58741 2.2844 0
M  V30 6285 N 620.802 -1.09834 -1.13024 0
M  V30 6286 C 622.042 -0.846664 -1.8604 0
M  V30 6287 C 622.406 0.616557 -1.81831 0
M  V30 6288 O 623.607 0.984329 -2.50129 0
M  V30 6289 C 621.878 -1.37228 -3.30005 0
M  V30 6290 S 623.437 -1.25511 -4.20467 0
M  V30 6291 H 620.255 -0.30611 -0.64173 0
M  V30 6292 H 622.857 -1.40255 -1.36194 0
M  V30 6293 H 621.561 -2.43138 -3.30624 0
M  V30 6294 H 621.092 -0.81271 -3.84914 0
M  V30 6295 H 623.107 -0.208762 -4.95761 0
M  V30 6296 N 622.28 1.30327 -0.886154 0
M  V30 6297 C 623.23 2.25668 -0.325248 0
M  V30 6298 C 624.214 1.51318 0.546972 0
M  V30 6299 O 625.406 1.72623 0.391203 0
M  V30 6300 C 622.535 3.40229 0.458167 0
M  V30 6301 C 621.621 4.21933 -0.428208 0
M  V30 6302 N 622.012 4.82129 -1.52921 0
M  V30 6303 C 620.31 4.45439 -0.223535 0
M  V30 6304 C 621.011 5.43351 -2.07714 0
M  V30 6305 N 619.987 5.26002 -1.37195 0
M  V30 6306 H 623.789 2.69759 -1.1665 0
M  V30 6307 H 621.303 1.4478 -0.735691 0
M  V30 6308 H 623.3 4.07579 0.876648 0
M  V30 6309 H 621.96 2.97678 1.29684 0
M  V30 6310 H 622.971 4.81312 -1.91205 0
M  V30 6311 H 619.648 4.13481 0.577875 0
M  V30 6312 H 621.038 6.01118 -3.00178 0
M  V30 6313 N 623.758 0.647228 1.43697 0
M  V30 6314 C 625.004 0.158422 2.0218 0
M  V30 6315 C 625.337 -1.22233 1.50907 0
M  V30 6316 O 624.612 -1.81478 0.699702 0
M  V30 6317 C 624.895 0.1627 3.59732 0
M  V30 6318 C 624.748 1.57694 4.21251 0
M  V30 6319 C 626.067 -0.504138 4.37203 0
M  V30 6320 H 623.186 0.059042 0.734631 0
M  V30 6321 H 625.828 0.826772 1.71069 0
M  V30 6322 H 623.978 -0.406414 3.86368 0
M  V30 6323 H 625.65 2.19618 4.05667 0
M  V30 6324 H 623.893 2.12603 3.7813 0
M  V30 6325 H 624.564 1.53183 5.3032 0
M  V30 6326 H 627.04 -0.0199841 4.16095 0
M  V30 6327 H 625.916 -0.470394 5.46881 0
M  V30 6328 H 626.177 -1.57726 4.13007 0
M  V30 6329 N 625.236 -1.5273 0.388769 0
M  V30 6330 C 626.183 -2.26437 -0.446639 0
M  V30 6331 C 627.153 -1.28025 -1.05824 0
M  V30 6332 O 628.338 -1.56852 -1.08637 0
M  V30 6333 C 625.478 -3.07407 -1.56828 0
M  V30 6334 C 624.591 -4.20747 -0.979589 0
M  V30 6335 C 623.726 -4.89113 -2.07224 0
M  V30 6336 C 622.765 -5.94447 -1.45942 0
M  V30 6337 N 621.902 -6.56411 -2.49135 0
M  V30 6338 H 626.742 -2.97404 0.18837 0
M  V30 6339 H 624.279 -1.46727 0.104725 0
M  V30 6340 H 626.237 -3.52642 -2.22934 0
M  V30 6341 H 624.867 -2.3865 -2.17361 0
M  V30 6342 H 623.919 -3.7983 -0.208151 0
M  V30 6343 H 625.231 -4.9637 -0.491747 0
M  V30 6344 H 624.385 -5.3765 -2.81101 0
M  V30 6345 H 623.124 -4.13013 -2.59368 0
M  V30 6346 H 622.129 -5.4525 -0.705894 0
M  V30 6347 H 623.354 -6.7248 -0.945932 0
M  V30 6348 H 621.3 -5.83152 -3.00449 0
M  V30 6349 H 621.217 -7.27645 -2.05105 0
M  V30 6350 H 622.485 -7.09592 -3.22644 0
M  V30 6351 N 626.714 -0.118576 -1.57153 0
M  V30 6352 C 627.664 0.842924 -2.11846 0
M  V30 6353 C 628.648 1.22845 -1.03914 0
M  V30 6354 O 629.84 1.19961 -1.30148 0
M  V30 6355 C 626.969 2.09312 -2.72109 0
M  V30 6356 C 626.055 1.73198 -3.87122 0
M  V30 6357 N 626.446 1.07758 -4.94188 0
M  V30 6358 C 624.744 2.02659 -3.97298 0
M  V30 6359 C 625.445 0.907741 -5.74574 0
M  V30 6360 N 624.421 1.4326 -5.24383 0
M  V30 6361 H 628.223 0.333416 -2.92003 0
M  V30 6362 H 625.737 0.0839073 -1.62183 0
M  V30 6363 H 627.734 2.79162 -3.09635 0
M  V30 6364 H 626.394 2.60807 -1.93416 0
M  V30 6365 H 627.405 0.741613 -5.12563 0
M  V30 6366 H 624.082 2.56204 -3.29645 0
M  V30 6367 H 625.472 0.394112 -6.70743 0
M  V30 6368 N 628.193 1.56834 0.155195 0
M  V30 6369 C 629.423 1.86778 0.883044 0
M  V30 6370 C 629.831 0.703824 1.75622 0
M  V30 6371 O 629.174 -0.33581 1.80605 0
M  V30 6372 C 629.236 3.1133 1.79761 0
M  V30 6373 C 628.9 4.43504 1.10242 0
M  V30 6374 C 629.897 5.17859 0.460204 0
M  V30 6375 C 627.582 4.90233 1.09437 0
M  V30 6376 C 629.576 6.37144 -0.180782 0
M  V30 6377 C 627.263 6.09444 0.449569 0
M  V30 6378 C 628.261 6.82744 -0.186888 0
M  V30 6379 O 627.949 7.99692 -0.821486 0
M  V30 6380 H 627.681 0.62352 0.261149 0
M  V30 6381 H 630.235 2.04813 0.155204 0
M  V30 6382 H 628.465 2.89282 2.56618 0
M  V30 6383 H 630.154 3.27587 2.39669 0
M  V30 6384 H 630.92 4.8283 0.458289 0
M  V30 6385 H 626.799 4.33109 1.57917 0
M  V30 6386 H 630.343 6.94296 -0.678154 0
M  V30 6387 H 626.24 6.43936 0.449123 0
M  V30 6388 H 627.008 8.15306 -0.722337 0
M  V30 6389 N 629.671 -0.424282 1.51781 0
M  V30 6390 C 630.899 -1.1947 1.68921 0
M  V30 6391 C 631.314 -1.84683 0.39213 0
M  V30 6392 O 630.671 -1.71261 -0.630554 0
M  V30 6393 C 630.722 -2.26909 2.81416 0
M  V30 6394 O 630.443 -1.64361 4.061 0
M  V30 6395 C 631.944 -3.16945 3.09937 0
M  V30 6396 H 629.164 -0.359591 0.566511 0
M  V30 6397 H 631.708 -0.501139 1.98265 0
M  V30 6398 H 629.863 -2.91959 2.54635 0
M  V30 6399 H 630.277 -2.35468 4.68674 0
M  V30 6400 H 631.751 -3.88437 3.922 0
M  V30 6401 H 632.228 -3.78451 2.22871 0
M  V30 6402 H 632.834 -2.57581 3.38426 0
M  V30 6403 N 631.149 -1.42148 -0.680565 0
M  V30 6404 C 632.097 -1.45401 -1.81552 0
M  V30 6405 C 633.091 -0.33036 -1.66147 0
M  V30 6406 O 634.297 -0.503103 -1.72826 0
M  V30 6407 H 630.672 -0.455265 -0.59853 0
M  V30 6408 H 632.643 -2.41024 -1.75926 0
M  V30 6409 C 631.392 -1.36769 -3.19671 0
M  V30 6410 H 630.715 -2.22525 -3.32149 0
M  V30 6411 H 632.155 -1.43106 -3.9912 0
M  V30 6412 C 630.614 -0.0817752 -3.36801 0
M  V30 6413 O 631.144 0.867707 -3.92216 0
M  V30 6414 N 629.35 -0.000799811 -2.906 0
M  V30 6415 H 628.897 -0.774231 -2.4569 0
M  V30 6416 H 628.855 0.858961 -3.02439 0
M  V30 6417 N 632.627 0.916307 -1.28225 0
M  V30 6418 C 634.038 1.48024 -1.13779 0
M  V30 6419 C 634.389 1.94289 0.273139 0
M  V30 6420 O 633.514 1.82226 1.16716 0
M  V30 6421 C 634.109 2.69029 -2.05935 0
M  V30 6422 C 632.668 3.2161 -1.95561 0
M  V30 6423 C 631.815 1.94321 -1.97825 0
M  V30 6424 H 634.766 0.729272 -1.40951 0
M  V30 6425 H 634.787 3.44204 -1.62184 0
M  V30 6426 H 634.299 2.35325 -3.08616 0
M  V30 6427 H 632.4 3.60045 -0.959076 0
M  V30 6428 H 632.513 3.87032 -2.82388 0
M  V30 6429 H 630.877 2.1131 -1.42198 0
M  V30 6430 H 631.66 1.62917 -3.0218 0
M  V30 6431 N 634.105 1.10431 1.1244 0
M  V30 6432 C 635.33 0.869089 1.88313 0
M  V30 6433 C 635.755 -0.574912 1.79099 0
M  V30 6434 O 635.113 -1.40496 1.14589 0
M  V30 6435 C 635.161 1.32208 3.3549 0
M  V30 6436 O 634.265 0.487092 4.09513 0
M  V30 6437 H 633.606 0.313894 0.585121 0
M  V30 6438 H 636.136 1.47111 1.42195 0
M  V30 6439 H 636.146 1.31201 3.86329 0
M  V30 6440 H 634.821 2.37364 3.41513 0
M  V30 6441 H 633.398 0.562372 3.68635 0
M  V30 6442 N 635.583 -1.29855 0.893053 0
M  V30 6443 C 636.515 -2.26911 0.32311 0
M  V30 6444 C 637.528 -1.54039 -0.526858 0
M  V30 6445 O 638.717 -1.75132 -0.345095 0
M  V30 6446 C 635.817 -3.34266 -0.558509 0
M  V30 6447 C 634.99 -4.36601 0.264222 0
M  V30 6448 C 634.049 -5.23326 -0.549171 0
M  V30 6449 O 633.075 -5.69192 0.0309883 0
M  V30 6450 N 634.277 -5.50008 -1.85664 0
M  V30 6451 H 637.042 -2.76455 1.15726 0
M  V30 6452 H 634.603 -1.4312 0.756859 0
M  V30 6453 H 636.595 -3.89211 -1.1089 0
M  V30 6454 H 635.165 -2.8459 -1.29334 0
M  V30 6455 H 634.385 -3.81409 0.996046 0
M  V30 6456 H 635.673 -5.02019 0.827906 0
M  V30 6457 H 635.071 -5.14542 -2.35081 0
M  V30 6458 H 633.628 -6.07796 -2.35431 0
M  V30 6459 N 637.061 -0.65484 -1.43351 0
M  V30 6460 C 638.338 -0.0987371 -1.95351 0
M  V30 6461 C 638.718 1.38161 -1.59608 0
M  V30 6462 O 638.066 2.10791 -0.882021 0
M  V30 6463 C 638.276 -0.346684 -3.47274 0
M  V30 6464 C 639.624 -0.25249 -4.23849 0
M  V30 6465 O 640.648 -0.279332 -3.55103 0
M  V30 6466 O 639.507 -0.177584 -5.46211 0
M  V30 6467 H 636.601 0.0086829 -0.826954 0
M  V30 6468 H 639.147 -0.728189 -1.53282 0
M  V30 6469 H 637.919 -1.37296 -3.66423 0
M  V30 6470 H 637.542 0.315757 -3.96344 0
M  V30 6471 N 638.539 1.52521 -0.396863 0
M  V30 6472 C 639.785 2.01971 0.183169 0
M  V30 6473 C 640.118 1.2825 1.45827 0
M  V30 6474 O 639.393 0.385179 1.90648 0
M  V30 6475 C 639.676 3.5736 0.443391 0
M  V30 6476 C 639.529 4.41743 -0.84753 0
M  V30 6477 C 640.848 4.22539 1.2308 0
M  V30 6478 H 637.967 0.734119 0.0650976 0
M  V30 6479 H 640.609 1.82519 -0.527918 0
M  V30 6480 H 638.759 3.74066 1.04914 0
M  V30 6481 H 640.431 4.36773 -1.48414 0
M  V30 6482 H 638.674 4.0845 -1.4612 0
M  V30 6483 H 639.345 5.48507 -0.620003 0
M  V30 6484 H 641.821 4.09857 0.718084 0
M  V30 6485 H 640.697 5.31227 1.38162 0
M  V30 6486 H 640.958 3.80675 2.24808 0
M  V30 6487 N 640.017 0.126909 1.57088 0
M  V30 6488 C 641.245 -0.53667 1.99819 0
M  V30 6489 C 641.66 -1.5972 1.00673 0
M  V30 6490 O 641.017 -1.825 0.000747365 0
M  V30 6491 C 641.068 -1.15563 3.42531 0
M  V30 6492 O 640.789 -0.137483 4.37884 0
M  V30 6493 C 642.29 -1.90176 4.00435 0
M  V30 6494 H 639.51 -0.141443 0.655923 0
M  V30 6495 H 642.054 0.215578 2.03361 0
M  V30 6496 H 640.209 -1.85861 3.39904 0
M  V30 6497 H 640.623 -0.588229 5.21191 0
M  V30 6498 H 642.097 -2.28801 5.02349 0
M  V30 6499 H 642.574 -2.78002 3.40017 0
M  V30 6500 H 643.18 -1.24623 4.06632 0
M  V30 6501 N 641.495 -1.56914 -0.146875 0
M  V30 6502 C 642.741 -1.83628 -0.860741 0
M  V30 6503 C 643.074 -0.708528 -1.80813 0
M  V30 6504 O 642.349 0.287838 -1.92358 0
M  V30 6505 C 642.632 -3.20836 -1.63511 0
M  V30 6506 C 642.485 -4.44174 -0.709199 0
M  V30 6507 C 643.804 -3.55268 -2.59756 0
M  V30 6508 H 640.923 -0.667949 -0.311468 0
M  V30 6509 H 643.565 -1.89582 -0.125936 0
M  V30 6510 H 641.715 -3.15891 -2.26153 0
M  V30 6511 H 643.387 -4.61205 -0.0937781 0
M  V30 6512 H 641.63 -4.33796 -0.0187856 0
M  V30 6513 H 642.301 -5.36785 -1.28707 0
M  V30 6514 H 644.777 -3.60824 -2.07232 0
M  V30 6515 H 643.653 -4.52303 -3.10987 0
M  V30 6516 H 643.914 -2.81231 -3.41118 0
M  V30 6517 N 642.974 0.416227 -1.52004 0
M  V30 6518 C 644.385 0.995319 -1.57957 0
M  V30 6519 C 644.736 1.91744 -0.415754 0
M  V30 6520 O 643.861 2.11349 0.464808 0
M  V30 6521 C 644.456 1.81191 -2.86278 0
M  V30 6522 C 643.015 2.34115 -2.94732 0
M  V30 6523 C 642.162 1.139 -2.52828 0
M  V30 6524 H 645.113 0.196716 -1.57476 0
M  V30 6525 H 645.134 2.66859 -2.71231 0
M  V30 6526 H 644.646 1.14051 -3.70963 0
M  V30 6527 H 642.747 3.04647 -2.14525 0
M  V30 6528 H 642.86 2.65466 -3.98829 0
M  V30 6529 H 641.224 1.49081 -2.06511 0
M  V30 6530 H 642.007 0.483383 -3.3988 0
M  V30 6531 N 644.452 1.42507 0.673017 0
M  V30 6532 C 645.692 1.44559 1.44507 0
M  V30 6533 C 646.056 0.0606206 1.91904 0
M  V30 6534 O 647.257 -0.044139 2.68764 0
M  V30 6535 C 645.528 2.44291 2.60877 0
M  V30 6536 S 647.087 2.65059 3.49699 0
M  V30 6537 H 643.905 0.51181 0.49353 0
M  V30 6538 H 646.507 1.79124 0.783256 0
M  V30 6539 H 645.211 3.43685 2.24297 0
M  V30 6540 H 644.742 2.11157 3.31928 0
M  V30 6541 H 646.757 1.93494 4.56919 0
M  V30 6542 N 645.93 -0.909495 1.28709 0
M  V30 6543 C 647.341 -1.47419 1.14563 0
M  V30 6544 C 647.692 -1.94432 -0.262832 0
M  V30 6545 O 646.817 -1.82842 -1.15748 0
M  V30 6546 C 647.412 -2.67933 2.07358 0
M  V30 6547 C 645.971 -3.20568 1.97264 0
M  V30 6548 C 645.118 -1.93269 1.98852 0
M  V30 6549 H 648.069 -0.721787 1.41336 0
M  V30 6550 H 648.09 -3.43339 1.64007 0
M  V30 6551 H 647.602 -2.33685 3.09859 0
M  V30 6552 H 645.703 -3.59531 0.978157 0
M  V30 6553 H 645.816 -3.85529 2.84436 0
M  V30 6554 H 644.18 -2.10553 1.43317 0
M  V30 6555 H 644.963 -1.61312 3.0304 0
M  V30 6556 N 647.408 -1.11026 -1.11852 0
M  V30 6557 C 648.654 -0.857729 -1.83768 0
M  V30 6558 C 648.987 0.615143 -1.842 0
M  V30 6559 O 648.262 1.45391 -1.29196 0
M  V30 6560 C 648.545 -1.41453 -3.31154 0
M  V30 6561 C 648.398 -2.95471 -3.39142 0
M  V30 6562 C 649.717 -1.0619 -4.27097 0
M  V30 6563 H 646.836 -0.313044 -0.667212 0
M  V30 6564 H 649.478 -1.37443 -1.31185 0
M  V30 6565 H 647.628 -0.975052 -3.76065 0
M  V30 6566 H 649.3 -3.4799 -3.02821 0
M  V30 6567 H 647.543 -3.31759 -2.79497 0
M  V30 6568 H 648.214 -3.29515 -4.42859 0
M  V30 6569 H 650.69 -1.44122 -3.90344 0
M  V30 6570 H 649.566 -1.47832 -5.28618 0
M  V30 6571 H 649.827 0.0278912 -4.42091 0
M  V30 6572 N 648.886 1.2938 -0.899927 0
M  V30 6573 C 650.297 1.77644 -0.574427 0
M  V30 6574 C 650.648 1.73824 0.909928 0
M  V30 6575 O 649.773 1.32429 1.71147 0
M  V30 6576 C 650.368 3.22573 -1.03595 0
M  V30 6577 C 648.927 3.68614 -0.76161 0
M  V30 6578 C 648.074 2.49483 -1.21052 0
M  V30 6579 H 651.025 1.16038 -1.08263 0
M  V30 6580 H 651.046 3.78684 -0.371337 0
M  V30 6581 H 650.558 3.25321 -2.11631 0
M  V30 6582 H 648.659 3.7134 0.306127 0
M  V30 6583 H 648.772 4.59402 -1.35965 0
M  V30 6584 H 647.136 2.46798 -0.629515 0
M  V30 6585 H 647.919 2.54959 -2.29893 0
M  V30 6586 N 650.364 0.662433 1.43002 0
M  V30 6587 C 651.775 0.258315 1.84904 0
M  V30 6588 C 652.126 -1.19703 1.55453 0
M  V30 6589 O 651.251 -1.91484 1.00811 0
M  V30 6590 C 651.846 0.462047 3.35635 0
M  V30 6591 C 650.405 0.112165 3.76233 0
M  V30 6592 C 649.552 0.760479 2.66668 0
M  V30 6593 H 652.503 0.865467 1.33024 0
M  V30 6594 H 652.524 -0.289646 3.79396 0
M  V30 6595 H 652.036 1.52135 3.57039 0
M  V30 6596 H 650.137 -0.944179 3.60439 0
M  V30 6597 H 650.25 0.544058 4.76001 0
M  V30 6598 H 648.614 0.192887 2.53969 0
M  V30 6599 H 649.397 1.82299 2.90898 0
M  V30 6600 N 651.842 -1.52309 0.404946 0
M  V30 6601 C 653.253 -1.86585 -0.0655926 0
M  V30 6602 C 653.604 -1.3239 -1.44801 0
M  V30 6603 O 652.729 -0.6615 -2.06042 0
M  V30 6604 C 653.324 -3.38566 -0.125801 0
M  V30 6605 C 651.883 -3.72497 -0.540666 0
M  V30 6606 C 651.03 -2.75806 0.287487 0
M  V30 6607 H 653.981 -1.45995 0.622185 0
M  V30 6608 H 654.002 -3.68658 -0.941888 0
M  V30 6609 H 653.514 -3.77981 0.880473 0
M  V30 6610 H 651.615 -3.38659 -1.55373 0
M  V30 6611 H 651.728 -4.78234 -0.287956 0
M  V30 6612 H 650.092 -2.53474 -0.249561 0
M  V30 6613 H 650.875 -3.18059 1.29203 0
M  V30 6614 N 653.32 -0.135238 -1.57019 0
M  V30 6615 C 654.731 0.387521 -1.82634 0
M  V30 6616 C 655.082 1.65528 -1.05332 0
M  V30 6617 O 654.207 2.14381 -0.294926 0
M  V30 6618 C 654.802 0.709852 -3.3128 0
M  V30 6619 C 653.361 1.17718 -3.57518 0
M  V30 6620 C 652.508 0.194183 -2.76619 0
M  V30 6621 H 655.459 -0.360126 -1.5456 0
M  V30 6622 H 655.48 1.5657 -3.46794 0
M  V30 6623 H 654.992 -0.213024 -3.87515 0
M  V30 6624 H 653.093 2.1164 -3.06658 0
M  V30 6625 H 653.206 1.11128 -4.66034 0
M  V30 6626 H 651.57 0.684478 -2.4533 0
M  V30 6627 H 652.353 -0.722076 -3.3562 0
M  V30 6628 N 654.798 1.5699 0.138552 0
M  V30 6629 C 656.209 1.73171 0.697754 0
M  V30 6630 C 656.56 0.750952 1.8126 0
M  V30 6631 O 655.685 -0.080549 2.1625 0
M  V30 6632 C 656.28 3.13996 1.27248 0
M  V30 6633 C 654.839 3.3175 1.77816 0
M  V30 6634 C 653.986 2.69084 0.669991 0
M  V30 6635 H 656.937 1.5846 -0.0871979 0
M  V30 6636 H 656.958 3.14463 2.14227 0
M  V30 6637 H 656.47 3.85354 0.460855 0
M  V30 6638 H 654.571 2.65403 2.61519 0
M  V30 6639 H 654.684 4.39768 1.90107 0
M  V30 6640 H 653.048 2.29782 1.09874 0
M  V30 6641 H 653.831 3.43053 -0.130329 0
M  V30 6642 N 656.276 -0.40816 1.52223 0
M  V30 6643 C 657.516 -1.16418 1.68006 0
M  V30 6644 C 657.88 -1.87749 0.401793 0
M  V30 6645 O 659.081 -2.65245 0.435743 0
M  V30 6646 C 657.352 -2.13143 2.86889 0
M  V30 6647 S 658.911 -2.96839 3.2316 0
M  V30 6648 H 655.729 -0.394373 0.5916 0
M  V30 6649 H 658.331 -0.451349 1.90219 0
M  V30 6650 H 657.035 -1.59428 3.78168 0
M  V30 6651 H 656.566 -2.88963 2.66953 0
M  V30 6652 H 658.581 -4.151 2.71857 0
M  V30 6653 N 657.755 -1.42862 -0.66545 0
M  V30 6654 C 658.995 -1.45323 -1.43738 0
M  V30 6655 C 659.359 -0.0707969 -1.91869 0
M  V30 6656 O 660.56 0.0298852 -2.68783 0
M  V30 6657 C 658.831 -2.45671 -2.59577 0
M  V30 6658 S 660.39 -2.6691 -3.48288 0
M  V30 6659 H 657.208 -0.51442 -0.490809 0
M  V30 6660 H 659.81 -1.79537 -0.773745 0
M  V30 6661 H 658.514 -3.44869 -2.22471 0
M  V30 6662 H 658.045 -2.12914 -3.30804 0
M  V30 6663 H 660.06 -1.95914 -4.55886 0
M  V30 6664 N 659.233 0.902656 -1.29189 0
M  V30 6665 C 660.183 1.99326 -1.10695 0
M  V30 6666 C 661.167 1.60877 -0.0272521 0
M  V30 6667 O 662.359 1.75245 -0.248635 0
M  V30 6668 C 659.488 3.34265 -0.78244 0
M  V30 6669 C 658.574 3.79081 -1.90153 0
M  V30 6670 N 658.965 3.96162 -3.14466 0
M  V30 6671 C 657.263 4.08333 -1.79389 0
M  V30 6672 C 657.964 4.3388 -3.87458 0
M  V30 6673 N 656.94 4.42759 -3.15381 0
M  V30 6674 H 660.742 2.10597 -2.05003 0
M  V30 6675 H 658.256 1.09127 -1.20271 0
M  V30 6676 H 660.253 4.12097 -0.630996 0
M  V30 6677 H 658.913 3.2434 0.152754 0
M  V30 6678 H 659.924 3.81775 -3.49954 0
M  V30 6679 H 656.601 4.06982 -0.931217 0
M  V30 6680 H 657.991 4.54965 -4.94425 0
M  V30 6681 N 660.711 1.11618 1.11262 0
M  V30 6682 C 662.122 0.881942 1.64556 0
M  V30 6683 C 662.473 -0.585442 1.87262 0
M  V30 6684 O 661.598 -1.44795 1.60821 0
M  V30 6685 C 662.193 1.59446 2.98935 0
M  V30 6686 C 660.752 1.40661 3.4913 0
M  V30 6687 C 659.899 1.63593 2.23903 0
M  V30 6688 H 662.85 1.27217 0.94877 0
M  V30 6689 H 662.871 1.04054 3.65996 0
M  V30 6690 H 662.383 2.66241 2.82378 0
M  V30 6691 H 660.484 0.360835 3.70849 0
M  V30 6692 H 660.597 2.15693 4.27801 0
M  V30 6693 H 658.961 1.05944 2.3162 0
M  V30 6694 H 659.744 2.71666 2.09886 0
M  V30 6695 N 662.189 -1.289 0.906776 0
M  V30 6696 C 663.605 -1.47733 0.603902 0
M  V30 6697 C 663.805 -1.82568 -0.852702 0
M  V30 6698 O 662.861 -1.92642 -1.63234 0
M  V30 6699 C 664.174 -2.58522 1.53581 0
M  V30 6700 C 665.722 -2.72394 1.54177 0
M  V30 6701 C 666.197 -3.86318 2.46013 0
M  V30 6702 N 667.688 -3.93661 2.441 0
M  V30 6703 C 668.423 -4.81177 3.11859 0
M  V30 6704 N 667.919 -5.73333 3.88923 0
M  V30 6705 N 669.712 -4.74728 3.00981 0
M  V30 6706 H 661.863 -1.04567 1.84877 0
M  V30 6707 H 664.126 -0.520118 0.792579 0
M  V30 6708 H 663.832 -2.39667 2.57396 0
M  V30 6709 H 663.706 -3.55475 1.26165 0
M  V30 6710 H 666.093 -2.90641 0.511034 0
M  V30 6711 H 666.174 -1.75993 1.85634 0
M  V30 6712 H 665.818 -3.68826 3.49185 0
M  V30 6713 H 665.748 -4.82102 2.11862 0
M  V30 6714 H 668.239 -3.27751 1.88115 0
M  V30 6715 H 668.552 -6.36923 4.37663 0
M  V30 6716 H 666.897 -5.73196 3.93029 0
M  V30 6717 H 670.088 -4.01722 2.40286 0
M  V30 6718 H 670.261 -5.42719 3.54062 0
M  V30 6719 N 663.667 -0.670007 -1.42649 0
M  V30 6720 C 664.597 -0.00258501 -2.335 0
M  V30 6721 C 665.578 0.794364 -1.50412 0
M  V30 6722 O 666.763 0.75248 -1.79029 0
M  V30 6723 C 663.893 0.952748 -3.33976 0
M  V30 6724 C 662.847 0.264733 -4.2718 0
M  V30 6725 C 662.173 1.33267 -5.17826 0
M  V30 6726 C 663.473 -0.853289 -5.15283 0
M  V30 6727 H 665.167 -0.761326 -2.89559 0
M  V30 6728 H 662.713 -0.367561 -1.3923 0
M  V30 6729 H 664.666 1.4287 -3.96442 0
M  V30 6730 H 663.39 1.74285 -2.7621 0
M  V30 6731 H 662.049 -0.190938 -3.66102 0
M  V30 6732 H 661.697 2.11464 -4.5639 0
M  V30 6733 H 661.397 0.877476 -5.81011 0
M  V30 6734 H 662.921 1.80965 -5.83167 0
M  V30 6735 H 664.335 -0.458763 -5.71462 0
M  V30 6736 H 662.732 -1.23398 -5.87276 0
M  V30 6737 H 663.802 -1.70412 -4.53969 0
M  V30 6738 N 665.145 1.52092 -0.413018 0
M  V30 6739 C 666.37 2.06756 0.163338 0
M  V30 6740 C 666.795 1.28073 1.37764 0
M  V30 6741 O 666.153 0.312015 1.78595 0
M  V30 6742 C 666.201 3.57278 0.488322 0
M  V30 6743 O 665.305 3.80986 1.57871 0
M  V30 6744 H 664.646 0.663882 0.0125068 0
M  V30 6745 H 667.176 1.95988 -0.587339 0
M  V30 6746 H 667.186 4.01125 0.745836 0
M  V30 6747 H 665.861 4.13978 -0.399327 0
M  V30 6748 H 664.438 3.49017 1.31306 0
M  V30 6749 N 666.623 0.143563 1.56945 0
M  V30 6750 C 667.553 -0.7936 2.196 0
M  V30 6751 C 668.534 -1.25955 1.14321 0
M  V30 6752 O 669.719 -1.31773 1.42651 0
M  V30 6753 C 666.849 -2.03424 2.81489 0
M  V30 6754 C 665.803 -1.70519 3.92565 0
M  V30 6755 C 665.129 -3.01817 4.41373 0
M  V30 6756 C 666.429 -0.95449 5.13504 0
M  V30 6757 H 668.123 -0.271423 2.98167 0
M  V30 6758 H 665.669 -0.12911 1.4342 0
M  V30 6759 H 667.622 -2.69463 3.23987 0
M  V30 6760 H 666.346 -2.58008 2.00248 0
M  V30 6761 H 665.005 -1.06859 3.5068 0
M  V30 6762 H 664.653 -3.54386 3.56959 0
M  V30 6763 H 664.353 -2.80565 5.16292 0
M  V30 6764 H 665.877 -3.68934 4.86539 0
M  V30 6765 H 667.291 -1.5169 5.52868 0
M  V30 6766 H 665.688 -0.842035 5.94163 0
M  V30 6767 H 666.758 0.0544033 4.84869 0
M  V30 6768 N 668.101 -1.57061 -0.130224 0
M  V30 6769 C 669.051 -1.95941 -1.16582 0
M  V30 6770 C 670.035 -0.832858 -1.37667 0
M  V30 6771 O 671.227 -1.09647 -1.38948 0
M  V30 6772 C 668.356 -2.35777 -2.49528 0
M  V30 6773 C 667.442 -3.5504 -2.31964 0
M  V30 6774 N 667.833 -4.71071 -1.84189 0
M  V30 6775 C 666.131 -3.60453 -2.62659 0
M  V30 6776 C 666.832 -5.53128 -1.80068 0
M  V30 6777 N 665.808 -4.95303 -2.24001 0
M  V30 6778 H 669.61 -2.83117 -0.788806 0
M  V30 6779 H 667.124 -1.58842 -0.3381 0
M  V30 6780 H 669.121 -2.61843 -3.24413 0
M  V30 6781 H 667.781 -1.49961 -2.87996 0
M  V30 6782 H 668.792 -4.94504 -1.53903 0
M  V30 6783 H 665.469 -2.85217 -3.0489 0
M  V30 6784 H 666.859 -6.56182 -1.4448 0
M  V30 6785 N 669.579 0.400081 -1.52437 0
M  V30 6786 C 670.995 0.739359 -1.41441 0
M  V30 6787 C 671.195 1.94512 -0.526053 0
M  V30 6788 O 670.251 2.525 0.00472502 0
M  V30 6789 C 671.564 0.984824 -2.84116 0
M  V30 6790 C 673.112 1.08698 -2.93519 0
M  V30 6791 C 673.587 1.36515 -4.37181 0
M  V30 6792 N 675.078 1.43361 -4.40457 0
M  V30 6793 C 675.813 1.66528 -5.48686 0
M  V30 6794 N 675.309 1.87239 -6.67018 0
M  V30 6795 N 677.102 1.68617 -5.36213 0
M  V30 6796 H 669.253 -0.393484 -2.08723 0
M  V30 6797 H 671.516 -0.1138 -0.941145 0
M  V30 6798 H 671.222 0.171096 -3.51284 0
M  V30 6799 H 671.096 1.90253 -3.25705 0
M  V30 6800 H 673.483 1.89129 -2.26526 0
M  V30 6801 H 673.564 0.147432 -2.55375 0
M  V30 6802 H 673.208 0.565982 -5.04737 0
M  V30 6803 H 673.138 2.31737 -4.7287 0
M  V30 6804 H 675.629 1.29108 -3.55161 0
M  V30 6805 H 675.942 2.04392 -7.45281 0
M  V30 6806 H 674.287 1.84486 -6.70067 0
M  V30 6807 H 677.478 1.5198 -4.42741 0
M  V30 6808 H 677.651 1.86332 -6.20632 0
M  V30 6809 N 671.057 1.43213 0.657864 0
M  V30 6810 C 672.468 1.39669 1.23893 0
M  V30 6811 C 672.819 0.0984217 1.95953 0
M  V30 6812 O 671.944 -0.8023 2.00978 0
M  V30 6813 C 672.539 2.53004 2.25332 0
M  V30 6814 C 671.098 2.5274 2.78926 0
M  V30 6815 C 670.245 2.30941 1.53497 0
M  V30 6816 H 673.196 1.52181 0.450172 0
M  V30 6817 H 673.217 2.24226 3.07413 0
M  V30 6818 H 672.729 3.4748 1.72856 0
M  V30 6819 H 670.83 1.6213 3.35477 0
M  V30 6820 H 670.943 3.50352 3.26787 0
M  V30 6821 H 669.307 1.7952 1.80678 0
M  V30 6822 H 670.09 3.27496 1.02963 0
M  V30 6823 N 672.536 -0.895792 1.29666 0
M  V30 6824 C 673.499 -1.98189 1.15124 0
M  V30 6825 C 674.499 -1.60572 0.0855717 0
M  V30 6826 O 675.689 -1.70991 0.332826 0
M  V30 6827 C 672.821 -3.32289 0.761372 0
M  V30 6828 H 674.014 -2.12518 2.11603 0
M  V30 6829 H 671.567 -1.0808 1.12908 0
M  V30 6830 H 672.302 -3.23662 -0.203393 0
M  V30 6831 H 672.087 -3.60958 1.53139 0
M  V30 6832 H 673.577 -4.1198 0.682792 0
M  V30 6833 N 674.014 -1.12206 -1.10668 0
M  V30 6834 C 674.944 -0.810086 -2.18997 0
M  V30 6835 C 675.925 0.225065 -1.68604 0
M  V30 6836 O 677.11 0.086783 -1.94006 0
M  V30 6837 C 674.24 -0.261262 -3.46316 0
M  V30 6838 C 673.194 -1.2292 -4.09969 0
M  V30 6839 C 672.52 -0.540713 -5.31959 0
M  V30 6840 C 673.82 -2.58295 -4.53962 0
M  V30 6841 H 675.514 -1.7159 -2.45352 0
M  V30 6842 H 673.06 -0.82646 -1.17922 0
M  V30 6843 H 675.013 -0.0307522 -4.21389 0
M  V30 6844 H 673.737 0.679879 -3.19445 0
M  V30 6845 H 672.396 -1.44548 -3.369 0
M  V30 6846 H 672.044 0.405492 -5.01363 0
M  V30 6847 H 671.744 -1.18637 -5.75499 0
M  V30 6848 H 673.268 -0.319184 -6.09765 0
M  V30 6849 H 674.682 -2.40709 -5.20319 0
M  V30 6850 H 673.079 -3.18916 -5.08343 0
M  V30 6851 H 674.149 -3.16918 -3.67002 0
M  V30 6852 N 675.492 1.28418 -0.913599 0
M  V30 6853 C 676.402 2.31043 -0.406965 0
M  V30 6854 C 677.418 1.66501 0.505298 0
M  V30 6855 O 678.594 1.97558 0.391522 0
M  V30 6856 C 675.659 3.4498 0.344901 0
M  V30 6857 C 674.72 4.25078 -0.600563 0
M  V30 6858 C 673.953 5.33575 0.115516 0
M  V30 6859 O 674.176 5.54503 1.33727 0
M  V30 6860 O 673.11 5.9939 -0.549095 0
M  V30 6861 H 676.936 2.76387 -1.25873 0
M  V30 6862 H 674.521 1.33109 -0.678415 0
M  V30 6863 H 676.403 4.14314 0.769542 0
M  V30 6864 H 675.078 3.01719 1.1725 0
M  V30 6865 H 673.985 3.58334 -1.0746 0
M  V30 6866 H 675.318 4.72018 -1.39497 0
M  V30 6867 N 676.97 0.677563 1.42291 0
M  V30 6868 C 678.247 0.129803 1.95169 0
M  V30 6869 C 678.627 -1.35605 1.61786 0
M  V30 6870 O 677.975 -2.09361 0.915444 0
M  V30 6871 C 678.185 0.401889 3.46678 0
M  V30 6872 C 679.533 0.319889 4.23393 0
M  V30 6873 O 680.557 0.33579 3.54614 0
M  V30 6874 O 679.416 0.264459 5.4586 0
M  V30 6875 H 676.51 0.00447433 0.826988 0
M  V30 6876 H 679.056 0.752483 1.52105 0
M  V30 6877 H 677.828 1.43108 3.64192 0
M  V30 6878 H 677.451 -0.252662 3.96796 0
M  V30 6879 N 678.448 -1.51871 0.421078 0
M  V30 6880 C 679.378 -2.30231 -0.389363 0
M  V30 6881 C 680.359 -1.34946 -1.03555 0
M  V30 6882 O 681.544 -1.63859 -1.04229 0
M  V30 6883 C 678.674 -3.13247 -1.49979 0
M  V30 6884 C 677.628 -4.16677 -0.977966 0
M  V30 6885 C 676.954 -4.88112 -2.1829 0
M  V30 6886 C 678.254 -5.22295 -0.0236775 0
M  V30 6887 H 679.948 -2.98229 0.264524 0
M  V30 6888 H 677.494 -1.43424 0.12866 0
M  V30 6889 H 679.447 -3.66838 -2.07383 0
M  V30 6890 H 678.171 -2.4304 -2.18173 0
M  V30 6891 H 676.83 -3.64114 -0.426245 0
M  V30 6892 H 676.478 -4.14423 -2.85066 0
M  V30 6893 H 676.178 -5.58041 -1.84021 0
M  V30 6894 H 677.702 -5.44521 -2.76278 0
M  V30 6895 H 679.116 -5.71055 -0.506899 0
M  V30 6896 H 677.513 -5.99656 0.230782 0
M  V30 6897 H 678.583 -4.76131 0.917999 0
M  V30 6898 N 679.926 -0.151884 -1.56866 0
M  V30 6899 C 680.856 0.781943 -2.20018 0
M  V30 6900 C 681.837 1.25347 -1.14987 0
M  V30 6901 O 683.022 1.31015 -1.43348 0
M  V30 6902 C 680.152 2.01928 -2.82564 0
M  V30 6903 C 679.106 1.68434 -3.93464 0
M  V30 6904 C 678.432 2.99472 -4.42968 0
M  V30 6905 C 679.732 0.927244 -5.14003 0
M  V30 6906 H 681.426 0.255607 -2.98307 0
M  V30 6907 H 678.972 0.121502 -1.43486 0
M  V30 6908 H 680.925 2.67741 -3.25411 0
M  V30 6909 H 679.649 2.56943 -2.01614 0
M  V30 6910 H 678.308 1.04998 -3.51242 0
M  V30 6911 H 677.956 3.52488 -3.58834 0
M  V30 6912 H 677.656 2.77823 -5.17772 0
M  V30 6913 H 679.18 3.66348 -4.88489 0
M  V30 6914 H 680.594 1.48756 -5.53665 0
M  V30 6915 H 678.991 0.810513 -5.94601 0
M  V30 6916 H 680.061 -0.0801163 -4.84834 0
M  V30 6917 N 681.404 1.57128 0.121893 0
M  V30 6918 C 682.334 2.03165 1.15092 0
M  V30 6919 C 683.315 0.915587 1.43356 0
M  V30 6920 O 684.5 1.1851 1.53847 0
M  V30 6921 C 681.63 2.43352 2.47784 0
M  V30 6922 C 680.584 3.58376 2.33989 0
M  V30 6923 C 679.91 3.84454 3.71617 0
M  V30 6924 C 681.21 4.90199 1.80283 0
M  V30 6925 H 682.904 2.89382 0.768023 0
M  V30 6926 H 680.45 1.39218 0.367998 0
M  V30 6927 H 682.403 2.74163 3.20019 0
M  V30 6928 H 681.127 1.54103 2.87958 0
M  V30 6929 H 679.786 3.2777 1.64202 0
M  V30 6930 H 679.434 2.92414 4.09271 0
M  V30 6931 H 679.134 4.61877 3.6324 0
M  V30 6932 H 680.658 4.17714 4.45362 0
M  V30 6933 H 682.072 5.19565 2.42333 0
M  V30 6934 H 680.469 5.71601 1.82735 0
M  V30 6935 H 681.539 4.78904 0.760184 0
M  V30 6936 N 682.882 -0.391992 1.52647 0
M  V30 6937 C 684.13 -1.13507 1.67214 0
M  V30 6938 C 684.451 -1.90575 0.41304 0
M  V30 6939 O 683.721 -1.87348 -0.572498 0
M  V30 6940 H 682.301 -0.422013 0.616372 0
M  V30 6941 H 684.963 -0.44502 1.89751 0
M  V30 6942 H 684.059 -1.83964 2.52118 0
M  V30 6943 N 684.36 -1.4356 -0.65026 0
M  V30 6944 C 685.585 -1.48995 -1.44275 0
M  V30 6945 C 686.01 -0.109954 -1.87778 0
M  V30 6946 O 685.368 0.896926 -1.57559 0
M  V30 6947 C 685.416 -2.44341 -2.65198 0
M  V30 6948 O 684.52 -1.93172 -3.6436 0
M  V30 6949 H 683.861 -0.503852 -0.432469 0
M  V30 6950 H 686.391 -1.88504 -0.795446 0
M  V30 6951 H 686.401 -2.61743 -3.12977 0
M  V30 6952 H 685.076 -3.44588 -2.32877 0
M  V30 6953 H 683.653 -1.85445 -3.23519 0
M  V30 6954 N 685.838 0.888903 -1.30139 0
M  V30 6955 C 686.748 2.02705 -1.18101 0
M  V30 6956 C 687.764 1.73702 -0.101809 0
M  V30 6957 O 688.94 1.98906 -0.315984 0
M  V30 6958 C 686.005 3.35616 -0.869651 0
M  V30 6959 C 685.066 3.78067 -2.03381 0
M  V30 6960 C 684.299 5.04635 -1.73721 0
M  V30 6961 O 684.522 5.66531 -0.663267 0
M  V30 6962 O 683.456 5.43399 -2.58845 0
M  V30 6963 H 687.282 2.15788 -2.13704 0
M  V30 6964 H 684.867 1.01426 -1.09695 0
M  V30 6965 H 686.749 4.15358 -0.711043 0
M  V30 6966 H 685.424 3.23651 0.0565002 0
M  V30 6967 H 684.331 2.99046 -2.24772 0
M  V30 6968 H 685.664 3.94631 -2.94155 0
M  V30 6969 N 687.317 1.12792 1.10072 0
M  V30 6970 C 688.28 0.802264 2.14701 0
M  V30 6971 C 689.28 -0.18515 1.59731 0
M  V30 6972 O 690.47 0.041109 1.74151 0
M  V30 6973 C 687.602 0.19285 3.40354 0
M  V30 6974 H 688.795 1.72932 2.45019 0
M  V30 6975 H 686.348 0.931662 1.25498 0
M  V30 6976 H 687.083 -0.743748 3.15656 0
M  V30 6977 H 686.868 0.903827 3.81541 0
M  V30 6978 H 688.358 -0.0183704 4.17596 0
M  V30 6979 N 688.795 -1.27931 0.920396 0
M  V30 6980 C 689.743 -2.29061 0.404191 0
M  V30 6981 C 690.737 -1.61615 -0.507634 0
M  V30 6982 O 691.943 -1.75765 -0.388144 0
M  V30 6983 H 688.318 -0.743594 0.112123 0
M  V30 6984 H 690.289 -2.70021 1.27008 0
M  V30 6985 C 689.038 -3.46088 -0.334466 0
M  V30 6986 H 688.361 -3.98194 0.35797 0
M  V30 6987 H 689.801 -4.18829 -0.660196 0
M  V30 6988 C 688.26 -2.99396 -1.54479 0
M  V30 6989 O 688.79 -3.02439 -2.64374 0
M  V30 6990 N 686.996 -2.54978 -1.39408 0
M  V30 6991 H 686.543 -2.52701 -0.500009 0
M  V30 6992 H 686.501 -2.24098 -2.20516 0
M  V30 6993 N 690.273 -0.685099 -1.4193 0
M  V30 6994 C 691.203 -0.0273506 -2.33484 0
M  V30 6995 C 692.184 0.778366 -1.51246 0
M  V30 6996 O 693.369 0.733449 -1.79817 0
M  V30 6997 C 690.499 0.917272 -3.34968 0
M  V30 6998 C 689.453 0.21941 -4.27437 0
M  V30 6999 C 688.779 1.27768 -5.1921 0
M  V30 7000 C 690.079 -0.907894 -5.14349 0
M  V30 7001 H 691.773 -0.791994 -2.88735 0
M  V30 7002 H 689.319 -0.382308 -1.38832 0
M  V30 7003 H 691.272 1.38657 -3.97935 0
M  V30 7004 H 689.996 1.71346 -2.78043 0
M  V30 7005 H 688.655 -0.229757 -3.65879 0
M  V30 7006 H 688.303 2.06612 -4.58607 0
M  V30 7007 H 688.003 0.815803 -5.81909 0
M  V30 7008 H 689.527 1.7477 -5.85054 0
M  V30 7009 H 690.941 -0.519348 -5.70943 0
M  V30 7010 H 689.338 -1.2962 -5.85934 0
M  V30 7011 H 690.408 -1.75218 -4.52136 0
M  V30 7012 N 691.751 1.51645 -0.429126 0
M  V30 7013 C 692.979 2.06433 0.138994 0
M  V30 7014 C 693.394 1.29735 1.37165 0
M  V30 7015 O 692.751 0.354638 1.79021 0
M  V30 7016 C 692.802 3.58439 0.469452 0
M  V30 7017 O 692.523 4.32238 -0.714273 0
M  V30 7018 C 694.024 4.29712 1.08914 0
M  V30 7019 H 691.244 0.6709 0.0115608 0
M  V30 7020 H 693.788 1.9532 -0.605843 0
M  V30 7021 H 691.943 3.69494 1.16419 0
M  V30 7022 H 692.357 5.22704 -0.433633 0
M  V30 7023 H 693.831 5.37182 1.27042 0
M  V30 7024 H 694.308 3.87473 2.06788 0
M  V30 7025 H 694.914 4.2308 0.434028 0
M  V30 7026 N 693.229 0.160201 1.56784 0
M  V30 7027 C 694.469 -0.490179 1.98435 0
M  V30 7028 C 694.833 -1.61164 1.04355 0
M  V30 7029 O 696.034 -2.3238 1.35103 0
M  V30 7030 C 694.305 -0.971106 3.43954 0
M  V30 7031 S 695.864 -1.62423 4.07632 0
M  V30 7032 H 692.682 -0.158056 0.693209 0
M  V30 7033 H 695.284 0.255036 1.93829 0
M  V30 7034 H 693.988 -0.144323 4.10146 0
M  V30 7035 H 693.519 -1.75063 3.52302 0
M  V30 7036 H 695.534 -2.91199 4.01768 0
M  V30 7037 N 694.707 -1.5719 -0.113559 0
M  V30 7038 C 695.935 -1.89328 -0.834422 0
M  V30 7039 C 696.35 -0.752018 -1.73177 0
M  V30 7040 O 695.707 0.276912 -1.80387 0
M  V30 7041 C 695.758 -3.20962 -1.66329 0
M  V30 7042 O 695.479 -4.30695 -0.802069 0
M  V30 7043 C 696.98 -3.6684 -2.48884 0
M  V30 7044 H 694.2 -0.626769 -0.239587 0
M  V30 7045 H 696.744 -2.04273 -0.0963195 0
M  V30 7046 H 694.899 -3.0767 -2.35409 0
M  V30 7047 H 695.313 -5.06175 -1.37431 0
M  V30 7048 H 696.787 -4.61692 -3.02563 0
M  V30 7049 H 697.264 -2.93765 -3.26495 0
M  V30 7050 H 697.87 -3.82938 -1.85036 0
M  V30 7051 N 696.185 0.383891 -1.52853 0
M  V30 7052 C 697.115 1.47559 -1.80965 0
M  V30 7053 C 698.096 1.5669 -0.661986 0
M  V30 7054 O 699.281 1.71556 -0.910072 0
M  V30 7055 C 696.411 2.85114 -1.98312 0
M  V30 7056 C 695.365 2.9082 -3.14019 0
M  V30 7057 C 694.691 4.30873 -3.16627 0
M  V30 7058 C 695.991 2.60001 -4.52986 0
M  V30 7059 H 697.685 1.24283 -2.72386 0
M  V30 7060 H 695.231 0.596445 -1.31067 0
M  V30 7061 H 697.184 3.61496 -2.16561 0
M  V30 7062 H 695.908 3.09738 -1.03585 0
M  V30 7063 H 694.567 2.16886 -2.9556 0
M  V30 7064 H 694.215 4.52545 -2.19573 0
M  V30 7065 H 693.915 4.3561 -3.94357 0
M  V30 7066 H 695.439 5.09154 -3.37038 0
M  V30 7067 H 696.853 3.261 -4.71521 0
M  V30 7068 H 695.25 2.76081 -5.32822 0
M  V30 7069 H 696.32 1.5532 -4.59351 0
M  V30 7070 N 697.663 1.43903 0.642637 0
M  V30 7071 C 698.891 1.4954 1.42988 0
M  V30 7072 C 699.306 0.116588 1.8844 0
M  V30 7073 O 698.663 -0.875285 1.60141 0
M  V30 7074 C 698.714 2.45031 2.65785 0
M  V30 7075 O 698.435 3.77551 2.22232 0
M  V30 7076 C 699.936 2.60017 3.59035 0
M  V30 7077 H 697.156 0.507544 0.438907 0
M  V30 7078 H 699.7 1.88752 0.786942 0
M  V30 7079 H 697.855 2.08985 3.26196 0
M  V30 7080 H 698.269 4.29001 3.01759 0
M  V30 7081 H 699.743 3.30887 4.41835 0
M  V30 7082 H 700.22 1.64861 4.07084 0
M  V30 7083 H 700.826 2.96918 3.045 0
M  V30 7084 N 699.141 -0.881989 1.30609 0
M  V30 7085 C 700.389 -1.63082 1.19368 0
M  V30 7086 C 700.71 -1.93376 -0.251147 0
M  V30 7087 O 699.98 -1.5723 -1.16857 0
M  V30 7088 H 698.56 -0.604542 0.438791 0
M  V30 7089 H 701.222 -1.05658 1.63776 0
M  V30 7090 H 700.318 -2.57966 1.7567 0
M  V30 7091 N 700.619 -1.13374 -1.09472 0
M  V30 7092 C 701.549 -0.833268 -2.18126 0
M  V30 7093 C 702.53 0.207169 -1.68834 0
M  V30 7094 O 703.715 0.0662012 -1.94087 0
M  V30 7095 C 700.845 -0.297979 -3.46019 0
M  V30 7096 C 699.799 -1.27261 -4.08642 0
M  V30 7097 C 699.125 -0.597104 -5.31356 0
M  V30 7098 C 700.425 -2.63095 -4.51197 0
M  V30 7099 H 702.119 -1.74182 -2.43518 0
M  V30 7100 H 699.665 -0.838921 -1.17039 0
M  V30 7101 H 701.618 -0.0754444 -4.21332 0
M  V30 7102 H 700.342 0.645959 -3.20148 0
M  V30 7103 H 699.001 -1.48113 -3.35348 0
M  V30 7104 H 698.649 0.352293 -5.01765 0
M  V30 7105 H 698.349 -1.24734 -5.74208 0
M  V30 7106 H 699.873 -0.38384 -6.09392 0
M  V30 7107 H 701.287 -2.46214 -5.17737 0
M  V30 7108 H 699.684 -3.2429 -5.04932 0
M  V30 7109 H 700.754 -3.20793 -3.6362 0
M  V30 7110 N 702.098 1.27442 -0.927168 0
M  V30 7111 C 703.514 1.46754 -0.627329 0
M  V30 7112 C 703.714 1.83902 0.823549 0
M  V30 7113 O 702.77 1.95215 1.60148 0
M  V30 7114 C 704.083 2.56045 -1.57674 0
M  V30 7115 C 705.631 2.69906 -1.58491 0
M  V30 7116 C 706.106 3.82355 -2.52128 0
M  V30 7117 N 707.597 3.89728 -2.50332 0
M  V30 7118 C 708.332 4.76155 -3.19475 0
M  V30 7119 N 707.828 5.67073 -3.97995 0
M  V30 7120 N 709.621 4.6988 -3.08496 0
M  V30 7121 H 701.772 1.01613 -1.86517 0
M  V30 7122 H 704.035 0.507443 -0.800753 0
M  V30 7123 H 703.741 2.35542 -2.61176 0
M  V30 7124 H 703.615 3.53423 -1.31804 0
M  V30 7125 H 706.002 2.89792 -0.557208 0
M  V30 7126 H 706.083 1.73018 -1.8841 0
M  V30 7127 H 705.727 3.63224 -3.55008 0
M  V30 7128 H 705.657 4.7867 -2.19505 0
M  V30 7129 H 708.148 3.24717 -1.93306 0
M  V30 7130 H 708.461 6.2988 -4.4774 0
M  V30 7131 H 706.806 5.6687 -4.02098 0
M  V30 7132 H 709.997 3.97848 -2.46646 0
M  V30 7133 H 710.17 5.37017 -3.62652 0
M  V30 7134 N 703.576 0.692616 1.41565 0
M  V30 7135 C 704.853 0.150496 1.9502 0
M  V30 7136 C 705.233 -1.33881 1.63215 0
M  V30 7137 O 704.581 -2.08378 0.937598 0
M  V30 7138 C 704.791 0.438636 3.46233 0
M  V30 7139 C 706.139 0.364777 4.2303 0
M  V30 7140 O 707.163 0.373383 3.54238 0
M  V30 7141 O 706.022 0.32234 5.45549 0
M  V30 7142 H 703.116 0.0132454 0.826894 0
M  V30 7143 H 705.662 0.768574 1.51298 0
M  V30 7144 H 704.434 1.46962 3.62654 0
M  V30 7145 H 704.057 -0.210562 3.97042 0
M  V30 7146 N 705.054 -1.51416 0.437162 0
M  V30 7147 C 706.017 -2.26312 -0.362729 0
M  V30 7148 C 707.017 -1.29748 -0.949847 0
M  V30 7149 O 708.207 -1.53462 -0.824325 0
M  V30 7150 C 705.339 -3.05475 -1.5132 0
M  V30 7151 H 706.532 -2.98459 0.29365 0
M  V30 7152 H 704.085 -1.55137 0.190327 0
M  V30 7153 H 704.82 -2.37744 -2.20563 0
M  V30 7154 H 704.605 -3.76401 -1.09838 0
M  V30 7155 H 706.095 -3.62209 -2.07833 0
M  V30 7156 N 706.532 -0.168513 -1.56696 0
M  V30 7157 C 707.757 0.486688 -2.01609 0
M  V30 7158 C 708.182 1.56203 -1.04796 0
M  V30 7159 O 707.54 1.8128 -0.0270596 0
M  V30 7160 C 707.588 1.04451 -3.45141 0
M  V30 7161 O 706.692 2.15862 -3.51393 0
M  V30 7162 H 706.033 0.116831 -0.653641 0
M  V30 7163 H 708.563 -0.271579 -2.0279 0
M  V30 7164 H 708.573 1.36782 -3.84389 0
M  V30 7165 H 707.248 0.257155 -4.15104 0
M  V30 7166 H 705.825 1.84597 -3.24004 0
M  V30 7167 N 708.01 1.57248 0.105221 0
M  V30 7168 C 709.258 1.85204 0.808951 0
M  V30 7169 C 709.579 0.75574 1.7976 0
M  V30 7170 O 708.849 -0.218984 1.94672 0
M  V30 7171 H 707.429 0.683346 0.301739 0
M  V30 7172 H 710.091 1.94695 0.0892605 0
M  V30 7173 H 709.187 2.81595 1.34575 0
M  V30 7174 N 709.488 -0.375779 1.53054 0
M  V30 7175 C 710.451 -1.44254 1.7811 0
M  V30 7176 C 711.451 -1.47018 0.651328 0
M  V30 7177 O 712.641 -1.47957 0.919472 0
M  V30 7178 C 709.773 -2.8345 1.89391 0
M  V30 7179 H 710.966 -1.23316 2.73374 0
M  V30 7180 H 708.519 -0.608312 1.43977 0
M  V30 7181 H 709.254 -3.09716 0.961589 0
M  V30 7182 H 709.039 -2.82844 2.71555 0
M  V30 7183 H 710.529 -3.60722 2.10404 0
M  V30 7184 N 710.966 -1.44241 -0.634997 0
M  V30 7185 C 712.194 -1.50296 -1.42193 0
M  V30 7186 C 712.609 -0.12658 -1.88375 0
M  V30 7187 O 711.966 0.86678 -1.60603 0
M  V30 7188 C 712.017 -2.46437 -2.64482 0
M  V30 7189 O 711.738 -3.78724 -2.20226 0
M  V30 7190 C 713.239 -2.61918 -3.57651 0
M  V30 7191 H 710.459 -0.509865 -0.43621 0
M  V30 7192 H 713.003 -1.89167 -0.776921 0
M  V30 7193 H 711.158 -2.10712 -3.25083 0
M  V30 7194 H 711.572 -4.30595 -2.9948 0
M  V30 7195 H 713.046 -3.33225 -4.40074 0
M  V30 7196 H 713.523 -1.67017 -4.06204 0
M  V30 7197 H 714.129 -2.98528 -3.02921 0
M  V30 7198 N 712.444 0.87505 -1.31075 0
M  V30 7199 C 713.691 1.62768 -1.20469 0
M  V30 7200 C 714.019 1.93034 0.23834 0
M  V30 7201 O 713.274 1.55693 1.18567 0
M  V30 7202 C 713.573 2.96948 -1.98888 0
M  V30 7203 C 713.239 2.86195 -3.4843 0
M  V30 7204 C 711.901 2.82969 -3.89207 0
M  V30 7205 C 714.253 2.73599 -4.43614 0
M  V30 7206 C 711.581 2.64999 -5.23443 0
M  V30 7207 C 713.933 2.57166 -5.77969 0
M  V30 7208 C 712.597 2.52321 -6.17973 0
M  V30 7209 H 711.867 0.595611 -0.440827 0
M  V30 7210 H 714.514 1.01665 -1.62285 0
M  V30 7211 H 712.819 3.62058 -1.49737 0
M  V30 7212 H 714.516 3.54164 -1.88067 0
M  V30 7213 H 711.106 2.8952 -3.16032 0
M  V30 7214 H 715.29 2.7515 -4.13045 0
M  V30 7215 H 710.546 2.5967 -5.53517 0
M  V30 7216 H 714.72 2.46396 -6.51354 0
M  V30 7217 H 712.347 2.38156 -7.21932 0
M  V30 7218 N 713.922 1.13953 1.08869 0
M  V30 7219 C 715.15 0.92817 1.84912 0
M  V30 7220 C 715.565 -0.523197 1.81406 0
M  V30 7221 O 714.922 -1.36237 1.21432 0
M  V30 7222 C 714.973 1.41509 3.32652 0
M  V30 7223 O 714.694 2.80959 3.36145 0
M  V30 7224 C 716.195 1.243 4.25517 0
M  V30 7225 H 713.415 0.330612 0.583898 0
M  V30 7226 H 715.959 1.51349 1.37527 0
M  V30 7227 H 714.114 0.872648 3.77444 0
M  V30 7228 H 714.528 3.02704 4.28335 0
M  V30 7229 H 716.002 1.63237 5.27312 0
M  V30 7230 H 716.479 0.18532 4.38809 0
M  V30 7231 H 717.085 1.77375 3.86546 0
M  V30 7232 N 715.4 -1.26948 0.933913 0
M  V30 7233 C 716.646 -1.94716 0.587985 0
M  V30 7234 C 717.001 -1.71994 -0.862312 0
M  V30 7235 O 716.294 -1.04208 -1.60783 0
M  V30 7236 C 716.488 -3.46963 0.857406 0
M  V30 7237 C 716.317 -3.84489 2.33234 0
M  V30 7238 C 715.087 -4.07621 2.98618 0
M  V30 7239 C 717.285 -3.93602 3.31031 0
M  V30 7240 N 715.267 -4.31976 4.362 0
M  V30 7241 C 716.638 -4.22404 4.53845 0
M  V30 7242 C 718.693 -3.76201 3.26155 0
M  V30 7243 C 717.396 -4.35615 5.72391 0
M  V30 7244 C 719.422 -3.90641 4.4402 0
M  V30 7245 C 718.784 -4.19835 5.65613 0
M  V30 7246 H 714.883 -0.735586 0.2654 0
M  V30 7247 H 717.467 -1.53181 1.20182 0
M  V30 7248 H 715.638 -3.87442 0.27268 0
M  V30 7249 H 717.37 -4.01921 0.47348 0
M  V30 7250 H 714.125 -4.02696 2.49264 0
M  V30 7251 H 714.549 -4.48199 5.07392 0
M  V30 7252 H 719.191 -3.52665 2.3321 0
M  V30 7253 H 716.909 -4.57975 6.65796 0
M  V30 7254 H 720.495 -3.78589 4.41771 0
M  V30 7255 H 719.375 -4.30765 6.55295 0
M  V30 7256 N 716.879 -0.700114 -1.41195 0
M  V30 7257 C 718.107 -0.242179 -2.05478 0
M  V30 7258 C 718.522 1.11029 -1.52702 0
M  V30 7259 O 717.879 1.69473 -0.677127 0
M  V30 7260 C 717.93 -0.196271 -3.60967 0
M  V30 7261 O 717.651 -1.49532 -4.11791 0
M  V30 7262 C 719.152 0.282102 -4.42401 0
M  V30 7263 H 716.372 -0.111749 -0.661629 0
M  V30 7264 H 718.916 -0.953975 -1.80885 0
M  V30 7265 H 717.071 0.46638 -3.84582 0
M  V30 7266 H 717.485 -1.38545 -5.05871 0
M  V30 7267 H 718.959 0.263093 -5.51373 0
M  V30 7268 H 719.436 1.32174 -4.1884 0
M  V30 7269 H 720.042 -0.349712 -4.2386 0
M  V30 7270 N 718.357 1.51182 -0.445186 0
M  V30 7271 C 719.768 1.86693 0.0160999 0
M  V30 7272 C 720.119 1.36183 1.4124 0
M  V30 7273 O 719.244 0.715895 2.04215 0
M  V30 7274 C 719.839 3.38781 0.0359918 0
M  V30 7275 C 718.398 3.73799 0.441715 0
M  V30 7276 C 717.545 2.74947 -0.360511 0
M  V30 7277 H 720.496 1.44294 -0.660674 0
M  V30 7278 H 720.517 3.71026 0.843813 0
M  V30 7279 H 720.029 3.75513 -0.980378 0
M  V30 7280 H 718.13 3.42659 1.4634 0
M  V30 7281 H 718.243 4.78829 0.16106 0
M  V30 7282 H 716.607 2.54047 0.182269 0
M  V30 7283 H 717.39 3.14521 -1.3759 0
M  V30 7284 N 719.835 0.176821 1.56605 0
M  V30 7285 C 721.06 -0.47599 2.01864 0
M  V30 7286 C 721.485 -1.55645 1.05623 0
M  V30 7287 O 720.843 -1.81263 0.0366729 0
M  V30 7288 C 720.891 -1.02619 3.4569 0
M  V30 7289 O 719.995 -2.13996 3.52533 0
M  V30 7290 H 719.336 -0.113363 0.654251 0
M  V30 7291 H 721.866 0.28233 2.02643 0
M  V30 7292 H 721.876 -1.34742 3.85109 0
M  V30 7293 H 720.551 -0.235138 4.15235 0
M  V30 7294 H 719.128 -1.82876 3.24978 0
M  V30 7295 N 721.313 -1.57302 -0.09688 0
M  V30 7296 C 722.538 -1.9058 -0.818169 0
M  V30 7297 C 722.963 -0.770921 -1.71576 0
M  V30 7298 O 722.321 0.277588 -1.79162 0
M  V30 7299 C 722.369 -3.22714 -1.60898 0
M  V30 7300 O 721.473 -3.10178 -2.71779 0
M  V30 7301 H 720.814 -0.624759 -0.224882 0
M  V30 7302 H 723.344 -2.04471 -0.07264 0
M  V30 7303 H 723.354 -3.55978 -1.99358 0
M  V30 7304 H 722.029 -4.04899 -0.950227 0
M  V30 7305 H 720.606 -2.88424 -2.3636 0
M  V30 7306 N 722.791 0.367657 -1.53252 0
M  V30 7307 C 724.039 1.10832 -1.68999 0
M  V30 7308 C 724.36 1.89894 -0.443306 0
M  V30 7309 O 723.63 1.88235 0.54262 0
M  V30 7310 H 722.21 0.412153 -0.623008 0
M  V30 7311 H 724.872 0.414775 -1.90435 0
M  V30 7312 H 723.968 1.7993 -2.55013 0
M  V30 7313 N 724.269 1.44576 0.627338 0
M  V30 7314 C 725.216 1.51734 1.73912 0
M  V30 7315 C 726.186 0.364745 1.62046 0
M  V30 7316 O 727.371 0.575503 1.81914 0
M  V30 7317 C 724.511 1.47116 3.12171 0
M  V30 7318 C 723.624 2.72778 3.34986 0
M  V30 7319 C 722.759 2.59968 4.63239 0
M  V30 7320 C 721.798 3.80776 4.79245 0
M  V30 7321 N 720.935 3.66618 5.98778 0
M  V30 7322 H 725.775 2.46722 1.6713 0
M  V30 7323 H 723.312 1.22444 0.815224 0
M  V30 7324 H 725.27 1.42429 3.92135 0
M  V30 7325 H 723.9 0.556928 3.17959 0
M  V30 7326 H 722.952 2.87637 2.48936 0
M  V30 7327 H 724.264 3.62441 3.42692 0
M  V30 7328 H 723.418 2.53135 5.51369 0
M  V30 7329 H 722.157 1.67872 4.57898 0
M  V30 7330 H 721.162 3.87989 3.89544 0
M  V30 7331 H 722.387 4.73913 4.86398 0
M  V30 7332 H 720.333 2.77277 5.9452 0
M  V30 7333 H 720.25 4.499 6.07557 0
M  V30 7334 H 721.518 3.63684 6.89459 0
M  V30 7335 N 725.747 -0.868086 1.31537 0
M  V30 7336 C 726.972 -1.65926 1.24432 0
M  V30 7337 C 727.397 -1.87169 -0.186936 0
M  V30 7338 O 726.755 -1.4148 -1.13371 0
M  V30 7339 C 726.803 -3.00347 1.9956 0
M  V30 7340 O 725.907 -3.90221 1.33422 0
M  V30 7341 H 725.248 -0.506375 0.429512 0
M  V30 7342 H 727.778 -1.0822 1.73637 0
M  V30 7343 H 727.788 -3.50269 2.09226 0
M  V30 7344 H 726.463 -2.84205 3.03645 0
M  V30 7345 H 725.04 -3.48672 1.32219 0
M  V30 7346 N 727.225 -1.14528 -1.08264 0
M  V30 7347 C 728.188 -0.83632 -2.13397 0
M  V30 7348 C 729.188 0.159715 -1.60005 0
M  V30 7349 O 730.378 -0.0688098 -1.74064 0
M  V30 7350 C 727.51 -0.246973 -3.40004 0
M  V30 7351 H 728.703 -1.76808 -2.42237 0
M  V30 7352 H 726.256 -0.951509 -1.24 0
M  V30 7353 H 726.991 0.693436 -3.168 0
M  V30 7354 H 726.776 -0.964412 -3.80055 0
M  V30 7355 H 728.266 -0.0480679 -4.17572 0
M  V30 7356 N 728.703 1.26451 -0.940633 0
M  V30 7357 C 729.949 1.94065 -0.58878 0
M  V30 7358 C 730.282 1.7363 0.869853 0
M  V30 7359 O 729.557 1.073 1.62225 0
M  V30 7360 C 729.84 3.47852 -0.931199 0
M  V30 7361 C 729.693 3.77575 -2.44453 0
M  V30 7362 C 731.012 4.37832 -0.446229 0
M  V30 7363 H 728.131 0.704827 -0.21538 0
M  V30 7364 H 730.773 1.4933 -1.17475 0
M  V30 7365 H 728.923 3.86085 -0.432539 0
M  V30 7366 H 730.595 3.49059 -3.01588 0
M  V30 7367 H 728.838 3.23671 -2.88825 0
M  V30 7368 H 729.509 4.85068 -2.63464 0
M  V30 7369 H 731.985 4.06822 -0.873778 0
M  V30 7370 H 730.861 5.44228 -0.714648 0
M  V30 7371 H 731.122 4.37239 0.653815 0
M  V30 7372 N 730.181 0.707592 1.40822 0
M  V30 7373 C 731.113 0.0105968 2.29198 0
M  V30 7374 C 732.126 -0.732035 1.45414 0
M  V30 7375 O 733.315 -0.580741 1.68789 0
M  V30 7376 C 730.415 -1.00921 3.23525 0
M  V30 7377 C 729.588 -0.333747 4.36125 0
M  V30 7378 C 728.647 -1.25783 5.10945 0
M  V30 7379 O 727.673 -0.745646 5.64295 0
M  V30 7380 N 728.875 -2.58947 5.19545 0
M  V30 7381 H 731.64 0.76938 2.89656 0
M  V30 7382 H 729.201 0.554579 1.52105 0
M  V30 7383 H 731.193 -1.6294 3.70449 0
M  V30 7384 H 729.763 -1.66942 2.6429 0
M  V30 7385 H 728.983 0.466518 3.9143 0
M  V30 7386 H 730.271 0.135444 5.0862 0
M  V30 7387 H 729.669 -3.03065 4.7767 0
M  V30 7388 H 728.226 -3.16131 5.70004 0
M  V30 7389 N 731.66 -1.50943 0.453197 0
M  V30 7390 C 732.908 -2.01813 -0.107709 0
M  V30 7391 C 733.229 -1.33841 -1.41816 0
M  V30 7392 O 732.499 -0.477973 -1.8998 0
M  V30 7393 H 731.079 -0.745773 -0.0427948 0
M  V30 7394 H 733.741 -1.8545 0.599531 0
M  V30 7395 H 732.837 -3.10911 -0.27218 0
M  V30 7396 N 733.138 -0.185124 -1.56509 0
M  V30 7397 C 734.549 0.329221 -1.83774 0
M  V30 7398 C 734.9 1.62093 -1.10545 0
M  V30 7399 O 734.025 2.13334 -0.36298 0
M  V30 7400 C 734.62 0.604099 -3.33371 0
M  V30 7401 C 733.179 1.06284 -3.61083 0
M  V30 7402 C 732.326 0.10608 -2.77097 0
M  V30 7403 H 735.277 -0.409116 -1.53336 0
M  V30 7404 H 735.298 1.45458 -3.51599 0
M  V30 7405 H 734.81 -0.336201 -3.86641 0
M  V30 7406 H 732.911 2.01777 -3.13236 0
M  V30 7407 H 733.024 0.962453 -4.69333 0
M  V30 7408 H 731.388 0.606082 -2.47384 0
M  V30 7409 H 732.171 -0.828486 -3.33153 0
M  V30 7410 N 734.616 1.57351 0.0885366 0
M  V30 7411 C 736.027 1.75303 0.642308 0
M  V30 7412 C 736.378 0.808238 1.78779 0
M  V30 7413 O 735.503 -0.01171 2.16397 0
M  V30 7414 C 736.098 3.17885 1.17194 0
M  V30 7415 C 734.657 3.37239 1.67172 0
M  V30 7416 C 733.804 2.7108 0.584045 0
M  V30 7417 H 736.755 1.58103 -0.137567 0
M  V30 7418 H 736.776 3.2112 2.04114 0
M  V30 7419 H 736.288 3.86625 0.338024 0
M  V30 7420 H 734.389 2.73588 2.52943 0
M  V30 7421 H 734.502 4.45594 1.76019 0
M  V30 7422 H 732.866 2.33161 1.02508 0
M  V30 7423 H 733.649 3.42464 -0.239403 0
M  V30 7424 N 736.094 -0.359525 1.53444 0
M  V30 7425 C 737.004 -1.46445 1.83278 0
M  V30 7426 C 738.02 -1.5833 0.721629 0
M  V30 7427 O 739.196 -1.7411 1.01231 0
M  V30 7428 C 736.261 -2.81638 2.02191 0
M  V30 7429 C 735.322 -2.7923 3.26082 0
M  V30 7430 C 734.555 -4.07974 3.44082 0
M  V30 7431 O 734.778 -5.04447 2.66251 0
M  V30 7432 O 733.712 -4.13417 4.37458 0
M  V30 7433 H 737.538 -1.24156 2.77162 0
M  V30 7434 H 735.123 -0.550201 1.389 0
M  V30 7435 H 737.005 -3.61732 2.16167 0
M  V30 7436 H 735.68 -3.03892 1.11496 0
M  V30 7437 H 734.587 -1.97813 3.17523 0
M  V30 7438 H 735.92 -2.6193 4.16718 0
M  V30 7439 N 737.572 -1.44907 -0.619662 0
M  V30 7440 C 738.988 -1.29046 -0.939107 0
M  V30 7441 C 739.188 -0.23462 -2.00129 0
M  V30 7442 O 738.244 0.37558 -2.49691 0
M  V30 7443 C 739.557 -2.66567 -1.39149 0
M  V30 7444 C 741.105 -2.74368 -1.50635 0
M  V30 7445 C 741.58 -4.12386 -1.99253 0
M  V30 7446 N 743.071 -4.1462 -2.06506 0
M  V30 7447 C 743.806 -5.18272 -2.4532 0
M  V30 7448 N 743.302 -6.32278 -2.83189 0
M  V30 7449 N 745.095 -5.05628 -2.45554 0
M  V30 7450 H 737.246 -2.12239 0.0826135 0
M  V30 7451 H 739.509 -0.947652 -0.0256829 0
M  V30 7452 H 739.215 -3.4496 -0.685254 0
M  V30 7453 H 739.089 -2.94224 -2.36034 0
M  V30 7454 H 741.476 -1.96287 -2.20353 0
M  V30 7455 H 741.557 -2.50439 -0.520963 0
M  V30 7456 H 741.201 -4.90947 -1.30127 0
M  V30 7457 H 741.131 -4.33699 -2.98684 0
M  V30 7458 H 743.622 -3.32343 -1.79878 0
M  V30 7459 H 743.935 -7.07172 -3.11652 0
M  V30 7460 H 742.28 -6.35699 -2.80913 0
M  V30 7461 H 745.471 -4.15613 -2.15367 0
M  V30 7462 H 745.644 -5.86529 -2.75478 0
M  V30 7463 N 739.05 0.861098 -1.31996 0
M  V30 7464 C 740.327 1.59788 -1.12814 0
M  V30 7465 C 740.707 2.08753 0.313882 0
M  V30 7466 O 740.055 1.87258 1.30946 0
M  V30 7467 C 740.265 2.74901 -2.15012 0
M  V30 7468 C 741.613 3.44643 -2.48004 0
M  V30 7469 O 742.637 2.85119 -2.13508 0
M  V30 7470 O 741.496 4.52044 -3.07113 0
M  V30 7471 H 738.59 0.703408 -0.434909 0
M  V30 7472 H 741.136 0.905788 -1.43505 0
M  V30 7473 H 739.908 2.36198 -3.11971 0
M  V30 7474 H 739.531 3.51792 -1.85279 0
M  V30 7475 N 740.528 1.15101 1.07655 0
M  V30 7476 C 741.458 0.867864 2.16773 0
M  V30 7477 C 742.439 -0.180283 1.69142 0
M  V30 7478 O 743.624 -0.0353152 1.94168 0
M  V30 7479 C 740.754 0.35299 3.45501 0
M  V30 7480 C 739.708 1.33746 4.06566 0
M  V30 7481 C 739.034 0.681562 5.30338 0
M  V30 7482 C 740.334 2.7024 4.46954 0
M  V30 7483 H 742.028 1.78034 2.40716 0
M  V30 7484 H 739.574 0.857435 1.15689 0
M  V30 7485 H 741.527 0.142465 4.21159 0
M  V30 7486 H 740.251 -0.594945 3.21135 0
M  V30 7487 H 738.91 1.53429 3.32949 0
M  V30 7488 H 738.558 -0.272422 5.02262 0
M  V30 7489 H 738.258 1.33853 5.72151 0
M  V30 7490 H 739.782 0.48074 6.08705 0
M  V30 7491 H 741.196 2.5442 5.13754 0
M  V30 7492 H 739.593 3.32282 4.99709 0
M  V30 7493 H 740.663 3.26537 3.58471 0
M  V30 7494 N 742.006 -1.2595 0.947325 0
M  V30 7495 C 743.246 -1.95218 0.605743 0
M  V30 7496 C 743.61 -1.72624 -0.84054 0
M  V30 7497 O 744.811 -2.35748 -1.29136 0
M  V30 7498 C 743.082 -3.44654 0.94596 0
M  V30 7499 S 744.641 -4.32922 0.715849 0
M  V30 7500 H 741.459 -0.675159 0.222894 0
M  V30 7501 H 744.061 -1.52766 1.21995 0
M  V30 7502 H 742.765 -3.586 1.99585 0
M  V30 7503 H 742.296 -3.92082 0.321718 0
M  V30 7504 H 744.311 -4.94445 -0.416959 0
M  V30 7505 N 743.484 -0.715051 -1.40445 0
M  V30 7506 C 744.732 -0.253826 -2.005 0
M  V30 7507 C 745.053 1.15681 -1.5698 0
M  V30 7508 O 744.323 1.78414 -0.809027 0
M  V30 7509 H 742.903 -0.0908537 -0.741454 0
M  V30 7510 H 745.565 -0.920561 -1.7179 0
M  V30 7511 H 744.661 -0.286499 -3.10782 0
M  V30 7512 N 744.962 1.50701 -0.461195 0
M  V30 7513 C 746.202 2.04174 0.0960673 0
M  V30 7514 C 746.566 1.33628 1.37868 0
M  V30 7515 O 747.767 1.77602 2.0177 0
M  V30 7516 C 746.038 3.56256 0.285676 0
M  V30 7517 S 747.597 4.31392 0.802917 0
M  V30 7518 H 744.415 0.710701 0.0206282 0
M  V30 7519 H 747.017 1.85204 -0.62607 0
M  V30 7520 H 745.721 4.05159 -0.653773 0
M  V30 7521 H 745.252 3.79562 1.03421 0
M  V30 7522 H 747.267 4.50611 2.07761 0
M  V30 7523 N 746.441 0.193421 1.56409 0
M  V30 7524 C 747.671 -0.450783 2.01622 0
M  V30 7525 C 748.079 -1.5585 1.07273 0
M  V30 7526 O 747.422 -1.83569 0.0694875 0
M  V30 7527 C 747.484 -1.06913 3.43235 0
M  V30 7528 C 747.148 -0.100352 4.5689 0
M  V30 7529 C 748.145 0.689633 5.15306 0
M  V30 7530 C 745.83 0.0102436 5.02299 0
M  V30 7531 C 747.824 1.5772 6.17579 0
M  V30 7532 C 745.511 0.901368 6.04416 0
M  V30 7533 C 746.509 1.68341 6.61929 0
M  V30 7534 O 746.197 2.5596 7.62063 0
M  V30 7535 H 745.929 -0.117671 0.66568 0
M  V30 7536 H 748.483 0.2989 2.03214 0
M  V30 7537 H 746.713 -1.86736 3.38624 0
M  V30 7538 H 748.402 -1.61781 3.72266 0
M  V30 7539 H 749.168 0.614485 4.81092 0
M  V30 7540 H 745.047 -0.58829 4.57231 0
M  V30 7541 H 748.591 2.18805 6.62397 0
M  V30 7542 H 744.488 0.977637 6.38054 0
M  V30 7543 H 745.256 2.49721 7.79475 0
M  V30 7544 N 747.919 -1.57396 -0.0801906 0
M  V30 7545 C 749.144 -1.91437 -0.797909 0
M  V30 7546 C 749.569 -0.789075 -1.70749 0
M  V30 7547 O 748.927 0.25857 -1.79447 0
M  V30 7548 C 748.975 -3.24402 -1.57467 0
M  V30 7549 O 748.079 -3.13043 -2.68473 0
M  V30 7550 H 747.42 -0.627109 -0.218243 0
M  V30 7551 H 749.95 -2.04537 -0.050949 0
M  V30 7552 H 749.96 -3.58072 -1.95571 0
M  V30 7553 H 748.635 -4.05884 -0.907229 0
M  V30 7554 H 747.212 -2.90915 -2.33287 0
M  V30 7555 N 749.397 0.351382 -1.53633 0
M  V30 7556 C 750.643 1.09411 -1.70754 0
M  V30 7557 C 750.976 1.88544 -0.465293 0
M  V30 7558 O 750.251 1.86923 0.537608 0
M  V30 7559 C 750.534 2.04173 -2.96623 0
M  V30 7560 C 750.387 1.28556 -4.31038 0
M  V30 7561 C 751.706 3.04102 -3.18136 0
M  V30 7562 H 748.825 0.396373 -0.621335 0
M  V30 7563 H 751.467 0.373464 -1.86293 0
M  V30 7564 H 749.617 2.65625 -2.83506 0
M  V30 7565 H 751.289 0.697786 -4.55992 0
M  V30 7566 H 749.532 0.587498 -4.29803 0
M  V30 7567 H 750.203 1.97989 -5.15271 0
M  V30 7568 H 752.679 2.5276 -3.30532 0
M  V30 7569 H 751.555 3.67616 -4.07615 0
M  V30 7570 H 751.816 3.75053 -2.34068 0
M  V30 7571 N 750.875 1.45233 0.611969 0
M  V30 7572 C 752.1 1.52767 1.40274 0
M  V30 7573 C 752.525 0.159701 1.87421 0
M  V30 7574 O 751.883 -0.854837 1.59882 0
M  V30 7575 C 751.931 2.51286 2.58626 0
M  V30 7576 O 751.035 2.02764 3.59111 0
M  V30 7577 H 750.376 0.515141 0.418958 0
M  V30 7578 H 752.906 1.90547 0.745188 0
M  V30 7579 H 752.916 2.69949 3.05927 0
M  V30 7580 H 751.591 3.50641 2.23659 0
M  V30 7581 H 750.168 1.93957 3.18489 0
M  V30 7582 N 752.353 -0.854086 1.3245 0
M  V30 7583 C 753.578 -1.64597 1.26185 0
M  V30 7584 C 754.003 -1.87357 -0.167074 0
M  V30 7585 O 753.361 -1.42675 -1.11864 0
M  V30 7586 C 753.409 -2.98213 2.02734 0
M  V30 7587 O 752.513 -3.88784 1.37554 0
M  V30 7588 H 751.854 -0.50179 0.434859 0
M  V30 7589 H 754.384 -1.06372 1.74775 0
M  V30 7590 H 754.394 -3.4803 2.1293 0
M  V30 7591 H 753.069 -2.80969 3.06642 0
M  V30 7592 H 751.646 -3.4725 1.3591 0
M  V30 7593 N 753.831 -1.1567 -1.07043 0
M  V30 7594 C 755.077 -0.9349 -1.79965 0
M  V30 7595 C 755.41 0.536464 -1.86643 0
M  V30 7596 O 754.685 1.39781 -1.35247 0
M  V30 7597 C 754.968 -1.55371 -3.24857 0
M  V30 7598 C 754.821 -3.09589 -3.26305 0
M  V30 7599 C 756.14 -1.24209 -4.22209 0
M  V30 7600 H 753.259 -0.341061 -0.653335 0
M  V30 7601 H 755.901 -1.42883 -1.25237 0
M  V30 7602 H 754.051 -1.13368 -3.71591 0
M  V30 7603 H 755.723 -3.60521 -2.87789 0
M  V30 7604 H 753.966 -3.43315 -2.65174 0
M  V30 7605 H 754.637 -3.48002 -4.28484 0
M  V30 7606 H 757.113 -1.60548 -3.8388 0
M  V30 7607 H 755.989 -1.70119 -5.21872 0
M  V30 7608 H 756.25 -0.15964 -4.41812 0
M  V30 7609 N 755.309 1.25446 -0.953992 0
M  V30 7610 C 756.239 2.28264 -0.491717 0
M  V30 7611 C 757.22 1.63717 0.461617 0
M  V30 7612 O 758.405 1.90821 0.36071 0
M  V30 7613 C 755.535 3.46525 0.231915 0
M  V30 7614 C 754.489 4.23247 -0.636098 0
M  V30 7615 C 753.815 5.34254 0.218238 0
M  V30 7616 C 755.115 4.85971 -1.91389 0
M  V30 7617 H 756.809 2.67183 -1.35106 0
M  V30 7618 H 754.355 1.2844 -0.651095 0
M  V30 7619 H 756.308 4.17576 0.566439 0
M  V30 7620 H 755.032 3.06594 1.12551 0
M  V30 7621 H 753.691 3.53978 -0.953696 0
M  V30 7622 H 753.339 4.90564 1.11156 0
M  V30 7623 H 753.039 5.86501 -0.359232 0
M  V30 7624 H 754.563 6.08138 0.547743 0
M  V30 7625 H 755.977 5.49168 -1.64581 0
M  V30 7626 H 754.374 5.48391 -2.43696 0
M  V30 7627 H 755.444 4.08192 -2.61738 0
M  V30 7628 N 756.787 0.722489 1.40064 0
M  V30 7629 C 758.198 0.336507 1.83642 0
M  V30 7630 C 758.549 -1.13002 1.6039 0
M  V30 7631 O 757.674 -1.87036 1.08842 0
M  V30 7632 C 758.269 0.603985 3.33373 0
M  V30 7633 C 756.828 0.271637 3.75419 0
M  V30 7634 C 755.975 0.872898 2.63203 0
M  V30 7635 H 758.926 0.921108 1.29233 0
M  V30 7636 H 758.947 -0.128471 3.80283 0
M  V30 7637 H 758.459 1.67141 3.50265 0
M  V30 7638 H 756.56 -0.790455 3.64119 0
M  V30 7639 H 756.673 0.745457 4.73265 0
M  V30 7640 H 755.037 0.300431 2.52922 0
M  V30 7641 H 755.82 1.94473 2.82905 0
M  V30 7642 N 758.265 -1.50454 0.469181 0
M  V30 7643 C 759.513 -2.01916 -0.0862982 0
M  V30 7644 C 759.834 -1.35337 -1.40388 0
M  V30 7645 O 759.104 -0.498096 -1.89462 0
M  V30 7646 H 757.684 -0.746185 -0.0348825 0
M  V30 7647 H 760.346 -1.84804 0.619167 0
M  V30 7648 H 759.442 -3.11182 -0.239189 0
M  V30 7649 N 759.743 -0.201713 -1.56304 0
M  V30 7650 C 760.983 0.437395 -1.99665 0
M  V30 7651 C 761.347 1.58341 -1.08592 0
M  V30 7652 O 762.548 2.28716 -1.41217 0
M  V30 7653 C 760.819 0.879572 -3.46408 0
M  V30 7654 S 762.378 1.51558 -4.11795 0
M  V30 7655 H 759.196 0.139621 -0.697156 0
M  V30 7656 H 761.798 -0.306337 -1.93085 0
M  V30 7657 H 760.502 0.0355295 -4.10385 0
M  V30 7658 H 760.033 1.65661 -3.56819 0
M  V30 7659 H 762.048 2.80445 -4.09347 0
M  V30 7660 N 761.222 1.57436 0.0718424 0
M  V30 7661 C 762.185 2.02703 1.06977 0
M  V30 7662 C 763.185 0.924062 1.31597 0
M  V30 7663 O 764.375 1.18894 1.27318 0
M  V30 7664 C 761.507 2.40763 2.41342 0
M  V30 7665 H 762.7 2.92098 0.679619 0
M  V30 7666 H 760.253 1.5304 0.317565 0
M  V30 7667 H 760.988 1.54394 2.8519 0
M  V30 7668 H 760.773 3.21249 2.24814 0
M  V30 7669 H 762.263 2.76361 3.13073 0
M  V30 7670 N 762.7 -0.34323 1.53817 0
M  V30 7671 C 763.632 -1.44216 1.78141 0
M  V30 7672 C 764.645 -1.48701 0.662721 0
M  V30 7673 O 765.834 -1.51778 0.939458 0
M  V30 7674 C 762.934 -2.82872 1.86646 0
M  V30 7675 C 762.107 -3.01824 3.16577 0
M  V30 7676 C 761.166 -4.20723 3.16036 0
M  V30 7677 O 760.192 -4.14824 3.89756 0
M  V30 7678 N 761.394 -5.29276 2.38427 0
M  V30 7679 H 764.159 -1.23721 2.72971 0
M  V30 7680 H 761.72 -0.53311 1.52871 0
M  V30 7681 H 763.712 -3.60588 1.83735 0
M  V30 7682 H 762.282 -2.96509 0.990014 0
M  V30 7683 H 761.502 -2.11575 3.3261 0
M  V30 7684 H 762.79 -3.11369 4.02402 0
M  V30 7685 H 762.188 -5.36938 1.78085 0
M  V30 7686 H 760.745 -6.05484 2.41313 0
M  V30 7687 N 764.178 -1.45556 -0.604258 0
M  V30 7688 C 765.589 -1.44171 -1.18624 0
M  V30 7689 C 765.94 -0.171081 -1.95453 0
M  V30 7690 O 765.065 0.727156 -2.03817 0
M  V30 7691 C 765.66 -2.61193 -2.15786 0
M  V30 7692 C 764.219 -2.62918 -2.69353 0
M  V30 7693 C 763.366 -2.36479 -1.4482 0
M  V30 7694 H 766.317 -1.53747 -0.393381 0
M  V30 7695 H 766.338 -2.35481 -2.98879 0
M  V30 7696 H 765.85 -3.53656 -1.59841 0
M  V30 7697 H 763.951 -1.7447 -3.29228 0
M  V30 7698 H 764.064 -3.6224 -3.13559 0
M  V30 7699 H 762.428 -1.86103 -1.73891 0
M  V30 7700 H 763.211 -3.31091 -0.907376 0
M  V30 7701 N 765.656 0.84705 -1.32902 0
M  V30 7702 C 766.902 1.60389 -1.25088 0
M  V30 7703 C 767.257 1.91521 0.183723 0
M  V30 7704 O 766.55 1.55197 1.12359 0
M  V30 7705 C 766.744 2.92663 -2.05142 0
M  V30 7706 C 766.573 2.74449 -3.56241 0
M  V30 7707 C 765.343 2.72434 -4.25567 0
M  V30 7708 C 767.541 2.47666 -4.5074 0
M  V30 7709 N 765.523 2.45512 -5.62669 0
M  V30 7710 C 766.894 2.30219 -5.75673 0
M  V30 7711 C 768.949 2.33196 -4.39914 0
M  V30 7712 C 767.652 1.99772 -6.91002 0
M  V30 7713 C 769.678 2.0414 -5.5505 0
M  V30 7714 C 769.04 1.875 -6.78987 0
M  V30 7715 H 765.139 0.590296 -0.512908 0
M  V30 7716 H 767.723 0.995058 -1.67352 0
M  V30 7717 H 765.894 3.51511 -1.65211 0
M  V30 7718 H 767.626 3.5777 -1.89163 0
M  V30 7719 H 764.381 2.85647 -3.7776 0
M  V30 7720 H 764.805 2.34958 -6.3492 0
M  V30 7721 H 769.447 2.44777 -3.44738 0
M  V30 7722 H 767.165 1.86928 -7.86183 0
M  V30 7723 H 770.751 1.93711 -5.48605 0
M  V30 7724 H 769.631 1.65339 -7.66572 0
M  V30 7725 N 767.134 1.16236 1.06428 0
M  V30 7726 C 768.082 0.863669 2.15971 0
M  V30 7727 C 769.076 -0.166723 1.68578 0
M  V30 7728 O 770.282 -0.0208425 1.79988 0
M  V30 7729 H 766.657 0.261684 0.705 0
M  V30 7730 H 768.628 1.79498 2.38376 0
M  V30 7731 C 767.377 0.379697 3.45621 0
M  V30 7732 H 766.7 1.16399 3.82481 0
M  V30 7733 H 768.14 0.209458 4.23482 0
M  V30 7734 C 766.599 -0.900499 3.24642 0
M  V30 7735 O 767.129 -1.97004 3.50074 0
M  V30 7736 N 765.335 -0.843721 2.78082 0
M  V30 7737 H 764.882 0.0268429 2.57586 0
M  V30 7738 H 764.84 -1.70078 2.64425 0
M  V30 7739 N 768.612 -1.24939 0.960631 0
M  V30 7740 C 769.562 -2.23388 0.456266 0
M  V30 7741 C 770.546 -1.54249 -0.45782 0
M  V30 7742 O 771.738 -1.7461 -0.289894 0
M  V30 7743 C 768.867 -3.42321 -0.259024 0
M  V30 7744 C 767.953 -4.18718 0.673478 0
M  V30 7745 N 768.344 -4.72394 1.8077 0
M  V30 7746 C 766.642 -4.43378 0.482859 0
M  V30 7747 C 767.343 -5.30316 2.3904 0
M  V30 7748 N 766.319 -5.17109 1.67629 0
M  V30 7749 H 770.121 -2.62499 1.32179 0
M  V30 7750 H 767.635 -1.40245 0.818851 0
M  V30 7751 H 769.632 -4.11997 -0.637527 0
M  V30 7752 H 768.292 -3.04732 -1.12108 0
M  V30 7753 H 769.303 -4.69345 2.18942 0
M  V30 7754 H 765.98 -4.16147 -0.335821 0
M  V30 7755 H 767.37 -5.82594 3.34715 0
M  V30 7756 N 770.09 -0.729906 -1.39679 0
M  V30 7757 C 771.338 -0.275077 -2.00219 0
M  V30 7758 C 771.659 1.1401 -1.58199 0
M  V30 7759 O 770.929 1.77546 -0.827904 0
M  V30 7760 H 769.509 -0.0987127 -0.740449 0
M  V30 7761 H 772.171 -0.93873 -1.70804 0
M  V30 7762 H 771.267 -0.319446 -3.10461 0
M  V30 7763 N 771.568 1.50203 -0.477153 0
M  V30 7764 C 772.478 2.32421 0.319027 0
M  V30 7765 C 773.494 1.43075 0.990233 0
M  V30 7766 O 774.67 1.76123 0.976873 0
M  V30 7767 C 771.735 3.17909 1.38328 0
M  V30 7768 C 770.796 4.23082 0.728036 0
M  V30 7769 C 770.029 5.04484 1.74158 0
M  V30 7770 O 770.252 4.8705 2.96881 0
M  V30 7771 O 769.186 5.8747 1.31006 0
M  V30 7772 H 773.012 3.01638 -0.353281 0
M  V30 7773 H 770.597 1.47478 -0.238891 0
M  V30 7774 H 772.479 3.70937 1.9996 0
M  V30 7775 H 771.154 2.51413 2.03895 0
M  V30 7776 H 770.061 3.7403 0.07261 0
M  V30 7777 H 771.394 4.92065 0.115216 0
M  V30 7778 N 773.046 0.209999 1.56195 0
M  V30 7779 C 774.274 -0.429996 2.02382 0
M  V30 7780 C 774.689 -1.54159 1.08998 0
M  V30 7781 O 774.046 -1.82239 0.0974856 0
M  V30 7782 C 774.097 -0.972433 3.48175 0
M  V30 7783 O 773.818 0.0948231 4.37997 0
M  V30 7784 C 775.319 -1.68683 4.09952 0
M  V30 7785 H 772.539 -0.106475 0.662498 0
M  V30 7786 H 775.083 0.323072 2.01932 0
M  V30 7787 H 773.238 -1.67582 3.49278 0
M  V30 7788 H 773.652 -0.31113 5.23576 0
M  V30 7789 H 775.126 -2.01851 5.13771 0
M  V30 7790 H 775.603 -2.59587 3.54276 0
M  V30 7791 H 776.209 -1.02893 4.12666 0
M  V30 7792 N 774.524 -1.57472 -0.0634922 0
M  V30 7793 C 775.771 -1.87654 -0.761066 0
M  V30 7794 C 776.099 -0.802847 -1.77157 0
M  V30 7795 O 775.354 0.200244 -1.94673 0
M  V30 7796 C 775.653 -3.24521 -1.49736 0
M  V30 7797 C 775.319 -4.46532 -0.626065 0
M  V30 7798 C 773.981 -4.7965 -0.385978 0
M  V30 7799 C 776.333 -5.21195 -0.0224001 0
M  V30 7800 C 773.661 -5.84837 0.467118 0
M  V30 7801 C 776.013 -6.27286 0.818198 0
M  V30 7802 C 774.677 -6.58899 1.06808 0
M  V30 7803 H 773.947 -0.686675 -0.278494 0
M  V30 7804 H 776.594 -1.91488 -0.0216348 0
M  V30 7805 H 774.899 -3.16516 -2.30921 0
M  V30 7806 H 776.596 -3.45111 -2.04204 0
M  V30 7807 H 773.186 -4.20618 -0.823325 0
M  V30 7808 H 777.37 -4.95917 -0.194985 0
M  V30 7809 H 772.626 -6.07725 0.669375 0
M  V30 7810 H 776.8 -6.84298 1.29265 0
M  V30 7811 H 774.427 -7.40233 1.73088 0
M  V30 7812 N 776.003 0.335068 -1.53997 0
M  V30 7813 C 777.231 1.09418 -1.756 0
M  V30 7814 C 777.646 1.82083 -0.499138 0
M  V30 7815 O 777.003 1.74646 0.529631 0
M  V30 7816 C 777.054 2.10115 -2.94166 0
M  V30 7817 O 776.775 1.40404 -4.14992 0
M  V30 7818 C 778.276 2.98336 -3.27888 0
M  V30 7819 H 775.496 0.32595 -0.586513 0
M  V30 7820 H 778.04 0.384693 -2.00849 0
M  V30 7821 H 776.195 2.76616 -2.71224 0
M  V30 7822 H 776.609 2.07743 -4.81605 0
M  V30 7823 H 778.083 3.6491 -4.1418 0
M  V30 7824 H 778.56 3.64814 -2.44556 0
M  V30 7825 H 779.166 2.37412 -3.52868 0
M  V30 7826 N 777.481 1.45874 0.596531 0
M  V30 7827 C 778.721 1.52015 1.36641 0
M  V30 7828 C 779.085 0.16226 1.91313 0
M  V30 7829 O 780.286 0.0983889 2.6862 0
M  V30 7830 C 778.557 2.57776 2.4756 0
M  V30 7831 S 780.116 2.83223 3.35157 0
M  V30 7832 H 776.934 0.537251 0.465706 0
M  V30 7833 H 779.536 1.83024 0.687205 0
M  V30 7834 H 778.24 3.55091 2.05764 0
M  V30 7835 H 777.771 2.28455 3.20269 0
M  V30 7836 H 779.786 2.17442 4.4602 0
M  V30 7837 N 778.959 -0.83999 1.33349 0
M  V30 7838 C 780.187 -1.62728 1.27778 0
M  V30 7839 C 780.602 -1.88191 -0.151505 0
M  V30 7840 O 779.959 -1.46128 -1.09329 0
M  V30 7841 C 780.01 -2.97813 2.04913 0
M  V30 7842 O 779.731 -2.73469 3.42266 0
M  V30 7843 C 781.232 -3.92245 2.0654 0
M  V30 7844 H 778.452 -0.506374 0.440257 0
M  V30 7845 H 780.996 -1.04637 1.75703 0
M  V30 7846 H 779.151 -3.52509 1.60674 0
M  V30 7847 H 779.565 -3.59483 3.81932 0
M  V30 7848 H 781.039 -4.84249 2.64966 0
M  V30 7849 H 781.516 -4.26332 1.05537 0
M  V30 7850 H 782.122 -3.43487 2.50793 0
M  V30 7851 N 780.437 -1.16799 -1.0581 0
M  V30 7852 C 781.4 -0.881396 -2.11575 0
M  V30 7853 C 782.4 0.12574 -1.60308 0
M  V30 7854 O 783.59 -0.105716 -1.73879 0
M  V30 7855 C 780.722 -0.319037 -3.39404 0
M  V30 7856 H 781.915 -1.81907 -2.38432 0
M  V30 7857 H 779.468 -0.977597 -1.21954 0
M  V30 7858 H 780.203 0.626082 -3.18199 0
M  V30 7859 H 779.988 -1.04481 -3.77923 0
M  V30 7860 H 781.478 -0.13663 -4.17376 0
M  V30 7861 N 781.915 1.24427 -0.967243 0
M  V30 7862 C 782.878 2.23637 -0.501927 0
M  V30 7863 C 783.878 1.55712 0.401283 0
M  V30 7864 O 785.068 1.73085 0.196808 0
M  V30 7865 C 782.2 3.39804 0.273176 0
M  V30 7866 H 783.393 2.66317 -1.37897 0
M  V30 7867 H 780.946 1.37033 -0.751783 0
M  V30 7868 H 781.681 3.02562 1.16733 0
M  V30 7869 H 781.466 3.90303 -0.37498 0
M  V30 7870 H 782.956 4.13443 0.587776 0
M  V30 7871 N 783.393 0.737304 1.3929 0
M  V30 7872 C 784.343 0.0748537 2.27877 0
M  V30 7873 C 785.327 -0.71022 1.44377 0
M  V30 7874 O 786.519 -0.578851 1.67267 0
M  V30 7875 C 783.648 -0.82991 3.33118 0
M  V30 7876 C 782.734 -0.0388619 4.24082 0
M  V30 7877 N 783.125 0.989182 4.96033 0
M  V30 7878 C 781.423 -0.268167 4.45193 0
M  V30 7879 C 782.124 1.46639 5.62914 0
M  V30 7880 N 781.1 0.784581 5.37908 0
M  V30 7881 H 784.902 0.862457 2.80961 0
M  V30 7882 H 782.416 0.571845 1.51999 0
M  V30 7883 H 784.413 -1.31999 3.95452 0
M  V30 7884 H 783.073 -1.61665 2.81593 0
M  V30 7885 H 784.084 1.3706 4.99435 0
M  V30 7886 H 780.761 -1.02953 4.04607 0
M  V30 7887 H 782.151 2.32182 6.30508 0
M  V30 7888 N 784.871 -1.49948 0.485112 0
M  V30 7889 C 786.282 -1.8667 0.0334041 0
M  V30 7890 C 786.633 -1.3988 -1.37579 0
M  V30 7891 O 785.758 -0.769788 -2.02245 0
M  V30 7892 C 786.353 -3.38757 0.0538426 0
M  V30 7893 C 784.912 -3.74839 -0.342453 0
M  V30 7894 C 784.059 -2.73894 0.433281 0
M  V30 7895 H 787.01 -1.42492 0.698699 0
M  V30 7896 H 787.031 -3.73132 -0.745146 0
M  V30 7897 H 786.543 -3.72782 1.07959 0
M  V30 7898 H 784.644 -3.46419 -1.37203 0
M  V30 7899 H 784.757 -4.79088 -0.0340503 0
M  V30 7900 H 783.121 -2.54441 -0.114849 0
M  V30 7901 H 783.904 -3.10763 1.45881 0
M  V30 7902 N 786.349 -0.21828 -1.56081 0
M  V30 7903 C 787.259 0.704602 -2.23769 0
M  V30 7904 C 788.275 1.21633 -1.24425 0
M  V30 7905 O 789.451 1.25862 -1.57228 0
M  V30 7906 C 786.516 1.89725 -2.90182 0
M  V30 7907 C 785.577 1.42782 -4.0486 0
M  V30 7908 C 784.81 2.56361 -4.68097 0
M  V30 7909 O 785.033 3.74417 -4.30312 0
M  V30 7910 O 783.967 2.2775 -5.57148 0
M  V30 7911 H 787.793 0.158007 -3.03289 0
M  V30 7912 H 785.378 0.0120279 -1.49395 0
M  V30 7913 H 787.26 2.59382 -3.32113 0
M  V30 7914 H 785.935 2.432 -2.13624 0
M  V30 7915 H 784.842 0.699359 -3.67505 0
M  V30 7916 H 786.175 0.939474 -4.83151 0
M  V30 7917 N 787.827 1.57504 0.0551401 0
M  V30 7918 C 788.757 2.07864 1.06372 0
M  V30 7919 C 789.738 0.975565 1.39344 0
M  V30 7920 O 790.923 1.24929 1.48682 0
M  V30 7921 C 788.053 2.53643 2.3724 0
M  V30 7922 C 787.007 3.67978 2.18578 0
M  V30 7923 C 786.333 3.9987 3.54976 0
M  V30 7924 C 787.633 4.97405 1.59329 0
M  V30 7925 H 789.327 2.92379 0.644595 0
M  V30 7926 H 786.873 1.40654 0.308619 0
M  V30 7927 H 788.826 2.8749 3.08103 0
M  V30 7928 H 787.55 1.66177 2.81163 0
M  V30 7929 H 786.209 3.3444 1.50152 0
M  V30 7930 H 785.857 3.0951 3.965 0
M  V30 7931 H 785.557 4.76867 3.43324 0
M  V30 7932 H 787.081 4.36228 4.27244 0
M  V30 7933 H 788.495 5.29375 2.20078 0
M  V30 7934 H 786.892 5.78837 1.58327 0
M  V30 7935 H 787.962 4.81697 0.55638 0
M  V30 7936 N 789.305 -0.326896 1.54172 0
M  V30 7937 C 790.252 -1.40216 1.83325 0
M  V30 7938 C 791.222 -1.51538 0.680107 0
M  V30 7939 O 792.407 -1.66811 0.926206 0
M  V30 7940 C 789.547 -2.76626 2.0633 0
M  V30 7941 C 788.66 -2.73963 3.34019 0
M  V30 7942 C 787.795 -4.02198 3.47002 0
M  V30 7943 C 786.834 -3.93828 4.68578 0
M  V30 7944 N 785.971 -5.13787 4.78506 0
M  V30 7945 H 790.811 -1.14656 2.7506 0
M  V30 7946 H 788.348 -0.555089 1.36225 0
M  V30 7947 H 790.306 -3.55922 2.17659 0
M  V30 7948 H 788.936 -3.00503 1.1789 0
M  V30 7949 H 787.988 -1.86677 3.31445 0
M  V30 7950 H 789.3 -2.6366 4.2342 0
M  V30 7951 H 788.454 -4.89923 3.57855 0
M  V30 7952 H 787.193 -4.15302 2.55687 0
M  V30 7953 H 786.198 -3.04487 4.57786 0
M  V30 7954 H 787.423 -3.82292 5.61275 0
M  V30 7955 H 785.369 -5.27403 3.90105 0
M  V30 7956 H 785.286 -5.05807 5.61868 0
M  V30 7957 H 786.554 -6.03236 4.93686 0
M  V30 7958 N 790.784 -1.46188 -0.588786 0
M  V30 7959 C 792.012 -1.54743 -1.37339 0
M  V30 7960 C 792.427 -0.186446 -1.87877 0
M  V30 7961 O 791.784 0.815247 -1.63279 0
M  V30 7962 C 791.835 -2.54727 -2.56508 0
M  V30 7963 O 791.556 -3.85539 -2.08066 0
M  V30 7964 C 793.057 -2.73163 -3.49137 0
M  V30 7965 H 790.277 -0.523484 -0.419768 0
M  V30 7966 H 792.821 -1.91543 -0.716345 0
M  V30 7967 H 790.976 -2.20948 -3.18215 0
M  V30 7968 H 791.39 -4.39905 -2.85629 0
M  V30 7969 H 792.864 -3.47057 -4.2925 0
M  V30 7970 H 793.341 -1.79856 -4.00685 0
M  V30 7971 H 793.947 -3.08014 -2.9327 0
M  V30 7972 N 792.262 0.832906 -1.33792 0
M  V30 7973 C 793.673 1.40489 -1.22963 0
M  V30 7974 C 794.024 1.95633 0.149026 0
M  V30 7975 O 793.149 1.8928 1.04891 0
M  V30 7976 C 793.744 2.55387 -2.22627 0
M  V30 7977 C 792.303 3.08522 -2.15618 0
M  V30 7978 C 791.45 1.81347 -2.09782 0
M  V30 7979 H 794.401 0.638156 -1.45304 0
M  V30 7980 H 794.422 3.33193 -1.83746 0
M  V30 7981 H 793.934 2.15222 -3.22957 0
M  V30 7982 H 792.035 3.53217 -1.18611 0
M  V30 7983 H 792.148 3.6829 -3.0643 0
M  V30 7984 H 790.512 2.01839 -1.55349 0
M  V30 7985 H 791.295 1.43369 -3.1193 0
M  V30 7986 N 793.74 1.17359 1.05189 0
M  V30 7987 C 794.67 0.91365 2.14883 0
M  V30 7988 C 795.651 -0.144365 1.69486 0
M  V30 7989 O 796.836 0.00587861 1.94199 0
M  V30 7990 C 793.966 0.426196 3.44675 0
M  V30 7991 C 792.92 1.4234 4.03638 0
M  V30 7992 C 792.246 0.793902 5.28773 0
M  V30 7993 C 793.546 2.7966 4.41121 0
M  V30 7994 H 795.24 1.831 2.36885 0
M  V30 7995 H 792.786 0.881781 1.13845 0
M  V30 7996 H 794.739 0.231767 4.20762 0
M  V30 7997 H 793.463 -0.526693 3.22325 0
M  V30 7998 H 792.122 1.60457 3.2962 0
M  V30 7999 H 791.77 -0.165824 5.02727 0
M  V30 8000 H 791.47 1.45959 5.69183 0
M  V30 8001 H 792.994 0.609747 6.07548 0
M  V30 8002 H 794.408 2.6526 5.08242 0
M  V30 8003 H 792.805 3.42807 4.92548 0
M  V30 8004 H 793.875 3.34068 3.51464 0
M  V30 8005 N 795.218 -1.23913 0.973828 0
M  V30 8006 C 796.446 -1.96195 0.656891 0
M  V30 8007 C 796.861 -1.72166 -0.774876 0
M  V30 8008 O 796.218 -1.0091 -1.52064 0
M  V30 8009 C 796.269 -3.49342 0.929638 0
M  V30 8010 O 795.99 -3.72553 2.30512 0
M  V30 8011 C 797.491 -4.38833 0.627739 0
M  V30 8012 H 794.711 -0.624841 0.244572 0
M  V30 8013 H 797.255 -1.57579 1.30343 0
M  V30 8014 H 795.41 -3.85999 0.329216 0
M  V30 8015 H 795.824 -4.66893 2.3898 0
M  V30 8016 H 797.298 -5.45117 0.868991 0
M  V30 8017 H 797.775 -4.37009 -0.438104 0
M  V30 8018 H 798.381 -4.07773 1.20834 0
M  V30 8019 N 796.696 -0.74468 -1.38897 0
M  V30 8020 C 797.659 -0.11945 -2.28889 0
M  V30 8021 C 798.659 0.656942 -1.46768 0
M  V30 8022 O 799.849 0.484525 -1.67326 0
M  V30 8023 C 796.981 0.839635 -3.30398 0
M  V30 8024 H 798.174 -0.912414 -2.85683 0
M  V30 8025 H 795.727 -0.511119 -1.47707 0
M  V30 8026 H 796.462 1.6586 -2.78677 0
M  V30 8027 H 796.247 0.285432 -3.9106 0
M  V30 8028 H 797.737 1.27337 -3.97712 0
M  V30 8029 N 798.174 1.49689 -0.493057 0
M  V30 8030 C 799.122 2.30613 0.303383 0
M  V30 8031 C 800.116 1.38867 0.970165 0
M  V30 8032 O 801.322 1.55956 0.898761 0
M  V30 8033 H 797.697 0.742891 0.116691 0
M  V30 8034 H 799.668 2.95717 -0.39924 0
M  V30 8035 C 798.417 3.20008 1.35978 0
M  V30 8036 H 797.74 3.90526 0.856103 0
M  V30 8037 H 799.18 3.79586 1.88919 0
M  V30 8038 C 797.639 2.39079 2.37367 0
M  V30 8039 O 798.169 2.08933 3.43089 0
M  V30 8040 N 796.375 2.0125 2.09635 0
M  V30 8041 H 795.922 2.25966 1.23682 0
M  V30 8042 H 795.88 1.47408 2.77702 0
M  V30 8043 N 799.652 0.226554 1.55963 0
M  V30 8044 C 800.901 -0.40417 1.97609 0
M  V30 8045 C 801.214 -1.60541 1.1174 0
M  V30 8046 O 802.42 -2.30598 1.43307 0
M  V30 8047 C 800.876 -0.770466 3.51556 0
M  V30 8048 C 800.484 0.408244 4.46136 0
M  V30 8049 C 802.228 -1.36651 4.01904 0
M  V30 8050 C 800.135 0.0192347 5.91397 0
M  V30 8051 H 799.065 -0.15478 0.737943 0
M  V30 8052 H 801.716 0.323558 1.80625 0
M  V30 8053 H 800.098 -1.55575 3.6416 0
M  V30 8054 H 801.272 1.18575 4.45283 0
M  V30 8055 H 799.587 0.917859 4.06158 0
M  V30 8056 H 802.184 -1.67055 5.07934 0
M  V30 8057 H 802.527 -2.28403 3.48049 0
M  V30 8058 H 803.06 -0.644556 3.92543 0
M  V30 8059 H 799.799 0.90336 6.49245 0
M  V30 8060 H 799.319 -0.722485 5.95433 0
M  V30 8061 H 800.998 -0.405711 6.45727 0
M  V30 8062 N 801.13 -1.57531 -0.0467866 0
M  V30 8063 C 802.358 -1.92696 -0.753371 0
M  V30 8064 C 802.773 -0.824792 -1.69831 0
M  V30 8065 O 802.13 0.200155 -1.81399 0
M  V30 8066 C 802.181 -3.27728 -1.52566 0
M  V30 8067 O 801.902 -4.3371 -0.618674 0
M  V30 8068 C 803.403 -3.77066 -2.33101 0
M  V30 8069 H 800.623 -0.636367 -0.212788 0
M  V30 8070 H 803.167 -2.04498 -0.00959361 0
M  V30 8071 H 801.322 -3.17378 -2.22148 0
M  V30 8072 H 801.736 -5.11548 -1.15839 0
M  V30 8073 H 803.21 -4.74109 -2.82709 0
M  V30 8074 H 803.687 -3.07348 -3.13741 0
M  V30 8075 H 804.293 -3.90442 -1.68628 0
M  V30 8076 N 802.608 0.318715 -1.54344 0
M  V30 8077 C 803.555 1.39242 -1.84066 0
M  V30 8078 C 804.525 1.51175 -0.688134 0
M  V30 8079 O 805.71 1.66318 -0.935039 0
M  V30 8080 C 802.85 2.75528 -2.07794 0
M  V30 8081 C 801.963 2.72187 -3.35467 0
M  V30 8082 C 801.098 4.00352 -3.4913 0
M  V30 8083 C 800.137 3.91338 -4.7066 0
M  V30 8084 N 799.274 5.11242 -4.81224 0
M  V30 8085 H 804.114 1.13196 -2.75664 0
M  V30 8086 H 801.651 0.547857 -1.36517 0
M  V30 8087 H 803.609 3.54763 -2.19543 0
M  V30 8088 H 802.239 2.99873 -1.19482 0
M  V30 8089 H 801.291 1.84917 -3.3243 0
M  V30 8090 H 802.603 2.61411 -4.24812 0
M  V30 8091 H 801.757 4.88019 -3.60448 0
M  V30 8092 H 800.496 4.1394 -2.57886 0
M  V30 8093 H 799.501 3.02055 -4.59394 0
M  V30 8094 H 800.726 3.7931 -5.63294 0
M  V30 8095 H 798.672 5.25327 -3.92897 0
M  V30 8096 H 798.589 5.0282 -5.64543 0
M  V30 8097 H 799.857 6.0061 -4.96879 0
M  V30 8098 N 804.086 1.46499 0.581025 0
M  V30 8099 C 805.311 1.55708 1.37002 0
M  V30 8100 C 805.736 0.19942 1.8704 0
M  V30 8101 O 805.094 -0.820731 1.61659 0
M  V30 8102 C 805.142 2.56716 2.53238 0
M  V30 8103 O 804.246 2.10336 3.54729 0
M  V30 8104 H 803.587 0.523912 0.407937 0
M  V30 8105 H 806.117 1.92085 0.704602 0
M  V30 8106 H 806.127 2.76378 3.00132 0
M  V30 8107 H 804.802 3.55307 2.16171 0
M  V30 8108 H 803.379 2.00669 3.14303 0
M  V30 8109 N 805.565 -0.825799 1.34232 0
M  V30 8110 C 806.813 -1.57873 1.26177 0
M  V30 8111 C 807.134 -1.94267 -0.168904 0
M  V30 8112 O 806.404 -1.62045 -1.10084 0
M  V30 8113 H 804.984 -0.585388 0.464037 0
M  V30 8114 H 807.646 -0.986163 1.6811 0
M  V30 8115 H 806.742 -2.50283 1.86453 0
M  V30 8116 N 807.043 -1.17915 -1.04565 0
M  V30 8117 C 807.991 -0.897919 -2.1457 0
M  V30 8118 C 808.985 0.139883 -1.68821 0
M  V30 8119 O 810.191 -0.00779463 -1.79998 0
M  V30 8120 H 806.566 -0.272867 -0.700748 0
M  V30 8121 H 808.537 -1.83268 -2.3549 0
M  V30 8122 C 807.286 -0.434634 -3.44973 0
M  V30 8123 H 806.609 -1.22469 -3.8058 0
M  V30 8124 H 808.049 -0.276804 -4.23095 0
M  V30 8125 C 806.508 0.848738 -3.26034 0
M  V30 8126 O 807.038 1.9141 -3.53164 0
M  V30 8127 N 805.244 0.799373 -2.79389 0
M  V30 8128 H 804.791 -0.0678192 -2.57511 0
M  V30 8129 H 804.749 1.6585 -2.67098 0
M  V30 8130 N 808.521 1.23394 -0.980386 0
M  V30 8131 C 809.749 1.95844 -0.667286 0
M  V30 8132 C 810.164 1.72574 0.765735 0
M  V30 8133 O 809.521 1.01715 1.51526 0
M  V30 8134 C 809.572 3.48844 -0.948151 0
M  V30 8135 O 809.293 3.71325 -2.32485 0
M  V30 8136 C 810.794 4.38494 -0.651002 0
M  V30 8137 H 808.014 0.623535 -0.247882 0
M  V30 8138 H 810.558 1.56885 -1.31176 0
M  V30 8139 H 808.713 3.85819 -0.349681 0
M  V30 8140 H 809.127 4.65619 -2.41452 0
M  V30 8141 H 810.601 5.44648 -0.897887 0
M  V30 8142 H 811.078 4.37236 0.414922 0
M  V30 8143 H 811.684 4.07127 -1.22995 0
M  V30 8144 N 809.999 0.752036 1.385 0
M  V30 8145 C 811.246 0.307503 2.00152 0
M  V30 8146 C 811.574 -1.11033 1.59693 0
M  V30 8147 O 810.829 -1.77455 0.825125 0
M  V30 8148 C 811.128 0.376155 3.55415 0
M  V30 8149 C 810.794 1.74942 4.15579 0
M  V30 8150 C 809.456 2.12525 4.31725 0
M  V30 8151 C 811.808 2.65031 4.48785 0
M  V30 8152 C 809.136 3.39671 4.78373 0
M  V30 8153 C 811.488 3.91567 4.96848 0
M  V30 8154 C 810.152 4.2922 5.11201 0
M  V30 8155 H 809.422 0.112523 0.732407 0
M  V30 8156 H 812.069 0.962213 1.65571 0
M  V30 8157 H 810.374 -0.362121 3.90123 0
M  V30 8158 H 812.071 0.0138065 4.00998 0
M  V30 8159 H 808.661 1.44726 4.03426 0
M  V30 8160 H 812.845 2.3726 4.35914 0
M  V30 8161 H 808.101 3.68765 4.8767 0
M  V30 8162 H 812.275 4.61517 5.21512 0
M  V30 8163 H 809.902 5.27805 5.47107 0
M  V30 8164 N 811.477 -1.49425 0.500989 0
M  V30 8165 C 812.893 -1.58826 0.156951 0
M  V30 8166 C 813.093 -1.50622 -1.33848 0
M  V30 8167 O 812.149 -1.38016 -2.11442 0
M  V30 8168 C 813.462 -2.91611 0.73374 0
M  V30 8169 C 815.01 -3.05076 0.699846 0
M  V30 8170 C 815.485 -4.40479 1.2547 0
M  V30 8171 N 816.976 -4.4697 1.2154 0
M  V30 8172 C 817.711 -5.50189 1.6149 0
M  V30 8173 N 817.207 -6.60512 2.09034 0
M  V30 8174 N 819 -5.40903 1.52907 0
M  V30 8175 H 811.151 -1.53001 1.47324 0
M  V30 8176 H 813.414 -0.724765 0.61108 0
M  V30 8177 H 813.12 -3.03182 1.78251 0
M  V30 8178 H 812.994 -3.767 0.19417 0
M  V30 8179 H 815.381 -2.93134 -0.340085 0
M  V30 8180 H 815.462 -2.2167 1.27656 0
M  V30 8181 H 815.106 -4.53172 2.29341 0
M  V30 8182 H 815.036 -5.22524 0.653921 0
M  V30 8183 H 817.527 -3.67819 0.867043 0
M  V30 8184 H 817.84 -7.35372 2.37588 0
M  V30 8185 H 816.185 -6.61553 2.13008 0
M  V30 8186 H 819.376 -4.53606 1.15583 0
M  V30 8187 H 819.549 -6.21219 1.84365 0
M  V30 8188 N 812.955 -0.234822 -1.55841 0
M  V30 8189 C 814.366 0.270588 -1.84729 0
M  V30 8190 C 814.717 1.58494 -1.15646 0
M  V30 8191 O 813.842 2.12071 -0.430667 0
M  V30 8192 C 814.437 0.497733 -3.35124 0
M  V30 8193 C 812.996 0.947428 -3.64281 0
M  V30 8194 C 812.143 0.01787 -2.77294 0
M  V30 8195 H 815.094 -0.457691 -1.51957 0
M  V30 8196 H 815.115 1.34199 -3.56049 0
M  V30 8197 H 814.627 -0.459037 -3.85376 0
M  V30 8198 H 812.728 1.91709 -3.19497 0
M  V30 8199 H 812.841 0.812651 -4.72158 0
M  V30 8200 H 811.205 0.527071 -2.49187 0
M  V30 8201 H 811.988 -0.934056 -3.30349 0
M  V30 8202 N 814.433 1.57553 0.0384317 0
M  V30 8203 C 815.343 2.09333 1.0591 0
M  V30 8204 C 816.359 1.0299 1.40247 0
M  V30 8205 O 817.535 1.34669 1.49754 0
M  V30 8206 C 814.6 2.55468 2.34386 0
M  V30 8207 C 813.661 3.76254 2.06716 0
M  V30 8208 C 812.894 4.20179 3.29067 0
M  V30 8209 O 813.117 3.637 4.39407 0
M  V30 8210 O 812.051 5.12697 3.15317 0
M  V30 8211 H 815.877 2.96683 0.649087 0
M  V30 8212 H 813.462 1.47211 0.254802 0
M  V30 8213 H 815.344 2.85514 3.09935 0
M  V30 8214 H 814.019 1.71234 2.74701 0
M  V30 8215 H 812.926 3.51241 1.28766 0
M  V30 8216 H 814.259 4.61443 1.71263 0
M  V30 8217 N 815.911 -0.310526 1.54511 0
M  V30 8218 C 817.157 -1.04846 1.73595 0
M  V30 8219 C 817.49 -1.87244 0.515118 0
M  V30 8220 O 816.765 -1.88282 -0.48786 0
M  V30 8221 C 817.048 -1.96237 3.01932 0
M  V30 8222 C 816.901 -1.17082 4.34295 0
M  V30 8223 C 818.22 -2.9556 3.26086 0
M  V30 8224 H 815.339 -0.37976 0.631626 0
M  V30 8225 H 817.981 -0.32394 1.87218 0
M  V30 8226 H 816.131 -2.58015 2.90449 0
M  V30 8227 H 817.803 -0.576643 4.57682 0
M  V30 8228 H 816.046 -0.473336 4.3121 0
M  V30 8229 H 816.717 -1.84257 5.20339 0
M  V30 8230 H 819.193 -2.43908 3.37117 0
M  V30 8231 H 818.069 -3.5668 4.17218 0
M  V30 8232 H 818.33 -3.68715 2.4393 0
M  V30 8233 N 817.389 -1.46805 -0.573248 0
M  V30 8234 C 818.339 -1.54497 -1.67674 0
M  V30 8235 C 819.323 -0.405117 -1.55716 0
M  V30 8236 O 820.515 -0.654097 -1.64471 0
M  V30 8237 C 817.644 -1.54717 -3.0646 0
M  V30 8238 C 816.73 -2.7403 -3.2368 0
M  V30 8239 N 817.121 -3.98871 -3.11023 0
M  V30 8240 C 815.419 -2.70453 -3.54642 0
M  V30 8241 C 816.12 -4.78689 -3.30502 0
M  V30 8242 N 815.096 -4.10727 -3.56096 0
M  V30 8243 H 818.898 -2.48809 -1.56433 0
M  V30 8244 H 816.412 -1.42576 -0.777554 0
M  V30 8245 H 818.409 -1.58316 -3.8567 0
M  V30 8246 H 817.069 -0.614886 -3.18825 0
M  V30 8247 H 818.08 -4.29976 -2.88688 0
M  V30 8248 H 814.757 -1.86291 -3.73633 0
M  V30 8249 H 816.147 -5.87615 -3.2582 0
M  V30 8250 N 818.867 0.818669 -1.34668 0
M  V30 8251 C 819.797 1.94468 -1.29245 0
M  V30 8252 C 820.778 1.69257 -0.169101 0
M  V30 8253 O 821.963 1.90794 -0.362143 0
M  V30 8254 C 819.093 3.31001 -1.05145 0
M  V30 8255 C 818.047 3.70663 -2.13992 0
M  V30 8256 C 817.373 5.05226 -1.75074 0
M  V30 8257 C 818.673 3.82312 -3.55858 0
M  V30 8258 H 820.367 1.99263 -2.2346 0
M  V30 8259 H 817.913 0.957304 -1.07572 0
M  V30 8260 H 819.866 4.09364 -0.999949 0
M  V30 8261 H 818.59 3.26517 -0.0737312 0
M  V30 8262 H 817.249 2.94578 -2.18219 0
M  V30 8263 H 816.897 4.97233 -0.759518 0
M  V30 8264 H 816.597 5.32734 -2.47928 0
M  V30 8265 H 818.121 5.86042 -1.71427 0
M  V30 8266 H 819.535 4.50935 -3.5402 0
M  V30 8267 H 817.932 4.21278 -4.2737 0
M  V30 8268 H 819.002 2.84193 -3.9289 0
M  V30 8269 N 820.346 1.18468 1.03938 0
M  V30 8270 C 821.276 0.936389 2.13902 0
M  V30 8271 C 822.257 -0.126381 1.6963 0
M  V30 8272 O 823.442 0.0264757 1.94182 0
M  V30 8273 C 820.572 0.462729 3.44204 0
M  V30 8274 C 819.526 1.46613 4.02105 0
M  V30 8275 C 818.852 0.84994 5.27902 0
M  V30 8276 C 820.152 2.84323 4.3813 0
M  V30 8277 H 821.846 1.85602 2.3493 0
M  V30 8278 H 819.392 0.893806 1.12903 0
M  V30 8279 H 821.345 0.276382 4.20493 0
M  V30 8280 H 820.069 -0.492477 3.22866 0
M  V30 8281 H 818.728 1.63944 3.27899 0
M  V30 8282 H 818.376 -0.112493 5.02874 0
M  V30 8283 H 818.076 1.51988 5.67603 0
M  V30 8284 H 819.6 0.674152 6.06867 0
M  V30 8285 H 821.014 2.70636 5.054 0
M  V30 8286 H 819.411 3.48012 4.88884 0
M  V30 8287 H 820.481 3.37776 3.47901 0
M  V30 8288 N 821.824 -1.22873 0.986916 0
M  V30 8289 C 823.235 -1.73264 0.695438 0
M  V30 8290 C 823.586 -1.79679 -0.788023 0
M  V30 8291 O 822.711 -1.43905 -1.61618 0
M  V30 8292 C 823.306 -3.14671 1.2557 0
M  V30 8293 C 821.865 -3.62492 1.01373 0
M  V30 8294 C 821.012 -2.40551 1.37951 0
M  V30 8295 H 823.963 -1.08304 1.15999 0
M  V30 8296 H 823.984 -3.75226 0.631322 0
M  V30 8297 H 823.496 -3.0997 2.33539 0
M  V30 8298 H 821.597 -3.72567 -0.0495917 0
M  V30 8299 H 821.71 -4.48944 1.67289 0
M  V30 8300 H 820.074 -2.41875 0.798033 0
M  V30 8301 H 820.857 -2.38516 2.46911 0
M  V30 8302 N 823.302 -0.75937 -1.38099 0
M  V30 8303 C 824.713 -0.385078 -1.82686 0
M  V30 8304 C 825.064 1.0871 -1.6333 0
M  V30 8305 O 824.189 1.84084 -1.13762 0
M  V30 8306 C 824.784 -0.692161 -3.31654 0
M  V30 8307 C 823.343 -0.371077 -3.74566 0
M  V30 8308 C 822.49 -0.942375 -2.60796 0
M  V30 8309 H 825.441 -0.955048 -1.26746 0
M  V30 8310 H 825.462 0.0276001 -3.8049 0
M  V30 8311 H 824.974 -1.76369 -3.4571 0
M  V30 8312 H 823.075 0.693637 -3.66087 0
M  V30 8313 H 823.188 -0.870672 -4.71122 0
M  V30 8314 H 821.552 -0.367383 -2.52036 0
M  V30 8315 H 822.335 -2.01905 -2.77649 0
M  V30 8316 N 824.78 1.49157 -0.508906 0
M  V30 8317 C 826.191 1.86593 -0.0630975 0
M  V30 8318 C 826.542 1.42051 1.35337 0
M  V30 8319 O 825.667 0.801866 2.00995 0
M  V30 8320 C 826.262 3.38629 -0.107729 0
M  V30 8321 C 824.821 3.75336 0.282776 0
M  V30 8322 C 823.968 2.7317 -0.4768 0
M  V30 8323 H 826.919 1.41362 -0.72128 0
M  V30 8324 H 826.94 3.74271 0.685689 0
M  V30 8325 H 826.452 3.71017 -1.13876 0
M  V30 8326 H 824.553 3.48558 1.31675 0
M  V30 8327 H 824.666 4.79081 -0.0421728 0
M  V30 8328 H 823.03 2.54591 0.0743552 0
M  V30 8329 H 823.813 3.08403 -1.50807 0
M  V30 8330 N 826.258 0.243083 1.55714 0
M  V30 8331 C 827.483 -0.389944 2.03701 0
M  V30 8332 C 827.908 -1.51025 1.12129 0
M  V30 8333 O 827.266 -1.80944 0.11352 0
M  V30 8334 C 827.314 -0.878649 3.49731 0
M  V30 8335 O 826.418 -1.98851 3.61292 0
M  V30 8336 H 825.759 -0.0855115 0.658471 0
M  V30 8337 H 828.289 0.368023 2.01263 0
M  V30 8338 H 828.299 -1.18287 3.90477 0
M  V30 8339 H 826.974 -0.0588107 4.15858 0
M  V30 8340 H 825.551 -1.68928 3.32442 0
M  V30 8341 N 827.736 -1.57571 -0.0300757 0
M  V30 8342 C 828.646 -2.09892 -1.04798 0
M  V30 8343 C 829.662 -1.03732 -1.39698 0
M  V30 8344 O 830.838 -1.35461 -1.49038 0
M  V30 8345 C 827.903 -2.56707 -2.33028 0
M  V30 8346 C 826.964 -3.77345 -2.04718 0
M  V30 8347 C 826.197 -4.21918 -3.26834 0
M  V30 8348 O 826.42 -3.66025 -4.37472 0
M  V30 8349 O 825.354 -5.14362 -3.12594 0
M  V30 8350 H 829.18 -2.97023 -0.633344 0
M  V30 8351 H 826.765 -1.47344 -0.246991 0
M  V30 8352 H 828.647 -2.87154 -3.08417 0
M  V30 8353 H 827.322 -1.72688 -2.73789 0
M  V30 8354 H 826.229 -3.51919 -1.26901 0
M  V30 8355 H 827.562 -4.62345 -1.68813 0
M  V30 8356 N 829.214 0.302327 -1.54673 0
M  V30 8357 C 830.124 1.39542 -1.88587 0
M  V30 8358 C 831.14 1.55543 -0.779895 0
M  V30 8359 O 832.316 1.70233 -1.07623 0
M  V30 8360 C 829.381 2.7394 -2.12504 0
M  V30 8361 C 828.442 2.66935 -3.3622 0
M  V30 8362 C 827.675 3.94923 -3.58987 0
M  V30 8363 O 827.898 4.94218 -2.84789 0
M  V30 8364 O 826.832 3.96896 -4.52501 0
M  V30 8365 H 830.658 1.13784 -2.81579 0
M  V30 8366 H 828.243 0.49827 -1.40846 0
M  V30 8367 H 830.125 3.5346 -2.29443 0
M  V30 8368 H 828.8 2.99544 -1.22698 0
M  V30 8369 H 827.707 1.85892 -3.24646 0
M  V30 8370 H 829.04 2.46283 -4.26152 0
M  V30 8371 N 830.692 1.47107 0.565454 0
M  V30 8372 C 831.622 1.61846 1.68309 0
M  V30 8373 C 832.603 0.468159 1.63531 0
M  V30 8374 O 833.788 0.696504 1.8128 0
M  V30 8375 C 830.918 1.62474 3.06952 0
M  V30 8376 C 829.872 2.76649 3.26572 0
M  V30 8377 C 829.198 2.62345 4.65917 0
M  V30 8378 C 830.498 4.18319 3.12741 0
M  V30 8379 H 832.192 2.55407 1.5623 0
M  V30 8380 H 829.738 1.22916 0.750179 0
M  V30 8381 H 831.691 1.71378 3.84977 0
M  V30 8382 H 830.415 0.654692 3.19971 0
M  V30 8383 H 829.074 2.67242 2.50952 0
M  V30 8384 H 828.722 1.63386 4.75725 0
M  V30 8385 H 828.422 3.38936 4.79996 0
M  V30 8386 H 829.946 2.73165 5.46089 0
M  V30 8387 H 831.36 4.28745 3.80593 0
M  V30 8388 H 829.757 4.95632 3.38333 0
M  V30 8389 H 830.827 4.37263 2.09592 0
M  V30 8390 N 832.17 -0.811516 1.35101 0
M  V30 8391 C 833.133 -1.90467 1.27495 0
M  V30 8392 C 834.133 -1.59703 0.187516 0
M  V30 8393 O 835.323 -1.68528 0.440896 0
M  V30 8394 C 832.455 -3.26774 0.971154 0
M  V30 8395 H 833.648 -1.98631 2.2469 0
M  V30 8396 H 831.201 -1.00681 1.19553 0
M  V30 8397 H 831.936 -3.243 0.0028557 0
M  V30 8398 H 831.721 -3.50488 1.75785 0
M  V30 8399 H 833.211 -4.06804 0.943414 0
M  V30 8400 N 833.648 -1.19017 -1.03309 0
M  V30 8401 C 834.578 -0.94772 -2.13402 0
M  V30 8402 C 835.559 0.117383 -1.69694 0
M  V30 8403 O 836.744 -0.0367733 -1.94165 0
M  V30 8404 C 833.874 -0.480977 -3.43953 0
M  V30 8405 C 832.828 -1.48743 -4.01322 0
M  V30 8406 C 832.154 -0.877924 -5.27443 0
M  V30 8407 C 833.454 -2.86642 -4.36616 0
M  V30 8408 H 835.148 -1.86846 -2.33942 0
M  V30 8409 H 832.694 -0.899781 -1.12427 0
M  V30 8410 H 834.647 -0.298677 -4.2034 0
M  V30 8411 H 833.371 0.475348 -3.23122 0
M  V30 8412 H 832.03 -1.65681 -3.27025 0
M  V30 8413 H 831.678 0.0858232 -5.02927 0
M  V30 8414 H 831.378 -1.54996 -5.66789 0
M  V30 8415 H 832.902 -0.706326 -6.06501 0
M  V30 8416 H 834.316 -2.73312 -5.03958 0
M  V30 8417 H 832.713 -3.50599 -4.87032 0
M  V30 8418 H 833.783 -3.39617 -3.46105 0
M  V30 8419 N 835.127 1.22348 -0.993418 0
M  V30 8420 C 836.075 2.26315 -0.537052 0
M  V30 8421 C 837.069 1.643 0.412545 0
M  V30 8422 O 838.275 1.77729 0.285008 0
M  V30 8423 H 834.65 0.735792 -0.155286 0
M  V30 8424 H 836.621 2.62157 -1.42535 0
M  V30 8425 C 835.37 3.47449 0.132118 0
M  V30 8426 H 834.693 3.9543 -0.589519 0
M  V30 8427 H 836.133 4.21965 0.414884 0
M  V30 8428 C 834.592 3.07893 1.36761 0
M  V30 8429 O 835.122 3.17338 2.46291 0
M  V30 8430 N 833.328 2.62672 1.24305 0
M  V30 8431 H 832.875 2.55186 0.351826 0
M  V30 8432 H 832.833 2.36574 2.07076 0
M  V30 8433 N 836.605 0.766683 1.37694 0
M  V30 8434 C 837.515 0.150158 2.34119 0
M  V30 8435 C 838.531 -0.685513 1.59927 0
M  V30 8436 O 839.707 -0.606616 1.92047 0
M  V30 8437 C 836.772 -0.722562 3.39087 0
M  V30 8438 C 835.833 0.128983 4.29106 0
M  V30 8439 C 835.066 -0.702178 5.29061 0
M  V30 8440 O 835.289 -1.93954 5.36412 0
M  V30 8441 O 834.223 -0.114056 6.01792 0
M  V30 8442 H 838.049 0.946829 2.88563 0
M  V30 8443 H 835.634 0.527765 1.39768 0
M  V30 8444 H 837.516 -1.22095 4.03325 0
M  V30 8445 H 836.191 -1.49751 2.86978 0
M  V30 8446 H 835.098 0.673612 3.67985 0
M  V30 8447 H 836.431 0.866892 4.84506 0
M  V30 8448 N 838.083 -1.48885 0.516809 0
M  V30 8449 C 839.013 -2.32241 -0.242157 0
M  V30 8450 C 839.994 -1.41258 -0.947633 0
M  V30 8451 O 841.179 -1.70156 -0.935973 0
M  V30 8452 C 838.309 -3.22151 -1.29754 0
M  V30 8453 C 837.263 -4.22053 -0.710995 0
M  V30 8454 C 836.589 -5.01007 -1.86806 0
M  V30 8455 C 837.889 -5.21388 0.30853 0
M  V30 8456 H 839.583 -2.95943 0.453651 0
M  V30 8457 H 837.129 -1.42316 0.219612 0
M  V30 8458 H 839.082 -3.79284 -1.83634 0
M  V30 8459 H 837.806 -2.56423 -2.02274 0
M  V30 8460 H 836.465 -3.66087 -0.193819 0
M  V30 8461 H 836.113 -4.31713 -2.58133 0
M  V30 8462 H 835.813 -5.68615 -1.48159 0
M  V30 8463 H 837.337 -5.60989 -2.4109 0
M  V30 8464 H 838.751 -5.73122 -0.142703 0
M  V30 8465 H 837.148 -5.96975 0.611673 0
M  V30 8466 H 838.218 -4.69329 1.21894 0
M  V30 8467 N 839.561 -0.251338 -1.55583 0
M  V30 8468 C 840.807 0.37272 -1.99346 0
M  V30 8469 C 841.14 1.57266 -1.13934 0
M  V30 8470 O 840.415 1.9343 -0.20377 0
M  V30 8471 C 840.698 0.778245 -3.5159 0
M  V30 8472 C 840.551 -0.427394 -4.47765 0
M  V30 8473 C 841.87 1.62358 -4.09057 0
M  V30 8474 H 838.989 0.134002 -0.724715 0
M  V30 8475 H 841.631 -0.353536 -1.86682 0
M  V30 8476 H 839.781 1.39704 -3.62512 0
M  V30 8477 H 841.453 -1.06586 -4.48818 0
M  V30 8478 H 839.696 -1.06972 -4.20404 0
M  V30 8479 H 840.367 -0.10025 -5.51909 0
M  V30 8480 H 842.843 1.1012 -4.01264 0
M  V30 8481 H 841.719 1.87617 -5.1584 0
M  V30 8482 H 841.98 2.59688 -3.57791 0
M  V30 8483 N 841.039 1.57585 0.0217189 0
M  V30 8484 C 842.267 1.93871 0.722619 0
M  V30 8485 C 842.682 0.851706 1.68498 0
M  V30 8486 O 842.039 -0.17127 1.81695 0
M  V30 8487 C 842.09 3.30114 1.47333 0
M  V30 8488 O 841.811 4.34639 0.549597 0
M  V30 8489 C 843.312 3.80727 2.27072 0
M  V30 8490 H 840.532 0.639671 0.202637 0
M  V30 8491 H 843.076 2.04487 -0.0229414 0
M  V30 8492 H 841.231 3.20872 2.17071 0
M  V30 8493 H 841.645 5.13326 1.07686 0
M  V30 8494 H 843.119 4.78547 2.75131 0
M  V30 8495 H 843.596 3.12301 3.08812 0
M  V30 8496 H 844.202 3.93075 1.62395 0
M  V30 8497 N 842.517 -0.29412 1.54831 0
M  V30 8498 C 843.447 -1.36757 1.89261 0
M  V30 8499 C 844.428 -1.52564 0.752214 0
M  V30 8500 O 845.613 -1.65958 1.00855 0
M  V30 8501 C 842.743 -2.73066 2.14597 0
M  V30 8502 C 841.697 -2.72017 3.3044 0
M  V30 8503 C 841.023 -4.11679 3.4121 0
M  V30 8504 C 842.323 -2.33149 4.67375 0
M  V30 8505 H 844.017 -1.08191 2.79169 0
M  V30 8506 H 841.563 -0.519014 1.34321 0
M  V30 8507 H 843.516 -3.48255 2.37269 0
M  V30 8508 H 842.24 -3.03172 1.21467 0
M  V30 8509 H 840.899 -1.99285 3.07703 0
M  V30 8510 H 840.547 -4.38973 2.45584 0
M  V30 8511 H 840.247 -4.11877 4.19084 0
M  V30 8512 H 841.771 -4.88637 3.6615 0
M  V30 8513 H 843.185 -2.98054 4.89731 0
M  V30 8514 H 841.582 -2.44546 5.48012 0
M  V30 8515 H 842.652 -1.28275 4.67626 0
M  V30 8516 N 843.995 -1.47404 -0.557645 0
M  V30 8517 C 845.223 -1.57622 -1.34026 0
M  V30 8518 C 845.638 -0.226256 -1.87439 0
M  V30 8519 O 844.995 0.78043 -1.64971 0
M  V30 8520 C 845.046 -2.60111 -2.51047 0
M  V30 8521 O 844.767 -3.89866 -1.99841 0
M  V30 8522 C 846.268 -2.80508 -3.43264 0
M  V30 8523 H 843.488 -0.532271 -0.40857 0
M  V30 8524 H 846.032 -1.93019 -0.675555 0
M  V30 8525 H 844.187 -2.27648 -3.13457 0
M  V30 8526 H 844.601 -4.45864 -2.76234 0
M  V30 8527 H 846.075 -3.56084 -4.21792 0
M  V30 8528 H 846.552 -1.88314 -3.9678 0
M  V30 8529 H 847.158 -3.14166 -2.86671 0
M  V30 8530 N 845.473 0.80434 -1.35529 0
M  V30 8531 C 846.713 1.57489 -1.30295 0
M  V30 8532 C 847.077 1.91621 0.120528 0
M  V30 8533 O 848.278 2.67151 0.297265 0
M  V30 8534 C 846.549 2.82741 -2.18615 0
M  V30 8535 S 848.108 3.73125 -2.30918 0
M  V30 8536 H 844.926 0.539573 -0.463014 0
M  V30 8537 H 847.528 0.948601 -1.70944 0
M  V30 8538 H 846.232 2.55692 -3.21014 0
M  V30 8539 H 845.763 3.50353 -1.78931 0
M  V30 8540 H 847.778 4.73122 -1.49566 0
M  V30 8541 N 846.951 1.19563 1.02676 0
M  V30 8542 C 847.881 0.959024 2.12897 0
M  V30 8543 C 848.862 -0.108382 1.69754 0
M  V30 8544 O 850.047 0.0470698 1.94143 0
M  V30 8545 C 847.177 0.499211 3.43693 0
M  V30 8546 C 846.131 1.5087 4.00528 0
M  V30 8547 C 845.457 0.905884 5.2697 0
M  V30 8548 C 846.757 2.88954 4.3509 0
M  V30 8549 H 848.451 1.88084 2.32948 0
M  V30 8550 H 845.997 0.905731 1.11949 0
M  V30 8551 H 847.95 0.320965 4.20176 0
M  V30 8552 H 846.674 -0.458205 3.2337 0
M  V30 8553 H 845.333 1.67413 3.26142 0
M  V30 8554 H 844.981 -0.0591506 5.02965 0
M  V30 8555 H 844.681 1.58 5.65959 0
M  V30 8556 H 846.205 0.73848 6.06118 0
M  V30 8557 H 847.619 2.75981 5.02501 0
M  V30 8558 H 846.016 3.53177 4.85166 0
M  V30 8559 H 847.086 3.41447 3.44299 0
M  V30 8560 N 848.429 -1.21819 0.999893 0
M  V30 8561 C 849.392 -2.22227 0.561044 0
M  V30 8562 C 850.392 -1.56722 -0.359858 0
M  V30 8563 O 851.582 -1.73546 -0.150848 0
M  V30 8564 C 848.714 -3.40409 -0.182987 0
M  V30 8565 H 849.907 -2.62567 1.44909 0
M  V30 8566 H 847.46 -1.34991 0.78785 0
M  V30 8567 H 848.195 -3.05551 -1.08671 0
M  V30 8568 H 847.98 -3.89171 0.47833 0
M  V30 8569 H 849.47 -4.14856 -0.477952 0
M  V30 8570 N 849.908 -0.773975 -1.37286 0
M  V30 8571 C 851.324 -0.45386 -1.53011 0
M  V30 8572 C 851.524 1.03018 -1.73175 0
M  V30 8573 O 850.58 1.81597 -1.75438 0
M  V30 8574 C 851.893 -1.27087 -2.72524 0
M  V30 8575 C 853.441 -1.26299 -2.86387 0
M  V30 8576 C 853.916 -2.0634 -4.08886 0
M  V30 8577 N 855.407 -2.03706 -4.16003 0
M  V30 8578 C 856.142 -2.62418 -5.09828 0
M  V30 8579 N 855.638 -3.29926 -6.09197 0
M  V30 8580 N 857.431 -2.52236 -5.02328 0
M  V30 8581 H 849.582 -1.73551 -1.22449 0
M  V30 8582 H 851.845 -0.736874 -0.596423 0
M  V30 8583 H 851.551 -2.32263 -2.64096 0
M  V30 8584 H 851.425 -0.90157 -3.66267 0
M  V30 8585 H 853.812 -0.219213 -2.94285 0
M  V30 8586 H 853.893 -1.67195 -1.93596 0
M  V30 8587 H 853.537 -3.10741 -4.01749 0
M  V30 8588 H 853.467 -1.62825 -5.00795 0
M  V30 8589 H 855.958 -1.54559 -3.44848 0
M  V30 8590 H 856.271 -3.72095 -6.77322 0
M  V30 8591 H 854.616 -3.34026 -6.09469 0
M  V30 8592 H 857.807 -1.99108 -4.23643 0
M  V30 8593 H 857.98 -2.98286 -5.75265 0
M  V30 8594 N 851.386 1.48609 -0.524698 0
M  V30 8595 C 852.634 2.02097 0.0112991 0
M  V30 8596 C 852.955 1.40455 1.35268 0
M  V30 8597 O 852.225 0.56807 1.87483 0
M  V30 8598 H 850.805 0.746966 0.00716426 0
M  V30 8599 H 853.467 1.82378 -0.687329 0
M  V30 8600 H 852.563 3.11855 0.123531 0
M  V30 8601 N 852.864 0.259585 1.55447 0
M  V30 8602 C 854.111 -0.361607 1.99245 0
M  V30 8603 C 854.439 -1.57017 1.14787 0
M  V30 8604 O 853.694 -1.94658 0.201724 0
M  V30 8605 C 853.993 -0.802727 3.48269 0
M  V30 8606 C 853.659 0.299472 4.49904 0
M  V30 8607 C 852.321 0.602157 4.77418 0
M  V30 8608 C 854.673 1.04295 5.10658 0
M  V30 8609 C 852.001 1.65217 5.62957 0
M  V30 8610 C 854.353 2.08257 5.97337 0
M  V30 8611 C 853.017 2.39177 6.23178 0
M  V30 8612 H 852.287 -0.132322 0.72909 0
M  V30 8613 H 854.934 0.370059 1.8789 0
M  V30 8614 H 853.239 -1.61381 3.5702 0
M  V30 8615 H 854.936 -1.29385 3.79553 0
M  V30 8616 H 851.526 0.0534256 4.28567 0
M  V30 8617 H 855.71 0.822358 4.89439 0
M  V30 8618 H 850.966 1.89692 5.81229 0
M  V30 8619 H 855.14 2.6635 6.43452 0
M  V30 8620 H 852.767 3.20677 6.89253 0
M  V30 8621 N 854.342 -1.57594 -0.0133615 0
M  V30 8622 C 855.567 -1.94649 -0.715996 0
M  V30 8623 C 855.992 -0.860786 -1.67249 0
M  V30 8624 O 855.35 0.182228 -1.80382 0
M  V30 8625 C 855.398 -3.30789 -1.43566 0
M  V30 8626 O 854.502 -3.24148 -2.54955 0
M  V30 8627 H 853.843 -0.635801 -0.191449 0
M  V30 8628 H 856.373 -2.04569 0.0358478 0
M  V30 8629 H 856.383 -3.66045 -1.80208 0
M  V30 8630 H 855.058 -4.09367 -0.734263 0
M  V30 8631 H 853.635 -3.00548 -2.20739 0
M  V30 8632 N 855.82 0.285905 -1.54985 0
M  V30 8633 C 857.231 0.857869 -1.65824 0
M  V30 8634 C 857.582 1.87531 -0.576763 0
M  V30 8635 O 856.707 2.14528 0.284016 0
M  V30 8636 C 857.302 1.56277 -3.00604 0
M  V30 8637 C 855.861 2.08294 -3.13513 0
M  V30 8638 C 855.008 0.920633 -2.61571 0
M  V30 8639 H 857.959 0.0625463 -1.58577 0
M  V30 8640 H 857.98 2.42912 -2.92872 0
M  V30 8641 H 857.492 0.822017 -3.79295 0
M  V30 8642 H 855.593 2.8537 -2.39572 0
M  V30 8643 H 855.706 2.3071 -4.19892 0
M  V30 8644 H 854.07 1.31043 -2.18403 0
M  V30 8645 H 854.853 0.193594 -3.42754 0
M  V30 8646 N 857.298 1.47698 0.54982 0
M  V30 8647 C 858.245 1.60739 1.65625 0
M  V30 8648 C 859.215 0.450129 1.59884 0
M  V30 8649 O 860.4 0.671123 1.78607 0
M  V30 8650 C 857.54 1.63457 3.03934 0
M  V30 8651 C 856.653 2.90152 3.20056 0
M  V30 8652 C 855.788 2.84157 4.48807 0
M  V30 8653 C 854.827 4.05644 4.58387 0
M  V30 8654 N 853.964 3.97843 5.78503 0
M  V30 8655 H 858.804 2.55234 1.53817 0
M  V30 8656 H 856.341 1.26593 0.749173 0
M  V30 8657 H 858.299 1.63015 3.84034 0
M  V30 8658 H 856.929 0.724689 3.1456 0
M  V30 8659 H 855.981 3.00428 2.33339 0
M  V30 8660 H 857.293 3.80097 3.22998 0
M  V30 8661 H 856.447 2.82006 5.37175 0
M  V30 8662 H 855.186 1.91908 4.48356 0
M  V30 8663 H 854.191 4.08092 3.6843 0
M  V30 8664 H 855.416 4.9903 4.60593 0
M  V30 8665 H 853.362 3.08401 5.78986 0
M  V30 8666 H 853.279 4.81473 5.82855 0
M  V30 8667 H 854.547 3.99719 6.69212 0
M  V30 8668 N 858.776 -0.797141 1.35954 0
M  V30 8669 C 860.053 -1.54224 1.2031 0
M  V30 8670 C 860.433 -2.10013 -0.213926 0
M  V30 8671 O 859.781 -1.93292 -1.21862 0
M  V30 8672 C 859.991 -2.6433 2.27883 0
M  V30 8673 C 861.339 -3.32418 2.64165 0
M  V30 8674 O 862.363 -2.74607 2.26868 0
M  V30 8675 O 861.222 -4.36876 3.28331 0
M  V30 8676 H 858.316 -0.681857 0.467974 0
M  V30 8677 H 860.862 -0.836288 1.47663 0
M  V30 8678 H 859.634 -2.21044 3.22885 0
M  V30 8679 H 859.257 -3.42551 2.01853 0
M  V30 8680 N 860.254 -1.20106 -1.0204 0
M  V30 8681 C 861.5 -1.01039 -1.75838 0
M  V30 8682 C 861.833 0.456819 -1.88751 0
M  V30 8683 O 861.108 1.33919 -1.41053 0
M  V30 8684 C 861.391 -1.69009 -3.17975 0
M  V30 8685 C 861.244 -3.2315 -3.1288 0
M  V30 8686 C 862.563 -1.42005 -4.16561 0
M  V30 8687 H 859.682 -0.368465 -0.638281 0
M  V30 8688 H 862.324 -1.48066 -1.19064 0
M  V30 8689 H 860.474 -1.29026 -3.66449 0
M  V30 8690 H 862.146 -3.72402 -2.72239 0
M  V30 8691 H 860.389 -3.54253 -2.50374 0
M  V30 8692 H 861.06 -3.65862 -4.13339 0
M  V30 8693 H 863.536 -1.76685 -3.76725 0
M  V30 8694 H 862.412 -1.92101 -5.14187 0
M  V30 8695 H 862.673 -0.346884 -4.40737 0
M  V30 8696 N 861.732 1.21287 -1.00634 0
M  V30 8697 C 862.662 2.25973 -0.588089 0
M  V30 8698 C 863.643 1.65527 0.391764 0
M  V30 8699 O 864.828 1.92179 0.279452 0
M  V30 8700 C 861.958 3.47197 0.0847336 0
M  V30 8701 C 860.912 4.20168 -0.815039 0
M  V30 8702 C 860.238 5.34699 -0.00855393 0
M  V30 8703 C 861.538 4.77416 -2.11828 0
M  V30 8704 H 863.232 2.61212 -1.46317 0
M  V30 8705 H 860.778 1.25563 -0.704985 0
M  V30 8706 H 862.731 4.19602 0.388821 0
M  V30 8707 H 861.455 3.11092 0.994456 0
M  V30 8708 H 860.114 3.49614 -1.10297 0
M  V30 8709 H 859.762 4.94837 0.902499 0
M  V30 8710 H 859.462 5.84449 -0.607664 0
M  V30 8711 H 860.986 6.09914 0.289317 0
M  V30 8712 H 862.4 5.41694 -1.87725 0
M  V30 8713 H 860.797 5.37561 -2.66736 0
M  V30 8714 H 861.867 3.96724 -2.78816 0
M  V30 8715 N 863.21 0.781244 1.36873 0
M  V30 8716 C 864.456 0.350407 1.9975 0
M  V30 8717 C 864.789 -1.07293 1.6187 0
M  V30 8718 O 864.064 -1.73983 0.869491 0
M  V30 8719 C 864.347 0.504834 3.56544 0
M  V30 8720 C 864.2 1.97127 4.04303 0
M  V30 8721 C 865.519 -0.0851272 4.40018 0
M  V30 8722 H 862.638 0.128794 0.725659 0
M  V30 8723 H 865.28 0.98606 1.6241 0
M  V30 8724 H 863.43 -0.0363006 3.88483 0
M  V30 8725 H 865.102 2.57284 3.82887 0
M  V30 8726 H 863.345 2.47676 3.56145 0
M  V30 8727 H 864.016 2.03033 5.13305 0
M  V30 8728 H 866.492 0.376704 4.14391 0
M  V30 8729 H 865.368 0.0530015 5.48874 0
M  V30 8730 H 865.629 -1.17642 4.2616 0
M  V30 8731 N 864.689 -1.48329 0.532571 0
M  V30 8732 C 866.105 -1.58458 0.190605 0
M  V30 8733 C 866.305 -1.53427 -1.30623 0
M  V30 8734 O 865.361 -1.4247 -2.08467 0
M  V30 8735 C 866.674 -2.89989 0.79543 0
M  V30 8736 C 868.222 -3.03523 0.7644 0
M  V30 8737 C 868.697 -4.37718 1.34785 0
M  V30 8738 N 870.188 -4.44292 1.30993 0
M  V30 8739 C 870.923 -5.4664 1.73124 0
M  V30 8740 N 870.419 -6.5593 2.22997 0
M  V30 8741 N 872.212 -5.37538 1.64346 0
M  V30 8742 H 864.363 -1.49842 1.50537 0
M  V30 8743 H 866.626 -0.71164 0.626316 0
M  V30 8744 H 866.332 -2.99333 1.84642 0
M  V30 8745 H 866.206 -3.76203 0.27403 0
M  V30 8746 H 868.593 -2.93789 -0.277831 0
M  V30 8747 H 868.674 -2.18912 1.3233 0
M  V30 8748 H 868.318 -4.48206 2.38902 0
M  V30 8749 H 868.248 -5.21019 0.764609 0
M  V30 8750 H 870.739 -3.65897 0.944868 0
M  V30 8751 H 871.052 -7.30167 2.53133 0
M  V30 8752 H 869.397 -6.56886 2.26992 0
M  V30 8753 H 872.588 -4.51052 1.25178 0
M  V30 8754 H 872.761 -6.17169 1.97501 0
M  V30 8755 N 866.167 -0.267825 -1.55308 0
M  V30 8756 C 867.413 0.34458 -2.0046 0
M  V30 8757 C 867.768 1.54028 -1.15296 0
M  V30 8758 O 867.061 1.90409 -0.213316 0
M  V30 8759 C 867.255 0.784247 -3.48689 0
M  V30 8760 C 867.084 -0.367304 -4.48197 0
M  V30 8761 C 865.854 -0.848746 -4.98121 0
M  V30 8762 C 868.052 -1.20136 -5.00072 0
M  V30 8763 N 866.034 -1.97052 -5.81415 0
M  V30 8764 C 867.405 -2.17115 -5.80742 0
M  V30 8765 C 869.46 -1.23553 -4.82327 0
M  V30 8766 C 868.163 -3.17248 -6.45559 0
M  V30 8767 C 870.189 -2.22527 -5.47938 0
M  V30 8768 C 869.551 -3.1824 -6.28413 0
M  V30 8769 H 865.65 0.091465 -0.776633 0
M  V30 8770 H 868.234 -0.390184 -1.9075 0
M  V30 8771 H 866.405 1.48825 -3.58756 0
M  V30 8772 H 868.137 1.37337 -3.80684 0
M  V30 8773 H 864.892 -0.429291 -4.7165 0
M  V30 8774 H 865.316 -2.53481 -6.27755 0
M  V30 8775 H 869.958 -0.50937 -4.1972 0
M  V30 8776 H 867.676 -3.90801 -7.07319 0
M  V30 8777 H 871.262 -2.25904 -5.36152 0
M  V30 8778 H 870.142 -3.93573 -6.78285 0
M  V30 8779 N 867.645 1.57599 0.00500368 0
M  V30 8780 C 868.575 2.11143 0.99705 0
M  V30 8781 C 869.556 1.0194 1.3617 0
M  V30 8782 O 870.741 1.29596 1.44632 0
M  V30 8783 C 867.871 2.61062 2.2905 0
M  V30 8784 C 866.825 3.74745 2.0676 0
M  V30 8785 C 866.151 4.10961 3.42075 0
M  V30 8786 C 867.451 5.02222 1.43424 0
M  V30 8787 H 869.145 2.94281 0.551251 0
M  V30 8788 H 866.691 1.41565 0.263715 0
M  V30 8789 H 868.644 2.97146 2.98801 0
M  V30 8790 H 867.368 1.75038 2.75734 0
M  V30 8791 H 866.027 3.39047 1.39436 0
M  V30 8792 H 865.675 3.21968 3.86453 0
M  V30 8793 H 865.375 4.87549 3.27979 0
M  V30 8794 H 866.899 4.49599 4.1315 0
M  V30 8795 H 868.313 5.36109 2.03125 0
M  V30 8796 H 866.71 5.83581 1.39831 0
M  V30 8797 H 867.78 4.83224 0.40285 0
M  V30 8798 N 869.123 -0.277682 1.55134 0
M  V30 8799 C 870.055 -1.36531 1.84098 0
M  V30 8800 C 871.068 -1.45756 0.725194 0
M  V30 8801 O 872.257 -1.47656 1.00299 0
M  V30 8802 C 869.357 -2.74701 1.98476 0
M  V30 8803 C 868.53 -2.88125 3.29094 0
M  V30 8804 C 867.589 -4.0694 3.33596 0
M  V30 8805 O 866.615 -3.9792 4.06999 0
M  V30 8806 N 867.817 -5.18687 2.60661 0
M  V30 8807 H 870.582 -1.12032 2.77973 0
M  V30 8808 H 868.143 -0.467793 1.54995 0
M  V30 8809 H 870.135 -3.52471 1.98863 0
M  V30 8810 H 868.705 -2.92043 1.11488 0
M  V30 8811 H 867.925 -1.97277 3.41285 0
M  V30 8812 H 869.213 -2.94021 4.15246 0
M  V30 8813 H 868.611 -5.28901 2.00699 0
M  V30 8814 H 867.168 -5.94705 2.66776 0
M  V30 8815 N 870.601 -1.47988 -0.541979 0
M  V30 8816 C 871.849 -1.55086 -1.29587 0
M  V30 8817 C 872.17 -0.221304 -1.9374 0
M  V30 8818 O 871.44 0.756128 -1.80719 0
M  V30 8819 H 870.02 -0.571307 -0.481266 0
M  V30 8820 H 872.682 -1.8438 -0.631675 0
M  V30 8821 H 871.778 -2.32556 -2.08144 0
M  V30 8822 N 872.079 0.78992 -1.36375 0
M  V30 8823 C 873.304 1.58389 -1.33895 0
M  V30 8824 C 873.729 1.8794 0.0774934 0
M  V30 8825 O 873.087 1.4785 1.0493 0
M  V30 8826 C 873.135 2.88201 -2.16732 0
M  V30 8827 O 872.239 3.81778 -1.55946 0
M  V30 8828 H 871.58 0.480471 -0.458305 0
M  V30 8829 H 874.11 0.979119 -1.79651 0
M  V30 8830 H 874.12 3.37475 -2.29292 0
M  V30 8831 H 872.795 2.66019 -3.19698 0
M  V30 8832 H 871.372 3.40371 -1.52323 0
M  V30 8833 N 873.557 1.20646 1.01402 0
M  V30 8834 C 874.489 0.915392 2.10127 0
M  V30 8835 C 875.502 -0.0978705 1.62506 0
M  V30 8836 O 876.691 0.133477 1.78 0
M  V30 8837 C 873.791 0.351304 3.37074 0
M  V30 8838 C 872.964 1.41673 4.13821 0
M  V30 8839 C 872.023 0.8635 5.19067 0
M  V30 8840 O 871.049 1.54481 5.47836 0
M  V30 8841 N 872.251 -0.325799 5.79585 0
M  V30 8842 H 875.016 1.85132 2.35682 0
M  V30 8843 H 872.577 1.11048 1.17813 0
M  V30 8844 H 874.569 -0.032996 4.04687 0
M  V30 8845 H 873.139 -0.489242 3.08748 0
M  V30 8846 H 872.359 1.97526 3.41141 0
M  V30 8847 H 873.647 2.1342 4.61876 0
M  V30 8848 H 873.045 -0.896534 5.58551 0
M  V30 8849 H 871.602 -0.651708 6.48534 0
M  V30 8850 N 875.035 -1.20752 1.01276 0
M  V30 8851 C 875.945 -2.27079 0.589277 0
M  V30 8852 C 876.961 -1.6999 -0.371389 0
M  V30 8853 O 878.137 -2.00044 -0.233294 0
M  V30 8854 C 875.202 -3.4663 -0.0696715 0
M  V30 8855 C 874.263 -4.18962 0.936454 0
M  V30 8856 C 873.496 -5.32806 0.308856 0
M  V30 8857 O 873.719 -5.63376 -0.8924 0
M  V30 8858 O 872.653 -5.93131 1.02367 0
M  V30 8859 H 876.479 -2.6551 1.47438 0
M  V30 8860 H 874.064 -1.27297 0.782045 0
M  V30 8861 H 875.946 -4.19119 -0.437873 0
M  V30 8862 H 874.621 -3.10082 -0.929029 0
M  V30 8863 H 873.528 -3.48661 1.35595 0
M  V30 8864 H 874.861 -4.59441 1.76565 0
M  V30 8865 N 876.513 -0.788492 -1.36457 0
M  V30 8866 C 877.443 -0.200468 -2.32638 0
M  V30 8867 C 878.424 0.664031 -1.56603 0
M  V30 8868 O 879.609 0.598045 -1.84762 0
M  V30 8869 C 876.739 0.666274 -3.40849 0
M  V30 8870 C 875.693 -0.0982574 -4.27887 0
M  V30 8871 C 875.019 0.889018 -5.27258 0
M  V30 8872 C 876.319 -1.28692 -5.06197 0
M  V30 8873 H 878.013 -1.00399 -2.82065 0
M  V30 8874 H 875.559 -0.484237 -1.35614 0
M  V30 8875 H 877.512 1.08757 -4.07124 0
M  V30 8876 H 876.236 1.50249 -2.89987 0
M  V30 8877 H 874.895 -0.500525 -3.63167 0
M  V30 8878 H 874.543 1.72024 -4.7267 0
M  V30 8879 H 874.243 0.381909 -5.86358 0
M  V30 8880 H 875.767 1.30891 -5.96406 0
M  V30 8881 H 877.181 -0.941429 -5.65517 0
M  V30 8882 H 875.578 -1.72726 -5.74705 0
M  V30 8883 H 876.648 -2.08273 -4.37893 0
M  V30 8884 N 877.991 1.48044 -0.54043 0
M  V30 8885 C 879.402 1.86418 -0.102662 0
M  V30 8886 C 879.753 1.4489 1.32293 0
M  V30 8887 O 878.878 0.844319 1.99249 0
M  V30 8888 C 879.473 3.38324 -0.179533 0
M  V30 8889 C 878.032 3.75852 0.203098 0
M  V30 8890 C 877.179 2.72097 -0.534637 0
M  V30 8891 H 880.13 1.398 -0.751103 0
M  V30 8892 H 880.151 3.75641 0.606147 0
M  V30 8893 H 879.663 3.68518 -1.21721 0
M  V30 8894 H 877.764 3.51272 1.24252 0
M  V30 8895 H 877.877 4.78884 -0.143784 0
M  V30 8896 H 876.241 2.54692 0.0203358 0
M  V30 8897 H 877.024 3.05135 -1.57314 0
M  V30 8898 N 879.47 0.276058 1.55163 0
M  V30 8899 C 880.886 -0.0780579 1.59409 0
M  V30 8900 C 881.086 -1.54521 1.29327 0
M  V30 8901 O 880.142 -2.29422 1.05459 0
M  V30 8902 C 881.455 0.297422 2.99225 0
M  V30 8903 C 883.003 0.244117 3.12047 0
M  V30 8904 C 883.478 0.594051 4.54131 0
M  V30 8905 N 884.969 0.54564 4.59975 0
M  V30 8906 C 885.704 0.789192 5.67943 0
M  V30 8907 N 885.2 1.09741 6.84053 0
M  V30 8908 N 886.993 0.717926 5.57496 0
M  V30 8909 H 879.144 1.23251 1.72982 0
M  V30 8910 H 881.407 0.497988 0.806667 0
M  V30 8911 H 881.113 1.31782 3.26077 0
M  V30 8912 H 880.987 -0.361286 3.75466 0
M  V30 8913 H 883.374 -0.766992 2.84958 0
M  V30 8914 H 883.455 0.937097 2.38017 0
M  V30 8915 H 883.099 1.60285 4.81945 0
M  V30 8916 H 883.029 -0.120728 5.26462 0
M  V30 8917 H 885.52 0.317334 3.76565 0
M  V30 8918 H 885.833 1.26989 7.62295 0
M  V30 8919 H 884.178 1.13519 6.85666 0
M  V30 8920 H 887.369 0.47697 4.65664 0
M  V30 8921 H 887.542 0.911118 6.41563 0
M  V30 8922 N 880.948 -1.576 0.00335426 0
M  V30 8923 C 881.858 -2.12067 -1.00322 0
M  V30 8924 C 882.874 -1.06672 -1.37467 0
M  V30 8925 O 884.05 -1.38592 -1.46131 0
M  V30 8926 C 881.115 -2.61593 -2.27531 0
M  V30 8927 C 880.176 -3.81602 -1.96668 0
M  V30 8928 C 879.409 -4.28756 -3.17811 0
M  V30 8929 O 879.632 -3.75222 -4.2961 0
M  V30 8930 O 878.566 -5.20877 -3.01613 0
M  V30 8931 H 882.392 -2.98299 -0.570199 0
M  V30 8932 H 879.977 -1.47835 -0.215682 0
M  V30 8933 H 881.859 -2.93631 -3.02256 0
M  V30 8934 H 880.534 -1.78457 -2.70065 0
M  V30 8935 H 879.441 -3.54531 -1.19408 0
M  V30 8936 H 880.774 -4.65822 -1.58968 0
M  V30 8937 N 882.426 0.269451 -1.5528 0
M  V30 8938 C 883.373 1.33316 -1.88403 0
M  V30 8939 C 884.343 1.48909 -0.735881 0
M  V30 8940 O 885.528 1.63259 -0.987479 0
M  V30 8941 C 882.668 2.68778 -2.16454 0
M  V30 8942 C 881.781 2.61377 -3.43956 0
M  V30 8943 C 880.916 3.89042 -3.6169 0
M  V30 8944 C 879.955 3.76166 -4.82872 0
M  V30 8945 N 879.092 4.95673 -4.97245 0
M  V30 8946 H 883.932 1.04368 -2.79126 0
M  V30 8947 H 881.469 0.504147 -1.38191 0
M  V30 8948 H 883.427 3.47599 -2.30719 0
M  V30 8949 H 882.057 2.9592 -1.28961 0
M  V30 8950 H 881.109 1.74247 -3.38145 0
M  V30 8951 H 882.421 2.47764 -4.32914 0
M  V30 8952 H 881.575 4.76304 -3.75791 0
M  V30 8953 H 880.314 4.05526 -2.70924 0
M  V30 8954 H 879.319 2.87287 -4.68771 0
M  V30 8955 H 880.544 3.61198 -5.75077 0
M  V30 8956 H 878.49 5.12561 -4.09411 0
M  V30 8957 H 878.407 4.84605 -5.80254 0
M  V30 8958 H 879.675 5.84498 -5.15735 0
M  V30 8959 N 883.904 1.48273 0.534124 0
M  V30 8960 C 885.134 1.59503 1.31311 0
M  V30 8961 C 885.542 0.25284 1.87503 0
M  V30 8962 O 884.885 -0.767399 1.66903 0
M  V30 8963 C 884.947 2.57899 2.50456 0
M  V30 8964 C 884.611 4.03063 2.15382 0
M  V30 8965 C 885.608 4.90869 1.713 0
M  V30 8966 C 883.293 4.4857 2.26032 0
M  V30 8967 C 885.287 6.22209 1.38328 0
M  V30 8968 C 882.974 5.79932 1.92672 0
M  V30 8969 C 883.972 6.66574 1.4889 0
M  V30 8970 O 883.66 7.95492 1.15966 0
M  V30 8971 H 883.392 0.540695 0.405739 0
M  V30 8972 H 885.946 1.94794 0.651497 0
M  V30 8973 H 884.176 2.1772 3.19585 0
M  V30 8974 H 885.865 2.59008 3.12522 0
M  V30 8975 H 886.631 4.56951 1.62545 0
M  V30 8976 H 882.51 3.81321 2.59066 0
M  V30 8977 H 886.054 6.89792 1.04082 0
M  V30 8978 H 881.951 6.13386 2.01066 0
M  V30 8979 H 882.719 8.08207 1.29399 0
M  V30 8980 N 885.382 -0.782676 1.36792 0
M  V30 8981 C 886.312 -1.90973 1.34356 0
M  V30 8982 C 887.293 -1.6875 0.213917 0
M  V30 8983 O 888.478 -1.89766 0.412601 0
M  V30 8984 C 885.608 -3.28097 1.13884 0
M  V30 8985 C 884.562 -3.6486 2.23744 0
M  V30 8986 C 883.888 -5.00406 1.88408 0
M  V30 8987 C 885.188 -3.72742 3.6587 0
M  V30 8988 H 886.882 -1.93268 2.28665 0
M  V30 8989 H 884.428 -0.928447 1.10072 0
M  V30 8990 H 886.381 -4.06569 1.10813 0
M  V30 8991 H 885.105 -3.26206 0.160275 0
M  V30 8992 H 883.764 -2.88689 2.25952 0
M  V30 8993 H 883.412 -4.95044 0.891083 0
M  V30 8994 H 883.112 -5.25973 2.61966 0
M  V30 8995 H 884.636 -5.81291 1.86905 0
M  V30 8996 H 886.05 -4.4139 3.65852 0
M  V30 8997 H 884.447 -4.09798 4.38389 0
M  V30 8998 H 885.517 -2.73676 4.00287 0
M  V30 8999 N 886.86 -1.21182 -1.00761 0
M  V30 9000 C 888.088 -1.05335 -1.78079 0
M  V30 9001 C 888.503 0.396988 -1.84579 0
M  V30 9002 O 887.86 1.27548 -1.30529 0
M  V30 9003 C 887.911 -1.64089 -3.22113 0
M  V30 9004 O 887.632 -3.03448 -3.15992 0
M  V30 9005 C 889.133 -1.53318 -4.15943 0
M  V30 9006 H 886.353 -0.37005 -0.559736 0
M  V30 9007 H 888.897 -1.60463 -1.26775 0
M  V30 9008 H 887.052 -1.13059 -3.70535 0
M  V30 9009 H 887.466 -3.31492 -4.06465 0
M  V30 9010 H 888.94 -1.99174 -5.14814 0
M  V30 9011 H 889.417 -0.487166 -4.3649 0
M  V30 9012 H 890.023 -2.03582 -3.73409 0
M  V30 9013 N 888.338 1.20213 -1.01915 0
M  V30 9014 C 889.584 1.90203 -0.720724 0
M  V30 9015 C 889.939 1.77526 0.74178 0
M  V30 9016 O 889.232 1.15037 1.53222 0
M  V30 9017 C 889.426 3.40232 -1.09438 0
M  V30 9018 C 889.255 3.67509 -2.59167 0
M  V30 9019 C 888.025 3.86082 -3.25989 0
M  V30 9020 C 890.223 3.69863 -3.5736 0
M  V30 9021 N 888.205 4.009 -4.64922 0
M  V30 9022 C 889.576 3.90136 -4.81865 0
M  V30 9023 C 891.631 3.52839 -3.51296 0
M  V30 9024 C 890.334 3.9515 -6.0104 0
M  V30 9025 C 892.36 3.59125 -4.69875 0
M  V30 9026 C 891.722 3.79874 -5.93191 0
M  V30 9027 H 887.821 0.715556 -0.315442 0
M  V30 9028 H 890.405 1.44538 -1.30449 0
M  V30 9029 H 888.576 3.84643 -0.538933 0
M  V30 9030 H 890.308 3.97704 -0.74923 0
M  V30 9031 H 887.063 3.84569 -2.76413 0
M  V30 9032 H 887.487 4.12181 -5.37062 0
M  V30 9033 H 892.129 3.35762 -2.56951 0
M  V30 9034 H 889.847 4.11022 -6.95763 0
M  V30 9035 H 893.433 3.47257 -4.66802 0
M  V30 9036 H 892.313 3.846 -6.83412 0
M  V30 9037 N 889.816 0.795718 1.36037 0
M  V30 9038 C 890.779 0.204318 2.28287 0
M  V30 9039 C 891.779 -0.602017 1.49105 0
M  V30 9040 O 892.969 -0.422089 1.69009 0
M  V30 9041 C 890.101 -0.716431 3.33287 0
M  V30 9042 H 891.294 1.01781 2.821 0
M  V30 9043 H 888.847 0.565588 1.45708 0
M  V30 9044 H 889.582 -1.55403 2.84641 0
M  V30 9045 H 889.367 -0.140096 3.9185 0
M  V30 9046 H 890.857 -1.12488 4.02164 0
M  V30 9047 N 891.294 -1.47756 0.548274 0
M  V30 9048 C 892.519 -2.07387 0.023475 0
M  V30 9049 C 892.944 -1.39956 -1.25674 0
M  V30 9050 O 892.302 -0.471543 -1.7506 0
M  V30 9051 C 892.35 -3.60224 -0.164669 0
M  V30 9052 O 891.454 -3.93653 -1.22928 0
M  V30 9053 H 890.795 -0.662312 0.0473156 0
M  V30 9054 H 893.325 -1.89905 0.761409 0
M  V30 9055 H 893.335 -4.06211 -0.38166 0
M  V30 9056 H 892.01 -4.08702 0.770425 0
M  V30 9057 H 890.587 -3.59422 -0.993495 0
M  V30 9058 N 892.772 -0.284283 -1.55015 0
M  V30 9059 C 894.188 0.069603 -1.59448 0
M  V30 9060 C 894.388 1.53833 -1.30144 0
M  V30 9061 O 893.444 2.2886 -1.06674 0
M  V30 9062 C 894.757 -0.313287 -2.99064 0
M  V30 9063 C 896.305 -0.260662 -3.11913 0
M  V30 9064 C 896.78 -0.618127 -4.5381 0
M  V30 9065 N 898.271 -0.570026 -4.59679 0
M  V30 9066 C 899.006 -0.8193 -5.67517 0
M  V30 9067 N 898.502 -1.13367 -6.83462 0
M  V30 9068 N 900.295 -0.747482 -5.57108 0
M  V30 9069 H 892.446 -1.24167 -1.72326 0
M  V30 9070 H 894.709 -0.502259 -0.804015 0
M  V30 9071 H 894.415 -1.33509 -3.25374 0
M  V30 9072 H 894.289 0.341369 -3.75652 0
M  V30 9073 H 896.676 0.751869 -2.85361 0
M  V30 9074 H 896.757 -0.949706 -2.37517 0
M  V30 9075 H 896.401 -1.62839 -4.81088 0
M  V30 9076 H 896.331 0.092807 -5.26518 0
M  V30 9077 H 898.822 -0.3373 -3.76392 0
M  V30 9078 H 899.135 -1.3103 -7.61611 0
M  V30 9079 H 897.48 -1.17154 -6.85055 0
M  V30 9080 H 900.671 -0.501658 -4.65404 0
M  V30 9081 H 900.844 -0.945128 -6.4107 0
M  V30 9082 N 894.251 1.57596 -0.0117121 0
M  V30 9083 C 895.183 2.06025 1.0043 0
M  V30 9084 C 896.196 0.980348 1.29973 0
M  V30 9085 O 897.385 1.25691 1.26744 0
M  V30 9086 C 894.485 2.45514 2.33615 0
M  V30 9087 C 893.658 3.76378 2.22842 0
M  V30 9088 C 892.717 4.02606 3.38814 0
M  V30 9089 O 891.743 4.73108 3.16477 0
M  V30 9090 N 892.945 3.51416 4.62047 0
M  V30 9091 H 895.71 2.93811 0.591206 0
M  V30 9092 H 893.271 1.60947 0.175427 0
M  V30 9093 H 895.263 2.60166 3.09993 0
M  V30 9094 H 893.833 1.63186 2.66625 0
M  V30 9095 H 893.053 3.71691 1.313 0
M  V30 9096 H 894.341 4.62149 2.12829 0
M  V30 9097 H 893.739 2.94346 4.83091 0
M  V30 9098 H 892.296 3.71377 5.35651 0
M  V30 9099 N 895.729 -0.261212 1.5542 0
M  V30 9100 C 896.639 -1.34493 1.92221 0
M  V30 9101 C 897.655 -1.53421 0.82086 0
M  V30 9102 O 898.831 -1.6732 1.12099 0
M  V30 9103 C 895.896 -2.68209 2.19692 0
M  V30 9104 C 894.957 -2.57927 3.43179 0
M  V30 9105 C 894.19 -3.85266 3.69331 0
M  V30 9106 O 894.413 -4.86493 2.97793 0
M  V30 9107 O 893.347 -3.8476 4.62865 0
M  V30 9108 H 897.173 -1.06278 2.84497 0
M  V30 9109 H 894.758 -0.460752 1.42118 0
M  V30 9110 H 896.64 -3.47252 2.38734 0
M  V30 9111 H 895.315 -2.96186 1.30597 0
M  V30 9112 H 894.222 -1.77219 3.2946 0
M  V30 9113 H 895.555 -2.34898 4.32532 0
M  V30 9114 N 897.207 -1.48554 -0.526253 0
M  V30 9115 C 898.618 -1.50256 -1.10815 0
M  V30 9116 C 898.969 -0.274445 -1.94271 0
M  V30 9117 O 898.094 0.618094 -2.07385 0
M  V30 9118 C 898.689 -2.72264 -2.01638 0
M  V30 9119 C 897.248 -2.76826 -2.55038 0
M  V30 9120 C 896.395 -2.43823 -1.32081 0
M  V30 9121 H 899.346 -1.55616 -0.31133 0
M  V30 9122 H 899.367 -2.50993 -2.85977 0
M  V30 9123 H 898.879 -3.61632 -1.4087 0
M  V30 9124 H 896.98 -1.91676 -3.19517 0
M  V30 9125 H 897.093 -3.78351 -2.93917 0
M  V30 9126 H 895.457 -1.95058 -1.63781 0
M  V30 9127 H 896.24 -3.35436 -0.730596 0
M  V30 9128 N 898.685 0.775411 -1.37205 0
M  V30 9129 C 899.91 1.5696 -1.35567 0
M  V30 9130 C 900.335 1.88012 0.0575554 0
M  V30 9131 O 899.693 1.48954 1.03355 0
M  V30 9132 C 899.741 2.85886 -2.19776 0
M  V30 9133 O 898.845 3.80103 -1.59987 0
M  V30 9134 H 898.186 0.475583 -0.463375 0
M  V30 9135 H 900.716 0.96001 -1.80679 0
M  V30 9136 H 900.726 3.35024 -2.32859 0
M  V30 9137 H 899.401 2.62613 -3.22502 0
M  V30 9138 H 897.978 3.38736 -1.55924 0
M  V30 9139 N 900.163 1.21714 1.00117 0
M  V30 9140 C 901.095 0.937627 2.09144 0
M  V30 9141 C 902.108 -0.0806291 1.626 0
M  V30 9142 O 903.297 0.152348 1.77849 0
M  V30 9143 C 900.397 0.387036 3.36683 0
M  V30 9144 C 899.57 1.46054 4.12295 0
M  V30 9145 C 898.629 0.918505 5.18122 0
M  V30 9146 O 897.655 1.60282 5.46167 0
M  V30 9147 N 898.857 -0.264308 5.79898 0
M  V30 9148 H 901.622 1.87622 2.33705 0
M  V30 9149 H 899.183 1.12291 1.16629 0
M  V30 9150 H 901.175 0.00992825 4.04699 0
M  V30 9151 H 899.745 -0.456467 3.09249 0
M  V30 9152 H 898.965 2.01133 3.39027 0
M  V30 9153 H 900.253 2.18306 4.59587 0
M  V30 9154 H 899.651 -0.837242 5.5947 0
M  V30 9155 H 898.208 -0.582886 6.49188 0
M  V30 9156 N 901.641 -1.19671 1.02551 0
M  V30 9157 C 902.889 -1.88894 0.71858 0
M  V30 9158 C 903.21 -1.79797 -0.754856 0
M  V30 9159 O 902.48 -1.20621 -1.54362 0
M  V30 9160 H 901.06 -0.699244 0.262806 0
M  V30 9161 H 903.722 -1.45298 1.29902 0
M  V30 9162 H 902.818 -2.95309 1.00989 0
M  V30 9163 N 903.119 -0.802921 -1.35613 0
M  V30 9164 C 904.347 -0.39393 -2.03115 0
M  V30 9165 C 904.762 0.993961 -1.60517 0
M  V30 9166 O 904.119 1.63984 -0.800973 0
M  V30 9167 C 904.17 -0.463486 -3.58516 0
M  V30 9168 O 903.891 -1.79666 -3.99565 0
M  V30 9169 C 905.392 -0.0468377 -4.43275 0
M  V30 9170 H 902.612 -0.160519 -0.651517 0
M  V30 9171 H 905.156 -1.08552 -1.73311 0
M  V30 9172 H 903.311 0.179821 -3.86982 0
M  V30 9173 H 903.725 -1.75688 -4.942 0
M  V30 9174 H 905.199 -0.146626 -5.51805 0
M  V30 9175 H 905.676 1.00741 -4.2749 0
M  V30 9176 H 906.282 -0.663158 -4.20098 0
M  V30 9177 N 904.597 1.47463 -0.556102 0
M  V30 9178 C 905.825 2.06868 -0.0364585 0
M  V30 9179 C 906.24 1.40893 1.25677 0
M  V30 9180 O 905.597 0.505083 1.75371 0
M  V30 9181 C 905.648 3.61128 0.163984 0
M  V30 9182 O 905.369 4.24629 -1.07803 0
M  V30 9183 C 906.87 4.37397 0.721036 0
M  V30 9184 H 904.09 0.669466 -0.0453399 0
M  V30 9185 H 906.634 1.89482 -0.769198 0
M  V30 9186 H 904.789 3.78031 0.84685 0
M  V30 9187 H 905.203 5.17149 -0.875067 0
M  V30 9188 H 906.677 5.46016 0.810584 0
M  V30 9189 H 907.154 4.03604 1.73206 0
M  V30 9190 H 907.76 4.25236 0.073904 0
M  V30 9191 N 906.075 0.2925 1.54862 0
M  V30 9192 C 907.303 -0.322113 2.04377 0
M  V30 9193 C 907.718 -1.48164 1.17016 0
M  V30 9194 O 907.075 -1.81466 0.19395 0
M  V30 9195 C 907.126 -0.786506 3.5284 0
M  V30 9196 O 906.847 0.326863 4.36879 0
M  V30 9197 C 908.348 -1.46715 4.18318 0
M  V30 9198 H 905.568 -0.0712074 0.667211 0
M  V30 9199 H 908.112 0.429657 1.99935 0
M  V30 9200 H 906.267 -1.48832 3.5767 0
M  V30 9201 H 906.681 -0.0331558 5.2449 0
M  V30 9202 H 908.155 -1.74333 5.23748 0
M  V30 9203 H 908.632 -2.40443 3.67538 0
M  V30 9204 H 909.238 -0.808735 4.1754 0
M  V30 9205 N 907.553 -1.57587 0.0200696 0
M  V30 9206 C 908.8 -1.91424 -0.660525 0
M  V30 9207 C 909.128 -0.895626 -1.72652 0
M  V30 9208 O 908.383 0.096771 -1.95461 0
M  V30 9209 C 908.682 -3.32002 -1.32323 0
M  V30 9210 C 908.348 -4.49223 -0.388487 0
M  V30 9211 C 907.01 -4.81021 -0.131184 0
M  V30 9212 C 909.362 -5.20581 0.253906 0
M  V30 9213 C 906.69 -5.81539 0.776471 0
M  V30 9214 C 909.042 -6.22067 1.14956 0
M  V30 9215 C 907.706 -6.52311 1.41584 0
M  V30 9216 H 906.976 -0.700472 -0.241703 0
M  V30 9217 H 909.623 -1.91333 0.0798991 0
M  V30 9218 H 907.928 -3.28312 -2.13819 0
M  V30 9219 H 909.625 -3.5545 -1.85623 0
M  V30 9220 H 906.215 -4.24391 -0.599207 0
M  V30 9221 H 910.399 -4.96253 0.068164 0
M  V30 9222 H 905.655 -6.03322 0.990575 0
M  V30 9223 H 909.829 -6.76484 1.65357 0
M  V30 9224 H 907.456 -7.30017 2.12083 0
M  V30 9225 N 909.032 0.252966 -1.55557 0
M  V30 9226 C 909.995 1.29645 -1.8901 0
M  V30 9227 C 910.995 1.41378 -0.766096 0
M  V30 9228 O 912.185 1.40183 -1.03414 0
M  V30 9229 C 909.317 2.67504 -2.11316 0
M  V30 9230 H 910.51 1.01202 -2.82309 0
M  V30 9231 H 908.063 0.491977 -1.48355 0
M  V30 9232 H 908.798 3.01095 -1.20466 0
M  V30 9233 H 908.583 2.6037 -2.93172 0
M  V30 9234 H 910.073 3.42861 -2.38403 0
M  V30 9235 N 910.51 1.48831 0.518367 0
M  V30 9236 C 911.756 1.57672 1.27543 0
M  V30 9237 C 912.089 0.254915 1.9252 0
M  V30 9238 O 911.364 -0.740107 1.79868 0
M  V30 9239 C 911.647 2.72345 2.35585 0
M  V30 9240 C 911.5 4.14267 1.75224 0
M  V30 9241 C 912.819 2.82726 3.37274 0
M  V30 9242 H 909.938 0.573926 0.462361 0
M  V30 9243 H 912.58 1.8105 0.576267 0
M  V30 9244 H 910.73 2.52543 2.95219 0
M  V30 9245 H 912.402 4.45539 1.19551 0
M  V30 9246 H 910.645 4.20724 1.05706 0
M  V30 9247 H 911.316 4.90345 2.53507 0
M  V30 9248 H 913.792 3.00699 2.8761 0
M  V30 9249 H 912.668 3.6467 4.10252 0
M  V30 9250 H 912.929 1.9136 3.9854 0
M  V30 9251 N 911.988 -0.768124 1.37614 0
M  V30 9252 C 913.216 -1.55726 1.36224 0
M  V30 9253 C 913.631 -1.8873 -0.0515357 0
M  V30 9254 O 912.988 -1.51718 -1.0143 0
M  V30 9255 C 913.039 -2.86533 2.20412 0
M  V30 9256 O 912.76 -2.54942 3.56281 0
M  V30 9257 C 914.261 -3.80745 2.27041 0
M  V30 9258 H 911.481 -0.482325 0.46648 0
M  V30 9259 H 914.025 -0.95176 1.81002 0
M  V30 9260 H 912.18 -3.43496 1.79134 0
M  V30 9261 H 912.594 -3.38732 4.00451 0
M  V30 9262 H 914.068 -4.69523 2.90263 0
M  V30 9263 H 914.545 -4.20138 1.27987 0
M  V30 9264 H 915.151 -3.2971 2.68647 0
M  V30 9265 N 913.466 -1.22244 -0.994698 0
M  V30 9266 C 914.691 -1.07299 -1.77487 0
M  V30 9267 C 915.116 0.372302 -1.84379 0
M  V30 9268 O 914.474 1.2689 -1.29494 0
M  V30 9269 C 914.522 -1.68675 -3.18718 0
M  V30 9270 O 913.626 -0.939202 -4.01563 0
M  V30 9271 H 912.967 -0.376979 -0.546611 0
M  V30 9272 H 915.497 -1.62003 -1.24965 0
M  V30 9273 H 915.507 -1.73324 -3.69354 0
M  V30 9274 H 914.182 -2.73849 -3.13017 0
M  V30 9275 H 912.759 -0.968583 -3.60101 0
M  V30 9276 N 914.944 1.19125 -1.03184 0
M  V30 9277 C 916.193 1.8821 -0.725264 0
M  V30 9278 C 916.506 1.80674 0.749411 0
M  V30 9279 O 917.712 2.45037 1.16915 0
M  V30 9280 C 916.168 3.37607 -1.24697 0
M  V30 9281 C 915.776 3.53693 -2.74964 0
M  V30 9282 C 917.52 4.12149 -1.01652 0
M  V30 9283 C 915.427 4.97001 -3.20538 0
M  V30 9284 H 914.357 0.704916 -0.267599 0
M  V30 9285 H 917.008 1.34663 -1.24652 0
M  V30 9286 H 915.39 3.90569 -0.653614 0
M  V30 9287 H 916.564 3.11046 -3.39981 0
M  V30 9288 H 914.879 2.92544 -2.96322 0
M  V30 9289 H 917.476 5.17837 -1.33226 0
M  V30 9290 H 917.819 4.16274 0.0465712 0
M  V30 9291 H 918.352 3.65334 -1.57403 0
M  V30 9292 H 915.091 4.9804 -4.26189 0
M  V30 9293 H 914.611 5.40398 -2.60251 0
M  V30 9294 H 916.29 5.65669 -3.14049 0
M  V30 9295 N 916.422 0.810101 1.35185 0
M  V30 9296 C 917.352 0.237453 2.32289 0
M  V30 9297 C 918.333 -0.639032 1.5764 0
M  V30 9298 O 919.518 -0.568575 1.8569 0
M  V30 9299 C 916.648 -0.611964 3.41866 0
M  V30 9300 C 915.602 0.166318 4.27677 0
M  V30 9301 C 914.928 -0.805024 5.28605 0
M  V30 9302 C 916.228 1.36729 5.04086 0
M  V30 9303 H 917.922 1.04874 2.80432 0
M  V30 9304 H 915.468 0.505751 1.34826 0
M  V30 9305 H 917.421 -1.02267 4.08802 0
M  V30 9306 H 916.145 -1.45617 2.92341 0
M  V30 9307 H 914.804 0.558238 3.62325 0
M  V30 9308 H 914.452 -1.64483 4.75347 0
M  V30 9309 H 914.152 -0.288577 5.86891 0
M  V30 9310 H 915.676 -1.21386 5.98413 0
M  V30 9311 H 917.09 1.03128 5.63948 0
M  V30 9312 H 915.487 1.81848 5.71884 0
M  V30 9313 H 916.557 2.15214 4.34524 0
M  V30 9314 N 917.9 -1.47166 0.563914 0
M  V30 9315 C 919.316 -1.58018 0.224173 0
M  V30 9316 C 919.516 -1.56163 -1.27339 0
M  V30 9317 O 918.572 -1.4686 -2.05398 0
M  V30 9318 C 919.885 -2.88236 0.856762 0
M  V30 9319 C 921.433 -3.01833 0.82861 0
M  V30 9320 C 921.908 -4.34761 1.44039 0
M  V30 9321 N 923.399 -4.41413 1.40388 0
M  V30 9322 C 924.134 -5.42845 1.84681 0
M  V30 9323 N 923.63 -6.51052 2.3686 0
M  V30 9324 N 925.423 -5.33931 1.75711 0
M  V30 9325 H 917.574 -1.46615 1.53681 0
M  V30 9326 H 919.837 -0.698195 0.64127 0
M  V30 9327 H 919.543 -2.95349 1.90949 0
M  V30 9328 H 919.417 -3.75537 0.353766 0
M  V30 9329 H 921.804 -2.94312 -0.215451 0
M  V30 9330 H 921.885 -2.16056 1.36943 0
M  V30 9331 H 921.529 -4.43037 2.48355 0
M  V30 9332 H 921.459 -5.1928 0.874953 0
M  V30 9333 H 923.95 -3.63811 1.02227 0
M  V30 9334 H 924.263 -7.24633 2.68564 0
M  V30 9335 H 922.608 -6.51924 2.40875 0
M  V30 9336 H 925.799 -4.48295 1.34718 0
M  V30 9337 H 925.972 -6.12841 2.10547 0
M  V30 9338 N 919.378 -0.300708 -1.54705 0
M  V30 9339 C 920.624 0.309111 -2.0043 0
M  V30 9340 C 920.957 1.53562 -1.1888 0
M  V30 9341 O 920.232 1.92683 -0.265205 0
M  V30 9342 C 920.515 0.665995 -3.53888 0
M  V30 9343 C 920.368 -0.56963 -4.46178 0
M  V30 9344 C 921.687 1.49262 -4.14016 0
M  V30 9345 H 918.806 0.110878 -0.728612 0
M  V30 9346 H 921.448 -0.412748 -1.85463 0
M  V30 9347 H 919.598 1.281 -3.66773 0
M  V30 9348 H 921.27 -1.20811 -4.45199 0
M  V30 9349 H 919.513 -1.20292 -4.16788 0
M  V30 9350 H 920.184 -0.275785 -5.51311 0
M  V30 9351 H 922.66 0.972979 -4.04564 0
M  V30 9352 H 921.536 1.71111 -5.21548 0
M  V30 9353 H 921.797 2.48174 -3.65872 0
M  V30 9354 N 920.856 1.57574 -0.0284266 0
M  V30 9355 C 921.819 2.09096 0.938691 0
M  V30 9356 C 922.819 1.00588 1.25454 0
M  V30 9357 O 924.009 1.2675 1.19499 0
M  V30 9358 C 921.141 2.55624 2.25542 0
M  V30 9359 H 922.334 2.95829 0.49248 0
M  V30 9360 H 919.887 1.5475 0.219594 0
M  V30 9361 H 920.622 1.72218 2.74793 0
M  V30 9362 H 920.407 3.34896 2.03929 0
M  V30 9363 H 921.897 2.95712 2.94863 0
M  V30 9364 N 922.334 -0.244713 1.55689 0
M  V30 9365 C 923.297 -1.2864 1.89695 0
M  V30 9366 C 924.297 -1.40969 0.773583 0
M  V30 9367 O 925.487 -1.39632 1.04156 0
M  V30 9368 C 922.619 -2.66379 2.12732 0
M  V30 9369 H 923.812 -0.997033 2.82841 0
M  V30 9370 H 921.365 -0.484103 1.48614 0
M  V30 9371 H 922.1 -3.00452 1.22062 0
M  V30 9372 H 921.885 -2.58812 2.94549 0
M  V30 9373 H 923.375 -3.41592 2.40218 0
M  V30 9374 N 923.813 -1.49104 -0.510467 0
M  V30 9375 C 924.723 -1.67792 -1.6396 0
M  V30 9376 C 925.739 -0.560454 -1.64727 0
M  V30 9377 O 926.915 -0.833985 -1.83321 0
M  V30 9378 C 923.98 -1.73154 -3.00364 0
M  V30 9379 C 923.041 -2.9667 -3.10299 0
M  V30 9380 C 922.274 -3.01767 -4.40196 0
M  V30 9381 O 922.497 -2.1472 -5.28443 0
M  V30 9382 O 921.431 -3.94137 -4.54906 0
M  V30 9383 H 925.257 -2.63428 -1.51126 0
M  V30 9384 H 922.842 -1.32734 -0.685719 0
M  V30 9385 H 924.724 -1.79089 -3.81451 0
M  V30 9386 H 923.399 -0.806952 -3.1348 0
M  V30 9387 H 922.306 -2.96257 -2.28435 0
M  V30 9388 H 923.639 -3.88578 -3.02106 0
M  V30 9389 N 925.291 0.760815 -1.38019 0
M  V30 9390 C 926.568 1.5098 -1.24356 0
M  V30 9391 C 926.948 2.10507 0.158169 0
M  V30 9392 O 926.296 1.96455 1.16695 0
M  V30 9393 C 926.506 2.58195 -2.34811 0
M  V30 9394 C 927.854 3.25297 -2.72886 0
M  V30 9395 O 928.878 2.68496 -2.34069 0
M  V30 9396 O 927.737 4.28018 -3.39799 0
M  V30 9397 H 924.831 0.66921 -0.485888 0
M  V30 9398 H 927.377 0.796844 -1.49828 0
M  V30 9399 H 926.149 2.12406 -3.28633 0
M  V30 9400 H 925.772 3.37079 -2.10864 0
M  V30 9401 N 926.769 1.22769 0.988202 0
M  V30 9402 C 928.015 1.06672 1.73184 0
M  V30 9403 C 928.37 -0.393434 1.88334 0
M  V30 9404 O 927.663 -1.2876 1.41885 0
M  V30 9405 C 927.857 1.71679 3.13466 0
M  V30 9406 C 927.686 3.23864 3.11997 0
M  V30 9407 C 926.456 3.92991 3.17626 0
M  V30 9408 C 928.654 4.20737 2.95778 0
M  V30 9409 N 926.636 5.32224 3.05959 0
M  V30 9410 C 928.007 5.46831 2.92191 0
M  V30 9411 C 930.062 4.1157 2.80205 0
M  V30 9412 C 928.765 6.64811 2.74624 0
M  V30 9413 C 930.791 5.29205 2.64 0
M  V30 9414 C 930.153 6.5422 2.61104 0
M  V30 9415 H 926.252 0.44481 0.64317 0
M  V30 9416 H 928.836 1.55381 1.17323 0
M  V30 9417 H 927.007 1.25513 3.67561 0
M  V30 9418 H 928.739 1.48629 3.76419 0
M  V30 9419 H 925.494 3.4402 3.25495 0
M  V30 9420 H 925.918 6.05197 3.03423 0
M  V30 9421 H 930.56 3.15697 2.81239 0
M  V30 9422 H 928.278 7.60828 2.72336 0
M  V30 9423 H 931.864 5.23947 2.52925 0
M  V30 9424 H 930.744 7.43713 2.48719 0
M  V30 9425 N 928.247 -1.18576 1.03814 0
M  V30 9426 C 929.194 -2.2212 0.626988 0
M  V30 9427 C 930.164 -1.62064 -0.363912 0
M  V30 9428 O 931.349 -1.89041 -0.258469 0
M  V30 9429 C 928.489 -3.45099 -0.00650133 0
M  V30 9430 C 927.602 -4.19503 1.03156 0
M  V30 9431 C 926.737 -5.29932 0.366852 0
M  V30 9432 C 925.776 -5.96104 1.39018 0
M  V30 9433 N 924.913 -6.98076 0.750625 0
M  V30 9434 H 929.753 -2.56646 1.51449 0
M  V30 9435 H 927.29 -1.26084 0.757702 0
M  V30 9436 H 929.248 -4.15363 -0.391108 0
M  V30 9437 H 927.878 -3.11201 -0.857536 0
M  V30 9438 H 926.93 -3.48092 1.53414 0
M  V30 9439 H 928.242 -4.64843 1.80893 0
M  V30 9440 H 927.396 -6.06657 -0.0720979 0
M  V30 9441 H 926.135 -4.85687 -0.442631 0
M  V30 9442 H 925.14 -5.18122 1.8393 0
M  V30 9443 H 926.365 -6.42432 2.20132 0
M  V30 9444 H 924.311 -6.55989 -0.0385981 0
M  V30 9445 H 924.228 -7.41655 1.46574 0
M  V30 9446 H 925.496 -7.78776 0.335986 0
M  V30 9447 N 929.725 -0.817259 -1.34754 0
M  V30 9448 C 930.672 -0.233108 -2.2962 0
M  V30 9449 C 931.642 0.638902 -1.53321 0
M  V30 9450 O 932.827 0.581739 -1.81715 0
M  V30 9451 C 929.967 0.603659 -3.39779 0
M  V30 9452 C 929.08 -0.289967 -4.31026 0
M  V30 9453 C 928.215 0.555825 -5.28284 0
M  V30 9454 C 927.254 -0.337539 -6.11169 0
M  V30 9455 N 926.391 0.468847 -7.00533 0
M  V30 9456 H 931.231 -1.04747 -2.78984 0
M  V30 9457 H 928.768 -0.528056 -1.37295 0
M  V30 9458 H 930.726 1.10407 -4.02326 0
M  V30 9459 H 929.356 1.38319 -2.91664 0
M  V30 9460 H 928.408 -0.908552 -3.69391 0
M  V30 9461 H 929.72 -0.977136 -4.89135 0
M  V30 9462 H 928.874 1.12094 -5.96255 0
M  V30 9463 H 927.613 1.27652 -4.70698 0
M  V30 9464 H 926.618 -0.914839 -5.42135 0
M  V30 9465 H 927.843 -1.05626 -6.70835 0
M  V30 9466 H 925.789 1.17332 -6.45422 0
M  V30 9467 H 925.706 -0.160052 -7.55831 0
M  V30 9468 H 926.974 1.01689 -7.72839 0
M  V30 9469 N 931.203 1.46865 -0.571711 0
M  V30 9470 C 932.451 2.0203 -0.0530022 0
M  V30 9471 C 932.772 1.44687 1.30731 0
M  V30 9472 O 932.042 0.627429 1.85581 0
M  V30 9473 H 930.622 0.746815 -0.0166035 0
M  V30 9474 H 933.284 1.80099 -0.745003 0
M  V30 9475 H 932.38 3.12091 0.0242538 0
M  V30 9476 N 932.681 0.308908 1.54543 0
M  V30 9477 C 933.958 -0.351558 1.92415 0
M  V30 9478 C 934.338 -1.71061 1.23699 0
M  V30 9479 O 933.686 -2.25394 0.3755 0
M  V30 9480 C 933.896 -0.458357 3.45977 0
M  V30 9481 C 935.244 -0.725524 4.18355 0
M  V30 9482 O 936.268 -0.541859 3.52054 0
M  V30 9483 O 935.127 -1.07884 5.35745 0
M  V30 9484 H 932.221 -0.197957 0.802958 0
M  V30 9485 H 934.767 0.357548 1.65891 0
M  V30 9486 H 933.539 0.496723 3.88134 0
M  V30 9487 H 933.162 -1.21562 3.78561 0
M  V30 9488 N 934.159 -1.57557 0.0367827 0
M  V30 9489 C 935.387 -1.96419 -0.650168 0
M  V30 9490 C 935.802 -0.913656 -1.6522 0
M  V30 9491 O 935.159 0.103718 -1.82205 0
M  V30 9492 C 935.21 -3.35355 -1.3498 0
M  V30 9493 O 934.931 -4.36379 -0.387905 0
M  V30 9494 C 936.432 -3.88892 -2.12786 0
M  V30 9495 H 933.652 -0.646751 -0.178756 0
M  V30 9496 H 936.196 -2.04261 0.0988197 0
M  V30 9497 H 934.351 -3.28708 -2.05012 0
M  V30 9498 H 934.765 -5.16969 -0.885596 0
M  V30 9499 H 936.239 -4.88428 -2.5718 0
M  V30 9500 H 936.716 -3.23547 -2.97008 0
M  V30 9501 H 937.322 -3.98831 -1.47694 0
M  V30 9502 N 935.637 0.236453 -1.55816 0
M  V30 9503 C 936.884 0.963012 -1.78136 0
M  V30 9504 C 937.212 1.84918 -0.602952 0
M  V30 9505 O 936.467 1.91285 0.413325 0
M  V30 9506 C 936.766 1.84549 -3.06066 0
M  V30 9507 C 936.432 1.11381 -4.36927 0
M  V30 9508 C 935.094 0.911635 -4.72486 0
M  V30 9509 C 937.446 0.596 -5.17781 0
M  V30 9510 C 934.774 0.179515 -5.86425 0
M  V30 9511 C 937.126 -0.122702 -6.32481 0
M  V30 9512 C 935.79 -0.336263 -6.66652 0
M  V30 9513 H 935.06 0.352391 -0.651845 0
M  V30 9514 H 937.707 0.232295 -1.90086 0
M  V30 9515 H 936.012 2.6436 -2.89173 0
M  V30 9516 H 937.709 2.40953 -3.20535 0
M  V30 9517 H 934.299 1.28134 -4.08998 0
M  V30 9518 H 938.483 0.73971 -4.90757 0
M  V30 9519 H 933.739 0.00368224 -6.114 0
M  V30 9520 H 937.913 -0.531516 -6.94369 0
M  V30 9521 H 935.54 -0.905507 -7.54788 0
M  V30 9522 N 937.115 1.49373 0.502552 0
M  V30 9523 C 938.34 1.62752 1.28556 0
M  V30 9524 C 938.765 0.298285 1.8572 0
M  V30 9525 O 938.123 -0.733885 1.65782 0
M  V30 9526 C 938.171 2.69778 2.39274 0
M  V30 9527 O 937.275 2.28843 3.43081 0
M  V30 9528 H 936.616 0.544799 0.379592 0
M  V30 9529 H 939.146 1.9555 0.601792 0
M  V30 9530 H 939.156 2.91899 2.8506 0
M  V30 9531 H 937.831 3.66266 1.97033 0
M  V30 9532 H 936.408 2.17047 3.03224 0
M  V30 9533 N 938.594 -0.753485 1.38421 0
M  V30 9534 C 939.834 -1.52544 1.3605 0
M  V30 9535 C 940.198 -1.91937 -0.0493257 0
M  V30 9536 O 941.399 -2.6807 -0.197908 0
M  V30 9537 C 939.67 -2.74432 2.28958 0
M  V30 9538 S 941.229 -3.64297 2.44607 0
M  V30 9539 H 938.047 -0.522017 0.48272 0
M  V30 9540 H 940.649 -0.884503 1.74347 0
M  V30 9541 H 939.353 -2.43602 3.30282 0
M  V30 9542 H 938.884 -3.43471 1.91811 0
M  V30 9543 H 940.899 -4.67245 1.67022 0
M  V30 9544 N 940.072 -1.23292 -0.981677 0
M  V30 9545 C 941.005 -0.956198 -2.07201 0
M  V30 9546 C 941.983 0.105027 -1.6226 0
M  V30 9547 O 943.167 -0.0289582 -1.88478 0
M  V30 9548 C 940.294 -0.44029 -3.35826 0
M  V30 9549 C 939.34 -1.48792 -3.99704 0
M  V30 9550 S 940.173 -3.06491 -4.39117 0
M  V30 9551 C 941.329 -2.56567 -5.70898 0
M  V30 9552 H 941.562 -1.87947 -2.30355 0
M  V30 9553 H 939.095 -1.06522 -1.1177 0
M  V30 9554 H 941.053 -0.149237 -4.10229 0
M  V30 9555 H 939.714 0.462045 -3.10683 0
M  V30 9556 H 938.907 -1.07706 -4.92357 0
M  V30 9557 H 938.509 -1.72826 -3.31673 0
M  V30 9558 H 940.801 -1.98508 -6.47766 0
M  V30 9559 H 941.744 -3.47755 -6.16824 0
M  V30 9560 H 942.152 -1.97465 -5.28836 0
M  V30 9561 N 941.55 1.18024 -1.04442 0
M  V30 9562 C 942.796 1.88377 -0.751133 0
M  V30 9563 C 943.129 1.80377 0.719571 0
M  V30 9564 O 942.404 1.20662 1.52548 0
M  V30 9565 C 942.687 3.38708 -1.22265 0
M  V30 9566 C 942.54 3.55499 -2.75574 0
M  V30 9567 C 943.859 4.32475 -0.815688 0
M  V30 9568 H 940.978 0.684037 -0.27434 0
M  V30 9569 H 943.62 1.38837 -1.29709 0
M  V30 9570 H 941.77 3.8103 -0.758192 0
M  V30 9571 H 943.442 3.22244 -3.30086 0
M  V30 9572 H 941.685 2.98028 -3.15217 0
M  V30 9573 H 942.356 4.60994 -3.03625 0
M  V30 9574 H 944.832 3.97953 -1.21542 0
M  V30 9575 H 943.708 5.36213 -1.17331 0
M  V30 9576 H 943.969 4.41207 0.280901 0
M  V30 9577 N 943.028 0.824394 1.34319 0
M  V30 9578 C 944.276 0.41235 1.97849 0
M  V30 9579 C 944.597 -1.02841 1.65677 0
M  V30 9580 O 943.867 -1.71421 0.948245 0
M  V30 9581 H 942.447 0.149486 0.73189 0
M  V30 9582 H 945.109 1.05416 1.63931 0
M  V30 9583 H 944.205 0.532557 3.07523 0
M  V30 9584 N 944.506 -1.46559 0.579492 0
M  V30 9585 C 945.456 -2.27316 -0.17645 0
M  V30 9586 C 946.44 -1.35681 -0.864835 0
M  V30 9587 O 947.632 -1.59879 -0.759462 0
M  V30 9588 C 944.761 -3.21957 -1.19157 0
M  V30 9589 C 943.847 -4.21077 -0.505459 0
M  V30 9590 N 944.238 -5.03908 0.437133 0
M  V30 9591 C 942.536 -4.39535 -0.75661 0
M  V30 9592 C 943.237 -5.75635 0.837819 0
M  V30 9593 N 942.213 -5.43276 0.187679 0
M  V30 9594 H 946.015 -2.88747 0.547932 0
M  V30 9595 H 943.529 -1.5737 0.401048 0
M  V30 9596 H 945.526 -3.78518 -1.74728 0
M  V30 9597 H 944.186 -2.62085 -1.9168 0
M  V30 9598 H 945.197 -5.11487 0.812488 0
M  V30 9599 H 941.874 -3.90815 -1.46867 0
M  V30 9600 H 943.264 -6.52235 1.61364 0
M  V30 9601 N 945.984 -0.3171 -1.54377 0
M  V30 9602 C 946.894 0.560867 -2.27797 0
M  V30 9603 C 947.91 1.13473 -1.31908 0
M  V30 9604 O 949.086 1.15608 -1.64914 0
M  V30 9605 C 946.151 1.70886 -3.0166 0
M  V30 9606 C 945.212 1.16745 -4.13121 0
M  V30 9607 C 944.445 2.26073 -4.83453 0
M  V30 9608 O 944.668 3.46292 -4.53252 0
M  V30 9609 O 943.602 1.91856 -5.70504 0
M  V30 9610 H 947.428 -0.035193 -3.0368 0
M  V30 9611 H 945.013 -0.0830062 -1.49169 0
M  V30 9612 H 946.895 2.37736 -3.47936 0
M  V30 9613 H 945.57 2.29122 -2.28658 0
M  V30 9614 H 944.477 0.464224 -3.71209 0
M  V30 9615 H 945.81 0.630307 -4.88147 0
M  V30 9616 N 947.462 1.57535 -0.0451378 0
M  V30 9617 C 948.425 2.1008 0.916461 0
M  V30 9618 C 949.425 1.01913 1.2438 0
M  V30 9619 O 950.615 1.2801 1.18148 0
M  V30 9620 C 947.747 2.58001 2.22818 0
M  V30 9621 H 948.94 2.96334 0.461076 0
M  V30 9622 H 946.493 1.54974 0.203169 0
M  V30 9623 H 947.228 1.75123 2.72951 0
M  V30 9624 H 947.013 3.3704 2.00366 0
M  V30 9625 H 948.503 2.98822 2.9171 0
M  V30 9626 N 948.94 -0.228186 1.55939 0
M  V30 9627 C 949.87 -1.28607 1.94891 0
M  V30 9628 C 950.851 -1.49236 0.816245 0
M  V30 9629 O 952.036 -1.61531 1.07803 0
M  V30 9630 C 949.166 -2.63719 2.25986 0
M  V30 9631 C 948.12 -2.57757 3.4168 0
M  V30 9632 C 947.446 -3.96837 3.58364 0
M  V30 9633 C 948.746 -2.13116 4.76843 0
M  V30 9634 H 950.44 -0.962531 2.83506 0
M  V30 9635 H 947.986 -0.461577 1.36402 0
M  V30 9636 H 949.939 -3.37878 2.51826 0
M  V30 9637 H 948.663 -2.97747 1.34217 0
M  V30 9638 H 947.322 -1.86055 3.15878 0
M  V30 9639 H 946.97 -4.28162 2.63982 0
M  V30 9640 H 946.67 -3.93731 4.36176 0
M  V30 9641 H 948.194 -4.72668 3.86545 0
M  V30 9642 H 949.608 -2.77015 5.01932 0
M  V30 9643 H 948.005 -2.21083 5.57891 0
M  V30 9644 H 949.075 -1.08326 4.72645 0
M  V30 9645 N 950.418 -1.49637 -0.494624 0
M  V30 9646 C 951.829 -1.52573 -1.07603 0
M  V30 9647 C 952.18 -0.315591 -1.93645 0
M  V30 9648 O 951.305 0.573966 -2.08649 0
M  V30 9649 C 951.9 -2.7648 -1.95817 0
M  V30 9650 C 950.459 -2.82173 -2.49109 0
M  V30 9651 C 949.606 -2.4657 -1.2688 0
M  V30 9652 H 952.557 -1.56242 -0.278251 0
M  V30 9653 H 952.578 -2.57003 -2.80588 0
M  V30 9654 H 952.09 -3.64538 -1.33167 0
M  V30 9655 H 950.191 -1.9841 -3.15379 0
M  V30 9656 H 950.304 -3.84501 -2.85825 0
M  V30 9657 H 948.668 -1.98489 -1.59607 0
M  V30 9658 H 949.451 -3.3691 -0.659281 0
M  V30 9659 N 951.896 0.746133 -1.38819 0
M  V30 9660 C 952.826 1.87344 -1.39372 0
M  V30 9661 C 953.807 1.68123 -0.258583 0
M  V30 9662 O 954.992 1.88606 -0.462769 0
M  V30 9663 C 952.122 3.24962 -1.22543 0
M  V30 9664 C 951.076 3.58799 -2.33339 0
M  V30 9665 C 950.402 4.95235 -2.01609 0
M  V30 9666 C 951.702 3.62911 -3.75624 0
M  V30 9667 H 953.396 1.87138 -2.33709 0
M  V30 9668 H 950.942 0.898937 -1.12495 0
M  V30 9669 H 952.895 4.03488 -1.21554 0
M  V30 9670 H 951.619 3.25667 -0.246707 0
M  V30 9671 H 950.278 2.82596 -2.33527 0
M  V30 9672 H 949.926 4.92508 -1.02202 0
M  V30 9673 H 949.626 5.18843 -2.75819 0
M  V30 9674 H 951.15 5.76131 -2.02251 0
M  V30 9675 H 952.564 4.31535 -3.77426 0
M  V30 9676 H 950.961 3.98031 -4.491 0
M  V30 9677 H 952.031 2.62967 -4.07402 0
M  V30 9678 N 953.375 1.23811 0.975125 0
M  V30 9679 C 954.338 1.02505 2.05001 0
M  V30 9680 C 955.338 -0.0150084 1.60793 0
M  V30 9681 O 956.528 0.225246 1.72738 0
M  V30 9682 C 953.66 0.552087 3.364 0
M  V30 9683 H 954.853 1.979 2.25335 0
M  V30 9684 H 952.406 1.05929 1.1493 0
M  V30 9685 H 953.141 -0.405394 3.21756 0
M  V30 9686 H 952.926 1.30267 3.69828 0
M  V30 9687 H 954.416 0.423828 4.15444 0
M  V30 9688 N 954.853 -1.17469 1.05066 0
M  V30 9689 C 956.1 -1.87698 0.759987 0
M  V30 9690 C 956.428 -1.80964 -0.712902 0
M  V30 9691 O 955.683 -1.21146 -1.53695 0
M  V30 9692 C 955.982 -3.37211 1.18421 0
M  V30 9693 C 955.648 -3.64148 2.65909 0
M  V30 9694 C 954.31 -3.71209 3.06199 0
M  V30 9695 C 956.662 -3.75724 3.61222 0
M  V30 9696 C 953.99 -3.87334 4.40669 0
M  V30 9697 C 956.342 -3.93368 4.95424 0
M  V30 9698 C 955.006 -3.98667 5.3537 0
M  V30 9699 H 954.276 -0.686835 0.278099 0
M  V30 9700 H 956.923 -1.38975 1.31751 0
M  V30 9701 H 955.228 -3.87982 0.545654 0
M  V30 9702 H 956.925 -3.89911 0.936518 0
M  V30 9703 H 953.515 -3.59276 2.33707 0
M  V30 9704 H 957.699 -3.69591 3.31235 0
M  V30 9705 H 952.955 -3.89685 4.71122 0
M  V30 9706 H 957.129 -4.01267 5.69173 0
M  V30 9707 H 954.756 -4.10915 6.39572 0
M  V30 9708 N 956.331 -0.831506 -1.3388 0
M  V30 9709 C 957.559 -0.436925 -2.02234 0
M  V30 9710 C 957.974 0.959689 -1.6259 0
M  V30 9711 O 957.331 1.62248 -0.835576 0
M  V30 9712 C 957.382 -0.539429 -3.57453 0
M  V30 9713 O 957.103 -1.88101 -3.95664 0
M  V30 9714 C 958.604 -0.140852 -4.43076 0
M  V30 9715 H 955.824 -0.174302 -0.647966 0
M  V30 9716 H 958.368 -1.12204 -1.70969 0
M  V30 9717 H 956.523 0.0976959 -3.87277 0
M  V30 9718 H 956.937 -1.86131 -4.90363 0
M  V30 9719 H 958.411 -0.26364 -5.5137 0
M  V30 9720 H 958.888 0.916505 -4.29531 0
M  V30 9721 H 959.494 -0.752117 -4.18597 0
M  V30 9722 N 957.809 1.4625 -0.587256 0
M  V30 9723 C 958.741 2.28482 0.181256 0
M  V30 9724 C 959.754 1.38777 0.851163 0
M  V30 9725 O 960.943 1.63336 0.719963 0
M  V30 9726 C 958.043 3.13944 1.27643 0
M  V30 9727 C 957.216 4.31802 0.697569 0
M  V30 9728 C 956.275 4.98626 1.68102 0
M  V30 9729 O 955.301 5.56075 1.21529 0
M  V30 9730 N 956.503 4.96051 3.0152 0
M  V30 9731 H 959.268 2.95079 -0.524267 0
M  V30 9732 H 956.829 1.56213 -0.425336 0
M  V30 9733 H 958.821 3.55513 1.93371 0
M  V30 9734 H 957.391 2.49391 1.88475 0
M  V30 9735 H 956.611 3.93961 -0.137293 0
M  V30 9736 H 957.899 5.07969 0.290696 0
M  V30 9737 H 957.297 4.5063 3.41978 0
M  V30 9738 H 955.854 5.41547 3.62725 0
M  V30 9739 N 959.287 0.325282 1.54207 0
M  V30 9740 C 960.234 -0.539889 2.24397 0
M  V30 9741 C 961.204 -1.11028 1.2354 0
M  V30 9742 O 962.389 -1.1503 1.52226 0
M  V30 9743 C 959.529 -1.69405 3.00659 0
M  V30 9744 C 958.642 -1.15273 4.16337 0
M  V30 9745 C 957.777 -2.27272 4.80126 0
M  V30 9746 C 956.816 -1.70397 5.87904 0
M  V30 9747 N 955.953 -2.76065 6.45548 0
M  V30 9748 H 960.793 0.0652318 2.97929 0
M  V30 9749 H 958.33 0.043964 1.47034 0
M  V30 9750 H 960.288 -2.37325 3.43122 0
M  V30 9751 H 958.918 -2.27043 2.29458 0
M  V30 9752 H 957.97 -0.365034 3.78645 0
M  V30 9753 H 959.282 -0.696576 4.93912 0
M  V30 9754 H 958.436 -3.03092 5.25566 0
M  V30 9755 H 957.175 -2.76224 4.01935 0
M  V30 9756 H 956.18 -0.930752 5.41864 0
M  V30 9757 H 957.405 -1.22319 6.67993 0
M  V30 9758 H 955.351 -3.24306 5.7023 0
M  V30 9759 H 955.268 -2.35018 7.18542 0
M  V30 9760 H 956.536 -3.5171 6.95644 0
M  V30 9761 N 960.765 -1.57509 0.0534917 0
M  V30 9762 C 961.993 -1.97098 -0.629298 0
M  V30 9763 C 962.408 -0.931128 -1.64242 0
M  V30 9764 O 961.765 0.0843866 -1.82305 0
M  V30 9765 C 961.816 -3.36767 -1.31415 0
M  V30 9766 O 961.537 -4.36766 -0.341599 0
M  V30 9767 C 963.038 -3.91127 -2.08649 0
M  V30 9768 H 960.258 -0.648611 -0.171886 0
M  V30 9769 H 962.802 -2.04145 0.120479 0
M  V30 9770 H 960.957 -3.30863 -2.01515 0
M  V30 9771 H 961.371 -5.1788 -0.830715 0
M  V30 9772 H 962.845 -4.91129 -2.51985 0
M  V30 9773 H 963.322 -3.26679 -2.9356 0
M  V30 9774 H 963.928 -4.00376 -1.43456 0
M  V30 9775 N 962.243 0.219913 -1.56058 0
M  V30 9776 C 963.492 0.942119 -1.78345 0
M  V30 9777 C 963.805 1.85435 -0.622344 0
M  V30 9778 O 965.011 2.61533 -0.728886 0
M  V30 9779 C 963.467 1.72544 -3.15843 0
M  V30 9780 C 963.075 0.859263 -4.39682 0
M  V30 9781 C 964.819 2.43876 -3.47455 0
M  V30 9782 C 962.726 1.64003 -5.68205 0
M  V30 9783 H 961.656 0.355514 -0.664925 0
M  V30 9784 H 964.307 0.195963 -1.82451 0
M  V30 9785 H 962.689 2.51456 -3.05918 0
M  V30 9786 H 963.863 0.110562 -4.60667 0
M  V30 9787 H 962.178 0.257985 -4.156 0
M  V30 9788 H 964.775 3.02794 -4.40704 0
M  V30 9789 H 965.118 3.16843 -2.7003 0
M  V30 9790 H 965.651 1.71952 -3.58716 0
M  V30 9791 H 962.39 0.953606 -6.48526 0
M  V30 9792 H 961.91 2.3633 -5.51279 0
M  V30 9793 H 963.589 2.20028 -6.08438 0
M  V30 9794 N 963.721 1.49897 0.486681 0
M  V30 9795 C 964.998 1.50614 1.24799 0
M  V30 9796 C 965.378 0.24193 2.09709 0
M  V30 9797 O 964.726 -0.775237 2.14947 0
M  V30 9798 C 964.936 2.79318 2.09243 0
M  V30 9799 C 966.284 3.29371 2.67955 0
M  V30 9800 O 967.308 2.80533 2.19499 0
M  V30 9801 O 966.167 4.14466 3.56202 0
M  V30 9802 H 963.261 0.603447 0.565491 0
M  V30 9803 H 965.807 1.62174 0.499778 0
M  V30 9804 H 964.579 3.62812 1.46572 0
M  V30 9805 H 964.202 2.70687 2.91229 0
M  V30 9806 N 965.199 -0.738761 1.39212 0
M  V30 9807 C 966.615 -1.04381 1.20734 0
M  V30 9808 C 966.815 -2.01391 0.0663082 0
M  V30 9809 O 965.871 -2.45672 -0.583229 0
M  V30 9810 C 967.184 -1.6097 2.53987 0
M  V30 9811 C 968.732 -1.73069 2.60799 0
M  V30 9812 C 969.207 -2.33067 3.94264 0
M  V30 9813 N 970.698 -2.40481 3.95883 0
M  V30 9814 C 971.433 -2.87834 4.95923 0
M  V30 9815 N 970.929 -3.35111 6.0636 0
M  V30 9816 N 972.722 -2.87009 4.83304 0
M  V30 9817 H 964.873 -0.0952996 2.12186 0
M  V30 9818 H 967.136 -0.104902 0.942178 0
M  V30 9819 H 966.842 -0.971548 3.38015 0
M  V30 9820 H 966.716 -2.59829 2.73439 0
M  V30 9821 H 969.103 -2.36007 1.77157 0
M  V30 9822 H 969.184 -0.728728 2.452 0
M  V30 9823 H 968.828 -1.70758 4.78335 0
M  V30 9824 H 968.758 -3.33933 4.07181 0
M  V30 9825 H 971.249 -2.07061 3.16123 0
M  V30 9826 H 971.562 -3.69742 6.78609 0
M  V30 9827 H 969.907 -3.33129 6.09959 0
M  V30 9828 H 973.098 -2.49395 3.96131 0
M  V30 9829 H 973.271 -3.23598 5.61416 0
M  V30 9830 N 966.677 -1.24326 -0.968545 0
M  V30 9831 C 967.607 -1.05951 -2.08079 0
M  V30 9832 C 968.588 0.0272666 -1.70078 0
M  V30 9833 O 969.773 -0.139644 -1.93697 0
M  V30 9834 C 966.903 -0.662623 -3.4092 0
M  V30 9835 C 965.857 -1.69807 -3.92873 0
M  V30 9836 C 965.183 -1.15628 -5.22048 0
M  V30 9837 C 966.483 -3.09383 -4.20808 0
M  V30 9838 H 968.177 -1.98984 -2.23709 0
M  V30 9839 H 965.723 -0.958112 -1.075 0
M  V30 9840 H 967.676 -0.521071 -4.18166 0
M  V30 9841 H 966.4 0.303399 -3.25188 0
M  V30 9842 H 965.059 -1.82783 -3.17783 0
M  V30 9843 H 964.707 -0.180888 -5.02675 0
M  V30 9844 H 964.407 -1.84822 -5.57776 0
M  V30 9845 H 965.931 -1.02683 -6.01904 0
M  V30 9846 H 967.345 -2.99642 -4.88761 0
M  V30 9847 H 965.742 -3.75923 -4.67763 0
M  V30 9848 H 966.812 -3.57486 -3.27616 0
M  V30 9849 N 968.156 1.1691 -1.05688 0
M  V30 9850 C 969.119 2.19297 -0.666433 0
M  V30 9851 C 970.119 1.5826 0.284674 0
M  V30 9852 O 971.309 1.74068 0.0678757 0
M  V30 9853 C 968.441 3.40894 0.0203656 0
M  V30 9854 H 969.634 2.55354 -1.57272 0
M  V30 9855 H 967.187 1.31078 -0.851359 0
M  V30 9856 H 967.922 3.10388 0.939686 0
M  V30 9857 H 967.707 3.86446 -0.663464 0
M  V30 9858 H 969.197 4.16664 0.279475 0
M  V30 9859 N 969.634 0.838594 1.33437 0
M  V30 9860 C 970.882 0.433312 1.974 0
M  V30 9861 C 971.203 -1.01078 1.66758 0
M  V30 9862 O 970.473 -1.70406 0.966373 0
M  V30 9863 H 969.053 0.15724 0.730263 0
M  V30 9864 H 971.715 1.07149 1.62804 0
M  V30 9865 H 970.811 0.565144 3.06941 0
M  V30 9866 N 971.112 -1.45937 0.595003 0
M  V30 9867 C 972.059 -2.30427 -0.131165 0
M  V30 9868 C 973.029 -1.41355 -0.872232 0
M  V30 9869 O 974.214 -1.70296 -0.860467 0
M  V30 9870 C 971.354 -3.26045 -1.13087 0
M  V30 9871 C 970.467 -4.30218 -0.391982 0
M  V30 9872 C 969.602 -5.12953 -1.3803 0
M  V30 9873 C 968.641 -6.08865 -0.628505 0
M  V30 9874 N 967.778 -6.84425 -1.56548 0
M  V30 9875 H 972.618 -2.91992 0.595359 0
M  V30 9876 H 970.155 -1.43895 0.305405 0
M  V30 9877 H 972.113 -3.79937 -1.72348 0
M  V30 9878 H 970.743 -2.66261 -1.82496 0
M  V30 9879 H 969.795 -3.79086 0.315895 0
M  V30 9880 H 971.107 -4.98418 0.195173 0
M  V30 9881 H 970.261 -5.71184 -2.04534 0
M  V30 9882 H 969 -4.44743 -2.00138 0
M  V30 9883 H 968.005 -5.49777 0.0502431 0
M  V30 9884 H 969.23 -6.79099 -0.012641 0
M  V30 9885 H 967.176 -6.18913 -2.17444 0
M  V30 9886 H 967.093 -7.48931 -1.03145 0
M  V30 9887 H 968.361 -7.47204 -2.22049 0
M  V30 9888 N 972.59 -0.333456 -1.54032 0
M  V30 9889 C 974.001 0.15256 -1.86076 0
M  V30 9890 C 974.352 1.50819 -1.25492 0
M  V30 9891 O 973.477 2.08903 -0.564665 0
M  V30 9892 C 974.072 0.283599 -3.37611 0
M  V30 9893 C 972.631 0.713841 -3.69569 0
M  V30 9894 C 971.778 -0.158515 -2.76847 0
M  V30 9895 H 974.729 -0.553404 -1.48738 0
M  V30 9896 H 974.75 1.11284 -3.63863 0
M  V30 9897 H 974.262 -0.703193 -3.81676 0
M  V30 9898 H 972.363 1.71002 -3.31042 0
M  V30 9899 H 972.476 0.510731 -4.7637 0
M  V30 9900 H 970.84 0.367531 -2.52034 0
M  V30 9901 H 971.623 -1.14226 -3.2374 0
M  V30 9902 N 974.068 1.57479 -0.061844 0
M  V30 9903 C 975.296 1.97429 0.618837 0
M  V30 9904 C 975.711 0.939826 1.63746 0
M  V30 9905 O 975.068 -0.0747173 1.82347 0
M  V30 9906 C 975.119 3.3746 1.29628 0
M  V30 9907 O 974.84 4.36941 0.318431 0
M  V30 9908 C 976.341 3.92228 2.06572 0
M  V30 9909 H 973.561 0.649513 0.168444 0
M  V30 9910 H 976.105 2.04078 -0.131303 0
M  V30 9911 H 974.26 3.31928 1.99757 0
M  V30 9912 H 974.674 5.18313 0.803239 0
M  V30 9913 H 976.148 4.92458 2.49377 0
M  V30 9914 H 976.625 3.28231 2.91824 0
M  V30 9915 H 977.231 4.01131 1.4133 0
M  V30 9916 N 975.546 -0.211634 1.56173 0
M  V30 9917 C 976.496 -1.26602 1.8962 0
M  V30 9918 C 977.48 -1.41808 0.760222 0
M  V30 9919 O 978.672 -1.44456 1.02281 0
M  V30 9920 C 975.801 -2.61438 2.22497 0
M  V30 9921 C 974.887 -2.50094 3.42511 0
M  V30 9922 N 975.278 -2.0841 4.60868 0
M  V30 9923 C 973.576 -2.81028 3.46322 0
M  V30 9924 C 974.277 -2.08557 5.43028 0
M  V30 9925 N 973.253 -2.49427 4.82998 0
M  V30 9926 H 977.055 -0.934806 2.78637 0
M  V30 9927 H 974.569 -0.420154 1.56871 0
M  V30 9928 H 976.566 -3.37577 2.44638 0
M  V30 9929 H 975.226 -2.95397 1.34798 0
M  V30 9930 H 976.237 -1.79382 4.85842 0
M  V30 9931 H 972.914 -3.19294 2.68994 0
M  V30 9932 H 974.304 -1.7837 6.47791 0
M  V30 9933 N 977.024 -1.50153 -0.478725 0
M  V30 9934 C 978.27 -1.60998 -1.23318 0
M  V30 9935 C 978.603 -0.305868 -1.91776 0
M  V30 9936 O 977.878 0.692158 -1.81767 0
M  V30 9937 C 978.161 -2.78495 -2.28282 0
M  V30 9938 C 978.014 -4.18767 -1.64178 0
M  V30 9939 C 979.333 -2.91569 -3.2966 0
M  V30 9940 H 976.452 -0.585983 -0.446982 0
M  V30 9941 H 979.094 -1.82514 -0.528063 0
M  V30 9942 H 977.244 -2.60281 -2.8842 0
M  V30 9943 H 978.916 -4.48552 -1.07696 0
M  V30 9944 H 977.159 -4.23379 -0.94514 0
M  V30 9945 H 977.83 -4.96894 -2.40417 0
M  V30 9946 H 980.306 -3.08219 -2.79536 0
M  V30 9947 H 979.182 -3.75419 -4.0044 0
M  V30 9948 H 979.443 -2.01859 -3.93326 0
M  V30 9949 N 978.502 0.731368 -1.39602 0
M  V30 9950 C 979.45 1.86676 -1.38761 0
M  V30 9951 C 980.444 1.6723 -0.270247 0
M  V30 9952 O 981.65 1.74528 -0.440471 0
M  V30 9953 H 978.025 0.614553 -0.433391 0
M  V30 9954 H 979.996 1.84501 -2.34525 0
M  V30 9955 C 978.745 3.24394 -1.25155 0
M  V30 9956 H 978.068 3.39955 -2.10406 0
M  V30 9957 H 979.508 4.04019 -1.28625 0
M  V30 9958 C 977.967 3.36877 0.0396976 0
M  V30 9959 O 978.497 3.88833 1.00854 0
M  V30 9960 N 976.703 2.90414 0.103965 0
M  V30 9961 H 976.25 2.48321 -0.685155 0
M  V30 9962 H 976.208 2.99146 0.967435 0
M  V30 9963 N 979.98 1.24838 0.961938 0
M  V30 9964 C 981.226 1.09313 1.70817 0
M  V30 9965 C 981.559 -0.366244 1.90715 0
M  V30 9966 O 980.834 -1.27036 1.47282 0
M  V30 9967 C 981.117 1.83988 3.09549 0
M  V30 9968 C 980.97 3.3771 2.97106 0
M  V30 9969 C 982.289 1.61718 4.09311 0
M  V30 9970 H 979.408 0.398498 0.619974 0
M  V30 9971 H 982.05 1.53579 1.11864 0
M  V30 9972 H 980.2 1.46363 3.59875 0
M  V30 9973 H 981.872 3.84967 2.54161 0
M  V30 9974 H 980.115 3.65795 2.33187 0
M  V30 9975 H 980.786 3.85166 3.95412 0
M  V30 9976 H 983.262 1.94458 3.67866 0
M  V30 9977 H 982.138 2.16415 5.04436 0
M  V30 9978 H 982.399 0.55677 4.3858 0
M  V30 9979 N 981.458 -1.16348 1.06306 0
M  V30 9980 C 982.683 -1.91323 0.800636 0
M  V30 9981 C 983.108 -1.7691 -0.639105 0
M  V30 9982 O 982.466 -1.0945 -1.44535 0
M  V30 9983 C 982.514 -3.40038 1.20027 0
M  V30 9984 O 981.618 -4.11003 0.339142 0
M  V30 9985 H 980.959 -0.596057 0.292595 0
M  V30 9986 H 983.489 -1.47406 1.41889 0
M  V30 9987 H 983.499 -3.90808 1.17188 0
M  V30 9988 H 982.174 -3.49848 2.24898 0
M  V30 9989 H 980.751 -3.70423 0.42911 0
M  V30 9990 N 982.937 -0.845659 -1.3299 0
M  V30 9991 C 984.183 -0.445311 -1.9785 0
M  V30 9992 C 984.516 0.994476 -1.66805 0
M  V30 9993 O 983.791 1.69636 -0.95151 0
M  V30 9994 C 984.074 -0.674371 -3.53729 0
M  V30 9995 C 983.927 -2.16192 -3.94437 0
M  V30 9996 C 985.246 -0.124908 -4.39923 0
M  V30 9997 H 982.365 -0.163269 -0.718688 0
M  V30 9998 H 985.007 -1.06242 -1.5752 0
M  V30 9999 H 983.157 -0.149091 -3.88214 0
M  V30 10000 H 984.829 -2.75259 -3.70176 0
M  V30 10001 H 983.072 -2.64386 -3.43922 0
M  V30 10002 H 983.743 -2.27292 -5.03033 0
M  V30 10003 H 986.219 -0.573986 -4.12122 0
M  V30 10004 H 985.095 -0.314816 -5.47996 0
M  V30 10005 H 985.356 0.971758 -4.31288 0
M  V30 10006 N 984.415 1.45619 -0.602734 0
M  V30 10007 C 985.661 2.02572 -0.0961759 0
M  V30 10008 C 985.994 1.47076 1.26815 0
M  V30 10009 O 985.269 0.643566 1.83544 0
M  V30 10010 C 985.552 3.60062 -0.0520032 0
M  V30 10011 C 985.405 4.25901 -1.44665 0
M  V30 10012 C 986.724 4.35446 0.638342 0
M  V30 10013 H 983.843 0.736099 -0.0364238 0
M  V30 10014 H 986.485 1.7353 -0.773776 0
M  V30 10015 H 984.635 3.84936 0.525032 0
M  V30 10016 H 986.307 4.12228 -2.0704 0
M  V30 10017 H 984.55 3.84489 -2.00874 0
M  V30 10018 H 985.221 5.34779 -1.36803 0
M  V30 10019 H 987.697 4.15837 0.147926 0
M  V30 10020 H 986.573 5.45176 0.63834 0
M  V30 10021 H 986.834 4.07962 1.70351 0
M  V30 10022 N 985.893 0.34162 1.53853 0
M  V30 10023 C 986.826 -0.559051 2.21246 0
M  V30 10024 C 987.804 -1.10179 1.1958 0
M  V30 10025 O 988.988 -1.16242 1.48392 0
M  V30 10026 C 986.115 -1.7689 2.88838 0
M  V30 10027 C 985.161 -1.3558 4.04377 0
M  V30 10028 S 985.994 -0.377225 5.3417 0
M  V30 10029 C 987.15 -1.59395 6.05264 0
M  V30 10030 H 987.383 0.013373 2.97297 0
M  V30 10031 H 984.916 0.125694 1.53888 0
M  V30 10032 H 986.874 -2.463 3.284 0
M  V30 10033 H 985.535 -2.31254 2.12557 0
M  V30 10034 H 984.728 -2.25781 4.50599 0
M  V30 10035 H 984.33 -0.741197 3.66582 0
M  V30 10036 H 986.622 -2.52872 6.2854 0
M  V30 10037 H 987.565 -1.17356 6.98307 0
M  V30 10038 H 987.973 -1.78913 5.35397 0
M  V30 10039 N 987.371 -1.57444 0.0701946 0
M  V30 10040 C 988.334 -2.11511 -0.882923 0
M  V30 10041 C 989.334 -1.03879 -1.22743 0
M  V30 10042 O 990.524 -1.29874 -1.16097 0
M  V30 10043 C 987.656 -2.61514 -2.18686 0
M  V30 10044 H 988.849 -2.9703 -0.413873 0
M  V30 10045 H 986.402 -1.55278 -0.178488 0
M  V30 10046 H 987.137 -1.79443 -2.70131 0
M  V30 10047 H 986.922 -3.40185 -1.94978 0
M  V30 10048 H 988.412 -3.03425 -2.86919 0
M  V30 10049 N 988.849 0.203349 -1.56283 0
M  V30 10050 C 989.759 1.27266 -1.9708 0
M  V30 10051 C 990.775 1.50268 -0.877236 0
M  V30 10052 O 991.951 1.63044 -1.18231 0
M  V30 10053 C 989.016 2.59871 -2.29495 0
M  V30 10054 C 988.077 2.45012 -3.52516 0
M  V30 10055 C 987.31 3.71293 -3.83376 0
M  V30 10056 O 987.533 4.75106 -3.15643 0
M  V30 10057 O 986.467 3.67316 -4.76826 0
M  V30 10058 H 990.293 0.956461 -2.88246 0
M  V30 10059 H 987.878 0.407688 -1.4373 0
M  V30 10060 H 989.76 3.38152 -2.51458 0
M  V30 10061 H 988.435 2.91135 -1.415 0
M  V30 10062 H 987.342 1.6487 -3.35811 0
M  V30 10063 H 988.675 2.18683 -4.40952 0
M  V30 10064 N 990.327 1.50405 0.470755 0
M  V30 10065 C 991.573 1.6165 1.22462 0
M  V30 10066 C 991.906 0.316034 1.91611 0
M  V30 10067 O 991.181 -0.682509 1.82132 0
M  V30 10068 C 991.464 2.79702 2.26801 0
M  V30 10069 C 991.317 4.19631 1.61955 0
M  V30 10070 C 992.636 2.93313 3.28109 0
M  V30 10071 H 989.755 0.588345 0.443868 0
M  V30 10072 H 992.397 1.82792 0.518376 0
M  V30 10073 H 990.547 2.61807 2.87036 0
M  V30 10074 H 992.219 4.49117 1.05316 0
M  V30 10075 H 990.462 4.23874 0.922674 0
M  V30 10076 H 991.133 4.98162 2.37779 0
M  V30 10077 H 993.609 3.09697 2.77897 0
M  V30 10078 H 992.485 3.77537 3.98443 0
M  V30 10079 H 992.746 2.03942 3.9225 0
M  V30 10080 N 991.805 -0.723954 1.39988 0
M  V30 10081 C 993.082 -1.4763 1.28316 0
M  V30 10082 C 993.462 -2.10852 -0.102302 0
M  V30 10083 O 992.81 -1.9948 -1.11445 0
M  V30 10084 C 993.02 -2.51878 2.41574 0
M  V30 10085 C 994.368 -3.17948 2.81415 0
M  V30 10086 O 995.392 -2.62195 2.41106 0
M  V30 10087 O 994.251 -4.18858 3.51027 0
M  V30 10088 H 991.345 -0.656092 0.50346 0
M  V30 10089 H 993.891 -0.75684 1.51888 0
M  V30 10090 H 992.663 -2.03618 3.34149 0
M  V30 10091 H 992.286 -3.3137 2.19727 0
M  V30 10092 N 993.283 -1.25346 -0.955304 0
M  V30 10093 C 994.531 -1.09837 -1.69647 0
M  V30 10094 C 994.852 0.361425 -1.91621 0
M  V30 10095 O 994.122 1.25666 -1.50283 0
M  V30 10096 H 992.702 -0.403467 -0.628668 0
M  V30 10097 H 995.364 -1.57459 -1.14859 0
M  V30 10098 H 994.46 -1.60616 -2.67598 0
M  V30 10099 N 994.761 1.15782 -1.06922 0
M  V30 10100 C 995.989 1.90355 -0.81072 0
M  V30 10101 C 996.404 1.77779 0.635614 0
M  V30 10102 O 995.761 1.12675 1.43564 0
M  V30 10103 C 995.812 3.4085 -1.2043 0
M  V30 10104 O 995.533 3.53057 -2.59388 0
M  V30 10105 C 997.034 4.32457 -0.974473 0
M  V30 10106 H 994.254 0.60343 -0.293451 0
M  V30 10107 H 996.798 1.46723 -1.42452 0
M  V30 10108 H 994.953 3.82162 -0.634909 0
M  V30 10109 H 995.367 4.46426 -2.75326 0
M  V30 10110 H 996.841 5.36488 -1.29942 0
M  V30 10111 H 997.318 4.39109 0.0894481 0
M  V30 10112 H 997.924 3.96882 -1.52856 0
M  V30 10113 N 996.239 0.8527 1.3254 0
M  V30 10114 C 997.479 0.461385 1.99125 0
M  V30 10115 C 997.843 -0.964507 1.66016 0
M  V30 10116 O 999.044 -1.46027 2.25676 0
M  V30 10117 C 997.315 0.69143 3.50648 0
M  V30 10118 S 998.874 0.397397 4.36997 0
M  V30 10119 H 995.692 0.172933 0.689649 0
M  V30 10120 H 998.294 1.10499 1.61277 0
M  V30 10121 H 996.998 1.72831 3.72233 0
M  V30 10122 H 996.529 0.0341812 3.93385 0
M  V30 10123 H 998.544 -0.777363 4.90073 0
M  V30 10124 N 997.718 -1.45297 0.610449 0
M  V30 10125 C 998.948 -2.0629 0.113047 0
M  V30 10126 C 999.356 -1.45527 -1.20907 0
M  V30 10127 O 998.699 -0.564837 -1.74801 0
M  V30 10128 C 998.761 -3.59366 -0.0979692 0
M  V30 10129 C 998.425 -4.42481 1.14279 0
M  V30 10130 C 999.422 -4.77277 2.06161 0
M  V30 10131 C 997.107 -4.83187 1.37241 0
M  V30 10132 C 999.101 -5.51639 3.19333 0
M  V30 10133 C 996.788 -5.57303 2.50713 0
M  V30 10134 C 997.786 -5.91445 3.41587 0
M  V30 10135 O 997.474 -6.64056 4.53083 0
M  V30 10136 H 997.206 -0.67264 0.0673159 0
M  V30 10137 H 999.76 -1.87486 0.838937 0
M  V30 10138 H 997.99 -3.76582 -0.878783 0
M  V30 10139 H 999.679 -4.02193 -0.547327 0
M  V30 10140 H 1000.44 -4.46384 1.89647 0
M  V30 10141 H 996.324 -4.56045 0.67407 0
M  V30 10142 H 999.868 -5.78207 3.90286 0
M  V30 10143 H 995.765 -5.8761 2.67179 0
M  V30 10144 H 996.533 -6.82509 4.51801 0
M  V30 10145 O 999.235 -0.491964 -1.53824 0
M  V30 10146 H 999.926 0.0280053 -1.9368 0
M  V30 END ATOM
M  V30 BEGIN BOND
M  V30 END BOND
M  V30 END CTAB
M  END
$$$$
