drugbank_target|P10644 cAMP-dependent protein kinase type I-alpha regulatory subunit (DB01790; DB02315; DB02527; DB05798)
 OpenBabel12092120323D

  0  0  0     0  0            999 V3000
M  V30 BEGIN CTAB
M  V30 COUNTS 6035 6086 0 0 0
M  V30 BEGIN ATOM
M  V30 1 H -0.908 1.98254 -0.117106 0
M  V30 2 N 0 1.576 0 0
M  V30 3 C 0.933 2.03868 1.02534 0
M  V30 4 C 1.911 0.928543 1.3348 0
M  V30 5 O 3.095 1.19667 1.45644 0
M  V30 6 C 0.222 2.43627 2.35294 0
M  V30 7 C -0.732 3.65373 2.2001 0
M  V30 8 S 0.101 5.13292 1.52614 0
M  V30 9 C 1.257 5.56322 2.86805 0
M  V30 10 H 1.49 2.90518 0.631377 0
M  V30 11 H -0.977 1.52953 0.210867 0
M  V30 12 H 0.981 2.67203 3.11629 0
M  V30 13 H -0.358 1.57376 2.7183 0
M  V30 14 H -1.165 3.90944 3.18086 0
M  V30 15 H -1.563 3.418 1.51819 0
M  V30 16 H 0.729 5.58782 3.83104 0
M  V30 17 H 1.672 6.56266 2.65933 0
M  V30 18 H 2.08 4.83886 2.90714 0
M  V30 19 N 1.4781 -0.272755 1.55222 0
M  V30 20 C 2.3881 -1.35918 1.91216 0
M  V30 21 C 3.4041 -1.54026 0.809436 0
M  V30 22 O 4.5801 -1.68148 1.10852 0
M  V30 23 C 1.6451 -2.69834 2.17693 0
M  V30 24 C 0.7061 -2.6047 3.41253 0
M  V30 25 C -0.0609 -3.88 3.66458 0
M  V30 26 O 0.1621 -4.88693 2.94169 0
M  V30 27 O -0.9039 -3.88189 4.59992 0
M  V30 28 H 2.9221 -1.0839 2.83699 0
M  V30 29 H 0.5071 -0.471301 1.41771 0
M  V30 30 H 2.3891 -3.49017 2.36147 0
M  V30 31 H 1.0641 -2.97148 1.28392 0
M  V30 32 H -0.0289 -1.79663 3.28134 0
M  V30 33 H 1.3041 -2.38106 4.30774 0
M  V30 34 N 2.9562 -1.48159 -0.537278 0
M  V30 35 C 4.1812 -1.59707 -1.32319 0
M  V30 36 C 4.6062 -0.254859 -1.86365 0
M  V30 37 O 3.9642 0.772378 -1.64024 0
M  V30 38 C 4.0122 -2.6412 -2.45505 0
M  V30 39 O 3.1162 -2.20774 -3.48328 0
M  V30 40 H 2.4572 -0.535791 -0.392204 0
M  V30 41 H 4.9872 -1.94092 -0.647268 0
M  V30 42 H 4.9972 -2.85166 -2.91795 0
M  V30 43 H 3.6722 -3.61567 -2.05528 0
M  V30 44 H 2.2492 -2.09911 -3.08207 0
M  V30 45 N 4.4343 0.785586 -1.36625 0
M  V30 46 C 5.6823 1.54057 -1.30808 0
M  V30 47 C 6.0033 1.94683 0.111157 0
M  V30 48 O 5.2733 1.65241 1.05224 0
M  V30 49 H 3.8533 0.571354 -0.481211 0
M  V30 50 H 6.5153 0.935821 -1.70963 0
M  V30 51 H 5.6113 2.44637 -1.93801 0
M  V30 52 N 5.9124 1.20967 1.01018 0
M  V30 53 C 7.1374 1.0503 1.78839 0
M  V30 54 C 7.5624 -0.395752 1.8389 0
M  V30 55 O 6.9204 -1.28529 1.27867 0
M  V30 56 C 6.9684 1.64602 3.2084 0
M  V30 57 O 6.0724 0.887988 4.02726 0
M  V30 58 H 5.4134 0.369987 0.551367 0
M  V30 59 H 7.9434 1.60399 1.27018 0
M  V30 60 H 7.9534 1.68607 3.71532 0
M  V30 61 H 6.6284 2.69841 3.16479 0
M  V30 62 H 5.2054 0.922648 3.61305 0
M  V30 63 N 7.3905 -1.2043 1.01659 0
M  V30 64 C 8.6185 -1.93777 0.725132 0
M  V30 65 C 9.0335 -1.74772 -0.714166 0
M  V30 66 O 8.3905 -1.06169 -1.4844 0
M  V30 67 C 8.4415 -3.45876 1.05129 0
M  V30 68 O 8.1625 -3.6426 2.43406 0
M  V30 69 C 9.6635 -4.36368 0.780891 0
M  V30 70 H 6.8835 -0.615901 0.266284 0
M  V30 71 H 9.4275 -1.52922 1.35776 0
M  V30 72 H 7.5825 -3.8461 0.464065 0
M  V30 73 H 7.9965 -4.58246 2.55169 0
M  V30 74 H 9.4705 -5.41743 1.05918 0
M  V30 75 H 9.9475 -4.38275 -0.284937 0
M  V30 76 H 10.5535 -4.03296 1.35027 0
M  V30 77 N 8.8686 -0.792821 -1.36206 0
M  V30 78 C 9.8316 -0.199459 -2.2833 0
M  V30 79 C 10.8316 0.605189 -1.48977 0
M  V30 80 O 12.0216 0.425685 -1.68919 0
M  V30 81 C 9.1536 0.723523 -3.33134 0
M  V30 82 H 10.3466 -1.01181 -2.82316 0
M  V30 83 H 7.8996 -0.562485 -1.45828 0
M  V30 84 H 8.6346 1.56008 -2.84309 0
M  V30 85 H 8.4196 0.148436 -3.91819 0
M  V30 86 H 9.9096 1.13344 -4.01924 0
M  V30 87 N 10.3467 1.47872 -0.545128 0
M  V30 88 C 11.3097 2.28337 0.198717 0
M  V30 89 C 12.3097 1.36255 0.853888 0
M  V30 90 O 13.4997 1.59003 0.711606 0
M  V30 91 C 10.6317 3.15585 1.28915 0
M  V30 92 H 11.8247 2.95567 -0.507941 0
M  V30 93 H 9.3777 1.53362 -0.301616 0
M  V30 94 H 10.1127 2.53019 2.02859 0
M  V30 95 H 9.8977 3.83337 0.824309 0
M  V30 96 H 11.3877 3.76243 1.81194 0
M  V30 97 N 11.8248 0.280983 1.55075 0
M  V30 98 C 13.0498 -0.340154 2.04592 0
M  V30 99 C 13.4748 -1.48246 1.15779 0
M  V30 100 O 12.8328 -1.80614 0.15761 0
M  V30 101 C 12.8808 -0.793104 3.5177 0
M  V30 102 O 11.9848 -1.89981 3.66034 0
M  V30 103 H 11.3258 -0.0694289 0.66036 0
M  V30 104 H 13.8558 0.416993 2.00306 0
M  V30 105 H 13.8658 -1.08729 3.93245 0
M  V30 106 H 12.5408 0.0426163 4.15878 0
M  V30 107 H 11.1178 -1.60771 3.36463 0
M  V30 108 N 13.3029 -1.57598 0.00835791 0
M  V30 109 C 14.2129 -2.12385 -0.996487 0
M  V30 110 C 15.2289 -1.07108 -1.37127 0
M  V30 111 O 16.4049 -1.39055 -1.4569 0
M  V30 112 C 13.4699 -2.62314 -2.26699 0
M  V30 113 C 12.5309 -3.82225 -1.95456 0
M  V30 114 C 11.7639 -4.29763 -3.16449 0
M  V30 115 O 11.9869 -3.76584 -4.28416 0
M  V30 116 O 10.9209 -5.21832 -2.99958 0
M  V30 117 H 14.7469 -2.98479 -0.560725 0
M  V30 118 H 12.3319 -1.47903 -0.210987 0
M  V30 119 H 14.2139 -2.94589 -3.01322 0
M  V30 120 H 12.8889 -1.79313 -2.69497 0
M  V30 121 H 11.7959 -3.54909 -1.18282 0
M  V30 122 H 13.1289 -4.66324 -1.57489 0
M  V30 123 N 14.781 0.264519 -1.55364 0
M  V30 124 C 15.691 1.34902 -1.91934 0
M  V30 125 C 16.707 1.53595 -0.817593 0
M  V30 126 O 17.883 1.67558 -1.11742 0
M  V30 127 C 14.948 2.68676 -2.19121 0
M  V30 128 C 14.009 2.58657 -3.4263 0
M  V30 129 C 13.242 3.86051 -3.68511 0
M  V30 130 O 13.465 4.87126 -2.96757 0
M  V30 131 O 12.399 3.85744 -4.62045 0
M  V30 132 H 16.225 1.06883 -2.8427 0
M  V30 133 H 13.81 0.463775 -1.42019 0
M  V30 134 H 15.692 3.47759 -2.37995 0
M  V30 135 H 14.367 2.96463 -1.29966 0
M  V30 136 H 13.274 1.7792 -3.29082 0
M  V30 137 H 14.607 2.35818 -4.32031 0
M  V30 138 N 16.2591 1.48442 0.529413 0
M  V30 139 C 17.2221 1.62524 1.61612 0
M  V30 140 C 18.2221 0.498509 1.52877 0
M  V30 141 O 19.4121 0.76431 1.56537 0
M  V30 142 C 16.5441 1.59597 3.01233 0
M  V30 143 H 17.7371 2.59423 1.50465 0
M  V30 144 H 15.2901 1.37047 0.751514 0
M  V30 145 H 16.0251 0.641781 3.17886 0
M  V30 146 H 15.8101 2.41397 3.08982 0
M  V30 147 H 17.3001 1.72646 3.80241 0
M  V30 148 N 17.7372 -0.778329 1.37039 0
M  V30 149 C 19.1532 -1.07796 1.17695 0
M  V30 150 C 19.3532 -2.01498 0.00860115 0
M  V30 151 O 18.4092 -2.43901 -0.653352 0
M  V30 152 C 19.7222 -1.68178 2.49272 0
M  V30 153 C 21.2702 -1.80467 2.55735 0
M  V30 154 C 21.7452 -2.44263 3.87427 0
M  V30 155 N 23.2362 -2.51721 3.88833 0
M  V30 156 C 23.9712 -3.01919 4.87476 0
M  V30 157 N 23.4672 -3.5234 5.96513 0
M  V30 158 N 25.2602 -3.00733 4.74885 0
M  V30 159 H 17.4112 -0.156032 2.11826 0
M  V30 160 H 19.6742 -0.131844 0.938787 0
M  V30 161 H 19.3802 -1.06796 3.35093 0
M  V30 162 H 19.2542 -2.67554 2.65885 0
M  V30 163 H 21.6412 -2.40984 1.70325 0
M  V30 164 H 21.7222 -0.798656 2.43013 0
M  V30 165 H 21.3662 -1.84388 4.73248 0
M  V30 166 H 21.2962 -3.45458 3.9745 0
M  V30 167 H 23.7872 -2.1603 3.10063 0
M  V30 168 H 24.1002 -3.89027 6.67741 0
M  V30 169 H 22.4452 -3.50462 6.00168 0
M  V30 170 H 25.6362 -2.60638 3.88826 0
M  V30 171 H 25.8092 -3.39545 5.51918 0
M  V30 172 N 19.2153 -1.21501 -1.00376 0
M  V30 173 C 20.4403 -1.05977 -1.78279 0
M  V30 174 C 20.8653 0.385994 -1.84097 0
M  V30 175 O 20.2233 1.27849 -1.28547 0
M  V30 176 C 20.2713 -1.66302 -3.19963 0
M  V30 177 O 19.3753 -0.909333 -4.0225 0
M  V30 178 H 18.7163 -0.372906 -0.549397 0
M  V30 179 H 21.2463 -1.6107 -1.26165 0
M  V30 180 H 21.2563 -1.70574 -3.70632 0
M  V30 181 H 19.9313 -2.71515 -3.15043 0
M  V30 182 H 18.5083 -0.941795 -3.60811 0
M  V30 183 N 20.6934 1.19889 -1.02296 0
M  V30 184 C 21.6234 2.25141 -0.619174 0
M  V30 185 C 22.6044 1.66051 0.368915 0
M  V30 186 O 23.7894 1.92546 0.252941 0
M  V30 187 C 20.9194 3.4728 0.0368783 0
M  V30 188 C 19.8734 4.19005 -0.872865 0
M  V30 189 C 19.1994 5.34637 -0.0822402 0
M  V30 190 C 20.4994 4.74452 -2.18387 0
M  V30 191 H 22.1934 2.59171 -1.49903 0
M  V30 192 H 19.7394 1.24579 -0.722222 0
M  V30 193 H 21.6924 4.20098 0.330958 0
M  V30 194 H 20.4164 3.12433 0.95149 0
M  V30 195 H 19.0754 3.48061 -1.15105 0
M  V30 196 H 18.7234 4.96034 0.83422 0
M  V30 197 H 18.4234 5.83557 -0.688149 0
M  V30 198 H 19.9474 6.10255 0.205238 0
M  V30 199 H 21.3614 5.39055 -1.95172 0
M  V30 200 H 19.7584 5.33834 -2.74119 0
M  V30 201 H 20.8284 3.92844 -2.84257 0
M  V30 202 N 22.1715 0.800033 1.35784 0
M  V30 203 C 23.5875 0.482977 1.52117 0
M  V30 204 C 23.7875 -0.996948 1.75109 0
M  V30 205 O 22.8435 -1.78216 1.78872 0
M  V30 206 C 24.1565 1.32264 2.70049 0
M  V30 207 C 25.7045 1.31742 2.83924 0
M  V30 208 C 26.1795 2.14106 4.04874 0
M  V30 209 N 27.6705 2.11607 4.12039 0
M  V30 210 C 28.4055 2.72099 5.04727 0
M  V30 211 N 27.9015 3.41492 6.02789 0
M  V30 212 N 29.6945 2.61776 4.97423 0
M  V30 213 H 21.8455 1.75856 1.19115 0
M  V30 214 H 24.1085 0.748122 0.582252 0
M  V30 215 H 23.8145 2.37261 2.59616 0
M  V30 216 H 23.6885 0.971303 3.6448 0
M  V30 217 H 26.0755 0.275333 2.93813 0
M  V30 218 H 26.1565 1.70859 1.9037 0
M  V30 219 H 25.8005 3.18351 3.95746 0
M  V30 220 H 25.7305 1.72353 4.97596 0
M  V30 221 H 28.2215 1.61112 3.41835 0
M  V30 222 H 28.5345 3.84953 6.70098 0
M  V30 223 H 26.8795 3.45596 6.02983 0
M  V30 224 H 30.0705 2.07157 4.19766 0
M  V30 225 H 30.2435 3.0921 5.69468 0
M  V30 226 N 23.6496 -1.47581 0.552962 0
M  V30 227 C 24.5596 -2.33743 -0.200353 0
M  V30 228 C 25.5756 -1.47928 -0.916151 0
M  V30 229 O 26.7516 -1.80865 -0.885993 0
M  V30 230 C 23.8166 -3.24536 -1.21973 0
M  V30 231 C 22.8776 -4.26238 -0.511819 0
M  V30 232 C 22.1106 -5.12693 -1.48263 0
M  V30 233 O 22.3336 -5.01525 -2.71714 0
M  V30 234 O 21.2676 -5.93375 -1.00945 0
M  V30 235 H 25.0936 -2.9945 0.506304 0
M  V30 236 H 22.6786 -1.46071 0.313622 0
M  V30 237 H 24.5606 -3.80631 -1.80827 0
M  V30 238 H 23.2356 -2.61462 -1.90839 0
M  V30 239 H 22.1426 -3.73914 0.117799 0
M  V30 240 H 23.4756 -4.92014 0.135308 0
M  V30 241 N 25.1277 -0.289203 -1.54924 0
M  V30 242 C 26.3677 0.324536 -2.01807 0
M  V30 243 C 26.7317 1.5199 -1.17316 0
M  V30 244 O 27.9327 2.20422 -1.53843 0
M  V30 245 C 26.2037 0.683578 -3.50802 0
M  V30 246 S 27.7627 1.28185 -4.19659 0
M  V30 247 H 24.5807 0.100236 -0.703899 0
M  V30 248 H 27.1827 -0.414325 -1.91059 0
M  V30 249 H 25.8867 -0.195073 -4.09936 0
M  V30 250 H 25.4177 1.45354 -3.65562 0
M  V30 251 H 27.4327 2.57006 -4.24456 0
M  V30 252 N 26.6058 1.57591 -0.0167156 0
M  V30 253 C 27.5158 2.1291 0.98521 0
M  V30 254 C 28.5318 1.07834 1.36557 0
M  V30 255 O 29.7078 1.39826 1.44951 0
M  V30 256 C 26.7728 2.63512 2.25305 0
M  V30 257 C 25.8338 3.83256 1.93426 0
M  V30 258 C 25.0668 4.31435 3.14165 0
M  V30 259 O 25.2898 3.78851 4.26413 0
M  V30 260 O 24.2238 5.23416 2.97186 0
M  V30 261 H 28.0498 2.98772 0.544888 0
M  V30 262 H 25.6348 1.48012 0.203141 0
M  V30 263 H 27.5168 2.96183 2.99756 0
M  V30 264 H 26.1918 1.8074 2.68542 0
M  V30 265 H 25.0988 3.55531 1.16398 0
M  V30 266 H 26.4318 4.67153 1.55013 0
M  V30 267 N 28.0839 -0.256276 1.55502 0
M  V30 268 C 29.0139 -1.32102 1.92539 0
M  V30 269 C 29.9949 -1.50684 0.789194 0
M  V30 270 O 31.1799 -1.63449 1.04872 0
M  V30 271 C 28.3099 -2.67752 2.21192 0
M  V30 272 C 27.2639 -2.63878 3.36975 0
M  V30 273 C 26.5899 -4.03236 3.51147 0
M  V30 274 C 27.8899 -2.21682 4.72921 0
M  V30 275 H 29.5839 -1.01351 2.81724 0
M  V30 276 H 27.1299 -0.486105 1.35547 0
M  V30 277 H 29.0829 -3.42365 2.45691 0
M  V30 278 H 27.8069 -3.0012 1.28824 0
M  V30 279 H 26.4659 -1.91722 3.12471 0
M  V30 280 H 26.1139 -4.32854 2.56216 0
M  V30 281 H 25.8139 -4.01535 4.29003 0
M  V30 282 H 27.3379 -4.79563 3.77957 0
M  V30 283 H 28.7519 -2.86023 4.96854 0
M  V30 284 H 27.1489 -2.3111 5.53812 0
M  V30 285 H 28.2189 -1.16833 4.70615 0
M  V30 286 N 29.562 -1.4872 -0.521534 0
M  V30 287 C 30.792 -1.6061 -1.29954 0
M  V30 288 C 31.2 -0.268728 -1.87282 0
M  V30 289 O 30.543 0.753221 -1.67548 0
M  V30 290 C 30.605 -2.60013 -2.48261 0
M  V30 291 C 30.269 -4.04874 -2.11957 0
M  V30 292 C 31.266 -4.92304 -1.67132 0
M  V30 293 C 28.951 -4.5047 -2.22221 0
M  V30 294 C 30.945 -6.2336 -1.33047 0
M  V30 295 C 28.632 -5.81544 -1.87748 0
M  V30 296 C 29.63 -6.67812 -1.43234 0
M  V30 297 O 29.318 -7.96446 -1.09217 0
M  V30 298 H 29.05 -0.544116 -0.401141 0
M  V30 299 H 31.604 -1.95339 -0.634958 0
M  V30 300 H 29.834 -2.20422 -3.17728 0
M  V30 301 H 31.523 -2.61648 -3.10315 0
M  V30 302 H 32.289 -4.58312 -1.58665 0
M  V30 303 H 28.168 -3.83504 -2.55823 0
M  V30 304 H 31.712 -6.90649 -0.982299 0
M  V30 305 H 27.609 -6.15069 -1.95858 0
M  V30 306 H 28.377 -8.09275 -1.22542 0
M  V30 307 N 31.0401 0.771051 -1.3745 0
M  V30 308 C 32.2861 1.5319 -1.32894 0
M  V30 309 C 32.6191 1.94008 0.0862511 0
M  V30 310 O 31.8941 1.64124 1.04373 0
M  V30 311 C 32.1771 2.79648 -2.26868 0
M  V30 312 C 32.0301 2.45079 -3.77169 0
M  V30 313 C 33.3491 3.81583 -2.19277 0
M  V30 314 H 30.4681 0.555744 -0.484064 0
M  V30 315 H 33.1101 0.884492 -1.68157 0
M  V30 316 H 31.2601 3.34891 -1.96926 0
M  V30 317 H 32.9321 1.95745 -4.1771 0
M  V30 318 H 31.1751 1.77767 -3.95704 0
M  V30 319 H 31.8461 3.35478 -4.38359 0
M  V30 320 H 34.3221 3.35835 -2.45671 0
M  V30 321 H 33.1981 4.67787 -2.87171 0
M  V30 322 H 33.4591 4.25897 -1.18592 0
M  V30 323 N 32.5182 1.22032 0.997298 0
M  V30 324 C 33.4502 0.944263 2.08845 0
M  V30 325 C 34.4632 -0.0754663 1.62625 0
M  V30 326 O 35.6522 0.157994 1.77799 0
M  V30 327 C 32.7522 0.397723 3.36558 0
M  V30 328 C 31.9252 1.47362 4.11829 0
M  V30 329 C 30.9842 0.934951 5.17827 0
M  V30 330 O 30.0102 1.62016 5.45655 0
M  V30 331 N 31.2122 -0.245895 5.79979 0
M  V30 332 H 33.9772 1.88363 2.33109 0
M  V30 333 H 31.5382 1.12661 1.16272 0
M  V30 334 H 33.5302 0.0227771 4.04694 0
M  V30 335 H 32.1002 -0.446646 3.09393 0
M  V30 336 H 31.3202 2.02208 3.38386 0
M  V30 337 H 32.6082 2.19764 4.58891 0
M  V30 338 H 32.0062 -0.819475 5.59733 0
M  V30 339 H 30.5632 -0.562272 6.4937 0
M  V30 340 N 33.9963 -1.19345 1.0293 0
M  V30 341 C 34.9433 -2.2258 0.610464 0
M  V30 342 C 35.9133 -1.6179 -0.375946 0
M  V30 343 O 37.0983 -1.88844 -0.272511 0
M  V30 344 C 34.2383 -3.45085 -0.0321473 0
M  V30 345 C 33.3513 -4.20258 1.00035 0
M  V30 346 C 32.4863 -5.3019 0.32746 0
M  V30 347 C 31.5253 -5.97121 1.34584 0
M  V30 348 N 30.6623 -6.98615 0.698726 0
M  V30 349 H 35.5023 -2.57764 1.49538 0
M  V30 350 H 33.0393 -1.26644 0.748311 0
M  V30 351 H 34.9973 -4.15061 -0.421966 0
M  V30 352 H 33.6273 -3.10555 -0.88064 0
M  V30 353 H 32.6793 -3.49223 1.50823 0
M  V30 354 H 33.9913 -4.66175 1.77433 0
M  V30 355 H 33.1453 -6.06587 -0.11718 0
M  V30 356 H 31.8843 -4.85345 -0.478713 0
M  V30 357 H 30.8893 -5.19474 1.80074 0
M  V30 358 H 32.1143 -6.4405 2.15352 0
M  V30 359 H 30.0603 -6.55942 -0.0873471 0
M  V30 360 H 29.9773 -7.42724 1.41058 0
M  V30 361 H 31.2453 -7.79004 0.278102 0
M  V30 362 N 35.4744 -0.807222 -1.35358 0
M  V30 363 C 36.4244 -0.190706 -2.27201 0
M  V30 364 C 37.4084 0.635838 -1.47804 0
M  V30 365 O 38.6004 0.492991 -1.69996 0
M  V30 366 C 35.7294 0.659337 -3.36909 0
M  V30 367 C 34.8154 -0.176971 -4.23731 0
M  V30 368 N 35.2064 -1.24029 -4.90357 0
M  V30 369 C 33.5044 0.0412953 -4.45981 0
M  V30 370 C 34.2054 -1.75092 -5.54723 0
M  V30 371 N 33.1814 -1.05727 -5.33219 0
M  V30 372 H 36.9834 -1.0043 -2.76208 0
M  V30 373 H 34.4974 -0.648445 -1.48892 0
M  V30 374 H 36.4944 1.11706 -4.01656 0
M  V30 375 H 35.1544 1.47127 -2.89454 0
M  V30 376 H 36.1654 -1.62295 -4.91814 0
M  V30 377 H 32.8424 0.82232 -4.09322 0
M  V30 378 H 34.2324 -2.63963 -6.17878 0
M  V30 379 N 36.9525 1.47285 -0.560781 0
M  V30 380 C 37.9005 2.31756 0.197942 0
M  V30 381 C 38.8945 1.43146 0.905854 0
M  V30 382 O 40.1005 1.59891 0.826733 0
M  V30 383 H 36.4755 0.747438 0.0827049 0
M  V30 384 H 38.4465 2.9359 -0.533629 0
M  V30 385 C 37.1955 3.25874 1.21249 0
M  V30 386 H 36.5185 3.94023 0.67719 0
M  V30 387 H 37.9585 3.87803 1.71419 0
M  V30 388 C 36.4175 2.49651 2.26221 0
M  V30 389 O 36.9475 2.24355 3.33208 0
M  V30 390 N 35.1535 2.10597 2.00243 0
M  V30 391 H 34.7005 2.31369 1.13252 0
M  V30 392 H 34.6585 1.59913 2.70694 0
M  V30 393 N 38.4306 0.297415 1.54768 0
M  V30 394 C 39.6796 -0.313669 1.99246 0
M  V30 395 C 39.9926 -1.55281 1.18942 0
M  V30 396 O 41.1986 -2.23825 1.5367 0
M  V30 397 C 39.6546 -0.609407 3.54703 0
M  V30 398 C 39.2626 0.611192 4.43811 0
M  V30 399 C 41.0066 -1.18188 4.07715 0
M  V30 400 C 38.9136 0.288805 5.90694 0
M  V30 401 H 37.8436 -0.120979 0.744231 0
M  V30 402 H 40.4946 0.40556 1.78962 0
M  V30 403 H 38.8766 -1.38813 3.70873 0
M  V30 404 H 40.0506 1.3875 4.39414 0
M  V30 405 H 38.3656 1.10205 4.01552 0
M  V30 406 H 40.9626 -1.43727 5.15021 0
M  V30 407 H 41.3056 -2.12299 3.58099 0
M  V30 408 H 41.8386 -0.464944 3.95074 0
M  V30 409 H 38.5776 1.19838 6.44453 0
M  V30 410 H 38.0976 -0.450305 5.98107 0
M  V30 411 H 39.7766 -0.110933 6.46905 0
M  V30 412 N 39.9087 -1.5758 0.0250728 0
M  V30 413 C 40.8407 -2.06869 -0.986796 0
M  V30 414 C 41.8537 -0.991332 -1.29137 0
M  V30 415 O 43.0427 -1.26761 -1.25674 0
M  V30 416 C 40.1427 -2.47486 -2.31525 0
M  V30 417 C 39.3157 -3.78253 -2.19643 0
M  V30 418 C 38.3747 -4.05464 -3.35388 0
M  V30 419 O 37.4007 -4.75774 -3.12454 0
M  V30 420 N 38.6027 -3.55321 -4.59051 0
M  V30 421 H 41.3677 -2.94302 -0.566276 0
M  V30 422 H 38.9287 -1.6109 -0.161776 0
M  V30 423 H 40.9207 -2.62785 -3.07776 0
M  V30 424 H 39.4907 -1.65441 -2.65232 0
M  V30 425 H 38.7107 -3.7279 -1.28144 0
M  V30 426 H 39.9987 -4.63936 -2.08903 0
M  V30 427 H 39.3967 -2.98431 -4.80578 0
M  V30 428 H 37.9537 -3.75905 -5.32483 0
M  V30 429 N 41.3868 0.248026 -1.55636 0
M  V30 430 C 42.3498 1.29044 -1.89421 0
M  V30 431 C 43.3498 1.41134 -0.770581 0
M  V30 432 O 44.5398 1.39854 -1.03858 0
M  V30 433 C 41.6718 2.66831 -2.12165 0
M  V30 434 H 42.8648 1.00305 -2.82629 0
M  V30 435 H 40.4178 0.487265 -1.48511 0
M  V30 436 H 41.1528 3.00711 -1.21422 0
M  V30 437 H 40.9378 2.59438 -2.93997 0
M  V30 438 H 42.4278 3.42103 -2.3949 0
M  V30 439 N 42.8649 1.48995 0.513639 0
M  V30 440 C 43.7949 1.67636 1.62544 0
M  V30 441 C 44.7759 0.525087 1.61793 0
M  V30 442 O 45.9609 0.759502 1.78732 0
M  V30 443 C 43.0909 1.73114 3.01079 0
M  V30 444 C 42.0449 2.87905 3.16693 0
M  V30 445 C 41.3709 2.78486 4.56453 0
M  V30 446 C 42.6709 4.29005 2.97913 0
M  V30 447 H 44.3649 2.60716 1.47198 0
M  V30 448 H 41.9109 1.25465 0.706714 0
M  V30 449 H 43.8639 1.84742 3.78746 0
M  V30 450 H 42.5879 0.766241 3.17484 0
M  V30 451 H 41.2469 2.75859 2.41448 0
M  V30 452 H 40.8949 1.7993 4.69717 0
M  V30 453 H 40.5949 3.55523 4.67843 0
M  V30 454 H 42.1189 2.92104 5.36197 0
M  V30 455 H 43.5329 4.41798 3.65359 0
M  V30 456 H 41.9299 5.07166 3.20785 0
M  V30 457 H 42.9999 4.44329 1.94165 0
M  V30 458 N 44.343 -0.763751 1.37857 0
M  V30 459 C 45.273 -1.89103 1.36975 0
M  V30 460 C 46.254 -1.68439 0.237152 0
M  V30 461 O 47.439 -1.8918 0.438713 0
M  V30 462 C 44.569 -3.26496 1.18395 0
M  V30 463 C 43.523 -3.61741 2.28751 0
M  V30 464 C 42.849 -4.97762 1.95286 0
M  V30 465 C 44.149 -3.67665 3.70972 0
M  V30 466 H 45.843 -1.90099 2.31307 0
M  V30 467 H 43.389 -0.91319 1.11341 0
M  V30 468 H 45.342 -4.05003 1.16406 0
M  V30 469 H 44.066 -3.25955 0.205215 0
M  V30 470 H 42.725 -2.85547 2.29909 0
M  V30 471 H 42.373 -4.93769 0.959221 0
M  V30 472 H 42.073 -5.22313 2.69189 0
M  V30 473 H 43.597 -5.7866 1.94898 0
M  V30 474 H 45.011 -4.36307 3.719 0
M  V30 475 H 43.408 -4.03718 4.43995 0
M  V30 476 H 44.478 -2.68134 4.0402 0
M  V30 477 N 45.8211 -1.22559 -0.990812 0
M  V30 478 C 46.7681 -0.997519 -2.0813 0
M  V30 479 C 47.7381 0.0814702 -1.659 0
M  V30 480 O 48.9231 -0.0685424 -1.90677 0
M  V30 481 C 46.0631 -0.583615 -3.40129 0
M  V30 482 C 45.1761 -1.7336 -3.9569 0
M  V30 483 C 44.3111 -1.26748 -5.15857 0
M  V30 484 C 43.3501 -2.38888 -5.63559 0
M  V30 485 N 42.4871 -1.93308 -6.74964 0
M  V30 486 H 47.3271 -1.93099 -2.26973 0
M  V30 487 H 44.8641 -0.962114 -1.11273 0
M  V30 488 H 46.8221 -0.324801 -4.15934 0
M  V30 489 H 45.4521 0.312845 -3.2128 0
M  V30 490 H 44.5041 -2.10669 -3.16738 0
M  V30 491 H 45.8161 -2.57704 -4.27071 0
M  V30 492 H 44.9701 -0.966173 -5.98957 0
M  V30 493 H 43.7091 -0.394272 -4.86104 0
M  V30 494 H 42.7141 -2.69805 -4.79046 0
M  V30 495 H 43.9391 -3.26728 -5.95336 0
M  V30 496 H 41.8851 -1.08352 -6.4699 0
M  V30 497 H 41.8021 -2.71217 -7.05675 0
M  V30 498 H 43.0701 -1.66252 -7.61564 0
M  V30 499 N 47.2992 1.18797 -1.03562 0
M  V30 500 C 48.5762 1.84469 -0.650434 0
M  V30 501 C 48.9562 1.92319 0.870433 0
M  V30 502 O 48.3042 1.44528 1.76986 0
M  V30 503 C 48.5142 3.2306 -1.32036 0
M  V30 504 C 49.8622 3.9915 -1.44792 0
M  V30 505 O 50.8862 3.32481 -1.27806 0
M  V30 506 O 49.7452 5.18587 -1.72423 0
M  V30 507 H 46.8392 0.795251 -0.226946 0
M  V30 508 H 49.3852 1.26231 -1.13419 0
M  V30 509 H 48.1572 3.1222 -2.3587 0
M  V30 510 H 47.7802 3.88949 -0.8249 0
M  V30 511 N 48.7773 0.814389 1.34928 0
M  V30 512 C 50.0023 0.410097 2.03305 0
M  V30 513 C 50.4273 -0.973464 1.60951 0
M  V30 514 O 49.7853 -1.63185 0.789964 0
M  V30 515 C 49.8333 0.51049 3.56968 0
M  V30 516 O 48.9373 -0.473035 4.09678 0
M  V30 517 H 48.2783 0.170088 0.641846 0
M  V30 518 H 50.8083 1.10244 1.72358 0
M  V30 519 H 50.8183 0.383135 4.06197 0
M  V30 520 H 49.4933 1.51963 3.87144 0
M  V30 521 H 48.0703 -0.305272 3.71648 0
M  V30 522 N 50.2554 -1.46986 0.568584 0
M  V30 523 C 51.5044 -2.01646 0.0465894 0
M  V30 524 C 51.8174 -1.44721 -1.31587 0
M  V30 525 O 53.0234 -1.91113 -1.92842 0
M  V30 526 C 51.4794 -3.59885 0.032752 0
M  V30 527 C 51.0874 -4.25804 1.39266 0
M  V30 528 C 52.8314 -4.22255 -0.436038 0
M  V30 529 C 50.7384 -5.76081 1.33732 0
M  V30 530 H 49.6684 -0.753876 0.013647 0
M  V30 531 H 52.3194 -1.68864 0.718131 0
M  V30 532 H 50.7014 -3.8968 -0.704669 0
M  V30 533 H 51.8754 -4.07637 2.1487 0
M  V30 534 H 50.1904 -3.7547 1.80032 0
M  V30 535 H 52.7874 -5.32394 -0.49602 0
M  V30 536 H 53.1304 -3.90212 -1.45053 0
M  V30 537 H 53.6634 -3.97033 0.246877 0
M  V30 538 H 50.4024 -6.12761 2.32817 0
M  V30 539 H 49.9224 -5.96553 0.623267 0
M  V30 540 H 51.6014 -6.38518 1.0442 0
M  V30 541 N 51.7335 -0.305618 -1.54608 0
M  V30 542 C 52.9795 0.302746 -2.00528 0
M  V30 543 C 53.3125 1.53184 -1.19367 0
M  V30 544 O 52.5875 1.92598 -0.271321 0
M  V30 545 C 52.8705 0.654756 -3.54097 0
M  V30 546 C 52.7235 -0.583793 -4.45995 0
M  V30 547 C 54.0425 1.47947 -4.14487 0
M  V30 548 H 51.1615 0.108564 -0.72896 0
M  V30 549 H 53.8035 -0.418634 -1.85331 0
M  V30 550 H 51.9535 1.26935 -3.67178 0
M  V30 551 H 53.6255 -1.22224 -4.44814 0
M  V30 552 H 51.8685 -1.21615 -4.16404 0
M  V30 553 H 52.5395 -0.293287 -5.5122 0
M  V30 554 H 55.0155 0.96013 -4.04871 0
M  V30 555 H 53.8915 1.69454 -5.22088 0
M  V30 556 H 54.1525 2.47011 -3.66658 0
M  V30 557 N 53.2116 1.57565 -0.0334293 0
M  V30 558 C 54.1436 2.0739 0.975811 0
M  V30 559 C 55.1566 0.998166 1.2861 0
M  V30 560 O 56.3456 1.27426 1.25 0
M  V30 561 C 53.4456 2.4871 2.30209 0
M  V30 562 C 52.6186 3.79413 2.17634 0
M  V30 563 C 51.6776 4.07237 3.33233 0
M  V30 564 O 50.7036 4.77425 3.09927 0
M  V30 565 N 51.9056 3.5775 4.5716 0
M  V30 566 H 54.6706 2.94598 0.55066 0
M  V30 567 H 52.2316 1.61173 0.15323 0
M  V30 568 H 54.2236 2.64413 3.06378 0
M  V30 569 H 52.7936 1.66845 2.64351 0
M  V30 570 H 52.0136 3.73465 1.26165 0
M  V30 571 H 53.3016 4.65038 2.0644 0
M  V30 572 H 52.6996 3.00976 4.78989 0
M  V30 573 H 51.2566 3.78724 5.30482 0
M  V30 574 N 54.6897 -0.239769 1.55765 0
M  V30 575 C 55.6197 -1.30052 1.9393 0
M  V30 576 C 56.6007 -1.49839 0.805132 0
M  V30 577 O 57.7857 -1.62328 1.06599 0
M  V30 578 C 54.9157 -2.65391 2.2402 0
M  V30 579 C 53.8697 -2.60289 3.39755 0
M  V30 580 C 53.1957 -3.99489 3.55405 0
M  V30 581 C 54.4957 -2.16654 4.75246 0
M  V30 582 H 56.1897 -0.983573 2.82783 0
M  V30 583 H 53.7357 -0.471701 1.36055 0
M  V30 584 H 55.6887 -3.3974 2.49308 0
M  V30 585 H 54.4127 -2.98736 1.32 0
M  V30 586 H 53.0717 -1.88398 3.14487 0
M  V30 587 H 52.7197 -4.30112 2.60793 0
M  V30 588 H 52.4197 -3.96962 4.33238 0
M  V30 589 H 53.9437 -4.75528 3.83022 0
M  V30 590 H 55.3577 -2.80737 4.99859 0
M  V30 591 H 53.7547 -2.25223 5.56232 0
M  V30 592 H 54.8247 -1.11835 4.71827 0
M  V30 593 N 56.1678 -1.49265 -0.50573 0
M  V30 594 C 57.4078 -1.60128 -1.27038 0
M  V30 595 C 57.7718 -0.279557 -1.89954 0
M  V30 596 O 58.9728 -0.263329 -2.67507 0
M  V30 597 C 57.2438 -2.72507 -2.31246 0
M  V30 598 S 58.8028 -3.0329 -3.17113 0
M  V30 599 H 55.6208 -0.564863 -0.4318 0
M  V30 600 H 58.2228 -1.86902 -0.573397 0
M  V30 601 H 56.9268 -3.67068 -1.83546 0
M  V30 602 H 56.4578 -2.4771 -3.05619 0
M  V30 603 H 58.4728 -2.44448 -4.31809 0
M  V30 604 N 57.6459 0.756429 -1.3826 0
M  V30 605 C 58.8739 1.54565 -1.3754 0
M  V30 606 C 59.2889 1.88767 0.0355331 0
M  V30 607 O 58.6459 1.52572 1.0014 0
M  V30 608 C 58.6969 2.84654 -2.22833 0
M  V30 609 O 58.4179 2.51912 -3.5843 0
M  V30 610 C 59.9189 3.78807 -2.30261 0
M  V30 611 H 57.1389 0.478353 -0.470553 0
M  V30 612 H 59.6829 0.936381 -1.81803 0
M  V30 613 H 57.8379 3.41965 -1.8204 0
M  V30 614 H 58.2519 3.35325 -4.03308 0
M  V30 615 H 59.7259 4.67045 -2.94233 0
M  V30 616 H 60.2029 4.19038 -1.31545 0
M  V30 617 H 60.8089 3.2742 -2.71433 0
M  V30 618 N 59.124 1.23083 0.984299 0
M  V30 619 C 60.087 1.00979 2.05757 0
M  V30 620 C 61.087 -0.0269573 1.60777 0
M  V30 621 O 62.277 0.212403 1.729 0
M  V30 622 C 59.409 0.527072 3.36801 0
M  V30 623 H 60.602 1.9622 2.26799 0
M  V30 624 H 58.155 1.05072 1.15714 0
M  V30 625 H 58.89 -0.429294 3.21446 0
M  V30 626 H 58.675 1.27515 3.70786 0
M  V30 627 H 60.165 0.392942 4.15747 0
M  V30 628 N 60.6021 -1.18246 1.0419 0
M  V30 629 C 62.0181 -1.40269 0.761366 0
M  V30 630 C 62.2181 -1.90777 -0.648578 0
M  V30 631 O 61.2741 -2.0929 -1.41258 0
M  V30 632 C 62.5871 -2.40237 1.8085 0
M  V30 633 C 64.1351 -2.53961 1.82955 0
M  V30 634 C 64.6101 -3.57194 2.86664 0
M  V30 635 N 66.1011 -3.64702 2.85563 0
M  V30 636 C 66.8361 -4.44309 3.6246 0
M  V30 637 N 66.3321 -5.27514 4.49111 0
M  V30 638 N 68.1251 -4.39084 3.50944 0
M  V30 639 H 60.2761 -0.837882 1.95175 0
M  V30 640 H 62.5391 -0.430608 0.84456 0
M  V30 641 H 62.2451 -2.10176 2.81991 0
M  V30 642 H 62.1191 -3.39601 1.64168 0
M  V30 643 H 64.5061 -2.83338 0.824855 0
M  V30 644 H 64.5871 -1.54706 2.03715 0
M  V30 645 H 64.2311 -3.28558 3.87314 0
M  V30 646 H 64.1611 -4.5613 2.6316 0
M  V30 647 H 66.6521 -3.05289 2.22727 0
M  V30 648 H 66.9651 -5.85411 5.04493 0
M  V30 649 H 65.3101 -5.2693 4.53178 0
M  V30 650 H 68.5011 -3.7313 2.82651 0
M  V30 651 H 68.6741 -5.00883 4.11121 0
M  V30 652 N 62.0802 -0.821533 -1.34494 0
M  V30 653 C 63.4912 -0.467956 -1.8074 0
M  V30 654 C 63.8422 1.01151 -1.68116 0
M  V30 655 O 62.9672 1.78707 -1.22036 0
M  V30 656 C 63.5622 -0.842627 -3.28154 0
M  V30 657 C 62.1212 -0.541439 -3.72485 0
M  V30 658 C 61.2682 -1.06028 -2.56229 0
M  V30 659 H 64.2192 -1.01183 -1.22261 0
M  V30 660 H 64.2402 -0.145876 -3.8022 0
M  V30 661 H 63.7522 -1.91945 -3.37311 0
M  V30 662 H 61.8532 0.526034 -3.68868 0
M  V30 663 H 61.9662 -1.08453 -4.66663 0
M  V30 664 H 60.3302 -0.481892 -2.501 0
M  V30 665 H 61.1132 -2.14352 -2.68157 0
M  V30 666 N 63.5583 1.46682 -0.576371 0
M  V30 667 C 64.4683 2.34032 0.163141 0
M  V30 668 C 65.4843 1.49367 0.892501 0
M  V30 669 O 66.6603 1.82252 0.857106 0
M  V30 670 C 63.7253 3.26435 1.16795 0
M  V30 671 C 62.7863 4.26998 0.443944 0
M  V30 672 C 62.0193 5.14986 1.40088 0
M  V30 673 O 62.2423 5.05785 2.637 0
M  V30 674 O 61.1763 5.94906 0.914917 0
M  V30 675 H 65.0023 2.98607 -0.55388 0
M  V30 676 H 62.5873 1.45554 -0.336821 0
M  V30 677 H 64.4693 3.83459 1.74748 0
M  V30 678 H 63.1443 2.64465 1.86655 0
M  V30 679 H 62.0513 3.7368 -0.177271 0
M  V30 680 H 63.3843 4.91736 -0.213566 0
M  V30 681 N 65.0364 0.313813 1.54444 0
M  V30 682 C 66.4524 -0.0391619 1.59552 0
M  V30 683 C 66.6524 -1.51322 1.33056 0
M  V30 684 O 65.7084 -2.26782 1.11022 0
M  V30 685 C 67.0214 0.370302 2.98411 0
M  V30 686 C 68.5694 0.320139 3.11358 0
M  V30 687 C 69.0444 0.704617 4.52547 0
M  V30 688 N 70.5354 0.657645 4.58508 0
M  V30 689 C 71.2704 0.927453 5.6585 0
M  V30 690 N 70.7664 1.26389 6.81174 0
M  V30 691 N 72.5594 0.853662 5.5558 0
M  V30 692 H 64.7104 1.27433 1.69925 0
M  V30 693 H 66.9734 0.517511 0.794284 0
M  V30 694 H 66.6794 1.39694 3.22767 0
M  V30 695 H 66.5534 -0.269619 3.76235 0
M  V30 696 H 68.9404 -0.697275 2.86744 0
M  V30 697 H 69.0214 0.99486 2.35661 0
M  V30 698 H 68.6654 1.7199 4.77893 0
M  V30 699 H 68.5954 0.00768843 5.26599 0
M  V30 700 H 71.0864 0.409067 3.75679 0
M  V30 701 H 71.3994 1.4554 7.58972 0
M  V30 702 H 69.7444 1.30206 6.82694 0
M  V30 703 H 72.9354 0.590383 4.64362 0
M  V30 704 H 73.1084 1.0673 6.3915 0
M  V30 705 N 66.5145 -1.57545 0.0417849 0
M  V30 706 C 67.9255 -1.80011 -0.495259 0
M  V30 707 C 68.2765 -0.953199 -1.71489 0
M  V30 708 O 67.4015 -0.167138 -2.15754 0
M  V30 709 C 67.9965 -3.26482 -0.905265 0
M  V30 710 C 66.5555 -3.499 -1.38734 0
M  V30 711 C 65.7025 -2.74979 -0.358056 0
M  V30 712 H 68.6535 -1.56425 0.267736 0
M  V30 713 H 68.6745 -3.36887 -1.76882 0
M  V30 714 H 68.1865 -3.88096 -0.017401 0
M  V30 715 H 66.2875 -2.93553 -2.29471 0
M  V30 716 H 66.4005 -4.58615 -1.38598 0
M  V30 717 H 64.7645 -2.40834 -0.828912 0
M  V30 718 H 65.5475 -3.39315 0.521561 0
M  V30 719 N 67.9926 0.231505 -1.5589 0
M  V30 720 C 68.9256 1.31369 -1.86595 0
M  V30 721 C 69.9036 1.45671 -0.722397 0
M  V30 722 O 71.0876 1.61642 -0.969743 0
M  V30 723 C 68.2146 2.68529 -2.06421 0
M  V30 724 C 67.2606 2.71295 -3.29092 0
M  V30 725 S 68.0936 2.26358 -4.85306 0
M  V30 726 C 69.2496 3.65414 -5.08157 0
M  V30 727 H 69.4826 1.05128 -2.78092 0
M  V30 728 H 67.0156 0.433259 -1.48197 0
M  V30 729 H 68.9736 3.47499 -2.18528 0
M  V30 730 H 67.6346 2.91999 -1.15738 0
M  V30 731 H 66.8276 3.72063 -3.39978 0
M  V30 732 H 66.4296 2.0038 -3.15791 0
M  V30 733 H 68.7216 4.6103 -4.96445 0
M  V30 734 H 69.6646 3.5945 -6.10083 0
M  V30 735 H 70.0726 3.5864 -4.35933 0
M  V30 736 N 69.4707 1.49531 0.497807 0
M  V30 737 C 70.4337 1.65916 1.58128 0
M  V30 738 C 71.4337 0.530825 1.51786 0
M  V30 739 O 72.6237 0.797342 1.54881 0
M  V30 740 C 69.7557 1.65951 2.9778 0
M  V30 741 H 70.9487 2.62556 1.44929 0
M  V30 742 H 68.5017 1.38611 0.722275 0
M  V30 743 H 69.2367 0.709065 3.16453 0
M  V30 744 H 69.0217 2.47897 3.03792 0
M  V30 745 H 70.5117 1.80673 3.76493 0
M  V30 746 N 70.9488 -0.749086 1.3866 0
M  V30 747 C 72.1958 -1.50833 1.35114 0
M  V30 748 C 72.5238 -1.94415 -0.0574049 0
M  V30 749 O 71.7788 -1.66065 -1.03541 0
M  V30 750 C 72.0778 -2.7712 2.25697 0
M  V30 751 C 71.7438 -2.52477 3.73585 0
M  V30 752 C 70.4058 -2.45466 4.13884 0
M  V30 753 C 72.7578 -2.31066 4.67181 0
M  V30 754 C 70.0858 -2.15064 5.45861 0
M  V30 755 C 72.4378 -2.02183 5.9942 0
M  V30 756 C 71.1018 -1.93631 6.38798 0
M  V30 757 H 70.3718 -0.551936 0.494416 0
M  V30 758 H 73.0188 -0.860979 1.71054 0
M  V30 759 H 71.3238 -3.46528 1.82827 0
M  V30 760 H 73.0208 -3.35096 2.20254 0
M  V30 761 H 69.6108 -2.58807 3.41638 0
M  V30 762 H 73.7948 -2.35459 4.3689 0
M  V30 763 H 69.0508 -2.06954 5.75308 0
M  V30 764 H 73.2248 -1.8462 6.71482 0
M  V30 765 H 70.8518 -1.69839 7.40985 0
M  V30 766 N 72.4269 -1.23603 -0.977757 0
M  V30 767 C 73.3569 -1.04401 -2.0886 0
M  V30 768 C 74.3379 0.0399052 -1.70053 0
M  V30 769 O 75.5229 -0.125246 -1.93796 0
M  V30 770 C 72.6529 -0.637269 -3.41403 0
M  V30 771 C 71.6069 -1.66883 -3.94124 0
M  V30 772 C 70.9329 -1.11745 -5.22893 0
M  V30 773 C 72.2329 -3.06247 -4.23096 0
M  V30 774 H 73.9269 -1.97316 -2.25182 0
M  V30 775 H 71.4729 -0.950096 -1.08209 0
M  V30 776 H 73.4259 -0.48998 -4.18542 0
M  V30 777 H 72.1499 0.327557 -3.24953 0
M  V30 778 H 70.8089 -1.80416 -3.19133 0
M  V30 779 H 70.4569 -0.143527 -5.02795 0
M  V30 780 H 70.1569 -1.80672 -5.59134 0
M  V30 781 H 71.6809 -0.982067 -6.02651 0
M  V30 782 H 73.0949 -2.96001 -4.90975 0
M  V30 783 H 71.4919 -3.72436 -4.70544 0
M  V30 784 H 72.5619 -3.55041 -3.30263 0
M  V30 785 N 73.905 1.17692 -1.04816 0
M  V30 786 C 75.321 1.39863 -0.768794 0
M  V30 787 C 75.521 1.91118 0.638451 0
M  V30 788 O 74.577 2.10036 1.40146 0
M  V30 789 C 75.89 2.39274 -1.82122 0
M  V30 790 C 77.438 2.52987 -1.843 0
M  V30 791 C 77.913 3.55669 -2.88555 0
M  V30 792 N 79.404 3.63183 -2.87493 0
M  V30 793 C 80.139 4.42381 -3.64811 0
M  V30 794 N 79.635 5.25125 -4.51903 0
M  V30 795 N 81.428 4.37217 -3.53267 0
M  V30 796 H 73.579 0.82752 -1.95617 0
M  V30 797 H 75.842 0.426123 -0.846831 0
M  V30 798 H 75.548 2.08678 -2.83102 0
M  V30 799 H 75.422 3.38725 -1.65967 0
M  V30 800 H 77.809 2.82896 -0.839869 0
M  V30 801 H 77.89 1.53623 -2.04532 0
M  V30 802 H 77.534 3.26499 -3.89051 0
M  V30 803 H 77.464 4.54728 -2.65575 0
M  V30 804 H 79.955 3.04103 -2.24343 0
M  V30 805 H 80.268 5.82728 -5.07591 0
M  V30 806 H 78.613 5.24519 -4.55966 0
M  V30 807 H 81.804 3.71626 -2.84625 0
M  V30 808 H 81.977 4.98696 -4.13771 0
M  V30 809 N 75.3831 0.828654 1.34056 0
M  V30 810 C 76.2931 0.256725 2.33191 0
M  V30 811 C 77.3091 -0.611898 1.62886 0
M  V30 812 O 78.4851 -0.51844 1.94613 0
M  V30 813 C 75.5501 -0.567238 3.42028 0
M  V30 814 C 74.6111 0.324458 4.28072 0
M  V30 815 C 73.8441 -0.460274 5.31712 0
M  V30 816 O 74.0671 -1.693 5.44696 0
M  V30 817 O 73.0011 0.160391 6.01686 0
M  V30 818 H 76.8271 1.07739 2.83947 0
M  V30 819 H 74.4121 0.59093 1.37217 0
M  V30 820 H 76.2941 -1.03582 4.08471 0
M  V30 821 H 74.9691 -1.36513 2.93506 0
M  V30 822 H 73.8761 0.840659 3.64532 0
M  V30 823 H 75.2091 1.08685 4.8005 0
M  V30 824 N 76.8612 -1.46375 0.584142 0
M  V30 825 C 78.0912 -2.06461 0.0758195 0
M  V30 826 C 78.4992 -1.43322 -1.23512 0
M  V30 827 O 77.8422 -0.533216 -1.75791 0
M  V30 828 C 77.9042 -3.59131 -0.162773 0
M  V30 829 C 77.5682 -4.4447 1.06279 0
M  V30 830 C 78.5652 -4.80918 1.97519 0
M  V30 831 C 76.2502 -4.85584 1.28504 0
M  V30 832 C 78.2442 -5.57309 3.09331 0
M  V30 833 C 75.9312 -5.61734 2.4062 0
M  V30 834 C 76.9292 -5.9751 3.30863 0
M  V30 835 O 76.6172 -6.72121 4.41032 0
M  V30 836 H 76.3492 -0.673745 0.0551725 0
M  V30 837 H 78.9032 -1.88969 0.804984 0
M  V30 838 H 77.1332 -3.74936 -0.946565 0
M  V30 839 H 78.8222 -4.0114 -0.619782 0
M  V30 840 H 79.5882 -4.49732 1.81565 0
M  V30 841 H 75.4672 -4.57187 0.591702 0
M  V30 842 H 79.0112 -5.85152 3.79793 0
M  V30 843 H 74.9082 -5.92334 2.56537 0
M  V30 844 H 75.6762 -6.90547 4.39417 0
M  V30 845 N 78.3393 -0.321999 -1.54275 0
M  V30 846 C 79.5863 0.281044 -2.0054 0
M  V30 847 C 79.9143 1.52265 -1.21019 0
M  V30 848 O 79.1693 1.93687 -0.279982 0
M  V30 849 C 79.4683 0.661769 -3.5122 0
M  V30 850 C 79.1343 -0.480482 -4.48333 0
M  V30 851 C 77.7963 -0.794005 -4.74604 0
M  V30 852 C 80.1483 -1.24783 -5.06042 0
M  V30 853 C 77.4763 -1.87763 -5.55844 0
M  V30 854 C 79.8283 -2.32153 -5.88462 0
M  V30 855 C 78.4923 -2.64089 -6.13036 0
M  V30 856 H 77.7623 0.102841 -0.733829 0
M  V30 857 H 80.4093 -0.445453 -1.86247 0
M  V30 858 H 78.7143 1.46867 -3.63232 0
M  V30 859 H 80.4113 1.13989 -3.84457 0
M  V30 860 H 77.0013 -0.226039 -4.28004 0
M  V30 861 H 81.1853 -1.01887 -4.85729 0
M  V30 862 H 76.4413 -2.12954 -5.73115 0
M  V30 863 H 80.6153 -2.92057 -6.32199 0
M  V30 864 H 78.2423 -3.48185 -6.75775 0
M  V30 865 N 79.8174 1.5752 -0.0501392 0
M  V30 866 C 80.7274 2.14952 0.939827 0
M  V30 867 C 81.7434 1.10706 1.34239 0
M  V30 868 O 82.9194 1.42869 1.41952 0
M  V30 869 C 79.9844 2.68232 2.19665 0
M  V30 870 C 79.0454 3.87272 1.85253 0
M  V30 871 C 78.2784 4.38002 3.04943 0
M  V30 872 O 78.5014 3.87811 4.18281 0
M  V30 873 O 77.4354 5.29602 2.86017 0
M  V30 874 H 81.2614 2.9986 0.481392 0
M  V30 875 H 78.8464 1.4841 0.171699 0
M  V30 876 H 80.7284 3.02475 2.93406 0
M  V30 877 H 79.4034 1.86395 2.64648 0
M  V30 878 H 78.3104 3.5792 1.0883 0
M  V30 879 H 79.6434 4.70336 1.4507 0
M  V30 880 N 81.2955 -0.223234 1.56011 0
M  V30 881 C 82.7115 -0.572856 1.48965 0
M  V30 882 C 82.9115 -1.87225 0.74492 0
M  V30 883 O 81.9675 -2.50899 0.283896 0
M  V30 884 C 83.2805 -0.653646 2.9351 0
M  V30 885 C 84.8285 -0.744386 3.0402 0
M  V30 886 C 85.3035 -0.856535 4.49919 0
M  V30 887 N 86.7945 -0.9208 4.53955 0
M  V30 888 C 87.5295 -1.02726 5.64123 0
M  V30 889 N 87.0255 -1.09777 6.84047 0
M  V30 890 N 88.8185 -1.06226 5.51971 0
M  V30 891 H 80.9695 0.629462 2.02858 0
M  V30 892 H 83.2325 0.220621 0.921971 0
M  V30 893 H 82.9385 0.231518 3.50937 0
M  V30 894 H 82.8125 -1.51781 3.45315 0
M  V30 895 H 85.1995 -1.61999 2.46658 0
M  V30 896 H 85.2805 0.14541 2.55386 0
M  V30 897 H 84.9245 0.0146069 5.07898 0
M  V30 898 H 84.8545 -1.76172 4.96257 0
M  V30 899 H 87.3455 -0.876694 3.6759 0
M  V30 900 H 87.6585 -1.17872 7.63758 0
M  V30 901 H 86.0035 -1.06693 6.86762 0
M  V30 902 H 89.1945 -1.00382 4.5721 0
M  V30 903 H 89.3675 -1.14177 6.37862 0
M  V30 904 N 82.7736 -1.49793 -0.48987 0
M  V30 905 C 83.7036 -1.70201 -1.59856 0
M  V30 906 C 84.6846 -0.55076 -1.60937 0
M  V30 907 O 85.8696 -0.787841 -1.77501 0
M  V30 908 C 82.9996 -1.77882 -2.98287 0
M  V30 909 C 81.9536 -2.92907 -3.12073 0
M  V30 910 C 81.2796 -2.85712 -4.51965 0
M  V30 911 C 82.5796 -4.3369 -2.91051 0
M  V30 912 H 84.2736 -2.63025 -1.43032 0
M  V30 913 H 81.8196 -1.26574 -0.686664 0
M  V30 914 H 83.7726 -1.90744 -3.75759 0
M  V30 915 H 82.4966 -0.816653 -3.16225 0
M  V30 916 H 81.1556 -2.79665 -2.37029 0
M  V30 917 H 80.8036 -1.8738 -4.66795 0
M  V30 918 H 80.5036 -3.62921 -4.62128 0
M  V30 919 H 82.0276 -3.00598 -5.31482 0
M  V30 920 H 83.4416 -4.47555 -3.58284 0
M  V30 921 H 81.8386 -5.12205 -3.12675 0
M  V30 922 H 82.9086 -4.47362 -1.87071 0
M  V30 923 N 84.2517 0.741722 -1.39055 0
M  V30 924 C 85.1617 1.88621 -1.39496 0
M  V30 925 C 86.1777 1.71557 -0.290578 0
M  V30 926 O 87.3537 1.94275 -0.530954 0
M  V30 927 C 84.4187 3.24134 -1.23037 0
M  V30 928 C 83.4797 3.5364 -2.43387 0
M  V30 929 C 82.7127 4.82687 -2.27703 0
M  V30 930 O 82.9357 5.55922 -1.27696 0
M  V30 931 O 81.8697 5.1194 -3.16545 0
M  V30 932 H 85.6957 1.91203 -2.35956 0
M  V30 933 H 83.2807 0.888625 -1.20099 0
M  V30 934 H 85.1627 4.0513 -1.15964 0
M  V30 935 H 83.8377 3.22337 -0.296691 0
M  V30 936 H 82.7447 2.72758 -2.56035 0
M  V30 937 H 84.0777 3.60209 -3.35425 0
M  V30 938 N 85.7298 1.2412 0.971189 0
M  V30 939 C 86.6768 1.0305 2.06517 0
M  V30 940 C 87.6468 -0.0550666 1.66009 0
M  V30 941 O 88.8318 0.0988688 1.90544 0
M  V30 942 C 85.9718 0.637653 3.39158 0
M  V30 943 C 85.0848 1.79633 3.92882 0
M  V30 944 C 84.2198 1.34939 5.13775 0
M  V30 945 C 83.2588 2.47823 5.59687 0
M  V30 946 N 82.3958 2.04022 6.71803 0
M  V30 947 H 87.2358 1.96685 2.23873 0
M  V30 948 H 84.7728 0.979694 1.09729 0
M  V30 949 H 86.7308 0.390931 4.15364 0
M  V30 950 H 85.3608 -0.261693 3.21737 0
M  V30 951 H 84.4128 2.15681 3.13346 0
M  V30 952 H 85.7248 2.64466 4.22918 0
M  V30 953 H 84.8788 1.06134 5.97345 0
M  V30 954 H 83.6178 0.471557 4.85415 0
M  V30 955 H 82.6228 2.77392 4.74693 0
M  V30 956 H 83.8478 3.36158 5.90063 0
M  V30 957 H 81.7938 1.18632 6.45184 0
M  V30 958 H 81.7108 2.82409 7.01271 0
M  V30 959 H 82.9788 1.78347 7.58823 0
M  V30 960 N 87.2079 -1.17134 1.05439 0
M  V30 961 C 88.1179 -2.24878 0.668365 0
M  V30 962 C 89.1339 -1.71186 -0.311687 0
M  V30 963 O 90.3099 -2.00738 -0.163161 0
M  V30 964 C 87.3749 -3.46662 0.051648 0
M  V30 965 C 86.4359 -4.15429 1.08246 0
M  V30 966 C 85.6689 -5.31399 0.495082 0
M  V30 967 O 85.8919 -5.66153 -0.694743 0
M  V30 968 O 84.8259 -5.89187 1.23056 0
M  V30 969 H 88.6519 -2.60189 1.56637 0
M  V30 970 H 86.2369 -1.24482 0.826104 0
M  V30 971 H 88.1189 -4.20394 -0.290966 0
M  V30 972 H 86.7939 -3.13142 -0.819971 0
M  V30 973 H 85.7009 -3.43704 1.47711 0
M  V30 974 H 87.0339 -4.52982 1.92532 0
M  V30 975 N 88.686 -0.835752 -1.33615 0
M  V30 976 C 89.596 -0.269088 -2.33052 0
M  V30 977 C 90.612 0.603251 -1.63208 0
M  V30 978 O 91.788 0.508112 -1.94885 0
M  V30 979 C 88.853 0.549091 -3.42324 0
M  V30 980 C 87.914 -0.347156 -4.27894 0
M  V30 981 C 87.147 0.43207 -5.31948 0
M  V30 982 O 87.37 1.66409 -5.45586 0
M  V30 983 O 86.304 -0.192298 -6.01593 0
M  V30 984 H 90.13 -1.09243 -2.83372 0
M  V30 985 H 87.715 -0.598198 -1.36901 0
M  V30 986 H 89.597 1.01414 -4.09015 0
M  V30 987 H 88.272 1.34955 -2.94226 0
M  V30 988 H 87.179 -0.859979 -3.64081 0
M  V30 989 H 88.512 -1.1123 -4.79467 0
M  V30 990 N 90.1641 1.46063 -0.591896 0
M  V30 991 C 91.1271 2.28854 0.125973 0
M  V30 992 C 92.1271 1.38903 0.810107 0
M  V30 993 O 93.3171 1.61186 0.66066 0
M  V30 994 C 90.4491 3.19526 1.1881 0
M  V30 995 H 91.6421 2.93802 -0.601717 0
M  V30 996 H 89.1951 1.52325 -0.350254 0
M  V30 997 H 89.9301 2.59345 1.94707 0
M  V30 998 H 89.7151 3.85766 0.701936 0
M  V30 999 H 91.2051 3.81817 1.69132 0
M  V30 1000 N 91.6422 0.330177 1.54103 0
M  V30 1001 C 92.5892 -0.532762 2.24567 0
M  V30 1002 C 93.5592 -1.10635 1.23892 0
M  V30 1003 O 94.7442 -1.14546 1.5259 0
M  V30 1004 C 91.8842 -1.6845 3.01195 0
M  V30 1005 C 90.9972 -1.13951 4.167 0
M  V30 1006 C 90.1322 -2.25746 4.80845 0
M  V30 1007 C 89.1712 -1.6853 5.88442 0
M  V30 1008 N 88.3082 -2.74014 6.46421 0
M  V30 1009 H 93.1482 0.0746905 2.97906 0
M  V30 1010 H 90.6852 0.048632 1.4702 0
M  V30 1011 H 92.6432 -2.36234 3.43874 0
M  V30 1012 H 91.2732 -2.26314 2.30178 0
M  V30 1013 H 90.3252 -0.35301 3.78758 0
M  V30 1014 H 91.6372 -0.680892 4.94131 0
M  V30 1015 H 90.7912 -3.01422 5.26526 0
M  V30 1016 H 89.5302 -2.74947 4.0281 0
M  V30 1017 H 88.5352 -0.913543 5.42157 0
M  V30 1018 H 89.7602 -1.20198 6.68378 0
M  V30 1019 H 87.7062 -3.22494 5.71256 0
M  V30 1020 H 87.6232 -2.32735 7.19285 0
M  V30 1021 H 88.8912 -3.49499 6.96757 0
M  V30 1022 N 93.1203 -1.57491 0.0584922 0
M  V30 1023 C 94.0523 -2.08916 -0.942694 0
M  V30 1024 C 95.0653 -1.0185 -1.27006 0
M  V30 1025 O 96.2543 -1.29398 -1.22957 0
M  V30 1026 C 93.3543 -2.52341 -2.26224 0
M  V30 1027 C 92.5273 -3.82827 -2.1157 0
M  V30 1028 C 91.5863 -4.12487 -3.26712 0
M  V30 1029 O 90.6123 -4.82295 -3.02292 0
M  V30 1030 N 91.8143 -3.64978 -4.5141 0
M  V30 1031 H 94.5793 -2.95437 -0.503722 0
M  V30 1032 H 92.1403 -1.61397 -0.12757 0
M  V30 1033 H 94.1323 -2.69254 -3.02133 0
M  V30 1034 H 92.7023 -1.7103 -2.61663 0
M  V30 1035 H 91.9223 -3.75425 -1.20208 0
M  V30 1036 H 93.2103 -4.68263 -1.99015 0
M  V30 1037 H 92.6083 -3.08558 -4.7414 0
M  V30 1038 H 91.1653 -3.87115 -5.2439 0
M  V30 1039 N 94.5984 0.214957 -1.56127 0
M  V30 1040 C 95.8474 0.936451 -1.78643 0
M  V30 1041 C 96.1604 1.85237 -0.628229 0
M  V30 1042 O 97.3664 2.613 -0.737186 0
M  V30 1043 C 95.8224 1.7154 -3.16389 0
M  V30 1044 C 95.4304 0.845299 -4.39953 0
M  V30 1045 C 97.1744 2.42772 -3.48227 0
M  V30 1046 C 95.0814 1.62198 -5.68723 0
M  V30 1047 H 94.0114 0.353401 -0.666051 0
M  V30 1048 H 96.6624 0.190169 -1.82512 0
M  V30 1049 H 95.0444 2.50484 -3.06715 0
M  V30 1050 H 96.2184 0.0959353 -4.607 0
M  V30 1051 H 94.5334 0.244789 -4.1568 0
M  V30 1052 H 97.1304 3.01394 -4.41663 0
M  V30 1053 H 97.4734 3.15984 -2.71035 0
M  V30 1054 H 98.0064 1.70813 -3.5926 0
M  V30 1055 H 94.7454 0.933011 -6.48826 0
M  V30 1056 H 94.2654 2.34579 -5.52026 0
M  V30 1057 H 95.9444 2.18095 -6.09133 0
M  V30 1058 N 96.0765 1.50051 0.48192 0
M  V30 1059 C 97.0085 1.64263 1.59844 0
M  V30 1060 C 98.0215 0.52451 1.54119 0
M  V30 1061 O 99.2105 0.797293 1.59704 0
M  V30 1062 C 96.3105 1.60102 2.98698 0
M  V30 1063 C 95.4835 2.87767 3.29407 0
M  V30 1064 C 94.5425 2.76397 4.47762 0
M  V30 1065 O 93.5685 3.50348 4.48603 0
M  V30 1066 N 94.7705 1.89222 5.48794 0
M  V30 1067 H 97.5355 2.60566 1.48073 0
M  V30 1068 H 95.0965 1.47379 0.670149 0
M  V30 1069 H 97.0885 1.50123 3.75826 0
M  V30 1070 H 95.6585 0.715798 3.04294 0
M  V30 1071 H 94.8785 3.11954 2.40994 0
M  V30 1072 H 96.1665 3.72365 3.4673 0
M  V30 1073 H 95.5645 1.28434 5.50928 0
M  V30 1074 H 94.1215 1.85154 6.24949 0
M  V30 1075 N 97.5546 -0.734337 1.39446 0
M  V30 1076 C 98.5026 -1.86971 1.38364 0
M  V30 1077 C 99.4966 -1.67288 0.266687 0
M  V30 1078 O 100.703 -1.74621 0.436755 0
M  V30 1079 H 97.0776 -0.615474 0.432082 0
M  V30 1080 H 99.0486 -1.85 2.34132 0
M  V30 1081 C 97.7976 -3.2466 1.24465 0
M  V30 1082 H 97.1206 -3.40402 2.09682 0
M  V30 1083 H 98.5606 -4.04292 1.27764 0
M  V30 1084 C 97.0196 -3.36867 -0.0468674 0
M  V30 1085 O 97.5496 -3.88618 -1.01681 0
M  V30 1086 N 95.7556 -2.90391 -0.110145 0
M  V30 1087 H 95.3026 -2.48466 0.679868 0
M  V30 1088 H 95.2606 -2.98939 -0.973799 0
M  V30 1089 N 99.0327 -1.24633 -0.964593 0
M  V30 1090 C 99.9627 -1.06611 -2.07741 0
M  V30 1091 C 100.944 0.0218666 -1.70086 0
M  V30 1092 O 102.129 -0.145793 -1.93652 0
M  V30 1093 C 99.2587 -0.673444 -3.40708 0
M  V30 1094 C 98.2127 -1.71054 -3.92332 0
M  V30 1095 C 97.5387 -1.17285 -5.21678 0
M  V30 1096 C 98.8387 -3.10718 -4.19824 0
M  V30 1097 H 100.533 -1.99693 -2.23076 0
M  V30 1098 H 98.0787 -0.96152 -1.07195 0
M  V30 1099 H 100.032 -0.534345 -4.17998 0
M  V30 1100 H 98.7557 0.293073 -3.25282 0
M  V30 1101 H 97.4147 -1.83791 -3.17201 0
M  V30 1102 H 97.0627 -0.196847 -5.02615 0
M  V30 1103 H 96.7627 -1.86592 -5.57187 0
M  V30 1104 H 98.2867 -1.04593 -6.01575 0
M  V30 1105 H 99.7007 -3.01192 -4.87808 0
M  V30 1106 H 98.0977 -3.77406 -4.66567 0
M  V30 1107 H 99.1677 -3.58524 -3.26479 0
M  V30 1108 N 100.511 1.16574 -1.06058 0
M  V30 1109 C 101.443 2.2045 -0.627239 0
M  V30 1110 C 102.456 1.59752 0.313534 0
M  V30 1111 O 103.645 1.78192 0.104896 0
M  V30 1112 C 100.745 3.3875 0.100974 0
M  V30 1113 C 99.9178 4.29008 -0.852687 0
M  V30 1114 C 98.9768 5.25944 -0.164152 0
M  V30 1115 O 98.0028 5.63535 -0.801047 0
M  V30 1116 N 99.2048 5.70075 1.09518 0
M  V30 1117 H 101.97 2.58249 -1.52077 0
M  V30 1118 H 99.5308 1.3156 -0.943594 0
M  V30 1119 H 101.523 4.00638 0.57194 0
M  V30 1120 H 100.093 2.99476 0.89628 0
M  V30 1121 H 99.3128 3.64419 -1.50308 0
M  V30 1122 H 100.601 4.86195 -1.49972 0
M  V30 1123 H 99.9988 5.41624 1.6328 0
M  V30 1124 H 98.5558 6.34067 1.51006 0
M  V30 1125 N 101.989 0.842826 1.3317 0
M  V30 1126 C 102.936 0.276885 2.29133 0
M  V30 1127 C 103.906 -0.609527 1.54512 0
M  V30 1128 O 105.091 -0.546955 1.82792 0
M  V30 1129 C 102.231 -0.538707 3.40869 0
M  V30 1130 C 101.344 0.372169 4.30394 0
M  V30 1131 C 100.479 -0.454908 5.29249 0
M  V30 1132 C 99.5179 0.45411 6.10413 0
M  V30 1133 N 98.6549 -0.335075 7.013 0
M  V30 1134 H 103.495 1.10052 2.76934 0
M  V30 1135 H 101.032 0.554161 1.36262 0
M  V30 1136 H 102.99 -1.02709 4.0436 0
M  V30 1137 H 101.62 -1.32727 2.9425 0
M  V30 1138 H 100.672 0.97888 3.6759 0
M  V30 1139 H 101.984 1.0703 4.87182 0
M  V30 1140 H 101.138 -1.00695 5.98285 0
M  V30 1141 H 99.8769 -1.18646 4.73048 0
M  V30 1142 H 98.8819 1.01813 5.40291 0
M  V30 1143 H 100.107 1.18409 6.68697 0
M  V30 1144 H 98.0529 -1.04994 6.47543 0
M  V30 1145 H 97.9699 0.304262 7.55387 0
M  V30 1146 H 99.2379 -0.869224 7.74638 0
M  V30 1147 N 103.467 -1.45747 0.599634 0
M  V30 1148 C 104.43 -2.28917 -0.113835 0
M  V30 1149 C 105.43 -1.3933 -0.802729 0
M  V30 1150 O 106.62 -1.61534 -0.652103 0
M  V30 1151 C 103.752 -3.20152 -1.17114 0
M  V30 1152 H 104.945 -2.93478 0.617289 0
M  V30 1153 H 102.498 -1.52137 0.358327 0
M  V30 1154 H 103.233 -2.60374 -1.93329 0
M  V30 1155 H 103.018 -3.86133 -0.681468 0
M  V30 1156 H 104.508 -3.82708 -1.67105 0
M  V30 1157 N 104.945 -0.338344 -1.53925 0
M  V30 1158 C 106.193 0.259245 -2.0043 0
M  V30 1159 C 106.514 1.51484 -1.22791 0
M  V30 1160 O 105.784 1.93037 -0.33368 0
M  V30 1161 H 104.364 0.0987845 -0.740439 0
M  V30 1162 H 107.026 -0.458302 -1.89435 0
M  V30 1163 H 106.122 0.505334 -3.07982 0
M  V30 1164 N 106.423 1.57458 -0.0668435 0
M  V30 1165 C 107.651 1.97624 0.612565 0
M  V30 1166 C 108.066 0.94502 1.63447 0
M  V30 1167 O 107.423 -0.0689276 1.8237 0
M  V30 1168 C 107.474 3.37869 1.28555 0
M  V30 1169 O 107.195 4.3704 0.304557 0
M  V30 1170 C 108.696 3.92882 2.05325 0
M  V30 1171 H 105.916 0.650045 0.166381 0
M  V30 1172 H 108.46 2.04035 -0.137782 0
M  V30 1173 H 106.615 3.3256 1.98702 0
M  V30 1174 H 107.029 5.18565 0.786779 0
M  V30 1175 H 108.503 4.93247 2.47812 0
M  V30 1176 H 108.98 3.29156 2.9078 0
M  V30 1177 H 109.586 4.01577 1.40056 0
M  V30 1178 N 107.901 -0.206675 1.56239 0
M  V30 1179 C 109.317 -0.557025 1.49564 0
M  V30 1180 C 109.517 -1.86424 0.764735 0
M  V30 1181 O 108.573 -2.50584 0.310491 0
M  V30 1182 C 109.886 -0.622478 2.94186 0
M  V30 1183 C 111.434 -0.712099 3.04792 0
M  V30 1184 C 111.909 -0.808767 4.50803 0
M  V30 1185 N 113.4 -0.8726 4.54907 0
M  V30 1186 C 114.135 -0.967365 5.65181 0
M  V30 1187 N 113.631 -1.02515 6.85173 0
M  V30 1188 N 115.424 -1.00366 5.53067 0
M  V30 1189 H 107.575 0.650943 2.02179 0
M  V30 1190 H 109.838 0.230387 0.919579 0
M  V30 1191 H 109.544 0.268727 3.50672 0
M  V30 1192 H 109.418 -1.4811 3.46905 0
M  V30 1193 H 111.805 -1.59374 2.48363 0
M  V30 1194 H 111.886 0.172489 2.55218 0
M  V30 1195 H 111.53 0.0684754 5.07854 0
M  V30 1196 H 111.46 -1.70899 4.98098 0
M  V30 1197 H 113.951 -0.837657 3.68499 0
M  V30 1198 H 114.264 -1.09765 7.64965 0
M  V30 1199 H 112.609 -0.994026 6.87855 0
M  V30 1200 H 115.8 -0.95527 4.58249 0
M  V30 1201 H 115.973 -1.07405 6.39037 0
M  V30 1202 N 109.379 -1.50304 -0.473955 0
M  V30 1203 C 110.607 -1.64902 -1.24959 0
M  V30 1204 C 111.022 -0.331198 -1.85872 0
M  V30 1205 O 110.379 0.68652 -1.69095 0
M  V30 1206 C 110.43 -2.73803 -2.36038 0
M  V30 1207 O 110.151 -4.00477 -1.77624 0
M  V30 1208 C 111.652 -2.99349 -3.26964 0
M  V30 1209 H 108.872 -0.554383 -0.378022 0
M  V30 1210 H 111.416 -1.9651 -0.566054 0
M  V30 1211 H 109.571 -2.44898 -3.00173 0
M  V30 1212 H 109.985 -4.60678 -2.5075 0
M  V30 1213 H 111.459 -3.79217 -4.01121 0
M  V30 1214 H 111.936 -2.10307 -3.85574 0
M  V30 1215 H 112.542 -3.29774 -2.68569 0
M  V30 1216 N 110.857 0.726932 -1.39834 0
M  V30 1217 C 112.134 1.47902 -1.28001 0
M  V30 1218 C 112.514 2.1083 0.106789 0
M  V30 1219 O 111.862 1.99242 1.11869 0
M  V30 1220 C 112.072 2.52392 -2.41038 0
M  V30 1221 C 113.42 3.18546 -2.80737 0
M  V30 1222 O 114.444 2.62708 -2.40547 0
M  V30 1223 O 113.303 4.19604 -3.50135 0
M  V30 1224 H 110.397 0.657163 -0.502062 0
M  V30 1225 H 112.943 0.760071 -1.51727 0
M  V30 1226 H 111.715 2.04329 -3.33715 0
M  V30 1227 H 111.338 3.31837 -2.19021 0
M  V30 1228 N 112.336 1.25143 0.95797 0
M  V30 1229 C 113.561 1.12521 1.74223 0
M  V30 1230 C 113.986 -0.317402 1.85403 0
M  V30 1231 O 113.344 -1.2299 1.33204 0
M  V30 1232 C 113.392 1.78062 3.1357 0
M  V30 1233 O 112.496 1.058 3.98598 0
M  V30 1234 H 111.837 0.39304 0.535178 0
M  V30 1235 H 114.367 1.65641 1.201 0
M  V30 1236 H 114.377 1.84213 3.64046 0
M  V30 1237 H 113.052 2.83021 3.04749 0
M  V30 1238 H 111.629 1.07506 3.57067 0
M  V30 1239 N 113.814 -1.1601 1.06675 0
M  V30 1240 C 115.23 -1.38622 0.790948 0
M  V30 1241 C 115.43 -1.92109 -0.607965 0
M  V30 1242 O 114.486 -2.12239 -1.36787 0
M  V30 1243 C 115.799 -2.36347 1.85905 0
M  V30 1244 C 117.347 -2.50023 1.88301 0
M  V30 1245 C 117.822 -3.51033 2.94176 0
M  V30 1246 N 119.313 -3.58563 2.93235 0
M  V30 1247 C 120.048 -4.36521 3.71803 0
M  V30 1248 N 119.544 -5.17869 4.602 0
M  V30 1249 N 121.337 -4.31541 3.60178 0
M  V30 1250 H 113.488 -0.796294 1.96908 0
M  V30 1251 H 115.751 -0.412597 0.853503 0
M  V30 1252 H 115.457 -2.04147 2.86386 0
M  V30 1253 H 115.331 -3.36042 1.71334 0
M  V30 1254 H 117.718 -2.81524 0.884769 0
M  V30 1255 H 117.799 -1.5035 2.06951 0
M  V30 1256 H 117.443 -3.20268 3.94196 0
M  V30 1257 H 117.373 -4.50445 2.72776 0
M  V30 1258 H 119.864 -3.00496 2.29152 0
M  V30 1259 H 120.177 -5.74578 5.16797 0
M  V30 1260 H 118.522 -5.17199 4.64253 0
M  V30 1261 H 121.713 -3.67051 2.90502 0
M  V30 1262 H 121.886 -4.9205 4.21653 0
M  V30 1263 N 115.292 -0.849877 -1.32721 0
M  V30 1264 C 116.202 -0.293791 -2.32753 0
M  V30 1265 C 117.218 0.585906 -1.63839 0
M  V30 1266 O 118.394 0.487413 -1.95413 0
M  V30 1267 C 115.459 0.512752 -3.42887 0
M  V30 1268 C 114.52 -0.39252 -4.27502 0
M  V30 1269 C 113.753 0.375625 -5.32377 0
M  V30 1270 O 113.976 1.60613 -5.4732 0
M  V30 1271 O 112.91 -0.256094 -6.01355 0
M  V30 1272 H 116.736 -1.12242 -2.82197 0
M  V30 1273 H 114.321 -0.612685 -1.36259 0
M  V30 1274 H 116.203 0.970704 -4.10067 0
M  V30 1275 H 114.878 1.31826 -2.95641 0
M  V30 1276 H 113.785 -0.898547 -3.63149 0
M  V30 1277 H 115.118 -1.16309 -4.7826 0
M  V30 1278 N 116.77 1.45427 -0.607355 0
M  V30 1279 C 118.047 1.9557 -0.0344566 0
M  V30 1280 C 118.427 1.54979 1.43334 0
M  V30 1281 O 117.775 0.812241 2.13576 0
M  V30 1282 C 117.985 3.48226 -0.232321 0
M  V30 1283 C 119.333 4.2445 -0.113001 0
M  V30 1284 O 120.357 3.55829 -0.162431 0
M  V30 1285 O 119.216 5.465 0.00209442 0
M  V30 1286 H 116.31 0.826222 0.0358667 0
M  V30 1287 H 118.856 1.55594 -0.6774 0
M  V30 1288 H 117.628 3.70739 -1.25174 0
M  V30 1289 H 117.251 3.95092 0.445896 0
M  V30 1290 N 118.248 0.346503 1.53744 0
M  V30 1291 C 119.158 -0.517293 2.28826 0
M  V30 1292 C 120.174 -1.10935 1.3405 0
M  V30 1293 O 121.35 -1.1244 1.6709 0
M  V30 1294 C 118.415 -1.65098 3.04866 0
M  V30 1295 C 117.476 -1.0884 4.15274 0
M  V30 1296 C 116.709 -2.16806 4.87679 0
M  V30 1297 O 116.932 -3.3758 4.59778 0
M  V30 1298 O 115.866 -1.80934 5.74061 0
M  V30 1299 H 119.692 0.0931396 3.03557 0
M  V30 1300 H 117.277 0.111458 1.48984 0
M  V30 1301 H 119.159 -2.31053 3.5241 0
M  V30 1302 H 117.834 -2.24717 2.32989 0
M  V30 1303 H 116.741 -0.3933 3.72027 0
M  V30 1304 H 118.074 -0.537036 4.89261 0
M  V30 1305 N 119.726 -1.57421 0.075193 0
M  V30 1306 C 120.975 -1.92794 -0.592731 0
M  V30 1307 C 121.288 -0.957478 -1.70563 0
M  V30 1308 O 122.494 -1.20417 -2.43335 0
M  V30 1309 C 120.95 -3.42495 -1.10569 0
M  V30 1310 C 120.558 -4.47994 -0.0236121 0
M  V30 1311 C 122.302 -3.86864 -1.74748 0
M  V30 1312 C 120.209 -5.88829 -0.550803 0
M  V30 1313 H 119.139 -0.719591 -0.225177 0
M  V30 1314 H 121.79 -1.82902 0.147978 0
M  V30 1315 H 120.172 -3.47471 -1.89947 0
M  V30 1316 H 121.346 -4.54637 0.751099 0
M  V30 1317 H 119.661 -4.13113 0.522159 0
M  V30 1318 H 122.258 -4.8947 -2.15229 0
M  V30 1319 H 122.601 -3.24417 -2.60882 0
M  V30 1320 H 123.134 -3.84504 -1.01986 0
M  V30 1321 H 119.873 -6.54929 0.273457 0
M  V30 1322 H 119.393 -5.85698 -1.29296 0
M  V30 1323 H 121.072 -6.38811 -1.02613 0
M  V30 1324 N 121.204 0.198386 -1.56346 0
M  V30 1325 C 122.429 0.939682 -1.84891 0
M  V30 1326 C 122.854 1.76202 -0.658369 0
M  V30 1327 O 122.212 1.76993 0.392851 0
M  V30 1328 C 122.26 1.81428 -3.11635 0
M  V30 1329 O 121.364 2.91265 -2.91956 0
M  V30 1330 H 120.705 0.264807 -0.608912 0
M  V30 1331 H 123.235 0.204695 -2.03573 0
M  V30 1332 H 123.245 2.21958 -3.42343 0
M  V30 1333 H 121.92 1.21004 -3.97908 0
M  V30 1334 H 120.497 2.54514 -2.72538 0
M  V30 1335 N 122.682 1.50554 0.465978 0
M  V30 1336 C 124.093 1.54599 1.04671 0
M  V30 1337 C 124.444 0.352488 1.93008 0
M  V30 1338 O 123.569 -0.534044 2.09707 0
M  V30 1339 C 124.164 2.80166 1.90505 0
M  V30 1340 C 122.723 2.86876 2.43678 0
M  V30 1341 C 121.87 2.48947 1.22151 0
M  V30 1342 H 124.821 1.56744 0.248384 0
M  V30 1343 H 124.842 2.62311 2.75633 0
M  V30 1344 H 124.354 3.67013 1.26186 0
M  V30 1345 H 122.455 2.04393 3.11536 0
M  V30 1346 H 122.568 3.89885 2.78436 0
M  V30 1347 H 120.932 2.01498 1.5579 0
M  V30 1348 H 121.715 3.38107 0.594866 0
M  V30 1349 N 124.16 -0.719506 1.40217 0
M  V30 1350 C 125.571 -1.29848 1.34151 0
M  V30 1351 C 125.922 -1.96196 0.0131349 0
M  V30 1352 O 125.047 -1.973 -0.88892 0
M  V30 1353 C 125.642 -2.36118 2.42968 0
M  V30 1354 C 124.201 -2.8965 2.40374 0
M  V30 1355 C 123.348 -1.63393 2.24049 0
M  V30 1356 H 126.299 -0.51591 1.5008 0
M  V30 1357 H 126.32 -3.16871 2.10649 0
M  V30 1358 H 125.832 -1.878 3.39636 0
M  V30 1359 H 123.933 -3.42208 1.47392 0
M  V30 1360 H 124.046 -3.4171 3.35814 0
M  V30 1361 H 122.41 -1.88312 1.71495 0
M  V30 1362 H 123.193 -1.17104 3.2271 0
M  V30 1363 N 125.638 -1.25649 -0.95132 0
M  V30 1364 C 127.049 -1.09654 -1.51106 0
M  V30 1365 C 127.4 0.326615 -1.93462 0
M  V30 1366 O 126.525 1.21697 -1.78938 0
M  V30 1367 C 127.12 -1.98437 -2.74605 0
M  V30 1368 C 125.679 -1.86618 -3.2688 0
M  V30 1369 C 124.826 -1.9239 -1.99703 0
M  V30 1370 H 127.777 -1.38887 -0.767865 0
M  V30 1371 H 127.798 -1.5263 -3.48546 0
M  V30 1372 H 127.31 -3.02009 -2.43746 0
M  V30 1373 H 125.411 -0.859421 -3.62553 0
M  V30 1374 H 125.524 -2.71607 -3.94673 0
M  V30 1375 H 123.888 -1.36317 -2.15151 0
M  V30 1376 H 124.671 -2.97573 -1.71188 0
M  V30 1377 N 127.117 1.15442 -1.07289 0
M  V30 1378 C 128.528 1.67803 -0.818475 0
M  V30 1379 C 128.879 1.8489 0.656507 0
M  V30 1380 O 128.004 1.55176 1.50829 0
M  V30 1381 C 128.599 3.04805 -1.47917 0
M  V30 1382 C 127.158 3.54245 -1.27229 0
M  V30 1383 C 126.305 2.29986 -1.54925 0
M  V30 1384 H 129.256 0.996646 -1.23502 0
M  V30 1385 H 129.277 3.69702 -0.90005 0
M  V30 1386 H 128.789 2.92336 -2.55267 0
M  V30 1387 H 126.89 3.71956 -0.21899 0
M  V30 1388 H 127.003 4.35723 -1.99203 0
M  V30 1389 H 125.367 2.35496 -0.970242 0
M  V30 1390 H 126.15 2.20105 -2.63455 0
M  V30 1391 N 128.595 0.856903 1.32268 0
M  V30 1392 C 129.543 0.291987 2.3076 0
M  V30 1393 C 130.537 -0.585857 1.58947 0
M  V30 1394 O 131.743 -0.47341 1.73663 0
M  V30 1395 H 128.118 0.075721 0.748178 0
M  V30 1396 H 130.089 1.13687 2.75895 0
M  V30 1397 C 128.838 -0.502869 3.44044 0
M  V30 1398 H 128.161 0.163328 3.99466 0
M  V30 1399 H 129.601 -0.863691 4.1511 0
M  V30 1400 C 128.06 -1.68898 2.91505 0
M  V30 1401 O 128.59 -2.78811 2.89184 0
M  V30 1402 N 126.796 -1.51679 2.47875 0
M  V30 1403 H 126.343 -0.622666 2.49961 0
M  V30 1404 H 126.301 -2.31184 2.13076 0
M  V30 1405 N 130.073 -1.45103 0.615059 0
M  V30 1406 C 131.484 -1.85654 0.197383 0
M  V30 1407 C 131.835 -1.51433 -1.24749 0
M  V30 1408 O 130.96 -0.944608 -1.94695 0
M  V30 1409 C 131.555 -3.36972 0.351448 0
M  V30 1410 C 130.114 -3.76398 -0.011593 0
M  V30 1411 C 129.261 -2.69024 0.672394 0
M  V30 1412 H 132.212 -1.35797 0.821263 0
M  V30 1413 H 132.233 -3.78239 -0.414227 0
M  V30 1414 H 131.745 -3.61847 1.40314 0
M  V30 1415 H 129.846 -3.5714 -1.06217 0
M  V30 1416 H 129.959 -4.77532 0.387265 0
M  V30 1417 H 128.323 -2.54465 0.109284 0
M  V30 1418 H 129.106 -2.96735 1.72636 0
M  V30 1419 N 131.551 -0.354651 -1.53558 0
M  V30 1420 C 132.797 0.238797 -2.01389 0
M  V30 1421 C 133.13 1.49309 -1.2418 0
M  V30 1422 O 132.405 1.91638 -0.332457 0
M  V30 1423 C 132.688 0.541771 -3.56001 0
M  V30 1424 C 132.541 -0.725388 -4.43912 0
M  V30 1425 C 133.86 1.34685 -4.18984 0
M  V30 1426 H 130.979 0.0853177 -0.732045 0
M  V30 1427 H 133.621 -0.477384 -1.83905 0
M  V30 1428 H 131.771 1.15189 -3.71031 0
M  V30 1429 H 133.443 -1.36313 -4.407 0
M  V30 1430 H 131.686 -1.34801 -4.12324 0
M  V30 1431 H 132.357 -0.468505 -5.50008 0
M  V30 1432 H 134.833 0.830837 -4.07721 0
M  V30 1433 H 133.709 1.52759 -5.27215 0
M  V30 1434 H 133.97 2.35221 -3.74331 0
M  V30 1435 N 133.029 1.57378 -0.0835403 0
M  V30 1436 C 134.275 1.94217 0.583733 0
M  V30 1437 C 134.608 0.964653 1.68547 0
M  V30 1438 O 133.883 -0.00422258 1.945 0
M  V30 1439 C 134.166 3.41253 1.14972 0
M  V30 1440 C 134.019 4.49768 0.0538277 0
M  V30 1441 C 135.338 3.89352 2.05166 0
M  V30 1442 H 132.457 0.706233 0.210724 0
M  V30 1443 H 135.099 1.89392 -0.1519 0
M  V30 1444 H 133.249 3.45496 1.77665 0
M  V30 1445 H 134.921 4.57641 -0.579851 0
M  V30 1446 H 133.164 4.29432 -0.614068 0
M  V30 1447 H 133.835 5.49817 0.490452 0
M  V30 1448 H 136.311 3.87189 1.52393 0
M  V30 1449 H 135.187 4.92822 2.41698 0
M  V30 1450 H 135.448 3.27973 2.96456 0
M  V30 1451 N 134.507 -0.190092 1.56449 0
M  V30 1452 C 135.454 -1.23557 1.94942 0
M  V30 1453 C 136.424 -1.44972 0.810696 0
M  V30 1454 O 137.609 -1.58023 1.06927 0
M  V30 1455 C 134.749 -2.57416 2.2985 0
M  V30 1456 C 133.862 -2.43537 3.5681 0
M  V30 1457 C 132.997 -3.70134 3.81017 0
M  V30 1458 C 132.036 -3.51109 5.01387 0
M  V30 1459 N 131.173 -4.6973 5.21822 0
M  V30 1460 H 136.013 -0.900304 2.84075 0
M  V30 1461 H 133.55 -0.43318 1.40577 0
M  V30 1462 H 135.508 -3.35409 2.48106 0
M  V30 1463 H 134.138 -2.88975 1.43852 0
M  V30 1464 H 133.19 -1.56816 3.46573 0
M  V30 1465 H 134.502 -2.25415 4.4496 0
M  V30 1466 H 133.656 -4.56566 3.9954 0
M  V30 1467 H 132.395 -3.91215 2.91207 0
M  V30 1468 H 131.4 -2.63063 4.82782 0
M  V30 1469 H 132.625 -3.31468 5.9271 0
M  V30 1470 H 130.571 -4.91065 4.34961 0
M  V30 1471 H 130.488 -4.54452 6.0416 0
M  V30 1472 H 131.756 -5.57499 5.44808 0
M  V30 1473 N 135.985 -1.50799 -0.457987 0
M  V30 1474 C 137.233 -1.62121 -1.2067 0
M  V30 1475 C 137.554 -0.329793 -1.92191 0
M  V30 1476 O 136.824 0.653409 -1.84682 0
M  V30 1477 H 135.404 -0.597441 -0.448411 0
M  V30 1478 H 138.066 -1.87637 -0.527096 0
M  V30 1479 H 137.162 -2.43882 -1.94751 0
M  V30 1480 N 137.463 0.71206 -1.40597 0
M  V30 1481 C 138.879 1.02058 -1.22704 0
M  V30 1482 C 139.079 2.01228 -0.104729 0
M  V30 1483 O 138.135 2.4674 0.53624 0
M  V30 1484 C 139.448 1.56094 -2.57012 0
M  V30 1485 C 140.996 1.6806 -2.64054 0
M  V30 1486 C 141.471 2.25501 -3.9864 0
M  V30 1487 N 142.962 2.32882 -4.004 0
M  V30 1488 C 143.697 2.78317 -5.01325 0
M  V30 1489 N 143.193 3.23478 -6.12645 0
M  V30 1490 N 144.986 2.77733 -4.88693 0
M  V30 1491 H 137.137 0.0547896 -2.12329 0
M  V30 1492 H 139.4 0.0869027 -0.944008 0
M  V30 1493 H 139.106 0.906865 -3.39807 0
M  V30 1494 H 138.98 2.54564 -2.78347 0
M  V30 1495 H 141.367 2.32583 -1.81629 0
M  V30 1496 H 141.448 0.681802 -2.46546 0
M  V30 1497 H 141.092 1.61598 -4.81506 0
M  V30 1498 H 141.022 3.26102 -4.13479 0
M  V30 1499 H 143.513 2.00991 -3.20017 0
M  V30 1500 H 143.826 3.56725 -6.85542 0
M  V30 1501 H 142.171 3.21429 -6.16205 0
M  V30 1502 H 145.362 2.4179 -4.00818 0
M  V30 1503 H 145.535 3.12826 -5.67489 0
M  V30 1504 N 138.941 1.26152 0.944643 0
M  V30 1505 C 140.357 1.03189 1.21754 0
M  V30 1506 C 140.557 -0.245112 2.00004 0
M  V30 1507 O 139.613 -0.955176 2.33736 0
M  V30 1508 C 140.926 2.26119 1.98219 0
M  V30 1509 C 142.474 2.30984 2.11224 0
M  V30 1510 C 142.949 3.53597 2.91089 0
M  V30 1511 N 144.44 3.54053 2.98664 0
M  V30 1512 C 145.175 4.45593 3.60881 0
M  V30 1513 N 144.671 5.47416 4.24626 0
M  V30 1514 N 146.464 4.33252 3.58119 0
M  V30 1515 H 138.615 2.08177 0.421437 0
M  V30 1516 H 140.878 0.914723 0.248969 0
M  V30 1517 H 140.584 3.18984 1.48128 0
M  V30 1518 H 140.458 2.3009 2.98895 0
M  V30 1519 H 142.845 1.38635 2.60508 0
M  V30 1520 H 142.926 2.31026 1.09821 0
M  V30 1521 H 142.57 4.46273 2.42493 0
M  V30 1522 H 142.5 3.50802 3.92741 0
M  V30 1523 H 144.991 2.80403 2.53343 0
M  V30 1524 H 145.304 6.13459 4.69987 0
M  V30 1525 H 143.649 5.51278 4.23223 0
M  V30 1526 H 146.84 3.52924 3.0751 0
M  V30 1527 H 147.013 5.04786 4.06319 0
M  V30 1528 N 140.419 -1.14872 1.07899 0
M  V30 1529 C 141.835 -1.37776 0.805606 0
M  V30 1530 C 142.035 -1.92743 -0.587555 0
M  V30 1531 O 141.091 -2.13678 -1.34528 0
M  V30 1532 C 142.404 -2.34361 1.88402 0
M  V30 1533 C 143.952 -2.48012 1.90942 0
M  V30 1534 C 144.427 -3.47893 2.97883 0
M  V30 1535 N 145.918 -3.55433 2.97021 0
M  V30 1536 C 146.653 -4.32553 3.76412 0
M  V30 1537 N 146.149 -5.12959 4.65666 0
M  V30 1538 N 147.942 -4.27697 3.64735 0
M  V30 1539 H 140.093 -0.775365 1.97742 0
M  V30 1540 H 142.356 -0.403521 0.857831 0
M  V30 1541 H 142.062 -2.01098 2.88535 0
M  V30 1542 H 141.936 -3.34206 1.74889 0
M  V30 1543 H 144.323 -2.8057 0.914579 0
M  V30 1544 H 144.404 -1.48147 2.08534 0
M  V30 1545 H 144.048 -3.16069 3.97571 0
M  V30 1546 H 143.978 -4.47527 2.77538 0
M  V30 1547 H 146.469 -2.98048 2.32326 0
M  V30 1548 H 146.782 -5.69065 5.22862 0
M  V30 1549 H 145.127 -5.12245 4.69712 0
M  V30 1550 H 148.318 -3.63949 2.94378 0
M  V30 1551 H 148.491 -4.8755 4.26848 0
M  V30 1552 N 141.898 -0.863906 -1.31812 0
M  V30 1553 C 143.314 -0.555004 -1.49639 0
M  V30 1554 C 143.514 0.912266 -1.79666 0
M  V30 1555 O 142.57 1.69479 -1.87171 0
M  V30 1556 C 143.883 -1.44998 -2.63431 0
M  V30 1557 C 145.431 -1.45138 -2.77316 0
M  V30 1558 C 145.906 -2.33179 -3.94197 0
M  V30 1559 N 147.397 -2.31025 -4.01474 0
M  V30 1560 C 148.132 -2.95871 -4.9117 0
M  V30 1561 N 147.628 -3.69863 -5.8581 0
M  V30 1562 N 149.421 -2.85211 -4.84367 0
M  V30 1563 H 141.572 -1.81339 -1.10589 0
M  V30 1564 H 143.835 -0.77505 -0.545895 0
M  V30 1565 H 143.541 -2.49377 -2.48 0
M  V30 1566 H 143.415 -1.14409 -3.59431 0
M  V30 1567 H 145.802 -0.415201 -2.92164 0
M  V30 1568 H 145.883 -1.79747 -1.82001 0
M  V30 1569 H 145.527 -3.3687 -3.80107 0
M  V30 1570 H 145.457 -1.95897 -4.88807 0
M  V30 1571 H 147.948 -1.77238 -3.33759 0
M  V30 1572 H 148.261 -4.16486 -6.50968 0
M  V30 1573 H 146.606 -3.73971 -5.85808 0
M  V30 1574 H 149.797 -2.26948 -4.09405 0
M  V30 1575 H 149.97 -3.36027 -5.54066 0
M  V30 1576 N 143.376 1.44774 -0.622745 0
M  V30 1577 C 144.624 2.01721 -0.123655 0
M  V30 1578 C 144.945 1.49172 1.25589 0
M  V30 1579 O 144.215 0.691974 1.83272 0
M  V30 1580 H 142.795 0.745777 -0.0427225 0
M  V30 1581 H 145.457 1.77382 -0.807559 0
M  V30 1582 H 144.553 3.11984 -0.0849534 0
M  V30 1583 N 144.854 0.36279 1.53368 0
M  V30 1584 C 145.817 -0.472679 2.24273 0
M  V30 1585 C 146.817 -1.012 1.24961 0
M  V30 1586 O 148.007 -0.898194 1.49259 0
M  V30 1587 C 145.139 -1.66039 2.97731 0
M  V30 1588 H 146.332 0.14773 2.99536 0
M  V30 1589 H 143.885 0.114434 1.55881 0
M  V30 1590 H 144.62 -2.31896 2.26704 0
M  V30 1591 H 144.405 -1.28066 3.70596 0
M  V30 1592 H 145.895 -2.25252 3.51641 0
M  V30 1593 N 146.332 -1.57332 0.0918853 0
M  V30 1594 C 147.581 -1.93412 -0.572249 0
M  V30 1595 C 147.894 -0.975515 -1.69538 0
M  V30 1596 O 149.1 -1.22991 -2.42045 0
M  V30 1597 C 147.556 -3.43648 -1.0693 0
M  V30 1598 C 147.164 -4.47994 0.0239049 0
M  V30 1599 C 148.908 -3.88695 -1.70635 0
M  V30 1600 C 146.815 -5.89381 -0.488319 0
M  V30 1601 H 145.745 -0.721939 -0.217532 0
M  V30 1602 H 148.396 -1.82735 0.167369 0
M  V30 1603 H 146.778 -3.49466 -1.8625 0
M  V30 1604 H 147.952 -4.53815 0.799277 0
M  V30 1605 H 146.267 -4.12536 0.565946 0
M  V30 1606 H 148.864 -4.91725 -2.10025 0
M  V30 1607 H 149.207 -3.27166 -2.57426 0
M  V30 1608 H 149.74 -3.85564 -0.979023 0
M  V30 1609 H 146.479 -6.54602 0.342906 0
M  V30 1610 H 145.999 -5.87037 -1.23077 0
M  V30 1611 H 147.678 -6.39863 -0.958317 0
M  V30 1612 N 147.81 0.181792 -1.56548 0
M  V30 1613 C 149.035 0.920019 -1.85877 0
M  V30 1614 C 149.46 1.75494 -0.677021 0
M  V30 1615 O 148.818 1.77399 0.374056 0
M  V30 1616 C 148.866 1.78112 -3.13542 0
M  V30 1617 O 147.97 2.88152 -2.95029 0
M  V30 1618 H 147.311 0.258334 -0.611686 0
M  V30 1619 H 149.841 0.183092 -2.03779 0
M  V30 1620 H 149.851 2.18314 -3.44678 0
M  V30 1621 H 148.526 1.16777 -3.99169 0
M  V30 1622 H 147.103 2.51609 -2.75222 0
M  V30 1623 N 149.288 1.51039 0.449983 0
M  V30 1624 C 150.251 1.70863 1.5277 0
M  V30 1625 C 151.251 0.578846 1.5002 0
M  V30 1626 O 152.441 0.846213 1.52266 0
M  V30 1627 C 149.573 1.75341 2.9235 0
M  V30 1628 H 150.766 2.67034 1.36502 0
M  V30 1629 H 148.319 1.40838 0.677812 0
M  V30 1630 H 149.054 0.809383 3.14037 0
M  V30 1631 H 148.839 2.57436 2.95752 0
M  V30 1632 H 150.329 1.92559 3.70555 0
M  V30 1633 N 150.766 -0.704594 1.40972 0
M  V30 1634 C 151.676 -1.84856 1.44448 0
M  V30 1635 C 152.692 -1.70726 0.335961 0
M  V30 1636 O 153.868 -1.92799 0.582276 0
M  V30 1637 C 150.933 -3.20758 1.31587 0
M  V30 1638 C 149.994 -3.47063 2.52677 0
M  V30 1639 C 149.227 -4.76481 2.4042 0
M  V30 1640 O 149.45 -5.52341 1.42391 0
M  V30 1641 O 148.384 -5.03367 3.30007 0
M  V30 1642 H 152.21 -1.8488 2.40942 0
M  V30 1643 H 149.795 -0.85647 1.22413 0
M  V30 1644 H 151.677 -4.01913 1.26665 0
M  V30 1645 H 150.352 -3.21438 0.382049 0
M  V30 1646 H 149.259 -2.65873 2.63177 0
M  V30 1647 H 150.592 -3.5119 3.44858 0
M  V30 1648 N 152.244 -1.26651 -0.937939 0
M  V30 1649 C 153.49 -1.12553 -1.687 0
M  V30 1650 C 153.823 0.329782 -1.91379 0
M  V30 1651 O 153.098 1.24202 -1.4968 0
M  V30 1652 C 153.381 -1.89862 -3.05981 0
M  V30 1653 C 153.234 -3.43318 -2.90607 0
M  V30 1654 C 154.553 -1.69499 -4.0615 0
M  V30 1655 H 151.672 -0.410257 -0.612257 0
M  V30 1656 H 154.314 -1.55685 -1.08913 0
M  V30 1657 H 152.464 -1.53204 -3.57017 0
M  V30 1658 H 154.136 -3.89747 -2.46769 0
M  V30 1659 H 152.379 -3.70179 -2.26164 0
M  V30 1660 H 153.05 -3.92642 -3.8799 0
M  V30 1661 H 155.526 -2.01442 -3.64088 0
M  V30 1662 H 154.402 -2.26002 -5.00214 0
M  V30 1663 H 154.663 -0.640365 -4.37438 0
M  V30 1664 N 153.722 1.14298 -1.08507 0
M  V30 1665 C 154.952 1.88945 -0.835663 0
M  V30 1666 C 155.36 1.78894 0.615928 0
M  V30 1667 O 154.703 1.1468 1.43506 0
M  V30 1668 C 154.765 3.39585 -1.17994 0
M  V30 1669 C 154.429 3.7342 -2.63451 0
M  V30 1670 C 155.426 3.73454 -3.61702 0
M  V30 1671 C 153.111 4.03368 -2.99332 0
M  V30 1672 C 155.105 4.02961 -4.93864 0
M  V30 1673 C 152.792 4.32538 -4.31687 0
M  V30 1674 C 153.79 4.32318 -5.28763 0
M  V30 1675 O 153.478 4.6078 -6.58739 0
M  V30 1676 H 153.21 0.605307 -0.300965 0
M  V30 1677 H 155.764 1.45673 -1.44806 0
M  V30 1678 H 153.994 3.83315 -0.51055 0
M  V30 1679 H 155.683 3.9554 -0.911182 0
M  V30 1680 H 156.449 3.50403 -3.35325 0
M  V30 1681 H 152.328 4.02692 -2.24411 0
M  V30 1682 H 155.872 4.02704 -5.69627 0
M  V30 1683 H 151.769 4.55059 -4.57812 0
M  V30 1684 H 152.537 4.78492 -6.64069 0
M  V30 1685 N 155.201 0.870884 1.31352 0
M  V30 1686 C 156.429 0.49677 2.00848 0
M  V30 1687 C 156.844 -0.910998 1.65367 0
M  V30 1688 O 156.201 -1.59696 0.883374 0
M  V30 1689 C 156.252 0.645308 3.55694 0
M  V30 1690 O 155.973 1.99764 3.89905 0
M  V30 1691 C 157.474 0.272326 4.42463 0
M  V30 1692 H 154.694 0.193462 0.642506 0
M  V30 1693 H 157.238 1.1723 1.67563 0
M  V30 1694 H 155.393 0.0173176 3.87396 0
M  V30 1695 H 155.807 2.00607 4.84621 0
M  V30 1696 H 157.281 0.427208 5.50344 0
M  V30 1697 H 157.758 -0.788587 4.32062 0
M  V30 1698 H 158.364 0.876054 4.1618 0
M  V30 1699 N 156.679 -1.44442 0.630414 0
M  V30 1700 C 157.589 -2.34476 -0.0761693 0
M  V30 1701 C 158.605 -1.52576 -0.836449 0
M  V30 1702 O 159.781 -1.85307 -0.788874 0
M  V30 1703 C 156.846 -3.30545 -1.04599 0
M  V30 1704 C 155.907 -4.28352 -0.28516 0
M  V30 1705 C 155.14 -5.19831 -1.20878 0
M  V30 1706 O 155.363 -5.15223 -2.44747 0
M  V30 1707 O 154.297 -5.97892 -0.693491 0
M  V30 1708 H 158.123 -2.96345 0.664324 0
M  V30 1709 H 155.708 -1.44203 0.39061 0
M  V30 1710 H 157.59 -3.89681 -1.60396 0
M  V30 1711 H 156.265 -2.7121 -1.76711 0
M  V30 1712 H 155.172 -3.72764 0.315837 0
M  V30 1713 H 156.505 -4.90605 0.395924 0
M  V30 1714 N 158.157 -0.370918 -1.53173 0
M  V30 1715 C 159.067 0.480823 -2.2962 0
M  V30 1716 C 160.083 1.08789 -1.35798 0
M  V30 1717 O 161.259 1.09768 -1.68858 0
M  V30 1718 C 158.324 1.60227 -3.07454 0
M  V30 1719 C 157.385 1.0222 -4.16953 0
M  V30 1720 C 156.618 2.0902 -4.91066 0
M  V30 1721 O 156.841 3.30222 -4.65091 0
M  V30 1722 O 155.775 1.71778 -5.76867 0
M  V30 1723 H 159.601 -0.141421 -3.03371 0
M  V30 1724 H 157.186 -0.135146 -1.48787 0
M  V30 1725 H 159.068 2.25417 -3.56041 0
M  V30 1726 H 157.743 2.20982 -2.36535 0
M  V30 1727 H 156.65 0.334064 -3.72605 0
M  V30 1728 H 157.983 0.459131 -4.90054 0
M  V30 1729 N 159.635 1.57281 -0.100228 0
M  V30 1730 C 160.912 1.86014 0.604812 0
M  V30 1731 C 161.292 0.998025 1.86018 0
M  V30 1732 O 160.64 0.0718184 2.28387 0
M  V30 1733 C 160.85 3.36784 0.915278 0
M  V30 1734 C 162.198 4.04957 1.27651 0
M  V30 1735 O 163.222 3.41695 1.00613 0
M  V30 1736 O 162.081 5.16593 1.7831 0
M  V30 1737 H 159.175 0.76942 0.303185 0
M  V30 1738 H 161.721 1.69176 -0.133313 0
M  V30 1739 H 160.493 3.91292 0.0248896 0
M  V30 1740 H 160.116 3.58987 1.70921 0
M  V30 1741 N 161.113 -0.173488 1.56642 0
M  V30 1742 C 162.076 -1.19859 1.95362 0
M  V30 1743 C 163.076 -1.37296 0.83704 0
M  V30 1744 O 164.266 -1.34739 1.10413 0
M  V30 1745 C 161.398 -2.56405 2.24654 0
M  V30 1746 H 162.591 -0.867062 2.87092 0
M  V30 1747 H 160.144 -0.415853 1.50666 0
M  V30 1748 H 160.879 -2.94576 1.35631 0
M  V30 1749 H 160.664 -2.45115 3.06041 0
M  V30 1750 H 162.154 -3.30287 2.5554 0
M  V30 1751 N 162.591 -1.51276 -0.441967 0
M  V30 1752 C 163.554 -1.7167 -1.51862 0
M  V30 1753 C 164.554 -0.586793 -1.49711 0
M  V30 1754 O 165.744 -0.854276 -1.51815 0
M  V30 1755 C 162.876 -1.76889 -2.91416 0
M  V30 1756 H 164.069 -2.67754 -1.35084 0
M  V30 1757 H 161.622 -1.41196 -0.670333 0
M  V30 1758 H 162.357 -0.826026 -3.13604 0
M  V30 1759 H 162.142 -2.59001 -2.94382 0
M  V30 1760 H 163.632 -1.94522 -3.69528 0
M  V30 1761 N 164.069 0.697108 -1.41344 0
M  V30 1762 C 165.294 1.49096 -1.44171 0
M  V30 1763 C 165.719 1.88038 -0.0481568 0
M  V30 1764 O 165.077 1.54525 0.948243 0
M  V30 1765 C 165.125 2.73088 -2.3549 0
M  V30 1766 O 164.229 3.70514 -1.81088 0
M  V30 1767 H 163.57 0.448801 -0.489361 0
M  V30 1768 H 166.1 0.856992 -1.85787 0
M  V30 1769 H 166.11 3.21413 -2.51312 0
M  V30 1770 H 164.785 2.44081 -3.36745 0
M  V30 1771 H 163.362 3.29441 -1.74708 0
M  V30 1772 N 165.547 1.27147 0.931209 0
M  V30 1773 C 166.777 1.15914 1.71019 0
M  V30 1774 C 167.185 -0.287112 1.87009 0
M  V30 1775 O 166.528 -1.20761 1.38429 0
M  V30 1776 C 166.59 1.76647 3.13107 0
M  V30 1777 C 166.254 3.25807 3.20467 0
M  V30 1778 C 167.251 4.22489 3.02983 0
M  V30 1779 C 164.936 3.66452 3.43538 0
M  V30 1780 C 166.93 5.57794 3.08454 0
M  V30 1781 C 164.617 5.01888 3.48643 0
M  V30 1782 C 165.615 5.97369 3.31119 0
M  V30 1783 O 165.303 7.30337 3.35952 0
M  V30 1784 H 165.035 0.404062 0.54195 0
M  V30 1785 H 167.589 1.68457 1.17521 0
M  V30 1786 H 165.819 1.18578 3.68071 0
M  V30 1787 H 167.508 1.60179 3.72958 0
M  V30 1788 H 168.274 3.92425 2.85004 0
M  V30 1789 H 164.153 2.92611 3.5623 0
M  V30 1790 H 167.697 6.32298 2.94694 0
M  V30 1791 H 163.594 5.31609 3.66145 0
M  V30 1792 H 164.362 7.38739 3.5243 0
M  V30 1793 N 167.025 -1.13721 1.09112 0
M  V30 1794 C 168.271 -1.85198 0.826414 0
M  V30 1795 C 168.604 -1.83129 -0.646319 0
M  V30 1796 O 167.879 -1.2671 -1.47563 0
M  V30 1797 C 168.162 -3.33507 1.35812 0
M  V30 1798 C 168.015 -3.44108 2.89672 0
M  V30 1799 C 169.334 -4.28838 0.989256 0
M  V30 1800 H 166.453 -0.67243 0.301675 0
M  V30 1801 H 169.095 -1.33499 1.35197 0
M  V30 1802 H 167.245 -3.77666 0.911082 0
M  V30 1803 H 168.917 -3.08684 3.428 0
M  V30 1804 H 167.16 -2.85087 3.26967 0
M  V30 1805 H 167.831 -4.48388 3.21951 0
M  V30 1806 H 170.307 -3.92734 1.37475 0
M  V30 1807 H 169.183 -5.31051 1.38838 0
M  V30 1808 H 169.444 -4.4198 -0.102924 0
M  V30 1809 N 168.503 -0.877838 -1.30888 0
M  V30 1810 C 169.919 -0.570844 -1.49042 0
M  V30 1811 C 170.119 0.893159 -1.80624 0
M  V30 1812 O 169.175 1.67485 -1.88958 0
M  V30 1813 C 170.488 -1.47784 -2.61878 0
M  V30 1814 C 172.036 -1.48071 -2.75761 0
M  V30 1815 C 172.511 -2.37347 -3.91702 0
M  V30 1816 N 174.002 -2.35271 -3.99001 0
M  V30 1817 C 174.737 -3.01063 -4.88004 0
M  V30 1818 N 174.233 -3.76055 -5.81854 0
M  V30 1819 N 176.026 -2.90332 -4.81315 0
M  V30 1820 H 168.177 -1.82502 -1.0866 0
M  V30 1821 H 170.44 -0.780797 -0.537644 0
M  V30 1822 H 170.146 -2.51993 -2.45341 0
M  V30 1823 H 170.02 -1.18215 -3.58197 0
M  V30 1824 H 172.407 -0.446166 -2.91708 0
M  V30 1825 H 172.488 -1.81668 -1.80085 0
M  V30 1826 H 172.132 -3.40883 -3.76512 0
M  V30 1827 H 172.062 -2.01071 -4.86701 0
M  V30 1828 H 174.553 -1.80768 -3.3186 0
M  V30 1829 H 174.866 -4.23366 -6.46514 0
M  V30 1830 H 173.211 -3.80163 -5.81808 0
M  V30 1831 H 176.402 -2.31278 -4.06974 0
M  V30 1832 H 176.575 -3.41885 -5.50471 0
M  V30 1833 N 169.982 1.44106 -0.638065 0
M  V30 1834 C 170.929 2.30715 0.062701 0
M  V30 1835 C 171.899 1.43882 0.829883 0
M  V30 1836 O 173.084 1.72775 0.809532 0
M  V30 1837 C 170.224 3.29258 1.03358 0
M  V30 1838 C 169.337 4.31192 0.26409 0
M  V30 1839 C 168.472 5.16825 1.22741 0
M  V30 1840 C 167.511 6.10462 0.447475 0
M  V30 1841 N 166.648 6.8877 1.36161 0
M  V30 1842 H 171.488 2.90096 -0.681781 0
M  V30 1843 H 169.025 1.42925 -0.347988 0
M  V30 1844 H 170.983 3.84886 1.60992 0
M  V30 1845 H 169.613 2.71562 1.74511 0
M  V30 1846 H 168.665 3.77981 -0.428295 0
M  V30 1847 H 169.977 4.97619 -0.343052 0
M  V30 1848 H 169.131 5.77004 1.87487 0
M  V30 1849 H 167.87 4.50488 1.86847 0
M  V30 1850 H 166.875 5.49386 -0.213433 0
M  V30 1851 H 168.1 6.78837 -0.188968 0
M  V30 1852 H 166.046 6.25096 1.98975 0
M  V30 1853 H 165.963 7.51663 0.808656 0
M  V30 1854 H 167.231 7.53467 1.99769 0
M  V30 1855 N 171.46 0.379036 1.52974 0
M  V30 1856 C 172.706 -0.206727 2.01744 0
M  V30 1857 C 173.039 -1.47314 1.26539 0
M  V30 1858 O 172.314 -1.91084 0.362903 0
M  V30 1859 C 172.597 -0.485066 3.56818 0
M  V30 1860 C 172.45 0.795919 4.42702 0
M  V30 1861 C 173.769 -1.28003 4.21074 0
M  V30 1862 H 170.888 -0.0736607 0.73331 0
M  V30 1863 H 173.53 0.506581 1.83122 0
M  V30 1864 H 171.68 -1.09272 3.72816 0
M  V30 1865 H 173.352 1.43307 4.38476 0
M  V30 1866 H 171.595 1.41344 4.10127 0
M  V30 1867 H 172.266 0.555947 5.49193 0
M  V30 1868 H 174.742 -0.765867 4.08991 0
M  V30 1869 H 173.618 -1.44352 5.29579 0
M  V30 1870 H 173.879 -2.29236 3.78026 0
M  V30 1871 N 172.938 -1.57226 0.108567 0
M  V30 1872 C 174.187 -1.94008 -0.551703 0
M  V30 1873 C 174.5 -0.993442 -1.68494 0
M  V30 1874 O 175.706 -1.25551 -2.40726 0
M  V30 1875 C 174.162 -3.44763 -1.03279 0
M  V30 1876 C 173.77 -4.47943 0.0714193 0
M  V30 1877 C 175.514 -3.90483 -1.66503 0
M  V30 1878 C 173.421 -5.89865 -0.425779 0
M  V30 1879 H 172.351 -0.724206 -0.209863 0
M  V30 1880 H 175.002 -1.82547 0.186741 0
M  V30 1881 H 173.384 -3.51422 -1.82533 0
M  V30 1882 H 174.558 -4.52942 0.847365 0
M  V30 1883 H 172.873 -4.11913 0.609669 0
M  V30 1884 H 175.47 -4.93925 -2.04798 0
M  V30 1885 H 175.813 -3.29877 -2.53942 0
M  V30 1886 H 176.346 -3.86581 -0.938074 0
M  V30 1887 H 173.085 -6.54202 0.412316 0
M  V30 1888 H 172.605 -5.88309 -1.16843 0
M  V30 1889 H 174.284 -6.40844 -0.890397 0
M  V30 1890 N 174.416 0.165178 -1.56732 0
M  V30 1891 C 175.827 0.727046 -1.71962 0
M  V30 1892 C 176.178 1.82508 -0.720078 0
M  V30 1893 O 175.303 2.16082 0.117242 0
M  V30 1894 C 175.898 1.32559 -3.11791 0
M  V30 1895 C 174.457 1.83422 -3.28684 0
M  V30 1896 C 173.604 0.715567 -2.67908 0
M  V30 1897 H 176.555 -0.0602896 -1.58585 0
M  V30 1898 H 176.576 2.19533 -3.10782 0
M  V30 1899 H 176.088 0.526195 -3.84516 0
M  V30 1900 H 174.189 2.65986 -2.60926 0
M  V30 1901 H 174.302 1.97543 -4.36478 0
M  V30 1902 H 172.666 1.13758 -2.27884 0
M  V30 1903 H 173.449 -0.0720836 -3.43224 0
M  V30 1904 N 175.894 1.51508 0.433938 0
M  V30 1905 C 176.841 1.73068 1.52696 0
M  V30 1906 C 177.811 0.572441 1.55924 0
M  V30 1907 O 178.996 0.807253 1.72882 0
M  V30 1908 C 176.136 1.86474 2.90381 0
M  V30 1909 C 175.249 3.14037 2.96656 0
M  V30 1910 C 174.384 3.18019 4.25485 0
M  V30 1911 C 173.423 4.39882 4.2564 0
M  V30 1912 N 172.56 4.41394 5.45999 0
M  V30 1913 H 177.4 2.66366 1.33615 0
M  V30 1914 H 174.937 1.32008 0.649018 0
M  V30 1915 H 176.895 1.92229 3.70275 0
M  V30 1916 H 175.525 0.965809 3.08013 0
M  V30 1917 H 174.577 3.17575 2.09404 0
M  V30 1918 H 175.889 4.0394 2.92633 0
M  V30 1919 H 175.043 3.22708 5.13755 0
M  V30 1920 H 173.782 2.2601 4.3217 0
M  V30 1921 H 172.787 4.35366 3.35763 0
M  V30 1922 H 174.012 5.33159 4.20617 0
M  V30 1923 H 171.958 3.52258 5.53399 0
M  V30 1924 H 171.875 5.25111 5.4387 0
M  V30 1925 H 173.143 4.50281 6.36292 0
M  V30 1926 N 177.372 -0.689602 1.41712 0
M  V30 1927 C 178.649 -1.44457 1.31877 0
M  V30 1928 C 179.029 -2.11039 -0.0508537 0
M  V30 1929 O 178.377 -2.02138 -1.06547 0
M  V30 1930 C 178.587 -2.45913 2.47645 0
M  V30 1931 C 179.935 -3.10991 2.89084 0
M  V30 1932 O 180.959 -2.56238 2.47428 0
M  V30 1933 O 179.818 -4.10174 3.61137 0
M  V30 1934 H 176.912 -0.64362 0.519309 0
M  V30 1935 H 179.458 -0.719576 1.53689 0
M  V30 1936 H 178.23 -1.95409 3.39015 0
M  V30 1937 H 177.853 -3.25913 2.27742 0
M  V30 1938 N 178.85 -1.27639 -0.924453 0
M  V30 1939 C 180.08 -1.16819 -1.70402 0
M  V30 1940 C 180.488 0.277191 -1.87158 0
M  V30 1941 O 179.831 1.20025 -1.39067 0
M  V30 1942 C 179.893 -1.78305 -3.12166 0
M  V30 1943 C 179.557 -3.27502 -3.18734 0
M  V30 1944 C 180.554 -4.2409 -3.00738 0
M  V30 1945 C 178.239 -3.68269 -3.4159 0
M  V30 1946 C 180.233 -5.59422 -3.05492 0
M  V30 1947 C 177.92 -5.0373 -3.45977 0
M  V30 1948 C 178.918 -5.99116 -3.27946 0
M  V30 1949 O 178.606 -7.32108 -3.32074 0
M  V30 1950 H 178.338 -0.406931 -0.539799 0
M  V30 1951 H 180.892 -1.69078 -1.16626 0
M  V30 1952 H 179.122 -1.20528 -3.67437 0
M  V30 1953 H 180.811 -1.62154 -3.72103 0
M  V30 1954 H 181.577 -3.93931 -2.82919 0
M  V30 1955 H 177.456 -2.94496 -3.54673 0
M  V30 1956 H 181 -6.33852 -2.91337 0
M  V30 1957 H 176.897 -5.33543 -3.63321 0
M  V30 1958 H 177.665 -7.40598 -3.48507 0
M  V30 1959 N 180.328 1.1314 -1.09713 0
M  V30 1960 C 181.275 2.18642 -0.739196 0
M  V30 1961 C 182.245 1.63706 0.280978 0
M  V30 1962 O 183.43 1.90111 0.161946 0
M  V30 1963 C 180.57 3.44685 -0.169102 0
M  V30 1964 C 179.683 4.13711 -1.24367 0
M  V30 1965 C 178.818 5.27379 -0.636019 0
M  V30 1966 C 177.857 5.88259 -1.69169 0
M  V30 1967 N 176.994 6.93352 -1.10485 0
M  V30 1968 H 181.834 2.48607 -1.64312 0
M  V30 1969 H 179.371 1.22066 -0.820875 0
M  V30 1970 H 181.329 4.16815 0.179256 0
M  V30 1971 H 179.959 3.15161 0.698079 0
M  V30 1972 H 179.011 3.39835 -1.70927 0
M  V30 1973 H 180.323 4.55037 -2.04311 0
M  V30 1974 H 179.477 6.06238 -0.236677 0
M  V30 1975 H 178.216 4.8731 0.194928 0
M  V30 1976 H 177.221 5.08092 -2.10055 0
M  V30 1977 H 178.446 6.30399 -2.52536 0
M  V30 1978 H 176.392 6.55335 -0.295234 0
M  V30 1979 H 176.309 7.33236 -1.84121 0
M  V30 1980 H 177.577 7.76057 -0.73181 0
M  V30 1981 N 181.806 0.884767 1.30421 0
M  V30 1982 C 183.034 0.518044 2.0031 0
M  V30 1983 C 183.449 -0.893408 1.66324 0
M  V30 1984 O 182.806 -1.5875 0.900262 0
M  V30 1985 C 182.857 0.682997 3.54989 0
M  V30 1986 O 182.578 2.03888 3.87764 0
M  V30 1987 C 184.079 0.31924 4.42149 0
M  V30 1988 H 181.299 0.200265 0.640418 0
M  V30 1989 H 183.843 1.19001 1.6631 0
M  V30 1990 H 181.998 0.0584052 3.87356 0
M  V30 1991 H 182.412 2.05735 4.82466 0
M  V30 1992 H 183.886 0.485555 5.4986 0
M  V30 1993 H 184.363 -0.742717 4.32875 0
M  V30 1994 H 184.969 0.920147 4.15227 0
M  V30 1995 N 183.284 -1.43765 0.645699 0
M  V30 1996 C 184.217 -2.2798 -0.100072 0
M  V30 1997 C 185.195 -1.39391 -0.837194 0
M  V30 1998 O 186.379 -1.68833 -0.838306 0
M  V30 1999 C 183.506 -3.18643 -1.14823 0
M  V30 2000 C 182.552 -4.2344 -0.510009 0
M  V30 2001 S 183.385 -5.30761 0.710824 0
M  V30 2002 C 184.541 -6.24992 -0.33699 0
M  V30 2003 H 184.774 -2.90884 0.614322 0
M  V30 2004 H 182.307 -1.48166 0.434304 0
M  V30 2005 H 184.265 -3.71424 -1.74799 0
M  V30 2006 H 182.926 -2.54932 -1.8349 0
M  V30 2007 H 182.119 -4.86948 -1.29991 0
M  V30 2008 H 181.721 -3.73997 0.0154577 0
M  V30 2009 H 184.013 -6.66691 -1.20537 0
M  V30 2010 H 184.956 -7.07612 0.262879 0
M  V30 2011 H 185.364 -5.60517 -0.669425 0
M  V30 2012 N 184.763 -0.387143 -1.52771 0
M  V30 2013 C 185.726 0.436939 -2.24997 0
M  V30 2014 C 186.726 0.991991 -1.26555 0
M  V30 2015 O 187.916 0.874335 -1.50669 0
M  V30 2016 C 185.048 1.61281 -3.00335 0
M  V30 2017 H 186.241 -0.195365 -2.99263 0
M  V30 2018 H 183.794 -0.139218 -1.55679 0
M  V30 2019 H 184.529 2.2826 -2.30364 0
M  V30 2020 H 184.314 1.22154 -3.72587 0
M  V30 2021 H 185.804 2.19629 -3.5518 0
M  V30 2022 N 186.241 1.57166 -0.116904 0
M  V30 2023 C 187.204 2.14039 0.819742 0
M  V30 2024 C 188.204 1.07477 1.19605 0
M  V30 2025 O 189.394 1.33263 1.1219 0
M  V30 2026 C 186.526 2.67891 2.10826 0
M  V30 2027 H 187.719 2.98128 0.325511 0
M  V30 2028 H 185.272 1.55739 0.132312 0
M  V30 2029 H 186.007 1.87384 2.64685 0
M  V30 2030 H 185.792 3.45823 1.84793 0
M  V30 2031 H 187.282 3.11809 2.77785 0
M  V30 2032 N 187.719 -0.156864 1.56817 0
M  V30 2033 C 188.649 -1.19589 2.00551 0
M  V30 2034 C 189.63 -1.4536 0.883426 0
M  V30 2035 O 190.815 -1.56449 1.15054 0
M  V30 2036 C 187.945 -2.53143 2.37773 0
M  V30 2037 C 186.899 -2.41913 3.53075 0
M  V30 2038 C 186.225 -3.80088 3.76081 0
M  V30 2039 C 187.525 -1.91157 4.86062 0
M  V30 2040 H 189.219 -0.832293 2.87599 0
M  V30 2041 H 186.765 -0.398918 1.38364 0
M  V30 2042 H 188.718 -3.26047 2.66967 0
M  V30 2043 H 187.442 -2.91319 1.4765 0
M  V30 2044 H 186.101 -1.71462 3.24031 0
M  V30 2045 H 185.749 -4.15683 2.83225 0
M  V30 2046 H 185.449 -3.73439 4.53671 0
M  V30 2047 H 186.973 -4.54556 4.0769 0
M  V30 2048 H 188.387 -2.53846 5.14038 0
M  V30 2049 H 186.784 -1.95422 5.67389 0
M  V30 2050 H 187.854 -0.866673 4.77092 0
M  V30 2051 N 189.197 -1.51736 -0.425897 0
M  V30 2052 C 190.16 -1.73271 -1.50032 0
M  V30 2053 C 191.16 -0.602639 -1.4908 0
M  V30 2054 O 192.35 -0.87033 -1.509 0
M  V30 2055 C 189.482 -1.79969 -2.89523 0
M  V30 2056 H 190.675 -2.69172 -1.32237 0
M  V30 2057 H 188.228 -1.41899 -0.65532 0
M  V30 2058 H 188.963 -0.859241 -3.1271 0
M  V30 2059 H 188.748 -2.62109 -2.91619 0
M  V30 2060 H 190.238 -1.9843 -3.67444 0
M  V30 2061 N 190.675 0.682077 -1.42076 0
M  V30 2062 C 191.622 1.79578 -1.44984 0
M  V30 2063 C 192.592 1.6332 -0.302614 0
M  V30 2064 O 193.777 1.83978 -0.505633 0
M  V30 2065 C 190.917 3.1756 -1.35091 0
M  V30 2066 C 190.03 3.45156 -2.59791 0
M  V30 2067 C 189.165 4.72826 -2.42093 0
M  V30 2068 C 188.204 4.93433 -3.62202 0
M  V30 2069 N 187.341 6.12338 -3.43491 0
M  V30 2070 H 192.181 1.76427 -2.40161 0
M  V30 2071 H 189.718 0.861376 -1.19242 0
M  V30 2072 H 191.676 3.97287 -1.27354 0
M  V30 2073 H 190.306 3.19854 -0.435133 0
M  V30 2074 H 189.358 2.59736 -2.77923 0
M  V30 2075 H 190.67 3.5628 -3.49094 0
M  V30 2076 H 189.824 5.60631 -2.319 0
M  V30 2077 H 188.563 4.63973 -1.50268 0
M  V30 2078 H 187.568 4.04073 -3.72834 0
M  V30 2079 H 188.793 5.04136 -4.54998 0
M  V30 2080 H 186.739 6.04672 -2.54377 0
M  V30 2081 H 186.656 6.2429 -4.26377 0
M  V30 2082 H 187.924 7.02841 -3.37097 0
M  V30 2083 N 192.153 1.28127 0.917671 0
M  V30 2084 C 193.116 1.11744 2.00115 0
M  V30 2085 C 194.116 0.0583052 1.60694 0
M  V30 2086 O 195.306 0.303755 1.71531 0
M  V30 2087 C 192.438 0.704862 3.33533 0
M  V30 2088 H 193.631 2.07966 2.16079 0
M  V30 2089 H 191.184 1.11058 1.09981 0
M  V30 2090 H 191.919 -0.258299 3.2327 0
M  V30 2091 H 191.704 1.4699 3.63505 0
M  V30 2092 H 193.194 0.612768 4.1308 0
M  V30 2093 N 193.631 -1.12557 1.10312 0
M  V30 2094 C 194.88 -1.83395 0.839588 0
M  V30 2095 C 195.193 -1.84939 -0.636929 0
M  V30 2096 O 196.399 -2.51761 -1.01631 0
M  V30 2097 C 194.855 -3.29303 1.45215 0
M  V30 2098 C 194.463 -3.36122 2.96186 0
M  V30 2099 C 196.207 -4.05121 1.26796 0
M  V30 2100 C 194.114 -4.76357 3.50483 0
M  V30 2101 H 193.044 -0.687133 0.310425 0
M  V30 2102 H 195.695 -1.26746 1.32694 0
M  V30 2103 H 194.077 -3.85812 0.892469 0
M  V30 2104 H 195.251 -2.89559 3.58458 0
M  V30 2105 H 193.566 -2.73776 3.13745 0
M  V30 2106 H 196.163 -5.08668 1.64806 0
M  V30 2107 H 196.506 -4.15773 0.209409 0
M  V30 2108 H 197.039 -3.54967 1.79563 0
M  V30 2109 H 193.778 -4.70899 4.55998 0
M  V30 2110 H 193.298 -5.23377 2.92978 0
M  V30 2111 H 194.977 -5.45294 3.48228 0
M  V30 2112 N 195.109 -0.891671 -1.2995 0
M  V30 2113 C 196.019 -0.367691 -2.31701 0
M  V30 2114 C 197.035 0.533486 -1.6562 0
M  V30 2115 O 198.211 0.424997 -1.96865 0
M  V30 2116 C 195.276 0.403406 -3.44345 0
M  V30 2117 C 194.337 -0.528328 -4.26037 0
M  V30 2118 C 193.57 0.206063 -5.33302 0
M  V30 2119 O 193.793 1.43119 -5.52153 0
M  V30 2120 O 192.727 -0.447281 -6.00236 0
M  V30 2121 H 196.553 -1.21163 -2.78484 0
M  V30 2122 H 194.138 -0.655725 -1.34241 0
M  V30 2123 H 196.02 0.839753 -4.12948 0
M  V30 2124 H 194.695 1.22354 -2.99685 0
M  V30 2125 H 193.602 -1.01362 -3.60106 0
M  V30 2126 H 194.935 -1.31465 -4.74318 0
M  V30 2127 N 196.587 1.43421 -0.653314 0
M  V30 2128 C 197.534 2.30768 0.0382271 0
M  V30 2129 C 198.504 1.44755 0.814576 0
M  V30 2130 O 199.689 1.73624 0.791162 0
M  V30 2131 C 196.829 3.30336 0.998599 0
M  V30 2132 C 195.942 4.31448 0.218342 0
M  V30 2133 C 195.077 5.18098 1.17252 0
M  V30 2134 C 194.116 6.10902 0.382702 0
M  V30 2135 N 193.253 6.90176 1.28848 0
M  V30 2136 H 198.093 2.89357 -0.712511 0
M  V30 2137 H 195.63 1.42548 -0.363128 0
M  V30 2138 H 197.588 3.86572 1.56901 0
M  V30 2139 H 196.218 2.73397 1.71621 0
M  V30 2140 H 195.27 3.77506 -0.46836 0
M  V30 2141 H 196.582 4.97227 -0.395812 0
M  V30 2142 H 195.736 5.7896 1.81356 0
M  V30 2143 H 194.475 4.52444 1.82058 0
M  V30 2144 H 193.48 5.49128 -0.27169 0
M  V30 2145 H 194.705 6.78598 -0.260957 0
M  V30 2146 H 192.651 6.27171 1.92334 0
M  V30 2147 H 192.568 7.52478 0.728887 0
M  V30 2148 H 193.836 7.55543 1.91766 0
M  V30 2149 N 198.065 0.39524 1.52563 0
M  V30 2150 C 199.013 -0.451859 2.28169 0
M  V30 2151 C 200.007 -1.05792 1.32304 0
M  V30 2152 O 201.213 -0.997718 1.49818 0
M  V30 2153 H 197.588 -0.164481 0.733792 0
M  V30 2154 H 199.559 0.207199 2.9768 0
M  V30 2155 C 198.308 -1.56385 3.10546 0
M  V30 2156 H 197.631 -1.10682 3.84174 0
M  V30 2157 H 199.071 -2.13067 3.66577 0
M  V30 2158 C 197.53 -2.52328 2.23231 0
M  V30 2159 O 198.06 -3.5588 1.86312 0
M  V30 2160 N 196.266 -2.22209 1.87274 0
M  V30 2161 H 195.813 -1.38033 2.17496 0
M  V30 2162 H 195.771 -2.86652 1.29143 0
M  V30 2163 N 199.544 -1.57102 0.125237 0
M  V30 2164 C 200.79 -1.95697 -0.532035 0
M  V30 2165 C 201.123 -1.009 -1.6593 0
M  V30 2166 O 200.398 -0.047347 -1.94442 0
M  V30 2167 C 200.681 -3.44181 -1.05884 0
M  V30 2168 C 200.534 -4.49752 0.0654392 0
M  V30 2169 C 201.853 -3.94655 -1.9477 0
M  V30 2170 H 198.972 -0.711571 -0.191925 0
M  V30 2171 H 201.614 -1.88923 0.20206 0
M  V30 2172 H 199.764 -3.50085 -1.68442 0
M  V30 2173 H 201.436 -4.55943 0.700982 0
M  V30 2174 H 199.679 -4.27653 0.727709 0
M  V30 2175 H 200.35 -5.50924 -0.344505 0
M  V30 2176 H 202.826 -3.91094 -1.42074 0
M  V30 2177 H 201.702 -4.99057 -2.28546 0
M  V30 2178 H 201.963 -3.35718 -2.87656 0
M  V30 2179 N 201.022 0.148545 -1.56898 0
M  V30 2180 C 201.952 1.18524 -2.01182 0
M  V30 2181 C 202.933 1.4489 -0.891123 0
M  V30 2182 O 204.118 1.55836 -1.15882 0
M  V30 2183 C 201.248 2.51879 -2.39112 0
M  V30 2184 C 200.202 2.40038 -3.54353 0
M  V30 2185 C 199.528 3.78089 -3.78091 0
M  V30 2186 C 200.828 1.88577 -4.87069 0
M  V30 2187 H 202.522 0.817029 -2.88036 0
M  V30 2188 H 200.068 0.391575 -1.38574 0
M  V30 2189 H 202.021 3.24627 -2.68692 0
M  V30 2190 H 200.745 2.90532 -1.49193 0
M  V30 2191 H 199.404 1.69742 -3.24936 0
M  V30 2192 H 199.052 4.14175 -2.85426 0
M  V30 2193 H 198.752 3.71028 -4.55645 0
M  V30 2194 H 200.276 4.52387 -4.10095 0
M  V30 2195 H 201.69 2.51117 -5.15377 0
M  V30 2196 H 200.087 1.9241 -5.68417 0
M  V30 2197 H 201.157 0.84136 -4.77545 0
M  V30 2198 N 202.5 1.5196 0.417844 0
M  V30 2199 C 203.747 1.65591 1.16559 0
M  V30 2200 C 204.075 0.381565 1.90721 0
M  V30 2201 O 203.33 -0.635156 1.85106 0
M  V30 2202 C 203.629 2.82269 2.19223 0
M  V30 2203 C 203.295 4.20819 1.61933 0
M  V30 2204 C 201.957 4.58506 1.46033 0
M  V30 2205 C 204.309 5.07196 1.20008 0
M  V30 2206 C 201.637 5.80257 0.867113 0
M  V30 2207 C 203.989 6.29544 0.621086 0
M  V30 2208 C 202.653 6.65987 0.449144 0
M  V30 2209 H 201.923 0.605939 0.42652 0
M  V30 2210 H 204.57 1.86041 0.45397 0
M  V30 2211 H 202.875 2.56118 2.96498 0
M  V30 2212 H 204.572 2.90012 2.76936 0
M  V30 2213 H 201.162 3.91116 1.7529 0
M  V30 2214 H 205.346 4.7867 1.31105 0
M  V30 2215 H 200.602 6.07124 0.721833 0
M  V30 2216 H 204.776 6.95805 0.287798 0
M  V30 2217 H 202.403 7.60199 -0.012632 0
M  V30 2218 N 203.978 -0.674533 1.42435 0
M  V30 2219 C 205.203 -1.46784 1.46524 0
M  V30 2220 C 205.628 -1.87938 0.078066 0
M  V30 2221 O 204.986 -1.56014 -0.92354 0
M  V30 2222 C 205.034 -2.69307 2.39805 0
M  V30 2223 O 204.138 -3.67587 1.86959 0
M  V30 2224 H 203.479 -0.440959 0.496439 0
M  V30 2225 H 206.009 -0.827326 1.87127 0
M  V30 2226 H 206.019 -3.17374 2.56393 0
M  V30 2227 H 204.694 -2.38692 3.40586 0
M  V30 2228 H 203.271 -3.2662 1.79927 0
M  V30 2229 N 205.456 -1.28612 -0.910864 0
M  V30 2230 C 206.406 -1.09423 -2.00026 0
M  V30 2231 C 207.39 -0.0170079 -1.60891 0
M  V30 2232 O 208.582 -0.237472 -1.754 0
M  V30 2233 C 205.711 -0.76114 -3.34756 0
M  V30 2234 C 204.797 -1.87735 -3.80285 0
M  V30 2235 N 205.188 -3.11938 -3.98156 0
M  V30 2236 C 203.486 -1.76786 -4.09467 0
M  V30 2237 C 204.187 -3.84687 -4.36338 0
M  V30 2238 N 203.163 -3.12555 -4.44759 0
M  V30 2239 H 206.965 -2.03658 -2.11898 0
M  V30 2240 H 204.479 -1.19573 -1.09891 0
M  V30 2241 H 206.476 -0.604743 -4.12491 0
M  V30 2242 H 205.136 0.173403 -3.24237 0
M  V30 2243 H 206.147 -3.47516 -3.83996 0
M  V30 2244 H 202.824 -0.905284 -4.07567 0
M  V30 2245 H 204.214 -4.91518 -4.58104 0
M  V30 2246 N 206.934 1.1197 -1.10907 0
M  V30 2247 C 207.864 2.19928 -0.784473 0
M  V30 2248 C 208.845 1.6833 0.244726 0
M  V30 2249 O 210.03 1.93892 0.109418 0
M  V30 2250 C 207.16 3.46597 -0.220827 0
M  V30 2251 C 206.114 4.11376 -1.18127 0
M  V30 2252 C 205.44 5.32554 -0.478594 0
M  V30 2253 C 206.74 4.56945 -2.52979 0
M  V30 2254 H 208.434 2.47337 -1.68715 0
M  V30 2255 H 205.98 1.18879 -0.812642 0
M  V30 2256 H 207.933 4.21396 0.0184278 0
M  V30 2257 H 206.657 3.1863 0.717113 0
M  V30 2258 H 205.316 3.38564 -1.40606 0
M  V30 2259 H 204.964 5.00856 0.463976 0
M  V30 2260 H 204.664 5.76844 -1.11912 0
M  V30 2261 H 206.188 6.10096 -0.248 0
M  V30 2262 H 207.602 5.23093 -2.3462 0
M  V30 2263 H 205.999 5.1203 -3.12962 0
M  V30 2264 H 207.069 3.70676 -3.12614 0
M  V30 2265 N 208.412 0.89855 1.29475 0
M  V30 2266 C 209.689 0.443416 1.90508 0
M  V30 2267 C 210.069 -1.07685 1.81569 0
M  V30 2268 O 209.417 -1.9182 1.24166 0
M  V30 2269 C 209.627 0.956708 3.35631 0
M  V30 2270 C 210.975 0.999728 4.12663 0
M  V30 2271 O 211.999 0.904299 3.4453 0
M  V30 2272 O 210.858 1.14289 5.34416 0
M  V30 2273 H 207.952 0.138025 0.815401 0
M  V30 2274 H 210.498 0.98834 1.37949 0
M  V30 2275 H 209.27 2.00067 3.36287 0
M  V30 2276 H 208.893 0.391728 3.95666 0
M  V30 2277 N 209.89 -1.43072 0.660911 0
M  V30 2278 C 211.167 -1.95307 0.107017 0
M  V30 2279 C 211.547 -1.60192 -1.37484 0
M  V30 2280 O 210.895 -0.890949 -2.10415 0
M  V30 2281 C 211.105 -3.47124 0.361402 0
M  V30 2282 C 212.453 -4.23738 0.270455 0
M  V30 2283 O 213.477 -3.54981 0.294382 0
M  V30 2284 O 212.336 -5.46131 0.200737 0
M  V30 2285 H 209.43 -0.826984 -0.00517729 0
M  V30 2286 H 211.976 -1.52972 0.734681 0
M  V30 2287 H 210.748 -3.65837 1.38848 0
M  V30 2288 H 210.371 -3.96475 -0.298953 0
M  V30 2289 N 211.368 -0.403325 -1.52352 0
M  V30 2290 C 212.316 0.439752 -2.28405 0
M  V30 2291 C 213.31 1.05089 -1.32863 0
M  V30 2292 O 214.516 0.989759 -1.50345 0
M  V30 2293 H 210.891 0.160587 -0.734653 0
M  V30 2294 H 212.862 -0.222983 -2.97566 0
M  V30 2295 C 211.611 1.54736 -3.11371 0
M  V30 2296 H 210.934 1.08643 -3.84755 0
M  V30 2297 H 212.374 2.1112 -3.67701 0
M  V30 2298 C 210.833 2.51141 -2.24566 0
M  V30 2299 O 211.363 3.54887 -1.88196 0
M  V30 2300 N 209.569 2.21213 -1.8845 0
M  V30 2301 H 209.116 1.36878 -2.18225 0
M  V30 2302 H 209.074 2.85963 -1.30662 0
M  V30 2303 N 212.846 1.57033 -0.133567 0
M  V30 2304 C 213.756 2.19632 0.824564 0
M  V30 2305 C 214.772 1.17666 1.28182 0
M  V30 2306 O 215.948 1.50193 1.3418 0
M  V30 2307 C 213.013 2.79499 2.05137 0
M  V30 2308 C 212.074 3.96548 1.64464 0
M  V30 2309 C 211.307 4.5355 2.81297 0
M  V30 2310 O 211.53 4.09438 3.97136 0
M  V30 2311 O 210.464 5.44018 2.57542 0
M  V30 2312 H 214.29 3.01991 0.321766 0
M  V30 2313 H 211.875 1.49112 0.0927889 0
M  V30 2314 H 213.757 3.17602 2.7696 0
M  V30 2315 H 212.432 2.00162 2.54395 0
M  V30 2316 H 211.339 3.63186 0.897048 0
M  V30 2317 H 212.672 4.77364 1.19934 0
M  V30 2318 N 214.325 -0.140222 1.56975 0
M  V30 2319 C 215.741 -0.493088 1.51792 0
M  V30 2320 C 215.941 -1.83013 0.843116 0
M  V30 2321 O 214.997 -2.49041 0.416493 0
M  V30 2322 C 216.31 -0.497144 2.96562 0
M  V30 2323 C 217.858 -0.582186 3.07538 0
M  V30 2324 C 218.333 -0.616838 4.53827 0
M  V30 2325 N 219.824 -0.678873 4.58198 0
M  V30 2326 C 220.559 -0.726782 5.68775 0
M  V30 2327 N 220.055 -0.733623 6.88905 0
M  V30 2328 N 221.848 -0.768179 5.56826 0
M  V30 2329 H 213.999 0.736108 1.99237 0
M  V30 2330 H 216.262 0.269182 0.90898 0
M  V30 2331 H 215.968 0.417217 3.49217 0
M  V30 2332 H 215.842 -1.33263 3.52875 0
M  V30 2333 H 218.229 -1.48697 2.54899 0
M  V30 2334 H 218.31 0.280581 2.54257 0
M  V30 2335 H 217.954 0.283812 5.07106 0
M  V30 2336 H 217.884 -1.49619 5.04898 0
M  V30 2337 H 220.375 -0.68061 3.7172 0
M  V30 2338 H 220.688 -0.772215 7.68932 0
M  V30 2339 H 219.033 -0.701389 6.91452 0
M  V30 2340 H 222.224 -0.760051 4.61888 0
M  V30 2341 H 222.397 -0.80205 6.43017 0
M  V30 2342 N 215.803 -1.52179 -0.40978 0
M  V30 2343 C 217.028 -1.70347 -1.18308 0
M  V30 2344 C 217.453 -0.411887 -1.83535 0
M  V30 2345 O 216.811 0.630587 -1.6998 0
M  V30 2346 C 216.859 -2.83977 -2.22238 0
M  V30 2347 O 215.963 -2.495 -3.28365 0
M  V30 2348 H 215.304 -0.567103 -0.345384 0
M  V30 2349 H 217.834 -1.98879 -0.480445 0
M  V30 2350 H 217.844 -3.0887 -2.66577 0
M  V30 2351 H 216.519 -3.77685 -1.74146 0
M  V30 2352 H 215.096 -2.35277 -2.89308 0
M  V30 2353 N 217.281 0.66697 -1.42791 0
M  V30 2354 C 218.558 1.4234 -1.34159 0
M  V30 2355 C 218.938 2.11093 0.0172729 0
M  V30 2356 O 218.286 2.03808 1.03318 0
M  V30 2357 C 218.496 2.41942 -2.51526 0
M  V30 2358 C 219.844 3.06353 -2.93995 0
M  V30 2359 O 220.868 2.52269 -2.51473 0
M  V30 2360 O 219.727 4.04376 -3.67617 0
M  V30 2361 H 216.821 0.635277 -0.529483 0
M  V30 2362 H 219.367 0.695034 -1.54814 0
M  V30 2363 H 218.139 1.89991 -3.42081 0
M  V30 2364 H 217.762 3.22249 -2.32898 0
M  V30 2365 N 218.759 1.29093 0.90403 0
M  V30 2366 C 220.008 1.16187 1.64874 0
M  V30 2367 C 220.321 -0.286742 1.93487 0
M  V30 2368 O 221.527 -0.537062 2.66135 0
M  V30 2369 C 219.983 2.03177 2.97064 0
M  V30 2370 C 219.591 3.52836 2.76062 0
M  V30 2371 C 221.335 1.98984 3.74974 0
M  V30 2372 C 219.242 4.31945 4.03952 0
M  V30 2373 H 218.172 0.431246 0.618501 0
M  V30 2374 H 220.823 1.53699 1.00243 0
M  V30 2375 H 219.205 1.5853 3.62883 0
M  V30 2376 H 220.379 4.05507 2.18863 0
M  V30 2377 H 218.694 3.58656 2.11553 0
M  V30 2378 H 221.291 2.55351 4.69787 0
M  V30 2379 H 221.634 0.968815 4.0487 0
M  V30 2380 H 222.167 2.41652 3.15989 0
M  V30 2381 H 218.906 5.34667 3.79225 0
M  V30 2382 H 218.426 3.84045 4.60727 0
M  V30 2383 H 220.105 4.42379 4.72133 0
M  V30 2384 N 220.237 -1.11381 1.11499 0
M  V30 2385 C 221.484 -1.83132 0.864231 0
M  V30 2386 C 221.812 -1.84683 -0.610114 0
M  V30 2387 O 221.067 -1.29589 -1.46646 0
M  V30 2388 C 221.366 -3.30026 1.37177 0
M  V30 2389 C 221.032 -3.48634 2.85946 0
M  V30 2390 C 219.694 -3.53421 3.26569 0
M  V30 2391 C 222.046 -3.54837 3.81759 0
M  V30 2392 C 219.374 -3.61967 4.61733 0
M  V30 2393 C 221.726 -3.64915 5.1674 0
M  V30 2394 C 220.39 -3.67962 5.5692 0
M  V30 2395 H 219.66 -0.670127 0.316245 0
M  V30 2396 H 222.307 -1.31354 1.3935 0
M  V30 2397 H 220.612 -3.84304 0.762753 0
M  V30 2398 H 222.309 -3.84034 1.15408 0
M  V30 2399 H 218.899 -3.45579 2.53521 0
M  V30 2400 H 223.083 -3.50399 3.51474 0
M  V30 2401 H 218.339 -3.62603 4.92269 0
M  V30 2402 H 222.513 -3.68658 5.90816 0
M  V30 2403 H 220.14 -3.74336 6.61647 0
M  V30 2404 N 221.715 -0.905404 -1.28997 0
M  V30 2405 C 222.992 -0.453513 -1.9027 0
M  V30 2406 C 223.372 1.06721 -1.82137 0
M  V30 2407 O 222.72 1.91159 -1.25182 0
M  V30 2408 C 222.93 -0.974494 -3.35119 0
M  V30 2409 C 224.278 -1.0216 -4.12127 0
M  V30 2410 O 225.302 -0.922557 -3.44046 0
M  V30 2411 O 224.161 -1.17121 -5.33802 0
M  V30 2412 H 221.255 -0.142347 -0.814657 0
M  V30 2413 H 223.801 -0.995642 -1.37423 0
M  V30 2414 H 222.573 -2.01848 -3.35221 0
M  V30 2415 H 222.196 -0.412706 -3.95452 0
M  V30 2416 N 223.193 1.4272 -0.668489 0
M  V30 2417 C 224.156 2.292 0.00448567 0
M  V30 2418 C 225.156 1.43001 0.735339 0
M  V30 2419 O 226.346 1.64461 0.57429 0
M  V30 2420 C 223.478 3.25375 1.01705 0
M  V30 2421 H 224.671 2.90199 -0.756608 0
M  V30 2422 H 222.224 1.50254 -0.430506 0
M  V30 2423 H 222.959 2.69301 1.80686 0
M  V30 2424 H 222.744 3.88944 0.496463 0
M  V30 2425 H 224.234 3.90245 1.48655 0
M  V30 2426 N 224.671 0.411399 1.52136 0
M  V30 2427 C 225.604 -0.457614 2.23565 0
M  V30 2428 C 226.582 -1.04613 1.24478 0
M  V30 2429 O 227.766 -1.09356 1.53536 0
M  V30 2430 C 224.893 -1.6354 2.96602 0
M  V30 2431 C 223.939 -1.17005 4.10137 0
M  V30 2432 S 224.772 -0.13333 5.35334 0
M  V30 2433 C 225.928 -1.31638 6.119 0
M  V30 2434 H 226.161 0.148883 2.96927 0
M  V30 2435 H 223.694 0.195713 1.53155 0
M  V30 2436 H 225.652 -2.31074 3.39286 0
M  V30 2437 H 224.313 -2.21324 2.22878 0
M  V30 2438 H 223.506 -2.05005 4.60422 0
M  V30 2439 H 223.108 -0.573319 3.6958 0
M  V30 2440 H 225.4 -2.23957 6.39413 0
M  V30 2441 H 226.343 -0.854014 7.02931 0
M  V30 2442 H 226.751 -1.54321 5.42997 0
M  V30 2443 N 226.149 -1.5696 0.141893 0
M  V30 2444 C 227.396 -1.9596 -0.510492 0
M  V30 2445 C 227.724 -1.02648 -1.65208 0
M  V30 2446 O 226.979 -0.0546947 -1.95624 0
M  V30 2447 C 227.278 -3.41242 -1.06249 0
M  V30 2448 C 226.944 -4.50882 -0.0398791 0
M  V30 2449 C 225.606 -4.80595 0.241247 0
M  V30 2450 C 227.958 -5.17058 0.65578 0
M  V30 2451 C 225.286 -5.73792 1.22393 0
M  V30 2452 C 227.638 -6.11313 1.62724 0
M  V30 2453 C 226.302 -6.39407 1.91612 0
M  V30 2454 H 225.572 -0.717068 -0.186802 0
M  V30 2455 H 228.219 -1.90142 0.227643 0
M  V30 2456 H 226.524 -3.43866 -1.87785 0
M  V30 2457 H 228.221 -3.68742 -1.57576 0
M  V30 2458 H 224.811 -4.27754 -0.269174 0
M  V30 2459 H 228.995 -4.94239 0.451779 0
M  V30 2460 H 224.251 -5.93853 1.45424 0
M  V30 2461 H 228.425 -6.61668 2.17183 0
M  V30 2462 H 226.052 -7.11427 2.6791 0
M  V30 2463 N 227.627 0.131896 -1.57047 0
M  V30 2464 C 228.852 0.860418 -1.8871 0
M  V30 2465 C 229.277 1.73251 -0.73251 0
M  V30 2466 O 228.635 1.785 0.317429 0
M  V30 2467 C 228.683 1.68047 -3.19049 0
M  V30 2468 O 227.787 2.7862 -3.04047 0
M  V30 2469 H 227.128 0.238743 -0.619595 0
M  V30 2470 H 229.658 0.118169 -2.04258 0
M  V30 2471 H 229.668 2.07238 -3.51449 0
M  V30 2472 H 228.343 1.04018 -4.02682 0
M  V30 2473 H 226.92 2.42726 -2.83088 0
M  V30 2474 N 229.106 1.52395 0.401703 0
M  V30 2475 C 230.352 1.67065 1.14966 0
M  V30 2476 C 230.685 0.403052 1.89971 0
M  V30 2477 O 229.96 -0.598774 1.85054 0
M  V30 2478 C 230.243 2.8975 2.13815 0
M  V30 2479 C 230.096 4.26578 1.42658 0
M  V30 2480 C 231.415 3.07965 3.14397 0
M  V30 2481 H 228.534 0.607968 0.416587 0
M  V30 2482 H 231.176 1.84965 0.434511 0
M  V30 2483 H 229.326 2.74619 2.74803 0
M  V30 2484 H 230.998 4.53451 0.847329 0
M  V30 2485 H 229.241 4.27639 0.72849 0
M  V30 2486 H 229.912 5.08483 2.14823 0
M  V30 2487 H 232.388 3.22043 2.63491 0
M  V30 2488 H 231.264 3.95308 3.80819 0
M  V30 2489 H 231.525 2.21611 3.82545 0
M  V30 2490 N 230.584 -0.659388 1.43143 0
M  V30 2491 C 231.809 -1.45221 1.48073 0
M  V30 2492 C 232.234 -1.87845 0.097995 0
M  V30 2493 O 231.592 -1.56985 -0.90694 0
M  V30 2494 C 231.64 -2.66748 2.42647 0
M  V30 2495 O 230.744 -3.65583 1.90848 0
M  V30 2496 H 230.085 -0.435669 0.501088 0
M  V30 2497 H 232.615 -0.807432 1.87994 0
M  V30 2498 H 232.625 -3.14637 2.59745 0
M  V30 2499 H 231.3 -2.35067 3.43098 0
M  V30 2500 H 229.877 -3.24693 1.83381 0
M  V30 2501 N 232.062 -1.29571 -0.897171 0
M  V30 2502 C 233.309 -1.17689 -1.6479 0
M  V30 2503 C 233.637 0.27107 -1.92602 0
M  V30 2504 O 232.892 1.21193 -1.53658 0
M  V30 2505 C 233.191 -1.9382 -3.00281 0
M  V30 2506 C 232.857 -3.43522 -2.92068 0
M  V30 2507 C 231.519 -3.84348 -2.89535 0
M  V30 2508 C 233.871 -4.38906 -2.81089 0
M  V30 2509 C 231.199 -5.18869 -2.73846 0
M  V30 2510 C 233.551 -5.73521 -2.66939 0
M  V30 2511 C 232.215 -6.13601 -2.62774 0
M  V30 2512 H 231.485 -0.430654 -0.603008 0
M  V30 2513 H 234.132 -1.60536 -1.04404 0
M  V30 2514 H 232.437 -1.4357 -3.64547 0
M  V30 2515 H 234.134 -1.82028 -3.57305 0
M  V30 2516 H 230.724 -3.11072 -2.94842 0
M  V30 2517 H 234.908 -4.08315 -2.82121 0
M  V30 2518 H 230.164 -5.4903 -2.69027 0
M  V30 2519 H 234.338 -6.47078 -2.57416 0
M  V30 2520 H 231.965 -7.17786 -2.50375 0
M  V30 2521 N 233.54 1.10788 -1.12088 0
M  V30 2522 C 234.789 1.82036 -0.868659 0
M  V30 2523 C 235.102 1.85929 0.607426 0
M  V30 2524 O 236.308 2.53346 0.97613 0
M  V30 2525 C 234.764 3.26951 -1.50435 0
M  V30 2526 C 234.372 3.31367 -3.01496 0
M  V30 2527 C 236.116 4.03053 -1.33225 0
M  V30 2528 C 234.023 4.7072 -3.58017 0
M  V30 2529 H 232.953 0.682108 -0.321318 0
M  V30 2530 H 235.604 1.24618 -1.34694 0
M  V30 2531 H 233.986 3.84343 -0.953735 0
M  V30 2532 H 235.16 2.83819 -3.6302 0
M  V30 2533 H 233.475 2.6875 -3.18061 0
M  V30 2534 H 236.072 5.05981 -1.72878 0
M  V30 2535 H 236.415 4.15387 -0.275529 0
M  V30 2536 H 236.948 3.52066 -1.85188 0
M  V30 2537 H 233.687 4.63585 -4.63432 0
M  V30 2538 H 233.207 5.1865 -3.01268 0
M  V30 2539 H 234.886 5.39685 -3.56859 0
M  V30 2540 N 235.018 0.912232 1.28515 0
M  V30 2541 C 235.981 0.404223 2.25607 0
M  V30 2542 C 236.981 -0.468602 1.53821 0
M  V30 2543 O 238.171 -0.271873 1.72065 0
M  V30 2544 C 235.303 -0.420653 3.38295 0
M  V30 2545 H 236.496 1.26188 2.7206 0
M  V30 2546 H 234.049 0.691495 1.40171 0
M  V30 2547 H 234.784 -1.29777 2.97201 0
M  V30 2548 H 234.569 0.204935 3.91564 0
M  V30 2549 H 236.059 -0.766971 4.10496 0
M  V30 2550 N 236.496 -1.42363 0.676048 0
M  V30 2551 C 237.744 -2.01123 0.198437 0
M  V30 2552 C 238.065 -1.53731 -1.19966 0
M  V30 2553 O 237.335 -0.759518 -1.80577 0
M  V30 2554 H 235.915 -0.743678 0.0703721 0
M  V30 2555 H 238.577 -1.74263 0.872837 0
M  V30 2556 H 237.673 -3.11454 0.200686 0
M  V30 2557 N 237.974 -0.419461 -1.51915 0
M  V30 2558 C 238.884 0.407528 -2.31033 0
M  V30 2559 C 239.9 1.04413 -1.3919 0
M  V30 2560 O 241.076 1.0434 -1.72265 0
M  V30 2561 C 238.141 1.50365 -3.12396 0
M  V30 2562 C 237.202 0.889029 -4.19994 0
M  V30 2563 C 236.435 1.93291 -4.97468 0
M  V30 2564 O 236.658 3.15259 -4.75361 0
M  V30 2565 O 235.592 1.53339 -5.8204 0
M  V30 2566 H 239.418 -0.237865 -3.02767 0
M  V30 2567 H 237.003 -0.182413 -1.48282 0
M  V30 2568 H 238.885 2.13975 -3.63032 0
M  V30 2569 H 237.56 2.13345 -2.43445 0
M  V30 2570 H 236.467 0.215353 -3.7348 0
M  V30 2571 H 237.8 0.302991 -4.91267 0
M  V30 2572 N 239.452 1.56882 -0.150215 0
M  V30 2573 C 240.68 2.00593 0.506948 0
M  V30 2574 C 241.095 1.03033 1.58208 0
M  V30 2575 O 240.452 0.0278396 1.82479 0
M  V30 2576 C 240.503 3.44209 1.10465 0
M  V30 2577 O 240.224 4.3804 0.0724636 0
M  V30 2578 C 241.725 4.03214 1.84211 0
M  V30 2579 H 238.945 0.65795 0.13169 0
M  V30 2580 H 241.489 2.03018 -0.245743 0
M  V30 2581 H 239.644 3.42625 1.80795 0
M  V30 2582 H 240.058 5.22007 0.510793 0
M  V30 2583 H 241.532 5.0569 2.21318 0
M  V30 2584 H 242.009 3.44107 2.72923 0
M  V30 2585 H 242.615 4.08437 1.18572 0
M  V30 2586 N 240.93 -0.123565 1.57115 0
M  V30 2587 C 242.176 -0.833386 1.84885 0
M  V30 2588 C 242.509 -1.79742 0.735292 0
M  V30 2589 O 241.784 -1.92764 -0.25925 0
M  V30 2590 C 242.067 -1.5873 3.23228 0
M  V30 2591 C 241.92 -0.643183 4.45178 0
M  V30 2592 C 243.239 -2.54453 3.59085 0
M  V30 2593 H 240.358 -0.301518 0.6725 0
M  V30 2594 H 243 -0.097778 1.89748 0
M  V30 2595 H 241.15 -2.21438 3.19214 0
M  V30 2596 H 242.822 -0.0253015 4.61293 0
M  V30 2597 H 241.065 0.0456139 4.33776 0
M  V30 2598 H 241.736 -1.20724 5.38637 0
M  V30 2599 H 244.212 -2.01853 3.63861 0
M  V30 2600 H 243.088 -3.04238 4.5687 0
M  V30 2601 H 243.349 -3.36906 2.86264 0
M  V30 2602 N 242.408 -1.52605 -0.393616 0
M  V30 2603 C 243.657 -1.66649 -1.13627 0
M  V30 2604 C 243.97 -0.410364 -1.91247 0
M  V30 2605 O 245.176 -0.430854 -2.68059 0
M  V30 2606 C 243.632 -2.9449 -2.06891 0
M  V30 2607 C 243.24 -4.27266 -1.34714 0
M  V30 2608 C 244.984 -3.17899 -2.81319 0
M  V30 2609 C 242.891 -5.46217 -2.26717 0
M  V30 2610 H 241.821 -0.62084 -0.427871 0
M  V30 2611 H 244.472 -1.791 -0.399428 0
M  V30 2612 H 242.854 -2.75774 -2.84191 0
M  V30 2613 H 244.028 -4.56518 -0.626714 0
M  V30 2614 H 242.343 -4.10081 -0.722643 0
M  V30 2615 H 244.94 -4.03949 -3.50328 0
M  V30 2616 H 245.283 -2.32777 -3.45139 0
M  V30 2617 H 245.816 -3.37159 -2.11113 0
M  V30 2618 H 242.555 -6.33733 -1.67521 0
M  V30 2619 H 242.075 -5.21283 -2.96689 0
M  V30 2620 H 243.754 -5.7991 -2.86903 0
M  V30 2621 N 243.887 0.651787 -1.4349 0
M  V30 2622 C 244.819 1.77725 -1.44729 0
M  V30 2623 C 245.832 1.59141 -0.343231 0
M  V30 2624 O 247.021 1.67835 -0.607751 0
M  V30 2625 C 244.121 3.15172 -1.24579 0
M  V30 2626 C 243.294 3.60402 -2.47849 0
M  V30 2627 C 242.353 4.76656 -2.22902 0
M  V30 2628 O 241.379 4.86022 -2.96263 0
M  V30 2629 N 242.581 5.66958 -1.24656 0
M  V30 2630 H 245.346 1.77141 -2.41746 0
M  V30 2631 H 242.907 0.835678 -1.38665 0
M  V30 2632 H 244.899 3.90634 -1.0577 0
M  V30 2633 H 243.469 3.1052 -0.360015 0
M  V30 2634 H 242.689 2.75369 -2.82073 0
M  V30 2635 H 243.977 3.87368 -3.29884 0
M  V30 2636 H 243.375 5.62065 -0.640265 0
M  V30 2637 H 241.932 6.42135 -1.1183 0
M  V30 2638 N 245.365 1.30045 0.890287 0
M  V30 2639 C 246.297 1.11786 2.00091 0
M  V30 2640 C 247.31 0.0626307 1.62679 0
M  V30 2641 O 248.499 0.308112 1.75821 0
M  V30 2642 C 245.599 0.681527 3.31977 0
M  V30 2643 C 244.772 1.81735 3.97858 0
M  V30 2644 C 243.831 1.37045 5.08041 0
M  V30 2645 O 242.857 2.07677 5.29961 0
M  V30 2646 N 244.059 0.246525 5.79976 0
M  V30 2647 H 246.824 2.07441 2.16306 0
M  V30 2648 H 244.385 1.2211 1.06305 0
M  V30 2649 H 246.377 0.365675 4.03045 0
M  V30 2650 H 244.947 -0.182828 3.12065 0
M  V30 2651 H 244.167 2.30159 3.20032 0
M  V30 2652 H 245.455 2.57865 4.38615 0
M  V30 2653 H 244.853 -0.34215 5.64664 0
M  V30 2654 H 243.41 -0.00990438 6.51799 0
M  V30 2655 N 246.843 -1.10192 1.12674 0
M  V30 2656 C 248.091 -1.81845 0.881861 0
M  V30 2657 C 248.412 -1.85737 -0.593867 0
M  V30 2658 O 247.682 -1.33724 -1.4316 0
M  V30 2659 H 246.262 -0.673432 0.323261 0
M  V30 2660 H 248.924 -1.33316 1.42172 0
M  V30 2661 H 248.02 -2.85288 1.2656 0
M  V30 2662 N 248.321 -0.919034 -1.28029 0
M  V30 2663 C 249.598 -0.473668 -1.89778 0
M  V30 2664 C 249.978 1.04783 -1.83259 0
M  V30 2665 O 249.326 1.8982 -1.27202 0
M  V30 2666 C 249.536 -1.00998 -3.34066 0
M  V30 2667 C 250.884 -1.06525 -4.1102 0
M  V30 2668 O 251.908 -0.958996 -3.43048 0
M  V30 2669 O 250.767 -1.22776 -5.3253 0
M  V30 2670 H 247.861 -0.15098 -0.813101 0
M  V30 2671 H 250.407 -1.01016 -1.36359 0
M  V30 2672 H 249.179 -2.05392 -3.33061 0
M  V30 2673 H 248.802 -0.454626 -3.94992 0
M  V30 2674 N 249.799 1.42003 -0.683588 0
M  V30 2675 C 250.709 2.34597 -0.0109075 0
M  V30 2676 C 251.725 1.55576 0.779245 0
M  V30 2677 O 252.901 1.88107 0.719555 0
M  V30 2678 C 249.966 3.34199 0.922588 0
M  V30 2679 C 249.027 4.29115 0.125984 0
M  V30 2680 C 248.26 5.23959 1.01502 0
M  V30 2681 O 248.483 5.23952 2.25456 0
M  V30 2682 O 247.417 6.00053 0.47111 0
M  V30 2683 H 251.243 2.93675 -0.773853 0
M  V30 2684 H 248.828 1.42654 -0.443861 0
M  V30 2685 H 250.71 3.95365 1.45823 0
M  V30 2686 H 249.385 2.77582 1.66523 0
M  V30 2687 H 248.292 3.71335 -0.453969 0
M  V30 2688 H 249.625 4.88798 -0.577736 0
M  V30 2689 N 251.277 0.427512 1.51691 0
M  V30 2690 C 252.525 -0.141948 2.01601 0
M  V30 2691 C 252.846 -1.44067 1.31414 0
M  V30 2692 O 252.116 -1.90763 0.445658 0
M  V30 2693 H 250.696 -0.0554468 0.744939 0
M  V30 2694 H 253.358 0.567968 1.86441 0
M  V30 2695 H 252.454 -0.324913 3.10404 0
M  V30 2696 N 252.755 -1.56801 0.158532 0
M  V30 2697 C 254.032 -1.88131 -0.535357 0
M  V30 2698 C 254.412 -1.06638 -1.82186 0
M  V30 2699 O 253.76 -0.156533 -2.27963 0
M  V30 2700 C 253.97 -3.39949 -0.789653 0
M  V30 2701 C 255.318 -4.09416 -1.12533 0
M  V30 2702 O 256.342 -3.45194 -0.878622 0
M  V30 2703 O 255.201 -5.22855 -1.59014 0
M  V30 2704 H 252.295 -0.780143 -0.27442 0
M  V30 2705 H 254.841 -1.68564 0.19601 0
M  V30 2706 H 253.613 -3.91115 0.120353 0
M  V30 2707 H 253.236 -3.65084 -1.57479 0
M  V30 2708 N 254.233 0.115231 -1.57178 0
M  V30 2709 C 255.181 1.16014 -2.01602 0
M  V30 2710 C 256.175 1.42653 -0.913587 0
M  V30 2711 O 257.381 1.42571 -1.09879 0
M  V30 2712 H 253.756 0.391252 -0.642204 0
M  V30 2713 H 255.727 0.758998 -2.88586 0
M  V30 2714 C 254.476 2.47767 -2.4394 0
M  V30 2715 H 253.799 2.28108 -3.28339 0
M  V30 2716 H 255.239 3.19432 -2.78818 0
M  V30 2717 C 253.698 3.10617 -1.30455 0
M  V30 2718 O 254.228 3.96846 -0.622585 0
M  V30 2719 N 252.434 2.70553 -1.06064 0
M  V30 2720 H 251.981 2.00527 -1.61699 0
M  V30 2721 H 251.939 3.12934 -0.303284 0
M  V30 2722 N 255.711 1.52812 0.385517 0
M  V30 2723 C 256.958 1.68026 1.1302 0
M  V30 2724 C 257.286 0.421934 1.89868 0
M  V30 2725 O 256.541 -0.595749 1.86412 0
M  V30 2726 C 256.84 2.86856 2.13187 0
M  V30 2727 C 256.506 4.24159 1.5297 0
M  V30 2728 C 255.168 4.61501 1.36274 0
M  V30 2729 C 257.52 5.09627 1.09223 0
M  V30 2730 C 254.848 5.81966 0.743837 0
M  V30 2731 C 257.2 6.30719 0.487411 0
M  V30 2732 C 255.864 6.6679 0.307777 0
M  V30 2733 H 255.134 0.614849 0.413571 0
M  V30 2734 H 257.781 1.86962 0.414405 0
M  V30 2735 H 256.086 2.6235 2.90998 0
M  V30 2736 H 257.783 2.95821 2.70722 0
M  V30 2737 H 254.373 3.94746 1.66954 0
M  V30 2738 H 258.557 4.81343 1.20922 0
M  V30 2739 H 253.813 6.08519 0.592891 0
M  V30 2740 H 257.987 6.96259 0.140143 0
M  V30 2741 H 255.614 7.60001 -0.173879 0
M  V30 2742 N 257.189 -0.644168 1.43834 0
M  V30 2743 C 258.419 -1.42939 1.49171 0
M  V30 2744 C 258.827 -1.88874 0.111048 0
M  V30 2745 O 258.17 -1.60656 -0.8908 0
M  V30 2746 C 258.232 -2.69151 2.38324 0
M  V30 2747 C 257.896 -2.45097 3.85715 0
M  V30 2748 C 258.893 -2.07747 4.76589 0
M  V30 2749 C 256.578 -2.59141 4.30292 0
M  V30 2750 C 258.572 -1.8475 6.10038 0
M  V30 2751 C 256.259 -2.35759 5.63792 0
M  V30 2752 C 257.257 -1.9862 6.53482 0
M  V30 2753 O 256.945 -1.75489 7.84512 0
M  V30 2754 H 256.677 -0.445271 0.508635 0
M  V30 2755 H 259.231 -0.79621 1.8934 0
M  V30 2756 H 257.461 -3.3506 1.93058 0
M  V30 2757 H 259.15 -3.31123 2.3476 0
M  V30 2758 H 259.916 -1.96465 4.43426 0
M  V30 2759 H 255.795 -2.87022 3.60749 0
M  V30 2760 H 259.339 -1.55686 6.80006 0
M  V30 2761 H 255.236 -2.46646 5.9652 0
M  V30 2762 H 256.004 -1.89841 7.9618 0
M  V30 2763 N 258.668 -1.30515 -0.883378 0
M  V30 2764 C 259.914 -1.19607 -1.63774 0
M  V30 2765 C 260.247 0.248314 -1.92606 0
M  V30 2766 O 259.522 1.17742 -1.54813 0
M  V30 2767 C 259.805 -2.02669 -2.97653 0
M  V30 2768 C 259.658 -3.55335 -2.75784 0
M  V30 2769 C 260.977 -1.86573 -3.98596 0
M  V30 2770 H 258.096 -0.435856 -0.594305 0
M  V30 2771 H 260.738 -1.60165 -1.02212 0
M  V30 2772 H 258.888 -1.68208 -3.50197 0
M  V30 2773 H 260.56 -3.99863 -2.30016 0
M  V30 2774 H 258.803 -3.79438 -2.1026 0
M  V30 2775 H 259.474 -4.08745 -3.70988 0
M  V30 2776 H 261.95 -2.16703 -3.55217 0
M  V30 2777 H 260.826 -2.47014 -4.90179 0
M  V30 2778 H 261.087 -0.825321 -4.34328 0
M  V30 2779 N 260.146 1.09593 -1.13257 0
M  V30 2780 C 261.395 1.81105 -0.887917 0
M  V30 2781 C 261.708 1.86563 0.587672 0
M  V30 2782 O 262.914 2.54367 0.949204 0
M  V30 2783 C 261.37 3.25338 -1.53895 0
M  V30 2784 C 260.978 3.28151 -3.04994 0
M  V30 2785 C 262.722 4.01617 -1.37492 0
M  V30 2786 C 260.629 4.66897 -3.6299 0
M  V30 2787 H 259.559 0.678661 -0.328534 0
M  V30 2788 H 262.21 1.23183 -1.36008 0
M  V30 2789 H 260.592 3.8331 -0.994446 0
M  V30 2790 H 261.766 2.79953 -3.66009 0
M  V30 2791 H 260.081 2.65361 -3.20893 0
M  V30 2792 H 262.678 5.04119 -1.78235 0
M  V30 2793 H 263.021 4.15072 -0.31957 0
M  V30 2794 H 263.554 3.50082 -1.88912 0
M  V30 2795 H 260.293 4.58643 -4.68323 0
M  V30 2796 H 259.813 5.15426 -3.06752 0
M  V30 2797 H 261.492 5.3587 -3.62563 0
M  V30 2798 N 261.624 0.925811 1.2754 0
M  V30 2799 C 262.901 0.483726 1.89524 0
M  V30 2800 C 263.281 -1.03809 1.83812 0
M  V30 2801 O 262.629 -1.89143 1.28207 0
M  V30 2802 C 262.839 1.02769 3.33526 0
M  V30 2803 C 264.187 1.08703 4.10449 0
M  V30 2804 O 265.211 0.977175 3.42534 0
M  V30 2805 O 264.07 1.25599 5.31871 0
M  V30 2806 H 261.164 0.15529 0.812289 0
M  V30 2807 H 263.71 1.01738 1.35822 0
M  V30 2808 H 262.482 2.07155 3.31967 0
M  V30 2809 H 262.105 0.475567 3.94746 0
M  V30 2810 N 263.102 -1.41638 0.69111 0
M  V30 2811 C 264.034 -2.29194 -0.0161523 0
M  V30 2812 C 265.047 -1.44549 -0.748955 0
M  V30 2813 O 266.236 -1.681 -0.6004 0
M  V30 2814 C 263.336 -3.22325 -1.0469 0
M  V30 2815 C 262.509 -4.35706 -0.384621 0
M  V30 2816 C 261.568 -5.09443 -1.31737 0
M  V30 2817 O 260.594 -5.63386 -0.811451 0
M  V30 2818 N 261.796 -5.16487 -2.64993 0
M  V30 2819 H 264.561 -2.90534 0.735523 0
M  V30 2820 H 262.122 -1.52742 0.53679 0
M  V30 2821 H 264.114 -3.68522 -1.67252 0
M  V30 2822 H 262.684 -2.62323 -1.70015 0
M  V30 2823 H 261.904 -3.91948 0.420804 0
M  V30 2824 H 263.192 -5.08743 0.0760765 0
M  V30 2825 H 262.59 -4.741 -3.08619 0
M  V30 2826 H 261.147 -5.66276 -3.22761 0
M  V30 2827 N 264.58 -0.43555 -1.51462 0
M  V30 2828 C 265.828 0.131254 -2.01673 0
M  V30 2829 C 266.149 1.43368 -1.32177 0
M  V30 2830 O 265.419 1.90524 -0.455769 0
M  V30 2831 H 263.999 0.0514954 -0.745223 0
M  V30 2832 H 266.661 -0.577847 -1.86137 0
M  V30 2833 H 265.757 0.308446 -3.10572 0
M  V30 2834 N 266.058 1.56714 -0.166846 0
M  V30 2835 C 266.968 2.21331 0.777791 0
M  V30 2836 C 267.984 1.20358 1.25658 0
M  V30 2837 O 269.16 1.53005 1.30964 0
M  V30 2838 C 266.225 2.83787 1.99163 0
M  V30 2839 C 265.286 3.99947 1.56016 0
M  V30 2840 C 264.519 4.59415 2.71613 0
M  V30 2841 O 264.742 4.17769 3.88362 0
M  V30 2842 O 263.676 5.49359 2.45945 0
M  V30 2843 H 267.502 3.02605 0.257636 0
M  V30 2844 H 265.087 1.49275 0.0611393 0
M  V30 2845 H 266.969 3.23405 2.70161 0
M  V30 2846 H 265.644 2.05513 2.50092 0
M  V30 2847 H 264.551 3.65007 0.819809 0
M  V30 2848 H 265.884 4.79801 1.09782 0
M  V30 2849 N 267.536 -0.106894 1.57237 0
M  V30 2850 C 268.764 -0.826389 1.8968 0
M  V30 2851 C 269.179 -1.72856 0.759353 0
M  V30 2852 O 268.536 -1.80503 -0.269263 0
M  V30 2853 C 268.587 -1.64967 3.21665 0
M  V30 2854 O 268.308 -0.783804 4.31031 0
M  V30 2855 C 269.809 -2.47326 3.67892 0
M  V30 2856 H 267.029 -0.236927 0.627779 0
M  V30 2857 H 269.573 -0.0876593 2.04312 0
M  V30 2858 H 267.728 -2.34103 3.08666 0
M  V30 2859 H 268.142 -1.35284 5.06753 0
M  V30 2860 H 269.616 -3.00604 4.6297 0
M  V30 2861 H 270.093 -3.25247 2.95146 0
M  V30 2862 H 270.699 -1.83411 3.83719 0
M  V30 2863 N 269.014 -1.53014 -0.377408 0
M  V30 2864 C 270.291 -1.59215 -1.13622 0
M  V30 2865 C 270.671 -0.392407 -2.07421 0
M  V30 2866 O 270.019 0.618342 -2.19975 0
M  V30 2867 C 270.229 -2.93669 -1.88573 0
M  V30 2868 C 271.577 -3.47822 -2.43526 0
M  V30 2869 O 272.601 -2.9562 -1.98715 0
M  V30 2870 O 271.46 -4.39055 -3.25412 0
M  V30 2871 H 268.554 -0.642625 -0.52054 0
M  V30 2872 H 271.1 -1.65353 -0.381625 0
M  V30 2873 H 269.872 -3.7243 -1.20048 0
M  V30 2874 H 269.495 -2.90968 -2.70968 0
M  V30 2875 N 270.492 0.636531 -1.44174 0
M  V30 2876 C 271.738 1.39826 -1.4689 0
M  V30 2877 C 272.071 1.93947 -0.0990585 0
M  V30 2878 O 271.346 1.73325 0.882544 0
M  V30 2879 C 271.629 2.56751 -2.5249 0
M  V30 2880 C 271.482 2.08014 -3.98811 0
M  V30 2881 C 272.801 3.58946 -2.54649 0
M  V30 2882 H 269.92 0.507075 -0.53483 0
M  V30 2883 H 272.562 0.720188 -1.75822 0
M  V30 2884 H 270.712 3.14597 -2.2795 0
M  V30 2885 H 272.384 1.5504 -4.34466 0
M  V30 2886 H 270.627 1.39242 -4.10846 0
M  V30 2887 H 271.298 2.92169 -4.68339 0
M  V30 2888 H 273.774 3.1089 -2.76563 0
M  V30 2889 H 272.65 4.38286 -3.3045 0
M  V30 2890 H 272.911 4.12655 -1.58646 0
M  V30 2891 N 271.97 1.30982 0.876444 0
M  V30 2892 C 273.2 1.23063 1.65949 0
M  V30 2893 C 273.608 -0.207537 1.88058 0
M  V30 2894 O 272.951 -1.14781 1.43426 0
M  V30 2895 C 273.013 1.89768 3.05333 0
M  V30 2896 C 272.677 3.39106 3.0636 0
M  V30 2897 C 273.674 4.3496 2.84791 0
M  V30 2898 C 271.359 3.80693 3.27686 0
M  V30 2899 C 273.353 5.70375 2.84519 0
M  V30 2900 C 271.04 5.16223 3.27043 0
M  V30 2901 C 272.038 6.10875 3.05485 0
M  V30 2902 O 271.726 7.43928 3.04674 0
M  V30 2903 H 271.458 0.426685 0.524324 0
M  V30 2904 H 274.012 1.7329 1.10271 0
M  V30 2905 H 272.242 1.34082 3.6271 0
M  V30 2906 H 273.931 1.75853 3.65829 0
M  V30 2907 H 274.697 4.0416 2.68103 0
M  V30 2908 H 270.576 3.07457 3.43499 0
M  V30 2909 H 274.12 6.44228 2.67611 0
M  V30 2910 H 270.017 5.4666 3.43269 0
M  V30 2911 H 270.785 7.53022 3.2078 0
M  V30 2912 N 273.449 -1.08991 1.13837 0
M  V30 2913 C 274.695 -1.81526 0.90422 0
M  V30 2914 C 275.028 -1.85706 -0.568066 0
M  V30 2915 O 274.303 -1.32855 -1.42056 0
M  V30 2916 C 274.586 -3.27447 1.49835 0
M  V30 2917 C 274.439 -3.31512 3.04006 0
M  V30 2918 C 275.758 -4.24256 1.17025 0
M  V30 2919 H 272.877 -0.659029 0.329923 0
M  V30 2920 H 275.519 -1.27644 1.40737 0
M  V30 2921 H 273.669 -3.73462 1.07044 0
M  V30 2922 H 275.341 -2.93867 3.55584 0
M  V30 2923 H 273.584 -2.70963 3.38765 0
M  V30 2924 H 274.255 -4.34329 3.40679 0
M  V30 2925 H 276.731 -3.86549 1.54009 0
M  V30 2926 H 275.607 -5.24684 1.61237 0
M  V30 2927 H 275.868 -4.42019 0.0846274 0
M  V30 2928 N 274.927 -0.932562 -1.27047 0
M  V30 2929 C 275.875 -0.42603 -2.28665 0
M  V30 2930 C 276.869 0.49219 -1.62092 0
M  V30 2931 O 278.075 0.371355 -1.76128 0
M  V30 2932 H 274.45 -0.119213 -0.742491 0
M  V30 2933 H 276.421 -1.29579 -2.68797 0
M  V30 2934 C 275.17 0.301426 -3.46391 0
M  V30 2935 H 274.493 -0.39595 -3.97834 0
M  V30 2936 H 275.933 0.6202 -4.1944 0
M  V30 2937 C 274.392 1.51616 -3.00856 0
M  V30 2938 O 274.922 2.61476 -3.04948 0
M  V30 2939 N 273.128 1.36969 -2.56296 0
M  V30 2940 H 272.675 0.475873 -2.53166 0
M  V30 2941 H 272.633 2.18368 -2.26192 0
M  V30 2942 N 276.405 1.4127 -0.698611 0
M  V30 2943 C 277.353 2.32588 -0.023855 0
M  V30 2944 C 278.347 1.51128 0.765292 0
M  V30 2945 O 279.553 1.67043 0.670571 0
M  V30 2946 H 275.928 0.751918 0.0110871 0
M  V30 2947 H 277.899 2.87167 -0.811031 0
M  V30 2948 C 276.648 3.35947 0.896369 0
M  V30 2949 H 275.971 3.98684 0.298548 0
M  V30 2950 H 277.411 4.02376 1.33676 0
M  V30 2951 C 275.87 2.70076 2.01396 0
M  V30 2952 O 276.4 2.55093 3.10307 0
M  V30 2953 N 274.606 2.28724 1.79259 0
M  V30 2954 H 274.153 2.4111 0.906841 0
M  V30 2955 H 274.111 1.84986 2.54219 0
M  V30 2956 N 277.883 0.443576 1.51229 0
M  V30 2957 C 278.793 -0.370721 2.31652 0
M  V30 2958 C 279.809 -1.02186 1.40833 0
M  V30 2959 O 280.985 -1.01586 1.73903 0
M  V30 2960 C 278.05 -1.45376 3.14749 0
M  V30 2961 C 277.111 -0.822099 4.21355 0
M  V30 2962 C 276.344 -1.85353 5.0048 0
M  V30 2963 O 276.567 -3.07656 4.80316 0
M  V30 2964 O 275.501 -1.4406 5.84406 0
M  V30 2965 H 279.327 0.286002 3.0235 0
M  V30 2966 H 276.912 0.20598 1.47973 0
M  V30 2967 H 278.794 -2.08173 3.66391 0
M  V30 2968 H 277.469 -2.09445 2.46809 0
M  V30 2969 H 276.376 -0.155909 3.73775 0
M  V30 2970 H 277.709 -0.224797 4.91686 0
M  V30 2971 N 279.361 -1.56624 0.175154 0
M  V30 2972 C 280.607 -1.98061 -0.462976 0
M  V30 2973 C 280.962 -1.05949 -1.60601 0
M  V30 2974 O 280.255 -0.0999027 -1.91339 0
M  V30 2975 C 280.449 -3.43419 -0.989864 0
M  V30 2976 C 280.278 -4.49587 0.100583 0
M  V30 2977 C 279.048 -5.02281 0.551539 0
M  V30 2978 C 281.246 -5.06322 0.902369 0
M  V30 2979 N 279.228 -5.92088 1.62189 0
M  V30 2980 C 280.599 -5.92607 1.82256 0
M  V30 2981 C 282.654 -4.88811 0.947019 0
M  V30 2982 C 281.357 -6.63254 2.78364 0
M  V30 2983 C 283.383 -5.60182 1.89606 0
M  V30 2984 C 282.745 -6.46197 2.80372 0
M  V30 2985 H 278.844 -0.769833 -0.137409 0
M  V30 2986 H 281.428 -1.9273 0.276256 0
M  V30 2987 H 279.599 -3.49288 -1.6986 0
M  V30 2988 H 281.331 -3.7186 -1.59694 0
M  V30 2989 H 278.086 -4.73367 0.148537 0
M  V30 2990 H 278.51 -6.41696 2.15767 0
M  V30 2991 H 283.152 -4.22004 0.259304 0
M  V30 2992 H 280.87 -7.29271 3.48122 0
M  V30 2993 H 284.456 -5.48617 1.93676 0
M  V30 2994 H 283.336 -7.00453 3.52612 0
M  V30 2995 N 280.839 0.0985539 -1.57292 0
M  V30 2996 C 281.802 1.10402 -2.00858 0
M  V30 2997 C 282.802 1.33146 -0.901593 0
M  V30 2998 O 283.992 1.29318 -1.16716 0
M  V30 2999 C 281.124 2.45394 -2.36632 0
M  V30 3000 H 282.317 0.729099 -2.90902 0
M  V30 3001 H 279.87 0.343495 -1.52479 0
M  V30 3002 H 280.605 2.87769 -1.49531 0
M  V30 3003 H 280.39 2.30235 -3.17387 0
M  V30 3004 H 281.88 3.17718 -2.71007 0
M  V30 3005 N 282.317 1.53212 0.369288 0
M  V30 3006 C 283.545 1.73119 1.13303 0
M  V30 3007 C 283.96 0.458455 1.83149 0
M  V30 3008 O 283.317 -0.568403 1.73423 0
M  V30 3009 C 283.368 2.89413 2.16616 0
M  V30 3010 O 283.089 4.11761 1.49614 0
M  V30 3011 C 284.59 3.21161 3.05566 0
M  V30 3012 H 281.81 0.579107 0.338934 0
M  V30 3013 H 284.354 1.99942 0.429338 0
M  V30 3014 H 282.509 2.64994 2.82589 0
M  V30 3015 H 282.923 4.76858 2.18419 0
M  V30 3016 H 284.397 4.05949 3.74045 0
M  V30 3017 H 284.874 2.36369 3.70171 0
M  V30 3018 H 285.48 3.47492 2.45213 0
M  V30 3019 N 283.795 -0.628877 1.44509 0
M  V30 3020 C 285.02 -1.42048 1.5112 0
M  V30 3021 C 285.445 -1.87594 0.137818 0
M  V30 3022 O 284.803 -1.58873 -0.873437 0
M  V30 3023 C 284.851 -2.61541 2.48251 0
M  V30 3024 O 283.955 -3.61453 1.98559 0
M  V30 3025 H 283.296 -0.424942 0.510216 0
M  V30 3026 H 285.826 -0.767374 1.89664 0
M  V30 3027 H 285.836 -3.09057 2.66361 0
M  V30 3028 H 284.511 -2.27736 3.48007 0
M  V30 3029 H 283.088 -3.20731 1.90227 0
M  V30 3030 N 285.273 -1.31445 -0.869486 0
M  V30 3031 C 286.519 -1.21337 -1.62496 0
M  V30 3032 C 286.852 0.227872 -1.92858 0
M  V30 3033 O 286.127 1.16094 -1.56053 0
M  V30 3034 C 286.41 -2.05814 -2.95487 0
M  V30 3035 C 286.263 -3.5824 -2.72 0
M  V30 3036 C 287.582 -1.9079 -3.96594 0
M  V30 3037 H 284.701 -0.442135 -0.589649 0
M  V30 3038 H 287.343 -1.6124 -1.00507 0
M  V30 3039 H 285.493 -1.71913 -3.48394 0
M  V30 3040 H 287.165 -4.0228 -2.25762 0
M  V30 3041 H 285.408 -3.81647 -2.06224 0
M  V30 3042 H 286.079 -4.12657 -3.66631 0
M  V30 3043 H 288.555 -2.20459 -3.52898 0
M  V30 3044 H 287.431 -2.52199 -4.87531 0
M  V30 3045 H 287.692 -0.871341 -4.33428 0
M  V30 3046 N 286.751 1.08385 -1.14413 0
M  V30 3047 C 287.999 1.80419 -0.910679 0
M  V30 3048 C 288.32 1.86658 0.564243 0
M  V30 3049 O 287.59 1.35985 1.41014 0
M  V30 3050 H 286.17 0.668204 -0.333934 0
M  V30 3051 H 288.832 1.31037 -1.44275 0
M  V30 3052 H 287.928 2.83238 -1.31082 0
M  V30 3053 N 288.23 0.939286 1.26551 0
M  V30 3054 C 289.14 0.453432 2.30176 0
M  V30 3055 C 290.156 -0.471649 1.67486 0
M  V30 3056 O 291.332 -0.35164 1.98306 0
M  V30 3057 C 288.397 -0.275326 3.45605 0
M  V30 3058 C 287.458 0.686084 4.23782 0
M  V30 3059 C 286.691 -0.00798994 5.33699 0
M  V30 3060 O 286.914 -1.22528 5.57085 0
M  V30 3061 O 285.848 0.669746 5.98162 0
M  V30 3062 H 289.674 1.31416 2.73795 0
M  V30 3063 H 287.259 0.705095 1.31715 0
M  V30 3064 H 289.141 -0.685911 4.1578 0
M  V30 3065 H 287.816 -1.11147 3.0402 0
M  V30 3066 H 286.723 1.14658 3.56096 0
M  V30 3067 H 288.056 1.48979 4.69112 0
M  V30 3068 N 289.708 -1.40897 0.706093 0
M  V30 3069 C 290.956 -2.00657 0.241054 0
M  V30 3070 C 291.277 -1.56241 -1.16678 0
M  V30 3071 O 290.547 -0.79765 -1.78926 0
M  V30 3072 H 289.127 -0.742018 0.0861308 0
M  V30 3073 H 291.789 -1.72372 0.909604 0
M  V30 3074 H 290.885 -3.10958 0.266705 0
M  V30 3075 N 291.186 -0.45159 -1.50991 0
M  V30 3076 C 292.434 0.109857 -2.01801 0
M  V30 3077 C 292.755 1.41958 -1.3369 0
M  V30 3078 O 292.025 1.9003 -0.475951 0
M  V30 3079 H 290.605 0.0435884 -0.745727 0
M  V30 3080 H 293.267 -0.597557 -1.85514 0
M  V30 3081 H 292.363 0.275489 -3.10882 0
M  V30 3082 N 292.664 1.56529 -0.183458 0
M  V30 3083 C 293.889 2.02064 0.467428 0
M  V30 3084 C 294.314 1.06282 1.55196 0
M  V30 3085 O 293.672 0.0443565 1.81246 0
M  V30 3086 C 293.72 3.46122 1.01153 0
M  V30 3087 O 292.824 3.53437 2.12499 0
M  V30 3088 H 292.165 0.654726 0.110588 0
M  V30 3089 H 294.695 2.02521 -0.290917 0
M  V30 3090 H 294.705 3.85676 1.33108 0
M  V30 3091 H 293.38 4.15331 0.217533 0
M  V30 3092 H 291.957 3.2575 1.81497 0
M  V30 3093 N 294.142 -0.090211 1.57342 0
M  V30 3094 C 295.389 -0.792807 1.86335 0
M  V30 3095 C 295.717 -1.78494 0.772662 0
M  V30 3096 O 294.972 -1.94305 -0.233258 0
M  V30 3097 C 295.271 -1.55222 3.21933 0
M  V30 3098 C 294.937 -0.701765 4.45406 0
M  V30 3099 C 293.599 -0.467334 4.78925 0
M  V30 3100 C 295.951 -0.11086 5.21082 0
M  V30 3101 C 293.279 0.367785 5.85546 0
M  V30 3102 C 295.631 0.711609 6.28585 0
M  V30 3103 C 294.295 0.956086 6.60617 0
M  V30 3104 H 293.565 -0.290109 0.681849 0
M  V30 3105 H 296.212 -0.0541332 1.91423 0
M  V30 3106 H 294.517 -2.3626 3.12551 0
M  V30 3107 H 296.214 -2.10032 3.41595 0
M  V30 3108 H 292.804 -0.894598 4.1916 0
M  V30 3109 H 296.988 -0.279129 4.95514 0
M  V30 3110 H 292.244 0.566128 6.08773 0
M  V30 3111 H 296.418 1.17632 6.86393 0
M  V30 3112 H 294.045 1.60499 7.43064 0
M  V30 3113 N 295.62 -1.53406 -0.361157 0
M  V30 3114 C 296.868 -1.69467 -1.10115 0
M  V30 3115 C 297.189 -0.451352 -1.89705 0
M  V30 3116 O 296.459 0.534636 -1.88463 0
M  V30 3117 H 295.039 -0.624749 -0.409508 0
M  V30 3118 H 297.701 -1.90609 -0.406699 0
M  V30 3119 H 296.797 -2.55774 -1.78847 0
M  V30 3120 N 297.098 0.621204 -1.44841 0
M  V30 3121 C 298.008 1.7612 -1.5498 0
M  V30 3122 C 299.024 1.68477 -0.434927 0
M  V30 3123 O 300.2 1.89076 -0.693693 0
M  V30 3124 C 297.265 3.1254 -1.50065 0
M  V30 3125 C 296.326 3.31741 -2.72482 0
M  V30 3126 C 295.559 4.61653 -2.67792 0
M  V30 3127 O 295.782 5.431 -1.74352 0
M  V30 3128 O 294.716 4.83271 -3.58794 0
M  V30 3129 H 298.542 1.70518 -2.51311 0
M  V30 3130 H 296.127 0.783643 -1.27198 0
M  V30 3131 H 298.009 3.93844 -1.49882 0
M  V30 3132 H 296.684 3.18663 -0.568806 0
M  V30 3133 H 295.591 2.50077 -2.7823 0
M  V30 3134 H 296.924 3.30486 -3.64746 0
M  V30 3135 N 298.576 1.31904 0.862503 0
M  V30 3136 C 299.506 1.22782 1.98612 0
M  V30 3137 C 300.487 0.113362 1.69722 0
M  V30 3138 O 301.672 0.299218 1.91881 0
M  V30 3139 C 298.802 0.942058 3.34279 0
M  V30 3140 C 297.756 2.0169 3.77499 0
M  V30 3141 C 297.082 1.58369 5.10709 0
M  V30 3142 C 298.382 3.43096 3.93805 0
M  V30 3143 H 300.076 2.16788 2.06502 0
M  V30 3144 H 297.622 1.04366 0.992154 0
M  V30 3145 H 299.575 0.864818 4.1243 0
M  V30 3146 H 298.299 -0.0336603 3.26583 0
M  V30 3147 H 296.958 2.08416 3.01593 0
M  V30 3148 H 296.606 0.595628 4.99461 0
M  V30 3149 H 296.306 2.30279 5.40597 0
M  V30 3150 H 297.83 1.52067 5.91361 0
M  V30 3151 H 299.244 3.39003 4.62331 0
M  V30 3152 H 297.641 4.13288 4.35101 0
M  V30 3153 H 298.711 3.83334 2.96957 0
M  V30 3154 N 300.054 -1.07777 1.14986 0
M  V30 3155 C 301.017 -2.13041 0.845358 0
M  V30 3156 C 302.017 -1.60071 -0.152931 0
M  V30 3157 O 303.207 -1.74033 0.0761879 0
M  V30 3158 C 300.339 -3.39896 0.261383 0
M  V30 3159 H 301.532 -2.41485 1.77834 0
M  V30 3160 H 299.085 -1.23595 0.956757 0
M  V30 3161 H 299.82 -3.17091 -0.68 0
M  V30 3162 H 299.605 -3.79642 0.980514 0
M  V30 3163 H 301.095 -4.17548 0.0657687 0
M  V30 3164 N 301.532 -0.945985 -1.26051 0
M  V30 3165 C 302.462 -0.477172 -2.28572 0
M  V30 3166 C 303.443 0.472032 -1.63419 0
M  V30 3167 O 304.628 0.372853 -1.90587 0
M  V30 3168 C 301.758 0.253975 -3.4637 0
M  V30 3169 C 300.712 -0.609135 -4.23643 0
M  V30 3170 C 300.038 0.252252 -5.34105 0
M  V30 3171 C 301.338 -1.8829 -4.8718 0
M  V30 3172 H 303.032 -1.33402 -2.68038 0
M  V30 3173 H 300.578 -0.642904 -1.28852 0
M  V30 3174 H 302.531 0.593016 -4.17207 0
M  V30 3175 H 301.255 1.145 -3.05871 0
M  V30 3176 H 299.914 -0.931138 -3.54578 0
M  V30 3177 H 299.562 1.14278 -4.89846 0
M  V30 3178 H 299.262 -0.32188 -5.86718 0
M  V30 3179 H 300.786 0.586454 -6.07777 0
M  V30 3180 H 302.2 -1.61081 -5.50205 0
M  V30 3181 H 300.597 -2.40199 -5.49931 0
M  V30 3182 H 301.667 -2.59134 -4.09851 0
M  V30 3183 N 303.011 1.40521 -0.713556 0
M  V30 3184 C 304.26 2.00155 -0.249192 0
M  V30 3185 C 304.573 1.57224 1.16362 0
M  V30 3186 O 305.779 2.09542 1.72639 0
M  V30 3187 C 304.235 3.5773 -0.3946 0
M  V30 3188 C 303.843 4.09635 -1.81392 0
M  V30 3189 C 305.587 4.24499 0.00907364 0
M  V30 3190 C 303.494 5.59707 -1.91003 0
M  V30 3191 H 302.424 0.74868 -0.0894114 0
M  V30 3192 H 305.075 1.60784 -0.884352 0
M  V30 3193 H 303.457 3.94792 0.30911 0
M  V30 3194 H 304.631 3.83955 -2.54785 0
M  V30 3195 H 302.946 3.55456 -2.16888 0
M  V30 3196 H 305.543 5.34683 -0.0420404 0
M  V30 3197 H 305.886 4.02824 1.05065 0
M  V30 3198 H 306.419 3.92536 -0.645007 0
M  V30 3199 H 303.158 5.86234 -2.93275 0
M  V30 3200 H 302.678 5.87258 -1.22019 0
M  V30 3201 H 304.357 6.24776 -1.6812 0
M  V30 3202 N 304.489 0.459591 1.5075 0
M  V30 3203 C 305.719 -0.0972338 2.06371 0
M  V30 3204 C 306.127 -1.35074 1.32483 0
M  V30 3205 O 305.47 -1.79637 0.384226 0
M  V30 3206 C 305.532 -0.462759 3.56509 0
M  V30 3207 C 305.196 0.687084 4.51805 0
M  V30 3208 C 306.193 1.56578 4.95761 0
M  V30 3209 C 303.878 0.874144 4.94635 0
M  V30 3210 C 305.872 2.61604 5.81242 0
M  V30 3211 C 303.559 1.92765 5.79901 0
M  V30 3212 C 304.557 2.79697 6.23104 0
M  V30 3213 O 304.245 3.83235 7.06673 0
M  V30 3214 H 303.977 -0.00140687 0.675999 0
M  V30 3215 H 306.531 0.644011 1.95043 0
M  V30 3216 H 304.761 -1.25703 3.65699 0
M  V30 3217 H 306.45 -0.953323 3.94546 0
M  V30 3218 H 307.216 1.4329 4.6335 0
M  V30 3219 H 303.095 0.207006 4.60535 0
M  V30 3220 H 306.639 3.29489 6.14884 0
M  V30 3221 H 302.536 2.06064 6.11725 0
M  V30 3222 H 303.304 3.80084 7.24899 0
M  V30 3223 N 305.967 -1.56429 0.191757 0
M  V30 3224 C 307.215 -1.97095 -0.447006 0
M  V30 3225 C 307.536 -1.07967 -1.62383 0
M  V30 3226 O 306.806 -0.150248 -1.95323 0
M  V30 3227 H 305.386 -0.727832 -0.168135 0
M  V30 3228 H 308.048 -1.92911 0.27771 0
M  V30 3229 H 307.144 -3.01848 -0.793371 0
M  V30 3230 N 307.445 0.0818655 -1.57387 0
M  V30 3231 C 308.673 0.796108 -1.9097 0
M  V30 3232 C 309.088 1.71626 -0.786757 0
M  V30 3233 O 308.445 1.80908 0.240513 0
M  V30 3234 C 308.496 1.59829 -3.24248 0
M  V30 3235 O 308.217 0.715131 -4.32224 0
M  V30 3236 C 309.718 2.41442 -3.7178 0
M  V30 3237 H 306.938 0.22691 -0.631469 0
M  V30 3238 H 309.482 0.0551439 -2.04426 0
M  V30 3239 H 307.637 2.29163 -3.12351 0
M  V30 3240 H 308.051 1.27205 -5.08841 0
M  V30 3241 H 309.525 2.932 -4.67694 0
M  V30 3242 H 310.002 3.2051 -3.00283 0
M  V30 3243 H 310.608 1.77283 -3.86589 0
M  V30 3244 N 308.923 1.53595 0.353017 0
M  V30 3245 C 310.334 1.61937 0.929153 0
M  V30 3246 C 310.685 0.494686 1.89861 0
M  V30 3247 O 309.81 -0.377017 2.1309 0
M  V30 3248 C 310.405 2.93526 1.69199 0
M  V30 3249 C 308.964 3.04161 2.21727 0
M  V30 3250 C 308.111 2.57322 1.03348 0
M  V30 3251 H 311.062 1.58155 0.131431 0
M  V30 3252 H 311.083 2.82034 2.55416 0
M  V30 3253 H 310.595 3.75362 0.986144 0
M  V30 3254 H 308.696 2.26938 2.95516 0
M  V30 3255 H 308.809 4.09465 2.48748 0
M  V30 3256 H 307.173 2.12499 1.40414 0
M  V30 3257 H 307.956 3.41588 0.342428 0
M  V30 3258 N 310.401 -0.613514 1.45168 0
M  V30 3259 C 311.817 -0.933629 1.29443 0
M  V30 3260 C 312.017 -2.00028 0.243101 0
M  V30 3261 O 311.073 -2.49848 -0.364992 0
M  V30 3262 C 312.386 -1.38018 2.67155 0
M  V30 3263 C 313.934 -1.49471 2.75004 0
M  V30 3264 C 314.409 -1.97503 4.13227 0
M  V30 3265 N 315.9 -2.04746 4.15491 0
M  V30 3266 C 316.635 -2.43121 5.19307 0
M  V30 3267 N 316.131 -2.80506 6.33473 0
M  V30 3268 N 317.924 -2.43408 5.06664 0
M  V30 3269 H 310.075 0.0916097 2.12202 0
M  V30 3270 H 312.338 -0.0216655 0.947752 0
M  V30 3271 H 312.044 -0.670625 3.45247 0
M  V30 3272 H 311.918 -2.34784 2.95222 0
M  V30 3273 H 314.305 -2.19519 1.9722 0
M  V30 3274 H 314.386 -0.510342 2.50657 0
M  V30 3275 H 314.03 -1.28045 4.91495 0
M  V30 3276 H 313.96 -2.96843 4.34962 0
M  V30 3277 H 316.451 -1.78468 3.33103 0
M  V30 3278 H 316.764 -3.08652 7.08487 0
M  V30 3279 H 315.109 -2.78216 6.36884 0
M  V30 3280 H 318.3 -2.13604 4.16523 0
M  V30 3281 H 318.473 -2.72989 5.87691 0
M  V30 3282 N 311.879 -1.3236 -0.855495 0
M  V30 3283 C 312.842 -1.21164 -1.94556 0
M  V30 3284 C 313.842 -0.134908 -1.60233 0
M  V30 3285 O 315.032 -0.385249 -1.69887 0
M  V30 3286 C 312.164 -0.863192 -3.29791 0
M  V30 3287 H 313.357 -2.18038 -2.05911 0
M  V30 3288 H 310.91 -1.16179 -1.04557 0
M  V30 3289 H 311.645 0.103769 -3.24134 0
M  V30 3290 H 311.43 -1.64166 -3.56078 0
M  V30 3291 H 312.92 -0.809156 -4.09686 0
M  V30 3292 N 313.357 1.07166 -1.15556 0
M  V30 3293 C 314.32 2.12589 -0.856644 0
M  V30 3294 C 315.32 1.6015 0.14444 0
M  V30 3295 O 316.51 1.7399 -0.0854163 0
M  V30 3296 C 313.642 3.39753 -0.279405 0
M  V30 3297 H 314.835 2.40539 -1.79112 0
M  V30 3298 H 312.388 1.23086 -0.963298 0
M  V30 3299 H 313.123 3.17447 0.663174 0
M  V30 3300 H 312.908 3.79117 -1.00063 0
M  V30 3301 H 314.398 4.17507 -0.0879113 0
M  V30 3302 N 314.835 0.952656 1.25548 0
M  V30 3303 C 316.063 0.623496 1.97282 0
M  V30 3304 C 316.478 -0.803987 1.70826 0
M  V30 3305 O 315.835 -1.53755 0.983147 0
M  V30 3306 C 315.886 0.870209 3.5087 0
M  V30 3307 O 315.607 2.24156 3.76412 0
M  V30 3308 C 317.108 0.553164 4.39835 0
M  V30 3309 H 314.328 0.233931 0.628902 0
M  V30 3310 H 316.872 1.27649 1.59768 0
M  V30 3311 H 315.027 0.263652 3.86502 0
M  V30 3312 H 315.441 2.31021 4.70882 0
M  V30 3313 H 316.915 0.776342 5.46513 0
M  V30 3314 H 317.392 -0.512215 4.36203 0
M  V30 3315 H 317.998 1.13896 4.09766 0
M  V30 3316 N 316.313 -1.40141 0.720998 0
M  V30 3317 C 317.559 -2.01084 0.263231 0
M  V30 3318 C 317.892 -1.57052 -1.14229 0
M  V30 3319 O 317.167 -0.793027 -1.77599 0
M  V30 3320 C 317.45 -3.58401 0.349344 0
M  V30 3321 C 317.303 -4.12491 1.79363 0
M  V30 3322 C 318.622 -4.39231 -0.276351 0
M  V30 3323 H 315.741 -0.730572 0.0971228 0
M  V30 3324 H 318.383 -1.66543 0.914518 0
M  V30 3325 H 316.533 -3.87958 -0.205165 0
M  V30 3326 H 318.205 -3.93711 2.40394 0
M  V30 3327 H 316.448 -3.66576 2.31958 0
M  V30 3328 H 317.119 -5.21646 1.80524 0
M  V30 3329 H 319.595 -4.15637 0.196184 0
M  V30 3330 H 318.471 -5.48586 -0.185681 0
M  V30 3331 H 318.732 -4.20643 -1.36059 0
M  V30 3332 N 317.792 -0.46758 -1.50504 0
M  V30 3333 C 318.739 0.328413 -2.28452 0
M  V30 3334 C 319.709 0.990313 -1.33349 0
M  V30 3335 O 320.894 1.00343 -1.62284 0
M  V30 3336 C 318.034 1.40648 -3.15138 0
M  V30 3337 C 317.147 0.759709 -4.25267 0
M  V30 3338 C 316.282 1.81537 -4.99217 0
M  V30 3339 C 315.321 1.14866 -6.01226 0
M  V30 3340 N 314.458 2.14702 -6.68467 0
M  V30 3341 H 319.298 -0.342603 -2.96024 0
M  V30 3342 H 316.835 -0.180801 -1.45985 0
M  V30 3343 H 318.793 2.04315 -3.63746 0
M  V30 3344 H 317.423 2.04671 -2.49619 0
M  V30 3345 H 316.475 0.0105671 -3.80399 0
M  V30 3346 H 317.787 0.233243 -4.98254 0
M  V30 3347 H 316.941 2.52793 -5.51526 0
M  V30 3348 H 315.68 2.37564 -4.25928 0
M  V30 3349 H 314.685 0.42171 -5.4818 0
M  V30 3350 H 315.91 0.595334 -6.76485 0
M  V30 3351 H 313.856 2.69752 -5.97972 0
M  V30 3352 H 313.773 1.6703 -7.37317 0
M  V30 3353 H 315.041 2.85348 -7.25394 0
M  V30 3354 N 319.27 1.56325 -0.20005 0
M  V30 3355 C 320.233 2.18084 0.705132 0
M  V30 3356 C 321.233 1.13666 1.1374 0
M  V30 3357 O 322.423 1.39023 1.04968 0
M  V30 3358 C 319.555 2.78689 1.96329 0
M  V30 3359 H 320.748 2.99435 0.167023 0
M  V30 3360 H 318.301 1.56221 0.0495725 0
M  V30 3361 H 319.036 2.0115 2.5438 0
M  V30 3362 H 318.821 3.55133 1.66202 0
M  V30 3363 H 320.311 3.26096 2.60866 0
M  V30 3364 N 320.748 -0.0735177 1.57428 0
M  V30 3365 C 321.695 -1.08756 2.0357 0
M  V30 3366 C 322.665 -1.38559 0.916 0
M  V30 3367 O 323.85 -1.49656 1.18354 0
M  V30 3368 C 320.99 -2.39657 2.48311 0
M  V30 3369 C 320.103 -2.16399 3.73892 0
M  V30 3370 C 319.238 -3.40852 4.07423 0
M  V30 3371 C 318.277 -3.1295 5.2605 0
M  V30 3372 N 317.414 -4.29729 5.55228 0
M  V30 3373 H 322.254 -0.687104 2.8997 0
M  V30 3374 H 319.791 -0.327709 1.43403 0
M  V30 3375 H 321.749 -3.16081 2.72303 0
M  V30 3376 H 320.379 -2.77508 1.64891 0
M  V30 3377 H 319.431 -1.30676 3.57251 0
M  V30 3378 H 320.743 -1.91788 4.60455 0
M  V30 3379 H 319.897 -4.25671 4.32306 0
M  V30 3380 H 318.636 -3.68537 3.19425 0
M  V30 3381 H 317.641 -2.26526 5.00965 0
M  V30 3382 H 318.866 -2.86589 6.15665 0
M  V30 3383 H 316.812 -4.57448 4.70188 0
M  V30 3384 H 316.729 -4.08385 6.36206 0
M  V30 3385 H 317.997 -5.1555 5.84661 0
M  V30 3386 N 322.226 -1.5378 -0.344866 0
M  V30 3387 C 323.454 -1.74899 -1.10534 0
M  V30 3388 C 323.869 -0.487534 -1.82397 0
M  V30 3389 O 323.226 0.540741 -1.74305 0
M  V30 3390 C 323.277 -2.92822 -2.11984 0
M  V30 3391 O 322.998 -4.14089 -1.43044 0
M  V30 3392 C 324.499 -3.25982 -3.00417 0
M  V30 3393 H 321.719 -0.584426 -0.329678 0
M  V30 3394 H 324.263 -2.006 -0.397474 0
M  V30 3395 H 322.418 -2.69457 -2.78338 0
M  V30 3396 H 322.832 -4.80272 -2.10805 0
M  V30 3397 H 324.306 -4.11848 -3.67539 0
M  V30 3398 H 324.783 -2.42228 -3.66363 0
M  V30 3399 H 325.389 -3.51349 -2.39654 0
M  V30 3400 N 323.704 0.605807 -1.45491 0
M  V30 3401 C 324.652 1.73754 -1.54636 0
M  V30 3402 C 325.646 1.64207 -0.416219 0
M  V30 3403 O 326.852 1.69979 -0.592199 0
M  V30 3404 H 323.227 0.574073 -0.485741 0
M  V30 3405 H 325.198 1.63169 -2.49837 0
M  V30 3406 C 323.947 3.12135 -1.53189 0
M  V30 3407 H 323.27 3.20141 -2.39478 0
M  V30 3408 H 324.71 3.91147 -1.63645 0
M  V30 3409 C 323.169 3.35921 -0.256616 0
M  V30 3410 O 323.699 3.96194 0.662798 0
M  V30 3411 N 321.905 2.90204 -0.151751 0
M  V30 3412 H 321.452 2.41336 -0.90081 0
M  V30 3413 H 321.41 3.06492 0.700699 0
M  V30 3414 N 325.182 1.32811 0.848464 0
M  V30 3415 C 326.428 1.23907 1.60546 0
M  V30 3416 C 326.761 -0.197161 1.93197 0
M  V30 3417 O 326.036 -1.13596 1.5788 0
M  V30 3418 C 326.319 2.10489 2.92175 0
M  V30 3419 C 326.172 3.62522 2.66266 0
M  V30 3420 C 327.491 1.97075 3.93509 0
M  V30 3421 H 324.61 0.451459 0.58254 0
M  V30 3422 H 327.252 1.62818 0.979296 0
M  V30 3423 H 325.402 1.77434 3.45614 0
M  V30 3424 H 327.074 4.05821 2.19334 0
M  V30 3425 H 325.317 3.84879 2.00126 0
M  V30 3426 H 325.988 4.18437 3.6002 0
M  V30 3427 H 328.464 2.26045 3.49346 0
M  V30 3428 H 327.34 2.59923 4.83457 0
M  V30 3429 H 327.601 0.940186 4.31987 0
M  V30 3430 N 326.66 -1.06551 1.16123 0
M  V30 3431 C 327.607 -2.13961 0.865414 0
M  V30 3432 C 328.577 -1.65066 -0.185055 0
M  V30 3433 O 329.762 -1.90732 -0.05083 0
M  V30 3434 C 326.902 -3.43113 0.369776 0
M  V30 3435 C 326.015 -4.05756 1.48276 0
M  V30 3436 C 325.15 -5.22773 0.942414 0
M  V30 3437 C 324.189 -5.77395 2.03179 0
M  V30 3438 N 323.326 -6.85731 1.50721 0
M  V30 3439 H 328.166 -2.38605 1.78527 0
M  V30 3440 H 325.703 -1.17072 0.890646 0
M  V30 3441 H 327.661 -4.17151 0.0640643 0
M  V30 3442 H 326.291 -3.18695 -0.513143 0
M  V30 3443 H 325.343 -3.29292 1.9045 0
M  V30 3444 H 326.655 -4.42351 2.30493 0
M  V30 3445 H 325.809 -6.03827 0.589729 0
M  V30 3446 H 324.548 -4.87618 0.0895191 0
M  V30 3447 H 323.553 -4.94981 2.3932 0
M  V30 3448 H 324.778 -6.14603 2.8886 0
M  V30 3449 H 322.724 -6.52499 0.676811 0
M  V30 3450 H 322.641 -7.21254 2.26557 0
M  V30 3451 H 323.909 -7.7047 1.18303 0
M  V30 3452 N 328.138 -0.959301 -1.25041 0
M  V30 3453 C 329.068 -0.501388 -2.28053 0
M  V30 3454 C 330.049 0.454673 -1.63911 0
M  V30 3455 O 331.234 0.352618 -1.90972 0
M  V30 3456 C 328.364 0.217224 -3.4662 0
M  V30 3457 C 327.318 -0.654034 -4.22973 0
M  V30 3458 C 326.644 0.195589 -5.34342 0
M  V30 3459 C 327.944 -1.93447 -4.85155 0
M  V30 3460 H 329.638 -1.36238 -2.66608 0
M  V30 3461 H 327.184 -0.656534 -1.28163 0
M  V30 3462 H 329.137 0.548732 -4.17812 0
M  V30 3463 H 327.861 1.1125 -3.07068 0
M  V30 3464 H 326.52 -0.968693 -3.5357 0
M  V30 3465 H 326.168 1.09076 -4.91031 0
M  V30 3466 H 325.868 -0.384091 -5.86343 0
M  V30 3467 H 327.392 0.521958 -6.08365 0
M  V30 3468 H 328.806 -1.66908 -5.48466 0
M  V30 3469 H 327.203 -2.46018 -5.47353 0
M  V30 3470 H 328.273 -2.63466 -4.07079 0
M  V30 3471 N 329.616 1.39756 -0.72842 0
M  V30 3472 C 330.862 2.01425 -0.282761 0
M  V30 3473 C 331.217 1.56754 1.11561 0
M  V30 3474 O 330.51 0.783482 1.74849 0
M  V30 3475 C 330.704 3.56002 -0.315776 0
M  V30 3476 C 330.533 4.1568 -1.71582 0
M  V30 3477 C 329.303 4.48555 -2.32651 0
M  V30 3478 C 331.501 4.39667 -2.66829 0
M  V30 3479 N 329.483 4.93698 -3.64877 0
M  V30 3480 C 330.854 4.86942 -3.8378 0
M  V30 3481 C 332.909 4.21724 -2.64675 0
M  V30 3482 C 331.612 5.18158 -4.98904 0
M  V30 3483 C 333.638 4.54049 -3.78937 0
M  V30 3484 C 333 5.01525 -4.94623 0
M  V30 3485 H 329.099 0.76756 -0.149583 0
M  V30 3486 H 331.683 1.69784 -0.952976 0
M  V30 3487 H 329.854 3.87046 0.324057 0
M  V30 3488 H 331.586 4.0443 0.147808 0
M  V30 3489 H 328.341 4.36128 -1.84633 0
M  V30 3490 H 328.765 5.20635 -4.32744 0
M  V30 3491 H 333.407 3.84228 -1.76433 0
M  V30 3492 H 331.125 5.54562 -5.87781 0
M  V30 3493 H 334.711 4.41795 -3.78561 0
M  V30 3494 H 333.591 5.26065 -5.81572 0
M  V30 3495 N 331.094 0.475555 1.50254 0
M  V30 3496 C 332.342 -0.077738 2.0195 0
M  V30 3497 C 332.663 -1.39813 1.35931 0
M  V30 3498 O 331.933 -1.89249 0.506123 0
M  V30 3499 H 330.513 -0.031719 0.746326 0
M  V30 3500 H 333.175 0.626995 1.84539 0
M  V30 3501 H 332.271 -0.225995 3.11281 0
M  V30 3502 N 332.573 -1.56217 0.208337 0
M  V30 3503 C 333.822 -1.97124 -0.427204 0
M  V30 3504 C 334.135 -1.09859 -1.61835 0
M  V30 3505 O 335.341 -1.40606 -2.32255 0
M  V30 3506 C 333.797 -3.50633 -0.811442 0
M  V30 3507 C 333.405 -4.46582 0.35615 0
M  V30 3508 C 335.149 -4.00282 -1.41332 0
M  V30 3509 C 333.056 -5.91379 -0.0497852 0
M  V30 3510 H 331.986 -0.736086 -0.163381 0
M  V30 3511 H 334.637 -1.8099 0.302456 0
M  V30 3512 H 333.019 -3.62319 -1.59815 0
M  V30 3513 H 334.193 -4.46636 1.1337 0
M  V30 3514 H 332.508 -4.07202 0.870396 0
M  V30 3515 H 335.105 -5.0595 -1.72972 0
M  V30 3516 H 335.448 -3.45359 -2.32449 0
M  V30 3517 H 335.981 -3.91764 -0.690323 0
M  V30 3518 H 332.72 -6.50255 0.827529 0
M  V30 3519 H 332.24 -5.94549 -0.791926 0
M  V30 3520 H 333.919 -6.45209 -0.481042 0
M  V30 3521 N 334.051 0.0651679 -1.57465 0
M  V30 3522 C 335.328 0.79644 -1.78651 0
M  V30 3523 C 335.708 1.95454 -0.797566 0
M  V30 3524 O 335.056 2.27882 0.167946 0
M  V30 3525 C 335.266 1.26322 -3.25337 0
M  V30 3526 C 336.614 1.6939 -3.89348 0
M  V30 3527 O 337.638 1.35872 -3.29268 0
M  V30 3528 O 336.497 2.31471 -4.95059 0
M  V30 3529 H 333.591 0.382157 -0.733407 0
M  V30 3530 H 336.137 0.0447311 -1.69641 0
M  V30 3531 H 334.909 0.434859 -3.88876 0
M  V30 3532 H 334.532 2.07604 -3.39096 0
M  V30 3533 N 335.529 1.53961 0.336706 0
M  V30 3534 C 336.945 1.44378 0.680241 0
M  V30 3535 C 337.145 0.606034 1.9217 0
M  V30 3536 O 336.201 0.099688 2.52303 0
M  V30 3537 C 337.514 2.87945 0.8665 0
M  V30 3538 C 339.062 2.97763 0.964682 0
M  V30 3539 C 339.537 4.42453 1.18321 0
M  V30 3540 N 341.028 4.46008 1.25025 0
M  V30 3541 C 341.763 5.55102 1.43697 0
M  V30 3542 N 341.259 6.7419 1.59498 0
M  V30 3543 N 343.052 5.42727 1.463 0
M  V30 3544 H 335.203 2.06918 -0.479455 0
M  V30 3545 H 337.466 0.935634 -0.152619 0
M  V30 3546 H 337.172 3.51691 0.0256937 0
M  V30 3547 H 337.046 3.33293 1.76623 0
M  V30 3548 H 339.433 2.34153 1.796 0
M  V30 3549 H 339.514 2.55766 0.041708 0
M  V30 3550 H 339.158 5.06645 0.356788 0
M  V30 3551 H 339.088 4.82048 2.11985 0
M  V30 3552 H 341.579 3.60196 1.14312 0
M  V30 3553 H 341.892 7.53095 1.734 0
M  V30 3554 H 340.237 6.77123 1.56621 0
M  V30 3555 H 343.428 4.48647 1.33543 0
M  V30 3556 H 343.601 6.27806 1.6051 0
M  V30 3557 N 337.007 -0.598083 1.45811 0
M  V30 3558 C 338.284 -1.35777 1.40797 0
M  V30 3559 C 338.664 -2.10935 0.083462 0
M  V30 3560 O 338.012 -2.08505 -0.934763 0
M  V30 3561 C 338.222 -2.29666 2.62783 0
M  V30 3562 C 339.57 -2.91977 3.08277 0
M  V30 3563 O 340.594 -2.39984 2.63223 0
M  V30 3564 O 339.453 -3.86376 3.86491 0
M  V30 3565 H 336.547 -0.609291 0.55919 0
M  V30 3566 H 339.093 -0.620379 1.57954 0
M  V30 3567 H 337.865 -1.73454 3.50756 0
M  V30 3568 H 337.488 -3.1077 2.48008 0
M  V30 3569 N 338.485 -1.33259 -0.841409 0
M  V30 3570 C 339.71 -1.2775 -1.63385 0
M  V30 3571 C 340.135 0.149188 -1.87507 0
M  V30 3572 O 339.493 1.10498 -1.43736 0
M  V30 3573 C 339.541 -2.05571 -2.96265 0
M  V30 3574 O 338.645 -1.41257 -3.87453 0
M  V30 3575 H 337.986 -0.439627 -0.497618 0
M  V30 3576 H 340.516 -1.75782 -1.04699 0
M  V30 3577 H 340.526 -2.16241 -3.45982 0
M  V30 3578 H 339.201 -3.09309 -2.7803 0
M  V30 3579 H 337.778 -1.39217 -3.45938 0
M  V30 3580 N 339.963 1.05934 -1.16686 0
M  V30 3581 C 341.193 1.82226 -0.973515 0
M  V30 3582 C 341.601 1.8297 0.481532 0
M  V30 3583 O 340.944 1.25009 1.34604 0
M  V30 3584 C 341.006 3.29897 -1.42858 0
M  V30 3585 C 340.67 3.52849 -2.90425 0
M  V30 3586 C 341.667 3.45595 -3.88407 0
M  V30 3587 C 339.352 3.80053 -3.28428 0
M  V30 3588 C 341.346 3.65217 -5.22394 0
M  V30 3589 C 339.033 3.99325 -4.62583 0
M  V30 3590 C 340.031 3.91905 -5.59374 0
M  V30 3591 O 339.719 4.10647 -6.91104 0
M  V30 3592 H 339.451 0.581314 -0.345036 0
M  V30 3593 H 342.005 1.3453 -1.55212 0
M  V30 3594 H 340.235 3.78472 -0.793477 0
M  V30 3595 H 341.924 3.87692 -1.20207 0
M  V30 3596 H 342.69 3.24564 -3.60393 0
M  V30 3597 H 338.569 3.84936 -2.53664 0
M  V30 3598 H 342.113 3.59341 -5.9793 0
M  V30 3599 H 338.01 4.19846 -4.90306 0
M  V30 3600 H 338.778 4.27915 -6.97733 0
M  V30 3601 N 341.441 0.965919 1.2453 0
M  V30 3602 C 342.857 0.67216 1.44756 0
M  V30 3603 C 343.057 -0.766609 1.86347 0
M  V30 3604 O 342.113 -1.5407 2.00047 0
M  V30 3605 C 343.426 1.65473 2.51076 0
M  V30 3606 C 344.974 1.66716 2.64905 0
M  V30 3607 C 345.449 2.63766 3.74421 0
M  V30 3608 N 346.94 2.62198 3.81846 0
M  V30 3609 C 347.675 3.33966 4.66106 0
M  V30 3610 N 347.171 4.15245 5.54566 0
M  V30 3611 N 348.964 3.22799 4.60171 0
M  V30 3612 H 341.115 1.89553 0.958293 0
M  V30 3613 H 343.378 0.815979 0.482579 0
M  V30 3614 H 343.084 2.68296 2.27399 0
M  V30 3615 H 342.958 1.4261 3.49202 0
M  V30 3616 H 345.345 0.646057 2.87941 0
M  V30 3617 H 345.426 1.93642 1.67142 0
M  V30 3618 H 345.07 3.6601 3.52135 0
M  V30 3619 H 345 2.34121 4.71694 0
M  V30 3620 H 347.491 2.032 3.18619 0
M  V30 3621 H 347.804 4.66898 6.15814 0
M  V30 3622 H 346.149 4.1934 5.54237 0
M  V30 3623 H 349.34 2.58764 3.90075 0
M  V30 3624 H 349.513 3.78994 5.25612 0
M  V30 3625 N 342.919 -1.39368 0.735821 0
M  V30 3626 C 344.335 -1.54204 0.411492 0
M  V30 3627 C 344.535 -1.70268 -1.07755 0
M  V30 3628 O 343.591 -1.70364 -1.86366 0
M  V30 3629 C 344.904 -2.75925 1.19523 0
M  V30 3630 C 346.452 -2.89761 1.18354 0
M  V30 3631 C 346.927 -4.14421 1.94986 0
M  V30 3632 N 348.418 -4.21462 1.92156 0
M  V30 3633 C 349.153 -5.16871 2.48258 0
M  V30 3634 N 348.649 -6.18063 3.13001 0
M  V30 3635 N 350.442 -5.09093 2.38287 0
M  V30 3636 H 342.593 -1.27189 1.70108 0
M  V30 3637 H 344.856 -0.616517 0.720147 0
M  V30 3638 H 344.562 -2.70401 2.24892 0
M  V30 3639 H 344.436 -3.68614 0.800222 0
M  V30 3640 H 346.823 -2.94777 0.137975 0
M  V30 3641 H 346.904 -1.98133 1.61793 0
M  V30 3642 H 346.548 -4.10166 2.99543 0
M  V30 3643 H 346.478 -5.05095 1.48953 0
M  V30 3644 H 348.969 -3.48979 1.44991 0
M  V30 3645 H 349.282 -6.87326 3.53275 0
M  V30 3646 H 347.627 -6.18448 3.17091 0
M  V30 3647 H 350.818 -4.28973 1.8735 0
M  V30 3648 H 350.991 -5.83272 2.82308 0
M  V30 3649 N 344.397 -0.483516 -1.5 0
M  V30 3650 C 345.646 0.0689102 -2.01582 0
M  V30 3651 C 345.959 1.39655 -1.36952 0
M  V30 3652 O 347.165 2.03465 -1.79762 0
M  V30 3653 C 345.621 0.173302 -3.59483 0
M  V30 3654 C 345.229 -1.14665 -4.33077 0
M  V30 3655 C 346.973 0.677024 -4.19066 0
M  V30 3656 C 344.88 -1.00537 -5.82792 0
M  V30 3657 H 343.81 0.0295277 -0.753422 0
M  V30 3658 H 346.461 -0.620295 -1.72698 0
M  V30 3659 H 344.843 0.926569 -3.85007 0
M  V30 3660 H 346.017 -1.91184 -4.19268 0
M  V30 3661 H 344.332 -1.58244 -3.85159 0
M  V30 3662 H 346.929 0.799952 -5.28682 0
M  V30 3663 H 347.272 1.67151 -3.81269 0
M  V30 3664 H 347.805 -0.0192083 -3.97795 0
M  V30 3665 H 344.544 -1.9736 -6.25083 0
M  V30 3666 H 344.064 -0.280776 -5.99142 0
M  V30 3667 H 345.743 -0.677 -6.43448 0
M  V30 3668 N 345.875 1.56104 -0.216619 0
M  V30 3669 C 346.805 2.23063 0.690296 0
M  V30 3670 C 347.786 1.20072 1.20485 0
M  V30 3671 O 348.971 1.48643 1.24976 0
M  V30 3672 C 346.101 2.90672 1.90072 0
M  V30 3673 C 345.055 4.00092 1.5202 0
M  V30 3674 C 344.381 4.54972 2.80899 0
M  V30 3675 C 345.681 5.17398 0.71391 0
M  V30 3676 H 347.375 2.99109 0.132038 0
M  V30 3677 H 344.921 1.43866 0.0620664 0
M  V30 3678 H 346.874 3.36204 2.54057 0
M  V30 3679 H 345.598 2.12066 2.48386 0
M  V30 3680 H 344.257 3.55283 0.903839 0
M  V30 3681 H 343.905 3.73102 3.37348 0
M  V30 3682 H 343.605 5.28817 2.56176 0
M  V30 3683 H 345.129 5.0322 3.45836 0
M  V30 3684 H 346.543 5.59342 1.25735 0
M  V30 3685 H 344.94 5.97444 0.563951 0
M  V30 3686 H 346.01 4.84088 -0.280527 0
M  V30 3687 N 347.353 -0.0568162 1.57498 0
M  V30 3688 C 348.286 -1.09817 2.00039 0
M  V30 3689 C 349.264 -1.3674 0.879819 0
M  V30 3690 O 350.448 -1.49863 1.14338 0
M  V30 3691 C 347.575 -2.43924 2.34986 0
M  V30 3692 C 346.621 -2.33039 3.57204 0
M  V30 3693 S 347.454 -1.7102 5.07457 0
M  V30 3694 C 348.61 -3.06674 5.45621 0
M  V30 3695 H 348.843 -0.735701 2.88053 0
M  V30 3696 H 346.376 -0.265871 1.52094 0
M  V30 3697 H 348.334 -3.2106 2.55795 0
M  V30 3698 H 346.995 -2.77327 1.47474 0
M  V30 3699 H 346.188 -3.31973 3.79223 0
M  V30 3700 H 345.79 -1.64043 3.36104 0
M  V30 3701 H 348.082 -4.03 5.44608 0
M  V30 3702 H 349.025 -2.8942 6.46252 0
M  V30 3703 H 349.433 -3.07969 4.73091 0
M  V30 3704 N 348.832 -1.54138 -0.328536 0
M  V30 3705 C 350.08 -1.71765 -1.06496 0
M  V30 3706 C 350.401 -0.49149 -1.88704 0
M  V30 3707 O 349.671 0.494539 -1.89555 0
M  V30 3708 H 348.251 -0.633295 -0.396164 0
M  V30 3709 H 350.913 -1.91429 -0.366176 0
M  V30 3710 H 350.009 -2.5951 -1.73381 0
M  V30 3711 N 350.31 0.590341 -1.46126 0
M  V30 3712 C 351.535 1.37991 -1.54833 0
M  V30 3713 C 351.96 1.87163 -0.187506 0
M  V30 3714 O 351.318 1.61133 0.831008 0
M  V30 3715 C 351.366 2.54867 -2.55098 0
M  V30 3716 O 350.47 3.56061 -2.08073 0
M  V30 3717 H 349.811 0.411265 -0.521303 0
M  V30 3718 H 352.341 0.716819 -1.91632 0
M  V30 3719 H 352.351 3.01886 -2.74461 0
M  V30 3720 H 351.026 2.18429 -3.53923 0
M  V30 3721 H 349.603 3.15574 -1.98664 0
M  V30 3722 N 351.788 1.33704 0.83433 0
M  V30 3723 C 353.016 1.28467 1.62185 0
M  V30 3724 C 353.431 -0.143526 1.88254 0
M  V30 3725 O 352.788 -1.08709 1.4659 0
M  V30 3726 C 352.839 2.06174 2.96942 0
M  V30 3727 O 352.56 3.43422 2.72016 0
M  V30 3728 C 354.061 2.08201 3.91366 0
M  V30 3729 H 351.281 0.4424 0.504503 0
M  V30 3730 H 353.825 1.76145 1.03891 0
M  V30 3731 H 351.98 1.62167 3.51825 0
M  V30 3732 H 352.394 3.83453 3.57861 0
M  V30 3733 H 353.868 2.67017 4.83121 0
M  V30 3734 H 354.345 1.07343 4.2588 0
M  V30 3735 H 354.951 2.52246 3.42421 0
M  V30 3736 N 353.266 -1.05314 1.17247 0
M  V30 3737 C 354.196 -2.1498 0.911362 0
M  V30 3738 C 355.177 -1.69471 -0.146169 0
M  V30 3739 O 356.362 -1.942 0.003812 0
M  V30 3740 C 353.492 -3.4472 0.422528 0
M  V30 3741 C 352.446 -4.03789 1.4191 0
M  V30 3742 C 351.772 -5.28858 0.788274 0
M  V30 3743 C 353.072 -4.41418 2.7919 0
M  V30 3744 H 354.766 -2.3708 1.82848 0
M  V30 3745 H 352.312 -1.13938 0.880569 0
M  V30 3746 H 354.265 -4.20787 0.227289 0
M  V30 3747 H 352.989 -3.22269 -0.530123 0
M  V30 3748 H 351.648 -3.2979 1.60106 0
M  V30 3749 H 351.296 -5.02709 -0.171173 0
M  V30 3750 H 350.996 -5.69338 1.45353 0
M  V30 3751 H 352.52 -6.07612 0.603282 0
M  V30 3752 H 353.934 -5.08524 2.64719 0
M  V30 3753 H 352.331 -4.92913 3.42282 0
M  V30 3754 H 353.401 -3.51819 3.33693 0
M  V30 3755 N 354.744 -0.972509 -1.24016 0
M  V30 3756 C 356.16 -0.679827 -1.44397 0
M  V30 3757 C 356.36 0.756716 -1.86751 0
M  V30 3758 O 355.416 1.53007 -2.00861 0
M  V30 3759 C 356.729 -1.66803 -2.50195 0
M  V30 3760 C 358.277 -1.68119 -2.64017 0
M  V30 3761 C 358.752 -2.65748 -3.73017 0
M  V30 3762 N 360.243 -2.64219 -3.8045 0
M  V30 3763 C 360.978 -3.36433 -4.64328 0
M  V30 3764 N 360.474 -4.1818 -5.52356 0
M  V30 3765 N 362.267 -3.25235 -4.58453 0
M  V30 3766 H 354.418 -1.90059 -0.948228 0
M  V30 3767 H 356.681 -0.818527 -0.478245 0
M  V30 3768 H 356.387 -2.69498 -2.25973 0
M  V30 3769 H 356.261 -1.4446 -3.48441 0
M  V30 3770 H 358.648 -0.661319 -2.87594 0
M  V30 3771 H 358.729 -1.94525 -1.66113 0
M  V30 3772 H 358.373 -3.67872 -3.50189 0
M  V30 3773 H 358.303 -2.36619 -4.70446 0
M  V30 3774 H 360.794 -2.04887 -3.17537 0
M  V30 3775 H 361.107 -4.70157 -6.13329 0
M  V30 3776 H 359.452 -4.22273 -5.52006 0
M  V30 3777 H 362.643 -2.60829 -3.88698 0
M  V30 3778 H 362.816 -3.81776 -5.23594 0
M  V30 3779 N 356.222 1.38976 -0.743202 0
M  V30 3780 C 357.169 2.30544 -0.10861 0
M  V30 3781 C 358.139 1.49642 0.720869 0
M  V30 3782 O 359.324 1.78304 0.679142 0
M  V30 3783 C 356.464 3.36018 0.786496 0
M  V30 3784 C 355.577 4.31963 -0.0564849 0
M  V30 3785 C 354.712 5.24506 0.840657 0
M  V30 3786 C 353.751 6.121 -0.00658363 0
M  V30 3787 N 352.888 6.96973 0.846943 0
M  V30 3788 H 357.728 2.8424 -0.895088 0
M  V30 3789 H 355.265 1.3995 -0.453048 0
M  V30 3790 H 357.223 3.95768 1.31999 0
M  V30 3791 H 355.853 2.83758 1.53887 0
M  V30 3792 H 354.905 3.73763 -0.707492 0
M  V30 3793 H 356.217 4.93703 -0.711229 0
M  V30 3794 H 355.371 5.89322 1.4417 0
M  V30 3795 H 354.11 4.63107 1.52916 0
M  V30 3796 H 353.115 5.46289 -0.620366 0
M  V30 3797 H 354.34 6.75565 -0.691992 0
M  V30 3798 H 352.286 6.38133 1.52059 0
M  V30 3799 H 352.203 7.5559 0.248864 0
M  V30 3800 H 353.471 7.6621 1.43328 0
M  V30 3801 N 357.7 0.491464 1.49741 0
M  V30 3802 C 359.116 0.146835 1.58923 0
M  V30 3803 C 359.316 -1.34804 1.49767 0
M  V30 3804 O 358.372 -2.12317 1.36667 0
M  V30 3805 C 359.685 0.715157 2.92072 0
M  V30 3806 C 361.233 0.680407 3.05515 0
M  V30 3807 C 361.708 1.22663 4.41269 0
M  V30 3808 N 363.199 1.18691 4.47735 0
M  V30 3809 C 363.934 1.57984 5.51207 0
M  V30 3810 N 363.43 2.04824 6.6183 0
M  V30 3811 N 365.223 1.49459 5.41866 0
M  V30 3812 H 357.374 1.46347 1.53936 0
M  V30 3813 H 359.637 0.606453 0.728642 0
M  V30 3814 H 359.343 1.76317 3.04311 0
M  V30 3815 H 359.217 0.17018 3.76816 0
M  V30 3816 H 361.604 -0.358743 2.92911 0
M  V30 3817 H 361.685 1.26242 2.22478 0
M  V30 3818 H 361.329 2.26451 4.54623 0
M  V30 3819 H 361.259 0.620637 5.2293 0
M  V30 3820 H 363.75 0.843605 3.68364 0
M  V30 3821 H 364.063 2.32901 7.3687 0
M  V30 3822 H 362.408 2.08791 6.62896 0
M  V30 3823 H 365.599 1.12692 4.54333 0
M  V30 3824 H 365.772 1.80406 6.22381 0
M  V30 3825 N 359.178 -1.55987 0.224894 0
M  V30 3826 C 360.125 -2.20436 -0.68385 0
M  V30 3827 C 361.095 -1.16102 -1.18783 0
M  V30 3828 O 362.28 -1.4447 -1.24632 0
M  V30 3829 C 359.42 -2.89076 -1.88491 0
M  V30 3830 C 358.533 -4.08012 -1.41951 0
M  V30 3831 C 357.668 -4.64426 -2.5784 0
M  V30 3832 C 356.707 -5.75656 -2.08053 0
M  V30 3833 N 355.844 -6.26347 -3.17227 0
M  V30 3834 H 360.684 -2.97727 -0.12754 0
M  V30 3835 H 358.221 -1.47011 -0.0511978 0
M  V30 3836 H 360.179 -3.27059 -2.59014 0
M  V30 3837 H 358.809 -2.14298 -2.41405 0
M  V30 3838 H 357.861 -3.75492 -0.609095 0
M  V30 3839 H 359.173 -4.88375 -1.01447 0
M  V30 3840 H 358.327 -5.04869 -3.3644 0
M  V30 3841 H 357.066 -3.83233 -3.01635 0
M  V30 3842 H 356.071 -5.34712 -1.27916 0
M  V30 3843 H 357.296 -6.58686 -1.65255 0
M  V30 3844 H 355.242 -5.48067 -3.60497 0
M  V30 3845 H 355.159 -7.01843 -2.80986 0
M  V30 3846 H 356.427 -6.71447 -3.95953 0
M  V30 3847 N 360.656 0.0484629 -1.57525 0
M  V30 3848 C 361.589 1.08755 -2.00618 0
M  V30 3849 C 362.567 1.36272 -0.887058 0
M  V30 3850 O 363.751 1.49255 -1.15131 0
M  V30 3851 C 360.878 2.42675 -2.36277 0
M  V30 3852 C 359.924 2.31142 -3.58435 0
M  V30 3853 S 360.757 1.68326 -5.08357 0
M  V30 3854 C 361.913 3.03776 -5.47239 0
M  V30 3855 H 362.146 0.720415 -2.88439 0
M  V30 3856 H 359.679 0.257801 -1.52233 0
M  V30 3857 H 361.637 3.19699 -2.57494 0
M  V30 3858 H 360.298 2.76541 -1.48942 0
M  V30 3859 H 359.491 3.29957 -3.80978 0
M  V30 3860 H 359.093 1.62258 -3.36969 0
M  V30 3861 H 361.385 4.00106 -5.46737 0
M  V30 3862 H 362.328 2.85988 -6.47778 0
M  V30 3863 H 362.736 3.05456 -4.74718 0
M  V30 3864 N 362.134 1.5431 0.320358 0
M  V30 3865 C 363.364 1.7638 1.07582 0
M  V30 3866 C 363.772 0.513944 1.82086 0
M  V30 3867 O 363.115 -0.525123 1.76035 0
M  V30 3868 C 363.177 2.9055 2.1171 0
M  V30 3869 C 362.841 4.2934 1.56575 0
M  V30 3870 C 363.838 5.10077 1.00586 0
M  V30 3871 C 361.523 4.75893 1.60722 0
M  V30 3872 C 363.517 6.35477 0.494756 0
M  V30 3873 C 361.204 6.0126 1.09224 0
M  V30 3874 C 362.202 6.80886 0.53696 0
M  V30 3875 O 361.89 8.03894 0.0297371 0
M  V30 3876 H 361.622 0.592369 0.325692 0
M  V30 3877 H 364.176 2.02019 0.37116 0
M  V30 3878 H 362.406 2.60489 2.85801 0
M  V30 3879 H 364.095 3.00373 2.73003 0
M  V30 3880 H 364.861 4.75265 0.966869 0
M  V30 3881 H 360.74 4.13957 2.02882 0
M  V30 3882 H 364.284 6.97574 0.0606842 0
M  V30 3883 H 360.181 6.35562 1.12831 0
M  V30 3884 H 360.949 8.18372 0.14486 0
M  V30 3885 N 363.613 -0.582584 1.46437 0
M  V30 3886 C 364.523 -1.71949 1.59595 0
M  V30 3887 C 365.539 -1.67264 0.479443 0
M  V30 3888 O 366.715 -1.87171 0.743579 0
M  V30 3889 C 363.78 -3.08452 1.58298 0
M  V30 3890 C 362.841 -3.244 2.81182 0
M  V30 3891 C 362.074 -4.54391 2.79937 0
M  V30 3892 O 362.297 -5.38287 1.8869 0
M  V30 3893 O 361.231 -4.73588 3.71481 0
M  V30 3894 H 365.057 -1.63795 2.55744 0
M  V30 3895 H 362.642 -0.749643 1.29231 0
M  V30 3896 H 364.524 -3.89732 1.60271 0
M  V30 3897 H 363.199 -3.17043 0.653094 0
M  V30 3898 H 362.106 -2.42613 2.84763 0
M  V30 3899 H 363.439 -3.20699 3.7338 0
M  V30 3900 N 365.091 -1.34144 -0.827227 0
M  V30 3901 C 366.001 -1.27428 -1.96975 0
M  V30 3902 C 367.017 -0.182728 -1.73038 0
M  V30 3903 O 368.193 -0.408426 -1.97215 0
M  V30 3904 C 365.258 -1.02526 -3.31194 0
M  V30 3905 C 364.319 -2.20796 -3.68168 0
M  V30 3906 C 363.552 -1.97073 -4.95982 0
M  V30 3907 O 363.775 -0.926822 -5.6282 0
M  V30 3908 O 362.709 -2.83912 -5.30733 0
M  V30 3909 H 366.535 -2.23537 -2.05584 0
M  V30 3910 H 364.12 -1.14307 -0.961989 0
M  V30 3911 H 366.002 -0.904026 -4.11589 0
M  V30 3912 H 364.677 -0.0945389 -3.23562 0
M  V30 3913 H 363.584 -2.38477 -2.88235 0
M  V30 3914 H 364.917 -3.12243 -3.8048 0
M  V30 3915 N 366.569 1.04691 -1.17803 0
M  V30 3916 C 367.816 1.77782 -0.969532 0
M  V30 3917 C 368.144 1.87926 0.501401 0
M  V30 3918 O 367.399 1.37918 1.38842 0
M  V30 3919 C 367.698 3.21467 -1.56186 0
M  V30 3920 C 367.364 3.3137 -3.05786 0
M  V30 3921 C 366.026 3.3378 -3.46619 0
M  V30 3922 C 368.378 3.31976 -4.01797 0
M  V30 3923 C 365.706 3.34431 -4.82051 0
M  V30 3924 C 368.058 3.34167 -5.37136 0
M  V30 3925 C 366.722 3.34866 -5.77426 0
M  V30 3926 H 365.992 0.650549 -0.354777 0
M  V30 3927 H 368.639 1.23006 -1.46772 0
M  V30 3928 H 366.944 3.79203 -0.985515 0
M  V30 3929 H 368.641 3.76652 -1.37602 0
M  V30 3930 H 365.231 3.3021 -2.73238 0
M  V30 3931 H 369.415 3.29311 -3.71306 0
M  V30 3932 H 364.671 3.33285 -5.12573 0
M  V30 3933 H 368.845 3.33585 -6.11305 0
M  V30 3934 H 366.472 3.35124 -6.82346 0
M  V30 3935 N 368.047 0.979072 1.23499 0
M  V30 3936 C 368.977 0.537606 2.27227 0
M  V30 3937 C 369.958 -0.428539 1.64613 0
M  V30 3938 O 371.143 -0.322191 1.91509 0
M  V30 3939 C 368.273 -0.162052 3.46922 0
M  V30 3940 C 367.227 0.721242 4.21879 0
M  V30 3941 C 366.553 -0.110555 5.34586 0
M  V30 3942 C 367.853 2.01141 4.82016 0
M  V30 3943 H 369.547 1.40462 2.64406 0
M  V30 3944 H 367.093 0.67684 1.27102 0
M  V30 3945 H 369.046 -0.482192 4.18632 0
M  V30 3946 H 367.77 -1.06351 3.08799 0
M  V30 3947 H 366.429 1.02482 3.51984 0
M  V30 3948 H 366.077 -1.0125 4.92704 0
M  V30 3949 H 365.777 0.477325 5.85658 0
M  V30 3950 H 367.301 -0.425107 6.09118 0
M  V30 3951 H 368.715 1.75612 5.45741 0
M  V30 3952 H 367.112 2.54695 5.43369 0
M  V30 3953 H 368.182 2.69909 4.02836 0
M  V30 3954 N 369.525 -1.3858 0.750561 0
M  V30 3955 C 370.75 -2.04997 0.314812 0
M  V30 3956 C 371.175 -1.56235 -1.04749 0
M  V30 3957 O 370.533 -0.712981 -1.66692 0
M  V30 3958 C 370.581 -3.58961 0.343415 0
M  V30 3959 O 369.685 -4.07025 -0.663628 0
M  V30 3960 H 369.026 -0.649081 0.139962 0
M  V30 3961 H 371.556 -1.77313 1.02084 0
M  V30 3962 H 371.566 -4.07542 0.193233 0
M  V30 3963 H 370.241 -3.93811 1.33738 0
M  V30 3964 H 368.818 -3.6982 -0.478307 0
M  V30 3965 N 371.003 -0.499398 -1.49478 0
M  V30 3966 C 371.95 0.279881 -2.29097 0
M  V30 3967 C 372.92 0.961805 -1.3542 0
M  V30 3968 O 374.105 0.968777 -1.64376 0
M  V30 3969 C 371.245 1.33932 -3.18051 0
M  V30 3970 C 370.358 0.669333 -4.26783 0
M  V30 3971 C 369.493 1.70907 -5.02955 0
M  V30 3972 C 368.532 1.02087 -6.03527 0
M  V30 3973 N 367.669 2.00474 -6.7287 0
M  V30 3974 H 372.509 -0.405317 -2.95231 0
M  V30 3975 H 370.046 -0.211726 -1.45568 0
M  V30 3976 H 372.004 1.96553 -3.67998 0
M  V30 3977 H 370.634 1.9933 -2.53904 0
M  V30 3978 H 369.686 -0.0701234 -3.80335 0
M  V30 3979 H 370.998 0.127503 -4.98637 0
M  V30 3980 H 370.152 2.41037 -5.56764 0
M  V30 3981 H 368.891 2.28476 -4.30871 0
M  V30 3982 H 367.896 0.305338 -5.48951 0
M  V30 3983 H 369.121 0.451708 -6.77596 0
M  V30 3984 H 367.067 2.57007 -6.03559 0
M  V30 3985 H 366.984 1.51353 -7.40694 0
M  V30 3986 H 368.252 2.69897 -7.31284 0
M  V30 3987 N 372.481 1.55866 -0.233164 0
M  V30 3988 C 373.727 1.98897 0.395959 0
M  V30 3989 C 374.06 1.12091 1.58585 0
M  V30 3990 O 373.335 0.181182 1.93654 0
M  V30 3991 C 373.618 3.50658 0.819224 0
M  V30 3992 C 373.471 4.48233 -0.375109 0
M  V30 3993 C 374.79 4.07135 1.67121 0
M  V30 3994 H 371.909 0.723102 0.142451 0
M  V30 3995 H 374.551 1.87082 -0.331725 0
M  V30 3996 H 372.701 3.60857 1.43925 0
M  V30 3997 H 374.373 4.50031 -1.01341 0
M  V30 3998 H 372.616 4.21624 -1.02058 0
M  V30 3999 H 373.287 5.51988 -0.0358328 0
M  V30 4000 H 375.763 3.99952 1.14795 0
M  V30 4001 H 374.639 5.13615 1.93625 0
M  V30 4002 H 374.9 3.54736 2.63846 0
M  V30 4003 N 373.959 -0.0401083 1.57549 0
M  V30 4004 C 375.184 -0.748931 1.93406 0
M  V30 4005 C 375.609 -1.68686 0.832274 0
M  V30 4006 O 374.967 -1.80047 -0.212818 0
M  V30 4007 C 375.015 -1.4916 3.28304 0
M  V30 4008 O 374.119 -2.6042 3.19774 0
M  V30 4009 H 373.46 -0.202212 0.63246 0
M  V30 4010 H 375.99 0.00112086 2.046 0
M  V30 4011 H 376 -1.86395 3.62934 0
M  V30 4012 H 374.675 -0.80364 4.08062 0
M  V30 4013 H 373.252 -2.25808 2.96758 0
M  V30 4014 N 375.437 -1.54477 -0.31217 0
M  V30 4015 C 376.686 -1.72438 -1.04633 0
M  V30 4016 C 376.999 -0.511163 -1.88803 0
M  V30 4017 O 378.205 -0.572341 -2.65399 0
M  V30 4018 C 376.661 -3.05043 -1.9099 0
M  V30 4019 C 376.269 -4.33806 -1.11877 0
M  V30 4020 C 378.013 -3.32364 -2.64073 0
M  V30 4021 C 375.92 -5.57467 -1.97445 0
M  V30 4022 H 374.85 -0.642647 -0.394361 0
M  V30 4023 H 377.501 -1.80966 -0.303929 0
M  V30 4024 H 375.883 -2.90451 -2.69173 0
M  V30 4025 H 377.057 -4.59199 -0.383843 0
M  V30 4026 H 375.372 -4.13336 -0.504252 0
M  V30 4027 H 377.969 -4.21951 -3.28423 0
M  V30 4028 H 378.312 -2.50745 -3.32314 0
M  V30 4029 H 378.845 -3.47875 -1.92944 0
M  V30 4030 H 375.584 -6.41722 -1.33692 0
M  V30 4031 H 375.104 -5.36277 -2.6864 0
M  V30 4032 H 376.783 -5.94303 -2.5576 0
M  V30 4033 N 376.915 0.57481 -1.46744 0
M  V30 4034 C 377.845 1.69337 -1.60771 0
M  V30 4035 C 378.826 1.63825 -0.457736 0
M  V30 4036 O 380.011 1.8172 -0.684947 0
M  V30 4037 C 377.141 3.0798 -1.60517 0
M  V30 4038 C 376.095 3.28327 -2.74564 0
M  V30 4039 C 375.421 4.67578 -2.59373 0
M  V30 4040 C 376.721 3.15398 -4.16319 0
M  V30 4041 H 378.415 1.57853 -2.54407 0
M  V30 4042 H 375.961 0.75799 -1.22436 0
M  V30 4043 H 377.914 3.86061 -1.68923 0
M  V30 4044 H 376.638 3.20381 -0.634305 0
M  V30 4045 H 375.297 2.52649 -2.65639 0
M  V30 4046 H 374.945 4.76755 -1.60353 0
M  V30 4047 H 374.645 4.82144 -3.35873 0
M  V30 4048 H 376.169 5.47817 -2.69682 0
M  V30 4049 H 377.583 3.83315 -4.26313 0
M  V30 4050 H 375.98 3.41482 -4.93468 0
M  V30 4051 H 377.05 2.12372 -4.3592 0
M  V30 4052 N 378.394 1.34581 0.820102 0
M  V30 4053 C 379.304 1.28471 1.96297 0
M  V30 4054 C 380.32 0.191902 1.72939 0
M  V30 4055 O 381.496 0.418879 1.96996 0
M  V30 4056 C 378.561 1.04281 3.30645 0
M  V30 4057 C 377.622 2.22745 3.66992 0
M  V30 4058 C 376.855 1.997 4.9493 0
M  V30 4059 O 377.078 0.956656 5.6232 0
M  V30 4060 O 376.012 2.86723 5.2922 0
M  V30 4061 H 379.838 2.24624 2.04396 0
M  V30 4062 H 377.423 1.14816 0.955913 0
M  V30 4063 H 379.305 0.925841 4.11104 0
M  V30 4064 H 377.98 0.111697 3.23507 0
M  V30 4065 H 376.887 2.40003 2.86966 0
M  V30 4066 H 378.22 3.14257 3.78819 0
M  V30 4067 N 379.872 -1.04064 1.18357 0
M  V30 4068 C 381.097 -1.81454 1.00445 0
M  V30 4069 C 381.522 -1.82823 -0.442423 0
M  V30 4070 O 380.88 -1.24555 -1.31741 0
M  V30 4071 C 380.928 -3.24925 1.56384 0
M  V30 4072 O 380.032 -4.04856 0.785209 0
M  V30 4073 H 379.373 -0.560604 0.355835 0
M  V30 4074 H 381.903 -1.31059 1.57114 0
M  V30 4075 H 381.913 -3.75702 1.59097 0
M  V30 4076 H 380.588 -3.23244 2.61699 0
M  V30 4077 H 379.165 -3.63537 0.830399 0
M  V30 4078 N 381.35 -0.985608 -1.22978 0
M  V30 4079 C 382.28 -0.549649 -2.26939 0
M  V30 4080 C 383.261 0.419803 -1.64838 0
M  V30 4081 O 384.446 0.31203 -1.91677 0
M  V30 4082 C 381.576 0.143652 -3.47003 0
M  V30 4083 C 380.53 -0.743606 -4.21491 0
M  V30 4084 C 379.856 0.0822027 -5.34637 0
M  V30 4085 C 381.156 -2.03694 -4.80943 0
M  V30 4086 H 382.85 -1.41862 -2.63658 0
M  V30 4087 H 380.396 -0.683571 -1.26741 0
M  V30 4088 H 382.349 0.459985 -4.18882 0
M  V30 4089 H 381.073 1.04711 -3.09359 0
M  V30 4090 H 379.732 -1.04347 -3.51436 0
M  V30 4091 H 379.38 0.986359 -4.93234 0
M  V30 4092 H 379.08 -0.508377 -5.85397 0
M  V30 4093 H 380.604 0.392797 -6.09335 0
M  V30 4094 H 382.018 -1.78504 -5.44802 0
M  V30 4095 H 380.415 -2.57573 -5.42011 0
M  V30 4096 H 381.485 -2.72042 -4.01399 0
M  V30 4097 N 382.828 1.3818 -0.7579 0
M  V30 4098 C 384.105 1.94106 -0.241306 0
M  V30 4099 C 384.485 1.69282 1.26122 0
M  V30 4100 O 383.833 1.03378 2.03777 0
M  V30 4101 C 384.043 3.43809 -0.59967 0
M  V30 4102 C 385.391 4.20868 -0.561717 0
M  V30 4103 O 386.415 3.5211 -0.538222 0
M  V30 4104 O 385.274 5.43451 -0.576478 0
M  V30 4105 H 382.368 0.825376 -0.0518042 0
M  V30 4106 H 384.914 1.47548 -0.838315 0
M  V30 4107 H 383.686 3.55403 -1.6372 0
M  V30 4108 H 383.309 3.97592 0.0251197 0
M  V30 4109 N 384.306 0.507319 1.49211 0
M  V30 4110 C 385.253 -0.267728 2.29242 0
M  V30 4111 C 386.223 -0.954609 1.35928 0
M  V30 4112 O 387.408 -0.960046 1.64887 0
M  V30 4113 C 384.548 -1.32243 3.18756 0
M  V30 4114 C 383.661 -0.64669 4.27132 0
M  V30 4115 C 382.796 -1.68238 5.03855 0
M  V30 4116 C 381.835 -0.98885 6.0406 0
M  V30 4117 N 380.972 -1.96903 6.73924 0
M  V30 4118 H 385.812 0.420968 2.95012 0
M  V30 4119 H 383.349 0.219443 1.45454 0
M  V30 4120 H 385.307 -1.94599 3.69036 0
M  V30 4121 H 383.937 -1.97981 2.54958 0
M  V30 4122 H 382.989 0.0902926 3.80293 0
M  V30 4123 H 384.301 -0.101058 4.98698 0
M  V30 4124 H 383.455 -2.38081 5.58034 0
M  V30 4125 H 382.194 -2.26187 4.32077 0
M  V30 4126 H 381.199 -0.276222 5.49106 0
M  V30 4127 H 382.424 -0.415767 6.77826 0
M  V30 4128 H 380.37 -2.53803 6.04913 0
M  V30 4129 H 380.287 -1.47423 7.41487 0
M  V30 4130 H 381.555 -2.66015 7.32705 0
M  V30 4131 N 385.784 -1.5574 0.241426 0
M  V30 4132 C 387.03 -1.99846 -0.378555 0
M  V30 4133 C 387.385 -1.12665 -1.55963 0
M  V30 4134 O 386.678 -0.180966 -1.90743 0
M  V30 4135 C 386.872 -3.47308 -0.843317 0
M  V30 4136 C 386.701 -4.48756 0.291178 0
M  V30 4137 C 385.471 -4.9949 0.764077 0
M  V30 4138 C 387.669 -5.02039 1.11631 0
M  V30 4139 N 385.651 -5.84676 1.87156 0
M  V30 4140 C 387.022 -5.84343 2.07226 0
M  V30 4141 C 389.077 -4.84354 1.15349 0
M  V30 4142 C 387.78 -6.50851 3.06245 0
M  V30 4143 C 389.806 -5.51636 2.13195 0
M  V30 4144 C 389.168 -6.33724 3.07528 0
M  V30 4145 H 385.267 -0.774968 -0.104634 0
M  V30 4146 H 387.851 -1.91385 0.357751 0
M  V30 4147 H 386.022 -3.56178 -1.54893 0
M  V30 4148 H 387.754 -3.78299 -1.43779 0
M  V30 4149 H 384.509 -4.72311 0.349175 0
M  V30 4150 H 384.933 -6.31967 2.42789 0
M  V30 4151 H 389.575 -4.20525 0.438057 0
M  V30 4152 H 387.293 -7.1385 3.78739 0
M  V30 4153 H 390.879 -5.39909 2.16771 0
M  V30 4154 H 389.759 -6.84867 3.82003 0
M  V30 4155 N 387.262 0.0317525 -1.57568 0
M  V30 4156 C 388.172 1.05021 -2.0978 0
M  V30 4157 C 389.188 1.39809 -1.03583 0
M  V30 4158 O 390.364 1.49182 -1.35302 0
M  V30 4159 C 387.429 2.33301 -2.56459 0
M  V30 4160 C 386.49 2.0512 -3.77127 0
M  V30 4161 C 385.723 3.27283 -4.2157 0
M  V30 4162 O 385.946 4.37861 -3.65559 0
M  V30 4163 O 384.88 3.13141 -5.14029 0
M  V30 4164 H 388.706 0.636505 -2.96955 0
M  V30 4165 H 386.291 0.248559 -1.47318 0
M  V30 4166 H 388.173 3.08722 -2.86825 0
M  V30 4167 H 386.848 2.73973 -1.72397 0
M  V30 4168 H 385.755 1.27276 -3.51784 0
M  V30 4169 H 387.088 1.69305 -4.62165 0
M  V30 4170 N 388.74 1.54641 0.303973 0
M  V30 4171 C 390.156 1.45788 0.649463 0
M  V30 4172 C 390.356 0.64666 1.90842 0
M  V30 4173 O 389.412 0.153183 2.52035 0
M  V30 4174 C 390.725 2.89718 0.805227 0
M  V30 4175 C 392.273 2.99742 0.901305 0
M  V30 4176 C 392.748 4.44863 1.08909 0
M  V30 4177 N 394.239 4.48559 1.15536 0
M  V30 4178 C 394.974 5.58026 1.3189 0
M  V30 4179 N 394.47 6.77422 1.45161 0
M  V30 4180 N 396.263 5.45708 1.34755 0
M  V30 4181 H 388.414 2.05854 -0.523237 0
M  V30 4182 H 390.677 0.932186 -0.172431 0
M  V30 4183 H 390.383 3.51666 -0.0489108 0
M  V30 4184 H 390.257 3.36964 1.69513 0
M  V30 4185 H 392.644 2.3791 1.74593 0
M  V30 4186 H 392.725 2.55797 -0.0125531 0
M  V30 4187 H 392.369 5.07288 0.249241 0
M  V30 4188 H 392.299 4.86436 2.01713 0
M  V30 4189 H 394.79 3.6254 1.06646 0
M  V30 4190 H 395.103 7.56604 1.57387 0
M  V30 4191 H 393.448 6.80292 1.42223 0
M  V30 4192 H 396.639 4.51378 1.23996 0
M  V30 4193 H 396.812 6.3107 1.47157 0
M  V30 4194 N 390.218 -0.567019 1.47046 0
M  V30 4195 C 391.148 -1.68482 1.61667 0
M  V30 4196 C 392.129 -1.6358 0.466418 0
M  V30 4197 O 393.314 -1.81354 0.694574 0
M  V30 4198 C 390.444 -3.07124 1.62148 0
M  V30 4199 C 389.398 -3.26867 2.76301 0
M  V30 4200 C 388.724 -4.66196 2.61849 0
M  V30 4201 C 390.024 -3.13186 4.17986 0
M  V30 4202 H 391.718 -1.56502 2.5524 0
M  V30 4203 H 389.264 -0.751486 1.22836 0
M  V30 4204 H 391.217 -3.8516 1.70968 0
M  V30 4205 H 389.941 -3.2004 0.651287 0
M  V30 4206 H 388.6 -2.51237 2.66975 0
M  V30 4207 H 388.248 -4.75898 1.62879 0
M  V30 4208 H 387.948 -4.80356 3.38425 0
M  V30 4209 H 389.472 -5.46379 2.72584 0
M  V30 4210 H 390.886 -3.81049 4.2834 0
M  V30 4211 H 389.283 -3.3886 4.95272 0
M  V30 4212 H 390.353 -2.10057 4.3704 0
M  V30 4213 N 391.696 -1.35014 -0.812953 0
M  V30 4214 C 392.924 -1.31031 -1.6012 0
M  V30 4215 C 393.339 0.113558 -1.88458 0
M  V30 4216 O 392.696 1.06363 -1.48301 0
M  V30 4217 C 392.747 -2.10872 -2.93624 0
M  V30 4218 O 392.468 -3.47706 -2.66518 0
M  V30 4219 C 393.969 -2.14401 -3.88004 0
M  V30 4220 H 391.189 -0.45037 -0.497401 0
M  V30 4221 H 393.733 -1.77775 -1.01076 0
M  V30 4222 H 391.888 -1.67744 -3.492 0
M  V30 4223 H 392.302 -3.89097 -3.51715 0
M  V30 4224 H 393.776 -2.74669 -4.78812 0
M  V30 4225 H 394.253 -1.14105 -4.24119 0
M  V30 4226 H 394.859 -2.57662 -3.38364 0
M  V30 4227 N 393.175 1.03435 -1.18907 0
M  V30 4228 C 394.421 1.77005 -0.989798 0
M  V30 4229 C 394.754 1.88205 0.478816 0
M  V30 4230 O 394.029 1.39481 1.35556 0
M  V30 4231 C 394.312 3.19925 -1.65287 0
M  V30 4232 C 394.165 3.1663 -3.19477 0
M  V30 4233 C 395.484 4.18189 -1.37134 0
M  V30 4234 H 392.603 0.642538 -0.360991 0
M  V30 4235 H 395.245 1.20784 -1.46667 0
M  V30 4236 H 393.395 3.67929 -1.24741 0
M  V30 4237 H 395.067 2.76567 -3.692 0
M  V30 4238 H 393.31 2.54491 -3.51307 0
M  V30 4239 H 393.981 4.1758 -3.61013 0
M  V30 4240 H 396.457 3.78761 -1.72276 0
M  V30 4241 H 395.333 5.16394 -1.86087 0
M  V30 4242 H 395.594 4.41112 -0.295424 0
M  V30 4243 N 394.653 0.992116 1.22453 0
M  V30 4244 C 395.616 0.546883 2.2258 0
M  V30 4245 C 396.616 -0.369829 1.56489 0
M  V30 4246 O 397.806 -0.161896 1.73446 0
M  V30 4247 C 394.938 -0.204659 3.40285 0
M  V30 4248 H 396.131 1.43234 2.63484 0
M  V30 4249 H 393.684 0.779239 1.3549 0
M  V30 4250 H 394.419 -1.10614 3.04853 0
M  V30 4251 H 394.204 0.45354 3.89468 0
M  V30 4252 H 395.694 -0.504358 4.14543 0
M  V30 4253 N 396.131 -1.37776 0.765217 0
M  V30 4254 C 397.408 -1.93975 0.251596 0
M  V30 4255 C 397.788 -1.69949 -1.25222 0
M  V30 4256 O 397.136 -1.04457 -2.03226 0
M  V30 4257 C 397.346 -3.43487 0.617895 0
M  V30 4258 C 398.694 -4.20564 0.584029 0
M  V30 4259 O 399.718 -3.5182 0.556888 0
M  V30 4260 O 398.577 -5.43138 0.605291 0
M  V30 4261 H 395.671 -0.82509 0.0561806 0
M  V30 4262 H 398.217 -1.47101 0.846128 0
M  V30 4263 H 396.989 -3.5453 1.65602 0
M  V30 4264 H 396.612 -3.976 -0.00403411 0
M  V30 4265 N 397.609 -0.515225 -1.4894 0
M  V30 4266 C 398.572 0.244681 -2.2789 0
M  V30 4267 C 399.572 0.881166 -1.34507 0
M  V30 4268 O 400.762 0.743497 -1.57537 0
M  V30 4269 C 397.894 1.35247 -3.12923 0
M  V30 4270 H 399.087 -0.448289 -2.96531 0
M  V30 4271 H 396.64 -0.270656 -1.53939 0
M  V30 4272 H 397.375 2.07916 -2.48881 0
M  V30 4273 H 397.16 0.901374 -3.81599 0
M  V30 4274 H 398.65 1.88737 -3.72516 0
M  V30 4275 N 399.087 1.5561 -0.249682 0
M  V30 4276 C 400.017 2.24477 0.642826 0
M  V30 4277 C 400.998 1.22601 1.17911 0
M  V30 4278 O 402.183 1.5126 1.21795 0
M  V30 4279 C 399.313 2.94638 1.83863 0
M  V30 4280 C 398.267 4.03227 1.435 0
M  V30 4281 C 397.593 4.60828 2.71186 0
M  V30 4282 C 398.893 5.18796 0.604002 0
M  V30 4283 H 400.587 2.99321 0.0685625 0
M  V30 4284 H 398.133 1.43965 0.0315363 0
M  V30 4285 H 400.086 3.41517 2.46868 0
M  V30 4286 H 398.81 2.17287 2.43832 0
M  V30 4287 H 397.469 3.57121 0.828275 0
M  V30 4288 H 397.117 3.80174 3.29358 0
M  V30 4289 H 396.817 5.34132 2.44901 0
M  V30 4290 H 398.341 5.10442 3.35084 0
M  V30 4291 H 399.755 5.61883 1.13842 0
M  V30 4292 H 398.152 5.98506 0.437097 0
M  V30 4293 H 399.222 4.83384 -0.383147 0
M  V30 4294 N 400.565 -0.0233959 1.57583 0
M  V30 4295 C 401.475 -1.03907 2.10334 0
M  V30 4296 C 402.491 -1.39257 1.04323 0
M  V30 4297 O 403.667 -1.48462 1.36091 0
M  V30 4298 C 400.732 -2.31938 2.57693 0
M  V30 4299 C 399.793 -2.03117 3.78209 0
M  V30 4300 C 399.026 -3.25043 4.233 0
M  V30 4301 O 399.249 -4.35916 3.67876 0
M  V30 4302 O 398.183 -3.10411 5.15683 0
M  V30 4303 H 402.009 -0.620748 2.97288 0
M  V30 4304 H 399.594 -0.240743 1.47448 0
M  V30 4305 H 401.476 -3.07196 2.88458 0
M  V30 4306 H 400.151 -2.73055 1.73847 0
M  V30 4307 H 399.058 -1.25408 3.52454 0
M  V30 4308 H 400.391 -1.66852 4.63056 0
M  V30 4309 N 402.043 -1.548 -0.295768 0
M  V30 4310 C 403.454 -1.65274 -0.868411 0
M  V30 4311 C 403.805 -0.56481 -1.87894 0
M  V30 4312 O 402.93 0.29767 -2.14343 0
M  V30 4313 C 403.525 -2.99603 -1.58188 0
M  V30 4314 C 402.084 -3.12181 -2.10286 0
M  V30 4315 C 401.231 -2.6098 -0.93727 0
M  V30 4316 H 404.182 -1.58534 -0.0726422 0
M  V30 4317 H 404.203 -2.91319 -2.44772 0
M  V30 4318 H 403.715 -3.78764 -0.846151 0
M  V30 4319 H 401.816 -2.3775 -2.8689 0
M  V30 4320 H 401.929 -4.18415 -2.33379 0
M  V30 4321 H 400.293 -2.17564 -1.32431 0
M  V30 4322 H 401.076 -3.42623 -0.215414 0
M  V30 4323 N 403.521 0.559213 -1.47345 0
M  V30 4324 C 404.767 1.31843 -1.54095 0
M  V30 4325 C 405.1 1.93149 -0.201726 0
M  V30 4326 O 404.375 1.77759 0.789428 0
M  V30 4327 C 404.658 2.43006 -2.65744 0
M  V30 4328 C 404.511 1.86581 -4.09277 0
M  V30 4329 C 405.83 3.44943 -2.73318 0
M  V30 4330 H 402.949 0.478012 -0.560957 0
M  V30 4331 H 405.591 0.625977 -1.79392 0
M  V30 4332 H 403.741 3.02072 -2.44305 0
M  V30 4333 H 405.413 1.31792 -4.42073 0
M  V30 4334 H 403.656 1.17268 -4.17649 0
M  V30 4335 H 404.327 2.66933 -4.83168 0
M  V30 4336 H 406.803 2.95793 -2.92653 0
M  V30 4337 H 405.679 4.20153 -3.53218 0
M  V30 4338 H 405.94 4.03665 -1.80296 0
M  V30 4339 N 404.999 1.35443 0.805782 0
M  V30 4340 C 405.931 1.24285 1.92577 0
M  V30 4341 C 406.944 0.165962 1.61952 0
M  V30 4342 O 408.133 0.419303 1.73505 0
M  V30 4343 C 405.233 0.891272 3.2697 0
M  V30 4344 C 404.406 2.06669 3.85495 0
M  V30 4345 C 403.465 1.69077 4.98297 0
M  V30 4346 O 402.491 2.4096 5.15681 0
M  V30 4347 N 403.693 0.614869 5.77234 0
M  V30 4348 H 406.458 2.20777 2.02676 0
M  V30 4349 H 404.019 1.28623 0.983243 0
M  V30 4350 H 406.011 0.621256 3.99903 0
M  V30 4351 H 404.581 0.016004 3.12596 0
M  V30 4352 H 403.801 2.50046 3.04747 0
M  V30 4353 H 405.089 2.85237 4.21328 0
M  V30 4354 H 404.487 0.017648 5.65697 0
M  V30 4355 H 403.044 0.404636 6.50543 0
M  V30 4356 N 406.477 -1.02803 1.19454 0
M  V30 4357 C 407.724 -1.76217 0.997693 0
M  V30 4358 C 408.052 -1.887 -0.47144 0
M  V30 4359 O 407.307 -1.4011 -1.3663 0
M  V30 4360 C 407.606 -3.18941 1.6128 0
M  V30 4361 C 407.272 -3.26463 3.11019 0
M  V30 4362 C 405.934 -3.28223 3.51885 0
M  V30 4363 C 408.286 -3.25542 4.07028 0
M  V30 4364 C 405.614 -3.26719 4.8731 0
M  V30 4365 C 407.966 -3.25579 5.42385 0
M  V30 4366 C 406.63 -3.25637 5.82681 0
M  V30 4367 H 405.9 -0.644823 0.365082 0
M  V30 4368 H 408.547 -1.20655 1.4871 0
M  V30 4369 H 406.852 -3.77587 1.04572 0
M  V30 4370 H 408.549 -3.74415 1.43577 0
M  V30 4371 H 405.139 -3.25822 2.78457 0
M  V30 4372 H 409.323 -3.23362 3.76498 0
M  V30 4373 H 404.579 -3.25089 5.1781 0
M  V30 4374 H 408.753 -3.23817 6.16535 0
M  V30 4375 H 406.38 -3.24226 6.87591 0
M  V30 4376 N 407.956 -0.998596 -1.21925 0
M  V30 4377 C 408.866 -0.562736 -2.27751 0
M  V30 4378 C 409.882 0.391203 -1.69545 0
M  V30 4379 O 411.058 0.256625 -1.99758 0
M  V30 4380 C 408.123 0.11012 -3.46525 0
M  V30 4381 C 407.184 -0.887495 -4.20026 0
M  V30 4382 C 406.417 -0.246654 -5.3313 0
M  V30 4383 O 406.64 0.958088 -5.62296 0
M  V30 4384 O 405.574 -0.954374 -5.94286 0
M  V30 4385 H 409.4 -1.44329 -2.67213 0
M  V30 4386 H 406.985 -0.767135 -1.28201 0
M  V30 4387 H 408.867 0.486756 -4.18579 0
M  V30 4388 H 407.542 0.965154 -3.08976 0
M  V30 4389 H 406.449 -1.31517 -3.5022 0
M  V30 4390 H 407.782 -1.71191 -4.6147 0
M  V30 4391 N 409.434 1.37368 -0.772513 0
M  V30 4392 C 410.711 1.93839 -0.26188 0
M  V30 4393 C 411.091 1.7061 1.24319 0
M  V30 4394 O 410.439 1.05534 2.02669 0
M  V30 4395 C 410.649 3.43154 -0.636102 0
M  V30 4396 C 411.997 4.20249 -0.606324 0
M  V30 4397 O 413.021 3.5152 -0.575538 0
M  V30 4398 O 411.88 5.42809 -0.634086 0
M  V30 4399 H 408.974 0.82478 -0.0605555 0
M  V30 4400 H 411.52 1.4665 -0.853917 0
M  V30 4401 H 410.292 3.53647 -1.6748 0
M  V30 4402 H 409.915 3.97596 -0.0170516 0
M  V30 4403 N 410.912 0.523116 1.48665 0
M  V30 4404 C 412.16 -0.0134497 2.02096 0
M  V30 4405 C 412.481 -1.35418 1.40311 0
M  V30 4406 O 411.751 -1.87543 0.566074 0
M  V30 4407 H 410.331 -0.00795915 0.746958 0
M  V30 4408 H 412.993 0.685388 1.82451 0
M  V30 4409 H 412.089 -0.126849 3.11842 0
M  V30 4410 N 412.39 -1.55475 0.257931 0
M  V30 4411 C 413.322 -2.19192 -0.669881 0
M  V30 4412 C 414.335 -1.17148 -1.1305 0
M  V30 4413 O 415.524 -1.43959 -1.05537 0
M  V30 4414 C 412.624 -2.79016 -1.92363 0
M  V30 4415 C 411.797 -4.06586 -1.61265 0
M  V30 4416 C 410.856 -4.50622 -2.7171 0
M  V30 4417 O 409.882 -5.16765 -2.38627 0
M  V30 4418 N 411.084 -4.19325 -4.01431 0
M  V30 4419 H 413.849 -2.99441 -0.124635 0
M  V30 4420 H 411.41 -1.6171 0.0783311 0
M  V30 4421 H 413.402 -3.05427 -2.65511 0
M  V30 4422 H 411.972 -2.0286 -2.37837 0
M  V30 4423 H 411.192 -3.87646 -0.715811 0
M  V30 4424 H 412.48 -4.89737 -1.37967 0
M  V30 4425 H 411.878 -3.66247 -4.31138 0
M  V30 4426 H 410.435 -4.50547 -4.7101 0
M  V30 4427 N 413.868 0.0150385 -1.57593 0
M  V30 4428 C 414.815 1.01126 -2.07466 0
M  V30 4429 C 415.785 1.35064 -0.966794 0
M  V30 4430 O 416.97 1.4516 -1.23827 0
M  V30 4431 C 414.11 2.30276 -2.57035 0
M  V30 4432 C 413.223 2.02373 -3.81666 0
M  V30 4433 C 412.358 3.25496 -4.19793 0
M  V30 4434 C 411.397 2.93211 -5.37303 0
M  V30 4435 N 410.534 4.08826 -5.70794 0
M  V30 4436 H 415.374 0.57901 -2.92321 0
M  V30 4437 H 412.911 0.27426 -1.44521 0
M  V30 4438 H 414.869 3.05757 -2.83846 0
M  V30 4439 H 413.499 2.71197 -1.75077 0
M  V30 4440 H 412.551 1.17327 -3.61854 0
M  V30 4441 H 413.863 1.74567 -4.67256 0
M  V30 4442 H 413.017 4.09333 -4.47807 0
M  V30 4443 H 411.756 3.56428 -3.32882 0
M  V30 4444 H 410.761 2.07777 -5.09027 0
M  V30 4445 H 411.986 2.63542 -6.25877 0
M  V30 4446 H 409.932 4.39682 -4.86842 0
M  V30 4447 H 409.849 3.84491 -6.50924 0
M  V30 4448 H 411.117 4.93496 -6.03392 0
M  V30 4449 N 415.346 1.54954 0.287554 0
M  V30 4450 C 416.595 1.74081 1.01877 0
M  V30 4451 C 416.908 0.541135 1.87966 0
M  V30 4452 O 418.114 0.614491 2.64455 0
M  V30 4453 C 416.57 3.08042 1.86113 0
M  V30 4454 C 416.178 4.35531 1.04961 0
M  V30 4455 C 417.922 3.36523 2.58752 0
M  V30 4456 C 415.829 5.60538 1.88551 0
M  V30 4457 H 414.759 0.64884 0.384087 0
M  V30 4458 H 417.41 1.81426 0.275101 0
M  V30 4459 H 415.792 2.94696 2.64519 0
M  V30 4460 H 416.966 4.59751 0.31074 0
M  V30 4461 H 415.281 4.14085 0.43843 0
M  V30 4462 H 417.878 4.27122 3.21668 0
M  V30 4463 H 418.221 2.56 3.28283 0
M  V30 4464 H 418.754 3.50901 1.87386 0
M  V30 4465 H 415.493 6.43767 1.23466 0
M  V30 4466 H 415.013 5.40483 2.60074 0
M  V30 4467 H 416.692 5.98297 2.46273 0
M  V30 4468 N 416.824 -0.551391 1.4764 0
M  V30 4469 C 418.07 -1.31024 1.54792 0
M  V30 4470 C 418.403 -1.9304 0.211967 0
M  V30 4471 O 417.678 -1.78175 -0.77999 0
M  V30 4472 C 417.961 -2.41593 2.67029 0
M  V30 4473 C 417.814 -1.84408 4.10261 0
M  V30 4474 C 419.133 -3.43488 2.75143 0
M  V30 4475 H 416.252 -0.475031 0.563485 0
M  V30 4476 H 418.894 -0.616454 1.79722 0
M  V30 4477 H 417.044 -3.00772 2.45904 0
M  V30 4478 H 418.716 -1.29445 4.42766 0
M  V30 4479 H 416.959 -1.15051 4.18265 0
M  V30 4480 H 417.63 -2.64367 4.84576 0
M  V30 4481 H 420.106 -2.94236 2.94218 0
M  V30 4482 H 418.982 -4.18274 3.55441 0
M  V30 4483 H 419.243 -4.02703 1.82435 0
M  V30 4484 N 418.302 -1.35869 -0.798587 0
M  V30 4485 C 419.548 -1.2978 -1.55836 0
M  V30 4486 C 419.881 0.125322 -1.93795 0
M  V30 4487 O 419.156 1.07658 -1.61987 0
M  V30 4488 C 419.439 -2.21188 -2.84162 0
M  V30 4489 C 419.292 -3.72155 -2.52628 0
M  V30 4490 C 420.611 -2.11545 -3.85923 0
M  V30 4491 H 417.73 -0.472769 -0.565383 0
M  V30 4492 H 420.372 -1.66341 -0.918192 0
M  V30 4493 H 418.522 -1.90139 -3.38791 0
M  V30 4494 H 420.194 -4.13682 -2.04121 0
M  V30 4495 H 418.437 -3.92042 -1.85704 0
M  V30 4496 H 419.108 -4.31511 -3.44242 0
M  V30 4497 H 421.584 -2.38855 -3.40716 0
M  V30 4498 H 420.46 -2.77688 -4.73477 0
M  V30 4499 H 420.721 -1.09987 -4.282 0
M  V30 4500 N 419.78 1.02168 -1.19998 0
M  V30 4501 C 420.712 2.10705 -0.901994 0
M  V30 4502 C 421.725 1.6244 0.108216 0
M  V30 4503 O 422.914 1.78082 -0.12214 0
M  V30 4504 C 420.014 3.37291 -0.329834 0
M  V30 4505 C 419.187 4.14714 -1.39035 0
M  V30 4506 C 418.246 5.19606 -0.830432 0
M  V30 4507 O 417.272 5.48809 -1.50989 0
M  V30 4508 N 418.474 5.79366 0.362696 0
M  V30 4509 H 421.239 2.36856 -1.83628 0
M  V30 4510 H 418.8 1.18518 -1.10296 0
M  V30 4511 H 420.792 4.04657 0.0587633 0
M  V30 4512 H 419.362 3.0843 0.508891 0
M  V30 4513 H 418.582 3.42392 -1.9535 0
M  V30 4514 H 419.87 4.63226 -2.10474 0
M  V30 4515 H 419.268 5.57968 0.932081 0
M  V30 4516 H 417.825 6.48106 0.69299 0
M  V30 4517 N 421.258 1.00505 1.21394 0
M  V30 4518 C 422.506 0.686415 1.90086 0
M  V30 4519 C 422.827 -0.785264 1.7849 0
M  V30 4520 O 422.097 -1.56387 1.17983 0
M  V30 4521 H 420.677 0.2509 0.703604 0
M  V30 4522 H 423.339 1.27417 1.47482 0
M  V30 4523 H 422.435 0.959621 2.96981 0
M  V30 4524 N 422.737 -1.36956 0.779787 0
M  V30 4525 C 423.647 -2.33965 0.172491 0
M  V30 4526 C 424.663 -1.60574 -0.670222 0
M  V30 4527 O 425.839 -1.92617 -0.588263 0
M  V30 4528 C 422.904 -3.39761 -0.690173 0
M  V30 4529 C 421.965 -4.28964 0.169924 0
M  V30 4530 C 421.198 -5.29707 -0.651662 0
M  V30 4531 O 421.421 -5.38238 -1.88827 0
M  V30 4532 O 420.355 -6.01873 -0.0566264 0
M  V30 4533 H 424.181 -2.87647 0.974321 0
M  V30 4534 H 421.766 -1.39258 0.541078 0
M  V30 4535 H 423.648 -4.04471 -1.1824 0
M  V30 4536 H 422.323 -2.88394 -1.47006 0
M  V30 4537 H 421.23 -3.67326 0.708696 0
M  V30 4538 H 422.563 -4.83656 0.913085 0
M  V30 4539 N 424.215 -0.530993 -1.48385 0
M  V30 4540 C 425.626 -0.0907905 -1.86479 0
M  V30 4541 C 425.977 1.33213 -1.44044 0
M  V30 4542 O 425.102 1.99783 -0.831615 0
M  V30 4543 C 425.697 -0.157987 -3.38431 0
M  V30 4544 C 424.256 0.227026 -3.75715 0
M  V30 4545 C 423.403 -0.5173 -2.72432 0
M  V30 4546 H 426.354 -0.742186 -1.40276 0
M  V30 4547 H 426.375 0.630053 -3.75247 0
M  V30 4548 H 425.887 -1.19372 -3.69286 0
M  V30 4549 H 423.988 1.26486 -3.50474 0
M  V30 4550 H 424.101 -0.113288 -4.78966 0
M  V30 4551 H 422.465 0.0365527 -2.54674 0
M  V30 4552 H 423.248 -1.55368 -3.0613 0
M  V30 4553 N 425.693 1.55336 -0.266172 0
M  V30 4554 C 426.941 1.99003 0.35246 0
M  V30 4555 C 427.262 1.15591 1.57047 0
M  V30 4556 O 426.532 0.243268 1.94384 0
M  V30 4557 H 425.112 0.735025 0.133217 0
M  V30 4558 H 427.774 1.91367 -0.369434 0
M  V30 4559 H 426.87 3.05289 0.648453 0
M  V30 4560 N 427.171 -0.0066808 1.57599 0
M  V30 4561 C 428.448 -0.729586 1.81484 0
M  V30 4562 C 428.828 -1.92359 0.869558 0
M  V30 4563 O 428.176 -2.28348 -0.0832533 0
M  V30 4564 C 428.386 -1.1416 3.29801 0
M  V30 4565 C 429.734 -1.54823 3.95367 0
M  V30 4566 O 430.758 -1.23558 3.34084 0
M  V30 4567 O 429.617 -2.12937 5.03309 0
M  V30 4568 H 426.711 -0.354674 0.747085 0
M  V30 4569 H 429.257 0.0182609 1.6969 0
M  V30 4570 H 428.029 -0.290231 3.90222 0
M  V30 4571 H 427.652 -1.94876 3.46568 0
M  V30 4572 N 428.649 -1.55105 -0.279332 0
M  V30 4573 C 429.559 -1.90638 -1.36727 0
M  V30 4574 C 430.575 -0.802899 -1.54368 0
M  V30 4575 O 431.751 -1.10138 -1.68616 0
M  V30 4576 C 428.816 -2.16547 -2.70755 0
M  V30 4577 C 427.877 -3.40146 -2.61915 0
M  V30 4578 C 427.11 -3.6481 -3.8955 0
M  V30 4579 O 427.333 -2.92095 -4.89935 0
M  V30 4580 O 426.267 -4.58343 -3.90135 0
M  V30 4581 H 430.093 -2.83237 -1.09591 0
M  V30 4582 H 427.678 -1.4157 -0.477306 0
M  V30 4583 H 429.56 -2.34665 -3.50014 0
M  V30 4584 H 428.235 -1.27131 -2.9769 0
M  V30 4585 H 427.142 -3.2737 -1.81052 0
M  V30 4586 H 428.475 -4.29761 -2.3993 0
M  V30 4587 N 430.127 0.543554 -1.4793 0
M  V30 4588 C 431.374 1.30008 -1.55255 0
M  V30 4589 C 431.702 1.93245 -0.220612 0
M  V30 4590 O 430.957 1.79141 0.787843 0
M  V30 4591 C 431.256 2.42078 -2.62932 0
M  V30 4592 C 430.922 1.96583 -4.0579 0
M  V30 4593 C 429.584 1.83893 -4.44676 0
M  V30 4594 C 431.936 1.62034 -4.95373 0
M  V30 4595 C 429.264 1.34969 -5.70964 0
M  V30 4596 C 431.616 1.14577 -6.22137 0
M  V30 4597 C 430.28 1.00493 -6.59892 0
M  V30 4598 H 429.55 0.475735 -0.568117 0
M  V30 4599 H 432.197 0.608075 -1.81589 0
M  V30 4600 H 430.502 3.16892 -2.30406 0
M  V30 4601 H 432.199 3.00236 -2.65818 0
M  V30 4602 H 428.789 2.07407 -3.75074 0
M  V30 4603 H 432.973 1.70705 -4.66019 0
M  V30 4604 H 428.229 1.2274 -5.98953 0
M  V30 4605 H 432.403 0.869109 -6.90955 0
M  V30 4606 H 430.03 0.623624 -7.57638 0
M  V30 4607 N 431.605 1.3629 0.791371 0
M  V30 4608 C 432.852 1.30412 1.54916 0
M  V30 4609 C 433.18 -0.117162 1.94147 0
M  V30 4610 O 432.435 -1.08599 1.62803 0
M  V30 4611 C 432.734 2.17068 2.8393 0
M  V30 4612 C 432.4 3.65645 2.63846 0
M  V30 4613 C 431.062 4.0614 2.58077 0
M  V30 4614 C 433.414 4.59855 2.45322 0
M  V30 4615 C 430.742 5.3899 2.31748 0
M  V30 4616 C 433.094 5.9292 2.2052 0
M  V30 4617 C 431.758 6.32542 2.13183 0
M  V30 4618 H 431.028 0.47721 0.566879 0
M  V30 4619 H 433.675 1.68325 0.913172 0
M  V30 4620 H 431.98 1.72085 3.51986 0
M  V30 4621 H 433.677 2.09846 3.4171 0
M  V30 4622 H 430.267 3.33518 2.69191 0
M  V30 4623 H 434.451 4.29443 2.48782 0
M  V30 4624 H 429.707 5.68672 2.24548 0
M  V30 4625 H 433.881 6.65487 2.05182 0
M  V30 4626 H 431.508 7.35412 1.92544 0
M  V30 4627 N 433.083 -1.0153 1.20538 0
M  V30 4628 C 434.332 -1.74558 1.01057 0
M  V30 4629 C 434.645 -1.90168 -0.457756 0
M  V30 4630 O 435.851 -2.60301 -0.771722 0
M  V30 4631 C 434.307 -3.13963 1.75941 0
M  V30 4632 C 433.915 -3.06361 3.26875 0
M  V30 4633 C 435.659 -3.91191 1.64832 0
M  V30 4634 C 433.566 -4.40782 3.94291 0
M  V30 4635 H 432.496 -0.654417 0.374505 0
M  V30 4636 H 435.147 -1.13521 1.44171 0
M  V30 4637 H 433.529 -3.75549 1.25614 0
M  V30 4638 H 434.703 -2.54074 3.84425 0
M  V30 4639 H 433.018 -2.42625 3.38411 0
M  V30 4640 H 435.615 -4.90644 2.12539 0
M  V30 4641 H 435.958 -4.11884 0.604745 0
M  V30 4642 H 436.491 -3.36236 2.12579 0
M  V30 4643 H 433.23 -4.25292 4.98805 0
M  V30 4644 H 432.75 -4.9307 3.41529 0
M  V30 4645 H 434.429 -5.09621 3.98617 0
M  V30 4646 N 434.561 -1.01147 -1.20859 0
M  V30 4647 C 435.81 -0.693214 -1.89413 0
M  V30 4648 C 436.123 0.779969 -1.79376 0
M  V30 4649 O 437.329 1.21057 -2.43017 0
M  V30 4650 C 435.785 -1.18949 -3.39675 0
M  V30 4651 C 435.393 -2.68921 -3.58309 0
M  V30 4652 C 437.137 -0.94642 -4.13815 0
M  V30 4653 C 435.044 -3.12056 -5.0237 0
M  V30 4654 H 433.974 -0.255595 -0.709357 0
M  V30 4655 H 436.625 -1.22349 -1.36759 0
M  V30 4656 H 435.007 -0.587228 -3.91622 0
M  V30 4657 H 436.181 -3.34652 -3.16772 0
M  V30 4658 H 434.496 -2.91314 -2.97532 0
M  V30 4659 H 437.093 -1.24417 -5.20023 0
M  V30 4660 H 437.436 0.117219 -4.16135 0
M  V30 4661 H 437.969 -1.5118 -3.67953 0
M  V30 4662 H 434.708 -4.17674 -5.05202 0
M  V30 4663 H 434.228 -2.51041 -5.44737 0
M  V30 4664 H 435.907 -3.04403 -5.70918 0
M  V30 4665 N 436.039 1.36541 -0.78704 0
M  V30 4666 C 436.969 2.32659 -0.197992 0
M  V30 4667 C 437.95 1.56533 0.665697 0
M  V30 4668 O 439.135 1.84698 0.60001 0
M  V30 4669 C 436.265 3.40778 0.669901 0
M  V30 4670 C 435.219 4.27897 -0.0937039 0
M  V30 4671 C 434.545 5.27163 0.894629 0
M  V30 4672 C 435.845 5.06334 -1.28154 0
M  V30 4673 H 437.539 2.82171 -1.00099 0
M  V30 4674 H 435.085 1.35665 -0.482793 0
M  V30 4675 H 437.038 4.07008 1.09191 0
M  V30 4676 H 435.762 2.89827 1.50558 0
M  V30 4677 H 434.421 3.6322 -0.49666 0
M  V30 4678 H 434.069 4.72486 1.72527 0
M  V30 4679 H 433.769 5.86317 0.388149 0
M  V30 4680 H 435.293 5.96266 1.31525 0
M  V30 4681 H 436.707 5.65617 -0.93541 0
M  V30 4682 H 435.104 5.74888 -1.72115 0
M  V30 4683 H 436.174 4.38114 -2.07807 0
M  V30 4684 N 437.518 0.538854 1.48102 0
M  V30 4685 C 438.428 -0.222648 2.33541 0
M  V30 4686 C 439.444 -0.930225 1.47047 0
M  V30 4687 O 440.62 -0.903211 1.80011 0
M  V30 4688 C 437.685 -1.25064 3.23357 0
M  V30 4689 C 436.746 -0.552469 4.2573 0
M  V30 4690 C 435.979 -1.53149 5.11254 0
M  V30 4691 O 436.202 -2.76487 4.9891 0
M  V30 4692 O 435.136 -1.06602 5.92385 0
M  V30 4693 H 438.962 0.477707 2.99919 0
M  V30 4694 H 436.547 0.299669 1.46364 0
M  V30 4695 H 438.429 -1.8445 3.78888 0
M  V30 4696 H 437.104 -1.93325 2.59629 0
M  V30 4697 H 436.011 0.082114 3.7401 0
M  V30 4698 H 437.344 0.0883526 4.92121 0
M  V30 4699 N 438.996 -1.55193 0.274407 0
M  V30 4700 C 440.244 -1.99187 -0.341902 0
M  V30 4701 C 440.565 -1.16422 -1.56431 0
M  V30 4702 O 439.835 -0.253573 -1.94252 0
M  V30 4703 H 438.415 -0.735721 -0.129317 0
M  V30 4704 H 441.077 -1.91168 0.379578 0
M  V30 4705 H 440.173 -3.05629 -0.632253 0
M  V30 4706 N 440.474 -0.00167713 -1.576 0
M  V30 4707 C 441.699 0.69739 -1.95323 0
M  V30 4708 C 442.124 1.6642 -0.876706 0
M  V30 4709 O 441.482 1.80548 0.165007 0
M  V30 4710 C 441.53 1.40403 -3.32144 0
M  V30 4711 O 440.634 2.5185 -3.26566 0
M  V30 4712 H 439.975 0.185373 -0.637599 0
M  V30 4713 H 442.505 -0.0553665 -2.04525 0
M  V30 4714 H 442.515 1.76707 -3.67748 0
M  V30 4715 H 441.19 0.695167 -4.10049 0
M  V30 4716 H 439.767 2.17861 -3.0264 0
M  V30 4717 N 441.952 1.55251 0.271103 0
M  V30 4718 C 442.915 1.87484 1.31842 0
M  V30 4719 C 443.915 0.749545 1.42262 0
M  V30 4720 O 445.105 1.01771 1.4138 0
M  V30 4721 C 442.237 2.0818 2.69951 0
M  V30 4722 H 443.43 2.81108 1.0449 0
M  V30 4723 H 440.983 1.47771 0.509258 0
M  V30 4724 H 441.718 1.16944 3.02481 0
M  V30 4725 H 441.503 2.90114 2.63774 0
M  V30 4726 H 442.993 2.34385 3.4562 0
M  V30 4727 N 443.43 -0.535701 1.48216 0
M  V30 4728 C 444.393 -1.623 1.61838 0
M  V30 4729 C 445.393 -1.53087 0.492024 0
M  V30 4730 O 446.583 -1.5686 0.757668 0
M  V30 4731 C 443.715 -3.01907 1.58319 0
M  V30 4732 H 444.908 -1.51564 2.58783 0
M  V30 4733 H 442.461 -0.757317 1.36727 0
M  V30 4734 H 443.196 -3.18155 0.628299 0
M  V30 4735 H 442.981 -3.10003 2.40085 0
M  V30 4736 H 444.471 -3.80969 1.71033 0
M  V30 4737 N 444.908 -1.36708 -0.784132 0
M  V30 4738 C 446.154 -1.31426 -1.54451 0
M  V30 4739 C 446.487 0.10476 -1.93917 0
M  V30 4740 O 445.762 1.05934 -1.6312 0
M  V30 4741 C 446.045 -2.24189 -2.818 0
M  V30 4742 C 445.898 -3.74813 -2.48667 0
M  V30 4743 C 447.217 -2.15626 -3.83658 0
M  V30 4744 H 444.336 -0.478739 -0.560337 0
M  V30 4745 H 446.978 -1.67305 -0.900498 0
M  V30 4746 H 445.128 -1.93722 -3.36755 0
M  V30 4747 H 446.8 -4.15823 -1.99722 0
M  V30 4748 H 445.043 -3.93989 -1.81535 0
M  V30 4749 H 445.714 -4.35138 -3.39646 0
M  V30 4750 H 448.19 -2.42456 -3.38163 0
M  V30 4751 H 447.066 -2.82694 -4.70506 0
M  V30 4752 H 447.327 -1.14522 -4.27009 0
M  V30 4753 N 446.386 1.0089 -1.21074 0
M  V30 4754 C 447.316 2.1145 -0.990523 0
M  V30 4755 C 448.297 1.69897 0.0831699 0
M  V30 4756 O 449.482 1.94052 -0.0758853 0
M  V30 4757 C 446.612 3.42914 -0.550177 0
M  V30 4758 C 445.566 3.98244 -1.56799 0
M  V30 4759 C 444.892 5.25568 -0.984013 0
M  V30 4760 C 446.192 4.30752 -2.95381 0
M  V30 4761 H 447.886 2.3013 -1.91521 0
M  V30 4762 H 445.432 1.10592 -0.92225 0
M  V30 4763 H 447.385 4.19653 -0.383305 0
M  V30 4764 H 446.109 3.24014 0.41015 0
M  V30 4765 H 444.768 3.23621 -1.72236 0
M  V30 4766 H 444.416 5.02998 -0.0155216 0
M  V30 4767 H 444.116 5.63551 -1.66384 0
M  V30 4768 H 445.64 6.04955 -0.828378 0
M  V30 4769 H 447.054 4.98349 -2.8341 0
M  V30 4770 H 445.451 4.79869 -3.60341 0
M  V30 4771 H 446.521 3.39192 -3.46521 0
M  V30 4772 N 447.864 1.01787 1.20321 0
M  V30 4773 C 448.796 0.547357 2.22568 0
M  V30 4774 C 449.809 -0.370922 1.58518 0
M  V30 4775 O 450.998 -0.169067 1.77698 0
M  V30 4776 C 448.098 -0.223031 3.38165 0
M  V30 4777 C 447.271 0.697472 4.31803 0
M  V30 4778 C 446.33 -0.025562 5.26194 0
M  V30 4779 O 445.356 0.597367 5.66057 0
M  V30 4780 N 446.558 -1.29999 5.65757 0
M  V30 4781 H 449.323 1.42668 2.63564 0
M  V30 4782 H 446.884 0.895552 1.34876 0
M  V30 4783 H 448.876 -0.716002 3.98316 0
M  V30 4784 H 447.446 -1.00366 2.9605 0
M  V30 4785 H 446.666 1.37073 3.69601 0
M  V30 4786 H 447.954 1.32347 4.91286 0
M  V30 4787 H 447.352 -1.827 5.35385 0
M  V30 4788 H 445.909 -1.73766 6.28211 0
M  V30 4789 N 449.342 -1.36122 0.79427 0
M  V30 4790 C 450.758 -1.5232 0.476525 0
M  V30 4791 C 450.958 -1.74685 -1.00436 0
M  V30 4792 O 450.014 -1.78115 -1.78973 0
M  V30 4793 C 451.327 -2.70607 1.31119 0
M  V30 4794 C 452.875 -2.8448 1.30537 0
M  V30 4795 C 453.35 -4.05778 2.12387 0
M  V30 4796 N 454.841 -4.12933 2.09859 0
M  V30 4797 C 455.576 -5.05876 2.69957 0
M  V30 4798 N 455.072 -6.04232 3.38934 0
M  V30 4799 N 456.865 -4.98528 2.59665 0
M  V30 4800 H 449.016 -1.1986 1.75349 0
M  V30 4801 H 451.279 -0.585418 0.745647 0
M  V30 4802 H 450.985 -2.60619 2.36158 0
M  V30 4803 H 450.859 -3.64888 0.955843 0
M  V30 4804 H 453.246 -2.93927 0.262876 0
M  V30 4805 H 453.327 -1.91093 1.70051 0
M  V30 4806 H 452.971 -3.97092 3.1667 0
M  V30 4807 H 452.901 -4.98323 1.70242 0
M  V30 4808 H 455.392 -3.42515 1.59662 0
M  V30 4809 H 455.705 -6.71724 3.82109 0
M  V30 4810 H 454.05 -6.04443 3.43036 0
M  V30 4811 H 457.241 -4.20641 2.05375 0
M  V30 4812 H 457.414 -5.70773 3.06793 0
M  V30 4813 N 450.82 -0.546701 -1.47814 0
M  V30 4814 C 452.236 -0.205717 -1.58269 0
M  V30 4815 C 452.436 1.29153 -1.54667 0
M  V30 4816 O 451.492 2.07098 -1.44453 0
M  V30 4817 C 452.805 -0.823065 -2.89216 0
M  V30 4818 C 454.353 -0.793328 -3.02779 0
M  V30 4819 C 454.828 -1.38955 -4.36412 0
M  V30 4820 N 456.319 -1.35227 -4.43021 0
M  V30 4821 C 457.054 -1.78333 -5.44963 0
M  V30 4822 N 456.55 -2.29246 -6.53772 0
M  V30 4823 N 458.343 -1.69467 -5.35945 0
M  V30 4824 H 450.494 -1.5196 -1.48398 0
M  V30 4825 H 452.757 -0.633078 -0.705632 0
M  V30 4826 H 452.463 -1.8749 -2.97558 0
M  V30 4827 H 452.337 -0.309915 -3.75925 0
M  V30 4828 H 454.724 0.249784 -2.94041 0
M  V30 4829 H 454.805 -1.34412 -2.17639 0
M  V30 4830 H 454.449 -2.43168 -4.45906 0
M  V30 4831 H 454.379 -0.814291 -5.20266 0
M  V30 4832 H 456.87 -0.979739 -3.64979 0
M  V30 4833 H 457.183 -2.60089 -7.27718 0
M  V30 4834 H 455.528 -2.3325 -6.5469 0
M  V30 4835 H 458.719 -1.29477 -4.49837 0
M  V30 4836 H 458.892 -2.03381 -6.15256 0
M  V30 4837 N 452.299 1.55045 -0.282633 0
M  V30 4838 C 453.524 2.04628 0.337977 0
M  V30 4839 C 453.949 1.15937 1.48123 0
M  V30 4840 O 453.307 0.159532 1.80597 0
M  V30 4841 C 453.355 3.51854 0.78936 0
M  V30 4842 O 452.459 3.66236 1.89592 0
M  V30 4843 H 451.8 0.660434 0.0687261 0
M  V30 4844 H 454.33 2.00261 -0.419124 0
M  V30 4845 H 454.34 3.93361 1.08311 0
M  V30 4846 H 453.015 4.15873 -0.0470419 0
M  V30 4847 H 451.592 3.36633 1.60413 0
M  V30 4848 N 453.777 0.010035 1.57597 0
M  V30 4849 C 454.687 -0.994226 2.12491 0
M  V30 4850 C 455.703 -1.37013 1.07254 0
M  V30 4851 O 456.879 -1.45542 1.3921 0
M  V30 4852 C 453.944 -2.2642 2.62555 0
M  V30 4853 C 453.005 -1.95049 3.82432 0
M  V30 4854 C 452.238 -3.15991 4.30099 0
M  V30 4855 O 452.461 -4.28015 3.7704 0
M  V30 4856 O 451.395 -2.99403 5.22151 0
M  V30 4857 H 455.221 -0.557549 2.98538 0
M  V30 4858 H 452.806 -0.209413 1.47925 0
M  V30 4859 H 454.688 -3.01009 2.9491 0
M  V30 4860 H 453.363 -2.69306 1.796 0
M  V30 4861 H 452.27 -1.17904 3.55034 0
M  V30 4862 H 453.603 -1.56992 4.66491 0
M  V30 4863 N 455.255 -1.55392 -0.262866 0
M  V30 4864 C 456.203 -1.8977 -1.345 0
M  V30 4865 C 457.197 -0.775063 -1.50629 0
M  V30 4866 O 458.403 -0.959519 -1.52293 0
M  V30 4867 H 454.778 -0.602467 -0.450041 0
M  V30 4868 H 456.749 -2.80147 -1.02762 0
M  V30 4869 C 455.498 -2.19501 -2.69657 0
M  V30 4870 H 454.821 -3.05378 -2.5804 0
M  V30 4871 H 456.261 -2.47469 -3.44289 0
M  V30 4872 C 454.72 -1.00597 -3.21531 0
M  V30 4873 O 455.25 -0.245768 -4.00947 0
M  V30 4874 N 453.456 -0.800911 -2.79345 0
M  V30 4875 H 453.003 -1.42079 -2.14875 0
M  V30 4876 H 452.961 -0.00697996 -3.14399 0
M  V30 4877 N 456.733 0.527833 -1.48498 0
M  V30 4878 C 457.643 1.65907 -1.65867 0
M  V30 4879 C 458.659 1.6537 -0.541192 0
M  V30 4880 O 459.835 1.84282 -0.812534 0
M  V30 4881 C 456.9 3.02364 -1.69637 0
M  V30 4882 C 455.961 3.1374 -2.93028 0
M  V30 4883 C 455.194 4.43688 -2.96609 0
M  V30 4884 O 455.417 5.30913 -2.08538 0
M  V30 4885 O 454.351 4.59475 -3.88802 0
M  V30 4886 H 458.177 1.5419 -2.61647 0
M  V30 4887 H 455.762 0.701163 -1.31924 0
M  V30 4888 H 457.644 3.83515 -1.74625 0
M  V30 4889 H 456.319 3.14401 -0.770312 0
M  V30 4890 H 455.226 2.31877 -2.93571 0
M  V30 4891 H 456.559 3.06621 -3.85026 0
M  V30 4892 N 458.211 1.37122 0.776871 0
M  V30 4893 C 459.121 1.34651 1.9211 0
M  V30 4894 C 460.137 0.246824 1.7224 0
M  V30 4895 O 461.313 0.48134 1.95563 0
M  V30 4896 C 458.378 1.14748 3.2716 0
M  V30 4897 C 457.439 2.34308 3.5972 0
M  V30 4898 C 456.672 2.15345 4.88326 0
M  V30 4899 O 456.895 1.13507 5.58992 0
M  V30 4900 O 455.829 3.03414 5.1983 0
M  V30 4901 H 459.655 2.31013 1.97146 0
M  V30 4902 H 457.24 1.17799 0.918901 0
M  V30 4903 H 459.122 1.05616 4.0795 0
M  V30 4904 H 457.797 0.214562 3.22988 0
M  V30 4905 H 456.704 2.49011 2.79185 0
M  V30 4906 H 458.037 3.26149 3.68629 0
M  V30 4907 N 459.689 -1.00246 1.21608 0
M  V30 4908 C 460.936 -1.74061 1.03485 0
M  V30 4909 C 461.264 -1.89658 -0.431308 0
M  V30 4910 O 460.519 -1.42976 -1.33627 0
M  V30 4911 C 460.818 -3.15448 1.68009 0
M  V30 4912 C 460.484 -3.19792 3.17874 0
M  V30 4913 C 459.146 -3.20685 3.58768 0
M  V30 4914 C 461.498 -3.16835 4.13842 0
M  V30 4915 C 458.826 -3.16309 4.94131 0
M  V30 4916 C 461.178 -3.14001 5.49169 0
M  V30 4917 C 459.842 -3.13204 5.89457 0
M  V30 4918 H 459.112 -0.636934 0.378677 0
M  V30 4919 H 461.759 -1.17473 1.51236 0
M  V30 4920 H 460.064 -3.75284 1.12557 0
M  V30 4921 H 461.761 -3.71285 1.51487 0
M  V30 4922 H 458.351 -3.19842 2.85305 0
M  V30 4923 H 462.535 -3.15303 3.83272 0
M  V30 4924 H 457.791 -3.14032 5.24589 0
M  V30 4925 H 461.965 -3.10667 6.23265 0
M  V30 4926 H 459.592 -3.09568 6.94314 0
M  V30 4927 N 461.167 -1.02423 -1.1978 0
M  V30 4928 C 462.413 -0.719051 -1.89625 0
M  V30 4929 C 462.746 0.750083 -1.7913 0
M  V30 4930 O 462.021 1.54574 -1.18056 0
M  V30 4931 C 462.304 -1.16499 -3.40735 0
M  V30 4932 C 462.157 -2.695 -3.60125 0
M  V30 4933 C 463.476 -0.742166 -4.33797 0
M  V30 4934 H 460.595 -0.26269 -0.688595 0
M  V30 4935 H 463.237 -1.27333 -1.41018 0
M  V30 4936 H 461.387 -0.69341 -3.82262 0
M  V30 4937 H 463.059 -3.24569 -3.278 0
M  V30 4938 H 461.302 -3.10113 -3.03336 0
M  V30 4939 H 461.973 -2.95757 -4.66081 0
M  V30 4940 H 464.449 -1.1477 -3.99959 0
M  V30 4941 H 463.325 -1.08213 -5.38127 0
M  V30 4942 H 463.586 0.355747 -4.40666 0
M  V30 4943 N 462.645 1.35699 -0.801477 0
M  V30 4944 C 463.555 2.33661 -0.209691 0
M  V30 4945 C 464.571 1.6162 0.644591 0
M  V30 4946 O 465.747 1.93529 0.557545 0
M  V30 4947 C 462.812 3.40816 0.636033 0
M  V30 4948 C 461.873 4.28639 -0.238147 0
M  V30 4949 C 461.106 5.30676 0.567307 0
M  V30 4950 O 461.329 5.41174 1.8024 0
M  V30 4951 O 460.263 6.01887 -0.0391336 0
M  V30 4952 H 464.089 2.8606 -1.01996 0
M  V30 4953 H 461.674 1.38379 -0.563164 0
M  V30 4954 H 463.556 4.06301 1.11791 0
M  V30 4955 H 462.231 2.90696 1.42399 0
M  V30 4956 H 461.138 3.66152 -0.767044 0
M  V30 4957 H 462.471 4.82143 -0.989915 0
M  V30 4958 N 464.123 0.554532 1.47522 0
M  V30 4959 C 465.369 0.0295227 2.02779 0
M  V30 4960 C 465.702 -1.31582 1.42828 0
M  V30 4961 O 464.977 -1.85561 0.582872 0
M  V30 4962 C 465.26 -0.0664057 3.60039 0
M  V30 4963 C 465.113 1.30585 4.30427 0
M  V30 4964 C 466.432 -0.781162 4.33112 0
M  V30 4965 H 463.551 0.0122027 0.736899 0
M  V30 4966 H 466.193 0.716305 1.7598 0
M  V30 4967 H 464.343 -0.651307 3.83002 0
M  V30 4968 H 466.015 1.93374 4.18813 0
M  V30 4969 H 464.258 1.88125 3.90886 0
M  V30 4970 H 464.929 1.19147 5.38988 0
M  V30 4971 H 467.405 -0.284565 4.15126 0
M  V30 4972 H 466.281 -0.817237 5.42782 0
M  V30 4973 H 466.542 -1.83672 4.0214 0
M  V30 4974 N 465.601 -1.54893 0.290851 0
M  V30 4975 C 466.849 -1.99538 -0.320756 0
M  V30 4976 C 467.17 -1.18075 -1.55188 0
M  V30 4977 O 466.44 -0.274162 -1.93972 0
M  V30 4978 H 465.02 -0.737052 -0.121507 0
M  V30 4979 H 467.682 -1.90755 0.399832 0
M  V30 4980 H 466.778 -3.06282 -0.599802 0
M  V30 4981 N 467.08 -0.0183926 -1.57589 0
M  V30 4982 C 468.496 0.337897 -1.55982 0
M  V30 4983 C 468.696 1.73604 -1.02294 0
M  V30 4984 O 467.752 2.43589 -0.664895 0
M  V30 4985 C 469.065 0.196305 -3.00059 0
M  V30 4986 C 470.613 0.269875 -3.11834 0
M  V30 4987 C 471.088 0.157197 -4.5773 0
M  V30 4988 N 472.579 0.214521 -4.62703 0
M  V30 4989 C 473.314 0.150955 -5.73201 0
M  V30 4990 N 472.81 0.0369212 -6.9279 0
M  V30 4991 N 474.603 0.204162 -5.61729 0
M  V30 4992 H 466.754 -0.93279 -1.90821 0
M  V30 4993 H 469.017 -0.359253 -0.877292 0
M  V30 4994 H 468.723 -0.766383 -3.43248 0
M  V30 4995 H 468.597 0.970908 -3.6449 0
M  V30 4996 H 470.984 1.22302 -2.68563 0
M  V30 4997 H 471.065 -0.534918 -2.50144 0
M  V30 4998 H 470.709 -0.792479 -5.01679 0
M  V30 4999 H 470.639 0.980717 -5.17387 0
M  V30 5000 H 473.13 0.303238 -3.76681 0
M  V30 5001 H 473.443 -0.00518321 -7.728 0
M  V30 5002 H 471.788 0.0022886 -6.95 0
M  V30 5003 H 474.979 0.291575 -4.67191 0
M  V30 5004 H 475.152 0.15116 -6.47824 0
M  V30 5005 N 468.558 1.5553 0.254621 0
M  V30 5006 C 469.488 1.9268 1.31897 0
M  V30 5007 C 470.469 0.790797 1.506 0
M  V30 5008 O 471.654 1.05045 1.63337 0
M  V30 5009 C 468.784 2.21477 2.67517 0
M  V30 5010 C 467.738 3.37256 2.63519 0
M  V30 5011 C 467.064 3.51576 4.02862 0
M  V30 5012 C 468.364 4.73157 2.21179 0
M  V30 5013 H 470.058 2.81832 1.01051 0
M  V30 5014 H 467.604 1.35599 0.484662 0
M  V30 5015 H 469.557 2.46055 3.42104 0
M  V30 5016 H 468.281 1.29144 2.99982 0
M  V30 5017 H 466.94 3.12675 1.9139 0
M  V30 5018 H 466.588 2.56676 4.32581 0
M  V30 5019 H 466.288 4.2943 4.01078 0
M  V30 5020 H 467.812 3.78467 4.79161 0
M  V30 5021 H 469.226 4.97158 2.85494 0
M  V30 5022 H 467.623 5.54058 2.30521 0
M  V30 5023 H 468.693 4.70739 1.16332 0
M  V30 5024 N 470.036 -0.519951 1.48776 0
M  V30 5025 C 471.284 -1.2727 1.56993 0
M  V30 5026 C 471.605 -1.9339 0.25004 0
M  V30 5027 O 470.875 -1.81822 -0.729216 0
M  V30 5028 H 469.455 -0.472732 0.578389 0
M  V30 5029 H 472.117 -0.604234 1.85297 0
M  V30 5030 H 471.213 -2.04669 2.3562 0
M  V30 5031 N 471.514 -1.37532 -0.769588 0
M  V30 5032 C 472.925 -1.29382 -1.346 0
M  V30 5033 C 473.276 0.0576039 -1.96115 0
M  V30 5034 O 472.401 0.95947 -1.93967 0
M  V30 5035 C 472.996 -2.34298 -2.44724 0
M  V30 5036 C 471.555 -2.29776 -2.98128 0
M  V30 5037 C 470.702 -2.18013 -1.71364 0
M  V30 5038 H 473.653 -1.48123 -0.56968 0
M  V30 5039 H 473.674 -1.99089 -3.24259 0
M  V30 5040 H 473.186 -3.32645 -1.99922 0
M  V30 5041 H 471.287 -1.34959 -3.47299 0
M  V30 5042 H 471.4 -3.23276 -3.53595 0
M  V30 5043 H 469.764 -1.64595 -1.94372 0
M  V30 5044 H 470.547 -3.18278 -1.28662 0
M  V30 5045 N 472.992 0.995999 -1.22138 0
M  V30 5046 C 474.217 1.77601 -1.0711 0
M  V30 5047 C 474.642 1.84339 0.374264 0
M  V30 5048 O 474 1.29359 1.27028 0
M  V30 5049 C 474.048 3.18897 -1.68336 0
M  V30 5050 O 473.152 4.01663 -0.934928 0
M  V30 5051 H 472.493 0.547011 -0.376397 0
M  V30 5052 H 475.023 1.25137 -1.6187 0
M  V30 5053 H 475.033 3.69539 -1.72931 0
M  V30 5054 H 473.708 3.13308 -2.73516 0
M  V30 5055 H 472.285 3.60204 -0.964751 0
M  V30 5056 N 474.47 1.03057 1.19235 0
M  V30 5057 C 475.747 0.642608 1.84743 0
M  V30 5058 C 476.127 -0.878577 1.91948 0
M  V30 5059 O 475.475 -1.77597 1.43776 0
M  V30 5060 C 475.685 1.30665 3.23616 0
M  V30 5061 C 477.033 1.43098 3.9976 0
M  V30 5062 O 478.057 1.26396 3.3302 0
M  V30 5063 O 476.916 1.70223 5.19313 0
M  V30 5064 H 474.01 0.223573 0.796206 0
M  V30 5065 H 476.556 1.12883 1.26711 0
M  V30 5066 H 475.328 2.34544 3.13217 0
M  V30 5067 H 474.951 0.808405 3.89295 0
M  V30 5068 N 475.948 -1.35272 0.808662 0
M  V30 5069 C 477.178 -2.02652 0.401953 0
M  V30 5070 C 477.586 -1.6108 -0.992462 0
M  V30 5071 O 476.929 -0.804984 -1.65123 0
M  V30 5072 C 476.991 -3.57174 0.408246 0
M  V30 5073 C 476.655 -4.22019 1.75353 0
M  V30 5074 C 477.652 -4.43552 2.71215 0
M  V30 5075 C 475.337 -4.59093 2.03811 0
M  V30 5076 C 477.331 -5.01264 3.93717 0
M  V30 5077 C 475.018 -5.16519 3.26576 0
M  V30 5078 C 476.016 -5.37546 4.21347 0
M  V30 5079 O 475.704 -5.93761 5.41944 0
M  V30 5080 H 475.436 -0.656495 0.161216 0
M  V30 5081 H 477.99 -1.73829 1.0942 0
M  V30 5082 H 476.22 -3.85197 -0.340608 0
M  V30 5083 H 477.909 -4.05893 0.0235623 0
M  V30 5084 H 478.675 -4.15288 2.50522 0
M  V30 5085 H 474.554 -4.42039 1.30854 0
M  V30 5086 H 478.098 -5.17592 4.67701 0
M  V30 5087 H 473.995 -5.4421 3.47139 0
M  V30 5088 H 474.763 -6.1221 5.43269 0
M  V30 5089 N 477.426 -0.562348 -1.47226 0
M  V30 5090 C 478.673 -0.0402165 -2.0246 0
M  V30 5091 C 479.001 1.31169 -1.43614 0
M  V30 5092 O 478.256 1.86805 -0.5833 0
M  V30 5093 C 478.555 0.0969817 -3.57268 0
M  V30 5094 C 478.221 -1.1847 -4.35058 0
M  V30 5095 C 476.883 -1.53588 -4.56031 0
M  V30 5096 C 479.235 -2.03378 -4.79882 0
M  V30 5097 C 476.563 -2.73452 -5.19077 0
M  V30 5098 C 478.915 -3.2245 -5.44251 0
M  V30 5099 C 477.579 -3.57876 -5.63455 0
M  V30 5100 H 476.849 -0.0147163 -0.740854 0
M  V30 5101 H 479.496 -0.734895 -1.76838 0
M  V30 5102 H 477.801 0.87466 -3.81912 0
M  V30 5103 H 479.498 0.516408 -3.97661 0
M  V30 5104 H 476.088 -0.90126 -4.19017 0
M  V30 5105 H 480.272 -1.77553 -4.63453 0
M  V30 5106 H 475.528 -3.01062 -5.32139 0
M  V30 5107 H 479.702 -3.88526 -5.77945 0
M  V30 5108 H 477.329 -4.50849 -6.12078 0
M  V30 5109 N 478.904 1.54736 -0.299062 0
M  V30 5110 C 480.152 1.99706 0.31017 0
M  V30 5111 C 480.473 1.18896 1.54559 0
M  V30 5112 O 479.743 0.284445 1.93824 0
M  V30 5113 H 478.323 0.737686 0.117596 0
M  V30 5114 H 480.985 1.9054 -0.409943 0
M  V30 5115 H 480.081 3.06596 0.58355 0
M  V30 5116 N 480.382 0.0267497 1.57577 0
M  V30 5117 C 481.292 -0.971633 2.13533 0
M  V30 5118 C 482.308 -1.35868 1.08701 0
M  V30 5119 O 483.484 -1.44058 1.40746 0
M  V30 5120 C 480.549 -2.23622 2.64941 0
M  V30 5121 C 479.61 -1.90982 3.8448 0
M  V30 5122 C 478.843 -3.11411 4.33427 0
M  V30 5123 O 479.066 -4.23992 3.81558 0
M  V30 5124 O 478 -2.93848 5.25297 0
M  V30 5125 H 481.826 -0.525853 2.99113 0
M  V30 5126 H 479.411 -0.193712 1.48139 0
M  V30 5127 H 481.293 -2.97864 2.98086 0
M  V30 5128 H 479.968 -2.67386 1.82446 0
M  V30 5129 H 478.875 -1.14132 3.56265 0
M  V30 5130 H 480.208 -1.52036 4.6813 0
M  V30 5131 N 481.861 -1.55662 -0.24637 0
M  V30 5132 C 483.11 -1.7672 -0.972254 0
M  V30 5133 C 483.423 -0.59078 -1.86465 0
M  V30 5134 O 484.629 -0.684391 -2.62732 0
M  V30 5135 C 483.085 -3.12869 -1.7788 0
M  V30 5136 C 482.693 -4.38161 -0.933768 0
M  V30 5137 C 484.437 -3.43265 -2.49738 0
M  V30 5138 C 482.344 -5.6534 -1.73623 0
M  V30 5139 H 481.274 -0.658795 -0.366749 0
M  V30 5140 H 483.925 -1.82092 -0.226902 0
M  V30 5141 H 482.307 -3.01606 -2.56612 0
M  V30 5142 H 483.481 -4.60413 -0.188736 0
M  V30 5143 H 481.796 -4.15102 -0.328488 0
M  V30 5144 H 484.393 -4.35501 -3.10231 0
M  V30 5145 H 484.736 -2.64614 -3.2138 0
M  V30 5146 H 485.269 -3.55746 -1.78016 0
M  V30 5147 H 482.008 -6.46814 -1.06354 0
M  V30 5148 H 481.528 -5.47188 -2.45653 0
M  V30 5149 H 483.207 -6.04616 -2.30323 0
M  V30 5150 N 483.339 0.512053 -1.4905 0
M  V30 5151 C 484.302 1.59704 -1.64399 0
M  V30 5152 C 485.302 1.52285 -0.516317 0
M  V30 5153 O 486.492 1.55635 -0.782527 0
M  V30 5154 C 483.624 2.9935 -1.63102 0
M  V30 5155 H 484.817 1.47428 -2.61161 0
M  V30 5156 H 482.37 0.735469 -1.37915 0
M  V30 5157 H 483.105 3.17116 -0.678836 0
M  V30 5158 H 482.89 3.06144 -2.44986 0
M  V30 5159 H 484.38 3.782 -1.77072 0
M  V30 5160 N 484.817 1.37938 0.762283 0
M  V30 5161 C 485.747 1.37176 1.88958 0
M  V30 5162 C 486.728 0.238945 1.68413 0
M  V30 5163 O 487.913 0.440726 1.89133 0
M  V30 5164 C 485.043 1.18742 3.2637 0
M  V30 5165 C 483.997 2.29136 3.61498 0
M  V30 5166 C 483.323 1.95816 4.97554 0
M  V30 5167 C 484.623 3.71363 3.6727 0
M  V30 5168 H 486.317 2.31509 1.89853 0
M  V30 5169 H 483.863 1.11438 0.912005 0
M  V30 5170 H 485.816 1.16837 4.04879 0
M  V30 5171 H 484.54 0.208683 3.25933 0
M  V30 5172 H 483.199 2.30213 2.85303 0
M  V30 5173 H 482.847 0.964475 4.93667 0
M  V30 5174 H 482.547 2.69745 5.22026 0
M  V30 5175 H 484.071 1.95513 5.78452 0
M  V30 5176 H 485.485 3.72364 4.35911 0
M  V30 5177 H 483.882 4.44425 4.03245 0
M  V30 5178 H 484.952 4.04305 2.67704 0
M  V30 5179 N 486.295 -0.989507 1.22664 0
M  V30 5180 C 487.225 -2.09847 1.02404 0
M  V30 5181 C 488.206 -1.70007 -0.0561303 0
M  V30 5182 O 489.391 -1.93906 0.106748 0
M  V30 5183 C 486.521 -3.41996 0.604663 0
M  V30 5184 C 485.475 -3.95699 1.63115 0
M  V30 5185 C 484.801 -5.23936 1.0675 0
M  V30 5186 C 486.101 -4.25999 3.02196 0
M  V30 5187 H 487.795 -2.27054 1.95158 0
M  V30 5188 H 485.341 -1.09111 0.939727 0
M  V30 5189 H 487.294 -4.1899 0.45002 0
M  V30 5190 H 486.018 -3.24626 -0.35855 0
M  V30 5191 H 484.677 -3.2084 1.77362 0
M  V30 5192 H 484.325 -5.02909 0.0955422 0
M  V30 5193 H 484.025 -5.60833 1.75328 0
M  V30 5194 H 485.549 -6.0356 0.924516 0
M  V30 5195 H 486.963 -4.93777 2.91303 0
M  V30 5196 H 485.36 -4.74076 3.67929 0
M  V30 5197 H 486.43 -3.33636 3.51873 0
M  V30 5198 N 487.773 -1.03688 -1.18687 0
M  V30 5199 C 488.706 -0.569112 -2.2099 0
M  V30 5200 C 489.684 0.394315 -1.57746 0
M  V30 5201 O 490.868 0.309519 -1.85941 0
M  V30 5202 C 487.995 0.169104 -3.38278 0
M  V30 5203 C 487.041 -0.746989 -4.19908 0
M  V30 5204 S 487.874 -2.22773 -4.86963 0
M  V30 5205 C 489.03 -1.50025 -6.07654 0
M  V30 5206 H 489.263 -1.43589 -2.60326 0
M  V30 5207 H 486.796 -0.847507 -1.29061 0
M  V30 5208 H 488.754 0.588868 -4.06254 0
M  V30 5209 H 487.415 1.01172 -2.9736 0
M  V30 5210 H 486.608 -0.176626 -5.0369 0
M  V30 5211 H 486.21 -1.10543 -3.5729 0
M  V30 5212 H 488.502 -0.791217 -6.72864 0
M  V30 5213 H 489.445 -2.31498 -6.69189 0
M  V30 5214 H 489.853 -0.994245 -5.55675 0
M  V30 5215 N 489.251 1.34841 -0.815825 0
M  V30 5216 C 490.199 2.31549 -0.220888 0
M  V30 5217 C 491.193 1.5707 0.634457 0
M  V30 5218 O 492.399 1.72125 0.526589 0
M  V30 5219 H 488.774 0.750153 -0.0526782 0
M  V30 5220 H 490.745 2.7926 -1.05149 0
M  V30 5221 C 489.494 3.42335 0.608427 0
M  V30 5222 H 488.817 3.9978 -0.0404121 0
M  V30 5223 H 490.257 4.12258 0.990931 0
M  V30 5224 C 488.716 2.86173 1.77782 0
M  V30 5225 O 489.246 2.80474 2.87571 0
M  V30 5226 N 487.452 2.43093 1.59229 0
M  V30 5227 H 486.999 2.47928 0.699237 0
M  V30 5228 H 486.957 2.05866 2.37627 0
M  V30 5229 N 490.729 0.570148 1.46925 0
M  V30 5230 C 492.145 0.23087 1.57921 0
M  V30 5231 C 492.345 -1.26676 1.56702 0
M  V30 5232 O 491.401 -2.04774 1.47729 0
M  V30 5233 C 492.714 0.868973 2.8787 0
M  V30 5234 C 494.262 0.841397 3.01479 0
M  V30 5235 C 494.737 1.45881 4.34146 0
M  V30 5236 N 496.228 1.42258 4.40814 0
M  V30 5237 C 496.963 1.8698 5.42057 0
M  V30 5238 N 496.459 2.39618 6.50042 0
M  V30 5239 N 498.252 1.77972 5.33181 0
M  V30 5240 H 490.403 1.54301 1.45962 0
M  V30 5241 H 492.666 0.644224 0.69547 0
M  V30 5242 H 492.372 1.922 2.94537 0
M  V30 5243 H 492.246 0.369682 3.75384 0
M  V30 5244 H 494.633 -0.202973 2.94401 0
M  V30 5245 H 494.714 1.37858 2.15474 0
M  V30 5246 H 494.358 2.50231 4.4198 0
M  V30 5247 H 494.288 0.896958 5.18905 0
M  V30 5248 H 496.779 1.03768 3.63374 0
M  V30 5249 H 497.092 2.71633 7.23488 0
M  V30 5250 H 495.437 2.43636 6.50897 0
M  V30 5251 H 498.628 1.36617 4.4772 0
M  V30 5252 H 498.801 2.13143 6.11943 0
M  V30 5253 N 492.207 -1.54576 0.307264 0
M  V30 5254 C 493.618 -1.8579 -0.184121 0
M  V30 5255 C 493.969 -1.22914 -1.52927 0
M  V30 5256 O 493.094 -0.529126 -2.09831 0
M  V30 5257 C 493.689 -3.37081 -0.340862 0
M  V30 5258 C 492.248 -3.68304 -0.776465 0
M  V30 5259 C 491.395 -2.77076 0.111503 0
M  V30 5260 H 494.346 -1.49656 0.528078 0
M  V30 5261 H 494.367 -3.61922 -1.17443 0
M  V30 5262 H 493.879 -3.82815 0.638309 0
M  V30 5263 H 491.98 -3.28092 -1.76596 0
M  V30 5264 H 492.093 -4.75434 -0.591512 0
M  V30 5265 H 490.457 -2.51374 -0.410256 0
M  V30 5266 H 491.24 -3.25632 1.08714 0
M  V30 5267 N 493.685 -0.035106 -1.57561 0
M  V30 5268 C 495.101 0.321334 -1.56332 0
M  V30 5269 C 495.301 1.72509 -1.04129 0
M  V30 5270 O 494.357 2.4287 -0.690694 0
M  V30 5271 C 495.67 0.164469 -3.0025 0
M  V30 5272 C 497.218 0.236786 -3.12103 0
M  V30 5273 C 497.693 0.10864 -4.57871 0
M  V30 5274 N 499.184 0.165433 -4.62904 0
M  V30 5275 C 499.919 0.0901506 -5.73329 0
M  V30 5276 N 499.415 -0.0365606 -6.9279 0
M  V30 5277 N 501.208 0.144572 -5.61914 0
M  V30 5278 H 493.359 -0.952976 -1.89821 0
M  V30 5279 H 495.622 -0.368537 -0.873432 0
M  V30 5280 H 495.328 -0.802746 -3.42416 0
M  V30 5281 H 495.202 0.932194 -3.655 0
M  V30 5282 H 497.589 1.19446 -2.69845 0
M  V30 5283 H 497.67 -0.561419 -2.49563 0
M  V30 5284 H 497.314 -0.845644 -5.00811 0
M  V30 5285 H 497.244 0.925786 -5.18398 0
M  V30 5286 H 499.735 0.263269 -3.76982 0
M  V30 5287 H 500.048 -0.0871487 -7.72751 0
M  V30 5288 H 498.393 -0.0714256 -6.94963 0
M  V30 5289 H 501.584 0.242006 -4.67474 0
M  V30 5290 H 501.757 0.0824413 -6.47948 0
M  V30 5291 N 495.163 1.55791 0.238111 0
M  V30 5292 C 496.126 1.90239 1.27835 0
M  V30 5293 C 497.126 0.779552 1.4064 0
M  V30 5294 O 498.316 1.04747 1.3919 0
M  V30 5295 C 495.448 2.13859 2.65475 0
M  V30 5296 H 496.641 2.83262 0.985034 0
M  V30 5297 H 494.194 1.48818 0.477799 0
M  V30 5298 H 494.929 1.23334 2.99932 0
M  V30 5299 H 494.714 2.95643 2.57561 0
M  V30 5300 H 496.204 2.41664 3.40571 0
M  V30 5301 N 496.642 -0.504142 1.49319 0
M  V30 5302 C 497.605 -1.5883 1.65244 0
M  V30 5303 C 498.605 -1.52009 0.524386 0
M  V30 5304 O 499.795 -1.55218 0.79077 0
M  V30 5305 C 496.927 -2.98481 1.64687 0
M  V30 5306 H 498.12 -1.4604 2.61939 0
M  V30 5307 H 495.673 -0.728144 1.38303 0
M  V30 5308 H 496.408 -3.16751 0.695644 0
M  V30 5309 H 496.193 -3.0484 2.46607 0
M  V30 5310 H 497.683 -3.77256 1.79075 0
M  V30 5311 N 498.12 -1.38341 -0.754957 0
M  V30 5312 C 499.348 -1.37704 -1.54419 0
M  V30 5313 C 499.763 0.0335243 -1.8877 0
M  V30 5314 O 499.12 0.999773 -1.52679 0
M  V30 5315 C 499.171 -2.23136 -2.84416 0
M  V30 5316 O 498.892 -3.58697 -2.51531 0
M  V30 5317 C 500.393 -2.30664 -3.78562 0
M  V30 5318 H 497.613 -0.471061 -0.477852 0
M  V30 5319 H 500.157 -1.81902 -0.934446 0
M  V30 5320 H 498.312 -1.82403 -3.41772 0
M  V30 5321 H 498.726 -4.03665 -3.34896 0
M  V30 5322 H 500.2 -2.9473 -4.66732 0
M  V30 5323 H 500.677 -1.3199 -4.18898 0
M  V30 5324 H 501.283 -2.71781 -3.27131 0
M  V30 5325 N 499.598 0.982988 -1.23187 0
M  V30 5326 C 500.844 1.72648 -1.06398 0
M  V30 5327 C 501.177 1.90066 0.398561 0
M  V30 5328 O 500.452 1.45105 1.29518 0
M  V30 5329 C 500.735 3.12627 -1.78707 0
M  V30 5330 C 500.588 3.02795 -3.32618 0
M  V30 5331 C 501.907 4.11997 -1.54747 0
M  V30 5332 H 499.026 0.626649 -0.387918 0
M  V30 5333 H 501.668 1.14455 -1.51658 0
M  V30 5334 H 499.818 3.62308 -1.40234 0
M  V30 5335 H 501.49 2.60659 -3.80598 0
M  V30 5336 H 499.733 2.39362 -3.61785 0
M  V30 5337 H 500.404 4.01893 -3.78399 0
M  V30 5338 H 502.88 3.71114 -1.88186 0
M  V30 5339 H 501.756 5.08037 -2.07821 0
M  V30 5340 H 502.017 4.39462 -0.482249 0
M  V30 5341 N 501.076 1.04316 1.18135 0
M  V30 5342 C 502.322 0.749128 1.88457 0
M  V30 5343 C 502.655 -0.72149 1.803 0
M  V30 5344 O 501.93 -1.52676 1.205 0
M  V30 5345 C 502.213 1.21905 3.38838 0
M  V30 5346 C 502.066 2.75195 3.55792 0
M  V30 5347 C 503.385 0.811085 4.32561 0
M  V30 5348 H 500.504 0.273611 0.684329 0
M  V30 5349 H 503.146 1.29561 1.38975 0
M  V30 5350 H 501.296 0.754137 3.8111 0
M  V30 5351 H 502.968 3.29743 3.22595 0
M  V30 5352 H 501.211 3.14899 2.98364 0
M  V30 5353 H 501.882 3.03135 4.61317 0
M  V30 5354 H 504.358 1.21118 3.98082 0
M  V30 5355 H 503.234 1.16761 5.36338 0
M  V30 5356 H 503.495 -0.285596 4.41177 0
M  V30 5357 N 502.554 -1.34406 0.822964 0
M  V30 5358 C 503.517 -2.2783 0.250271 0
M  V30 5359 C 504.517 -1.50288 -0.571854 0
M  V30 5360 O 505.707 -1.69825 -0.387952 0
M  V30 5361 C 502.839 -3.34663 -0.649137 0
M  V30 5362 H 504.032 -2.79992 1.07444 0
M  V30 5363 H 501.585 -1.44539 0.594829 0
M  V30 5364 H 502.32 -2.87714 -1.49637 0
M  V30 5365 H 502.105 -3.92052 -0.0611199 0
M  V30 5366 H 503.595 -4.04349 -1.04363 0
M  V30 5367 N 504.032 -0.577932 -1.46621 0
M  V30 5368 C 505.448 -0.239242 -1.57797 0
M  V30 5369 C 505.648 1.25843 -1.57371 0
M  V30 5370 O 504.704 2.03988 -1.48813 0
M  V30 5371 C 506.017 -0.884227 -2.87405 0
M  V30 5372 C 507.565 -0.857373 -3.01028 0
M  V30 5373 C 508.04 -1.48181 -4.33366 0
M  V30 5374 N 509.531 -1.44593 -4.40053 0
M  V30 5375 C 510.266 -1.89852 -5.41058 0
M  V30 5376 N 509.762 -2.43062 -6.48762 0
M  V30 5377 N 511.555 -1.80797 -5.3223 0
M  V30 5378 H 503.706 -1.55073 -1.45142 0
M  V30 5379 H 505.969 -0.647903 -0.692044 0
M  V30 5380 H 505.675 -1.93759 -2.93514 0
M  V30 5381 H 505.549 -0.389585 -3.75183 0
M  V30 5382 H 507.936 0.187357 -2.94505 0
M  V30 5383 H 508.017 -1.38999 -2.14739 0
M  V30 5384 H 507.661 -2.52572 -4.40647 0
M  V30 5385 H 507.591 -0.924464 -5.18422 0
M  V30 5386 H 510.082 -1.05694 -3.62819 0
M  V30 5387 H 510.395 -2.75466 -7.22038 0
M  V30 5388 H 508.74 -2.47085 -6.49595 0
M  V30 5389 H 511.931 -1.38989 -4.46989 0
M  V30 5390 H 512.104 -2.16385 -6.10804 0
M  V30 5391 N 505.51 1.54411 -0.315457 0
M  V30 5392 C 506.758 2.00023 0.288971 0
M  V30 5393 C 507.079 1.20529 1.5329 0
M  V30 5394 O 506.349 0.304986 1.93511 0
M  V30 5395 H 504.929 0.738891 0.109766 0
M  V30 5396 H 507.591 1.90094 -0.430129 0
M  V30 5397 H 506.687 3.07198 0.550999 0
M  V30 5398 N 506.988 0.0434614 1.5754 0
M  V30 5399 C 508.399 -0.493343 1.80064 0
M  V30 5400 C 508.75 -1.71388 0.955023 0
M  V30 5401 O 507.875 -2.15736 0.169434 0
M  V30 5402 C 508.47 -0.90179 3.26578 0
M  V30 5403 C 507.029 -1.38362 3.50047 0
M  V30 5404 C 506.176 -0.355129 2.75017 0
M  V30 5405 H 509.127 0.2694 1.56397 0
M  V30 5406 H 509.148 -1.76523 3.37075 0
M  V30 5407 H 508.66 -0.013271 3.88098 0
M  V30 5408 H 506.761 -2.29159 2.93798 0
M  V30 5409 H 506.874 -1.3811 4.58762 0
M  V30 5410 H 505.238 -0.826348 2.40922 0
M  V30 5411 H 506.021 0.525172 3.39259 0
M  V30 5412 N 508.466 -1.55915 -0.229846 0
M  V30 5413 C 509.396 -1.94754 -1.28815 0
M  V30 5414 C 510.377 -0.814657 -1.49323 0
M  V30 5415 O 511.562 -1.07631 -1.61645 0
M  V30 5416 C 508.692 -2.25705 -2.63959 0
M  V30 5417 C 507.646 -3.41406 -2.5812 0
M  V30 5418 C 506.972 -3.57941 -3.97218 0
M  V30 5419 C 508.272 -4.76616 -2.13623 0
M  V30 5420 H 509.966 -2.83404 -0.965547 0
M  V30 5421 H 507.512 -1.36353 -0.463028 0
M  V30 5422 H 509.465 -2.51467 -3.38146 0
M  V30 5423 H 508.189 -1.339 -2.9789 0
M  V30 5424 H 506.848 -3.1568 -1.86391 0
M  V30 5425 H 506.496 -2.63526 -4.28443 0
M  V30 5426 H 506.196 -4.35757 -3.94195 0
M  V30 5427 H 507.72 -3.86042 -4.73079 0
M  V30 5428 H 509.134 -5.01637 -2.77549 0
M  V30 5429 H 507.531 -5.57655 -2.21677 0
M  V30 5430 H 508.601 -4.7253 -1.08829 0
M  V30 5431 N 509.944 0.496216 -1.49584 0
M  V30 5432 C 510.891 1.59722 -1.66606 0
M  V30 5433 C 511.861 1.58158 -0.507477 0
M  V30 5434 O 513.046 1.76072 -0.735076 0
M  V30 5435 C 510.186 2.97844 -1.74308 0
M  V30 5436 C 509.299 3.09388 -3.01502 0
M  V30 5437 C 508.434 4.38271 -3.00153 0
M  V30 5438 C 507.473 4.43466 -4.21906 0
M  V30 5439 N 506.61 5.63784 -4.1844 0
M  V30 5440 H 511.45 1.44515 -2.60613 0
M  V30 5441 H 508.987 0.703048 -1.29212 0
M  V30 5442 H 510.945 3.77907 -1.76754 0
M  V30 5443 H 509.575 3.11743 -0.837619 0
M  V30 5444 H 508.627 2.22357 -3.08645 0
M  V30 5445 H 509.939 3.09085 -3.91494 0
M  V30 5446 H 509.093 5.2666 -3.01188 0
M  V30 5447 H 507.832 4.41146 -2.07947 0
M  V30 5448 H 506.837 3.53478 -4.21109 0
M  V30 5449 H 508.062 4.42303 -5.1531 0
M  V30 5450 H 506.008 5.67491 -3.29074 0
M  V30 5451 H 505.925 5.65118 -5.02173 0
M  V30 5452 H 507.193 6.54367 -4.23585 0
M  V30 5453 N 511.423 1.38739 0.74761 0
M  V30 5454 C 512.663 1.36695 1.51966 0
M  V30 5455 C 513.027 -0.0411889 1.91956 0
M  V30 5456 O 514.228 -0.186543 2.68152 0
M  V30 5457 C 512.499 2.30119 2.73459 0
M  V30 5458 S 514.058 2.4615 3.63257 0
M  V30 5459 H 510.876 0.484929 0.519966 0
M  V30 5460 H 513.478 1.7472 0.877104 0
M  V30 5461 H 512.182 3.31312 2.422 0
M  V30 5462 H 511.713 1.93265 3.42655 0
M  V30 5463 H 513.728 1.69001 4.66533 0
M  V30 5464 N 512.901 -0.976442 1.23707 0
M  V30 5465 C 514.147 -1.72081 1.07312 0
M  V30 5466 C 514.48 -1.90275 -0.388476 0
M  V30 5467 O 513.755 -1.4579 -1.28746 0
M  V30 5468 C 514.038 -3.11675 1.80363 0
M  V30 5469 C 513.891 -3.01027 3.3422 0
M  V30 5470 C 515.21 -4.1117 1.5693 0
M  V30 5471 H 512.329 -0.624583 0.391236 0
M  V30 5472 H 514.971 -1.13649 1.52263 0
M  V30 5473 H 513.121 -3.61559 1.42153 0
M  V30 5474 H 514.793 -2.58637 3.81975 0
M  V30 5475 H 513.036 -2.3744 3.63049 0
M  V30 5476 H 513.707 -3.9988 3.80525 0
M  V30 5477 H 516.183 -3.7011 1.90151 0
M  V30 5478 H 515.059 -5.06928 2.10513 0
M  V30 5479 H 515.32 -4.392 0.505548 0
M  V30 5480 N 514.379 -1.04941 -1.1758 0
M  V30 5481 C 515.326 -0.648155 -2.21512 0
M  V30 5482 C 516.296 0.348431 -1.62404 0
M  V30 5483 O 517.481 0.240419 -1.89279 0
M  V30 5484 C 514.621 -0.0264291 -3.4509 0
M  V30 5485 C 513.734 -1.07154 -4.185 0
M  V30 5486 C 512.869 -0.417403 -5.29558 0
M  V30 5487 C 511.908 -1.447 -5.94751 0
M  V30 5488 N 511.045 -0.817203 -6.97328 0
M  V30 5489 H 515.885 -1.53891 -2.55189 0
M  V30 5490 H 513.422 -0.769699 -1.25356 0
M  V30 5491 H 515.38 0.351456 -4.15717 0
M  V30 5492 H 514.01 0.827802 -3.12005 0
M  V30 5493 H 513.062 -1.56728 -3.46613 0
M  V30 5494 H 514.374 -1.8532 -4.63096 0
M  V30 5495 H 513.528 0.0142061 -6.06698 0
M  V30 5496 H 512.267 0.396265 -4.86087 0
M  V30 5497 H 511.272 -1.88865 -5.16343 0
M  V30 5498 H 512.497 -2.26252 -6.40302 0
M  V30 5499 H 510.443 -0.0239995 -6.55996 0
M  V30 5500 H 510.36 -1.53644 -7.40223 0
M  V30 5501 H 511.628 -0.410283 -7.7842 0
M  V30 5502 N 515.857 1.33968 -0.830081 0
M  V30 5503 C 516.787 2.31911 -0.271911 0
M  V30 5504 C 517.768 1.58571 0.61556 0
M  V30 5505 O 518.953 1.86514 0.540946 0
M  V30 5506 C 516.083 3.42737 0.561146 0
M  V30 5507 C 515.037 4.27383 -0.229789 0
M  V30 5508 C 514.363 5.29742 0.726463 0
M  V30 5509 C 515.663 5.02 -1.44197 0
M  V30 5510 H 517.357 2.78844 -1.09025 0
M  V30 5511 H 514.903 1.34061 -0.52571 0
M  V30 5512 H 516.856 4.10276 0.961867 0
M  V30 5513 H 515.58 2.94471 1.41261 0
M  V30 5514 H 514.239 3.61456 -0.611964 0
M  V30 5515 H 513.887 4.77736 1.57408 0
M  V30 5516 H 513.587 5.87255 0.20142 0
M  V30 5517 H 515.111 6.00149 1.12489 0
M  V30 5518 H 516.525 5.62355 -1.11488 0
M  V30 5519 H 514.922 5.69122 -1.90317 0
M  V30 5520 H 515.992 4.31281 -2.2164 0
M  V30 5521 N 517.335 0.585699 1.46312 0
M  V30 5522 C 518.612 0.00542031 1.95599 0
M  V30 5523 C 518.992 -1.45619 1.52834 0
M  V30 5524 O 518.34 -2.14759 0.780446 0
M  V30 5525 C 518.55 0.180601 3.48532 0
M  V30 5526 C 519.898 0.049979 4.24571 0
M  V30 5527 O 520.922 0.109589 3.56031 0
M  V30 5528 O 519.781 -0.0832226 5.46437 0
M  V30 5529 H 516.875 -0.0481281 0.825598 0
M  V30 5530 H 519.421 0.654227 1.56582 0
M  V30 5531 H 518.193 1.19657 3.72556 0
M  V30 5532 H 517.816 -0.504498 3.94386 0
M  V30 5533 N 518.813 -1.54241 0.323641 0
M  V30 5534 C 520.229 -1.59574 -0.0290018 0
M  V30 5535 C 520.429 -1.34017 -1.50472 0
M  V30 5536 O 519.485 -1.12464 -2.26071 0
M  V30 5537 C 520.798 -2.98169 0.389295 0
M  V30 5538 C 522.346 -3.11148 0.339958 0
M  V30 5539 C 522.821 -4.5209 0.733418 0
M  V30 5540 N 524.312 -4.5808 0.686827 0
M  V30 5541 C 525.047 -5.65248 0.963464 0
M  V30 5542 N 524.543 -6.80355 1.30724 0
M  V30 5543 N 526.336 -5.55025 0.88902 0
M  V30 5544 H 518.487 -1.6911 1.28512 0
M  V30 5545 H 520.75 -0.790972 0.522558 0
M  V30 5546 H 520.456 -3.21871 1.41746 0
M  V30 5547 H 520.33 -3.76399 -0.245657 0
M  V30 5548 H 522.717 -2.87182 -0.679002 0
M  V30 5549 H 522.798 -2.35023 1.00985 0
M  V30 5550 H 522.442 -4.76788 1.75029 0
M  V30 5551 H 522.372 -5.26584 0.0412189 0
M  V30 5552 H 524.863 -3.75411 0.43298 0
M  V30 5553 H 525.176 -7.58029 1.5037 0
M  V30 5554 H 523.521 -6.81851 1.3455 0
M  V30 5555 H 526.712 -4.63977 0.619939 0
M  V30 5556 H 526.885 -6.38458 1.10797 0
M  V30 5557 N 520.291 -0.0518155 -1.57515 0
M  V30 5558 C 521.702 0.483787 -1.80323 0
M  V30 5559 C 522.053 1.70879 -0.964099 0
M  V30 5560 O 521.178 2.15643 -0.180872 0
M  V30 5561 C 521.773 0.884459 -3.27052 0
M  V30 5562 C 520.332 1.36504 -3.50776 0
M  V30 5563 C 519.479 0.340539 -2.75201 0
M  V30 5564 H 522.43 -0.277691 -1.56252 0
M  V30 5565 H 522.451 1.74733 -3.38007 0
M  V30 5566 H 521.963 -0.00731093 -3.88099 0
M  V30 5567 H 520.064 2.27598 -2.95009 0
M  V30 5568 H 520.177 1.35675 -4.59488 0
M  V30 5569 H 518.541 0.81356 -2.41357 0
M  V30 5570 H 519.324 -0.543156 -3.38976 0
M  V30 5571 N 521.769 1.56035 0.221574 0
M  V30 5572 C 523.185 1.49026 0.571271 0
M  V30 5573 C 523.385 0.746912 1.87146 0
M  V30 5574 O 522.441 0.286566 2.50869 0
M  V30 5575 C 523.754 2.93579 0.650522 0
M  V30 5576 C 525.302 3.04099 0.741151 0
M  V30 5577 C 525.777 4.5001 0.851747 0
M  V30 5578 N 527.268 4.54053 0.915968 0
M  V30 5579 C 528.003 5.64232 1.02125 0
M  V30 5580 N 527.499 6.84164 1.09049 0
M  V30 5581 N 529.292 5.52084 1.05639 0
M  V30 5582 H 521.443 2.02791 -0.63162 0
M  V30 5583 H 523.706 0.921736 -0.221602 0
M  V30 5584 H 523.412 3.50912 -0.235253 0
M  V30 5585 H 523.286 3.45476 1.51413 0
M  V30 5586 H 525.673 2.4683 1.61737 0
M  V30 5587 H 525.754 2.55371 -0.148128 0
M  V30 5588 H 525.398 5.07896 -0.0200117 0
M  V30 5589 H 525.328 4.96444 1.75644 0
M  V30 5590 H 527.819 3.67683 0.872782 0
M  V30 5591 H 528.132 7.63883 1.1706 0
M  V30 5592 H 526.477 6.86875 1.05962 0
M  V30 5593 H 529.668 4.57317 0.998953 0
M  V30 5594 H 529.841 6.37983 1.13498 0
M  V30 5595 N 523.247 -0.488276 1.49845 0
M  V30 5596 C 524.494 -1.24157 1.59973 0
M  V30 5597 C 524.822 -1.92293 0.292182 0
M  V30 5598 O 524.077 -1.81942 -0.720813 0
M  V30 5599 C 524.376 -2.32152 2.71735 0
M  V30 5600 C 524.042 -1.81387 4.12807 0
M  V30 5601 C 522.704 -1.67262 4.51195 0
M  V30 5602 C 525.056 -1.43537 5.01045 0
M  V30 5603 C 522.384 -1.13685 5.7558 0
M  V30 5604 C 524.736 -0.914081 6.25961 0
M  V30 5605 C 523.4 -0.759327 6.63167 0
M  V30 5606 H 522.67 -0.454322 0.585383 0
M  V30 5607 H 525.317 -0.540261 1.83721 0
M  V30 5608 H 523.622 -3.08122 2.42008 0
M  V30 5609 H 525.319 -2.90164 2.76778 0
M  V30 5610 H 521.909 -1.93344 3.82513 0
M  V30 5611 H 526.093 -1.53292 4.72033 0
M  V30 5612 H 521.349 -1.00426 6.03096 0
M  V30 5613 H 525.523 -0.612066 6.93705 0
M  V30 5614 H 523.15 -0.342002 7.5943 0
M  V30 5615 N 524.725 -1.39134 -0.740242 0
M  V30 5616 C 525.635 -1.39697 -1.88473 0
M  V30 5617 C 526.651 -0.292403 -1.71526 0
M  V30 5618 O 527.827 -0.533021 -1.94219 0
M  V30 5619 C 524.892 -1.23382 -3.24003 0
M  V30 5620 C 523.953 -2.43763 -3.53381 0
M  V30 5621 C 523.186 -2.28216 -4.82445 0
M  V30 5622 O 523.409 -1.28288 -5.55786 0
M  V30 5623 O 522.343 -3.1709 -5.11603 0
M  V30 5624 H 526.169 -2.36159 -1.90952 0
M  V30 5625 H 523.754 -1.20194 -0.887346 0
M  V30 5626 H 525.636 -1.16395 -4.05006 0
M  V30 5627 H 524.311 -0.300121 -3.22306 0
M  V30 5628 H 523.218 -2.56325 -2.72485 0
M  V30 5629 H 524.551 -3.35808 -3.59852 0
M  V30 5630 N 526.204 0.969867 -1.24223 0
M  V30 5631 C 527.62 1.23809 -1.00716 0
M  V30 5632 C 527.82 1.99469 0.285358 0
M  V30 5633 O 526.876 2.31764 1.00207 0
M  V30 5634 C 528.189 2.02734 -2.2208 0
M  V30 5635 C 529.737 2.15834 -2.26681 0
M  V30 5636 C 530.212 2.98154 -3.47661 0
M  V30 5637 N 531.703 3.05737 -3.47964 0
M  V30 5638 C 532.438 3.69785 -4.38231 0
M  V30 5639 N 531.934 4.35569 -5.3875 0
M  V30 5640 N 533.727 3.66775 -4.25949 0
M  V30 5641 H 525.878 0.463294 -2.07286 0
M  V30 5642 H 528.141 0.267348 -0.909521 0
M  V30 5643 H 527.847 1.54524 -3.15935 0
M  V30 5644 H 527.721 3.0347 -2.24021 0
M  V30 5645 H 530.108 2.63248 -1.33359 0
M  V30 5646 H 530.189 1.14453 -2.28767 0
M  V30 5647 H 529.833 2.51435 -4.41297 0
M  V30 5648 H 529.763 3.99729 -3.42818 0
M  V30 5649 H 532.254 2.58941 -2.75242 0
M  V30 5650 H 532.567 4.82251 -6.03866 0
M  V30 5651 H 530.912 4.34244 -5.42639 0
M  V30 5652 H 534.103 3.14558 -3.46657 0
M  V30 5653 H 534.276 4.16407 -4.96497 0
M  V30 5654 N 527.682 1.05563 1.17022 0
M  V30 5655 C 528.928 0.769074 1.87652 0
M  V30 5656 C 529.261 -0.702326 1.81055 0
M  V30 5657 O 528.536 -1.5139 1.22112 0
M  V30 5658 C 528.819 1.25492 3.37526 0
M  V30 5659 C 528.672 2.78953 3.52853 0
M  V30 5660 C 529.991 0.856919 4.31677 0
M  V30 5661 H 527.11 0.280854 0.681388 0
M  V30 5662 H 529.752 1.31027 1.37593 0
M  V30 5663 H 527.902 0.794516 3.80289 0
M  V30 5664 H 529.574 3.33146 3.19079 0
M  V30 5665 H 527.817 3.18046 2.95007 0
M  V30 5666 H 528.488 3.08011 4.58076 0
M  V30 5667 H 530.964 1.25334 3.96775 0
M  V30 5668 H 529.84 1.22443 5.35069 0
M  V30 5669 H 530.101 -0.238787 4.41455 0
M  V30 5670 N 529.16 -1.33526 0.837174 0
M  V30 5671 C 530.09 -2.31764 0.284206 0
M  V30 5672 C 531.071 -1.58896 -0.607142 0
M  V30 5673 O 532.256 -1.86798 -0.531047 0
M  V30 5674 C 529.386 -3.43029 -0.542962 0
M  V30 5675 C 528.34 -4.27255 0.252451 0
M  V30 5676 C 527.666 -5.3012 -0.69836 0
M  V30 5677 C 528.966 -5.01229 1.46858 0
M  V30 5678 H 530.66 -2.78262 1.10502 0
M  V30 5679 H 528.206 -1.3378 0.532812 0
M  V30 5680 H 530.159 -4.1078 -0.940096 0
M  V30 5681 H 528.883 -2.95216 -1.39697 0
M  V30 5682 H 527.542 -3.61127 0.631124 0
M  V30 5683 H 527.19 -4.78564 -1.54872 0
M  V30 5684 H 526.89 -5.87353 -0.170274 0
M  V30 5685 H 528.414 -6.00737 -1.09305 0
M  V30 5686 H 529.828 -5.61756 1.14469 0
M  V30 5687 H 528.225 -5.68104 1.93333 0
M  V30 5688 H 529.295 -4.301 2.23924 0
M  V30 5689 N 530.638 -0.59345 -1.46 0
M  V30 5690 C 531.886 -0.082988 -2.0193 0
M  V30 5691 C 532.207 1.28569 -1.46612 0
M  V30 5692 O 531.477 1.84629 -0.654909 0
M  V30 5693 H 530.057 -0.0276882 -0.746487 0
M  V30 5694 H 532.719 -0.771657 -1.78973 0
M  V30 5695 H 531.815 -0.022079 -3.12092 0
M  V30 5696 N 532.116 1.54067 -0.331816 0
M  V30 5697 C 533.527 1.86059 0.15454 0
M  V30 5698 C 533.878 1.25331 1.50952 0
M  V30 5699 O 533.003 0.562441 2.08963 0
M  V30 5700 C 533.598 3.37581 0.287192 0
M  V30 5701 C 532.157 3.69493 0.717773 0
M  V30 5702 C 531.304 2.76863 -0.155569 0
M  V30 5703 H 534.255 1.48797 -0.55182 0
M  V30 5704 H 534.276 3.63744 1.11671 0
M  V30 5705 H 533.788 3.81751 -0.699131 0
M  V30 5706 H 531.889 3.3086 1.71354 0
M  V30 5707 H 532.002 4.76315 0.5158 0
M  V30 5708 H 530.366 2.51995 0.370213 0
M  V30 5709 H 531.149 3.23861 -1.13881 0
M  V30 5710 N 533.594 0.0601682 1.57485 0
M  V30 5711 C 534.834 -0.615384 1.94916 0
M  V30 5712 C 535.198 -1.67475 0.938948 0
M  V30 5713 O 536.399 -2.40502 1.20051 0
M  V30 5714 C 534.67 -1.18788 3.37082 0
M  V30 5715 S 536.229 -1.88018 3.96478 0
M  V30 5716 H 533.047 -0.201821 0.681754 0
M  V30 5717 H 535.649 0.131252 1.95059 0
M  V30 5718 H 534.353 -0.404869 4.08398 0
M  V30 5719 H 533.884 -1.97114 3.40455 0
M  V30 5720 H 535.899 -3.16161 3.82435 0
M  V30 5721 N 535.072 -1.5615 -0.213296 0
M  V30 5722 C 536.297 -1.83986 -0.957282 0
M  V30 5723 C 536.722 -0.641526 -1.76822 0
M  V30 5724 O 536.08 0.409722 -1.7661 0
M  V30 5725 C 536.128 -3.09889 -1.84393 0
M  V30 5726 O 535.232 -2.89163 -2.94038 0
M  V30 5727 H 534.573 -0.606357 -0.270605 0
M  V30 5728 H 537.103 -2.03369 -0.224111 0
M  V30 5729 H 537.113 -3.40209 -2.25215 0
M  V30 5730 H 535.788 -3.96735 -1.24795 0
M  V30 5731 H 534.365 -2.70097 -2.57103 0
M  V30 5732 N 536.55 0.480323 -1.50102 0
M  V30 5733 C 537.827 1.24159 -1.51142 0
M  V30 5734 C 538.207 2.09605 -0.250818 0
M  V30 5735 O 537.555 2.15274 0.766118 0
M  V30 5736 C 537.765 2.08057 -2.80202 0
M  V30 5737 C 539.113 2.66556 -3.30504 0
M  V30 5738 O 540.137 2.18308 -2.81461 0
M  V30 5739 O 538.996 3.54442 -4.15973 0
M  V30 5740 H 536.09 0.562928 -0.605839 0
M  V30 5741 H 538.636 0.492899 -1.62384 0
M  V30 5742 H 537.408 1.45032 -3.6343 0
M  V30 5743 H 537.031 2.90079 -2.71919 0
M  V30 5744 N 538.028 1.39524 0.732853 0
M  V30 5745 C 539.277 1.36175 1.48792 0
M  V30 5746 C 539.59 -0.0388195 1.95561 0
M  V30 5747 O 540.796 -0.194899 2.708 0
M  V30 5748 C 539.252 2.39242 2.68871 0
M  V30 5749 C 538.86 3.85024 2.29042 0
M  V30 5750 C 540.604 2.44972 3.46683 0
M  V30 5751 C 538.511 4.79727 3.45856 0
M  V30 5752 H 537.441 0.506267 0.558757 0
M  V30 5753 H 540.092 1.65181 0.799226 0
M  V30 5754 H 538.474 2.0331 3.39825 0
M  V30 5755 H 539.648 4.30008 1.6562 0
M  V30 5756 H 537.963 3.82609 1.64316 0
M  V30 5757 H 540.56 3.12918 4.33574 0
M  V30 5758 H 540.903 1.4749 3.89297 0
M  V30 5759 H 541.436 2.79808 2.82759 0
M  V30 5760 H 538.175 5.78479 3.08289 0
M  V30 5761 H 537.695 4.39421 4.08251 0
M  V30 5762 H 539.374 4.98731 4.12161 0
M  V30 5763 N 539.506 -0.963266 1.24736 0
M  V30 5764 C 540.436 -2.07628 1.06832 0
M  V30 5765 C 541.417 -1.70088 -0.0200566 0
M  V30 5766 O 542.602 -1.93636 0.147854 0
M  V30 5767 C 539.732 -3.40636 0.677069 0
M  V30 5768 C 538.686 -3.9215 1.71471 0
M  V30 5769 C 538.012 -5.21553 1.1784 0
M  V30 5770 C 539.312 -4.19493 3.11164 0
M  V30 5771 H 541.006 -2.22864 1.9993 0
M  V30 5772 H 538.552 -1.07093 0.96266 0
M  V30 5773 H 540.505 -4.17941 0.538792 0
M  V30 5774 H 539.229 -3.25313 -0.289612 0
M  V30 5775 H 537.888 -3.17005 1.84128 0
M  V30 5776 H 537.536 -5.02593 0.202195 0
M  V30 5777 H 537.236 -5.56988 1.87185 0
M  V30 5778 H 538.76 -6.01463 1.05233 0
M  V30 5779 H 540.174 -4.87487 3.01711 0
M  V30 5780 H 538.571 -4.66165 3.77902 0
M  V30 5781 H 539.641 -3.26097 3.58871 0
M  V30 5782 N 540.985 -1.06182 -1.16461 0
M  V30 5783 C 541.932 -0.671613 -2.20812 0
M  V30 5784 C 542.902 0.331186 -1.62765 0
M  V30 5785 O 544.087 0.22033 -1.89524 0
M  V30 5786 C 541.227 -0.063029 -3.45042 0
M  V30 5787 C 540.34 -1.11587 -4.1734 0
M  V30 5788 C 539.475 -0.473546 -5.29085 0
M  V30 5789 C 538.514 -1.51 -5.93182 0
M  V30 5790 N 537.651 -0.891118 -6.96422 0
M  V30 5791 H 542.491 -1.56589 -2.53542 0
M  V30 5792 H 540.028 -0.782951 -1.24532 0
M  V30 5793 H 541.986 0.307344 -4.16066 0
M  V30 5794 H 540.616 0.794663 -3.12866 0
M  V30 5795 H 539.668 -1.60396 -3.44931 0
M  V30 5796 H 540.98 -1.90221 -4.61104 0
M  V30 5797 H 540.134 -0.0501432 -6.06679 0
M  V30 5798 H 538.873 0.344687 -4.8648 0
M  V30 5799 H 537.878 -1.94331 -5.14311 0
M  V30 5800 H 539.103 -2.33031 -6.37866 0
M  V30 5801 H 537.049 -0.0935753 -6.55933 0
M  V30 5802 H 536.966 -1.61486 -7.38551 0
M  V30 5803 H 538.234 -0.492822 -7.77941 0
M  V30 5804 N 542.463 1.3308 -0.844243 0
M  V30 5805 C 543.879 1.50447 -0.532729 0
M  V30 5806 C 544.079 1.78292 0.938837 0
M  V30 5807 O 543.135 1.84635 1.72239 0
M  V30 5808 C 544.448 2.65555 -1.41072 0
M  V30 5809 C 545.996 2.7944 -1.41005 0
M  V30 5810 C 546.471 3.97616 -2.27301 0
M  V30 5811 N 547.962 4.0486 -2.2504 0
M  V30 5812 C 548.697 4.95508 -2.88547 0
M  V30 5813 N 548.193 5.91236 -3.61126 0
M  V30 5814 N 549.986 4.88548 -2.77989 0
M  V30 5815 H 542.137 1.13269 -1.79677 0
M  V30 5816 H 544.4 0.55734 -0.766861 0
M  V30 5817 H 544.106 2.51675 -2.45668 0
M  V30 5818 H 543.98 3.61089 -1.09061 0
M  V30 5819 H 546.367 2.92749 -0.371784 0
M  V30 5820 H 546.448 1.8465 -1.77026 0
M  V30 5821 H 546.092 3.85066 -3.3119 0
M  V30 5822 H 546.022 4.91661 -1.88619 0
M  V30 5823 H 548.513 3.36353 -1.72264 0
M  V30 5824 H 548.826 6.57079 -4.06776 0
M  V30 5825 H 547.171 5.91295 -3.65234 0
M  V30 5826 H 550.362 4.12729 -2.20846 0
M  V30 5827 H 550.535 5.58994 -3.27765 0
M  V30 5828 N 543.941 0.601185 1.45683 0
M  V30 5829 C 544.889 -0.133955 2.32214 0
M  V30 5830 C 545.883 -0.866034 1.45589 0
M  V30 5831 O 547.089 -0.782326 1.6211 0
M  V30 5832 H 543.464 -0.0620613 0.749435 0
M  V30 5833 H 545.435 0.614389 2.92007 0
M  V30 5834 C 544.184 -1.12216 3.29094 0
M  V30 5835 H 543.507 -0.568273 3.95741 0
M  V30 5836 H 544.947 -1.60659 3.92383 0
M  V30 5837 C 543.406 -2.19251 2.55794 0
M  V30 5838 O 543.936 -3.26894 2.33459 0
M  V30 5839 N 542.142 -1.9436 2.16039 0
M  V30 5840 H 541.689 -1.06829 2.34404 0
M  V30 5841 H 541.647 -2.66181 1.67318 0
M  V30 5842 N 545.419 -1.53889 0.339982 0
M  V30 5843 C 546.668 -2.00035 -0.258604 0
M  V30 5844 C 546.981 -1.23179 -1.51942 0
M  V30 5845 O 548.187 -1.59784 -2.19503 0
M  V30 5846 C 546.643 -3.56249 -0.511359 0
M  V30 5847 C 546.251 -4.41957 0.733349 0
M  V30 5848 C 547.995 -4.1082 -1.069 0
M  V30 5849 C 545.902 -5.89673 0.451591 0
M  V30 5850 H 544.832 -0.747284 -0.10041 0
M  V30 5851 H 547.483 -1.77776 0.454758 0
M  V30 5852 H 545.865 -3.7456 -1.28533 0
M  V30 5853 H 547.039 -4.35421 1.50815 0
M  V30 5854 H 545.354 -3.9836 1.21237 0
M  V30 5855 H 547.951 -5.18789 -1.2947 0
M  V30 5856 H 548.294 -3.63817 -2.02343 0
M  V30 5857 H 548.827 -3.96205 -0.355817 0
M  V30 5858 H 545.566 -6.40903 1.37565 0
M  V30 5859 H 545.086 -5.99122 -0.285193 0
M  V30 5860 H 546.765 -6.46965 0.0675067 0
M  V30 5861 N 546.897 -0.0685191 -1.57451 0
M  V30 5862 C 547.829 0.929372 -2.09512 0
M  V30 5863 C 548.842 1.26354 -1.02657 0
M  V30 5864 O 550.031 1.2213 -1.30179 0
M  V30 5865 C 547.131 2.24612 -2.53777 0
M  V30 5866 C 546.304 2.09128 -3.84167 0
M  V30 5867 C 545.363 3.24079 -4.14559 0
M  V30 5868 O 544.389 2.99215 -4.8421 0
M  V30 5869 N 545.591 4.49077 -3.67845 0
M  V30 5870 H 548.356 0.484901 -2.95751 0
M  V30 5871 H 545.917 0.11729 -1.61475 0
M  V30 5872 H 547.909 3.00412 -2.71172 0
M  V30 5873 H 546.479 2.60569 -1.72692 0
M  V30 5874 H 545.699 1.17815 -3.76182 0
M  V30 5875 H 546.987 1.9603 -4.69521 0
M  V30 5876 H 546.385 4.72165 -3.11571 0
M  V30 5877 H 544.942 5.21915 -3.90446 0
M  V30 5878 N 548.375 1.56261 0.205012 0
M  V30 5879 C 549.307 1.90266 1.27795 0
M  V30 5880 C 550.32 0.792397 1.42214 0
M  V30 5881 O 551.509 1.07077 1.42817 0
M  V30 5882 C 548.609 2.11074 2.65143 0
M  V30 5883 C 547.782 3.42176 2.7246 0
M  V30 5884 C 546.841 3.52216 3.90936 0
M  V30 5885 O 545.867 4.25119 3.78501 0
M  V30 5886 N 547.069 2.84573 5.05963 0
M  V30 5887 H 549.834 2.82896 0.989434 0
M  V30 5888 H 547.395 1.57008 0.394981 0
M  V30 5889 H 549.387 2.15089 3.4281 0
M  V30 5890 H 547.957 1.2499 2.86524 0
M  V30 5891 H 547.177 3.50116 1.81142 0
M  V30 5892 H 548.465 4.28509 2.74331 0
M  V30 5893 H 547.863 2.25152 5.18963 0
M  V30 5894 H 546.42 2.94228 5.81613 0
M  V30 5895 N 549.853 -0.472356 1.50355 0
M  V30 5896 C 551.083 -1.24603 1.64796 0
M  V30 5897 C 551.491 -1.86297 0.330156 0
M  V30 5898 O 550.834 -1.69934 -0.697728 0
M  V30 5899 C 550.896 -2.39578 2.68035 0
M  V30 5900 C 550.56 -1.98531 4.11624 0
M  V30 5901 C 551.557 -1.50856 4.97532 0
M  V30 5902 C 549.242 -2.0729 4.57532 0
M  V30 5903 C 551.236 -1.12481 6.27397 0
M  V30 5904 C 548.923 -1.68527 5.87403 0
M  V30 5905 C 549.921 -1.212 6.7216 0
M  V30 5906 O 549.609 -0.829728 7.99607 0
M  V30 5907 H 549.341 -0.383035 0.55701 0
M  V30 5908 H 551.895 -0.570392 1.97321 0
M  V30 5909 H 550.125 -3.10309 2.30749 0
M  V30 5910 H 551.814 -3.01544 2.71709 0
M  V30 5911 H 552.58 -1.43511 4.63281 0
M  V30 5912 H 548.459 -2.43076 3.91708 0
M  V30 5913 H 552.003 -0.754698 6.93506 0
M  V30 5914 H 547.9 -1.7553 6.21176 0
M  V30 5915 H 548.668 -0.958689 8.12866 0
M  V30 5916 N 551.331 -1.39911 -0.725443 0
M  V30 5917 C 552.279 -1.39552 -1.86086 0
M  V30 5918 C 553.273 -0.277334 -1.67114 0
M  V30 5919 O 554.479 -0.447865 -1.74339 0
M  V30 5920 H 550.854 -0.435993 -0.612711 0
M  V30 5921 H 552.825 -2.35305 -1.83505 0
M  V30 5922 C 551.574 -1.26529 -3.2386 0
M  V30 5923 H 550.897 -2.11845 -3.3906 0
M  V30 5924 H 552.337 -1.30336 -4.03471 0
M  V30 5925 C 550.796 0.0254168 -3.3689 0
M  V30 5926 O 551.326 0.992048 -3.89257 0
M  V30 5927 N 549.532 0.0916528 -2.90455 0
M  V30 5928 H 549.079 -0.695675 -2.48028 0
M  V30 5929 H 549.037 0.954745 -2.99553 0
M  V30 5930 N 552.809 0.956637 -1.25245 0
M  V30 5931 C 554.034 1.74104 -1.12706 0
M  V30 5932 C 554.459 1.85436 0.315429 0
M  V30 5933 O 553.817 1.33334 1.22848 0
M  V30 5934 C 553.865 3.1338 -1.78396 0
M  V30 5935 O 552.969 3.98485 -1.06224 0
M  V30 5936 H 552.31 0.53476 -0.393609 0
M  V30 5937 H 554.84 1.19924 -1.65769 0
M  V30 5938 H 554.85 3.6385 -1.846 0
M  V30 5939 H 553.525 3.04448 -2.83345 0
M  V30 5940 H 552.102 3.56952 -1.07886 0
M  V30 5941 N 554.287 1.06798 1.15896 0
M  V30 5942 C 555.534 0.787767 1.86549 0
M  V30 5943 C 555.862 -0.685959 1.82002 0
M  V30 5944 O 555.117 -1.5188 1.23414 0
M  V30 5945 C 555.416 1.23414 3.35416 0
M  V30 5946 C 555.082 2.71285 3.6016 0
M  V30 5947 C 553.744 3.11676 3.66622 0
M  V30 5948 C 556.096 3.6676 3.7032 0
M  V30 5949 C 553.424 4.4637 3.8075 0
M  V30 5950 C 555.776 5.01209 3.8597 0
M  V30 5951 C 554.44 5.41229 3.90676 0
M  V30 5952 H 553.71 0.288264 0.682631 0
M  V30 5953 H 556.357 1.338 1.37003 0
M  V30 5954 H 554.662 0.60319 3.87129 0
M  V30 5955 H 556.359 0.994298 3.88477 0
M  V30 5956 H 552.949 2.39015 3.55767 0
M  V30 5957 H 557.133 3.36685 3.64633 0
M  V30 5958 H 552.389 4.76855 3.82648 0
M  V30 5959 H 556.563 5.75067 3.92773 0
M  V30 5960 H 554.19 6.45602 4.01375 0
M  V30 5961 N 555.766 -1.3263 0.851289 0
M  V30 5962 C 557.012 -1.9766 0.453694 0
M  V30 5963 C 557.345 -1.67225 -0.987396 0
M  V30 5964 O 556.62 -0.958693 -1.69232 0
M  V30 5965 C 556.903 -3.5344 0.68936 0
M  V30 5966 C 556.756 -3.93517 2.17862 0
M  V30 5967 C 558.075 -4.39866 0.143555 0
M  V30 5968 H 555.194 -0.717989 0.166314 0
M  V30 5969 H 557.836 -1.57068 1.06909 0
M  V30 5970 H 555.986 -3.88147 0.165546 0
M  V30 5971 H 557.658 -3.69006 2.76826 0
M  V30 5972 H 555.901 -3.42798 2.65841 0
M  V30 5973 H 556.572 -5.02065 2.29422 0
M  V30 5974 H 559.048 -4.11875 0.591451 0
M  V30 5975 H 557.924 -5.47858 0.338043 0
M  V30 5976 H 558.185 -4.31696 -0.953466 0
M  V30 5977 N 557.244 -0.608902 -1.45362 0
M  V30 5978 C 558.469 -0.10921 -2.07112 0
M  V30 5979 C 558.894 1.19779 -1.45033 0
M  V30 5980 O 558.252 1.72961 -0.543527 0
M  V30 5981 C 558.3 0.0155745 -3.60597 0
M  V30 5982 O 557.404 1.06546 -3.98399 0
M  V30 5983 H 556.745 -0.0746619 -0.659789 0
M  V30 5984 H 559.275 -0.839283 -1.86594 0
M  V30 5985 H 559.285 0.213364 -4.07442 0
M  V30 5986 H 557.96 -0.938765 -4.05167 0
M  V30 5987 H 556.537 0.844024 -3.63223 0
M  V30 5988 N 558.722 1.53707 -0.348139 0
M  V30 5989 C 559.652 2.28111 0.498766 0
M  V30 5990 C 560.633 1.29851 1.09876 0
M  V30 5991 O 561.818 1.587 1.11928 0
M  V30 5992 C 558.948 3.05735 1.64753 0
M  V30 5993 C 557.902 4.11537 1.17565 0
M  V30 5994 C 557.228 4.77142 2.4133 0
M  V30 5995 C 558.528 5.21587 0.272844 0
M  V30 5996 H 560.222 2.99152 -0.121934 0
M  V30 5997 H 557.768 1.43875 -0.0600842 0
M  V30 5998 H 559.721 3.56526 2.24649 0
M  V30 5999 H 558.445 2.32354 2.2952 0
M  V30 6000 H 557.104 3.61665 0.599483 0
M  V30 6001 H 556.752 4.0035 3.04514 0
M  V30 6002 H 556.452 5.48626 2.10436 0
M  V30 6003 H 557.976 5.30719 3.01943 0
M  V30 6004 H 559.39 5.67986 0.778779 0
M  V30 6005 H 557.787 6.00074 0.0555849 0
M  V30 6006 H 558.857 4.79969 -0.689785 0
M  V30 6007 N 560.2 0.0768682 1.57412 0
M  V30 6008 C 561.425 -0.603404 1.98428 0
M  V30 6009 C 561.85 -1.62047 0.955108 0
M  V30 6010 O 561.208 -1.81129 -0.0786778 0
M  V30 6011 C 561.256 -1.24396 3.38464 0
M  V30 6012 O 560.36 -2.35982 3.3821 0
M  V30 6013 H 559.701 -0.154741 0.645718 0
M  V30 6014 H 562.231 0.152885 2.04028 0
M  V30 6015 H 562.241 -1.5896 3.7576 0
M  V30 6016 H 560.916 -0.498735 4.12899 0
M  V30 6017 H 559.493 -2.03173 3.1269 0
M  V30 6018 N 561.678 -1.56367 -0.196722 0
M  V30 6019 C 562.924 -1.80796 -0.918725 0
M  V30 6020 C 563.257 -0.650645 -1.82976 0
M  V30 6021 O 562.532 0.348889 -1.91345 0
M  V30 6022 C 562.815 -3.15472 -1.73636 0
M  V30 6023 C 562.668 -4.41693 -0.85015 0
M  V30 6024 C 563.987 -3.46824 -2.70927 0
M  V30 6025 H 561.106 -0.657702 -0.332561 0
M  V30 6026 H 563.748 -1.89086 -0.186186 0
M  V30 6027 H 561.898 -3.08536 -2.36088 0
M  V30 6028 H 563.57 -4.60673 -0.240459 0
M  V30 6029 H 561.813 -4.33517 -0.156785 0
M  V30 6030 H 562.484 -5.32419 -1.45719 0
M  V30 6031 H 564.96 -3.54049 -2.18607 0
M  V30 6032 H 563.836 -4.4218 -3.25219 0
M  V30 6033 H 564.097 -2.70236 -3.49893 0
M  V30 6034 O 563.195 0.341958 -1.57838 0
M  V30 6035 H 563.886 0.991482 -1.66401 0
M  V30 END ATOM
M  V30 BEGIN BOND
M  V30 END BOND
M  V30 END CTAB
M  END
$$$$
