drugbank_target|P35754 Glutaredoxin-1 (DB00143)
 OpenBabel12092120083D

  0  0  0     0  0            999 V3000
M  V30 BEGIN CTAB
M  V30 COUNTS 1680 1691 0 0 0
M  V30 BEGIN ATOM
M  V30 1 H -0.908 1.98254 -0.117106 0
M  V30 2 N 0 1.576 0 0
M  V30 3 C 0.933 2.03868 1.02534 0
M  V30 4 C 1.911 0.928543 1.3348 0
M  V30 5 O 3.095 1.19667 1.45644 0
M  V30 6 C 0.222 2.43627 2.35294 0
M  V30 7 C -0.732 3.65373 2.2001 0
M  V30 8 S 0.101 5.13292 1.52614 0
M  V30 9 C 1.257 5.56322 2.86805 0
M  V30 10 H 1.49 2.90518 0.631377 0
M  V30 11 H -0.977 1.52953 0.210867 0
M  V30 12 H 0.981 2.67203 3.11629 0
M  V30 13 H -0.358 1.57376 2.7183 0
M  V30 14 H -1.165 3.90944 3.18086 0
M  V30 15 H -1.563 3.418 1.51819 0
M  V30 16 H 0.729 5.58782 3.83104 0
M  V30 17 H 1.672 6.56266 2.65933 0
M  V30 18 H 2.08 4.83886 2.90714 0
M  V30 19 N 1.4781 -0.272755 1.55222 0
M  V30 20 C 2.4411 -1.32041 1.87344 0
M  V30 21 C 3.4411 -1.42342 0.74803 0
M  V30 22 O 4.6311 -1.41488 1.0162 0
M  V30 23 C 1.7631 -2.70173 2.07893 0
M  V30 24 H 2.9561 -1.04789 2.80997 0
M  V30 25 H 0.5091 -0.51083 1.47717 0
M  V30 26 H 1.2441 -3.02605 1.16622 0
M  V30 27 H 1.0291 -2.64082 2.89833 0
M  V30 28 H 2.5191 -3.45869 2.34017 0
M  V30 29 N 2.9562 -1.48159 -0.537278 0
M  V30 30 C 3.8882 -1.58218 -1.65831 0
M  V30 31 C 4.9012 -0.466948 -1.5596 0
M  V30 32 O 6.0902 -0.73747 -1.62553 0
M  V30 33 C 3.1902 -1.48906 -3.04434 0
M  V30 34 C 2.3632 -2.75343 -3.3986 0
M  V30 35 C 1.4222 -2.59588 -4.57712 0
M  V30 36 O 0.4482 -3.33457 -4.61297 0
M  V30 37 N 1.6502 -1.68724 -5.55439 0
M  V30 38 H 4.4152 -2.54891 -1.57641 0
M  V30 39 H 1.9762 -1.4479 -0.724386 0
M  V30 40 H 3.9682 -1.36072 -3.81139 0
M  V30 41 H 2.5382 -0.602368 -3.06741 0
M  V30 42 H 1.7582 -3.02795 -2.52406 0
M  V30 43 H 3.0462 -3.5924 -3.60311 0
M  V30 44 H 2.4442 -1.07898 -5.55315 0
M  V30 45 H 1.0012 -1.61832 -6.3139 0
M  V30 46 N 4.4343 0.785586 -1.36625 0
M  V30 47 C 5.3443 1.92964 -1.33425 0
M  V30 48 C 6.3603 1.72394 -0.235851 0
M  V30 49 O 7.5363 1.95866 -0.468878 0
M  V30 50 C 4.6013 3.27884 -1.12662 0
M  V30 51 C 3.6623 3.61204 -2.32013 0
M  V30 52 C 2.8953 4.89687 -2.12231 0
M  V30 53 O 3.1183 5.59704 -1.09945 0
M  V30 54 O 2.0523 5.21752 -3.00098 0
M  V30 55 H 5.8783 1.98613 -2.29753 0
M  V30 56 H 3.4633 0.926384 -1.17211 0
M  V30 57 H 5.3453 4.08614 -1.03016 0
M  V30 58 H 4.0203 3.23118 -0.193991 0
M  V30 59 H 2.9273 2.80765 -2.47228 0
M  V30 60 H 4.2603 3.70698 -3.23796 0
M  V30 61 N 5.9124 1.20967 1.01018 0
M  V30 62 C 7.1594 1.02374 1.74716 0
M  V30 63 C 7.4874 -0.443375 1.89379 0
M  V30 64 O 6.7424 -1.34535 1.42123 0
M  V30 65 C 7.0414 1.65997 3.16512 0
M  V30 66 C 6.7074 3.15831 3.2181 0
M  V30 67 C 5.3694 3.56719 3.22963 0
M  V30 68 C 7.7214 4.11816 3.19464 0
M  V30 69 C 5.0494 4.92107 3.19449 0
M  V30 70 C 7.4014 5.47158 3.17491 0
M  V30 71 C 6.0654 5.87451 3.16951 0
M  V30 72 H 5.3354 0.374614 0.639332 0
M  V30 73 H 7.9824 1.50485 1.18434 0
M  V30 74 H 6.2874 1.10166 3.75993 0
M  V30 75 H 7.9844 1.49119 3.72242 0
M  V30 76 H 4.5744 2.83263 3.21652 0
M  V30 77 H 8.7584 3.81257 3.17737 0
M  V30 78 H 4.0144 5.22579 3.17366 0
M  V30 79 H 8.1884 6.21274 3.14629 0
M  V30 80 H 5.8154 6.92329 3.13983 0
M  V30 81 N 7.3905 -1.2043 1.01659 0
M  V30 82 C 8.6365 -1.90079 0.706963 0
M  V30 83 C 8.9695 -1.78648 -0.761474 0
M  V30 84 O 8.2445 -1.17069 -1.55323 0
M  V30 85 C 8.5275 -3.41469 1.14327 0
M  V30 86 C 8.3805 -3.61833 2.67201 0
M  V30 87 C 9.6995 -4.34261 0.714529 0
M  V30 88 H 6.8185 -0.690254 0.2583 0
M  V30 89 H 9.4605 -1.41826 1.26433 0
M  V30 90 H 7.6105 -3.82696 0.669056 0
M  V30 91 H 9.2825 -3.2986 3.22475 0
M  V30 92 H 7.5255 -3.05304 3.08175 0
M  V30 93 H 8.1965 -4.67955 2.92783 0
M  V30 94 H 10.6725 -4.00682 1.12221 0
M  V30 95 H 9.5485 -5.38806 1.04784 0
M  V30 96 H 9.8095 -4.40431 -0.383799 0
M  V30 97 N 8.8686 -0.792821 -1.36206 0
M  V30 98 C 9.8166 -0.181555 -2.3189 0
M  V30 99 C 10.8106 0.661025 -1.55971 0
M  V30 100 O 12.0166 0.555728 -1.71206 0
M  V30 101 H 8.3916 -0.0399382 -0.750939 0
M  V30 102 H 10.3626 -1.00394 -2.81005 0
M  V30 103 C 9.1116 0.666444 -3.41253 0
M  V30 104 H 8.4346 0.0274489 -3.99791 0
M  V30 105 H 9.8746 1.06076 -4.10517 0
M  V30 106 C 8.3336 1.82614 -2.83114 0
M  V30 107 O 8.8636 2.9229 -2.75553 0
M  V30 108 N 7.0696 1.63333 -2.40356 0
M  V30 109 H 6.6166 0.741217 -2.46706 0
M  V30 110 H 6.5746 2.41087 -2.01803 0
M  V30 111 N 10.3467 1.47872 -0.545128 0
M  V30 112 C 11.5867 2.04391 -0.0187854 0
M  V30 113 C 11.9507 1.41162 1.30144 0
M  V30 114 O 13.1517 1.88656 1.91474 0
M  V30 115 C 11.4227 3.57299 0.0850867 0
M  V30 116 S 12.9817 4.35221 0.559302 0
M  V30 117 H 9.7997 0.710737 -0.0193301 0
M  V30 118 H 12.4017 1.81395 -0.729125 0
M  V30 119 H 11.1057 4.00847 -0.880351 0
M  V30 120 H 10.6367 3.84773 0.819348 0
M  V30 121 H 12.6517 4.61571 1.82118 0
M  V30 122 N 11.8248 0.280983 1.55075 0
M  V30 123 C 12.7718 -0.603937 2.22758 0
M  V30 124 C 13.7418 -1.1452 1.20309 0
M  V30 125 O 14.9268 -1.19343 1.48869 0
M  V30 126 C 12.0668 -1.77947 2.95684 0
M  V30 127 C 11.1798 -1.2715 4.12864 0
M  V30 128 C 10.3148 -2.4093 4.7342 0
M  V30 129 C 9.3538 -1.87165 5.82783 0
M  V30 130 N 8.4908 -2.94441 6.37377 0
M  V30 131 H 13.3308 -0.020124 2.97993 0
M  V30 132 H 10.8678 0.00183425 1.471 0
M  V30 133 H 12.8258 -2.47055 3.36184 0
M  V30 134 H 11.4558 -2.33522 2.22861 0
M  V30 135 H 10.5078 -0.473331 3.77444 0
M  V30 136 H 11.8198 -0.837751 4.91715 0
M  V30 137 H 10.9738 -3.18021 5.1667 0
M  V30 138 H 9.7128 -2.87623 3.93859 0
M  V30 139 H 8.7178 -1.08556 5.38976 0
M  V30 140 H 9.9428 -1.41401 6.64216 0
M  V30 141 H 7.8888 -3.40505 5.60707 0
M  V30 142 H 7.8058 -2.55501 7.11516 0
M  V30 143 H 9.0738 -3.71489 6.85285 0
M  V30 144 N 13.3029 -1.57598 0.00835791 0
M  V30 145 C 14.5519 -1.90107 -0.673968 0
M  V30 146 C 14.8649 -0.884275 -1.7447 0
M  V30 147 O 16.0709 -1.09987 -2.48224 0
M  V30 148 C 14.5269 -3.37497 -1.24995 0
M  V30 149 C 14.1349 -4.47491 -0.2136 0
M  V30 150 C 15.8789 -3.79104 -1.90999 0
M  V30 151 C 13.7859 -5.85963 -0.80005 0
M  V30 152 H 12.7159 -0.709393 -0.255495 0
M  V30 153 H 15.3669 -1.83365 0.0702693 0
M  V30 154 H 13.7489 -3.39102 -2.04513 0
M  V30 155 H 14.9229 -4.57414 0.557596 0
M  V30 156 H 13.2379 -4.14956 0.346474 0
M  V30 157 H 15.8349 -4.79901 -2.35795 0
M  V30 158 H 16.1779 -3.1306 -2.74407 0
M  V30 159 H 16.7109 -3.79833 -1.18203 0
M  V30 160 H 13.4499 -6.555 -0.00456708 0
M  V30 161 H 12.9699 -5.79687 -1.54021 0
M  V30 162 H 14.6489 -6.33884 -1.29615 0
M  V30 163 N 14.781 0.264519 -1.55364 0
M  V30 164 C 15.713 1.34965 -1.85248 0
M  V30 165 C 16.726 1.45136 -0.737525 0
M  V30 166 O 17.915 1.46801 -1.01547 0
M  V30 167 C 15.015 2.73008 -2.00797 0
M  V30 168 C 14.188 2.85324 -3.31525 0
M  V30 169 C 13.247 4.04097 -3.37034 0
M  V30 170 O 12.273 3.94455 -4.10358 0
M  V30 171 N 13.475 5.16458 -2.65049 0
M  V30 172 H 16.24 1.09672 -2.78913 0
M  V30 173 H 13.801 0.454635 -1.55386 0
M  V30 174 H 15.793 3.50772 -2.01844 0
M  V30 175 H 14.363 2.91087 -1.1396 0
M  V30 176 H 13.583 1.94377 -3.42945 0
M  V30 177 H 14.871 2.9049 -4.17724 0
M  V30 178 H 14.269 5.27181 -2.05175 0
M  V30 179 H 12.826 5.92422 -2.71809 0
M  V30 180 N 16.2591 1.48442 0.529413 0
M  V30 181 C 17.6701 1.5002 1.11134 0
M  V30 182 C 18.0211 0.27031 1.94329 0
M  V30 183 O 17.1461 -0.622507 2.07253 0
M  V30 184 C 17.7411 2.71834 2.02217 0
M  V30 185 C 16.3001 2.76283 2.55627 0
M  V30 186 C 15.4471 2.43542 1.326 0
M  V30 187 H 18.3981 1.5555 0.314641 0
M  V30 188 H 18.4191 2.50384 2.8651 0
M  V30 189 H 17.9311 3.61331 1.41639 0
M  V30 190 H 16.0321 1.90995 3.19924 0
M  V30 191 H 16.1451 3.77725 2.94721 0
M  V30 192 H 14.5091 1.94709 1.64196 0
M  V30 193 H 15.2921 3.3528 0.737734 0
M  V30 194 N 17.7372 -0.778329 1.37039 0
M  V30 195 C 18.9852 -1.53361 1.31623 0
M  V30 196 C 19.3062 -1.94739 -0.100831 0
M  V30 197 O 18.5762 -1.65797 -1.04347 0
M  V30 198 H 17.1562 -0.568794 0.484234 0
M  V30 199 H 19.8182 -0.926742 1.71457 0
M  V30 200 H 18.9142 -2.43606 1.95096 0
M  V30 201 N 19.2153 -1.21501 -1.00376 0
M  V30 202 C 20.1623 -0.975387 -2.09177 0
M  V30 203 C 21.1323 0.0990615 -1.65804 0
M  V30 204 O 22.3173 -0.0483147 -1.90739 0
M  V30 205 C 19.4573 -0.547507 -3.40729 0
M  V30 206 C 18.5703 -1.69153 -3.97506 0
M  V30 207 C 17.7053 -1.2127 -5.17172 0
M  V30 208 C 16.7443 -2.32897 -5.66061 0
M  V30 209 N 15.8813 -1.86138 -6.76976 0
M  V30 210 H 20.7213 -1.9068 -2.29009 0
M  V30 211 H 18.2583 -0.950257 -1.12288 0
M  V30 212 H 20.2163 -0.280667 -4.16255 0
M  V30 213 H 18.8463 0.346904 -3.20931 0
M  V30 214 H 17.8983 -2.07298 -3.18954 0
M  V30 215 H 19.2103 -2.5316 -4.29781 0
M  V30 216 H 18.3643 -0.902591 -5.99948 0
M  V30 217 H 17.1033 -0.342692 -4.86495 0
M  V30 218 H 16.1083 -2.64709 -4.81881 0
M  V30 219 H 17.3333 -3.20396 -5.98768 0
M  V30 220 H 15.2793 -1.01484 -6.48103 0
M  V30 221 H 15.1963 -2.63717 -7.08512 0
M  V30 222 H 16.4643 -1.58165 -7.63285 0
M  V30 223 N 20.6934 1.19889 -1.02296 0
M  V30 224 C 21.9394 1.89701 -0.717033 0
M  V30 225 C 22.2724 1.7905 0.751989 0
M  V30 226 O 21.5474 1.17891 1.547 0
M  V30 227 C 21.8304 3.40858 -1.16136 0
M  V30 228 C 21.6834 3.60411 -2.69117 0
M  V30 229 C 23.0024 4.33876 -0.737549 0
M  V30 230 H 20.1214 0.688874 -0.261957 0
M  V30 231 H 22.7634 1.41154 -1.27183 0
M  V30 232 H 20.9134 3.82335 -0.689342 0
M  V30 233 H 22.5854 3.28145 -3.2422 0
M  V30 234 H 20.8284 3.03665 -3.0979 0
M  V30 235 H 21.4994 4.66396 -2.95261 0
M  V30 236 H 23.9754 4.00081 -1.14344 0
M  V30 237 H 22.8514 5.38242 -1.0764 0
M  V30 238 H 23.1124 4.40628 0.360436 0
M  V30 239 N 22.1715 0.800033 1.35784 0
M  V30 240 C 23.4175 0.377901 1.99248 0
M  V30 241 C 23.7505 -1.05052 1.63333 0
M  V30 242 O 23.0255 -1.72768 0.893385 0
M  V30 243 C 23.3085 0.553922 3.55814 0
M  V30 244 C 23.1615 2.0268 4.01548 0
M  V30 245 C 24.4805 -0.0244802 4.40093 0
M  V30 246 H 21.5995 0.138782 0.723815 0
M  V30 247 H 24.2415 1.00835 1.61035 0
M  V30 248 H 22.3915 0.0172398 3.88496 0
M  V30 249 H 24.0635 2.62536 3.79305 0
M  V30 250 H 22.3065 2.5256 3.52698 0
M  V30 251 H 22.9775 2.10087 5.10458 0
M  V30 252 H 25.4535 0.433775 4.13833 0
M  V30 253 H 24.3295 0.128637 5.48749 0
M  V30 254 H 24.5905 -1.11758 4.27741 0
M  V30 255 N 23.6496 -1.47581 0.552962 0
M  V30 256 C 24.8956 -2.02782 0.0273648 0
M  V30 257 C 25.2286 -1.42687 -1.31734 0
M  V30 258 O 24.5036 -0.580897 -1.85623 0
M  V30 259 C 24.7866 -3.60031 -0.0702371 0
M  V30 260 C 24.6396 -4.30566 1.30126 0
M  V30 261 C 25.9586 -4.33028 -0.785771 0
M  V30 262 H 23.0776 -0.736912 0.0114185 0
M  V30 263 H 25.7196 -1.76056 0.714432 0
M  V30 264 H 23.8696 -3.82932 -0.655382 0
M  V30 265 H 25.5416 -4.19018 1.92929 0
M  V30 266 H 23.7846 -3.91086 1.87709 0
M  V30 267 H 24.4556 -5.39114 1.18573 0
M  V30 268 H 26.9316 -4.15095 -0.288982 0
M  V30 269 H 25.8076 -5.42695 -0.823013 0
M  V30 270 H 26.0686 -4.01945 -1.841 0
M  V30 271 N 25.1277 -0.289203 -1.54924 0
M  V30 272 C 26.3747 0.323519 -1.99899 0
M  V30 273 C 26.7027 1.54797 -1.17762 0
M  V30 274 O 25.9577 1.94237 -0.238835 0
M  V30 275 C 26.2567 0.736119 -3.49737 0
M  V30 276 C 25.9227 -0.385276 -4.49251 0
M  V30 277 C 24.5847 -0.693156 -4.76181 0
M  V30 278 C 26.9367 -1.14021 -5.08575 0
M  V30 279 C 24.2647 -1.7593 -5.59701 0
M  V30 280 C 26.6167 -2.19619 -5.93254 0
M  V30 281 C 25.2807 -2.51026 -6.185 0
M  V30 282 H 24.5507 0.118384 -0.731482 0
M  V30 283 H 27.1977 -0.405847 -1.8715 0
M  V30 284 H 25.5027 1.54539 -3.60035 0
M  V30 285 H 27.1997 1.22118 -3.81953 0
M  V30 286 H 23.7897 -0.135202 -4.28387 0
M  V30 287 H 27.9737 -0.915611 -4.87781 0
M  V30 288 H 23.2297 -2.0075 -5.77503 0
M  V30 289 H 27.4037 -2.78581 -6.38252 0
M  V30 290 H 25.0307 -3.33772 -6.83008 0
M  V30 291 N 26.6058 1.57591 -0.0167156 0
M  V30 292 C 27.8548 1.90461 0.663877 0
M  V30 293 C 28.1678 0.893515 1.73999 0
M  V30 294 O 29.3738 1.11302 2.47637 0
M  V30 295 C 27.8298 3.38155 1.23204 0
M  V30 296 C 27.4378 4.47597 0.189866 0
M  V30 297 C 29.1818 3.80111 1.88986 0
M  V30 298 C 27.0888 5.86379 0.768964 0
M  V30 299 H 26.0188 0.710738 0.251729 0
M  V30 300 H 28.6698 1.83326 -0.0799926 0
M  V30 301 H 27.0518 3.40182 2.02712 0
M  V30 302 H 28.2258 4.57112 -0.581846 0
M  V30 303 H 26.5408 4.14766 -0.368475 0
M  V30 304 H 29.1378 4.81145 2.33247 0
M  V30 305 H 29.4808 3.14511 2.72743 0
M  V30 306 H 30.0138 3.80454 1.16187 0
M  V30 307 H 26.7528 6.55493 -0.0301957 0
M  V30 308 H 26.2728 5.80496 1.50945 0
M  V30 309 H 27.9518 6.34563 1.26251 0
M  V30 310 N 28.0839 -0.256276 1.55502 0
M  V30 311 C 29.0309 -1.31714 1.89526 0
M  V30 312 C 30.0009 -1.4828 0.748479 0
M  V30 313 O 31.1859 -1.62416 1.00128 0
M  V30 314 C 28.3259 -2.66933 2.18725 0
M  V30 315 C 27.4389 -2.58452 3.4616 0
M  V30 316 C 26.5739 -3.85961 3.64976 0
M  V30 317 C 25.6129 -3.72059 4.86044 0
M  V30 318 N 24.7499 -4.9144 5.01429 0
M  V30 319 H 29.5899 -1.01998 2.80001 0
M  V30 320 H 27.1269 -0.492413 1.38613 0
M  V30 321 H 29.0849 -3.4563 2.33657 0
M  V30 322 H 27.7149 -2.94816 1.31466 0
M  V30 323 H 26.7669 -1.71374 3.3961 0
M  V30 324 H 28.0789 -2.44085 4.34999 0
M  V30 325 H 27.2329 -4.73101 3.79816 0
M  V30 326 H 25.9719 -4.03215 2.74353 0
M  V30 327 H 24.9769 -2.83302 4.7119 0
M  V30 328 H 26.2019 -3.56309 5.78118 0
M  V30 329 H 24.1479 -5.09072 4.13741 0
M  V30 330 H 24.0649 -4.79668 5.84341 0
M  V30 331 H 25.3329 -5.80104 5.20672 0
M  V30 332 N 29.562 -1.4872 -0.521534 0
M  V30 333 C 30.973 -1.50607 -1.10337 0
M  V30 334 C 31.324 -0.280612 -1.94183 0
M  V30 335 O 30.449 0.611507 -2.0758 0
M  V30 336 C 31.044 -2.72903 -2.00772 0
M  V30 337 C 29.603 -2.77634 -2.54158 0
M  V30 338 C 28.75 -2.44241 -1.31307 0
M  V30 339 H 31.701 -1.55714 -0.306388 0
M  V30 340 H 31.722 -2.519 -2.85178 0
M  V30 341 H 31.234 -3.62077 -1.39721 0
M  V30 342 H 29.335 -1.92689 -3.18907 0
M  V30 343 H 29.448 -3.79283 -2.92714 0
M  V30 344 H 27.812 -1.95577 -1.63161 0
M  V30 345 H 28.595 -3.35666 -0.719943 0
M  V30 346 N 31.0401 0.771051 -1.3745 0
M  V30 347 C 32.2681 1.56015 -1.35893 0
M  V30 348 C 32.6831 1.88718 0.0555523 0
M  V30 349 O 32.0401 1.51502 1.01752 0
M  V30 350 C 32.0911 2.87001 -2.19801 0
M  V30 351 O 31.8121 2.557 -3.55738 0
M  V30 352 C 33.3131 3.81228 -2.26231 0
M  V30 353 H 30.5331 0.483317 -0.465453 0
M  V30 354 H 33.0771 0.955611 -1.80799 0
M  V30 355 H 31.2321 3.43877 -1.78402 0
M  V30 356 H 31.6461 3.39584 -3.99729 0
M  V30 357 H 33.1201 4.70139 -2.89263 0
M  V30 358 H 33.5971 4.20409 -1.27093 0
M  V30 359 H 34.2031 3.30281 -2.67945 0
M  V30 360 N 32.5182 1.22032 0.997298 0
M  V30 361 C 33.7582 1.05375 1.75144 0
M  V30 362 C 34.1222 -0.404696 1.87686 0
M  V30 363 O 35.3232 -0.691998 2.5974 0
M  V30 364 C 33.5942 1.74046 3.12158 0
M  V30 365 S 35.1532 1.72745 4.03366 0
M  V30 366 H 31.9712 0.377449 0.602539 0
M  V30 367 H 34.5732 1.54902 1.19272 0
M  V30 368 H 33.2772 2.79332 3.00669 0
M  V30 369 H 32.8082 1.24731 3.73103 0
M  V30 370 H 34.8232 0.774015 4.90126 0
M  V30 371 N 33.9963 -1.19345 1.0293 0
M  V30 372 C 35.4073 -1.70725 0.755633 0
M  V30 373 C 35.7583 -1.82326 -0.724676 0
M  V30 374 O 34.8833 -1.49471 -1.56484 0
M  V30 375 C 35.4783 -3.10084 1.36503 0
M  V30 376 C 34.0373 -3.58723 1.13994 0
M  V30 377 C 33.1843 -2.35577 1.46283 0
M  V30 378 H 36.1353 -1.0418 1.19718 0
M  V30 379 H 36.1563 -3.72787 0.762217 0
M  V30 380 H 35.6683 -3.01609 2.44241 0
M  V30 381 H 33.7693 -3.72512 0.0807901 0
M  V30 382 H 33.8823 -4.42816 1.82894 0
M  V30 383 H 32.2463 -2.38935 0.88217 0
M  V30 384 H 33.0293 -2.29731 2.55105 0
M  V30 385 N 35.4744 -0.807222 -1.35358 0
M  V30 386 C 36.7044 -0.399796 -2.02695 0
M  V30 387 C 37.1124 0.994176 -1.60974 0
M  V30 388 O 36.4554 1.65209 -0.803226 0
M  V30 389 C 36.5174 -0.404445 -3.57218 0
M  V30 390 C 36.1814 -1.74904 -4.22206 0
M  V30 391 C 37.1784 -2.70743 -4.4384 0
M  V30 392 C 34.8634 -2.03322 -4.5931 0
M  V30 393 C 36.8574 -3.93183 -5.01683 0
M  V30 394 C 34.5444 -3.26026 -5.16866 0
M  V30 395 C 35.5424 -4.20774 -5.37994 0
M  V30 396 O 35.2304 -5.41312 -5.94337 0
M  V30 397 H 34.9624 -0.160517 -0.656666 0
M  V30 398 H 37.5164 -1.09235 -1.73945 0
M  V30 399 H 35.7464 0.344707 -3.85161 0
M  V30 400 H 37.4354 -0.0192429 -4.05895 0
M  V30 401 H 38.2014 -2.5008 -4.15554 0
M  V30 402 H 34.0804 -1.30384 -4.42178 0
M  V30 403 H 37.6244 -4.6715 -5.1809 0
M  V30 404 H 33.5214 -3.46559 -5.44579 0
M  V30 405 H 34.2894 -5.42618 -6.12787 0
M  V30 406 N 36.9525 1.47285 -0.560781 0
M  V30 407 C 38.1925 2.0436 -0.0404627 0
M  V30 408 C 38.5565 1.42534 1.28639 0
M  V30 409 O 39.7575 1.90677 1.89462 0
M  V30 410 C 38.0285 3.57369 0.0471856 0
M  V30 411 S 39.5875 4.3579 0.513109 0
M  V30 412 H 36.4055 0.710492 -0.0268674 0
M  V30 413 H 39.0075 1.80611 -0.748323 0
M  V30 414 H 37.7115 3.9989 -0.922817 0
M  V30 415 H 37.2425 3.8562 0.778491 0
M  V30 416 H 39.2575 4.63476 1.77212 0
M  V30 417 N 38.4306 0.297415 1.54768 0
M  V30 418 C 39.8466 -0.0560823 1.59501 0
M  V30 419 C 40.0466 -1.52725 1.31444 0
M  V30 420 O 39.1026 -2.27947 1.08611 0
M  V30 421 C 40.4156 0.338631 2.98787 0
M  V30 422 C 41.9636 0.287097 3.11681 0
M  V30 423 C 42.4386 0.656579 4.53269 0
M  V30 424 N 43.9296 0.608977 4.59179 0
M  V30 425 C 44.6646 0.867385 5.66802 0
M  V30 426 N 44.1606 1.19157 6.82476 0
M  V30 427 N 45.9536 0.794687 5.56454 0
M  V30 428 H 38.1046 1.25624 1.71267 0
M  V30 429 H 40.3676 0.509057 0.799728 0
M  V30 430 H 40.0736 1.36263 3.2423 0
M  V30 431 H 39.9476 -0.309508 3.75928 0
M  V30 432 H 42.3346 -0.727649 2.85988 0
M  V30 433 H 42.4156 0.969809 2.36703 0
M  V30 434 H 42.0596 1.66912 4.7969 0
M  V30 435 H 41.9896 -0.0481649 5.26578 0
M  V30 436 H 44.4806 0.369198 3.76092 0
M  V30 437 H 44.7936 1.37482 7.60473 0
M  V30 438 H 43.1386 1.22958 6.84037 0
M  V30 439 H 46.3296 0.541098 4.64962 0
M  V30 440 H 46.5026 0.999445 6.40246 0
M  V30 441 N 39.9087 -1.5758 0.0250728 0
M  V30 442 C 41.3247 -1.56124 -0.331282 0
M  V30 443 C 41.5247 -1.03029 -1.73169 0
M  V30 444 O 40.5807 -0.675215 -2.43305 0
M  V30 445 C 41.8937 -3.00139 -0.183584 0
M  V30 446 C 43.4417 -3.11946 -0.256654 0
M  V30 447 C 43.9167 -4.57793 -0.137792 0
M  V30 448 N 45.4077 -4.6279 -0.194904 0
M  V30 449 C 46.1427 -5.7326 -0.126655 0
M  V30 450 N 45.6387 -6.928 -0.00755288 0
M  V30 451 N 47.4317 -5.61811 -0.180348 0
M  V30 452 H 39.5827 -1.90424 0.94087 0
M  V30 453 H 41.8457 -0.875761 0.362968 0
M  V30 454 H 41.5517 -3.4292 0.780927 0
M  V30 455 H 41.4257 -3.64899 -0.955448 0
M  V30 456 H 43.8127 -2.69079 -1.21162 0
M  V30 457 H 43.8937 -2.49915 0.545517 0
M  V30 458 H 43.5377 -5.01339 0.813739 0
M  V30 459 H 43.4677 -5.17798 -0.958775 0
M  V30 460 H 45.9587 -3.76807 -0.287267 0
M  V30 461 H 46.2717 -7.72791 0.0379428 0
M  V30 462 H 44.6167 -6.94995 0.0271731 0
M  V30 463 H 47.8077 -4.6731 -0.271767 0
M  V30 464 H 47.9807 -6.47882 -0.123697 0
M  V30 465 N 41.3868 0.248026 -1.55636 0
M  V30 466 C 42.3498 1.29044 -1.89421 0
M  V30 467 C 43.3498 1.41134 -0.770581 0
M  V30 468 O 44.5398 1.39854 -1.03858 0
M  V30 469 C 41.6718 2.66831 -2.12165 0
M  V30 470 H 42.8648 1.00305 -2.82629 0
M  V30 471 H 40.4178 0.487265 -1.48511 0
M  V30 472 H 41.1528 3.00711 -1.21422 0
M  V30 473 H 40.9378 2.59438 -2.93997 0
M  V30 474 H 42.4278 3.42103 -2.3949 0
M  V30 475 N 42.8649 1.48995 0.513639 0
M  V30 476 C 43.7969 1.60836 1.63293 0
M  V30 477 C 44.8099 0.491701 1.55197 0
M  V30 478 O 45.9989 0.763238 1.6136 0
M  V30 479 C 43.0989 1.53731 3.02027 0
M  V30 480 C 42.2719 2.80715 3.35437 0
M  V30 481 C 41.3309 2.66837 4.53525 0
M  V30 482 O 40.3569 3.40753 4.55934 0
M  V30 483 N 41.5589 1.77539 5.52684 0
M  V30 484 H 44.3239 2.57366 1.53566 0
M  V30 485 H 41.8849 1.45925 0.701259 0
M  V30 486 H 43.8769 1.42118 3.78926 0
M  V30 487 H 42.4469 0.651092 3.05744 0
M  V30 488 H 41.6669 3.06772 2.47557 0
M  V30 489 H 42.9549 3.64927 3.54551 0
M  V30 490 H 42.3529 1.16719 5.53528 0
M  V30 491 H 40.9099 1.71856 6.28736 0
M  V30 492 N 44.343 -0.763751 1.37857 0
M  V30 493 C 45.253 -1.90817 1.36478 0
M  V30 494 C 46.269 -1.71997 0.263248 0
M  V30 495 O 47.445 -1.95095 0.499979 0
M  V30 496 C 44.51 -3.2605 1.17864 0
M  V30 497 C 43.571 -3.57467 2.3773 0
M  V30 498 C 42.804 -4.86249 2.19995 0
M  V30 499 O 43.027 -5.57884 1.18836 0
M  V30 500 O 41.961 -5.16911 3.08361 0
M  V30 501 H 45.787 -1.94933 2.32884 0
M  V30 502 H 43.372 -0.907619 1.1867 0
M  V30 503 H 45.254 -4.06924 1.09504 0
M  V30 504 H 43.929 -3.22769 0.245372 0
M  V30 505 H 42.836 -2.76796 2.51664 0
M  V30 506 H 44.169 -3.655 3.29652 0
M  V30 507 N 45.8211 -1.22559 -0.990812 0
M  V30 508 C 47.0701 -1.04553 -1.72486 0
M  V30 509 C 47.3831 0.419349 -1.91052 0
M  V30 510 O 48.5891 0.719121 -2.61803 0
M  V30 511 C 47.0451 -1.82231 -3.10355 0
M  V30 512 C 46.6531 -3.32981 -2.99713 0
M  V30 513 C 48.3971 -1.7268 -3.87791 0
M  V30 514 C 46.3041 -4.03091 -4.32748 0
M  V30 515 H 45.2341 -0.387614 -0.646739 0
M  V30 516 H 47.8851 -1.46429 -1.10593 0
M  V30 517 H 46.2671 -1.33155 -3.72942 0
M  V30 518 H 47.4411 -3.89466 -2.46278 0
M  V30 519 H 45.7561 -3.43231 -2.35758 0
M  V30 520 H 48.3531 -2.22381 -4.86262 0
M  V30 521 H 48.6961 -0.687607 -4.10582 0
M  V30 522 H 49.2291 -2.1931 -3.31885 0
M  V30 523 H 45.9681 -5.07273 -4.15156 0
M  V30 524 H 45.4881 -3.51394 -4.86089 0
M  V30 525 H 47.1671 -4.08804 -5.01486 0
M  V30 526 N 47.2992 1.18797 -1.03562 0
M  V30 527 C 48.2292 2.24472 -0.643019 0
M  V30 528 C 49.2102 1.66433 0.351283 0
M  V30 529 O 50.3952 1.92803 0.232505 0
M  V30 530 C 47.5252 3.473 4.24935e-05 0
M  V30 531 C 46.4792 4.18055 -0.917257 0
M  V30 532 C 45.8052 5.34519 -0.138941 0
M  V30 533 C 47.1052 4.72109 -2.23407 0
M  V30 534 H 48.7992 2.57566 -1.52643 0
M  V30 535 H 46.3452 1.23806 -0.735394 0
M  V30 536 H 48.2982 4.20426 0.286383 0
M  V30 537 H 47.0222 3.13424 0.918299 0
M  V30 538 H 45.6812 3.46821 -1.1879 0
M  V30 539 H 45.3292 4.96891 0.781562 0
M  V30 540 H 45.0292 5.82794 -0.750005 0
M  V30 541 H 46.5532 6.10438 0.1405 0
M  V30 542 H 47.9672 5.36955 -2.00879 0
M  V30 543 H 46.3642 5.30897 -2.79765 0
M  V30 544 H 47.4342 3.89807 -2.88407 0
M  V30 545 N 48.7773 0.814389 1.34928 0
M  V30 546 C 50.0023 0.410097 2.03305 0
M  V30 547 C 50.4273 -0.973464 1.60951 0
M  V30 548 O 49.7853 -1.63185 0.789964 0
M  V30 549 C 49.8333 0.51049 3.56968 0
M  V30 550 O 48.9373 -0.473035 4.09678 0
M  V30 551 H 48.2783 0.170088 0.641846 0
M  V30 552 H 50.8083 1.10244 1.72358 0
M  V30 553 H 50.8183 0.383135 4.06197 0
M  V30 554 H 49.4933 1.51963 3.87144 0
M  V30 555 H 48.0703 -0.305272 3.71648 0
M  V30 556 N 50.2554 -1.46986 0.568584 0
M  V30 557 C 51.1874 -2.28233 -0.210337 0
M  V30 558 C 52.2004 -1.37682 -0.868767 0
M  V30 559 O 53.3894 -1.62406 -0.740705 0
M  V30 560 C 50.4894 -3.12293 -1.3163 0
M  V30 561 C 49.6624 -4.30878 -0.7525 0
M  V30 562 C 48.7214 -4.96445 -1.74439 0
M  V30 563 O 47.7474 -5.54482 -1.286 0
M  V30 564 N 48.9494 -4.92171 -3.07812 0
M  V30 565 H 51.7144 -2.95723 0.486648 0
M  V30 566 H 49.2754 -1.56742 0.405409 0
M  V30 567 H 51.2674 -3.53022 -1.97883 0
M  V30 568 H 49.8374 -2.46971 -1.91636 0
M  V30 569 H 49.0574 -3.94104 0.0871128 0
M  V30 570 H 50.3454 -5.07558 -0.35536 0
M  V30 571 H 49.7434 -4.46239 -3.47688 0
M  V30 572 H 48.3004 -5.36884 -3.69592 0
M  V30 573 N 51.7335 -0.305618 -1.54608 0
M  V30 574 C 52.6635 0.561482 -2.26649 0
M  V30 575 C 53.6445 1.13415 -1.26772 0
M  V30 576 O 54.8295 1.16262 -1.55553 0
M  V30 577 C 51.9595 1.73122 -3.01075 0
M  V30 578 C 50.9135 1.2887 -4.08138 0
M  V30 579 C 50.2395 2.54396 -4.70305 0
M  V30 580 C 51.5395 0.416578 -5.20636 0
M  V30 581 H 53.2335 -0.0393902 -2.99374 0
M  V30 582 H 50.7795 -0.020385 -1.43986 0
M  V30 583 H 52.7325 2.34396 -3.50195 0
M  V30 584 H 51.4565 2.3584 -2.25936 0
M  V30 585 H 50.1155 0.698991 -3.59875 0
M  V30 586 H 49.7635 3.15439 -3.918 0
M  V30 587 H 49.4635 2.25486 -5.42614 0
M  V30 588 H 50.9875 3.16464 -5.2219 0
M  V30 589 H 52.4015 0.935116 -5.65622 0
M  V30 590 H 50.7985 0.221046 -5.99693 0
M  V30 591 H 51.8685 -0.557162 -4.81688 0
M  V30 592 N 53.2116 1.57565 -0.0334293 0
M  V30 593 C 54.6226 1.79746 0.504798 0
M  V30 594 C 54.9736 0.944091 1.71992 0
M  V30 595 O 54.0986 0.155694 2.15839 0
M  V30 596 C 54.6936 3.25997 0.922567 0
M  V30 597 C 53.2526 3.49159 1.40588 0
M  V30 598 C 52.3996 2.74785 0.372633 0
M  V30 599 H 55.3506 1.56565 -0.259436 0
M  V30 600 H 55.3716 3.35945 1.78666 0
M  V30 601 H 54.8836 3.88081 0.0379825 0
M  V30 602 H 52.9846 2.92332 2.31025 0
M  V30 603 H 53.0976 4.57873 1.41028 0
M  V30 604 H 51.4616 2.40391 0.841672 0
M  V30 605 H 52.2446 3.39587 -0.503559 0
M  V30 606 N 54.6897 -0.239769 1.55765 0
M  V30 607 C 55.9387 -0.964754 1.77131 0
M  V30 608 C 56.2517 -1.86213 0.59868 0
M  V30 609 O 57.4577 -2.6244 0.695522 0
M  V30 610 C 55.9137 -1.76552 3.1362 0
M  V30 611 C 55.5217 -0.915185 4.38553 0
M  V30 612 C 57.2657 -2.48281 3.44321 0
M  V30 613 C 55.1727 -1.71225 5.66071 0
M  V30 614 H 54.1027 -0.363953 0.660344 0
M  V30 615 H 56.7537 -0.219181 1.82186 0
M  V30 616 H 55.1357 -2.55331 3.02691 0
M  V30 617 H 56.3097 -0.169217 4.60489 0
M  V30 618 H 54.6247 -0.310889 4.15238 0
M  V30 619 H 57.2217 -3.08382 4.36812 0
M  V30 620 H 57.5647 -3.20256 2.65973 0
M  V30 621 H 58.0977 -1.76507 3.56497 0
M  V30 622 H 54.8367 -1.03612 6.4726 0
M  V30 623 H 54.3567 -2.43331 5.48224 0
M  V30 624 H 56.0357 -2.27758 6.05587 0
M  V30 625 N 56.1678 -1.49265 -0.50573 0
M  V30 626 C 57.1148 -1.65585 -1.6078 0
M  V30 627 C 58.0848 -0.497396 -1.58478 0
M  V30 628 O 59.2698 -0.72385 -1.76536 0
M  V30 629 C 56.4098 -1.72408 -2.98948 0
M  V30 630 C 55.5228 -2.99525 -3.11301 0
M  V30 631 C 54.6578 -2.97356 -4.40174 0
M  V30 632 C 53.6968 -4.19074 -4.46143 0
M  V30 633 N 52.8338 -4.14841 -5.66437 0
M  V30 634 H 57.6738 -2.59688 -1.46172 0
M  V30 635 H 55.2108 -1.28761 -0.711261 0
M  V30 636 H 57.1688 -1.74344 -3.79025 0
M  V30 637 H 55.7988 -0.817753 -3.1227 0
M  V30 638 H 54.8508 -3.07222 -2.24318 0
M  V30 639 H 56.1628 -3.89518 -3.11572 0
M  V30 640 H 55.3168 -2.97829 -5.28567 0
M  V30 641 H 54.0558 -2.05133 -4.42461 0
M  V30 642 H 53.0608 -4.1885 -3.56153 0
M  V30 643 H 54.2858 -5.12483 -4.45575 0
M  V30 644 H 52.2318 -3.25453 -5.69575 0
M  V30 645 H 52.1488 -4.98564 -5.68304 0
M  V30 646 H 53.4168 -4.1941 -6.57051 0
M  V30 647 N 57.6459 0.756429 -1.3826 0
M  V30 648 C 58.5779 1.87971 -1.31147 0
M  V30 649 C 59.5909 1.61248 -0.224239 0
M  V30 650 O 60.7799 1.71881 -0.481581 0
M  V30 651 C 57.8799 3.23545 -1.00857 0
M  V30 652 C 57.0529 3.77794 -2.20432 0
M  V30 653 C 56.1119 4.91877 -1.86931 0
M  V30 654 O 55.1379 5.06659 -2.59395 0
M  V30 655 N 56.3399 5.74643 -0.822568 0
M  V30 656 H 59.1049 1.94585 -2.2794 0
M  V30 657 H 56.6659 0.936234 -1.32084 0
M  V30 658 H 58.6579 3.97403 -0.765021 0
M  V30 659 H 57.2279 3.12335 -0.128687 0
M  V30 660 H 56.4479 2.95534 -2.6087 0
M  V30 661 H 57.7359 4.10771 -3.00241 0
M  V30 662 H 57.1339 5.65266 -0.221575 0
M  V30 663 H 55.6909 6.48661 -0.638899 0
M  V30 664 N 59.124 1.23083 0.984299 0
M  V30 665 C 60.372 1.05848 1.72165 0
M  V30 666 C 60.693 -0.406049 1.90726 0
M  V30 667 O 59.963 -1.29139 1.47309 0
M  V30 668 H 58.543 0.388685 0.637913 0
M  V30 669 H 61.205 1.54736 1.18503 0
M  V30 670 H 60.301 1.54327 2.71274 0
M  V30 671 N 60.6021 -1.18246 1.0419 0
M  V30 672 C 61.5321 -2.24127 0.654914 0
M  V30 673 C 62.5131 -1.66617 -0.342451 0
M  V30 674 O 63.6981 -1.92924 -0.222277 0
M  V30 675 C 60.8281 -3.47295 0.0183757 0
M  V30 676 C 59.7821 -4.17563 0.939414 0
M  V30 677 C 59.1081 -5.34438 0.167286 0
M  V30 678 C 60.4081 -4.70917 2.25908 0
M  V30 679 H 62.1021 -2.56753 1.54007 0
M  V30 680 H 59.6481 -1.23414 0.74195 0
M  V30 681 H 61.6011 -4.20572 -0.264082 0
M  V30 682 H 60.3251 -3.13907 -0.901664 0
M  V30 683 H 58.9841 -3.46186 1.20628 0
M  V30 684 H 58.6321 -4.97298 -0.7552 0
M  V30 685 H 58.3321 -5.82388 0.780901 0
M  V30 686 H 59.8561 -6.10504 -0.108125 0
M  V30 687 H 61.2701 -5.35882 2.03724 0
M  V30 688 H 59.6671 -5.29406 2.82577 0
M  V30 689 H 60.7371 -3.88272 2.9047 0
M  V30 690 N 62.0802 -0.821533 -1.34494 0
M  V30 691 C 63.0102 -0.257138 -2.3208 0
M  V30 692 C 63.9912 0.625645 -1.58176 0
M  V30 693 O 65.1762 0.552811 -1.86166 0
M  V30 694 C 62.3062 0.582958 -3.42372 0
M  V30 695 C 61.2602 -0.202571 -4.2752 0
M  V30 696 C 60.5862 0.760179 -5.29269 0
M  V30 697 C 61.8862 -1.40998 -5.02908 0
M  V30 698 H 63.5802 -1.07247 -2.79532 0
M  V30 699 H 61.1262 -0.517163 -1.34393 0
M  V30 700 H 63.0792 0.987972 -4.09655 0
M  V30 701 H 61.8032 1.43133 -2.93565 0
M  V30 702 H 60.4622 -0.588936 -3.61838 0
M  V30 703 H 60.1102 1.60447 -4.76724 0
M  V30 704 H 59.8102 0.238809 -5.87115 0
M  V30 705 H 61.3342 1.16308 -5.9942 0
M  V30 706 H 62.7482 -1.07905 -5.63054 0
M  V30 707 H 61.1452 -1.86689 -5.70322 0
M  V30 708 H 62.2152 -2.1889 -4.32684 0
M  V30 709 N 63.5583 1.46682 -0.576371 0
M  V30 710 C 64.4683 2.34032 0.163141 0
M  V30 711 C 65.4843 1.49367 0.892501 0
M  V30 712 O 66.6603 1.82252 0.857106 0
M  V30 713 C 63.7253 3.26435 1.16795 0
M  V30 714 C 62.7863 4.26998 0.443944 0
M  V30 715 C 62.0193 5.14986 1.40088 0
M  V30 716 O 62.2423 5.05785 2.637 0
M  V30 717 O 61.1763 5.94906 0.914917 0
M  V30 718 H 65.0023 2.98607 -0.55388 0
M  V30 719 H 62.5873 1.45554 -0.336821 0
M  V30 720 H 64.4693 3.83459 1.74748 0
M  V30 721 H 63.1443 2.64465 1.86655 0
M  V30 722 H 62.0513 3.7368 -0.177271 0
M  V30 723 H 63.3843 4.91736 -0.213566 0
M  V30 724 N 65.0364 0.313813 1.54444 0
M  V30 725 C 66.2834 -0.291675 2.00388 0
M  V30 726 C 66.6114 -1.52904 1.2021 0
M  V30 727 O 65.8664 -1.93833 0.269707 0
M  V30 728 C 66.1654 -0.680386 3.50864 0
M  V30 729 C 65.8314 0.456699 4.48581 0
M  V30 730 C 64.4934 0.768824 4.75018 0
M  V30 731 C 66.8454 1.22098 5.06697 0
M  V30 732 C 64.1734 1.84812 5.56831 0
M  V30 733 C 66.5254 2.29029 5.89685 0
M  V30 734 C 65.1894 2.60834 6.14428 0
M  V30 735 H 64.4594 -0.106732 0.733273 0
M  V30 736 H 67.1064 0.43557 1.86481 0
M  V30 737 H 65.4114 -1.48791 3.62448 0
M  V30 738 H 67.1084 -1.16026 3.83847 0
M  V30 739 H 63.6984 0.203337 4.28117 0
M  V30 740 H 67.8824 0.993096 4.86263 0
M  V30 741 H 63.1384 2.09912 5.74236 0
M  V30 742 H 67.3124 2.887 6.33739 0
M  V30 743 H 64.9394 3.44596 6.77612 0
M  V30 744 N 66.5145 -1.57545 0.0417849 0
M  V30 745 C 67.7605 -1.92601 -0.635021 0
M  V30 746 C 68.0935 -0.919627 -1.71045 0
M  V30 747 O 67.3685 0.0557892 -1.9442 0
M  V30 748 C 67.6515 -3.38085 -1.23979 0
M  V30 749 C 67.5045 -4.49467 -0.173057 0
M  V30 750 C 68.8235 -3.83776 -2.15416 0
M  V30 751 H 65.9425 -0.700397 -0.229374 0
M  V30 752 H 68.5845 -1.89728 0.101633 0
M  V30 753 H 66.7345 -3.40664 -1.86762 0
M  V30 754 H 68.4065 -4.59018 0.458312 0
M  V30 755 H 66.6495 -4.30909 0.499996 0
M  V30 756 H 67.3205 -5.48323 -0.636054 0
M  V30 757 H 69.7965 -3.83013 -1.62605 0
M  V30 758 H 68.6725 -4.8624 -2.54679 0
M  V30 759 H 68.9335 -3.19998 -3.05047 0
M  V30 760 N 67.9926 0.231505 -1.5589 0
M  V30 761 C 69.2696 0.981096 -1.69215 0
M  V30 762 C 69.6496 2.02799 -0.586164 0
M  V30 763 O 68.9976 2.24823 0.408253 0
M  V30 764 C 69.2076 1.60054 -3.10135 0
M  V30 765 C 70.5556 2.09658 -3.69227 0
M  V30 766 O 71.5796 1.69967 -3.13033 0
M  V30 767 O 70.4386 2.8258 -4.67772 0
M  V30 768 H 67.5326 0.457653 -0.688827 0
M  V30 769 H 70.0786 0.224073 -1.68214 0
M  V30 770 H 68.8506 0.844105 -3.82087 0
M  V30 771 H 68.4736 2.42336 -3.15212 0
M  V30 772 N 69.4707 1.49531 0.497807 0
M  V30 773 C 70.7197 1.58426 1.24837 0
M  V30 774 C 71.0327 0.277643 1.93619 0
M  V30 775 O 72.2387 0.24517 2.70391 0
M  V30 776 C 70.6947 2.79538 2.26686 0
M  V30 777 C 70.3027 4.16971 1.63828 0
M  V30 778 C 72.0467 2.97764 3.0255 0
M  V30 779 C 69.9537 5.29301 2.63807 0
M  V30 780 H 68.8837 0.58989 0.469623 0
M  V30 781 H 71.5347 1.75923 0.521857 0
M  V30 782 H 69.9167 2.55542 3.02514 0
M  V30 783 H 71.0907 4.51116 0.939711 0
M  V30 784 H 69.4057 4.04129 1.00342 0
M  V30 785 H 72.0027 3.78856 3.77323 0
M  V30 786 H 72.3457 2.08448 3.60354 0
M  V30 787 H 72.8787 3.21815 2.33838 0
M  V30 788 H 69.6177 6.20687 2.10779 0
M  V30 789 H 69.1377 4.99606 3.31894 0
M  V30 790 H 70.8167 5.58768 3.2617 0
M  V30 791 N 70.9488 -0.749086 1.3866 0
M  V30 792 C 72.1768 -1.53834 1.38358 0
M  V30 793 C 72.5918 -1.88783 -0.0255219 0
M  V30 794 O 71.9488 -1.53101 -0.993292 0
M  V30 795 C 71.9998 -2.83468 2.2434 0
M  V30 796 O 71.7208 -2.50008 3.5976 0
M  V30 797 C 73.2218 -3.7758 2.32267 0
M  V30 798 H 70.4418 -0.47585 0.473083 0
M  V30 799 H 72.9858 -0.926726 1.82297 0
M  V30 800 H 71.1408 -3.40995 1.83851 0
M  V30 801 H 71.5548 -3.33182 4.05081 0
M  V30 802 H 73.0288 -4.65478 2.96706 0
M  V30 803 H 73.5058 -4.18334 1.33765 0
M  V30 804 H 74.1118 -3.25976 2.73166 0
M  V30 805 N 72.4269 -1.23603 -0.977757 0
M  V30 806 C 73.3899 -1.02069 -2.05218 0
M  V30 807 C 74.3899 0.0184305 -1.60789 0
M  V30 808 O 75.5799 -0.221569 -1.72785 0
M  V30 809 C 72.7119 -0.544926 -3.36517 0
M  V30 810 H 73.9049 -1.9742 -2.25755 0
M  V30 811 H 71.4579 -1.05684 -1.15155 0
M  V30 812 H 72.1929 0.412241 -3.21669 0
M  V30 813 H 71.9779 -1.2948 -3.70105 0
M  V30 814 H 73.4679 -0.414985 -4.15533 0
M  V30 815 N 73.905 1.17692 -1.04816 0
M  V30 816 C 75.133 1.91786 -0.776254 0
M  V30 817 C 75.548 1.76604 0.667577 0
M  V30 818 O 74.905 1.10067 1.45573 0
M  V30 819 C 74.956 3.42967 -1.14263 0
M  V30 820 O 74.677 3.57678 -2.52978 0
M  V30 821 C 76.178 4.34144 -0.896311 0
M  V30 822 H 73.398 0.608624 -0.282519 0
M  V30 823 H 75.942 1.49268 -1.39783 0
M  V30 824 H 74.097 3.83245 -0.565874 0
M  V30 825 H 74.511 4.51319 -2.67229 0
M  V30 826 H 75.985 5.38744 -1.20244 0
M  V30 827 H 76.462 4.38876 0.168636 0
M  V30 828 H 77.068 3.99574 -1.45672 0
M  V30 829 N 75.3831 0.828654 1.34056 0
M  V30 830 C 76.3311 0.242973 2.31327 0
M  V30 831 C 77.3251 -0.61944 1.57668 0
M  V30 832 O 78.5311 -0.51014 1.7262 0
M  V30 833 H 74.9061 0.059834 0.749616 0
M  V30 834 H 76.8771 1.07809 2.78244 0
M  V30 835 C 75.6261 -0.575733 3.429 0
M  V30 836 H 74.9491 0.0785582 3.99723 0
M  V30 837 H 76.3891 -0.951547 4.13185 0
M  V30 838 C 74.8481 -1.75044 2.87856 0
M  V30 839 O 75.3781 -2.84882 2.83205 0
M  V30 840 N 73.5841 -1.56903 2.44602 0
M  V30 841 H 73.1311 -0.675547 2.48584 0
M  V30 842 H 73.0891 -2.35652 2.08124 0
M  V30 843 N 76.8612 -1.46375 0.584142 0
M  V30 844 C 77.8112 -2.27371 -0.169232 0
M  V30 845 C 78.7952 -1.35955 -0.860523 0
M  V30 846 O 79.9872 -1.60119 -0.754382 0
M  V30 847 C 77.1162 -3.22334 -1.18134 0
M  V30 848 C 76.2022 -4.21235 -0.492088 0
M  V30 849 N 76.5932 -5.03766 0.453129 0
M  V30 850 C 74.8912 -4.39773 -0.742652 0
M  V30 851 C 75.5922 -5.75366 0.85609 0
M  V30 852 N 74.5682 -5.43214 0.204926 0
M  V30 853 H 78.3702 -2.88572 0.557097 0
M  V30 854 H 75.8842 -1.57242 0.406042 0
M  V30 855 H 77.8812 -3.79071 -1.73525 0
M  V30 856 H 76.5412 -2.62693 -1.90847 0
M  V30 857 H 77.5522 -5.11227 0.828723 0
M  V30 858 H 74.2292 -3.91279 -1.45625 0
M  V30 859 H 75.6192 -6.5172 1.63434 0
M  V30 860 N 78.3393 -0.321999 -1.54275 0
M  V30 861 C 79.5673 0.283052 -2.04955 0
M  V30 862 C 79.9823 1.45904 -1.19823 0
M  V30 863 O 79.3393 1.81063 -0.228545 0
M  V30 864 C 79.3903 0.719028 -3.54277 0
M  V30 865 O 79.1113 -0.410175 -4.36176 0
M  V30 866 C 80.6123 1.38705 -4.21041 0
M  V30 867 H 77.8323 0.0584616 -0.668448 0
M  V30 868 H 80.3763 -0.467734 -1.99079 0
M  V30 869 H 78.5313 1.41979 -3.60445 0
M  V30 870 H 78.9453 -0.0669416 -5.24457 0
M  V30 871 H 80.4193 1.64306 -5.2698 0
M  V30 872 H 80.8963 2.33385 -3.72059 0
M  V30 873 H 81.5023 0.728906 -4.19007 0
M  V30 874 N 79.8174 1.5752 -0.0501392 0
M  V30 875 C 80.7654 2.12651 0.942459 0
M  V30 876 C 81.7594 1.05807 1.32292 0
M  V30 877 O 82.9654 1.24217 1.3027 0
M  V30 878 H 79.3404 0.679673 0.321789 0
M  V30 879 H 81.3114 2.94951 0.452356 0
M  V30 880 C 80.0604 2.68565 2.20836 0
M  V30 881 H 79.3834 3.50439 1.92439 0
M  V30 882 H 80.8234 3.10761 2.8845 0
M  V30 883 C 79.2824 1.62291 2.95234 0
M  V30 884 O 79.8124 1.03508 3.88135 0
M  V30 885 N 78.0184 1.33836 2.57946 0
M  V30 886 H 77.5654 1.81826 1.82475 0
M  V30 887 H 77.5234 0.629595 3.08032 0
M  V30 888 N 81.2955 -0.223234 1.56011 0
M  V30 889 C 82.2055 -1.29766 1.95443 0
M  V30 890 C 83.2215 -1.51373 0.858028 0
M  V30 891 O 84.3975 -1.64536 1.16146 0
M  V30 892 C 81.4625 -2.62772 2.26167 0
M  V30 893 C 80.5235 -2.49482 3.49367 0
M  V30 894 C 79.7565 -3.76145 3.78616 0
M  V30 895 O 79.9795 -4.79087 3.09568 0
M  V30 896 O 78.9135 -3.73358 4.72109 0
M  V30 897 H 82.7395 -0.99309 2.87004 0
M  V30 898 H 80.3245 -0.425958 1.43199 0
M  V30 899 H 82.2065 -3.41327 2.47131 0
M  V30 900 H 80.8815 -2.92913 1.37781 0
M  V30 901 H 79.7885 -1.69133 3.33684 0
M  V30 902 H 81.1215 -2.2428 4.38131 0
M  V30 903 N 82.7736 -1.49793 -0.48987 0
M  V30 904 C 84.0226 -1.59085 -1.23995 0
M  V30 905 C 84.3356 -0.287907 -1.9347 0
M  V30 906 O 85.5416 -0.259506 -2.70257 0
M  V30 907 C 83.9976 -2.80736 -2.252 0
M  V30 908 C 83.6056 -4.17833 -1.61614 0
M  V30 909 C 85.3496 -2.99364 -3.00967 0
M  V30 910 C 83.2566 -5.30693 -2.60996 0
M  V30 911 H 82.1866 -0.592372 -0.466488 0
M  V30 912 H 84.8376 -1.76197 -0.51252 0
M  V30 913 H 83.2196 -2.57142 -3.01154 0
M  V30 914 H 84.3936 -4.51608 -0.915774 0
M  V30 915 H 82.7086 -4.04656 -0.981977 0
M  V30 916 H 85.3056 -3.80851 -3.75308 0
M  V30 917 H 85.6486 -2.10356 -3.59244 0
M  V30 918 H 86.1816 -3.2305 -2.32128 0
M  V30 919 H 82.9206 -6.21796 -2.07485 0
M  V30 920 H 82.4406 -5.01359 -3.2924 0
M  V30 921 H 84.1196 -5.6049 -3.23202 0
M  V30 922 N 84.2517 0.741722 -1.39055 0
M  V30 923 C 85.1837 1.8657 -1.33133 0
M  V30 924 C 86.1967 1.61001 -0.241329 0
M  V30 925 O 87.3857 1.7136 -0.499784 0
M  V30 926 C 84.4857 3.22457 -1.04283 0
M  V30 927 C 83.6587 3.75435 -2.24427 0
M  V30 928 C 82.7177 4.89867 -1.92138 0
M  V30 929 O 81.7437 5.03879 -2.64754 0
M  V30 930 N 82.9457 5.73738 -0.88347 0
M  V30 931 H 85.7107 1.92156 -2.29991 0
M  V30 932 H 83.2717 0.922172 -1.3307 0
M  V30 933 H 85.2637 3.9657 -0.807128 0
M  V30 934 H 83.8337 3.12181 -0.161807 0
M  V30 935 H 83.0537 2.92751 -2.6399 0
M  V30 936 H 84.3417 4.07563 -3.04581 0
M  V30 937 H 83.7397 5.64999 -0.281517 0
M  V30 938 H 82.2967 6.47947 -0.707662 0
M  V30 939 N 85.7298 1.2412 0.971189 0
M  V30 940 C 87.0068 0.986867 1.6888 0
M  V30 941 C 87.3868 -0.491857 2.0529 0
M  V30 942 O 86.7348 -1.46531 1.75331 0
M  V30 943 C 86.9448 1.9063 2.92338 0
M  V30 944 C 88.2928 2.17515 3.64654 0
M  V30 945 O 89.3168 1.88254 3.02388 0
M  V30 946 O 88.1758 2.6719 4.7673 0
M  V30 947 H 85.2698 0.372944 0.738134 0
M  V30 948 H 87.8158 1.35203 1.02559 0
M  V30 949 H 86.5878 2.90552 2.62097 0
M  V30 950 H 86.2108 1.54408 3.66393 0
M  V30 951 N 87.2079 -1.17134 1.05439 0
M  V30 952 C 88.4379 -1.91094 0.785274 0
M  V30 953 C 88.8459 -1.77198 -0.663142 0
M  V30 954 O 88.1889 -1.10835 -1.46497 0
M  V30 955 C 88.2509 -3.42594 1.08949 0
M  V30 956 C 87.9149 -3.80274 2.53458 0
M  V30 957 C 88.9119 -3.82912 3.51673 0
M  V30 958 C 86.5969 -4.11162 2.88532 0
M  V30 959 C 88.5909 -4.15913 4.83006 0
M  V30 960 C 86.2779 -4.43831 4.20068 0
M  V30 961 C 87.2759 -4.46185 5.17115 0
M  V30 962 O 86.9639 -4.78083 6.46291 0
M  V30 963 H 86.6959 -0.613073 0.284811 0
M  V30 964 H 89.2499 -1.49461 1.40893 0
M  V30 965 H 87.4799 -3.84534 0.408741 0
M  V30 966 H 89.1689 -3.97817 0.805991 0
M  V30 967 H 89.9349 -3.5917 3.25917 0
M  V30 968 H 85.8139 -4.085 2.13656 0
M  V30 969 H 89.3579 -4.17665 5.5875 0
M  V30 970 H 85.2549 -4.67037 4.45586 0
M  V30 971 H 86.0229 -4.9593 6.51149 0
M  V30 972 N 88.686 -0.835752 -1.33615 0
M  V30 973 C 89.616 -0.281739 -2.31794 0
M  V30 974 C 90.597 0.608833 -1.58831 0
M  V30 975 O 91.782 0.533035 -1.86741 0
M  V30 976 C 88.912 0.546612 -3.42971 0
M  V30 977 C 87.866 -0.247904 -4.27281 0
M  V30 978 C 87.192 0.704001 -5.30045 0
M  V30 979 C 88.492 -1.46324 -5.01385 0
M  V30 980 H 90.186 -1.10206 -2.78379 0
M  V30 981 H 87.732 -0.531388 -1.33837 0
M  V30 982 H 89.685 0.944467 -4.1068 0
M  V30 983 H 88.409 1.40011 -2.95067 0
M  V30 984 H 87.068 -0.627281 -3.61194 0
M  V30 985 H 86.716 1.55381 -4.78399 0
M  V30 986 H 86.416 0.176524 -5.87335 0
M  V30 987 H 87.94 1.09944 -6.0062 0
M  V30 988 H 89.354 -1.13871 -5.61877 0
M  V30 989 H 87.751 -1.92728 -5.6831 0
M  V30 990 H 88.821 -2.23467 -4.30338 0
M  V30 991 N 90.1641 1.46063 -0.591896 0
M  V30 992 C 91.0961 2.28539 0.174001 0
M  V30 993 C 92.1091 1.39047 0.846753 0
M  V30 994 O 93.2981 1.63564 0.714774 0
M  V30 995 C 90.3981 3.14347 1.26645 0
M  V30 996 C 89.5711 4.32021 0.683856 0
M  V30 997 C 88.6301 4.99157 1.66518 0
M  V30 998 O 87.6561 5.56458 1.19763 0
M  V30 999 N 88.8581 4.97005 2.99943 0
M  V30 1000 H 91.6231 2.94911 -0.533633 0
M  V30 1001 H 89.1841 1.56077 -0.430294 0
M  V30 1002 H 91.1761 3.56125 1.92242 0
M  V30 1003 H 89.7461 2.49988 1.87682 0
M  V30 1004 H 88.9661 3.93915 -0.1498 0
M  V30 1005 H 90.2541 5.08059 0.274567 0
M  V30 1006 H 89.6521 4.51714 3.40545 0
M  V30 1007 H 88.2091 5.42696 3.61004 0
M  V30 1008 N 91.6422 0.330177 1.54103 0
M  V30 1009 C 92.5742 -0.566902 2.22079 0
M  V30 1010 C 93.5872 -1.07462 1.22294 0
M  V30 1011 O 94.7762 -0.987065 1.48726 0
M  V30 1012 C 91.8762 -1.79138 2.87685 0
M  V30 1013 C 91.0492 -1.42123 4.13666 0
M  V30 1014 C 90.1082 -2.50394 4.62806 0
M  V30 1015 O 89.1342 -2.14261 5.27334 0
M  V30 1016 N 90.3362 -3.81433 4.37595 0
M  V30 1017 H 93.1012 0.0151844 2.99696 0
M  V30 1018 H 90.6622 0.153681 1.61169 0
M  V30 1019 H 92.6542 -2.50975 3.1748 0
M  V30 1020 H 91.2242 -2.28115 2.13734 0
M  V30 1021 H 90.4442 -0.534201 3.90564 0
M  V30 1022 H 91.7322 -1.14971 4.9564 0
M  V30 1023 H 91.1302 -4.13584 3.8596 0
M  V30 1024 H 89.6872 -4.4948 4.72029 0
M  V30 1025 N 93.1203 -1.57491 0.0584922 0
M  V30 1026 C 94.0503 -2.14988 -0.911178 0
M  V30 1027 C 95.0313 -1.07343 -1.31952 0
M  V30 1028 O 96.2163 -1.35318 -1.39294 0
M  V30 1029 C 93.3463 -2.70078 -2.18347 0
M  V30 1030 C 92.3003 -3.82771 -1.91495 0
M  V30 1031 C 91.6263 -4.24408 -3.25241 0
M  V30 1032 C 92.9263 -5.07592 -1.23075 0
M  V30 1033 H 94.6203 -2.96263 -0.432246 0
M  V30 1034 H 92.1663 -1.42512 -0.206469 0
M  V30 1035 H 94.1193 -3.08943 -2.86587 0
M  V30 1036 H 92.8433 -1.86005 -2.68458 0
M  V30 1037 H 91.5023 -3.44389 -1.25664 0
M  V30 1038 H 91.1503 -3.37275 -3.73168 0
M  V30 1039 H 90.8503 -5.00366 -3.08071 0
M  V30 1040 H 92.3743 -4.65879 -3.94701 0
M  V30 1041 H 93.7883 -5.43857 -1.81362 0
M  V30 1042 H 92.1853 -5.88741 -1.16207 0
M  V30 1043 H 93.2553 -4.84454 -0.207847 0
M  V30 1044 N 94.5984 0.214957 -1.56127 0
M  V30 1045 C 95.8264 0.955092 -1.83536 0
M  V30 1046 C 96.2414 1.77677 -0.638472 0
M  V30 1047 O 95.5984 1.78219 0.392968 0
M  V30 1048 C 95.6494 1.86734 -3.09536 0
M  V30 1049 O 95.3704 1.07887 -4.24608 0
M  V30 1050 C 96.8714 2.72082 -3.4998 0
M  V30 1051 H 94.0914 0.279611 -0.609966 0
M  V30 1052 H 96.6354 0.228197 -2.03223 0
M  V30 1053 H 94.7904 2.5481 -2.91806 0
M  V30 1054 H 95.2044 1.69872 -4.9623 0
M  V30 1055 H 96.6784 3.31782 -4.41163 0
M  V30 1056 H 97.1554 3.44806 -2.7204 0
M  V30 1057 H 97.7614 2.09409 -3.70173 0
M  V30 1058 N 96.0765 1.50051 0.48192 0
M  V30 1059 C 97.3245 1.60181 1.23234 0
M  V30 1060 C 97.6455 0.299176 1.92691 0
M  V30 1061 O 96.9155 -0.682708 1.83619 0
M  V30 1062 H 95.4955 0.590232 0.457859 0
M  V30 1063 H 98.1575 1.86775 0.556881 0
M  V30 1064 H 97.2535 2.40753 1.98607 0
M  V30 1065 N 97.5546 -0.734337 1.39446 0
M  V30 1066 C 98.5176 -1.83004 1.37994 0
M  V30 1067 C 99.5176 -1.58397 0.276938 0
M  V30 1068 O 100.708 -1.65785 0.534875 0
M  V30 1069 C 97.8396 -3.20802 1.1532 0
M  V30 1070 H 99.0326 -1.85694 2.35494 0
M  V30 1071 H 96.5856 -0.938059 1.25021 0
M  V30 1072 H 97.3206 -3.23772 0.185036 0
M  V30 1073 H 97.1056 -3.4006 1.95197 0
M  V30 1074 H 98.5956 -4.00862 1.17046 0
M  V30 1075 N 99.0327 -1.24633 -0.964593 0
M  V30 1076 C 100.449 -1.01239 -1.2338 0
M  V30 1077 C 100.649 0.2769 -1.99588 0
M  V30 1078 O 99.7047 0.992241 -2.32187 0
M  V30 1079 C 101.018 -2.22937 -2.01791 0
M  V30 1080 C 102.566 -2.27594 -2.14872 0
M  V30 1081 C 103.041 -3.48921 -2.96678 0
M  V30 1082 N 104.532 -3.49257 -3.04259 0
M  V30 1083 C 105.267 -4.39795 -3.67924 0
M  V30 1084 N 104.763 -5.40591 -4.33281 0
M  V30 1085 N 106.556 -4.275 -3.64966 0
M  V30 1086 H 98.7067 -2.0748 -0.454502 0
M  V30 1087 H 100.97 -0.910647 -0.26349 0
M  V30 1088 H 100.676 -3.16587 -1.53184 0
M  V30 1089 H 100.55 -2.25306 -3.02518 0
M  V30 1090 H 102.937 -1.34473 -2.6268 0
M  V30 1091 H 103.018 -2.2925 -1.13482 0
M  V30 1092 H 102.662 -4.42359 -2.49562 0
M  V30 1093 H 102.592 -3.4451 -3.98272 0
M  V30 1094 H 105.083 -2.76337 -2.57771 0
M  V30 1095 H 105.396 -6.05904 -4.79687 0
M  V30 1096 H 103.741 -5.44475 -4.3194 0
M  V30 1097 H 106.932 -3.47987 -3.13086 0
M  V30 1098 H 107.105 -4.98258 -4.14298 0
M  V30 1099 N 100.511 1.16574 -1.06058 0
M  V30 1100 C 101.739 1.90952 -0.796552 0
M  V30 1101 C 102.154 1.77302 0.648808 0
M  V30 1102 O 101.511 1.11605 1.44397 0
M  V30 1103 C 101.562 3.41736 -1.17894 0
M  V30 1104 O 101.283 3.54975 -2.56758 0
M  V30 1105 C 102.784 4.33169 -0.942308 0
M  V30 1106 H 100.004 0.605594 -0.288959 0
M  V30 1107 H 102.548 1.47777 -1.41358 0
M  V30 1108 H 100.703 3.82623 -0.606491 0
M  V30 1109 H 101.117 4.4846 -2.72 0
M  V30 1110 H 102.591 5.37439 -1.25952 0
M  V30 1111 H 103.068 4.3903 0.122078 0
M  V30 1112 H 103.674 3.98007 -1.49902 0
M  V30 1113 N 101.989 0.842826 1.3317 0
M  V30 1114 C 103.235 0.441099 1.97945 0
M  V30 1115 C 103.568 -0.998024 1.66593 0
M  V30 1116 O 102.843 -1.69839 0.947898 0
M  V30 1117 C 103.126 0.666841 3.53872 0
M  V30 1118 C 102.979 2.15352 3.94897 0
M  V30 1119 C 104.298 0.115544 4.39948 0
M  V30 1120 H 101.417 0.161739 0.719034 0
M  V30 1121 H 104.059 1.05907 1.57746 0
M  V30 1122 H 102.209 0.140828 3.88245 0
M  V30 1123 H 103.881 2.7447 3.70761 0
M  V30 1124 H 102.124 2.63653 3.44484 0
M  V30 1125 H 102.795 2.26221 5.03516 0
M  V30 1126 H 105.271 0.565213 4.12243 0
M  V30 1127 H 104.147 0.303152 5.48062 0
M  V30 1128 H 104.408 -0.980935 4.3108 0
M  V30 1129 N 103.467 -1.45747 0.599634 0
M  V30 1130 C 104.878 -1.85853 0.177681 0
M  V30 1131 C 105.229 -1.50102 -1.26348 0
M  V30 1132 O 104.354 -0.923905 -1.95686 0
M  V30 1133 C 104.949 -3.37326 0.315688 0
M  V30 1134 C 103.508 -3.76365 -0.0515144 0
M  V30 1135 C 102.655 -2.69722 0.643822 0
M  V30 1136 H 105.606 -1.36661 0.806814 0
M  V30 1137 H 105.627 -3.77778 -0.454321 0
M  V30 1138 H 105.139 -3.63315 1.36468 0
M  V30 1139 H 103.24 -3.55993 -1.09999 0
M  V30 1140 H 103.353 -4.77916 0.336594 0
M  V30 1141 H 101.717 -2.54567 0.0822881 0
M  V30 1142 H 102.5 -2.98549 1.6948 0
M  V30 1143 N 104.945 -0.338344 -1.53925 0
M  V30 1144 C 106.361 0.0137736 -1.59594 0
M  V30 1145 C 106.561 1.49186 -1.35447 0
M  V30 1146 O 105.617 2.24987 -1.14616 0
M  V30 1147 C 106.93 -0.41773 -2.97784 0
M  V30 1148 C 108.478 -0.369633 -3.1081 0
M  V30 1149 C 108.953 -0.776524 -4.51369 0
M  V30 1150 N 110.444 -0.730506 -4.57403 0
M  V30 1151 C 111.179 -1.01736 -5.64303 0
M  V30 1152 N 110.675 -1.3721 -6.79077 0
M  V30 1153 N 112.468 -0.941942 -5.54151 0
M  V30 1154 H 104.619 -1.3012 -1.67876 0
M  V30 1155 H 106.882 -0.530082 -0.78595 0
M  V30 1156 H 106.588 -1.44811 -3.20504 0
M  V30 1157 H 106.462 0.209729 -3.76616 0
M  V30 1158 H 108.849 0.651568 -2.87817 0
M  V30 1159 H 108.93 -1.03223 -2.34049 0
M  V30 1160 H 108.574 -1.79571 -4.75096 0
M  V30 1161 H 108.504 -0.0914649 -5.26521 0
M  V30 1162 H 110.995 -0.468783 -3.74981 0
M  V30 1163 H 111.308 -1.57597 -7.5656 0
M  V30 1164 H 109.653 -1.4105 -6.80536 0
M  V30 1165 H 112.844 -0.664184 -4.63364 0
M  V30 1166 H 113.017 -1.16884 -6.37371 0
M  V30 1167 N 106.423 1.57458 -0.0668435 0
M  V30 1168 C 107.669 1.93587 0.6043 0
M  V30 1169 C 108.002 0.946722 1.69561 0
M  V30 1170 O 107.277 -0.0248516 1.94484 0
M  V30 1171 C 107.56 3.40014 1.18585 0
M  V30 1172 C 107.413 4.49685 0.101529 0
M  V30 1173 C 108.732 3.87154 2.09284 0
M  V30 1174 H 105.851 0.703958 0.218202 0
M  V30 1175 H 108.493 1.89542 -0.131804 0
M  V30 1176 H 106.643 3.43592 1.81319 0
M  V30 1177 H 108.315 4.5823 -0.531279 0
M  V30 1178 H 106.558 4.30059 -0.568487 0
M  V30 1179 H 107.229 5.49266 0.54874 0
M  V30 1180 H 109.705 3.85551 1.56491 0
M  V30 1181 H 108.581 4.90231 2.46911 0
M  V30 1182 H 108.842 3.2481 2.99918 0
M  V30 1183 N 107.901 -0.206675 1.56239 0
M  V30 1184 C 109.148 -0.928842 1.79941 0
M  V30 1185 C 109.476 -1.83734 0.638131 0
M  V30 1186 O 108.731 -1.92039 -0.376746 0
M  V30 1187 C 109.03 -1.78675 3.09532 0
M  V30 1188 C 108.696 -1.03022 4.38973 0
M  V30 1189 C 107.358 -0.821302 4.74139 0
M  V30 1190 C 109.71 -0.497081 5.18824 0
M  V30 1191 C 107.038 -0.0675719 5.86661 0
M  V30 1192 C 109.39 0.24338 6.32132 0
M  V30 1193 C 108.054 0.463422 6.65889 0
M  V30 1194 H 107.324 -0.339887 0.658451 0
M  V30 1195 H 109.971 -0.195977 1.90495 0
M  V30 1196 H 108.276 -2.58794 2.94165 0
M  V30 1197 H 109.973 -2.34792 3.25075 0
M  V30 1198 H 106.563 -1.20306 4.11369 0
M  V30 1199 H 110.747 -0.645921 4.92079 0
M  V30 1200 H 106.003 0.112995 6.11296 0
M  V30 1201 H 110.177 0.66393 6.93228 0
M  V30 1202 H 107.804 1.04938 7.52922 0
M  V30 1203 N 109.379 -1.50304 -0.473955 0
M  V30 1204 C 110.628 -1.60392 -1.22301 0
M  V30 1205 C 110.941 -0.308411 -1.93153 0
M  V30 1206 O 112.147 -0.288156 -2.69966 0
M  V30 1207 C 110.603 -2.83109 -2.2221 0
M  V30 1208 C 110.211 -4.19524 -1.57173 0
M  V30 1209 C 111.955 -3.0254 -2.97775 0
M  V30 1210 C 109.862 -5.33431 -2.55353 0
M  V30 1211 H 108.792 -0.597286 -0.460179 0
M  V30 1212 H 111.443 -1.76731 -0.493803 0
M  V30 1213 H 109.825 -2.60322 -2.9841 0
M  V30 1214 H 110.999 -4.52554 -0.867824 0
M  V30 1215 H 109.314 -4.05674 -0.939002 0
M  V30 1216 H 111.911 -3.84811 -3.71248 0
M  V30 1217 H 112.254 -2.14154 -3.56992 0
M  V30 1218 H 112.787 -3.25494 -2.28688 0
M  V30 1219 H 109.526 -6.23962 -2.00878 0
M  V30 1220 H 109.046 -5.04823 -3.23904 0
M  V30 1221 H 110.725 -5.63887 -3.17239 0
M  V30 1222 N 110.857 0.726932 -1.39834 0
M  V30 1223 C 112.105 1.4837 -1.37225 0
M  V30 1224 C 112.426 1.94979 0.0284857 0
M  V30 1225 O 111.696 1.69555 0.981213 0
M  V30 1226 H 110.276 0.55043 -0.505011 0
M  V30 1227 H 112.938 0.862468 -1.74778 0
M  V30 1228 H 112.034 2.36198 -2.04003 0
M  V30 1229 N 112.336 1.25143 0.95797 0
M  V30 1230 C 113.283 1.05235 2.05412 0
M  V30 1231 C 114.253 -0.0374561 1.66058 0
M  V30 1232 O 115.438 0.119073 1.90428 0
M  V30 1233 C 112.578 0.673589 3.38462 0
M  V30 1234 C 111.691 1.8379 3.90954 0
M  V30 1235 C 110.826 1.40381 5.12315 0
M  V30 1236 C 109.865 2.53746 5.57027 0
M  V30 1237 N 109.002 2.11136 6.69601 0
M  V30 1238 H 113.842 1.99048 2.21774 0
M  V30 1239 H 111.379 0.991277 1.08683 0
M  V30 1240 H 113.337 0.434964 4.14926 0
M  V30 1241 H 111.967 -0.227554 3.21997 0
M  V30 1242 H 111.019 2.18992 3.11041 0
M  V30 1243 H 112.331 2.68937 4.20089 0
M  V30 1244 H 111.485 1.12464 5.96185 0
M  V30 1245 H 110.224 0.523015 4.84887 0
M  V30 1246 H 109.229 2.82412 4.71724 0
M  V30 1247 H 110.454 3.42398 5.86464 0
M  V30 1248 H 108.4 1.25468 6.4389 0
M  V30 1249 H 108.317 2.89832 6.98236 0
M  V30 1250 H 109.585 1.86385 7.56889 0
M  V30 1251 N 113.814 -1.1601 1.06675 0
M  V30 1252 C 115.091 -1.82679 0.699114 0
M  V30 1253 C 115.471 -1.94559 -0.819137 0
M  V30 1254 O 114.819 -1.49169 -1.73092 0
M  V30 1255 C 115.029 -3.19445 1.40555 0
M  V30 1256 C 116.377 -3.95171 1.55323 0
M  V30 1257 O 117.401 -3.28976 1.36577 0
M  V30 1258 O 116.26 -5.13833 1.86112 0
M  V30 1259 H 113.354 -0.788954 0.247951 0
M  V30 1260 H 115.9 -1.23179 1.16726 0
M  V30 1261 H 114.672 -3.05856 2.44065 0
M  V30 1262 H 114.295 -3.86625 0.927733 0
M  V30 1263 N 115.292 -0.849877 -1.32721 0
M  V30 1264 C 116.532 -0.457146 -1.99222 0
M  V30 1265 C 116.896 0.968038 -1.6581 0
M  V30 1266 O 118.097 1.46507 -2.25364 0
M  V30 1267 C 116.368 -0.683966 -3.50794 0
M  V30 1268 S 117.927 -0.388095 -4.3708 0
M  V30 1269 H 114.745 -0.171464 -0.690015 0
M  V30 1270 H 117.347 -1.10155 -1.61512 0
M  V30 1271 H 116.051 -1.72038 -3.726 0
M  V30 1272 H 115.582 -0.0258086 -3.93392 0
M  V30 1273 H 117.597 0.787791 -4.89906 0
M  V30 1274 N 116.77 1.45427 -0.607355 0
M  V30 1275 C 118.019 2.01452 -0.100036 0
M  V30 1276 C 118.332 1.48159 1.27704 0
M  V30 1277 O 119.538 1.96159 1.87707 0
M  V30 1278 C 117.994 3.59672 -0.128158 0
M  V30 1279 C 117.602 4.21962 -1.50507 0
M  V30 1280 C 119.346 4.23262 0.323932 0
M  V30 1281 C 117.253 5.72333 -1.48959 0
M  V30 1282 H 116.183 0.75325 -0.0336299 0
M  V30 1283 H 118.834 1.66901 -0.76265 0
M  V30 1284 H 117.216 3.91411 0.601105 0
M  V30 1285 H 118.39 4.01796 -2.25602 0
M  V30 1286 H 116.705 3.70565 -1.89923 0
M  V30 1287 H 119.302 5.33522 0.354691 0
M  V30 1288 H 119.645 3.93921 1.34656 0
M  V30 1289 H 120.178 3.96239 -0.352056 0
M  V30 1290 H 116.917 6.06373 -2.48981 0
M  V30 1291 H 116.437 5.94691 -0.781214 0
M  V30 1292 H 118.116 6.35525 -1.21313 0
M  V30 1293 N 118.248 0.346503 1.53744 0
M  V30 1294 C 119.496 -0.248612 2.00565 0
M  V30 1295 C 119.817 -1.5083 1.23593 0
M  V30 1296 O 119.087 -1.92858 0.343912 0
M  V30 1297 H 117.667 -0.0948564 0.740953 0
M  V30 1298 H 120.329 0.468341 1.89189 0
M  V30 1299 H 119.425 -0.488994 3.08245 0
M  V30 1300 N 119.726 -1.57421 0.075193 0
M  V30 1301 C 120.974 -1.93236 -0.591974 0
M  V30 1302 C 121.295 -0.956241 -1.69944 0
M  V30 1303 O 120.565 -0.00494792 -1.95899 0
M  V30 1304 H 119.145 -0.713355 -0.22166 0
M  V30 1305 H 121.807 -1.9444 0.133848 0
M  V30 1306 H 120.903 -2.95131 -1.01509 0
M  V30 1307 N 121.204 0.198386 -1.56346 0
M  V30 1308 C 122.444 0.92609 -1.82217 0
M  V30 1309 C 122.808 1.80584 -0.652195 0
M  V30 1310 O 124.009 2.56907 -0.790716 0
M  V30 1311 C 122.28 1.72354 -3.13096 0
M  V30 1312 S 123.839 2.50371 -3.6036 0
M  V30 1313 H 120.657 0.310677 -0.639532 0
M  V30 1314 H 123.259 0.189755 -1.94577 0
M  V30 1315 H 121.963 1.0678 -3.96265 0
M  V30 1316 H 121.494 2.50175 -3.03605 0
M  V30 1317 H 123.509 3.74488 -3.25535 0
M  V30 1318 N 122.682 1.50554 0.465978 0
M  V30 1319 C 123.907 1.65838 1.24549 0
M  V30 1320 C 124.332 0.343486 1.84937 0
M  V30 1321 O 123.69 -0.69324 1.67523 0
M  V30 1322 C 123.738 2.75533 2.32624 0
M  V30 1323 O 122.842 2.37142 3.37398 0
M  V30 1324 H 122.183 0.553893 0.366194 0
M  V30 1325 H 124.713 1.96959 0.553927 0
M  V30 1326 H 124.723 2.98763 2.77857 0
M  V30 1327 H 123.398 3.70962 1.88043 0
M  V30 1328 H 121.975 2.24377 2.97841 0
M  V30 1329 N 124.16 -0.719506 1.40217 0
M  V30 1330 C 125.437 -1.47221 1.28784 0
M  V30 1331 C 125.817 -2.10883 -0.0956067 0
M  V30 1332 O 125.165 -1.99833 -1.10811 0
M  V30 1333 C 125.375 -2.5111 2.42373 0
M  V30 1334 C 126.723 -3.17053 2.82423 0
M  V30 1335 O 127.747 -2.61429 2.41937 0
M  V30 1336 O 126.606 -4.17742 3.52355 0
M  V30 1337 H 123.7 -0.654491 0.50554 0
M  V30 1338 H 126.246 -0.752014 1.52128 0
M  V30 1339 H 125.018 -2.02556 3.34793 0
M  V30 1340 H 124.641 -3.3067 2.20778 0
M  V30 1341 N 125.638 -1.25649 -0.95132 0
M  V30 1342 C 126.568 -1.08808 -2.06599 0
M  V30 1343 C 127.549 0.00382547 -1.701 0
M  V30 1344 O 128.734 -0.166325 -1.93486 0
M  V30 1345 C 125.864 -0.709542 -3.39975 0
M  V30 1346 C 124.818 -1.75206 -3.90496 0
M  V30 1347 C 124.144 -1.22811 -5.20405 0
M  V30 1348 C 125.444 -3.15153 -4.16504 0
M  V30 1349 H 127.138 -2.02048 -2.20946 0
M  V30 1350 H 124.684 -0.972835 -1.06169 0
M  V30 1351 H 126.637 -0.578649 -4.17408 0
M  V30 1352 H 125.361 0.258556 -3.25575 0
M  V30 1353 H 124.02 -1.87145 -3.15234 0
M  V30 1354 H 123.668 -0.250145 -5.02378 0
M  V30 1355 H 123.368 -1.92492 -5.55176 0
M  V30 1356 H 124.892 -1.10968 -6.00432 0
M  V30 1357 H 126.306 -3.06349 -4.84586 0
M  V30 1358 H 124.703 -3.82333 -4.62538 0
M  V30 1359 H 125.773 -3.61966 -3.22658 0
M  V30 1360 N 127.117 1.15442 -1.07289 0
M  V30 1361 C 128.363 1.86489 -0.796846 0
M  V30 1362 C 128.696 1.82078 0.675371 0
M  V30 1363 O 127.971 1.24346 1.4956 0
M  V30 1364 C 128.254 3.35626 -1.30489 0
M  V30 1365 C 128.107 3.48673 -2.84161 0
M  V30 1366 C 129.426 4.30357 -0.920907 0
M  V30 1367 H 126.545 0.677144 -0.290939 0
M  V30 1368 H 129.187 1.35633 -1.33056 0
M  V30 1369 H 127.337 3.79068 -0.850883 0
M  V30 1370 H 129.009 3.14099 -3.37846 0
M  V30 1371 H 127.252 2.90253 -3.22391 0
M  V30 1372 H 127.923 4.53453 -3.14777 0
M  V30 1373 H 130.399 3.94871 -1.3121 0
M  V30 1374 H 129.275 5.33193 -1.30372 0
M  V30 1375 H 129.536 4.4176 0.173226 0
M  V30 1376 N 128.595 0.856903 1.32268 0
M  V30 1377 C 129.82 0.474569 2.01897 0
M  V30 1378 C 130.245 -0.921766 1.63967 0
M  V30 1379 O 129.603 -1.60589 0.84148 0
M  V30 1380 C 129.651 0.623799 3.55164 0
M  V30 1381 O 128.755 -0.342459 4.10976 0
M  V30 1382 H 128.096 0.190422 0.63611 0
M  V30 1383 H 130.626 1.15672 1.68764 0
M  V30 1384 H 130.636 0.512169 4.04773 0
M  V30 1385 H 129.311 1.64202 3.82113 0
M  V30 1386 H 127.888 -0.18688 3.72431 0
M  V30 1387 N 130.073 -1.45103 0.615059 0
M  V30 1388 C 131.003 -2.33339 -0.0865619 0
M  V30 1389 C 131.984 -1.4727 -0.851209 0
M  V30 1390 O 133.169 -1.76026 -0.820281 0
M  V30 1391 C 130.299 -3.30095 -1.07956 0
M  V30 1392 C 129.253 -4.25858 -0.427628 0
M  V30 1393 C 128.579 -5.12361 -1.5294 0
M  V30 1394 C 129.879 -5.18165 0.655944 0
M  V30 1395 H 131.573 -2.92254 0.650224 0
M  V30 1396 H 129.119 -1.40532 0.314138 0
M  V30 1397 H 131.072 -3.90698 -1.57901 0
M  V30 1398 H 129.796 -2.69355 -1.84703 0
M  V30 1399 H 128.455 -3.66564 0.0510292 0
M  V30 1400 H 128.103 -4.47984 -2.28734 0
M  V30 1401 H 127.803 -5.77238 -1.09865 0
M  V30 1402 H 129.327 -5.75833 -2.03098 0
M  V30 1403 H 130.741 -5.72796 0.240257 0
M  V30 1404 H 129.138 -5.91559 1.00888 0
M  V30 1405 H 130.208 -4.60144 1.52957 0
M  V30 1406 N 131.551 -0.354651 -1.53558 0
M  V30 1407 C 132.483 0.5315 -2.22952 0
M  V30 1408 C 133.496 1.05503 -1.23988 0
M  V30 1409 O 134.685 0.963279 -1.50277 0
M  V30 1410 C 131.785 1.74538 -2.90499 0
M  V30 1411 C 130.958 1.35524 -4.15875 0
M  V30 1412 C 130.017 2.42999 -4.66731 0
M  V30 1413 O 129.043 2.05844 -5.30676 0
M  V30 1414 N 130.245 3.74423 -4.43608 0
M  V30 1415 H 133.01 -0.0628615 -2.99634 0
M  V30 1416 H 130.571 -0.179302 -1.60904 0
M  V30 1417 H 132.563 2.45892 -3.21433 0
M  V30 1418 H 131.133 2.24686 -2.17336 0
M  V30 1419 H 130.353 0.471998 -3.91364 0
M  V30 1420 H 131.641 1.07071 -4.97406 0
M  V30 1421 H 131.039 4.07391 -3.92491 0
M  V30 1422 H 129.596 4.41913 -4.7912 0
M  V30 1423 N 133.029 1.57378 -0.0835403 0
M  V30 1424 C 133.961 2.10389 0.909338 0
M  V30 1425 C 134.974 1.03858 1.25369 0
M  V30 1426 O 136.163 1.31338 1.20882 0
M  V30 1427 C 133.263 2.55908 2.2218 0
M  V30 1428 C 132.436 3.86145 2.05453 0
M  V30 1429 C 131.495 4.17633 3.20108 0
M  V30 1430 O 130.521 4.87043 2.94581 0
M  V30 1431 N 131.723 3.72113 4.45547 0
M  V30 1432 H 134.488 2.962 0.456657 0
M  V30 1433 H 132.049 1.61579 0.101877 0
M  V30 1434 H 134.041 2.74027 2.97811 0
M  V30 1435 H 132.611 1.75171 2.58909 0
M  V30 1436 H 131.831 3.7729 1.1422 0
M  V30 1437 H 133.119 4.7137 1.91541 0
M  V30 1438 H 132.517 3.16062 4.69171 0
M  V30 1439 H 131.074 3.95409 5.18165 0
M  V30 1440 N 134.507 -0.190092 1.56449 0
M  V30 1441 C 135.732 -0.929864 1.85387 0
M  V30 1442 C 136.157 -1.7585 0.667704 0
M  V30 1443 O 135.515 -1.77198 -0.383459 0
M  V30 1444 C 135.563 -1.79773 3.12593 0
M  V30 1445 O 134.667 -2.89713 2.93496 0
M  V30 1446 H 134.008 -0.261574 0.610307 0
M  V30 1447 H 136.538 -0.193896 2.03679 0
M  V30 1448 H 136.548 -2.20139 3.43515 0
M  V30 1449 H 135.223 -1.18892 3.98544 0
M  V30 1450 H 133.8 -2.53065 2.73884 0
M  V30 1451 N 135.985 -1.50799 -0.457987 0
M  V30 1452 C 137.233 -1.62121 -1.2067 0
M  V30 1453 C 137.554 -0.329793 -1.92191 0
M  V30 1454 O 136.824 0.653409 -1.84682 0
M  V30 1455 H 135.404 -0.597441 -0.448411 0
M  V30 1456 H 138.066 -1.87637 -0.527096 0
M  V30 1457 H 137.162 -2.43882 -1.94751 0
M  V30 1458 N 137.463 0.71206 -1.40597 0
M  V30 1459 C 138.373 1.8562 -1.43466 0
M  V30 1460 C 139.389 1.70902 -0.326902 0
M  V30 1461 O 140.565 1.93105 -0.572043 0
M  V30 1462 C 137.63 3.21451 -1.29884 0
M  V30 1463 C 136.691 3.48398 -2.50833 0
M  V30 1464 C 135.924 4.77749 -2.3789 0
M  V30 1465 O 136.147 5.53089 -1.39459 0
M  V30 1466 O 135.081 5.05111 -3.27333 0
M  V30 1467 H 138.907 1.86155 -2.39958 0
M  V30 1468 H 136.492 0.86295 -1.21957 0
M  V30 1469 H 138.374 4.02579 -1.24531 0
M  V30 1470 H 137.049 3.21636 -0.364997 0
M  V30 1471 H 135.956 2.67265 -2.61763 0
M  V30 1472 H 137.289 3.53014 -3.4299 0
M  V30 1473 N 138.941 1.26152 0.944643 0
M  V30 1474 C 139.871 1.09902 2.06019 0
M  V30 1475 C 140.852 0.00519538 1.70099 0
M  V30 1476 O 142.037 0.176583 1.93396 0
M  V30 1477 C 139.167 0.727562 3.39594 0
M  V30 1478 C 138.121 1.77274 3.89561 0
M  V30 1479 C 137.447 1.25569 5.19747 0
M  V30 1480 C 138.747 3.17357 4.14827 0
M  V30 1481 H 140.441 2.03217 2.19871 0
M  V30 1482 H 137.987 0.978452 1.05652 0
M  V30 1483 H 139.94 0.600777 4.17095 0
M  V30 1484 H 138.664 -0.241287 3.25707 0
M  V30 1485 H 137.323 1.88814 3.14237 0
M  V30 1486 H 136.971 0.276783 5.02238 0
M  V30 1487 H 136.671 1.95433 5.54148 0
M  V30 1488 H 138.195 1.1415 5.99835 0
M  V30 1489 H 139.609 3.08914 4.82954 0
M  V30 1490 H 138.006 3.84781 4.60504 0
M  V30 1491 H 139.076 3.63673 3.20734 0
M  V30 1492 N 140.419 -1.14872 1.07899 0
M  V30 1493 C 141.349 -2.2193 0.725887 0
M  V30 1494 C 142.33 -1.67622 -0.28927 0
M  V30 1495 O 143.515 -1.93533 -0.160787 0
M  V30 1496 C 140.645 -3.47061 0.128856 0
M  V30 1497 C 139.599 -4.14363 1.07178 0
M  V30 1498 C 138.925 -5.33636 0.337229 0
M  V30 1499 C 140.225 -4.63492 2.40775 0
M  V30 1500 H 141.919 -2.51724 1.62097 0
M  V30 1501 H 139.465 -1.20991 0.780838 0
M  V30 1502 H 141.418 -4.21199 -0.130147 0
M  V30 1503 H 140.142 -3.16617 -0.80134 0
M  V30 1504 H 138.801 -3.42173 1.3158 0
M  V30 1505 H 138.449 -4.99449 -0.596606 0
M  V30 1506 H 138.149 -5.79609 0.965788 0
M  V30 1507 H 139.673 -6.10539 0.0861567 0
M  V30 1508 H 141.087 -5.2913 2.20669 0
M  V30 1509 H 139.484 -5.20148 2.99276 0
M  V30 1510 H 140.554 -3.78834 3.02676 0
M  V30 1511 N 141.898 -0.863906 -1.31812 0
M  V30 1512 C 143.126 -0.486111 -2.01108 0
M  V30 1513 C 143.541 0.919755 -1.64882 0
M  V30 1514 O 142.898 1.60162 -0.874893 0
M  V30 1515 C 142.949 -0.626435 -3.56031 0
M  V30 1516 O 142.67 -1.97693 -3.90959 0
M  V30 1517 C 144.171 -0.248857 -4.42601 0
M  V30 1518 H 141.391 -0.190052 -0.643523 0
M  V30 1519 H 143.935 -1.1634 -1.68182 0
M  V30 1520 H 142.09 0.00322717 -3.874 0
M  V30 1521 H 142.504 -1.98034 -4.85678 0
M  V30 1522 H 143.978 -0.398016 -5.50563 0
M  V30 1523 H 144.455 0.811489 -4.31638 0
M  V30 1524 H 145.061 -0.853971 -4.16638 0
M  V30 1525 N 143.376 1.44774 -0.622745 0
M  V30 1526 C 144.792 1.56986 -0.287652 0
M  V30 1527 C 144.992 1.61167 1.20944 0
M  V30 1528 O 144.048 1.55015 1.99315 0
M  V30 1529 C 145.361 2.84551 -0.972188 0
M  V30 1530 C 146.909 2.9825 -0.949536 0
M  V30 1531 C 147.384 4.28605 -1.61437 0
M  V30 1532 N 148.875 4.35399 -1.58057 0
M  V30 1533 C 149.61 5.34964 -2.064 0
M  V30 1534 N 149.106 6.40981 -2.62897 0
M  V30 1535 N 150.899 5.26419 -1.97078 0
M  V30 1536 H 143.05 1.40304 -1.59463 0
M  V30 1537 H 145.313 0.671794 -0.668878 0
M  V30 1538 H 145.019 2.87417 -2.02693 0
M  V30 1539 H 144.893 3.73807 -0.504771 0
M  V30 1540 H 147.28 2.94941 0.0967067 0
M  V30 1541 H 147.361 2.10364 -1.45536 0
M  V30 1542 H 147.005 4.32672 -2.66002 0
M  V30 1543 H 146.935 5.15334 -1.08344 0
M  V30 1544 H 149.426 3.59397 -1.16801 0
M  V30 1545 H 149.739 7.13225 -2.97539 0
M  V30 1546 H 148.084 6.4169 -2.66943 0
M  V30 1547 H 151.275 4.42504 -1.52669 0
M  V30 1548 H 151.448 6.03861 -2.35066 0
M  V30 1549 N 144.854 0.36279 1.53368 0
M  V30 1550 C 145.784 -0.476976 2.28576 0
M  V30 1551 C 146.765 -1.08631 1.30894 0
M  V30 1552 O 147.95 -1.10409 1.59761 0
M  V30 1553 C 145.08 -1.61828 3.07293 0
M  V30 1554 C 144.034 -1.13633 4.1264 0
M  V30 1555 C 143.36 -2.36766 4.79423 0
M  V30 1556 C 144.66 -0.223061 5.21823 0
M  V30 1557 H 146.354 0.150474 2.99022 0
M  V30 1558 H 143.9 0.0738103 1.43811 0
M  V30 1559 H 145.853 -2.21237 3.58653 0
M  V30 1560 H 144.577 -2.27292 2.34533 0
M  V30 1561 H 143.236 -0.564945 3.62221 0
M  V30 1562 H 142.884 -3.0068 4.03238 0
M  V30 1563 H 142.584 -2.05192 5.50609 0
M  V30 1564 H 144.108 -2.96865 5.33576 0
M  V30 1565 H 145.522 -0.724545 5.68703 0
M  V30 1566 H 143.919 0.001678 6.001 0
M  V30 1567 H 144.989 0.735553 4.79289 0
M  V30 1568 N 146.332 -1.57332 0.0918853 0
M  V30 1569 C 147.279 -2.13847 -0.868211 0
M  V30 1570 C 148.249 -1.05618 -1.28196 0
M  V30 1571 O 149.434 -1.33387 -1.36427 0
M  V30 1572 C 146.574 -2.72062 -2.12312 0
M  V30 1573 C 145.687 -3.94514 -1.7602 0
M  V30 1574 C 144.822 -4.40903 -2.96273 0
M  V30 1575 C 143.861 -5.55953 -2.56092 0
M  V30 1576 N 142.998 -5.97209 -3.69169 0
M  V30 1577 H 147.838 -2.95575 -0.379406 0
M  V30 1578 H 145.375 -1.46048 -0.175606 0
M  V30 1579 H 147.333 -3.03931 -2.858 0
M  V30 1580 H 145.963 -1.93068 -2.58698 0
M  V30 1581 H 145.015 -3.68979 -0.925135 0
M  V30 1582 H 146.327 -4.7802 -1.42472 0
M  V30 1583 H 145.481 -4.74539 -3.78018 0
M  V30 1584 H 144.22 -3.56291 -3.33029 0
M  V30 1585 H 143.225 -5.21948 -1.72773 0
M  V30 1586 H 144.45 -6.42311 -2.20484 0
M  V30 1587 H 142.396 -5.15543 -4.05649 0
M  V30 1588 H 142.313 -6.75504 -3.39456 0
M  V30 1589 H 143.581 -6.35475 -4.51434 0
M  V30 1590 N 147.81 0.181792 -1.56548 0
M  V30 1591 C 148.742 1.24956 -1.92142 0
M  V30 1592 C 149.755 1.41022 -0.813422 0
M  V30 1593 O 150.944 1.41212 -1.09186 0
M  V30 1594 C 148.044 2.61981 -2.14987 0
M  V30 1595 C 147.217 2.6735 -3.46183 0
M  V30 1596 C 146.276 3.85664 -3.5798 0
M  V30 1597 O 145.302 3.72148 -4.30691 0
M  V30 1598 N 146.504 5.01683 -2.92053 0
M  V30 1599 H 149.269 0.947329 -2.84334 0
M  V30 1600 H 146.83 0.371629 -1.57577 0
M  V30 1601 H 148.822 3.3958 -2.20154 0
M  V30 1602 H 147.392 2.84637 -1.2923 0
M  V30 1603 H 146.612 1.75925 -3.52766 0
M  V30 1604 H 147.9 2.67939 -4.32534 0
M  V30 1605 H 147.298 5.15564 -2.32832 0
M  V30 1606 H 145.855 5.77181 -3.0283 0
M  V30 1607 N 149.288 1.51039 0.449983 0
M  V30 1608 C 150.537 1.62317 1.19733 0
M  V30 1609 C 150.85 0.339101 1.92638 0
M  V30 1610 O 152.056 0.331069 2.69474 0
M  V30 1611 C 150.512 2.86608 2.17678 0
M  V30 1612 C 150.12 4.21972 1.50479 0
M  V30 1613 C 151.864 3.07239 2.92924 0
M  V30 1614 C 149.771 5.37426 2.46834 0
M  V30 1615 H 148.701 0.604532 0.450619 0
M  V30 1616 H 151.352 1.77494 0.465625 0
M  V30 1617 H 149.734 2.65037 2.94231 0
M  V30 1618 H 150.908 4.53878 0.795716 0
M  V30 1619 H 149.223 4.07117 0.874344 0
M  V30 1620 H 151.82 3.90668 3.65079 0
M  V30 1621 H 152.163 2.19807 3.5354 0
M  V30 1622 H 152.696 3.29091 2.23481 0
M  V30 1623 H 149.435 6.27079 1.90926 0
M  V30 1624 H 148.955 5.09912 3.15832 0
M  V30 1625 H 150.634 5.68862 3.08228 0
M  V30 1626 N 150.766 -0.704594 1.40972 0
M  V30 1627 C 152.014 -1.46169 1.39568 0
M  V30 1628 C 152.335 -1.95 0.00253745 0
M  V30 1629 O 151.605 -1.71095 -0.954114 0
M  V30 1630 H 150.185 -0.542326 0.513704 0
M  V30 1631 H 152.847 -0.834553 1.76128 0
M  V30 1632 H 151.943 -2.32922 2.07735 0
M  V30 1633 N 152.244 -1.26651 -0.937939 0
M  V30 1634 C 153.207 -1.08546 -2.01867 0
M  V30 1635 C 154.207 -0.0327327 -1.60767 0
M  V30 1636 O 155.397 -0.276427 -1.71993 0
M  V30 1637 C 152.529 -0.651711 -3.34613 0
M  V30 1638 H 153.722 -2.04502 -2.1936 0
M  V30 1639 H 151.275 -1.09294 -1.11734 0
M  V30 1640 H 152.01 0.309696 -3.22818 0
M  V30 1641 H 151.795 -1.41189 -3.65798 0
M  V30 1642 H 153.285 -0.546973 -4.14002 0
M  V30 1643 N 153.722 1.14298 -1.08507 0
M  V30 1644 C 154.652 2.21542 -0.737646 0
M  V30 1645 C 155.633 1.67773 0.280377 0
M  V30 1646 O 156.818 1.93616 0.150521 0
M  V30 1647 C 153.948 3.46988 -0.147259 0
M  V30 1648 C 152.902 4.13789 -1.09374 0
M  V30 1649 C 152.228 5.33449 -0.365524 0
M  V30 1650 C 153.528 4.62208 -2.4323 0
M  V30 1651 H 155.222 2.5086 -1.6343 0
M  V30 1652 H 152.768 1.20576 -0.787243 0
M  V30 1653 H 154.721 4.21262 0.107808 0
M  V30 1654 H 153.445 3.17037 0.784538 0
M  V30 1655 H 152.104 3.4147 -1.33393 0
M  V30 1656 H 151.752 4.99759 0.57011 0
M  V30 1657 H 151.452 5.79088 -0.996512 0
M  V30 1658 H 152.976 6.10485 -0.118534 0
M  V30 1659 H 154.39 5.27952 -2.23472 0
M  V30 1660 H 152.787 5.18553 -3.02031 0
M  V30 1661 H 153.857 3.77224 -3.04681 0
M  V30 1662 N 155.201 0.870884 1.31352 0
M  V30 1663 C 156.133 0.28455 2.27427 0
M  V30 1664 C 157.146 -0.552927 1.53123 0
M  V30 1665 O 158.335 -0.374771 1.74521 0
M  V30 1666 C 155.435 -0.615164 3.3327 0
M  V30 1667 C 154.608 0.190079 4.36987 0
M  V30 1668 C 153.667 -0.637917 5.22319 0
M  V30 1669 O 152.693 -0.065626 5.69162 0
M  V30 1670 N 153.895 -1.94973 5.46778 0
M  V30 1671 H 156.66 1.11017 2.7838 0
M  V30 1672 H 154.221 0.732458 1.44384 0
M  V30 1673 H 156.213 -1.1748 3.87273 0
M  V30 1674 H 154.783 -1.34146 2.82354 0
M  V30 1675 H 154.003 0.931165 3.83044 0
M  V30 1676 H 155.291 0.742579 5.03352 0
M  V30 1677 H 154.689 -2.4378 5.10478 0
M  V30 1678 H 153.246 -2.45713 6.03712 0
M  V30 1679 O 156.718 -1.41941 0.770395 0
M  V30 1680 H 157.409 -1.908 0.333941 0
M  V30 END ATOM
M  V30 BEGIN BOND
M  V30 END BOND
M  V30 END CTAB
M  END
$$$$
