drugbank_target|Q8IL88 HSP40, subfamily A, putative (DB11638)
 OpenBabel12092121123D

  0  0  0     0  0            999 V3000
M  V30 BEGIN CTAB
M  V30 COUNTS 6784 6840 0 0 0
M  V30 BEGIN ATOM
M  V30 1 H -0.908 1.98254 -0.117106 0
M  V30 2 N 0 1.576 0 0
M  V30 3 C 0.933 2.03868 1.02534 0
M  V30 4 C 1.911 0.928543 1.3348 0
M  V30 5 O 3.095 1.19667 1.45644 0
M  V30 6 C 0.222 2.43627 2.35294 0
M  V30 7 C -0.732 3.65373 2.2001 0
M  V30 8 S 0.101 5.13292 1.52614 0
M  V30 9 C 1.257 5.56322 2.86805 0
M  V30 10 H 1.49 2.90518 0.631377 0
M  V30 11 H -0.977 1.52953 0.210867 0
M  V30 12 H 0.981 2.67203 3.11629 0
M  V30 13 H -0.358 1.57376 2.7183 0
M  V30 14 H -1.165 3.90944 3.18086 0
M  V30 15 H -1.563 3.418 1.51819 0
M  V30 16 H 0.729 5.58782 3.83104 0
M  V30 17 H 1.672 6.56266 2.65933 0
M  V30 18 H 2.08 4.83886 2.90714 0
M  V30 19 N 1.4781 -0.272755 1.55222 0
M  V30 20 C 2.7251 -1.00433 1.7584 0
M  V30 21 C 3.0531 -1.86275 0.559629 0
M  V30 22 O 2.3081 -1.90269 -0.457857 0
M  V30 23 C 2.6071 -1.91642 3.01675 0
M  V30 24 C 2.2731 -1.21548 4.34208 0
M  V30 25 C 0.9351 -1.02166 4.70229 0
M  V30 26 C 3.2871 -0.716684 5.16249 0
M  V30 27 C 0.6151 -0.316334 5.85847 0
M  V30 28 C 2.9671 -0.0249476 6.32595 0
M  V30 29 C 1.6311 0.180579 6.67256 0
M  V30 30 H 0.9011 -0.367509 0.643443 0
M  V30 31 H 3.5481 -0.276596 1.89492 0
M  V30 32 H 1.8531 -2.71037 2.82924 0
M  V30 33 H 3.5501 -2.48369 3.14824 0
M  V30 34 H 0.1401 -1.37645 4.05896 0
M  V30 35 H 4.3241 -0.854047 4.88896 0
M  V30 36 H -0.4199 -0.146378 6.11225 0
M  V30 37 H 3.7541 0.369311 6.9542 0
M  V30 38 H 1.3811 0.729098 7.56696 0
M  V30 39 N 2.9562 -1.48159 -0.537278 0
M  V30 40 C 4.2032 -1.55804 -1.29349 0
M  V30 41 C 4.5312 -0.228802 -1.9315 0
M  V30 42 O 3.7862 0.780242 -1.79473 0
M  V30 43 C 4.0852 -2.63956 -2.40961 0
M  V30 44 C 3.7512 -4.0662 -1.94861 0
M  V30 45 C 2.4132 -4.45452 -1.82006 0
M  V30 46 C 4.7652 -4.96055 -1.59933 0
M  V30 47 C 2.0932 -5.71531 -1.32547 0
M  V30 48 C 4.4452 -6.22617 -1.11939 0
M  V30 49 C 3.1092 -6.60312 -0.976951 0
M  V30 50 H 2.3792 -0.570129 -0.473322 0
M  V30 51 H 5.0262 -1.81845 -0.600372 0
M  V30 52 H 3.3312 -2.31747 -3.15912 0
M  V30 53 H 5.0282 -2.67089 -2.99107 0
M  V30 54 H 1.6182 -3.75949 -2.05815 0
M  V30 55 H 5.8022 -4.66738 -1.68728 0
M  V30 56 H 1.0582 -5.99468 -1.202 0
M  V30 57 H 5.2322 -6.91318 -0.839811 0
M  V30 58 H 2.8592 -7.57895 -0.591501 0
M  V30 59 N 4.4343 0.785586 -1.36625 0
M  V30 60 C 5.6593 1.57963 -1.34397 0
M  V30 61 C 6.0843 1.87964 0.071526 0
M  V30 62 O 5.4423 1.48182 1.0446 0
M  V30 63 C 5.4903 2.87511 -2.17646 0
M  V30 64 O 4.5943 3.81281 -1.57158 0
M  V30 65 H 3.9353 0.479014 -0.459828 0
M  V30 66 H 6.4653 0.973411 -1.79961 0
M  V30 67 H 6.4753 3.36745 -2.30362 0
M  V30 68 H 5.1503 2.65002 -3.20541 0
M  V30 69 H 3.7273 3.39885 -1.53403 0
M  V30 70 N 5.9124 1.20967 1.01018 0
M  V30 71 C 7.1374 1.0503 1.78839 0
M  V30 72 C 7.5624 -0.395752 1.8389 0
M  V30 73 O 6.9204 -1.28529 1.27867 0
M  V30 74 C 6.9684 1.64602 3.2084 0
M  V30 75 O 6.0724 0.887988 4.02726 0
M  V30 76 H 5.4134 0.369987 0.551367 0
M  V30 77 H 7.9434 1.60399 1.27018 0
M  V30 78 H 7.9534 1.68607 3.71532 0
M  V30 79 H 6.6284 2.69841 3.16479 0
M  V30 80 H 5.2054 0.922648 3.61305 0
M  V30 81 N 7.3905 -1.2043 1.01659 0
M  V30 82 C 8.6385 -1.89423 0.704522 0
M  V30 83 C 8.9595 -1.79231 -0.768197 0
M  V30 84 O 8.2295 -1.1947 -1.55254 0
M  V30 85 H 6.8095 -0.701178 0.257602 0
M  V30 86 H 9.4715 -1.4626 1.28818 0
M  V30 87 H 8.5675 -2.96052 0.987916 0
M  V30 88 N 8.8686 -0.792821 -1.36206 0
M  V30 89 C 10.1156 -0.366786 -1.99151 0
M  V30 90 C 10.4436 1.06243 -1.62919 0
M  V30 91 O 9.6986 1.74927 -0.877442 0
M  V30 92 C 9.9976 -0.481501 -3.54142 0
M  V30 93 C 9.6636 -1.87202 -4.10203 0
M  V30 94 C 8.3256 -2.25248 -4.25226 0
M  V30 95 C 10.6776 -2.78237 -4.40719 0
M  V30 96 C 8.0056 -3.53723 -4.68078 0
M  V30 97 C 10.3576 -4.06144 -4.85005 0
M  V30 98 C 9.0216 -4.44207 -4.98234 0
M  V30 99 H 8.2916 -0.134217 -0.728743 0
M  V30 100 H 10.9386 -1.01094 -1.62641 0
M  V30 101 H 9.2436 0.246146 -3.91026 0
M  V30 102 H 10.9406 -0.132844 -4.0078 0
M  V30 103 H 7.5306 -1.56639 -3.98951 0
M  V30 104 H 11.7146 -2.50097 -4.28679 0
M  V30 105 H 6.9706 -3.8308 -4.76508 0
M  V30 106 H 11.1446 -4.76796 -5.07581 0
M  V30 107 H 8.7716 -5.43814 -5.31197 0
M  V30 108 N 10.3467 1.47872 -0.545128 0
M  V30 109 C 11.7577 1.86384 -0.108581 0
M  V30 110 C 12.1087 1.45309 1.31832 0
M  V30 111 O 11.2337 0.850641 1.9898 0
M  V30 112 C 11.8287 3.38265 -0.190274 0
M  V30 113 C 10.3877 3.75914 0.191164 0
M  V30 114 C 9.5347 2.71926 -0.543273 0
M  V30 115 H 12.4857 1.39561 -0.755537 0
M  V30 116 H 12.5067 3.75831 0.594217 0
M  V30 117 H 12.0187 3.6813 -1.2289 0
M  V30 118 H 10.1197 3.51665 1.23136 0
M  V30 119 H 10.2327 4.78836 -0.158987 0
M  V30 120 H 8.5967 2.54697 0.0122495 0
M  V30 121 H 9.3797 3.04634 -1.58282 0
M  V30 122 N 11.8248 0.280983 1.55075 0
M  V30 123 C 13.0718 -0.334115 1.99725 0
M  V30 124 C 13.3998 -1.5542 1.1694 0
M  V30 125 O 12.6548 -1.94361 0.228531 0
M  V30 126 C 12.9538 -0.754656 3.49342 0
M  V30 127 C 12.6198 0.361445 4.49449 0
M  V30 128 C 11.2818 0.667893 4.76542 0
M  V30 129 C 13.6338 1.11322 5.09173 0
M  V30 130 C 10.9618 1.7296 5.60626 0
M  V30 131 C 13.3138 2.1647 5.9441 0
M  V30 132 C 11.9778 2.47742 6.19822 0
M  V30 133 H 11.2478 -0.122261 0.730844 0
M  V30 134 H 13.8948 0.395917 1.87363 0
M  V30 135 H 12.1998 -1.56446 3.5921 0
M  V30 136 H 13.8968 -1.24142 3.813 0
M  V30 137 H 10.4868 0.112481 4.28452 0
M  V30 138 H 14.6708 0.88973 4.8826 0
M  V30 139 H 9.9268 1.97684 5.78559 0
M  V30 140 H 14.1008 2.75193 6.3972 0
M  V30 141 H 11.7278 3.30145 6.84769 0
M  V30 142 N 13.3029 -1.57598 0.00835791 0
M  V30 143 C 14.5799 -1.82172 -0.712235 0
M  V30 144 C 14.9599 -0.887873 -1.9152 0
M  V30 145 O 14.3079 0.06146 -2.28417 0
M  V30 146 C 14.5179 -3.30875 -1.11008 0
M  V30 147 C 15.8659 -3.96826 -1.51044 0
M  V30 148 O 16.8899 -3.35248 -1.20364 0
M  V30 149 O 15.7489 -5.05318 -2.08125 0
M  V30 150 H 12.8429 -0.750435 -0.347529 0
M  V30 151 H 15.3889 -1.69665 0.0344523 0
M  V30 152 H 14.1609 -3.90481 -0.252982 0
M  V30 153 H 13.7839 -3.48412 -1.9156 0
M  V30 154 N 14.781 0.264519 -1.55364 0
M  V30 155 C 16.006 1.01726 -1.80739 0
M  V30 156 C 16.431 1.78836 -0.583044 0
M  V30 157 O 15.789 1.75167 0.467566 0
M  V30 158 C 15.837 1.94482 -3.03659 0
M  V30 159 O 14.941 3.03386 -2.7934 0
M  V30 160 H 14.282 0.290395 -0.597132 0
M  V30 161 H 16.812 0.290854 -2.02522 0
M  V30 162 H 16.822 2.36278 -3.32621 0
M  V30 163 H 15.497 1.37772 -3.92418 0
M  V30 164 H 14.074 2.65844 -2.61498 0
M  V30 165 N 16.2591 1.48442 0.529413 0
M  V30 166 C 17.1921 1.57577 1.65059 0
M  V30 167 C 18.1701 0.426198 1.56915 0
M  V30 168 O 19.3541 0.637877 1.77379 0
M  V30 169 C 16.4811 1.5043 3.03461 0
M  V30 170 C 15.5271 2.70235 3.29962 0
M  V30 171 S 16.3601 4.32198 3.16172 0
M  V30 172 C 17.5161 4.2765 4.57019 0
M  V30 173 H 17.7491 2.52427 1.5706 0
M  V30 174 H 15.2821 1.36982 0.712417 0
M  V30 175 H 17.2401 1.46992 3.8328 0
M  V30 176 H 15.9011 0.569167 3.089 0
M  V30 177 H 15.0941 2.61374 4.30929 0
M  V30 178 H 14.6961 2.70938 2.57815 0
M  V30 179 H 16.9881 3.97618 5.48549 0
M  V30 180 H 17.9311 5.28797 4.70934 0
M  V30 181 H 18.3391 3.5811 4.36368 0
M  V30 182 N 17.7372 -0.778329 1.37039 0
M  V30 183 C 18.9852 -1.53361 1.31623 0
M  V30 184 C 19.3062 -1.94739 -0.100831 0
M  V30 185 O 18.5762 -1.65797 -1.04347 0
M  V30 186 H 17.1562 -0.568794 0.484234 0
M  V30 187 H 19.8182 -0.926742 1.71457 0
M  V30 188 H 18.9142 -2.43606 1.95096 0
M  V30 189 N 19.2153 -1.21501 -1.00376 0
M  V30 190 C 20.4633 -1.03095 -1.73827 0
M  V30 191 C 20.7843 0.436341 -1.90055 0
M  V30 192 O 20.0543 1.31466 -1.45236 0
M  V30 193 H 18.6343 -0.378487 -0.644016 0
M  V30 194 H 21.2963 -1.52831 -1.20949 0
M  V30 195 H 20.3923 -1.49991 -2.73695 0
M  V30 196 N 20.6934 1.19889 -1.02296 0
M  V30 197 C 21.6254 2.22334 -0.556787 0
M  V30 198 C 22.6384 1.58674 0.364199 0
M  V30 199 O 23.8274 1.77768 0.161533 0
M  V30 200 C 20.9274 3.38257 0.208694 0
M  V30 201 C 20.1004 4.31504 -0.71577 0
M  V30 202 C 19.1594 5.262 0.00325597 0
M  V30 203 O 18.1854 5.65798 -0.621357 0
M  V30 204 N 19.3874 5.66303 1.27599 0
M  V30 205 H 22.1524 2.62957 -1.43784 0
M  V30 206 H 19.7134 1.34495 -0.901261 0
M  V30 207 H 21.7054 3.98616 0.699111 0
M  V30 208 H 20.2754 2.96472 0.991102 0
M  V30 209 H 19.4954 3.69016 -1.38638 0
M  V30 210 H 20.7834 4.9072 -1.34428 0
M  V30 211 H 20.1814 5.36155 1.80429 0
M  V30 212 H 18.7384 6.28942 1.71102 0
M  V30 213 N 22.1715 0.800033 1.35784 0
M  V30 214 C 23.1035 0.163596 2.28615 0
M  V30 215 C 24.1165 -0.633317 1.49976 0
M  V30 216 O 25.3055 -0.466754 1.72289 0
M  V30 217 C 22.4055 -0.790958 3.29541 0
M  V30 218 C 21.5785 -0.0418255 4.3738 0
M  V30 219 C 20.6375 -0.91389 5.18203 0
M  V30 220 O 19.6635 -0.367234 5.68014 0
M  V30 221 N 20.8655 -2.23682 5.35674 0
M  V30 222 H 23.6305 0.96105 2.83873 0
M  V30 223 H 21.1915 0.654894 1.48063 0
M  V30 224 H 23.1835 -1.37844 3.80501 0
M  V30 225 H 21.7535 -1.48925 2.74846 0
M  V30 226 H 20.9735 0.726813 3.87442 0
M  V30 227 H 22.2615 0.474719 5.06581 0
M  V30 228 H 21.6595 -2.70497 4.96838 0
M  V30 229 H 20.2165 -2.77369 5.89839 0
M  V30 230 N 23.6496 -1.47581 0.552962 0
M  V30 231 C 24.6126 -2.28439 -0.186605 0
M  V30 232 C 25.6126 -1.36706 -0.84665 0
M  V30 233 O 26.8026 -1.59378 -0.703164 0
M  V30 234 C 23.9346 -3.16264 -1.2724 0
M  V30 235 H 25.1276 -2.95294 0.523609 0
M  V30 236 H 22.6806 -1.532 0.309745 0
M  V30 237 H 23.4156 -2.54091 -2.01514 0
M  V30 238 H 23.2006 -3.83769 -0.803968 0
M  V30 239 H 24.6906 -3.77198 -1.79196 0
M  V30 240 N 25.1277 -0.289203 -1.54924 0
M  V30 241 C 26.5437 0.0645403 -1.59469 0
M  V30 242 C 26.7437 1.53419 -1.30632 0
M  V30 243 O 25.7997 2.2852 -1.074 0
M  V30 244 C 27.1127 -0.32278 -2.98963 0
M  V30 245 C 28.6607 -0.270564 -3.11828 0
M  V30 246 C 29.1357 -0.632532 -4.53611 0
M  V30 247 N 30.6267 -0.584617 -4.59496 0
M  V30 248 C 31.3617 -0.837314 -5.67254 0
M  V30 249 N 30.8577 -1.15536 -6.83098 0
M  V30 250 N 32.6507 -0.765166 -5.56868 0
M  V30 251 H 24.8017 -1.24714 -1.71931 0
M  V30 252 H 27.0647 -0.504809 -0.802416 0
M  V30 253 H 26.7707 -1.34541 -3.24948 0
M  V30 254 H 26.6447 0.32944 -3.75759 0
M  V30 255 H 29.0317 0.742805 -2.85598 0
M  V30 256 H 29.1127 -0.957242 -2.37214 0
M  V30 257 H 28.7567 -1.64365 -4.80569 0
M  V30 258 H 28.6867 0.07609 -5.26545 0
M  V30 259 H 31.1777 -0.349248 -3.76283 0
M  V30 260 H 31.4907 -1.33447 -7.61191 0
M  V30 261 H 29.8357 -1.19328 -6.84679 0
M  V30 262 H 33.0267 -0.516432 -4.65243 0
M  V30 263 H 33.1997 -0.965477 -6.40767 0
M  V30 264 N 26.6058 1.57591 -0.0167156 0
M  V30 265 C 28.0218 1.55946 0.339557 0
M  V30 266 C 28.2218 1.02109 1.73713 0
M  V30 267 O 27.2778 0.662303 2.43659 0
M  V30 268 C 28.5908 3.00037 0.199499 0
M  V30 269 C 30.1388 3.11805 0.273193 0
M  V30 270 C 30.6138 4.57713 0.162068 0
M  V30 271 N 32.1048 4.6268 0.219444 0
M  V30 272 C 32.8398 5.73185 0.157054 0
M  V30 273 N 32.3358 6.92786 0.0442936 0
M  V30 274 N 34.1288 5.61707 0.21014 0
M  V30 275 H 26.2798 1.90921 -0.930758 0
M  V30 276 H 28.5428 0.877674 -0.358319 0
M  V30 277 H 28.2488 3.4333 -0.76273 0
M  V30 278 H 28.1228 3.64387 0.974786 0
M  V30 279 H 30.5098 2.68433 1.22587 0
M  V30 280 H 30.5908 2.50201 -0.532256 0
M  V30 281 H 30.2348 5.01763 -0.78714 0
M  V30 282 H 30.1648 5.17283 0.986222 0
M  V30 283 H 32.6558 3.76649 0.307246 0
M  V30 284 H 32.9688 7.728 0.00304069 0
M  V30 285 H 31.3138 6.94999 0.00968457 0
M  V30 286 H 34.5048 4.6716 0.296546 0
M  V30 287 H 34.6778 6.47807 0.158054 0
M  V30 288 N 28.0839 -0.256276 1.55502 0
M  V30 289 C 29.0309 -1.31714 1.89526 0
M  V30 290 C 30.0009 -1.4828 0.748479 0
M  V30 291 O 31.1859 -1.62416 1.00128 0
M  V30 292 C 28.3259 -2.66933 2.18725 0
M  V30 293 C 27.4389 -2.58452 3.4616 0
M  V30 294 C 26.5739 -3.85961 3.64976 0
M  V30 295 C 25.6129 -3.72059 4.86044 0
M  V30 296 N 24.7499 -4.9144 5.01429 0
M  V30 297 H 29.5899 -1.01998 2.80001 0
M  V30 298 H 27.1269 -0.492413 1.38613 0
M  V30 299 H 29.0849 -3.4563 2.33657 0
M  V30 300 H 27.7149 -2.94816 1.31466 0
M  V30 301 H 26.7669 -1.71374 3.3961 0
M  V30 302 H 28.0789 -2.44085 4.34999 0
M  V30 303 H 27.2329 -4.73101 3.79816 0
M  V30 304 H 25.9719 -4.03215 2.74353 0
M  V30 305 H 24.9769 -2.83302 4.7119 0
M  V30 306 H 26.2019 -3.56309 5.78118 0
M  V30 307 H 24.1479 -5.09072 4.13741 0
M  V30 308 H 24.0649 -4.79668 5.84341 0
M  V30 309 H 25.3329 -5.80104 5.20672 0
M  V30 310 N 29.562 -1.4872 -0.521534 0
M  V30 311 C 30.978 -1.35028 -0.850855 0
M  V30 312 C 31.178 -0.367712 -1.98116 0
M  V30 313 O 30.234 0.208037 -2.51642 0
M  V30 314 C 31.547 -2.75263 -1.21041 0
M  V30 315 C 33.095 -2.83813 -1.31981 0
M  V30 316 C 33.57 -4.24769 -1.71276 0
M  V30 317 N 35.061 -4.27482 -1.78363 0
M  V30 318 C 35.796 -5.33494 -2.1017 0
M  V30 319 N 35.292 -6.49775 -2.40343 0
M  V30 320 N 37.085 -5.20894 -2.11248 0
M  V30 321 H 29.236 -2.11214 0.22413 0
M  V30 322 H 31.499 -0.947252 0.0376439 0
M  V30 323 H 31.205 -3.48765 -0.453415 0
M  V30 324 H 31.079 -3.09327 -2.15863 0
M  V30 325 H 33.466 -2.10561 -2.06756 0
M  V30 326 H 33.547 -2.53358 -0.352596 0
M  V30 327 H 33.191 -4.9854 -0.970588 0
M  V30 328 H 33.121 -4.52673 -2.69062 0
M  V30 329 H 35.612 -3.43611 -1.57288 0
M  V30 330 H 35.925 -7.26402 -2.63743 0
M  V30 331 H 34.27 -6.53035 -2.37844 0
M  V30 332 H 37.461 -4.29065 -1.87139 0
M  V30 333 H 37.634 -6.03612 -2.35704 0
M  V30 334 N 31.0401 0.771051 -1.3745 0
M  V30 335 C 31.9501 1.91538 -1.35464 0
M  V30 336 C 32.9661 1.72134 -0.254123 0
M  V30 337 O 34.1421 1.95358 -0.489626 0
M  V30 338 C 31.2071 3.26671 -1.16134 0
M  V30 339 C 30.2681 3.58723 -2.35831 0
M  V30 340 C 29.5011 4.87409 -2.17413 0
M  V30 341 O 29.7241 5.58506 -1.15876 0
M  V30 342 O 28.6581 5.18539 -3.05615 0
M  V30 343 H 32.4841 1.96165 -2.31847 0
M  V30 344 H 30.0691 0.9139 -1.18187 0
M  V30 345 H 31.9511 4.07499 -1.07345 0
M  V30 346 H 30.6261 3.22894 -0.228251 0
M  V30 347 H 29.5331 2.78127 -2.50192 0
M  V30 348 H 30.8661 3.67243 -3.27709 0
M  V30 349 N 32.5182 1.22032 0.997298 0
M  V30 350 C 33.7642 1.04376 1.73878 0
M  V30 351 C 34.0972 -0.420716 1.89588 0
M  V30 352 O 33.3722 -1.31202 1.43583 0
M  V30 353 C 33.6552 1.75047 3.14691 0
M  V30 354 C 33.5082 3.29062 3.06656 0
M  V30 355 C 34.8272 1.49928 4.13775 0
M  V30 356 H 31.9462 0.380578 0.631133 0
M  V30 357 H 34.5882 1.50312 1.16217 0
M  V30 358 H 32.7382 1.35996 3.63919 0
M  V30 359 H 34.4102 3.7753 2.65083 0
M  V30 360 H 32.6532 3.58967 2.43568 0
M  V30 361 H 33.3242 3.73683 4.06282 0
M  V30 362 H 35.8002 1.83842 3.73285 0
M  V30 363 H 34.6762 2.01878 5.10428 0
M  V30 364 H 34.9372 0.430929 4.39995 0
M  V30 365 N 33.9963 -1.19345 1.0293 0
M  V30 366 C 34.9443 -2.24621 0.604001 0
M  V30 367 C 35.9383 -1.65452 -0.363587 0
M  V30 368 O 37.1443 -1.78497 -0.23212 0
M  V30 369 H 33.5193 -0.730858 0.177061 0
M  V30 370 H 35.4903 -2.5781 1.50255 0
M  V30 371 C 34.2393 -3.47688 -0.0289127 0
M  V30 372 H 33.5623 -3.93505 0.706651 0
M  V30 373 H 35.0023 -4.23011 -0.289432 0
M  V30 374 C 33.4613 -3.11817 -1.2756 0
M  V30 375 O 33.9913 -3.2451 -2.36762 0
M  V30 376 N 32.1973 -2.66246 -1.16453 0
M  V30 377 H 31.7443 -2.56118 -0.275914 0
M  V30 378 H 31.7023 -2.42617 -1.99961 0
M  V30 379 N 35.4744 -0.807222 -1.35358 0
M  V30 380 C 36.4224 -0.20614 -2.31685 0
M  V30 381 C 37.4164 0.644445 -1.56663 0
M  V30 382 O 38.6224 0.537538 -1.71786 0
M  V30 383 H 34.9974 -0.0479006 -0.750473 0
M  V30 384 H 36.9684 -1.03369 -2.79924 0
M  V30 385 C 35.7174 0.630212 -3.41941 0
M  V30 386 H 35.0404 -0.0149558 -3.99797 0
M  V30 387 H 36.4804 1.01716 -4.11619 0
M  V30 388 C 34.9394 1.79601 -2.85035 0
M  V30 389 O 35.4694 2.89351 -2.78637 0
M  V30 390 N 33.6754 1.60774 -2.42074 0
M  V30 391 H 33.2224 0.715009 -2.47478 0
M  V30 392 H 33.1804 2.38933 -2.04349 0
M  V30 393 N 36.9525 1.47285 -0.560781 0
M  V30 394 C 37.9005 2.31756 0.197942 0
M  V30 395 C 38.8945 1.43146 0.905854 0
M  V30 396 O 40.1005 1.59891 0.826733 0
M  V30 397 H 36.4755 0.747438 0.0827049 0
M  V30 398 H 38.4465 2.9359 -0.533629 0
M  V30 399 C 37.1955 3.25874 1.21249 0
M  V30 400 H 36.5185 3.94023 0.67719 0
M  V30 401 H 37.9585 3.87803 1.71419 0
M  V30 402 C 36.4175 2.49651 2.26221 0
M  V30 403 O 36.9475 2.24355 3.33208 0
M  V30 404 N 35.1535 2.10597 2.00243 0
M  V30 405 H 34.7005 2.31369 1.13252 0
M  V30 406 H 34.6585 1.59913 2.70694 0
M  V30 407 N 38.4306 0.297415 1.54768 0
M  V30 408 C 39.3776 -0.580276 2.23386 0
M  V30 409 C 40.3476 -1.13238 1.21517 0
M  V30 410 O 41.5326 -1.17757 1.50126 0
M  V30 411 C 38.6726 -1.74801 2.97555 0
M  V30 412 C 37.7856 -1.22764 4.1419 0
M  V30 413 C 36.9206 -2.35895 4.75949 0
M  V30 414 C 35.9596 -1.80974 5.84735 0
M  V30 415 N 35.0966 -2.87664 6.40464 0
M  V30 416 H 39.9366 0.0114833 2.97998 0
M  V30 417 H 37.4736 0.0174361 1.4709 0
M  V30 418 H 39.4316 -2.43475 3.38786 0
M  V30 419 H 38.0616 -2.31145 2.25326 0
M  V30 420 H 37.1136 -0.433271 3.77924 0
M  V30 421 H 38.4256 -0.785551 4.92575 0
M  V30 422 H 37.5796 -3.12523 5.20014 0
M  V30 423 H 36.3186 -2.83429 3.96887 0
M  V30 424 H 35.3236 -1.02834 5.40097 0
M  V30 425 H 36.5486 -1.34348 6.65678 0
M  V30 426 H 34.4946 -3.34538 5.64287 0
M  V30 427 H 34.4116 -2.4794 7.14186 0
M  V30 428 H 35.6796 -3.642 6.89187 0
M  V30 429 N 39.9087 -1.5758 0.0250728 0
M  V30 430 C 41.1557 -1.91633 -0.654444 0
M  V30 431 C 41.4837 -0.901103 -1.72367 0
M  V30 432 O 40.7387 0.0905647 -1.9549 0
M  V30 433 C 41.0377 -3.32421 -1.31268 0
M  V30 434 C 40.7037 -4.49344 -0.374223 0
M  V30 435 C 39.3657 -4.8106 -0.115911 0
M  V30 436 C 41.7177 -5.20498 0.270432 0
M  V30 437 C 39.0457 -5.8129 0.79493 0
M  V30 438 C 41.3977 -6.21699 1.1693 0
M  V30 439 C 40.0617 -6.51859 1.43655 0
M  V30 440 H 39.3317 -0.701236 -0.239478 0
M  V30 441 H 41.9787 -1.91307 0.0859734 0
M  V30 442 H 40.2837 -3.28989 -2.12775 0
M  V30 443 H 41.9807 -3.56038 -1.84494 0
M  V30 444 H 38.5707 -4.24579 -0.58573 0
M  V30 445 H 42.7547 -4.96229 0.0839194 0
M  V30 446 H 38.0107 -6.03005 1.00973 0
M  V30 447 H 42.1847 -6.75955 1.67504 0
M  V30 448 H 39.8117 -7.2934 2.144 0
M  V30 449 N 41.3868 0.248026 -1.55636 0
M  V30 450 C 42.6168 0.992367 -1.81206 0
M  V30 451 C 43.0248 1.7949 -0.598324 0
M  V30 452 O 42.3678 1.78292 0.442434 0
M  V30 453 C 42.4298 1.97926 -3.00109 0
M  V30 454 C 42.0938 1.36377 -4.36177 0
M  V30 455 C 43.0908 0.76682 -5.14214 0
M  V30 456 C 40.7758 1.38347 -4.82872 0
M  V30 457 C 42.7698 0.197778 -6.37093 0
M  V30 458 C 40.4568 0.810574 -6.057 0
M  V30 459 C 41.4548 0.218754 -6.8265 0
M  V30 460 O 41.1428 -0.345298 -8.03158 0
M  V30 461 H 40.8748 0.297704 -0.606917 0
M  V30 462 H 43.4288 0.276517 -2.0353 0
M  V30 463 H 41.6588 2.73339 -2.73538 0
M  V30 464 H 43.3478 2.58694 -3.12781 0
M  V30 465 H 44.1138 0.744114 -4.79258 0
M  V30 466 H 39.9928 1.8335 -4.2297 0
M  V30 467 H 43.5368 -0.264788 -6.97097 0
M  V30 468 H 39.4338 0.830604 -6.40134 0
M  V30 469 H 40.2018 -0.237055 -8.18157 0
M  V30 470 N 42.8649 1.48995 0.513639 0
M  V30 471 C 43.7749 1.67443 1.64317 0
M  V30 472 C 44.7909 0.556947 1.64846 0
M  V30 473 O 45.9669 0.830082 1.83498 0
M  V30 474 C 43.0319 1.72515 3.00732 0
M  V30 475 C 42.0929 2.96009 3.1093 0
M  V30 476 C 41.3259 3.00829 4.40837 0
M  V30 477 O 41.5489 2.13594 5.28898 0
M  V30 478 O 40.4829 3.93168 4.55744 0
M  V30 479 H 44.3089 2.63106 1.51687 0
M  V30 480 H 41.8939 1.32588 0.688543 0
M  V30 481 H 43.7759 1.78277 3.81831 0
M  V30 482 H 42.4509 0.800278 3.13651 0
M  V30 483 H 41.3579 2.9577 2.29065 0
M  V30 484 H 42.6909 3.87934 3.02933 0
M  V30 485 N 44.343 -0.763751 1.37857 0
M  V30 486 C 45.589 -1.52483 1.33704 0
M  V30 487 C 45.922 -1.94051 -0.0759612 0
M  V30 488 O 45.197 -1.64675 -1.03501 0
M  V30 489 C 45.48 -2.78441 2.28348 0
M  V30 490 C 45.333 -2.43075 3.78463 0
M  V30 491 C 46.652 -3.80415 2.21298 0
M  V30 492 H 43.771 -0.553169 0.487005 0
M  V30 493 H 46.413 -0.875562 1.68624 0
M  V30 494 H 44.563 -3.33842 1.987 0
M  V30 495 H 46.235 -1.93527 4.18742 0
M  V30 496 H 44.478 -1.75666 3.96641 0
M  V30 497 H 45.149 -3.33149 4.40132 0
M  V30 498 H 47.625 -3.34527 2.47449 0
M  V30 499 H 46.501 -4.66257 2.89647 0
M  V30 500 H 46.762 -4.25262 1.20849 0
M  V30 501 N 45.8211 -1.22559 -0.990812 0
M  V30 502 C 46.7511 -1.0218 -2.09956 0
M  V30 503 C 47.7321 0.0579394 -1.70001 0
M  V30 504 O 48.9171 -0.104684 -1.93918 0
M  V30 505 C 46.0471 -0.601023 -3.4206 0
M  V30 506 C 45.0011 -1.62694 -3.95872 0
M  V30 507 C 44.3271 -1.06193 -5.24049 0
M  V30 508 C 45.6271 -3.01743 -4.2632 0
M  V30 509 H 47.3211 -1.94916 -2.27262 0
M  V30 510 H 44.8671 -0.938566 -1.09211 0
M  V30 511 H 46.8201 -0.445561 -4.19038 0
M  V30 512 H 45.5441 0.362005 -3.24588 0
M  V30 513 H 44.2031 -1.77021 -3.21028 0
M  V30 514 H 43.8511 -0.0901903 -5.02919 0
M  V30 515 H 43.5511 -1.74732 -5.61019 0
M  V30 516 H 45.0751 -0.918092 -6.03658 0
M  V30 517 H 46.4891 -2.90777 -4.94087 0
M  V30 518 H 44.8861 -3.67425 -4.74467 0
M  V30 519 H 45.9561 -3.51518 -3.34011 0
M  V30 520 N 47.2992 1.18797 -1.03562 0
M  V30 521 C 48.2472 2.24297 -0.615905 0
M  V30 522 C 49.2412 1.65643 0.354808 0
M  V30 523 O 50.4472 1.78618 0.22265 0
M  V30 524 H 46.8222 0.729909 -0.180934 0
M  V30 525 H 48.7932 2.5701 -1.5162 0
M  V30 526 C 47.5422 3.47698 0.0104735 0
M  V30 527 H 46.8652 3.93125 -0.727509 0
M  V30 528 H 48.3052 4.23159 0.266995 0
M  V30 529 C 46.7642 3.12489 1.25905 0
M  V30 530 O 47.2942 3.25761 2.35038 0
M  V30 531 N 45.5002 2.6686 1.15039 0
M  V30 532 H 45.0472 2.56261 0.262328 0
M  V30 533 H 45.0052 2.43674 1.98672 0
M  V30 534 N 48.7773 0.814389 1.34928 0
M  V30 535 C 49.7073 0.244827 2.32213 0
M  V30 536 C 50.6883 -0.634024 1.57842 0
M  V30 537 O 51.8733 -0.562676 1.8587 0
M  V30 538 C 49.0033 -0.601106 3.42058 0
M  V30 539 C 47.9573 0.179896 4.27622 0
M  V30 540 C 47.2833 -0.788237 5.28858 0
M  V30 541 C 48.5833 1.38329 5.03649 0
M  V30 542 H 50.2773 1.05763 2.80097 0
M  V30 543 H 47.8233 0.510029 1.34665 0
M  V30 544 H 49.7763 -1.00968 4.09125 0
M  V30 545 H 48.5003 -1.44688 2.92802 0
M  V30 546 H 47.1593 0.569739 3.62146 0
M  V30 547 H 46.8073 -1.62973 4.75866 0
M  V30 548 H 46.5073 -0.269942 5.8698 0
M  V30 549 H 48.0313 -1.19485 5.98795 0
M  V30 550 H 49.4453 1.04918 5.63618 0
M  V30 551 H 47.8423 1.83662 5.71304 0
M  V30 552 H 48.9123 2.16592 4.33839 0
M  V30 553 N 50.2554 -1.46986 0.568584 0
M  V30 554 C 51.2024 -2.30153 -0.172707 0
M  V30 555 C 52.1724 -1.39759 -0.897586 0
M  V30 556 O 53.3574 -1.68716 -0.891044 0
M  V30 557 C 50.4974 -3.23952 -1.1895 0
M  V30 558 C 49.6104 -4.29441 -0.469517 0
M  V30 559 C 48.7454 -5.1038 -1.47259 0
M  V30 560 C 47.7844 -6.07632 -0.738225 0
M  V30 561 N 46.9214 -6.8149 -1.68868 0
M  V30 562 H 51.7614 -2.93019 0.542596 0
M  V30 563 H 49.2984 -1.44422 0.279401 0
M  V30 564 H 51.2564 -3.76767 -1.79173 0
M  V30 565 H 49.8864 -2.62926 -1.87269 0
M  V30 566 H 48.9384 -3.79594 0.247467 0
M  V30 567 H 50.2504 -4.98689 0.105241 0
M  V30 568 H 49.4044 -5.67402 -2.14803 0
M  V30 569 H 48.1434 -4.4106 -2.08128 0
M  V30 570 H 47.1484 -5.49778 -0.0489293 0
M  V30 571 H 48.3734 -6.78966 -0.135129 0
M  V30 572 H 46.3194 -6.14891 -2.28573 0
M  V30 573 H 46.2364 -7.46948 -1.16636 0
M  V30 574 H 47.5044 -7.43078 -2.3549 0
M  V30 575 N 51.7335 -0.305618 -1.54608 0
M  V30 576 C 52.6805 0.568421 -2.23691 0
M  V30 577 C 53.6505 1.12592 -1.22116 0
M  V30 578 O 54.8355 1.16959 -1.50749 0
M  V30 579 C 51.9755 1.7322 -2.98477 0
M  V30 580 C 51.0885 1.20566 -4.14835 0
M  V30 581 C 50.2235 2.33368 -4.77193 0
M  V30 582 C 49.2625 1.7787 -5.85686 0
M  V30 583 N 48.3995 2.84263 -6.4198 0
M  V30 584 H 53.2395 -0.0272867 -2.97988 0
M  V30 585 H 50.7765 -0.0252363 -1.47078 0
M  V30 586 H 52.7345 2.41675 -3.40072 0
M  V30 587 H 51.3645 2.29947 -2.26548 0
M  V30 588 H 50.4165 0.413223 -3.78149 0
M  V30 589 H 51.7285 0.759417 -4.92985 0
M  V30 590 H 50.8825 3.09761 -5.21664 0
M  V30 591 H 49.6215 2.8132 -3.98385 0
M  V30 592 H 48.6265 0.99968 -5.40635 0
M  V30 593 H 49.8515 1.30816 -6.66381 0
M  V30 594 H 47.7975 3.31541 -5.66053 0
M  V30 595 H 47.7145 2.44149 -7.15491 0
M  V30 596 H 48.9825 3.6054 -6.91109 0
M  V30 597 N 53.2116 1.57565 -0.0334293 0
M  V30 598 C 54.1596 2.1164 0.96496 0
M  V30 599 C 55.1536 1.04398 1.33407 0
M  V30 600 O 56.3596 1.22828 1.3158 0
M  V30 601 H 52.7346 0.676222 0.32898 0
M  V30 602 H 54.7056 2.94455 0.483614 0
M  V30 603 C 53.4546 2.66207 2.23672 0
M  V30 604 H 52.7776 3.48378 1.96145 0
M  V30 605 H 54.2176 3.07685 2.9173 0
M  V30 606 C 52.6766 1.59151 2.96939 0
M  V30 607 O 53.2066 0.993858 3.89211 0
M  V30 608 N 51.4126 1.31093 2.59351 0
M  V30 609 H 50.9596 1.7988 1.84393 0
M  V30 610 H 50.9176 0.596889 3.08682 0
M  V30 611 N 54.6897 -0.239769 1.55765 0
M  V30 612 C 55.9297 -0.974076 1.79697 0
M  V30 613 C 56.2937 -1.82249 0.604088 0
M  V30 614 O 57.4947 -2.58913 0.722324 0
M  V30 615 C 55.7657 -1.80595 3.08416 0
M  V30 616 S 57.3247 -2.59838 3.53596 0
M  V30 617 H 54.1427 -0.327524 0.63107 0
M  V30 618 H 56.7447 -0.241277 1.94005 0
M  V30 619 H 55.4487 -1.17249 3.93295 0
M  V30 620 H 54.9797 -2.58137 2.96865 0
M  V30 621 H 56.9947 -3.82987 3.15492 0
M  V30 622 N 56.1678 -1.49265 -0.50573 0
M  V30 623 C 57.3958 -1.62215 -1.28429 0
M  V30 624 C 57.8108 -0.291697 -1.86533 0
M  V30 625 O 57.1678 0.722233 -1.67601 0
M  V30 626 C 57.2188 -2.68735 -2.41793 0
M  V30 627 O 56.9398 -3.96619 -1.86078 0
M  V30 628 C 58.4408 -2.92346 -3.3324 0
M  V30 629 H 55.6608 -0.546239 -0.389697 0
M  V30 630 H 58.2048 -1.95265 -0.607609 0
M  V30 631 H 56.3598 -2.38476 -3.053 0
M  V30 632 H 56.7738 -4.55256 -2.60465 0
M  V30 633 H 58.2478 -3.70623 -4.09075 0
M  V30 634 H 58.7248 -2.02081 -3.89948 0
M  V30 635 H 59.3308 -3.24003 -2.75503 0
M  V30 636 N 57.6459 0.756429 -1.3826 0
M  V30 637 C 58.8739 1.54565 -1.3754 0
M  V30 638 C 59.2889 1.88767 0.0355331 0
M  V30 639 O 58.6459 1.52572 1.0014 0
M  V30 640 C 58.6969 2.84654 -2.22833 0
M  V30 641 O 58.4179 2.51912 -3.5843 0
M  V30 642 C 59.9189 3.78807 -2.30261 0
M  V30 643 H 57.1389 0.478353 -0.470553 0
M  V30 644 H 59.6829 0.936381 -1.81803 0
M  V30 645 H 57.8379 3.41965 -1.8204 0
M  V30 646 H 58.2519 3.35325 -4.03308 0
M  V30 647 H 59.7259 4.67045 -2.94233 0
M  V30 648 H 60.2029 4.19038 -1.31545 0
M  V30 649 H 60.8089 3.2742 -2.71433 0
M  V30 650 N 59.124 1.23083 0.984299 0
M  V30 651 C 60.401 0.9689 1.69917 0
M  V30 652 C 60.781 -0.513604 2.04757 0
M  V30 653 O 60.129 -1.48383 1.73767 0
M  V30 654 C 60.339 1.87518 2.94343 0
M  V30 655 C 61.687 2.13636 3.6694 0
M  V30 656 O 62.711 1.85036 3.04368 0
M  V30 657 O 61.57 2.62119 4.79537 0
M  V30 658 H 58.664 0.365095 0.742048 0
M  V30 659 H 61.21 1.34107 1.03987 0
M  V30 660 H 59.982 2.87756 2.65164 0
M  V30 661 H 59.605 1.50514 3.6801 0
M  V30 662 N 60.6021 -1.18246 1.0419 0
M  V30 663 C 61.5121 -2.25574 0.644476 0
M  V30 664 C 62.5281 -1.70845 -0.329826 0
M  V30 665 O 63.7041 -2.00554 -0.184443 0
M  V30 666 C 60.7691 -3.46697 0.014877 0
M  V30 667 C 59.8301 -4.16554 1.03834 0
M  V30 668 C 59.0631 -5.31894 0.438692 0
M  V30 669 O 59.2861 -5.65385 -0.754752 0
M  V30 670 O 58.2201 -5.90459 1.168 0
M  V30 671 H 62.0461 -2.61836 1.53869 0
M  V30 672 H 59.6311 -1.25352 0.812854 0
M  V30 673 H 61.5131 -4.20062 -0.335538 0
M  V30 674 H 60.1881 -3.12255 -0.853138 0
M  V30 675 H 59.0951 -3.45251 1.44057 0
M  V30 676 H 60.4281 -4.54998 1.87716 0
M  V30 677 N 62.0802 -0.821533 -1.34494 0
M  V30 678 C 63.3262 -0.409552 -1.98622 0
M  V30 679 C 63.6592 1.0244 -1.64984 0
M  V30 680 O 62.9342 1.71325 -0.920758 0
M  V30 681 C 63.2172 -0.610458 -3.54888 0
M  V30 682 C 63.0702 -2.09043 -3.98273 0
M  V30 683 C 64.3892 -0.0455379 -4.40076 0
M  V30 684 H 61.5082 -0.15028 -0.721516 0
M  V30 685 H 64.1502 -1.03384 -1.59411 0
M  V30 686 H 62.3002 -0.079044 -3.8842 0
M  V30 687 H 63.9722 -2.68537 -3.75081 0
M  V30 688 H 62.2152 -2.58139 -3.48635 0
M  V30 689 H 62.8862 -2.18182 -5.07051 0
M  V30 690 H 65.3622 -0.499557 -4.1309 0
M  V30 691 H 64.2382 -0.215922 -5.48475 0
M  V30 692 H 64.4992 1.04939 -4.29465 0
M  V30 693 N 63.5583 1.46682 -0.576371 0
M  V30 694 C 64.5053 2.30241 0.160499 0
M  V30 695 C 65.4753 1.40233 0.890162 0
M  V30 696 O 66.6603 1.69186 0.882084 0
M  V30 697 C 63.8003 3.24578 1.1723 0
M  V30 698 C 62.9133 4.29684 0.446736 0
M  V30 699 C 62.0483 5.11154 1.44551 0
M  V30 700 C 61.0873 6.08015 0.70599 0
M  V30 701 N 60.2243 6.82376 1.65251 0
M  V30 702 H 65.0643 2.92727 -0.558127 0
M  V30 703 H 62.6013 1.44272 -0.287056 0
M  V30 704 H 64.5593 3.77711 1.77172 0
M  V30 705 H 63.1893 2.63916 1.85872 0
M  V30 706 H 62.2413 3.79458 -0.267594 0
M  V30 707 H 63.5533 4.98626 -0.131686 0
M  V30 708 H 62.7073 5.68533 2.11791 0
M  V30 709 H 61.4463 4.42158 2.05786 0
M  V30 710 H 60.4513 5.49796 0.0197725 0
M  V30 711 H 61.6763 6.79028 0.09912 0
M  V30 712 H 59.6223 6.16094 2.25308 0
M  V30 713 H 59.5393 7.47556 1.12673 0
M  V30 714 H 60.8073 7.44316 2.31546 0
M  V30 715 N 65.0364 0.313813 1.54444 0
M  V30 716 C 65.9834 -0.55655 2.23989 0
M  V30 717 C 66.9534 -1.11943 1.22711 0
M  V30 718 O 68.1384 -1.16158 1.51367 0
M  V30 719 C 65.2784 -1.71635 2.99392 0
M  V30 720 C 64.3914 -1.18364 4.15468 0
M  V30 721 C 63.5264 -2.30834 4.78424 0
M  V30 722 C 62.5654 -1.74762 5.86622 0
M  V30 723 N 61.7024 -2.80855 6.43479 0
M  V30 724 H 66.5424 0.0430893 2.97969 0
M  V30 725 H 64.0794 0.0330359 1.47063 0
M  V30 726 H 66.0374 -2.39868 3.41349 0
M  V30 727 H 64.6674 -2.28742 2.27765 0
M  V30 728 H 63.7194 -0.393163 3.78363 0
M  V30 729 H 65.0314 -0.733262 4.93381 0
M  V30 730 H 64.1854 -3.0699 5.23299 0
M  V30 731 H 62.9244 -2.79204 3.99871 0
M  V30 732 H 61.9294 -0.970995 5.41158 0
M  V30 733 H 63.1544 -1.2728 6.67066 0
M  V30 734 H 61.1004 -3.28535 5.67804 0
M  V30 735 H 61.0174 -2.40351 7.16776 0
M  V30 736 H 62.2854 -3.5687 6.93011 0
M  V30 737 N 66.5145 -1.57545 0.0417849 0
M  V30 738 C 67.4775 -2.09885 -0.92093 0
M  V30 739 C 68.4775 -1.01648 -1.24596 0
M  V30 740 O 69.6675 -1.27759 -1.1842 0
M  V30 741 C 66.7995 -2.57527 -2.23367 0
M  V30 742 H 67.9925 -2.96236 -0.467382 0
M  V30 743 H 65.5455 -1.5493 -0.206467 0
M  V30 744 H 66.2805 -1.74542 -2.73323 0
M  V30 745 H 66.0655 -3.36613 -2.01083 0
M  V30 746 H 67.5555 -2.98201 -2.92346 0
M  V30 747 N 67.9926 0.231505 -1.5589 0
M  V30 748 C 69.2226 0.973092 -1.82248 0
M  V30 749 C 69.6306 1.78845 -0.617328 0
M  V30 750 O 68.9736 1.78752 0.423499 0
M  V30 751 C 69.0356 1.94732 -3.02192 0
M  V30 752 C 68.6996 1.31743 -4.37599 0
M  V30 753 C 69.6966 0.712238 -5.14998 0
M  V30 754 C 67.3816 1.33218 -4.84312 0
M  V30 755 C 69.3756 0.130195 -6.37267 0
M  V30 756 C 67.0626 0.746286 -6.06526 0
M  V30 757 C 68.0606 0.146337 -6.82843 0
M  V30 758 O 67.7486 -0.430465 -8.02747 0
M  V30 759 H 67.4806 0.29125 -0.61004 0
M  V30 760 H 70.0346 0.254915 -2.03812 0
M  V30 761 H 68.2646 2.70422 -2.76422 0
M  V30 762 H 69.9536 2.55362 -3.15508 0
M  V30 763 H 70.7196 0.69324 -4.8002 0
M  V30 764 H 66.5986 1.78854 -4.24891 0
M  V30 765 H 70.1426 -0.33871 -6.96777 0
M  V30 766 H 66.0396 0.762663 -6.40979 0
M  V30 767 H 66.8076 -0.323818 -8.17859 0
M  V30 768 N 69.4707 1.49531 0.497807 0
M  V30 769 C 70.8867 1.36365 0.829266 0
M  V30 770 C 71.0867 0.399184 1.97506 0
M  V30 771 O 70.1427 -0.167977 2.51941 0
M  V30 772 C 71.4557 2.77153 1.16647 0
M  V30 773 C 73.0037 2.85877 1.27449 0
M  V30 774 C 73.4787 4.2744 1.64497 0
M  V30 775 N 74.9697 4.30265 1.7154 0
M  V30 776 C 75.7047 5.3677 2.01656 0
M  V30 777 N 75.2007 6.53516 2.29976 0
M  V30 778 N 76.9937 5.24189 2.02934 0
M  V30 779 H 69.1447 2.10831 -0.257703 0
M  V30 780 H 71.4077 0.946534 -0.0527091 0
M  V30 781 H 71.1137 3.49442 0.397872 0
M  V30 782 H 70.9877 3.12722 2.10915 0
M  V30 783 H 73.3747 2.13824 2.0338 0
M  V30 784 H 73.4557 2.53887 0.312244 0
M  V30 785 H 73.0997 5.00021 0.891151 0
M  V30 786 H 73.0297 4.56896 2.61827 0
M  V30 787 H 75.5207 3.4607 1.51802 0
M  V30 788 H 75.8337 7.30506 2.52153 0
M  V30 789 H 74.1787 6.56737 2.27425 0
M  V30 790 H 77.3697 4.31988 1.80289 0
M  V30 791 H 77.5427 6.07286 2.26071 0
M  V30 792 N 70.9488 -0.749086 1.3866 0
M  V30 793 C 71.8958 -1.86291 1.36251 0
M  V30 794 C 72.8658 -1.64578 0.224347 0
M  V30 795 O 74.0508 -1.86181 0.417279 0
M  V30 796 C 71.1908 -3.23644 1.19786 0
M  V30 797 C 70.3038 -3.57158 2.43027 0
M  V30 798 C 69.4388 -4.83838 2.19258 0
M  V30 799 C 68.4778 -5.10152 3.38247 0
M  V30 800 N 67.6148 -6.28029 3.13884 0
M  V30 801 H 72.4548 -1.87685 2.3147 0
M  V30 802 H 69.9918 -0.917287 1.14997 0
M  V30 803 H 71.9498 -4.0291 1.08254 0
M  V30 804 H 70.5798 -3.21566 0.282031 0
M  V30 805 H 69.6318 -2.72701 2.65214 0
M  V30 806 H 70.9438 -3.7253 3.31697 0
M  V30 807 H 70.0978 -5.71057 2.04888 0
M  V30 808 H 68.8368 -4.70614 1.2796 0
M  V30 809 H 67.8418 -4.21401 3.53131 0
M  V30 810 H 69.0668 -5.25271 4.30427 0
M  V30 811 H 67.0128 -6.1612 2.25238 0
M  V30 812 H 66.9298 -6.43922 3.96106 0
M  V30 813 H 68.1978 -7.18124 3.03179 0
M  V30 814 N 72.4269 -1.23603 -0.977757 0
M  V30 815 C 73.3569 -1.04401 -2.0886 0
M  V30 816 C 74.3379 0.0399052 -1.70053 0
M  V30 817 O 75.5229 -0.125246 -1.93796 0
M  V30 818 C 72.6529 -0.637269 -3.41403 0
M  V30 819 C 71.6069 -1.66883 -3.94124 0
M  V30 820 C 70.9329 -1.11745 -5.22893 0
M  V30 821 C 72.2329 -3.06247 -4.23096 0
M  V30 822 H 73.9269 -1.97316 -2.25182 0
M  V30 823 H 71.4729 -0.950096 -1.08209 0
M  V30 824 H 73.4259 -0.48998 -4.18542 0
M  V30 825 H 72.1499 0.327557 -3.24953 0
M  V30 826 H 70.8089 -1.80416 -3.19133 0
M  V30 827 H 70.4569 -0.143527 -5.02795 0
M  V30 828 H 70.1569 -1.80672 -5.59134 0
M  V30 829 H 71.6809 -0.982067 -6.02651 0
M  V30 830 H 73.0949 -2.96001 -4.90975 0
M  V30 831 H 71.4919 -3.72436 -4.70544 0
M  V30 832 H 72.5619 -3.55041 -3.30263 0
M  V30 833 N 73.905 1.17692 -1.04816 0
M  V30 834 C 74.868 2.19787 -0.650117 0
M  V30 835 C 75.868 1.58044 0.296427 0
M  V30 836 O 77.058 1.74012 0.0808097 0
M  V30 837 C 74.19 3.40869 0.0456987 0
M  V30 838 H 75.383 2.56516 -1.5537 0
M  V30 839 H 72.936 1.31708 -0.841594 0
M  V30 840 H 73.671 3.09681 0.962726 0
M  V30 841 H 73.456 3.86928 -0.634727 0
M  V30 842 H 74.946 4.16445 0.310432 0
M  V30 843 N 75.3831 0.828654 1.34056 0
M  V30 844 C 76.6321 0.415828 1.97367 0
M  V30 845 C 76.9451 -1.02796 1.6641 0
M  V30 846 O 78.1511 -1.54497 2.23255 0
M  V30 847 C 76.6071 0.692601 3.53173 0
M  V30 848 C 76.2151 2.15038 3.93017 0
M  V30 849 C 77.9591 0.346222 4.23086 0
M  V30 850 C 75.8661 2.37174 5.41758 0
M  V30 851 H 74.7961 0.151755 0.738571 0
M  V30 852 H 77.4471 1.01581 1.52819 0
M  V30 853 H 75.8291 0.0223764 3.95994 0
M  V30 854 H 77.0031 2.86024 3.61285 0
M  V30 855 H 75.3181 2.45875 3.36057 0
M  V30 856 H 77.9151 0.48937 5.32456 0
M  V30 857 H 78.2581 -0.709842 4.10204 0
M  V30 858 H 78.7911 0.971258 3.85761 0
M  V30 859 H 75.5301 3.41308 5.59633 0
M  V30 860 H 75.0501 1.70738 5.74986 0
M  V30 861 H 76.7291 2.19818 6.08514 0
M  V30 862 N 76.8612 -1.46375 0.584142 0
M  V30 863 C 78.1102 -2.01585 0.0679741 0
M  V30 864 C 78.4232 -1.46109 -1.30045 0
M  V30 865 O 79.6292 -1.93148 -1.90804 0
M  V30 866 C 78.0852 -3.5983 0.0709207 0
M  V30 867 C 77.6932 -4.24303 1.43775 0
M  V30 868 C 79.4372 -4.22693 -0.391228 0
M  V30 869 C 77.3442 -5.74631 1.39834 0
M  V30 870 H 76.2742 -0.753689 0.0216421 0
M  V30 871 H 78.9252 -1.68093 0.736001 0
M  V30 872 H 77.3072 -3.90405 -0.663299 0
M  V30 873 H 78.4812 -4.05335 2.19181 0
M  V30 874 H 76.7962 -3.73539 1.84004 0
M  V30 875 H 79.3932 -5.3289 -0.439524 0
M  V30 876 H 79.7362 -3.91728 -1.40906 0
M  V30 877 H 80.2692 -3.96749 0.288974 0
M  V30 878 H 77.0082 -6.10258 2.39303 0
M  V30 879 H 76.5282 -5.95858 0.686505 0
M  V30 880 H 78.2072 -6.37375 1.11187 0
M  V30 881 N 78.3393 -0.321999 -1.54275 0
M  V30 882 C 79.2893 0.560185 -2.21011 0
M  V30 883 C 80.2733 1.08283 -1.19011 0
M  V30 884 O 81.4653 1.02011 -1.44647 0
M  V30 885 C 78.5943 1.72137 -2.97025 0
M  V30 886 C 77.6803 1.21369 -4.06363 0
M  V30 887 N 78.0713 0.425566 -5.04007 0
M  V30 888 C 76.3693 1.49255 -4.20284 0
M  V30 889 C 77.0703 0.152601 -5.815 0
M  V30 890 N 76.0463 0.738294 -5.38563 0
M  V30 891 H 79.8483 -0.049265 -2.93859 0
M  V30 892 H 77.3623 -0.127779 -1.61897 0
M  V30 893 H 79.3593 2.36512 -3.43319 0
M  V30 894 H 78.0193 2.33431 -2.25699 0
M  V30 895 H 79.0303 0.068551 -5.17855 0
M  V30 896 H 75.7073 2.11145 -3.60172 0
M  V30 897 H 77.0973 -0.481764 -6.70171 0
M  V30 898 N 79.8174 1.5752 -0.0501392 0
M  V30 899 C 80.7674 2.07981 0.934231 0
M  V30 900 C 81.7514 0.984745 1.27246 0
M  V30 901 O 82.9434 1.24809 1.25506 0
M  V30 902 C 80.0724 2.62751 2.20945 0
M  V30 903 C 79.1584 3.79225 1.89865 0
M  V30 904 N 79.5494 4.89036 1.29142 0
M  V30 905 C 77.8474 3.88111 2.19741 0
M  V30 906 C 78.5484 5.70084 1.15669 0
M  V30 907 N 77.5244 5.17659 1.65923 0
M  V30 908 H 81.3264 2.90277 0.460053 0
M  V30 909 H 78.8404 1.61665 0.15434 0
M  V30 910 H 80.8374 2.97205 2.9236 0
M  V30 911 H 79.4974 1.81894 2.6897 0
M  V30 912 H 80.5084 5.08854 0.963756 0
M  V30 913 H 77.1854 3.18194 2.70293 0
M  V30 914 H 78.5754 6.68395 0.685356 0
M  V30 915 N 81.2955 -0.223234 1.56011 0
M  V30 916 C 82.7065 -0.790368 1.69145 0
M  V30 917 C 83.0575 -1.85055 0.651845 0
M  V30 918 O 82.1825 -2.15498 -0.197359 0
M  V30 919 C 82.7775 -1.4404 3.06656 0
M  V30 920 C 81.3365 -1.95494 3.2165 0
M  V30 921 C 80.4835 -0.814506 2.65068 0
M  V30 922 H 83.4345 0.00139011 1.587 0
M  V30 923 H 83.4555 -2.30916 3.0242 0
M  V30 924 H 82.9675 -0.668543 3.82298 0
M  V30 925 H 81.0685 -2.75487 2.50874 0
M  V30 926 H 81.1815 -2.13607 4.28846 0
M  V30 927 H 79.5455 -1.22137 2.23505 0
M  V30 928 H 80.3285 -0.0553515 3.43255 0
M  V30 929 N 82.7736 -1.49793 -0.48987 0
M  V30 930 C 84.0506 -1.50348 -1.25119 0
M  V30 931 C 84.4306 -0.237466 -2.0976 0
M  V30 932 O 83.7786 0.77981 -2.14782 0
M  V30 933 C 83.9886 -2.78872 -2.09837 0
M  V30 934 C 85.3366 -3.288 -2.68655 0
M  V30 935 O 86.3606 -2.80065 -2.20096 0
M  V30 936 O 85.2196 -4.13707 -3.57083 0
M  V30 937 H 82.3136 -0.602242 -0.566775 0
M  V30 938 H 84.8596 -1.62067 -0.503229 0
M  V30 939 H 83.6316 -3.62499 -1.47343 0
M  V30 940 H 83.2546 -2.70066 -2.91805 0
M  V30 941 N 84.2517 0.741722 -1.39055 0
M  V30 942 C 85.1987 1.85566 -1.37237 0
M  V30 943 C 86.1687 1.64457 -0.233072 0
M  V30 944 O 87.3537 1.85957 -0.427147 0
M  V30 945 C 84.4937 3.23004 -1.215 0
M  V30 946 C 83.6067 3.55864 -2.44918 0
M  V30 947 C 82.7417 4.82669 -2.21821 0
M  V30 948 C 81.7807 5.08351 -3.40948 0
M  V30 949 N 80.9177 6.26356 -3.17211 0
M  V30 950 H 85.7577 1.86455 -2.32462 0
M  V30 951 H 83.2947 0.911176 -1.15482 0
M  V30 952 H 85.2527 4.02331 -1.10389 0
M  V30 953 H 83.8827 3.21411 -0.29908 0
M  V30 954 H 82.9347 2.7129 -2.66657 0
M  V30 955 H 84.2467 3.70765 -3.33668 0
M  V30 956 H 83.4007 5.69962 -2.07914 0
M  V30 957 H 82.1397 4.69929 -1.30454 0
M  V30 958 H 81.1447 4.19522 -3.55361 0
M  V30 959 H 82.3697 5.22981 -4.33207 0
M  V30 960 H 80.3157 6.14917 -2.28502 0
M  V30 961 H 80.2327 6.41813 -3.99515 0
M  V30 962 H 81.5007 7.16506 -3.06984 0
M  V30 963 N 85.7298 1.2412 0.971189 0
M  V30 964 C 86.9778 1.07668 1.71032 0
M  V30 965 C 87.2988 -0.385797 1.91146 0
M  V30 966 O 86.5688 -1.27569 1.4867 0
M  V30 967 H 85.1488 0.395429 0.633755 0
M  V30 968 H 87.8108 1.55984 1.16855 0
M  V30 969 H 86.9068 1.57195 2.69622 0
M  V30 970 N 87.2079 -1.17134 1.05439 0
M  V30 971 C 88.4559 -1.87085 0.764429 0
M  V30 972 C 88.7769 -1.81584 -0.710787 0
M  V30 973 O 88.0469 -1.24349 -1.51374 0
M  V30 974 H 86.6269 -0.692627 0.279779 0
M  V30 975 H 89.2889 -1.42087 1.33406 0
M  V30 976 H 88.3849 -2.92759 1.0816 0
M  V30 977 N 88.686 -0.835752 -1.33615 0
M  V30 978 C 89.963 -0.352017 -1.92406 0
M  V30 979 C 90.343 1.16225 -1.76224 0
M  V30 980 O 89.691 1.97526 -1.14873 0
M  V30 981 C 89.901 -0.795485 -3.39813 0
M  V30 982 C 91.249 -0.801703 -4.16963 0
M  V30 983 O 92.273 -0.738889 -3.48452 0
M  V30 984 O 91.132 -0.886607 -5.3926 0
M  V30 985 H 88.226 -0.0989641 -0.821057 0
M  V30 986 H 90.772 -0.921397 -1.42507 0
M  V30 987 H 89.544 -1.83795 -3.45449 0
M  V30 988 H 89.167 -0.202505 -3.97084 0
M  V30 989 N 90.1641 1.46063 -0.591896 0
M  V30 990 C 91.5751 1.85944 -0.167822 0
M  V30 991 C 91.9261 1.49429 1.27143 0
M  V30 992 O 91.0511 0.913515 1.96173 0
M  V30 993 C 91.6461 3.37489 -0.297794 0
M  V30 994 C 90.2051 3.76332 0.0714732 0
M  V30 995 C 89.3521 2.7006 -0.629509 0
M  V30 996 H 92.3031 1.37087 -0.799555 0
M  V30 997 H 92.3241 3.77532 0.474349 0
M  V30 998 H 91.8361 3.64034 -1.3454 0
M  V30 999 H 89.9371 3.55405 1.11886 0
M  V30 1000 H 90.0501 4.78088 -0.311245 0
M  V30 1001 H 88.4141 2.54607 -0.0687867 0
M  V30 1002 H 89.1971 2.99444 -1.67894 0
M  V30 1003 N 91.6422 0.330177 1.54103 0
M  V30 1004 C 92.5522 -0.541534 2.28264 0
M  V30 1005 C 93.5682 -1.12351 1.32866 0
M  V30 1006 O 94.7442 -1.14206 1.65888 0
M  V30 1007 C 91.8092 -1.68322 3.03098 0
M  V30 1008 C 90.8702 -1.13238 4.14096 0
M  V30 1009 C 90.1032 -2.21966 4.85352 0
M  V30 1010 O 90.3262 -3.42437 4.56172 0
M  V30 1011 O 89.2602 -1.87013 5.7211 0
M  V30 1012 H 93.0862 0.060938 3.03639 0
M  V30 1013 H 90.6712 0.09565 1.49093 0
M  V30 1014 H 92.5532 -2.34777 3.49939 0
M  V30 1015 H 91.2282 -2.27176 2.30593 0
M  V30 1016 H 90.1352 -0.432736 3.71589 0
M  V30 1017 H 91.4682 -0.588898 4.88664 0
M  V30 1018 N 93.1203 -1.57491 0.0584922 0
M  V30 1019 C 94.0673 -2.11958 -0.913376 0
M  V30 1020 C 95.0373 -1.02875 -1.30407 0
M  V30 1021 O 96.2223 -1.30464 -1.39226 0
M  V30 1022 C 93.3623 -2.67497 -2.18035 0
M  V30 1023 C 92.4753 -3.90691 -1.84349 0
M  V30 1024 C 91.6103 -4.3452 -3.05559 0
M  V30 1025 C 90.6493 -5.50395 -2.67827 0
M  V30 1026 N 89.7863 -5.89244 -3.81754 0
M  V30 1027 H 94.6263 -2.94704 -0.442017 0
M  V30 1028 H 92.1633 -1.45643 -0.206545 0
M  V30 1029 H 94.1213 -2.978 -2.92183 0
M  V30 1030 H 92.7513 -1.87537 -2.62735 0
M  V30 1031 H 91.8033 -3.66934 -1.00319 0
M  V30 1032 H 93.1153 -4.7489 -1.5258 0
M  V30 1033 H 92.2693 -4.66414 -3.87998 0
M  V30 1034 H 91.0083 -3.49147 -3.40511 0
M  V30 1035 H 90.0133 -5.18165 -1.83806 0
M  V30 1036 H 91.2383 -6.3749 -2.34059 0
M  V30 1037 H 89.1843 -5.06823 -4.16493 0
M  V30 1038 H 89.1013 -6.68151 -3.53708 0
M  V30 1039 H 90.3693 -6.25756 -4.64811 0
M  V30 1040 N 94.5984 0.214957 -1.56127 0
M  V30 1041 C 95.8454 0.938372 -1.79446 0
M  V30 1042 C 96.1734 1.8407 -0.628378 0
M  V30 1043 O 95.4284 1.91837 0.386925 0
M  V30 1044 C 95.7274 1.80314 -3.0858 0
M  V30 1045 C 95.3934 1.05349 -4.3842 0
M  V30 1046 C 94.0554 0.846435 -4.73697 0
M  V30 1047 C 96.4074 0.524588 -5.18553 0
M  V30 1048 C 93.7354 0.098683 -5.86617 0
M  V30 1049 C 96.0874 -0.209853 -6.32252 0
M  V30 1050 C 94.7514 -0.428102 -6.66126 0
M  V30 1051 H 94.0214 0.343375 -0.656639 0
M  V30 1052 H 96.6684 0.206077 -1.90388 0
M  V30 1053 H 94.9734 2.6035 -2.92789 0
M  V30 1054 H 96.6704 2.36513 -3.23825 0
M  V30 1055 H 93.2604 1.22486 -4.10725 0
M  V30 1056 H 97.4444 0.672008 -4.91729 0
M  V30 1057 H 92.7004 -0.0805753 -6.11347 0
M  V30 1058 H 96.8744 -0.627157 -6.9357 0
M  V30 1059 H 94.5014 -1.00944 -7.53468 0
M  V30 1060 N 96.0765 1.50051 0.48192 0
M  V30 1061 C 97.0235 1.68122 1.58125 0
M  V30 1062 C 97.9935 0.522545 1.57666 0
M  V30 1063 O 99.1785 0.751844 1.75362 0
M  V30 1064 C 96.3185 1.77142 2.96167 0
M  V30 1065 C 95.4315 3.0444 3.06497 0
M  V30 1066 C 94.5665 3.04321 4.35387 0
M  V30 1067 C 93.6055 4.26118 4.3942 0
M  V30 1068 N 92.7425 4.238 5.59766 0
M  V30 1069 H 97.5825 2.6198 1.42022 0
M  V30 1070 H 95.1195 1.29877 0.690687 0
M  V30 1071 H 97.0775 1.80352 3.76203 0
M  V30 1072 H 95.7075 0.867329 3.1093 0
M  V30 1073 H 94.7595 3.10752 2.19402 0
M  V30 1074 H 96.0715 3.94426 3.05336 0
M  V30 1075 H 95.2255 3.062 5.23762 0
M  V30 1076 H 93.9645 2.12147 4.39141 0
M  V30 1077 H 92.9695 4.24463 3.49444 0
M  V30 1078 H 94.1945 5.19507 4.37366 0
M  V30 1079 H 92.1405 3.34474 5.64326 0
M  V30 1080 H 92.0575 5.07542 5.60301 0
M  V30 1081 H 93.3255 4.2981 6.50295 0
M  V30 1082 N 97.5546 -0.734337 1.39446 0
M  V30 1083 C 98.4646 -1.87879 1.40495 0
M  V30 1084 C 99.4806 -1.714 0.299672 0
M  V30 1085 O 100.657 -1.93991 0.541249 0
M  V30 1086 C 97.7216 -3.23477 1.24754 0
M  V30 1087 C 96.7826 -3.52344 2.45259 0
M  V30 1088 C 96.0156 -4.81473 2.30259 0
M  V30 1089 O 96.2386 -5.55237 1.30643 0
M  V30 1090 O 95.1726 -5.10254 3.19256 0
M  V30 1091 H 98.9986 -1.89949 2.36966 0
M  V30 1092 H 96.5836 -0.882243 1.20569 0
M  V30 1093 H 98.4656 -4.04509 1.18111 0
M  V30 1094 H 97.1406 -3.22176 0.313781 0
M  V30 1095 H 96.0476 -2.71396 2.57478 0
M  V30 1096 H 97.3806 -3.58426 3.37331 0
M  V30 1097 N 99.0327 -1.24633 -0.964593 0
M  V30 1098 C 100.282 -1.08188 -1.7023 0
M  V30 1099 C 100.595 0.37873 -1.91898 0
M  V30 1100 O 101.801 0.663427 -2.6327 0
M  V30 1101 C 100.257 -1.88773 -3.06419 0
M  V30 1102 C 99.8647 -3.39263 -2.92582 0
M  V30 1103 C 101.609 -1.80867 -3.84041 0
M  V30 1104 C 99.5157 -4.1218 -4.24101 0
M  V30 1105 H 98.4457 -0.401245 -0.638372 0
M  V30 1106 H 101.097 -1.48742 -1.07462 0
M  V30 1107 H 99.4787 -1.41035 -3.70034 0
M  V30 1108 H 100.653 -3.94603 -2.37961 0
M  V30 1109 H 98.9677 -3.48154 -2.28424 0
M  V30 1110 H 101.565 -2.32646 -4.81435 0
M  V30 1111 H 101.908 -0.774543 -4.09031 0
M  V30 1112 H 102.441 -2.26301 -3.27159 0
M  V30 1113 H 99.1797 -5.15965 -4.04303 0
M  V30 1114 H 98.6997 -3.61626 -4.78526 0
M  V30 1115 H 100.379 -4.19349 -4.92702 0
M  V30 1116 N 100.511 1.16574 -1.06058 0
M  V30 1117 C 101.736 1.91493 -0.796562 0
M  V30 1118 C 102.161 1.76773 0.642868 0
M  V30 1119 O 101.519 1.09142 1.44768 0
M  V30 1120 C 101.567 3.40293 -1.19303 0
M  V30 1121 O 100.671 4.11074 -0.330394 0
M  V30 1122 H 100.012 0.596678 -0.291326 0
M  V30 1123 H 102.542 1.47708 -1.41575 0
M  V30 1124 H 102.552 3.91057 -1.16356 0
M  V30 1125 H 101.227 3.50326 -2.24153 0
M  V30 1126 H 99.8038 3.70513 -0.421225 0
M  V30 1127 N 101.989 0.842826 1.3317 0
M  V30 1128 C 103.405 0.531128 1.50503 0
M  V30 1129 C 103.605 -0.940734 1.78192 0
M  V30 1130 O 102.661 -1.72436 1.84451 0
M  V30 1131 C 103.974 1.40789 2.65705 0
M  V30 1132 C 105.522 1.40708 2.79589 0
M  V30 1133 C 105.997 2.26878 3.97857 0
M  V30 1134 N 107.488 2.24609 4.05099 0
M  V30 1135 C 108.223 2.88019 4.95815 0
M  V30 1136 N 107.719 3.60496 5.9162 0
M  V30 1137 N 109.512 2.77469 4.88843 0
M  V30 1138 H 101.663 1.79557 1.1346 0
M  V30 1139 H 103.926 0.766267 0.558156 0
M  V30 1140 H 103.632 2.454 2.51936 0
M  V30 1141 H 103.506 1.08677 3.61205 0
M  V30 1142 H 105.893 0.368668 2.92788 0
M  V30 1143 H 105.974 1.76829 1.84838 0
M  V30 1144 H 105.618 3.3078 3.85418 0
M  V30 1145 H 105.548 1.88096 4.91861 0
M  V30 1146 H 108.039 1.71906 3.36536 0
M  V30 1147 H 108.352 4.06076 6.57512 0
M  V30 1148 H 106.697 3.64604 5.91683 0
M  V30 1149 H 109.888 2.20406 4.12963 0
M  V30 1150 H 110.061 3.2717 5.59342 0
M  V30 1151 N 103.467 -1.45747 0.599634 0
M  V30 1152 C 104.43 -2.28917 -0.113835 0
M  V30 1153 C 105.43 -1.3933 -0.802729 0
M  V30 1154 O 106.62 -1.61534 -0.652103 0
M  V30 1155 C 103.752 -3.20152 -1.17114 0
M  V30 1156 H 104.945 -2.93478 0.617289 0
M  V30 1157 H 102.498 -1.52137 0.358327 0
M  V30 1158 H 103.233 -2.60374 -1.93329 0
M  V30 1159 H 103.018 -3.86133 -0.681468 0
M  V30 1160 H 104.508 -3.82708 -1.67105 0
M  V30 1161 N 104.945 -0.338344 -1.53925 0
M  V30 1162 C 106.175 0.260919 -2.04946 0
M  V30 1163 C 106.583 1.45174 -1.2133 0
M  V30 1164 O 105.926 1.82122 -0.240262 0
M  V30 1165 C 105.988 0.744596 -3.51704 0
M  V30 1166 C 105.652 -0.325883 -4.55837 0
M  V30 1167 C 106.649 -1.16687 -5.06636 0
M  V30 1168 C 104.334 -0.478317 -5.00017 0
M  V30 1169 C 106.328 -2.14588 -6.00192 0
M  V30 1170 C 104.015 -1.46073 -5.93385 0
M  V30 1171 C 105.013 -2.29297 -6.4336 0
M  V30 1172 O 104.701 -3.25867 -7.34892 0
M  V30 1173 H 104.433 0.0551207 -0.673749 0
M  V30 1174 H 106.987 -0.486984 -1.99544 0
M  V30 1175 H 105.217 1.54366 -3.54553 0
M  V30 1176 H 106.906 1.26383 -3.85723 0
M  V30 1177 H 107.672 -1.06016 -4.73271 0
M  V30 1178 H 103.551 0.159613 -4.60724 0
M  V30 1179 H 107.095 -2.79585 -6.39123 0
M  V30 1180 H 102.992 -1.56802 -6.26166 0
M  V30 1181 H 103.76 -3.21278 -7.5281 0
M  V30 1182 N 106.423 1.57458 -0.0668435 0
M  V30 1183 C 107.333 2.15937 0.916975 0
M  V30 1184 C 108.349 1.12123 1.33058 0
M  V30 1185 O 109.525 1.44366 1.40429 0
M  V30 1186 C 106.59 2.70547 2.16807 0
M  V30 1187 C 105.651 3.89215 1.81135 0
M  V30 1188 C 104.884 4.41211 3.0028 0
M  V30 1189 O 105.107 3.92225 4.14144 0
M  V30 1190 O 104.041 5.32605 2.80384 0
M  V30 1191 H 107.867 3.00354 0.449561 0
M  V30 1192 H 105.452 1.48584 0.155949 0
M  V30 1193 H 107.334 3.0557 2.90181 0
M  V30 1194 H 106.009 1.89192 2.62656 0
M  V30 1195 H 104.916 3.59054 1.05028 0
M  V30 1196 H 106.249 4.71848 1.40073 0
M  V30 1197 N 107.901 -0.206675 1.56239 0
M  V30 1198 C 109.147 -0.930218 1.80208 0
M  V30 1199 C 109.48 -1.83387 0.638981 0
M  V30 1200 O 108.755 -1.91119 -0.361066 0
M  V30 1201 C 109.038 -1.75641 3.1436 0
M  V30 1202 C 108.891 -0.878257 4.41142 0
M  V30 1203 C 110.21 -2.73129 3.45092 0
M  V30 1204 H 107.329 -0.336742 0.655571 0
M  V30 1205 H 109.971 -0.198222 1.88963 0
M  V30 1206 H 108.121 -2.38048 3.07027 0
M  V30 1207 H 109.793 -0.269787 4.6051 0
M  V30 1208 H 108.036 -0.184385 4.33408 0
M  V30 1209 H 108.707 -1.49106 5.3148 0
M  V30 1210 H 111.183 -2.20856 3.52649 0
M  V30 1211 H 110.059 -3.28028 4.40101 0
M  V30 1212 H 110.32 -3.51606 2.68003 0
M  V30 1213 N 109.379 -1.50304 -0.473955 0
M  V30 1214 C 110.309 -1.71886 -1.58042 0
M  V30 1215 C 111.29 -0.567799 -1.60344 0
M  V30 1216 O 112.475 -0.806623 -1.76656 0
M  V30 1217 C 109.605 -1.81036 -2.96384 0
M  V30 1218 C 108.559 -2.962 -3.08949 0
M  V30 1219 C 107.885 -2.9049 -4.48909 0
M  V30 1220 C 109.185 -4.36752 -2.86434 0
M  V30 1221 H 110.879 -2.64527 -1.40234 0
M  V30 1222 H 108.425 -1.27295 -0.673201 0
M  V30 1223 H 110.378 -1.94719 -3.73714 0
M  V30 1224 H 109.102 -0.850147 -3.15341 0
M  V30 1225 H 107.761 -2.82164 -2.3405 0
M  V30 1226 H 107.409 -1.92321 -4.64781 0
M  V30 1227 H 107.109 -3.67802 -4.58253 0
M  V30 1228 H 108.633 -3.06218 -5.28264 0
M  V30 1229 H 110.047 -4.5133 -3.53517 0
M  V30 1230 H 108.444 -5.15493 -3.07225 0
M  V30 1231 H 109.514 -4.49321 -1.82316 0
M  V30 1232 N 110.857 0.726932 -1.39834 0
M  V30 1233 C 112.082 1.52121 -1.40976 0
M  V30 1234 C 112.507 1.88098 -0.00826029 0
M  V30 1235 O 111.865 1.52479 0.980807 0
M  V30 1236 C 111.913 2.78021 -2.29644 0
M  V30 1237 O 111.017 3.74272 -1.73188 0
M  V30 1238 H 110.358 0.45908 -0.479731 0
M  V30 1239 H 112.888 0.896207 -1.83927 0
M  V30 1240 H 112.898 3.26671 -2.44438 0
M  V30 1241 H 111.573 2.51169 -3.31492 0
M  V30 1242 H 110.15 3.33073 -1.6768 0
M  V30 1243 N 112.336 1.25143 0.95797 0
M  V30 1244 C 113.613 1.00472 1.67823 0
M  V30 1245 C 113.993 -0.470056 2.058 0
M  V30 1246 O 113.341 -1.44663 1.76875 0
M  V30 1247 C 113.551 1.9372 2.90299 0
M  V30 1248 C 114.899 2.21371 3.62326 0
M  V30 1249 O 115.923 1.91451 3.00375 0
M  V30 1250 O 114.782 2.72231 4.7387 0
M  V30 1251 H 111.876 0.380752 0.734137 0
M  V30 1252 H 114.422 1.36283 1.01119 0
M  V30 1253 H 113.194 2.93316 2.59001 0
M  V30 1254 H 112.817 1.58286 3.64735 0
M  V30 1255 N 113.814 -1.1601 1.06675 0
M  V30 1256 C 114.724 -2.24156 0.692179 0
M  V30 1257 C 115.74 -1.71507 -0.293513 0
M  V30 1258 O 116.916 -2.009 -0.141861 0
M  V30 1259 C 113.981 -3.46587 0.0884131 0
M  V30 1260 C 113.042 -4.14257 1.12646 0
M  V30 1261 C 112.275 -5.30844 0.551416 0
M  V30 1262 O 112.498 -5.66858 -0.634656 0
M  V30 1263 O 111.432 -5.87848 1.29298 0
M  V30 1264 H 115.258 -2.58513 1.59388 0
M  V30 1265 H 112.843 -1.23599 0.83926 0
M  V30 1266 H 114.725 -4.20679 -0.246361 0
M  V30 1267 H 113.4 -3.13994 -0.786712 0
M  V30 1268 H 112.307 -3.42118 1.51348 0
M  V30 1269 H 113.64 -4.50914 1.97325 0
M  V30 1270 N 115.292 -0.849877 -1.32721 0
M  V30 1271 C 116.202 -0.293791 -2.32753 0
M  V30 1272 C 117.218 0.585906 -1.63839 0
M  V30 1273 O 118.394 0.487413 -1.95413 0
M  V30 1274 C 115.459 0.512752 -3.42887 0
M  V30 1275 C 114.52 -0.39252 -4.27502 0
M  V30 1276 C 113.753 0.375625 -5.32377 0
M  V30 1277 O 113.976 1.60613 -5.4732 0
M  V30 1278 O 112.91 -0.256094 -6.01355 0
M  V30 1279 H 116.736 -1.12242 -2.82197 0
M  V30 1280 H 114.321 -0.612685 -1.36259 0
M  V30 1281 H 116.203 0.970704 -4.10067 0
M  V30 1282 H 114.878 1.31826 -2.95641 0
M  V30 1283 H 113.785 -0.898547 -3.63149 0
M  V30 1284 H 115.118 -1.16309 -4.7826 0
M  V30 1285 N 116.77 1.45427 -0.607355 0
M  V30 1286 C 117.717 2.3053 0.111625 0
M  V30 1287 C 118.687 1.4209 0.860216 0
M  V30 1288 O 119.872 1.71019 0.845998 0
M  V30 1289 C 117.012 3.26992 1.10319 0
M  V30 1290 C 116.125 4.30535 0.355493 0
M  V30 1291 C 115.26 5.14105 1.33676 0
M  V30 1292 C 114.299 6.09376 0.576862 0
M  V30 1293 N 113.436 6.85727 1.5074 0
M  V30 1294 H 118.276 2.91477 -0.620093 0
M  V30 1295 H 115.813 1.43631 -0.317594 0
M  V30 1296 H 117.771 3.81385 1.6912 0
M  V30 1297 H 116.401 2.67799 1.80232 0
M  V30 1298 H 115.453 3.78805 -0.348023 0
M  V30 1299 H 116.765 4.98235 -0.237423 0
M  V30 1300 H 115.919 5.72897 1.99684 0
M  V30 1301 H 114.658 4.46423 1.9636 0
M  V30 1302 H 113.663 5.49715 -0.0968519 0
M  V30 1303 H 114.888 6.79085 -0.0449341 0
M  V30 1304 H 112.834 6.20735 2.12189 0
M  V30 1305 H 112.751 7.49778 0.967913 0
M  V30 1306 H 114.019 7.4906 2.15706 0
M  V30 1307 N 118.248 0.346503 1.53744 0
M  V30 1308 C 119.664 -0.00530975 1.59599 0
M  V30 1309 C 119.864 -1.48465 1.36236 0
M  V30 1310 O 118.92 -2.24376 1.15808 0
M  V30 1311 C 120.233 0.433516 2.97559 0
M  V30 1312 C 121.781 0.386111 3.10609 0
M  V30 1313 C 122.256 0.800451 4.50951 0
M  V30 1314 N 123.747 0.754753 4.5701 0
M  V30 1315 C 124.482 1.04727 5.63755 0
M  V30 1316 N 123.978 1.4081 6.7834 0
M  V30 1317 N 125.771 0.971316 5.53644 0
M  V30 1318 H 117.922 1.31009 1.67184 0
M  V30 1319 H 120.185 0.534242 0.783128 0
M  V30 1320 H 119.891 1.46509 3.19731 0
M  V30 1321 H 119.765 -0.189753 3.76722 0
M  V30 1322 H 122.152 -0.636295 2.88158 0
M  V30 1323 H 122.233 1.04462 2.33498 0
M  V30 1324 H 121.877 1.82088 4.74137 0
M  V30 1325 H 121.807 0.119386 5.26465 0
M  V30 1326 H 124.298 0.488662 3.74727 0
M  V30 1327 H 124.611 1.61607 7.55714 0
M  V30 1328 H 122.956 1.44657 6.79779 0
M  V30 1329 H 126.147 0.688748 4.63005 0
M  V30 1330 H 126.32 1.20263 6.36742 0
M  V30 1331 N 119.726 -1.57421 0.075193 0
M  V30 1332 C 120.673 -2.12915 -0.890843 0
M  V30 1333 C 121.643 -1.04252 -1.29309 0
M  V30 1334 O 122.828 -1.31933 -1.37834 0
M  V30 1335 C 119.968 -2.69795 -2.15186 0
M  V30 1336 C 119.081 -3.92624 -1.80194 0
M  V30 1337 C 118.216 -4.37736 -3.00933 0
M  V30 1338 C 117.255 -5.53205 -2.61974 0
M  V30 1339 N 116.392 -5.9326 -3.75483 0
M  V30 1340 H 121.232 -2.95156 -0.410735 0
M  V30 1341 H 118.769 -1.45854 -0.191086 0
M  V30 1342 H 120.727 -3.00883 -2.89008 0
M  V30 1343 H 119.357 -1.90313 -2.60731 0
M  V30 1344 H 118.409 -3.67977 -0.964218 0
M  V30 1345 H 119.721 -4.76482 -1.47534 0
M  V30 1346 H 118.875 -4.70503 -3.8303 0
M  V30 1347 H 117.614 -3.52739 -3.36789 0
M  V30 1348 H 116.619 -5.20086 -1.783 0
M  V30 1349 H 117.844 -6.39936 -2.27284 0
M  V30 1350 H 115.79 -5.11212 -4.11094 0
M  V30 1351 H 115.707 -6.71865 -3.46602 0
M  V30 1352 H 116.975 -6.30651 -4.58148 0
M  V30 1353 N 121.204 0.198386 -1.56346 0
M  V30 1354 C 122.134 1.24865 -1.9731 0
M  V30 1355 C 123.115 1.47651 -0.844576 0
M  V30 1356 O 124.3 1.59444 -1.10866 0
M  V30 1357 C 121.43 2.59358 -2.30977 0
M  V30 1358 C 120.384 2.5119 -3.46537 0
M  V30 1359 C 119.71 3.89926 -3.65871 0
M  V30 1360 C 121.01 2.03977 -4.80823 0
M  V30 1361 H 122.704 0.908252 -2.85291 0
M  V30 1362 H 120.25 0.435462 -1.37258 0
M  V30 1363 H 122.203 3.33011 -2.58228 0
M  V30 1364 H 120.927 2.95132 -1.39874 0
M  V30 1365 H 119.586 1.79993 -3.19371 0
M  V30 1366 H 119.234 4.23046 -2.72105 0
M  V30 1367 H 118.934 3.85336 -4.4361 0
M  V30 1368 H 120.458 4.65205 -3.95495 0
M  V30 1369 H 121.872 2.67386 -5.07127 0
M  V30 1370 H 120.269 2.10397 -5.62008 0
M  V30 1371 H 121.339 0.992861 -4.74626 0
M  V30 1372 N 122.682 1.50554 0.465978 0
M  V30 1373 C 123.912 1.65323 1.23903 0
M  V30 1374 C 124.32 0.338051 1.86155 0
M  V30 1375 O 123.663 -0.690518 1.70228 0
M  V30 1376 C 123.725 2.69048 2.3844 0
M  V30 1377 C 123.389 4.12462 1.96784 0
M  V30 1378 C 124.386 4.98168 1.48745 0
M  V30 1379 C 122.071 4.58407 2.05349 0
M  V30 1380 C 124.065 6.27868 1.0982 0
M  V30 1381 C 121.752 5.88112 1.66035 0
M  V30 1382 C 122.75 6.72668 1.18349 0
M  V30 1383 O 122.438 7.99951 0.795825 0
M  V30 1384 H 122.17 0.558629 0.38067 0
M  V30 1385 H 124.724 1.97561 0.562022 0
M  V30 1386 H 122.954 2.32062 3.09328 0
M  V30 1387 H 124.643 2.72985 3.0039 0
M  V30 1388 H 125.409 4.63885 1.41546 0
M  V30 1389 H 121.288 3.92735 2.41414 0
M  V30 1390 H 124.832 6.93819 0.725293 0
M  V30 1391 H 120.729 6.21914 1.72895 0
M  V30 1392 H 121.497 8.13265 0.924222 0
M  V30 1393 N 124.16 -0.719506 1.40217 0
M  V30 1394 C 125.437 -1.47221 1.28784 0
M  V30 1395 C 125.817 -2.10883 -0.0956067 0
M  V30 1396 O 125.165 -1.99833 -1.10811 0
M  V30 1397 C 125.375 -2.5111 2.42373 0
M  V30 1398 C 126.723 -3.17053 2.82423 0
M  V30 1399 O 127.747 -2.61429 2.41937 0
M  V30 1400 O 126.606 -4.17742 3.52355 0
M  V30 1401 H 123.7 -0.654491 0.50554 0
M  V30 1402 H 126.246 -0.752014 1.52128 0
M  V30 1403 H 125.018 -2.02556 3.34793 0
M  V30 1404 H 124.641 -3.3067 2.20778 0
M  V30 1405 N 125.638 -1.25649 -0.95132 0
M  V30 1406 C 126.548 -1.08073 -2.08224 0
M  V30 1407 C 127.564 -0.0169666 -1.73992 0
M  V30 1408 O 128.74 -0.218593 -2.0021 0
M  V30 1409 C 125.805 -0.704922 -3.39458 0
M  V30 1410 C 124.866 -1.84699 -3.87537 0
M  V30 1411 C 124.099 -1.48902 -5.12508 0
M  V30 1412 O 124.322 -0.386156 -5.69091 0
M  V30 1413 O 123.256 -2.32033 -5.55378 0
M  V30 1414 H 127.082 -2.02924 -2.25954 0
M  V30 1415 H 124.667 -1.04618 -1.06656 0
M  V30 1416 H 126.549 -0.507609 -4.18332 0
M  V30 1417 H 125.224 0.214291 -3.2299 0
M  V30 1418 H 124.131 -2.09919 -3.09653 0
M  V30 1419 H 125.464 -2.74557 -4.08509 0
M  V30 1420 N 127.117 1.15442 -1.07289 0
M  V30 1421 C 128.347 1.89821 -0.815576 0
M  V30 1422 C 128.755 1.7823 0.634867 0
M  V30 1423 O 128.098 1.13152 1.44715 0
M  V30 1424 C 128.16 3.40817 -1.14385 0
M  V30 1425 C 127.824 3.76193 -2.59476 0
M  V30 1426 C 128.821 3.77269 -3.57721 0
M  V30 1427 C 126.506 4.0652 -2.95037 0
M  V30 1428 C 128.5 4.08176 -4.89562 0
M  V30 1429 C 126.187 4.37092 -4.27076 0
M  V30 1430 C 127.185 4.37902 -5.24148 0
M  V30 1431 O 126.873 4.67741 -6.53815 0
M  V30 1432 H 126.605 0.608465 -0.294528 0
M  V30 1433 H 129.159 1.472 -1.43252 0
M  V30 1434 H 127.389 3.83835 -0.469865 0
M  V30 1435 H 129.078 3.96485 -0.869179 0
M  V30 1436 H 129.844 3.5394 -3.3159 0
M  V30 1437 H 125.723 4.05049 -2.20128 0
M  V30 1438 H 129.267 4.08723 -5.65324 0
M  V30 1439 H 125.164 4.59889 -4.5296 0
M  V30 1440 H 125.932 4.85509 -6.58957 0
M  V30 1441 N 128.595 0.856903 1.32268 0
M  V30 1442 C 129.843 0.460474 1.96784 0
M  V30 1443 C 130.164 -0.987701 1.68135 0
M  V30 1444 O 129.434 -1.69058 0.989765 0
M  V30 1445 H 128.014 0.167289 0.728027 0
M  V30 1446 H 130.676 1.09383 1.61312 0
M  V30 1447 H 129.772 0.60739 3.06133 0
M  V30 1448 N 130.073 -1.45103 0.615059 0
M  V30 1449 C 130.983 -2.34382 -0.101034 0
M  V30 1450 C 131.999 -1.51681 -0.852585 0
M  V30 1451 O 133.175 -1.8446 -0.808484 0
M  V30 1452 C 130.24 -3.29417 -1.08099 0
M  V30 1453 C 129.301 -4.28025 -0.330577 0
M  V30 1454 C 128.534 -5.1852 -1.26385 0
M  V30 1455 O 128.757 -5.12598 -2.50198 0
M  V30 1456 O 127.691 -5.97122 -0.756866 0
M  V30 1457 H 131.517 -2.97033 0.632855 0
M  V30 1458 H 129.102 -1.4461 0.375293 0
M  V30 1459 H 130.984 -3.87958 -1.6452 0
M  V30 1460 H 129.659 -2.69321 -1.79577 0
M  V30 1461 H 128.566 -3.73078 0.276283 0
M  V30 1462 H 129.899 -4.90997 0.343866 0
M  V30 1463 N 131.551 -0.354651 -1.53558 0
M  V30 1464 C 132.461 0.50515 -2.29097 0
M  V30 1465 C 133.477 1.10223 -1.34636 0
M  V30 1466 O 134.653 1.11553 -1.67684 0
M  V30 1467 C 131.718 1.63479 -3.05738 0
M  V30 1468 C 130.779 1.06636 -4.15845 0
M  V30 1469 C 130.012 2.14217 -4.88822 0
M  V30 1470 O 130.235 3.35137 -4.61562 0
M  V30 1471 O 129.169 1.77887 -5.75013 0
M  V30 1472 H 132.995 -0.109237 -3.03503 0
M  V30 1473 H 130.58 -0.119357 -1.48922 0
M  V30 1474 H 132.462 2.2918 -3.5363 0
M  V30 1475 H 131.137 2.23478 -2.34178 0
M  V30 1476 H 130.044 0.373565 -3.7223 0
M  V30 1477 H 131.377 0.511081 -4.89539 0
M  V30 1478 N 133.029 1.57378 -0.0835403 0
M  V30 1479 C 134.277 1.93547 0.581718 0
M  V30 1480 C 134.598 0.96524 1.69435 0
M  V30 1481 O 133.868 0.0153369 1.95894 0
M  V30 1482 H 132.448 0.714521 0.217874 0
M  V30 1483 H 135.11 1.94366 -0.144158 0
M  V30 1484 H 134.206 2.95665 0.999423 0
M  V30 1485 N 134.507 -0.190092 1.56449 0
M  V30 1486 C 135.437 -1.23816 1.97969 0
M  V30 1487 C 136.418 -1.47201 0.852395 0
M  V30 1488 O 137.603 -1.58854 1.1171 0
M  V30 1489 C 134.733 -2.5813 2.3235 0
M  V30 1490 C 133.687 -2.49348 3.47864 0
M  V30 1491 C 133.013 -3.8798 3.67934 0
M  V30 1492 C 134.313 -2.01424 4.81898 0
M  V30 1493 H 136.007 -0.89311 2.85769 0
M  V30 1494 H 133.553 -0.428177 1.37487 0
M  V30 1495 H 135.506 -3.31637 2.59991 0
M  V30 1496 H 134.23 -2.94386 1.41438 0
M  V30 1497 H 132.889 -1.78297 3.20321 0
M  V30 1498 H 132.537 -4.21597 2.74344 0
M  V30 1499 H 132.237 -3.82978 4.45648 0
M  V30 1500 H 133.761 -4.63101 3.97957 0
M  V30 1501 H 135.175 -2.64693 5.08538 0
M  V30 1502 H 133.572 -2.07413 5.63116 0
M  V30 1503 H 134.642 -0.967677 4.75146 0
M  V30 1504 N 135.985 -1.50799 -0.457987 0
M  V30 1505 C 136.895 -1.73426 -1.57989 0
M  V30 1506 C 137.911 -0.617745 -1.62665 0
M  V30 1507 O 139.087 -0.897614 -1.80291 0
M  V30 1508 C 136.152 -1.83557 -2.94122 0
M  V30 1509 C 135.213 -3.07345 -2.99729 0
M  V30 1510 C 134.446 -3.16983 -4.29368 0
M  V30 1511 O 134.669 -2.33077 -5.20607 0
M  V30 1512 O 133.603 -4.09812 -4.40837 0
M  V30 1513 H 137.429 -2.68555 -1.41817 0
M  V30 1514 H 135.014 -1.35052 -0.638859 0
M  V30 1515 H 136.896 -1.92326 -3.74952 0
M  V30 1516 H 135.571 -0.916137 -3.10465 0
M  V30 1517 H 134.478 -3.04068 -2.1793 0
M  V30 1518 H 135.811 -3.9891 -2.88326 0
M  V30 1519 N 137.463 0.71206 -1.40597 0
M  V30 1520 C 138.411 1.84746 -1.41321 0
M  V30 1521 C 139.405 1.66842 -0.293268 0
M  V30 1522 O 140.611 1.73904 -0.464481 0
M  V30 1523 H 136.986 0.608522 -0.441819 0
M  V30 1524 H 138.957 1.81252 -2.37045 0
M  V30 1525 C 137.706 3.22638 -1.29614 0
M  V30 1526 H 137.029 3.37023 -2.15071 0
M  V30 1527 H 138.469 4.02209 -1.3418 0
M  V30 1528 C 136.928 3.36899 -0.00673121 0
M  V30 1529 O 137.458 3.90186 0.954859 0
M  V30 1530 N 135.664 2.9053 0.0639327 0
M  V30 1531 H 135.211 2.47353 -0.719311 0
M  V30 1532 H 135.169 3.0045 0.926118 0
M  V30 1533 N 138.941 1.26152 0.944643 0
M  V30 1534 C 140.189 1.11271 1.6871 0
M  V30 1535 C 140.51 -0.345166 1.91921 0
M  V30 1536 O 139.78 -1.24387 1.51343 0
M  V30 1537 H 138.36 0.408783 0.625224 0
M  V30 1538 H 141.022 1.58427 1.1352 0
M  V30 1539 H 140.118 1.62879 2.66227 0
M  V30 1540 N 140.419 -1.14872 1.07899 0
M  V30 1541 C 141.329 -2.2341 0.715915 0
M  V30 1542 C 142.345 -1.71808 -0.275306 0
M  V30 1543 O 143.521 -2.01039 -0.120545 0
M  V30 1544 C 140.586 -3.46474 0.125168 0
M  V30 1545 C 139.647 -4.13039 1.17034 0
M  V30 1546 C 138.88 -5.30229 0.607688 0
M  V30 1547 O 139.103 -5.675 -0.574497 0
M  V30 1548 O 138.037 -5.86444 1.35526 0
M  V30 1549 H 141.863 -2.56808 1.62121 0
M  V30 1550 H 139.448 -1.22702 0.852322 0
M  V30 1551 H 141.33 -4.20917 -0.201729 0
M  V30 1552 H 140.005 -3.14811 -0.753364 0
M  V30 1553 H 138.912 -3.40493 1.54968 0
M  V30 1554 H 140.245 -4.48796 2.02097 0
M  V30 1555 N 141.898 -0.863906 -1.31812 0
M  V30 1556 C 142.83 -0.272485 -2.27575 0
M  V30 1557 C 143.843 0.56104 -1.52827 0
M  V30 1558 O 145.032 0.384021 -1.7432 0
M  V30 1559 C 142.132 0.63283 -3.32939 0
M  V30 1560 C 141.305 -0.166902 -4.37081 0
M  V30 1561 C 140.364 0.665608 -5.21973 0
M  V30 1562 O 139.39 0.0958091 -5.69119 0
M  V30 1563 N 140.592 1.9787 -5.45736 0
M  V30 1564 H 143.357 -1.0954 -2.78964 0
M  V30 1565 H 140.918 -0.724791 -1.4477 0
M  V30 1566 H 142.91 1.19532 -3.86645 0
M  V30 1567 H 141.48 1.35642 -2.81638 0
M  V30 1568 H 140.7 -0.910838 -3.83533 0
M  V30 1569 H 141.988 -0.715874 -5.03739 0
M  V30 1570 H 141.386 2.46484 -5.09178 0
M  V30 1571 H 139.943 2.48911 -6.024 0
M  V30 1572 N 143.376 1.44774 -0.622745 0
M  V30 1573 C 144.787 1.85546 -0.207226 0
M  V30 1574 C 145.138 1.52093 1.23944 0
M  V30 1575 O 144.263 0.95492 1.94191 0
M  V30 1576 C 144.858 3.36781 -0.369313 0
M  V30 1577 C 143.417 3.76399 -0.00836847 0
M  V30 1578 C 142.564 2.68664 -0.686651 0
M  V30 1579 H 145.515 1.3536 -0.828454 0
M  V30 1580 H 145.536 3.78453 0.394162 0
M  V30 1581 H 145.048 3.61098 -1.42231 0
M  V30 1582 H 143.149 3.57698 1.04322 0
M  V30 1583 H 143.262 4.7732 -0.412584 0
M  V30 1584 H 141.626 2.54404 -0.122777 0
M  V30 1585 H 142.409 2.95815 -1.74208 0
M  V30 1586 N 144.854 0.36279 1.53368 0
M  V30 1587 C 145.817 -0.472679 2.24273 0
M  V30 1588 C 146.817 -1.012 1.24961 0
M  V30 1589 O 148.007 -0.898194 1.49259 0
M  V30 1590 C 145.139 -1.66039 2.97731 0
M  V30 1591 H 146.332 0.14773 2.99536 0
M  V30 1592 H 143.885 0.114434 1.55881 0
M  V30 1593 H 144.62 -2.31896 2.26704 0
M  V30 1594 H 144.405 -1.28066 3.70596 0
M  V30 1595 H 145.895 -2.25252 3.51641 0
M  V30 1596 N 146.332 -1.57332 0.0918853 0
M  V30 1597 C 147.609 -1.85691 -0.614668 0
M  V30 1598 C 147.989 -0.988146 -1.86545 0
M  V30 1599 O 147.337 -0.0597055 -2.28422 0
M  V30 1600 C 147.547 -3.36294 -0.933126 0
M  V30 1601 C 148.895 -4.04275 -1.29796 0
M  V30 1602 O 149.919 -3.41157 -1.02424 0
M  V30 1603 O 148.778 -5.1564 -1.81047 0
M  V30 1604 H 145.872 -0.767802 -0.307261 0
M  V30 1605 H 148.418 -1.69244 0.12434 0
M  V30 1606 H 147.19 -3.91273 -0.0456404 0
M  V30 1607 H 146.813 -3.58076 -1.72822 0
M  V30 1608 N 147.81 0.181792 -1.56548 0
M  V30 1609 C 148.773 1.20894 -1.94724 0
M  V30 1610 C 149.773 1.37738 -0.829747 0
M  V30 1611 O 150.963 1.35323 -1.09697 0
M  V30 1612 C 148.095 2.57593 -2.23291 0
M  V30 1613 H 149.288 0.882275 -2.86629 0
M  V30 1614 H 146.841 0.423838 -1.50444 0
M  V30 1615 H 147.576 2.95291 -1.34067 0
M  V30 1616 H 147.361 2.46735 -3.04736 0
M  V30 1617 H 148.851 3.31637 -2.53785 0
M  V30 1618 N 149.288 1.51039 0.449983 0
M  V30 1619 C 150.516 1.66869 1.2232 0
M  V30 1620 C 150.931 0.360727 1.85322 0
M  V30 1621 O 150.288 -0.659531 1.70166 0
M  V30 1622 C 150.339 2.77524 2.31652 0
M  V30 1623 O 150.06 4.03252 1.7123 0
M  V30 1624 C 151.561 3.04512 3.2216 0
M  V30 1625 H 148.781 0.560326 0.369155 0
M  V30 1626 H 151.325 1.97385 0.534719 0
M  V30 1627 H 149.48 2.49642 2.96239 0
M  V30 1628 H 149.894 4.64609 2.43389 0
M  V30 1629 H 151.368 3.85551 3.95038 0
M  V30 1630 H 151.845 2.16415 3.8218 0
M  V30 1631 H 152.451 3.34005 2.63288 0
M  V30 1632 N 150.766 -0.704594 1.40972 0
M  V30 1633 C 152.043 -1.45847 1.30338 0
M  V30 1634 C 152.423 -2.10973 -0.0732344 0
M  V30 1635 O 151.771 -2.00997 -1.08685 0
M  V30 1636 C 151.981 -2.48525 2.45023 0
M  V30 1637 C 153.329 -3.1404 2.8577 0
M  V30 1638 O 154.353 -2.58848 2.44696 0
M  V30 1639 O 153.212 -4.13981 3.56766 0
M  V30 1640 H 150.306 -0.649092 0.512454 0
M  V30 1641 H 152.852 -0.735836 1.52917 0
M  V30 1642 H 151.624 -1.98994 3.36923 0
M  V30 1643 H 151.247 -3.2831 2.24272 0
M  V30 1644 N 152.244 -1.26651 -0.937939 0
M  V30 1645 C 153.174 -1.10993 -2.05433 0
M  V30 1646 C 154.155 -0.0142161 -1.70094 0
M  V30 1647 O 155.34 -0.186837 -1.93299 0
M  V30 1648 C 152.47 -0.745561 -3.39203 0
M  V30 1649 C 151.424 -1.79337 -3.88616 0
M  V30 1650 C 150.75 -1.28324 -5.19073 0
M  V30 1651 C 152.05 -3.19553 -4.13138 0
M  V30 1652 H 153.744 -2.0438 -2.1879 0
M  V30 1653 H 151.29 -0.984041 -1.05131 0
M  V30 1654 H 153.243 -0.622888 -4.16771 0
M  V30 1655 H 151.967 0.22401 -3.25831 0
M  V30 1656 H 150.626 -1.90477 -3.13231 0
M  V30 1657 H 150.274 -0.303414 -5.02084 0
M  V30 1658 H 149.974 -1.98369 -5.53103 0
M  V30 1659 H 151.498 -1.1733 -5.99221 0
M  V30 1660 H 152.912 -3.11471 -4.81309 0
M  V30 1661 H 151.309 -3.87218 -4.58457 0
M  V30 1662 H 152.379 -3.65368 -3.18801 0
M  V30 1663 N 153.722 1.14298 -1.08507 0
M  V30 1664 C 154.969 1.85359 -0.815373 0
M  V30 1665 C 155.297 1.83001 0.658865 0
M  V30 1666 O 154.552 1.25655 1.50031 0
M  V30 1667 C 154.851 3.33547 -1.28379 0
M  V30 1668 C 154.517 3.56093 -2.76602 0
M  V30 1669 C 153.179 3.61955 -3.17084 0
M  V30 1670 C 155.531 3.64834 -3.72217 0
M  V30 1671 C 152.859 3.74082 -4.51973 0
M  V30 1672 C 155.211 3.78487 -5.06883 0
M  V30 1673 C 153.875 3.82598 -5.46969 0
M  V30 1674 H 153.145 0.678276 -0.298366 0
M  V30 1675 H 155.792 1.35002 -1.35819 0
M  V30 1676 H 154.097 3.86191 -0.660593 0
M  V30 1677 H 155.794 3.86959 -1.05186 0
M  V30 1678 H 152.384 3.52179 -2.4427 0
M  V30 1679 H 156.568 3.59595 -3.42061 0
M  V30 1680 H 151.824 3.75527 -4.82483 0
M  V30 1681 H 155.998 3.84193 -5.80834 0
M  V30 1682 H 153.625 3.91747 -6.51489 0
M  V30 1683 N 155.201 0.870884 1.31352 0
M  V30 1684 C 156.478 0.402907 1.91405 0
M  V30 1685 C 156.858 -1.11512 1.79244 0
M  V30 1686 O 156.206 -1.94411 1.2007 0
M  V30 1687 C 156.416 0.885301 3.37585 0
M  V30 1688 C 157.764 0.911971 4.14691 0
M  V30 1689 O 158.788 0.831016 3.46371 0
M  V30 1690 O 157.647 1.02927 5.3672 0
M  V30 1691 H 154.741 0.120698 0.818145 0
M  V30 1692 H 157.287 0.958857 1.40014 0
M  V30 1693 H 156.059 1.92889 3.40455 0
M  V30 1694 H 155.682 0.307714 3.96407 0
M  V30 1695 N 156.679 -1.44442 0.630414 0
M  V30 1696 C 157.926 -2.02052 0.134617 0
M  V30 1697 C 158.254 -1.49576 -1.24327 0
M  V30 1698 O 157.509 -0.669806 -1.83881 0
M  V30 1699 C 157.808 -3.57332 0.0697835 0
M  V30 1700 C 157.474 -4.29058 1.38635 0
M  V30 1701 C 156.136 -4.4837 1.74694 0
M  V30 1702 C 158.488 -4.69872 2.25543 0
M  V30 1703 C 155.816 -5.05756 2.97369 0
M  V30 1704 C 158.168 -5.28616 3.47487 0
M  V30 1705 C 156.832 -5.46147 3.8377 0
M  V30 1706 H 156.102 -0.739361 0.0492598 0
M  V30 1707 H 158.749 -1.73217 0.816586 0
M  V30 1708 H 157.054 -3.85577 -0.695553 0
M  V30 1709 H 158.751 -3.99637 -0.330344 0
M  V30 1710 H 155.341 -4.14357 1.09574 0
M  V30 1711 H 159.525 -4.54666 1.98979 0
M  V30 1712 H 154.781 -5.17515 3.25558 0
M  V30 1713 H 158.955 -5.59192 4.15063 0
M  V30 1714 H 156.582 -5.9038 4.7891 0
M  V30 1715 N 158.157 -0.370918 -1.53173 0
M  V30 1716 C 159.406 0.218249 -2.00516 0
M  V30 1717 C 159.719 1.49429 -1.26215 0
M  V30 1718 O 160.925 2.16239 -1.64174 0
M  V30 1719 C 159.381 0.43948 -3.57207 0
M  V30 1720 C 158.989 -0.822244 -4.4039 0
M  V30 1721 C 160.733 0.986012 -4.1289 0
M  V30 1722 C 158.64 -0.570304 -5.88644 0
M  V30 1723 H 157.57 0.0853333 -0.749156 0
M  V30 1724 H 160.221 -0.490483 -1.76823 0
M  V30 1725 H 158.603 1.20961 -3.77074 0
M  V30 1726 H 159.777 -1.59557 -4.32294 0
M  V30 1727 H 158.092 -1.29238 -3.95836 0
M  V30 1728 H 160.689 1.18991 -5.21292 0
M  V30 1729 H 161.032 1.94972 -3.6782 0
M  V30 1730 H 161.565 0.27592 -3.96842 0
M  V30 1731 H 158.304 -1.50449 -6.38001 0
M  V30 1732 H 157.824 0.164427 -5.99575 0
M  V30 1733 H 159.503 -0.19784 -6.46697 0
M  V30 1734 N 159.635 1.57281 -0.100228 0
M  V30 1735 C 160.565 2.17328 0.853857 0
M  V30 1736 C 161.546 1.10804 1.2906 0
M  V30 1737 O 162.731 1.38963 1.35657 0
M  V30 1738 C 159.861 2.75772 2.11109 0
M  V30 1739 C 158.815 3.87713 1.81279 0
M  V30 1740 C 158.141 4.32882 3.13874 0
M  V30 1741 C 159.441 5.10677 1.09574 0
M  V30 1742 H 161.135 2.97305 0.353545 0
M  V30 1743 H 158.681 1.43009 0.168612 0
M  V30 1744 H 160.634 3.16433 2.78296 0
M  V30 1745 H 159.358 1.93057 2.63432 0
M  V30 1746 H 158.017 3.476 1.16489 0
M  V30 1747 H 157.665 3.47051 3.64095 0
M  V30 1748 H 157.365 5.08358 2.94696 0
M  V30 1749 H 158.889 4.7618 3.82211 0
M  V30 1750 H 160.303 5.48474 1.66879 0
M  V30 1751 H 158.7 5.91615 1.00557 0
M  V30 1752 H 159.77 4.84835 0.0793299 0
M  V30 1753 N 161.113 -0.173488 1.56642 0
M  V30 1754 C 162.061 -1.23417 1.97157 0
M  V30 1755 C 163.055 -1.45946 0.860013 0
M  V30 1756 O 164.261 -1.46551 1.04512 0
M  V30 1757 H 160.636 -0.414818 0.62724 0
M  V30 1758 H 162.607 -0.865582 2.8557 0
M  V30 1759 C 161.356 -2.5665 2.34576 0
M  V30 1760 H 160.679 -2.40137 3.19647 0
M  V30 1761 H 162.119 -3.2956 2.6677 0
M  V30 1762 C 160.578 -3.15245 1.18836 0
M  V30 1763 O 161.108 -3.98883 0.474869 0
M  V30 1764 N 159.314 -2.74303 0.959497 0
M  V30 1765 H 158.861 -2.0639 1.54146 0
M  V30 1766 H 158.819 -3.13844 0.186932 0
M  V30 1767 N 162.591 -1.51276 -0.441967 0
M  V30 1768 C 163.554 -1.7167 -1.51862 0
M  V30 1769 C 164.554 -0.586793 -1.49711 0
M  V30 1770 O 165.744 -0.854276 -1.51815 0
M  V30 1771 C 162.876 -1.76889 -2.91416 0
M  V30 1772 H 164.069 -2.67754 -1.35084 0
M  V30 1773 H 161.622 -1.41196 -0.670333 0
M  V30 1774 H 162.357 -0.826026 -3.13604 0
M  V30 1775 H 162.142 -2.59001 -2.94382 0
M  V30 1776 H 163.632 -1.94522 -3.69528 0
M  V30 1777 N 164.069 0.697108 -1.41344 0
M  V30 1778 C 165.317 1.45426 -1.40341 0
M  V30 1779 C 165.638 1.94996 -0.0128787 0
M  V30 1780 O 164.908 1.71599 0.945027 0
M  V30 1781 H 163.488 0.539594 -0.516573 0
M  V30 1782 H 166.15 0.825201 -1.76569 0
M  V30 1783 H 165.246 2.31817 -2.08967 0
M  V30 1784 N 165.547 1.27147 0.931209 0
M  V30 1785 C 166.494 1.09568 2.03134 0
M  V30 1786 C 167.464 -0.00222433 1.661 0
M  V30 1787 O 168.649 0.159439 1.90133 0
M  V30 1788 C 165.789 0.745231 3.36957 0
M  V30 1789 C 164.902 1.92041 3.86968 0
M  V30 1790 C 164.037 1.51216 5.09222 0
M  V30 1791 C 163.076 2.65504 5.5152 0
M  V30 1792 N 162.213 2.25291 6.64972 0
M  V30 1793 H 167.053 2.03708 2.17502 0
M  V30 1794 H 164.59 1.01411 1.06556 0
M  V30 1795 H 166.548 0.522878 4.1391 0
M  V30 1796 H 165.178 -0.159202 3.22407 0
M  V30 1797 H 164.23 2.25541 3.06326 0
M  V30 1798 H 165.542 2.77787 4.1429 0
M  V30 1799 H 164.696 1.25084 5.93666 0
M  V30 1800 H 163.435 0.625749 4.83669 0
M  V30 1801 H 162.44 2.92354 4.65628 0
M  V30 1802 H 163.665 3.54761 5.7907 0
M  V30 1803 H 161.611 1.39098 6.41083 0
M  V30 1804 H 161.528 3.04577 6.91931 0
M  V30 1805 H 162.796 2.02398 7.52765 0
M  V30 1806 N 167.025 -1.13721 1.09112 0
M  V30 1807 C 168.273 -1.84559 0.823562 0
M  V30 1808 C 168.594 -1.83754 -0.652658 0
M  V30 1809 O 167.864 -1.29102 -1.47342 0
M  V30 1810 H 166.444 -0.683376 0.301673 0
M  V30 1811 H 169.106 -1.37771 1.37859 0
M  V30 1812 H 168.202 -2.8917 1.17419 0
M  V30 1813 N 168.503 -0.877838 -1.30888 0
M  V30 1814 C 169.45 -0.337538 -2.28318 0
M  V30 1815 C 170.42 0.568346 -1.56074 0
M  V30 1816 O 171.605 0.498298 -1.84178 0
M  V30 1817 C 168.745 0.448142 -3.42178 0
M  V30 1818 C 167.858 -0.48615 -4.29256 0
M  V30 1819 C 166.993 0.314427 -5.30269 0
M  V30 1820 C 166.032 -0.615791 -6.08995 0
M  V30 1821 N 165.169 0.14902 -7.01942 0
M  V30 1822 H 170.009 -1.17356 -2.73919 0
M  V30 1823 H 167.546 -0.590094 -1.34745 0
M  V30 1824 H 169.504 0.919517 -4.06941 0
M  V30 1825 H 168.134 1.24879 -2.97666 0
M  V30 1826 H 167.186 -1.076 -3.64865 0
M  V30 1827 H 168.498 -1.19909 -4.84173 0
M  V30 1828 H 167.652 0.847969 -6.00745 0
M  V30 1829 H 166.391 1.06062 -4.76027 0
M  V30 1830 H 165.396 -1.16102 -5.37401 0
M  V30 1831 H 166.621 -1.36097 -6.65323 0
M  V30 1832 H 164.567 0.877884 -6.50099 0
M  V30 1833 H 164.484 -0.504433 -7.54315 0
M  V30 1834 H 165.752 0.663537 -7.76671 0
M  V30 1835 N 169.982 1.44106 -0.638065 0
M  V30 1836 C 170.929 2.30715 0.062701 0
M  V30 1837 C 171.899 1.43882 0.829883 0
M  V30 1838 O 173.084 1.72775 0.809532 0
M  V30 1839 C 170.224 3.29258 1.03358 0
M  V30 1840 C 169.337 4.31192 0.26409 0
M  V30 1841 C 168.472 5.16825 1.22741 0
M  V30 1842 C 167.511 6.10462 0.447475 0
M  V30 1843 N 166.648 6.8877 1.36161 0
M  V30 1844 H 171.488 2.90096 -0.681781 0
M  V30 1845 H 169.025 1.42925 -0.347988 0
M  V30 1846 H 170.983 3.84886 1.60992 0
M  V30 1847 H 169.613 2.71562 1.74511 0
M  V30 1848 H 168.665 3.77981 -0.428295 0
M  V30 1849 H 169.977 4.97619 -0.343052 0
M  V30 1850 H 169.131 5.77004 1.87487 0
M  V30 1851 H 167.87 4.50488 1.86847 0
M  V30 1852 H 166.875 5.49386 -0.213433 0
M  V30 1853 H 168.1 6.78837 -0.188968 0
M  V30 1854 H 166.046 6.25096 1.98975 0
M  V30 1855 H 165.963 7.51663 0.808656 0
M  V30 1856 H 167.231 7.53467 1.99769 0
M  V30 1857 N 171.46 0.379036 1.52974 0
M  V30 1858 C 172.407 -0.461048 2.26148 0
M  V30 1859 C 173.377 -1.06637 1.27349 0
M  V30 1860 O 174.562 -1.09633 1.56157 0
M  V30 1861 C 171.702 -1.58782 3.06402 0
M  V30 1862 C 170.815 -1.00636 4.20115 0
M  V30 1863 C 169.95 -2.10334 4.87784 0
M  V30 1864 C 168.989 -1.49724 5.93506 0
M  V30 1865 N 168.126 -2.5331 6.54812 0
M  V30 1866 H 172.966 0.169429 2.97518 0
M  V30 1867 H 170.503 0.0953806 1.4679 0
M  V30 1868 H 172.461 -2.25174 3.51215 0
M  V30 1869 H 171.091 -2.18876 2.37261 0
M  V30 1870 H 170.143 -0.232332 3.7969 0
M  V30 1871 H 171.455 -0.523343 4.96047 0
M  V30 1872 H 170.609 -2.84519 5.35849 0
M  V30 1873 H 169.348 -2.61992 4.11353 0
M  V30 1874 H 168.353 -0.740598 5.44789 0
M  V30 1875 H 169.578 -0.988732 6.71864 0
M  V30 1876 H 167.524 -3.04156 5.81227 0
M  V30 1877 H 167.441 -2.09734 7.26325 0
M  V30 1878 H 168.709 -3.27155 7.07524 0
M  V30 1879 N 172.938 -1.57226 0.108567 0
M  V30 1880 C 174.354 -1.5766 -0.248058 0
M  V30 1881 C 174.554 -1.12063 -1.67464 0
M  V30 1882 O 173.61 -0.803236 -2.39383 0
M  V30 1883 C 174.923 -3.0069 -0.0242287 0
M  V30 1884 C 176.471 -3.12868 -0.0909372 0
M  V30 1885 C 176.946 -4.57879 0.105067 0
M  V30 1886 N 178.437 -4.63172 0.0506846 0
M  V30 1887 C 179.172 -5.73126 0.177396 0
M  V30 1888 N 178.668 -6.91866 0.359696 0
M  V30 1889 N 180.461 -5.61977 0.117709 0
M  V30 1890 H 172.612 -1.85169 1.04049 0
M  V30 1891 H 174.875 -0.85529 0.40888 0
M  V30 1892 H 174.581 -3.38299 0.961604 0
M  V30 1893 H 174.455 -3.6945 -0.76068 0
M  V30 1894 H 176.842 -2.75124 -1.06729 0
M  V30 1895 H 176.923 -2.46672 0.677225 0
M  V30 1896 H 176.567 -4.96321 1.07834 0
M  V30 1897 H 176.497 -5.22153 -0.682954 0
M  V30 1898 H 178.988 -3.778 -0.0871266 0
M  V30 1899 H 179.301 -7.71503 0.447529 0
M  V30 1900 H 177.646 -6.93874 0.395536 0
M  V30 1901 H 180.837 -4.68094 -0.0236741 0
M  V30 1902 H 181.01 -6.47627 0.219905 0
M  V30 1903 N 174.416 0.165178 -1.56732 0
M  V30 1904 C 175.664 0.879068 -1.8198 0
M  V30 1905 C 175.985 1.82514 -0.686561 0
M  V30 1906 O 175.255 1.93694 0.293146 0
M  V30 1907 H 173.835 0.327608 -0.671329 0
M  V30 1908 H 176.497 0.163526 -1.94213 0
M  V30 1909 H 175.593 1.45228 -2.76252 0
M  V30 1910 N 175.894 1.51508 0.433938 0
M  V30 1911 C 176.804 1.75917 1.5521 0
M  V30 1912 C 177.82 0.643545 1.61662 0
M  V30 1913 O 178.996 0.926183 1.7884 0
M  V30 1914 C 176.061 1.88213 2.91164 0
M  V30 1915 C 175.122 3.12074 2.94802 0
M  V30 1916 C 174.355 3.23774 4.24271 0
M  V30 1917 O 174.578 2.4133 5.16833 0
M  V30 1918 O 173.512 4.16774 4.34262 0
M  V30 1919 H 177.338 2.70777 1.37527 0
M  V30 1920 H 174.923 1.36051 0.617293 0
M  V30 1921 H 176.805 1.98267 3.71845 0
M  V30 1922 H 175.48 0.965413 3.08968 0
M  V30 1923 H 174.387 3.07497 2.13065 0
M  V30 1924 H 175.72 4.03446 2.81943 0
M  V30 1925 N 177.372 -0.689602 1.41712 0
M  V30 1926 C 178.649 -1.44457 1.31877 0
M  V30 1927 C 179.029 -2.11039 -0.0508537 0
M  V30 1928 O 178.377 -2.02138 -1.06547 0
M  V30 1929 C 178.587 -2.45913 2.47645 0
M  V30 1930 C 179.935 -3.10991 2.89084 0
M  V30 1931 O 180.959 -2.56238 2.47428 0
M  V30 1932 O 179.818 -4.10174 3.61137 0
M  V30 1933 H 176.912 -0.64362 0.519309 0
M  V30 1934 H 179.458 -0.719576 1.53689 0
M  V30 1935 H 178.23 -1.95409 3.39015 0
M  V30 1936 H 177.853 -3.25913 2.27742 0
M  V30 1937 N 178.85 -1.27639 -0.924453 0
M  V30 1938 C 180.099 -1.13549 -1.66702 0
M  V30 1939 C 180.412 0.317487 -1.93006 0
M  V30 1940 O 181.618 0.579333 -2.65247 0
M  V30 1941 C 180.074 -1.98426 -3.00259 0
M  V30 1942 C 179.682 -3.484 -2.81641 0
M  V30 1943 C 181.426 -1.92993 -3.78092 0
M  V30 1944 C 179.333 -4.25464 -4.10773 0
M  V30 1945 H 178.263 -0.421351 -0.625283 0
M  V30 1946 H 180.914 -1.52085 -1.02676 0
M  V30 1947 H 179.296 -1.52736 -3.6536 0
M  V30 1948 H 180.47 -4.01973 -2.25287 0
M  V30 1949 H 178.785 -3.55245 -2.17232 0
M  V30 1950 H 181.382 -2.47844 -4.7379 0
M  V30 1951 H 181.725 -0.904281 -4.0636 0
M  V30 1952 H 182.258 -2.36595 -3.19793 0
M  V30 1953 H 178.997 -5.28566 -3.87683 0
M  V30 1954 H 178.517 -3.76667 -4.66779 0
M  V30 1955 H 180.196 -4.34812 -4.79111 0
M  V30 1956 N 180.328 1.1314 -1.09713 0
M  V30 1957 C 181.574 1.84757 -0.836224 0
M  V30 1958 C 181.907 1.8347 0.636598 0
M  V30 1959 O 181.182 1.27491 1.46889 0
M  V30 1960 C 181.465 3.32782 -1.37578 0
M  V30 1961 C 181.318 3.42567 -2.91493 0
M  V30 1962 C 182.637 4.28307 -1.01198 0
M  V30 1963 H 179.756 0.67082 -0.305236 0
M  V30 1964 H 182.398 1.3278 -1.35903 0
M  V30 1965 H 180.548 3.77177 -0.931097 0
M  V30 1966 H 182.22 3.06862 -3.44432 0
M  V30 1967 H 180.463 2.83349 -3.28475 0
M  V30 1968 H 181.134 4.46674 -3.24324 0
M  V30 1969 H 183.61 3.91999 -1.39556 0
M  V30 1970 H 182.486 5.30307 -1.41653 0
M  V30 1971 H 182.747 4.42029 0.0794833 0
M  V30 1972 N 181.806 0.884767 1.30421 0
M  V30 1973 C 183.031 0.517288 2.00845 0
M  V30 1974 C 183.456 -0.886779 1.65885 0
M  V30 1975 O 182.814 -1.58768 0.875354 0
M  V30 1976 C 182.862 0.698994 3.5376 0
M  V30 1977 O 181.966 -0.255208 4.1161 0
M  V30 1978 H 181.307 0.203872 0.631927 0
M  V30 1979 H 183.837 1.19225 1.66272 0
M  V30 1980 H 183.847 0.597912 4.03595 0
M  V30 1981 H 182.522 1.72271 3.78544 0
M  V30 1982 H 181.099 -0.10784 3.72744 0
M  V30 1983 N 183.284 -1.43765 0.645699 0
M  V30 1984 C 184.194 -2.34544 -0.0512957 0
M  V30 1985 C 185.21 -1.53455 -0.82022 0
M  V30 1986 O 186.386 -1.86133 -0.769176 0
M  V30 1987 C 183.451 -3.31636 -1.01087 0
M  V30 1988 C 182.512 -4.2863 -0.239712 0
M  V30 1989 C 181.745 -5.21084 -1.15358 0
M  V30 1990 O 181.968 -5.1779 -2.39269 0
M  V30 1991 O 180.902 -5.98593 -0.630038 0
M  V30 1992 H 184.728 -2.95624 0.695718 0
M  V30 1993 H 182.313 -1.43781 0.405882 0
M  V30 1994 H 184.195 -3.9136 -1.56254 0
M  V30 1995 H 182.87 -2.73069 -1.73824 0
M  V30 1996 H 181.777 -3.72408 0.355356 0
M  V30 1997 H 183.11 -4.90157 0.447936 0
M  V30 1998 N 184.763 -0.387143 -1.52771 0
M  V30 1999 C 186.009 0.196025 -2.0185 0
M  V30 2000 C 186.342 1.46641 -1.27319 0
M  V30 2001 O 185.617 1.90889 -0.373032 0
M  V30 2002 C 185.9 0.466136 -3.5707 0
M  V30 2003 C 185.753 -0.819385 -4.42274 0
M  V30 2004 C 187.072 1.25768 -4.21747 0
M  V30 2005 H 184.191 0.0697708 -0.73369 0
M  V30 2006 H 186.833 -0.516286 -1.82851 0
M  V30 2007 H 184.983 1.07293 -3.7339 0
M  V30 2008 H 186.655 -1.4563 -4.37709 0
M  V30 2009 H 184.898 -1.43517 -4.09372 0
M  V30 2010 H 185.569 -0.585065 -5.48891 0
M  V30 2011 H 188.045 0.744167 -4.09391 0
M  V30 2012 H 186.921 1.41541 -5.30337 0
M  V30 2013 H 187.182 2.27228 -3.79236 0
M  V30 2014 N 186.241 1.57166 -0.116904 0
M  V30 2015 C 187.188 2.15202 0.83408 0
M  V30 2016 C 188.158 1.07644 1.26499 0
M  V30 2017 O 189.343 1.35541 1.34288 0
M  V30 2018 C 186.483 2.75405 2.07957 0
M  V30 2019 C 185.596 3.97264 1.69721 0
M  V30 2020 C 184.731 4.45561 2.89221 0
M  V30 2021 C 183.77 5.59956 2.47215 0
M  V30 2022 N 182.907 6.03006 3.59622 0
M  V30 2023 H 187.747 2.96141 0.332335 0
M  V30 2024 H 185.284 1.46309 0.152349 0
M  V30 2025 H 187.242 3.08439 2.80929 0
M  V30 2026 H 185.872 1.97159 2.55594 0
M  V30 2027 H 184.924 3.70404 0.866316 0
M  V30 2028 H 186.236 4.80226 1.34849 0
M  V30 2029 H 185.39 4.80493 3.7042 0
M  V30 2030 H 184.129 3.61544 3.27318 0
M  V30 2031 H 183.134 5.2463 1.64448 0
M  V30 2032 H 184.359 6.45738 2.10238 0
M  V30 2033 H 182.305 5.21931 3.97396 0
M  V30 2034 H 182.222 6.80819 3.28667 0
M  V30 2035 H 183.49 6.42576 4.41267 0
M  V30 2036 N 187.719 -0.156864 1.56817 0
M  V30 2037 C 188.965 -0.872416 1.83076 0
M  V30 2038 C 189.298 -1.81261 0.697001 0
M  V30 2039 O 188.573 -1.92171 -0.30008 0
M  V30 2040 C 188.856 -1.65551 3.19789 0
M  V30 2041 C 188.709 -0.737467 4.43713 0
M  V30 2042 C 190.028 -2.62012 3.53606 0
M  V30 2043 H 187.147 -0.315715 0.665953 0
M  V30 2044 H 189.789 -0.138004 1.89498 0
M  V30 2045 H 187.939 -2.28159 3.14445 0
M  V30 2046 H 189.611 -0.123143 4.61136 0
M  V30 2047 H 187.854 -0.0464067 4.33775 0
M  V30 2048 H 188.525 -1.32122 5.35955 0
M  V30 2049 H 191.001 -2.09525 3.59497 0
M  V30 2050 H 189.877 -3.13861 4.50314 0
M  V30 2051 H 190.138 -3.42902 2.79053 0
M  V30 2052 N 189.197 -1.51736 -0.425897 0
M  V30 2053 C 190.425 -1.68794 -1.1965 0
M  V30 2054 C 190.84 -0.390164 -1.84725 0
M  V30 2055 O 190.197 0.632376 -1.71194 0
M  V30 2056 C 190.248 -2.81174 -2.27208 0
M  V30 2057 O 189.969 -4.05925 -1.64793 0
M  V30 2058 C 191.47 -3.09599 -3.17275 0
M  V30 2059 H 188.69 -0.566128 -0.360194 0
M  V30 2060 H 191.234 -1.98211 -0.503249 0
M  V30 2061 H 189.389 -2.54324 -2.9223 0
M  V30 2062 H 189.803 -4.68423 -2.35967 0
M  V30 2063 H 191.277 -3.91786 -3.88854 0
M  V30 2064 H 191.754 -2.22468 -3.78688 0
M  V30 2065 H 192.36 -3.38151 -2.57941 0
M  V30 2066 N 190.675 0.682077 -1.42076 0
M  V30 2067 C 191.605 1.80796 -1.47767 0
M  V30 2068 C 192.586 1.6677 -0.334954 0
M  V30 2069 O 193.771 1.863 -0.548264 0
M  V30 2070 C 190.901 3.19038 -1.37229 0
M  V30 2071 C 189.855 3.47789 -2.49453 0
M  V30 2072 C 189.181 4.8553 -2.23975 0
M  V30 2073 C 190.481 3.45411 -3.91776 0
M  V30 2074 H 192.175 1.7629 -2.41997 0
M  V30 2075 H 189.721 0.846721 -1.16476 0
M  V30 2076 H 191.674 3.97528 -1.39821 0
M  V30 2077 H 190.398 3.24204 -0.394907 0
M  V30 2078 H 189.057 2.71657 -2.46166 0
M  V30 2079 H 188.705 4.87337 -1.24547 0
M  V30 2080 H 188.405 5.0573 -2.99184 0
M  V30 2081 H 189.929 5.66312 -2.28304 0
M  V30 2082 H 191.343 4.13882 -3.96705 0
M  V30 2083 H 189.74 3.77145 -4.66778 0
M  V30 2084 H 190.81 2.44122 -4.18966 0
M  V30 2085 N 192.153 1.28127 0.917671 0
M  V30 2086 C 193.063 1.13556 2.05286 0
M  V30 2087 C 194.079 0.0630914 1.73886 0
M  V30 2088 O 195.255 0.271598 1.9956 0
M  V30 2089 C 192.32 0.794676 3.3747 0
M  V30 2090 C 191.381 1.94909 3.82504 0
M  V30 2091 C 190.614 1.62437 5.0838 0
M  V30 2092 O 190.837 0.536905 5.67867 0
M  V30 2093 O 189.771 2.46677 5.4903 0
M  V30 2094 H 193.597 2.08844 2.20495 0
M  V30 2095 H 191.182 1.07409 1.03845 0
M  V30 2096 H 193.064 0.618344 4.16839 0
M  V30 2097 H 191.739 -0.128581 3.23445 0
M  V30 2098 H 190.646 2.18055 3.03978 0
M  V30 2099 H 191.979 2.85291 4.01086 0
M  V30 2100 N 193.631 -1.12557 1.10312 0
M  V30 2101 C 194.563 -2.17971 0.708625 0
M  V30 2102 C 195.576 -1.60806 -0.254027 0
M  V30 2103 O 196.765 -1.78458 -0.0386891 0
M  V30 2104 C 193.865 -3.38891 0.0248198 0
M  V30 2105 C 193.038 -4.25548 1.01132 0
M  V30 2106 C 192.097 -5.24972 0.35924 0
M  V30 2107 O 191.123 -5.60174 1.00965 0
M  V30 2108 N 192.325 -5.73747 -0.882847 0
M  V30 2109 H 195.09 -2.52427 1.61557 0
M  V30 2110 H 192.651 -1.27967 0.991771 0
M  V30 2111 H 194.643 -4.02485 -0.422852 0
M  V30 2112 H 193.213 -3.02596 -0.784514 0
M  V30 2113 H 192.433 -3.58589 1.6373 0
M  V30 2114 H 193.721 -4.80294 1.67914 0
M  V30 2115 H 193.119 -5.4731 -1.43065 0
M  V30 2116 H 191.676 -6.39234 -1.27369 0
M  V30 2117 N 195.109 -0.891671 -1.2995 0
M  V30 2118 C 196.039 -0.379797 -2.30391 0
M  V30 2119 C 197.02 0.540919 -1.6127 0
M  V30 2120 O 198.205 0.453352 -1.88834 0
M  V30 2121 C 195.335 0.400654 -3.44981 0
M  V30 2122 C 194.289 -0.428905 -4.25846 0
M  V30 2123 C 193.615 0.478557 -5.32554 0
M  V30 2124 C 194.915 -1.67458 -4.94727 0
M  V30 2125 H 196.609 -1.21914 -2.73454 0
M  V30 2126 H 194.155 -0.587675 -1.31462 0
M  V30 2127 H 196.108 0.769434 -4.14316 0
M  V30 2128 H 194.832 1.27371 -3.0074 0
M  V30 2129 H 193.491 -0.779911 -3.58208 0
M  V30 2130 H 193.139 1.34951 -4.84559 0
M  V30 2131 H 192.839 -0.0727433 -5.87555 0
M  V30 2132 H 194.363 0.843705 -6.04743 0
M  V30 2133 H 195.777 -1.376 -5.56542 0
M  V30 2134 H 194.174 -2.16659 -5.59624 0
M  V30 2135 H 195.244 -2.41518 -4.20473 0
M  V30 2136 N 196.587 1.43421 -0.653314 0
M  V30 2137 C 197.817 2.05864 -0.174238 0
M  V30 2138 C 198.225 1.49052 1.16534 0
M  V30 2139 O 197.568 0.616481 1.73047 0
M  V30 2140 C 197.63 3.59499 -0.00875873 0
M  V30 2141 C 197.294 4.38893 -1.27364 0
M  V30 2142 C 198.291 4.70947 -2.20239 0
M  V30 2143 C 195.976 4.789 -1.51525 0
M  V30 2144 C 197.97 5.41916 -3.35568 0
M  V30 2145 C 195.657 5.49614 -2.67147 0
M  V30 2146 C 196.655 5.81044 -3.58994 0
M  V30 2147 O 196.343 6.50313 -4.72597 0
M  V30 2148 H 196.075 0.670345 -0.0872549 0
M  V30 2149 H 198.629 1.84913 -0.894226 0
M  V30 2150 H 196.859 3.79025 0.7666 0
M  V30 2151 H 198.548 4.0364 0.427687 0
M  V30 2152 H 199.314 4.40558 -2.02815 0
M  V30 2153 H 195.193 4.53843 -0.809158 0
M  V30 2154 H 198.737 5.66365 -4.07279 0
M  V30 2155 H 194.634 5.79419 -2.84505 0
M  V30 2156 H 195.402 6.68795 -4.71864 0
M  V30 2157 N 198.065 0.39524 1.52563 0
M  V30 2158 C 199.013 -0.451859 2.28169 0
M  V30 2159 C 200.007 -1.05792 1.32304 0
M  V30 2160 O 201.213 -0.997718 1.49818 0
M  V30 2161 H 197.588 -0.164481 0.733792 0
M  V30 2162 H 199.559 0.207199 2.9768 0
M  V30 2163 C 198.308 -1.56385 3.10546 0
M  V30 2164 H 197.631 -1.10682 3.84174 0
M  V30 2165 H 199.071 -2.13067 3.66577 0
M  V30 2166 C 197.53 -2.52328 2.23231 0
M  V30 2167 O 198.06 -3.5588 1.86312 0
M  V30 2168 N 196.266 -2.22209 1.87274 0
M  V30 2169 H 195.813 -1.38033 2.17496 0
M  V30 2170 H 195.771 -2.86652 1.29143 0
M  V30 2171 N 199.544 -1.57102 0.125237 0
M  V30 2172 C 200.792 -1.95021 -0.530198 0
M  V30 2173 C 201.113 -1.00982 -1.66816 0
M  V30 2174 O 200.383 -0.0672693 -1.95784 0
M  V30 2175 H 198.963 -0.720046 -0.198853 0
M  V30 2176 H 201.625 -1.93916 0.19564 0
M  V30 2177 H 200.721 -2.98211 -0.920681 0
M  V30 2178 N 201.022 0.148545 -1.56898 0
M  V30 2179 C 201.985 1.16736 -1.97244 0
M  V30 2180 C 202.985 1.35947 -0.858777 0
M  V30 2181 O 204.175 1.32966 -1.12542 0
M  V30 2182 C 201.307 2.52798 -2.28705 0
M  V30 2183 H 202.5 0.821279 -2.88435 0
M  V30 2184 H 200.053 0.391831 -1.51309 0
M  V30 2185 H 200.788 2.92381 -1.403 0
M  V30 2186 H 200.573 2.40216 -3.09901 0
M  V30 2187 H 202.063 3.26179 -2.60762 0
M  V30 2188 N 202.5 1.5196 0.417844 0
M  V30 2189 C 203.728 1.69426 1.18753 0
M  V30 2190 C 204.143 0.399955 1.84515 0
M  V30 2191 O 203.5 -0.623288 1.71527 0
M  V30 2192 C 203.551 2.82375 2.25714 0
M  V30 2193 O 203.272 4.06793 1.62638 0
M  V30 2194 C 204.773 3.11277 3.15628 0
M  V30 2195 H 201.993 0.568031 0.357186 0
M  V30 2196 H 204.537 1.98475 0.49273 0
M  V30 2197 H 202.692 2.5587 2.90877 0
M  V30 2198 H 203.106 4.69667 2.3348 0
M  V30 2199 H 204.58 3.93843 3.86771 0
M  V30 2200 H 205.057 2.24473 3.77503 0
M  V30 2201 H 205.663 3.39515 2.56144 0
M  V30 2202 N 203.978 -0.674533 1.42435 0
M  V30 2203 C 204.925 -1.78807 1.45934 0
M  V30 2204 C 205.895 -1.63157 0.311271 0
M  V30 2205 O 207.08 -1.83707 0.515383 0
M  V30 2206 C 204.22 -3.16839 1.36773 0
M  V30 2207 C 203.333 -3.43774 2.61617 0
M  V30 2208 C 202.468 -4.71536 2.44597 0
M  V30 2209 C 201.507 -4.91505 3.64814 0
M  V30 2210 N 200.644 -6.10508 3.46734 0
M  V30 2211 H 205.484 -1.75151 2.41093 0
M  V30 2212 H 203.021 -0.85504 1.19697 0
M  V30 2213 H 204.979 -3.96606 1.29459 0
M  V30 2214 H 203.609 -3.19619 0.452089 0
M  V30 2215 H 202.661 -2.58259 2.79297 0
M  V30 2216 H 203.973 -3.54423 3.50978 0
M  V30 2217 H 203.127 -5.59393 2.3487 0
M  V30 2218 H 201.866 -4.6317 1.52726 0
M  V30 2219 H 200.871 -4.0209 3.74972 0
M  V30 2220 H 202.096 -5.01716 4.57665 0
M  V30 2221 H 200.042 -6.03315 2.5758 0
M  V30 2222 H 199.959 -6.2202 4.29682 0
M  V30 2223 H 201.227 -7.01044 3.40819 0
M  V30 2224 N 205.456 -1.28612 -0.910864 0
M  V30 2225 C 206.403 -1.12786 -2.01365 0
M  V30 2226 C 207.373 -0.024201 -1.66082 0
M  V30 2227 O 208.558 -0.189667 -1.89855 0
M  V30 2228 C 205.698 -0.798743 -3.35729 0
M  V30 2229 C 204.811 -1.98173 -3.83864 0
M  V30 2230 C 203.946 -1.59298 -5.06752 0
M  V30 2231 C 202.985 -2.74245 -5.47226 0
M  V30 2232 N 202.122 -2.35842 -6.61304 0
M  V30 2233 H 206.962 -2.07142 -2.14234 0
M  V30 2234 H 204.499 -1.03093 -1.0493 0
M  V30 2235 H 206.457 -0.588662 -4.13026 0
M  V30 2236 H 205.087 0.10789 -3.2262 0
M  V30 2237 H 204.139 -2.30386 -3.02699 0
M  V30 2238 H 205.451 -2.84343 -4.09818 0
M  V30 2239 H 204.605 -1.34513 -5.916 0
M  V30 2240 H 203.344 -0.702618 -4.82612 0
M  V30 2241 H 202.349 -2.99725 -4.60918 0
M  V30 2242 H 203.574 -3.63928 -5.73353 0
M  V30 2243 H 201.52 -1.49279 -6.38789 0
M  V30 2244 H 201.437 -3.15546 -6.86998 0
M  V30 2245 H 202.705 -2.14348 -7.4945 0
M  V30 2246 N 206.934 1.1197 -1.10907 0
M  V30 2247 C 207.864 2.19928 -0.784473 0
M  V30 2248 C 208.845 1.6833 0.244726 0
M  V30 2249 O 210.03 1.93892 0.109418 0
M  V30 2250 C 207.16 3.46597 -0.220827 0
M  V30 2251 C 206.114 4.11376 -1.18127 0
M  V30 2252 C 205.44 5.32554 -0.478594 0
M  V30 2253 C 206.74 4.56945 -2.52979 0
M  V30 2254 H 208.434 2.47337 -1.68715 0
M  V30 2255 H 205.98 1.18879 -0.812642 0
M  V30 2256 H 207.933 4.21396 0.0184278 0
M  V30 2257 H 206.657 3.1863 0.717113 0
M  V30 2258 H 205.316 3.38564 -1.40606 0
M  V30 2259 H 204.964 5.00856 0.463976 0
M  V30 2260 H 204.664 5.76844 -1.11912 0
M  V30 2261 H 206.188 6.10096 -0.248 0
M  V30 2262 H 207.602 5.23093 -2.3462 0
M  V30 2263 H 205.999 5.1203 -3.12962 0
M  V30 2264 H 207.069 3.70676 -3.12614 0
M  V30 2265 N 208.412 0.89855 1.29475 0
M  V30 2266 C 209.375 0.380272 2.26023 0
M  V30 2267 C 210.375 -0.484891 1.53315 0
M  V30 2268 O 211.565 -0.290108 1.71767 0
M  V30 2269 C 208.697 -0.45651 3.3783 0
M  V30 2270 H 209.89 1.23295 2.73383 0
M  V30 2271 H 207.443 0.676589 1.40897 0
M  V30 2272 H 208.178 -1.32922 2.95808 0
M  V30 2273 H 207.963 0.163393 3.91759 0
M  V30 2274 H 209.453 -0.810466 4.0966 0
M  V30 2275 N 209.89 -1.43072 0.660911 0
M  V30 2276 C 211.139 -2.00942 0.174735 0
M  V30 2277 C 211.452 -1.52797 -1.22117 0
M  V30 2278 O 212.658 -2.02991 -1.80297 0
M  V30 2279 C 211.114 -3.58948 0.261559 0
M  V30 2280 C 210.722 -4.16085 1.66064 0
M  V30 2281 C 212.466 -4.24173 -0.166617 0
M  V30 2282 C 210.373 -5.6641 1.70098 0
M  V30 2283 H 209.303 -0.751483 0.0615631 0
M  V30 2284 H 211.954 -1.63955 0.824069 0
M  V30 2285 H 210.336 -3.93372 -0.455421 0
M  V30 2286 H 211.51 -3.93147 2.40359 0
M  V30 2287 H 209.825 -3.6326 2.03546 0
M  V30 2288 H 212.422 -5.34471 -0.156433 0
M  V30 2289 H 212.765 -3.98647 -1.19943 0
M  V30 2290 H 213.298 -3.94659 0.498875 0
M  V30 2291 H 210.037 -5.96715 2.71315 0
M  V30 2292 H 209.557 -5.91382 1.00139 0
M  V30 2293 H 211.236 -6.30585 1.44816 0
M  V30 2294 N 211.368 -0.403325 -1.52352 0
M  V30 2295 C 212.593 0.176499 -2.06648 0
M  V30 2296 C 213.018 1.38577 -1.27193 0
M  V30 2297 O 212.376 1.7879 -0.300637 0
M  V30 2298 C 212.424 0.511061 -3.5696 0
M  V30 2299 O 211.528 1.60294 -3.79973 0
M  V30 2300 H 210.869 0.0167337 -0.663789 0
M  V30 2301 H 213.399 -0.574848 -1.96359 0
M  V30 2302 H 213.409 0.771362 -4.00642 0
M  V30 2303 H 212.084 -0.37296 -4.14224 0
M  V30 2304 H 210.661 1.33526 -3.48174 0
M  V30 2305 N 212.846 1.57033 -0.133567 0
M  V30 2306 C 213.793 2.16074 0.811208 0
M  V30 2307 C 214.763 1.08979 1.2535 0
M  V30 2308 O 215.948 1.36958 1.32843 0
M  V30 2309 C 213.088 2.77595 2.05024 0
M  V30 2310 C 212.201 3.99042 1.65498 0
M  V30 2311 C 211.336 4.48603 2.84479 0
M  V30 2312 C 210.375 5.62547 2.41262 0
M  V30 2313 N 209.512 6.06787 3.53206 0
M  V30 2314 H 214.352 2.96477 0.300906 0
M  V30 2315 H 211.889 1.46462 0.136822 0
M  V30 2316 H 213.847 3.11402 2.77642 0
M  V30 2317 H 212.477 1.99859 2.53488 0
M  V30 2318 H 211.529 3.71302 0.826981 0
M  V30 2319 H 212.841 4.81629 1.29748 0
M  V30 2320 H 211.995 4.84395 3.65303 0
M  V30 2321 H 210.734 3.64995 3.23465 0
M  V30 2322 H 209.739 5.26345 1.58874 0
M  V30 2323 H 210.964 6.47931 2.03377 0
M  V30 2324 H 208.91 5.26117 3.91838 0
M  V30 2325 H 208.827 6.84266 3.21427 0
M  V30 2326 H 210.095 6.4722 4.34427 0
M  V30 2327 N 214.325 -0.140222 1.56975 0
M  V30 2328 C 215.602 -0.880769 1.74648 0
M  V30 2329 C 215.982 -1.99036 0.703404 0
M  V30 2330 O 215.33 -2.26821 -0.27648 0
M  V30 2331 C 215.54 -1.417 3.18939 0
M  V30 2332 C 216.888 -1.87774 3.80823 0
M  V30 2333 O 217.912 -1.51427 3.2241 0
M  V30 2334 O 216.771 -2.54827 4.83452 0
M  V30 2335 H 213.865 -0.416713 0.714338 0
M  V30 2336 H 216.411 -0.125618 1.69234 0
M  V30 2337 H 215.183 -0.619902 3.86359 0
M  V30 2338 H 214.806 -2.23546 3.28805 0
M  V30 2339 N 215.803 -1.52179 -0.40978 0
M  V30 2340 C 217.052 -1.65434 -1.15388 0
M  V30 2341 C 217.365 -0.390056 -1.91671 0
M  V30 2342 O 218.571 -0.402399 -2.68501 0
M  V30 2343 C 217.027 -2.92279 -2.10003 0
M  V30 2344 C 216.635 -4.25813 -1.39239 0
M  V30 2345 C 218.379 -3.14897 -2.84675 0
M  V30 2346 C 216.286 -5.43782 -2.32498 0
M  V30 2347 H 215.216 -0.616267 -0.434432 0
M  V30 2348 H 217.867 -1.78666 -0.418401 0
M  V30 2349 H 216.249 -2.72744 -2.871 0
M  V30 2350 H 217.423 -4.55828 -0.675099 0
M  V30 2351 H 215.738 -4.09292 -0.766097 0
M  V30 2352 H 218.335 -4.0021 -3.54593 0
M  V30 2353 H 218.678 -2.29103 -3.47588 0
M  V30 2354 H 219.211 -3.34901 -2.14677 0
M  V30 2355 H 215.95 -6.3192 -1.74233 0
M  V30 2356 H 215.47 -5.18106 -3.02201 0
M  V30 2357 H 217.149 -5.76834 -2.93038 0
M  V30 2358 N 217.281 0.66697 -1.42791 0
M  V30 2359 C 218.53 1.42278 -1.42968 0
M  V30 2360 C 218.843 1.9553 -0.0524489 0
M  V30 2361 O 220.049 2.71414 0.068363 0
M  V30 2362 C 218.505 2.57418 -2.51524 0
M  V30 2363 C 218.113 2.10832 -3.9529 0
M  V30 2364 C 219.857 3.34878 -2.60877 0
M  V30 2365 C 217.764 3.23101 -4.95338 0
M  V30 2366 H 216.694 0.534533 -0.531781 0
M  V30 2367 H 219.345 0.721302 -1.68729 0
M  V30 2368 H 217.727 3.29971 -2.18941 0
M  V30 2369 H 218.901 1.4538 -4.37266 0
M  V30 2370 H 217.216 1.46289 -3.89857 0
M  V30 2371 H 219.813 4.18505 -3.32802 0
M  V30 2372 H 220.156 3.81993 -1.6549 0
M  V30 2373 H 220.689 2.69398 -2.92693 0
M  V30 2374 H 217.428 2.80969 -5.9223 0
M  V30 2375 H 216.948 3.87309 -4.57987 0
M  V30 2376 H 218.627 3.88447 -5.17415 0
M  V30 2377 N 218.759 1.29093 0.90403 0
M  V30 2378 C 219.999 1.18076 1.66845 0
M  V30 2379 C 220.363 -0.26436 1.90171 0
M  V30 2380 O 221.564 -0.497423 2.64157 0
M  V30 2381 C 219.835 1.96722 2.98388 0
M  V30 2382 S 221.394 2.0219 3.89441 0
M  V30 2383 H 218.212 0.421104 0.572881 0
M  V30 2384 H 220.814 1.63322 1.07453 0
M  V30 2385 H 219.518 3.00866 2.7912 0
M  V30 2386 H 219.049 1.52064 3.62823 0
M  V30 2387 H 221.064 1.13545 4.83034 0
M  V30 2388 N 220.237 -1.11381 1.11499 0
M  V30 2389 C 221.465 -1.86934 0.88675 0
M  V30 2390 C 221.88 -1.80195 -0.563476 0
M  V30 2391 O 221.237 -1.18367 -1.38908 0
M  V30 2392 C 221.288 -3.35722 1.34064 0
M  V30 2393 O 221.009 -3.4232 2.73401 0
M  V30 2394 C 222.51 -4.2818 1.14791 0
M  V30 2395 H 219.73 -0.591117 0.317523 0
M  V30 2396 H 222.274 -1.40865 1.48248 0
M  V30 2397 H 220.429 -3.79294 0.788355 0
M  V30 2398 H 220.843 -4.34971 2.93087 0
M  V30 2399 H 222.317 -5.30817 1.5145 0
M  V30 2400 H 222.794 -4.39113 0.0875279 0
M  V30 2401 H 223.4 -3.90402 1.68721 0
M  V30 2402 N 221.715 -0.905404 -1.28997 0
M  V30 2403 C 222.663 -0.377431 -2.29517 0
M  V30 2404 C 223.657 0.526461 -1.61012 0
M  V30 2405 O 224.863 0.40863 -1.753 0
M  V30 2406 H 221.238 -0.103437 -0.744852 0
M  V30 2407 H 223.209 -1.23848 -2.71485 0
M  V30 2408 C 221.958 0.374833 -3.45674 0
M  V30 2409 H 221.281 -0.311474 -3.98585 0
M  V30 2410 H 222.721 0.70903 -4.1803 0
M  V30 2411 C 221.18 1.57963 -2.97572 0
M  V30 2412 O 221.71 2.67886 -2.99333 0
M  V30 2413 N 219.916 1.42375 -2.53333 0
M  V30 2414 H 219.463 0.529466 -2.521 0
M  V30 2415 H 219.421 2.23117 -2.21509 0
M  V30 2416 N 223.193 1.4272 -0.668489 0
M  V30 2417 C 224.433 2.03497 -0.19194 0
M  V30 2418 C 224.797 1.51684 1.17712 0
M  V30 2419 O 225.998 2.04205 1.74796 0
M  V30 2420 C 224.269 3.56734 -0.218032 0
M  V30 2421 S 225.828 4.38395 0.188438 0
M  V30 2422 H 222.646 0.706542 -0.0794959 0
M  V30 2423 H 225.248 1.74563 -0.880235 0
M  V30 2424 H 223.952 3.91943 -1.2169 0
M  V30 2425 H 223.483 3.90333 0.490303 0
M  V30 2426 H 225.498 4.75345 1.42345 0
M  V30 2427 N 224.671 0.411399 1.52136 0
M  V30 2428 C 225.581 -0.419774 2.30814 0
M  V30 2429 C 226.597 -1.0515 1.38634 0
M  V30 2430 O 227.773 -1.05252 1.71709 0
M  V30 2431 C 224.838 -1.52019 3.11594 0
M  V30 2432 C 223.899 -0.91129 4.19516 0
M  V30 2433 C 223.132 -1.95927 4.96436 0
M  V30 2434 O 223.355 -3.17775 4.73683 0
M  V30 2435 O 222.289 -1.56423 5.81219 0
M  V30 2436 H 226.115 0.221805 3.02889 0
M  V30 2437 H 223.7 0.174547 1.48377 0
M  V30 2438 H 225.582 -2.15898 3.61892 0
M  V30 2439 H 224.257 -2.14633 2.42311 0
M  V30 2440 H 223.164 -0.235157 3.7336 0
M  V30 2441 H 224.497 -0.32904 4.91099 0
M  V30 2442 N 226.149 -1.5696 0.141893 0
M  V30 2443 C 227.397 -1.95573 -0.509484 0
M  V30 2444 C 227.718 -1.02746 -1.65736 0
M  V30 2445 O 226.988 -0.0880311 -1.95702 0
M  V30 2446 H 225.568 -0.722115 -0.191205 0
M  V30 2447 H 228.23 -1.93697 0.216196 0
M  V30 2448 H 227.326 -2.99171 -0.889 0
M  V30 2449 N 227.627 0.131896 -1.57047 0
M  V30 2450 C 228.577 1.1679 -1.95816 0
M  V30 2451 C 229.561 1.37756 -0.831393 0
M  V30 2452 O 230.753 1.39065 -1.09499 0
M  V30 2453 C 227.882 2.49778 -2.35512 0
M  V30 2454 C 226.968 2.32342 -3.54793 0
M  V30 2455 N 227.359 1.8469 -4.70875 0
M  V30 2456 C 225.657 2.63043 -3.60173 0
M  V30 2457 C 226.358 1.80656 -5.52936 0
M  V30 2458 N 225.334 2.24528 -4.95064 0
M  V30 2459 H 229.136 0.791818 -2.83033 0
M  V30 2460 H 226.65 0.339791 -1.58805 0
M  V30 2461 H 228.647 3.24692 -2.61498 0
M  V30 2462 H 227.307 2.88156 -1.49654 0
M  V30 2463 H 228.318 1.54429 -4.9434 0
M  V30 2464 H 224.995 3.05193 -2.84892 0
M  V30 2465 H 226.385 1.45178 -6.56028 0
M  V30 2466 N 229.106 1.52395 0.401703 0
M  V30 2467 C 230.354 1.66488 1.14569 0
M  V30 2468 C 230.675 0.400897 1.90835 0
M  V30 2469 O 229.945 -0.584415 1.8698 0
M  V30 2470 H 228.525 0.613672 0.425929 0
M  V30 2471 H 231.187 1.89464 0.457093 0
M  V30 2472 H 230.283 2.50942 1.85566 0
M  V30 2473 N 230.584 -0.659388 1.43143 0
M  V30 2474 C 231.832 -1.41654 1.44147 0
M  V30 2475 C 232.153 -1.94893 0.0645739 0
M  V30 2476 O 231.423 -1.74044 -0.899198 0
M  V30 2477 H 230.003 -0.525708 0.530697 0
M  V30 2478 H 232.665 -0.778097 1.78694 0
M  V30 2479 H 231.761 -2.26195 2.1504 0
M  V30 2480 N 232.062 -1.29571 -0.897171 0
M  V30 2481 C 233.473 -1.15964 -1.46319 0
M  V30 2482 C 233.824 0.244267 -1.94674 0
M  V30 2483 O 232.949 1.13998 -1.83939 0
M  V30 2484 C 233.544 -2.09906 -2.65942 0
M  V30 2485 C 232.103 -2.00314 -3.18671 0
M  V30 2486 C 231.25 -2.00687 -1.91363 0
M  V30 2487 H 234.201 -1.42019 -0.708268 0
M  V30 2488 H 234.222 -1.67276 -3.41759 0
M  V30 2489 H 233.734 -3.12075 -2.30718 0
M  V30 2490 H 231.835 -1.01242 -3.58582 0
M  V30 2491 H 231.948 -2.88102 -3.82798 0
M  V30 2492 H 230.312 -1.45319 -2.09175 0
M  V30 2493 H 231.095 -3.04566 -1.58413 0
M  V30 2494 N 233.54 1.10788 -1.12088 0
M  V30 2495 C 234.487 2.17025 -0.785407 0
M  V30 2496 C 235.457 1.64265 0.246191 0
M  V30 2497 O 236.642 1.90412 0.121584 0
M  V30 2498 C 233.782 3.44249 -0.242177 0
M  V30 2499 C 232.895 4.1098 -1.33115 0
M  V30 2500 C 232.03 5.25911 -0.747741 0
M  V30 2501 C 231.069 5.84538 -1.81609 0
M  V30 2502 N 230.206 6.90853 -1.25167 0
M  V30 2503 H 235.046 2.45066 -1.69548 0
M  V30 2504 H 232.583 1.20297 -0.846582 0
M  V30 2505 H 234.541 4.17101 0.0908026 0
M  V30 2506 H 233.171 3.16571 0.631072 0
M  V30 2507 H 232.223 3.36133 -1.78097 0
M  V30 2508 H 233.535 4.50601 -2.13917 0
M  V30 2509 H 232.689 6.056 -0.365216 0
M  V30 2510 H 231.428 4.87614 0.0915188 0
M  V30 2511 H 230.433 5.03522 -2.20785 0
M  V30 2512 H 231.658 6.249 -2.6585 0
M  V30 2513 H 229.604 6.54562 -0.434174 0
M  V30 2514 H 229.521 7.29166 -1.99633 0
M  V30 2515 H 230.789 7.7433 -0.896259 0
M  V30 2516 N 235.018 0.912232 1.28515 0
M  V30 2517 C 236.295 0.463597 1.90027 0
M  V30 2518 C 236.675 -1.05753 1.82701 0
M  V30 2519 O 236.023 -1.90492 1.26194 0
M  V30 2520 C 236.233 0.992253 3.34597 0
M  V30 2521 C 237.581 1.04344 4.11579 0
M  V30 2522 O 238.605 0.94079 3.43551 0
M  V30 2523 O 237.464 1.1995 5.33174 0
M  V30 2524 H 234.558 0.146666 0.813891 0
M  V30 2525 H 237.104 1.00292 1.36893 0
M  V30 2526 H 235.876 2.03623 3.34146 0
M  V30 2527 H 235.499 0.433672 3.95228 0
M  V30 2528 N 236.496 -1.42363 0.676048 0
M  V30 2529 C 237.459 -2.29199 0.00766941 0
M  V30 2530 C 238.459 -1.43389 -0.727745 0
M  V30 2531 O 239.649 -1.64764 -0.56556 0
M  V30 2532 C 236.781 -3.2591 -0.999785 0
M  V30 2533 H 237.974 -2.89794 0.771988 0
M  V30 2534 H 235.527 -1.50024 0.438468 0
M  V30 2535 H 236.262 -2.70256 -1.79255 0
M  V30 2536 H 236.047 -3.89202 -0.475829 0
M  V30 2537 H 237.537 -3.91028 -1.46583 0
M  V30 2538 N 237.974 -0.419461 -1.51915 0
M  V30 2539 C 238.921 0.400927 -2.27291 0
M  V30 2540 C 239.891 1.03224 -1.30131 0
M  V30 2541 O 241.076 1.05455 -1.59009 0
M  V30 2542 C 238.216 1.50603 -3.10504 0
M  V30 2543 C 237.329 0.89462 -4.22635 0
M  V30 2544 C 236.464 1.97328 -4.93189 0
M  V30 2545 C 235.503 1.33935 -5.97267 0
M  V30 2546 N 234.64 2.3586 -6.61298 0
M  V30 2547 H 239.48 -0.248251 -2.96964 0
M  V30 2548 H 237.017 -0.134266 -1.46486 0
M  V30 2549 H 238.975 2.15783 -3.57062 0
M  V30 2550 H 237.605 2.12509 -2.42981 0
M  V30 2551 H 236.657 0.131583 -3.80172 0
M  V30 2552 H 237.969 0.391641 -4.9726 0
M  V30 2553 H 237.123 2.70211 -5.43204 0
M  V30 2554 H 235.862 2.50994 -4.18155 0
M  V30 2555 H 234.867 0.595896 -5.46561 0
M  V30 2556 H 236.092 0.810252 -6.74249 0
M  V30 2557 H 234.038 2.88639 -5.89087 0
M  V30 2558 H 233.955 1.90403 -7.3163 0
M  V30 2559 H 235.223 3.08282 -7.15949 0
M  V30 2560 N 239.452 1.56882 -0.150215 0
M  V30 2561 C 240.698 1.96518 0.500834 0
M  V30 2562 C 241.031 1.03527 1.64304 0
M  V30 2563 O 240.306 0.0782751 1.94342 0
M  V30 2564 C 240.589 3.45822 1.00395 0
M  V30 2565 C 240.442 4.49591 -0.136983 0
M  V30 2566 C 241.761 3.97704 1.88467 0
M  V30 2567 H 238.88 0.714535 0.18058 0
M  V30 2568 H 241.522 1.88577 -0.232091 0
M  V30 2569 H 239.672 3.5272 1.62851 0
M  V30 2570 H 241.344 4.5477 -0.77343 0
M  V30 2571 H 239.587 4.26441 -0.795652 0
M  V30 2572 H 240.258 5.51402 0.256815 0
M  V30 2573 H 242.734 3.93304 1.35834 0
M  V30 2574 H 241.61 5.0263 2.20578 0
M  V30 2575 H 241.871 3.40252 2.82279 0
M  V30 2576 N 240.93 -0.123565 1.57115 0
M  V30 2577 C 242.207 -0.862196 1.75572 0
M  V30 2578 C 242.587 -1.98279 0.724475 0
M  V30 2579 O 241.935 -2.27102 -0.252407 0
M  V30 2580 C 242.145 -1.38309 3.20424 0
M  V30 2581 C 243.493 -1.83724 3.82793 0
M  V30 2582 O 244.517 -1.47999 3.23998 0
M  V30 2583 O 243.376 -2.49685 4.86127 0
M  V30 2584 H 240.47 -0.409113 0.718718 0
M  V30 2585 H 243.016 -0.107661 1.69358 0
M  V30 2586 H 241.788 -0.578889 3.86994 0
M  V30 2587 H 241.411 -2.20046 3.31158 0
M  V30 2588 N 242.408 -1.52605 -0.393616 0
M  V30 2589 C 243.648 -1.6911 -1.1481 0
M  V30 2590 C 244.012 -0.41969 -1.87357 0
M  V30 2591 O 245.213 -0.461034 -2.64817 0
M  V30 2592 C 243.484 -2.88909 -2.10395 0
M  V30 2593 S 245.043 -3.25977 -2.93742 0
M  V30 2594 H 241.861 -0.595337 -0.38871 0
M  V30 2595 H 244.463 -1.90641 -0.433178 0
M  V30 2596 H 243.167 -3.79672 -1.55812 0
M  V30 2597 H 242.698 -2.69698 -2.86403 0
M  V30 2598 H 244.713 -2.75806 -4.12487 0
M  V30 2599 N 243.887 0.651787 -1.4349 0
M  V30 2600 C 244.834 1.76462 -1.4876 0
M  V30 2601 C 245.804 1.62641 -0.337189 0
M  V30 2602 O 246.989 1.82864 -0.544544 0
M  V30 2603 C 244.129 3.14623 -1.41796 0
M  V30 2604 C 243.242 3.39568 -2.67053 0
M  V30 2605 C 242.377 4.67585 -2.52068 0
M  V30 2606 C 241.416 4.85639 -3.72587 0
M  V30 2607 N 240.553 6.04915 -3.56402 0
M  V30 2608 H 245.393 1.71293 -2.43849 0
M  V30 2609 H 242.93 0.835889 -1.21043 0
M  V30 2610 H 244.888 3.94496 -1.35753 0
M  V30 2611 H 243.518 3.18859 -0.50288 0
M  V30 2612 H 242.57 2.53783 -2.8337 0
M  V30 2613 H 243.882 3.48795 -3.56572 0
M  V30 2614 H 243.036 5.55586 -2.4374 0
M  V30 2615 H 241.775 4.60681 -1.60075 0
M  V30 2616 H 240.78 3.96073 -3.81321 0
M  V30 2617 H 242.005 4.94372 -4.65589 0
M  V30 2618 H 239.951 5.9914 -2.67146 0
M  V30 2619 H 239.868 6.15106 -4.39524 0
M  V30 2620 H 241.136 6.95533 -3.51929 0
M  V30 2621 N 245.365 1.30045 0.890287 0
M  V30 2622 C 246.297 1.11786 2.00091 0
M  V30 2623 C 247.31 0.0626307 1.62679 0
M  V30 2624 O 248.499 0.308112 1.75821 0
M  V30 2625 C 245.599 0.681527 3.31977 0
M  V30 2626 C 244.772 1.81735 3.97858 0
M  V30 2627 C 243.831 1.37045 5.08041 0
M  V30 2628 O 242.857 2.07677 5.29961 0
M  V30 2629 N 244.059 0.246525 5.79976 0
M  V30 2630 H 246.824 2.07441 2.16306 0
M  V30 2631 H 244.385 1.2211 1.06305 0
M  V30 2632 H 246.377 0.365675 4.03045 0
M  V30 2633 H 244.947 -0.182828 3.12065 0
M  V30 2634 H 244.167 2.30159 3.20032 0
M  V30 2635 H 245.455 2.57865 4.38615 0
M  V30 2636 H 244.853 -0.34215 5.64664 0
M  V30 2637 H 243.41 -0.00990438 6.51799 0
M  V30 2638 N 246.843 -1.10192 1.12674 0
M  V30 2639 C 248.083 -1.83825 0.893736 0
M  V30 2640 C 248.447 -1.83341 -0.570082 0
M  V30 2641 O 249.648 -2.52553 -0.920354 0
M  V30 2642 C 247.919 -3.26405 1.45582 0
M  V30 2643 S 249.478 -4.17136 1.36171 0
M  V30 2644 H 246.296 -0.633732 0.322342 0
M  V30 2645 H 248.898 -1.32581 1.43675 0
M  V30 2646 H 247.602 -3.24329 2.51473 0
M  V30 2647 H 247.133 -3.82721 0.910405 0
M  V30 2648 H 249.148 -4.95069 0.334863 0
M  V30 2649 N 248.321 -0.919034 -1.28029 0
M  V30 2650 C 249.269 -0.401753 -2.29104 0
M  V30 2651 C 250.263 0.509354 -1.61561 0
M  V30 2652 O 251.469 0.390014 -1.75724 0
M  V30 2653 H 247.844 -0.111331 -0.743713 0
M  V30 2654 H 249.815 -1.2672 -2.70156 0
M  V30 2655 C 248.564 0.338148 -3.46052 0
M  V30 2656 H 247.887 -0.353732 -3.98232 0
M  V30 2657 H 249.327 0.664653 -4.18758 0
M  V30 2658 C 247.786 1.54798 -2.99231 0
M  V30 2659 O 248.316 2.64696 -3.02157 0
M  V30 2660 N 246.522 1.3968 -2.54829 0
M  V30 2661 H 246.069 0.502698 -2.52647 0
M  V30 2662 H 246.027 2.20755 -2.23863 0
M  V30 2663 N 249.799 1.42003 -0.683588 0
M  V30 2664 C 251.047 2.01015 -0.209101 0
M  V30 2665 C 251.368 1.54365 1.19149 0
M  V30 2666 O 250.638 0.769083 1.80172 0
M  V30 2667 H 249.218 0.743294 -0.074315 0
M  V30 2668 H 251.88 1.73798 -0.882066 0
M  V30 2669 H 250.976 3.11343 -0.2172 0
M  V30 2670 N 251.277 0.427512 1.51691 0
M  V30 2671 C 252.693 0.0792977 1.59403 0
M  V30 2672 C 252.893 -1.41035 1.43914 0
M  V30 2673 O 251.949 -2.17922 1.27539 0
M  V30 2674 C 253.262 0.590636 2.94842 0
M  V30 2675 C 254.81 0.550215 3.08126 0
M  V30 2676 C 255.285 1.03836 4.46074 0
M  V30 2677 N 256.776 0.995943 4.52366 0
M  V30 2678 C 257.511 1.34463 5.57411 0
M  V30 2679 N 257.007 1.76569 6.69922 0
M  V30 2680 N 258.8 1.26343 5.47717 0
M  V30 2681 H 250.951 1.39687 1.60004 0
M  V30 2682 H 253.214 0.575003 0.753708 0
M  V30 2683 H 252.92 1.63251 3.11516 0
M  V30 2684 H 252.794 0.0102061 3.77199 0
M  V30 2685 H 255.181 -0.482654 2.91126 0
M  V30 2686 H 255.262 1.16693 2.27632 0
M  V30 2687 H 254.906 2.06965 4.63819 0
M  V30 2688 H 254.836 0.398286 5.25092 0
M  V30 2689 H 257.327 0.68661 3.7161 0
M  V30 2690 H 257.64 2.01438 7.46085 0
M  V30 2691 H 255.985 1.80488 6.71155 0
M  V30 2692 H 259.176 0.933209 4.58703 0
M  V30 2693 H 259.349 1.53846 6.29472 0
M  V30 2694 N 252.755 -1.56801 0.158532 0
M  V30 2695 C 254.003 -1.96102 -0.488712 0
M  V30 2696 C 254.324 -1.04498 -1.64636 0
M  V30 2697 O 253.594 -0.108783 -1.95598 0
M  V30 2698 H 252.174 -0.724102 -0.183535 0
M  V30 2699 H 254.836 -1.93457 0.236728 0
M  V30 2700 H 253.932 -3.00097 -0.857219 0
M  V30 2701 N 254.233 0.115231 -1.57178 0
M  V30 2702 C 255.461 0.836437 -1.89239 0
M  V30 2703 C 255.876 1.73256 -0.750175 0
M  V30 2704 O 255.233 1.80357 0.278832 0
M  V30 2705 C 255.284 1.66671 -3.20785 0
M  V30 2706 O 255.005 0.806652 -4.3061 0
M  V30 2707 C 256.506 2.49274 -3.66575 0
M  V30 2708 H 253.726 0.240253 -0.626514 0
M  V30 2709 H 256.27 0.0984932 -2.04263 0
M  V30 2710 H 254.425 2.35737 -3.0742 0
M  V30 2711 H 254.839 1.37969 -5.06028 0
M  V30 2712 H 256.313 3.03055 -4.6137 0
M  V30 2713 H 256.79 3.26807 -2.93417 0
M  V30 2714 H 257.396 1.85443 -3.82741 0
M  V30 2715 N 255.711 1.52812 0.385517 0
M  V30 2716 C 256.658 1.77838 1.47113 0
M  V30 2717 C 257.628 0.621757 1.54024 0
M  V30 2718 O 258.813 0.861846 1.70226 0
M  V30 2719 C 255.953 1.95618 2.84302 0
M  V30 2720 C 255.066 3.23316 2.86515 0
M  V30 2721 C 254.201 3.31394 4.15152 0
M  V30 2722 C 253.24 4.53201 4.1143 0
M  V30 2723 N 252.377 4.58542 5.3168 0
M  V30 2724 H 257.217 2.70482 1.25073 0
M  V30 2725 H 254.754 1.34006 0.606692 0
M  V30 2726 H 256.712 2.03912 3.63972 0
M  V30 2727 H 255.342 1.06331 3.04784 0
M  V30 2728 H 254.394 3.24076 1.99195 0
M  V30 2729 H 255.706 4.13045 2.79634 0
M  V30 2730 H 254.86 3.3889 5.03228 0
M  V30 2731 H 253.599 2.39645 4.24761 0
M  V30 2732 H 252.604 4.45827 3.21742 0
M  V30 2733 H 253.829 5.46271 4.03442 0
M  V30 2734 H 251.775 3.69686 5.41912 0
M  V30 2735 H 251.692 5.42148 5.26889 0
M  V30 2736 H 252.96 4.70296 6.21644 0
M  V30 2737 N 257.189 -0.644168 1.43834 0
M  V30 2738 C 258.417 -1.43147 1.49387 0
M  V30 2739 C 258.832 -1.88452 0.114583 0
M  V30 2740 O 258.189 -1.60047 -0.876989 0
M  V30 2741 C 258.24 -2.66046 2.44748 0
M  V30 2742 O 257.961 -2.22633 3.77314 0
M  V30 2743 C 259.462 -3.59311 2.59635 0
M  V30 2744 H 256.682 -0.439447 0.507077 0
M  V30 2745 H 259.226 -0.78895 1.88669 0
M  V30 2746 H 257.381 -3.26418 2.08638 0
M  V30 2747 H 257.795 -3.02216 4.28679 0
M  V30 2748 H 259.269 -4.42187 3.30416 0
M  V30 2749 H 259.746 -4.07259 1.64427 0
M  V30 2750 H 260.352 -3.04816 2.96593 0
M  V30 2751 N 258.668 -1.30515 -0.883378 0
M  V30 2752 C 259.898 -1.22182 -1.66599 0
M  V30 2753 C 260.306 0.217507 -1.87946 0
M  V30 2754 O 259.649 1.1554 -1.42815 0
M  V30 2755 C 259.711 -1.88146 -3.06335 0
M  V30 2756 C 259.375 -3.37476 -3.08154 0
M  V30 2757 C 260.372 -4.33443 -2.87094 0
M  V30 2758 C 258.057 -3.7895 -3.29701 0
M  V30 2759 C 260.051 -5.68858 -2.8754 0
M  V30 2760 C 257.738 -5.14482 -3.29776 0
M  V30 2761 C 258.736 -6.09246 -3.0872 0
M  V30 2762 O 258.424 -7.42302 -3.08615 0
M  V30 2763 H 258.156 -0.423898 -0.52658 0
M  V30 2764 H 260.71 -1.72703 -1.11188 0
M  V30 2765 H 258.94 -1.32157 -3.63416 0
M  V30 2766 H 260.629 -1.7391 -3.66756 0
M  V30 2767 H 261.395 -4.02733 -2.70243 0
M  V30 2768 H 257.274 -3.05631 -3.45124 0
M  V30 2769 H 260.818 -6.428 -2.71024 0
M  V30 2770 H 256.715 -5.44832 -3.46163 0
M  V30 2771 H 257.483 -7.5131 -3.24769 0
M  V30 2772 N 260.146 1.09593 -1.13257 0
M  V30 2773 C 261.079 2.15451 -0.752061 0
M  V30 2774 C 262.057 1.60493 0.260913 0
M  V30 2775 O 263.241 1.8788 0.152819 0
M  V30 2776 C 260.368 3.38506 -0.114594 0
M  V30 2777 C 259.414 4.12183 -1.09579 0
M  V30 2778 S 260.247 4.6661 -2.62745 0
M  V30 2779 C 261.403 5.92966 -2.00354 0
M  V30 2780 H 261.636 2.47395 -1.64872 0
M  V30 2781 H 259.169 1.21515 -0.952545 0
M  V30 2782 H 261.127 4.09757 0.246808 0
M  V30 2783 H 259.788 3.04784 0.759309 0
M  V30 2784 H 258.981 5.00445 -0.597545 0
M  V30 2785 H 258.583 3.46785 -1.40057 0
M  V30 2786 H 260.875 6.63882 -1.35156 0
M  V30 2787 H 261.818 6.47467 -2.86691 0
M  V30 2788 H 262.226 5.45405 -1.4558 0
M  V30 2789 N 261.624 0.925811 1.2754 0
M  V30 2790 C 263.04 0.625767 1.46821 0
M  V30 2791 C 263.24 -0.825506 1.83814 0
M  V30 2792 O 262.296 -1.60356 1.95044 0
M  V30 2793 C 263.609 1.57402 2.56213 0
M  V30 2794 C 265.157 1.58204 2.70075 0
M  V30 2795 C 265.632 2.51721 3.82623 0
M  V30 2796 N 267.123 2.49917 3.89994 0
M  V30 2797 C 267.858 3.18968 4.76494 0
M  V30 2798 N 267.354 3.97391 5.67496 0
M  V30 2799 N 269.147 3.07996 4.70208 0
M  V30 2800 H 261.298 1.86409 1.01811 0
M  V30 2801 H 263.561 0.800213 0.508295 0
M  V30 2802 H 263.267 2.60925 2.35819 0
M  V30 2803 H 263.141 1.31428 3.53563 0
M  V30 2804 H 265.528 0.554124 2.89851 0
M  V30 2805 H 265.609 1.88226 1.73218 0
M  V30 2806 H 265.253 3.54622 3.63601 0
M  V30 2807 H 265.183 2.18996 4.78903 0
M  V30 2808 H 267.674 1.9296 3.24923 0
M  V30 2809 H 267.987 4.4707 6.30356 0
M  V30 2810 H 266.332 4.01495 5.67298 0
M  V30 2811 H 269.523 2.46223 3.9811 0
M  V30 2812 H 269.696 3.6208 5.37403 0
M  V30 2813 N 263.102 -1.41638 0.69111 0
M  V30 2814 C 264.332 -2.0533 0.228758 0
M  V30 2815 C 264.74 -1.52089 -1.12541 0
M  V30 2816 O 264.083 -0.662145 -1.71351 0
M  V30 2817 C 264.145 -3.59349 0.10407 0
M  V30 2818 C 263.809 -4.35362 1.38956 0
M  V30 2819 C 264.806 -4.64942 2.32648 0
M  V30 2820 C 262.491 -4.74714 1.64169 0
M  V30 2821 C 264.485 -5.32828 3.49818 0
M  V30 2822 C 262.172 -5.42338 2.81625 0
M  V30 2823 C 263.17 -5.71322 3.74273 0
M  V30 2824 O 262.858 -6.37554 4.89673 0
M  V30 2825 H 262.59 -0.667796 0.104997 0
M  V30 2826 H 265.144 -1.82477 0.942938 0
M  V30 2827 H 263.374 -3.80924 -0.665839 0
M  V30 2828 H 265.063 -4.04633 -0.320519 0
M  V30 2829 H 265.829 -4.35025 2.14425 0
M  V30 2830 H 261.708 -4.51538 0.929202 0
M  V30 2831 H 265.252 -5.55368 4.22152 0
M  V30 2832 H 261.149 -5.71673 2.99768 0
M  V30 2833 H 261.917 -6.56049 4.8943 0
M  V30 2834 N 264.58 -0.43555 -1.51462 0
M  V30 2835 C 265.53 0.394701 -2.24558 0
M  V30 2836 C 266.514 0.99157 -1.26715 0
M  V30 2837 O 267.706 0.910007 -1.51815 0
M  V30 2838 C 264.835 1.4963 -3.08975 0
M  V30 2839 C 263.921 0.908912 -4.14246 0
M  V30 2840 N 264.312 0.0505335 -5.05775 0
M  V30 2841 C 262.61 1.17668 -4.30198 0
M  V30 2842 C 263.311 -0.279161 -5.8103 0
M  V30 2843 N 262.287 0.336767 -5.42556 0
M  V30 2844 H 266.089 -0.267106 -2.92684 0
M  V30 2845 H 263.603 -0.247518 -1.60503 0
M  V30 2846 H 265.6 2.10394 -3.59917 0
M  V30 2847 H 264.26 2.16046 -2.42393 0
M  V30 2848 H 265.271 -0.31577 -5.16936 0
M  V30 2849 H 261.948 1.83847 -3.74842 0
M  V30 2850 H 263.338 -0.977553 -6.64751 0
M  V30 2851 N 266.058 1.56714 -0.166846 0
M  V30 2852 C 267.283 2.01557 0.488833 0
M  V30 2853 C 267.708 1.0463 1.56314 0
M  V30 2854 O 267.066 0.0251304 1.81283 0
M  V30 2855 C 267.114 3.4503 1.04818 0
M  V30 2856 O 266.218 3.51163 2.16236 0
M  V30 2857 H 265.559 0.653516 0.117526 0
M  V30 2858 H 268.089 2.02818 -0.269421 0
M  V30 2859 H 268.099 3.84243 1.37191 0
M  V30 2860 H 266.774 4.15077 0.261572 0
M  V30 2861 H 265.351 3.23807 1.84942 0
M  V30 2862 N 267.536 -0.106894 1.57237 0
M  V30 2863 C 268.761 -0.830287 1.90055 0
M  V30 2864 C 269.186 -1.72064 0.75998 0
M  V30 2865 O 268.544 -1.78982 -0.288991 0
M  V30 2866 C 268.592 -1.6295 3.21683 0
M  V30 2867 O 267.696 -2.73748 3.08441 0
M  V30 2868 H 267.037 -0.228855 0.623315 0
M  V30 2869 H 269.567 -0.085658 2.04421 0
M  V30 2870 H 269.577 -2.01621 3.54701 0
M  V30 2871 H 268.252 -0.975989 4.04286 0
M  V30 2872 H 266.829 -2.38192 2.86913 0
M  V30 2873 N 269.014 -1.53014 -0.377408 0
M  V30 2874 C 270.26 -1.68872 -1.12294 0
M  V30 2875 C 270.593 -0.433224 -1.89306 0
M  V30 2876 O 269.868 0.569258 -1.85983 0
M  V30 2877 C 270.151 -2.93115 -2.09179 0
M  V30 2878 C 270.004 -4.28794 -1.35853 0
M  V30 2879 C 271.323 -3.12928 -3.09458 0
M  V30 2880 H 268.442 -0.614518 -0.406862 0
M  V30 2881 H 271.084 -1.85633 -0.40503 0
M  V30 2882 H 269.234 -2.78956 -2.70399 0
M  V30 2883 H 270.906 -4.54742 -0.775082 0
M  V30 2884 H 269.149 -4.28744 -0.660364 0
M  V30 2885 H 269.82 -5.11837 -2.06706 0
M  V30 2886 H 272.296 -3.26194 -2.58334 0
M  V30 2887 H 271.172 -4.01316 -3.74482 0
M  V30 2888 H 271.433 -2.27669 -3.78971 0
M  V30 2889 N 270.492 0.636531 -1.44174 0
M  V30 2890 C 271.422 1.76003 -1.53444 0
M  V30 2891 C 272.403 1.65619 -0.387841 0
M  V30 2892 O 273.588 1.84461 -0.607257 0
M  V30 2893 C 270.718 3.14511 -1.4731 0
M  V30 2894 C 269.672 3.39677 -2.60391 0
M  V30 2895 C 268.998 4.78159 -2.39308 0
M  V30 2896 C 270.298 3.32772 -4.02567 0
M  V30 2897 H 271.992 1.68501 -2.47483 0
M  V30 2898 H 269.538 0.809237 -1.19111 0
M  V30 2899 H 271.491 3.92878 -1.52397 0
M  V30 2900 H 270.215 3.22783 -0.49785 0
M  V30 2901 H 268.874 2.63688 -2.54684 0
M  V30 2902 H 268.522 4.83128 -1.39988 0
M  V30 2903 H 268.222 4.95956 -3.15122 0
M  V30 2904 H 269.746 5.58762 -2.46205 0
M  V30 2905 H 271.16 4.01051 -4.09672 0
M  V30 2906 H 269.557 3.62104 -4.7854 0
M  V30 2907 H 270.627 2.30669 -4.2652 0
M  V30 2908 N 271.97 1.30982 0.876444 0
M  V30 2909 C 272.92 1.14688 1.97055 0
M  V30 2910 C 273.904 0.0596593 1.60789 0
M  V30 2911 O 275.096 0.283892 1.74708 0
M  V30 2912 C 272.225 0.849627 3.3262 0
M  V30 2913 C 271.311 1.97752 3.75173 0
M  V30 2914 N 271.702 3.22384 3.89746 0
M  V30 2915 C 270 1.8758 4.04635 0
M  V30 2916 C 270.701 3.96121 4.25985 0
M  V30 2917 N 269.677 3.24237 4.36315 0
M  V30 2918 H 273.479 2.09204 2.06424 0
M  V30 2919 H 270.993 1.22445 1.06682 0
M  V30 2920 H 272.99 0.713895 4.10742 0
M  V30 2921 H 271.65 -0.087376 3.24582 0
M  V30 2922 H 272.661 3.57575 3.74647 0
M  V30 2923 H 269.338 1.01303 4.05024 0
M  V30 2924 H 270.728 5.03491 4.44911 0
M  V30 2925 N 273.449 -1.08991 1.13837 0
M  V30 2926 C 274.381 -2.15606 0.777612 0
M  V30 2927 C 275.394 -1.61533 -0.202739 0
M  V30 2928 O 276.583 -1.78491 0.0181055 0
M  V30 2929 C 273.683 -3.3864 0.132623 0
M  V30 2930 C 272.856 -4.22115 1.1462 0
M  V30 2931 C 271.915 -5.23564 0.526074 0
M  V30 2932 O 270.941 -5.56678 1.18735 0
M  V30 2933 N 272.143 -5.76266 -0.699866 0
M  V30 2934 H 274.908 -2.47159 1.69506 0
M  V30 2935 H 272.469 -1.24747 1.03198 0
M  V30 2936 H 274.461 -4.03626 -0.29459 0
M  V30 2937 H 273.031 -3.04938 -0.687849 0
M  V30 2938 H 272.251 -3.53199 1.75055 0
M  V30 2939 H 273.539 -4.74709 1.83109 0
M  V30 2940 H 272.937 -5.51585 -1.25581 0
M  V30 2941 H 271.494 -6.42963 -1.06968 0
M  V30 2942 N 274.927 -0.932562 -1.27047 0
M  V30 2943 C 276.155 -0.592031 -1.98249 0
M  V30 2944 C 276.57 0.831062 -1.69525 0
M  V30 2945 O 275.927 1.55299 -0.958561 0
M  V30 2946 C 275.978 -0.814279 -3.5221 0
M  V30 2947 O 275.699 -2.18139 -3.7993 0
M  V30 2948 C 277.2 -0.483121 -4.4066 0
M  V30 2949 H 274.42 -0.223896 -0.632544 0
M  V30 2950 H 276.964 -1.25091 -1.61779 0
M  V30 2951 H 275.119 -0.20213 -3.86872 0
M  V30 2952 H 275.533 -2.235 -4.74498 0
M  V30 2953 H 277.007 -0.689298 -5.47679 0
M  V30 2954 H 277.484 0.581546 -4.35333 0
M  V30 2955 H 278.09 -1.07362 -4.11526 0
M  V30 2956 N 276.405 1.4127 -0.698611 0
M  V30 2957 C 277.315 2.34573 -0.0357891 0
M  V30 2958 C 278.331 1.56393 0.762701 0
M  V30 2959 O 279.507 1.8886 0.699564 0
M  V30 2960 C 276.572 3.35159 0.887089 0
M  V30 2961 C 275.633 4.29225 0.0804634 0
M  V30 2962 C 274.866 5.25006 0.959387 0
M  V30 2963 O 275.089 5.26314 2.19886 0
M  V30 2964 O 274.023 6.00519 0.407439 0
M  V30 2965 H 277.849 2.92838 -0.804957 0
M  V30 2966 H 275.434 1.42175 -0.458966 0
M  V30 2967 H 277.316 3.9689 1.41621 0
M  V30 2968 H 275.991 2.79333 1.6357 0
M  V30 2969 H 274.898 3.70833 -0.493328 0
M  V30 2970 H 276.231 4.88157 -0.629547 0
M  V30 2971 N 277.883 0.443576 1.51229 0
M  V30 2972 C 279.129 -0.120975 2.02439 0
M  V30 2973 C 279.462 -1.41815 1.32674 0
M  V30 2974 O 278.737 -1.89373 0.443622 0
M  V30 2975 C 279.02 -0.333291 3.58554 0
M  V30 2976 C 278.873 0.982968 4.38928 0
M  V30 2977 C 280.192 -1.10028 4.26124 0
M  V30 2978 H 277.311 -0.0424923 0.735774 0
M  V30 2979 H 279.953 0.583794 1.80809 0
M  V30 2980 H 278.103 -0.933614 3.77115 0
M  V30 2981 H 279.775 1.61775 4.32003 0
M  V30 2982 H 278.018 1.58611 4.03763 0
M  V30 2983 H 278.689 0.788379 5.46341 0
M  V30 2984 H 281.165 -0.591711 4.11871 0
M  V30 2985 H 280.041 -1.21761 5.35225 0
M  V30 2986 H 280.302 -2.12996 3.87408 0
M  V30 2987 N 279.361 -1.56624 0.175154 0
M  V30 2988 C 280.589 -2.01374 -0.474971 0
M  V30 2989 C 281.004 -1.05537 -1.56548 0
M  V30 2990 O 280.361 -0.0568668 -1.82411 0
M  V30 2991 C 280.412 -3.45923 -1.04975 0
M  V30 2992 O 280.133 -4.381 -0.00276605 0
M  V30 2993 C 281.634 -4.06093 -1.77773 0
M  V30 2994 H 278.854 -0.659962 -0.121206 0
M  V30 2995 H 281.398 -2.02601 0.27801 0
M  V30 2996 H 279.553 -3.45458 -1.75321 0
M  V30 2997 H 279.967 -5.22753 -0.427681 0
M  V30 2998 H 281.441 -5.09147 -2.13245 0
M  V30 2999 H 281.918 -3.48405 -2.67414 0
M  V30 3000 H 282.524 -4.10272 -1.12059 0
M  V30 3001 N 280.839 0.0985539 -1.57292 0
M  V30 3002 C 282.079 0.808332 -1.87737 0
M  V30 3003 C 282.443 1.7607 -0.76572 0
M  V30 3004 O 283.644 2.51358 -0.952499 0
M  V30 3005 C 281.915 1.52093 -3.23423 0
M  V30 3006 S 283.474 2.26947 -3.75554 0
M  V30 3007 H 280.292 0.269377 -0.657995 0
M  V30 3008 H 282.894 0.0656269 -1.9539 0
M  V30 3009 H 281.598 0.81363 -4.02254 0
M  V30 3010 H 281.129 2.30361 -3.189 0
M  V30 3011 H 283.144 3.53027 -3.48692 0
M  V30 3012 N 282.317 1.53212 0.369288 0
M  V30 3013 C 283.265 1.80054 1.47253 0
M  V30 3014 C 284.259 0.669456 1.55611 0
M  V30 3015 O 285.465 0.852328 1.58541 0
M  V30 3016 H 281.84 0.570034 0.490475 0
M  V30 3017 H 283.811 2.72403 1.21817 0
M  V30 3018 C 282.56 2.00403 2.84137 0
M  V30 3019 H 281.883 2.86876 2.78464 0
M  V30 3020 H 283.323 2.23164 3.60519 0
M  V30 3021 C 281.782 0.782081 3.27697 0
M  V30 3022 O 282.312 -0.0310205 4.01688 0
M  V30 3023 N 280.518 0.606573 2.84199 0
M  V30 3024 H 280.065 1.26939 2.24152 0
M  V30 3025 H 280.023 -0.20962 3.137 0
M  V30 3026 N 283.795 -0.628877 1.44509 0
M  V30 3027 C 285.023 -1.41554 1.50897 0
M  V30 3028 C 285.438 -1.8832 0.134564 0
M  V30 3029 O 284.795 -1.60969 -0.859965 0
M  V30 3030 C 284.846 -2.63435 2.47556 0
M  V30 3031 O 284.567 -2.18619 3.79654 0
M  V30 3032 C 286.068 -3.56537 2.63431 0
M  V30 3033 H 283.288 -0.434044 0.511709 0
M  V30 3034 H 285.832 -0.768895 1.89495 0
M  V30 3035 H 283.987 -3.24187 2.12089 0
M  V30 3036 H 284.401 -2.97652 4.31861 0
M  V30 3037 H 285.875 -4.38657 3.35088 0
M  V30 3038 H 286.352 -4.05493 1.68738 0
M  V30 3039 H 286.958 -3.01653 2.9981 0
M  V30 3040 N 285.273 -1.31445 -0.869486 0
M  V30 3041 C 286.513 -1.22458 -1.63656 0
M  V30 3042 C 286.877 0.213846 -1.90805 0
M  V30 3043 O 288.078 0.427212 -2.65383 0
M  V30 3044 C 286.349 -2.04564 -2.93067 0
M  V30 3045 S 287.908 -2.12445 -3.83944 0
M  V30 3046 H 284.726 -0.436145 -0.561514 0
M  V30 3047 H 287.328 -1.66114 -1.03085 0
M  V30 3048 H 286.032 -3.0816 -2.71045 0
M  V30 3049 H 285.563 -1.6163 -3.58663 0
M  V30 3050 H 287.578 -1.26312 -4.79854 0
M  V30 3051 N 286.751 1.08385 -1.14413 0
M  V30 3052 C 288.167 1.32844 -0.884563 0
M  V30 3053 C 288.367 1.95841 0.474181 0
M  V30 3054 O 287.423 2.21158 1.21842 0
M  V30 3055 C 288.736 2.22978 -2.01745 0
M  V30 3056 C 290.284 2.36458 -2.05077 0
M  V30 3057 C 290.759 3.29934 -3.1766 0
M  V30 3058 N 292.25 3.37511 -3.17239 0
M  V30 3059 C 292.985 4.09871 -4.0099 0
M  V30 3060 N 292.481 4.84936 -4.94781 0
M  V30 3061 N 294.274 4.05704 -3.89051 0
M  V30 3062 H 286.425 0.658756 -2.01926 0
M  V30 3063 H 288.688 0.352821 -0.879899 0
M  V30 3064 H 288.394 1.83934 -2.99769 0
M  V30 3065 H 288.268 3.23441 -1.94077 0
M  V30 3066 H 290.655 2.7476 -1.0766 0
M  V30 3067 H 290.736 1.35736 -2.16816 0
M  V30 3068 H 290.38 2.92352 -4.15322 0
M  V30 3069 H 290.31 4.30584 -3.03158 0
M  V30 3070 H 292.801 2.83996 -2.49308 0
M  V30 3071 H 293.114 5.37612 -5.55151 0
M  V30 3072 H 291.459 4.83988 -4.98779 0
M  V30 3073 H 294.65 3.46167 -3.15097 0
M  V30 3074 H 294.823 4.61834 -4.54547 0
M  V30 3075 N 288.23 0.939286 1.26551 0
M  V30 3076 C 289.478 0.58469 1.93457 0
M  V30 3077 C 289.799 -0.878774 1.74076 0
M  V30 3078 O 289.069 -1.62421 1.09528 0
M  V30 3079 H 287.649 0.21325 0.715914 0
M  V30 3080 H 290.311 1.1942 1.54029 0
M  V30 3081 H 289.407 0.800849 3.0165 0
M  V30 3082 N 289.708 -1.40897 0.706093 0
M  V30 3083 C 290.655 -2.30751 0.0474474 0
M  V30 3084 C 291.625 -1.47678 -0.76029 0
M  V30 3085 O 292.81 -1.76441 -0.726177 0
M  V30 3086 C 289.95 -3.33815 -0.875309 0
M  V30 3087 C 289.063 -4.31961 -0.0580623 0
M  V30 3088 C 288.198 -5.22093 -0.979425 0
M  V30 3089 C 287.237 -6.11902 -0.155706 0
M  V30 3090 N 286.374 -6.94482 -1.03144 0
M  V30 3091 H 291.214 -2.86513 0.819413 0
M  V30 3092 H 288.751 -1.41102 0.415783 0
M  V30 3093 H 290.709 -3.92129 -1.42446 0
M  V30 3094 H 289.339 -2.79579 -1.61356 0
M  V30 3095 H 288.391 -3.75507 0.608147 0
M  V30 3096 H 289.703 -4.95415 0.580082 0
M  V30 3097 H 288.857 -5.85292 -1.59744 0
M  V30 3098 H 287.596 -4.5889 -1.65141 0
M  V30 3099 H 286.601 -5.47742 0.475309 0
M  V30 3100 H 287.826 -6.77162 0.512635 0
M  V30 3101 H 285.772 -6.33877 -1.68924 0
M  V30 3102 H 285.689 -7.54665 -0.449108 0
M  V30 3103 H 286.957 -7.6214 -1.63593 0
M  V30 3104 N 291.186 -0.45159 -1.50991 0
M  V30 3105 C 292.434 0.109857 -2.01801 0
M  V30 3106 C 292.755 1.41958 -1.3369 0
M  V30 3107 O 292.025 1.9003 -0.475951 0
M  V30 3108 H 290.605 0.0435884 -0.745727 0
M  V30 3109 H 293.267 -0.597557 -1.85514 0
M  V30 3110 H 292.363 0.275489 -3.10882 0
M  V30 3111 N 292.664 1.56529 -0.183458 0
M  V30 3112 C 293.611 2.18546 0.742055 0
M  V30 3113 C 294.581 1.12912 1.2182 0
M  V30 3114 O 295.766 1.41115 1.28418 0
M  V30 3115 C 292.906 2.83977 1.96089 0
M  V30 3116 C 292.019 4.04105 1.52719 0
M  V30 3117 C 291.154 4.57427 2.70063 0
M  V30 3118 C 290.193 5.69938 2.23243 0
M  V30 3119 N 289.33 6.17717 3.33722 0
M  V30 3120 H 294.17 2.97284 0.206432 0
M  V30 3121 H 291.707 1.46823 0.0901571 0
M  V30 3122 H 293.665 3.20077 2.67594 0
M  V30 3123 H 292.295 2.07822 2.47002 0
M  V30 3124 H 291.347 3.73745 0.708436 0
M  V30 3125 H 292.659 4.85513 1.1436 0
M  V30 3126 H 291.813 4.95772 3.49708 0
M  V30 3127 H 290.552 3.75101 3.11689 0
M  V30 3128 H 289.557 5.31133 1.42048 0
M  V30 3129 H 290.782 6.54073 1.82661 0
M  V30 3130 H 288.728 5.38317 3.74902 0
M  V30 3131 H 288.645 6.94146 2.99495 0
M  V30 3132 H 289.913 6.60713 4.13616 0
M  V30 3133 N 294.142 -0.090211 1.57342 0
M  V30 3134 C 295.391 -0.791531 1.8552 0
M  V30 3135 C 295.704 -1.79659 0.773441 0
M  V30 3136 O 296.91 -2.54616 0.942497 0
M  V30 3137 C 295.366 -1.45856 3.2902 0
M  V30 3138 C 294.974 -0.493017 4.45279 0
M  V30 3139 C 296.718 -2.14332 3.66418 0
M  V30 3140 C 294.625 -1.16491 5.79814 0
M  V30 3141 H 293.555 -0.299356 0.692027 0
M  V30 3142 H 296.206 -0.0445343 1.83446 0
M  V30 3143 H 294.588 -2.25318 3.2565 0
M  V30 3144 H 295.762 0.270464 4.60006 0
M  V30 3145 H 294.077 0.0863061 4.16311 0
M  V30 3146 H 296.674 -2.65344 4.64216 0
M  V30 3147 H 297.017 -2.93447 2.95287 0
M  V30 3148 H 297.55 -1.41724 3.71698 0
M  V30 3149 H 294.289 -0.41447 6.54188 0
M  V30 3150 H 293.809 -1.8997 5.68921 0
M  V30 3151 H 295.488 -1.69001 6.24538 0
M  V30 3152 N 295.62 -1.53406 -0.361157 0
M  V30 3153 C 296.867 -1.69802 -1.10333 0
M  V30 3154 C 297.195 -0.452087 -1.89173 0
M  V30 3155 O 296.45 0.566017 -1.87336 0
M  V30 3156 C 296.749 -2.90211 -2.08596 0
M  V30 3157 C 296.415 -4.26539 -1.46203 0
M  V30 3158 C 295.077 -4.6361 -1.28915 0
M  V30 3159 C 297.429 -5.113 -1.01101 0
M  V30 3160 C 294.757 -5.83075 -0.651157 0
M  V30 3161 C 297.109 -6.31415 -0.387007 0
M  V30 3162 C 295.773 -6.67195 -0.201657 0
M  V30 3163 H 295.043 -0.621351 -0.403737 0
M  V30 3164 H 297.69 -1.87598 -0.384609 0
M  V30 3165 H 295.995 -2.66946 -2.86788 0
M  V30 3166 H 297.692 -3.00091 -2.65982 0
M  V30 3167 H 294.282 -3.97352 -1.60653 0
M  V30 3168 H 298.466 -4.83206 -1.13249 0
M  V30 3169 H 293.722 -6.09385 -0.496006 0
M  V30 3170 H 297.896 -6.96394 -0.0293563 0
M  V30 3171 H 295.523 -7.59628 0.294766 0
M  V30 3172 N 297.098 0.621204 -1.44841 0
M  V30 3173 C 298.046 1.75385 -1.52784 0
M  V30 3174 C 299.04 1.64639 -0.398779 0
M  V30 3175 O 300.246 1.70598 -0.574137 0
M  V30 3176 H 296.621 0.579193 -0.479625 0
M  V30 3177 H 298.592 1.6581 -2.48092 0
M  V30 3178 C 297.341 3.13742 -1.4987 0
M  V30 3179 H 296.664 3.22663 -2.36069 0
M  V30 3180 H 298.104 3.92861 -1.59487 0
M  V30 3181 C 296.563 3.36175 -0.220973 0
M  V30 3182 O 297.093 3.95469 0.704782 0
M  V30 3183 N 295.299 2.90348 -0.120963 0
M  V30 3184 H 294.846 2.42278 -0.875162 0
M  V30 3185 H 294.804 3.05732 0.733168 0
M  V30 3186 N 298.576 1.31904 0.862503 0
M  V30 3187 C 299.486 1.22161 2.00285 0
M  V30 3188 C 300.502 0.136785 1.73462 0
M  V30 3189 O 301.678 0.355994 1.98229 0
M  V30 3190 C 298.743 0.937093 3.33796 0
M  V30 3191 C 297.804 2.10957 3.73893 0
M  V30 3192 C 297.037 1.83853 5.01033 0
M  V30 3193 O 297.26 0.777274 5.65079 0
M  V30 3194 O 296.194 2.69741 5.38074 0
M  V30 3195 H 300.02 2.18008 2.11439 0
M  V30 3196 H 297.605 1.11716 0.991957 0
M  V30 3197 H 299.487 0.794583 4.13841 0
M  V30 3198 H 298.162 0.00871894 3.23699 0
M  V30 3199 H 297.069 2.30752 2.94456 0
M  V30 3200 H 298.402 3.02046 3.88625 0
M  V30 3201 N 300.054 -1.07777 1.14986 0
M  V30 3202 C 301.001 -2.14867 0.842672 0
M  V30 3203 C 301.971 -1.6486 -0.202552 0
M  V30 3204 O 303.156 -1.90668 -0.0710568 0
M  V30 3205 C 300.296 -3.43486 0.333363 0
M  V30 3206 C 299.409 -4.07306 1.43965 0
M  V30 3207 C 298.544 -5.23744 0.886914 0
M  V30 3208 C 297.583 -5.79517 1.97043 0
M  V30 3209 N 296.72 -6.87291 1.4344 0
M  V30 3210 H 301.56 -2.40485 1.75986 0
M  V30 3211 H 299.097 -1.1801 0.878179 0
M  V30 3212 H 301.055 -4.17195 0.0198163 0
M  V30 3213 H 299.685 -3.18133 -0.546916 0
M  V30 3214 H 298.737 -3.31293 1.86946 0
M  V30 3215 H 300.049 -4.44771 2.25788 0
M  V30 3216 H 299.203 -6.04419 0.525651 0
M  V30 3217 H 297.942 -4.87685 0.0377957 0
M  V30 3218 H 296.947 -4.97491 2.34057 0
M  V30 3219 H 298.172 -6.17632 2.82325 0
M  V30 3220 H 296.118 -6.5318 0.607567 0
M  V30 3221 H 296.035 -7.23617 2.18895 0
M  V30 3222 H 297.303 -7.71682 1.10124 0
M  V30 3223 N 301.532 -0.945985 -1.26051 0
M  V30 3224 C 302.809 -0.513816 -1.88731 0
M  V30 3225 C 303.189 1.00872 -1.8544 0
M  V30 3226 O 302.537 1.8708 -1.312 0
M  V30 3227 C 302.747 -1.08062 -3.31849 0
M  V30 3228 C 304.095 -1.1522 -4.08668 0
M  V30 3229 O 305.119 -1.03155 -3.40936 0
M  V30 3230 O 303.978 -1.34044 -5.29806 0
M  V30 3231 H 301.072 -0.168193 -0.809716 0
M  V30 3232 H 303.618 -1.03886 -1.34186 0
M  V30 3233 H 302.39 -2.1241 -3.2863 0
M  V30 3234 H 302.013 -0.538307 -3.93939 0
M  V30 3235 N 303.011 1.40521 -0.713556 0
M  V30 3236 C 303.958 2.30723 -0.059684 0
M  V30 3237 C 304.928 1.48079 0.752448 0
M  V30 3238 O 306.113 1.76823 0.71681 0
M  V30 3239 C 303.253 3.34274 0.857594 0
M  V30 3240 C 302.366 4.31986 0.0351536 0
M  V30 3241 C 301.501 5.22605 0.951724 0
M  V30 3242 C 300.54 6.11976 0.123253 0
M  V30 3243 N 299.677 6.9502 0.99459 0
M  V30 3244 H 304.517 2.86074 -0.834596 0
M  V30 3245 H 302.054 1.40879 -0.42326 0
M  V30 3246 H 304.012 3.92879 1.40364 0
M  V30 3247 H 302.642 2.8043 1.59871 0
M  V30 3248 H 301.694 3.7518 -0.628052 0
M  V30 3249 H 303.006 4.95101 -0.606347 0
M  V30 3250 H 302.16 5.86131 1.56638 0
M  V30 3251 H 300.899 4.59759 1.62705 0
M  V30 3252 H 299.904 5.47482 -0.50435 0
M  V30 3253 H 301.129 6.76881 -0.548539 0
M  V30 3254 H 299.075 6.34764 1.6556 0
M  V30 3255 H 298.992 7.54892 0.40908 0
M  V30 3256 H 300.26 7.62997 1.59549 0
M  V30 3257 N 304.489 0.459591 1.5075 0
M  V30 3258 C 305.729 -0.09824 2.04164 0
M  V30 3259 C 306.093 -1.3801 1.33481 0
M  V30 3260 O 307.294 -2.01959 1.77387 0
M  V30 3261 C 305.565 -0.289467 3.56226 0
M  V30 3262 S 307.124 -0.807507 4.31306 0
M  V30 3263 H 303.942 -0.0213845 0.710678 0
M  V30 3264 H 306.544 0.624098 1.85271 0
M  V30 3265 H 305.248 0.649461 4.05229 0
M  V30 3266 H 304.779 -1.03825 3.79452 0
M  V30 3267 H 306.794 -2.0824 4.50389 0
M  V30 3268 N 305.967 -1.56429 0.191757 0
M  V30 3269 C 306.93 -2.17707 -0.716688 0
M  V30 3270 C 307.93 -1.13061 -1.14341 0
M  V30 3271 O 309.12 -1.38464 -1.05704 0
M  V30 3272 C 306.252 -2.77644 -1.97804 0
M  V30 3273 H 307.445 -2.99342 -0.1829 0
M  V30 3274 H 304.998 -1.56193 -0.0578566 0
M  V30 3275 H 305.733 -1.99799 -2.55443 0
M  V30 3276 H 305.518 -3.54246 -1.68083 0
M  V30 3277 H 307.008 -3.24708 -2.62592 0
M  V30 3278 N 307.445 0.0818655 -1.57387 0
M  V30 3279 C 308.393 1.11712 -2.04018 0
M  V30 3280 C 309.387 1.40683 -0.94364 0
M  V30 3281 O 310.593 1.40209 -1.12878 0
M  V30 3282 H 306.968 0.377542 -0.650358 0
M  V30 3283 H 308.939 0.697614 -2.90131 0
M  V30 3284 C 307.688 2.42537 -2.49141 0
M  V30 3285 H 307.011 2.21092 -3.33104 0
M  V30 3286 H 308.451 3.13446 -2.85531 0
M  V30 3287 C 306.91 3.0778 -1.37014 0
M  V30 3288 O 307.44 3.95436 -0.706621 0
M  V30 3289 N 305.646 2.68242 -1.11779 0
M  V30 3290 H 305.193 1.97052 -1.65917 0
M  V30 3291 H 305.151 3.1222 -0.369594 0
M  V30 3292 N 308.923 1.53595 0.353017 0
M  V30 3293 C 310.163 1.72094 1.10286 0
M  V30 3294 C 310.527 0.469217 1.86178 0
M  V30 3295 O 311.728 0.531083 2.63501 0
M  V30 3296 C 309.999 2.94386 2.02661 0
M  V30 3297 S 311.558 3.33651 2.84996 0
M  V30 3298 H 308.376 0.605433 0.372789 0
M  V30 3299 H 310.978 1.91722 0.38248 0
M  V30 3300 H 309.682 3.83669 1.45691 0
M  V30 3301 H 309.213 2.77197 2.79152 0
M  V30 3302 H 311.228 2.86645 4.0503 0
M  V30 3303 N 310.401 -0.613514 1.45168 0
M  V30 3304 C 311.348 -1.72456 1.53387 0
M  V30 3305 C 312.318 -1.6169 0.380191 0
M  V30 3306 O 313.503 -1.81356 0.592836 0
M  V30 3307 C 310.643 -3.10753 1.50088 0
M  V30 3308 C 309.756 -3.32368 2.75963 0
M  V30 3309 C 308.891 -4.60737 2.64376 0
M  V30 3310 C 307.93 -4.7559 3.85332 0
M  V30 3311 N 307.067 -5.95253 3.72315 0
M  V30 3312 H 311.907 -1.64768 2.48305 0
M  V30 3313 H 309.444 -0.803503 1.23216 0
M  V30 3314 H 311.402 -3.90758 1.46164 0
M  V30 3315 H 310.032 -3.17413 0.587243 0
M  V30 3316 H 309.084 -2.4618 2.89999 0
M  V30 3317 H 310.396 -3.39218 3.65695 0
M  V30 3318 H 309.55 -5.48928 2.58385 0
M  V30 3319 H 308.289 -4.56275 1.72233 0
M  V30 3320 H 307.294 -3.85824 3.91688 0
M  V30 3321 H 308.519 -4.81854 4.78533 0
M  V30 3322 H 306.465 -5.91847 2.82937 0
M  V30 3323 H 306.382 -6.03236 4.55677 0
M  V30 3324 H 307.65 -6.85958 3.70246 0
M  V30 3325 N 311.879 -1.3236 -0.855495 0
M  V30 3326 C 313.127 -1.22629 -1.60644 0
M  V30 3327 C 313.448 0.212136 -1.93843 0
M  V30 3328 O 312.718 1.13666 -1.59552 0
M  V30 3329 H 311.298 -0.450882 -0.595579 0
M  V30 3330 H 313.96 -1.65871 -1.02337 0
M  V30 3331 H 313.056 -1.80832 -2.54374 0
M  V30 3332 N 313.357 1.07166 -1.15556 0
M  V30 3333 C 314.29 2.13808 -0.797593 0
M  V30 3334 C 315.268 1.6101 0.226812 0
M  V30 3335 O 316.452 1.88161 0.112932 0
M  V30 3336 C 313.579 3.38187 -0.186371 0
M  V30 3337 C 312.625 4.09766 -1.18297 0
M  V30 3338 S 313.458 4.60932 -2.72584 0
M  V30 3339 C 314.614 5.88583 -2.12886 0
M  V30 3340 H 314.847 2.43843 -1.70083 0
M  V30 3341 H 312.38 1.19467 -0.978106 0
M  V30 3342 H 314.338 4.10189 0.159837 0
M  V30 3343 H 312.999 3.06326 0.694489 0
M  V30 3344 H 312.192 4.99065 -0.703562 0
M  V30 3345 H 311.794 3.43736 -1.47381 0
M  V30 3346 H 314.086 6.60866 -1.49208 0
M  V30 3347 H 315.029 6.41241 -3.0036 0
M  V30 3348 H 315.437 5.42194 -1.57116 0
M  V30 3349 N 314.835 0.952656 1.25548 0
M  V30 3350 C 316.075 0.614013 1.9496 0
M  V30 3351 C 316.439 -0.833215 1.72978 0
M  V30 3352 O 317.64 -1.28135 2.36294 0
M  V30 3353 C 315.911 0.960562 3.4425 0
M  V30 3354 S 317.47 0.734195 4.32614 0
M  V30 3355 H 314.288 0.225754 0.674208 0
M  V30 3356 H 316.89 1.22641 1.52248 0
M  V30 3357 H 315.594 2.01103 3.57751 0
M  V30 3358 H 315.125 0.338336 3.91942 0
M  V30 3359 H 317.14 -0.395995 4.94617 0
M  V30 3360 N 316.313 -1.40141 0.720998 0
M  V30 3361 C 317.559 -2.01084 0.263231 0
M  V30 3362 C 317.892 -1.57052 -1.14229 0
M  V30 3363 O 317.167 -0.793027 -1.77599 0
M  V30 3364 C 317.45 -3.58401 0.349344 0
M  V30 3365 C 317.303 -4.12491 1.79363 0
M  V30 3366 C 318.622 -4.39231 -0.276351 0
M  V30 3367 H 315.741 -0.730572 0.0971228 0
M  V30 3368 H 318.383 -1.66543 0.914518 0
M  V30 3369 H 316.533 -3.87958 -0.205165 0
M  V30 3370 H 318.205 -3.93711 2.40394 0
M  V30 3371 H 316.448 -3.66576 2.31958 0
M  V30 3372 H 317.119 -5.21646 1.80524 0
M  V30 3373 H 319.595 -4.15637 0.196184 0
M  V30 3374 H 318.471 -5.48586 -0.185681 0
M  V30 3375 H 318.732 -4.20643 -1.36059 0
M  V30 3376 N 317.792 -0.46758 -1.50504 0
M  V30 3377 C 318.722 0.318381 -2.31319 0
M  V30 3378 C 319.703 0.993564 -1.38066 0
M  V30 3379 O 320.888 0.991411 -1.66987 0
M  V30 3380 C 318.018 1.40275 -3.17711 0
M  V30 3381 C 316.972 0.849373 -4.19487 0
M  V30 3382 C 316.298 2.03177 -4.94594 0
M  V30 3383 C 317.598 -0.136942 -5.2212 0
M  V30 3384 H 319.292 -0.356106 -2.97275 0
M  V30 3385 H 316.838 -0.172703 -1.42961 0
M  V30 3386 H 318.791 1.96004 -3.73042 0
M  V30 3387 H 317.515 2.10596 -2.49634 0
M  V30 3388 H 316.174 0.314076 -3.65252 0
M  V30 3389 H 315.822 2.72187 -4.22993 0
M  V30 3390 H 315.522 1.66774 -5.63436 0
M  V30 3391 H 317.046 2.59403 -5.52759 0
M  V30 3392 H 318.46 0.331056 -5.72343 0
M  V30 3393 H 316.857 -0.41507 -5.98663 0
M  V30 3394 H 317.927 -1.06398 -4.73083 0
M  V30 3395 N 319.27 1.56325 -0.20005 0
M  V30 3396 C 320.217 2.1932 0.718833 0
M  V30 3397 C 321.187 1.14198 1.20615 0
M  V30 3398 O 322.372 1.42469 1.26914 0
M  V30 3399 C 319.512 2.86041 1.93066 0
M  V30 3400 C 318.625 4.05702 1.48425 0
M  V30 3401 C 317.76 4.60266 2.65196 0
M  V30 3402 C 316.799 5.72273 2.17185 0
M  V30 3403 N 315.936 6.21221 3.27152 0
M  V30 3404 H 320.776 2.97486 0.17489 0
M  V30 3405 H 318.313 1.46911 0.0745794 0
M  V30 3406 H 320.271 3.22897 2.64184 0
M  V30 3407 H 318.901 2.1043 2.44783 0
M  V30 3408 H 317.953 3.74475 0.668755 0
M  V30 3409 H 319.265 4.86699 1.09204 0
M  V30 3410 H 318.419 4.99453 3.4443 0
M  V30 3411 H 317.158 3.78386 3.07693 0
M  V30 3412 H 316.163 5.3261 1.36407 0
M  V30 3413 H 317.388 6.55974 1.75713 0
M  V30 3414 H 315.334 5.42263 3.69171 0
M  V30 3415 H 315.251 6.97284 2.92116 0
M  V30 3416 H 316.519 6.65063 4.06585 0
M  V30 3417 N 320.748 -0.0735177 1.57428 0
M  V30 3418 C 321.976 -0.785969 1.9139 0
M  V30 3419 C 322.391 -1.71207 0.795847 0
M  V30 3420 O 321.748 -1.81033 -0.230915 0
M  V30 3421 C 321.799 -1.58107 3.25091 0
M  V30 3422 O 321.52 -0.6922 4.32597 0
M  V30 3423 C 323.021 -2.39467 3.73055 0
M  V30 3424 H 320.241 -0.223558 0.632663 0
M  V30 3425 H 322.785 -0.044302 2.04452 0
M  V30 3426 H 320.94 -2.27503 3.13562 0
M  V30 3427 H 321.354 -1.24504 5.09508 0
M  V30 3428 H 322.828 -2.90716 4.69242 0
M  V30 3429 H 323.305 -3.18913 3.01979 0
M  V30 3430 H 323.911 -1.7523 3.87523 0
M  V30 3431 N 322.226 -1.5378 -0.344866 0
M  V30 3432 C 323.642 -1.44015 -0.687888 0
M  V30 3433 C 323.842 -0.595834 -1.92489 0
M  V30 3434 O 322.898 -0.0863064 -2.52352 0
M  V30 3435 C 324.211 -2.87481 -0.881758 0
M  V30 3436 C 325.759 -2.97247 -0.980459 0
M  V30 3437 C 326.234 -4.41819 -1.20665 0
M  V30 3438 N 327.725 -4.45339 -1.27389 0
M  V30 3439 C 328.46 -5.54333 -1.46639 0
M  V30 3440 N 327.956 -6.73335 -1.63071 0
M  V30 3441 N 329.749 -5.41944 -1.49176 0
M  V30 3442 H 321.9 -2.07169 0.468475 0
M  V30 3443 H 324.163 -0.93643 0.147655 0
M  V30 3444 H 323.869 -3.51672 -0.0443444 0
M  V30 3445 H 323.743 -3.32352 -1.78388 0
M  V30 3446 H 326.13 -2.33197 -1.8084 0
M  V30 3447 H 326.211 -2.5574 -0.0552713 0
M  V30 3448 H 325.855 -5.06449 -0.383652 0
M  V30 3449 H 325.785 -4.80917 -2.14539 0
M  V30 3450 H 328.276 -3.59585 -1.1622 0
M  V30 3451 H 328.589 -7.52165 -1.77391 0
M  V30 3452 H 326.934 -6.76282 -1.60209 0
M  V30 3453 H 330.125 -4.47932 -1.3592 0
M  V30 3454 H 330.298 -6.26946 -1.63837 0
M  V30 3455 N 323.704 0.605807 -1.45491 0
M  V30 3456 C 324.651 1.7164 -1.54299 0
M  V30 3457 C 325.621 1.61486 -0.388761 0
M  V30 3458 O 326.806 1.81039 -0.602445 0
M  V30 3459 C 323.946 3.09953 -1.51734 0
M  V30 3460 C 323.059 3.309 -2.77721 0
M  V30 3461 C 322.194 4.59329 -2.66816 0
M  V30 3462 C 321.233 4.7354 -3.87848 0
M  V30 3463 N 320.37 5.9327 -3.75467 0
M  V30 3464 H 325.21 1.63449 -2.49176 0
M  V30 3465 H 322.747 0.796957 -1.23641 0
M  V30 3466 H 324.705 3.89977 -1.48235 0
M  V30 3467 H 323.335 3.17098 -0.604068 0
M  V30 3468 H 322.387 2.44639 -2.913 0
M  V30 3469 H 323.699 3.37274 -3.67488 0
M  V30 3470 H 322.853 5.4755 -2.61292 0
M  V30 3471 H 321.592 4.55355 -1.74651 0
M  V30 3472 H 320.597 3.83741 -3.93729 0
M  V30 3473 H 321.822 4.79309 -4.81082 0
M  V30 3474 H 319.768 5.90338 -2.86072 0
M  V30 3475 H 319.685 6.00811 -4.5887 0
M  V30 3476 H 320.953 6.83984 -3.73879 0
M  V30 3477 N 325.182 1.32811 0.848464 0
M  V30 3478 C 326.431 1.23075 1.59798 0
M  V30 3479 C 326.744 -0.204419 1.94529 0
M  V30 3480 O 327.95 -0.423701 2.68173 0
M  V30 3481 C 326.406 2.15594 2.88179 0
M  V30 3482 C 326.014 3.64228 2.60849 0
M  V30 3483 C 327.758 2.14709 3.66197 0
M  V30 3484 C 325.665 4.48689 3.85269 0
M  V30 3485 H 324.595 0.457091 0.599653 0
M  V30 3486 H 327.246 1.57813 0.936342 0
M  V30 3487 H 325.628 1.73778 3.55833 0
M  V30 3488 H 326.802 4.14424 2.01467 0
M  V30 3489 H 325.117 3.67306 1.96151 0
M  V30 3490 H 327.714 2.75046 4.58534 0
M  V30 3491 H 328.057 1.13966 4.00397 0
M  V30 3492 H 328.59 2.54837 3.05455 0
M  V30 3493 H 325.329 5.5027 3.56207 0
M  V30 3494 H 324.849 4.03241 4.44024 0
M  V30 3495 H 326.528 4.62006 4.52946 0
M  V30 3496 N 326.66 -1.06551 1.16123 0
M  V30 3497 C 327.909 -1.78687 0.935622 0
M  V30 3498 C 328.222 -1.88056 -0.538001 0
M  V30 3499 O 329.428 -2.56794 -0.88143 0
M  V30 3500 C 327.884 -3.21143 1.62466 0
M  V30 3501 C 327.492 -3.19949 3.13587 0
M  V30 3502 C 329.236 -3.9783 1.48092 0
M  V30 3503 C 327.143 -4.57108 3.75241 0
M  V30 3504 H 326.073 -0.669712 0.346412 0
M  V30 3505 H 328.724 -1.19534 1.39226 0
M  V30 3506 H 327.106 -3.80539 1.09572 0
M  V30 3507 H 328.28 -2.70151 3.73303 0
M  V30 3508 H 326.595 -2.5676 3.27816 0
M  V30 3509 H 329.192 -4.99217 1.91538 0
M  V30 3510 H 329.535 -4.14078 0.429507 0
M  V30 3511 H 330.068 -3.4495 1.98127 0
M  V30 3512 H 326.807 -4.46065 4.80319 0
M  V30 3513 H 326.327 -5.07111 3.20309 0
M  V30 3514 H 328.006 -5.26069 3.76644 0
M  V30 3515 N 328.138 -0.959301 -1.25041 0
M  V30 3516 C 329.048 -0.489994 -2.29426 0
M  V30 3517 C 330.064 0.444944 -1.68215 0
M  V30 3518 O 331.24 0.320046 -1.98841 0
M  V30 3519 C 328.305 0.220309 -3.45999 0
M  V30 3520 C 327.366 -0.753418 -4.22637 0
M  V30 3521 C 326.599 -0.076918 -5.33645 0
M  V30 3522 O 326.822 1.13649 -5.58963 0
M  V30 3523 O 325.756 -0.764824 -5.97021 0
M  V30 3524 H 329.582 -1.35755 -2.71669 0
M  V30 3525 H 327.167 -0.725961 -1.30576 0
M  V30 3526 H 329.049 0.619677 -4.16819 0
M  V30 3527 H 327.724 1.06296 -3.0575 0
M  V30 3528 H 326.631 -1.20308 -3.54227 0
M  V30 3529 H 327.964 -1.56423 -4.66683 0
M  V30 3530 N 329.616 1.39756 -0.72842 0
M  V30 3531 C 330.862 2.00942 -0.273892 0
M  V30 3532 C 331.195 1.57656 1.13394 0
M  V30 3533 O 330.47 0.802434 1.77176 0
M  V30 3534 C 330.753 3.58211 -0.368346 0
M  V30 3535 C 330.606 4.11534 -1.81548 0
M  V30 3536 C 331.925 4.39372 0.253054 0
M  V30 3537 H 329.044 0.730047 -0.100996 0
M  V30 3538 H 331.686 1.66056 -0.923337 0
M  V30 3539 H 329.836 3.88061 0.184588 0
M  V30 3540 H 331.508 3.92431 -2.42478 0
M  V30 3541 H 329.751 3.65341 -2.33898 0
M  V30 3542 H 330.422 5.20682 -1.83288 0
M  V30 3543 H 332.898 4.15527 -0.218224 0
M  V30 3544 H 331.774 5.48677 0.156585 0
M  V30 3545 H 332.035 4.21358 1.33826 0
M  V30 3546 N 331.094 0.475555 1.50254 0
M  V30 3547 C 332.324 -0.0753399 2.06463 0
M  V30 3548 C 332.732 -1.33661 1.33908 0
M  V30 3549 O 332.075 -1.79219 0.403257 0
M  V30 3550 C 332.137 -0.424921 3.5698 0
M  V30 3551 C 331.801 0.734965 4.51051 0
M  V30 3552 C 332.798 1.61827 4.94073 0
M  V30 3553 C 330.483 0.926557 4.9368 0
M  V30 3554 C 332.477 2.67754 5.78434 0
M  V30 3555 C 330.164 1.98904 5.77824 0
M  V30 3556 C 331.162 2.8629 6.20103 0
M  V30 3557 O 330.85 3.90708 7.02568 0
M  V30 3558 H 330.582 0.00576308 0.675975 0
M  V30 3559 H 333.136 0.664662 1.94349 0
M  V30 3560 H 331.366 -1.21817 3.67012 0
M  V30 3561 H 333.055 -0.911422 3.95535 0
M  V30 3562 H 333.821 1.48196 4.61804 0
M  V30 3563 H 329.7 0.25584 4.6029 0
M  V30 3564 H 333.244 3.35992 6.11355 0
M  V30 3565 H 329.141 2.12541 6.09505 0
M  V30 3566 H 329.909 3.87751 7.20827 0
M  V30 3567 N 332.573 -1.56217 0.208337 0
M  V30 3568 C 333.822 -1.97124 -0.427204 0
M  V30 3569 C 334.135 -1.09859 -1.61835 0
M  V30 3570 O 335.341 -1.40606 -2.32255 0
M  V30 3571 C 333.797 -3.50633 -0.811442 0
M  V30 3572 C 333.405 -4.46582 0.35615 0
M  V30 3573 C 335.149 -4.00282 -1.41332 0
M  V30 3574 C 333.056 -5.91379 -0.0497852 0
M  V30 3575 H 331.986 -0.736086 -0.163381 0
M  V30 3576 H 334.637 -1.8099 0.302456 0
M  V30 3577 H 333.019 -3.62319 -1.59815 0
M  V30 3578 H 334.193 -4.46636 1.1337 0
M  V30 3579 H 332.508 -4.07202 0.870396 0
M  V30 3580 H 335.105 -5.0595 -1.72972 0
M  V30 3581 H 335.448 -3.45359 -2.32449 0
M  V30 3582 H 335.981 -3.91764 -0.690323 0
M  V30 3583 H 332.72 -6.50255 0.827529 0
M  V30 3584 H 332.24 -5.94549 -0.791926 0
M  V30 3585 H 333.919 -6.45209 -0.481042 0
M  V30 3586 N 334.051 0.0651679 -1.57465 0
M  V30 3587 C 335.462 0.616213 -1.76238 0
M  V30 3588 C 335.813 1.7756 -0.834689 0
M  V30 3589 O 334.938 2.1639 -0.0204156 0
M  V30 3590 C 335.533 1.12462 -3.1959 0
M  V30 3591 C 334.092 1.62147 -3.39684 0
M  V30 3592 C 333.239 0.543739 -2.71917 0
M  V30 3593 H 336.19 -0.161022 -1.57881 0
M  V30 3594 H 336.211 1.99324 -3.24114 0
M  V30 3595 H 335.723 0.280592 -3.87084 0
M  V30 3596 H 333.824 2.48854 -2.77313 0
M  V30 3597 H 333.937 1.69385 -4.48158 0
M  V30 3598 H 332.301 0.990352 -2.34657 0
M  V30 3599 H 333.084 -0.290216 -3.42071 0
M  V30 3600 N 335.529 1.53961 0.336706 0
M  V30 3601 C 336.476 1.82428 1.41381 0
M  V30 3602 C 337.446 0.670444 1.51968 0
M  V30 3603 O 338.631 0.915565 1.67398 0
M  V30 3604 C 335.771 2.04564 2.77934 0
M  V30 3605 C 334.884 3.32267 2.76084 0
M  V30 3606 C 334.019 3.44434 4.04399 0
M  V30 3607 C 333.058 4.66061 3.96804 0
M  V30 3608 N 332.195 4.75224 5.16823 0
M  V30 3609 H 337.035 2.74324 1.16405 0
M  V30 3610 H 334.572 1.35869 0.563752 0
M  V30 3611 H 336.53 2.15388 3.57301 0
M  V30 3612 H 335.16 1.15974 3.01247 0
M  V30 3613 H 334.212 3.3025 1.88784 0
M  V30 3614 H 335.524 4.21733 2.66351 0
M  V30 3615 H 334.678 3.54728 4.92192 0
M  V30 3616 H 333.417 2.53037 4.16921 0
M  V30 3617 H 332.422 4.55838 3.07396 0
M  V30 3618 H 333.647 5.58829 3.85858 0
M  V30 3619 H 331.593 3.86739 5.29876 0
M  V30 3620 H 331.51 5.58636 5.09374 0
M  V30 3621 H 332.778 4.89835 6.06367 0
M  V30 3622 N 337.007 -0.598083 1.45811 0
M  V30 3623 C 338.255 -1.35413 1.50026 0
M  V30 3624 C 338.576 -1.94444 0.147177 0
M  V30 3625 O 337.846 -1.77701 -0.824571 0
M  V30 3626 H 336.426 -0.502727 0.552517 0
M  V30 3627 H 339.088 -0.701606 1.81834 0
M  V30 3628 H 338.184 -2.16871 2.2444 0
M  V30 3629 N 338.485 -1.33259 -0.841409 0
M  V30 3630 C 339.448 -1.23221 -1.9326 0
M  V30 3631 C 340.448 -0.151895 -1.60081 0
M  V30 3632 O 341.638 -0.403246 -1.69468 0
M  V30 3633 C 338.77 -0.898123 -3.28856 0
M  V30 3634 H 339.963 -2.2021 -2.03587 0
M  V30 3635 H 337.516 -1.17281 -1.03319 0
M  V30 3636 H 338.251 0.0693841 -3.24226 0
M  V30 3637 H 338.036 -1.67934 -3.54317 0
M  V30 3638 H 339.526 -0.852563 -4.08805 0
M  V30 3639 N 339.963 1.05934 -1.16686 0
M  V30 3640 C 341.374 1.60263 -0.957745 0
M  V30 3641 C 341.725 1.89789 0.49745 0
M  V30 3642 O 340.85 1.67401 1.37135 0
M  V30 3643 C 341.445 2.91172 -1.73218 0
M  V30 3644 C 340.004 3.42188 -1.56794 0
M  V30 3645 C 339.151 2.16028 -1.73859 0
M  V30 3646 H 342.102 0.888392 -1.31504 0
M  V30 3647 H 342.123 3.60744 -1.21014 0
M  V30 3648 H 341.635 2.6965 -2.79124 0
M  V30 3649 H 339.736 3.68762 -0.533437 0
M  V30 3650 H 339.849 4.17273 -2.35414 0
M  V30 3651 H 338.213 2.26426 -1.16633 0
M  V30 3652 H 338.996 1.96985 -2.81161 0
M  V30 3653 N 341.441 0.965919 1.2453 0
M  V30 3654 C 342.389 0.486506 2.27455 0
M  V30 3655 C 343.383 -0.449041 1.6334 0
M  V30 3656 O 344.589 -0.324527 1.7705 0
M  V30 3657 H 340.964 0.138857 0.739069 0
M  V30 3658 H 342.935 1.3666 2.65267 0
M  V30 3659 C 341.684 -0.209481 3.47068 0
M  V30 3660 H 341.007 0.50129 3.96645 0
M  V30 3661 H 342.447 -0.508775 4.20936 0
M  V30 3662 C 340.906 -1.43586 3.0477 0
M  V30 3663 O 341.436 -2.53299 3.11773 0
M  V30 3664 N 339.642 -1.30126 2.59838 0
M  V30 3665 H 339.189 -0.408583 2.54339 0
M  V30 3666 H 339.147 -2.12294 2.31902 0
M  V30 3667 N 342.919 -1.39368 0.735821 0
M  V30 3668 C 343.866 -2.30599 0.0963825 0
M  V30 3669 C 344.836 -1.49257 -0.728794 0
M  V30 3670 O 346.021 -1.77941 -0.688588 0
M  V30 3671 C 343.161 -3.35596 -0.804305 0
M  V30 3672 C 342.274 -4.31987 0.0335761 0
M  V30 3673 C 341.409 -5.24053 -0.868461 0
M  V30 3674 C 340.448 -6.12095 -0.0258776 0
M  V30 3675 N 339.585 -6.96514 -0.883893 0
M  V30 3676 H 344.425 -2.8471 0.880002 0
M  V30 3677 H 341.962 -1.40188 0.445619 0
M  V30 3678 H 343.92 -3.95062 -1.34096 0
M  V30 3679 H 342.55 -2.82938 -1.55389 0
M  V30 3680 H 341.602 -3.74133 0.68766 0
M  V30 3681 H 342.914 -4.94074 0.685036 0
M  V30 3682 H 342.068 -5.88549 -1.47293 0
M  V30 3683 H 340.807 -4.62289 -1.5537 0
M  V30 3684 H 339.812 -5.4661 0.591386 0
M  V30 3685 H 341.037 -6.75923 0.656156 0
M  V30 3686 H 338.983 -6.37318 -1.55441 0
M  V30 3687 H 338.9 -7.55448 -0.288931 0
M  V30 3688 H 340.168 -7.65439 -1.4739 0
M  V30 3689 N 344.397 -0.483516 -1.5 0
M  V30 3690 C 345.347 0.32306 -2.257 0
M  V30 3691 C 346.331 0.950755 -1.29805 0
M  V30 3692 O 347.523 0.861247 -1.54634 0
M  V30 3693 C 344.652 1.39724 -3.13579 0
M  V30 3694 C 343.738 0.776663 -4.16928 0
M  V30 3695 N 344.129 -0.1104 -5.0568 0
M  V30 3696 C 342.427 1.03922 -4.33724 0
M  V30 3697 C 343.128 -0.46387 -5.79848 0
M  V30 3698 N 342.104 0.163987 -5.43353 0
M  V30 3699 H 345.906 -0.360086 -2.91686 0
M  V30 3700 H 343.42 -0.298456 -1.59634 0
M  V30 3701 H 345.417 1.98837 -3.66428 0
M  V30 3702 H 344.077 2.08225 -2.49143 0
M  V30 3703 H 345.088 -0.480069 -5.1567 0
M  V30 3704 H 341.765 1.71829 -3.80501 0
M  V30 3705 H 343.155 -1.18854 -6.61304 0
M  V30 3706 N 345.875 1.56104 -0.216619 0
M  V30 3707 C 346.822 2.2007 0.695531 0
M  V30 3708 C 347.792 1.15471 1.19397 0
M  V30 3709 O 348.977 1.43807 1.25396 0
M  V30 3710 C 346.117 2.88073 1.90021 0
M  V30 3711 C 345.23 4.07253 1.44113 0
M  V30 3712 C 344.365 4.63052 2.603 0
M  V30 3713 C 343.404 5.74545 2.11103 0
M  V30 3714 N 342.541 6.24656 3.20545 0
M  V30 3715 H 347.381 2.97655 0.143327 0
M  V30 3716 H 344.918 1.46982 0.0589934 0
M  V30 3717 H 346.876 3.25681 2.60745 0
M  V30 3718 H 345.506 2.13015 2.42538 0
M  V30 3719 H 344.558 3.75164 0.628999 0
M  V30 3720 H 345.87 4.8783 1.04036 0
M  V30 3721 H 345.024 5.03078 3.39113 0
M  V30 3722 H 343.763 3.81628 3.03663 0
M  V30 3723 H 342.768 5.34027 1.3075 0
M  V30 3724 H 343.993 6.57801 1.68746 0
M  V30 3725 H 341.939 5.46148 3.63399 0
M  V30 3726 H 341.856 7.00343 2.84704 0
M  V30 3727 H 343.124 6.69338 3.99508 0
M  V30 3728 N 347.353 -0.0568162 1.57498 0
M  V30 3729 C 348.602 -0.752001 1.87157 0
M  V30 3730 C 348.915 -1.77978 0.811375 0
M  V30 3731 O 350.121 -2.52559 0.996293 0
M  V30 3732 C 348.577 -1.38844 3.3204 0
M  V30 3733 C 348.185 -0.398456 4.46225 0
M  V30 3734 C 349.929 -2.06512 3.70882 0
M  V30 3735 C 347.836 -1.04166 5.82154 0
M  V30 3736 H 346.766 -0.28461 0.698222 0
M  V30 3737 H 349.417 -0.00561272 1.83499 0
M  V30 3738 H 347.799 -2.1836 3.30356 0
M  V30 3739 H 348.973 0.367977 4.59328 0
M  V30 3740 H 347.288 0.174592 4.16034 0
M  V30 3741 H 349.885 -2.55437 4.6974 0
M  V30 3742 H 350.228 -2.87117 3.01445 0
M  V30 3743 H 350.761 -1.33808 3.7462 0
M  V30 3744 H 347.5 -0.275614 6.5492 0
M  V30 3745 H 347.02 -1.7786 5.72823 0
M  V30 3746 H 348.699 -1.55715 6.27982 0
M  V30 3747 N 348.832 -1.54138 -0.328536 0
M  V30 3748 C 350.078 -1.7236 -1.06865 0
M  V30 3749 C 350.411 -0.493231 -1.87832 0
M  V30 3750 O 349.686 0.5098 -1.877 0
M  V30 3751 C 349.969 -2.99621 -1.99747 0
M  V30 3752 C 349.822 -4.32899 -1.22143 0
M  V30 3753 C 351.141 -3.22615 -2.99345 0
M  V30 3754 H 348.26 -0.627151 -0.387105 0
M  V30 3755 H 350.902 -1.86827 -0.345767 0
M  V30 3756 H 349.052 -2.87418 -2.61387 0
M  V30 3757 H 350.724 -4.56978 -0.630017 0
M  V30 3758 H 348.967 -4.30628 -0.523628 0
M  V30 3759 H 349.638 -5.18154 -1.90318 0
M  V30 3760 H 352.114 -3.34248 -2.47826 0
M  V30 3761 H 350.99 -4.13027 -3.61524 0
M  V30 3762 H 351.251 -2.3961 -3.71536 0
M  V30 3763 N 350.31 0.590341 -1.46126 0
M  V30 3764 C 351.557 1.34882 -1.5104 0
M  V30 3765 C 351.885 1.93849 -0.159021 0
M  V30 3766 O 351.14 1.76544 0.844436 0
M  V30 3767 C 351.439 2.5032 -2.55097 0
M  V30 3768 C 351.105 2.09394 -3.99331 0
M  V30 3769 C 349.767 1.97947 -4.38601 0
M  V30 3770 C 352.119 1.77712 -4.89967 0
M  V30 3771 C 349.447 1.53065 -5.66381 0
M  V30 3772 C 351.799 1.34312 -6.18177 0
M  V30 3773 C 350.463 1.21436 -6.56361 0
M  V30 3774 H 349.733 0.493568 -0.552695 0
M  V30 3775 H 352.38 0.665539 -1.79563 0
M  V30 3776 H 350.685 3.24062 -2.20207 0
M  V30 3777 H 352.382 3.08541 -2.56132 0
M  V30 3778 H 348.972 2.19235 -3.68285 0
M  V30 3779 H 353.156 1.85445 -4.60352 0
M  V30 3780 H 348.412 1.41733 -5.94745 0
M  V30 3781 H 352.586 1.08849 -6.87841 0
M  V30 3782 H 350.213 0.864345 -7.5527 0
M  V30 3783 N 351.788 1.33704 0.83433 0
M  V30 3784 C 352.736 1.24323 1.96587 0
M  V30 3785 C 353.73 0.143659 1.6879 0
M  V30 3786 O 354.936 0.30791 1.77347 0
M  V30 3787 H 351.311 0.385925 0.645419 0
M  V30 3788 H 353.282 2.19978 2.01624 0
M  V30 3789 C 352.031 1.00394 3.32891 0
M  V30 3790 H 351.354 1.84231 3.54822 0
M  V30 3791 H 352.794 0.97862 4.12552 0
M  V30 3792 C 351.253 -0.293047 3.35623 0
M  V30 3793 O 351.783 -1.29823 3.80143 0
M  V30 3794 N 349.989 -0.322174 2.88809 0
M  V30 3795 H 349.536 0.496379 2.52772 0
M  V30 3796 H 349.494 -1.18977 2.91019 0
M  V30 3797 N 353.266 -1.05314 1.17247 0
M  V30 3798 C 354.514 -1.77941 0.958194 0
M  V30 3799 C 354.835 -1.88089 -0.514556 0
M  V30 3800 O 354.105 -1.39676 -1.37359 0
M  V30 3801 H 352.685 -0.659116 0.351533 0
M  V30 3802 H 355.347 -1.27166 1.47699 0
M  V30 3803 H 354.443 -2.79663 1.38546 0
M  V30 3804 N 354.744 -0.972509 -1.24016 0
M  V30 3805 C 355.654 -0.5143 -2.28893 0
M  V30 3806 C 356.67 0.427078 -1.68677 0
M  V30 3807 O 357.846 0.298939 -1.99169 0
M  V30 3808 C 354.911 0.183598 -3.46214 0
M  V30 3809 C 353.972 -0.798202 -4.21814 0
M  V30 3810 C 353.205 -0.133514 -5.33533 0
M  V30 3811 O 353.428 1.07714 -5.60137 0
M  V30 3812 O 352.362 -0.828103 -5.96176 0
M  V30 3813 H 356.188 -1.38629 -2.70214 0
M  V30 3814 H 353.773 -0.739769 -1.29799 0
M  V30 3815 H 355.655 0.575433 -4.17453 0
M  V30 3816 H 354.33 1.03048 -3.0686 0
M  V30 3817 H 353.237 -1.24059 -3.52931 0
M  V30 3818 H 354.57 -1.61364 -4.64997 0
M  V30 3819 N 356.222 1.38976 -0.743202 0
M  V30 3820 C 357.185 2.28901 -0.117014 0
M  V30 3821 C 358.185 1.46698 0.658503 0
M  V30 3822 O 359.375 1.67274 0.486305 0
M  V30 3823 C 356.507 3.30309 0.84315 0
M  V30 3824 H 357.7 2.8578 -0.909373 0
M  V30 3825 H 355.253 1.47761 -0.509547 0
M  V30 3826 H 355.988 2.785 1.66157 0
M  V30 3827 H 355.773 3.91029 0.289594 0
M  V30 3828 H 357.263 3.97577 1.2776 0
M  V30 3829 N 357.7 0.491464 1.49741 0
M  V30 3830 C 358.977 -0.118984 1.95238 0
M  V30 3831 C 359.357 -1.55044 1.43264 0
M  V30 3832 O 358.705 -2.19287 0.642287 0
M  V30 3833 C 358.915 -0.0414187 3.48975 0
M  V30 3834 C 360.263 -0.220133 4.24029 0
M  V30 3835 O 361.287 -0.117055 3.56008 0
M  V30 3836 O 360.146 -0.430567 5.44801 0
M  V30 3837 H 357.24 -0.100536 0.820866 0
M  V30 3838 H 359.786 0.553322 1.60426 0
M  V30 3839 H 358.558 0.957214 3.79412 0
M  V30 3840 H 358.181 -0.754292 3.9038 0
M  V30 3841 N 359.178 -1.55987 0.224894 0
M  V30 3842 C 360.088 -2.24066 -0.69511 0
M  V30 3843 C 361.104 -1.24939 -1.21104 0
M  V30 3844 O 362.28 -1.5776 -1.25195 0
M  V30 3845 C 359.345 -2.90983 -1.88493 0
M  V30 3846 C 358.406 -4.05462 -1.41064 0
M  V30 3847 C 357.639 -4.69179 -2.54375 0
M  V30 3848 O 357.862 -4.31895 -3.72589 0
M  V30 3849 O 356.796 -5.58108 -2.25386 0
M  V30 3850 H 360.622 -3.03353 -0.145149 0
M  V30 3851 H 358.207 -1.49399 -0.00569476 0
M  V30 3852 H 360.089 -3.33209 -2.57972 0
M  V30 3853 H 358.764 -2.14653 -2.42293 0
M  V30 3854 H 357.671 -3.67798 -0.683774 0
M  V30 3855 H 359.004 -4.83545 -0.918985 0
M  V30 3856 N 360.656 0.0484629 -1.57525 0
M  V30 3857 C 361.603 1.05504 -2.05275 0
M  V30 3858 C 362.573 1.37084 -0.937927 0
M  V30 3859 O 363.758 1.47754 -1.2072 0
M  V30 3860 C 360.898 2.35676 -2.52093 0
M  V30 3861 C 360.011 2.10423 -3.77288 0
M  V30 3862 C 359.146 3.34327 -4.12794 0
M  V30 3863 C 358.185 3.04542 -5.30962 0
M  V30 3864 N 357.322 4.20841 -5.61994 0
M  V30 3865 H 362.162 0.640885 -2.91027 0
M  V30 3866 H 359.699 0.304854 -1.43906 0
M  V30 3867 H 361.657 3.11709 -2.77297 0
M  V30 3868 H 360.287 2.7485 -1.69285 0
M  V30 3869 H 359.339 1.24976 -3.59284 0
M  V30 3870 H 360.651 1.84438 -4.63448 0
M  V30 3871 H 359.805 4.1874 -4.39024 0
M  V30 3872 H 358.544 3.63408 -3.25247 0
M  V30 3873 H 357.549 2.18528 -5.04505 0
M  V30 3874 H 358.774 2.76758 -6.20146 0
M  V30 3875 H 356.72 4.4991 -4.77406 0
M  V30 3876 H 356.637 3.98212 -6.42622 0
M  V30 3877 H 357.905 5.06184 -5.92789 0
M  V30 3878 N 362.134 1.5431 0.320358 0
M  V30 3879 C 363.545 1.63872 0.894594 0
M  V30 3880 C 363.896 0.534847 1.88769 0
M  V30 3881 O 363.021 -0.331732 2.13842 0
M  V30 3882 C 363.616 2.97049 1.62934 0
M  V30 3883 C 362.175 3.08796 2.15226 0
M  V30 3884 C 361.322 2.59456 0.978671 0
M  V30 3885 H 364.273 1.58398 0.0978544 0
M  V30 3886 H 364.294 2.87388 2.49376 0
M  V30 3887 H 363.806 3.7737 0.906302 0
M  V30 3888 H 361.907 2.33156 2.90636 0
M  V30 3889 H 362.02 4.14649 2.40006 0
M  V30 3890 H 360.384 2.1543 1.35875 0
M  V30 3891 H 361.167 3.42237 0.269895 0
M  V30 3892 N 363.613 -0.582584 1.46437 0
M  V30 3893 C 364.561 -1.71272 1.5738 0
M  V30 3894 C 365.555 -1.63524 0.44229 0
M  V30 3895 O 366.761 -1.69016 0.619166 0
M  V30 3896 H 363.136 -0.566273 0.494813 0
M  V30 3897 H 365.107 -1.59174 2.52401 0
M  V30 3898 C 363.856 -3.09658 1.58136 0
M  V30 3899 H 363.179 -3.16291 2.44541 0
M  V30 3900 H 364.619 -3.88494 1.69847 0
M  V30 3901 C 363.078 -3.3547 0.310026 0
M  V30 3902 O 363.608 -3.97199 -0.599683 0
M  V30 3903 N 361.814 -2.89925 0.197901 0
M  V30 3904 H 361.361 -2.39873 0.93909 0
M  V30 3905 H 361.319 -3.07568 -0.65185 0
M  V30 3906 N 365.091 -1.34144 -0.827227 0
M  V30 3907 C 366.337 -1.26446 -1.58554 0
M  V30 3908 C 366.67 0.1664 -1.93486 0
M  V30 3909 O 365.945 1.1107 -1.59667 0
M  V30 3910 C 366.228 -2.15111 -2.8879 0
M  V30 3911 C 366.081 -3.66712 -2.60465 0
M  V30 3912 C 367.4 -2.03311 -3.90324 0
M  V30 3913 H 364.519 -0.46067 -0.575284 0
M  V30 3914 H 367.161 -1.64356 -0.953269 0
M  V30 3915 H 365.311 -1.8291 -3.42748 0
M  V30 3916 H 366.983 -4.09259 -2.1285 0
M  V30 3917 H 365.226 -3.88014 -1.93978 0
M  V30 3918 H 365.897 -4.24112 -3.53317 0
M  V30 3919 H 368.373 -2.31574 -3.45706 0
M  V30 3920 H 367.249 -2.67582 -4.79261 0
M  V30 3921 H 367.51 -1.00879 -4.30437 0
M  V30 3922 N 366.569 1.04691 -1.17803 0
M  V30 3923 C 367.818 1.77176 -0.963931 0
M  V30 3924 C 368.131 1.88888 0.508015 0
M  V30 3925 O 369.337 2.58164 0.840465 0
M  V30 3926 C 367.793 3.18518 -1.67555 0
M  V30 3927 C 367.401 3.14919 -3.18637 0
M  V30 3928 C 369.145 3.95424 -1.54402 0
M  V30 3929 C 367.052 4.51081 -3.82466 0
M  V30 3930 H 365.982 0.664116 -0.357023 0
M  V30 3931 H 368.633 1.17303 -1.4111 0
M  V30 3932 H 367.015 3.78748 -1.15613 0
M  V30 3933 H 368.189 2.64178 -3.77554 0
M  V30 3934 H 366.504 2.51512 -3.31859 0
M  V30 3935 H 369.101 4.96106 -1.99456 0
M  V30 3936 H 369.444 4.13343 -0.495329 0
M  V30 3937 H 369.977 3.41754 -2.0359 0
M  V30 3938 H 366.716 4.38368 -4.87354 0
M  V30 3939 H 366.236 5.01951 -3.28337 0
M  V30 3940 H 367.915 5.2001 -3.84965 0
M  V30 3941 N 368.047 0.979072 1.23499 0
M  V30 3942 C 369.275 0.665202 1.95915 0
M  V30 3943 C 369.69 -0.767571 1.72493 0
M  V30 3944 O 369.047 -1.51635 1.01554 0
M  V30 3945 C 369.098 0.944438 3.48945 0
M  V30 3946 O 368.819 2.3209 3.71572 0
M  V30 3947 C 370.32 0.646336 4.38563 0
M  V30 3948 H 367.54 0.247218 0.623798 0
M  V30 3949 H 370.084 1.31009 1.57025 0
M  V30 3950 H 368.239 0.345575 3.85856 0
M  V30 3951 H 368.653 2.40957 4.65876 0
M  V30 3952 H 370.127 0.892091 5.44744 0
M  V30 3953 H 370.604 -0.419575 4.37191 0
M  V30 3954 H 371.21 1.22562 4.07258 0
M  V30 3955 N 369.525 -1.3858 0.750561 0
M  V30 3956 C 370.773 -1.99789 0.30477 0
M  V30 3957 C 371.094 -1.59874 -1.11649 0
M  V30 3958 O 370.364 -0.85417 -1.76297 0
M  V30 3959 H 368.944 -0.738902 0.109694 0
M  V30 3960 H 371.606 -1.69391 0.963983 0
M  V30 3961 H 370.702 -3.09952 0.365499 0
M  V30 3962 N 371.003 -0.499398 -1.49478 0
M  V30 3963 C 371.951 0.293604 -2.3074 0
M  V30 3964 C 372.945 0.96427 -1.39277 0
M  V30 3965 O 374.151 0.892141 -1.56336 0
M  V30 3966 H 370.526 0.113541 -0.743379 0
M  V30 3967 H 372.497 -0.411772 -2.95545 0
M  V30 3968 C 371.246 1.3462 -3.20582 0
M  V30 3969 H 370.569 0.83954 -3.90886 0
M  V30 3970 H 372.009 1.87308 -3.80384 0
M  V30 3971 C 370.468 2.36351 -2.40083 0
M  V30 3972 O 370.998 3.422 -2.10385 0
M  V30 3973 N 369.204 2.0878 -2.02137 0
M  V30 3974 H 368.751 1.22723 -2.26488 0
M  V30 3975 H 368.709 2.77075 -1.48583 0
M  V30 3976 N 372.481 1.55866 -0.233164 0
M  V30 3977 C 373.411 2.23783 0.666599 0
M  V30 3978 C 374.392 1.21343 1.19205 0
M  V30 3979 O 375.577 1.4996 1.23392 0
M  V30 3980 C 372.707 2.92671 1.86978 0
M  V30 3981 C 371.661 4.01682 1.47768 0
M  V30 3982 C 370.987 4.57926 2.76058 0
M  V30 3983 C 372.287 5.18126 0.658993 0
M  V30 3984 H 373.981 2.99232 0.100306 0
M  V30 3985 H 371.527 1.43924 0.046804 0
M  V30 3986 H 373.48 3.3888 2.50476 0
M  V30 3987 H 372.204 2.14688 2.46123 0
M  V30 3988 H 370.863 3.56222 0.866106 0
M  V30 3989 H 370.511 3.76659 3.33372 0
M  V30 3990 H 370.211 5.31505 2.50552 0
M  V30 3991 H 371.735 5.06859 3.40479 0
M  V30 3992 H 373.149 5.60644 1.19795 0
M  V30 3993 H 371.546 5.98009 0.500552 0
M  V30 3994 H 372.616 4.83763 -0.331856 0
M  V30 3995 N 373.959 -0.0401083 1.57549 0
M  V30 3996 C 375.205 -0.734211 1.89043 0
M  V30 3997 C 375.538 -1.75591 0.829535 0
M  V30 3998 O 374.813 -1.93868 -0.156706 0
M  V30 3999 C 375.096 -1.41374 3.31188 0
M  V30 4000 C 374.949 -0.406299 4.47961 0
M  V30 4001 C 376.268 -2.35061 3.72068 0
M  V30 4002 H 373.387 -0.265447 0.687537 0
M  V30 4003 H 376.029 0.00294087 1.9 0
M  V30 4004 H 374.179 -2.04206 3.30503 0
M  V30 4005 H 375.851 0.219255 4.60779 0
M  V30 4006 H 374.094 0.275485 4.32924 0
M  V30 4007 H 374.765 -0.920022 5.44279 0
M  V30 4008 H 377.241 -1.82282 3.74049 0
M  V30 4009 H 376.117 -2.79593 4.72355 0
M  V30 4010 H 376.378 -3.21258 3.0372 0
M  V30 4011 N 375.437 -1.54477 -0.31217 0
M  V30 4012 C 376.683 -1.73483 -1.0503 0
M  V30 4013 C 377.016 -0.513125 -1.87298 0
M  V30 4014 O 376.291 0.489864 -1.8823 0
M  V30 4015 C 376.574 -3.01723 -1.96558 0
M  V30 4016 C 376.427 -4.3417 -1.17545 0
M  V30 4017 C 377.746 -3.25772 -2.95907 0
M  V30 4018 H 374.865 -0.631222 -0.380432 0
M  V30 4019 H 377.507 -1.87184 -0.325932 0
M  V30 4020 H 375.657 -2.90174 -2.58324 0
M  V30 4021 H 377.329 -4.5762 -0.581513 0
M  V30 4022 H 375.572 -4.31159 -0.477925 0
M  V30 4023 H 376.243 -5.20143 -1.84811 0
M  V30 4024 H 378.719 -3.36857 -2.44267 0
M  V30 4025 H 377.595 -4.16838 -3.57123 0
M  V30 4026 H 377.856 -2.43537 -3.68974 0
M  V30 4027 N 376.915 0.57481 -1.46744 0
M  V30 4028 C 378.164 1.32898 -1.51727 0
M  V30 4029 C 378.477 1.948 -0.176692 0
M  V30 4030 O 379.683 2.71299 -0.104385 0
M  V30 4031 C 378.139 2.40901 -2.67385 0
M  V30 4032 C 377.747 1.85266 -4.07898 0
M  V30 4033 C 379.491 3.17609 -2.81646 0
M  V30 4034 C 377.398 2.90945 -5.14883 0
M  V30 4035 H 376.328 0.499631 -0.564699 0
M  V30 4036 H 378.979 0.612536 -1.72975 0
M  V30 4037 H 377.361 3.15379 -2.39483 0
M  V30 4038 H 378.535 1.17278 -4.45626 0
M  V30 4039 H 376.85 1.21199 -3.98371 0
M  V30 4040 H 379.447 3.96493 -3.58744 0
M  V30 4041 H 379.79 3.70696 -1.89448 0
M  V30 4042 H 380.323 2.50239 -3.09233 0
M  V30 4043 H 377.062 2.42736 -6.089 0
M  V30 4044 H 376.582 3.57398 -4.81691 0
M  V30 4045 H 378.261 3.54755 -5.41071 0
M  V30 4046 N 378.394 1.34581 0.820102 0
M  V30 4047 C 379.324 1.29038 1.94606 0
M  V30 4048 C 380.305 0.1673 1.69275 0
M  V30 4049 O 381.49 0.360112 1.90832 0
M  V30 4050 C 378.62 1.04793 3.31113 0
M  V30 4051 C 377.574 2.13597 3.70891 0
M  V30 4052 C 376.9 1.74537 5.05412 0
M  V30 4053 C 378.2 3.55451 3.8269 0
M  V30 4054 H 379.894 2.23248 1.99501 0
M  V30 4055 H 377.44 1.0747 0.958449 0
M  V30 4056 H 379.393 0.995592 4.0947 0
M  V30 4057 H 378.117 0.0702565 3.26524 0
M  V30 4058 H 376.776 2.17905 2.9481 0
M  V30 4059 H 376.424 0.754226 4.97313 0
M  V30 4060 H 376.124 2.47361 5.32997 0
M  V30 4061 H 377.648 1.70803 5.86224 0
M  V30 4062 H 379.062 3.5354 4.51312 0
M  V30 4063 H 377.459 4.26922 4.21732 0
M  V30 4064 H 378.529 3.92587 2.84611 0
M  V30 4065 N 379.872 -1.04064 1.18357 0
M  V30 4066 C 380.82 -2.14187 0.907007 0
M  V30 4067 C 381.814 -1.68879 -0.132725 0
M  V30 4068 O 383.02 -1.79993 0.0154248 0
M  V30 4069 H 379.395 -0.699585 0.275835 0
M  V30 4070 H 381.366 -2.34711 1.84264 0
M  V30 4071 C 380.115 -3.44785 0.449254 0
M  V30 4072 H 379.438 -3.80058 1.24081 0
M  V30 4073 H 380.878 -4.22974 0.294737 0
M  V30 4074 C 379.337 -3.26391 -0.834909 0
M  V30 4075 O 379.867 -3.53973 -1.89911 0
M  V30 4076 N 378.073 -2.79726 -0.787523 0
M  V30 4077 H 377.62 -2.5748 0.0787347 0
M  V30 4078 H 377.578 -2.67798 -1.64716 0
M  V30 4079 N 381.35 -0.985608 -1.22978 0
M  V30 4080 C 382.26 -0.538548 -2.28335 0
M  V30 4081 C 383.276 0.409163 -1.69121 0
M  V30 4082 O 384.452 0.277797 -1.99475 0
M  V30 4083 C 381.517 0.146867 -3.46389 0
M  V30 4084 C 380.578 -0.842896 -4.20944 0
M  V30 4085 C 379.811 -0.190095 -5.33361 0
M  V30 4086 O 380.034 1.01767 -5.61248 0
M  V30 4087 O 378.968 -0.891289 -5.95264 0
M  V30 4088 H 382.794 -1.41487 -2.68729 0
M  V30 4089 H 380.379 -0.753495 -1.29007 0
M  V30 4090 H 382.261 0.531125 -4.1804 0
M  V30 4091 H 380.936 0.997871 -3.07935 0
M  V30 4092 H 379.843 -1.27795 -3.51595 0
M  V30 4093 H 381.176 -1.66287 -4.6326 0
M  V30 4094 N 382.828 1.3818 -0.7579 0
M  V30 4095 C 383.775 2.30416 -0.133057 0
M  V30 4096 C 384.745 1.50398 0.704957 0
M  V30 4097 O 385.93 1.79014 0.660192 0
M  V30 4098 C 383.07 3.36834 0.750813 0
M  V30 4099 C 382.183 4.31879 -0.102297 0
M  V30 4100 C 381.318 5.25368 0.784979 0
M  V30 4101 C 380.357 6.12058 -0.0715046 0
M  V30 4102 N 379.494 6.97832 0.772972 0
M  V30 4103 H 384.334 2.83274 -0.925186 0
M  V30 4104 H 381.871 1.39461 -0.467866 0
M  V30 4105 H 383.829 3.97145 1.27794 0
M  V30 4106 H 382.459 2.85374 1.50868 0
M  V30 4107 H 381.511 3.72991 -0.747095 0
M  V30 4108 H 382.823 4.92921 -0.763552 0
M  V30 4109 H 381.977 5.90818 1.37911 0
M  V30 4110 H 380.716 4.64703 1.47996 0
M  V30 4111 H 379.721 5.456 -0.678272 0
M  V30 4112 H 380.946 6.74793 -0.763606 0
M  V30 4113 H 378.892 6.3971 1.45282 0
M  V30 4114 H 378.809 7.55812 0.168709 0
M  V30 4115 H 380.077 7.67687 1.35194 0
M  V30 4116 N 384.306 0.507319 1.49211 0
M  V30 4117 C 385.238 -0.304532 2.27168 0
M  V30 4118 C 386.251 -0.924956 1.33972 0
M  V30 4119 O 387.44 -0.807227 1.59205 0
M  V30 4120 C 384.54 -1.44431 3.06583 0
M  V30 4121 C 383.713 -0.930026 4.27398 0
M  V30 4122 C 382.772 -1.94817 4.88807 0
M  V30 4123 O 381.798 -1.51418 5.4869 0
M  V30 4124 N 383 -3.279 4.79022 0
M  V30 4125 H 385.765 0.36395 2.97482 0
M  V30 4126 H 383.326 0.340249 1.58284 0
M  V30 4127 H 385.318 -2.12311 3.44537 0
M  V30 4128 H 383.888 -2.01684 2.38835 0
M  V30 4129 H 383.108 -0.0759244 3.94127 0
M  V30 4130 H 384.396 -0.564932 5.05654 0
M  V30 4131 H 383.794 -3.65843 4.3148 0
M  V30 4132 H 382.351 -3.91476 5.21142 0
M  V30 4133 N 385.784 -1.5574 0.241426 0
M  V30 4134 C 386.734 -2.17803 -0.674233 0
M  V30 4135 C 387.718 -1.13225 -1.14319 0
M  V30 4136 O 388.91 -1.39153 -1.09387 0
M  V30 4137 C 386.039 -2.87682 -1.87333 0
M  V30 4138 C 385.125 -3.99509 -1.42313 0
M  V30 4139 N 385.516 -5.01115 -0.686798 0
M  V30 4140 C 383.814 -4.11964 -1.70885 0
M  V30 4141 C 384.515 -5.79922 -0.454456 0
M  V30 4142 N 383.491 -5.34001 -1.01705 0
M  V30 4143 H 387.293 -2.93718 -0.103447 0
M  V30 4144 H 384.807 -1.62342 0.0435095 0
M  V30 4145 H 386.804 -3.3057 -2.54026 0
M  V30 4146 H 385.464 -2.13269 -2.4484 0
M  V30 4147 H 386.475 -5.16799 -0.337459 0
M  V30 4148 H 383.152 -3.48718 -2.2957 0
M  V30 4149 H 384.542 -6.71768 0.132992 0
M  V30 4150 N 387.262 0.0317525 -1.57568 0
M  V30 4151 C 388.673 0.578692 -1.77505 0
M  V30 4152 C 389.024 1.75749 -0.872164 0
M  V30 4153 O 388.149 2.16298 -0.0663106 0
M  V30 4154 C 388.744 1.05658 -3.21904 0
M  V30 4155 C 387.303 1.54906 -3.43047 0
M  V30 4156 C 386.45 0.485939 -2.73009 0
M  V30 4157 H 389.401 -0.194475 -1.57504 0
M  V30 4158 H 389.422 1.92404 -3.28269 0
M  V30 4159 H 388.934 0.198422 -3.87592 0
M  V30 4160 H 387.035 2.42915 -2.82529 0
M  V30 4161 H 387.148 1.59841 -4.5165 0
M  V30 4162 H 385.512 0.940354 -2.36705 0
M  V30 4163 H 386.295 -0.362709 -3.41379 0
M  V30 4164 N 388.74 1.54641 0.303973 0
M  V30 4165 C 389.986 1.74038 1.04109 0
M  V30 4166 C 390.319 0.523051 1.87024 0
M  V30 4167 O 389.594 -0.479874 1.88487 0
M  V30 4168 C 389.877 3.02761 1.94955 0
M  V30 4169 C 389.73 4.34787 1.1524 0
M  V30 4170 C 391.049 3.27336 2.94175 0
M  V30 4171 H 388.168 0.63323 0.377079 0
M  V30 4172 H 390.81 1.87354 0.316001 0
M  V30 4173 H 388.96 2.9154 2.56782 0
M  V30 4174 H 390.632 4.57922 0.557236 0
M  V30 4175 H 388.875 4.31407 0.455053 0
M  V30 4176 H 389.546 5.21116 1.8205 0
M  V30 4177 H 392.022 3.38148 2.42477 0
M  V30 4178 H 390.898 4.18726 3.54908 0
M  V30 4179 H 391.159 2.45491 3.67677 0
M  V30 4180 N 390.218 -0.567019 1.47046 0
M  V30 4181 C 391.465 -1.32462 1.53167 0
M  V30 4182 C 391.793 -1.93571 0.189841 0
M  V30 4183 O 391.048 -1.77865 -0.816243 0
M  V30 4184 C 391.347 -2.4623 2.59047 0
M  V30 4185 C 391.013 -2.03014 4.02612 0
M  V30 4186 C 389.675 -1.90944 4.41694 0
M  V30 4187 C 392.027 -1.69895 4.92732 0
M  V30 4188 C 389.355 -1.44035 5.68745 0
M  V30 4189 C 391.707 -1.2446 6.20236 0
M  V30 4190 C 390.371 -1.10979 6.5821 0
M  V30 4191 H 389.641 -0.484713 0.560477 0
M  V30 4192 H 392.288 -0.636888 1.80599 0
M  V30 4193 H 390.593 -3.20517 2.25335 0
M  V30 4194 H 392.29 -3.04427 2.61008 0
M  V30 4195 H 388.88 -2.13348 3.71726 0
M  V30 4196 H 393.064 -1.78098 4.63244 0
M  V30 4197 H 388.32 -1.32254 5.96925 0
M  V30 4198 H 392.494 -0.978924 6.89485 0
M  V30 4199 H 390.121 -0.744078 7.5655 0
M  V30 4200 N 391.696 -1.35014 -0.812953 0
M  V30 4201 C 393.112 -1.14914 -1.10757 0
M  V30 4202 C 393.312 0.0426818 -2.01455 0
M  V30 4203 O 392.368 0.715212 -2.42159 0
M  V30 4204 C 393.681 -2.44911 -1.74468 0
M  V30 4205 C 395.229 -2.5106 -1.86917 0
M  V30 4206 C 395.704 -3.81085 -2.54044 0
M  V30 4207 N 397.195 -3.82301 -2.61535 0
M  V30 4208 C 397.93 -4.79634 -3.14227 0
M  V30 4209 N 397.426 -5.87353 -3.67407 0
M  V30 4210 N 399.219 -4.67078 -3.12721 0
M  V30 4211 H 391.37 -2.1136 -0.20989 0
M  V30 4212 H 393.633 -0.935128 -0.155692 0
M  V30 4213 H 393.339 -3.32267 -1.15289 0
M  V30 4214 H 393.213 -2.58989 -2.74234 0
M  V30 4215 H 395.6 -1.64137 -2.45241 0
M  V30 4216 H 395.681 -2.40901 -0.860242 0
M  V30 4217 H 395.325 -4.68402 -1.96372 0
M  V30 4218 H 395.255 -3.88529 -3.55461 0
M  V30 4219 H 397.746 -3.04465 -2.23851 0
M  V30 4220 H 398.059 -6.57624 -4.05894 0
M  V30 4221 H 396.404 -5.91054 -3.65623 0
M  V30 4222 H 399.595 -3.82067 -2.70449 0
M  V30 4223 H 399.768 -5.43098 -3.53481 0
M  V30 4224 N 393.175 1.03435 -1.18907 0
M  V30 4225 C 394.591 1.28973 -0.940111 0
M  V30 4226 C 394.791 1.97676 0.390691 0
M  V30 4227 O 393.847 2.26127 1.12352 0
M  V30 4228 C 395.16 2.14221 -2.11021 0
M  V30 4229 C 396.708 2.27547 -2.14922 0
M  V30 4230 C 397.183 3.16164 -3.31367 0
M  V30 4231 N 398.674 3.23752 -3.31269 0
M  V30 4232 C 399.409 3.92495 -4.18014 0
M  V30 4233 N 398.905 4.63515 -5.14904 0
M  V30 4234 N 400.698 3.88838 -4.05908 0
M  V30 4235 H 392.849 0.57252 -2.04538 0
M  V30 4236 H 395.112 0.315184 -0.894071 0
M  V30 4237 H 394.818 1.71054 -3.073 0
M  V30 4238 H 394.692 3.14919 -2.0762 0
M  V30 4239 H 397.079 2.69947 -1.19217 0
M  V30 4240 H 397.16 1.26418 -2.22378 0
M  V30 4241 H 396.804 2.74474 -4.27348 0
M  V30 4242 H 396.734 4.17339 -3.21148 0
M  V30 4243 H 399.225 2.73167 -2.61129 0
M  V30 4244 H 399.538 5.13583 -5.77453 0
M  V30 4245 H 397.883 4.62398 -5.18857 0
M  V30 4246 H 401.074 3.32491 -3.29495 0
M  V30 4247 H 401.247 4.4214 -4.73726 0
M  V30 4248 N 394.653 0.992116 1.22453 0
M  V30 4249 C 395.563 0.55065 2.28046 0
M  V30 4250 C 396.579 -0.400189 1.69335 0
M  V30 4251 O 397.755 -0.267215 1.99619 0
M  V30 4252 C 394.82 -0.128496 3.46462 0
M  V30 4253 C 393.881 0.865208 4.20491 0
M  V30 4254 C 393.114 0.218377 5.33253 0
M  V30 4255 O 393.337 -0.987894 5.6178 0
M  V30 4256 O 392.271 0.922845 5.94783 0
M  V30 4257 H 396.097 1.4291 2.67975 0
M  V30 4258 H 393.682 0.760326 1.28606 0
M  V30 4259 H 395.564 -0.508947 4.18315 0
M  V30 4260 H 394.239 -0.981526 3.0846 0
M  V30 4261 H 393.146 1.29658 3.50913 0
M  V30 4262 H 394.479 1.68741 4.62371 0
M  V30 4263 N 396.131 -1.37776 0.765217 0
M  V30 4264 C 397.379 -1.99454 0.325943 0
M  V30 4265 C 397.7 -1.61049 -1.09947 0
M  V30 4266 O 396.97 -0.872821 -1.75381 0
M  V30 4267 H 395.55 -0.737697 0.117525 0
M  V30 4268 H 398.212 -1.68359 0.981895 0
M  V30 4269 H 397.308 -3.09547 0.398353 0
M  V30 4270 N 397.609 -0.515225 -1.4894 0
M  V30 4271 C 398.858 0.0261361 -2.01683 0
M  V30 4272 C 399.171 1.36719 -1.39883 0
M  V30 4273 O 400.377 1.99606 -1.84037 0
M  V30 4274 C 398.833 0.0970111 -3.59769 0
M  V30 4275 C 398.441 -1.23825 -4.30548 0
M  V30 4276 C 400.185 0.587981 -4.20408 0
M  V30 4277 C 398.092 -1.12877 -5.80528 0
M  V30 4278 H 397.022 0.0135398 -0.753878 0
M  V30 4279 H 399.673 -0.656787 -1.71343 0
M  V30 4280 H 398.055 0.844694 -3.86886 0
M  V30 4281 H 399.229 -2.00034 -4.15118 0
M  V30 4282 H 397.544 -1.66379 -3.81716 0
M  V30 4283 H 400.141 0.68763 -5.3026 0
M  V30 4284 H 400.484 1.59026 -3.84729 0
M  V30 4285 H 401.017 -0.103582 -3.97665 0
M  V30 4286 H 397.756 -2.10575 -6.20756 0
M  V30 4287 H 397.276 -0.407799 -5.98412 0
M  V30 4288 H 398.955 -0.813332 -6.41868 0
M  V30 4289 N 399.087 1.5561 -0.249682 0
M  V30 4290 C 400.364 1.90932 0.424761 0
M  V30 4291 C 400.744 1.17078 1.75658 0
M  V30 4292 O 400.092 0.289176 2.26663 0
M  V30 4293 C 400.302 3.43975 0.590109 0
M  V30 4294 C 401.65 4.15281 0.884714 0
M  V30 4295 O 402.674 3.49729 0.67587 0
M  V30 4296 O 401.533 5.31236 1.28259 0
M  V30 4297 H 398.627 0.794815 0.228468 0
M  V30 4298 H 401.173 1.67135 -0.293954 0
M  V30 4299 H 399.945 3.89748 -0.34818 0
M  V30 4300 H 399.568 3.73644 1.35926 0
M  V30 4301 N 400.565 -0.0233959 1.57583 0
M  V30 4302 C 401.495 -1.02162 2.09965 0
M  V30 4303 C 402.476 -1.3735 1.00344 0
M  V30 4304 O 403.661 -1.46135 1.27899 0
M  V30 4305 C 400.791 -2.32081 2.58371 0
M  V30 4306 C 399.745 -2.1112 3.72307 0
M  V30 4307 C 399.071 -3.46848 4.06941 0
M  V30 4308 C 400.371 -1.49276 5.00514 0
M  V30 4309 H 402.065 -0.585557 2.93618 0
M  V30 4310 H 399.611 -0.280218 1.41247 0
M  V30 4311 H 401.564 -3.02249 2.93639 0
M  V30 4312 H 400.288 -2.77758 1.71808 0
M  V30 4313 H 398.947 -1.43384 3.37397 0
M  V30 4314 H 398.595 -3.90184 3.17436 0
M  V30 4315 H 398.295 -3.33646 4.83688 0
M  V30 4316 H 399.819 -4.18369 4.44747 0
M  V30 4317 H 401.233 -2.09368 5.33702 0
M  V30 4318 H 399.63 -1.46632 5.8191 0
M  V30 4319 H 400.7 -0.459217 4.82721 0
M  V30 4320 N 402.043 -1.548 -0.295768 0
M  V30 4321 C 403.29 -1.74329 -1.03032 0
M  V30 4322 C 403.618 -0.531915 -1.87085 0
M  V30 4323 O 402.873 0.486052 -1.89568 0
M  V30 4324 C 403.172 -2.98797 -1.961 0
M  V30 4325 C 402.838 -4.32356 -1.2798 0
M  V30 4326 C 401.5 -4.68661 -1.09135 0
M  V30 4327 C 403.852 -5.15128 -0.793243 0
M  V30 4328 C 401.18 -5.85312 -0.403269 0
M  V30 4329 C 403.532 -6.32488 -0.118854 0
M  V30 4330 C 402.196 -6.6745 0.0815043 0
M  V30 4331 H 401.466 -0.637916 -0.37702 0
M  V30 4332 H 404.113 -1.8906 -0.304696 0
M  V30 4333 H 402.418 -2.78869 -2.75207 0
M  V30 4334 H 404.115 -3.11102 -2.53015 0
M  V30 4335 H 400.705 -4.03808 -1.43655 0
M  V30 4336 H 404.889 -4.87575 -0.92653 0
M  V30 4337 H 400.145 -6.1094 -0.237098 0
M  V30 4338 H 404.319 -6.95892 0.266035 0
M  V30 4339 H 401.946 -7.57695 0.616685 0
M  V30 4340 N 403.521 0.559213 -1.47345 0
M  V30 4341 C 404.454 1.68201 -1.5422 0
M  V30 4342 C 405.432 1.57742 -0.394497 0
M  V30 4343 O 406.616 1.78628 -0.60201 0
M  V30 4344 C 403.743 3.0643 -1.44285 0
M  V30 4345 C 402.789 3.3534 -2.63532 0
M  V30 4346 S 403.622 3.24816 -4.25741 0
M  V30 4347 C 404.778 4.65542 -4.18355 0
M  V30 4348 H 405.011 1.62114 -2.49211 0
M  V30 4349 H 402.544 0.739871 -1.35519 0
M  V30 4350 H 404.502 3.86164 -1.3924 0
M  V30 4351 H 403.163 3.09984 -0.506816 0
M  V30 4352 H 402.356 4.36107 -2.52639 0
M  V30 4353 H 401.958 2.63221 -2.65689 0
M  V30 4354 H 404.25 5.56449 -3.86485 0
M  V30 4355 H 405.193 4.81493 -5.19202 0
M  V30 4356 H 405.601 4.43495 -3.49246 0
M  V30 4357 N 404.999 1.35443 0.805782 0
M  V30 4358 C 405.947 1.28465 1.93906 0
M  V30 4359 C 406.941 0.17943 1.68447 0
M  V30 4360 O 408.147 0.345459 1.76654 0
M  V30 4361 H 404.522 0.399528 0.637088 0
M  V30 4362 H 406.493 2.24206 1.96912 0
M  V30 4363 C 405.242 1.07432 3.30687 0
M  V30 4364 H 404.565 1.91716 3.50835 0
M  V30 4365 H 406.005 1.06591 4.10383 0
M  V30 4366 C 404.464 -0.22179 3.36169 0
M  V30 4367 O 404.994 -1.21731 3.82811 0
M  V30 4368 N 403.2 -0.260841 2.89427 0
M  V30 4369 H 402.747 0.549884 2.51663 0
M  V30 4370 H 402.705 -1.12777 2.93477 0
M  V30 4371 N 406.477 -1.02803 1.19454 0
M  V30 4372 C 407.707 -1.79581 1.02149 0
M  V30 4373 C 408.115 -1.84182 -0.432851 0
M  V30 4374 O 407.458 -1.28534 -1.31243 0
M  V30 4375 C 407.52 -3.25993 1.51554 0
M  V30 4376 C 407.184 -3.45025 2.99678 0
M  V30 4377 C 408.181 -3.35175 3.97434 0
M  V30 4378 C 405.866 -3.71212 3.38389 0
M  V30 4379 C 407.86 -3.51238 5.31893 0
M  V30 4380 C 405.547 -3.8692 4.73008 0
M  V30 4381 C 406.545 -3.76936 5.69569 0
M  V30 4382 O 406.233 -3.92179 7.01748 0
M  V30 4383 H 405.965 -0.571962 0.360327 0
M  V30 4384 H 408.519 -1.30367 1.58725 0
M  V30 4385 H 406.749 -3.76235 0.893543 0
M  V30 4386 H 408.438 -3.84368 1.30444 0
M  V30 4387 H 409.204 -3.14895 3.68872 0
M  V30 4388 H 405.083 -3.78075 2.6378 0
M  V30 4389 H 408.627 -3.43362 6.07247 0
M  V30 4390 H 404.524 -4.06699 5.01265 0
M  V30 4391 H 405.292 -4.09265 7.08833 0
M  V30 4392 N 407.956 -0.998596 -1.21925 0
M  V30 4393 C 408.903 -0.553621 -2.24062 0
M  V30 4394 C 409.873 0.416999 -1.6078 0
M  V30 4395 O 411.058 0.320482 -1.88089 0
M  V30 4396 C 408.198 0.119959 -3.44891 0
M  V30 4397 C 407.311 -0.893077 -4.22668 0
M  V30 4398 C 406.446 -0.192424 -5.30851 0
M  V30 4399 C 405.485 -1.19344 -6.00353 0
M  V30 4400 N 404.622 -0.520707 -7.00166 0
M  V30 4401 H 409.462 -1.4293 -2.61486 0
M  V30 4402 H 406.999 -0.715838 -1.28507 0
M  V30 4403 H 408.957 0.527459 -4.13852 0
M  V30 4404 H 407.587 0.959389 -3.08214 0
M  V30 4405 H 406.639 -1.41886 -3.52948 0
M  V30 4406 H 407.951 -1.65512 -4.70539 0
M  V30 4407 H 407.105 0.271515 -6.06092 0
M  V30 4408 H 405.844 0.602075 -4.83969 0
M  V30 4409 H 404.849 -1.66795 -5.23889 0
M  V30 4410 H 406.074 -1.98891 -6.49322 0
M  V30 4411 H 404.02 0.254252 -6.55507 0
M  V30 4412 H 403.937 -1.2211 -7.46073 0
M  V30 4413 H 405.205 -0.0797596 -7.79459 0
M  V30 4414 N 409.434 1.37368 -0.772513 0
M  V30 4415 C 410.683 1.98918 -0.333861 0
M  V30 4416 C 410.996 1.62017 1.09589 0
M  V30 4417 O 412.202 2.16676 1.63596 0
M  V30 4418 C 410.658 3.55735 -0.545971 0
M  V30 4419 C 410.266 4.01573 -1.98603 0
M  V30 4420 C 412.01 4.24156 -0.170979 0
M  V30 4421 C 409.917 5.51102 -2.1457 0
M  V30 4422 H 408.847 0.744214 -0.121085 0
M  V30 4423 H 411.498 1.56888 -0.95175 0
M  V30 4424 H 409.88 3.95748 0.141387 0
M  V30 4425 H 411.054 3.72803 -2.7084 0
M  V30 4426 H 409.369 3.45937 -2.31769 0
M  V30 4427 H 411.966 5.34024 -0.26878 0
M  V30 4428 H 412.309 4.06917 0.878855 0
M  V30 4429 H 412.842 3.89447 -0.810914 0
M  V30 4430 H 409.581 5.73268 -3.17875 0
M  V30 4431 H 409.101 5.81554 -1.46817 0
M  V30 4432 H 410.78 6.17083 -1.94468 0
M  V30 4433 N 410.912 0.523116 1.48665 0
M  V30 4434 C 412.137 -0.0117284 2.07397 0
M  V30 4435 C 412.562 -1.28031 1.37803 0
M  V30 4436 O 411.92 -1.75836 0.441762 0
M  V30 4437 C 411.968 -0.225786 3.59892 0
M  V30 4438 O 411.072 -1.29592 3.91509 0
M  V30 4439 H 410.413 0.0360673 0.66302 0
M  V30 4440 H 412.943 0.729066 1.9117 0
M  V30 4441 H 412.953 -0.450552 4.05505 0
M  V30 4442 H 411.628 0.700944 4.09951 0
M  V30 4443 H 410.205 -1.05436 3.57684 0
M  V30 4444 N 412.39 -1.55475 0.257931 0
M  V30 4445 C 413.32 -2.24815 -0.630912 0
M  V30 4446 C 414.301 -1.23224 -1.17259 0
M  V30 4447 O 415.486 -1.51904 -1.20991 0
M  V30 4448 C 412.616 -2.95609 -1.82298 0
M  V30 4449 C 411.57 -4.03982 -1.41359 0
M  V30 4450 C 410.896 -4.6226 -2.68738 0
M  V30 4451 C 412.196 -5.19109 -0.57648 0
M  V30 4452 H 413.89 -2.99354 -0.0526878 0
M  V30 4453 H 411.436 -1.4398 -0.023901 0
M  V30 4454 H 413.389 -3.42822 -2.45054 0
M  V30 4455 H 412.113 -2.18577 -2.42676 0
M  V30 4456 H 410.772 -3.57555 -0.809324 0
M  V30 4457 H 410.42 -3.81915 -3.27338 0
M  V30 4458 H 410.12 -5.35424 -2.42065 0
M  V30 4459 H 411.644 -5.12212 -3.32372 0
M  V30 4460 H 413.058 -5.62479 -1.10861 0
M  V30 4461 H 411.455 -5.98729 -0.405351 0
M  V30 4462 H 412.525 -4.83174 0.408776 0
M  V30 4463 N 413.868 0.0150385 -1.57593 0
M  V30 4464 C 415.098 0.713359 -1.93894 0
M  V30 4465 C 415.506 1.68663 -0.857289 0
M  V30 4466 O 414.849 1.82876 0.173788 0
M  V30 4467 C 414.911 1.51348 -3.26089 0
M  V30 4468 C 414.575 0.703451 -4.51554 0
M  V30 4469 C 415.572 -0.00237924 -5.199 0
M  V30 4470 C 413.257 0.653854 -4.98026 0
M  V30 4471 C 415.251 -0.746955 -6.33008 0
M  V30 4472 C 412.938 -0.0944578 -6.11027 0
M  V30 4473 C 413.936 -0.793609 -6.78374 0
M  V30 4474 O 413.624 -1.52974 -7.89211 0
M  V30 4475 H 413.356 0.204637 -0.644282 0
M  V30 4476 H 415.91 -0.0276411 -2.05381 0
M  V30 4477 H 414.14 2.29862 -3.10967 0
M  V30 4478 H 415.829 2.09572 -3.47612 0
M  V30 4479 H 416.595 0.0268803 -4.84993 0
M  V30 4480 H 412.474 1.18756 -4.45441 0
M  V30 4481 H 416.018 -1.2932 -6.85509 0
M  V30 4482 H 411.915 -0.125591 -6.45378 0
M  V30 4483 H 412.683 -1.44488 -8.05646 0
M  V30 4484 N 415.346 1.54954 0.287554 0
M  V30 4485 C 416.256 1.8991 1.37736 0
M  V30 4486 C 417.272 0.794701 1.54792 0
M  V30 4487 O 418.448 1.09243 1.69198 0
M  V30 4488 C 415.513 2.15108 2.71899 0
M  V30 4489 C 414.574 3.38752 2.63715 0
M  V30 4490 C 413.807 3.62739 3.91479 0
M  V30 4491 O 414.03 2.89492 4.91478 0
M  V30 4492 O 412.964 4.56267 3.92561 0
M  V30 4493 H 416.79 2.82652 1.11092 0
M  V30 4494 H 414.375 1.41315 0.484807 0
M  V30 4495 H 416.257 2.32806 3.51254 0
M  V30 4496 H 414.932 1.25551 2.9836 0
M  V30 4497 H 413.839 3.26405 1.82786 0
M  V30 4498 H 415.172 4.28483 2.42205 0
M  V30 4499 N 416.824 -0.551391 1.4764 0
M  V30 4500 C 418.049 -1.33837 1.58437 0
M  V30 4501 C 418.474 -1.866 0.237063 0
M  V30 4502 O 417.832 -1.6328 -0.787994 0
M  V30 4503 C 417.88 -2.48014 2.61766 0
M  V30 4504 O 416.984 -3.50419 2.1744 0
M  V30 4505 H 416.325 -0.397299 0.532024 0
M  V30 4506 H 418.855 -0.665759 1.93465 0
M  V30 4507 H 418.865 -2.94503 2.82369 0
M  V30 4508 H 417.54 -2.08969 3.5959 0
M  V30 4509 H 416.117 -3.10196 2.06961 0
M  V30 4510 N 418.302 -1.35869 -0.798587 0
M  V30 4511 C 419.232 -1.32118 -1.92528 0
M  V30 4512 C 420.213 -0.194209 -1.68988 0
M  V30 4513 O 421.398 -0.390426 -1.90235 0
M  V30 4514 C 418.528 -1.10047 -3.29404 0
M  V30 4515 C 417.482 -2.19471 -3.67446 0
M  V30 4516 C 416.808 -1.82555 -5.02571 0
M  V30 4517 C 418.108 -3.61495 -3.76987 0
M  V30 4518 H 419.802 -2.26394 -1.95924 0
M  V30 4519 H 417.348 -1.08981 -0.94123 0
M  V30 4520 H 419.301 -1.06061 -4.07835 0
M  V30 4521 H 418.025 -0.122195 -3.26371 0
M  V30 4522 H 416.684 -2.22568 -2.91306 0
M  V30 4523 H 416.332 -0.833249 -4.9605 0
M  V30 4524 H 416.032 -2.5581 -5.28995 0
M  V30 4525 H 417.556 -1.80108 -5.83432 0
M  V30 4526 H 418.97 -3.60676 -4.4563 0
M  V30 4527 H 417.367 -4.33577 -4.14887 0
M  V30 4528 H 418.437 -3.97065 -2.78329 0
M  V30 4529 N 419.78 1.02168 -1.19998 0
M  V30 4530 C 421.008 1.79296 -1.03249 0
M  V30 4531 C 421.423 1.84103 0.418502 0
M  V30 4532 O 420.78 1.29031 1.29063 0
M  V30 4533 C 420.831 3.24007 -1.60319 0
M  V30 4534 O 420.552 3.19512 -2.99739 0
M  V30 4535 C 422.053 4.17704 -1.48453 0
M  V30 4536 H 419.273 0.564016 -0.363493 0
M  V30 4537 H 421.817 1.28639 -1.58973 0
M  V30 4538 H 419.972 3.7183 -1.08727 0
M  V30 4539 H 420.386 4.10306 -3.26725 0
M  V30 4540 H 421.86 5.17104 -1.93153 0
M  V30 4541 H 422.337 4.37029 -0.436193 0
M  V30 4542 H 422.943 3.7576 -1.99211 0
M  V30 4543 N 421.258 1.00505 1.21394 0
M  V30 4544 C 422.506 0.686415 1.90086 0
M  V30 4545 C 422.827 -0.785264 1.7849 0
M  V30 4546 O 422.097 -1.56387 1.17983 0
M  V30 4547 H 420.677 0.2509 0.703604 0
M  V30 4548 H 423.339 1.27417 1.47482 0
M  V30 4549 H 422.435 0.959621 2.96981 0
M  V30 4550 N 422.737 -1.36956 0.779787 0
M  V30 4551 C 423.984 -1.99491 0.347766 0
M  V30 4552 C 424.312 -1.61898 -1.07793 0
M  V30 4553 O 423.567 -0.86071 -1.75756 0
M  V30 4554 C 423.866 -3.54585 0.447686 0
M  V30 4555 C 423.532 -4.1197 1.83279 0
M  V30 4556 C 422.194 -4.27356 2.2118 0
M  V30 4557 C 424.546 -4.43354 2.74019 0
M  V30 4558 C 421.874 -4.71432 3.4924 0
M  V30 4559 C 424.226 -4.88858 4.01497 0
M  V30 4560 C 422.89 -5.0245 4.39432 0
M  V30 4561 H 422.16 -0.729991 0.127257 0
M  V30 4562 H 424.807 -1.63599 0.995376 0
M  V30 4563 H 423.112 -3.90773 -0.283447 0
M  V30 4564 H 424.809 -4.00888 0.0945948 0
M  V30 4565 H 421.399 -4.00428 1.52825 0
M  V30 4566 H 425.583 -4.31045 2.45995 0
M  V30 4567 H 420.839 -4.80141 3.78516 0
M  V30 4568 H 425.013 -5.12108 4.71931 0
M  V30 4569 H 422.64 -5.36362 5.38721 0
M  V30 4570 N 424.215 -0.530993 -1.48385 0
M  V30 4571 C 425.461 0.00274135 -2.028 0
M  V30 4572 C 425.794 1.33838 -1.40716 0
M  V30 4573 O 425.069 1.86465 -0.553277 0
M  V30 4574 C 425.352 0.123676 -3.59888 0
M  V30 4575 C 425.205 -1.2372 -4.3245 0
M  V30 4576 C 426.524 0.849967 -4.31814 0
M  V30 4577 H 423.643 -0.000477758 -0.737 0
M  V30 4578 H 426.285 -0.688217 -1.77098 0
M  V30 4579 H 424.435 0.712157 -3.81917 0
M  V30 4580 H 426.107 -1.86687 -4.21836 0
M  V30 4581 H 424.35 -1.81882 -3.93829 0
M  V30 4582 H 425.021 -1.10557 -5.40815 0
M  V30 4583 H 427.497 0.350572 -4.14621 0
M  V30 4584 H 426.373 0.903486 -5.41413 0
M  V30 4585 H 426.634 1.90047 -3.99167 0
M  V30 4586 N 425.693 1.55336 -0.266172 0
M  V30 4587 C 426.656 2.20878 0.612001 0
M  V30 4588 C 427.656 1.18388 1.08816 0
M  V30 4589 O 428.846 1.4335 0.989774 0
M  V30 4590 C 425.978 2.86765 1.84332 0
M  V30 4591 H 427.171 2.99873 0.0398718 0
M  V30 4592 H 424.724 1.56291 -0.0167309 0
M  V30 4593 H 425.459 2.11759 2.45619 0
M  V30 4594 H 425.244 3.61862 1.5099 0
M  V30 4595 H 426.734 3.36867 2.46801 0
M  V30 4596 N 427.171 -0.0066808 1.57599 0
M  V30 4597 C 428.081 -1.01671 2.11424 0
M  V30 4598 C 429.097 -1.38143 1.05795 0
M  V30 4599 O 430.273 -1.47011 1.37658 0
M  V30 4600 C 427.338 -2.29192 2.60139 0
M  V30 4601 C 426.399 -1.99094 3.80342 0
M  V30 4602 C 425.632 -3.20535 4.26724 0
M  V30 4603 O 425.855 -4.3199 3.72479 0
M  V30 4604 O 424.789 -3.04924 5.18946 0
M  V30 4605 H 428.615 -0.589181 2.9793 0
M  V30 4606 H 426.2 -0.225091 1.47695 0
M  V30 4607 H 428.082 -3.0412 2.917 0
M  V30 4608 H 426.757 -2.71195 1.76733 0
M  V30 4609 H 425.664 -1.21663 3.53764 0
M  V30 4610 H 426.997 -1.61931 4.648 0
M  V30 4611 N 428.649 -1.55105 -0.279332 0
M  V30 4612 C 429.895 -1.75672 -1.01327 0
M  V30 4613 C 430.228 -0.552739 -1.86168 0
M  V30 4614 O 429.503 0.449827 -1.89227 0
M  V30 4615 C 429.786 -3.05825 -1.90114 0
M  V30 4616 C 429.639 -4.36565 -1.08309 0
M  V30 4617 C 430.958 -3.31975 -2.8893 0
M  V30 4618 H 428.077 -0.639149 -0.366957 0
M  V30 4619 H 430.719 -1.87833 -0.286154 0
M  V30 4620 H 428.869 -2.95588 -2.52111 0
M  V30 4621 H 430.541 -4.58751 -0.484314 0
M  V30 4622 H 428.784 -4.32076 -0.386362 0
M  V30 4623 H 429.455 -5.23946 -1.73737 0
M  V30 4624 H 431.931 -3.41963 -2.37067 0
M  V30 4625 H 430.807 -4.2432 -3.48201 0
M  V30 4626 H 431.068 -2.51309 -3.63725 0
M  V30 4627 N 430.127 0.543554 -1.4793 0
M  V30 4628 C 431.355 1.32516 -1.58894 0
M  V30 4629 C 431.77 1.87215 -0.244131 0
M  V30 4630 O 431.127 1.65709 0.764652 0
M  V30 4631 C 431.178 2.48554 -2.62494 0
M  V30 4632 O 430.899 1.96112 -3.91755 0
M  V30 4633 C 432.4 3.40572 -2.8377 0
M  V30 4634 H 429.62 0.403472 -0.536145 0
M  V30 4635 H 432.164 0.657106 -1.93655 0
M  V30 4636 H 430.319 3.1127 -2.30629 0
M  V30 4637 H 430.733 2.71967 -4.4848 0
M  V30 4638 H 432.207 4.18375 -3.60093 0
M  V30 4639 H 432.684 3.94965 -1.92092 0
M  V30 4640 H 433.29 2.8366 -3.16887 0
M  V30 4641 N 431.605 1.3629 0.791371 0
M  V30 4642 C 432.555 1.26988 1.89362 0
M  V30 4643 C 433.539 0.161795 1.60084 0
M  V30 4644 O 434.731 0.394426 1.72549 0
M  V30 4645 C 431.86 1.05944 3.26544 0
M  V30 4646 C 430.946 2.21211 3.61838 0
M  V30 4647 N 431.337 3.46518 3.68455 0
M  V30 4648 C 429.635 2.12933 3.91887 0
M  V30 4649 C 430.336 4.2241 3.99931 0
M  V30 4650 N 429.312 3.51329 4.14812 0
M  V30 4651 H 433.114 2.21908 1.92702 0
M  V30 4652 H 430.628 1.28982 0.986787 0
M  V30 4653 H 432.625 0.973666 4.05371 0
M  V30 4654 H 431.285 0.119223 3.24481 0
M  V30 4655 H 432.296 3.80677 3.51148 0
M  V30 4656 H 428.973 1.26855 3.97761 0
M  V30 4657 H 430.363 5.30767 4.1199 0
M  V30 4658 N 433.083 -1.0153 1.20538 0
M  V30 4659 C 434.013 -2.11972 0.979295 0
M  V30 4660 C 434.994 -1.6985 -0.0921787 0
M  V30 4661 O 436.179 -1.94089 0.0655932 0
M  V30 4662 C 433.309 -3.43201 0.531984 0
M  V30 4663 C 432.263 -3.9907 1.54685 0
M  V30 4664 C 431.589 -5.26082 0.956127 0
M  V30 4665 C 432.889 -4.32313 2.93092 0
M  V30 4666 H 434.583 -2.31143 1.90298 0
M  V30 4667 H 432.129 -1.11079 0.916372 0
M  V30 4668 H 434.082 -4.1985 0.361044 0
M  V30 4669 H 432.806 -3.23792 -0.427327 0
M  V30 4670 H 431.465 -3.2453 1.70517 0
M  V30 4671 H 431.113 -5.02999 -0.0111538 0
M  V30 4672 H 430.813 -5.64426 1.63393 0
M  V30 4673 H 432.337 -6.05386 0.796284 0
M  V30 4674 H 433.751 -4.99845 2.80763 0
M  V30 4675 H 432.148 -4.81774 3.57791 0
M  V30 4676 H 433.218 -3.41025 3.44717 0
M  V30 4677 N 434.561 -1.01147 -1.20859 0
M  V30 4678 C 435.838 -0.613136 -1.85742 0
M  V30 4679 C 436.218 0.909004 -1.90526 0
M  V30 4680 O 435.566 1.79862 -1.40932 0
M  V30 4681 C 435.776 -1.255 -3.25654 0
M  V30 4682 C 437.124 -1.3672 -4.01986 0
M  V30 4683 O 438.148 -1.21082 -3.34989 0
M  V30 4684 O 437.007 -1.6194 -5.21956 0
M  V30 4685 H 434.101 -0.210878 -0.799662 0
M  V30 4686 H 436.647 -1.10853 -1.2849 0
M  V30 4687 H 435.419 -2.29532 -3.16908 0
M  V30 4688 H 435.042 -0.746369 -3.90532 0
M  V30 4689 N 436.039 1.36541 -0.78704 0
M  V30 4690 C 436.949 2.3387 -0.184896 0
M  V30 4691 C 437.965 1.60927 0.661697 0
M  V30 4692 O 439.141 1.92927 0.57804 0
M  V30 4693 C 436.206 3.40122 0.672145 0
M  V30 4694 C 435.267 4.28867 -0.19267 0
M  V30 4695 C 434.5 5.30045 0.623561 0
M  V30 4696 O 434.723 5.39232 1.8597 0
M  V30 4697 O 433.657 6.01895 0.0247068 0
M  V30 4698 H 437.483 2.87126 -0.989562 0
M  V30 4699 H 435.068 1.38969 -0.548455 0
M  V30 4700 H 436.95 4.05093 1.16094 0
M  V30 4701 H 435.625 2.89169 1.45474 0
M  V30 4702 H 434.532 3.66945 -0.728166 0
M  V30 4703 H 435.865 4.83165 -0.938722 0
M  V30 4704 N 437.518 0.538854 1.48102 0
M  V30 4705 C 438.934 0.19732 1.58376 0
M  V30 4706 C 439.134 -1.29971 1.5398 0
M  V30 4707 O 438.19 -2.07861 1.43352 0
M  V30 4708 C 439.503 0.807716 2.89649 0
M  V30 4709 C 441.051 0.77726 3.03196 0
M  V30 4710 C 441.526 1.36639 4.37143 0
M  V30 4711 N 443.017 1.32875 4.43732 0
M  V30 4712 C 443.752 1.7544 5.45901 0
M  V30 4713 N 443.248 2.25776 6.54979 0
M  V30 4714 N 445.041 1.66623 5.36836 0
M  V30 4715 H 437.192 1.5117 1.49202 0
M  V30 4716 H 439.455 0.629327 0.708979 0
M  V30 4717 H 439.161 1.85909 2.98548 0
M  V30 4718 H 439.035 0.289975 3.76084 0
M  V30 4719 H 441.422 -0.265374 2.93904 0
M  V30 4720 H 441.503 1.33256 2.18349 0
M  V30 4721 H 441.147 2.408 4.47189 0
M  V30 4722 H 441.077 0.786689 5.20691 0
M  V30 4723 H 443.568 0.96037 3.65493 0
M  V30 4724 H 443.881 2.56226 7.29087 0
M  V30 4725 H 442.226 2.29775 6.55918 0
M  V30 4726 H 445.417 1.27089 4.50517 0
M  V30 4727 H 445.59 2.00115 6.16326 0
M  V30 4728 N 438.996 -1.55193 0.274407 0
M  V30 4729 C 439.943 -2.225 -0.613374 0
M  V30 4730 C 440.913 -1.19823 -1.15029 0
M  V30 4731 O 442.098 -1.48362 -1.19973 0
M  V30 4732 C 439.238 -2.94927 -1.79199 0
M  V30 4733 C 438.351 -4.12322 -1.28899 0
M  V30 4734 C 437.486 -4.72394 -2.42934 0
M  V30 4735 C 436.525 -5.81984 -1.89634 0
M  V30 4736 N 435.662 -6.36123 -2.9714 0
M  V30 4737 H 440.502 -2.97982 -0.032756 0
M  V30 4738 H 438.039 -1.47099 -0.00440146 0
M  V30 4739 H 439.997 -3.35134 -2.48478 0
M  V30 4740 H 438.627 -2.2187 -2.34465 0
M  V30 4741 H 437.679 -3.7724 -0.489327 0
M  V30 4742 H 438.991 -4.91355 -0.858587 0
M  V30 4743 H 438.145 -5.15317 -3.20208 0
M  V30 4744 H 436.884 -3.92636 -2.8929 0
M  V30 4745 H 435.889 -5.38511 -1.1084 0
M  V30 4746 H 437.114 -6.6361 -1.44215 0
M  V30 4747 H 435.06 -5.59259 -3.42878 0
M  V30 4748 H 434.977 -7.10427 -2.58515 0
M  V30 4749 H 436.245 -6.83704 -3.74391 0
M  V30 4750 N 440.474 -0.00167713 -1.576 0
M  V30 4751 C 441.723 0.682021 -1.89819 0
M  V30 4752 C 442.036 1.74844 -0.876871 0
M  V30 4753 O 443.242 2.48688 -1.08934 0
M  V30 4754 C 441.698 1.26425 -3.36964 0
M  V30 4755 C 441.306 0.232568 -4.47396 0
M  V30 4756 C 443.05 1.92604 -3.78291 0
M  V30 4757 C 440.957 0.824882 -5.85619 0
M  V30 4758 H 439.887 0.258499 -0.708304 0
M  V30 4759 H 442.538 -0.0624957 -1.83394 0
M  V30 4760 H 440.92 2.05949 -3.38232 0
M  V30 4761 H 442.094 -0.5382 -4.57646 0
M  V30 4762 H 440.409 -0.32888 -4.15099 0
M  V30 4763 H 443.006 2.37827 -4.78897 0
M  V30 4764 H 443.349 2.75732 -3.11894 0
M  V30 4765 H 443.882 1.19812 -3.79328 0
M  V30 4766 H 440.621 0.0323542 -6.55492 0
M  V30 4767 H 440.141 1.56477 -5.79029 0
M  V30 4768 H 441.82 1.32301 -6.33329 0
M  V30 4769 N 441.952 1.55251 0.271103 0
M  V30 4770 C 442.882 1.9127 1.33933 0
M  V30 4771 C 443.863 0.77478 1.5143 0
M  V30 4772 O 445.048 1.03307 1.64442 0
M  V30 4773 C 442.178 2.18627 2.69851 0
M  V30 4774 C 441.132 3.34442 2.67081 0
M  V30 4775 C 440.458 3.47284 4.06569 0
M  V30 4776 C 441.758 4.70784 2.26185 0
M  V30 4777 H 443.452 2.80744 1.04035 0
M  V30 4778 H 440.998 1.35077 0.499017 0
M  V30 4779 H 442.951 2.42413 3.44694 0
M  V30 4780 H 441.675 1.25955 3.01335 0
M  V30 4781 H 440.334 3.10627 1.94695 0
M  V30 4782 H 439.982 2.52074 4.35279 0
M  V30 4783 H 439.682 4.25152 4.0561 0
M  V30 4784 H 441.206 3.73363 4.83148 0
M  V30 4785 H 442.62 4.94102 2.90751 0
M  V30 4786 H 441.017 5.51582 2.36384 0
M  V30 4787 H 442.087 4.69478 1.21319 0
M  V30 4788 N 443.43 -0.535701 1.48216 0
M  V30 4789 C 444.676 -1.29375 1.56173 0
M  V30 4790 C 445.009 -1.92804 0.232429 0
M  V30 4791 O 444.284 -1.78992 -0.761048 0
M  V30 4792 C 444.567 -2.38747 2.69577 0
M  V30 4793 C 444.42 -1.80046 4.12193 0
M  V30 4794 C 445.739 -3.40551 2.78771 0
M  V30 4795 H 442.858 -0.469027 0.568491 0
M  V30 4796 H 445.5 -0.597358 1.80365 0
M  V30 4797 H 443.65 -2.98147 2.4908 0
M  V30 4798 H 445.322 -1.24742 4.44114 0
M  V30 4799 H 443.565 -1.10609 4.19462 0
M  V30 4800 H 444.236 -2.59212 4.87353 0
M  V30 4801 H 446.712 -2.91099 2.97322 0
M  V30 4802 H 445.588 -4.1448 3.59857 0
M  V30 4803 H 445.849 -4.00746 1.86696 0
M  V30 4804 N 444.908 -1.36708 -0.784132 0
M  V30 4805 C 445.856 -1.31533 -1.91838 0
M  V30 4806 C 446.85 -0.206205 -1.6814 0
M  V30 4807 O 448.056 -0.373519 -1.76082 0
M  V30 4808 H 444.431 -0.409613 -0.630651 0
M  V30 4809 H 446.402 -2.2731 -1.9332 0
M  V30 4810 C 445.151 -1.12679 -3.28936 0
M  V30 4811 H 444.474 -1.97274 -3.4774 0
M  V30 4812 H 445.914 -1.13106 -4.08636 0
M  V30 4813 C 444.373 0.168281 -3.36479 0
M  V30 4814 O 444.903 1.15625 -3.84699 0
M  V30 4815 N 443.109 0.214762 -2.89805 0
M  V30 4816 H 442.656 -0.589852 -2.50756 0
M  V30 4817 H 442.614 1.08094 -2.95234 0
M  V30 4818 N 446.386 1.0089 -1.21074 0
M  V30 4819 C 447.626 1.76142 -1.03699 0
M  V30 4820 C 447.99 1.87292 0.422587 0
M  V30 4821 O 449.191 2.59068 0.716752 0
M  V30 4822 C 447.462 3.13805 -1.7106 0
M  V30 4823 S 449.021 4.04996 -1.68889 0
M  V30 4824 H 445.839 0.606113 -0.371683 0
M  V30 4825 H 448.441 1.20744 -1.53756 0
M  V30 4826 H 447.145 3.0332 -2.76451 0
M  V30 4827 H 446.676 3.74276 -1.21166 0
M  V30 4828 H 448.691 4.90842 -0.727211 0
M  V30 4829 N 447.864 1.01787 1.20321 0
M  V30 4830 C 449.092 0.727194 1.937 0
M  V30 4831 C 449.507 -0.712305 1.74848 0
M  V30 4832 O 448.864 -1.48327 1.06327 0
M  V30 4833 C 448.915 1.05497 3.45764 0
M  V30 4834 O 448.636 2.43794 3.64 0
M  V30 4835 C 450.137 0.785534 4.36285 0
M  V30 4836 H 447.357 0.266939 0.615617 0
M  V30 4837 H 449.901 1.35939 1.52777 0
M  V30 4838 H 448.056 0.468158 3.84561 0
M  V30 4839 H 448.47 2.55656 4.57974 0
M  V30 4840 H 449.944 1.06495 5.4163 0
M  V30 4841 H 450.421 -0.280273 4.38305 0
M  V30 4842 H 451.027 1.35456 4.03152 0
M  V30 4843 N 449.342 -1.36122 0.79427 0
M  V30 4844 C 450.29 -2.31871 0.184023 0
M  V30 4845 C 451.284 -1.56041 -0.659365 0
M  V30 4846 O 452.49 -1.71266 -0.553906 0
M  V30 4847 H 448.865 -0.750896 0.0407373 0
M  V30 4848 H 450.836 -2.80898 1.00693 0
M  V30 4849 C 449.585 -3.41324 -0.662813 0
M  V30 4850 H 448.908 -3.99793 -0.0231944 0
M  V30 4851 H 450.348 -4.10629 -1.05639 0
M  V30 4852 C 448.807 -2.83308 -1.82313 0
M  V30 4853 O 449.337 -2.75863 -2.91997 0
M  V30 4854 N 447.543 -2.40529 -1.63077 0
M  V30 4855 H 447.09 -2.46785 -0.738591 0
M  V30 4856 H 447.048 -2.02059 -2.40872 0
M  V30 4857 N 450.82 -0.546701 -1.47814 0
M  V30 4858 C 452.045 -0.021268 -2.07389 0
M  V30 4859 C 452.47 1.25822 -1.39822 0
M  V30 4860 O 451.828 1.75111 -0.46968 0
M  V30 4861 C 451.876 0.168502 -3.60206 0
M  V30 4862 O 450.98 1.23347 -3.93522 0
M  V30 4863 H 450.321 -0.0466108 -0.662362 0
M  V30 4864 H 452.851 -0.759387 -1.89985 0
M  V30 4865 H 452.861 0.385982 -4.0617 0
M  V30 4866 H 451.536 -0.766075 -4.08784 0
M  V30 4867 H 450.113 0.997319 -3.59316 0
M  V30 4868 N 452.299 1.55045 -0.282633 0
M  V30 4869 C 453.547 1.99365 0.331334 0
M  V30 4870 C 453.868 1.1725 1.55812 0
M  V30 4871 O 453.138 0.263871 1.94115 0
M  V30 4872 H 451.718 0.736397 0.125414 0
M  V30 4873 H 454.38 1.90964 -0.389711 0
M  V30 4874 H 453.476 3.0596 0.616036 0
M  V30 4875 N 453.777 0.010035 1.57597 0
M  V30 4876 C 455.024 -0.6727 1.91 0
M  V30 4877 C 455.352 -1.73219 0.884614 0
M  V30 4878 O 454.607 -1.95395 -0.109215 0
M  V30 4879 C 454.906 -1.34434 3.31153 0
M  V30 4880 C 454.572 -0.417083 4.48967 0
M  V30 4881 C 453.234 -0.161809 4.80928 0
M  V30 4882 C 455.586 0.220753 5.20732 0
M  V30 4883 C 452.914 0.739426 5.82022 0
M  V30 4884 C 455.266 1.10993 6.22787 0
M  V30 4885 C 453.93 1.37428 6.532 0
M  V30 4886 H 453.2 -0.246158 0.698918 0
M  V30 4887 H 455.847 0.0677145 1.9138 0
M  V30 4888 H 454.152 -2.15905 3.26944 0
M  V30 4889 H 455.849 -1.87883 3.54261 0
M  V30 4890 H 452.439 -0.626217 4.24001 0
M  V30 4891 H 456.623 0.0365643 4.96287 0
M  V30 4892 H 451.879 0.952139 6.03941 0
M  V30 4893 H 456.053 1.61046 6.77523 0
M  V30 4894 H 453.68 2.0743 7.31353 0
M  V30 4895 N 455.255 -1.55392 -0.262866 0
M  V30 4896 C 456.504 -1.75679 -0.990943 0
M  V30 4897 C 456.817 -0.57097 -1.87081 0
M  V30 4898 O 458.023 -0.656486 -2.63444 0
M  V30 4899 C 456.479 -3.10964 -1.81188 0
M  V30 4900 C 456.087 -4.37146 -0.980188 0
M  V30 4901 C 457.831 -3.40597 -2.53365 0
M  V30 4902 C 455.738 -5.63466 -1.7961 0
M  V30 4903 H 454.668 -0.654868 -0.373716 0
M  V30 4904 H 457.319 -1.81841 -0.246203 0
M  V30 4905 H 455.701 -2.98867 -2.59797 0
M  V30 4906 H 456.875 -4.60187 -0.237558 0
M  V30 4907 H 455.19 -4.14731 -0.372497 0
M  V30 4908 H 457.787 -4.32186 -3.14833 0
M  V30 4909 H 458.13 -2.6119 -3.24169 0
M  V30 4910 H 458.663 -3.53838 -1.81779 0
M  V30 4911 H 455.402 -6.4565 -1.13209 0
M  V30 4912 H 454.922 -5.44552 -2.51443 0
M  V30 4913 H 456.601 -6.02139 -2.36723 0
M  V30 4914 N 456.733 0.527833 -1.48498 0
M  V30 4915 C 458.149 0.856571 -1.34666 0
M  V30 4916 C 458.349 1.98271 -0.35931 0
M  V30 4917 O 457.405 2.51551 0.218703 0
M  V30 4918 C 458.718 1.22207 -2.74747 0
M  V30 4919 C 460.266 1.33183 -2.83251 0
M  V30 4920 C 460.741 1.73075 -4.24039 0
M  V30 4921 N 462.232 1.80174 -4.26722 0
M  V30 4922 C 462.967 2.1243 -5.32598 0
M  V30 4923 N 462.463 2.43096 -6.4875 0
M  V30 4924 N 464.256 2.13454 -5.19994 0
M  V30 4925 H 456.407 -0.215174 -2.11307 0
M  V30 4926 H 458.67 -0.0336281 -0.947403 0
M  V30 4927 H 458.376 0.468195 -3.4857 0
M  V30 4928 H 458.25 2.17173 -3.08409 0
M  V30 4929 H 460.637 2.07647 -2.09683 0
M  V30 4930 H 460.718 0.363333 -2.53206 0
M  V30 4931 H 460.362 0.991712 -4.98124 0
M  V30 4932 H 460.292 2.70979 -4.51529 0
M  V30 4933 H 462.783 1.58744 -3.42942 0
M  V30 4934 H 463.096 2.6682 -7.25277 0
M  V30 4935 H 461.441 2.40611 -6.52021 0
M  V30 4936 H 464.632 1.88956 -4.28268 0
M  V30 4937 H 464.805 2.38261 -6.02608 0
M  V30 4938 N 458.211 1.37122 0.776871 0
M  V30 4939 C 459.161 1.28989 1.88005 0
M  V30 4940 C 460.145 0.178765 1.59904 0
M  V30 4941 O 461.337 0.412705 1.72121 0
M  V30 4942 C 458.466 1.09402 3.25402 0
M  V30 4943 C 457.552 2.25036 3.59471 0
M  V30 4944 N 457.943 3.50407 3.64759 0
M  V30 4945 C 456.241 2.17078 3.89607 0
M  V30 4946 C 456.942 4.26628 3.95428 0
M  V30 4947 N 455.918 3.55709 4.11062 0
M  V30 4948 H 459.72 2.2394 1.90337 0
M  V30 4949 H 457.234 1.30021 0.973052 0
M  V30 4950 H 459.231 1.01661 4.04315 0
M  V30 4951 H 457.891 0.153632 3.24336 0
M  V30 4952 H 458.902 3.8438 3.47091 0
M  V30 4953 H 455.579 1.31067 3.96393 0
M  V30 4954 H 456.969 5.35107 4.06338 0
M  V30 4955 N 459.689 -1.00246 1.21608 0
M  V30 4956 C 460.937 -1.73717 1.0328 0
M  V30 4957 C 461.258 -1.90102 -0.434318 0
M  V30 4958 O 460.528 -1.45376 -1.31311 0
M  V30 4959 H 459.108 -0.643613 0.379172 0
M  V30 4960 H 461.77 -1.20787 1.52959 0
M  V30 4961 H 460.866 -2.73535 1.50283 0
M  V30 4962 N 461.167 -1.02423 -1.1978 0
M  V30 4963 C 462.444 -0.632802 -1.85081 0
M  V30 4964 C 462.824 0.888745 -1.9148 0
M  V30 4965 O 462.172 1.78357 -1.42832 0
M  V30 4966 C 462.382 -1.28947 -3.24305 0
M  V30 4967 C 463.73 -1.40976 -4.00513 0
M  V30 4968 O 464.754 -1.24628 -3.33686 0
M  V30 4969 O 463.613 -1.67467 -5.20209 0
M  V30 4970 H 460.707 -0.219348 -0.79738 0
M  V30 4971 H 463.253 -1.12209 -1.27307 0
M  V30 4972 H 462.025 -2.3288 -3.14456 0
M  V30 4973 H 461.648 -0.787748 -3.89718 0
M  V30 4974 N 462.645 1.35699 -0.801477 0
M  V30 4975 C 463.894 1.98165 -0.375979 0
M  V30 4976 C 464.207 1.64306 1.06127 0
M  V30 4977 O 465.413 2.20097 1.58964 0
M  V30 4978 C 463.869 3.54497 -0.621305 0
M  V30 4979 C 463.477 3.9727 -2.07076 0
M  V30 4980 C 465.221 4.23697 -0.26091 0
M  V30 4981 C 463.128 5.46427 -2.26211 0
M  V30 4982 H 462.058 0.741478 -0.136844 0
M  V30 4983 H 464.709 1.54834 -0.984814 0
M  V30 4984 H 463.091 3.95958 0.0574112 0
M  V30 4985 H 464.265 3.66974 -2.78687 0
M  V30 4986 H 462.58 3.40943 -2.39054 0
M  V30 4987 H 465.177 5.33334 -0.381994 0
M  V30 4988 H 465.52 4.0869 0.792344 0
M  V30 4989 H 466.053 3.87639 -0.893339 0
M  V30 4990 H 462.792 5.66396 -3.29963 0
M  V30 4991 H 462.312 5.78309 -1.59119 0
M  V30 4992 H 463.991 6.12819 -2.07513 0
M  V30 4993 N 464.123 0.554532 1.47522 0
M  V30 4994 C 465.539 0.214107 1.58157 0
M  V30 4995 C 465.739 -1.28331 1.55349 0
M  V30 4996 O 464.795 -2.06329 1.45549 0
M  V30 4997 C 466.108 0.838391 2.88776 0
M  V30 4998 C 467.656 0.809374 3.02354 0
M  V30 4999 C 468.131 1.41268 4.35669 0
M  V30 5000 N 469.622 1.37574 4.42298 0
M  V30 5001 C 470.357 1.8122 5.4401 0
M  V30 5002 N 469.853 2.3271 6.52547 0
M  V30 5003 N 471.646 1.72307 5.35039 0
M  V30 5004 H 463.797 1.52744 1.4759 0
M  V30 5005 H 466.06 0.636812 0.702264 0
M  V30 5006 H 465.766 1.89065 2.96559 0
M  V30 5007 H 465.64 0.329847 3.75755 0
M  V30 5008 H 468.027 -0.234187 2.94169 0
M  V30 5009 H 468.108 1.35565 2.16924 0
M  V30 5010 H 467.752 2.45529 4.4461 0
M  V30 5011 H 467.682 0.841871 5.19827 0
M  V30 5012 H 470.173 0.999081 3.64454 0
M  V30 5013 H 470.486 2.63944 7.26329 0
M  V30 5014 H 468.831 2.36719 6.53444 0
M  V30 5015 H 472.022 1.3186 4.49144 0
M  V30 5016 H 472.195 2.06641 6.14169 0
M  V30 5017 N 465.601 -1.54893 0.290851 0
M  V30 5018 C 466.511 -2.26812 -0.59945 0
M  V30 5019 C 467.527 -1.29963 -1.15696 0
M  V30 5020 O 468.703 -1.62928 -1.18391 0
M  V30 5021 C 465.768 -2.98716 -1.75982 0
M  V30 5022 C 464.829 -4.1108 -1.2374 0
M  V30 5023 C 464.062 -4.79546 -2.34246 0
M  V30 5024 O 464.285 -4.47309 -3.53936 0
M  V30 5025 O 463.219 -5.67165 -2.01512 0
M  V30 5026 H 467.045 -3.03696 -0.0163561 0
M  V30 5027 H 464.63 -1.49289 0.0576755 0
M  V30 5028 H 466.512 -3.43851 -2.43607 0
M  V30 5029 H 465.187 -2.24737 -2.3297 0
M  V30 5030 H 464.094 -3.70367 -0.527163 0
M  V30 5031 H 465.427 -4.87007 -0.71307 0
M  V30 5032 N 467.08 -0.0183926 -1.57589 0
M  V30 5033 C 468.326 0.663543 -1.91638 0
M  V30 5034 C 468.659 1.72392 -0.894134 0
M  V30 5035 O 467.934 1.94316 0.0846449 0
M  V30 5036 C 468.217 1.28984 -3.36207 0
M  V30 5037 C 468.07 0.239761 -4.49161 0
M  V30 5038 C 469.389 2.2109 -3.80536 0
M  V30 5039 H 466.508 0.239746 -0.696915 0
M  V30 5040 H 469.15 -0.073456 -1.89858 0
M  V30 5041 H 467.3 1.91799 -3.37854 0
M  V30 5042 H 468.972 -0.390119 -4.59647 0
M  V30 5043 H 467.215 -0.435972 -4.31604 0
M  V30 5044 H 467.886 0.717383 -5.47319 0
M  V30 5045 H 470.362 1.68273 -3.80557 0
M  V30 5046 H 469.238 2.61869 -4.82406 0
M  V30 5047 H 469.499 3.09764 -3.15434 0
M  V30 5048 N 468.558 1.5553 0.254621 0
M  V30 5049 C 469.488 1.9268 1.31897 0
M  V30 5050 C 470.469 0.790797 1.506 0
M  V30 5051 O 471.654 1.05045 1.63337 0
M  V30 5052 C 468.784 2.21477 2.67517 0
M  V30 5053 C 467.738 3.37256 2.63519 0
M  V30 5054 C 467.064 3.51576 4.02862 0
M  V30 5055 C 468.364 4.73157 2.21179 0
M  V30 5056 H 470.058 2.81832 1.01051 0
M  V30 5057 H 467.604 1.35599 0.484662 0
M  V30 5058 H 469.557 2.46055 3.42104 0
M  V30 5059 H 468.281 1.29144 2.99982 0
M  V30 5060 H 466.94 3.12675 1.9139 0
M  V30 5061 H 466.588 2.56676 4.32581 0
M  V30 5062 H 466.288 4.2943 4.01078 0
M  V30 5063 H 467.812 3.78467 4.79161 0
M  V30 5064 H 469.226 4.97158 2.85494 0
M  V30 5065 H 467.623 5.54058 2.30521 0
M  V30 5066 H 468.693 4.70739 1.16332 0
M  V30 5067 N 470.036 -0.519951 1.48776 0
M  V30 5068 C 471.313 -1.28123 1.47797 0
M  V30 5069 C 471.693 -2.10196 0.195157 0
M  V30 5070 O 471.041 -2.13167 -0.822925 0
M  V30 5071 C 471.251 -2.15413 2.74587 0
M  V30 5072 C 472.599 -2.75225 3.23321 0
M  V30 5073 O 473.623 -2.25694 2.75574 0
M  V30 5074 O 472.482 -3.65346 4.06429 0
M  V30 5075 H 469.576 -0.578793 0.590701 0
M  V30 5076 H 472.122 -0.535779 1.6102 0
M  V30 5077 H 470.894 -1.54617 3.59457 0
M  V30 5078 H 470.517 -2.97186 2.64132 0
M  V30 5079 N 471.514 -1.37532 -0.769588 0
M  V30 5080 C 472.424 -1.35668 -1.91393 0
M  V30 5081 C 473.44 -0.255954 -1.72107 0
M  V30 5082 O 474.616 -0.491704 -1.95305 0
M  V30 5083 C 471.681 -1.16481 -3.26547 0
M  V30 5084 C 470.742 -2.36212 -3.58472 0
M  V30 5085 C 469.975 -2.17932 -4.87177 0
M  V30 5086 O 470.198 -1.1647 -5.58382 0
M  V30 5087 O 469.132 -3.06167 -5.18214 0
M  V30 5088 H 472.958 -2.32055 -1.95918 0
M  V30 5089 H 470.543 -1.18284 -0.912641 0
M  V30 5090 H 472.425 -1.07778 -4.07384 0
M  V30 5091 H 471.1 -0.231687 -3.2287 0
M  V30 5092 H 470.007 -2.50488 -2.77861 0
M  V30 5093 H 471.34 -3.281 -3.66894 0
M  V30 5094 N 472.992 0.995999 -1.22138 0
M  V30 5095 C 474.24 1.73167 -1.042 0
M  V30 5096 C 474.561 1.90329 0.42423 0
M  V30 5097 O 473.831 1.4607 1.30539 0
M  V30 5098 H 472.411 0.641593 -0.38258 0
M  V30 5099 H 475.073 1.19974 -1.53598 0
M  V30 5100 H 474.169 2.72734 -1.51731 0
M  V30 5101 N 474.47 1.03057 1.19235 0
M  V30 5102 C 475.403 0.557384 2.21288 0
M  V30 5103 C 476.381 -0.402675 1.57535 0
M  V30 5104 O 477.565 -0.319376 1.85775 0
M  V30 5105 C 474.692 -0.187041 3.38183 0
M  V30 5106 C 473.738 0.72471 4.20298 0
M  V30 5107 S 474.571 2.20187 4.88137 0
M  V30 5108 C 475.727 1.46801 6.08441 0
M  V30 5109 H 475.96 1.42207 2.61083 0
M  V30 5110 H 473.493 0.840651 1.29508 0
M  V30 5111 H 475.451 -0.610405 4.05936 0
M  V30 5112 H 474.112 -1.02748 2.96819 0
M  V30 5113 H 473.305 0.149911 5.03777 0
M  V30 5114 H 472.907 1.08647 3.57871 0
M  V30 5115 H 475.199 0.755522 6.73274 0
M  V30 5116 H 476.142 2.27946 6.70407 0
M  V30 5117 H 476.55 0.964762 5.56195 0
M  V30 5118 N 475.948 -1.35272 0.808662 0
M  V30 5119 C 477.359 -1.81179 0.450688 0
M  V30 5120 C 477.71 -1.67143 -1.02751 0
M  V30 5121 O 476.835 -1.20325 -1.79864 0
M  V30 5122 C 477.43 -3.28943 0.811275 0
M  V30 5123 C 475.989 -3.72985 0.505871 0
M  V30 5124 C 475.136 -2.57229 1.03578 0
M  V30 5125 H 478.087 -1.2322 1.00012 0
M  V30 5126 H 478.108 -3.80342 0.109588 0
M  V30 5127 H 477.62 -3.39127 1.88718 0
M  V30 5128 H 475.721 -3.68349 -0.561209 0
M  V30 5129 H 475.834 -4.67677 1.03995 0
M  V30 5130 H 474.198 -2.50548 0.458005 0
M  V30 5131 H 474.981 -2.7019 2.11784 0
M  V30 5132 N 477.426 -0.562348 -1.47226 0
M  V30 5133 C 478.654 -0.0452275 -2.06851 0
M  V30 5134 C 479.069 1.25078 -1.41424 0
M  V30 5135 O 478.426 1.75156 -0.512513 0
M  V30 5136 C 478.477 0.148674 -3.61194 0
M  V30 5137 O 478.198 -1.09602 -4.24169 0
M  V30 5138 C 479.699 0.702488 -4.37699 0
M  V30 5139 H 476.919 -0.0481775 -0.669268 0
M  V30 5140 H 479.463 -0.777223 -1.89155 0
M  V30 5141 H 477.618 0.830817 -3.78386 0
M  V30 5142 H 478.032 -0.896982 -5.16773 0
M  V30 5143 H 479.506 0.78743 -5.46355 0
M  V30 5144 H 479.983 1.71493 -4.04335 0
M  V30 5145 H 480.589 0.0558772 -4.25263 0
M  V30 5146 N 478.904 1.54736 -0.299062 0
M  V30 5147 C 480.134 2.04215 0.312992 0
M  V30 5148 C 480.542 1.17596 1.48215 0
M  V30 5149 O 479.885 0.193835 1.82674 0
M  V30 5150 C 479.947 3.49696 0.833862 0
M  V30 5151 C 479.611 4.56518 -0.20977 0
M  V30 5152 C 480.608 5.09442 -1.03756 0
M  V30 5153 C 478.293 5.01073 -0.35091 0
M  V30 5154 C 480.287 6.05459 -1.99244 0
M  V30 5155 C 477.974 5.9691 -1.30924 0
M  V30 5156 C 478.972 6.48987 -2.1285 0
M  V30 5157 O 478.66 7.42947 -3.07059 0
M  V30 5158 H 478.392 0.672128 0.0722494 0
M  V30 5159 H 480.946 2.00718 -0.436043 0
M  V30 5160 H 479.176 3.5051 1.63339 0
M  V30 5161 H 480.865 3.82381 1.36159 0
M  V30 5162 H 481.631 4.75816 -0.939376 0
M  V30 5163 H 477.51 4.60168 0.276813 0
M  V30 5164 H 481.054 6.46031 -2.63229 0
M  V30 5165 H 476.951 6.29953 -1.40815 0
M  V30 5166 H 477.719 7.60743 -3.02015 0
M  V30 5167 N 480.382 0.0267497 1.57577 0
M  V30 5168 C 481.329 -0.955894 2.10075 0
M  V30 5169 C 482.299 -1.32453 1.00226 0
M  V30 5170 O 483.484 -1.41826 1.27632 0
M  V30 5171 C 480.624 -2.2338 2.6305 0
M  V30 5172 C 479.737 -1.92183 3.86898 0
M  V30 5173 C 478.872 -3.14251 4.28275 0
M  V30 5174 C 477.911 -2.78862 5.44888 0
M  V30 5175 N 477.048 -3.93548 5.81433 0
M  V30 5176 H 481.888 -0.501303 2.93753 0
M  V30 5177 H 479.425 -0.235847 1.45197 0
M  V30 5178 H 481.383 -2.98124 2.91853 0
M  V30 5179 H 480.013 -2.6646 1.82205 0
M  V30 5180 H 479.065 -1.07692 3.64838 0
M  V30 5181 H 480.377 -1.62117 4.7172 0
M  V30 5182 H 479.531 -3.97317 4.58502 0
M  V30 5183 H 478.27 -3.47476 3.42215 0
M  V30 5184 H 477.275 -1.94208 5.14357 0
M  V30 5185 H 478.5 -2.46855 6.32645 0
M  V30 5186 H 476.446 -4.2662 4.98328 0
M  V30 5187 H 476.363 -3.67098 6.6089 0
M  V30 5188 H 477.631 -4.77325 6.16264 0
M  V30 5189 N 481.861 -1.55662 -0.24637 0
M  V30 5190 C 483.138 -1.68272 -0.997198 0
M  V30 5191 C 483.518 -0.566785 -2.03349 0
M  V30 5192 O 482.866 0.429688 -2.24424 0
M  V30 5193 C 483.076 -3.08594 -1.63006 0
M  V30 5194 C 484.424 -3.6721 -2.13171 0
M  V30 5195 O 485.448 -3.11397 -1.72946 0
M  V30 5196 O 484.307 -4.65054 -2.87031 0
M  V30 5197 H 481.401 -0.684429 -0.464205 0
M  V30 5198 H 483.947 -1.67993 -0.240114 0
M  V30 5199 H 482.719 -3.81264 -0.880527 0
M  V30 5200 H 482.342 -3.12886 -2.45333 0
M  V30 5201 N 483.339 0.512053 -1.4905 0
M  V30 5202 C 484.75 1.09376 -1.51307 0
M  V30 5203 C 485.101 1.94 -0.292971 0
M  V30 5204 O 484.226 2.07965 0.598277 0
M  V30 5205 C 484.821 1.99031 -2.74176 0
M  V30 5206 C 483.38 2.52385 -2.79247 0
M  V30 5207 C 482.527 1.29749 -2.45073 0
M  V30 5208 H 485.478 0.296467 -1.55906 0
M  V30 5209 H 485.499 2.83569 -2.53711 0
M  V30 5210 H 485.011 1.37412 -3.62959 0
M  V30 5211 H 483.112 3.17673 -1.94716 0
M  V30 5212 H 483.225 2.90293 -3.81139 0
M  V30 5213 H 481.589 1.61912 -1.96612 0
M  V30 5214 H 482.372 0.698555 -3.36118 0
M  V30 5215 N 484.817 1.37938 0.762283 0
M  V30 5216 C 486.064 1.33668 1.52115 0
M  V30 5217 C 486.392 -0.0759538 1.94352 0
M  V30 5218 O 485.647 -1.05121 1.6507 0
M  V30 5219 C 485.946 2.23042 2.79261 0
M  V30 5220 C 485.612 3.71159 2.56031 0
M  V30 5221 C 484.274 4.11523 2.49404 0
M  V30 5222 C 486.626 4.64955 2.35513 0
M  V30 5223 C 483.954 5.43784 2.20263 0
M  V30 5224 C 486.306 5.97464 2.07894 0
M  V30 5225 C 484.97 6.36922 1.99718 0
M  V30 5226 H 484.24 0.489127 0.556629 0
M  V30 5227 H 486.887 1.70224 0.877262 0
M  V30 5228 H 485.192 1.79512 3.48256 0
M  V30 5229 H 486.889 2.17047 3.37182 0
M  V30 5230 H 483.479 3.39153 2.62056 0
M  V30 5231 H 487.663 4.34623 2.39617 0
M  V30 5232 H 482.919 5.73307 2.12435 0
M  V30 5233 H 487.093 6.6969 1.91019 0
M  V30 5234 H 484.72 7.39331 1.76902 0
M  V30 5235 N 486.295 -0.989507 1.22664 0
M  V30 5236 C 487.242 -2.08024 0.999733 0
M  V30 5237 C 488.212 -1.65909 -0.0797047 0
M  V30 5238 O 489.397 -1.90669 0.0705715 0
M  V30 5239 C 486.537 -3.40067 0.587234 0
M  V30 5240 C 485.65 -3.95505 1.73781 0
M  V30 5241 C 484.785 -5.15722 1.27297 0
M  V30 5242 C 483.824 -5.63305 2.39488 0
M  V30 5243 N 482.961 -6.74758 1.94026 0
M  V30 5244 H 487.801 -2.26768 1.9334 0
M  V30 5245 H 485.338 -1.11171 0.963297 0
M  V30 5246 H 487.296 -4.15899 0.329227 0
M  V30 5247 H 485.926 -3.21314 -0.309426 0
M  V30 5248 H 484.978 -3.16513 2.11006 0
M  V30 5249 H 486.29 -4.26797 2.58158 0
M  V30 5250 H 485.444 -5.98854 0.972546 0
M  V30 5251 H 484.183 -4.86061 0.399445 0
M  V30 5252 H 483.188 -4.78759 2.70315 0
M  V30 5253 H 484.413 -5.94988 3.27362 0
M  V30 5254 H 482.359 -6.46874 1.09041 0
M  V30 5255 H 482.276 -7.05386 2.71968 0
M  V30 5256 H 483.544 -7.61387 1.67062 0
M  V30 5257 N 487.773 -1.03688 -1.18687 0
M  V30 5258 C 488.72 -0.624624 -2.22187 0
M  V30 5259 C 489.69 0.365636 -1.62026 0
M  V30 5260 O 490.875 0.260481 -1.89014 0
M  V30 5261 C 488.015 0.0101738 -3.45099 0
M  V30 5262 C 487.128 -1.02709 -4.19613 0
M  V30 5263 C 486.263 -0.361213 -5.2997 0
M  V30 5264 C 485.302 -1.38384 -5.96252 0
M  V30 5265 N 484.439 -0.743196 -6.98155 0
M  V30 5266 H 489.279 -1.51176 -2.56807 0
M  V30 5267 H 486.816 -0.75636 -1.26165 0
M  V30 5268 H 488.774 0.395528 -4.15321 0
M  V30 5269 H 487.404 0.860848 -3.1111 0
M  V30 5270 H 486.456 -1.53043 -3.48256 0
M  V30 5271 H 487.768 -1.80398 -4.65036 0
M  V30 5272 H 486.922 0.0785537 -6.06649 0
M  V30 5273 H 485.661 0.447799 -4.8564 0
M  V30 5274 H 484.666 -1.83378 -5.18317 0
M  V30 5275 H 485.891 -2.19448 -6.42666 0
M  V30 5276 H 483.837 0.0455789 -6.55984 0
M  V30 5277 H 483.754 -1.45784 -7.41811 0
M  V30 5278 H 485.022 -0.327698 -7.78811 0
M  V30 5279 N 489.251 1.34841 -0.815825 0
M  V30 5280 C 490.499 1.98107 -0.399744 0
M  V30 5281 C 490.82 1.65019 1.03894 0
M  V30 5282 O 490.09 0.937311 1.72021 0
M  V30 5283 H 488.67 0.732827 -0.144823 0
M  V30 5284 H 491.332 1.64599 -1.0437 0
M  V30 5285 H 490.428 3.07856 -0.512965 0
M  V30 5286 N 490.729 0.570148 1.46925 0
M  V30 5287 C 491.677 -0.183181 2.31878 0
M  V30 5288 C 492.671 -0.896721 1.43719 0
M  V30 5289 O 493.877 -0.816536 1.60414 0
M  V30 5290 H 490.252 -0.077944 0.74795 0
M  V30 5291 H 492.223 0.552312 2.93244 0
M  V30 5292 C 490.972 -1.19172 3.2664 0
M  V30 5293 H 490.295 -0.652088 3.94446 0
M  V30 5294 H 491.735 -1.68946 3.88887 0
M  V30 5295 C 490.194 -2.24627 2.51086 0
M  V30 5296 O 490.724 -3.31773 2.26472 0
M  V30 5297 N 488.93 -1.98898 2.11867 0
M  V30 5298 H 488.477 -1.11777 2.32086 0
M  V30 5299 H 488.435 -2.6967 1.61634 0
M  V30 5300 N 492.207 -1.54576 0.307264 0
M  V30 5301 C 493.137 -2.26708 -0.55907 0
M  V30 5302 C 494.118 -1.26893 -1.1328 0
M  V30 5303 O 495.303 -1.55677 -1.16097 0
M  V30 5304 C 492.433 -3.01259 -1.72801 0
M  V30 5305 C 491.387 -4.08275 -1.28435 0
M  V30 5306 C 490.713 -4.70575 -2.53895 0
M  V30 5307 C 492.013 -5.2068 -0.411038 0
M  V30 5308 H 493.707 -2.9937 0.042576 0
M  V30 5309 H 491.253 -1.43983 0.0219173 0
M  V30 5310 H 493.206 -3.50444 -2.34023 0
M  V30 5311 H 491.93 -2.26187 -2.356 0
M  V30 5312 H 490.589 -3.59949 -0.695161 0
M  V30 5313 H 490.237 -3.92136 -3.15021 0
M  V30 5314 H 489.937 -5.42854 -2.24908 0
M  V30 5315 H 491.461 -5.22527 -3.15908 0
M  V30 5316 H 492.875 -5.65721 -0.929097 0
M  V30 5317 H 491.272 -5.99716 -0.214664 0
M  V30 5318 H 492.342 -4.81629 0.562287 0
M  V30 5319 N 493.685 -0.035106 -1.57561 0
M  V30 5320 C 494.915 0.651312 -1.96065 0
M  V30 5321 C 495.323 1.6585 -0.910514 0
M  V30 5322 O 494.666 1.83336 0.11552 0
M  V30 5323 C 494.728 1.40897 -3.30739 0
M  V30 5324 C 494.392 0.559436 -4.53563 0
M  V30 5325 C 495.389 -0.16778 -5.19629 0
M  V30 5326 C 493.074 0.495079 -4.99854 0
M  V30 5327 C 495.068 -0.947963 -6.30311 0
M  V30 5328 C 492.755 -0.288804 -6.10417 0
M  V30 5329 C 493.753 -1.00903 -6.75505 0
M  V30 5330 O 493.441 -1.78005 -7.83945 0
M  V30 5331 H 493.173 0.184036 -0.650467 0
M  V30 5332 H 495.727 -0.0929677 -2.05189 0
M  V30 5333 H 493.957 2.19852 -3.18123 0
M  V30 5334 H 495.646 1.98407 -3.54104 0
M  V30 5335 H 496.412 -0.12743 -4.84833 0
M  V30 5336 H 492.291 1.04524 -4.48994 0
M  V30 5337 H 495.835 -1.51064 -6.81047 0
M  V30 5338 H 491.732 -0.33085 -6.44652 0
M  V30 5339 H 492.5 -1.70046 -8.00641 0
M  V30 5340 N 495.163 1.55791 0.238111 0
M  V30 5341 C 496.412 1.77234 0.962868 0
M  V30 5342 C 496.725 0.600661 1.86149 0
M  V30 5343 O 497.931 0.698315 2.62366 0
M  V30 5344 C 496.387 3.13808 1.76218 0
M  V30 5345 C 495.995 4.3865 0.910518 0
M  V30 5346 C 497.739 3.44585 2.47914 0
M  V30 5347 C 495.646 5.66252 1.70623 0
M  V30 5348 H 494.576 0.660731 0.36325 0
M  V30 5349 H 497.227 1.8221 0.217242 0
M  V30 5350 H 495.609 3.02963 2.55009 0
M  V30 5351 H 496.783 4.60507 0.164316 0
M  V30 5352 H 495.098 4.15271 0.30647 0
M  V30 5353 H 497.695 4.3714 3.07917 0
M  V30 5354 H 498.038 2.66314 3.19973 0
M  V30 5355 H 498.571 3.56685 1.76127 0
M  V30 5356 H 495.31 6.47369 1.02923 0
M  V30 5357 H 494.83 5.48483 2.42748 0
M  V30 5358 H 496.509 6.05829 2.27114 0
M  V30 5359 N 496.642 -0.504142 1.49319 0
M  V30 5360 C 497.87 -1.28256 1.62351 0
M  V30 5361 C 498.285 -1.86502 0.293682 0
M  V30 5362 O 497.642 -1.67678 -0.720449 0
M  V30 5363 C 497.693 -2.41507 2.68992 0
M  V30 5364 O 497.414 -1.85656 3.96817 0
M  V30 5365 C 498.915 -3.32929 2.927 0
M  V30 5366 H 496.135 -0.389115 0.546654 0
M  V30 5367 H 498.679 -0.605531 1.95329 0
M  V30 5368 H 496.834 -3.05046 2.38801 0
M  V30 5369 H 497.248 -2.59981 4.55533 0
M  V30 5370 H 498.722 -4.0868 3.71058 0
M  V30 5371 H 499.199 -3.89733 2.02496 0
M  V30 5372 H 499.805 -2.75158 3.24296 0
M  V30 5373 N 498.12 -1.38341 -0.754957 0
M  V30 5374 C 499.367 -1.34473 -1.51404 0
M  V30 5375 C 499.695 0.0656458 -1.94389 0
M  V30 5376 O 498.95 1.04244 -1.65625 0
M  V30 5377 C 499.249 -2.2452 -2.78075 0
M  V30 5378 C 498.915 -3.72512 -2.54059 0
M  V30 5379 C 497.577 -4.1284 -2.47218 0
M  V30 5380 C 499.929 -4.66197 -2.33044 0
M  V30 5381 C 497.257 -5.44945 -2.17376 0
M  V30 5382 C 499.609 -5.98558 -2.04723 0
M  V30 5383 C 498.273 -6.37972 -1.96337 0
M  V30 5384 H 497.543 -0.492072 -0.554027 0
M  V30 5385 H 500.19 -1.70687 -0.868223 0
M  V30 5386 H 498.495 -1.81357 -3.473 0
M  V30 5387 H 500.192 -2.18832 -3.36026 0
M  V30 5388 H 496.782 -3.40538 -2.60253 0
M  V30 5389 H 500.966 -4.35888 -2.37309 0
M  V30 5390 H 496.222 -5.74426 -2.09391 0
M  V30 5391 H 500.396 -6.70693 -1.87465 0
M  V30 5392 H 498.023 -7.40258 -1.72978 0
M  V30 5393 N 499.598 0.982988 -1.23187 0
M  V30 5394 C 500.508 2.10907 -1.02739 0
M  V30 5395 C 501.524 1.73979 0.0273188 0
M  V30 5396 O 502.7 2.00702 -0.16757 0
M  V30 5397 C 499.765 3.41142 -0.618304 0
M  V30 5398 C 498.826 3.92112 -1.74777 0
M  V30 5399 C 498.059 5.16131 -1.3581 0
M  V30 5400 O 498.282 5.6989 -0.241201 0
M  V30 5401 O 497.216 5.61103 -2.17824 0
M  V30 5402 H 501.042 2.31046 -1.97108 0
M  V30 5403 H 498.627 1.09284 -1.01869 0
M  V30 5404 H 500.509 4.19488 -0.400982 0
M  V30 5405 H 499.184 3.2234 0.296421 0
M  V30 5406 H 498.091 3.14895 -2.0197 0
M  V30 5407 H 499.424 4.15364 -2.64071 0
M  V30 5408 N 501.076 1.04316 1.18135 0
M  V30 5409 C 502.322 0.749128 1.88457 0
M  V30 5410 C 502.655 -0.72149 1.803 0
M  V30 5411 O 501.93 -1.52676 1.205 0
M  V30 5412 C 502.213 1.21905 3.38838 0
M  V30 5413 C 502.066 2.75195 3.55792 0
M  V30 5414 C 503.385 0.811085 4.32561 0
M  V30 5415 H 500.504 0.273611 0.684329 0
M  V30 5416 H 503.146 1.29561 1.38975 0
M  V30 5417 H 501.296 0.754137 3.8111 0
M  V30 5418 H 502.968 3.29743 3.22595 0
M  V30 5419 H 501.211 3.14899 2.98364 0
M  V30 5420 H 501.882 3.03135 4.61317 0
M  V30 5421 H 504.358 1.21118 3.98082 0
M  V30 5422 H 503.234 1.16761 5.36338 0
M  V30 5423 H 503.495 -0.285596 4.41177 0
M  V30 5424 N 502.554 -1.34406 0.822964 0
M  V30 5425 C 503.464 -2.33298 0.246838 0
M  V30 5426 C 504.48 -1.62625 -0.618797 0
M  V30 5427 O 505.656 -1.94391 -0.526685 0
M  V30 5428 C 502.721 -3.41785 -0.581731 0
M  V30 5429 C 501.782 -4.28206 0.306309 0
M  V30 5430 C 501.015 -5.31512 -0.48281 0
M  V30 5431 O 501.238 -5.43973 -1.71607 0
M  V30 5432 O 500.172 -6.01749 0.134884 0
M  V30 5433 H 503.998 -2.84401 1.06534 0
M  V30 5434 H 501.583 -1.37466 0.585108 0
M  V30 5435 H 503.465 -4.08028 -1.05313 0
M  V30 5436 H 502.14 -2.92925 -1.37756 0
M  V30 5437 H 501.047 -3.64885 0.825199 0
M  V30 5438 H 502.38 -4.80507 1.06649 0
M  V30 5439 N 504.032 -0.577932 -1.46621 0
M  V30 5440 C 505.262 -0.0670668 -2.06491 0
M  V30 5441 C 505.67 1.24119 -1.42798 0
M  V30 5442 O 505.013 1.76016 -0.525759 0
M  V30 5443 C 505.075 0.177995 -3.59059 0
M  V30 5444 C 504.739 -1.04394 -4.44917 0
M  V30 5445 C 505.736 -1.95479 -4.81751 0
M  V30 5446 C 503.421 -1.26444 -4.86125 0
M  V30 5447 C 505.415 -3.06965 -5.58615 0
M  V30 5448 C 503.102 -2.38237 -5.62749 0
M  V30 5449 C 504.1 -3.28327 -5.98908 0
M  V30 5450 O 503.788 -4.38179 -6.73984 0
M  V30 5451 H 503.52 -0.0523159 -0.673973 0
M  V30 5452 H 506.074 -0.796966 -1.89308 0
M  V30 5453 H 504.304 0.962451 -3.74531 0
M  V30 5454 H 505.993 0.636782 -4.00874 0
M  V30 5455 H 506.759 -1.79657 -4.50498 0
M  V30 5456 H 502.638 -0.572316 -4.57434 0
M  V30 5457 H 506.182 -3.77309 -5.86757 0
M  V30 5458 H 502.079 -2.54023 -5.93416 0
M  V30 5459 H 502.847 -4.36486 -6.92403 0
M  V30 5460 N 505.51 1.54411 -0.315457 0
M  V30 5461 C 506.921 1.85885 0.174265 0
M  V30 5462 C 507.272 1.23723 1.52273 0
M  V30 5463 O 506.397 0.540246 2.09548 0
M  V30 5464 C 506.992 3.37257 0.322981 0
M  V30 5465 C 505.551 3.68711 0.756922 0
M  V30 5466 C 504.698 2.77013 -0.126195 0
M  V30 5467 H 507.649 1.49374 -0.536007 0
M  V30 5468 H 507.67 3.62539 1.15522 0
M  V30 5469 H 507.182 3.82471 -0.658602 0
M  V30 5470 H 505.283 3.29024 1.74854 0
M  V30 5471 H 505.396 4.75741 0.566291 0
M  V30 5472 H 503.76 2.51588 0.39692 0
M  V30 5473 H 504.543 3.25051 -1.1044 0
M  V30 5474 N 506.988 0.0434614 1.5754 0
M  V30 5475 C 507.921 -0.968729 2.06618 0
M  V30 5476 C 508.899 -1.30868 0.965 0
M  V30 5477 O 510.083 -1.42288 1.23638 0
M  V30 5478 C 507.21 -2.28486 2.50023 0
M  V30 5479 C 506.256 -2.09851 3.71302 0
M  V30 5480 S 507.089 -1.38401 5.17306 0
M  V30 5481 C 508.245 -2.71354 5.64019 0
M  V30 5482 H 508.478 -0.551021 2.92149 0
M  V30 5483 H 506.011 -0.168607 1.53477 0
M  V30 5484 H 507.969 -3.04142 2.75695 0
M  V30 5485 H 506.63 -2.67387 1.64812 0
M  V30 5486 H 505.823 -3.07184 3.99567 0
M  V30 5487 H 505.425 -1.42336 3.45856 0
M  V30 5488 H 507.717 -3.67549 5.69134 0
M  V30 5489 H 508.66 -2.47734 6.6335 0
M  V30 5490 H 509.068 -2.77259 4.91719 0
M  V30 5491 N 508.466 -1.55915 -0.229846 0
M  V30 5492 C 509.743 -1.6932 -0.979295 0
M  V30 5493 C 510.123 -0.588321 -2.02736 0
M  V30 5494 O 509.471 0.40586 -2.24867 0
M  V30 5495 C 509.681 -3.10305 -1.59724 0
M  V30 5496 C 511.029 -3.6945 -2.09264 0
M  V30 5497 O 512.053 -3.13214 -1.69633 0
M  V30 5498 O 510.912 -4.68072 -2.82082 0
M  V30 5499 H 508.006 -0.689314 -0.456919 0
M  V30 5500 H 510.552 -1.68238 -0.222283 0
M  V30 5501 H 509.324 -3.82177 -0.840039 0
M  V30 5502 H 508.947 -3.1547 -2.42001 0
M  V30 5503 N 509.944 0.496216 -1.49584 0
M  V30 5504 C 510.874 1.60576 -1.69521 0
M  V30 5505 C 511.855 1.61169 -0.543933 0
M  V30 5506 O 513.04 1.77834 -0.78031 0
M  V30 5507 C 510.17 2.99038 -1.76616 0
M  V30 5508 C 509.124 3.13312 -2.91581 0
M  V30 5509 C 508.45 4.53172 -2.83794 0
M  V30 5510 C 509.75 2.92886 -4.32452 0
M  V30 5511 H 511.444 1.44146 -2.62416 0
M  V30 5512 H 508.99 0.692024 -1.26282 0
M  V30 5513 H 510.943 3.76564 -1.8915 0
M  V30 5514 H 509.667 3.16568 -0.80324 0
M  V30 5515 H 508.326 2.38213 -2.78658 0
M  V30 5516 H 507.974 4.67585 -1.854 0
M  V30 5517 H 507.674 4.63662 -3.60958 0
M  V30 5518 H 509.198 5.32752 -2.98342 0
M  V30 5519 H 510.612 3.60178 -4.46032 0
M  V30 5520 H 509.009 3.14844 -5.10875 0
M  V30 5521 H 510.079 1.88966 -4.46565 0
M  V30 5522 N 511.423 1.38739 0.74761 0
M  V30 5523 C 512.672 1.3459 1.50228 0
M  V30 5524 C 512.985 -0.0595592 1.95509 0
M  V30 5525 O 514.191 -0.22361 2.70578 0
M  V30 5526 C 512.647 2.36377 2.71393 0
M  V30 5527 C 512.255 3.82573 2.33113 0
M  V30 5528 C 513.999 2.41281 3.49262 0
M  V30 5529 C 511.906 4.76032 3.50924 0
M  V30 5530 H 510.836 0.500312 0.564096 0
M  V30 5531 H 513.487 1.64324 0.8167 0
M  V30 5532 H 511.869 1.99694 3.41962 0
M  V30 5533 H 513.043 4.28227 1.70171 0
M  V30 5534 H 511.358 3.80844 1.68365 0
M  V30 5535 H 513.955 3.08301 4.36869 0
M  V30 5536 H 514.298 1.43353 3.9084 0
M  V30 5537 H 514.831 2.76793 2.85711 0
M  V30 5538 H 511.57 5.75177 3.14408 0
M  V30 5539 H 511.09 4.35066 4.12889 0
M  V30 5540 H 512.769 4.94331 4.17427 0
M  V30 5541 N 512.901 -0.976442 1.23707 0
M  V30 5542 C 514.15 -1.71254 1.06559 0
M  V30 5543 C 514.463 -1.91528 -0.397024 0
M  V30 5544 O 515.669 -2.62625 -0.688518 0
M  V30 5545 C 514.125 -3.08207 1.8584 0
M  V30 5546 C 513.733 -2.95806 3.36456 0
M  V30 5547 C 515.477 -3.85749 1.77194 0
M  V30 5548 C 513.384 -4.28015 4.08114 0
M  V30 5549 H 512.314 -0.642171 0.395136 0
M  V30 5550 H 514.965 -1.08877 1.4771 0
M  V30 5551 H 513.347 -3.71363 1.37498 0
M  V30 5552 H 514.521 -2.41716 3.92314 0
M  V30 5553 H 512.836 -2.31736 3.45959 0
M  V30 5554 H 515.433 -4.83633 2.28041 0
M  V30 5555 H 515.776 -4.09752 0.735477 0
M  V30 5556 H 516.309 -3.29303 2.23169 0
M  V30 5557 H 513.048 -4.09208 5.12083 0
M  V30 5558 H 512.568 -4.81955 3.57043 0
M  V30 5559 H 514.247 -4.96681 4.14629 0
M  V30 5560 N 514.379 -1.04941 -1.1758 0
M  V30 5561 C 515.607 -0.778294 -1.91703 0
M  V30 5562 C 516.022 0.665697 -1.76675 0
M  V30 5563 O 515.379 1.45456 -1.10222 0
M  V30 5564 C 515.43 -1.14628 -3.42845 0
M  V30 5565 O 515.151 -2.53359 -3.57409 0
M  V30 5566 C 516.652 -0.900931 -4.34049 0
M  V30 5567 H 513.872 -0.283167 -0.608323 0
M  V30 5568 H 516.416 -1.39942 -1.49119 0
M  V30 5569 H 514.571 -0.569953 -3.83184 0
M  V30 5570 H 514.985 -2.67709 -4.51035 0
M  V30 5571 H 516.459 -1.20817 -5.38616 0
M  V30 5572 H 516.936 0.163966 -4.38894 0
M  V30 5573 H 517.542 -1.46097 -3.99419 0
M  V30 5574 N 515.857 1.33968 -0.830081 0
M  V30 5575 C 516.805 2.31301 -0.245435 0
M  V30 5576 C 517.799 1.57734 0.617762 0
M  V30 5577 O 519.005 1.72674 0.508303 0
M  V30 5578 H 515.38 0.749552 -0.0606316 0
M  V30 5579 H 517.351 2.78129 -1.08105 0
M  V30 5580 C 516.1 3.42961 0.572084 0
M  V30 5581 H 515.423 3.99714 -0.0828118 0
M  V30 5582 H 516.863 4.13286 0.94715 0
M  V30 5583 C 515.322 2.88043 1.74737 0
M  V30 5584 O 515.852 2.83508 2.8458 0
M  V30 5585 N 514.058 2.44768 1.56642 0
M  V30 5586 H 513.605 2.48656 0.672901 0
M  V30 5587 H 513.563 2.08375 2.3543 0
M  V30 5588 N 517.335 0.585699 1.46312 0
M  V30 5589 C 518.245 -0.148236 2.34131 0
M  V30 5590 C 519.261 -0.882972 1.49932 0
M  V30 5591 O 520.437 -0.845484 1.82794 0
M  V30 5592 C 517.502 -1.14714 3.27172 0
M  V30 5593 C 516.563 -0.416746 4.27272 0
M  V30 5594 C 515.796 -1.36806 5.15868 0
M  V30 5595 O 516.019 -2.60475 5.07454 0
M  V30 5596 O 514.953 -0.877018 5.95476 0
M  V30 5597 H 518.779 0.572882 2.98248 0
M  V30 5598 H 516.364 0.346082 1.45336 0
M  V30 5599 H 518.246 -1.72303 3.84564 0
M  V30 5600 H 516.921 -1.84967 2.65648 0
M  V30 5601 H 515.828 0.201061 3.73559 0
M  V30 5602 H 517.161 0.244872 4.9159 0
M  V30 5603 N 518.813 -1.54241 0.323641 0
M  V30 5604 C 519.761 -2.25813 -0.557804 0
M  V30 5605 C 520.755 -1.27225 -1.11849 0
M  V30 5606 O 521.961 -1.45001 -1.06652 0
M  V30 5607 H 518.336 -0.72532 -0.198532 0
M  V30 5608 H 520.307 -2.98322 0.0681112 0
M  V30 5609 C 519.056 -3.02913 -1.70701 0
M  V30 5610 H 518.379 -3.78593 -1.28482 0
M  V30 5611 H 519.819 -3.56238 -2.29935 0
M  V30 5612 C 518.278 -2.11217 -2.62467 0
M  V30 5613 O 518.808 -1.69508 -3.64184 0
M  V30 5614 N 517.014 -1.76704 -2.30703 0
M  V30 5615 H 516.561 -2.1082 -1.48029 0
M  V30 5616 H 516.519 -1.15631 -2.92364 0
M  V30 5617 N 520.291 -0.0518155 -1.57515 0
M  V30 5618 C 521.238 0.922352 -2.11569 0
M  V30 5619 C 522.208 1.30842 -1.02321 0
M  V30 5620 O 523.393 1.39778 -1.29872 0
M  V30 5621 C 520.533 2.19167 -2.6657 0
M  V30 5622 C 519.646 1.86003 -3.89906 0
M  V30 5623 C 518.781 3.07398 -4.33221 0
M  V30 5624 C 517.82 2.70158 -5.49255 0
M  V30 5625 N 516.957 3.84248 -5.8762 0
M  V30 5626 H 521.797 0.454506 -2.94514 0
M  V30 5627 H 519.334 0.212718 -1.45554 0
M  V30 5628 H 521.292 2.93443 -2.96559 0
M  V30 5629 H 519.922 2.63528 -1.86421 0
M  V30 5630 H 518.974 1.01874 -3.66505 0
M  V30 5631 H 520.286 1.54592 -4.74239 0
M  V30 5632 H 519.44 3.89972 -4.64765 0
M  V30 5633 H 518.179 3.41988 -3.477 0
M  V30 5634 H 517.184 1.86001 -5.17382 0
M  V30 5635 H 518.409 2.36759 -6.36492 0
M  V30 5636 H 516.355 4.18638 -5.05053 0
M  V30 5637 H 516.272 3.56538 -6.66646 0
M  V30 5638 H 517.54 4.6746 -6.2378 0
M  V30 5639 N 521.769 1.56035 0.221574 0
M  V30 5640 C 522.679 1.95581 1.29558 0
M  V30 5641 C 523.695 0.859639 1.51282 0
M  V30 5642 O 524.871 1.16321 1.64413 0
M  V30 5643 C 521.936 2.26447 2.62531 0
M  V30 5644 C 520.997 3.49632 2.4911 0
M  V30 5645 C 520.23 3.79017 3.75742 0
M  V30 5646 O 520.453 3.10077 4.78757 0
M  V30 5647 O 519.387 4.72507 3.72855 0
M  V30 5648 H 523.213 2.8711 0.990035 0
M  V30 5649 H 520.798 1.43244 0.424434 0
M  V30 5650 H 522.68 2.47494 3.41064 0
M  V30 5651 H 521.355 1.38092 2.92766 0
M  V30 5652 H 520.262 3.33864 1.68777 0
M  V30 5653 H 521.595 4.3837 2.23814 0
M  V30 5654 N 523.247 -0.488276 1.49845 0
M  V30 5655 C 524.493 -1.24341 1.6021 0
M  V30 5656 C 524.826 -1.91967 0.293651 0
M  V30 5657 O 524.101 -1.81323 -0.703718 0
M  V30 5658 C 524.384 -2.3005 2.77036 0
M  V30 5659 C 524.237 -1.66842 4.17713 0
M  V30 5660 C 525.556 -3.31509 2.89464 0
M  V30 5661 H 522.675 -0.450704 0.583125 0
M  V30 5662 H 525.317 -0.539673 1.82174 0
M  V30 5663 H 523.467 -2.90071 2.58439 0
M  V30 5664 H 525.139 -1.1055 4.47858 0
M  V30 5665 H 523.382 -0.972079 4.22768 0
M  V30 5666 H 524.053 -2.43576 4.95353 0
M  V30 5667 H 526.529 -2.81493 3.06433 0
M  V30 5668 H 525.405 -4.02822 3.72861 0
M  V30 5669 H 525.666 -3.94603 1.99351 0
M  V30 5670 N 524.725 -1.39134 -0.740242 0
M  V30 5671 C 525.655 -1.40165 -1.86751 0
M  V30 5672 C 526.636 -0.265708 -1.68012 0
M  V30 5673 O 527.821 -0.47076 -1.88408 0
M  V30 5674 C 524.951 -1.2392 -3.2444 0
M  V30 5675 C 523.905 -2.34858 -3.57807 0
M  V30 5676 C 523.231 -2.03707 -4.94376 0
M  V30 5677 C 524.531 -3.77159 -3.61315 0
M  V30 5678 H 526.225 -2.345 -1.86145 0
M  V30 5679 H 523.771 -1.12875 -0.89416 0
M  V30 5680 H 525.724 -1.23263 -4.02969 0
M  V30 5681 H 524.448 -0.26051 -3.25559 0
M  V30 5682 H 523.107 -2.34723 -2.81604 0
M  V30 5683 H 522.755 -1.04289 -4.9207 0
M  V30 5684 H 522.455 -2.78016 -5.17669 0
M  V30 5685 H 523.979 -2.04691 -5.75268 0
M  V30 5686 H 525.393 -3.79252 -4.29931 0
M  V30 5687 H 523.79 -4.50784 -3.96124 0
M  V30 5688 H 524.86 -4.08513 -2.61238 0
M  V30 5689 N 526.204 0.969867 -1.24223 0
M  V30 5690 C 527.151 2.06407 -1.0327 0
M  V30 5691 C 528.121 1.66014 0.0533 0
M  V30 5692 O 529.306 1.90533 -0.100896 0
M  V30 5693 C 526.446 3.3909 -0.641262 0
M  V30 5694 C 525.559 3.9269 -1.80051 0
M  V30 5695 C 524.694 5.13631 -1.35486 0
M  V30 5696 C 523.733 5.59423 -2.48419 0
M  V30 5697 N 522.87 6.71586 -2.04737 0
M  V30 5698 H 527.71 2.23663 -1.96923 0
M  V30 5699 H 525.247 1.09624 -0.980862 0
M  V30 5700 H 527.205 4.15323 -0.395351 0
M  V30 5701 H 525.835 3.21765 0.258269 0
M  V30 5702 H 524.887 3.13116 -2.16014 0
M  V30 5703 H 526.199 4.22636 -2.64916 0
M  V30 5704 H 525.353 5.97231 -1.0677 0
M  V30 5705 H 524.092 4.85364 -0.476722 0
M  V30 5706 H 523.097 4.74398 -2.77897 0
M  V30 5707 H 524.322 5.89705 -3.36786 0
M  V30 5708 H 522.268 6.45058 -1.19318 0
M  V30 5709 H 522.185 7.0097 -2.83156 0
M  V30 5710 H 523.453 7.58633 -1.79154 0
M  V30 5711 N 527.682 1.05563 1.17022 0
M  V30 5712 C 528.931 0.763036 1.8671 0
M  V30 5713 C 529.244 -0.712857 1.82147 0
M  V30 5714 O 530.45 -1.11955 2.47343 0
M  V30 5715 C 528.906 1.31474 3.35026 0
M  V30 5716 C 528.514 2.82034 3.48081 0
M  V30 5717 C 530.258 1.09935 4.10018 0
M  V30 5718 C 528.165 3.30486 4.90442 0
M  V30 5719 H 527.095 0.281747 0.699382 0
M  V30 5720 H 529.746 1.2734 1.32124 0
M  V30 5721 H 528.128 0.732171 3.89173 0
M  V30 5722 H 529.302 3.46178 3.04133 0
M  V30 5723 H 527.617 3.02156 2.86515 0
M  V30 5724 H 530.214 1.43632 5.15048 0
M  V30 5725 H 530.557 0.0373072 4.16283 0
M  V30 5726 H 531.09 1.64732 3.62089 0
M  V30 5727 H 527.829 4.36137 4.89352 0
M  V30 5728 H 527.349 2.71086 5.35044 0
M  V30 5729 H 529.028 3.25382 5.59227 0
M  V30 5730 N 529.16 -1.33526 0.837174 0
M  V30 5731 C 530.09 -2.31764 0.284206 0
M  V30 5732 C 531.071 -1.58896 -0.607142 0
M  V30 5733 O 532.256 -1.86798 -0.531047 0
M  V30 5734 C 529.386 -3.43029 -0.542962 0
M  V30 5735 C 528.34 -4.27255 0.252451 0
M  V30 5736 C 527.666 -5.3012 -0.69836 0
M  V30 5737 C 528.966 -5.01229 1.46858 0
M  V30 5738 H 530.66 -2.78262 1.10502 0
M  V30 5739 H 528.206 -1.3378 0.532812 0
M  V30 5740 H 530.159 -4.1078 -0.940096 0
M  V30 5741 H 528.883 -2.95216 -1.39697 0
M  V30 5742 H 527.542 -3.61127 0.631124 0
M  V30 5743 H 527.19 -4.78564 -1.54872 0
M  V30 5744 H 526.89 -5.87353 -0.170274 0
M  V30 5745 H 528.414 -6.00737 -1.09305 0
M  V30 5746 H 529.828 -5.61756 1.14469 0
M  V30 5747 H 528.225 -5.68104 1.93333 0
M  V30 5748 H 529.295 -4.301 2.23924 0
M  V30 5749 N 530.638 -0.59345 -1.46 0
M  V30 5750 C 531.585 0.133618 -2.30413 0
M  V30 5751 C 532.555 0.873736 -1.41262 0
M  V30 5752 O 533.74 0.862279 -1.70204 0
M  V30 5753 C 530.88 1.13434 -3.25924 0
M  V30 5754 C 529.993 0.39656 -4.30176 0
M  V30 5755 C 529.128 1.38575 -5.12806 0
M  V30 5756 C 528.167 0.634984 -6.08797 0
M  V30 5757 N 527.304 1.57276 -6.84258 0
M  V30 5758 H 532.144 -0.592252 -2.92055 0
M  V30 5759 H 529.681 -0.303874 -1.43927 0
M  V30 5760 H 531.639 1.72752 -3.79753 0
M  V30 5761 H 530.269 1.82779 -2.66067 0
M  V30 5762 H 529.321 -0.311861 -3.79119 0
M  V30 5763 H 530.633 -0.189869 -4.98438 0
M  V30 5764 H 529.787 2.05141 -5.70966 0
M  V30 5765 H 528.526 2.00611 -4.44529 0
M  V30 5766 H 527.531 -0.0443925 -5.49782 0
M  V30 5767 H 528.756 0.0198678 -6.79097 0
M  V30 5768 H 526.702 2.18103 -6.18682 0
M  V30 5769 H 526.619 1.03941 -7.48821 0
M  V30 5770 H 527.887 2.22844 -7.46968 0
M  V30 5771 N 532.116 1.54067 -0.331816 0
M  V30 5772 C 533.063 2.24623 0.530372 0
M  V30 5773 C 534.033 1.24009 1.10503 0
M  V30 5774 O 535.218 1.52712 1.14384 0
M  V30 5775 C 532.358 3.01374 1.68129 0
M  V30 5776 C 531.471 4.16821 1.13507 0
M  V30 5777 C 530.606 4.81085 2.25234 0
M  V30 5778 C 529.645 5.88621 1.67903 0
M  V30 5779 N 528.782 6.46713 2.73326 0
M  V30 5780 H 533.622 2.97898 -0.0778607 0
M  V30 5781 H 531.159 1.47014 -0.0501965 0
M  V30 5782 H 533.117 3.44125 2.35868 0
M  V30 5783 H 531.747 2.30419 2.26069 0
M  V30 5784 H 530.799 3.78796 0.348979 0
M  V30 5785 H 532.111 4.94203 0.675633 0
M  V30 5786 H 531.265 5.26846 3.00862 0
M  V30 5787 H 530.004 4.03102 2.74518 0
M  V30 5788 H 529.009 5.42254 0.907773 0
M  V30 5789 H 530.234 6.68506 1.19487 0
M  V30 5790 H 528.18 5.71599 3.21886 0
M  V30 5791 H 528.097 7.19532 2.3197 0
M  V30 5792 H 529.365 6.97129 3.48758 0
M  V30 5793 N 533.594 0.0601682 1.57485 0
M  V30 5794 C 534.526 -0.94047 2.09016 0
M  V30 5795 C 535.539 -1.26897 1.01985 0
M  V30 5796 O 536.728 -1.22819 1.29529 0
M  V30 5797 C 533.828 -2.25955 2.52582 0
M  V30 5798 C 533.001 -2.11163 3.83052 0
M  V30 5799 C 532.06 -3.26273 4.12835 0
M  V30 5800 O 531.086 -3.01779 4.82616 0
M  V30 5801 N 532.288 -4.51022 3.65458 0
M  V30 5802 H 535.053 -0.500578 2.9549 0
M  V30 5803 H 532.614 -0.125852 1.6141 0
M  V30 5804 H 534.606 -3.01846 2.69575 0
M  V30 5805 H 533.176 -2.61481 1.71308 0
M  V30 5806 H 532.396 -1.19808 3.75552 0
M  V30 5807 H 533.684 -1.98517 4.68475 0
M  V30 5808 H 533.082 -4.73811 3.09062 0
M  V30 5809 H 531.639 -5.23978 3.87673 0
M  V30 5810 N 535.072 -1.5615 -0.213296 0
M  V30 5811 C 536.02 -1.93953 -1.28394 0
M  V30 5812 C 537.014 -0.822592 -1.48087 0
M  V30 5813 O 538.22 -1.00748 -1.49164 0
M  V30 5814 H 534.595 -0.61648 -0.430646 0
M  V30 5815 H 536.566 -2.83275 -0.937977 0
M  V30 5816 C 535.315 -2.27969 -2.62537 0
M  V30 5817 H 534.638 -3.13432 -2.48194 0
M  V30 5818 H 536.078 -2.58297 -3.36242 0
M  V30 5819 C 534.537 -1.10775 -3.18167 0
M  V30 5820 O 535.067 -0.373201 -3.99963 0
M  V30 5821 N 533.273 -0.889377 -2.76656 0
M  V30 5822 H 532.82 -1.48843 -2.10246 0
M  V30 5823 H 532.778 -0.107 -3.14218 0
M  V30 5824 N 536.55 0.480323 -1.50102 0
M  V30 5825 C 537.46 1.60547 -1.71061 0
M  V30 5826 C 538.476 1.63564 -0.593529 0
M  V30 5827 O 539.652 1.81604 -0.870751 0
M  V30 5828 C 536.717 2.96814 -1.79171 0
M  V30 5829 C 535.778 3.04259 -3.02861 0
M  V30 5830 C 535.011 4.34027 -3.10574 0
M  V30 5831 O 535.234 5.24009 -2.25323 0
M  V30 5832 O 534.168 4.46873 -4.03223 0
M  V30 5833 H 537.994 1.45788 -2.6642 0
M  V30 5834 H 535.579 0.658838 -1.34088 0
M  V30 5835 H 537.461 3.77765 -1.86738 0
M  V30 5836 H 536.136 3.11791 -0.869947 0
M  V30 5837 H 535.043 2.22419 -3.008 0
M  V30 5838 H 536.376 2.94216 -3.94586 0
M  V30 5839 N 538.028 1.39524 0.732853 0
M  V30 5840 C 539.274 1.37068 1.49467 0
M  V30 5841 C 539.607 -0.0327166 1.94172 0
M  V30 5842 O 538.882 -0.998071 1.66939 0
M  V30 5843 C 539.165 2.34494 2.73285 0
M  V30 5844 C 539.018 3.83784 2.34585 0
M  V30 5845 C 540.337 2.29717 3.75391 0
M  V30 5846 H 537.456 0.499206 0.542183 0
M  V30 5847 H 540.098 1.70532 0.837783 0
M  V30 5848 H 538.248 2.06087 3.29333 0
M  V30 5849 H 539.92 4.22949 1.84151 0
M  V30 5850 H 538.163 4.00455 1.66787 0
M  V30 5851 H 538.834 4.47444 3.23262 0
M  V30 5852 H 541.31 2.54839 3.28932 0
M  V30 5853 H 540.186 2.99962 4.59689 0
M  V30 5854 H 540.447 1.30291 4.22465 0
M  V30 5855 N 539.506 -0.963266 1.24736 0
M  V30 5856 C 540.416 -2.09246 1.06082 0
M  V30 5857 C 541.432 -1.74 0.000363101 0
M  V30 5858 O 542.608 -2.0041 0.199479 0
M  V30 5859 C 539.673 -3.40115 0.672498 0
M  V30 5860 C 538.734 -3.89282 1.80993 0
M  V30 5861 C 537.967 -5.13905 1.44004 0
M  V30 5862 O 538.19 -5.69434 0.331835 0
M  V30 5863 O 537.124 -5.57566 2.26723 0
M  V30 5864 H 540.95 -2.27881 2.00759 0
M  V30 5865 H 538.535 -1.07649 1.03595 0
M  V30 5866 H 540.417 -4.18797 0.467668 0
M  V30 5867 H 539.092 -3.22771 -0.245102 0
M  V30 5868 H 537.999 -3.11642 2.06955 0
M  V30 5869 H 539.332 -4.1111 2.70646 0
M  V30 5870 N 540.985 -1.06182 -1.16461 0
M  V30 5871 C 541.932 -0.671613 -2.20812 0
M  V30 5872 C 542.902 0.331186 -1.62765 0
M  V30 5873 O 544.087 0.22033 -1.89524 0
M  V30 5874 C 541.227 -0.063029 -3.45042 0
M  V30 5875 C 540.34 -1.11587 -4.1734 0
M  V30 5876 C 539.475 -0.473546 -5.29085 0
M  V30 5877 C 538.514 -1.51 -5.93182 0
M  V30 5878 N 537.651 -0.891118 -6.96422 0
M  V30 5879 H 542.491 -1.56589 -2.53542 0
M  V30 5880 H 540.028 -0.782951 -1.24532 0
M  V30 5881 H 541.986 0.307344 -4.16066 0
M  V30 5882 H 540.616 0.794663 -3.12866 0
M  V30 5883 H 539.668 -1.60396 -3.44931 0
M  V30 5884 H 540.98 -1.90221 -4.61104 0
M  V30 5885 H 540.134 -0.0501432 -6.06679 0
M  V30 5886 H 538.873 0.344687 -4.8648 0
M  V30 5887 H 537.878 -1.94331 -5.14311 0
M  V30 5888 H 539.103 -2.33031 -6.37866 0
M  V30 5889 H 537.049 -0.0935753 -6.55933 0
M  V30 5890 H 536.966 -1.61486 -7.38551 0
M  V30 5891 H 538.234 -0.492822 -7.77941 0
M  V30 5892 N 542.463 1.3308 -0.844243 0
M  V30 5893 C 543.41 2.29104 -0.279323 0
M  V30 5894 C 544.38 1.54577 0.607882 0
M  V30 5895 O 545.565 1.8285 0.545009 0
M  V30 5896 C 542.705 3.40927 0.53508 0
M  V30 5897 C 541.818 4.30354 -0.376749 0
M  V30 5898 C 540.953 5.29297 0.449276 0
M  V30 5899 C 539.992 6.10365 -0.460606 0
M  V30 5900 N 539.129 7.01335 0.327612 0
M  V30 5901 H 543.969 2.76817 -1.10346 0
M  V30 5902 H 541.506 1.36203 -0.555611 0
M  V30 5903 H 543.464 4.04469 1.02278 0
M  V30 5904 H 542.094 2.94391 1.32414 0
M  V30 5905 H 541.146 3.67485 -0.982791 0
M  V30 5906 H 542.458 4.87067 -1.07549 0
M  V30 5907 H 541.612 5.98392 1.00058 0
M  V30 5908 H 540.351 4.73174 1.18143 0
M  V30 5909 H 539.356 5.40182 -1.02388 0
M  V30 5910 H 540.581 6.68571 -1.1912 0
M  V30 5911 H 538.527 6.47655 1.04305 0
M  V30 5912 H 538.444 7.55355 -0.3123 0
M  V30 5913 H 539.712 7.74731 0.86098 0
M  V30 5914 N 543.941 0.601185 1.45683 0
M  V30 5915 C 545.171 0.0999093 2.06358 0
M  V30 5916 C 545.579 -1.21831 1.44754 0
M  V30 5917 O 544.922 -1.75157 0.553695 0
M  V30 5918 C 544.984 -0.12085 3.59297 0
M  V30 5919 C 544.648 1.11459 4.432 0
M  V30 5920 C 545.645 2.03118 4.7858 0
M  V30 5921 C 543.33 1.34162 4.84051 0
M  V30 5922 C 545.324 3.15814 5.53661 0
M  V30 5923 C 543.011 2.4716 5.58888 0
M  V30 5924 C 544.009 3.37814 5.93608 0
M  V30 5925 O 543.697 4.48846 6.66928 0
M  V30 5926 H 543.429 0.0630316 0.673055 0
M  V30 5927 H 545.983 0.826982 1.88016 0
M  V30 5928 H 544.213 -0.902744 3.76015 0
M  V30 5929 H 545.902 -0.572925 4.01836 0
M  V30 5930 H 546.668 1.86801 4.47583 0
M  V30 5931 H 542.547 0.645018 4.56465 0
M  V30 5932 H 546.091 3.86596 5.8068 0
M  V30 5933 H 541.988 2.63432 5.89299 0
M  V30 5934 H 542.756 4.47446 6.85371 0
M  V30 5935 N 545.419 -1.53889 0.339982 0
M  V30 5936 C 546.696 -1.93084 -0.312719 0
M  V30 5937 C 547.076 -1.2712 -1.68534 0
M  V30 5938 O 546.424 -0.420835 -2.24591 0
M  V30 5939 C 546.634 -3.4683 -0.388558 0
M  V30 5940 C 547.982 -4.19732 -0.641088 0
M  V30 5941 O 549.006 -3.53075 -0.470818 0
M  V30 5942 O 547.865 -5.3781 -0.970685 0
M  V30 5943 H 544.959 -0.806784 -0.18174 0
M  V30 5944 H 547.505 -1.65137 0.390898 0
M  V30 5945 H 546.277 -3.87055 0.574821 0
M  V30 5946 H 545.9 -3.80933 -1.1391 0
M  V30 5947 N 546.897 -0.0685191 -1.57451 0
M  V30 5948 C 547.827 0.89747 -2.15564 0
M  V30 5949 C 548.808 1.31266 -1.08181 0
M  V30 5950 O 549.993 1.38429 -1.36202 0
M  V30 5951 C 547.123 2.16623 -2.71463 0
M  V30 5952 C 546.077 1.89054 -3.83982 0
M  V30 5953 C 545.403 3.22532 -4.26471 0
M  V30 5954 C 546.703 1.1984 -5.08366 0
M  V30 5955 H 548.397 0.413373 -2.96533 0
M  V30 5956 H 545.943 0.197391 -1.42641 0
M  V30 5957 H 547.896 2.84614 -3.10761 0
M  V30 5958 H 546.62 2.67269 -1.8771 0
M  V30 5959 H 545.279 1.23469 -3.45183 0
M  V30 5960 H 544.927 3.71013 -3.39644 0
M  V30 5961 H 544.627 3.04879 -5.02317 0
M  V30 5962 H 546.151 3.91727 -4.68383 0
M  V30 5963 H 547.565 1.77896 -5.45001 0
M  V30 5964 H 545.962 1.12456 -5.89469 0
M  V30 5965 H 547.032 0.176996 -4.84577 0
M  V30 5966 N 548.375 1.56261 0.205012 0
M  V30 5967 C 549.285 1.96944 1.27476 0
M  V30 5968 C 550.301 0.875636 1.50362 0
M  V30 5969 O 551.477 1.18058 1.6317 0
M  V30 5970 C 548.542 2.29219 2.60115 0
M  V30 5971 C 547.603 3.52255 2.45387 0
M  V30 5972 C 546.836 3.8298 3.71701 0
M  V30 5973 O 547.059 3.15138 4.75441 0
M  V30 5974 O 545.993 4.76435 3.67823 0
M  V30 5975 H 549.819 2.88144 0.959527 0
M  V30 5976 H 547.404 1.43686 0.409217 0
M  V30 5977 H 549.286 2.51098 3.3842 0
M  V30 5978 H 547.961 1.4119 2.91285 0
M  V30 5979 H 546.868 3.35635 1.65227 0
M  V30 5980 H 548.201 4.40719 2.19152 0
M  V30 5981 N 549.853 -0.472356 1.50355 0
M  V30 5982 C 550.801 -1.59126 1.69651 0
M  V30 5983 C 551.795 -1.59793 0.56237 0
M  V30 5984 O 553.001 -1.63957 0.742832 0
M  V30 5985 H 549.376 -0.528008 0.535454 0
M  V30 5986 H 551.347 -1.40013 2.63513 0
M  V30 5987 C 550.096 -2.97075 1.8067 0
M  V30 5988 H 549.419 -2.9728 2.67329 0
M  V30 5989 H 550.859 -3.74825 1.98197 0
M  V30 5990 C 549.318 -3.32247 0.558016 0
M  V30 5991 O 549.848 -4.00553 -0.303399 0
M  V30 5992 N 548.054 -2.87659 0.412415 0
M  V30 5993 H 547.601 -2.32246 1.11443 0
M  V30 5994 H 547.559 -3.11556 -0.421908 0
M  V30 5995 N 551.331 -1.39911 -0.725443 0
M  V30 5996 C 552.556 -1.41137 -1.5197 0
M  V30 5997 C 552.981 -0.010262 -1.88097 0
M  V30 5998 O 552.339 0.979184 -1.52583 0
M  V30 5999 C 552.387 -2.2994 -2.77777 0
M  V30 6000 O 551.491 -1.73586 -3.74088 0
M  V30 6001 H 550.832 -0.480219 -0.458569 0
M  V30 6002 H 553.362 -1.84023 -0.894249 0
M  V30 6003 H 553.372 -2.44785 -3.26411 0
M  V30 6004 H 552.047 -3.31759 -2.50816 0
M  V30 6005 H 550.624 -1.68035 -3.32894 0
M  V30 6006 N 552.809 0.956637 -1.25245 0
M  V30 6007 C 553.719 2.0868 -1.0719 0
M  V30 6008 C 554.735 1.73997 -0.00959074 0
M  V30 6009 O 555.911 2.00301 -0.210104 0
M  V30 6010 C 552.976 3.39754 -0.690526 0
M  V30 6011 C 552.037 3.88316 -1.83055 0
M  V30 6012 C 551.27 5.13134 -1.46728 0
M  V30 6013 O 551.493 5.6925 -0.362029 0
M  V30 6014 O 550.427 5.56356 -2.29677 0
M  V30 6015 H 554.253 2.26813 -2.01965 0
M  V30 6016 H 551.838 1.07098 -1.04165 0
M  V30 6017 H 553.72 4.18543 -0.489871 0
M  V30 6018 H 552.395 3.22896 0.227981 0
M  V30 6019 H 551.302 3.1054 -2.08604 0
M  V30 6020 H 552.635 4.09669 -2.72822 0
M  V30 6021 N 554.287 1.06798 1.15896 0
M  V30 6022 C 555.217 0.704677 2.22613 0
M  V30 6023 C 556.198 -0.305252 1.67339 0
M  V30 6024 O 557.383 -0.179247 1.93371 0
M  V30 6025 C 554.513 0.0957325 3.47168 0
M  V30 6026 C 553.467 1.0322 4.15367 0
M  V30 6027 C 552.793 0.286293 5.33933 0
M  V30 6028 C 554.093 2.36341 4.65768 0
M  V30 6029 H 555.787 1.59688 2.53259 0
M  V30 6030 H 553.333 0.769257 1.21731 0
M  V30 6031 H 555.286 -0.170333 4.21056 0
M  V30 6032 H 554.01 -0.831516 3.15838 0
M  V30 6033 H 552.669 1.28309 3.43413 0
M  V30 6034 H 552.317 -0.644237 4.98857 0
M  V30 6035 H 552.017 0.910436 5.80504 0
M  V30 6036 H 553.541 0.0278938 6.10594 0
M  V30 6037 H 554.955 2.1561 5.31211 0
M  V30 6038 H 553.352 2.94299 5.2298 0
M  V30 6039 H 554.422 2.99047 3.81705 0
M  V30 6040 N 555.766 -1.3263 0.851289 0
M  V30 6041 C 556.676 -2.32722 0.296268 0
M  V30 6042 C 557.692 -1.63901 -0.584162 0
M  V30 6043 O 558.868 -1.95465 -0.485334 0
M  V30 6044 C 555.933 -3.42942 -0.509103 0
M  V30 6045 C 554.994 -4.2746 0.397069 0
M  V30 6046 C 554.227 -5.32416 -0.36996 0
M  V30 6047 O 554.45 -5.47491 -1.6003 0
M  V30 6048 O 553.384 -6.01327 0.262493 0
M  V30 6049 H 557.21 -2.82078 1.12543 0
M  V30 6050 H 554.795 -1.36194 0.614135 0
M  V30 6051 H 556.677 -4.1017 -0.96634 0
M  V30 6052 H 555.352 -2.95781 -1.31512 0
M  V30 6053 H 554.259 -3.63053 0.902411 0
M  V30 6054 H 555.592 -4.78136 1.16818 0
M  V30 6055 N 557.244 -0.608902 -1.45362 0
M  V30 6056 C 558.49 -0.104762 -2.02529 0
M  V30 6057 C 558.823 1.26191 -1.47613 0
M  V30 6058 O 558.098 1.8327 -0.65134 0
M  V30 6059 C 558.381 -0.0672661 -3.60037 0
M  V30 6060 C 558.234 -1.4647 -4.25284 0
M  V30 6061 C 559.553 0.619877 -4.35713 0
M  V30 6062 H 556.672 -0.0395438 -0.735938 0
M  V30 6063 H 559.314 -0.781126 -1.73201 0
M  V30 6064 H 557.464 0.50871 -3.85155 0
M  V30 6065 H 559.136 -2.08785 -4.11347 0
M  V30 6066 H 557.379 -2.02502 -3.83634 0
M  V30 6067 H 558.05 -1.39069 -5.34195 0
M  V30 6068 H 560.526 0.130297 -4.15896 0
M  V30 6069 H 559.402 0.615224 -5.45441 0
M  V30 6070 H 559.663 1.68621 -4.0868 0
M  V30 6071 N 558.722 1.53707 -0.348139 0
M  V30 6072 C 559.968 2.01286 0.247332 0
M  V30 6073 C 560.301 1.23546 1.49834 0
M  V30 6074 O 559.576 0.324331 1.91777 0
M  V30 6075 C 559.859 3.55768 0.556858 0
M  V30 6076 C 559.712 4.44216 -0.706564 0
M  V30 6077 C 561.031 4.1841 1.3646 0
M  V30 6078 H 558.15 0.731677 0.0884201 0
M  V30 6079 H 560.792 1.84106 -0.469584 0
M  V30 6080 H 558.942 3.70539 1.16761 0
M  V30 6081 H 560.614 4.41274 -1.34444 0
M  V30 6082 H 558.857 4.12892 -1.33052 0
M  V30 6083 H 559.528 5.50202 -0.445186 0
M  V30 6084 H 562.004 4.07365 0.848113 0
M  V30 6085 H 560.88 5.26563 1.54992 0
M  V30 6086 H 561.141 3.7333 2.36805 0
M  V30 6087 N 560.2 0.0768682 1.57412 0
M  V30 6088 C 561.425 -0.603404 1.98428 0
M  V30 6089 C 561.85 -1.62047 0.955108 0
M  V30 6090 O 561.208 -1.81129 -0.0786778 0
M  V30 6091 C 561.256 -1.24396 3.38464 0
M  V30 6092 O 560.36 -2.35982 3.3821 0
M  V30 6093 H 559.701 -0.154741 0.645718 0
M  V30 6094 H 562.231 0.152885 2.04028 0
M  V30 6095 H 562.241 -1.5896 3.7576 0
M  V30 6096 H 560.916 -0.498735 4.12899 0
M  V30 6097 H 559.493 -2.03173 3.1269 0
M  V30 6098 N 561.678 -1.56367 -0.196722 0
M  V30 6099 C 562.918 -1.82315 -0.92415 0
M  V30 6100 C 563.282 -0.654117 -1.80514 0
M  V30 6101 O 564.483 -0.79345 -2.56823 0
M  V30 6102 C 562.754 -3.13279 -1.72021 0
M  V30 6103 S 564.313 -3.60627 -2.49988 0
M  V30 6104 H 561.131 -0.639862 -0.309997 0
M  V30 6105 H 563.733 -1.94597 -0.187684 0
M  V30 6106 H 562.437 -3.96379 -1.06358 0
M  V30 6107 H 561.968 -3.03871 -2.49852 0
M  V30 6108 H 563.983 -3.25934 -3.74141 0
M  V30 6109 N 563.156 0.464375 -1.50603 0
M  V30 6110 C 564.381 1.24372 -1.65971 0
M  V30 6111 C 564.806 1.84901 -0.345453 0
M  V30 6112 O 564.164 1.67596 0.691457 0
M  V30 6113 C 564.212 2.32331 -2.7578 0
M  V30 6114 O 563.316 3.37146 -2.375 0
M  V30 6115 H 562.657 0.365604 -0.554283 0
M  V30 6116 H 565.187 0.55183 -1.97018 0
M  V30 6117 H 565.197 2.77539 -2.99059 0
M  V30 6118 H 563.872 1.87648 -3.71162 0
M  V30 6119 H 562.449 2.97602 -2.24694 0
M  V30 6120 N 564.634 1.40294 0.718013 0
M  V30 6121 C 566.045 1.34289 1.29705 0
M  V30 6122 C 566.396 0.0152228 1.96194 0
M  V30 6123 O 565.521 -0.88682 1.97394 0
M  V30 6124 C 566.116 2.43219 2.3586 0
M  V30 6125 C 564.675 2.40682 2.89394 0
M  V30 6126 C 563.822 2.24223 1.63154 0
M  V30 6127 H 566.773 1.50135 0.514312 0
M  V30 6128 H 566.794 2.10986 3.16647 0
M  V30 6129 H 566.306 3.39836 1.87439 0
M  V30 6130 H 564.407 1.47756 3.42051 0
M  V30 6131 H 564.52 3.36177 3.41353 0
M  V30 6132 H 562.884 1.71696 1.88129 0
M  V30 6133 H 563.667 3.22834 1.16761 0
M  V30 6134 N 566.112 -0.949982 1.2575 0
M  V30 6135 C 567.358 -1.69766 1.10938 0
M  V30 6136 C 567.691 -1.91056 -0.348028 0
M  V30 6137 O 566.966 -1.48488 -1.25625 0
M  V30 6138 C 567.249 -3.07779 1.86933 0
M  V30 6139 C 567.102 -2.9387 3.4053 0
M  V30 6140 C 568.421 -4.07749 1.65616 0
M  V30 6141 H 565.54 -0.616144 0.404396 0
M  V30 6142 H 568.182 -1.10394 1.54639 0
M  V30 6143 H 566.332 -3.58462 1.4979 0
M  V30 6144 H 568.004 -2.50476 3.87375 0
M  V30 6145 H 566.247 -2.29686 3.68004 0
M  V30 6146 H 566.918 -3.91719 3.88922 0
M  V30 6147 H 569.394 -3.65994 1.97959 0
M  V30 6148 H 568.27 -5.02348 2.21218 0
M  V30 6149 H 568.531 -4.38029 0.598595 0
M  V30 6150 N 567.59 -1.07411 -1.15328 0
M  V30 6151 C 568.867 -0.710732 -1.82231 0
M  V30 6152 C 569.247 0.806732 -1.95077 0
M  V30 6153 O 568.595 1.72139 -1.50268 0
M  V30 6154 C 568.805 -1.42586 -3.18544 0
M  V30 6155 C 570.153 -1.57836 -3.94174 0
M  V30 6156 O 571.177 -1.38669 -3.281 0
M  V30 6157 O 570.036 -1.8938 -5.12638 0
M  V30 6158 H 567.13 -0.25297 -0.78736 0
M  V30 6159 H 569.676 -1.17508 -1.22434 0
M  V30 6160 H 568.448 -2.46008 -3.04296 0
M  V30 6161 H 568.071 -0.952332 -3.86026 0
M  V30 6162 N 569.068 1.32177 -0.85831 0
M  V30 6163 C 570.015 2.28794 -0.303607 0
M  V30 6164 C 570.985 1.55213 0.591453 0
M  V30 6165 O 572.17 1.83418 0.525585 0
M  V30 6166 C 569.31 3.41475 0.49889 0
M  V30 6167 C 568.423 4.2993 -0.422373 0
M  V30 6168 C 567.558 5.29743 0.393111 0
M  V30 6169 C 566.597 6.09842 -0.525317 0
M  V30 6170 N 565.734 7.01643 0.253208 0
M  V30 6171 H 570.574 2.75631 -1.13276 0
M  V30 6172 H 568.111 1.35606 -0.570026 0
M  V30 6173 H 570.069 4.05531 0.979826 0
M  V30 6174 H 568.699 2.95779 1.29284 0
M  V30 6175 H 567.751 3.66422 -1.02171 0
M  V30 6176 H 569.063 4.85899 -1.12709 0
M  V30 6177 H 568.217 5.9942 0.937056 0
M  V30 6178 H 566.956 4.744 1.13117 0
M  V30 6179 H 565.961 5.39066 -1.08112 0
M  V30 6180 H 567.186 6.6727 -1.26205 0
M  V30 6181 H 565.132 6.48725 0.974295 0
M  V30 6182 H 565.049 7.54981 -0.392398 0
M  V30 6183 H 566.317 7.756 0.778761 0
M  V30 6184 N 570.547 0.616602 1.45037 0
M  V30 6185 C 571.457 -0.0985401 2.34393 0
M  V30 6186 C 572.473 -0.850971 1.51771 0
M  V30 6187 O 573.649 -0.806521 1.84546 0
M  V30 6188 C 570.714 -1.07748 3.29532 0
M  V30 6189 C 569.775 -0.326022 4.2806 0
M  V30 6190 C 569.008 -1.25833 5.18654 0
M  V30 6191 O 569.231 -2.49652 5.12864 0
M  V30 6192 O 568.165 -0.750512 5.97203 0
M  V30 6193 H 571.991 0.636016 2.96966 0
M  V30 6194 H 569.576 0.376832 1.44569 0
M  V30 6195 H 571.458 -1.64107 3.88133 0
M  V30 6196 H 570.133 -1.79291 2.69512 0
M  V30 6197 H 569.04 0.280253 3.73049 0
M  V30 6198 H 570.373 0.349091 4.9096 0
M  V30 6199 N 572.025 -1.5352 0.356285 0
M  V30 6200 C 573.255 -2.05236 -0.236983 0
M  V30 6201 C 573.663 -1.23016 -1.43749 0
M  V30 6202 O 573.006 -0.2615 -1.81829 0
M  V30 6203 C 573.068 -3.52549 -0.7035 0
M  V30 6204 C 572.732 -4.55425 0.379059 0
M  V30 6205 C 573.729 -5.0524 1.22592 0
M  V30 6206 C 571.414 -4.99425 0.536638 0
M  V30 6207 C 573.408 -5.97647 2.21578 0
M  V30 6208 C 571.095 -5.9164 1.52988 0
M  V30 6209 C 572.093 -6.4064 2.3679 0
M  V30 6210 O 571.781 -7.31039 3.34421 0
M  V30 6211 H 571.513 -0.674346 -0.047254 0
M  V30 6212 H 574.067 -1.98962 0.510238 0
M  V30 6213 H 572.297 -3.56331 -1.50217 0
M  V30 6214 H 573.986 -3.87171 -1.21873 0
M  V30 6215 H 574.752 -4.72002 1.11532 0
M  V30 6216 H 570.631 -4.60879 -0.105834 0
M  V30 6217 H 574.175 -6.35816 2.87025 0
M  V30 6218 H 570.072 -6.24293 1.64099 0
M  V30 6219 H 570.84 -7.49009 3.30041 0
M  V30 6220 N 573.503 -0.0852151 -1.57369 0
M  V30 6221 C 574.752 0.580443 -1.93168 0
M  V30 6222 C 575.065 1.6995 -0.968319 0
M  V30 6223 O 576.271 2.42564 -1.21963 0
M  V30 6224 C 574.727 1.08386 -3.43192 0
M  V30 6225 C 574.335 -0.00491388 -4.48 0
M  V30 6226 C 576.079 1.72281 -3.87968 0
M  V30 6227 C 573.986 0.513299 -5.89168 0
M  V30 6228 H 572.916 0.22059 -0.72101 0
M  V30 6229 H 575.567 -0.159621 -1.82804 0
M  V30 6230 H 573.949 1.8773 -3.48674 0
M  V30 6231 H 575.123 -0.780032 -4.5415 0
M  V30 6232 H 573.438 -0.548453 -4.12772 0
M  V30 6233 H 576.035 2.12108 -4.9083 0
M  V30 6234 H 576.378 2.58811 -3.26071 0
M  V30 6235 H 576.911 0.995359 -3.85146 0
M  V30 6236 H 573.65 -0.315153 -6.54742 0
M  V30 6237 H 573.17 1.25564 -5.8651 0
M  V30 6238 H 574.849 0.985433 -6.39451 0
M  V30 6239 N 574.981 1.5647 0.188427 0
M  V30 6240 C 575.928 1.95073 1.23349 0
M  V30 6241 C 576.898 0.812238 1.44886 0
M  V30 6242 O 578.083 1.07095 1.57909 0
M  V30 6243 C 575.223 2.30124 2.57171 0
M  V30 6244 C 574.336 3.57069 2.43157 0
M  V30 6245 C 573.471 3.81411 3.69729 0
M  V30 6246 C 572.51 5.0176 3.50575 0
M  V30 6247 N 571.647 5.22321 4.69175 0
M  V30 6248 H 576.487 2.84171 0.89728 0
M  V30 6249 H 574.024 1.40623 0.431683 0
M  V30 6250 H 575.982 2.48463 3.35145 0
M  V30 6251 H 574.612 1.44159 2.88822 0
M  V30 6252 H 573.664 3.4674 1.56447 0
M  V30 6253 H 574.976 4.452 2.24942 0
M  V30 6254 H 574.13 4.00026 4.56141 0
M  V30 6255 H 572.869 2.91624 3.90905 0
M  V30 6256 H 571.874 4.83061 2.62549 0
M  V30 6257 H 573.099 5.93063 3.30837 0
M  V30 6258 H 571.045 4.35483 4.90602 0
M  V30 6259 H 570.962 6.04643 4.53809 0
M  V30 6260 H 572.23 5.45401 5.56919 0
M  V30 6261 N 576.459 -0.456382 1.50847 0
M  V30 6262 C 577.705 -1.20914 1.62811 0
M  V30 6263 C 578.038 -1.91301 0.334304 0
M  V30 6264 O 577.313 -1.82775 -0.665098 0
M  V30 6265 C 577.596 -2.24122 2.81853 0
M  V30 6266 C 577.449 -1.57944 4.21158 0
M  V30 6267 C 578.768 -3.25295 2.96431 0
M  V30 6268 H 575.887 -0.438233 0.592554 0
M  V30 6269 H 578.529 -0.50091 1.83278 0
M  V30 6270 H 576.679 -2.84524 2.64534 0
M  V30 6271 H 578.351 -1.01025 4.50102 0
M  V30 6272 H 576.594 -0.882185 4.24735 0
M  V30 6273 H 577.265 -2.33014 5.00408 0
M  V30 6274 H 579.741 -2.7493 3.12335 0
M  V30 6275 H 578.617 -3.94822 3.81322 0
M  V30 6276 H 578.878 -3.90286 2.07676 0
M  V30 6277 N 577.937 -1.40673 -0.710563 0
M  V30 6278 C 579.353 -1.22813 -1.01928 0
M  V30 6279 C 579.553 -0.10687 -2.01216 0
M  V30 6280 O 578.609 0.533614 -2.46797 0
M  V30 6281 C 579.922 -2.57178 -1.5582 0
M  V30 6282 C 581.47 -2.64233 -1.67779 0
M  V30 6283 C 581.945 -3.98879 -2.25076 0
M  V30 6284 N 583.436 -4.00647 -2.32456 0
M  V30 6285 C 584.171 -5.01621 -2.77784 0
M  V30 6286 N 583.667 -6.12989 -3.22826 0
M  V30 6287 N 585.46 -4.88988 -2.77213 0
M  V30 6288 H 577.611 -2.12335 -0.05253 0
M  V30 6289 H 579.874 -0.9441 -0.085898 0
M  V30 6290 H 579.58 -3.39903 -0.903249 0
M  V30 6291 H 579.454 -2.78618 -2.54267 0
M  V30 6292 H 581.841 -1.81876 -2.3239 0
M  V30 6293 H 581.922 -2.46619 -0.679178 0
M  V30 6294 H 581.566 -4.81678 -1.61086 0
M  V30 6295 H 581.496 -4.13826 -3.25661 0
M  V30 6296 H 583.987 -3.20231 -2.0065 0
M  V30 6297 H 584.3 -6.85921 -3.55995 0
M  V30 6298 H 582.645 -6.16547 -3.20773 0
M  V30 6299 H 585.836 -4.01075 -2.41363 0
M  V30 6300 H 586.009 -5.67822 -3.12221 0
M  V30 6301 N 579.415 0.9433 -1.26252 0
M  V30 6302 C 580.661 1.69175 -1.11837 0
M  V30 6303 C 580.994 1.91238 0.337891 0
M  V30 6304 O 580.269 1.49152 1.24836 0
M  V30 6305 C 580.552 3.06783 -1.88563 0
M  V30 6306 C 580.405 2.9206 -3.42083 0
M  V30 6307 C 581.724 4.06865 -1.67776 0
M  V30 6308 H 578.843 0.61399 -0.407658 0
M  V30 6309 H 581.485 1.09572 -1.55222 0
M  V30 6310 H 579.635 3.57663 -1.51689 0
M  V30 6311 H 581.307 2.48419 -3.88698 0
M  V30 6312 H 579.55 2.27731 -3.69217 0
M  V30 6313 H 580.221 3.89651 -3.90994 0
M  V30 6314 H 582.697 3.64939 -1.99897 0
M  V30 6315 H 581.573 5.01168 -2.23879 0
M  V30 6316 H 581.834 4.37705 -0.621816 0
M  V30 6317 N 580.893 1.08022 1.14757 0
M  V30 6318 C 582.121 0.828847 1.89572 0
M  V30 6319 C 582.536 -0.618621 1.78377 0
M  V30 6320 O 581.893 -1.42482 1.1404 0
M  V30 6321 C 581.944 1.23677 3.39685 0
M  V30 6322 O 581.665 2.62746 3.50566 0
M  V30 6323 C 583.166 1.01569 4.31507 0
M  V30 6324 H 580.386 0.299196 0.600602 0
M  V30 6325 H 582.93 1.43846 1.45357 0
M  V30 6326 H 581.085 0.671347 3.81539 0
M  V30 6327 H 581.499 2.79573 4.43778 0
M  V30 6328 H 582.973 1.35055 5.35223 0
M  V30 6329 H 583.45 -0.0475433 4.39174 0
M  V30 6330 H 584.056 1.56636 3.95405 0
M  V30 6331 N 582.371 -1.3172 0.865308 0
M  V30 6332 C 583.318 -2.2863 0.315736 0
M  V30 6333 C 584.288 -1.55524 -0.583213 0
M  V30 6334 O 585.473 -1.83694 -0.51585 0
M  V30 6335 C 582.613 -3.41735 -0.480773 0
M  V30 6336 C 581.726 -4.297 0.445167 0
M  V30 6337 C 580.861 -5.29944 -0.365012 0
M  V30 6338 C 579.9 -6.09554 0.557651 0
M  V30 6339 N 579.037 -7.01768 -0.215994 0
M  V30 6340 H 583.877 -2.75026 1.14736 0
M  V30 6341 H 581.414 -1.35302 0.577209 0
M  V30 6342 H 583.372 -4.06045 -0.958306 0
M  V30 6343 H 582.002 -2.96461 -1.27714 0
M  V30 6344 H 581.054 -3.65875 1.04113 0
M  V30 6345 H 582.366 -4.85295 1.15284 0
M  V30 6346 H 581.52 -5.99908 -0.905255 0
M  V30 6347 H 580.259 -4.74994 -1.106 0
M  V30 6348 H 579.264 -5.38485 1.10969 0
M  V30 6349 H 580.489 -6.66591 1.29742 0
M  V30 6350 H 578.435 -6.49232 -0.939878 0
M  V30 6351 H 578.352 -7.54762 0.432431 0
M  V30 6352 H 579.62 -7.76002 -0.737618 0
M  V30 6353 N 583.85 -0.624285 -1.44708 0
M  V30 6354 C 584.782 0.12305 -2.28869 0
M  V30 6355 C 585.795 0.81557 -1.40898 0
M  V30 6356 O 586.984 0.678162 -1.65116 0
M  V30 6357 C 584.084 1.19612 -3.1709 0
M  V30 6358 C 583.257 0.587452 -4.33437 0
M  V30 6359 C 582.316 1.55358 -5.02743 0
M  V30 6360 O 581.341 1.07338 -5.58988 0
M  V30 6361 N 582.543 2.88798 -5.03563 0
M  V30 6362 H 585.308 -0.599193 -2.93649 0
M  V30 6363 H 582.87 -0.464954 -1.5508 0
M  V30 6364 H 584.861 1.84261 -3.60319 0
M  V30 6365 H 583.432 1.82067 -2.54107 0
M  V30 6366 H 582.652 -0.237509 -3.93484 0
M  V30 6367 H 583.94 0.161326 -5.08544 0
M  V30 6368 H 583.338 3.30399 -4.59188 0
M  V30 6369 H 581.894 3.48826 -5.50603 0
M  V30 6370 N 585.328 1.53329 -0.364422 0
M  V30 6371 C 586.26 2.23286 0.517293 0
M  V30 6372 C 587.273 1.24657 1.04711 0
M  V30 6373 O 588.462 1.50887 0.95369 0
M  V30 6374 C 585.562 2.91604 1.72685 0
M  V30 6375 C 584.735 4.1673 1.32873 0
M  V30 6376 C 583.794 4.68269 2.40022 0
M  V30 6377 O 582.82 5.31976 2.02461 0
M  V30 6378 N 584.022 4.45983 3.7159 0
M  V30 6379 H 586.787 2.99588 -0.0819391 0
M  V30 6380 H 584.348 1.60787 -0.189544 0
M  V30 6381 H 586.34 3.22992 2.4384 0
M  V30 6382 H 584.91 2.18763 2.23297 0
M  V30 6383 H 584.13 3.91657 0.447069 0
M  V30 6384 H 585.418 4.98078 1.03902 0
M  V30 6385 H 584.816 3.95077 4.04883 0
M  V30 6386 H 583.373 4.81924 4.38854 0
M  V30 6387 N 586.806 0.0935595 1.57322 0
M  V30 6388 C 587.738 -0.895923 2.10964 0
M  V30 6389 C 588.751 -1.24705 1.04654 0
M  V30 6390 O 589.94 -1.20044 1.32105 0
M  V30 6391 C 587.04 -2.20546 2.57318 0
M  V30 6392 C 586.213 -2.0299 3.87445 0
M  V30 6393 C 585.272 -3.17443 4.19662 0
M  V30 6394 O 584.298 -2.91474 4.88909 0
M  V30 6395 N 585.5 -4.43168 3.74943 0
M  V30 6396 H 588.265 -0.437788 2.96485 0
M  V30 6397 H 585.826 -0.0915863 1.61641 0
M  V30 6398 H 587.818 -2.9606 2.75917 0
M  V30 6399 H 586.388 -2.57789 1.76816 0
M  V30 6400 H 585.608 -1.11815 3.78009 0
M  V30 6401 H 586.896 -1.88535 4.7258 0
M  V30 6402 H 586.294 -4.67149 3.19043 0
M  V30 6403 H 584.851 -5.15637 3.987 0
M  V30 6404 N 588.284 -1.56567 -0.180126 0
M  V30 6405 C 589.216 -1.92275 -1.24751 0
M  V30 6406 C 590.229 -0.814922 -1.40936 0
M  V30 6407 O 591.418 -1.09336 -1.41095 0
M  V30 6408 C 588.518 -2.15265 -2.61752 0
M  V30 6409 C 587.691 -3.46467 -2.66981 0
M  V30 6410 C 586.75 -3.58391 -3.85283 0
M  V30 6411 O 585.776 -4.31086 -3.7169 0
M  V30 6412 N 586.978 -2.92587 -5.01371 0
M  V30 6413 H 589.743 -2.84435 -0.944302 0
M  V30 6414 H 587.304 -1.57617 -0.369952 0
M  V30 6415 H 589.296 -2.20515 -3.39345 0
M  V30 6416 H 587.866 -1.29533 -2.845 0
M  V30 6417 H 587.086 -3.52953 -1.75549 0
M  V30 6418 H 588.374 -4.32819 -2.67479 0
M  V30 6419 H 587.772 -2.3338 -5.15316 0
M  V30 6420 H 586.329 -3.03444 -5.76858 0
M  V30 6421 N 589.762 0.448376 -1.51087 0
M  V30 6422 C 590.694 1.56146 -1.67783 0
M  V30 6423 C 591.707 1.52913 -0.55871 0
M  V30 6424 O 592.896 1.57889 -0.83267 0
M  V30 6425 C 589.996 2.95057 -1.66716 0
M  V30 6426 C 589.169 3.22915 -2.95033 0
M  V30 6427 C 588.228 4.41495 -2.86302 0
M  V30 6428 O 587.254 4.40688 -3.60254 0
M  V30 6429 N 588.456 5.44443 -2.014 0
M  V30 6430 H 591.221 1.42232 -2.638 0
M  V30 6431 H 588.782 0.637153 -1.48835 0
M  V30 6432 H 590.774 3.72388 -1.58458 0
M  V30 6433 H 589.344 3.02624 -0.783403 0
M  V30 6434 H 588.564 2.33985 -3.17245 0
M  V30 6435 H 589.852 3.38349 -3.79996 0
M  V30 6436 H 589.25 5.4793 -1.40674 0
M  V30 6437 H 587.807 6.2067 -1.99029 0
M  V30 6438 N 591.24 1.41047 0.703093 0
M  V30 6439 C 592.172 1.38228 1.82827 0
M  V30 6440 C 593.185 0.285637 1.60275 0
M  V30 6441 O 594.374 0.54685 1.69917 0
M  V30 6442 C 591.474 1.13136 3.19458 0
M  V30 6443 C 590.647 2.34695 3.69103 0
M  V30 6444 C 589.706 2.05574 4.84382 0
M  V30 6445 O 588.732 2.78549 4.96386 0
M  V30 6446 N 589.934 1.04135 5.71083 0
M  V30 6447 H 592.699 2.35203 1.85741 0
M  V30 6448 H 590.26 1.35562 0.885125 0
M  V30 6449 H 592.252 0.916183 3.94193 0
M  V30 6450 H 590.822 0.247836 3.11616 0
M  V30 6451 H 590.042 2.71963 2.85359 0
M  V30 6452 H 591.33 3.15705 3.99009 0
M  V30 6453 H 590.728 0.43722 5.64008 0
M  V30 6454 H 589.285 0.886078 6.45749 0
M  V30 6455 N 592.718 -0.936591 1.26751 0
M  V30 6456 C 593.65 -2.03991 1.045 0
M  V30 6457 C 594.663 -1.628 0.00394261 0
M  V30 6458 O 595.852 -1.76817 0.244526 0
M  V30 6459 C 592.952 -3.34218 0.561403 0
M  V30 6460 C 592.125 -4.04151 1.67274 0
M  V30 6461 C 591.184 -5.12651 1.1864 0
M  V30 6462 O 590.21 -5.37104 1.88437 0
M  V30 6463 N 591.412 -5.80488 0.037278 0
M  V30 6464 H 594.177 -2.23644 1.99508 0
M  V30 6465 H 591.738 -1.10638 1.18198 0
M  V30 6466 H 593.73 -4.04101 0.220136 0
M  V30 6467 H 592.3 -3.11203 -0.295211 0
M  V30 6468 H 591.52 -3.28121 2.18472 0
M  V30 6469 H 592.808 -4.47626 2.41885 0
M  V30 6470 H 592.206 -5.63064 -0.545494 0
M  V30 6471 H 590.763 -6.5134 -0.244877 0
M  V30 6472 N 594.196 -1.08629 -1.14182 0
M  V30 6473 C 595.106 -0.730126 -2.22949 0
M  V30 6474 C 596.122 0.26436 -1.7198 0
M  V30 6475 O 597.298 0.107742 -2.01112 0
M  V30 6476 C 594.363 -0.147227 -3.46387 0
M  V30 6477 C 593.424 -1.19662 -4.12286 0
M  V30 6478 C 592.657 -0.641437 -5.29831 0
M  V30 6479 O 592.88 0.538351 -5.67854 0
M  V30 6480 O 591.814 -1.39257 -5.85569 0
M  V30 6481 H 595.64 -1.63753 -2.55771 0
M  V30 6482 H 593.225 -0.860118 -1.22157 0
M  V30 6483 H 595.107 0.174923 -4.21037 0
M  V30 6484 H 593.782 0.733304 -3.15285 0
M  V30 6485 H 592.689 -1.57133 -3.395 0
M  V30 6486 H 594.022 -2.0495 -4.475 0
M  V30 6487 N 595.674 1.31259 -0.872281 0
M  V30 6488 C 596.637 2.26744 -0.334656 0
M  V30 6489 C 597.637 1.52307 0.515681 0
M  V30 6490 O 598.827 1.71148 0.324656 0
M  V30 6491 C 595.959 3.36841 0.524482 0
M  V30 6492 H 597.152 2.75812 -1.17762 0
M  V30 6493 H 594.705 1.42232 -0.648064 0
M  V30 6494 H 595.44 2.93069 1.38855 0
M  V30 6495 H 595.225 3.92009 -0.0844299 0
M  V30 6496 H 596.715 4.07944 0.892838 0
M  V30 6497 N 597.152 0.631951 1.44375 0
M  V30 6498 C 598.382 0.143658 2.061 0
M  V30 6499 C 598.79 -1.18733 1.47306 0
M  V30 6500 O 598.133 -1.73943 0.590724 0
M  V30 6501 C 598.195 -0.0446102 3.59472 0
M  V30 6502 C 597.859 1.20835 4.40736 0
M  V30 6503 C 598.856 2.13224 4.74164 0
M  V30 6504 C 596.541 1.44399 4.81097 0
M  V30 6505 C 598.535 3.27487 5.46838 0
M  V30 6506 C 596.222 2.58959 5.53519 0
M  V30 6507 C 597.22 3.50329 5.86309 0
M  V30 6508 O 596.908 4.62891 6.57257 0
M  V30 6509 H 596.64 0.0772939 0.671567 0
M  V30 6510 H 599.194 0.866677 1.8622 0
M  V30 6511 H 597.424 -0.822783 3.77845 0
M  V30 6512 H 599.113 -0.487561 4.02961 0
M  V30 6513 H 599.879 1.96253 4.4352 0
M  V30 6514 H 595.758 0.741696 4.54994 0
M  V30 6515 H 599.302 3.98826 5.72349 0
M  V30 6516 H 595.199 2.75873 5.83579 0
M  V30 6517 H 595.967 4.61883 6.75726 0
M  V30 6518 N 598.631 -1.53133 0.372548 0
M  V30 6519 C 599.908 -1.93704 -0.271693 0
M  V30 6520 C 600.288 -1.30667 -1.65799 0
M  V30 6521 O 599.636 -0.46838 -2.23648 0
M  V30 6522 C 599.846 -3.47576 -0.314903 0
M  V30 6523 C 601.194 -4.20998 -0.551912 0
M  V30 6524 O 602.218 -3.53994 -0.39582 0
M  V30 6525 O 601.077 -5.39748 -0.85639 0
M  V30 6526 H 598.171 -0.810457 -0.164586 0
M  V30 6527 H 600.717 -1.6427 0.425838 0
M  V30 6528 H 599.489 -3.85749 0.656792 0
M  V30 6529 H 599.112 -3.83264 -1.05804 0
M  V30 6530 N 600.109 -0.101901 -1.5727 0
M  V30 6531 C 601.386 0.602832 -1.86079 0
M  V30 6532 C 601.766 1.85912 -1 0
M  V30 6533 O 601.114 2.28379 -0.0742488 0
M  V30 6534 C 601.324 0.911694 -3.36881 0
M  V30 6535 C 602.672 1.2722 -4.05093 0
M  V30 6536 O 603.696 1.0025 -3.41802 0
M  V30 6537 O 602.555 1.7776 -5.16782 0
M  V30 6538 H 599.649 0.302366 -0.769743 0
M  V30 6539 H 602.195 -0.135113 -1.69161 0
M  V30 6540 H 600.967 0.0207256 -3.91295 0
M  V30 6541 H 600.59 1.70538 -3.59169 0
M  V30 6542 N 601.587 1.56661 0.17182 0
M  V30 6543 C 602.497 1.99604 1.2327 0
M  V30 6544 C 603.513 0.907333 1.4847 0
M  V30 6545 O 604.689 1.21492 1.60629 0
M  V30 6546 C 601.754 2.34685 2.55194 0
M  V30 6547 C 600.815 3.57381 2.3786 0
M  V30 6548 C 600.048 3.90779 3.63494 0
M  V30 6549 O 600.271 3.25152 4.6865 0
M  V30 6550 O 599.205 4.84129 3.57634 0
M  V30 6551 H 603.031 2.90114 0.898192 0
M  V30 6552 H 600.616 1.44522 0.378647 0
M  V30 6553 H 602.498 2.5822 3.33017 0
M  V30 6554 H 601.173 1.47336 2.88225 0
M  V30 6555 H 600.08 3.39064 1.5807 0
M  V30 6556 H 601.413 4.45268 2.09754 0
M  V30 6557 N 603.065 -0.440357 1.51323 0
M  V30 6558 C 604.342 -1.20109 1.5438 0
M  V30 6559 C 604.722 -2.08866 0.306303 0
M  V30 6560 O 604.07 -2.1723 -0.708773 0
M  V30 6561 C 604.28 -2.00555 2.8562 0
M  V30 6562 C 605.628 -2.577 3.37455 0
M  V30 6563 O 606.652 -2.10769 2.8715 0
M  V30 6564 O 605.511 -3.43289 4.25224 0
M  V30 6565 H 602.605 -0.546668 0.620551 0
M  V30 6566 H 605.151 -0.449672 1.63634 0
M  V30 6567 H 603.923 -1.35346 3.67147 0
M  V30 6568 H 603.546 -2.82768 2.79514 0
M  V30 6569 N 604.543 -1.41418 -0.695603 0
M  V30 6570 C 605.493 -1.39731 -1.80165 0
M  V30 6571 C 606.477 -0.271689 -1.5859 0
M  V30 6572 O 607.669 -0.512354 -1.69422 0
M  V30 6573 C 604.798 -1.28187 -3.1847 0
M  V30 6574 C 603.884 -2.45612 -3.45739 0
M  V30 6575 N 604.275 -3.71077 -3.43708 0
M  V30 6576 C 602.573 -2.39424 -3.76288 0
M  V30 6577 C 603.274 -4.48957 -3.69882 0
M  V30 6578 N 602.25 -3.7907 -3.89624 0
M  V30 6579 H 606.052 -2.34656 -1.76957 0
M  V30 6580 H 603.566 -1.35473 -0.89559 0
M  V30 6581 H 605.563 -1.2506 -3.977 0
M  V30 6582 H 604.223 -0.342468 -3.22889 0
M  V30 6583 H 605.234 -4.03963 -3.2409 0
M  V30 6584 H 601.911 -1.53955 -3.88077 0
M  V30 6585 H 603.301 -5.57887 -3.74448 0
M  V30 6586 N 606.021 0.929856 -1.27246 0
M  V30 6587 C 606.953 2.03434 -1.0558 0
M  V30 6588 C 607.966 1.62795 -0.0125762 0
M  V30 6589 O 609.155 1.76685 -0.2539 0
M  V30 6590 C 606.255 3.33915 -0.57912 0
M  V30 6591 C 605.428 4.03259 -1.69415 0
M  V30 6592 C 604.487 5.12014 -1.21357 0
M  V30 6593 O 603.513 5.36097 -1.91282 0
M  V30 6594 N 604.715 5.8046 -0.0680622 0
M  V30 6595 H 607.48 2.22583 -2.00691 0
M  V30 6596 H 605.041 1.1001 -1.18783 0
M  V30 6597 H 607.033 4.03978 -0.241563 0
M  V30 6598 H 605.603 3.11355 0.278703 0
M  V30 6599 H 604.823 3.26958 -2.20209 0
M  V30 6600 H 606.111 4.46337 -2.44255 0
M  V30 6601 H 605.509 5.63345 0.515626 0
M  V30 6602 H 604.066 6.51461 0.210332 0
M  V30 6603 N 607.499 1.09233 1.13605 0
M  V30 6604 C 608.91 0.846839 1.6639 0
M  V30 6605 C 609.261 -0.625031 1.85978 0
M  V30 6606 O 608.386 -1.48173 1.57714 0
M  V30 6607 C 608.981 1.5307 3.0225 0
M  V30 6608 C 607.54 1.33223 3.52035 0
M  V30 6609 C 606.687 1.58806 2.27323 0
M  V30 6610 H 609.638 1.25175 0.975541 0
M  V30 6611 H 609.659 0.96267 3.68121 0
M  V30 6612 H 609.171 2.60192 2.87961 0
M  V30 6613 H 607.272 0.282091 3.71531 0
M  V30 6614 H 607.385 2.0657 4.32279 0
M  V30 6615 H 605.749 1.01007 2.33815 0
M  V30 6616 H 606.532 2.67153 2.15602 0
M  V30 6617 N 608.977 -1.30795 0.87923 0
M  V30 6618 C 609.887 -2.32041 0.345565 0
M  V30 6619 C 610.903 -1.65103 -0.549265 0
M  V30 6620 O 612.079 -1.9645 -0.443763 0
M  V30 6621 C 609.144 -3.43944 -0.436245 0
M  V30 6622 C 608.205 -4.26521 0.48765 0
M  V30 6623 C 607.438 -5.33081 -0.256943 0
M  V30 6624 O 607.661 -5.50762 -1.48381 0
M  V30 6625 O 606.595 -6.00635 0.389985 0
M  V30 6626 H 610.421 -2.79627 1.18501 0
M  V30 6627 H 608.006 -1.3486 0.642885 0
M  V30 6628 H 609.888 -4.12128 -0.879119 0
M  V30 6629 H 608.563 -2.98504 -1.25208 0
M  V30 6630 H 607.47 -3.61057 0.979216 0
M  V30 6631 H 608.803 -4.75551 1.26933 0
M  V30 6632 N 610.455 -0.639598 -1.44038 0
M  V30 6633 C 611.388 0.109736 -2.27936 0
M  V30 6634 C 612.366 0.843095 -1.39035 0
M  V30 6635 O 613.55 0.845456 -1.68476 0
M  V30 6636 C 610.677 1.16173 -3.18153 0
M  V30 6637 C 609.723 0.527954 -4.2322 0
M  V30 6638 S 610.556 -0.688318 -5.31058 0
M  V30 6639 C 611.712 0.363481 -6.24844 0
M  V30 6640 H 611.945 -0.601986 -2.91142 0
M  V30 6641 H 609.478 -0.42802 -1.48349 0
M  V30 6642 H 611.436 1.76372 -3.7068 0
M  V30 6643 H 610.097 1.84569 -2.54151 0
M  V30 6644 H 609.29 1.32054 -4.86393 0
M  V30 6645 H 608.892 0.000396444 -3.74 0
M  V30 6646 H 611.184 1.23362 -6.66174 0
M  V30 6647 H 612.127 -0.23288 -7.07717 0
M  V30 6648 H 612.535 0.693179 -5.60228 0
M  V30 6649 N 611.933 1.52934 -0.380664 0
M  V30 6650 C 612.843 2.29921 0.466192 0
M  V30 6651 C 613.859 1.36488 1.07922 0
M  V30 6652 O 615.035 1.69553 1.0869 0
M  V30 6653 C 612.1 3.08468 1.58266 0
M  V30 6654 C 611.161 4.17595 0.995627 0
M  V30 6655 C 610.394 4.92387 2.05889 0
M  V30 6656 O 610.617 4.67184 3.27254 0
M  V30 6657 O 609.551 5.77949 1.68102 0
M  V30 6658 H 613.377 3.03274 -0.160735 0
M  V30 6659 H 610.962 1.48698 -0.144617 0
M  V30 6660 H 612.844 3.57469 2.23145 0
M  V30 6661 H 611.519 2.37937 2.19471 0
M  V30 6662 H 610.426 3.72811 0.310332 0
M  V30 6663 H 611.759 4.90336 0.427918 0
M  V30 6664 N 613.412 0.11024 1.57214 0
M  V30 6665 C 614.66 -0.548783 1.94506 0
M  V30 6666 C 614.981 -1.67772 0.99386 0
M  V30 6667 O 614.251 -1.9584 0.0485841 0
M  V30 6668 H 612.831 -0.205715 0.718116 0
M  V30 6669 H 615.493 0.177127 1.94093 0
M  V30 6670 H 614.589 -0.949096 2.97319 0
M  V30 6671 N 614.89 -1.56749 -0.16351 0
M  V30 6672 C 616.138 -1.82074 -0.87713 0
M  V30 6673 C 616.459 -0.688503 -1.82441 0
M  V30 6674 O 615.729 0.291085 -1.93725 0
M  V30 6675 H 614.309 -0.671677 -0.326893 0
M  V30 6676 H 616.971 -1.9423 -0.161459 0
M  V30 6677 H 616.067 -2.76407 -1.44934 0
M  V30 6678 N 616.368 0.432326 -1.51554 0
M  V30 6679 C 617.784 0.769195 -1.39841 0
M  V30 6680 C 617.984 1.95584 -0.484675 0
M  V30 6681 O 617.04 2.52433 0.0582829 0
M  V30 6682 C 618.353 1.04487 -2.81963 0
M  V30 6683 C 619.901 1.149 -2.91148 0
M  V30 6684 C 620.376 1.45758 -4.34187 0
M  V30 6685 N 621.867 1.52671 -4.37317 0
M  V30 6686 C 622.602 1.78129 -5.4503 0
M  V30 6687 N 622.098 2.01345 -6.62897 0
M  V30 6688 N 623.891 1.79953 -5.32516 0
M  V30 6689 H 616.042 -0.349122 -2.09511 0
M  V30 6690 H 618.305 -0.0938113 -0.943347 0
M  V30 6691 H 618.011 0.24557 -3.50842 0
M  V30 6692 H 617.885 1.97119 -3.21596 0
M  V30 6693 H 620.272 1.93891 -2.22464 0
M  V30 6694 H 620.353 0.201568 -2.55005 0
M  V30 6695 H 619.997 0.672917 -5.03423 0
M  V30 6696 H 619.927 2.41715 -4.67848 0
M  V30 6697 H 622.418 1.36612 -3.52343 0
M  V30 6698 H 622.731 2.20155 -7.40778 0
M  V30 6699 H 621.076 1.98657 -6.66003 0
M  V30 6700 H 624.267 1.61337 -4.39418 0
M  V30 6701 H 624.44 1.99455 -6.1654 0
M  V30 6702 N 617.846 1.41785 0.688094 0
M  V30 6703 C 619.092 1.41753 1.4503 0
M  V30 6704 C 619.425 0.0290745 1.94178 0
M  V30 6705 O 618.7 -0.944456 1.7003 0
M  V30 6706 C 618.983 2.43069 2.65686 0
M  V30 6707 C 618.836 3.91053 2.22256 0
M  V30 6708 C 620.155 2.41543 3.67893 0
M  V30 6709 H 617.274 0.516202 0.526027 0
M  V30 6710 H 619.916 1.73111 0.783105 0
M  V30 6711 H 618.066 2.1646 3.2261 0
M  V30 6712 H 619.738 4.28594 1.70602 0
M  V30 6713 H 617.981 4.05559 1.53963 0
M  V30 6714 H 618.652 4.57501 3.08863 0
M  V30 6715 H 621.128 2.65175 3.20658 0
M  V30 6716 H 620.004 3.14434 4.49914 0
M  V30 6717 H 620.265 1.43666 4.18106 0
M  V30 6718 N 619.324 -0.923095 1.27737 0
M  V30 6719 C 620.287 -2.00587 1.10894 0
M  V30 6720 C 621.287 -1.60718 0.0514927 0
M  V30 6721 O 622.477 -1.71658 0.296481 0
M  V30 6722 C 619.609 -3.33829 0.690717 0
M  V30 6723 H 620.802 -2.16959 2.07048 0
M  V30 6724 H 618.355 -1.10451 1.1059 0
M  V30 6725 H 619.09 -3.23157 -0.272 0
M  V30 6726 H 618.875 -3.64125 1.45448 0
M  V30 6727 H 620.365 -4.13336 0.595252 0
M  V30 6728 N 620.802 -1.09834 -1.13024 0
M  V30 6729 C 622.042 -0.846664 -1.8604 0
M  V30 6730 C 622.406 0.616557 -1.81831 0
M  V30 6731 O 623.607 0.984329 -2.50129 0
M  V30 6732 C 621.878 -1.37228 -3.30005 0
M  V30 6733 S 623.437 -1.25511 -4.20467 0
M  V30 6734 H 620.255 -0.30611 -0.64173 0
M  V30 6735 H 622.857 -1.40255 -1.36194 0
M  V30 6736 H 621.561 -2.43138 -3.30624 0
M  V30 6737 H 621.092 -0.81271 -3.84914 0
M  V30 6738 H 623.107 -0.208762 -4.95761 0
M  V30 6739 N 622.28 1.30327 -0.886154 0
M  V30 6740 C 623.243 2.26376 -0.358687 0
M  V30 6741 C 624.243 1.52845 0.499498 0
M  V30 6742 O 625.433 1.71483 0.306485 0
M  V30 6743 C 622.565 3.37379 0.488726 0
M  V30 6744 H 623.758 2.74547 -1.20681 0
M  V30 6745 H 621.311 1.41536 -0.663113 0
M  V30 6746 H 622.046 2.94526 1.35739 0
M  V30 6747 H 621.831 3.91897 -0.126003 0
M  V30 6748 H 623.321 4.08868 0.84952 0
M  V30 6749 N 623.758 0.647228 1.43697 0
M  V30 6750 C 624.69 -0.0866232 2.29036 0
M  V30 6751 C 625.703 -0.793051 1.42178 0
M  V30 6752 O 626.892 -0.651807 1.66174 0
M  V30 6753 C 623.992 -1.14552 3.18953 0
M  V30 6754 C 623.165 -0.518422 4.34317 0
M  V30 6755 C 622.224 -1.4734 5.05151 0
M  V30 6756 O 621.25 -0.984312 5.60625 0
M  V30 6757 N 622.452 -2.8075 5.08094 0
M  V30 6758 H 625.217 0.645834 2.92659 0
M  V30 6759 H 622.778 0.489567 1.54321 0
M  V30 6760 H 624.77 -1.78505 3.63205 0
M  V30 6761 H 623.34 -1.78001 2.56971 0
M  V30 6762 H 622.56 0.300079 3.93056 0
M  V30 6763 H 623.848 -0.080401 5.08736 0
M  V30 6764 H 623.246 -3.23052 4.64386 0
M  V30 6765 H 621.803 -3.40022 5.56083 0
M  V30 6766 N 625.236 -1.5273 0.388769 0
M  V30 6767 C 626.168 -2.24081 -0.481704 0
M  V30 6768 C 627.181 -1.26307 -1.02715 0
M  V30 6769 O 628.37 -1.52386 -0.929565 0
M  V30 6770 C 625.47 -2.94315 -1.68024 0
M  V30 6771 C 624.643 -4.18791 -1.26226 0
M  V30 6772 C 623.702 -4.72028 -2.32542 0
M  V30 6773 O 622.728 -5.35129 -1.93972 0
M  V30 6774 N 623.93 -4.51838 -3.64448 0
M  V30 6775 H 626.695 -2.9942 0.129591 0
M  V30 6776 H 624.256 -1.60465 0.2151 0
M  V30 6777 H 626.248 -3.26831 -2.38671 0
M  V30 6778 H 624.818 -2.22287 -2.19789 0
M  V30 6779 H 624.038 -3.92318 -0.384703 0
M  V30 6780 H 625.326 -4.99668 -0.959647 0
M  V30 6781 H 624.724 -4.01468 -3.98547 0
M  V30 6782 H 623.281 -4.88845 -4.31131 0
M  V30 6783 O 626.753 -0.258973 -1.5941 0
M  V30 6784 H 627.444 0.314239 -1.91134 0
M  V30 END ATOM
M  V30 BEGIN BOND
M  V30 END BOND
M  V30 END CTAB
M  END
$$$$
