drugbank_target|Q13639 5-hydroxytryptamine receptor 4 (DB00604; DB00904; DB01079; DB01233; DB04873; DB04917; DB05542; DB05905; DB06422; DB06480; DB08810; DB12702)
 OpenBabel12092119243D

  0  0  0     0  0            999 V3000
M  V30 BEGIN CTAB
M  V30 COUNTS 6175 6252 0 0 0
M  V30 BEGIN ATOM
M  V30 1 H -0.908 1.98254 -0.117106 0
M  V30 2 N 0 1.576 0 0
M  V30 3 C 0.933 2.03868 1.02534 0
M  V30 4 C 1.911 0.928543 1.3348 0
M  V30 5 O 3.095 1.19667 1.45644 0
M  V30 6 C 0.222 2.43627 2.35294 0
M  V30 7 C -0.732 3.65373 2.2001 0
M  V30 8 S 0.101 5.13292 1.52614 0
M  V30 9 C 1.257 5.56322 2.86805 0
M  V30 10 H 1.49 2.90518 0.631377 0
M  V30 11 H -0.977 1.52953 0.210867 0
M  V30 12 H 0.981 2.67203 3.11629 0
M  V30 13 H -0.358 1.57376 2.7183 0
M  V30 14 H -1.165 3.90944 3.18086 0
M  V30 15 H -1.563 3.418 1.51819 0
M  V30 16 H 0.729 5.58782 3.83104 0
M  V30 17 H 1.672 6.56266 2.65933 0
M  V30 18 H 2.08 4.83886 2.90714 0
M  V30 19 N 1.4781 -0.272755 1.55222 0
M  V30 20 C 2.7551 -1.02562 1.66555 0
M  V30 21 C 3.1351 -2.04282 0.532189 0
M  V30 22 O 2.4831 -2.23662 -0.467717 0
M  V30 23 C 2.6931 -1.6822 3.05782 0
M  V30 24 C 4.0411 -2.19373 3.63539 0
M  V30 25 O 5.0651 -1.78206 3.08417 0
M  V30 26 O 3.9241 -2.94883 4.60115 0
M  V30 27 H 1.0181 -0.475755 0.676451 0
M  V30 28 H 3.5641 -0.268593 1.67561 0
M  V30 29 H 2.3361 -0.945112 3.79715 0
M  V30 30 H 1.9591 -2.50609 3.08676 0
M  V30 31 N 2.9562 -1.48159 -0.537278 0
M  V30 32 C 3.9032 -1.62138 -1.64256 0
M  V30 33 C 4.8732 -0.463668 -1.59497 0
M  V30 34 O 6.0582 -0.686241 -1.78032 0
M  V30 35 C 3.1982 -1.66028 -3.02537 0
M  V30 36 C 2.3112 -2.92855 -3.17585 0
M  V30 37 C 1.4462 -2.87952 -4.46382 0
M  V30 38 C 0.4852 -4.09516 -4.54932 0
M  V30 39 N -0.3778 -4.02733 -5.75109 0
M  V30 40 H 4.4622 -2.56529 -1.51647 0
M  V30 41 H 1.9992 -1.27224 -0.738414 0
M  V30 42 H 3.9572 -1.66265 -3.82638 0
M  V30 43 H 2.5872 -0.751331 -3.13934 0
M  V30 44 H 1.6392 -3.02395 -2.30784 0
M  V30 45 H 2.9512 -3.82822 -3.19764 0
M  V30 46 H 2.1052 -2.8655 -5.34765 0
M  V30 47 H 0.8442 -1.95702 -4.46712 0
M  V30 48 H -0.1508 -4.11201 -3.64957 0
M  V30 49 H 1.0742 -5.02917 -4.56346 0
M  V30 50 H -0.9798 -3.13299 -5.76351 0
M  V30 51 H -1.0628 -4.86397 -5.78752 0
M  V30 52 H 0.2052 -4.05379 -6.65799 0
M  V30 53 N 4.4343 0.785586 -1.36625 0
M  V30 54 C 5.3643 1.91259 -1.33949 0
M  V30 55 C 6.3453 1.68795 -0.210325 0
M  V30 56 O 7.5303 1.89854 -0.408561 0
M  V30 57 C 4.6603 3.28339 -1.13186 0
M  V30 58 C 3.6143 3.65335 -2.22967 0
M  V30 59 C 2.9403 5.00806 -1.87342 0
M  V30 60 C 4.2403 3.7352 -3.65075 0
M  V30 61 H 5.9343 1.93755 -2.28253 0
M  V30 62 H 3.4803 0.930788 -1.09874 0
M  V30 63 H 5.4333 4.06804 -1.09948 0
M  V30 64 H 4.1573 3.2624 -0.153332 0
M  V30 65 H 2.8163 2.89169 -2.25337 0
M  V30 66 H 2.4643 4.95233 -0.880545 0
M  V30 67 H 2.1643 5.26529 -2.60846 0
M  V30 68 H 3.6883 5.81687 -1.85667 0
M  V30 69 H 5.1023 4.42168 -3.64911 0
M  V30 70 H 3.4993 4.10731 -4.37516 0
M  V30 71 H 4.5693 2.74527 -3.99703 0
M  V30 72 N 5.9124 1.20967 1.01018 0
M  V30 73 C 7.1894 0.93264 1.71934 0
M  V30 74 C 7.5694 -0.55692 2.03621 0
M  V30 75 O 6.9174 -1.52035 1.7058 0
M  V30 76 C 7.1274 1.81233 2.98254 0
M  V30 77 C 8.4754 2.05804 3.71389 0
M  V30 78 O 9.4994 1.78539 3.08225 0
M  V30 79 O 8.3584 2.51888 4.84989 0
M  V30 80 H 5.4524 0.349272 0.749625 0
M  V30 81 H 7.9984 1.31871 1.06808 0
M  V30 82 H 6.7704 2.82067 2.71208 0
M  V30 83 H 6.3934 1.42674 3.7112 0
M  V30 84 N 7.3905 -1.2043 1.01659 0
M  V30 85 C 8.3535 -2.21433 0.591616 0
M  V30 86 C 9.3535 -1.57203 -0.338226 0
M  V30 87 O 10.5435 -1.73737 -0.126918 0
M  V30 88 C 7.6755 -3.40628 -0.136058 0
M  V30 89 H 8.8685 -2.60545 1.48514 0
M  V30 90 H 6.4215 -1.33893 0.806379 0
M  V30 91 H 7.1565 -3.07019 -1.04449 0
M  V30 92 H 6.9415 -3.88475 0.531917 0
M  V30 93 H 8.4315 -4.15475 -0.420735 0
M  V30 94 N 8.8686 -0.792821 -1.36206 0
M  V30 95 C 9.8166 -0.181555 -2.3189 0
M  V30 96 C 10.8106 0.661025 -1.55971 0
M  V30 97 O 12.0166 0.555728 -1.71206 0
M  V30 98 H 8.3916 -0.0399382 -0.750939 0
M  V30 99 H 10.3626 -1.00394 -2.81005 0
M  V30 100 C 9.1116 0.666444 -3.41253 0
M  V30 101 H 8.4346 0.0274489 -3.99791 0
M  V30 102 H 9.8746 1.06076 -4.10517 0
M  V30 103 C 8.3336 1.82614 -2.83114 0
M  V30 104 O 8.8636 2.9229 -2.75553 0
M  V30 105 N 7.0696 1.63333 -2.40356 0
M  V30 106 H 6.6166 0.741217 -2.46706 0
M  V30 107 H 6.5746 2.41087 -2.01803 0
M  V30 108 N 10.3467 1.47872 -0.545128 0
M  V30 109 C 11.5927 2.02793 -0.0166104 0
M  V30 110 C 11.9257 1.41987 1.32489 0
M  V30 111 O 11.2007 0.571045 1.85928 0
M  V30 112 C 11.4837 3.59989 0.0893294 0
M  V30 113 C 11.3367 4.3125 -1.27841 0
M  V30 114 C 12.6557 4.32606 0.808724 0
M  V30 115 H 9.7747 0.736962 -0.00751035 0
M  V30 116 H 12.4167 1.76433 -0.705085 0
M  V30 117 H 10.5667 3.82579 0.675681 0
M  V30 118 H 12.2387 4.20035 -1.90704 0
M  V30 119 H 10.4817 3.92076 -1.85632 0
M  V30 120 H 11.1527 5.39736 -1.15713 0
M  V30 121 H 13.6287 4.14936 0.310992 0
M  V30 122 H 12.5047 5.42251 0.851782 0
M  V30 123 H 12.7657 4.00963 1.86229 0
M  V30 124 N 11.8248 0.280983 1.55075 0
M  V30 125 C 13.0498 -0.340154 2.04592 0
M  V30 126 C 13.4748 -1.48246 1.15779 0
M  V30 127 O 12.8328 -1.80614 0.15761 0
M  V30 128 C 12.8808 -0.793104 3.5177 0
M  V30 129 O 11.9848 -1.89981 3.66034 0
M  V30 130 H 11.3258 -0.0694289 0.66036 0
M  V30 131 H 13.8558 0.416993 2.00306 0
M  V30 132 H 13.8658 -1.08729 3.93245 0
M  V30 133 H 12.5408 0.0426163 4.15878 0
M  V30 134 H 11.1178 -1.60771 3.36463 0
M  V30 135 N 13.3029 -1.57598 0.00835791 0
M  V30 136 C 14.5279 -1.95617 -0.689103 0
M  V30 137 C 14.9529 -0.883753 -1.66046 0
M  V30 138 O 14.3109 0.157352 -1.80616 0
M  V30 139 C 14.3589 -3.32736 -1.38994 0
M  V30 140 O 13.4629 -3.27631 -2.50463 0
M  V30 141 H 12.8039 -0.638379 -0.182668 0
M  V30 142 H 15.3339 -2.045 0.064036 0
M  V30 143 H 15.3439 -3.68494 -1.75147 0
M  V30 144 H 14.0189 -4.1034 -0.677778 0
M  V30 145 H 12.5959 -3.03561 -2.16576 0
M  V30 146 N 14.781 0.264519 -1.55364 0
M  V30 147 C 15.691 1.34902 -1.91934 0
M  V30 148 C 16.707 1.53595 -0.817593 0
M  V30 149 O 17.883 1.67558 -1.11742 0
M  V30 150 C 14.948 2.68676 -2.19121 0
M  V30 151 C 14.009 2.58657 -3.4263 0
M  V30 152 C 13.242 3.86051 -3.68511 0
M  V30 153 O 13.465 4.87126 -2.96757 0
M  V30 154 O 12.399 3.85744 -4.62045 0
M  V30 155 H 16.225 1.06883 -2.8427 0
M  V30 156 H 13.81 0.463775 -1.42019 0
M  V30 157 H 15.692 3.47759 -2.37995 0
M  V30 158 H 14.367 2.96463 -1.29966 0
M  V30 159 H 13.274 1.7792 -3.29082 0
M  V30 160 H 14.607 2.35818 -4.32031 0
M  V30 161 N 16.2591 1.48442 0.529413 0
M  V30 162 C 17.1691 1.6569 1.66084 0
M  V30 163 C 18.1851 0.539432 1.65427 0
M  V30 164 O 19.3611 0.810572 1.84368 0
M  V30 165 C 16.4261 1.69315 3.02545 0
M  V30 166 C 15.4871 2.92694 3.14052 0
M  V30 167 C 14.7201 2.96137 4.44003 0
M  V30 168 O 14.9431 2.07973 5.31134 0
M  V30 169 O 13.8771 3.88312 4.59888 0
M  V30 170 H 17.7031 2.61483 1.54469 0
M  V30 171 H 15.2881 1.3185 0.702567 0
M  V30 172 H 17.1701 1.74217 3.83701 0
M  V30 173 H 15.8451 0.766966 3.14483 0
M  V30 174 H 14.7521 2.93324 2.32189 0
M  V30 175 H 16.0851 3.84699 3.0703 0
M  V30 176 N 17.7372 -0.778329 1.37039 0
M  V30 177 C 18.9852 -1.53361 1.31623 0
M  V30 178 C 19.3062 -1.94739 -0.100831 0
M  V30 179 O 18.5762 -1.65797 -1.04347 0
M  V30 180 H 17.1562 -0.568794 0.484234 0
M  V30 181 H 19.8182 -0.926742 1.71457 0
M  V30 182 H 18.9142 -2.43606 1.95096 0
M  V30 183 N 19.2153 -1.21501 -1.00376 0
M  V30 184 C 20.4623 -1.03299 -1.74171 0
M  V30 185 C 20.7903 0.433326 -1.89612 0
M  V30 186 O 20.0453 1.33779 -1.42834 0
M  V30 187 C 20.3443 -1.67673 -3.15627 0
M  V30 188 C 20.0103 -3.17533 -3.2013 0
M  V30 189 C 18.6723 -3.58427 -3.21067 0
M  V30 190 C 21.0243 -4.13504 -3.17275 0
M  V30 191 C 18.3523 -4.93794 -3.16835 0
M  V30 192 C 20.7043 -5.48834 -3.14585 0
M  V30 193 C 19.3683 -5.89123 -3.13831 0
M  V30 194 H 18.6383 -0.377999 -0.637336 0
M  V30 195 H 21.2853 -1.51111 -1.17634 0
M  V30 196 H 19.5903 -1.12158 -3.75404 0
M  V30 197 H 21.2873 -1.51091 -3.71446 0
M  V30 198 H 17.8773 -2.84965 -3.20145 0
M  V30 199 H 22.0613 -3.82936 -3.15711 0
M  V30 200 H 17.3173 -5.24255 -3.1459 0
M  V30 201 H 21.4913 -6.22934 -3.1133 0
M  V30 202 H 19.1183 -6.93984 -3.10307 0
M  V30 203 N 20.6934 1.19889 -1.02296 0
M  V30 204 C 21.9414 1.89046 -0.714558 0
M  V30 205 C 22.2624 1.79636 0.758681 0
M  V30 206 O 21.5324 1.20292 1.54618 0
M  V30 207 H 20.1124 0.699802 -0.261317 0
M  V30 208 H 22.7744 1.45574 -1.29592 0
M  V30 209 H 21.8704 2.95524 -1.0036 0
M  V30 210 N 22.1715 0.800033 1.35784 0
M  V30 211 C 23.3965 0.388511 2.03729 0
M  V30 212 C 23.8215 -0.990481 1.5991 0
M  V30 213 O 23.1795 -1.64013 0.772612 0
M  V30 214 C 23.2275 0.4726 3.5749 0
M  V30 215 O 22.3315 -0.51646 4.09153 0
M  V30 216 H 21.6725 0.163271 0.643614 0
M  V30 217 H 24.2025 1.0841 1.73518 0
M  V30 218 H 24.2125 0.34003 4.06581 0
M  V30 219 H 22.8875 1.47848 3.88734 0
M  V30 220 H 21.4645 -0.344673 3.71304 0
M  V30 221 N 23.6496 -1.47581 0.552962 0
M  V30 222 C 24.8956 -2.02782 0.0273648 0
M  V30 223 C 25.2286 -1.42687 -1.31734 0
M  V30 224 O 24.5036 -0.580897 -1.85623 0
M  V30 225 C 24.7866 -3.60031 -0.0702371 0
M  V30 226 C 24.6396 -4.30566 1.30126 0
M  V30 227 C 25.9586 -4.33028 -0.785771 0
M  V30 228 H 23.0776 -0.736912 0.0114185 0
M  V30 229 H 25.7196 -1.76056 0.714432 0
M  V30 230 H 23.8696 -3.82932 -0.655382 0
M  V30 231 H 25.5416 -4.19018 1.92929 0
M  V30 232 H 23.7846 -3.91086 1.87709 0
M  V30 233 H 24.4556 -5.39114 1.18573 0
M  V30 234 H 26.9316 -4.15095 -0.288982 0
M  V30 235 H 25.8076 -5.42695 -0.823013 0
M  V30 236 H 26.0686 -4.01945 -1.841 0
M  V30 237 N 25.1277 -0.289203 -1.54924 0
M  V30 238 C 26.0377 0.601863 -2.26748 0
M  V30 239 C 27.0537 1.15834 -1.2984 0
M  V30 240 O 28.2297 1.18564 -1.62802 0
M  V30 241 C 25.2947 1.76299 -2.98529 0
M  V30 242 C 24.3557 1.24178 -4.10948 0
M  V30 243 C 23.5887 2.34757 -4.79296 0
M  V30 244 O 23.8117 3.54411 -4.46933 0
M  V30 245 O 22.7457 2.02115 -5.66951 0
M  V30 246 H 26.5717 0.0195879 -3.03694 0
M  V30 247 H 24.1567 -0.0560868 -1.49295 0
M  V30 248 H 26.0387 2.43973 -3.43592 0
M  V30 249 H 24.7137 2.33209 -2.24488 0
M  V30 250 H 23.6207 0.531104 -3.70311 0
M  V30 251 H 24.9537 0.718252 -4.86931 0
M  V30 252 N 26.6058 1.57591 -0.0167156 0
M  V30 253 C 27.5528 2.09462 0.969251 0
M  V30 254 C 28.5228 0.99381 1.33089 0
M  V30 255 O 29.7078 1.26726 1.42636 0
M  V30 256 C 26.8478 2.61622 2.25051 0
M  V30 257 C 25.9608 3.85666 1.94642 0
M  V30 258 C 25.0958 4.26266 3.16972 0
M  V30 259 C 24.1348 5.43101 2.82326 0
M  V30 260 N 23.2718 5.78915 3.97243 0
M  V30 261 H 28.1118 2.93428 0.519997 0
M  V30 262 H 25.6488 1.45044 0.245087 0
M  V30 263 H 27.6068 2.89949 2.99976 0
M  V30 264 H 26.2368 1.80505 2.67615 0
M  V30 265 H 25.2888 3.64145 1.10013 0
M  V30 266 H 26.6008 4.70678 1.65117 0
M  V30 267 H 25.7548 4.55963 4.00228 0
M  V30 268 H 24.4938 3.39996 3.49648 0
M  V30 269 H 23.4988 5.1311 1.97479 0
M  V30 270 H 24.7238 6.3106 2.50879 0
M  V30 271 H 22.6698 4.95602 4.29785 0
M  V30 272 H 22.5868 6.58539 3.71299 0
M  V30 273 H 23.8548 6.13212 4.81239 0
M  V30 274 N 28.0839 -0.256276 1.55502 0
M  V30 275 C 29.3299 -0.987079 1.77157 0
M  V30 276 C 29.6629 -1.85327 0.580315 0
M  V30 277 O 28.9379 -1.89874 -0.421686 0
M  V30 278 C 29.2209 -1.85553 3.08613 0
M  V30 279 C 29.0739 -1.01816 4.38125 0
M  V30 280 C 30.3929 -2.8397 3.36228 0
M  V30 281 H 27.5119 -0.357428 0.644526 0
M  V30 282 H 30.1539 -0.258239 1.88237 0
M  V30 283 H 28.3039 -2.47695 2.99298 0
M  V30 284 H 29.9759 -0.416159 4.59419 0
M  V30 285 H 28.2189 -0.322178 4.32602 0
M  V30 286 H 28.8899 -1.65939 5.26468 0
M  V30 287 H 31.3659 -2.31964 3.45445 0
M  V30 288 H 30.2419 -3.41864 4.29442 0
M  V30 289 H 30.5029 -3.59955 2.56681 0
M  V30 290 N 29.562 -1.4872 -0.521534 0
M  V30 291 C 30.808 -1.574 -1.27879 0
M  V30 292 C 31.141 -0.250817 -1.92573 0
M  V30 293 O 30.416 0.743934 -1.79711 0
M  V30 294 C 30.699 -2.71843 -2.36164 0
M  V30 295 C 30.552 -4.13893 -1.76105 0
M  V30 296 C 31.871 -2.82008 -3.37875 0
M  V30 297 H 28.99 -0.572941 -0.463581 0
M  V30 298 H 31.632 -1.80927 -0.580119 0
M  V30 299 H 29.782 -2.51914 -2.95756 0
M  V30 300 H 31.454 -4.45284 -1.20499 0
M  V30 301 H 29.697 -4.20498 -1.06601 0
M  V30 302 H 30.368 -4.89804 -2.5455 0
M  V30 303 H 32.844 -3.00086 -2.88249 0
M  V30 304 H 31.72 -3.63796 -4.11028 0
M  V30 305 H 31.981 -1.90511 -3.98946 0
M  V30 306 N 31.0401 0.771051 -1.3745 0
M  V30 307 C 31.9701 1.89827 -1.3597 0
M  V30 308 C 32.9511 1.68562 -0.228216 0
M  V30 309 O 34.1361 1.8941 -0.428675 0
M  V30 310 C 31.2661 3.2712 -1.16662 0
M  V30 311 C 30.2201 3.6295 -2.2683 0
M  V30 312 C 29.5461 4.98791 -1.92644 0
M  V30 313 C 30.8461 3.69627 -3.69017 0
M  V30 314 H 32.5401 1.91323 -2.30295 0
M  V30 315 H 30.0861 0.919082 -1.10855 0
M  V30 316 H 32.0391 4.05615 -1.14256 0
M  V30 317 H 30.7631 3.26059 -0.187926 0
M  V30 318 H 29.4221 2.86763 -2.28392 0
M  V30 319 H 29.0701 4.94271 -0.933021 0
M  V30 320 H 28.7701 5.23733 -2.66416 0
M  V30 321 H 30.2941 5.79685 -1.91826 0
M  V30 322 H 31.7081 4.38273 -3.69581 0
M  V30 323 H 30.1051 4.06067 -4.41848 0
M  V30 324 H 31.1751 2.70273 -4.02592 0
M  V30 325 N 32.5182 1.22032 0.997298 0
M  V30 326 C 33.4482 1.01065 2.10495 0
M  V30 327 C 34.4292 -0.0669542 1.69968 0
M  V30 328 O 35.6142 0.0943987 1.9397 0
M  V30 329 C 32.7442 0.582874 3.42374 0
M  V30 330 C 31.6982 1.60592 3.96729 0
M  V30 331 C 31.0242 1.03412 5.24605 0
M  V30 332 C 32.3242 2.99478 4.27914 0
M  V30 333 H 34.0182 1.93708 2.28292 0
M  V30 334 H 31.5642 0.932761 1.09707 0
M  V30 335 H 33.5172 0.423332 4.19268 0
M  V30 336 H 32.2412 -0.379213 3.24391 0
M  V30 337 H 30.9002 1.75316 3.21963 0
M  V30 338 H 30.5482 0.063518 5.0296 0
M  V30 339 H 30.2482 1.71754 5.61938 0
M  V30 340 H 31.7722 0.886066 6.04137 0
M  V30 341 H 33.1862 2.88153 4.95622 0
M  V30 342 H 31.5832 3.64903 4.76409 0
M  V30 343 H 32.6532 3.49742 3.3587 0
M  V30 344 N 33.9963 -1.19345 1.0293 0
M  V30 345 C 35.2243 -1.92997 0.745644 0
M  V30 346 C 35.6393 -1.75519 -0.695589 0
M  V30 347 O 34.9963 -1.07737 -1.47306 0
M  V30 348 C 35.0473 -3.44741 1.08792 0
M  V30 349 O 34.7683 -3.61658 2.47256 0
M  V30 350 C 36.2693 -4.35515 0.827129 0
M  V30 351 H 33.4893 -0.613042 0.272801 0
M  V30 352 H 36.0333 -1.51473 1.3739 0
M  V30 353 H 34.1883 -3.84097 0.504832 0
M  V30 354 H 34.6023 -4.55514 2.60015 0
M  V30 355 H 36.0763 -5.40589 1.11658 0
M  V30 356 H 36.5533 -4.38552 -0.238436 0
M  V30 357 H 37.1593 -4.01841 1.39297 0
M  V30 358 N 35.4744 -0.807222 -1.35358 0
M  V30 359 C 36.7214 -0.387888 -1.9875 0
M  V30 360 C 37.0494 1.04509 -1.64037 0
M  V30 361 O 36.3044 1.73986 -0.895946 0
M  V30 362 C 36.6034 -0.519036 -3.53611 0
M  V30 363 C 36.2694 -1.91542 -4.08194 0
M  V30 364 C 34.9314 -2.29745 -4.22813 0
M  V30 365 C 37.2834 -2.82896 -4.37744 0
M  V30 366 C 34.6114 -3.58668 -4.643 0
M  V30 367 C 36.9634 -4.11265 -4.8067 0
M  V30 368 C 35.6274 -4.49466 -4.93494 0
M  V30 369 H 34.8974 -0.141938 -0.727279 0
M  V30 370 H 37.5444 -1.02814 -1.6156 0
M  V30 371 H 35.8494 0.204658 -3.91265 0
M  V30 372 H 37.5464 -0.175345 -4.00616 0
M  V30 373 H 34.1364 -1.60862 -3.97268 0
M  V30 374 H 38.3204 -2.54629 -4.26002 0
M  V30 375 H 33.5764 -3.88113 -4.72418 0
M  V30 376 H 37.7504 -4.82153 -5.02496 0
M  V30 377 H 35.3774 -5.49418 -5.25399 0
M  V30 378 N 36.9525 1.47285 -0.560781 0
M  V30 379 C 37.8825 2.32857 0.173105 0
M  V30 380 C 38.8635 1.44009 0.905281 0
M  V30 381 O 40.0485 1.7286 0.885046 0
M  V30 382 C 37.1785 3.25861 1.20133 0
M  V30 383 C 36.1325 4.23978 0.585388 0
M  V30 384 C 35.4585 5.06332 1.7185 0
M  V30 385 C 36.7585 5.20242 -0.463178 0
M  V30 386 H 38.4525 2.94466 -0.541307 0
M  V30 387 H 35.9985 1.41601 -0.261764 0
M  V30 388 H 37.9515 3.84569 1.72293 0
M  V30 389 H 36.6755 2.62315 1.94573 0
M  V30 390 H 35.3345 3.66501 0.085054 0
M  V30 391 H 34.9825 4.39186 2.45203 0
M  V30 392 H 34.6825 5.72762 1.31213 0
M  V30 393 H 36.2065 5.67899 2.24329 0
M  V30 394 H 37.6205 5.73293 -0.027502 0
M  V30 395 H 36.0175 5.94896 -0.788627 0
M  V30 396 H 37.0875 4.65504 -1.35773 0
M  V30 397 N 38.4306 0.297415 1.54768 0
M  V30 398 C 39.6556 -0.318435 2.04941 0
M  V30 399 C 40.0806 -1.4701 1.17345 0
M  V30 400 O 39.4386 -1.80436 0.176758 0
M  V30 401 C 39.4866 -0.755749 3.52592 0
M  V30 402 O 38.5906 -1.86088 3.68028 0
M  V30 403 H 37.9316 -0.062421 0.661059 0
M  V30 404 H 40.4616 0.438215 1.99852 0
M  V30 405 H 40.4716 -1.04552 3.94376 0
M  V30 406 H 39.1466 0.0867233 4.1581 0
M  V30 407 H 37.7236 -1.57193 3.38149 0
M  V30 408 N 39.9087 -1.5758 0.0250728 0
M  V30 409 C 41.1367 -1.9593 -0.664747 0
M  V30 410 C 41.5517 -0.901352 -1.65895 0
M  V30 411 O 40.9087 0.117255 -1.82123 0
M  V30 412 C 40.9597 -3.34342 -1.37468 0
M  V30 413 O 40.6807 -4.36079 -0.420324 0
M  V30 414 C 42.1817 -3.873 -2.1567 0
M  V30 415 H 39.4017 -0.645405 -0.183557 0
M  V30 416 H 41.9457 -2.04329 0.0836372 0
M  V30 417 H 40.1007 -3.27175 -2.0745 0
M  V30 418 H 40.5147 -5.16297 -0.923991 0
M  V30 419 H 41.9887 -4.86504 -2.60803 0
M  V30 420 H 42.4657 -3.21331 -2.99405 0
M  V30 421 H 43.0717 -3.97723 -1.50654 0
M  V30 422 N 41.3868 0.248026 -1.55636 0
M  V30 423 C 42.6328 0.97767 -1.77678 0
M  V30 424 C 42.9658 1.85016 -0.590135 0
M  V30 425 O 42.2408 1.90095 0.411611 0
M  V30 426 C 42.5238 1.83914 -3.09593 0
M  V30 427 C 42.3768 0.99491 -4.38659 0
M  V30 428 C 43.6958 2.82183 -3.37729 0
M  V30 429 H 40.8148 0.354005 -0.646413 0
M  V30 430 H 43.4568 0.248253 -1.88371 0
M  V30 431 H 41.6068 2.46104 -3.00608 0
M  V30 432 H 43.2788 0.391789 -4.59633 0
M  V30 433 H 41.5218 0.299231 -4.32767 0
M  V30 434 H 42.1928 1.63145 -5.2734 0
M  V30 435 H 44.6688 2.30129 -3.4667 0
M  V30 436 H 43.5448 3.39582 -4.31249 0
M  V30 437 H 43.8058 3.58588 -2.58586 0
M  V30 438 N 42.8649 1.48995 0.513639 0
M  V30 439 C 44.1139 1.57093 1.2651 0
M  V30 440 C 44.4269 0.257091 1.93903 0
M  V30 441 O 45.6329 0.216478 2.70636 0
M  V30 442 C 44.0889 2.77118 2.29638 0
M  V30 443 C 43.6969 4.15209 1.68241 0
M  V30 444 C 45.4409 2.94538 3.05692 0
M  V30 445 C 43.3479 5.26474 2.69406 0
M  V30 446 H 42.2779 0.584876 0.475854 0
M  V30 447 H 44.9289 1.7536 0.540487 0
M  V30 448 H 43.3109 2.52319 3.05207 0
M  V30 449 H 44.4849 4.50094 0.987505 0
M  V30 450 H 42.7999 4.03042 1.04623 0
M  V30 451 H 45.3969 3.74832 3.8132 0
M  V30 452 H 45.7399 2.04614 3.62545 0
M  V30 453 H 46.2729 3.19316 2.37238 0
M  V30 454 H 43.0119 6.18417 2.17351 0
M  V30 455 H 42.5319 4.96058 3.37175 0
M  V30 456 H 44.2109 5.55277 3.32078 0
M  V30 457 N 44.343 -0.763751 1.37857 0
M  V30 458 C 45.273 -1.89103 1.36975 0
M  V30 459 C 46.254 -1.68439 0.237152 0
M  V30 460 O 47.439 -1.8918 0.438713 0
M  V30 461 C 44.569 -3.26496 1.18395 0
M  V30 462 C 43.523 -3.61741 2.28751 0
M  V30 463 C 42.849 -4.97762 1.95286 0
M  V30 464 C 44.149 -3.67665 3.70972 0
M  V30 465 H 45.843 -1.90099 2.31307 0
M  V30 466 H 43.389 -0.91319 1.11341 0
M  V30 467 H 45.342 -4.05003 1.16406 0
M  V30 468 H 44.066 -3.25955 0.205215 0
M  V30 469 H 42.725 -2.85547 2.29909 0
M  V30 470 H 42.373 -4.93769 0.959221 0
M  V30 471 H 42.073 -5.22313 2.69189 0
M  V30 472 H 43.597 -5.7866 1.94898 0
M  V30 473 H 45.011 -4.36307 3.719 0
M  V30 474 H 43.408 -4.03718 4.43995 0
M  V30 475 H 44.478 -2.68134 4.0402 0
M  V30 476 N 45.8211 -1.22559 -0.990812 0
M  V30 477 C 46.7541 -0.940773 -2.07905 0
M  V30 478 C 47.7321 0.117082 -1.62178 0
M  V30 479 O 48.9161 -0.0149506 -1.88494 0
M  V30 480 C 46.0431 -0.415321 -3.36144 0
M  V30 481 C 45.0891 -1.45818 -4.00799 0
M  V30 482 S 45.9221 -3.03219 -4.41382 0
M  V30 483 C 47.0781 -2.52317 -5.72789 0
M  V30 484 H 47.3111 -1.8623 -2.31745 0
M  V30 485 H 44.8441 -1.05688 -1.12558 0
M  V30 486 H 46.8021 -0.118747 -4.10328 0
M  V30 487 H 45.4631 0.485121 -3.10331 0
M  V30 488 H 44.6561 -1.04044 -4.93144 0
M  V30 489 H 44.2581 -1.70356 -3.32949 0
M  V30 490 H 46.5501 -1.93688 -6.49224 0
M  V30 491 H 47.4931 -3.43161 -6.19392 0
M  V30 492 H 47.9011 -1.93529 -5.30289 0
M  V30 493 N 47.2992 1.18797 -1.03562 0
M  V30 494 C 48.2622 2.20464 -0.626769 0
M  V30 495 C 49.2622 1.57721 0.313173 0
M  V30 496 O 50.4522 1.73917 0.0992615 0
M  V30 497 C 47.5842 3.40802 0.0818498 0
M  V30 498 H 48.7772 2.58149 -1.5264 0
M  V30 499 H 46.3302 1.32593 -0.827578 0
M  V30 500 H 47.0652 3.08642 0.995518 0
M  V30 501 H 46.8502 3.8758 -0.593652 0
M  V30 502 H 48.3402 4.16092 0.354584 0
M  V30 503 N 48.7773 0.814389 1.34928 0
M  V30 504 C 50.0263 0.394871 1.97797 0
M  V30 505 C 50.3393 -1.04555 1.65311 0
M  V30 506 O 51.5453 -1.56856 2.21604 0
M  V30 507 C 50.0013 0.655103 3.53888 0
M  V30 508 C 49.6093 2.10858 3.95276 0
M  V30 509 C 51.3533 0.301329 4.23429 0
M  V30 510 C 49.2603 2.31415 5.44244 0
M  V30 511 H 48.1903 0.143913 0.740139 0
M  V30 512 H 50.8413 0.999544 1.53888 0
M  V30 513 H 49.2233 -0.0196253 3.95995 0
M  V30 514 H 50.3973 2.82176 3.64298 0
M  V30 515 H 48.7123 2.42297 3.38646 0
M  V30 516 H 51.3093 0.432869 5.32945 0
M  V30 517 H 51.6523 -0.75331 4.09428 0
M  V30 518 H 52.1853 0.930288 3.86769 0
M  V30 519 H 48.9243 3.35353 5.63222 0
M  V30 520 H 48.4443 1.6463 5.76764 0
M  V30 521 H 50.1233 2.13352 6.10811 0
M  V30 522 N 50.2554 -1.46986 0.568584 0
M  V30 523 C 51.1854 -2.32946 -0.160753 0
M  V30 524 C 52.1664 -1.44487 -0.897631 0
M  V30 525 O 53.3514 -1.73327 -0.875867 0
M  V30 526 C 50.4814 -3.26494 -1.18403 0
M  V30 527 C 49.4354 -4.24282 -0.562895 0
M  V30 528 C 48.7614 -5.07236 -1.69163 0
M  V30 529 C 50.0614 -5.19989 0.490761 0
M  V30 530 H 51.7554 -2.94175 0.556916 0
M  V30 531 H 49.3014 -1.4146 0.26927 0
M  V30 532 H 51.2544 -3.85477 -1.70251 0
M  V30 533 H 49.9784 -2.63343 -1.93179 0
M  V30 534 H 48.6374 -3.66541 -0.0656164 0
M  V30 535 H 48.2854 -4.4048 -2.42871 0
M  V30 536 H 47.9854 -5.7345 -1.28174 0
M  V30 537 H 49.5094 -5.6908 -2.21314 0
M  V30 538 H 50.9234 -5.73271 0.0579047 0
M  V30 539 H 49.3204 -5.94469 0.820165 0
M  V30 540 H 50.3904 -4.64777 1.3824 0
M  V30 541 N 51.7335 -0.305618 -1.54608 0
M  V30 542 C 52.9815 0.301701 -1.99835 0
M  V30 543 C 53.3025 1.54054 -1.19551 0
M  V30 544 O 52.5725 1.93702 -0.292658 0
M  V30 545 H 51.1525 0.114468 -0.738178 0
M  V30 546 H 53.8145 -0.418016 -1.90364 0
M  V30 547 H 52.9105 0.570548 -3.06841 0
M  V30 548 N 53.2116 1.57565 -0.0334293 0
M  V30 549 C 54.1596 2.1164 0.96496 0
M  V30 550 C 55.1536 1.04398 1.33407 0
M  V30 551 O 56.3596 1.22828 1.3158 0
M  V30 552 H 52.7346 0.676222 0.32898 0
M  V30 553 H 54.7056 2.94455 0.483614 0
M  V30 554 C 53.4546 2.66207 2.23672 0
M  V30 555 H 52.7776 3.48378 1.96145 0
M  V30 556 H 54.2176 3.07685 2.9173 0
M  V30 557 C 52.6766 1.59151 2.96939 0
M  V30 558 O 53.2066 0.993858 3.89211 0
M  V30 559 N 51.4126 1.31093 2.59351 0
M  V30 560 H 50.9596 1.7988 1.84393 0
M  V30 561 H 50.9176 0.596889 3.08682 0
M  V30 562 N 54.6897 -0.239769 1.55765 0
M  V30 563 C 55.6197 -1.30052 1.9393 0
M  V30 564 C 56.6007 -1.49839 0.805132 0
M  V30 565 O 57.7857 -1.62328 1.06599 0
M  V30 566 C 54.9157 -2.65391 2.2402 0
M  V30 567 C 53.8697 -2.60289 3.39755 0
M  V30 568 C 53.1957 -3.99489 3.55405 0
M  V30 569 C 54.4957 -2.16654 4.75246 0
M  V30 570 H 56.1897 -0.983573 2.82783 0
M  V30 571 H 53.7357 -0.471701 1.36055 0
M  V30 572 H 55.6887 -3.3974 2.49308 0
M  V30 573 H 54.4127 -2.98736 1.32 0
M  V30 574 H 53.0717 -1.88398 3.14487 0
M  V30 575 H 52.7197 -4.30112 2.60793 0
M  V30 576 H 52.4197 -3.96962 4.33238 0
M  V30 577 H 53.9437 -4.75528 3.83022 0
M  V30 578 H 55.3577 -2.80737 4.99859 0
M  V30 579 H 53.7547 -2.25223 5.56232 0
M  V30 580 H 54.8247 -1.11835 4.71827 0
M  V30 581 N 56.1678 -1.49265 -0.50573 0
M  V30 582 C 57.0978 -1.68495 -1.61653 0
M  V30 583 C 58.0788 -0.53366 -1.61512 0
M  V30 584 O 59.2638 -0.76897 -1.78327 0
M  V30 585 C 56.3938 -1.74709 -3.00157 0
M  V30 586 C 55.3478 -2.89581 -3.15162 0
M  V30 587 C 54.6738 -2.80903 -4.5497 0
M  V30 588 C 55.9738 -4.30578 -2.95634 0
M  V30 589 H 57.6678 -2.61493 -1.45814 0
M  V30 590 H 55.2138 -1.25838 -0.70005 0
M  V30 591 H 57.1668 -1.86748 -3.77761 0
M  V30 592 H 55.8908 -0.783067 -3.17074 0
M  V30 593 H 54.5498 -2.77136 -2.39982 0
M  V30 594 H 54.1978 -1.82419 -4.68756 0
M  V30 595 H 53.8978 -3.57999 -4.65951 0
M  V30 596 H 55.4218 -2.94944 -5.34641 0
M  V30 597 H 56.8358 -4.4373 -3.63011 0
M  V30 598 H 55.2328 -5.0886 -3.18091 0
M  V30 599 H 56.3028 -4.45352 -1.91806 0
M  V30 600 N 57.6459 0.756429 -1.3826 0
M  V30 601 C 58.8919 1.51772 -1.34511 0
M  V30 602 C 59.2249 1.94089 0.0656691 0
M  V30 603 O 58.4999 1.65221 1.02626 0
M  V30 604 C 58.7829 2.77226 -2.29821 0
M  V30 605 C 58.6359 2.41065 -3.79747 0
M  V30 606 C 59.9549 3.79236 -2.23312 0
M  V30 607 H 57.0739 0.550578 -0.489931 0
M  V30 608 H 59.7159 0.866607 -1.69086 0
M  V30 609 H 57.8659 3.32784 -2.00467 0
M  V30 610 H 59.5379 1.91303 -4.19763 0
M  V30 611 H 57.7809 1.7356 -3.97567 0
M  V30 612 H 58.4519 3.3081 -4.41892 0
M  V30 613 H 60.9279 3.3321 -2.49219 0
M  V30 614 H 59.8039 4.64714 -2.92116 0
M  V30 615 H 60.0649 4.24615 -1.23102 0
M  V30 616 N 59.124 1.23083 0.984299 0
M  V30 617 C 60.057 0.951786 2.07404 0
M  V30 618 C 61.035 -0.10848 1.62238 0
M  V30 619 O 62.219 0.0249467 1.88483 0
M  V30 620 C 59.346 0.433142 3.35919 0
M  V30 621 C 58.392 1.47941 4.0002 0
M  V30 622 S 59.225 3.05556 4.39768 0
M  V30 623 C 60.381 2.55351 5.71442 0
M  V30 624 H 60.614 1.87456 2.30754 0
M  V30 625 H 58.147 1.06284 1.11996 0
M  V30 626 H 60.105 0.140506 4.10259 0
M  V30 627 H 58.766 -0.468656 3.10584 0
M  V30 628 H 57.959 1.06658 4.92585 0
M  V30 629 H 57.561 1.7212 3.3204 0
M  V30 630 H 59.853 1.97128 6.48187 0
M  V30 631 H 60.796 3.46441 6.17563 0
M  V30 632 H 61.204 1.96339 5.29255 0
M  V30 633 N 60.6021 -1.18246 1.0419 0
M  V30 634 C 61.8481 -1.88536 0.747122 0
M  V30 635 C 62.1811 -1.80223 -0.723409 0
M  V30 636 O 61.4561 -1.20337 -1.52804 0
M  V30 637 C 61.7391 -3.38968 1.21544 0
M  V30 638 C 61.5921 -3.56084 2.74816 0
M  V30 639 C 62.9111 -4.32648 0.806482 0
M  V30 640 H 60.0301 -0.684619 0.272883 0
M  V30 641 H 62.6721 -1.39113 1.29413 0
M  V30 642 H 60.8221 -3.8119 0.750081 0
M  V30 643 H 62.4941 -3.22946 3.29399 0
M  V30 644 H 60.7371 -2.98699 3.14582 0
M  V30 645 H 61.4081 -4.61639 3.02644 0
M  V30 646 H 63.8841 -3.98211 1.20695 0
M  V30 647 H 62.7601 -5.36462 1.1619 0
M  V30 648 H 63.0211 -4.41146 -0.29029 0
M  V30 649 N 62.0802 -0.821533 -1.34494 0
M  V30 650 C 63.0432 -0.247847 -2.27856 0
M  V30 651 C 64.0432 0.573453 -1.50227 0
M  V30 652 O 65.2332 0.389759 -1.69784 0
M  V30 653 C 62.3652 0.652698 -3.34593 0
M  V30 654 H 63.5582 -1.07146 -2.80107 0
M  V30 655 H 61.1112 -0.593291 -1.44602 0
M  V30 656 H 61.8462 1.49943 -2.87555 0
M  V30 657 H 61.6312 0.065292 -3.92046 0
M  V30 658 H 63.1212 1.04793 -4.04238 0
M  V30 659 N 63.5583 1.46682 -0.576371 0
M  V30 660 C 64.8043 2.02712 -0.0596221 0
M  V30 661 C 65.1373 1.44765 1.29448 0
M  V30 662 O 64.4123 0.610355 1.84675 0
M  V30 663 C 64.6953 3.60098 0.0129503 0
M  V30 664 C 64.5483 4.28441 -1.3696 0
M  V30 665 C 65.8673 4.34224 0.71678 0
M  V30 666 H 62.9863 0.736637 -0.0231407 0
M  V30 667 H 65.6283 1.74898 -0.742351 0
M  V30 668 H 63.7783 3.83926 0.594378 0
M  V30 669 H 65.4503 4.15896 -1.9957 0
M  V30 670 H 63.6933 3.8805 -1.93907 0
M  V30 671 H 64.3643 5.3716 -1.27135 0
M  V30 672 H 66.8403 4.15503 0.222908 0
M  V30 673 H 65.7163 5.43936 0.73657 0
M  V30 674 H 65.9773 4.04823 1.77682 0
M  V30 675 N 65.0364 0.313813 1.54444 0
M  V30 676 C 66.2764 -0.292389 2.02298 0
M  V30 677 C 66.6404 -1.50105 1.19719 0
M  V30 678 O 67.8414 -2.17947 1.5733 0
M  V30 679 C 66.1124 -0.627682 3.51845 0
M  V30 680 S 67.6714 -1.21493 4.21646 0
M  V30 681 H 64.4894 -0.0890247 0.705405 0
M  V30 682 H 67.0914 0.444668 1.90376 0
M  V30 683 H 65.7954 0.260265 4.09574 0
M  V30 684 H 65.3264 -1.39519 3.67829 0
M  V30 685 H 67.3414 -2.5022 4.28491 0
M  V30 686 N 66.5145 -1.57545 0.0417849 0
M  V30 687 C 67.7605 -1.93424 -0.629168 0
M  V30 688 C 68.1155 -0.919564 -1.69002 0
M  V30 689 O 67.4085 0.0626178 -1.91498 0
M  V30 690 C 67.6025 -3.33794 -1.27735 0
M  V30 691 C 67.4315 -4.48822 -0.280806 0
M  V30 692 C 66.2015 -5.05148 0.123869 0
M  V30 693 C 68.3995 -5.12148 0.470012 0
M  V30 694 N 66.3815 -6.03703 1.11426 0
M  V30 695 C 67.7525 -6.05921 1.31377 0
M  V30 696 C 69.8075 -4.95078 0.529343 0
M  V30 697 C 68.5105 -6.84459 2.21152 0
M  V30 698 C 70.5365 -5.74235 1.41448 0
M  V30 699 C 69.8985 -6.67634 2.24598 0
M  V30 700 H 65.9975 -0.755418 -0.202158 0
M  V30 701 H 68.5815 -1.94378 0.111923 0
M  V30 702 H 66.7525 -3.33635 -1.98852 0
M  V30 703 H 68.4845 -3.56988 -1.90635 0
M  V30 704 H 65.2395 -4.72923 -0.253178 0
M  V30 705 H 65.6635 -6.57674 1.60607 0
M  V30 706 H 70.3055 -4.22683 -0.0992798 0
M  V30 707 H 68.0235 -7.56151 2.85063 0
M  V30 708 H 71.6095 -5.63057 1.46484 0
M  V30 709 H 70.4895 -7.27817 2.9198 0
M  V30 710 N 67.9926 0.231505 -1.5589 0
M  V30 711 C 69.2696 0.981096 -1.69215 0
M  V30 712 C 69.6496 2.02799 -0.586164 0
M  V30 713 O 68.9976 2.24823 0.408253 0
M  V30 714 C 69.2076 1.60054 -3.10135 0
M  V30 715 C 70.5556 2.09658 -3.69227 0
M  V30 716 O 71.5796 1.69967 -3.13033 0
M  V30 717 O 70.4386 2.8258 -4.67772 0
M  V30 718 H 67.5326 0.457653 -0.688827 0
M  V30 719 H 70.0786 0.224073 -1.68214 0
M  V30 720 H 68.8506 0.844105 -3.82087 0
M  V30 721 H 68.4736 2.42336 -3.15212 0
M  V30 722 N 69.4707 1.49531 0.497807 0
M  V30 723 C 70.8867 1.36365 0.829266 0
M  V30 724 C 71.0867 0.399184 1.97506 0
M  V30 725 O 70.1427 -0.167977 2.51941 0
M  V30 726 C 71.4557 2.77153 1.16647 0
M  V30 727 C 73.0037 2.85877 1.27449 0
M  V30 728 C 73.4787 4.2744 1.64497 0
M  V30 729 N 74.9697 4.30265 1.7154 0
M  V30 730 C 75.7047 5.3677 2.01656 0
M  V30 731 N 75.2007 6.53516 2.29976 0
M  V30 732 N 76.9937 5.24189 2.02934 0
M  V30 733 H 69.1447 2.10831 -0.257703 0
M  V30 734 H 71.4077 0.946534 -0.0527091 0
M  V30 735 H 71.1137 3.49442 0.397872 0
M  V30 736 H 70.9877 3.12722 2.10915 0
M  V30 737 H 73.3747 2.13824 2.0338 0
M  V30 738 H 73.4557 2.53887 0.312244 0
M  V30 739 H 73.0997 5.00021 0.891151 0
M  V30 740 H 73.0297 4.56896 2.61827 0
M  V30 741 H 75.5207 3.4607 1.51802 0
M  V30 742 H 75.8337 7.30506 2.52153 0
M  V30 743 H 74.1787 6.56737 2.27425 0
M  V30 744 H 77.3697 4.31988 1.80289 0
M  V30 745 H 77.5427 6.07286 2.26071 0
M  V30 746 N 70.9488 -0.749086 1.3866 0
M  V30 747 C 71.8808 -1.87273 1.32142 0
M  V30 748 C 72.8938 -1.61127 0.232787 0
M  V30 749 O 74.0828 -1.71623 0.49069 0
M  V30 750 C 71.1828 -3.23005 1.02571 0
M  V30 751 C 70.3558 -3.7662 2.22433 0
M  V30 752 C 69.4148 -4.90879 1.89537 0
M  V30 753 O 68.4408 -5.05276 2.62078 0
M  V30 754 N 69.6428 -5.74198 0.853031 0
M  V30 755 H 72.4078 -1.93373 2.28969 0
M  V30 756 H 69.9688 -0.929216 1.32579 0
M  V30 757 H 71.9608 -3.96992 0.786085 0
M  V30 758 H 70.5308 -3.12262 0.145249 0
M  V30 759 H 69.7508 -2.94147 2.62434 0
M  V30 760 H 71.0388 -4.09173 3.02415 0
M  V30 761 H 70.4368 -5.6514 0.25155 0
M  V30 762 H 68.9938 -6.48313 0.67329 0
M  V30 763 N 72.4269 -1.23603 -0.977757 0
M  V30 764 C 73.3569 -1.04401 -2.0886 0
M  V30 765 C 74.3379 0.0399052 -1.70053 0
M  V30 766 O 75.5229 -0.125246 -1.93796 0
M  V30 767 C 72.6529 -0.637269 -3.41403 0
M  V30 768 C 71.6069 -1.66883 -3.94124 0
M  V30 769 C 70.9329 -1.11745 -5.22893 0
M  V30 770 C 72.2329 -3.06247 -4.23096 0
M  V30 771 H 73.9269 -1.97316 -2.25182 0
M  V30 772 H 71.4729 -0.950096 -1.08209 0
M  V30 773 H 73.4259 -0.48998 -4.18542 0
M  V30 774 H 72.1499 0.327557 -3.24953 0
M  V30 775 H 70.8089 -1.80416 -3.19133 0
M  V30 776 H 70.4569 -0.143527 -5.02795 0
M  V30 777 H 70.1569 -1.80672 -5.59134 0
M  V30 778 H 71.6809 -0.982067 -6.02651 0
M  V30 779 H 73.0949 -2.96001 -4.90975 0
M  V30 780 H 71.4919 -3.72436 -4.70544 0
M  V30 781 H 72.5619 -3.55041 -3.30263 0
M  V30 782 N 73.905 1.17692 -1.04816 0
M  V30 783 C 75.321 1.39863 -0.768794 0
M  V30 784 C 75.521 1.91118 0.638451 0
M  V30 785 O 74.577 2.10036 1.40146 0
M  V30 786 C 75.89 2.39274 -1.82122 0
M  V30 787 C 77.438 2.52987 -1.843 0
M  V30 788 C 77.913 3.55669 -2.88555 0
M  V30 789 N 79.404 3.63183 -2.87493 0
M  V30 790 C 80.139 4.42381 -3.64811 0
M  V30 791 N 79.635 5.25125 -4.51903 0
M  V30 792 N 81.428 4.37217 -3.53267 0
M  V30 793 H 73.579 0.82752 -1.95617 0
M  V30 794 H 75.842 0.426123 -0.846831 0
M  V30 795 H 75.548 2.08678 -2.83102 0
M  V30 796 H 75.422 3.38725 -1.65967 0
M  V30 797 H 77.809 2.82896 -0.839869 0
M  V30 798 H 77.89 1.53623 -2.04532 0
M  V30 799 H 77.534 3.26499 -3.89051 0
M  V30 800 H 77.464 4.54728 -2.65575 0
M  V30 801 H 79.955 3.04103 -2.24343 0
M  V30 802 H 80.268 5.82728 -5.07591 0
M  V30 803 H 78.613 5.24519 -4.55966 0
M  V30 804 H 81.804 3.71626 -2.84625 0
M  V30 805 H 81.977 4.98696 -4.13771 0
M  V30 806 N 75.3831 0.828654 1.34056 0
M  V30 807 C 76.3301 0.252567 2.29414 0
M  V30 808 C 77.3001 -0.62588 1.53857 0
M  V30 809 O 78.4851 -0.566312 1.82202 0
M  V30 810 C 75.6251 -0.574831 3.40279 0
M  V30 811 C 74.7381 0.326499 4.30764 0
M  V30 812 C 73.8731 -0.511016 5.28736 0
M  V30 813 C 72.9121 0.389342 6.1086 0
M  V30 814 N 72.0491 -0.409439 7.00905 0
M  V30 815 H 76.8891 1.07108 2.78086 0
M  V30 816 H 74.4261 0.539677 1.36843 0
M  V30 817 H 76.3841 -1.06992 4.03248 0
M  V30 818 H 75.0141 -1.35841 2.92826 0
M  V30 819 H 74.0661 0.939837 3.68607 0
M  V30 820 H 75.3781 1.01857 4.88289 0
M  V30 821 H 74.5321 -1.07035 5.97184 0
M  V30 822 H 73.2711 -1.23657 4.71763 0
M  V30 823 H 72.2761 0.960769 5.4134 0
M  V30 824 H 73.5011 1.1131 6.69916 0
M  V30 825 H 71.4471 -1.11856 6.46393 0
M  V30 826 H 71.3641 0.224126 7.55668 0
M  V30 827 H 72.6321 -0.951336 7.73673 0
M  V30 828 N 76.8612 -1.46375 0.584142 0
M  V30 829 C 78.1102 -2.01585 0.0679741 0
M  V30 830 C 78.4232 -1.46109 -1.30045 0
M  V30 831 O 79.6292 -1.93148 -1.90804 0
M  V30 832 C 78.0852 -3.5983 0.0709207 0
M  V30 833 C 77.6932 -4.24303 1.43775 0
M  V30 834 C 79.4372 -4.22693 -0.391228 0
M  V30 835 C 77.3442 -5.74631 1.39834 0
M  V30 836 H 76.2742 -0.753689 0.0216421 0
M  V30 837 H 78.9252 -1.68093 0.736001 0
M  V30 838 H 77.3072 -3.90405 -0.663299 0
M  V30 839 H 78.4812 -4.05335 2.19181 0
M  V30 840 H 76.7962 -3.73539 1.84004 0
M  V30 841 H 79.3932 -5.3289 -0.439524 0
M  V30 842 H 79.7362 -3.91728 -1.40906 0
M  V30 843 H 80.2692 -3.96749 0.288974 0
M  V30 844 H 77.0082 -6.10258 2.39303 0
M  V30 845 H 76.5282 -5.95858 0.686505 0
M  V30 846 H 78.2072 -6.37375 1.11187 0
M  V30 847 N 78.3393 -0.321999 -1.54275 0
M  V30 848 C 79.2863 0.544664 -2.24281 0
M  V30 849 C 80.2563 1.1129 -1.23303 0
M  V30 850 O 81.4413 1.15354 -1.51981 0
M  V30 851 C 78.5813 1.70045 -3.00298 0
M  V30 852 C 77.6943 1.16159 -4.1609 0
M  V30 853 C 76.8293 2.28293 -4.79641 0
M  V30 854 C 75.8683 1.71648 -5.8754 0
M  V30 855 N 75.0053 2.77438 -6.44959 0
M  V30 856 H 79.8453 -0.0588907 -2.97942 0
M  V30 857 H 77.3823 -0.0408345 -1.47043 0
M  V30 858 H 79.3403 2.38054 -3.42616 0
M  V30 859 H 77.9703 2.27531 -2.28975 0
M  V30 860 H 77.0223 0.373092 -3.78566 0
M  V30 861 H 78.3343 0.707087 -4.93763 0
M  V30 862 H 77.4883 3.0421 -5.2492 0
M  V30 863 H 76.2273 2.77079 -4.01346 0
M  V30 864 H 75.2323 0.942282 -5.41665 0
M  V30 865 H 76.4573 1.23741 -6.67731 0
M  V30 866 H 74.4033 3.25519 -5.69538 0
M  V30 867 H 74.3203 2.36547 -7.1804 0
M  V30 868 H 75.5883 3.53189 -6.94894 0
M  V30 869 N 79.8174 1.5752 -0.0501392 0
M  V30 870 C 81.0454 1.96963 0.633492 0
M  V30 871 C 81.4604 0.927631 1.6444 0
M  V30 872 O 80.8174 -0.0882665 1.82286 0
M  V30 873 C 80.8684 3.36487 1.32132 0
M  V30 874 O 80.5894 4.36693 0.350894 0
M  V30 875 C 82.0904 3.90682 2.09481 0
M  V30 876 H 79.3104 0.648244 0.173266 0
M  V30 877 H 81.8544 2.0417 -0.116134 0
M  V30 878 H 80.0094 3.30434 2.02218 0
M  V30 879 H 80.4234 5.17702 0.841735 0
M  V30 880 H 81.8974 4.90591 2.5303 0
M  V30 881 H 82.3744 3.26053 2.94255 0
M  V30 882 H 82.9804 4.00069 1.44307 0
M  V30 883 N 81.2955 -0.223234 1.56011 0
M  V30 884 C 82.2435 -1.29627 1.93131 0
M  V30 885 C 83.2375 -1.48608 0.813146 0
M  V30 886 O 84.4435 -1.49802 0.997966 0
M  V30 887 H 80.8185 -0.434563 0.613726 0
M  V30 888 H 82.7895 -0.955995 2.82672 0
M  V30 889 C 81.5385 -2.63983 2.26292 0
M  V30 890 H 80.8615 -2.50185 3.11846 0
M  V30 891 H 82.3015 -3.3788 2.56151 0
M  V30 892 C 80.7605 -3.18866 1.08747 0
M  V30 893 O 81.2905 -4.00192 0.347727 0
M  V30 894 N 79.4965 -2.77217 0.871743 0
M  V30 895 H 79.0435 -2.1119 1.47501 0
M  V30 896 H 79.0015 -3.1428 0.0869905 0
M  V30 897 N 82.7736 -1.49793 -0.48987 0
M  V30 898 C 84.0036 -1.6333 -1.26518 0
M  V30 899 C 84.4116 -0.308392 -1.8667 0
M  V30 900 O 83.7546 0.717512 -1.69108 0
M  V30 901 C 83.8166 -2.6522 -2.4269 0
M  V30 902 C 83.4806 -4.09279 -2.03321 0
M  V30 903 C 84.4776 -4.95738 -1.56652 0
M  V30 904 C 82.1626 -4.55082 -2.12616 0
M  V30 905 C 84.1566 -6.26041 -1.19795 0
M  V30 906 C 81.8436 -5.85396 -1.75371 0
M  V30 907 C 82.8416 -6.707 -1.29036 0
M  V30 908 O 82.5296 -7.98584 -0.92299 0
M  V30 909 H 82.2616 -0.552502 -0.389509 0
M  V30 910 H 84.8156 -1.96642 -0.593381 0
M  V30 911 H 83.0456 -2.27112 -3.12981 0
M  V30 912 H 84.7346 -2.68171 -3.04695 0
M  V30 913 H 85.5006 -4.61575 -1.48908 0
M  V30 914 H 81.3796 -3.88844 -2.47631 0
M  V30 915 H 84.9236 -6.92578 -0.835582 0
M  V30 916 H 80.8206 -6.19085 -1.82768 0
M  V30 917 H 81.5886 -8.11692 -1.05349 0
M  V30 918 N 84.2517 0.741722 -1.39055 0
M  V30 919 C 85.4987 1.50114 -1.35912 0
M  V30 920 C 85.8267 1.94443 0.0470937 0
M  V30 921 O 85.0817 1.66612 1.02659 0
M  V30 922 C 85.3807 2.7592 -2.27163 0
M  V30 923 C 85.0467 2.50493 -3.74919 0
M  V30 924 C 83.7087 2.43267 -4.1518 0
M  V30 925 C 86.0607 2.28585 -4.684 0
M  V30 926 C 83.3887 2.12166 -5.46994 0
M  V30 927 C 85.7407 1.99002 -6.00484 0
M  V30 928 C 84.4047 1.90241 -6.39816 0
M  V30 929 H 83.6747 0.549306 -0.497336 0
M  V30 930 H 86.3217 0.851896 -1.71508 0
M  V30 931 H 84.6267 3.45553 -1.84663 0
M  V30 932 H 86.3237 3.33923 -2.22028 0
M  V30 933 H 82.9137 2.56992 -3.43006 0
M  V30 934 H 87.0977 2.33139 -4.38132 0
M  V30 935 H 82.3537 2.03901 -5.76398 0
M  V30 936 H 86.5277 1.81057 -6.72452 0
M  V30 937 H 84.1547 1.65907 -7.41875 0
M  V30 938 N 85.7298 1.2412 0.971189 0
M  V30 939 C 86.9788 1.07284 1.70801 0
M  V30 940 C 87.2918 -0.388902 1.91695 0
M  V30 941 O 88.4978 -0.677379 2.62914 0
M  V30 942 C 86.9538 1.87145 3.07416 0
M  V30 943 C 86.5618 3.37707 2.94377 0
M  V30 944 C 88.3058 1.78828 3.84995 0
M  V30 945 C 86.2128 4.09925 4.26281 0
M  V30 946 H 85.1428 0.397854 0.64049 0
M  V30 947 H 87.7938 1.4817 1.0825 0
M  V30 948 H 86.1758 1.39071 3.70777 0
M  V30 949 H 87.3498 3.93335 2.4005 0
M  V30 950 H 85.6648 3.46938 2.30267 0
M  V30 951 H 88.2618 2.30089 4.82662 0
M  V30 952 H 88.6048 0.75284 4.09436 0
M  V30 953 H 89.1378 2.24563 3.28354 0
M  V30 954 H 85.8768 5.13813 4.07033 0
M  V30 955 H 85.3968 3.59083 4.80437 0
M  V30 956 H 87.0758 4.1673 4.94919 0
M  V30 957 N 87.2079 -1.17134 1.05439 0
M  V30 958 C 88.4539 -1.87733 0.767077 0
M  V30 959 C 88.7869 -1.8098 -0.704253 0
M  V30 960 O 88.0619 -1.21951 -1.5152 0
M  V30 961 C 88.3449 -3.37659 1.25133 0
M  V30 962 C 88.1979 -3.53149 2.78578 0
M  V30 963 C 89.5169 -4.31768 0.852324 0
M  V30 964 H 86.6359 -0.681687 0.280129 0
M  V30 965 H 89.2779 -1.37732 1.30881 0
M  V30 966 H 87.4279 -3.80373 0.790469 0
M  V30 967 H 89.0999 -3.19434 3.32806 0
M  V30 968 H 87.3429 -2.95345 3.17732 0
M  V30 969 H 88.0139 -4.58403 3.07523 0
M  V30 970 H 90.4899 -3.96909 1.24911 0
M  V30 971 H 89.3659 -5.35199 1.21873 0
M  V30 972 H 89.6269 -4.41429 -0.243485 0
M  V30 973 N 88.686 -0.835752 -1.33615 0
M  V30 974 C 89.911 -0.442389 -2.02627 0
M  V30 975 C 90.336 0.947735 -1.62479 0
M  V30 976 O 89.694 1.61907 -0.815826 0
M  V30 977 C 89.742 -0.567216 -3.56111 0
M  V30 978 O 88.846 0.407799 -4.10379 0
M  V30 979 H 88.187 -0.180278 -0.639059 0
M  V30 980 H 90.717 -1.12972 -1.70583 0
M  V30 981 H 90.727 -0.447708 -4.05536 0
M  V30 982 H 89.402 -1.58103 -3.84677 0
M  V30 983 H 87.979 0.246107 -3.72087 0
M  V30 984 N 90.1641 1.46063 -0.591896 0
M  V30 985 C 91.0941 2.33172 0.123673 0
M  V30 986 C 92.0751 1.45897 0.87453 0
M  V30 987 O 93.2601 1.74698 0.848181 0
M  V30 988 C 90.3901 3.28336 1.13194 0
M  V30 989 C 89.3441 4.25124 0.495324 0
M  V30 990 C 88.6701 5.09863 1.61071 0
M  V30 991 C 89.9701 5.19143 -0.573425 0
M  V30 992 H 91.6641 2.93252 -0.603646 0
M  V30 993 H 89.2101 1.41014 -0.291741 0
M  V30 994 H 91.1631 3.88137 1.64097 0
M  V30 995 H 89.8871 2.66383 1.88965 0
M  V30 996 H 88.5461 3.66599 0.00729452 0
M  V30 997 H 88.1941 4.44288 2.35832 0
M  V30 998 H 87.8941 5.75417 1.19035 0
M  V30 999 H 89.4181 5.72529 2.12233 0
M  V30 1000 H 90.8321 5.73106 -0.1491 0
M  V30 1001 H 89.2291 5.93089 -0.914636 0
M  V30 1002 H 90.2991 4.62519 -1.45617 0
M  V30 1003 N 91.6422 0.330177 1.54103 0
M  V30 1004 C 92.6052 -0.520144 2.2322 0
M  V30 1005 C 93.6052 -1.03828 1.22786 0
M  V30 1006 O 94.7952 -0.929652 1.4732 0
M  V30 1007 C 91.9272 -1.72317 2.94142 0
M  V30 1008 H 93.1202 0.0841605 2.99782 0
M  V30 1009 H 90.6732 0.0813433 1.56088 0
M  V30 1010 H 91.4082 -2.36653 2.21734 0
M  V30 1011 H 91.1932 -1.35898 3.67796 0
M  V30 1012 H 92.6832 -2.3266 3.46784 0
M  V30 1013 N 93.1203 -1.57491 0.0584922 0
M  V30 1014 C 94.3673 -1.92978 -0.613648 0
M  V30 1015 C 94.6953 -0.937461 -1.70417 0
M  V30 1016 O 93.9503 0.049078 -1.95638 0
M  V30 1017 C 94.2493 -3.3513 -1.24188 0
M  V30 1018 C 93.9153 -4.50037 -0.278826 0
M  V30 1019 C 92.5773 -4.81198 -0.0138447 0
M  V30 1020 C 94.9293 -5.19807 0.380777 0
M  V30 1021 C 92.2573 -5.79473 0.918052 0
M  V30 1022 C 94.6093 -6.19079 1.30091 0
M  V30 1023 C 93.2733 -6.48665 1.57449 0
M  V30 1024 H 92.5433 -0.706157 -0.22455 0
M  V30 1025 H 95.1903 -1.91082 0.126533 0
M  V30 1026 H 93.4953 -3.33429 -2.05749 0
M  V30 1027 H 95.1923 -3.59871 -1.769 0
M  V30 1028 H 91.7823 -4.25726 -0.495539 0
M  V30 1029 H 95.9663 -4.95939 0.189158 0
M  V30 1030 H 91.2223 -6.00727 1.1374 0
M  V30 1031 H 95.3963 -6.7225 1.81804 0
M  V30 1032 H 93.0233 -7.24628 2.29822 0
M  V30 1033 N 94.5984 0.214957 -1.56127 0
M  V30 1034 C 95.5614 1.24997 -1.92116 0
M  V30 1035 C 96.5614 1.39467 -0.800344 0
M  V30 1036 O 97.7514 1.37619 -1.06802 0
M  V30 1037 C 94.8834 2.62271 -2.17777 0
M  V30 1038 H 96.0764 0.942875 -2.84693 0
M  V30 1039 H 93.6294 0.455654 -1.49511 0
M  V30 1040 H 94.3644 2.98068 -1.27773 0
M  V30 1041 H 94.1494 2.53143 -2.99434 0
M  V30 1042 H 95.6394 3.36946 -2.46693 0
M  V30 1043 N 96.0765 1.50051 0.48192 0
M  V30 1044 C 97.3535 1.51009 1.2432 0
M  V30 1045 C 97.7335 0.248587 2.09631 0
M  V30 1046 O 97.0815 -0.768409 2.15192 0
M  V30 1047 C 97.2915 2.79981 2.08355 0
M  V30 1048 C 98.6395 3.3022 2.66908 0
M  V30 1049 O 99.6635 2.81228 2.18607 0
M  V30 1050 O 98.5225 4.15595 3.54884 0
M  V30 1051 H 95.6165 0.605239 0.563573 0
M  V30 1052 H 98.1625 1.62332 0.494627 0
M  V30 1053 H 96.9345 3.63275 1.45419 0
M  V30 1054 H 96.5575 2.7161 2.90368 0
M  V30 1055 N 97.5546 -0.734337 1.39446 0
M  V30 1056 C 98.4846 -1.86155 1.40955 0
M  V30 1057 C 99.4656 -1.67898 0.272827 0
M  V30 1058 O 100.651 -1.88207 0.478743 0
M  V30 1059 C 97.7806 -3.23912 1.25294 0
M  V30 1060 C 96.7346 -3.56808 2.36373 0
M  V30 1061 C 96.0606 -4.93508 2.058 0
M  V30 1062 C 97.3606 -3.59713 3.78687 0
M  V30 1063 H 99.0546 -1.8515 2.35287 0
M  V30 1064 H 96.6006 -0.889367 1.13253 0
M  V30 1065 H 98.5536 -4.02443 1.2497 0
M  V30 1066 H 97.2776 -3.25446 0.274308 0
M  V30 1067 H 95.9366 -2.80606 2.35914 0
M  V30 1068 H 95.5846 -4.91623 1.06374 0
M  V30 1069 H 95.2846 -5.16486 2.80208 0
M  V30 1070 H 96.8086 -5.74396 2.07128 0
M  V30 1071 H 98.2226 -4.2832 3.81071 0
M  V30 1072 H 96.6196 -3.94209 4.52459 0
M  V30 1073 H 97.6896 -2.59504 4.09617 0
M  V30 1074 N 99.0327 -1.24633 -0.964593 0
M  V30 1075 C 99.9627 -1.06611 -2.07741 0
M  V30 1076 C 100.944 0.0218666 -1.70086 0
M  V30 1077 O 102.129 -0.145793 -1.93652 0
M  V30 1078 C 99.2587 -0.673444 -3.40708 0
M  V30 1079 C 98.2127 -1.71054 -3.92332 0
M  V30 1080 C 97.5387 -1.17285 -5.21678 0
M  V30 1081 C 98.8387 -3.10718 -4.19824 0
M  V30 1082 H 100.533 -1.99693 -2.23076 0
M  V30 1083 H 98.0787 -0.96152 -1.07195 0
M  V30 1084 H 100.032 -0.534345 -4.17998 0
M  V30 1085 H 98.7557 0.293073 -3.25282 0
M  V30 1086 H 97.4147 -1.83791 -3.17201 0
M  V30 1087 H 97.0627 -0.196847 -5.02615 0
M  V30 1088 H 96.7627 -1.86592 -5.57187 0
M  V30 1089 H 98.2867 -1.04593 -6.01575 0
M  V30 1090 H 99.7007 -3.01192 -4.87808 0
M  V30 1091 H 98.0977 -3.77406 -4.66567 0
M  V30 1092 H 99.1677 -3.58524 -3.26479 0
M  V30 1093 N 100.511 1.16574 -1.06058 0
M  V30 1094 C 101.757 1.87324 -0.777022 0
M  V30 1095 C 102.09 1.81351 0.694645 0
M  V30 1096 O 101.365 1.22753 1.50871 0
M  V30 1097 C 101.648 3.36991 -1.26922 0
M  V30 1098 C 101.501 3.51667 -2.80447 0
M  V30 1099 C 102.82 4.3131 -0.87521 0
M  V30 1100 H 99.9388 0.680191 -0.28374 0
M  V30 1101 H 102.581 1.37036 -1.3161 0
M  V30 1102 H 100.731 3.79949 -0.81063 0
M  V30 1103 H 102.403 3.17664 -3.34495 0
M  V30 1104 H 100.646 2.93656 -3.19294 0
M  V30 1105 H 101.317 4.56766 -3.0995 0
M  V30 1106 H 103.793 3.9624 -1.27014 0
M  V30 1107 H 102.669 5.34545 -1.2471 0
M  V30 1108 H 102.93 4.41552 0.220071 0
M  V30 1109 N 101.989 0.842826 1.3317 0
M  V30 1110 C 103.214 0.453129 2.02389 0
M  V30 1111 C 103.639 -0.939105 1.6298 0
M  V30 1112 O 102.997 -1.61472 0.8244 0
M  V30 1113 C 103.045 0.586094 3.55805 0
M  V30 1114 O 102.149 -0.386029 4.10589 0
M  V30 1115 H 101.49 0.183664 0.638094 0
M  V30 1116 H 104.02 1.13875 1.69981 0
M  V30 1117 H 104.03 0.469209 4.05293 0
M  V30 1118 H 102.705 1.6014 3.83833 0
M  V30 1119 H 101.282 -0.226371 3.72212 0
M  V30 1120 N 103.467 -1.45747 0.599634 0
M  V30 1121 C 104.713 -2.02592 0.0918643 0
M  V30 1122 C 105.046 -1.46806 -1.27128 0
M  V30 1123 O 104.321 -0.639658 -1.83681 0
M  V30 1124 C 104.604 -3.60073 0.0443398 0
M  V30 1125 C 104.457 -4.26208 1.43759 0
M  V30 1126 C 105.776 -4.35309 -0.647608 0
M  V30 1127 H 102.895 -0.736175 0.034857 0
M  V30 1128 H 105.537 -1.73694 0.770081 0
M  V30 1129 H 103.687 -3.84823 -0.533224 0
M  V30 1130 H 105.359 -4.12668 2.06162 0
M  V30 1131 H 103.602 -3.84916 2.00056 0
M  V30 1132 H 104.273 -5.35069 1.35665 0
M  V30 1133 H 106.749 -4.15805 -0.156776 0
M  V30 1134 H 105.625 -5.45038 -0.649942 0
M  V30 1135 H 105.886 -4.07598 -1.71219 0
M  V30 1136 N 104.945 -0.338344 -1.53925 0
M  V30 1137 C 105.875 0.51328 -2.27789 0
M  V30 1138 C 106.856 1.107 -1.29149 0
M  V30 1139 O 108.041 1.12937 -1.57984 0
M  V30 1140 C 105.171 1.66697 -3.04679 0
M  V30 1141 C 104.125 1.20183 -4.1078 0
M  V30 1142 C 103.451 2.44363 -4.75595 0
M  V30 1143 C 104.751 0.30605 -5.21403 0
M  V30 1144 H 106.445 -0.102883 -2.99223 0
M  V30 1145 H 103.991 -0.0509219 -1.4391 0
M  V30 1146 H 105.944 2.26915 -3.55088 0
M  V30 1147 H 104.668 2.30995 -2.30887 0
M  V30 1148 H 103.327 0.622499 -3.61276 0
M  V30 1149 H 102.975 3.07057 -3.98403 0
M  V30 1150 H 102.675 2.13925 -5.47275 0
M  V30 1151 H 104.199 3.05317 -5.28786 0
M  V30 1152 H 105.613 0.814929 -5.67478 0
M  V30 1153 H 104.01 0.0937929 -6.00027 0
M  V30 1154 H 105.08 -0.65921 -4.80398 0
M  V30 1155 N 106.423 1.57458 -0.0668435 0
M  V30 1156 C 107.669 1.93587 0.6043 0
M  V30 1157 C 108.002 0.946722 1.69561 0
M  V30 1158 O 107.277 -0.0248516 1.94484 0
M  V30 1159 C 107.56 3.40014 1.18585 0
M  V30 1160 C 107.413 4.49685 0.101529 0
M  V30 1161 C 108.732 3.87154 2.09284 0
M  V30 1162 H 105.851 0.703958 0.218202 0
M  V30 1163 H 108.493 1.89542 -0.131804 0
M  V30 1164 H 106.643 3.43592 1.81319 0
M  V30 1165 H 108.315 4.5823 -0.531279 0
M  V30 1166 H 106.558 4.30059 -0.568487 0
M  V30 1167 H 107.229 5.49266 0.54874 0
M  V30 1168 H 109.705 3.85551 1.56491 0
M  V30 1169 H 108.581 4.90231 2.46911 0
M  V30 1170 H 108.842 3.2481 2.99918 0
M  V30 1171 N 107.901 -0.206675 1.56239 0
M  V30 1172 C 108.834 -1.28383 1.88661 0
M  V30 1173 C 109.812 -1.44504 0.745481 0
M  V30 1174 O 110.996 -1.60079 0.995336 0
M  V30 1175 C 108.123 -2.65211 2.10667 0
M  V30 1176 C 107.169 -2.66025 3.33366 0
M  V30 1177 S 108.002 -2.18609 4.88846 0
M  V30 1178 C 109.158 -3.57283 5.13906 0
M  V30 1179 H 109.391 -1.00691 2.7973 0
M  V30 1180 H 106.924 -0.409627 1.48867 0
M  V30 1181 H 108.882 -3.43979 2.24029 0
M  V30 1182 H 107.543 -2.90121 1.20369 0
M  V30 1183 H 106.736 -3.66607 3.45855 0
M  V30 1184 H 106.338 -1.95331 3.18938 0
M  V30 1185 H 108.63 -4.53074 5.03717 0
M  V30 1186 H 109.573 -3.49699 6.15724 0
M  V30 1187 H 109.981 -3.51659 4.41583 0
M  V30 1188 N 109.379 -1.50304 -0.473955 0
M  V30 1189 C 110.79 -1.54042 -1.0549 0
M  V30 1190 C 111.141 -0.342248 -1.93192 0
M  V30 1191 O 110.266 0.545157 -2.09421 0
M  V30 1192 C 110.861 -2.79152 -1.91989 0
M  V30 1193 C 109.42 -2.8558 -2.45196 0
M  V30 1194 C 108.567 -2.48295 -1.2347 0
M  V30 1195 H 111.518 -1.5661 -0.256693 0
M  V30 1196 H 111.539 -2.60845 -2.7702 0
M  V30 1197 H 111.051 -3.66339 -1.28131 0
M  V30 1198 H 109.152 -2.02738 -3.12615 0
M  V30 1199 H 109.265 -3.88403 -2.80499 0
M  V30 1200 H 107.629 -2.00669 -1.56856 0
M  V30 1201 H 108.412 -3.37787 -0.612789 0
M  V30 1202 N 110.857 0.726932 -1.39834 0
M  V30 1203 C 112.104 1.48664 -1.37496 0
M  V30 1204 C 112.432 1.94482 0.0264678 0
M  V30 1205 O 111.687 1.67692 1.00886 0
M  V30 1206 C 111.986 2.73495 -2.30077 0
M  V30 1207 C 111.652 2.46502 -3.77555 0
M  V30 1208 C 110.314 2.3885 -4.17737 0
M  V30 1209 C 112.666 2.23604 -4.70798 0
M  V30 1210 C 109.994 2.06352 -5.49214 0
M  V30 1211 C 112.346 1.92622 -6.02561 0
M  V30 1212 C 111.01 1.83444 -6.41798 0
M  V30 1213 H 110.28 0.544001 -0.503135 0
M  V30 1214 H 112.927 0.833657 -1.72402 0
M  V30 1215 H 111.232 3.43575 -1.88317 0
M  V30 1216 H 112.929 3.31549 -2.25558 0
M  V30 1217 H 109.519 2.5334 -3.45712 0
M  V30 1218 H 113.703 2.28479 -4.40581 0
M  V30 1219 H 108.959 1.97776 -5.78528 0
M  V30 1220 H 113.133 1.73914 -6.74334 0
M  V30 1221 H 110.76 1.58029 -7.43593 0
M  V30 1222 N 112.336 1.25143 0.95797 0
M  V30 1223 C 113.584 1.09476 1.69881 0
M  V30 1224 C 113.905 -0.365502 1.91544 0
M  V30 1225 O 113.175 -1.25985 1.50015 0
M  V30 1226 H 111.755 0.402128 0.629525 0
M  V30 1227 H 114.417 1.57214 1.15194 0
M  V30 1228 H 113.513 1.60046 2.6794 0
M  V30 1229 N 113.814 -1.1601 1.06675 0
M  V30 1230 C 114.777 -2.18724 0.685001 0
M  V30 1231 C 115.777 -1.58496 -0.271246 0
M  V30 1232 O 116.967 -1.74119 -0.0531156 0
M  V30 1233 C 114.099 -3.40899 0.00853648 0
M  V30 1234 H 115.292 -2.54011 1.59431 0
M  V30 1235 H 112.845 -1.30352 0.862441 0
M  V30 1236 H 113.58 -3.11173 -0.913337 0
M  V30 1237 H 113.365 -3.8587 0.696204 0
M  V30 1238 H 114.855 -4.16886 -0.24414 0
M  V30 1239 N 115.292 -0.849877 -1.32721 0
M  V30 1240 C 116.541 -0.447175 -1.96681 0
M  V30 1241 C 116.854 1.00135 -1.68025 0
M  V30 1242 O 118.06 1.50926 -2.25685 0
M  V30 1243 C 116.516 -0.7487 -3.52026 0
M  V30 1244 C 116.124 -2.21264 -3.89546 0
M  V30 1245 C 117.868 -0.413487 -4.22481 0
M  V30 1246 C 115.775 -2.45763 -5.37917 0
M  V30 1247 H 114.705 -0.163486 -0.736063 0
M  V30 1248 H 117.356 -1.03999 -1.51183 0
M  V30 1249 H 115.738 -0.0853727 -3.95908 0
M  V30 1250 H 116.912 -2.91736 -3.56689 0
M  V30 1251 H 115.227 -2.5119 -3.32103 0
M  V30 1252 H 117.824 -0.574017 -5.3161 0
M  V30 1253 H 118.167 0.644492 -4.11281 0
M  V30 1254 H 118.7 -1.03251 -3.84167 0
M  V30 1255 H 115.439 -3.50168 -5.54132 0
M  V30 1256 H 114.959 -1.79864 -5.72197 0
M  V30 1257 H 116.638 -2.29471 -6.0494 0
M  V30 1258 N 116.77 1.45427 -0.607355 0
M  V30 1259 C 117.68 2.34325 0.113463 0
M  V30 1260 C 118.696 1.51226 0.860617 0
M  V30 1261 O 119.872 1.84029 0.818255 0
M  V30 1262 C 116.937 3.28839 1.09844 0
M  V30 1263 C 115.998 4.27844 0.353271 0
M  V30 1264 C 115.231 5.17842 1.29133 0
M  V30 1265 O 115.454 5.11264 2.52913 0
M  V30 1266 O 114.388 5.96713 0.788523 0
M  V30 1267 H 118.214 2.97364 -0.617094 0
M  V30 1268 H 115.799 1.44807 -0.367619 0
M  V30 1269 H 117.681 3.8708 1.66575 0
M  V30 1270 H 116.356 2.68365 1.81003 0
M  V30 1271 H 115.263 3.7322 -0.256494 0
M  V30 1272 H 116.596 4.91173 -0.317822 0
M  V30 1273 N 118.248 0.346503 1.53744 0
M  V30 1274 C 119.178 -0.501193 2.28058 0
M  V30 1275 C 120.159 -1.10014 1.29734 0
M  V30 1276 O 121.344 -1.12097 1.58581 0
M  V30 1277 C 118.474 -1.65078 3.05559 0
M  V30 1278 C 117.428 -1.18003 4.11411 0
M  V30 1279 C 116.754 -2.41837 4.76884 0
M  V30 1280 C 118.054 -0.278394 5.21558 0
M  V30 1281 H 119.748 0.11875 2.99164 0
M  V30 1282 H 117.294 0.0585531 1.43881 0
M  V30 1283 H 119.247 -2.25028 3.56287 0
M  V30 1284 H 117.971 -2.29767 2.32109 0
M  V30 1285 H 116.63 -0.603331 3.61601 0
M  V30 1286 H 116.278 -3.0494 4.00026 0
M  V30 1287 H 115.978 -2.1102 5.48402 0
M  V30 1288 H 117.502 -3.02508 5.30397 0
M  V30 1289 H 118.916 -0.784823 5.67903 0
M  V30 1290 H 117.313 -0.0619707 6.00068 0
M  V30 1291 H 118.383 0.684677 4.80042 0
M  V30 1292 N 119.726 -1.57421 0.075193 0
M  V30 1293 C 120.972 -1.93905 -0.594025 0
M  V30 1294 C 121.305 -0.955701 -1.69056 0
M  V30 1295 O 120.58 0.0145373 -1.94495 0
M  V30 1296 C 120.863 -3.40638 -1.1678 0
M  V30 1297 C 120.716 -4.49733 -0.0776792 0
M  V30 1298 C 122.035 -3.88259 -2.07228 0
M  V30 1299 H 119.154 -0.705105 -0.214466 0
M  V30 1300 H 121.796 -1.8947 0.141854 0
M  V30 1301 H 119.946 -3.44549 -1.79494 0
M  V30 1302 H 121.618 -4.57942 0.555573 0
M  V30 1303 H 119.861 -4.29751 0.591286 0
M  V30 1304 H 120.532 -5.49549 -0.519603 0
M  V30 1305 H 123.008 -3.86376 -1.54445 0
M  V30 1306 H 121.884 -4.91533 -2.44308 0
M  V30 1307 H 122.145 -3.26396 -2.98191 0
M  V30 1308 N 121.204 0.198386 -1.56346 0
M  V30 1309 C 122.136 1.26987 -1.90806 0
M  V30 1310 C 123.149 1.41877 -0.798419 0
M  V30 1311 O 124.338 1.42362 -1.07682 0
M  V30 1312 C 121.438 2.64246 -2.12196 0
M  V30 1313 C 120.611 2.71007 -3.43328 0
M  V30 1314 C 119.67 3.89439 -3.5387 0
M  V30 1315 O 118.696 3.76695 -4.26719 0
M  V30 1316 N 119.898 5.04752 -2.86715 0
M  V30 1317 H 122.663 0.977433 -2.83313 0
M  V30 1318 H 120.224 0.388322 -1.57174 0
M  V30 1319 H 122.216 3.41896 -2.1654 0
M  V30 1320 H 120.786 2.85992 -1.26204 0
M  V30 1321 H 120.006 1.79657 -3.50881 0
M  V30 1322 H 121.294 2.72512 -4.29668 0
M  V30 1323 H 120.692 5.18004 -2.2735 0
M  V30 1324 H 119.249 5.8036 -2.96691 0
M  V30 1325 N 122.682 1.50554 0.465978 0
M  V30 1326 C 123.959 1.5232 1.22712 0
M  V30 1327 C 124.339 0.270807 2.09356 0
M  V30 1328 O 123.687 -0.745541 2.15995 0
M  V30 1329 C 123.897 2.82175 2.05374 0
M  V30 1330 C 125.245 3.33033 2.6339 0
M  V30 1331 O 126.269 2.83531 2.15612 0
M  V30 1332 O 125.128 4.19336 3.50456 0
M  V30 1333 H 122.222 0.611183 0.557122 0
M  V30 1334 H 124.768 1.62847 0.477381 0
M  V30 1335 H 123.54 3.64797 1.41558 0
M  V30 1336 H 123.163 2.74675 2.87471 0
M  V30 1337 N 124.16 -0.719506 1.40217 0
M  V30 1338 C 125.409 -1.47486 1.37589 0
M  V30 1339 C 125.722 -1.9559 -0.0201568 0
M  V30 1340 O 126.928 -2.70973 -0.169049 0
M  V30 1341 C 125.384 -2.66575 2.41796 0
M  V30 1342 C 124.992 -2.25358 3.87192 0
M  V30 1343 C 126.736 -3.4433 2.48269 0
M  V30 1344 C 124.643 -3.41262 4.83005 0
M  V30 1345 H 123.573 -0.553901 0.511576 0
M  V30 1346 H 126.224 -0.783427 1.65936 0
M  V30 1347 H 124.606 -3.3787 2.06543 0
M  V30 1348 H 125.78 -1.61509 4.31569 0
M  V30 1349 H 124.095 -1.60657 3.84159 0
M  V30 1350 H 126.692 -4.30569 3.17041 0
M  V30 1351 H 127.035 -3.87872 1.51198 0
M  V30 1352 H 127.568 -2.80076 2.82493 0
M  V30 1353 H 124.307 -3.02755 5.81394 0
M  V30 1354 H 123.827 -4.0404 4.43297 0
M  V30 1355 H 125.506 -4.07383 5.02641 0
M  V30 1356 N 125.638 -1.25649 -0.95132 0
M  V30 1357 C 126.884 -1.11766 -1.69941 0
M  V30 1358 C 127.239 0.33735 -1.89419 0
M  V30 1359 O 126.532 1.24491 -1.45645 0
M  V30 1360 C 126.726 -1.80909 -3.08231 0
M  V30 1361 C 126.555 -3.32984 -3.02245 0
M  V30 1362 C 125.325 -4.02247 -3.05819 0
M  V30 1363 C 127.523 -4.29332 -2.83157 0
M  V30 1364 N 125.505 -5.41072 -2.90024 0
M  V30 1365 C 126.876 -5.55265 -2.75828 0
M  V30 1366 C 128.931 -4.19707 -2.67863 0
M  V30 1367 C 127.634 -6.72671 -2.54767 0
M  V30 1368 C 129.66 -5.36809 -2.48173 0
M  V30 1369 C 129.022 -6.61683 -2.41567 0
M  V30 1370 H 125.121 -0.463708 -0.629682 0
M  V30 1371 H 127.705 -1.58796 -1.12659 0
M  V30 1372 H 125.876 -1.36369 -3.63673 0
M  V30 1373 H 127.608 -1.59739 -3.71841 0
M  V30 1374 H 124.363 -3.53531 -3.15139 0
M  V30 1375 H 124.787 -6.13938 -2.85323 0
M  V30 1376 H 129.429 -3.23907 -2.71743 0
M  V30 1377 H 127.147 -7.68577 -2.49629 0
M  V30 1378 H 130.733 -5.31224 -2.37259 0
M  V30 1379 H 129.613 -7.50768 -2.26531 0
M  V30 1380 N 127.117 1.15442 -1.07289 0
M  V30 1381 C 128.366 1.85557 -0.790669 0
M  V30 1382 C 128.679 1.83186 0.685739 0
M  V30 1383 O 129.885 2.48977 1.0827 0
M  V30 1384 C 128.341 3.33038 -1.36433 0
M  V30 1385 C 127.949 3.43856 -2.8717 0
M  V30 1386 C 129.693 4.0834 -1.1601 0
M  V30 1387 C 127.6 4.85482 -3.3773 0
M  V30 1388 H 126.53 0.695122 -0.292098 0
M  V30 1389 H 129.181 1.30219 -1.29287 0
M  V30 1390 H 127.563 3.88043 -0.789864 0
M  V30 1391 H 128.737 2.98961 -3.50655 0
M  V30 1392 H 127.052 2.81998 -3.06376 0
M  V30 1393 H 129.649 5.12859 -1.51262 0
M  V30 1394 H 129.992 4.16182 -0.0991007 0
M  V30 1395 H 130.525 3.59603 -1.70089 0
M  V30 1396 H 127.264 4.82823 -4.43353 0
M  V30 1397 H 126.784 5.30961 -2.78999 0
M  V30 1398 H 128.463 5.54335 -3.33648 0
M  V30 1399 N 128.595 0.856903 1.32268 0
M  V30 1400 C 129.825 0.47475 2.01071 0
M  V30 1401 C 130.233 -0.933746 1.64553 0
M  V30 1402 O 129.576 -1.62114 0.863989 0
M  V30 1403 C 129.638 0.536746 3.55471 0
M  V30 1404 C 129.302 1.90453 4.15423 0
M  V30 1405 C 130.299 2.87029 4.33486 0
M  V30 1406 C 127.984 2.20229 4.51447 0
M  V30 1407 C 129.978 4.11532 4.86744 0
M  V30 1408 C 127.665 3.44984 5.0441 0
M  V30 1409 C 128.663 4.40452 5.22007 0
M  V30 1410 O 128.351 5.62998 5.73837 0
M  V30 1411 H 128.083 0.184778 0.650256 0
M  V30 1412 H 130.637 1.15615 1.69771 0
M  V30 1413 H 128.867 -0.20152 3.86175 0
M  V30 1414 H 130.556 0.169875 4.05544 0
M  V30 1415 H 131.322 2.6533 4.05986 0
M  V30 1416 H 127.201 1.46705 4.37034 0
M  V30 1417 H 130.745 4.86056 5.00395 0
M  V30 1418 H 126.642 3.66532 5.31342 0
M  V30 1419 H 127.41 5.64987 5.92226 0
M  V30 1420 N 130.073 -1.45103 0.615059 0
M  V30 1421 C 131.321 -2.01784 0.112955 0
M  V30 1422 C 131.642 -1.48504 -1.26378 0
M  V30 1423 O 130.912 -0.682245 -1.83636 0
M  V30 1424 H 129.492 -0.745993 0.0387668 0
M  V30 1425 H 132.154 -1.77808 0.798141 0
M  V30 1426 H 131.25 -3.12025 0.0684069 0
M  V30 1427 N 131.551 -0.354651 -1.53558 0
M  V30 1428 C 132.461 0.50515 -2.29097 0
M  V30 1429 C 133.477 1.10223 -1.34636 0
M  V30 1430 O 134.653 1.11553 -1.67684 0
M  V30 1431 C 131.718 1.63479 -3.05738 0
M  V30 1432 C 130.779 1.06636 -4.15845 0
M  V30 1433 C 130.012 2.14217 -4.88822 0
M  V30 1434 O 130.235 3.35137 -4.61562 0
M  V30 1435 O 129.169 1.77887 -5.75013 0
M  V30 1436 H 132.995 -0.109237 -3.03503 0
M  V30 1437 H 130.58 -0.119357 -1.48922 0
M  V30 1438 H 132.462 2.2918 -3.5363 0
M  V30 1439 H 131.137 2.23478 -2.34178 0
M  V30 1440 H 130.044 0.373565 -3.7223 0
M  V30 1441 H 131.377 0.511081 -4.89539 0
M  V30 1442 N 133.029 1.57378 -0.0835403 0
M  V30 1443 C 134.275 1.94217 0.583733 0
M  V30 1444 C 134.608 0.964653 1.68547 0
M  V30 1445 O 133.883 -0.00422258 1.945 0
M  V30 1446 C 134.166 3.41253 1.14972 0
M  V30 1447 C 134.019 4.49768 0.0538277 0
M  V30 1448 C 135.338 3.89352 2.05166 0
M  V30 1449 H 132.457 0.706233 0.210724 0
M  V30 1450 H 135.099 1.89392 -0.1519 0
M  V30 1451 H 133.249 3.45496 1.77665 0
M  V30 1452 H 134.921 4.57641 -0.579851 0
M  V30 1453 H 133.164 4.29432 -0.614068 0
M  V30 1454 H 133.835 5.49817 0.490452 0
M  V30 1455 H 136.311 3.87189 1.52393 0
M  V30 1456 H 135.187 4.92822 2.41698 0
M  V30 1457 H 135.448 3.27973 2.96456 0
M  V30 1458 N 134.507 -0.190092 1.56449 0
M  V30 1459 C 135.754 -0.909705 1.80916 0
M  V30 1460 C 136.082 -1.83047 0.657583 0
M  V30 1461 O 135.337 -1.92428 -0.356356 0
M  V30 1462 C 135.636 -1.75382 3.1141 0
M  V30 1463 C 135.302 -0.983606 4.40041 0
M  V30 1464 C 133.964 -0.770967 4.74984 0
M  V30 1465 C 136.316 -0.442024 5.19322 0
M  V30 1466 C 133.644 -0.0053448 5.867 0
M  V30 1467 C 135.996 0.310412 6.31838 0
M  V30 1468 C 134.66 0.534023 6.6536 0
M  V30 1469 H 133.93 -0.332885 0.662019 0
M  V30 1470 H 136.577 -0.175762 1.90692 0
M  V30 1471 H 134.882 -2.55659 2.96893 0
M  V30 1472 H 136.579 -2.31331 3.27547 0
M  V30 1473 H 133.169 -1.15936 4.12622 0
M  V30 1474 H 137.353 -0.593693 4.92736 0
M  V30 1475 H 132.609 0.177825 6.11141 0
M  V30 1476 H 136.783 0.737419 6.92485 0
M  V30 1477 H 134.41 1.12918 7.51767 0
M  V30 1478 N 135.985 -1.50799 -0.457987 0
M  V30 1479 C 137.225 -1.64088 -1.21879 0
M  V30 1480 C 137.589 -0.339848 -1.88968 0
M  V30 1481 O 138.79 -0.348301 -2.66534 0
M  V30 1482 C 137.061 -2.79726 -2.2246 0
M  V30 1483 S 138.62 -3.13225 -3.07303 0
M  V30 1484 H 135.438 -0.578314 -0.41361 0
M  V30 1485 H 138.04 -1.88632 -0.513645 0
M  V30 1486 H 136.744 -3.72722 -1.71775 0
M  V30 1487 H 136.275 -2.57308 -2.97584 0
M  V30 1488 H 138.29 -2.58062 -4.23814 0
M  V30 1489 N 137.463 0.71206 -1.40597 0
M  V30 1490 C 138.393 1.83889 -1.43899 0
M  V30 1491 C 139.374 1.67442 -0.299504 0
M  V30 1492 O 140.559 1.87421 -0.508624 0
M  V30 1493 C 137.689 3.21877 -1.30431 0
M  V30 1494 C 136.643 3.53002 -2.42019 0
M  V30 1495 C 135.969 4.90172 -2.13626 0
M  V30 1496 C 137.269 3.53643 -3.84362 0
M  V30 1497 H 138.963 1.81383 -2.38203 0
M  V30 1498 H 136.509 0.871237 -1.14654 0
M  V30 1499 H 138.462 4.00404 -1.31357 0
M  V30 1500 H 137.186 3.24968 -0.326049 0
M  V30 1501 H 135.845 2.76818 -2.40349 0
M  V30 1502 H 135.493 4.89869 -1.14182 0
M  V30 1503 H 135.193 5.11962 -2.88389 0
M  V30 1504 H 136.717 5.71028 -2.1624 0
M  V30 1505 H 138.131 4.22203 -3.87837 0
M  V30 1506 H 136.528 3.86961 -4.58673 0
M  V30 1507 H 137.598 2.52954 -4.13693 0
M  V30 1508 N 138.941 1.26152 0.944643 0
M  V30 1509 C 140.187 1.11657 1.69294 0
M  V30 1510 C 140.52 -0.339926 1.91202 0
M  V30 1511 O 139.795 -1.24994 1.49019 0
M  V30 1512 C 140.078 1.88236 3.06984 0
M  V30 1513 C 139.931 3.41772 2.92424 0
M  V30 1514 C 141.25 1.67343 4.07043 0
M  V30 1515 H 138.369 0.407004 0.614424 0
M  V30 1516 H 141.011 1.55106 1.09737 0
M  V30 1517 H 139.161 1.51308 3.57824 0
M  V30 1518 H 140.833 3.88433 2.48832 0
M  V30 1519 H 139.076 3.68974 2.28124 0
M  V30 1520 H 139.747 3.90579 3.90067 0
M  V30 1521 H 142.223 1.99509 3.65151 0
M  V30 1522 H 141.099 2.23346 5.01406 0
M  V30 1523 H 141.36 0.617158 4.37771 0
M  V30 1524 N 140.419 -1.14872 1.07899 0
M  V30 1525 C 141.835 -1.37776 0.805606 0
M  V30 1526 C 142.035 -1.92743 -0.587555 0
M  V30 1527 O 141.091 -2.13678 -1.34528 0
M  V30 1528 C 142.404 -2.34361 1.88402 0
M  V30 1529 C 143.952 -2.48012 1.90942 0
M  V30 1530 C 144.427 -3.47893 2.97883 0
M  V30 1531 N 145.918 -3.55433 2.97021 0
M  V30 1532 C 146.653 -4.32553 3.76412 0
M  V30 1533 N 146.149 -5.12959 4.65666 0
M  V30 1534 N 147.942 -4.27697 3.64735 0
M  V30 1535 H 140.093 -0.775365 1.97742 0
M  V30 1536 H 142.356 -0.403521 0.857831 0
M  V30 1537 H 142.062 -2.01098 2.88535 0
M  V30 1538 H 141.936 -3.34206 1.74889 0
M  V30 1539 H 144.323 -2.8057 0.914579 0
M  V30 1540 H 144.404 -1.48147 2.08534 0
M  V30 1541 H 144.048 -3.16069 3.97571 0
M  V30 1542 H 143.978 -4.47527 2.77538 0
M  V30 1543 H 146.469 -2.98048 2.32326 0
M  V30 1544 H 146.782 -5.69065 5.22862 0
M  V30 1545 H 145.127 -5.12245 4.69712 0
M  V30 1546 H 148.318 -3.63949 2.94378 0
M  V30 1547 H 148.491 -4.8755 4.26848 0
M  V30 1548 N 141.898 -0.863906 -1.31812 0
M  V30 1549 C 143.126 -0.486111 -2.01108 0
M  V30 1550 C 143.541 0.919755 -1.64882 0
M  V30 1551 O 142.898 1.60162 -0.874893 0
M  V30 1552 C 142.949 -0.626435 -3.56031 0
M  V30 1553 O 142.67 -1.97693 -3.90959 0
M  V30 1554 C 144.171 -0.248857 -4.42601 0
M  V30 1555 H 141.391 -0.190052 -0.643523 0
M  V30 1556 H 143.935 -1.1634 -1.68182 0
M  V30 1557 H 142.09 0.00322717 -3.874 0
M  V30 1558 H 142.504 -1.98034 -4.85678 0
M  V30 1559 H 143.978 -0.398016 -5.50563 0
M  V30 1560 H 144.455 0.811489 -4.31638 0
M  V30 1561 H 145.061 -0.853971 -4.16638 0
M  V30 1562 N 143.376 1.44774 -0.622745 0
M  V30 1563 C 144.601 2.06999 -0.128968 0
M  V30 1564 C 145.026 1.4617 1.1839 0
M  V30 1565 O 144.384 0.560007 1.72434 0
M  V30 1566 C 144.432 3.60595 -0.0188351 0
M  V30 1567 O 143.536 3.99398 1.02739 0
M  V30 1568 H 142.877 0.659047 -0.0809544 0
M  V30 1569 H 145.407 1.85784 -0.85705 0
M  V30 1570 H 145.417 4.07627 0.174476 0
M  V30 1571 H 144.092 4.04252 -0.977384 0
M  V30 1572 H 142.669 3.64011 0.809326 0
M  V30 1573 N 144.854 0.36279 1.53368 0
M  V30 1574 C 145.784 -0.476976 2.28576 0
M  V30 1575 C 146.765 -1.08631 1.30894 0
M  V30 1576 O 147.95 -1.10409 1.59761 0
M  V30 1577 C 145.08 -1.61828 3.07293 0
M  V30 1578 C 144.034 -1.13633 4.1264 0
M  V30 1579 C 143.36 -2.36766 4.79423 0
M  V30 1580 C 144.66 -0.223061 5.21823 0
M  V30 1581 H 146.354 0.150474 2.99022 0
M  V30 1582 H 143.9 0.0738103 1.43811 0
M  V30 1583 H 145.853 -2.21237 3.58653 0
M  V30 1584 H 144.577 -2.27292 2.34533 0
M  V30 1585 H 143.236 -0.564945 3.62221 0
M  V30 1586 H 142.884 -3.0068 4.03238 0
M  V30 1587 H 142.584 -2.05192 5.50609 0
M  V30 1588 H 144.108 -2.96865 5.33576 0
M  V30 1589 H 145.522 -0.724545 5.68703 0
M  V30 1590 H 143.919 0.001678 6.001 0
M  V30 1591 H 144.989 0.735553 4.79289 0
M  V30 1592 N 146.332 -1.57332 0.0918853 0
M  V30 1593 C 147.609 -1.85691 -0.614668 0
M  V30 1594 C 147.989 -0.988146 -1.86545 0
M  V30 1595 O 147.337 -0.0597055 -2.28422 0
M  V30 1596 C 147.547 -3.36294 -0.933126 0
M  V30 1597 C 148.895 -4.04275 -1.29796 0
M  V30 1598 O 149.919 -3.41157 -1.02424 0
M  V30 1599 O 148.778 -5.1564 -1.81047 0
M  V30 1600 H 145.872 -0.767802 -0.307261 0
M  V30 1601 H 148.418 -1.69244 0.12434 0
M  V30 1602 H 147.19 -3.91273 -0.0456404 0
M  V30 1603 H 146.813 -3.58076 -1.72822 0
M  V30 1604 N 147.81 0.181792 -1.56548 0
M  V30 1605 C 149.056 0.901431 -1.81665 0
M  V30 1606 C 149.389 1.82347 -0.668075 0
M  V30 1607 O 148.664 1.91669 0.330615 0
M  V30 1608 C 148.947 1.70618 -3.17115 0
M  V30 1609 C 148.8 0.807964 -4.42484 0
M  V30 1610 C 150.119 2.67605 -3.49393 0
M  V30 1611 H 147.238 0.32627 -0.660846 0
M  V30 1612 H 149.88 0.168134 -1.89255 0
M  V30 1613 H 148.03 2.33133 -3.10775 0
M  V30 1614 H 149.702 0.19649 -4.60881 0
M  V30 1615 H 147.945 0.115411 -4.33646 0
M  V30 1616 H 148.616 1.40632 -5.33785 0
M  V30 1617 H 151.092 2.15218 -3.56118 0
M  V30 1618 H 149.968 3.20985 -4.45264 0
M  V30 1619 H 150.229 3.47298 -2.73563 0
M  V30 1620 N 149.288 1.51039 0.449983 0
M  V30 1621 C 150.218 1.74379 1.55288 0
M  V30 1622 C 151.199 0.593236 1.5942 0
M  V30 1623 O 152.384 0.834625 1.7535 0
M  V30 1624 C 149.514 1.85728 2.93466 0
M  V30 1625 C 148.468 3.01078 3.04197 0
M  V30 1626 C 147.794 2.97595 4.44231 0
M  V30 1627 C 149.094 4.41254 2.7945 0
M  V30 1628 H 150.788 2.66725 1.36008 0
M  V30 1629 H 148.334 1.2835 0.652864 0
M  V30 1630 H 150.287 2.0064 3.70569 0
M  V30 1631 H 149.011 0.900207 3.13949 0
M  V30 1632 H 147.67 2.85851 2.29531 0
M  V30 1633 H 147.318 1.99691 4.61663 0
M  V30 1634 H 147.018 3.75046 4.52343 0
M  V30 1635 H 148.542 3.14583 5.23326 0
M  V30 1636 H 149.956 4.56897 3.46292 0
M  V30 1637 H 148.353 5.20315 2.98985 0
M  V30 1638 H 149.423 4.52164 1.75144 0
M  V30 1639 N 150.766 -0.704594 1.40972 0
M  V30 1640 C 151.696 -1.83124 1.44872 0
M  V30 1641 C 152.677 -1.67281 0.30838 0
M  V30 1642 O 153.862 -1.87149 0.518556 0
M  V30 1643 C 150.992 -3.21181 1.32136 0
M  V30 1644 C 149.946 -3.51714 2.43888 0
M  V30 1645 C 149.272 -4.89032 2.16222 0
M  V30 1646 C 150.572 -3.516 3.86232 0
M  V30 1647 H 152.266 -1.80117 2.39161 0
M  V30 1648 H 149.812 -0.865145 1.15114 0
M  V30 1649 H 151.765 -3.99702 1.33479 0
M  V30 1650 H 150.489 -3.24791 0.343279 0
M  V30 1651 H 149.148 -2.75539 2.41813 0
M  V30 1652 H 148.796 -4.89256 1.16778 0
M  V30 1653 H 148.496 -5.10426 2.911 0
M  V30 1654 H 150.02 -5.69873 2.19265 0
M  V30 1655 H 151.434 -4.2014 3.9007 0
M  V30 1656 H 149.831 -3.84523 4.60719 0
M  V30 1657 H 150.901 -2.50757 4.15029 0
M  V30 1658 N 152.244 -1.26651 -0.937939 0
M  V30 1659 C 153.472 -1.15173 -1.7188 0
M  V30 1660 C 153.887 0.292668 -1.86518 0
M  V30 1661 O 153.244 1.20014 -1.37488 0
M  V30 1662 C 153.295 -1.81925 -3.12387 0
M  V30 1663 O 153.016 -3.2072 -2.98446 0
M  V30 1664 C 154.517 -1.76442 -4.06673 0
M  V30 1665 H 151.737 -0.400911 -0.538063 0
M  V30 1666 H 154.281 -1.67332 -1.1756 0
M  V30 1667 H 152.436 -1.33696 -3.63599 0
M  V30 1668 H 152.85 -3.53802 -3.872 0
M  V30 1669 H 154.324 -2.27781 -5.02812 0
M  V30 1670 H 154.801 -0.731608 -4.33064 0
M  V30 1671 H 155.407 -2.24238 -3.61382 0
M  V30 1672 N 153.722 1.14298 -1.08507 0
M  V30 1673 C 154.95 1.89219 -0.836876 0
M  V30 1674 C 155.365 1.78638 0.611054 0
M  V30 1675 O 154.722 1.14643 1.41998 0
M  V30 1676 C 154.773 3.39158 -1.25116 0
M  V30 1677 O 154.494 3.49449 -2.64229 0
M  V30 1678 C 155.995 4.31073 -1.03398 0
M  V30 1679 H 153.215 0.599328 -0.301739 0
M  V30 1680 H 155.759 1.44746 -1.44461 0
M  V30 1681 H 153.914 3.81251 -0.687514 0
M  V30 1682 H 154.328 4.42589 -2.81452 0
M  V30 1683 H 155.802 5.34646 -1.37323 0
M  V30 1684 H 156.279 4.3919 0.0289259 0
M  V30 1685 H 156.885 3.94738 -1.58311 0
M  V30 1686 N 155.201 0.870884 1.31352 0
M  V30 1687 C 156.164 0.332243 2.26779 0
M  V30 1688 C 157.164 -0.517302 1.52252 0
M  V30 1689 O 158.354 -0.326477 1.71113 0
M  V30 1690 C 155.486 -0.528066 3.36785 0
M  V30 1691 H 156.679 1.17469 2.75937 0
M  V30 1692 H 154.232 0.64655 1.423 0
M  V30 1693 H 154.967 -1.39167 2.92922 0
M  V30 1694 H 154.752 0.0802582 3.92018 0
M  V30 1695 H 156.242 -0.897179 4.07849 0
M  V30 1696 N 156.679 -1.44442 0.630414 0
M  V30 1697 C 157.904 -2.06927 0.139944 0
M  V30 1698 C 158.329 -1.46795 -1.17613 0
M  V30 1699 O 157.687 -0.569144 -1.72135 0
M  V30 1700 C 157.735 -3.6058 0.0379581 0
M  V30 1701 O 156.839 -3.99937 -1.0062 0
M  V30 1702 H 156.18 -0.658608 0.0844483 0
M  V30 1703 H 158.71 -1.85327 0.866891 0
M  V30 1704 H 158.72 -4.07714 -0.152856 0
M  V30 1705 H 157.395 -4.03728 0.998809 0
M  V30 1706 H 155.972 -3.64436 -0.79001 0
M  V30 1707 N 158.157 -0.370918 -1.53173 0
M  V30 1708 C 159.406 0.218249 -2.00516 0
M  V30 1709 C 159.719 1.49429 -1.26215 0
M  V30 1710 O 160.925 2.16239 -1.64174 0
M  V30 1711 C 159.381 0.43948 -3.57207 0
M  V30 1712 C 158.989 -0.822244 -4.4039 0
M  V30 1713 C 160.733 0.986012 -4.1289 0
M  V30 1714 C 158.64 -0.570304 -5.88644 0
M  V30 1715 H 157.57 0.0853333 -0.749156 0
M  V30 1716 H 160.221 -0.490483 -1.76823 0
M  V30 1717 H 158.603 1.20961 -3.77074 0
M  V30 1718 H 159.777 -1.59557 -4.32294 0
M  V30 1719 H 158.092 -1.29238 -3.95836 0
M  V30 1720 H 160.689 1.18991 -5.21292 0
M  V30 1721 H 161.032 1.94972 -3.6782 0
M  V30 1722 H 161.565 0.27592 -3.96842 0
M  V30 1723 H 158.304 -1.50449 -6.38001 0
M  V30 1724 H 157.824 0.164427 -5.99575 0
M  V30 1725 H 159.503 -0.19784 -6.46697 0
M  V30 1726 N 159.635 1.57281 -0.100228 0
M  V30 1727 C 160.882 1.94537 0.562268 0
M  V30 1728 C 161.21 0.982315 1.67871 0
M  V30 1729 O 160.465 0.00280936 1.957 0
M  V30 1730 C 160.764 3.38305 1.15259 0
M  V30 1731 C 160.43 4.50618 0.159409 0
M  V30 1732 C 159.092 4.81066 -0.113741 0
M  V30 1733 C 161.444 5.18615 -0.518461 0
M  V30 1734 C 158.772 5.76835 -1.07137 0
M  V30 1735 C 161.124 6.15412 -1.46459 0
M  V30 1736 C 159.788 6.44262 -1.74592 0
M  V30 1737 H 159.058 0.711863 0.205748 0
M  V30 1738 H 161.705 1.90679 -0.17715 0
M  V30 1739 H 160.01 3.38766 1.96836 0
M  V30 1740 H 161.707 3.64435 1.67297 0
M  V30 1741 H 158.297 4.2689 0.382491 0
M  V30 1742 H 162.481 4.95264 -0.320581 0
M  V30 1743 H 157.737 5.975 -1.29628 0
M  V30 1744 H 161.911 6.67194 -1.99564 0
M  V30 1745 H 159.538 7.1828 -2.48953 0
M  V30 1746 N 161.113 -0.173488 1.56642 0
M  V30 1747 C 162.063 -1.21941 1.92651 0
M  V30 1748 C 163.047 -1.39912 0.794577 0
M  V30 1749 O 164.239 -1.41919 1.05773 0
M  V30 1750 C 161.368 -2.55935 2.28806 0
M  V30 1751 C 160.454 -2.41667 3.48508 0
M  V30 1752 N 160.845 -1.9711 4.65813 0
M  V30 1753 C 159.143 -2.72499 3.53072 0
M  V30 1754 C 159.844 -1.95253 5.47952 0
M  V30 1755 N 158.82 -2.37575 4.88937 0
M  V30 1756 H 162.622 -0.866581 2.80834 0
M  V30 1757 H 160.136 -0.381776 1.57849 0
M  V30 1758 H 162.133 -3.31511 2.52797 0
M  V30 1759 H 160.793 -2.92022 1.41961 0
M  V30 1760 H 161.804 -1.67481 4.90072 0
M  V30 1761 H 158.481 -3.12639 2.767 0
M  V30 1762 H 159.871 -1.6252 6.51948 0
M  V30 1763 N 162.591 -1.51276 -0.441967 0
M  V30 1764 C 163.521 -1.752 -1.54361 0
M  V30 1765 C 164.502 -0.601682 -1.59103 0
M  V30 1766 O 165.687 -0.843913 -1.74905 0
M  V30 1767 C 162.817 -1.87282 -2.92477 0
M  V30 1768 C 161.771 -3.02687 -3.02596 0
M  V30 1769 C 161.097 -2.99947 -4.42647 0
M  V30 1770 C 162.397 -4.4273 -2.77106 0
M  V30 1771 H 164.091 -2.67442 -1.34592 0
M  V30 1772 H 161.637 -1.28694 -0.646048 0
M  V30 1773 H 163.59 -2.02602 -3.695 0
M  V30 1774 H 162.314 -0.916844 -3.13467 0
M  V30 1775 H 160.973 -2.87065 -2.28012 0
M  V30 1776 H 160.621 -2.02136 -4.60597 0
M  V30 1777 H 160.321 -3.77439 -4.50348 0
M  V30 1778 H 161.845 -3.17354 -5.2165 0
M  V30 1779 H 163.259 -4.58727 -3.43864 0
M  V30 1780 H 161.656 -5.21893 -2.96222 0
M  V30 1781 H 162.726 -4.53087 -1.72744 0
M  V30 1782 N 164.069 0.697108 -1.41344 0
M  V30 1783 C 165.309 1.46939 -1.42085 0
M  V30 1784 C 165.673 1.9198 -0.0280397 0
M  V30 1785 O 166.874 2.6865 0.0897504 0
M  V30 1786 C 165.145 2.64985 -2.39828 0
M  V30 1787 S 166.704 3.54147 -2.59085 0
M  V30 1788 H 163.522 0.502146 -0.503359 0
M  V30 1789 H 166.124 0.813546 -1.77769 0
M  V30 1790 H 164.828 2.30098 -3.39828 0
M  V30 1791 H 164.359 3.35464 -2.05493 0
M  V30 1792 H 166.374 4.60137 -1.85711 0
M  V30 1793 N 165.547 1.27147 0.931209 0
M  V30 1794 C 166.787 1.14511 1.69312 0
M  V30 1795 C 167.151 -0.304638 1.89568 0
M  V30 1796 O 168.352 -0.553343 2.63043 0
M  V30 1797 C 166.623 1.90349 3.02493 0
M  V30 1798 S 168.182 1.93884 3.93642 0
M  V30 1799 H 165 0.408858 0.581684 0
M  V30 1800 H 167.602 1.61006 1.10893 0
M  V30 1801 H 166.306 2.94877 2.85439 0
M  V30 1802 H 165.837 1.44333 3.65966 0
M  V30 1803 H 167.852 1.03273 4.85334 0
M  V30 1804 N 167.025 -1.13721 1.09112 0
M  V30 1805 C 168.274 -1.84275 0.82009 0
M  V30 1806 C 168.587 -1.84253 -0.656509 0
M  V30 1807 O 169.793 -2.50668 -1.04296 0
M  V30 1808 C 168.249 -3.30825 1.41714 0
M  V30 1809 C 167.857 -3.39244 2.92605 0
M  V30 1810 C 169.601 -4.06443 1.22492 0
M  V30 1811 C 167.508 -4.80047 3.45411 0
M  V30 1812 H 166.438 -0.690387 0.30312 0
M  V30 1813 H 169.089 -1.28146 1.31343 0
M  V30 1814 H 167.471 -3.86737 0.851498 0
M  V30 1815 H 168.645 -2.93344 3.55367 0
M  V30 1816 H 166.96 -2.77088 3.10823 0
M  V30 1817 H 169.557 -5.10387 1.59402 0
M  V30 1818 H 169.9 -4.15972 0.165299 0
M  V30 1819 H 170.433 -3.56852 1.75788 0
M  V30 1820 H 167.172 -4.75709 4.50978 0
M  V30 1821 H 166.692 -5.26455 2.87411 0
M  V30 1822 H 168.371 -5.48957 3.42425 0
M  V30 1823 N 168.503 -0.877838 -1.30888 0
M  V30 1824 C 169.728 -0.506629 -2.01117 0
M  V30 1825 C 170.153 0.895564 -1.65412 0
M  V30 1826 O 169.511 1.5923 -0.866922 0
M  V30 1827 C 169.559 -0.680223 -3.54126 0
M  V30 1828 O 168.663 0.277033 -4.11468 0
M  V30 1829 H 168.004 -0.200518 -0.633 0
M  V30 1830 H 170.534 -1.18342 -1.66902 0
M  V30 1831 H 170.544 -0.5765 -4.03907 0
M  V30 1832 H 169.219 -1.70261 -3.79452 0
M  V30 1833 H 167.796 0.127606 -3.72682 0
M  V30 1834 N 169.982 1.44106 -0.638065 0
M  V30 1835 C 170.912 2.33448 0.0494287 0
M  V30 1836 C 171.893 1.48606 0.827672 0
M  V30 1837 O 173.078 1.77308 0.792173 0
M  V30 1838 C 170.208 3.31771 1.02691 0
M  V30 1839 C 169.162 4.26485 0.359823 0
M  V30 1840 C 168.488 5.14729 1.44769 0
M  V30 1841 C 169.788 5.17056 -0.738296 0
M  V30 1842 H 171.482 2.91183 -0.696636 0
M  V30 1843 H 169.028 1.40014 -0.336456 0
M  V30 1844 H 170.981 3.93161 1.51666 0
M  V30 1845 H 169.705 2.7226 1.80395 0
M  V30 1846 H 168.364 3.66437 -0.10934 0
M  V30 1847 H 168.012 4.51566 2.21578 0
M  V30 1848 H 167.712 5.78913 1.00668 0
M  V30 1849 H 169.236 5.78991 1.93911 0
M  V30 1850 H 170.65 5.72342 -0.331354 0
M  V30 1851 H 169.047 5.89879 -1.10286 0
M  V30 1852 H 170.117 4.57652 -1.60258 0
M  V30 1853 N 171.46 0.379036 1.52974 0
M  V30 1854 C 172.737 -0.263479 1.93817 0
M  V30 1855 C 173.117 -1.65244 1.31368 0
M  V30 1856 O 172.465 -2.23448 0.477856 0
M  V30 1857 C 172.675 -0.300166 3.47707 0
M  V30 1858 C 174.023 -0.534061 4.21228 0
M  V30 1859 O 175.047 -0.38081 3.54159 0
M  V30 1860 O 173.906 -0.833501 5.40106 0
M  V30 1861 H 171 -0.161149 0.811147 0
M  V30 1862 H 173.546 0.432798 1.64088 0
M  V30 1863 H 172.318 0.673138 3.85467 0
M  V30 1864 H 171.941 -1.04179 3.83709 0
M  V30 1865 N 172.938 -1.57226 0.108567 0
M  V30 1866 C 174.354 -1.5766 -0.248058 0
M  V30 1867 C 174.554 -1.12063 -1.67464 0
M  V30 1868 O 173.61 -0.803236 -2.39383 0
M  V30 1869 C 174.923 -3.0069 -0.0242287 0
M  V30 1870 C 176.471 -3.12868 -0.0909372 0
M  V30 1871 C 176.946 -4.57879 0.105067 0
M  V30 1872 N 178.437 -4.63172 0.0506846 0
M  V30 1873 C 179.172 -5.73126 0.177396 0
M  V30 1874 N 178.668 -6.91866 0.359696 0
M  V30 1875 N 180.461 -5.61977 0.117709 0
M  V30 1876 H 172.612 -1.85169 1.04049 0
M  V30 1877 H 174.875 -0.85529 0.40888 0
M  V30 1878 H 174.581 -3.38299 0.961604 0
M  V30 1879 H 174.455 -3.6945 -0.76068 0
M  V30 1880 H 176.842 -2.75124 -1.06729 0
M  V30 1881 H 176.923 -2.46672 0.677225 0
M  V30 1882 H 176.567 -4.96321 1.07834 0
M  V30 1883 H 176.497 -5.22153 -0.682954 0
M  V30 1884 H 178.988 -3.778 -0.0871266 0
M  V30 1885 H 179.301 -7.71503 0.447529 0
M  V30 1886 H 177.646 -6.93874 0.395536 0
M  V30 1887 H 180.837 -4.68094 -0.0236741 0
M  V30 1888 H 181.01 -6.47627 0.219905 0
M  V30 1889 N 174.416 0.165178 -1.56732 0
M  V30 1890 C 175.646 0.894919 -1.86212 0
M  V30 1891 C 176.054 1.76066 -0.692627 0
M  V30 1892 O 175.397 1.80387 0.347303 0
M  V30 1893 C 175.459 1.8174 -3.10179 0
M  V30 1894 C 175.123 1.13064 -4.42793 0
M  V30 1895 C 176.12 0.493169 -5.17556 0
M  V30 1896 C 173.805 1.12556 -4.89527 0
M  V30 1897 C 175.799 -0.140209 -6.37246 0
M  V30 1898 C 173.486 0.488366 -6.09145 0
M  V30 1899 C 174.484 -0.143411 -6.82849 0
M  V30 1900 O 174.172 -0.77055 -8.00199 0
M  V30 1901 H 173.904 0.265114 -0.621844 0
M  V30 1902 H 176.458 0.168242 -2.0471 0
M  V30 1903 H 174.688 2.58455 -2.87642 0
M  V30 1904 H 176.377 2.4175 -3.26055 0
M  V30 1905 H 177.143 0.489023 -4.82528 0
M  V30 1906 H 173.022 1.60672 -4.32094 0
M  V30 1907 H 176.566 -0.633932 -6.94714 0
M  V30 1908 H 172.463 0.490116 -6.43637 0
M  V30 1909 H 173.231 -0.670408 -8.1575 0
M  V30 1910 N 175.894 1.51508 0.433938 0
M  V30 1911 C 177.124 1.67914 1.20369 0
M  V30 1912 C 177.532 0.377461 1.85397 0
M  V30 1913 O 176.875 -0.654255 1.71654 0
M  V30 1914 C 176.937 2.74045 2.32679 0
M  V30 1915 C 176.601 4.16543 1.87991 0
M  V30 1916 C 177.598 5.01211 1.38145 0
M  V30 1917 C 175.283 4.6266 1.95579 0
M  V30 1918 C 177.277 6.30056 0.964774 0
M  V30 1919 C 174.964 5.91501 1.53523 0
M  V30 1920 C 175.962 6.75027 1.04055 0
M  V30 1921 O 175.65 8.01459 0.625964 0
M  V30 1922 H 175.382 0.566578 0.368735 0
M  V30 1923 H 177.936 1.98709 0.51999 0
M  V30 1924 H 176.166 2.38572 3.04336 0
M  V30 1925 H 177.855 2.79295 2.94532 0
M  V30 1926 H 178.621 4.66783 1.31675 0
M  V30 1927 H 174.5 3.97767 2.33029 0
M  V30 1928 H 178.044 6.95202 0.57796 0
M  V30 1929 H 173.941 6.25442 1.59665 0
M  V30 1930 H 174.709 8.15043 0.751509 0
M  V30 1931 N 177.372 -0.689602 1.41712 0
M  V30 1932 C 178.335 -1.78521 1.43746 0
M  V30 1933 C 179.335 -1.57436 0.327191 0
M  V30 1934 O 180.525 -1.64 0.587348 0
M  V30 1935 C 177.657 -3.16971 1.25467 0
M  V30 1936 H 178.85 -1.78108 2.41283 0
M  V30 1937 H 176.403 -0.89781 1.27942 0
M  V30 1938 H 177.138 -3.23019 0.287948 0
M  V30 1939 H 176.923 -3.33678 2.05917 0
M  V30 1940 H 178.413 -3.96935 1.2974 0
M  V30 1941 N 178.85 -1.27639 -0.924453 0
M  V30 1942 C 180.099 -1.13549 -1.66702 0
M  V30 1943 C 180.412 0.317487 -1.93006 0
M  V30 1944 O 181.618 0.579333 -2.65247 0
M  V30 1945 C 180.074 -1.98426 -3.00259 0
M  V30 1946 C 179.682 -3.484 -2.81641 0
M  V30 1947 C 181.426 -1.92993 -3.78092 0
M  V30 1948 C 179.333 -4.25464 -4.10773 0
M  V30 1949 H 178.263 -0.421351 -0.625283 0
M  V30 1950 H 180.914 -1.52085 -1.02676 0
M  V30 1951 H 179.296 -1.52736 -3.6536 0
M  V30 1952 H 180.47 -4.01973 -2.25287 0
M  V30 1953 H 178.785 -3.55245 -2.17232 0
M  V30 1954 H 181.382 -2.47844 -4.7379 0
M  V30 1955 H 181.725 -0.904281 -4.0636 0
M  V30 1956 H 182.258 -2.36595 -3.19793 0
M  V30 1957 H 178.997 -5.28566 -3.87683 0
M  V30 1958 H 178.517 -3.76667 -4.66779 0
M  V30 1959 H 180.196 -4.34812 -4.79111 0
M  V30 1960 N 180.328 1.1314 -1.09713 0
M  V30 1961 C 181.568 1.8613 -0.844683 0
M  V30 1962 C 181.932 1.81765 0.618491 0
M  V30 1963 O 183.133 2.50024 0.98699 0
M  V30 1964 C 181.404 3.30151 -1.36877 0
M  V30 1965 S 182.963 4.206 -1.25064 0
M  V30 1966 H 179.781 0.642056 -0.305427 0
M  V30 1967 H 182.383 1.36343 -1.4011 0
M  V30 1968 H 181.087 3.30883 -2.42786 0
M  V30 1969 H 180.618 3.85 -0.808614 0
M  V30 1970 H 182.633 4.95783 -0.203486 0
M  V30 1971 N 181.806 0.884767 1.30421 0
M  V30 1972 C 183.046 0.509806 1.9794 0
M  V30 1973 C 183.41 -0.923736 1.68319 0
M  V30 1974 O 184.611 -1.40481 2.29169 0
M  V30 1975 C 182.882 0.776732 3.48858 0
M  V30 1976 S 184.441 0.503843 4.35898 0
M  V30 1977 H 181.259 0.189699 0.685227 0
M  V30 1978 H 183.861 1.14399 1.58535 0
M  V30 1979 H 182.565 1.81857 3.67908 0
M  V30 1980 H 182.096 0.1301 3.93185 0
M  V30 1981 H 184.111 -0.657625 4.91823 0
M  V30 1982 N 183.284 -1.43765 0.645699 0
M  V30 1983 C 184.216 -2.29027 -0.0890605 0
M  V30 1984 C 185.229 -1.42093 -0.794563 0
M  V30 1985 O 186.418 -1.66104 -0.653575 0
M  V30 1986 C 183.518 -3.18831 -1.14891 0
M  V30 1987 C 182.691 -4.34261 -0.523043 0
M  V30 1988 C 181.75 -5.04994 -1.47878 0
M  V30 1989 O 180.776 -5.6052 -0.990277 0
M  V30 1990 N 181.978 -5.07795 -2.81291 0
M  V30 1991 H 184.743 -2.92727 0.64272 0
M  V30 1992 H 182.304 -1.54373 0.487924 0
M  V30 1993 H 184.296 -3.63015 -1.78892 0
M  V30 1994 H 182.866 -2.56782 -1.78275 0
M  V30 1995 H 182.086 -3.93088 0.295896 0
M  V30 1996 H 183.374 -5.08728 -0.0858147 0
M  V30 1997 H 182.772 -4.64042 -3.23546 0
M  V30 1998 H 181.329 -5.55721 -3.40614 0
M  V30 1999 N 184.763 -0.387143 -1.52771 0
M  V30 2000 C 186.174 0.0873634 -1.86495 0
M  V30 2001 C 186.525 1.46336 -1.30691 0
M  V30 2002 O 185.65 2.068 -0.637409 0
M  V30 2003 C 186.245 0.165305 -3.38396 0
M  V30 2004 C 184.804 0.584101 -3.7184 0
M  V30 2005 C 183.951 -0.255279 -2.76122 0
M  V30 2006 H 186.902 -0.605104 -1.46711 0
M  V30 2007 H 186.923 0.984848 -3.67534 0
M  V30 2008 H 186.435 -0.836301 -3.78982 0
M  V30 2009 H 184.536 1.59315 -3.36823 0
M  V30 2010 H 184.649 0.343749 -4.77865 0
M  V30 2011 H 183.013 0.279126 -2.53166 0
M  V30 2012 H 183.796 -1.25482 -3.19545 0
M  V30 2013 N 186.241 1.57166 -0.116904 0
M  V30 2014 C 187.171 2.18222 0.830759 0
M  V30 2015 C 188.152 1.12167 1.27877 0
M  V30 2016 O 189.337 1.40394 1.34176 0
M  V30 2017 C 186.467 2.77996 2.08172 0
M  V30 2018 C 185.421 3.89614 1.77157 0
M  V30 2019 C 184.747 4.36187 3.09265 0
M  V30 2020 C 186.047 5.1181 1.04151 0
M  V30 2021 H 187.741 2.97664 0.321992 0
M  V30 2022 H 185.287 1.4318 0.153434 0
M  V30 2023 H 187.24 3.19366 2.74924 0
M  V30 2024 H 185.964 1.9584 2.6137 0
M  V30 2025 H 184.623 3.48816 1.12796 0
M  V30 2026 H 184.271 3.50893 3.60393 0
M  V30 2027 H 183.971 5.11455 2.89288 0
M  V30 2028 H 185.495 4.80207 3.77139 0
M  V30 2029 H 186.909 5.50214 1.61052 0
M  V30 2030 H 185.306 5.92648 0.942762 0
M  V30 2031 H 186.376 4.84892 0.0279022 0
M  V30 2032 N 187.719 -0.156864 1.56817 0
M  V30 2033 C 188.965 -0.872416 1.83076 0
M  V30 2034 C 189.298 -1.81261 0.697001 0
M  V30 2035 O 188.573 -1.92171 -0.30008 0
M  V30 2036 C 188.856 -1.65551 3.19789 0
M  V30 2037 C 188.709 -0.737467 4.43713 0
M  V30 2038 C 190.028 -2.62012 3.53606 0
M  V30 2039 H 187.147 -0.315715 0.665953 0
M  V30 2040 H 189.789 -0.138004 1.89498 0
M  V30 2041 H 187.939 -2.28159 3.14445 0
M  V30 2042 H 189.611 -0.123143 4.61136 0
M  V30 2043 H 187.854 -0.0464067 4.33775 0
M  V30 2044 H 188.525 -1.32122 5.35955 0
M  V30 2045 H 191.001 -2.09525 3.59497 0
M  V30 2046 H 189.877 -3.13861 4.50314 0
M  V30 2047 H 190.138 -3.42902 2.79053 0
M  V30 2048 N 189.197 -1.51736 -0.425897 0
M  V30 2049 C 190.427 -1.68549 -1.19476 0
M  V30 2050 C 190.835 -0.387288 -1.85194 0
M  V30 2051 O 190.178 0.645142 -1.71999 0
M  V30 2052 C 190.24 -2.75275 -2.31223 0
M  V30 2053 C 189.904 -4.17534 -1.8578 0
M  V30 2054 C 190.901 -5.01936 -1.35485 0
M  V30 2055 C 188.586 -4.6369 -1.93123 0
M  V30 2056 C 190.58 -6.30559 -0.931347 0
M  V30 2057 C 188.267 -5.92307 -1.50384 0
M  V30 2058 C 189.265 -6.75569 -1.00473 0
M  V30 2059 O 188.953 -8.0178 -0.583452 0
M  V30 2060 H 188.685 -0.568525 -0.365725 0
M  V30 2061 H 191.239 -1.98982 -0.509444 0
M  V30 2062 H 189.469 -2.40182 -3.03067 0
M  V30 2063 H 191.158 -2.80853 -2.93047 0
M  V30 2064 H 191.924 -4.67475 -1.29197 0
M  V30 2065 H 187.803 -3.98997 -2.30916 0
M  V30 2066 H 191.347 -6.95498 -0.541084 0
M  V30 2067 H 187.244 -6.2628 -1.56346 0
M  V30 2068 H 188.012 -8.1543 -0.708275 0
M  V30 2069 N 190.675 0.682077 -1.42076 0
M  V30 2070 C 192.091 0.994324 -1.24841 0
M  V30 2071 C 192.291 2.0096 -0.147389 0
M  V30 2072 O 191.347 2.47822 0.483782 0
M  V30 2073 C 192.66 1.50607 -2.60265 0
M  V30 2074 C 194.208 1.62421 -2.6756 0
M  V30 2075 C 194.683 2.16994 -4.03333 0
M  V30 2076 N 196.174 2.24337 -4.0525 0
M  V30 2077 C 196.909 2.67621 -5.07116 0
M  V30 2078 N 196.405 3.1041 -6.19368 0
M  V30 2079 N 198.198 2.67305 -4.94474 0
M  V30 2080 H 190.349 0.00973908 -2.12398 0
M  V30 2081 H 192.612 0.0668593 -0.945639 0
M  V30 2082 H 192.318 0.834583 -3.41654 0
M  V30 2083 H 192.192 2.48602 -2.83684 0
M  V30 2084 H 194.579 2.28678 -1.86521 0
M  V30 2085 H 194.66 0.629352 -2.47937 0
M  V30 2086 H 194.304 1.51349 -4.84826 0
M  V30 2087 H 194.234 3.17258 -4.20304 0
M  V30 2088 H 196.725 1.94158 -3.24209 0
M  V30 2089 H 197.038 3.42103 -6.92954 0
M  V30 2090 H 195.383 3.08286 -6.22884 0
M  V30 2091 H 198.574 2.33233 -4.05857 0
M  V30 2092 H 198.747 3.00718 -5.73997 0
M  V30 2093 N 192.153 1.28127 0.917671 0
M  V30 2094 C 193.101 1.11569 2.04096 0
M  V30 2095 C 194.095 0.0360242 1.69362 0
M  V30 2096 O 195.301 0.194501 1.78946 0
M  V30 2097 H 191.676 0.344097 0.668656 0
M  V30 2098 H 193.647 2.06711 2.15205 0
M  V30 2099 C 192.396 0.790197 3.38602 0
M  V30 2100 H 191.719 1.61293 3.6582 0
M  V30 2101 H 193.159 0.714271 4.1794 0
M  V30 2102 C 191.618 -0.505897 3.3308 0
M  V30 2103 O 192.148 -1.53736 3.71117 0
M  V30 2104 N 190.354 -0.505193 2.86175 0
M  V30 2105 H 189.901 0.334621 2.55417 0
M  V30 2106 H 189.859 -1.37243 2.82863 0
M  V30 2107 N 193.631 -1.12557 1.10312 0
M  V30 2108 C 194.578 -2.18247 0.750781 0
M  V30 2109 C 195.548 -1.63853 -0.272293 0
M  V30 2110 O 196.733 -1.90195 -0.151862 0
M  V30 2111 C 193.873 -3.44591 0.187379 0
M  V30 2112 C 192.986 -4.13046 1.2656 0
M  V30 2113 C 192.121 -5.27034 0.663978 0
M  V30 2114 C 191.16 -5.87353 1.72287 0
M  V30 2115 N 190.297 -6.92757 1.1416 0
M  V30 2116 H 195.137 -2.47732 1.65628 0
M  V30 2117 H 192.674 -1.21629 0.827337 0
M  V30 2118 H 194.632 -4.16904 -0.157148 0
M  V30 2119 H 193.262 -3.15527 -0.681355 0
M  V30 2120 H 192.314 -3.38924 1.72727 0
M  V30 2121 H 193.626 -4.53947 2.06721 0
M  V30 2122 H 192.78 -6.06104 0.268824 0
M  V30 2123 H 191.519 -4.87407 -0.169082 0
M  V30 2124 H 190.524 -5.06971 2.12746 0
M  V30 2125 H 191.749 -6.29051 2.55875 0
M  V30 2126 H 189.695 -6.5517 0.329984 0
M  V30 2127 H 189.612 -7.3225 1.88007 0
M  V30 2128 H 190.88 -7.75658 0.772956 0
M  V30 2129 N 195.109 -0.891671 -1.2995 0
M  V30 2130 C 196.042 -0.307994 -2.26112 0
M  V30 2131 C 197.02 0.575262 -1.52084 0
M  V30 2132 O 198.204 0.523864 -1.81074 0
M  V30 2133 C 195.331 0.561734 -3.34009 0
M  V30 2134 C 194.377 -0.253107 -4.25748 0
M  V30 2135 S 195.21 -1.64572 -5.09584 0
M  V30 2136 C 196.366 -0.782699 -6.20987 0
M  V30 2137 H 196.599 -1.12309 -2.75271 0
M  V30 2138 H 194.132 -0.691509 -1.38049 0
M  V30 2139 H 196.09 1.05777 -3.96638 0
M  V30 2140 H 194.751 1.35099 -2.83561 0
M  V30 2141 H 193.944 0.410908 -5.02322 0
M  V30 2142 H 193.546 -0.682004 -3.67729 0
M  V30 2143 H 195.838 -0.00257476 -6.775 0
M  V30 2144 H 196.781 -1.52026 -6.91588 0
M  V30 2145 H 197.189 -0.340638 -5.63471 0
M  V30 2146 N 196.587 1.43421 -0.653314 0
M  V30 2147 C 197.815 2.06163 -0.174491 0
M  V30 2148 C 198.23 1.48969 1.1599 0
M  V30 2149 O 197.587 0.621042 1.71608 0
M  V30 2150 C 197.638 3.61417 -0.0774865 0
M  V30 2151 O 197.359 4.16485 -1.35912 0
M  V30 2152 C 198.86 4.41235 0.427402 0
M  V30 2153 H 196.08 0.664946 -0.0899353 0
M  V30 2154 H 198.624 1.83924 -0.893988 0
M  V30 2155 H 196.779 3.82841 0.59257 0
M  V30 2156 H 197.193 5.10153 -1.21839 0
M  V30 2157 H 198.667 5.5021 0.44423 0
M  V30 2158 H 199.144 4.14268 1.45873 0
M  V30 2159 H 199.75 4.2478 -0.210167 0
M  V30 2160 N 198.065 0.39524 1.52563 0
M  V30 2161 C 199.476 -0.0774719 1.86539 0
M  V30 2162 C 199.827 -1.45641 1.31466 0
M  V30 2163 O 198.952 -2.06459 0.648367 0
M  V30 2164 C 199.547 -0.147356 3.38479 0
M  V30 2165 C 198.106 -0.564373 3.72145 0
M  V30 2166 C 197.253 0.269919 2.75983 0
M  V30 2167 H 200.204 0.612876 1.46388 0
M  V30 2168 H 200.225 -0.965343 3.68051 0
M  V30 2169 H 199.737 0.856387 3.78534 0
M  V30 2170 H 197.838 -1.57527 3.37663 0
M  V30 2171 H 197.951 -0.318402 4.78041 0
M  V30 2172 H 196.315 -0.265696 2.5331 0
M  V30 2173 H 197.098 1.27175 3.18875 0
M  V30 2174 N 199.544 -1.57102 0.125237 0
M  V30 2175 C 200.474 -2.18659 -0.819174 0
M  V30 2176 C 201.455 -1.12843 -1.27281 0
M  V30 2177 O 202.64 -1.41104 -1.33429 0
M  V30 2178 C 199.77 -2.79096 -2.06695 0
M  V30 2179 C 198.724 -3.90548 -1.75088 0
M  V30 2180 C 198.05 -4.37821 -3.06948 0
M  V30 2181 C 199.35 -5.12356 -1.01435 0
M  V30 2182 H 201.044 -2.9783 -0.306202 0
M  V30 2183 H 198.59 -1.4326 -0.145839 0
M  V30 2184 H 200.543 -3.2082 -2.73226 0
M  V30 2185 H 199.267 -1.97223 -2.60328 0
M  V30 2186 H 197.926 -3.49409 -1.10944 0
M  V30 2187 H 197.574 -3.52799 -3.58527 0
M  V30 2188 H 197.274 -5.12982 -2.86571 0
M  V30 2189 H 198.798 -4.822 -3.74587 0
M  V30 2190 H 200.212 -5.5106 -1.58132 0
M  V30 2191 H 198.609 -5.9314 -0.911319 0
M  V30 2192 H 199.679 -4.849 -0.00218681 0
M  V30 2193 N 201.022 0.148545 -1.56898 0
M  V30 2194 C 202.438 0.501131 -1.51528 0
M  V30 2195 C 202.638 1.83458 -0.833399 0
M  V30 2196 O 201.694 2.49259 -0.40328 0
M  V30 2197 C 203.007 0.512864 -2.96294 0
M  V30 2198 C 204.555 0.598487 -3.07225 0
M  V30 2199 C 205.03 0.640897 -4.53494 0
M  V30 2200 N 206.521 0.703163 -4.57832 0
M  V30 2201 C 207.256 0.756935 -5.68382 0
M  V30 2202 N 206.752 0.770147 -6.88506 0
M  V30 2203 N 208.545 0.797698 -5.56411 0
M  V30 2204 H 200.696 -0.725532 -1.99624 0
M  V30 2205 H 202.959 -0.264358 -0.910395 0
M  V30 2206 H 202.665 -0.398691 -3.49433 0
M  V30 2207 H 202.539 1.35133 -3.52163 0
M  V30 2208 H 204.926 1.50046 -2.54106 0
M  V30 2209 H 205.007 -0.267093 -2.54402 0
M  V30 2210 H 204.651 -0.256915 -5.0725 0
M  V30 2211 H 204.581 1.52295 -5.04097 0
M  V30 2212 H 207.072 0.700314 -3.71354 0
M  V30 2213 H 207.385 0.812983 -7.68512 0
M  V30 2214 H 205.73 0.738049 -6.9107 0
M  V30 2215 H 208.921 0.784535 -4.61479 0
M  V30 2216 H 209.094 0.83614 -6.42583 0
M  V30 2217 N 202.5 1.5196 0.417844 0
M  V30 2218 C 203.749 1.6482 1.16264 0
M  V30 2219 C 204.062 0.379886 1.91876 0
M  V30 2220 O 205.268 0.388154 2.68711 0
M  V30 2221 C 203.724 2.91161 2.1155 0
M  V30 2222 C 203.332 4.25068 1.41495 0
M  V30 2223 C 205.076 3.13383 2.86341 0
M  V30 2224 C 202.983 5.42541 2.35379 0
M  V30 2225 H 201.913 0.613954 0.437694 0
M  V30 2226 H 204.564 1.78442 0.427871 0
M  V30 2227 H 202.946 2.71218 2.88543 0
M  V30 2228 H 204.12 4.55463 0.699263 0
M  V30 2229 H 202.435 4.0888 0.787792 0
M  V30 2230 H 205.032 3.98324 3.5671 0
M  V30 2231 H 205.375 2.27256 3.48798 0
M  V30 2232 H 205.908 3.33757 2.1645 0
M  V30 2233 H 202.647 6.30987 1.77582 0
M  V30 2234 H 202.167 5.16497 3.04945 0
M  V30 2235 H 203.846 5.75272 2.96093 0
M  V30 2236 N 203.978 -0.674533 1.42435 0
M  V30 2237 C 204.941 -1.76986 1.45632 0
M  V30 2238 C 205.941 -1.5708 0.343871 0
M  V30 2239 O 207.131 -1.63367 0.604709 0
M  V30 2240 C 204.263 -3.15623 1.28822 0
M  V30 2241 H 205.456 -1.75539 2.43158 0
M  V30 2242 H 203.009 -0.884189 1.28887 0
M  V30 2243 H 203.744 -3.22696 0.322193 0
M  V30 2244 H 203.529 -3.31475 2.09444 0
M  V30 2245 H 205.019 -3.95537 1.33942 0
M  V30 2246 N 205.456 -1.28612 -0.910864 0
M  V30 2247 C 206.386 -1.15326 -2.03032 0
M  V30 2248 C 207.367 -0.0502924 -1.70026 0
M  V30 2249 O 208.552 -0.227797 -1.92859 0
M  V30 2250 C 205.682 -0.817343 -3.37545 0
M  V30 2251 C 204.636 -1.8754 -3.84724 0
M  V30 2252 C 203.962 -1.39305 -5.16235 0
M  V30 2253 C 205.262 -3.28244 -4.06267 0
M  V30 2254 H 206.956 -2.08975 -2.14406 0
M  V30 2255 H 204.502 -1.00612 -1.03021 0
M  V30 2256 H 206.455 -0.711151 -4.15356 0
M  V30 2257 H 205.179 0.154846 -3.26233 0
M  V30 2258 H 203.838 -1.97079 -3.09121 0
M  V30 2259 H 203.486 -0.409846 -5.01328 0
M  V30 2260 H 203.186 -2.10057 -5.48771 0
M  V30 2261 H 204.71 -1.30014 -5.96598 0
M  V30 2262 H 206.124 -3.21611 -4.74594 0
M  V30 2263 H 204.521 -3.96855 -4.5014 0
M  V30 2264 H 205.591 -3.72048 -3.10979 0
M  V30 2265 N 206.934 1.1197 -1.10907 0
M  V30 2266 C 207.867 2.16998 -0.706192 0
M  V30 2267 C 208.845 1.59903 0.294897 0
M  V30 2268 O 210.029 1.87513 0.192636 0
M  V30 2269 C 207.156 3.38673 -0.0427664 0
M  V30 2270 C 206.202 4.14414 -1.00811 0
M  V30 2271 S 207.035 4.72079 -2.52789 0
M  V30 2272 C 208.191 5.97083 -1.87731 0
M  V30 2273 H 208.424 2.50837 -1.59587 0
M  V30 2274 H 205.957 1.23508 -0.926555 0
M  V30 2275 H 207.915 4.09142 0.333668 0
M  V30 2276 H 206.576 3.03105 0.823788 0
M  V30 2277 H 205.769 5.016 -0.491259 0
M  V30 2278 H 205.371 3.49678 -1.3267 0
M  V30 2279 H 207.663 6.66599 -1.21044 0
M  V30 2280 H 208.606 6.53403 -2.72892 0
M  V30 2281 H 209.014 5.4837 -1.33979 0
M  V30 2282 N 208.412 0.89855 1.29475 0
M  V30 2283 C 209.342 0.39201 2.30186 0
M  V30 2284 C 210.323 -0.532359 1.61555 0
M  V30 2285 O 211.508 -0.443331 1.89072 0
M  V30 2286 C 208.638 -0.382353 3.45189 0
M  V30 2287 C 207.592 0.451483 4.25612 0
M  V30 2288 C 206.918 -0.450307 5.328 0
M  V30 2289 C 208.218 1.70079 4.93832 0
M  V30 2290 H 209.912 1.23362 2.72804 0
M  V30 2291 H 207.458 0.594638 1.31149 0
M  V30 2292 H 209.411 -0.747451 4.14718 0
M  V30 2293 H 208.135 -1.25774 3.01411 0
M  V30 2294 H 206.794 0.798897 3.57789 0
M  V30 2295 H 206.442 -1.32379 4.85268 0
M  V30 2296 H 206.142 0.103902 5.87508 0
M  V30 2297 H 207.666 -0.811623 6.05182 0
M  V30 2298 H 209.08 1.40549 5.55805 0
M  V30 2299 H 207.477 2.19623 5.58467 0
M  V30 2300 H 208.547 2.43744 4.19186 0
M  V30 2301 N 209.89 -1.43072 0.660911 0
M  V30 2302 C 211.138 -2.01323 0.177094 0
M  V30 2303 C 211.459 -1.5245 -1.2159 0
M  V30 2304 O 210.729 -0.740322 -1.81373 0
M  V30 2305 H 209.309 -0.744382 0.0624804 0
M  V30 2306 H 211.971 -1.75179 0.854305 0
M  V30 2307 H 211.067 -3.11649 0.167641 0
M  V30 2308 N 211.368 -0.403325 -1.52352 0
M  V30 2309 C 212.616 0.174003 -2.0135 0
M  V30 2310 C 212.937 1.46139 -1.29106 0
M  V30 2311 O 212.207 1.91448 -0.415253 0
M  V30 2312 H 210.787 0.0672911 -0.743963 0
M  V30 2313 H 213.449 -0.538235 -1.87321 0
M  V30 2314 H 212.545 0.374254 -3.09848 0
M  V30 2315 N 212.846 1.57033 -0.133567 0
M  V30 2316 C 214.086 1.97575 0.523789 0
M  V30 2317 C 214.45 1.01605 1.62912 0
M  V30 2318 O 215.651 1.3114 2.3464 0
M  V30 2319 C 213.922 3.42256 1.02935 0
M  V30 2320 S 215.481 4.04817 1.69319 0
M  V30 2321 H 212.299 0.690427 0.169799 0
M  V30 2322 H 214.901 1.94234 -0.222101 0
M  V30 2323 H 213.605 4.09842 0.213917 0
M  V30 2324 H 213.136 3.4928 1.81017 0
M  V30 2325 H 215.151 3.96767 2.97977 0
M  V30 2326 N 214.325 -0.140222 1.56975 0
M  V30 2327 C 215.571 -0.848084 1.84876 0
M  V30 2328 C 215.926 -1.78481 0.718481 0
M  V30 2329 O 215.219 -1.89497 -0.283093 0
M  V30 2330 C 215.413 -1.65386 3.16832 0
M  V30 2331 C 215.242 -0.79665 4.42587 0
M  V30 2332 C 214.012 -0.459648 5.03205 0
M  V30 2333 C 216.21 -0.12389 5.14151 0
M  V30 2334 N 214.192 0.410446 6.12526 0
M  V30 2335 C 215.563 0.606064 6.17031 0
M  V30 2336 C 217.618 -0.0452654 4.97879 0
M  V30 2337 C 216.321 1.40723 7.054 0
M  V30 2338 C 218.347 0.742658 5.86718 0
M  V30 2339 C 217.709 1.46087 6.89085 0
M  V30 2340 H 213.808 -0.287946 0.727056 0
M  V30 2341 H 216.392 -0.11304 1.94372 0
M  V30 2342 H 214.563 -2.36009 3.08471 0
M  V30 2343 H 216.295 -2.30541 3.32615 0
M  V30 2344 H 213.05 -0.797006 4.66846 0
M  V30 2345 H 213.474 0.836716 6.7181 0
M  V30 2346 H 218.116 -0.586184 4.18717 0
M  V30 2347 H 215.834 1.95938 7.83986 0
M  V30 2348 H 219.42 0.805574 5.76196 0
M  V30 2349 H 218.3 2.06077 7.56639 0
M  V30 2350 N 215.803 -1.52179 -0.40978 0
M  V30 2351 C 217.049 -1.66453 -1.15851 0
M  V30 2352 C 217.382 -0.392972 -1.90182 0
M  V30 2353 O 216.657 0.608579 -1.84734 0
M  V30 2354 C 216.94 -2.88612 -2.15349 0
M  V30 2355 C 216.793 -4.25815 -1.44918 0
M  V30 2356 C 218.112 -3.06294 -3.16026 0
M  V30 2357 H 215.231 -0.60575 -0.419805 0
M  V30 2358 H 217.873 -1.84732 -0.444314 0
M  V30 2359 H 216.023 -2.73158 -2.76255 0
M  V30 2360 H 217.695 -4.52995 -0.871365 0
M  V30 2361 H 215.938 -4.27247 -0.751159 0
M  V30 2362 H 216.609 -5.07337 -2.17516 0
M  V30 2363 H 219.085 -3.20641 -2.65195 0
M  V30 2364 H 217.961 -3.93283 -3.8291 0
M  V30 2365 H 218.222 -2.19579 -3.83715 0
M  V30 2366 N 217.281 0.66697 -1.42791 0
M  V30 2367 C 218.53 1.42278 -1.42968 0
M  V30 2368 C 218.843 1.9553 -0.0524489 0
M  V30 2369 O 220.049 2.71414 0.068363 0
M  V30 2370 C 218.505 2.57418 -2.51524 0
M  V30 2371 C 218.113 2.10832 -3.9529 0
M  V30 2372 C 219.857 3.34878 -2.60877 0
M  V30 2373 C 217.764 3.23101 -4.95338 0
M  V30 2374 H 216.694 0.534533 -0.531781 0
M  V30 2375 H 219.345 0.721302 -1.68729 0
M  V30 2376 H 217.727 3.29971 -2.18941 0
M  V30 2377 H 218.901 1.4538 -4.37266 0
M  V30 2378 H 217.216 1.46289 -3.89857 0
M  V30 2379 H 219.813 4.18505 -3.32802 0
M  V30 2380 H 220.156 3.81993 -1.6549 0
M  V30 2381 H 220.689 2.69398 -2.92693 0
M  V30 2382 H 217.428 2.80969 -5.9223 0
M  V30 2383 H 216.948 3.87309 -4.57987 0
M  V30 2384 H 218.627 3.88447 -5.17415 0
M  V30 2385 N 218.759 1.29093 0.90403 0
M  V30 2386 C 220.17 1.15186 1.46932 0
M  V30 2387 C 220.521 -0.254587 1.94541 0
M  V30 2388 O 219.646 -1.14972 1.83332 0
M  V30 2389 C 220.241 2.08492 2.67051 0
M  V30 2390 C 218.8 1.98621 3.19729 0
M  V30 2391 C 217.947 1.9967 1.92425 0
M  V30 2392 H 220.898 1.41641 0.715789 0
M  V30 2393 H 220.919 1.65461 3.42641 0
M  V30 2394 H 220.431 3.10847 2.3237 0
M  V30 2395 H 218.532 0.993389 3.59114 0
M  V30 2396 H 218.645 2.86068 3.8432 0
M  V30 2397 H 217.009 1.44208 2.09943 0
M  V30 2398 H 217.792 3.03721 1.60026 0
M  V30 2399 N 220.237 -1.11381 1.11499 0
M  V30 2400 C 221.465 -1.86934 0.88675 0
M  V30 2401 C 221.88 -1.80195 -0.563476 0
M  V30 2402 O 221.237 -1.18367 -1.38908 0
M  V30 2403 C 221.288 -3.35722 1.34064 0
M  V30 2404 O 221.009 -3.4232 2.73401 0
M  V30 2405 C 222.51 -4.2818 1.14791 0
M  V30 2406 H 219.73 -0.591117 0.317523 0
M  V30 2407 H 222.274 -1.40865 1.48248 0
M  V30 2408 H 220.429 -3.79294 0.788355 0
M  V30 2409 H 220.843 -4.34971 2.93087 0
M  V30 2410 H 222.317 -5.30817 1.5145 0
M  V30 2411 H 222.794 -4.39113 0.0875279 0
M  V30 2412 H 223.4 -3.90402 1.68721 0
M  V30 2413 N 221.715 -0.905404 -1.28997 0
M  V30 2414 C 222.962 -0.534248 -1.95325 0
M  V30 2415 C 223.29 0.920535 -1.71337 0
M  V30 2416 O 222.545 1.66861 -1.02254 0
M  V30 2417 C 222.844 -0.779906 -3.48787 0
M  V30 2418 C 222.51 -2.21293 -3.92861 0
M  V30 2419 C 221.172 -2.60475 -4.04606 0
M  V30 2420 C 223.524 -3.14587 -4.15553 0
M  V30 2421 C 220.852 -3.9212 -4.36416 0
M  V30 2422 C 223.204 -4.45787 -4.48839 0
M  V30 2423 C 221.868 -4.84834 -4.58794 0
M  V30 2424 H 221.138 -0.195495 -0.714747 0
M  V30 2425 H 223.785 -1.14514 -1.53488 0
M  V30 2426 H 222.09 -0.0861365 -3.91705 0
M  V30 2427 H 223.787 -0.472029 -3.98212 0
M  V30 2428 H 220.377 -1.89887 -3.84241 0
M  V30 2429 H 224.561 -2.85528 -4.0594 0
M  V30 2430 H 219.817 -4.22086 -4.42327 0
M  V30 2431 H 223.991 -5.18098 -4.65346 0
M  V30 2432 H 221.618 -5.86877 -4.83197 0
M  V30 2433 N 223.193 1.4272 -0.668489 0
M  V30 2434 C 224.442 2.00846 -0.185389 0
M  V30 2435 C 224.755 1.53442 1.21305 0
M  V30 2436 O 225.961 2.03944 1.79218 0
M  V30 2437 C 224.417 3.58805 -0.280591 0
M  V30 2438 C 224.025 4.15198 -1.68268 0
M  V30 2439 C 225.769 4.24255 0.14412 0
M  V30 2440 C 223.676 5.655 -1.73099 0
M  V30 2441 H 222.606 0.751145 -0.0655475 0
M  V30 2442 H 225.257 1.63516 -0.832752 0
M  V30 2443 H 223.639 3.93608 0.434553 0
M  V30 2444 H 224.813 3.91866 -2.42441 0
M  V30 2445 H 223.128 3.62176 -2.05469 0
M  V30 2446 H 225.725 5.34547 0.128086 0
M  V30 2447 H 226.068 3.99277 1.17827 0
M  V30 2448 H 226.601 3.94389 -0.519798 0
M  V30 2449 H 223.34 5.95268 -2.74475 0
M  V30 2450 H 222.86 5.90842 -1.03274 0
M  V30 2451 H 224.539 6.29808 -1.48158 0
M  V30 2452 N 224.671 0.411399 1.52136 0
M  V30 2453 C 225.896 -0.165538 2.06738 0
M  V30 2454 C 226.321 -1.379 1.27926 0
M  V30 2455 O 225.679 -1.78628 0.310114 0
M  V30 2456 C 225.727 -0.492124 3.57226 0
M  V30 2457 O 224.831 -1.58276 3.80818 0
M  V30 2458 H 224.172 -0.0132132 0.663869 0
M  V30 2459 H 226.702 0.585253 1.96051 0
M  V30 2460 H 226.712 -0.750104 4.01045 0
M  V30 2461 H 225.387 0.394922 4.14021 0
M  V30 2462 H 223.964 -1.31677 3.48877 0
M  V30 2463 N 226.149 -1.5696 0.141893 0
M  V30 2464 C 227.396 -1.9596 -0.510492 0
M  V30 2465 C 227.724 -1.02648 -1.65208 0
M  V30 2466 O 226.979 -0.0546947 -1.95624 0
M  V30 2467 C 227.278 -3.41242 -1.06249 0
M  V30 2468 C 226.944 -4.50882 -0.0398791 0
M  V30 2469 C 225.606 -4.80595 0.241247 0
M  V30 2470 C 227.958 -5.17058 0.65578 0
M  V30 2471 C 225.286 -5.73792 1.22393 0
M  V30 2472 C 227.638 -6.11313 1.62724 0
M  V30 2473 C 226.302 -6.39407 1.91612 0
M  V30 2474 H 225.572 -0.717068 -0.186802 0
M  V30 2475 H 228.219 -1.90142 0.227643 0
M  V30 2476 H 226.524 -3.43866 -1.87785 0
M  V30 2477 H 228.221 -3.68742 -1.57576 0
M  V30 2478 H 224.811 -4.27754 -0.269174 0
M  V30 2479 H 228.995 -4.94239 0.451779 0
M  V30 2480 H 224.251 -5.93853 1.45424 0
M  V30 2481 H 228.425 -6.61668 2.17183 0
M  V30 2482 H 226.052 -7.11427 2.6791 0
M  V30 2483 N 227.627 0.131896 -1.57047 0
M  V30 2484 C 228.557 1.16384 -2.02428 0
M  V30 2485 C 229.538 1.43936 -0.90644 0
M  V30 2486 O 230.723 1.54599 -1.17528 0
M  V30 2487 C 227.853 2.49328 -2.4177 0
M  V30 2488 C 226.807 2.36266 -3.56879 0
M  V30 2489 C 226.133 3.74057 -3.8208 0
M  V30 2490 C 227.433 1.834 -4.89042 0
M  V30 2491 H 229.127 0.786433 -2.88887 0
M  V30 2492 H 226.673 0.376855 -1.38981 0
M  V30 2493 H 228.626 3.21759 -2.7212 0
M  V30 2494 H 227.35 2.88934 -1.52266 0
M  V30 2495 H 226.009 1.66286 -3.26718 0
M  V30 2496 H 225.657 4.11125 -2.89803 0
M  V30 2497 H 225.357 3.66174 -4.59554 0
M  V30 2498 H 226.881 4.48012 -4.1487 0
M  V30 2499 H 228.295 2.45636 -5.18011 0
M  V30 2500 H 226.692 1.8637 -5.70426 0
M  V30 2501 H 227.762 0.790662 -4.7841 0
M  V30 2502 N 229.106 1.52395 0.401703 0
M  V30 2503 C 230.517 1.58899 0.980202 0
M  V30 2504 C 230.868 0.434032 1.91339 0
M  V30 2505 O 229.993 -0.444619 2.11783 0
M  V30 2506 C 230.588 2.87994 1.78451 0
M  V30 2507 C 229.147 2.96953 2.31292 0
M  V30 2508 C 228.294 2.53903 1.11483 0
M  V30 2509 H 231.245 1.57657 0.18168 0
M  V30 2510 H 231.266 2.73765 2.64259 0
M  V30 2511 H 230.778 3.72035 1.10506 0
M  V30 2512 H 228.879 2.17422 3.02586 0
M  V30 2513 H 228.992 4.01344 2.61649 0
M  V30 2514 H 227.356 2.07925 1.47104 0
M  V30 2515 H 228.139 3.40326 0.450928 0
M  V30 2516 N 230.584 -0.659388 1.43143 0
M  V30 2517 C 231.833 -1.41518 1.43721 0
M  V30 2518 C 232.146 -1.95499 0.0628176 0
M  V30 2519 O 233.352 -2.71446 -0.0539683 0
M  V30 2520 C 231.808 -2.5608 2.52885 0
M  V30 2521 C 231.416 -2.08733 3.96402 0
M  V30 2522 C 233.16 -3.3349 2.62649 0
M  V30 2523 C 231.067 -3.20469 4.97045 0
M  V30 2524 H 229.997 -0.531705 0.534608 0
M  V30 2525 H 232.648 -0.712343 1.69109 0
M  V30 2526 H 231.03 -3.28805 2.20688 0
M  V30 2527 H 232.204 -1.43059 4.3803 0
M  V30 2528 H 230.519 -1.44219 3.90627 0
M  V30 2529 H 233.116 -4.16734 3.35017 0
M  V30 2530 H 233.459 -3.8111 1.67513 0
M  V30 2531 H 233.992 -2.67842 2.94118 0
M  V30 2532 H 230.731 -2.77824 5.93712 0
M  V30 2533 H 230.251 -3.84874 4.60034 0
M  V30 2534 H 231.93 -3.85698 5.19467 0
M  V30 2535 N 232.062 -1.29571 -0.897171 0
M  V30 2536 C 232.995 -1.0924 -2.00354 0
M  V30 2537 C 233.973 -0.00354011 -1.626 0
M  V30 2538 O 235.157 -0.15473 -1.87864 0
M  V30 2539 C 232.284 -0.66352 -3.32137 0
M  V30 2540 C 231.33 -1.75146 -3.88878 0
M  V30 2541 S 232.163 -3.35124 -4.17674 0
M  V30 2542 C 233.319 -2.9411 -5.52494 0
M  V30 2543 H 233.552 -2.02907 -2.17292 0
M  V30 2544 H 231.085 -1.13746 -1.04408 0
M  V30 2545 H 233.043 -0.422791 -4.08317 0
M  V30 2546 H 231.704 0.253588 -3.13075 0
M  V30 2547 H 230.897 -1.40337 -4.84068 0
M  V30 2548 H 230.499 -1.94584 -3.19395 0
M  V30 2549 H 232.791 -2.41312 -6.33068 0
M  V30 2550 H 233.734 -3.88161 -5.9223 0
M  V30 2551 H 234.142 -2.32332 -5.14473 0
M  V30 2552 N 233.54 1.10788 -1.12088 0
M  V30 2553 C 234.472 2.16816 -0.743213 0
M  V30 2554 C 235.485 1.6119 0.228412 0
M  V30 2555 O 236.674 1.78497 0.0102931 0
M  V30 2556 C 233.774 3.38809 -0.0787313 0
M  V30 2557 C 232.947 4.23885 -1.0789 0
M  V30 2558 C 232.006 5.24334 -0.442713 0
M  V30 2559 O 231.032 5.58497 -1.09864 0
M  V30 2560 N 232.234 5.75079 0.791457 0
M  V30 2561 H 234.999 2.49825 -1.65552 0
M  V30 2562 H 232.56 1.26373 -1.012 0
M  V30 2563 H 234.552 4.03107 0.358766 0
M  V30 2564 H 233.122 3.03805 0.736275 0
M  V30 2565 H 232.342 3.55939 -1.69414 0
M  V30 2566 H 233.63 4.77562 -1.75533 0
M  V30 2567 H 233.028 5.49517 1.3434 0
M  V30 2568 H 231.585 6.4118 1.17183 0
M  V30 2569 N 235.018 0.912232 1.28515 0
M  V30 2570 C 236.266 0.543523 1.94654 0
M  V30 2571 C 236.587 -0.9155 1.72173 0
M  V30 2572 O 235.857 -1.64708 1.06058 0
M  V30 2573 H 234.437 0.198017 0.720277 0
M  V30 2574 H 237.099 1.16126 1.56527 0
M  V30 2575 H 236.195 0.736684 3.03281 0
M  V30 2576 N 236.496 -1.42363 0.676048 0
M  V30 2577 C 237.742 -2.02336 0.207809 0
M  V30 2578 C 238.097 -1.52506 -1.17302 0
M  V30 2579 O 237.39 -0.718048 -1.77636 0
M  V30 2580 C 237.584 -3.56929 0.183431 0
M  V30 2581 C 237.413 -4.21762 1.56036 0
M  V30 2582 C 236.183 -4.56881 2.15842 0
M  V30 2583 C 238.381 -4.49267 2.50327 0
M  V30 2584 N 236.363 -5.069 3.46303 0
M  V30 2585 C 237.734 -5.00851 3.65443 0
M  V30 2586 C 239.789 -4.31257 2.48841 0
M  V30 2587 C 238.492 -5.36317 4.79329 0
M  V30 2588 C 240.518 -4.678 3.61824 0
M  V30 2589 C 239.88 -5.19537 4.75668 0
M  V30 2590 H 235.979 -0.772583 0.120993 0
M  V30 2591 H 238.563 -1.73203 0.889306 0
M  V30 2592 H 236.734 -3.85576 -0.467483 0
M  V30 2593 H 238.466 -4.03603 -0.297808 0
M  V30 2594 H 235.221 -4.4268 1.68319 0
M  V30 2595 H 235.645 -5.36338 4.13123 0
M  V30 2596 H 240.287 -3.90511 1.62051 0
M  V30 2597 H 238.005 -5.75995 5.66794 0
M  V30 2598 H 241.591 -4.55541 3.61903 0
M  V30 2599 H 240.471 -5.47287 5.61646 0
M  V30 2600 N 237.974 -0.419461 -1.51915 0
M  V30 2601 C 238.922 0.415502 -2.28859 0
M  V30 2602 C 239.916 1.03674 -1.3397 0
M  V30 2603 O 241.122 0.973757 -1.51387 0
M  V30 2604 H 237.497 0.152786 -0.736315 0
M  V30 2605 H 239.468 -0.254531 -2.97312 0
M  V30 2606 C 238.217 1.51425 -3.12995 0
M  V30 2607 H 237.54 1.04556 -3.85886 0
M  V30 2608 H 238.98 2.07208 -3.6992 0
M  V30 2609 C 237.439 2.48745 -2.27217 0
M  V30 2610 O 237.969 3.52871 -1.9195 0
M  V30 2611 N 236.175 2.19202 -1.90785 0
M  V30 2612 H 235.722 1.34556 -2.19664 0
M  V30 2613 H 235.68 2.84561 -1.33687 0
M  V30 2614 N 239.452 1.56882 -0.150215 0
M  V30 2615 C 240.4 2.18214 0.805313 0
M  V30 2616 C 241.394 1.14006 1.25296 0
M  V30 2617 O 242.6 1.3225 1.22107 0
M  V30 2618 H 238.975 0.698762 0.277913 0
M  V30 2619 H 240.946 2.97231 0.263862 0
M  V30 2620 C 239.695 2.82065 2.03309 0
M  V30 2621 H 239.018 3.61968 1.69763 0
M  V30 2622 H 240.458 3.28477 2.68103 0
M  V30 2623 C 238.917 1.80739 2.84315 0
M  V30 2624 O 239.447 1.27983 3.80767 0
M  V30 2625 N 237.653 1.4997 2.48913 0
M  V30 2626 H 237.2 1.93062 1.70542 0
M  V30 2627 H 237.158 0.824217 3.03404 0
M  V30 2628 N 240.93 -0.123565 1.57115 0
M  V30 2629 C 242.179 -0.830704 1.83799 0
M  V30 2630 C 242.492 -1.81259 0.735158 0
M  V30 2631 O 243.698 -2.56558 0.888278 0
M  V30 2632 C 242.154 -1.52802 3.25852 0
M  V30 2633 C 241.762 -0.587356 4.44133 0
M  V30 2634 C 243.506 -2.22056 3.61789 0
M  V30 2635 C 241.413 -1.28764 5.77212 0
M  V30 2636 H 240.343 -0.313967 0.685522 0
M  V30 2637 H 242.994 -0.0834359 1.8331 0
M  V30 2638 H 241.376 -2.32175 3.20797 0
M  V30 2639 H 242.55 0.172829 4.60476 0
M  V30 2640 H 240.865 -0.00201892 4.164 0
M  V30 2641 H 243.462 -2.75131 4.58483 0
M  V30 2642 H 243.805 -2.99644 2.88997 0
M  V30 2643 H 244.338 -1.49576 3.68608 0
M  V30 2644 H 241.077 -0.55314 6.53162 0
M  V30 2645 H 240.597 -2.01995 5.64764 0
M  V30 2646 H 242.276 -1.8221 6.20813 0
M  V30 2647 N 242.408 -1.52605 -0.393616 0
M  V30 2648 C 243.656 -1.67093 -1.13685 0
M  V30 2649 C 243.977 -0.411011 -1.90619 0
M  V30 2650 O 243.247 0.574491 -1.87287 0
M  V30 2651 H 241.827 -0.615923 -0.422668 0
M  V30 2652 H 244.489 -1.89704 -0.447039 0
M  V30 2653 H 243.585 -2.51922 -1.84232 0
M  V30 2654 N 243.887 0.651787 -1.4349 0
M  V30 2655 C 245.136 1.40754 -1.44469 0
M  V30 2656 C 245.449 1.95463 -0.0731845 0
M  V30 2657 O 246.655 2.71471 0.0395721 0
M  V30 2658 C 245.111 2.54735 -2.5424 0
M  V30 2659 C 244.719 2.06628 -3.97504 0
M  V30 2660 C 246.463 3.32092 -2.64414 0
M  V30 2661 C 244.37 3.17829 -4.98737 0
M  V30 2662 H 243.3 0.528862 -0.53742 0
M  V30 2663 H 245.951 0.703365 -1.69485 0
M  V30 2664 H 244.333 3.2763 -2.22428 0
M  V30 2665 H 245.507 1.40734 -4.38783 0
M  V30 2666 H 243.822 1.42146 -3.91387 0
M  V30 2667 H 246.419 4.14952 -3.37223 0
M  V30 2668 H 246.762 3.80217 -1.69532 0
M  V30 2669 H 247.295 2.66279 -2.95534 0
M  V30 2670 H 244.034 2.74671 -5.95177 0
M  V30 2671 H 243.554 3.82429 -4.62069 0
M  V30 2672 H 245.233 3.82937 -5.21505 0
M  V30 2673 N 245.365 1.30045 0.890287 0
M  V30 2674 C 246.614 1.17929 1.63633 0
M  V30 2675 C 246.927 -0.266204 1.9378 0
M  V30 2676 O 248.133 -0.508804 2.6669 0
M  V30 2677 C 246.589 2.06317 2.94892 0
M  V30 2678 C 246.197 3.55745 2.72305 0
M  V30 2679 C 247.941 2.0295 3.72843 0
M  V30 2680 C 245.848 4.36205 3.99348 0
M  V30 2681 H 244.778 0.437782 0.613892 0
M  V30 2682 H 247.429 1.54754 0.986075 0
M  V30 2683 H 245.811 1.6237 3.61182 0
M  V30 2684 H 246.985 4.07805 2.1455 0
M  V30 2685 H 245.3 3.6088 2.07737 0
M  V30 2686 H 247.897 2.60319 4.67053 0
M  V30 2687 H 248.24 1.0117 4.0382 0
M  V30 2688 H 248.773 2.4499 3.13408 0
M  V30 2689 H 245.512 5.38659 3.73533 0
M  V30 2690 H 245.032 3.8891 4.56628 0
M  V30 2691 H 246.711 4.47362 4.67415 0
M  V30 2692 N 246.843 -1.10192 1.12674 0
M  V30 2693 C 248.12 -1.78717 0.794965 0
M  V30 2694 C 248.5 -1.98628 -0.714853 0
M  V30 2695 O 247.848 -1.58135 -1.64941 0
M  V30 2696 C 248.058 -3.11546 1.5729 0
M  V30 2697 C 249.406 -3.86382 1.76052 0
M  V30 2698 O 250.43 -3.21274 1.53823 0
M  V30 2699 O 249.289 -5.03246 2.13087 0
M  V30 2700 H 246.383 -0.774702 0.289423 0
M  V30 2701 H 248.929 -1.16819 1.23091 0
M  V30 2702 H 247.701 -2.92489 2.59935 0
M  V30 2703 H 247.324 -3.81164 1.13137 0
M  V30 2704 N 248.321 -0.919034 -1.28029 0
M  V30 2705 C 249.251 -0.428581 -2.29533 0
M  V30 2706 C 250.232 0.50659 -1.62381 0
M  V30 2707 O 251.417 0.413195 -1.89753 0
M  V30 2708 C 248.547 0.327388 -3.45753 0
M  V30 2709 C 247.501 -0.519137 -4.2484 0
M  V30 2710 C 246.827 0.365486 -5.33449 0
M  V30 2711 C 248.127 -1.77914 -4.91064 0
M  V30 2712 H 249.821 -1.27687 -2.70807 0
M  V30 2713 H 247.367 -0.615428 -1.30186 0
M  V30 2714 H 249.32 0.681378 -4.15855 0
M  V30 2715 H 248.044 1.20963 -3.03374 0
M  V30 2716 H 246.703 -0.855717 -3.56473 0
M  V30 2717 H 246.351 1.24642 -4.87312 0
M  V30 2718 H 246.051 -0.197356 -5.87268 0
M  V30 2719 H 247.575 0.715241 -6.06396 0
M  V30 2720 H 248.989 -1.49374 -5.53498 0
M  V30 2721 H 247.386 -2.2848 -5.54903 0
M  V30 2722 H 248.456 -2.50382 -4.15255 0
M  V30 2723 N 249.799 1.42003 -0.683588 0
M  V30 2724 C 251.048 2.00638 -0.206681 0
M  V30 2725 C 251.361 1.5472 1.19671 0
M  V30 2726 O 252.567 2.05833 1.77045 0
M  V30 2727 C 251.023 3.58487 -0.318632 0
M  V30 2728 C 250.631 4.1339 -1.72663 0
M  V30 2729 C 252.375 4.24384 0.0991141 0
M  V30 2730 C 250.282 5.63633 -1.79087 0
M  V30 2731 H 249.212 0.750408 -0.0735107 0
M  V30 2732 H 251.863 1.62624 -0.850048 0
M  V30 2733 H 250.245 3.94047 0.392781 0
M  V30 2734 H 251.419 3.89273 -2.46583 0
M  V30 2735 H 249.734 3.59976 -2.09299 0
M  V30 2736 H 252.331 5.34652 0.0713833 0
M  V30 2737 H 252.674 4.00505 1.13586 0
M  V30 2738 H 253.207 3.93816 -0.561599 0
M  V30 2739 H 249.946 5.92323 -2.80774 0
M  V30 2740 H 249.466 5.89714 -1.09535 0
M  V30 2741 H 251.145 6.28201 -1.5483 0
M  V30 2742 N 251.277 0.427512 1.51691 0
M  V30 2743 C 252.187 -0.39527 2.31246 0
M  V30 2744 C 253.203 -1.03674 1.39742 0
M  V30 2745 O 254.379 -1.03425 1.72816 0
M  V30 2746 C 251.444 -1.48706 3.13189 0
M  V30 2747 C 250.505 -0.866743 4.20459 0
M  V30 2748 C 249.738 -1.90651 4.98486 0
M  V30 2749 O 249.961 -3.12733 4.77026 0
M  V30 2750 O 248.895 -1.5025 5.82845 0
M  V30 2751 H 252.721 0.253918 3.02637 0
M  V30 2752 H 250.306 0.190274 1.48183 0
M  V30 2753 H 252.188 -2.12047 3.64162 0
M  V30 2754 H 250.863 -2.12051 2.44573 0
M  V30 2755 H 249.77 -0.195544 3.73589 0
M  V30 2756 H 251.103 -0.276934 4.9142 0
M  V30 2757 N 252.755 -1.56801 0.158532 0
M  V30 2758 C 253.702 -2.17337 -0.776729 0
M  V30 2759 C 254.672 -1.1096 -1.23601 0
M  V30 2760 O 255.857 -1.39054 -1.30647 0
M  V30 2761 C 252.997 -2.80822 -2.00582 0
M  V30 2762 C 252.11 -4.01624 -1.59129 0
M  V30 2763 C 251.245 -4.53072 -2.77306 0
M  V30 2764 C 250.284 -5.66314 -2.32282 0
M  V30 2765 N 249.421 -6.12329 -3.43508 0
M  V30 2766 H 254.261 -2.96918 -0.253701 0
M  V30 2767 H 251.798 -1.46661 -0.113504 0
M  V30 2768 H 253.756 -3.15779 -2.72652 0
M  V30 2769 H 252.386 -2.03866 -2.50277 0
M  V30 2770 H 251.438 -3.72571 -0.767806 0
M  V30 2771 H 252.75 -4.83633 -1.2207 0
M  V30 2772 H 251.904 -4.90145 -3.57551 0
M  V30 2773 H 250.643 -3.70095 -3.17617 0
M  V30 2774 H 249.648 -5.28806 -1.5048 0
M  V30 2775 H 250.873 -6.51085 -1.93043 0
M  V30 2776 H 248.819 -5.32284 -3.83418 0
M  V30 2777 H 248.736 -6.89293 -3.105 0
M  V30 2778 H 250.004 -6.5405 -4.24075 0
M  V30 2779 N 254.233 0.115231 -1.57178 0
M  V30 2780 C 255.649 0.468877 -1.52557 0
M  V30 2781 C 255.849 1.81649 -0.872125 0
M  V30 2782 O 254.905 2.48347 -0.45606 0
M  V30 2783 C 256.218 0.4499 -2.97315 0
M  V30 2784 C 257.766 0.533185 -3.08425 0
M  V30 2785 C 258.241 0.54456 -4.54751 0
M  V30 2786 N 259.732 0.605892 -4.5922 0
M  V30 2787 C 260.467 0.636203 -5.6986 0
M  V30 2788 N 259.963 0.623931 -6.89985 0
M  V30 2789 N 261.756 0.679496 -5.57978 0
M  V30 2790 H 253.907 -0.767712 -1.9804 0
M  V30 2791 H 256.17 -0.283609 -0.904583 0
M  V30 2792 H 255.876 -0.472721 -3.48509 0
M  V30 2793 H 255.75 1.27632 -3.5495 0
M  V30 2794 H 258.137 1.44623 -2.57232 0
M  V30 2795 H 258.218 -0.320995 -2.53778 0
M  V30 2796 H 257.862 -0.364452 -5.06591 0
M  V30 2797 H 257.792 1.41568 -5.07214 0
M  V30 2798 H 260.283 0.621386 -3.72756 0
M  V30 2799 H 260.596 0.649787 -7.70063 0
M  V30 2800 H 258.941 0.591296 -6.9248 0
M  V30 2801 H 262.132 0.686472 -4.63039 0
M  V30 2802 H 262.305 0.69965 -6.44212 0
M  V30 2803 N 255.711 1.52812 0.385517 0
M  V30 2804 C 256.658 1.77838 1.47113 0
M  V30 2805 C 257.628 0.621757 1.54024 0
M  V30 2806 O 258.813 0.861846 1.70226 0
M  V30 2807 C 255.953 1.95618 2.84302 0
M  V30 2808 C 255.066 3.23316 2.86515 0
M  V30 2809 C 254.201 3.31394 4.15152 0
M  V30 2810 C 253.24 4.53201 4.1143 0
M  V30 2811 N 252.377 4.58542 5.3168 0
M  V30 2812 H 257.217 2.70482 1.25073 0
M  V30 2813 H 254.754 1.34006 0.606692 0
M  V30 2814 H 256.712 2.03912 3.63972 0
M  V30 2815 H 255.342 1.06331 3.04784 0
M  V30 2816 H 254.394 3.24076 1.99195 0
M  V30 2817 H 255.706 4.13045 2.79634 0
M  V30 2818 H 254.86 3.3889 5.03228 0
M  V30 2819 H 253.599 2.39645 4.24761 0
M  V30 2820 H 252.604 4.45827 3.21742 0
M  V30 2821 H 253.829 5.46271 4.03442 0
M  V30 2822 H 251.775 3.69686 5.41912 0
M  V30 2823 H 251.692 5.42148 5.26889 0
M  V30 2824 H 252.96 4.70296 6.21644 0
M  V30 2825 N 257.189 -0.644168 1.43834 0
M  V30 2826 C 258.436 -1.40395 1.4593 0
M  V30 2827 C 258.764 -1.94305 0.0869658 0
M  V30 2828 O 258.019 -1.73288 -0.909378 0
M  V30 2829 C 258.318 -2.59615 2.45631 0
M  V30 2830 C 257.984 -2.2407 3.91284 0
M  V30 2831 C 256.646 -2.14089 4.30952 0
M  V30 2832 C 258.998 -1.95775 4.83034 0
M  V30 2833 C 256.326 -1.73981 5.6031 0
M  V30 2834 C 258.678 -1.57163 6.12766 0
M  V30 2835 C 257.342 -1.45713 6.51402 0
M  V30 2836 H 256.612 -0.513741 0.533995 0
M  V30 2837 H 259.259 -0.731724 1.76969 0
M  V30 2838 H 257.564 -3.32011 2.08028 0
M  V30 2839 H 259.261 -3.17834 2.44504 0
M  V30 2840 H 255.851 -2.32753 3.59895 0
M  V30 2841 H 260.035 -2.02403 4.53152 0
M  V30 2842 H 255.291 -1.63709 5.89075 0
M  V30 2843 H 259.465 -1.34303 6.83327 0
M  V30 2844 H 257.092 -1.14406 7.51542 0
M  V30 2845 N 258.668 -1.30515 -0.883378 0
M  V30 2846 C 259.616 -1.16941 -2.01066 0
M  V30 2847 C 260.61 -0.0809148 -1.69207 0
M  V30 2848 O 261.816 -0.241877 -1.78367 0
M  V30 2849 H 258.191 -0.361705 -0.659298 0
M  V30 2850 H 260.162 -2.12344 -2.09649 0
M  V30 2851 C 258.911 -0.879694 -3.36388 0
M  V30 2852 H 258.234 -1.70936 -3.61415 0
M  V30 2853 H 259.674 -0.82483 -4.159 0
M  V30 2854 C 258.133 0.417409 -3.34304 0
M  V30 2855 O 258.663 1.43843 -3.75063 0
M  V30 2856 N 256.869 0.429141 -2.87414 0
M  V30 2857 H 256.416 -0.402222 -2.5444 0
M  V30 2858 H 256.374 1.29696 -2.86403 0
M  V30 2859 N 260.146 1.09593 -1.13257 0
M  V30 2860 C 261.078 2.16015 -0.766167 0
M  V30 2861 C 262.091 1.61423 0.211303 0
M  V30 2862 O 263.28 1.78498 -0.00863946 0
M  V30 2863 C 260.38 3.38706 -0.114662 0
M  V30 2864 C 259.553 4.22717 -1.12379 0
M  V30 2865 C 258.612 5.23835 -0.498301 0
M  V30 2866 O 257.638 5.573 -1.15781 0
M  V30 2867 N 258.84 5.75886 0.730417 0
M  V30 2868 H 261.605 2.48055 -1.68193 0
M  V30 2869 H 259.166 1.25292 -1.02535 0
M  V30 2870 H 261.158 4.03464 0.315991 0
M  V30 2871 H 259.728 3.04569 0.704011 0
M  V30 2872 H 258.948 3.54122 -1.73179 0
M  V30 2873 H 260.236 4.75673 -1.80589 0
M  V30 2874 H 259.634 5.50911 1.28504 0
M  V30 2875 H 258.191 6.42387 1.10376 0
M  V30 2876 N 261.624 0.925811 1.2754 0
M  V30 2877 C 262.572 0.413897 2.28888 0
M  V30 2878 C 263.566 -0.500779 1.61829 0
M  V30 2879 O 264.772 -0.38069 1.75928 0
M  V30 2880 H 261.147 0.115274 0.743112 0
M  V30 2881 H 263.118 1.28151 2.69481 0
M  V30 2882 C 261.867 -0.319792 3.46226 0
M  V30 2883 H 261.19 0.374846 3.98039 0
M  V30 2884 H 262.63 -0.642435 4.19105 0
M  V30 2885 C 261.089 -1.53209 3.00048 0
M  V30 2886 O 261.619 -2.6309 3.03557 0
M  V30 2887 N 259.825 -1.38326 2.55566 0
M  V30 2888 H 259.372 -0.489292 2.5291 0
M  V30 2889 H 259.33 -2.19564 2.25031 0
M  V30 2890 N 263.102 -1.41638 0.69111 0
M  V30 2891 C 264.327 -2.06148 0.227583 0
M  V30 2892 C 264.752 -1.51652 -1.11281 0
M  V30 2893 O 264.11 -0.64164 -1.69566 0
M  V30 2894 C 264.158 -3.60095 0.190858 0
M  V30 2895 O 263.262 -4.03845 -0.835664 0
M  V30 2896 H 262.603 -0.654434 0.112306 0
M  V30 2897 H 265.133 -1.81484 0.944714 0
M  V30 2898 H 265.143 -4.07995 0.020207 0
M  V30 2899 H 263.818 -3.99129 1.16915 0
M  V30 2900 H 262.395 -3.67458 -0.63473 0
M  V30 2901 N 264.58 -0.43555 -1.51462 0
M  V30 2902 C 265.528 0.391205 -2.29287 0
M  V30 2903 C 266.522 1.02247 -1.35062 0
M  V30 2904 O 267.728 0.957646 -1.52411 0
M  V30 2905 H 264.103 0.144968 -0.737895 0
M  V30 2906 H 266.074 -0.286051 -2.97026 0
M  V30 2907 C 264.823 1.48096 -3.14583 0
M  V30 2908 H 264.146 1.00457 -3.86973 0
M  V30 2909 H 265.586 2.03273 -3.72097 0
M  V30 2910 C 264.045 2.46321 -2.29843 0
M  V30 2911 O 264.575 3.50815 -1.95682 0
M  V30 2912 N 262.781 2.17166 -1.931 0
M  V30 2913 H 262.328 1.32218 -2.21079 0
M  V30 2914 H 262.286 2.83127 -1.36698 0
M  V30 2915 N 266.058 1.56714 -0.166846 0
M  V30 2916 C 267.283 2.01557 0.488833 0
M  V30 2917 C 267.708 1.0463 1.56314 0
M  V30 2918 O 267.066 0.0251304 1.81283 0
M  V30 2919 C 267.114 3.4503 1.04818 0
M  V30 2920 O 266.218 3.51163 2.16236 0
M  V30 2921 H 265.559 0.653516 0.117526 0
M  V30 2922 H 268.089 2.02818 -0.269421 0
M  V30 2923 H 268.099 3.84243 1.37191 0
M  V30 2924 H 266.774 4.15077 0.261572 0
M  V30 2925 H 265.351 3.23807 1.84942 0
M  V30 2926 N 267.536 -0.106894 1.57237 0
M  V30 2927 C 268.764 -0.826389 1.8968 0
M  V30 2928 C 269.179 -1.72856 0.759353 0
M  V30 2929 O 268.536 -1.80503 -0.269263 0
M  V30 2930 C 268.587 -1.64967 3.21665 0
M  V30 2931 O 268.308 -0.783804 4.31031 0
M  V30 2932 C 269.809 -2.47326 3.67892 0
M  V30 2933 H 267.029 -0.236927 0.627779 0
M  V30 2934 H 269.573 -0.0876593 2.04312 0
M  V30 2935 H 267.728 -2.34103 3.08666 0
M  V30 2936 H 268.142 -1.35284 5.06753 0
M  V30 2937 H 269.616 -3.00604 4.6297 0
M  V30 2938 H 270.093 -3.25247 2.95146 0
M  V30 2939 H 270.699 -1.83411 3.83719 0
M  V30 2940 N 269.014 -1.53014 -0.377408 0
M  V30 2941 C 270.244 -1.72265 -1.14054 0
M  V30 2942 C 270.652 -0.44601 -1.83868 0
M  V30 2943 O 269.995 0.590095 -1.73964 0
M  V30 2944 C 270.057 -2.82492 -2.22348 0
M  V30 2945 C 269.721 -4.23233 -1.72402 0
M  V30 2946 C 270.718 -5.05992 -1.19448 0
M  V30 2947 C 268.403 -4.696 -1.78273 0
M  V30 2948 C 270.397 -6.33203 -0.730268 0
M  V30 2949 C 268.084 -5.96792 -1.31464 0
M  V30 2950 C 269.082 -6.78424 -0.789297 0
M  V30 2951 O 268.77 -8.0323 -0.328077 0
M  V30 2952 H 268.502 -0.579873 -0.347453 0
M  V30 2953 H 271.056 -2.00502 -0.445882 0
M  V30 2954 H 269.286 -2.49702 -2.95272 0
M  V30 2955 H 270.975 -2.90034 -2.83963 0
M  V30 2956 H 271.741 -4.71349 -1.14259 0
M  V30 2957 H 267.62 -4.06142 -2.18106 0
M  V30 2958 H 271.164 -6.96868 -0.319542 0
M  V30 2959 H 267.061 -6.30937 -1.36342 0
M  V30 2960 H 267.829 -8.1727 -0.448493 0
M  V30 2961 N 270.492 0.636531 -1.44174 0
M  V30 2962 C 271.732 1.40781 -1.48189 0
M  V30 2963 C 272.096 1.91688 -0.10944 0
M  V30 2964 O 273.297 2.68789 -0.0242741 0
M  V30 2965 C 271.568 2.54575 -2.50851 0
M  V30 2966 S 273.127 3.4284 -2.73873 0
M  V30 2967 H 269.945 0.480345 -0.524204 0
M  V30 2968 H 272.547 0.737416 -1.81059 0
M  V30 2969 H 271.251 2.15478 -3.49281 0
M  V30 2970 H 270.782 3.26447 -2.19536 0
M  V30 2971 H 272.797 4.51846 -2.05059 0
M  V30 2972 N 271.97 1.30982 0.876444 0
M  V30 2973 C 273.216 1.20474 1.63138 0
M  V30 2974 C 273.549 -0.238096 1.92735 0
M  V30 2975 O 272.824 -1.1692 1.55435 0
M  V30 2976 C 273.107 2.04244 2.96574 0
M  V30 2977 C 272.96 3.56793 2.73896 0
M  V30 2978 C 274.279 1.88684 3.97601 0
M  V30 2979 H 271.398 0.439001 0.591985 0
M  V30 2980 H 274.04 1.60704 1.01361 0
M  V30 2981 H 272.19 1.70063 3.493 0
M  V30 2982 H 273.862 4.01077 2.27892 0
M  V30 2983 H 272.105 3.80548 2.08245 0
M  V30 2984 H 272.776 4.10706 3.68815 0
M  V30 2985 H 275.252 2.18584 3.54062 0
M  V30 2986 H 274.128 2.4961 4.88862 0
M  V30 2987 H 274.389 0.848343 4.33884 0
M  V30 2988 N 273.449 -1.08991 1.13837 0
M  V30 2989 C 274.696 -1.81258 0.902882 0
M  V30 2990 C 275.024 -1.85936 -0.570803 0
M  V30 2991 O 274.279 -1.3267 -1.43865 0
M  V30 2992 C 274.578 -3.27042 1.44147 0
M  V30 2993 C 274.244 -3.4249 2.93276 0
M  V30 2994 C 272.906 -3.46414 3.33992 0
M  V30 2995 C 275.258 -3.4666 3.892 0
M  V30 2996 C 272.586 -3.52091 4.69307 0
M  V30 2997 C 274.938 -3.53872 5.24364 0
M  V30 2998 C 273.602 -3.56066 5.646 0
M  V30 2999 H 272.872 -0.663268 0.330388 0
M  V30 3000 H 275.519 -1.28368 1.42105 0
M  V30 3001 H 273.824 -3.82599 0.844097 0
M  V30 3002 H 275.521 -3.81499 1.23528 0
M  V30 3003 H 272.111 -3.40124 2.60794 0
M  V30 3004 H 276.295 -3.42865 3.58828 0
M  V30 3005 H 271.551 -3.52079 4.9985 0
M  V30 3006 H 275.725 -3.56043 5.98503 0
M  V30 3007 H 273.352 -3.60218 6.69438 0
M  V30 3008 N 274.927 -0.932562 -1.27047 0
M  V30 3009 C 275.86 -0.379774 -2.25018 0
M  V30 3010 C 276.838 0.526587 -1.53837 0
M  V30 3011 O 278.022 0.465992 -1.82649 0
M  V30 3012 C 275.149 0.455187 -3.35627 0
M  V30 3013 C 274.195 -0.388428 -4.24728 0
M  V30 3014 S 275.028 -1.80701 -5.04091 0
M  V30 3015 C 276.184 -0.979865 -6.18182 0
M  V30 3016 H 276.417 -1.2101 -2.71558 0
M  V30 3017 H 273.95 -0.735078 -1.35779 0
M  V30 3018 H 275.908 0.931052 -3.99802 0
M  V30 3019 H 274.569 1.26009 -2.87716 0
M  V30 3020 H 273.762 0.25089 -5.03375 0
M  V30 3021 H 273.364 -0.798649 -3.65373 0
M  V30 3022 H 275.656 -0.218115 -6.77149 0
M  V30 3023 H 276.599 -1.73951 -6.86401 0
M  V30 3024 H 277.007 -0.51973 -5.62102 0
M  V30 3025 N 276.405 1.4127 -0.698611 0
M  V30 3026 C 277.651 2.01478 -0.231207 0
M  V30 3027 C 277.984 1.55215 1.16713 0
M  V30 3028 O 277.259 0.764672 1.78838 0
M  V30 3029 C 277.542 3.58912 -0.292281 0
M  V30 3030 C 277.395 4.15293 -1.72778 0
M  V30 3031 C 278.714 4.38736 0.346194 0
M  V30 3032 H 275.833 0.732025 -0.0854878 0
M  V30 3033 H 278.475 1.67977 -0.887906 0
M  V30 3034 H 276.625 3.87582 0.26686 0
M  V30 3035 H 278.297 3.97486 -2.341 0
M  V30 3036 H 276.54 3.7022 -2.26096 0
M  V30 3037 H 277.211 5.24452 -1.72202 0
M  V30 3038 H 279.687 4.15897 -0.130035 0
M  V30 3039 H 278.563 5.48221 0.272932 0
M  V30 3040 H 278.824 4.18425 1.42734 0
M  V30 3041 N 277.883 0.443576 1.51229 0
M  V30 3042 C 278.831 -0.37904 2.29491 0
M  V30 3043 C 279.825 -1.0153 1.35603 0
M  V30 3044 O 281.031 -0.94955 1.52917 0
M  V30 3045 H 277.406 -0.141053 0.738653 0
M  V30 3046 H 279.377 0.301799 2.9687 0
M  V30 3047 C 278.126 -1.46426 3.15364 0
M  V30 3048 H 277.449 -0.984037 3.87501 0
M  V30 3049 H 278.889 -2.01297 3.7317 0
M  V30 3050 C 277.348 -2.45099 2.31146 0
M  V30 3051 O 277.878 -3.49773 1.9754 0
M  V30 3052 N 276.084 -2.16139 1.94249 0
M  V30 3053 H 275.631 -1.31044 2.21777 0
M  V30 3054 H 275.589 -2.82398 1.38198 0
M  V30 3055 N 279.361 -1.56624 0.175154 0
M  V30 3056 C 280.308 -2.18149 -0.753634 0
M  V30 3057 C 281.278 -1.12265 -1.22417 0
M  V30 3058 O 282.463 -1.40432 -1.29165 0
M  V30 3059 C 279.603 -2.82933 -1.97592 0
M  V30 3060 C 278.716 -4.03289 -1.5486 0
M  V30 3061 C 277.851 -4.55988 -2.72485 0
M  V30 3062 C 276.89 -5.68746 -2.26262 0
M  V30 3063 N 276.027 -6.15938 -3.36994 0
M  V30 3064 H 280.867 -2.9717 -0.222195 0
M  V30 3065 H 278.404 -1.46774 -0.0979422 0
M  V30 3066 H 280.362 -3.18653 -2.69288 0
M  V30 3067 H 278.992 -2.06509 -2.481 0
M  V30 3068 H 278.044 -3.73364 -0.728246 0
M  V30 3069 H 279.356 -4.849 -1.16933 0
M  V30 3070 H 278.51 -4.9391 -3.52332 0
M  V30 3071 H 277.249 -3.73443 -3.13674 0
M  V30 3072 H 276.254 -5.30372 -1.44863 0
M  V30 3073 H 277.479 -6.53095 -1.86127 0
M  V30 3074 H 275.425 -5.36321 -3.77751 0
M  V30 3075 H 275.342 -6.92548 -3.03172 0
M  V30 3076 H 276.61 -6.58511 -4.17114 0
M  V30 3077 N 280.839 0.0985539 -1.57292 0
M  V30 3078 C 282.25 0.653457 -1.74891 0
M  V30 3079 C 282.601 1.7929 -0.796838 0
M  V30 3080 O 281.726 2.16385 0.0254886 0
M  V30 3081 C 282.321 1.19216 -3.17133 0
M  V30 3082 C 280.88 1.69316 -3.36168 0
M  V30 3083 C 280.027 0.601294 -2.70702 0
M  V30 3084 H 282.978 -0.127497 -1.58187 0
M  V30 3085 H 282.999 2.06154 -3.19814 0
M  V30 3086 H 282.511 0.362635 -3.86402 0
M  V30 3087 H 280.612 2.5468 -2.71972 0
M  V30 3088 H 280.725 1.78853 -4.44464 0
M  V30 3089 H 279.089 1.0399 -2.32504 0
M  V30 3090 H 279.872 -0.217592 -3.4261 0
M  V30 3091 N 282.317 1.53212 0.369288 0
M  V30 3092 C 283.547 1.72868 1.13139 0
M  V30 3093 C 283.955 0.455754 1.83629 0
M  V30 3094 O 283.298 -0.580861 1.74275 0
M  V30 3095 C 283.36 2.83667 2.20847 0
M  V30 3096 C 283.024 4.24142 1.70155 0
M  V30 3097 C 284.021 5.06619 1.16763 0
M  V30 3098 C 281.706 4.70539 1.7578 0
M  V30 3099 C 283.7 6.33581 0.696678 0
M  V30 3100 C 281.387 5.97481 1.28297 0
M  V30 3101 C 282.385 6.78833 0.753307 0
M  V30 3102 O 282.073 8.03393 0.285475 0
M  V30 3103 H 281.805 0.581707 0.344373 0
M  V30 3104 H 284.359 2.00736 0.435243 0
M  V30 3105 H 282.589 2.51265 2.93944 0
M  V30 3106 H 284.278 2.91536 2.82421 0
M  V30 3107 H 285.044 4.71948 1.11758 0
M  V30 3108 H 280.923 4.07293 2.15949 0
M  V30 3109 H 284.467 6.97027 0.282581 0
M  V30 3110 H 280.364 6.31651 1.32994 0
M  V30 3111 H 281.132 8.17497 0.405145 0
M  V30 3112 N 283.795 -0.628877 1.44509 0
M  V30 3113 C 284.758 -1.72263 1.51188 0
M  V30 3114 C 285.758 -1.55907 0.39367 0
M  V30 3115 O 286.948 -1.61361 0.656377 0
M  V30 3116 C 284.08 -3.11365 1.38798 0
M  V30 3117 H 285.273 -1.67714 2.4862 0
M  V30 3118 H 282.826 -0.842737 1.31634 0
M  V30 3119 H 283.561 -3.21507 0.424693 0
M  V30 3120 H 283.346 -3.24644 2.19884 0
M  V30 3121 H 284.836 -3.91075 1.46458 0
M  V30 3122 N 285.273 -1.31445 -0.869486 0
M  V30 3123 C 286.522 -1.20517 -1.61736 0
M  V30 3124 C 286.835 0.235341 -1.94179 0
M  V30 3125 O 288.041 0.466312 -2.67465 0
M  V30 3126 C 286.497 -2.10982 -2.91573 0
M  V30 3127 C 286.105 -3.60032 -2.66611 0
M  V30 3128 C 287.849 -2.08856 -3.69567 0
M  V30 3129 C 285.756 -4.42503 -3.92358 0
M  V30 3130 H 284.686 -0.447493 -0.606849 0
M  V30 3131 H 287.337 -1.56303 -0.96133 0
M  V30 3132 H 285.719 -1.68095 -3.58553 0
M  V30 3133 H 286.893 -4.11167 -2.08035 0
M  V30 3134 H 285.208 -3.64139 -2.0197 0
M  V30 3135 H 287.805 -2.67716 -4.62852 0
M  V30 3136 H 288.148 -1.07582 -4.02159 0
M  V30 3137 H 288.681 -2.49945 -3.09471 0
M  V30 3138 H 285.42 -5.44533 -3.64916 0
M  V30 3139 H 284.94 -3.96125 -4.50383 0
M  V30 3140 H 286.619 -4.54741 -4.60238 0
M  V30 3141 N 286.751 1.08385 -1.14413 0
M  V30 3142 C 287.979 1.84517 -0.936001 0
M  V30 3143 C 288.394 1.81626 0.515503 0
M  V30 3144 O 287.751 1.22008 1.35721 0
M  V30 3145 C 287.802 3.32049 -1.42918 0
M  V30 3146 O 287.523 3.34951 -2.82381 0
M  V30 3147 C 289.024 4.24986 -1.26103 0
M  V30 3148 H 286.244 0.582491 -0.333084 0
M  V30 3149 H 288.788 1.36885 -1.5193 0
M  V30 3150 H 286.943 3.7707 -0.888641 0
M  V30 3151 H 287.357 4.27048 -3.04517 0
M  V30 3152 H 288.831 5.26615 -1.6547 0
M  V30 3153 H 289.308 4.38726 -0.20392 0
M  V30 3154 H 289.914 3.85791 -1.79012 0
M  V30 3155 N 288.23 0.939286 1.26551 0
M  V30 3156 C 289.47 0.5933 1.956 0
M  V30 3157 C 289.834 -0.851515 1.72085 0
M  V30 3158 O 291.035 -1.30634 2.34921 0
M  V30 3159 C 289.306 0.923996 3.45249 0
M  V30 3160 S 290.865 0.688269 4.33369 0
M  V30 3161 H 287.683 0.218591 0.676564 0
M  V30 3162 H 290.285 1.2102 1.5354 0
M  V30 3163 H 288.989 1.97297 3.59864 0
M  V30 3164 H 288.52 0.296746 3.92279 0
M  V30 3165 H 290.535 -0.448434 4.9417 0
M  V30 3166 N 289.708 -1.40897 0.706093 0
M  V30 3167 C 290.933 -2.05895 0.249435 0
M  V30 3168 C 291.358 -1.52823 -1.09666 0
M  V30 3169 O 290.716 -0.659589 -1.68876 0
M  V30 3170 C 290.764 -3.59872 0.22904 0
M  V30 3171 O 289.868 -4.04708 -0.792784 0
M  V30 3172 H 289.209 -0.653206 0.119241 0
M  V30 3173 H 291.739 -1.80471 0.96391 0
M  V30 3174 H 291.749 -4.07951 0.0634791 0
M  V30 3175 H 290.424 -3.97866 1.21141 0
M  V30 3176 H 289.001 -3.68111 -0.59572 0
M  V30 3177 N 291.186 -0.45159 -1.50991 0
M  V30 3178 C 292.432 0.110237 -2.025 0
M  V30 3179 C 292.765 1.41109 -1.33424 0
M  V30 3180 O 292.04 1.89135 -0.453659 0
M  V30 3181 C 292.323 0.314271 -3.58726 0
M  V30 3182 C 292.176 -1.00623 -4.38401 0
M  V30 3183 C 293.495 1.07767 -4.26702 0
M  V30 3184 H 290.614 0.0385897 -0.735989 0
M  V30 3185 H 293.256 -0.593374 -1.80497 0
M  V30 3186 H 291.406 0.913601 -3.77605 0
M  V30 3187 H 293.078 -1.64064 -4.31139 0
M  V30 3188 H 291.321 -1.6075 -4.02917 0
M  V30 3189 H 291.992 -0.817341 -5.45915 0
M  V30 3190 H 294.468 0.56986 -4.12179 0
M  V30 3191 H 293.344 1.18921 -5.35863 0
M  V30 3192 H 293.605 2.10939 -3.88532 0
M  V30 3193 N 292.664 1.56529 -0.183458 0
M  V30 3194 C 293.91 1.97537 0.459036 0
M  V30 3195 C 294.243 1.06989 1.62071 0
M  V30 3196 O 293.518 0.11948 1.94133 0
M  V30 3197 C 293.801 3.47874 0.930368 0
M  V30 3198 C 293.654 4.492 -0.232317 0
M  V30 3199 C 294.973 4.01612 1.79989 0
M  V30 3200 H 292.092 0.718204 0.165383 0
M  V30 3201 H 294.734 1.88042 -0.272038 0
M  V30 3202 H 292.884 3.56095 1.55333 0
M  V30 3203 H 294.556 4.53027 -0.86972 0
M  V30 3204 H 292.799 4.24657 -0.885928 0
M  V30 3205 H 293.47 5.51823 0.139796 0
M  V30 3206 H 295.946 3.96097 1.27461 0
M  V30 3207 H 294.822 5.07195 2.09867 0
M  V30 3208 H 295.083 3.46163 2.74998 0
M  V30 3209 N 294.142 -0.090211 1.57342 0
M  V30 3210 C 295.105 -1.09335 2.01441 0
M  V30 3211 C 296.105 -1.32666 0.908641 0
M  V30 3212 O 297.295 -1.28697 1.174 0
M  V30 3213 C 294.427 -2.44136 2.3793 0
M  V30 3214 H 295.62 -0.713662 2.91285 0
M  V30 3215 H 293.173 -0.335404 1.52659 0
M  V30 3216 H 293.908 -2.86972 1.51055 0
M  V30 3217 H 293.693 -2.28548 3.18603 0
M  V30 3218 H 295.183 -3.16277 2.72688 0
M  V30 3219 N 295.62 -1.53406 -0.361157 0
M  V30 3220 C 296.867 -1.69802 -1.10333 0
M  V30 3221 C 297.195 -0.452087 -1.89173 0
M  V30 3222 O 296.45 0.566017 -1.87336 0
M  V30 3223 C 296.749 -2.90211 -2.08596 0
M  V30 3224 C 296.415 -4.26539 -1.46203 0
M  V30 3225 C 295.077 -4.6361 -1.28915 0
M  V30 3226 C 297.429 -5.113 -1.01101 0
M  V30 3227 C 294.757 -5.83075 -0.651157 0
M  V30 3228 C 297.109 -6.31415 -0.387007 0
M  V30 3229 C 295.773 -6.67195 -0.201657 0
M  V30 3230 H 295.043 -0.621351 -0.403737 0
M  V30 3231 H 297.69 -1.87598 -0.384609 0
M  V30 3232 H 295.995 -2.66946 -2.86788 0
M  V30 3233 H 297.692 -3.00091 -2.65982 0
M  V30 3234 H 294.282 -3.97352 -1.60653 0
M  V30 3235 H 298.466 -4.83206 -1.13249 0
M  V30 3236 H 293.722 -6.09385 -0.496006 0
M  V30 3237 H 297.896 -6.96394 -0.0293563 0
M  V30 3238 H 295.523 -7.59628 0.294766 0
M  V30 3239 N 297.098 0.621204 -1.44841 0
M  V30 3240 C 298.328 1.40548 -1.51426 0
M  V30 3241 C 298.736 1.88673 -0.141083 0
M  V30 3242 O 298.079 1.62053 0.865128 0
M  V30 3243 C 298.141 2.65325 -2.42576 0
M  V30 3244 C 297.805 2.3893 -3.89566 0
M  V30 3245 C 298.802 2.00138 -4.79834 0
M  V30 3246 C 296.487 2.52263 -4.3436 0
M  V30 3247 C 298.481 1.75021 -6.129 0
M  V30 3248 C 296.168 2.2676 -5.67471 0
M  V30 3249 C 297.166 1.88199 -6.56559 0
M  V30 3250 O 296.854 1.62986 -7.87204 0
M  V30 3251 H 296.586 0.437122 -0.515655 0
M  V30 3252 H 299.14 0.765987 -1.90583 0
M  V30 3253 H 297.37 3.31947 -1.98364 0
M  V30 3254 H 299.059 3.27347 -2.39998 0
M  V30 3255 H 299.825 1.89386 -4.46495 0
M  V30 3256 H 295.704 2.81246 -3.65269 0
M  V30 3257 H 299.248 1.44848 -6.82396 0
M  V30 3258 H 295.145 2.37125 -6.00368 0
M  V30 3259 H 295.913 1.7715 -7.991 0
M  V30 3260 N 298.576 1.31904 0.862503 0
M  V30 3261 C 299.825 1.21373 1.61094 0
M  V30 3262 C 300.138 -0.22504 1.94301 0
M  V30 3263 O 301.344 -0.452121 2.67709 0
M  V30 3264 C 299.8 2.12525 2.9045 0
M  V30 3265 C 299.408 3.61441 2.64697 0
M  V30 3266 C 301.152 2.10813 3.68454 0
M  V30 3267 C 299.059 4.44578 3.90006 0
M  V30 3268 H 297.989 0.450705 0.604468 0
M  V30 3269 H 300.64 1.56811 0.953027 0
M  V30 3270 H 299.022 1.69994 3.57656 0
M  V30 3271 H 300.196 4.12264 2.05851 0
M  V30 3272 H 298.511 3.65205 2.00036 0
M  V30 3273 H 301.108 2.70167 4.61426 0
M  V30 3274 H 301.451 1.09713 4.01583 0
M  V30 3275 H 301.984 2.51583 3.08141 0
M  V30 3276 H 298.723 5.46461 3.62023 0
M  V30 3277 H 298.243 3.98508 4.48276 0
M  V30 3278 H 299.922 4.57176 4.5782 0
M  V30 3279 N 300.054 -1.07777 1.14986 0
M  V30 3280 C 301.465 -1.61766 0.932127 0
M  V30 3281 C 301.816 -1.88974 -0.527581 0
M  V30 3282 O 300.941 -1.65198 -1.39781 0
M  V30 3283 C 301.536 -2.93891 1.68563 0
M  V30 3284 C 300.095 -3.44639 1.5133 0
M  V30 3285 C 299.242 -2.18767 1.704 0
M  V30 3286 H 302.193 -0.909201 1.30074 0
M  V30 3287 H 302.214 -3.62623 1.15259 0
M  V30 3288 H 301.726 -2.74057 2.74799 0
M  V30 3289 H 299.827 -3.69564 0.474702 0
M  V30 3290 H 299.94 -4.20966 2.28746 0
M  V30 3291 H 298.304 -2.28253 1.13016 0
M  V30 3292 H 299.087 -2.01433 2.77992 0
M  V30 3293 N 301.532 -0.945985 -1.26051 0
M  V30 3294 C 302.779 -0.596118 -1.93527 0
M  V30 3295 C 303.107 0.865559 -1.74179 0
M  V30 3296 O 302.362 1.63524 -1.0751 0
M  V30 3297 C 302.661 -0.890475 -3.46129 0
M  V30 3298 C 302.327 -2.3368 -3.85622 0
M  V30 3299 C 300.989 -2.73216 -3.96114 0
M  V30 3300 C 303.341 -3.27648 -4.05334 0
M  V30 3301 C 300.669 -4.05806 -4.2372 0
M  V30 3302 C 303.021 -4.59841 -4.3443 0
M  V30 3303 C 301.685 -4.99185 -4.43137 0
M  V30 3304 H 300.955 -0.218135 -0.708165 0
M  V30 3305 H 303.602 -1.1934 -1.49768 0
M  V30 3306 H 301.907 -0.210711 -3.91233 0
M  V30 3307 H 303.604 -0.598478 -3.96509 0
M  V30 3308 H 300.194 -2.02015 -3.78005 0
M  V30 3309 H 304.378 -2.98298 -3.96651 0
M  V30 3310 H 299.634 -4.35945 -4.28675 0
M  V30 3311 H 303.808 -5.32641 -4.48628 0
M  V30 3312 H 301.435 -6.01952 -4.64282 0
M  V30 3313 N 303.011 1.40521 -0.713556 0
M  V30 3314 C 303.941 2.33381 -0.0743864 0
M  V30 3315 C 304.922 1.52784 0.747735 0
M  V30 3316 O 306.107 1.81258 0.697071 0
M  V30 3317 C 303.237 3.36748 0.849598 0
M  V30 3318 C 302.191 4.27793 0.133247 0
M  V30 3319 C 301.517 5.21679 1.17281 0
M  V30 3320 C 302.817 5.12415 -1.01134 0
M  V30 3321 H 304.511 2.87081 -0.850007 0
M  V30 3322 H 302.057 1.38034 -0.410201 0
M  V30 3323 H 304.01 4.00648 1.30612 0
M  V30 3324 H 302.734 2.81439 1.65709 0
M  V30 3325 H 301.393 3.65342 -0.303426 0
M  V30 3326 H 301.041 4.62677 1.9733 0
M  V30 3327 H 300.741 5.83435 0.698397 0
M  V30 3328 H 302.265 5.88456 1.62947 0
M  V30 3329 H 303.679 5.69781 -0.634274 0
M  V30 3330 H 302.076 5.83203 -1.41399 0
M  V30 3331 H 303.146 4.48514 -1.84292 0
M  V30 3332 N 304.489 0.459591 1.5075 0
M  V30 3333 C 305.419 -0.330644 2.31147 0
M  V30 3334 C 306.4 -1.00087 1.37538 0
M  V30 3335 O 307.585 -1.00025 1.66459 0
M  V30 3336 C 304.715 -1.41958 3.16962 0
M  V30 3337 C 303.669 -0.871608 4.19031 0
M  V30 3338 C 302.995 -2.05797 4.9351 0
M  V30 3339 C 304.295 0.109251 5.22186 0
M  V30 3340 H 305.989 0.340336 2.97459 0
M  V30 3341 H 303.535 0.165119 1.4305 0
M  V30 3342 H 305.488 -1.9798 3.71997 0
M  V30 3343 H 304.212 -2.11917 2.48513 0
M  V30 3344 H 302.871 -0.333442 3.6508 0
M  V30 3345 H 302.519 -2.74427 4.21544 0
M  V30 3346 H 302.219 -1.6976 5.62544 0
M  V30 3347 H 303.743 -2.62331 5.51375 0
M  V30 3348 H 305.157 -0.361405 5.7216 0
M  V30 3349 H 303.554 0.383316 5.98875 0
M  V30 3350 H 304.624 1.03887 4.73641 0
M  V30 3351 N 305.967 -1.56429 0.191757 0
M  V30 3352 C 306.9 -2.14829 -0.76967 0
M  V30 3353 C 307.878 -1.08405 -1.2119 0
M  V30 3354 O 309.062 -1.36498 -1.30002 0
M  V30 3355 C 306.189 -2.70446 -2.03903 0
M  V30 3356 C 305.235 -3.89428 -1.7392 0
M  V30 3357 S 306.068 -5.28048 -0.890265 0
M  V30 3358 C 307.224 -5.87085 -2.16984 0
M  V30 3359 H 307.457 -2.96042 -0.273204 0
M  V30 3360 H 304.99 -1.54383 -0.0231975 0
M  V30 3361 H 306.948 -3.03134 -2.76803 0
M  V30 3362 H 305.609 -1.89281 -2.50662 0
M  V30 3363 H 304.802 -4.26742 -2.68155 0
M  V30 3364 H 304.404 -3.57732 -1.09103 0
M  V30 3365 H 306.696 -6.01244 -3.12269 0
M  V30 3366 H 307.639 -6.83747 -1.84108 0
M  V30 3367 H 308.047 -5.15663 -2.29678 0
M  V30 3368 N 307.445 0.0818655 -1.57387 0
M  V30 3369 C 308.691 0.784074 -1.8703 0
M  V30 3370 C 309.024 1.77729 -0.782689 0
M  V30 3371 O 308.299 1.93384 0.208051 0
M  V30 3372 C 308.582 1.50105 -3.27323 0
M  V30 3373 C 308.435 0.524925 -4.46727 0
M  V30 3374 C 309.754 2.44843 -3.65705 0
M  V30 3375 H 306.873 0.283582 -0.680257 0
M  V30 3376 H 309.515 0.0474352 -1.89941 0
M  V30 3377 H 307.665 2.12897 -3.24972 0
M  V30 3378 H 309.337 -0.0970111 -4.61198 0
M  V30 3379 H 307.58 -0.160606 -4.33503 0
M  V30 3380 H 308.251 1.064 -5.41648 0
M  V30 3381 H 310.727 1.92135 -3.69085 0
M  V30 3382 H 309.603 2.92018 -4.64776 0
M  V30 3383 H 309.864 3.29197 -2.95096 0
M  V30 3384 N 308.923 1.53595 0.353017 0
M  V30 3385 C 309.853 1.83902 1.43883 0
M  V30 3386 C 310.834 0.693421 1.55324 0
M  V30 3387 O 312.019 0.944452 1.69687 0
M  V30 3388 C 309.149 2.04016 2.8106 0
M  V30 3389 C 308.103 3.19814 2.84434 0
M  V30 3390 C 307.429 3.25244 4.24406 0
M  V30 3391 C 308.729 4.58133 2.50822 0
M  V30 3392 H 310.423 2.74835 1.1877 0
M  V30 3393 H 307.969 1.32242 0.569917 0
M  V30 3394 H 309.922 2.238 3.57059 0
M  V30 3395 H 308.646 1.09804 3.07588 0
M  V30 3396 H 307.305 2.9987 2.10887 0
M  V30 3397 H 306.953 2.28646 4.48029 0
M  V30 3398 H 306.653 4.03054 4.27576 0
M  V30 3399 H 308.177 3.47228 5.0226 0
M  V30 3400 H 309.591 4.77995 3.16534 0
M  V30 3401 H 307.988 5.38276 2.6529 0
M  V30 3402 H 309.058 4.62387 1.46034 0
M  V30 3403 N 310.401 -0.613514 1.45168 0
M  V30 3404 C 311.364 -1.7065 1.53007 0
M  V30 3405 C 312.364 -1.5548 0.410184 0
M  V30 3406 O 313.554 -1.60656 0.673455 0
M  V30 3407 C 310.686 -3.09875 1.42093 0
M  V30 3408 H 311.879 -1.65068 2.50385 0
M  V30 3409 H 309.432 -0.828728 1.32521 0
M  V30 3410 H 310.167 -3.21039 0.458769 0
M  V30 3411 H 309.952 -3.22293 2.23315 0
M  V30 3412 H 311.442 -3.895 1.50598 0
M  V30 3413 N 311.879 -1.3236 -0.855495 0
M  V30 3414 C 313.109 -1.25688 -1.6397 0
M  V30 3415 C 313.517 0.177592 -1.88365 0
M  V30 3416 O 312.86 1.12485 -1.45234 0
M  V30 3417 C 312.922 -1.94602 -3.02275 0
M  V30 3418 C 312.586 -3.43937 -3.00926 0
M  V30 3419 C 313.583 -4.39435 -2.77835 0
M  V30 3420 C 311.268 -3.85858 -3.21588 0
M  V30 3421 C 313.262 -5.74829 -2.75409 0
M  V30 3422 C 310.949 -5.21361 -3.18789 0
M  V30 3423 C 311.947 -6.15658 -2.95727 0
M  V30 3424 O 311.635 -7.48681 -2.928 0
M  V30 3425 H 311.367 -0.434972 -0.51747 0
M  V30 3426 H 313.921 -1.75023 -1.075 0
M  V30 3427 H 312.151 -1.39836 -3.60531 0
M  V30 3428 H 313.84 -1.81651 -3.62985 0
M  V30 3429 H 314.606 -4.08374 -2.6164 0
M  V30 3430 H 310.485 -3.12883 -3.38564 0
M  V30 3431 H 314.029 -6.48404 -2.57328 0
M  V30 3432 H 309.926 -5.52052 -3.34528 0
M  V30 3433 H 310.694 -7.5803 -3.0876 0
M  V30 3434 N 313.357 1.07166 -1.15556 0
M  V30 3435 C 314.587 1.83248 -0.954133 0
M  V30 3436 C 314.995 1.82449 0.500911 0
M  V30 3437 O 314.338 1.23575 1.35923 0
M  V30 3438 C 314.4 3.31393 -1.39351 0
M  V30 3439 C 314.064 3.5591 -2.86666 0
M  V30 3440 C 315.061 3.49695 -3.8472 0
M  V30 3441 C 312.746 3.83515 -3.24379 0
M  V30 3442 C 314.74 3.70737 -5.18491 0
M  V30 3443 C 312.427 4.04209 -4.58321 0
M  V30 3444 C 313.425 3.97815 -5.55186 0
M  V30 3445 O 313.113 4.17954 -6.86709 0
M  V30 3446 H 312.845 0.584941 -0.338851 0
M  V30 3447 H 315.399 1.36169 -1.53777 0
M  V30 3448 H 313.629 3.79292 -0.75329 0
M  V30 3449 H 315.318 3.88945 -1.16089 0
M  V30 3450 H 316.084 3.28368 -3.56931 0
M  V30 3451 H 311.963 3.87605 -2.49567 0
M  V30 3452 H 315.507 3.65663 -5.94085 0
M  V30 3453 H 311.404 4.25023 -4.85825 0
M  V30 3454 H 312.172 4.35291 -6.93155 0
M  V30 3455 N 314.835 0.952656 1.25548 0
M  V30 3456 C 316.251 0.656769 1.4546 0
M  V30 3457 C 316.451 -0.78633 1.85524 0
M  V30 3458 O 315.507 -1.56183 1.98402 0
M  V30 3459 C 316.82 1.62801 2.52817 0
M  V30 3460 C 318.368 1.63897 2.66659 0
M  V30 3461 C 318.843 2.5978 3.77198 0
M  V30 3462 N 320.334 2.58133 3.84606 0
M  V30 3463 C 321.069 3.29003 4.69621 0
M  V30 3464 N 320.565 4.09339 5.58939 0
M  V30 3465 N 322.358 3.179 4.63569 0
M  V30 3466 H 314.509 1.88526 0.978344 0
M  V30 3467 H 316.772 0.810815 0.491206 0
M  V30 3468 H 316.478 2.65869 2.30232 0
M  V30 3469 H 316.352 1.38898 3.50695 0
M  V30 3470 H 318.739 0.615481 2.8861 0
M  V30 3471 H 318.82 1.91858 1.69187 0
M  V30 3472 H 318.464 3.62254 3.55997 0
M  V30 3473 H 318.394 2.29105 4.7415 0
M  V30 3474 H 320.885 1.99809 3.20757 0
M  V30 3475 H 321.198 4.6034 6.20731 0
M  V30 3476 H 319.543 4.13438 5.58654 0
M  V30 3477 H 322.734 2.54612 3.92798 0
M  V30 3478 H 322.907 3.73398 5.29602 0
M  V30 3479 N 316.313 -1.40141 0.720998 0
M  V30 3480 C 317.562 -2.0002 0.259804 0
M  V30 3481 C 317.875 -1.57839 -1.15526 0
M  V30 3482 O 319.081 -2.10455 -1.71525 0
M  V30 3483 C 317.537 -3.57516 0.413566 0
M  V30 3484 C 317.145 -4.08667 1.83562 0
M  V30 3485 C 318.889 -4.24498 0.0134387 0
M  V30 3486 C 316.796 -5.58686 1.93968 0
M  V30 3487 H 315.726 -0.748195 0.0933806 0
M  V30 3488 H 318.377 -1.60313 0.892866 0
M  V30 3489 H 316.759 -3.9495 -0.288169 0
M  V30 3490 H 317.933 -3.82598 2.56817 0
M  V30 3491 H 316.248 -3.543 2.1877 0
M  V30 3492 H 318.845 -5.34654 0.0703954 0
M  V30 3493 H 319.188 -4.03375 -1.02927 0
M  V30 3494 H 319.721 -3.92188 0.665815 0
M  V30 3495 H 316.46 -5.8467 2.96379 0
M  V30 3496 H 315.98 -5.86602 1.25131 0
M  V30 3497 H 317.659 -6.23875 1.71431 0
M  V30 3498 N 317.792 -0.46758 -1.50504 0
M  V30 3499 C 319.022 0.086288 -2.0642 0
M  V30 3500 C 319.43 1.34369 -1.33197 0
M  V30 3501 O 318.773 1.79431 -0.393747 0
M  V30 3502 C 318.835 0.443846 -3.5675 0
M  V30 3503 C 318.499 -0.711035 -4.51435 0
M  V30 3504 C 319.496 -1.59205 -4.94924 0
M  V30 3505 C 317.181 -0.900363 -4.94165 0
M  V30 3506 C 319.175 -2.64683 -5.79846 0
M  V30 3507 C 316.862 -1.95837 -5.7887 0
M  V30 3508 C 317.86 -2.82997 -6.21612 0
M  V30 3509 O 317.548 -3.86977 -7.0463 0
M  V30 3510 H 317.28 -0.00217814 -0.675996 0
M  V30 3511 H 319.834 -0.654346 -1.94698 0
M  V30 3512 H 318.064 1.23762 -3.6636 0
M  V30 3513 H 319.753 0.932386 -3.95046 0
M  V30 3514 H 320.519 -1.45745 -4.62583 0
M  V30 3515 H 316.398 -0.231427 -4.60419 0
M  V30 3516 H 319.942 -3.32745 -6.13128 0
M  V30 3517 H 315.839 -2.09305 -6.10624 0
M  V30 3518 H 316.607 -3.83923 -7.22873 0
M  V30 3519 N 319.27 1.56325 -0.20005 0
M  V30 3520 C 320.516 1.98012 0.438059 0
M  V30 3521 C 320.849 1.08702 1.60927 0
M  V30 3522 O 320.124 0.140064 1.93995 0
M  V30 3523 C 320.407 3.48841 0.893419 0
M  V30 3524 C 320.26 4.48928 -0.279947 0
M  V30 3525 C 321.579 4.03498 1.75719 0
M  V30 3526 H 318.698 0.719918 0.157757 0
M  V30 3527 H 321.34 1.87743 -0.291968 0
M  V30 3528 H 319.49 3.57723 1.51547 0
M  V30 3529 H 321.162 4.52079 -0.91772 0
M  V30 3530 H 319.405 4.23694 -0.930919 0
M  V30 3531 H 320.076 5.5194 0.0812601 0
M  V30 3532 H 322.552 3.97427 1.23253 0
M  V30 3533 H 321.428 5.09393 2.04476 0
M  V30 3534 H 321.689 3.4906 2.71311 0
M  V30 3535 N 320.748 -0.0735177 1.57428 0
M  V30 3536 C 321.976 -0.785969 1.9139 0
M  V30 3537 C 322.391 -1.71207 0.795847 0
M  V30 3538 O 321.748 -1.81033 -0.230915 0
M  V30 3539 C 321.799 -1.58107 3.25091 0
M  V30 3540 O 321.52 -0.6922 4.32597 0
M  V30 3541 C 323.021 -2.39467 3.73055 0
M  V30 3542 H 320.241 -0.223558 0.632663 0
M  V30 3543 H 322.785 -0.044302 2.04452 0
M  V30 3544 H 320.94 -2.27503 3.13562 0
M  V30 3545 H 321.354 -1.24504 5.09508 0
M  V30 3546 H 322.828 -2.90716 4.69242 0
M  V30 3547 H 323.305 -3.18913 3.01979 0
M  V30 3548 H 323.911 -1.7523 3.87523 0
M  V30 3549 N 322.226 -1.5378 -0.344866 0
M  V30 3550 C 323.189 -1.80981 -1.40637 0
M  V30 3551 C 324.189 -0.680816 -1.45676 0
M  V30 3552 O 325.379 -0.949095 -1.46075 0
M  V30 3553 C 322.511 -1.95063 -2.79577 0
M  V30 3554 H 323.704 -2.75803 -1.17783 0
M  V30 3555 H 321.257 -1.45173 -0.579181 0
M  V30 3556 H 321.992 -1.02379 -3.07716 0
M  V30 3557 H 321.777 -2.77198 -2.77315 0
M  V30 3558 H 323.267 -2.17629 -3.56409 0
M  V30 3559 N 323.704 0.605807 -1.45491 0
M  V30 3560 C 324.651 1.7164 -1.54299 0
M  V30 3561 C 325.621 1.61486 -0.388761 0
M  V30 3562 O 326.806 1.81039 -0.602445 0
M  V30 3563 C 323.946 3.09953 -1.51734 0
M  V30 3564 C 323.059 3.309 -2.77721 0
M  V30 3565 C 322.194 4.59329 -2.66816 0
M  V30 3566 C 321.233 4.7354 -3.87848 0
M  V30 3567 N 320.37 5.9327 -3.75467 0
M  V30 3568 H 325.21 1.63449 -2.49176 0
M  V30 3569 H 322.747 0.796957 -1.23641 0
M  V30 3570 H 324.705 3.89977 -1.48235 0
M  V30 3571 H 323.335 3.17098 -0.604068 0
M  V30 3572 H 322.387 2.44639 -2.913 0
M  V30 3573 H 323.699 3.37274 -3.67488 0
M  V30 3574 H 322.853 5.4755 -2.61292 0
M  V30 3575 H 321.592 4.55355 -1.74651 0
M  V30 3576 H 320.597 3.83741 -3.93729 0
M  V30 3577 H 321.822 4.79309 -4.81082 0
M  V30 3578 H 319.768 5.90338 -2.86072 0
M  V30 3579 H 319.685 6.00811 -4.5887 0
M  V30 3580 H 320.953 6.83984 -3.73879 0
M  V30 3581 N 325.182 1.32811 0.848464 0
M  V30 3582 C 326.092 1.24278 1.98978 0
M  V30 3583 C 327.108 0.155176 1.73307 0
M  V30 3584 O 328.284 0.376999 1.9784 0
M  V30 3585 C 325.349 0.972444 3.32783 0
M  V30 3586 C 324.41 2.14911 3.71634 0
M  V30 3587 C 323.643 1.89157 4.99054 0
M  V30 3588 O 323.866 0.837165 5.64223 0
M  V30 3589 O 322.8 2.75433 5.35183 0
M  V30 3590 H 326.626 2.20238 2.09115 0
M  V30 3591 H 324.211 1.12762 0.980052 0
M  V30 3592 H 326.093 0.838432 4.12975 0
M  V30 3593 H 324.768 0.043051 3.23671 0
M  V30 3594 H 323.675 2.33862 2.91992 0
M  V30 3595 H 325.008 3.06151 3.85399 0
M  V30 3596 N 326.66 -1.06551 1.16123 0
M  V30 3597 C 327.61 -2.12209 0.833736 0
M  V30 3598 C 328.594 -1.59825 -0.185656 0
M  V30 3599 O 329.786 -1.76994 0.0147906 0
M  V30 3600 C 326.915 -3.41674 0.333697 0
M  V30 3601 C 326.001 -4.00892 1.38372 0
M  V30 3602 N 326.392 -4.34256 2.59337 0
M  V30 3603 C 324.69 -4.28463 1.23836 0
M  V30 3604 C 325.391 -4.81291 3.26701 0
M  V30 3605 N 324.367 -4.80565 2.54083 0
M  V30 3606 H 328.169 -2.35849 1.75364 0
M  V30 3607 H 325.683 -1.24068 1.04789 0
M  V30 3608 H 327.68 -4.16822 0.0806918 0
M  V30 3609 H 326.34 -3.19475 -0.58017 0
M  V30 3610 H 327.351 -4.24687 2.96415 0
M  V30 3611 H 324.028 -4.15721 0.38504 0
M  V30 3612 H 325.418 -5.16332 4.29943 0
M  V30 3613 N 328.138 -0.959301 -1.25041 0
M  V30 3614 C 329.101 -0.487677 -2.23952 0
M  V30 3615 C 330.101 0.41119 -1.55454 0
M  V30 3616 O 331.291 0.207825 -1.72956 0
M  V30 3617 C 328.423 0.294807 -3.39623 0
M  V30 3618 H 329.616 -1.36198 -2.67189 0
M  V30 3619 H 327.169 -0.743042 -1.37508 0
M  V30 3620 H 327.904 1.18658 -3.01813 0
M  V30 3621 H 327.689 -0.35012 -3.90534 0
M  V30 3622 H 329.179 0.614089 -4.1306 0
M  V30 3623 N 329.616 1.39756 -0.72842 0
M  V30 3624 C 330.566 2.2792 -0.0603424 0
M  V30 3625 C 331.55 1.43922 0.719399 0
M  V30 3626 O 332.742 1.66895 0.589489 0
M  V30 3627 C 329.871 3.32582 0.851104 0
M  V30 3628 C 328.957 4.24049 0.0658641 0
M  V30 3629 N 329.348 4.96653 -0.957578 0
M  V30 3630 C 327.646 4.45013 0.296509 0
M  V30 3631 C 328.347 5.63836 -1.43052 0
M  V30 3632 N 327.323 5.38397 -0.750315 0
M  V30 3633 H 331.125 2.81504 -0.84455 0
M  V30 3634 H 328.639 1.5236 -0.562155 0
M  V30 3635 H 330.636 3.94603 1.34514 0
M  V30 3636 H 329.296 2.80558 1.63454 0
M  V30 3637 H 330.307 5.00297 -1.33877 0
M  V30 3638 H 326.984 4.03943 1.05527 0
M  V30 3639 H 328.374 6.31974 -2.28163 0
M  V30 3640 N 331.094 0.475555 1.50254 0
M  V30 3641 C 332.026 -0.352649 2.26471 0
M  V30 3642 C 333.039 -0.953165 1.3198 0
M  V30 3643 O 334.228 -0.840815 1.57457 0
M  V30 3644 C 331.328 -1.50902 3.0345 0
M  V30 3645 C 330.501 -1.02047 4.25329 0
M  V30 3646 C 329.56 -2.05142 4.84565 0
M  V30 3647 O 328.586 -1.63023 5.45355 0
M  V30 3648 N 329.788 -3.37987 4.71959 0
M  V30 3649 H 332.553 0.300767 2.98187 0
M  V30 3650 H 330.114 0.306598 1.5897 0
M  V30 3651 H 332.106 -2.19572 3.39956 0
M  V30 3652 H 330.676 -2.06705 2.34504 0
M  V30 3653 H 329.896 -0.159507 3.93877 0
M  V30 3654 H 331.184 -0.672061 5.04342 0
M  V30 3655 H 330.582 -3.74913 4.23623 0
M  V30 3656 H 329.139 -4.02443 5.12721 0
M  V30 3657 N 332.573 -1.56217 0.208337 0
M  V30 3658 C 333.822 -1.97124 -0.427204 0
M  V30 3659 C 334.135 -1.09859 -1.61835 0
M  V30 3660 O 335.341 -1.40606 -2.32255 0
M  V30 3661 C 333.797 -3.50633 -0.811442 0
M  V30 3662 C 333.405 -4.46582 0.35615 0
M  V30 3663 C 335.149 -4.00282 -1.41332 0
M  V30 3664 C 333.056 -5.91379 -0.0497852 0
M  V30 3665 H 331.986 -0.736086 -0.163381 0
M  V30 3666 H 334.637 -1.8099 0.302456 0
M  V30 3667 H 333.019 -3.62319 -1.59815 0
M  V30 3668 H 334.193 -4.46636 1.1337 0
M  V30 3669 H 332.508 -4.07202 0.870396 0
M  V30 3670 H 335.105 -5.0595 -1.72972 0
M  V30 3671 H 335.448 -3.45359 -2.32449 0
M  V30 3672 H 335.981 -3.91764 -0.690323 0
M  V30 3673 H 332.72 -6.50255 0.827529 0
M  V30 3674 H 332.24 -5.94549 -0.791926 0
M  V30 3675 H 333.919 -6.45209 -0.481042 0
M  V30 3676 N 334.051 0.0651679 -1.57465 0
M  V30 3677 C 334.983 1.10359 -2.00882 0
M  V30 3678 C 335.996 1.346 -0.915788 0
M  V30 3679 O 337.185 1.32723 -1.1936 0
M  V30 3680 C 334.285 2.45312 -2.33828 0
M  V30 3681 C 333.458 2.40934 -3.65061 0
M  V30 3682 C 332.517 3.58047 -3.85602 0
M  V30 3683 O 331.543 3.39175 -4.57109 0
M  V30 3684 N 332.745 4.78637 -3.28462 0
M  V30 3685 H 335.51 0.733807 -2.90578 0
M  V30 3686 H 333.071 0.253719 -1.599 0
M  V30 3687 H 335.063 3.22314 -2.44737 0
M  V30 3688 H 333.633 2.74267 -1.49988 0
M  V30 3689 H 332.853 1.49273 -3.64844 0
M  V30 3690 H 334.141 2.35117 -4.51218 0
M  V30 3691 H 333.539 4.96872 -2.70433 0
M  V30 3692 H 332.096 5.53127 -3.44809 0
M  V30 3693 N 335.529 1.53961 0.336706 0
M  V30 3694 C 336.462 1.77255 1.43722 0
M  V30 3695 C 337.44 0.62193 1.50236 0
M  V30 3696 O 338.624 0.857874 1.67847 0
M  V30 3697 C 335.751 1.87733 2.81912 0
M  V30 3698 C 334.797 3.09933 2.92991 0
M  V30 3699 S 335.63 4.68836 2.58753 0
M  V30 3700 C 336.786 4.82202 3.99039 0
M  V30 3701 H 337.019 2.70322 1.23748 0
M  V30 3702 H 334.552 1.44917 0.532777 0
M  V30 3703 H 336.51 1.94455 3.61521 0
M  V30 3704 H 335.171 0.956666 2.99177 0
M  V30 3705 H 334.364 3.1396 3.94265 0
M  V30 3706 H 333.966 3.01472 2.21338 0
M  V30 3707 H 336.258 4.64032 4.9364 0
M  V30 3708 H 337.201 5.84298 4.00002 0
M  V30 3709 H 337.609 4.10604 3.87382 0
M  V30 3710 N 337.007 -0.598083 1.45811 0
M  V30 3711 C 337.937 -1.71873 1.58057 0
M  V30 3712 C 338.918 -1.64533 0.431615 0
M  V30 3713 O 340.103 -1.82787 0.65595 0
M  V30 3714 C 337.233 -3.10495 1.55597 0
M  V30 3715 C 336.187 -3.32654 2.69305 0
M  V30 3716 C 335.513 -4.71646 2.51902 0
M  V30 3717 C 336.813 -3.21981 4.11248 0
M  V30 3718 H 338.507 -1.61881 2.51863 0
M  V30 3719 H 336.053 -0.777372 1.21214 0
M  V30 3720 H 338.006 -3.88699 1.6276 0
M  V30 3721 H 336.73 -3.2135 0.583255 0
M  V30 3722 H 335.389 -2.56843 2.61586 0
M  V30 3723 H 335.037 -4.79246 1.52748 0
M  V30 3724 H 334.737 -4.87426 3.2816 0
M  V30 3725 H 336.261 -5.52038 2.60933 0
M  V30 3726 H 337.675 -3.90049 4.20161 0
M  V30 3727 H 336.072 -3.49289 4.87972 0
M  V30 3728 H 337.142 -2.1928 4.32486 0
M  V30 3729 N 338.485 -1.33259 -0.841409 0
M  V30 3730 C 339.417 -1.19136 -1.95804 0
M  V30 3731 C 340.43 -0.122965 -1.62335 0
M  V30 3732 O 341.619 -0.373154 -1.74556 0
M  V30 3733 C 338.719 -0.804268 -3.29218 0
M  V30 3734 C 337.892 -1.96376 -3.90839 0
M  V30 3735 C 336.951 -1.55806 -5.02604 0
M  V30 3736 O 335.977 -2.27203 -5.21888 0
M  V30 3737 N 337.179 -0.461609 -5.78662 0
M  V30 3738 H 339.944 -2.15326 -2.08458 0
M  V30 3739 H 337.505 -1.25971 -1.017 0
M  V30 3740 H 339.497 -0.51501 -4.0141 0
M  V30 3741 H 338.067 0.0668809 -3.12528 0
M  V30 3742 H 337.287 -2.41879 -3.11269 0
M  V30 3743 H 338.575 -2.73966 -4.28742 0
M  V30 3744 H 337.973 0.132343 -5.65545 0
M  V30 3745 H 336.53 -0.232013 -6.51387 0
M  V30 3746 N 339.963 1.05934 -1.16686 0
M  V30 3747 C 341.379 1.30938 -0.912542 0
M  V30 3748 C 341.579 1.96803 0.432533 0
M  V30 3749 O 340.635 2.23693 1.17123 0
M  V30 3750 C 341.948 2.18649 -2.06429 0
M  V30 3751 C 343.496 2.32055 -2.10047 0
M  V30 3752 C 343.971 3.23122 -3.24586 0
M  V30 3753 N 345.462 3.30706 -3.24327 0
M  V30 3754 C 346.197 4.01273 -4.09594 0
M  V30 3755 N 345.693 4.74332 -5.04956 0
M  V30 3756 N 347.486 3.97361 -3.97569 0
M  V30 3757 H 339.637 0.615777 -2.03278 0
M  V30 3758 H 341.9 0.334077 -0.887185 0
M  V30 3759 H 341.606 1.77534 -3.03603 0
M  V30 3760 H 341.48 3.19252 -2.00894 0
M  V30 3761 H 343.867 2.72415 -1.13464 0
M  V30 3762 H 343.948 1.31107 -2.19647 0
M  V30 3763 H 343.592 2.83477 -4.2143 0
M  V30 3764 H 343.522 4.24057 -3.12223 0
M  V30 3765 H 346.013 2.78644 -2.55276 0
M  V30 3766 H 346.326 5.25716 -5.6643 0
M  V30 3767 H 344.671 4.733 -5.08933 0
M  V30 3768 H 347.862 3.39405 -3.22369 0
M  V30 3769 H 348.035 4.52089 -4.64241 0
M  V30 3770 N 341.441 0.965919 1.2453 0
M  V30 3771 C 342.404 0.499547 2.2369 0
M  V30 3772 C 343.404 -0.40294 1.5567 0
M  V30 3773 O 344.594 -0.19865 1.73064 0
M  V30 3774 C 341.726 -0.276792 3.39774 0
M  V30 3775 H 342.919 1.37613 2.66463 0
M  V30 3776 H 340.472 0.750324 1.37112 0
M  V30 3777 H 341.207 -1.17055 3.02438 0
M  V30 3778 H 340.992 0.370826 3.90343 0
M  V30 3779 H 342.482 -0.592175 4.1338 0
M  V30 3780 N 342.919 -1.39368 0.735821 0
M  V30 3781 C 344.167 -2.00101 0.283562 0
M  V30 3782 C 344.488 -1.5868 -1.13338 0
M  V30 3783 O 343.758 -0.835423 -1.77193 0
M  V30 3784 H 342.338 -0.740024 0.101851 0
M  V30 3785 H 345 -1.70404 0.945962 0
M  V30 3786 H 344.096 -3.10323 0.332604 0
M  V30 3787 N 344.397 -0.483516 -1.5 0
M  V30 3788 C 345.36 0.292965 -2.2732 0
M  V30 3789 C 346.36 0.909499 -1.32608 0
M  V30 3790 O 347.55 0.776745 -1.55924 0
M  V30 3791 C 344.682 1.41854 -3.09984 0
M  V30 3792 H 345.875 -0.385289 -2.97415 0
M  V30 3793 H 343.428 -0.237942 -1.54478 0
M  V30 3794 H 344.163 2.13148 -2.44414 0
M  V30 3795 H 343.948 0.982114 -3.79601 0
M  V30 3796 H 345.438 1.96597 -3.68429 0
M  V30 3797 N 345.875 1.56104 -0.216619 0
M  V30 3798 C 347.1 2.0301 0.424462 0
M  V30 3799 C 347.525 1.0955 1.52907 0
M  V30 3800 O 346.883 0.0827914 1.81111 0
M  V30 3801 C 346.931 3.4819 0.937883 0
M  V30 3802 O 346.035 3.57865 2.04955 0
M  V30 3803 H 345.376 0.656925 0.0966755 0
M  V30 3804 H 347.906 2.01859 -0.33381 0
M  V30 3805 H 347.916 3.88413 1.24897 0
M  V30 3806 H 346.591 4.15699 0.129387 0
M  V30 3807 H 345.168 3.29527 1.74546 0
M  V30 3808 N 347.353 -0.0568162 1.57498 0
M  V30 3809 C 348.578 -0.769402 1.92601 0
M  V30 3810 C 349.003 -1.69559 0.814336 0
M  V30 3811 O 348.361 -1.79811 -0.231903 0
M  V30 3812 C 348.409 -1.52634 3.26704 0
M  V30 3813 O 347.513 -2.63797 3.16994 0
M  V30 3814 H 346.854 -0.208909 0.63028 0
M  V30 3815 H 349.384 -0.0205798 2.0459 0
M  V30 3816 H 349.394 -1.90234 3.60936 0
M  V30 3817 H 348.069 -0.846875 4.07186 0
M  V30 3818 H 346.646 -2.28943 2.94346 0
M  V30 3819 N 348.832 -1.54138 -0.328536 0
M  V30 3820 C 349.742 -1.86192 -1.42723 0
M  V30 3821 C 350.758 -0.753382 -1.56844 0
M  V30 3822 O 351.934 -1.04718 -1.72035 0
M  V30 3823 C 348.999 -2.07824 -2.77507 0
M  V30 3824 C 348.06 -3.31641 -2.72603 0
M  V30 3825 C 347.293 -3.52232 -4.00959 0
M  V30 3826 O 347.516 -2.7636 -4.9898 0
M  V30 3827 O 346.45 -4.45699 -4.0452 0
M  V30 3828 H 350.276 -2.79608 -1.18547 0
M  V30 3829 H 347.861 -1.3998 -0.522104 0
M  V30 3830 H 349.743 -2.23411 -3.57303 0
M  V30 3831 H 348.418 -1.17596 -3.01584 0
M  V30 3832 H 347.325 -3.21444 -1.91376 0
M  V30 3833 H 348.658 -4.2191 -2.53481 0
M  V30 3834 N 350.31 0.590341 -1.46126 0
M  V30 3835 C 351.535 1.37991 -1.54833 0
M  V30 3836 C 351.96 1.87163 -0.187506 0
M  V30 3837 O 351.318 1.61133 0.831008 0
M  V30 3838 C 351.366 2.54867 -2.55098 0
M  V30 3839 O 350.47 3.56061 -2.08073 0
M  V30 3840 H 349.811 0.411265 -0.521303 0
M  V30 3841 H 352.341 0.716819 -1.91632 0
M  V30 3842 H 352.351 3.01886 -2.74461 0
M  V30 3843 H 351.026 2.18429 -3.53923 0
M  V30 3844 H 349.603 3.15574 -1.98664 0
M  V30 3845 N 351.788 1.33704 0.83433 0
M  V30 3846 C 353.204 1.13137 1.12571 0
M  V30 3847 C 353.404 -0.0747261 2.01361 0
M  V30 3848 O 352.46 -0.753647 2.4099 0
M  V30 3849 C 353.773 2.42105 1.78342 0
M  V30 3850 C 355.321 2.48054 1.90888 0
M  V30 3851 C 355.796 3.76995 2.60075 0
M  V30 3852 N 357.287 3.78092 2.67584 0
M  V30 3853 C 358.022 4.74574 3.21818 0
M  V30 3854 N 357.518 5.81434 3.76705 0
M  V30 3855 N 359.311 4.62044 3.20112 0
M  V30 3856 H 351.462 2.11 0.243489 0
M  V30 3857 H 353.725 0.932532 0.17055 0
M  V30 3858 H 353.431 3.30391 1.20561 0
M  V30 3859 H 353.305 2.54594 2.7832 0
M  V30 3860 H 355.692 1.60215 2.47821 0
M  V30 3861 H 355.773 2.39502 0.898459 0
M  V30 3862 H 355.417 4.65219 2.03799 0
M  V30 3863 H 355.347 3.82825 3.61597 0
M  V30 3864 H 357.838 3.00865 2.28667 0
M  V30 3865 H 358.151 6.51084 4.16305 0
M  V30 3866 H 356.496 5.85163 3.7498 0
M  V30 3867 H 359.687 3.77716 2.76493 0
M  V30 3868 H 359.86 5.37406 3.62076 0
M  V30 3869 N 353.266 -1.05314 1.17247 0
M  V30 3870 C 354.677 -1.59753 0.96623 0
M  V30 3871 C 355.028 -1.9005 -0.487378 0
M  V30 3872 O 354.153 -1.68126 -1.36245 0
M  V30 3873 C 354.748 -2.90249 1.74759 0
M  V30 3874 C 353.307 -3.41352 1.58606 0
M  V30 3875 C 352.454 -2.15103 1.75002 0
M  V30 3876 H 355.405 -0.881406 1.31973 0
M  V30 3877 H 355.426 -3.60097 1.22925 0
M  V30 3878 H 354.938 -2.68166 2.8055 0
M  V30 3879 H 353.039 -3.68474 0.552985 0
M  V30 3880 H 353.152 -4.16019 2.37624 0
M  V30 3881 H 351.516 -2.25804 1.17833 0
M  V30 3882 H 352.299 -1.95491 2.82202 0
M  V30 3883 N 354.744 -0.972509 -1.24016 0
M  V30 3884 C 355.676 -0.464375 -2.24446 0
M  V30 3885 C 356.689 0.4295 -1.57032 0
M  V30 3886 O 357.878 0.234902 -1.76948 0
M  V30 3887 C 354.978 0.348385 -3.37105 0
M  V30 3888 C 354.151 -0.53673 -4.34094 0
M  V30 3889 C 353.21 0.220838 -5.25736 0
M  V30 3890 O 352.236 -0.386867 -5.67884 0
M  V30 3891 N 353.438 1.50907 -5.60542 0
M  V30 3892 H 356.203 -1.32788 -2.68677 0
M  V30 3893 H 353.764 -0.844877 -1.38107 0
M  V30 3894 H 355.756 0.863341 -3.95384 0
M  V30 3895 H 354.326 1.11285 -2.92121 0
M  V30 3896 H 353.546 -1.23261 -3.74433 0
M  V30 3897 H 354.834 -1.14022 -4.95859 0
M  V30 3898 H 354.232 2.02444 -5.28236 0
M  V30 3899 H 352.789 1.96962 -6.21329 0
M  V30 3900 N 356.222 1.38976 -0.743202 0
M  V30 3901 C 357.447 2.05161 -0.303936 0
M  V30 3902 C 357.872 1.55677 1.05576 0
M  V30 3903 O 357.23 0.704131 1.67068 0
M  V30 3904 C 357.278 3.59138 -0.324373 0
M  V30 3905 O 356.382 4.06668 0.685204 0
M  V30 3906 H 355.723 0.649815 -0.136518 0
M  V30 3907 H 358.253 1.77852 -1.01142 0
M  V30 3908 H 358.263 4.07639 -0.171618 0
M  V30 3909 H 356.938 3.94515 -1.31647 0
M  V30 3910 H 355.515 3.69561 0.497913 0
M  V30 3911 N 357.7 0.491464 1.49741 0
M  V30 3912 C 358.663 -0.280906 2.27472 0
M  V30 3913 C 359.663 -0.902454 1.33088 0
M  V30 3914 O 360.853 -0.768465 1.56334 0
M  V30 3915 C 357.985 -1.40209 3.10732 0
M  V30 3916 H 359.178 0.401056 2.97206 0
M  V30 3917 H 356.731 0.246131 1.5435 0
M  V30 3918 H 357.466 -2.11849 2.45541 0
M  V30 3919 H 357.251 -0.961969 3.80117 0
M  V30 3920 H 358.741 -1.9464 3.69466 0
M  V30 3921 N 359.178 -1.55987 0.224894 0
M  V30 3922 C 360.455 -1.90232 -0.455083 0
M  V30 3923 C 360.835 -1.14269 -1.77499 0
M  V30 3924 O 360.183 -0.253079 -2.27094 0
M  V30 3925 C 360.393 -3.42993 -0.644758 0
M  V30 3926 C 361.741 -4.13821 -0.950669 0
M  V30 3927 O 362.765 -3.4861 -0.731423 0
M  V30 3928 O 361.624 -5.29128 -1.36695 0
M  V30 3929 H 358.718 -0.79108 -0.241084 0
M  V30 3930 H 361.264 -1.67581 0.267327 0
M  V30 3931 H 360.036 -3.90252 0.28613 0
M  V30 3932 H 359.659 -3.71434 -1.41853 0
M  V30 3933 N 360.656 0.0484629 -1.57525 0
M  V30 3934 C 361.588 1.08222 -2.02041 0
M  V30 3935 C 362.601 1.33621 -0.930012 0
M  V30 3936 O 363.79 1.3145 -1.20761 0
M  V30 3937 C 360.89 2.42818 -2.36416 0
M  V30 3938 C 360.063 2.37049 -3.67596 0
M  V30 3939 C 359.122 3.53937 -3.89378 0
M  V30 3940 O 358.148 3.34308 -4.60681 0
M  V30 3941 N 359.35 4.75126 -3.3352 0
M  V30 3942 H 362.115 0.702946 -2.9134 0
M  V30 3943 H 359.676 0.236745 -1.6016 0
M  V30 3944 H 361.668 3.197 -2.48141 0
M  V30 3945 H 360.238 2.72661 -1.52888 0
M  V30 3946 H 359.458 1.45395 -3.66407 0
M  V30 3947 H 360.746 2.30318 -4.53686 0
M  V30 3948 H 360.144 4.93976 -2.75688 0
M  V30 3949 H 358.701 5.49439 -3.50656 0
M  V30 3950 N 362.134 1.5431 0.320358 0
M  V30 3951 C 363.084 1.803 1.39556 0
M  V30 3952 C 364.068 0.659166 1.46778 0
M  V30 3953 O 365.26 0.91926 1.51257 0
M  V30 3954 C 362.389 2.03665 2.76361 0
M  V30 3955 C 361.475 3.24178 2.73439 0
M  V30 3956 N 361.866 4.4516 2.40137 0
M  V30 3957 C 360.164 3.25816 3.04565 0
M  V30 3958 C 360.865 5.27109 2.4603 0
M  V30 3959 N 359.841 4.64368 2.82601 0
M  V30 3960 H 363.643 2.71416 1.12742 0
M  V30 3961 H 361.157 1.53548 0.528856 0
M  V30 3962 H 363.154 2.20425 3.53862 0
M  V30 3963 H 361.814 1.13805 3.04103 0
M  V30 3964 H 362.825 4.72104 2.12927 0
M  V30 3965 H 359.502 2.46001 3.37328 0
M  V30 3966 H 360.892 6.33728 2.23246 0
M  V30 3967 N 363.613 -0.582584 1.46437 0
M  V30 3968 C 364.838 -1.37168 1.55563 0
M  V30 3969 C 365.263 -1.87061 0.19743 0
M  V30 3970 O 364.621 -1.61572 -0.822451 0
M  V30 3971 C 364.669 -2.53511 2.56446 0
M  V30 3972 O 363.773 -3.54953 2.09958 0
M  V30 3973 H 363.114 -0.408494 0.523477 0
M  V30 3974 H 365.644 -0.706646 1.9201 0
M  V30 3975 H 365.654 -3.00426 2.76058 0
M  V30 3976 H 364.329 -2.16549 3.55076 0
M  V30 3977 H 362.906 -3.14516 2.00334 0
M  V30 3978 N 365.091 -1.34144 -0.827227 0
M  V30 3979 C 366.319 -1.29325 -1.61501 0
M  V30 3980 C 366.734 0.13354 -1.88327 0
M  V30 3981 O 366.091 1.0793 -1.47164 0
M  V30 3982 C 366.142 -2.07746 -2.95844 0
M  V30 3983 O 365.863 -3.4486 -2.70191 0
M  V30 3984 C 367.364 -2.10273 -3.90256 0
M  V30 3985 H 364.584 -0.445069 -0.50215 0
M  V30 3986 H 367.128 -1.76693 -1.02955 0
M  V30 3987 H 365.283 -1.6403 -3.5096 0
M  V30 3988 H 365.697 -3.85345 -3.55822 0
M  V30 3989 H 367.171 -2.69575 -4.81698 0
M  V30 3990 H 367.648 -1.096 -4.25305 0
M  V30 3991 H 368.254 -2.54059 -3.41078 0
M  V30 3992 N 366.569 1.04691 -1.17803 0
M  V30 3993 C 367.519 2.10856 -0.867391 0
M  V30 3994 C 368.503 1.601 0.160206 0
M  V30 3995 O 369.695 1.76948 -0.042947 0
M  V30 3996 C 366.824 3.411 -0.388012 0
M  V30 3997 C 365.91 3.9864 -1.44732 0
M  V30 3998 N 366.301 4.30075 -2.66212 0
M  V30 3999 C 364.599 4.26439 -1.30637 0
M  V30 4000 C 365.3 4.76033 -3.34317 0
M  V30 4001 N 364.276 4.76462 -2.61696 0
M  V30 4002 H 368.078 2.33029 -1.79094 0
M  V30 4003 H 365.592 1.22386 -1.0675 0
M  V30 4004 H 367.589 4.16641 -0.146994 0
M  V30 4005 H 366.249 3.20357 0.529271 0
M  V30 4006 H 367.26 4.19917 -3.03134 0
M  V30 4007 H 363.937 4.15056 -0.451129 0
M  V30 4008 H 365.327 5.09427 -4.38103 0
M  V30 4009 N 368.047 0.979072 1.23499 0
M  V30 4010 C 369.463 0.687475 1.44034 0
M  V30 4011 C 369.663 -0.746801 1.8715 0
M  V30 4012 O 368.719 -1.51939 2.0167 0
M  V30 4013 C 370.032 1.68127 2.49307 0
M  V30 4014 C 371.58 1.69516 2.63122 0
M  V30 4015 C 372.055 2.67723 3.71603 0
M  V30 4016 N 373.546 2.66233 3.79044 0
M  V30 4017 C 374.281 3.38891 4.62537 0
M  V30 4018 N 373.777 4.21103 5.50131 0
M  V30 4019 N 375.57 3.27661 4.56721 0
M  V30 4020 H 367.721 1.90559 0.938135 0
M  V30 4021 H 369.984 0.821051 0.473897 0
M  V30 4022 H 369.69 2.70693 2.2454 0
M  V30 4023 H 369.564 1.46306 3.4767 0
M  V30 4024 H 371.951 0.676561 2.8724 0
M  V30 4025 H 372.032 1.95404 1.65079 0
M  V30 4026 H 371.676 3.69724 3.48233 0
M  V30 4027 H 371.606 2.39111 4.69184 0
M  V30 4028 H 374.097 2.06568 3.16446 0
M  V30 4029 H 374.41 4.73403 6.10827 0
M  V30 4030 H 372.755 4.25195 5.49759 0
M  V30 4031 H 375.946 2.62887 3.87309 0
M  V30 4032 H 376.119 3.84547 5.21562 0
M  V30 4033 N 369.525 -1.3858 0.750561 0
M  V30 4034 C 370.458 -2.28095 0.0693139 0
M  V30 4035 C 371.436 -1.45217 -0.731491 0
M  V30 4036 O 372.62 -1.74587 -0.71076 0
M  V30 4037 C 369.747 -3.26282 -0.90871 0
M  V30 4038 C 368.793 -4.26056 -0.194507 0
M  V30 4039 S 369.626 -5.24026 1.10257 0
M  V30 4040 C 370.782 -6.2577 0.127542 0
M  V30 4041 H 371.015 -2.85526 0.8284 0
M  V30 4042 H 368.548 -1.44536 0.543014 0
M  V30 4043 H 370.506 -3.83367 -1.46766 0
M  V30 4044 H 369.167 -2.6784 -1.64075 0
M  V30 4045 H 368.36 -4.95249 -0.93512 0
M  V30 4046 H 367.962 -3.72852 0.292837 0
M  V30 4047 H 370.254 -6.73796 -0.707516 0
M  V30 4048 H 371.197 -7.03712 0.787044 0
M  V30 4049 H 371.605 -5.63938 -0.251803 0
M  V30 4050 N 371.003 -0.499398 -1.49478 0
M  V30 4051 C 372.419 -0.155261 -1.58843 0
M  V30 4052 C 372.619 1.34008 -1.50479 0
M  V30 4053 O 371.675 2.11589 -1.37791 0
M  V30 4054 C 372.988 -0.730636 -2.91689 0
M  V30 4055 C 374.536 -0.696599 -3.0515 0
M  V30 4056 C 375.011 -1.25001 -4.40612 0
M  V30 4057 N 376.502 -1.21064 -4.47099 0
M  V30 4058 C 377.237 -1.60905 -5.50361 0
M  V30 4059 N 376.733 -2.08331 -6.60735 0
M  V30 4060 N 378.526 -1.52331 -5.41065 0
M  V30 4061 H 370.677 -1.47162 -1.53158 0
M  V30 4062 H 372.94 -0.610309 -0.725415 0
M  V30 4063 H 372.646 -1.77928 -3.03372 0
M  V30 4064 H 372.52 -0.190161 -3.7672 0
M  V30 4065 H 374.907 0.343204 -2.93097 0
M  V30 4066 H 374.988 -1.2742 -2.21806 0
M  V30 4067 H 374.632 -2.28859 -4.53416 0
M  V30 4068 H 374.562 -0.64836 -5.22593 0
M  V30 4069 H 377.053 -0.863128 -3.67911 0
M  V30 4070 H 377.366 -2.36805 -7.35624 0
M  V30 4071 H 375.711 -2.12304 -6.6178 0
M  V30 4072 H 378.902 -1.151 -4.53729 0
M  V30 4073 H 379.075 -1.83704 -6.21415 0
M  V30 4074 N 372.481 1.55866 -0.233164 0
M  V30 4075 C 373.709 2.02998 0.399905 0
M  V30 4076 C 374.124 1.11274 1.52524 0
M  V30 4077 O 373.481 0.124528 1.82075 0
M  V30 4078 C 373.532 3.4958 0.920639 0
M  V30 4079 O 373.253 4.37808 -0.159834 0
M  V30 4080 C 374.754 4.12411 1.62578 0
M  V30 4081 H 371.974 0.664006 0.0966281 0
M  V30 4082 H 374.518 2.0143 -0.353013 0
M  V30 4083 H 372.673 3.51727 1.62379 0
M  V30 4084 H 373.087 5.23981 0.23337 0
M  V30 4085 H 374.561 5.16711 1.94201 0
M  V30 4086 H 375.038 3.5809 2.54299 0
M  V30 4087 H 375.644 4.14148 0.967553 0
M  V30 4088 N 373.959 -0.0401083 1.57549 0
M  V30 4089 C 374.869 -1.06133 2.0922 0
M  V30 4090 C 375.885 -1.40356 1.0284 0
M  V30 4091 O 377.061 -1.49897 1.34509 0
M  V30 4092 C 374.126 -2.34658 2.55218 0
M  V30 4093 C 373.187 -2.07117 3.76033 0
M  V30 4094 C 372.42 -3.29514 4.19829 0
M  V30 4095 O 372.643 -4.39794 3.63232 0
M  V30 4096 O 371.577 -3.15863 5.12362 0
M  V30 4097 H 375.403 -0.652244 2.96613 0
M  V30 4098 H 372.988 -0.256368 1.47184 0
M  V30 4099 H 374.87 -3.10239 2.85184 0
M  V30 4100 H 373.545 -2.74883 1.70941 0
M  V30 4101 H 372.452 -1.29139 3.51104 0
M  V30 4102 H 373.785 -1.71754 4.61261 0
M  V30 4103 N 375.437 -1.54477 -0.31217 0
M  V30 4104 C 376.665 -1.77205 -1.068 0
M  V30 4105 C 377.08 -0.526114 -1.81321 0
M  V30 4106 O 376.437 0.503647 -1.75413 0
M  V30 4107 C 376.488 -2.97253 -2.05725 0
M  V30 4108 O 376.209 -4.1703 -1.34228 0
M  V30 4109 C 377.71 -3.32281 -2.93435 0
M  V30 4110 H 374.93 -0.591287 -0.317208 0
M  V30 4111 H 377.474 -2.01398 -0.354834 0
M  V30 4112 H 375.629 -2.753 -2.72559 0
M  V30 4113 H 376.043 -4.84636 -2.00571 0
M  V30 4114 H 377.517 -4.19551 -3.58721 0
M  V30 4115 H 377.994 -2.49945 -3.61143 0
M  V30 4116 H 378.6 -3.56353 -2.32147 0
M  V30 4117 N 376.915 0.57481 -1.46744 0
M  V30 4118 C 377.862 1.68329 -1.57905 0
M  V30 4119 C 378.832 1.60625 -0.422927 0
M  V30 4120 O 380.017 1.79721 -0.640711 0
M  V30 4121 C 377.157 3.06665 -1.58274 0
M  V30 4122 C 376.27 3.24935 -2.84678 0
M  V30 4123 C 375.405 4.53566 -2.76499 0
M  V30 4124 C 374.444 4.65207 -3.97806 0
M  V30 4125 N 373.581 5.85172 -3.87967 0
M  V30 4126 H 378.421 1.58127 -2.52587 0
M  V30 4127 H 375.958 0.770552 -1.25303 0
M  V30 4128 H 377.916 3.86745 -1.56473 0
M  V30 4129 H 376.546 3.15745 -0.671194 0
M  V30 4130 H 375.598 2.38405 -2.96424 0
M  V30 4131 H 376.91 3.29403 -3.7456 0
M  V30 4132 H 376.064 5.41885 -2.72848 0
M  V30 4133 H 374.803 4.51548 -1.8427 0
M  V30 4134 H 373.808 3.75304 -4.0178 0
M  V30 4135 H 375.033 4.68997 -4.9114 0
M  V30 4136 H 372.979 5.84137 -2.98529 0
M  V30 4137 H 372.896 5.90943 -4.71511 0
M  V30 4138 H 374.164 6.759 -3.88303 0
M  V30 4139 N 378.394 1.34581 0.820102 0
M  V30 4140 C 379.357 1.2628 1.91275 0
M  V30 4141 C 380.357 0.177344 1.59819 0
M  V30 4142 O 381.547 0.430156 1.68806 0
M  V30 4143 C 378.679 0.950327 3.27386 0
M  V30 4144 H 379.872 2.23421 2.00057 0
M  V30 4145 H 377.425 1.1891 1.0144 0
M  V30 4146 H 378.16 -0.0177938 3.24295 0
M  V30 4147 H 377.945 1.73549 3.51601 0
M  V30 4148 H 379.435 0.917492 4.07396 0
M  V30 4149 N 379.872 -1.04064 1.18357 0
M  V30 4150 C 380.835 -2.10243 0.912707 0
M  V30 4151 C 381.835 -1.60477 -0.101928 0
M  V30 4152 O 383.025 -1.73703 0.131517 0
M  V30 4153 C 380.157 -3.38893 0.369387 0
M  V30 4154 H 381.35 -2.35706 1.85426 0
M  V30 4155 H 378.903 -1.20489 0.995594 0
M  V30 4156 H 379.638 -3.19094 -0.578776 0
M  V30 4157 H 379.423 -3.76331 1.1008 0
M  V30 4158 H 380.913 -4.17128 0.198575 0
M  V30 4159 N 381.35 -0.985608 -1.22978 0
M  V30 4160 C 382.297 -0.529825 -2.24636 0
M  V30 4161 C 383.267 0.434028 -1.60329 0
M  V30 4162 O 384.452 0.340414 -1.87739 0
M  V30 4163 C 381.592 0.156533 -3.44745 0
M  V30 4164 C 380.705 -0.848197 -4.23591 0
M  V30 4165 C 379.84 -0.136109 -5.31026 0
M  V30 4166 C 378.879 -1.1297 -6.01585 0
M  V30 4167 N 378.016 -0.446415 -7.00679 0
M  V30 4168 H 382.856 -1.40148 -2.62988 0
M  V30 4169 H 380.393 -0.702168 -1.29259 0
M  V30 4170 H 382.351 0.571324 -4.1327 0
M  V30 4171 H 380.981 0.992025 -3.07179 0
M  V30 4172 H 380.033 -1.38135 -3.54433 0
M  V30 4173 H 381.345 -1.60512 -4.72268 0
M  V30 4174 H 380.499 0.335784 -6.0577 0
M  V30 4175 H 379.238 0.653373 -4.83304 0
M  V30 4176 H 378.243 -1.6123 -5.25628 0
M  V30 4177 H 379.468 -1.91993 -6.51395 0
M  V30 4178 H 377.414 0.323763 -6.55201 0
M  V30 4179 H 377.331 -1.1419 -7.47326 0
M  V30 4180 H 378.599 0.00291697 -7.795 0
M  V30 4181 N 382.828 1.3818 -0.7579 0
M  V30 4182 C 384.056 2.04301 -0.326937 0
M  V30 4183 C 384.471 1.57163 1.0462 0
M  V30 4184 O 383.828 0.746626 1.66529 0
M  V30 4185 C 383.879 3.59846 -0.345363 0
M  V30 4186 O 383.6 4.05256 -1.66432 0
M  V30 4187 C 385.101 4.4319 0.098927 0
M  V30 4188 H 382.321 0.656443 -0.139012 0
M  V30 4189 H 384.865 1.76786 -1.02796 0
M  V30 4190 H 383.02 3.86182 0.306955 0
M  V30 4191 H 383.434 4.99709 -1.59345 0
M  V30 4192 H 384.908 5.51989 0.0348745 0
M  V30 4193 H 385.385 4.23947 1.14741 0
M  V30 4194 H 385.991 4.22051 -0.52468 0
M  V30 4195 N 384.306 0.507319 1.49211 0
M  V30 4196 C 385.236 -0.256939 2.32082 0
M  V30 4197 C 386.217 -0.956609 1.40652 0
M  V30 4198 O 387.402 -0.946788 1.69557 0
M  V30 4199 C 384.532 -1.31802 3.21318 0
M  V30 4200 C 383.486 -0.737855 4.21592 0
M  V30 4201 C 382.812 -1.89992 4.99807 0
M  V30 4202 C 384.112 0.275325 5.21574 0
M  V30 4203 H 385.806 0.434798 2.96226 0
M  V30 4204 H 383.352 0.210546 1.42452 0
M  V30 4205 H 385.305 -1.86045 3.78107 0
M  V30 4206 H 384.029 -2.03903 2.5513 0
M  V30 4207 H 382.688 -0.217126 3.65956 0
M  V30 4208 H 382.336 -2.60877 4.30061 0
M  V30 4209 H 382.036 -1.51777 5.6766 0
M  V30 4210 H 383.56 -2.44657 5.59442 0
M  V30 4211 H 384.974 -0.179193 5.7302 0
M  V30 4212 H 383.371 0.573649 5.97352 0
M  V30 4213 H 384.441 1.18903 4.70096 0
M  V30 4214 N 385.784 -1.5574 0.241426 0
M  V30 4215 C 387.024 -2.00714 -0.38644 0
M  V30 4216 C 387.388 -1.12586 -1.55526 0
M  V30 4217 O 388.589 -1.46992 -2.25048 0
M  V30 4218 C 386.86 -3.48534 -0.791128 0
M  V30 4219 S 388.419 -4.15519 -1.41029 0
M  V30 4220 H 385.237 -0.700484 -0.121834 0
M  V30 4221 H 387.839 -1.92243 0.355377 0
M  V30 4222 H 386.543 -4.10342 0.0689225 0
M  V30 4223 H 386.074 -3.6092 -1.56526 0
M  V30 4224 H 388.089 -4.16352 -2.69936 0
M  V30 4225 N 387.262 0.0317525 -1.57568 0
M  V30 4226 C 388.511 0.722131 -1.8833 0
M  V30 4227 C 388.824 1.76664 -0.839587 0
M  V30 4228 O 390.03 2.50942 -1.03635 0
M  V30 4229 C 388.486 1.33544 -3.34207 0
M  V30 4230 C 388.094 0.327415 -4.46802 0
M  V30 4231 C 389.838 2.00585 -3.7412 0
M  V30 4232 C 387.745 0.948915 -5.83738 0
M  V30 4233 H 386.675 0.273466 -0.702661 0
M  V30 4234 H 389.326 -0.0235811 -1.83485 0
M  V30 4235 H 387.708 2.13077 -3.33788 0
M  V30 4236 H 388.882 -0.441006 -4.58685 0
M  V30 4237 H 387.197 -0.240758 -4.15703 0
M  V30 4238 H 389.794 2.47932 -4.73744 0
M  V30 4239 H 390.137 2.82285 -3.05975 0
M  V30 4240 H 390.67 1.27831 -3.76702 0
M  V30 4241 H 387.409 0.171387 -6.55276 0
M  V30 4242 H 386.929 1.68724 -5.7558 0
M  V30 4243 H 388.608 1.45705 -6.3038 0
M  V30 4244 N 388.74 1.54641 0.303973 0
M  V30 4245 C 389.989 1.7299 1.03717 0
M  V30 4246 C 390.302 0.521168 1.88529 0
M  V30 4247 O 391.508 0.586408 2.65092 0
M  V30 4248 C 389.964 3.06051 1.89369 0
M  V30 4249 C 389.572 4.34393 1.09574 0
M  V30 4250 C 391.316 3.3376 2.62306 0
M  V30 4251 C 389.223 5.58506 1.94486 0
M  V30 4252 H 388.153 0.64473 0.390947 0
M  V30 4253 H 390.804 1.81124 0.294328 0
M  V30 4254 H 389.186 2.91874 2.67629 0
M  V30 4255 H 390.36 4.59396 0.359485 0
M  V30 4256 H 388.675 4.13597 0.482324 0
M  V30 4257 H 391.272 4.23687 3.26181 0
M  V30 4258 H 391.615 2.52503 3.3098 0
M  V30 4259 H 392.148 3.48894 1.91097 0
M  V30 4260 H 388.887 6.42422 1.30287 0
M  V30 4261 H 388.407 5.37694 2.65792 0
M  V30 4262 H 390.086 5.95651 2.52605 0
M  V30 4263 N 390.218 -0.567019 1.47046 0
M  V30 4264 C 391.151 -1.69016 1.53326 0
M  V30 4265 C 392.129 -1.57949 0.386126 0
M  V30 4266 O 393.313 -1.78945 0.592529 0
M  V30 4267 C 390.44 -3.07191 1.42658 0
M  V30 4268 C 389.486 -3.36733 2.6175 0
M  V30 4269 S 390.319 -3.27069 4.24012 0
M  V30 4270 C 391.475 -4.67755 4.1588 0
M  V30 4271 H 391.708 -1.63434 2.48348 0
M  V30 4272 H 389.241 -0.747048 1.35124 0
M  V30 4273 H 391.199 -3.86897 1.37191 0
M  V30 4274 H 389.86 -3.10249 0.490369 0
M  V30 4275 H 389.053 -4.37441 2.50323 0
M  V30 4276 H 388.655 -2.64627 2.64289 0
M  V30 4277 H 390.947 -5.58491 3.83529 0
M  V30 4278 H 391.89 -4.84239 5.16641 0
M  V30 4279 H 392.298 -4.45341 3.46889 0
M  V30 4280 N 391.696 -1.35014 -0.812953 0
M  V30 4281 C 392.944 -1.27678 -1.56661 0
M  V30 4282 C 393.265 0.150359 -1.94419 0
M  V30 4283 O 392.535 1.08532 -1.63088 0
M  V30 4284 H 391.115 -0.469602 -0.580933 0
M  V30 4285 H 393.777 -1.69043 -0.970076 0
M  V30 4286 H 392.873 -1.88833 -2.48492 0
M  V30 4287 N 393.175 1.03435 -1.18907 0
M  V30 4288 C 394.415 1.78302 -0.999391 0
M  V30 4289 C 394.779 1.86353 0.462219 0
M  V30 4290 O 395.98 2.57489 0.771543 0
M  V30 4291 C 394.251 3.17362 -1.64365 0
M  V30 4292 S 395.81 4.08488 -1.6026 0
M  V30 4293 H 392.628 0.613861 -0.358742 0
M  V30 4294 H 395.23 1.23979 -1.51161 0
M  V30 4295 H 393.934 3.09116 -2.69955 0
M  V30 4296 H 393.465 3.76762 -1.13199 0
M  V30 4297 H 395.48 4.92274 -0.622932 0
M  V30 4298 N 394.653 0.992116 1.22453 0
M  V30 4299 C 395.9 0.667534 1.91181 0
M  V30 4300 C 396.228 -0.800317 1.77271 0
M  V30 4301 O 395.483 -1.59421 1.13505 0
M  V30 4302 C 395.782 1.01832 3.42586 0
M  V30 4303 C 395.448 2.47831 3.76684 0
M  V30 4304 C 394.11 2.87729 3.85701 0
M  V30 4305 C 396.462 3.42466 3.92895 0
M  V30 4306 C 393.79 4.21252 4.08367 0
M  V30 4307 C 396.142 4.75648 4.17064 0
M  V30 4308 C 394.806 5.15288 4.24305 0
M  V30 4309 H 394.076 0.244268 0.699581 0
M  V30 4310 H 396.723 1.24816 1.45235 0
M  V30 4311 H 395.028 0.355769 3.90181 0
M  V30 4312 H 396.725 0.745228 3.94014 0
M  V30 4313 H 393.315 2.15905 3.70247 0
M  V30 4314 H 397.499 3.12814 3.85307 0
M  V30 4315 H 392.755 4.51554 4.122 0
M  V30 4316 H 396.929 5.48924 4.2855 0
M  V30 4317 H 394.556 6.18769 4.41621 0
M  V30 4318 N 396.131 -1.37776 0.765217 0
M  V30 4319 C 397.371 -2.01691 0.331669 0
M  V30 4320 C 397.735 -1.59432 -1.06983 0
M  V30 4321 O 398.936 -2.15761 -1.60314 0
M  V30 4322 C 397.207 -3.54385 0.463261 0
M  V30 4323 S 398.766 -4.38652 0.114011 0
M  V30 4324 H 395.584 -0.699387 0.127979 0
M  V30 4325 H 398.186 -1.68084 0.998396 0
M  V30 4326 H 396.89 -3.82629 1.48401 0
M  V30 4327 H 396.421 -3.92783 -0.220246 0
M  V30 4328 H 398.436 -4.84021 -1.09261 0
M  V30 4329 N 397.609 -0.515225 -1.4894 0
M  V30 4330 C 398.539 0.244628 -2.32215 0
M  V30 4331 C 399.52 0.949136 -1.41157 0
M  V30 4332 O 400.705 0.937783 -1.70057 0
M  V30 4333 C 397.835 1.30096 -3.22013 0
M  V30 4334 C 396.789 0.715486 -4.21977 0
M  V30 4335 C 396.115 1.87339 -5.00808 0
M  V30 4336 C 397.415 -0.302982 -5.2142 0
M  V30 4337 H 399.109 -0.450501 -2.95991 0
M  V30 4338 H 396.655 -0.218098 -1.42339 0
M  V30 4339 H 398.608 1.84037 -3.79089 0
M  V30 4340 H 397.332 2.02547 -2.56207 0
M  V30 4341 H 395.991 0.197715 -3.66066 0
M  V30 4342 H 395.639 2.58592 -4.31438 0
M  V30 4343 H 395.339 1.48764 -5.68457 0
M  V30 4344 H 396.863 2.41686 -5.60732 0
M  V30 4345 H 398.277 0.148802 -5.73107 0
M  V30 4346 H 396.674 -0.60532 -5.97039 0
M  V30 4347 H 397.744 -1.21395 -4.69459 0
M  V30 4348 N 399.087 1.5561 -0.249682 0
M  V30 4349 C 400.327 2.00916 0.37579 0
M  V30 4350 C 400.691 1.13409 1.54927 0
M  V30 4351 O 401.892 1.48183 2.24266 0
M  V30 4352 C 400.163 3.48949 0.772633 0
M  V30 4353 S 401.722 4.16261 1.38824 0
M  V30 4354 H 398.54 0.70112 0.118117 0
M  V30 4355 H 401.142 1.92052 -0.365567 0
M  V30 4356 H 399.846 4.103 -0.090683 0
M  V30 4357 H 399.377 3.61745 1.5461 0
M  V30 4358 H 401.392 4.17778 2.67724 0
M  V30 4359 N 400.565 -0.0233959 1.57583 0
M  V30 4360 C 401.811 -0.708611 1.90657 0
M  V30 4361 C 402.166 -1.7266 0.848895 0
M  V30 4362 O 401.459 -1.91075 -0.141749 0
M  V30 4363 C 401.653 -1.41428 3.28227 0
M  V30 4364 C 401.482 -0.466155 4.47277 0
M  V30 4365 C 400.252 -0.085117 5.05228 0
M  V30 4366 C 402.45 0.257836 5.13653 0
M  V30 4367 N 400.432 0.863672 6.07794 0
M  V30 4368 C 401.803 1.06209 6.10835 0
M  V30 4369 C 403.858 0.324174 4.96844 0
M  V30 4370 C 402.561 1.9266 6.93018 0
M  V30 4371 C 404.587 1.17583 5.79593 0
M  V30 4372 C 403.949 1.96799 6.7635 0
M  V30 4373 H 400.048 -0.233222 0.746412 0
M  V30 4374 H 402.632 0.0314512 1.94675 0
M  V30 4375 H 400.803 -2.12477 3.25128 0
M  V30 4376 H 402.535 -2.05233 3.488 0
M  V30 4377 H 399.29 -0.448516 4.71471 0
M  V30 4378 H 399.714 1.33274 6.63752 0
M  V30 4379 H 404.356 -0.273975 4.21911 0
M  V30 4380 H 402.074 2.53552 7.67292 0
M  V30 4381 H 405.66 1.23076 5.68633 0
M  V30 4382 H 404.54 2.61635 7.39268 0
M  V30 4383 N 402.043 -1.548 -0.295768 0
M  V30 4384 C 403.006 -1.85363 -1.34808 0
M  V30 4385 C 404.006 -0.726817 -1.43436 0
M  V30 4386 O 405.196 -0.995088 -1.42981 0
M  V30 4387 C 402.328 -2.03859 -2.73229 0
M  V30 4388 H 403.521 -2.7941 -1.08949 0
M  V30 4389 H 401.074 -1.46942 -0.532702 0
M  V30 4390 H 401.809 -1.12117 -3.04303 0
M  V30 4391 H 401.594 -2.8588 -2.68356 0
M  V30 4392 H 403.084 -2.28857 -3.49305 0
M  V30 4393 N 403.521 0.559213 -1.47345 0
M  V30 4394 C 404.932 1.14134 -1.47751 0
M  V30 4395 C 405.283 1.94834 -0.231103 0
M  V30 4396 O 404.408 2.05957 0.664137 0
M  V30 4397 C 405.003 2.07653 -2.67705 0
M  V30 4398 C 403.562 2.61141 -2.71076 0
M  V30 4399 C 402.709 1.3748 -2.40821 0
M  V30 4400 H 405.66 0.345917 -1.54884 0
M  V30 4401 H 405.681 2.91497 -2.44561 0
M  V30 4402 H 405.193 1.4889 -3.58404 0
M  V30 4403 H 403.294 3.23707 -1.84511 0
M  V30 4404 H 403.407 3.02272 -3.7171 0
M  V30 4405 H 401.771 1.68086 -1.91362 0
M  V30 4406 H 402.554 0.805135 -3.33725 0
M  V30 4407 N 404.999 1.35443 0.805782 0
M  V30 4408 C 406.246 1.28761 1.56291 0
M  V30 4409 C 406.574 -0.137747 1.94012 0
M  V30 4410 O 405.829 -1.1032 1.61642 0
M  V30 4411 C 406.128 2.14045 2.86216 0
M  V30 4412 C 405.794 3.62826 2.67709 0
M  V30 4413 C 404.456 4.0338 2.6237 0
M  V30 4414 C 406.808 4.57227 2.50186 0
M  V30 4415 C 404.136 5.36501 2.37451 0
M  V30 4416 C 406.488 5.90547 2.26797 0
M  V30 4417 C 405.152 6.30245 2.1988 0
M  V30 4418 H 404.422 0.471171 0.571908 0
M  V30 4419 H 407.069 1.67347 0.930974 0
M  V30 4420 H 405.374 1.68342 3.53791 0
M  V30 4421 H 407.071 2.0621 3.43917 0
M  V30 4422 H 403.661 3.30644 2.72713 0
M  V30 4423 H 407.845 4.2678 2.53323 0
M  V30 4424 H 403.101 5.66259 2.30567 0
M  V30 4425 H 407.275 6.63274 2.12228 0
M  V30 4426 H 404.902 7.33328 2.00333 0
M  V30 4427 N 406.477 -1.02803 1.19454 0
M  V30 4428 C 407.724 -1.76217 0.997693 0
M  V30 4429 C 408.052 -1.887 -0.47144 0
M  V30 4430 O 407.307 -1.4011 -1.3663 0
M  V30 4431 C 407.606 -3.18941 1.6128 0
M  V30 4432 C 407.272 -3.26463 3.11019 0
M  V30 4433 C 405.934 -3.28223 3.51885 0
M  V30 4434 C 408.286 -3.25542 4.07028 0
M  V30 4435 C 405.614 -3.26719 4.8731 0
M  V30 4436 C 407.966 -3.25579 5.42385 0
M  V30 4437 C 406.63 -3.25637 5.82681 0
M  V30 4438 H 405.9 -0.644823 0.365082 0
M  V30 4439 H 408.547 -1.20655 1.4871 0
M  V30 4440 H 406.852 -3.77587 1.04572 0
M  V30 4441 H 408.549 -3.74415 1.43577 0
M  V30 4442 H 405.139 -3.25822 2.78457 0
M  V30 4443 H 409.323 -3.23362 3.76498 0
M  V30 4444 H 404.579 -3.25089 5.1781 0
M  V30 4445 H 408.753 -3.23817 6.16535 0
M  V30 4446 H 406.38 -3.24226 6.87591 0
M  V30 4447 N 407.956 -0.998596 -1.21925 0
M  V30 4448 C 409.202 -0.678667 -1.91107 0
M  V30 4449 C 409.535 0.78791 -1.77498 0
M  V30 4450 O 408.81 1.57043 -1.1475 0
M  V30 4451 C 409.093 -1.09245 -3.43129 0
M  V30 4452 C 408.946 -2.61801 -3.6576 0
M  V30 4453 C 410.265 -0.649984 -4.35274 0
M  V30 4454 H 407.384 -0.248025 -0.694012 0
M  V30 4455 H 410.026 -1.24314 -1.43688 0
M  V30 4456 H 408.176 -0.612171 -3.83647 0
M  V30 4457 H 409.848 -3.17543 -3.34611 0
M  V30 4458 H 408.091 -3.03609 -3.09845 0
M  V30 4459 H 408.762 -2.85804 -4.7225 0
M  V30 4460 H 411.238 -1.0626 -4.02303 0
M  V30 4461 H 410.114 -0.967743 -5.40302 0
M  V30 4462 H 410.375 0.449139 -4.39813 0
M  V30 4463 N 409.434 1.37368 -0.772513 0
M  V30 4464 C 410.662 2.03942 -0.348588 0
M  V30 4465 C 411.077 1.58264 1.02947 0
M  V30 4466 O 410.434 0.764246 1.65727 0
M  V30 4467 C 410.485 3.5946 -0.38351 0
M  V30 4468 O 410.206 4.03468 -1.70721 0
M  V30 4469 C 411.707 4.4327 0.0519152 0
M  V30 4470 H 408.927 0.654931 -0.145966 0
M  V30 4471 H 411.471 1.75686 -1.04665 0
M  V30 4472 H 409.626 3.86486 0.265978 0
M  V30 4473 H 410.04 4.97991 -1.64636 0
M  V30 4474 H 411.514 5.51995 -0.0236733 0
M  V30 4475 H 411.991 4.2514 1.10238 0
M  V30 4476 H 412.597 4.21471 -0.569415 0
M  V30 4477 N 410.912 0.523116 1.48665 0
M  V30 4478 C 411.86 -0.256859 2.31177 0
M  V30 4479 C 412.854 -0.94199 1.40794 0
M  V30 4480 O 414.06 -0.867157 1.57735 0
M  V30 4481 H 410.435 -0.1017 0.745091 0
M  V30 4482 H 412.406 0.458739 2.94853 0
M  V30 4483 C 411.155 -1.29503 3.22683 0
M  V30 4484 H 410.478 -0.777248 3.92172 0
M  V30 4485 H 411.918 -1.81233 3.83315 0
M  V30 4486 C 410.377 -2.32501 2.43813 0
M  V30 4487 O 410.907 -3.3881 2.15803 0
M  V30 4488 N 409.113 -2.05538 2.05432 0
M  V30 4489 H 408.66 -1.19104 2.28412 0
M  V30 4490 H 408.618 -2.74676 1.52973 0
M  V30 4491 N 412.39 -1.55475 0.257931 0
M  V30 4492 C 413.639 -1.98383 -0.364275 0
M  V30 4493 C 413.952 -1.14952 -1.58258 0
M  V30 4494 O 415.158 -1.47924 -2.27664 0
M  V30 4495 C 413.614 -3.53037 -0.699479 0
M  V30 4496 C 413.222 -4.45223 0.498046 0
M  V30 4497 C 414.966 -4.04575 -1.28526 0
M  V30 4498 C 412.873 -5.91238 0.138383 0
M  V30 4499 H 411.803 -0.740911 -0.13988 0
M  V30 4500 H 414.454 -1.79936 0.359883 0
M  V30 4501 H 412.836 -3.6722 -1.48207 0
M  V30 4502 H 414.01 -4.42803 1.27522 0
M  V30 4503 H 412.325 -4.04226 0.999503 0
M  V30 4504 H 414.922 -5.11196 -1.56788 0
M  V30 4505 H 415.265 -3.5258 -2.21344 0
M  V30 4506 H 415.798 -3.93762 -0.565337 0
M  V30 4507 H 412.537 -6.47294 1.03398 0
M  V30 4508 H 412.057 -5.96768 -0.602374 0
M  V30 4509 H 413.736 -6.46413 -0.27553 0
M  V30 4510 N 413.868 0.0150385 -1.57593 0
M  V30 4511 C 415.114 0.704043 -1.90187 0
M  V30 4512 C 415.447 1.74249 -0.857366 0
M  V30 4513 O 414.722 1.94092 0.125843 0
M  V30 4514 C 415.005 1.36087 -3.33395 0
M  V30 4515 C 414.858 0.334981 -4.48551 0
M  V30 4516 C 416.177 2.29112 -3.7576 0
M  V30 4517 H 413.296 0.254475 -0.691673 0
M  V30 4518 H 415.938 -0.0331678 -1.89971 0
M  V30 4519 H 414.088 1.98922 -3.3371 0
M  V30 4520 H 415.76 -0.292534 -4.60372 0
M  V30 4521 H 414.003 -0.344325 -4.32431 0
M  V30 4522 H 414.674 0.833316 -5.45674 0
M  V30 4523 H 417.15 1.76308 -3.76902 0
M  V30 4524 H 416.026 2.72043 -4.76743 0
M  V30 4525 H 416.287 3.16385 -3.08793 0
M  V30 4526 N 415.346 1.54954 0.287554 0
M  V30 4527 C 416.623 1.65569 1.04146 0
M  V30 4528 C 417.003 0.512672 2.0478 0
M  V30 4529 O 416.351 -0.489038 2.23205 0
M  V30 4530 C 416.561 3.04163 1.71131 0
M  V30 4531 C 417.909 3.61429 2.22832 0
M  V30 4532 O 418.933 3.06702 1.81141 0
M  V30 4533 O 417.792 4.57281 2.9926 0
M  V30 4534 H 414.886 0.671881 0.482188 0
M  V30 4535 H 417.432 1.67297 0.28457 0
M  V30 4536 H 416.204 3.78796 0.981303 0
M  V30 4537 H 415.827 3.06271 2.53543 0
M  V30 4538 N 416.824 -0.551391 1.4764 0
M  V30 4539 C 418.235 -1.13349 1.48354 0
M  V30 4540 C 418.586 -1.94709 0.241432 0
M  V30 4541 O 417.711 -2.06306 -0.653205 0
M  V30 4542 C 418.306 -2.0623 2.68802 0
M  V30 4543 C 416.865 -2.597 2.72457 0
M  V30 4544 C 416.012 -1.36201 2.41546 0
M  V30 4545 H 418.963 -0.337698 1.55065 0
M  V30 4546 H 418.984 -2.90196 2.46103 0
M  V30 4547 H 418.496 -1.46987 3.59188 0
M  V30 4548 H 416.597 -3.22724 1.86225 0
M  V30 4549 H 416.71 -3.00296 3.73308 0
M  V30 4550 H 415.074 -1.67068 1.9225 0
M  V30 4551 H 415.857 -0.787425 3.34147 0
M  V30 4552 N 418.302 -1.35869 -0.798587 0
M  V30 4553 C 419.549 -1.29588 -1.55606 0
M  V30 4554 C 419.877 0.127456 -1.94082 0
M  V30 4555 O 419.132 1.09461 -1.62225 0
M  V30 4556 C 419.431 -2.1556 -2.85077 0
M  V30 4557 C 419.097 -3.6424 -2.65781 0
M  V30 4558 C 417.759 -4.04766 -2.60227 0
M  V30 4559 C 420.111 -4.58547 -2.47758 0
M  V30 4560 C 417.439 -5.37753 -2.34603 0
M  V30 4561 C 419.791 -5.91742 -2.23662 0
M  V30 4562 C 418.455 -6.31402 -2.16534 0
M  V30 4563 H 417.725 -0.474197 -0.569402 0
M  V30 4564 H 420.372 -1.67839 -0.922086 0
M  V30 4565 H 418.677 -1.70216 -3.52893 0
M  V30 4566 H 420.374 -2.08031 -3.42818 0
M  V30 4567 H 416.964 -3.32086 -2.70956 0
M  V30 4568 H 421.148 -4.28117 -2.51056 0
M  V30 4569 H 416.404 -5.67474 -2.2756 0
M  V30 4570 H 420.578 -6.6439 -2.08708 0
M  V30 4571 H 418.205 -7.34381 -1.96441 0
M  V30 4572 N 419.78 1.02168 -1.19998 0
M  V30 4573 C 421.029 1.75091 -1.0013 0
M  V30 4574 C 421.342 1.89923 0.467835 0
M  V30 4575 O 422.548 2.59888 0.785515 0
M  V30 4576 C 421.004 3.14892 -1.74273 0
M  V30 4577 C 420.612 3.0809 -3.25245 0
M  V30 4578 C 422.356 3.9206 -1.62755 0
M  V30 4579 C 420.263 4.42867 -3.91948 0
M  V30 4580 H 419.193 0.656394 -0.37103 0
M  V30 4581 H 421.844 1.14284 -1.43567 0
M  V30 4582 H 420.226 3.7621 -1.2362 0
M  V30 4583 H 421.4 2.5611 -3.83072 0
M  V30 4584 H 419.715 2.44416 -3.3712 0
M  V30 4585 H 422.312 4.91764 -2.09934 0
M  V30 4586 H 422.655 4.12199 -0.582894 0
M  V30 4587 H 423.188 3.37359 -2.10793 0
M  V30 4588 H 419.927 4.27931 -4.96543 0
M  V30 4589 H 419.447 4.94874 -3.3891 0
M  V30 4590 H 421.126 5.11728 -3.95909 0
M  V30 4591 N 421.258 1.00505 1.21394 0
M  V30 4592 C 422.535 0.603277 1.86064 0
M  V30 4593 C 422.915 -0.919095 1.90042 0
M  V30 4594 O 422.263 -1.80607 1.39977 0
M  V30 4595 C 422.473 1.23772 3.26315 0
M  V30 4596 C 423.821 1.34586 4.02705 0
M  V30 4597 O 424.845 1.19304 3.35626 0
M  V30 4598 O 423.704 1.59169 5.22807 0
M  V30 4599 H 420.798 0.206634 0.800769 0
M  V30 4600 H 423.344 1.1017 1.29076 0
M  V30 4601 H 422.116 2.27848 3.18121 0
M  V30 4602 H 421.739 0.725648 3.90922 0
M  V30 4603 N 422.737 -1.36956 0.779787 0
M  V30 4604 C 423.967 -2.03459 0.358877 0
M  V30 4605 C 424.375 -1.58939 -1.02641 0
M  V30 4606 O 423.718 -0.769777 -1.66794 0
M  V30 4607 C 423.78 -3.5796 0.332393 0
M  V30 4608 C 423.444 -4.25644 1.66362 0
M  V30 4609 C 424.441 -4.49205 2.61746 0
M  V30 4610 C 422.126 -4.63313 1.94027 0
M  V30 4611 C 424.12 -5.09503 3.82996 0
M  V30 4612 C 421.807 -5.2333 3.15546 0
M  V30 4613 C 422.805 -5.46363 4.0985 0
M  V30 4614 O 422.493 -6.05122 5.29228 0
M  V30 4615 H 422.225 -0.659767 0.147254 0
M  V30 4616 H 424.779 -1.76111 1.05708 0
M  V30 4617 H 423.009 -3.84388 -0.422237 0
M  V30 4618 H 424.698 -4.05852 -0.0625389 0
M  V30 4619 H 425.464 -4.20508 2.41657 0
M  V30 4620 H 421.343 -4.44715 1.21448 0
M  V30 4621 H 424.887 -5.27397 4.56617 0
M  V30 4622 H 420.784 -5.51451 3.35517 0
M  V30 4623 H 421.552 -6.23595 5.30161 0
M  V30 4624 N 424.215 -0.530993 -1.48385 0
M  V30 4625 C 425.443 -0.00134122 -2.069 0
M  V30 4626 C 425.858 1.2805 -1.3874 0
M  V30 4627 O 425.215 1.76204 -0.475244 0
M  V30 4628 C 425.266 0.225256 -3.60798 0
M  V30 4629 O 424.987 -1.0058 -4.26398 0
M  V30 4630 C 426.488 0.795172 -4.3611 0
M  V30 4631 H 423.708 -0.0339704 -0.67014 0
M  V30 4632 H 426.252 -0.736926 -1.90761 0
M  V30 4633 H 424.407 0.910891 -3.76539 0
M  V30 4634 H 424.821 -0.787165 -5.1856 0
M  V30 4635 H 426.295 0.903143 -5.44562 0
M  V30 4636 H 426.772 1.80031 -4.00606 0
M  V30 4637 H 427.378 0.146069 -4.25049 0
M  V30 4638 N 425.693 1.55336 -0.266172 0
M  V30 4639 C 426.939 1.99692 0.353681 0
M  V30 4640 C 427.272 1.1543 1.56172 0
M  V30 4641 O 426.547 0.222218 1.93226 0
M  V30 4642 C 426.83 3.52316 0.74466 0
M  V30 4643 C 426.683 4.47337 -0.470101 0
M  V30 4644 C 428.002 4.10588 1.58447 0
M  V30 4645 H 425.121 0.725961 0.12708 0
M  V30 4646 H 427.763 1.86336 -0.371333 0
M  V30 4647 H 425.913 3.63829 1.36239 0
M  V30 4648 H 427.585 4.4778 -1.10864 0
M  V30 4649 H 425.828 4.19364 -1.10978 0
M  V30 4650 H 426.499 5.51788 -0.15291 0
M  V30 4651 H 428.975 4.02297 1.06286 0
M  V30 4652 H 427.851 5.17607 1.82686 0
M  V30 4653 H 428.112 3.60253 2.56262 0
M  V30 4654 N 427.171 -0.0066808 1.57599 0
M  V30 4655 C 428.582 -0.550379 1.78403 0
M  V30 4656 C 428.933 -1.74339 0.900014 0
M  V30 4657 O 428.058 -2.16166 0.100713 0
M  V30 4658 C 428.653 -1.00523 3.23544 0
M  V30 4659 C 427.212 -1.49428 3.45468 0
M  V30 4660 C 426.359 -0.442444 2.73748 0
M  V30 4661 H 429.31 0.219508 1.57175 0
M  V30 4662 H 429.331 -1.87157 3.31289 0
M  V30 4663 H 428.843 -0.136735 3.87859 0
M  V30 4664 H 426.944 -2.3839 2.86358 0
M  V30 4665 H 427.057 -1.52635 4.54136 0
M  V30 4666 H 425.421 -0.902578 2.38171 0
M  V30 4667 H 426.204 0.416973 3.40758 0
M  V30 4668 N 428.649 -1.55105 -0.279332 0
M  V30 4669 C 429.897 -1.75066 -1.00977 0
M  V30 4670 C 430.218 -0.551276 -1.87045 0
M  V30 4671 O 429.488 0.433984 -1.91032 0
M  V30 4672 H 428.068 -0.645578 -0.375816 0
M  V30 4673 H 430.73 -1.92497 -0.305089 0
M  V30 4674 H 429.826 -2.64894 -1.65038 0
M  V30 4675 N 430.127 0.543554 -1.4793 0
M  V30 4676 C 431.059 1.665 -1.57513 0
M  V30 4677 C 432.072 1.56156 -0.460333 0
M  V30 4678 O 433.261 1.62865 -0.730573 0
M  V30 4679 C 430.361 3.05063 -1.47614 0
M  V30 4680 C 429.534 3.41024 -2.739 0
M  V30 4681 C 428.593 4.58809 -2.57645 0
M  V30 4682 O 427.619 4.62707 -3.31498 0
M  V30 4683 N 428.821 5.56149 -1.66368 0
M  V30 4684 H 431.586 1.5872 -2.5422 0
M  V30 4685 H 429.147 0.730517 -1.44482 0
M  V30 4686 H 431.139 3.81712 -1.34455 0
M  V30 4687 H 429.709 3.06994 -0.589359 0
M  V30 4688 H 428.929 2.53687 -3.01723 0
M  V30 4689 H 430.217 3.61831 -3.57709 0
M  V30 4690 H 429.615 5.55767 -1.05543 0
M  V30 4691 H 428.172 6.32071 -1.59154 0
M  V30 4692 N 431.605 1.3629 0.791371 0
M  V30 4693 C 432.851 1.30605 1.55146 0
M  V30 4694 C 433.184 -0.115042 1.93859 0
M  V30 4695 O 432.459 -1.06798 1.62556 0
M  V30 4696 C 432.742 2.22692 2.82985 0
M  V30 4697 C 432.595 3.73489 2.50651 0
M  V30 4698 C 433.914 2.13588 3.84796 0
M  V30 4699 H 431.033 0.475761 0.562868 0
M  V30 4700 H 433.675 1.66825 0.909358 0
M  V30 4701 H 431.825 1.91933 3.37778 0
M  V30 4702 H 433.497 4.14758 2.01924 0
M  V30 4703 H 431.74 3.93021 1.83622 0
M  V30 4704 H 432.411 4.3333 3.41949 0
M  V30 4705 H 434.887 2.40659 3.39445 0
M  V30 4706 H 433.763 2.80195 4.71998 0
M  V30 4707 H 434.024 1.12256 4.27611 0
M  V30 4708 N 433.083 -1.0153 1.20538 0
M  V30 4709 C 434.329 -1.75517 1.02787 0
M  V30 4710 C 434.684 -1.87411 -0.435289 0
M  V30 4711 O 433.977 -1.38982 -1.31889 0
M  V30 4712 C 434.171 -3.17213 1.64654 0
M  V30 4713 C 434 -3.19134 3.16834 0
M  V30 4714 C 432.77 -3.26301 3.85818 0
M  V30 4715 C 434.968 -3.05077 4.14044 0
M  V30 4716 N 432.95 -3.17739 5.25276 0
M  V30 4717 C 434.321 -3.04299 5.40187 0
M  V30 4718 C 436.376 -2.89303 4.05226 0
M  V30 4719 C 435.079 -2.89365 6.58529 0
M  V30 4720 C 437.105 -2.75723 5.23193 0
M  V30 4721 C 436.467 -2.75612 6.48242 0
M  V30 4722 H 432.566 -0.652919 0.430373 0
M  V30 4723 H 435.15 -1.20755 1.52729 0
M  V30 4724 H 433.321 -3.70266 1.17294 0
M  V30 4725 H 435.053 -3.79637 1.40208 0
M  V30 4726 H 431.808 -3.33078 3.36684 0
M  V30 4727 H 432.232 -3.16829 5.98288 0
M  V30 4728 H 436.874 -2.88201 3.09354 0
M  V30 4729 H 434.592 -2.89216 7.54573 0
M  V30 4730 H 438.178 -2.64533 5.18183 0
M  V30 4731 H 437.058 -2.65224 7.37988 0
M  V30 4732 N 434.561 -1.01147 -1.20859 0
M  V30 4733 C 435.789 -0.716911 -1.94082 0
M  V30 4734 C 436.204 0.721568 -1.74467 0
M  V30 4735 O 435.561 1.48889 -1.05539 0
M  V30 4736 C 435.612 -1.03662 -3.46318 0
M  V30 4737 O 435.333 -2.4186 -3.65288 0
M  V30 4738 C 436.834 -0.762386 -4.36695 0
M  V30 4739 H 434.054 -0.26367 -0.617024 0
M  V30 4740 H 436.598 -1.35127 -1.53496 0
M  V30 4741 H 434.753 -0.447757 -3.84804 0
M  V30 4742 H 435.167 -2.53224 -4.59323 0
M  V30 4743 H 436.641 -1.03621 -5.42187 0
M  V30 4744 H 437.118 0.303514 -4.3815 0
M  V30 4745 H 437.724 -1.33316 -4.03865 0
M  V30 4746 N 436.039 1.36541 -0.78704 0
M  V30 4747 C 437.002 2.28413 -0.189778 0
M  V30 4748 C 438.002 1.48719 0.611499 0
M  V30 4749 O 439.192 1.68737 0.432842 0
M  V30 4750 C 436.324 3.32824 0.737638 0
M  V30 4751 H 437.517 2.82743 -0.999831 0
M  V30 4752 H 435.07 1.46065 -0.556298 0
M  V30 4753 H 435.805 2.83646 1.57212 0
M  V30 4754 H 435.59 3.91752 0.165044 0
M  V30 4755 H 437.08 4.0144 1.15047 0
M  V30 4756 N 437.518 0.538854 1.48102 0
M  V30 4757 C 438.765 0.0080018 2.02498 0
M  V30 4758 C 439.093 -1.33437 1.41509 0
M  V30 4759 O 438.348 -1.87709 0.553507 0
M  V30 4760 C 438.647 -0.153808 3.57069 0
M  V30 4761 C 438.313 1.11533 4.36888 0
M  V30 4762 C 436.975 1.46314 4.58417 0
M  V30 4763 C 439.327 1.95718 4.83057 0
M  V30 4764 C 436.655 2.6516 5.23361 0
M  V30 4765 C 439.007 3.13751 5.49312 0
M  V30 4766 C 437.671 3.48866 5.69077 0
M  V30 4767 H 436.941 0.00292807 0.740994 0
M  V30 4768 H 439.588 0.706668 1.77984 0
M  V30 4769 H 437.893 -0.935309 3.80472 0
M  V30 4770 H 439.59 -0.579607 3.96789 0
M  V30 4771 H 436.18 0.834484 4.20398 0
M  V30 4772 H 440.364 1.70158 4.66219 0
M  V30 4773 H 435.62 2.92558 5.36861 0
M  V30 4774 H 439.794 3.79282 5.84053 0
M  V30 4775 H 437.421 4.41054 6.19173 0
M  V30 4776 N 438.996 -1.55193 0.274407 0
M  V30 4777 C 439.926 -2.25471 -0.607032 0
M  V30 4778 C 440.907 -1.24461 -1.15946 0
M  V30 4779 O 442.092 -1.53179 -1.19373 0
M  V30 4780 C 439.222 -2.97526 -1.79153 0
M  V30 4781 C 438.176 -4.05459 -1.37067 0
M  V30 4782 C 437.502 -4.65084 -2.6382 0
M  V30 4783 C 438.802 -5.19691 -0.521389 0
M  V30 4784 H 440.496 -2.99393 -0.0209343 0
M  V30 4785 H 438.042 -1.43997 -0.00862866 0
M  V30 4786 H 439.995 -3.45402 -2.41404 0
M  V30 4787 H 438.719 -2.21138 -2.40344 0
M  V30 4788 H 437.378 -3.58393 -0.771355 0
M  V30 4789 H 437.026 -3.85365 -3.23268 0
M  V30 4790 H 436.726 -5.37961 -2.36372 0
M  V30 4791 H 438.25 -5.15708 -3.26921 0
M  V30 4792 H 439.664 -5.63623 -1.04889 0
M  V30 4793 H 438.061 -5.99126 -0.341825 0
M  V30 4794 H 439.131 -4.82713 0.46 0
M  V30 4795 N 440.474 -0.00167713 -1.576 0
M  V30 4796 C 441.72 0.67819 -1.91761 0
M  V30 4797 C 442.075 1.71288 -0.876256 0
M  V30 4798 O 441.368 1.91276 0.111333 0
M  V30 4799 C 441.562 1.36189 -3.30435 0
M  V30 4800 C 441.391 0.394938 -4.47962 0
M  V30 4801 C 440.161 0.00472875 -5.053 0
M  V30 4802 C 442.359 -0.339521 -5.13178 0
M  V30 4803 N 440.341 -0.960257 -6.06343 0
M  V30 4804 C 441.712 -1.15914 -6.09068 0
M  V30 4805 C 443.767 -0.403177 -4.96265 0
M  V30 4806 C 442.47 -2.03661 -6.89866 0
M  V30 4807 C 444.496 -1.26788 -5.77649 0
M  V30 4808 C 443.858 -2.07535 -6.73134 0
M  V30 4809 H 439.957 0.221317 -0.750028 0
M  V30 4810 H 442.541 -0.0624182 -1.946 0
M  V30 4811 H 440.712 2.07278 -3.28467 0
M  V30 4812 H 442.444 1.99658 -3.52021 0
M  V30 4813 H 439.199 0.373452 -4.72125 0
M  V30 4814 H 439.623 -1.43817 -6.61548 0
M  V30 4815 H 444.265 0.206818 -4.22294 0
M  V30 4816 H 441.983 -2.65727 -7.63161 0
M  V30 4817 H 445.569 -1.32107 -5.66603 0
M  V30 4818 H 444.449 -2.73363 -7.35012 0
M  V30 4819 N 441.952 1.55251 0.271103 0
M  V30 4820 C 442.882 1.9127 1.33933 0
M  V30 4821 C 443.863 0.77478 1.5143 0
M  V30 4822 O 445.048 1.03307 1.64442 0
M  V30 4823 C 442.178 2.18627 2.69851 0
M  V30 4824 C 441.132 3.34442 2.67081 0
M  V30 4825 C 440.458 3.47284 4.06569 0
M  V30 4826 C 441.758 4.70784 2.26185 0
M  V30 4827 H 443.452 2.80744 1.04035 0
M  V30 4828 H 440.998 1.35077 0.499017 0
M  V30 4829 H 442.951 2.42413 3.44694 0
M  V30 4830 H 441.675 1.25955 3.01335 0
M  V30 4831 H 440.334 3.10627 1.94695 0
M  V30 4832 H 439.982 2.52074 4.35279 0
M  V30 4833 H 439.682 4.25152 4.0561 0
M  V30 4834 H 441.206 3.73363 4.83148 0
M  V30 4835 H 442.62 4.94102 2.90751 0
M  V30 4836 H 441.017 5.51582 2.36384 0
M  V30 4837 H 442.087 4.69478 1.21319 0
M  V30 4838 N 443.43 -0.535701 1.48216 0
M  V30 4839 C 444.678 -1.28928 1.55634 0
M  V30 4840 C 444.999 -1.93645 0.229514 0
M  V30 4841 O 444.269 -1.81038 -0.74846 0
M  V30 4842 H 442.849 -0.47884 0.573342 0
M  V30 4843 H 445.511 -0.623853 1.84646 0
M  V30 4844 H 444.607 -2.07157 2.33436 0
M  V30 4845 N 444.908 -1.36708 -0.784132 0
M  V30 4846 C 446.138 -1.34203 -1.57077 0
M  V30 4847 C 446.546 0.0774945 -1.89041 0
M  V30 4848 O 445.889 1.04628 -1.50992 0
M  V30 4849 C 445.951 -2.10351 -2.91535 0
M  V30 4850 C 445.615 -3.59405 -2.82272 0
M  V30 4851 C 446.612 -4.53545 -2.54151 0
M  V30 4852 C 444.297 -4.02362 -3.00683 0
M  V30 4853 C 446.291 -5.8862 -2.44551 0
M  V30 4854 C 443.978 -5.37526 -2.90704 0
M  V30 4855 C 444.976 -6.30468 -2.62677 0
M  V30 4856 O 444.664 -7.63149 -2.52702 0
M  V30 4857 H 444.396 -0.461791 -0.493685 0
M  V30 4858 H 446.95 -1.80475 -0.980712 0
M  V30 4859 H 445.18 -1.5875 -3.52612 0
M  V30 4860 H 446.869 -2.00636 -3.52845 0
M  V30 4861 H 447.635 -4.21669 -2.39625 0
M  V30 4862 H 443.514 -3.30389 -3.21503 0
M  V30 4863 H 447.058 -6.61133 -2.22596 0
M  V30 4864 H 442.955 -5.69008 -3.04795 0
M  V30 4865 H 443.723 -7.73331 -2.68144 0
M  V30 4866 N 446.386 1.0089 -1.21074 0
M  V30 4867 C 447.635 1.74019 -1.01981 0
M  V30 4868 C 447.948 1.90408 0.447665 0
M  V30 4869 O 449.154 2.60707 0.757906 0
M  V30 4870 C 447.61 3.13026 -1.77603 0
M  V30 4871 C 447.218 3.04623 -3.28495 0
M  V30 4872 C 448.962 3.90312 -1.66904 0
M  V30 4873 C 446.869 4.38685 -3.96623 0
M  V30 4874 H 445.799 0.652422 -0.377971 0
M  V30 4875 H 448.45 1.12755 -1.44771 0
M  V30 4876 H 446.832 3.74878 -1.27604 0
M  V30 4877 H 448.006 2.52032 -3.85767 0
M  V30 4878 H 446.321 2.40827 -3.39693 0
M  V30 4879 H 448.918 4.8951 -2.15138 0
M  V30 4880 H 449.261 4.11558 -0.62658 0
M  V30 4881 H 449.794 3.35104 -2.14359 0
M  V30 4882 H 446.533 4.22641 -5.01054 0
M  V30 4883 H 446.053 4.91252 -3.4414 0
M  V30 4884 H 447.732 5.075 -4.01314 0
M  V30 4885 N 447.864 1.01787 1.20321 0
M  V30 4886 C 448.812 0.58254 2.25187 0
M  V30 4887 C 449.806 -0.379359 1.65098 0
M  V30 4888 O 451.012 -0.249142 1.78267 0
M  V30 4889 H 447.387 0.170078 0.732514 0
M  V30 4890 H 449.358 1.47788 2.59232 0
M  V30 4891 C 448.107 -0.0620885 3.47645 0
M  V30 4892 H 447.43 0.669069 3.94162 0
M  V30 4893 H 448.87 -0.329784 4.22716 0
M  V30 4894 C 447.329 -1.3053 3.10586 0
M  V30 4895 O 447.859 -2.39848 3.22236 0
M  V30 4896 N 446.065 -1.18988 2.65123 0
M  V30 4897 H 445.612 -0.300341 2.55843 0
M  V30 4898 H 445.57 -2.02267 2.40698 0
M  V30 4899 N 449.342 -1.36122 0.79427 0
M  V30 4900 C 450.567 -2.03891 0.379871 0
M  V30 4901 C 450.992 -1.59488 -0.997251 0
M  V30 4902 O 450.35 -0.765652 -1.64339 0
M  V30 4903 C 450.398 -3.57687 0.457442 0
M  V30 4904 O 449.502 -4.08931 -0.5338 0
M  V30 4905 H 448.843 -0.6443 0.160541 0
M  V30 4906 H 451.373 -1.73976 1.07673 0
M  V30 4907 H 451.383 -4.06721 0.322792 0
M  V30 4908 H 450.058 -3.89357 1.46199 0
M  V30 4909 H 448.635 -3.71154 -0.360409 0
M  V30 4910 N 450.82 -0.546701 -1.47814 0
M  V30 4911 C 452.068 -0.0187037 -2.02091 0
M  V30 4912 C 452.389 1.33168 -1.42447 0
M  V30 4913 O 451.659 1.86619 -0.595839 0
M  V30 4914 H 450.239 -0.00392531 -0.74699 0
M  V30 4915 H 452.901 -0.714327 -1.81338 0
M  V30 4916 H 451.997 0.0772219 -3.12004 0
M  V30 4917 N 452.299 1.55045 -0.282633 0
M  V30 4918 C 453.229 2.2579 0.595066 0
M  V30 4919 C 454.21 1.25074 1.15284 0
M  V30 4920 O 455.395 1.5381 1.18559 0
M  V30 4921 C 452.525 2.98472 1.77572 0
M  V30 4922 C 451.479 4.0618 1.34914 0
M  V30 4923 C 450.805 4.66477 2.6135 0
M  V30 4924 C 452.105 5.1996 0.493821 0
M  V30 4925 H 453.799 2.994 0.00505653 0
M  V30 4926 H 451.345 1.44 0.000992001 0
M  V30 4927 H 453.298 3.46677 2.39568 0
M  V30 4928 H 452.022 2.2241 2.39168 0
M  V30 4929 H 450.681 3.58797 0.752338 0
M  V30 4930 H 450.329 3.87074 3.2122 0
M  V30 4931 H 450.029 5.39207 2.33516 0
M  V30 4932 H 451.553 5.17435 3.24181 0
M  V30 4933 H 452.967 5.64172 1.01898 0
M  V30 4934 H 451.364 5.99299 0.310047 0
M  V30 4935 H 452.434 4.82462 -0.485593 0
M  V30 4936 N 453.777 0.010035 1.57597 0
M  V30 4937 C 454.725 -0.996272 2.10184 0
M  V30 4938 C 455.719 -1.34942 1.02406 0
M  V30 4939 O 456.925 -1.33389 1.20861 0
M  V30 4940 H 453.3 -0.338982 0.671264 0
M  V30 4941 H 455.271 -0.527272 2.93705 0
M  V30 4942 C 454.02 -2.27599 2.62857 0
M  V30 4943 H 453.343 -2.01295 3.45428 0
M  V30 4944 H 454.783 -2.96265 3.0332 0
M  V30 4945 C 453.242 -2.99269 1.54725 0
M  V30 4946 O 453.772 -3.90644 0.93597 0
M  V30 4947 N 451.978 -2.61269 1.27228 0
M  V30 4948 H 451.525 -1.87043 1.77123 0
M  V30 4949 H 451.483 -3.09534 0.550999 0
M  V30 4950 N 455.255 -1.55392 -0.262866 0
M  V30 4951 C 456.666 -1.67079 -0.833158 0
M  V30 4952 C 457.017 -0.604539 -1.86654 0
M  V30 4953 O 456.142 0.252138 -2.14926 0
M  V30 4954 C 456.737 -3.02891 -1.51797 0
M  V30 4955 C 455.296 -3.16571 -2.03617 0
M  V30 4956 C 454.443 -2.62909 -0.881701 0
M  V30 4957 H 457.394 -1.58652 -0.0389986 0
M  V30 4958 H 457.415 -2.96445 -2.38538 0
M  V30 4959 H 456.927 -3.80473 -0.765619 0
M  V30 4960 H 455.028 -2.43782 -2.81782 0
M  V30 4961 H 455.141 -4.23271 -2.24452 0
M  V30 4962 H 453.505 -2.20324 -1.27786 0
M  V30 4963 H 454.288 -3.43003 -0.14269 0
M  V30 4964 N 456.733 0.527833 -1.48498 0
M  V30 4965 C 457.98 1.28354 -1.56625 0
M  V30 4966 C 458.308 1.93 -0.241096 0
M  V30 4967 O 457.563 1.79967 0.768798 0
M  V30 4968 C 457.862 2.39275 -2.65485 0
M  V30 4969 C 457.528 1.92268 -4.07853 0
M  V30 4970 C 456.19 1.79166 -4.46602 0
M  V30 4971 C 458.542 1.56771 -4.97064 0
M  V30 4972 C 455.87 1.28905 -5.72364 0
M  V30 4973 C 458.222 1.07972 -6.23318 0
M  V30 4974 C 456.886 0.934887 -6.60921 0
M  V30 4975 H 456.156 0.469682 -0.573131 0
M  V30 4976 H 458.803 0.588781 -1.82224 0
M  V30 4977 H 457.108 3.1443 -2.33754 0
M  V30 4978 H 458.805 2.974 -2.68988 0
M  V30 4979 H 455.395 2.03417 -3.77252 0
M  V30 4980 H 459.579 1.65753 -4.67803 0
M  V30 4981 H 454.835 1.16381 -6.00221 0
M  V30 4982 H 459.009 0.795775 -6.91838 0
M  V30 4983 H 456.636 0.543231 -7.58257 0
M  V30 4984 N 458.211 1.37122 0.776871 0
M  V30 4985 C 459.141 1.35164 1.90402 0
M  V30 4986 C 460.122 0.221069 1.68657 0
M  V30 4987 O 461.307 0.420642 1.8959 0
M  V30 4988 C 458.437 1.15274 3.27611 0
M  V30 4989 C 457.391 2.25289 3.63908 0
M  V30 4990 C 456.717 1.90527 4.99603 0
M  V30 4991 C 458.017 3.67446 3.71188 0
M  V30 4992 H 459.711 2.29482 1.92297 0
M  V30 4993 H 457.257 1.10465 0.923773 0
M  V30 4994 H 459.21 1.12536 4.06096 0
M  V30 4995 H 457.934 0.174102 3.26136 0
M  V30 4996 H 456.593 2.27174 2.87728 0
M  V30 4997 H 456.241 0.91206 4.94662 0
M  V30 4998 H 455.941 2.64193 5.24858 0
M  V30 4999 H 457.465 1.89367 5.80493 0
M  V30 5000 H 458.879 3.67719 4.39836 0
M  V30 5001 H 457.276 4.40123 4.07936 0
M  V30 5002 H 458.346 4.01443 2.71977 0
M  V30 5003 N 459.689 -1.00246 1.21608 0
M  V30 5004 C 460.919 -1.77373 1.05935 0
M  V30 5005 C 461.327 -1.85059 -0.393686 0
M  V30 5006 O 460.67 -1.31289 -1.28487 0
M  V30 5007 C 460.732 -3.22705 1.58435 0
M  V30 5008 C 460.396 -3.38591 3.06929 0
M  V30 5009 C 461.393 -3.2667 4.04454 0
M  V30 5010 C 459.078 -3.6395 3.46187 0
M  V30 5011 C 461.072 -3.39877 5.39224 0
M  V30 5012 C 458.759 -3.768 4.81108 0
M  V30 5013 C 459.757 -3.6477 5.77436 0
M  V30 5014 O 459.445 -3.77206 7.09909 0
M  V30 5015 H 459.177 -0.56419 0.372378 0
M  V30 5016 H 461.731 -1.26971 1.61454 0
M  V30 5017 H 459.961 -3.74255 0.973147 0
M  V30 5018 H 461.65 -3.81515 1.38568 0
M  V30 5019 H 462.416 -3.06999 3.75468 0
M  V30 5020 H 458.295 -3.72395 2.71741 0
M  V30 5021 H 461.839 -3.30404 6.14393 0
M  V30 5022 H 457.736 -3.95975 5.09779 0
M  V30 5023 H 458.504 -3.94138 7.17355 0
M  V30 5024 N 461.167 -1.02423 -1.1978 0
M  V30 5025 C 462.13 -0.605703 -2.21052 0
M  V30 5026 C 463.13 0.328209 -1.57415 0
M  V30 5027 O 464.32 0.115853 -1.73814 0
M  V30 5028 C 461.452 0.114366 -3.40708 0
M  V30 5029 H 462.645 -1.5017 -2.59594 0
M  V30 5030 H 460.198 -0.814888 -1.33376 0
M  V30 5031 H 460.933 1.02492 -3.07678 0
M  V30 5032 H 460.718 -0.556641 -3.88129 0
M  V30 5033 H 462.208 0.394272 -4.15735 0
M  V30 5034 N 462.645 1.35699 -0.801477 0
M  V30 5035 C 463.892 1.98913 -0.379459 0
M  V30 5036 C 464.22 1.63592 1.05204 0
M  V30 5037 O 463.475 0.888563 1.74365 0
M  V30 5038 C 463.774 3.53828 -0.504041 0
M  V30 5039 C 463.44 4.09002 -1.8981 0
M  V30 5040 C 462.102 4.23783 -2.27951 0
M  V30 5041 C 464.454 4.38939 -2.81038 0
M  V30 5042 C 461.782 4.65816 -3.56696 0
M  V30 5043 C 464.134 4.82409 -4.09224 0
M  V30 5044 C 462.798 4.95395 -4.4737 0
M  V30 5045 H 462.068 0.727874 -0.138854 0
M  V30 5046 H 464.715 1.61994 -1.02128 0
M  V30 5047 H 463.02 3.91175 0.221242 0
M  V30 5048 H 464.717 4.00687 -0.158361 0
M  V30 5049 H 461.307 3.97946 -1.59176 0
M  V30 5050 H 465.491 4.27077 -2.52821 0
M  V30 5051 H 460.747 4.74059 -3.86106 0
M  V30 5052 H 464.921 5.04535 -4.80018 0
M  V30 5053 H 462.548 5.27724 -5.47185 0
M  V30 5054 N 464.123 0.554532 1.47522 0
M  V30 5055 C 465.053 -0.182974 2.32782 0
M  V30 5056 C 466.034 -0.911377 1.43624 0
M  V30 5057 O 467.219 -0.892366 1.72483 0
M  V30 5058 C 464.349 -1.21513 3.25349 0
M  V30 5059 C 463.303 -0.603355 4.23726 0
M  V30 5060 C 462.629 -1.73995 5.05598 0
M  V30 5061 C 463.929 0.441121 5.20434 0
M  V30 5062 H 465.623 0.52882 2.94693 0
M  V30 5063 H 463.169 0.255759 1.41711 0
M  V30 5064 H 465.122 -1.73922 3.83835 0
M  V30 5065 H 463.846 -1.95683 2.61487 0
M  V30 5066 H 462.505 -0.10059 3.66462 0
M  V30 5067 H 462.153 -2.47063 4.38143 0
M  V30 5068 H 461.853 -1.3364 5.72201 0
M  V30 5069 H 463.377 -2.26735 5.66942 0
M  V30 5070 H 464.791 0.00319931 5.733 0
M  V30 5071 H 463.188 0.763402 5.95224 0
M  V30 5072 H 464.258 1.33799 4.66075 0
M  V30 5073 N 465.601 -1.54893 0.290851 0
M  V30 5074 C 466.549 -2.24579 -0.605576 0
M  V30 5075 C 467.543 -1.24824 -1.14522 0
M  V30 5076 O 468.749 -1.42706 -1.09704 0
M  V30 5077 H 465.124 -0.720946 -0.213872 0
M  V30 5078 H 467.095 -2.984 0.0048173 0
M  V30 5079 C 465.844 -2.99224 -1.77088 0
M  V30 5080 H 465.167 -3.75782 -1.36484 0
M  V30 5081 H 466.607 -3.51281 -2.3744 0
M  V30 5082 C 465.066 -2.05602 -2.66888 0
M  V30 5083 O 465.596 -1.61745 -3.67698 0
M  V30 5084 N 463.802 -1.71771 -2.34399 0
M  V30 5085 H 463.349 -2.07633 -1.52468 0
M  V30 5086 H 463.307 -1.09403 -2.94751 0
M  V30 5087 N 467.08 -0.0183926 -1.57589 0
M  V30 5088 C 468.027 0.967022 -2.09565 0
M  V30 5089 C 468.997 1.32983 -0.995225 0
M  V30 5090 O 470.182 1.42501 -1.26878 0
M  V30 5091 C 467.322 2.24772 -2.61861 0
M  V30 5092 C 466.435 1.94232 -3.85873 0
M  V30 5093 C 465.57 3.16518 -4.26603 0
M  V30 5094 C 464.609 2.81748 -5.43401 0
M  V30 5095 N 463.746 3.96626 -5.79338 0
M  V30 5096 H 468.586 0.516874 -2.93483 0
M  V30 5097 H 466.123 0.243544 -1.4507 0
M  V30 5098 H 468.081 2.99667 -2.90268 0
M  V30 5099 H 466.711 2.67423 -1.8079 0
M  V30 5100 H 465.763 1.09625 -3.64262 0
M  V30 5101 H 467.075 1.64616 -4.70853 0
M  V30 5102 H 466.229 3.99743 -4.56389 0
M  V30 5103 H 464.968 3.49286 -3.40368 0
M  V30 5104 H 463.973 1.96933 -5.1332 0
M  V30 5105 H 465.198 2.50207 -6.31327 0
M  V30 5106 H 463.144 4.29257 -4.96059 0
M  V30 5107 H 463.061 3.70598 -6.58933 0
M  V30 5108 H 464.329 4.80586 -6.13724 0
M  V30 5109 N 468.558 1.5553 0.254621 0
M  V30 5110 C 469.783 1.81383 1.00573 0
M  V30 5111 C 470.208 0.594419 1.78461 0
M  V30 5112 O 469.566 -0.456403 1.75461 0
M  V30 5113 C 469.614 3.04892 1.92545 0
M  V30 5114 O 468.718 2.81266 3.01601 0
M  V30 5115 H 468.059 0.598969 0.286587 0
M  V30 5116 H 470.589 2.02703 0.277952 0
M  V30 5117 H 470.599 3.34119 2.34155 0
M  V30 5118 H 469.274 3.93287 1.3527 0
M  V30 5119 H 467.851 2.63185 2.64174 0
M  V30 5120 N 470.036 -0.519951 1.48776 0
M  V30 5121 C 471.283 -1.27522 1.57303 0
M  V30 5122 C 471.611 -1.92869 0.251328 0
M  V30 5123 O 470.866 -1.80372 -0.759243 0
M  V30 5124 C 471.165 -2.37864 2.6675 0
M  V30 5125 C 470.831 -1.90103 4.08867 0
M  V30 5126 C 469.493 -1.76795 4.47546 0
M  V30 5127 C 471.845 -1.54133 4.97888 0
M  V30 5128 C 469.173 -1.25868 5.73039 0
M  V30 5129 C 471.525 -1.04665 6.23881 0
M  V30 5130 C 470.189 -0.899823 6.61407 0
M  V30 5131 H 469.459 -0.466636 0.575614 0
M  V30 5132 H 472.106 -0.579109 1.82534 0
M  V30 5133 H 470.411 -3.13186 2.35418 0
M  V30 5134 H 472.108 -2.95969 2.70561 0
M  V30 5135 H 468.698 -2.01414 3.78326 0
M  V30 5136 H 472.882 -1.6327 4.68675 0
M  V30 5137 H 468.138 -1.13196 6.0083 0
M  V30 5138 H 472.312 -0.759074 6.92251 0
M  V30 5139 H 469.939 -0.503011 7.58534 0
M  V30 5140 N 471.514 -1.37532 -0.769588 0
M  V30 5141 C 472.93 -1.18379 -1.07045 0
M  V30 5142 C 473.13 -0.0214312 -2.01489 0
M  V30 5143 O 472.186 0.637809 -2.44312 0
M  V30 5144 C 473.499 -2.50338 -1.66588 0
M  V30 5145 C 475.047 -2.56879 -1.78835 0
M  V30 5146 C 475.522 -3.88974 -2.41792 0
M  V30 5147 N 477.013 -3.90428 -2.4924 0
M  V30 5148 C 477.748 -4.89388 -2.98809 0
M  V30 5149 N 477.244 -5.98745 -3.48535 0
M  V30 5150 N 479.037 -4.76791 -2.97703 0
M  V30 5151 H 471.188 -2.11921 -0.142541 0
M  V30 5152 H 473.451 -0.939608 -0.125863 0
M  V30 5153 H 473.157 -3.35767 -1.0466 0
M  V30 5154 H 473.031 -2.67583 -2.65856 0
M  V30 5155 H 475.418 -1.71856 -2.39895 0
M  V30 5156 H 475.499 -2.43516 -0.783166 0
M  V30 5157 H 475.143 -4.74412 -1.81371 0
M  V30 5158 H 475.073 -3.99641 -3.4292 0
M  V30 5159 H 477.564 -3.11433 -2.14052 0
M  V30 5160 H 477.877 -6.70205 -3.84767 0
M  V30 5161 H 476.222 -6.02387 -3.46634 0
M  V30 5162 H 479.413 -3.90478 -2.58157 0
M  V30 5163 H 479.586 -5.54069 -3.36024 0
M  V30 5164 N 472.992 0.995999 -1.22138 0
M  V30 5165 C 474.408 1.25917 -0.980667 0
M  V30 5166 C 474.608 1.98819 0.327604 0
M  V30 5167 O 473.664 2.29587 1.05101 0
M  V30 5168 C 474.977 2.07399 -2.17729 0
M  V30 5169 C 476.525 2.20594 -2.22052 0
M  V30 5170 C 477 3.05462 -3.41258 0
M  V30 5171 N 478.491 3.13049 -3.41401 0
M  V30 5172 C 479.226 3.78997 -4.30289 0
M  V30 5173 N 478.722 4.46899 -5.2939 0
M  V30 5174 N 480.515 3.75728 -4.18073 0
M  V30 5175 H 472.666 0.507158 -2.06256 0
M  V30 5176 H 474.929 0.28658 -0.903646 0
M  V30 5177 H 474.635 1.61191 -3.12586 0
M  V30 5178 H 474.509 3.08154 -2.17534 0
M  V30 5179 H 476.896 2.66017 -1.27745 0
M  V30 5180 H 476.977 1.1928 -2.26287 0
M  V30 5181 H 476.621 2.60739 -4.35864 0
M  V30 5182 H 476.551 4.06911 -3.34262 0
M  V30 5183 H 479.042 2.64721 -2.69688 0
M  V30 5184 H 479.355 4.94952 -5.935 0
M  V30 5185 H 477.7 4.45657 -5.33306 0
M  V30 5186 H 480.891 3.2184 -3.39907 0
M  V30 5187 H 481.064 4.26845 -4.87553 0
M  V30 5188 N 474.47 1.03057 1.19235 0
M  V30 5189 C 475.433 0.617418 2.20727 0
M  V30 5190 C 476.433 -0.319856 1.57587 0
M  V30 5191 O 477.623 -0.106633 1.73873 0
M  V30 5192 C 474.755 -0.096296 3.40764 0
M  V30 5193 H 475.948 1.51544 2.58794 0
M  V30 5194 H 473.501 0.821949 1.32942 0
M  V30 5195 H 474.236 -1.00859 3.08217 0
M  V30 5196 H 474.021 0.577217 3.87828 0
M  V30 5197 H 475.511 -0.372219 4.15938 0
M  V30 5198 N 475.948 -1.35272 0.808662 0
M  V30 5199 C 477.195 -1.98709 0.390003 0
M  V30 5200 C 477.523 -1.64148 -1.04335 0
M  V30 5201 O 476.778 -0.897797 -1.73891 0
M  V30 5202 C 477.077 -3.53556 0.522798 0
M  V30 5203 C 476.743 -4.0799 1.91977 0
M  V30 5204 C 475.405 -4.22568 2.30195 0
M  V30 5205 C 477.757 -4.37442 2.83361 0
M  V30 5206 C 475.085 -4.63918 3.59162 0
M  V30 5207 C 477.437 -4.80232 4.11776 0
M  V30 5208 C 476.101 -4.93016 4.49991 0
M  V30 5209 H 475.371 -0.727127 0.142712 0
M  V30 5210 H 478.018 -1.6145 1.02985 0
M  V30 5211 H 476.323 -3.91287 -0.200494 0
M  V30 5212 H 478.02 -4.00598 0.179608 0
M  V30 5213 H 474.61 -3.97096 1.61284 0
M  V30 5214 H 478.794 -4.25731 2.55083 0
M  V30 5215 H 474.05 -4.72005 3.88615 0
M  V30 5216 H 478.224 -5.01982 4.82687 0
M  V30 5217 H 475.851 -5.24814 5.49976 0
M  V30 5218 N 477.426 -0.562348 -1.47226 0
M  V30 5219 C 478.356 0.170627 -2.32876 0
M  V30 5220 C 479.337 0.903748 -1.44106 0
M  V30 5221 O 480.522 0.883206 -1.72954 0
M  V30 5222 C 477.652 1.19786 -3.25989 0
M  V30 5223 C 476.606 0.580875 -4.2404 0
M  V30 5224 C 475.932 1.71311 -5.06514 0
M  V30 5225 C 477.232 -0.468714 -5.20193 0
M  V30 5226 H 478.926 -0.544441 -2.94408 0
M  V30 5227 H 476.472 -0.263271 -1.41573 0
M  V30 5228 H 478.425 1.71884 -3.84752 0
M  V30 5229 H 477.149 1.94294 -2.62521 0
M  V30 5230 H 475.808 0.0811538 -3.6651 0
M  V30 5231 H 475.456 2.44736 -4.39447 0
M  V30 5232 H 475.156 1.30604 -5.72902 0
M  V30 5233 H 476.68 2.23725 -5.68137 0
M  V30 5234 H 478.094 -0.0336028 -5.7329 0
M  V30 5235 H 476.491 -0.794957 -5.94811 0
M  V30 5236 H 477.561 -1.36269 -4.65359 0
M  V30 5237 N 478.904 1.54736 -0.299062 0
M  V30 5238 C 480.153 1.99279 0.311549 0
M  V30 5239 C 480.466 1.19107 1.55154 0
M  V30 5240 O 481.672 1.53908 2.23662 0
M  V30 5241 C 480.128 3.54768 0.605632 0
M  V30 5242 C 479.736 4.43746 -0.615914 0
M  V30 5243 C 481.48 4.07841 1.17754 0
M  V30 5244 C 479.387 5.90663 -0.29509 0
M  V30 5245 H 478.317 0.744359 0.120187 0
M  V30 5246 H 480.968 1.78919 -0.407464 0
M  V30 5247 H 479.35 3.71021 1.38419 0
M  V30 5248 H 480.524 4.39267 -1.39218 0
M  V30 5249 H 478.839 4.01434 -1.10633 0
M  V30 5250 H 481.436 5.15174 1.43179 0
M  V30 5251 H 481.779 3.58324 2.11918 0
M  V30 5252 H 482.312 3.95123 0.460739 0
M  V30 5253 H 479.051 6.44325 -1.20524 0
M  V30 5254 H 478.571 5.98155 0.44394 0
M  V30 5255 H 480.25 6.46916 0.104048 0
M  V30 5256 N 480.382 0.0267497 1.57577 0
M  V30 5257 C 481.631 -0.651736 1.9088 0
M  V30 5258 C 481.944 -1.73427 0.904576 0
M  V30 5259 O 483.15 -2.46923 1.12877 0
M  V30 5260 C 481.606 -1.21048 3.38933 0
M  V30 5261 C 481.214 -0.161362 4.47709 0
M  V30 5262 C 482.958 -1.86562 3.81307 0
M  V30 5263 C 480.865 -0.731611 5.86857 0
M  V30 5264 H 479.795 -0.247198 0.712326 0
M  V30 5265 H 482.446 0.0916641 1.83271 0
M  V30 5266 H 480.828 -2.00542 3.41466 0
M  V30 5267 H 482.002 0.61094 4.56732 0
M  V30 5268 H 480.317 0.394877 4.14523 0
M  V30 5269 H 482.914 -2.30178 4.8262 0
M  V30 5270 H 483.257 -2.70735 3.16241 0
M  V30 5271 H 483.79 -1.13762 3.81186 0
M  V30 5272 H 480.529 0.0719329 6.55461 0
M  V30 5273 H 480.049 -1.47245 5.81445 0
M  V30 5274 H 481.728 -1.22208 6.35354 0
M  V30 5275 N 481.861 -1.55662 -0.24637 0
M  V30 5276 C 482.791 -1.93377 -1.30873 0
M  V30 5277 C 483.772 -0.798773 -1.50179 0
M  V30 5278 O 484.957 -1.0591 -1.62778 0
M  V30 5279 C 482.087 -2.22893 -2.66338 0
M  V30 5280 C 481.041 -3.38649 -2.61727 0
M  V30 5281 C 480.367 -3.53708 -4.00992 0
M  V30 5282 C 481.667 -4.74323 -2.18666 0
M  V30 5283 H 483.361 -2.82363 -0.995552 0
M  V30 5284 H 480.907 -1.35854 -0.477464 0
M  V30 5285 H 482.86 -2.47866 -3.40794 0
M  V30 5286 H 481.584 -1.30733 -2.99293 0
M  V30 5287 H 480.243 -3.13685 -1.89729 0
M  V30 5288 H 479.891 -2.58967 -4.31214 0
M  V30 5289 H 479.591 -4.31551 -3.98795 0
M  V30 5290 H 481.115 -3.81003 -4.77147 0
M  V30 5291 H 482.529 -4.98665 -2.82854 0
M  V30 5292 H 480.926 -5.55273 -2.27579 0
M  V30 5293 H 481.996 -4.71349 -1.13834 0
M  V30 5294 N 483.339 0.512053 -1.4905 0
M  V30 5295 C 484.579 1.27715 -1.59588 0
M  V30 5296 C 484.943 1.90071 -0.271502 0
M  V30 5297 O 486.144 2.67616 -0.251987 0
M  V30 5298 C 484.415 2.32399 -2.71524 0
M  V30 5299 S 485.974 3.18396 -3.01943 0
M  V30 5300 H 482.792 0.43419 -0.563027 0
M  V30 5301 H 485.394 0.581315 -1.86657 0
M  V30 5302 H 484.098 1.85101 -3.66287 0
M  V30 5303 H 483.629 3.06667 -2.46412 0
M  V30 5304 H 485.644 4.32842 -2.42616 0
M  V30 5305 N 484.817 1.37938 0.762283 0
M  V30 5306 C 486.057 1.35076 1.53407 0
M  V30 5307 C 486.421 -0.061546 1.91901 0
M  V30 5308 O 487.622 -0.214973 2.67939 0
M  V30 5309 C 485.893 2.27206 2.75884 0
M  V30 5310 S 487.452 2.42283 3.65848 0
M  V30 5311 H 484.27 0.479387 0.52508 0
M  V30 5312 H 486.872 1.7378 0.895586 0
M  V30 5313 H 485.576 3.28724 2.457 0
M  V30 5314 H 485.107 1.8962 3.44685 0
M  V30 5315 H 487.122 1.64044 4.68299 0
M  V30 5316 N 486.295 -0.989507 1.22664 0
M  V30 5317 C 487.572 -1.70326 0.961688 0
M  V30 5318 C 487.952 -2.04537 -0.522279 0
M  V30 5319 O 487.3 -1.73136 -1.49118 0
M  V30 5320 C 487.51 -2.95135 1.86269 0
M  V30 5321 C 488.858 -3.67842 2.12078 0
M  V30 5322 O 489.882 -3.0515 1.83745 0
M  V30 5323 O 488.741 -4.80644 2.60083 0
M  V30 5324 H 485.835 -0.743589 0.361946 0
M  V30 5325 H 488.381 -1.04555 1.33665 0
M  V30 5326 H 487.153 -2.66382 2.8663 0
M  V30 5327 H 486.776 -3.68645 1.48952 0
M  V30 5328 N 487.773 -1.03688 -1.18687 0
M  V30 5329 C 489.05 -0.652397 -1.84399 0
M  V30 5330 C 489.43 0.868386 -1.92412 0
M  V30 5331 O 488.778 1.76832 -1.44716 0
M  V30 5332 C 488.988 -1.3238 -3.22919 0
M  V30 5333 C 490.336 -1.45216 -3.98996 0
M  V30 5334 O 491.36 -1.2816 -3.32345 0
M  V30 5335 O 490.219 -1.72975 -5.18403 0
M  V30 5336 H 487.313 -0.227793 -0.795009 0
M  V30 5337 H 489.859 -1.13553 -1.2611 0
M  V30 5338 H 488.631 -2.36202 -3.11968 0
M  V30 5339 H 488.254 -0.829039 -3.88861 0
M  V30 5340 N 489.251 1.34841 -0.815825 0
M  V30 5341 C 490.161 2.33425 -0.234462 0
M  V30 5342 C 491.177 1.62295 0.627413 0
M  V30 5343 O 492.353 1.94109 0.536987 0
M  V30 5344 C 489.418 3.41471 0.599849 0
M  V30 5345 C 488.479 4.28362 -0.283596 0
M  V30 5346 C 487.712 5.31248 0.51099 0
M  V30 5347 O 487.935 5.43056 1.7449 0
M  V30 5348 O 486.869 6.01812 -0.10297 0
M  V30 5349 H 490.695 2.84962 -1.05024 0
M  V30 5350 H 488.28 1.37774 -0.577809 0
M  V30 5351 H 490.162 4.07464 1.07475 0
M  V30 5352 H 488.837 2.9219 1.39308 0
M  V30 5353 H 487.744 3.65318 -0.805836 0
M  V30 5354 H 489.077 4.81066 -1.041 0
M  V30 5355 N 490.729 0.570148 1.46925 0
M  V30 5356 C 492.145 0.23087 1.57921 0
M  V30 5357 C 492.345 -1.26676 1.56702 0
M  V30 5358 O 491.401 -2.04774 1.47729 0
M  V30 5359 C 492.714 0.868973 2.8787 0
M  V30 5360 C 494.262 0.841397 3.01479 0
M  V30 5361 C 494.737 1.45881 4.34146 0
M  V30 5362 N 496.228 1.42258 4.40814 0
M  V30 5363 C 496.963 1.8698 5.42057 0
M  V30 5364 N 496.459 2.39618 6.50042 0
M  V30 5365 N 498.252 1.77972 5.33181 0
M  V30 5366 H 490.403 1.54301 1.45962 0
M  V30 5367 H 492.666 0.644224 0.69547 0
M  V30 5368 H 492.372 1.922 2.94537 0
M  V30 5369 H 492.246 0.369682 3.75384 0
M  V30 5370 H 494.633 -0.202973 2.94401 0
M  V30 5371 H 494.714 1.37858 2.15474 0
M  V30 5372 H 494.358 2.50231 4.4198 0
M  V30 5373 H 494.288 0.896958 5.18905 0
M  V30 5374 H 496.779 1.03768 3.63374 0
M  V30 5375 H 497.092 2.71633 7.23488 0
M  V30 5376 H 495.437 2.43636 6.50897 0
M  V30 5377 H 498.628 1.36617 4.4772 0
M  V30 5378 H 498.801 2.13143 6.11943 0
M  V30 5379 N 492.207 -1.54576 0.307264 0
M  V30 5380 C 493.437 -2.04378 -0.302158 0
M  V30 5381 C 493.845 -1.18381 -1.47589 0
M  V30 5382 O 493.188 -0.20352 -1.82569 0
M  V30 5383 C 493.25 -3.50133 -0.815305 0
M  V30 5384 C 492.914 -4.56401 0.233977 0
M  V30 5385 C 493.911 -5.08884 1.06456 0
M  V30 5386 C 491.596 -5.0088 0.377478 0
M  V30 5387 C 493.59 -6.04394 2.02452 0
M  V30 5388 C 491.277 -5.96208 1.34088 0
M  V30 5389 C 492.275 -6.47849 2.16288 0
M  V30 5390 O 491.963 -7.41308 3.10994 0
M  V30 5391 H 491.695 -0.672502 -0.0686839 0
M  V30 5392 H 494.249 -2.00484 0.446682 0
M  V30 5393 H 492.479 -3.51371 -1.61478 0
M  V30 5394 H 494.168 -3.83098 -1.34129 0
M  V30 5395 H 494.934 -4.75311 0.964596 0
M  V30 5396 H 490.813 -4.60309 -0.252405 0
M  V30 5397 H 494.357 -6.44626 2.66652 0
M  V30 5398 H 490.254 -6.29198 1.44154 0
M  V30 5399 H 491.022 -7.5913 3.06045 0
M  V30 5400 N 493.685 -0.035106 -1.57561 0
M  V30 5401 C 495.101 0.321334 -1.56332 0
M  V30 5402 C 495.301 1.72509 -1.04129 0
M  V30 5403 O 494.357 2.4287 -0.690694 0
M  V30 5404 C 495.67 0.164469 -3.0025 0
M  V30 5405 C 497.218 0.236786 -3.12103 0
M  V30 5406 C 497.693 0.10864 -4.57871 0
M  V30 5407 N 499.184 0.165433 -4.62904 0
M  V30 5408 C 499.919 0.0901506 -5.73329 0
M  V30 5409 N 499.415 -0.0365606 -6.9279 0
M  V30 5410 N 501.208 0.144572 -5.61914 0
M  V30 5411 H 493.359 -0.952976 -1.89821 0
M  V30 5412 H 495.622 -0.368537 -0.873432 0
M  V30 5413 H 495.328 -0.802746 -3.42416 0
M  V30 5414 H 495.202 0.932194 -3.655 0
M  V30 5415 H 497.589 1.19446 -2.69845 0
M  V30 5416 H 497.67 -0.561419 -2.49563 0
M  V30 5417 H 497.314 -0.845644 -5.00811 0
M  V30 5418 H 497.244 0.925786 -5.18398 0
M  V30 5419 H 499.735 0.263269 -3.76982 0
M  V30 5420 H 500.048 -0.0871487 -7.72751 0
M  V30 5421 H 498.393 -0.0714256 -6.94963 0
M  V30 5422 H 501.584 0.242006 -4.67474 0
M  V30 5423 H 501.757 0.0824413 -6.47948 0
M  V30 5424 N 495.163 1.55791 0.238111 0
M  V30 5425 C 496.579 1.48411 0.587045 0
M  V30 5426 C 496.779 0.72702 1.87927 0
M  V30 5427 O 495.835 0.259942 2.51158 0
M  V30 5428 C 497.148 2.92873 0.681623 0
M  V30 5429 C 498.696 3.03295 0.773363 0
M  V30 5430 C 499.171 4.49082 0.899428 0
M  V30 5431 N 500.662 4.53056 0.964075 0
M  V30 5432 C 501.397 5.63117 1.08104 0
M  V30 5433 N 500.893 6.82969 1.16299 0
M  V30 5434 N 502.686 5.50933 1.11488 0
M  V30 5435 H 494.837 2.0345 -0.610076 0
M  V30 5436 H 497.1 0.924034 -0.211813 0
M  V30 5437 H 496.806 3.51142 -0.19802 0
M  V30 5438 H 496.68 3.43851 1.55069 0
M  V30 5439 H 499.067 2.45101 1.64346 0
M  V30 5440 H 499.148 2.55513 -0.121034 0
M  V30 5441 H 498.792 5.07889 0.0338586 0
M  V30 5442 H 498.722 4.94553 1.809 0
M  V30 5443 H 501.213 3.66737 0.91173 0
M  V30 5444 H 501.526 7.62598 1.25155 0
M  V30 5445 H 499.871 6.85712 1.13241 0
M  V30 5446 H 503.062 4.56231 1.0474 0
M  V30 5447 H 503.235 6.36743 1.20259 0
M  V30 5448 N 496.642 -0.504142 1.49319 0
M  V30 5449 C 498.053 -1.08572 1.51885 0
M  V30 5450 C 498.404 -1.93842 0.303255 0
M  V30 5451 O 497.529 -2.0828 -0.58724 0
M  V30 5452 C 498.124 -1.97574 2.75227 0
M  V30 5453 C 496.683 -2.509 2.80581 0
M  V30 5454 C 495.83 -1.28447 2.45757 0
M  V30 5455 H 498.781 -0.288194 1.56061 0
M  V30 5456 H 498.802 -2.82219 2.55211 0
M  V30 5457 H 498.314 -1.35486 3.63683 0
M  V30 5458 H 496.415 -3.16636 1.96398 0
M  V30 5459 H 496.528 -2.88268 3.82673 0
M  V30 5460 H 494.892 -1.60868 1.97468 0
M  V30 5461 H 495.675 -0.68072 3.36483 0
M  V30 5462 N 498.12 -1.38341 -0.754957 0
M  V30 5463 C 499.345 -1.37882 -1.5493 0
M  V30 5464 C 499.77 0.0296385 -1.88077 0
M  V30 5465 O 499.128 1.01133 -1.50472 0
M  V30 5466 C 499.176 -2.23996 -2.82592 0
M  V30 5467 O 498.28 -1.65612 -3.77686 0
M  V30 5468 H 497.621 -0.470384 -0.468652 0
M  V30 5469 H 500.151 -1.82084 -0.933082 0
M  V30 5470 H 500.161 -2.37806 -3.3153 0
M  V30 5471 H 498.836 -3.26365 -2.57796 0
M  V30 5472 H 497.413 -1.60936 -3.36384 0
M  V30 5473 N 499.598 0.982988 -1.23187 0
M  V30 5474 C 500.847 1.71817 -1.05649 0
M  V30 5475 C 501.16 1.91315 0.407176 0
M  V30 5476 O 502.366 2.62256 0.702436 0
M  V30 5477 C 500.822 3.09188 -1.84203 0
M  V30 5478 C 500.43 2.97586 -3.34882 0
M  V30 5479 C 502.174 3.86684 -1.75146 0
M  V30 5480 C 500.081 4.30173 -4.05839 0
M  V30 5481 H 499.011 0.644258 -0.391724 0
M  V30 5482 H 501.662 1.09659 -1.4713 0
M  V30 5483 H 500.044 3.72087 -1.35527 0
M  V30 5484 H 501.218 2.43793 -3.91026 0
M  V30 5485 H 499.533 2.33567 -3.44725 0
M  V30 5486 H 502.13 4.84836 -2.25473 0
M  V30 5487 H 502.473 4.10136 -0.713737 0
M  V30 5488 H 503.006 3.30482 -2.21419 0
M  V30 5489 H 499.745 4.11918 -5.09906 0
M  V30 5490 H 499.265 4.83841 -3.54482 0
M  V30 5491 H 500.944 4.98873 -4.11989 0
M  V30 5492 N 501.076 1.04316 1.18135 0
M  V30 5493 C 502.006 0.657299 2.24058 0
M  V30 5494 C 502.987 -0.340678 1.66654 0
M  V30 5495 O 504.172 -0.220223 1.92947 0
M  V30 5496 C 501.302 0.0220715 3.47293 0
M  V30 5497 C 500.256 0.943857 4.17463 0
M  V30 5498 C 499.582 0.172973 5.3442 0
M  V30 5499 C 500.882 2.26409 4.70677 0
M  V30 5500 H 502.576 1.5428 2.56589 0
M  V30 5501 H 500.122 0.743263 1.23335 0
M  V30 5502 H 502.075 -0.259607 4.206 0
M  V30 5503 H 500.799 -0.898323 3.14003 0
M  V30 5504 H 499.458 1.20996 3.46057 0
M  V30 5505 H 499.106 -0.749907 4.97379 0
M  V30 5506 H 498.806 0.787098 5.82304 0
M  V30 5507 H 500.33 -0.101628 6.10515 0
M  V30 5508 H 501.744 2.04294 5.35665 0
M  V30 5509 H 500.141 2.8314 5.29105 0
M  V30 5510 H 501.211 2.90883 3.87962 0
M  V30 5511 N 502.554 -1.34406 0.822964 0
M  V30 5512 C 503.802 -1.97892 0.410245 0
M  V30 5513 C 504.123 -1.65567 -1.03017 0
M  V30 5514 O 503.393 -0.94642 -1.71522 0
M  V30 5515 H 501.973 -0.732049 0.148707 0
M  V30 5516 H 504.635 -1.64043 1.05242 0
M  V30 5517 H 503.731 -3.07579 0.529284 0
M  V30 5518 N 504.032 -0.577932 -1.46621 0
M  V30 5519 C 504.964 0.195801 -2.28362 0
M  V30 5520 C 505.977 0.859983 -1.38232 0
M  V30 5521 O 507.166 0.730349 -1.62875 0
M  V30 5522 C 504.266 1.29639 -3.13124 0
M  V30 5523 C 503.439 0.725049 -4.31349 0
M  V30 5524 C 502.498 1.71274 -4.97546 0
M  V30 5525 O 501.524 1.25067 -5.5529 0
M  V30 5526 N 502.726 3.04672 -4.94121 0
M  V30 5527 H 505.491 -0.505468 -2.95407 0
M  V30 5528 H 503.052 -0.415381 -1.56481 0
M  V30 5529 H 505.044 1.95631 -3.54275 0
M  V30 5530 H 503.614 1.90059 -2.48186 0
M  V30 5531 H 502.834 -0.112205 -3.9404 0
M  V30 5532 H 504.122 0.323034 -5.07774 0
M  V30 5533 H 503.52 3.4484 -4.48444 0
M  V30 5534 H 502.077 3.66166 -5.39227 0
M  V30 5535 N 505.51 1.54411 -0.315457 0
M  V30 5536 C 506.738 2.04833 0.291738 0
M  V30 5537 C 507.153 1.19203 1.46411 0
M  V30 5538 O 506.51 0.220867 1.81159 0
M  V30 5539 C 506.561 3.53969 0.73404 0
M  V30 5540 O 506.282 4.36346 -0.391682 0
M  V30 5541 C 507.783 4.2045 1.40489 0
M  V30 5542 H 505.003 0.668195 0.0612947 0
M  V30 5543 H 507.547 1.99276 -0.45929 0
M  V30 5544 H 505.702 3.5984 1.43506 0
M  V30 5545 H 506.116 5.24481 -0.0447088 0
M  V30 5546 H 507.59 5.26278 1.66539 0
M  V30 5547 H 508.067 3.71067 2.3496 0
M  V30 5548 H 508.673 4.18694 0.746662 0
M  V30 5549 N 506.988 0.0434614 1.5754 0
M  V30 5550 C 508.234 -0.632971 1.92669 0
M  V30 5551 C 508.567 -1.70947 0.921446 0
M  V30 5552 O 507.842 -1.94426 -0.0537202 0
M  V30 5553 C 508.125 -1.23619 3.38216 0
M  V30 5554 C 507.978 -0.168274 4.49485 0
M  V30 5555 C 509.297 -2.15008 3.84005 0
M  V30 5556 H 506.416 -0.228629 0.700641 0
M  V30 5557 H 509.058 0.103651 1.89717 0
M  V30 5558 H 507.208 -1.864 3.40863 0
M  V30 5559 H 508.88 0.463196 4.58969 0
M  V30 5560 H 507.123 0.504581 4.30855 0
M  V30 5561 H 507.794 -0.630218 5.48391 0
M  V30 5562 H 510.27 -1.62198 3.83185 0
M  V30 5563 H 509.146 -2.54161 4.86511 0
M  V30 5564 H 509.407 -3.04707 3.20322 0
M  V30 5565 N 508.466 -1.55915 -0.229846 0
M  V30 5566 C 509.877 -1.68809 -0.797531 0
M  V30 5567 C 510.228 -0.643995 -1.8533 0
M  V30 5568 O 509.353 0.206492 -2.15413 0
M  V30 5569 C 509.948 -3.06043 -1.45338 0
M  V30 5570 C 508.507 -3.20819 -1.96856 0
M  V30 5571 C 507.654 -2.6472 -0.825736 0
M  V30 5572 H 510.605 -1.58699 -0.00533733 0
M  V30 5573 H 510.626 -3.01438 -2.32196 0
M  V30 5574 H 510.138 -3.82012 -0.684743 0
M  V30 5575 H 508.239 -2.49704 -2.76548 0
M  V30 5576 H 508.352 -4.27937 -2.15423 0
M  V30 5577 H 506.716 -2.22985 -1.23084 0
M  V30 5578 H 507.499 -3.43229 -0.0699019 0
M  V30 5579 N 509.944 0.496216 -1.49584 0
M  V30 5580 C 511.184 1.26015 -1.60933 0
M  V30 5581 C 511.548 1.89772 -0.291646 0
M  V30 5582 O 512.749 2.67334 -0.280357 0
M  V30 5583 C 511.02 2.29506 -2.73974 0
M  V30 5584 S 512.579 3.15175 -3.05303 0
M  V30 5585 H 509.397 0.428194 -0.567601 0
M  V30 5586 H 511.999 0.561484 -1.87263 0
M  V30 5587 H 510.703 1.81205 -3.68229 0
M  V30 5588 H 510.234 3.04036 -2.49651 0
M  V30 5589 H 512.249 4.30244 -2.47193 0
M  V30 5590 N 511.423 1.38739 0.74761 0
M  V30 5591 C 512.648 1.38702 1.54197 0
M  V30 5592 C 513.073 -0.019664 1.8809 0
M  V30 5593 O 512.431 -1.00333 1.51006 0
M  V30 5594 C 512.479 2.25492 2.814 0
M  V30 5595 O 511.583 1.67613 3.76802 0
M  V30 5596 H 510.924 0.472863 0.466151 0
M  V30 5597 H 513.454 1.82577 0.923413 0
M  V30 5598 H 513.464 2.39561 3.30264 0
M  V30 5599 H 512.139 3.27727 2.56062 0
M  V30 5600 H 510.716 1.62718 3.35526 0
M  V30 5601 N 512.901 -0.976442 1.23707 0
M  V30 5602 C 514.129 -1.75341 1.09833 0
M  V30 5603 C 514.544 -1.8553 -0.349885 0
M  V30 5604 O 513.901 -1.33732 -1.24185 0
M  V30 5605 C 513.952 -3.17833 1.72233 0
M  V30 5606 O 513.673 -3.08167 3.11391 0
M  V30 5607 C 515.174 -4.11906 1.63853 0
M  V30 5608 H 512.394 -0.550137 0.384175 0
M  V30 5609 H 514.938 -1.2265 1.63638 0
M  V30 5610 H 513.093 -3.67538 1.22452 0
M  V30 5611 H 513.507 -3.97897 3.41729 0
M  V30 5612 H 514.981 -5.09579 2.12211 0
M  V30 5613 H 515.458 -4.35109 0.598092 0
M  V30 5614 H 516.064 -3.68107 2.13019 0
M  V30 5615 N 514.379 -1.04941 -1.1758 0
M  V30 5616 C 515.607 -0.778294 -1.91703 0
M  V30 5617 C 516.022 0.665697 -1.76675 0
M  V30 5618 O 515.379 1.45456 -1.10222 0
M  V30 5619 C 515.43 -1.14628 -3.42845 0
M  V30 5620 O 515.151 -2.53359 -3.57409 0
M  V30 5621 C 516.652 -0.900931 -4.34049 0
M  V30 5622 H 513.872 -0.283167 -0.608323 0
M  V30 5623 H 516.416 -1.39942 -1.49119 0
M  V30 5624 H 514.571 -0.569953 -3.83184 0
M  V30 5625 H 514.985 -2.67709 -4.51035 0
M  V30 5626 H 516.459 -1.20817 -5.38616 0
M  V30 5627 H 516.936 0.163966 -4.38894 0
M  V30 5628 H 517.542 -1.46097 -3.99419 0
M  V30 5629 N 515.857 1.33968 -0.830081 0
M  V30 5630 C 517.085 2.0228 -0.434773 0
M  V30 5631 C 517.5 1.62487 0.961419 0
M  V30 5632 O 516.857 0.833849 1.62337 0
M  V30 5633 C 516.908 3.5751 -0.535625 0
M  V30 5634 O 516.629 3.95864 -1.87679 0
M  V30 5635 C 518.13 4.43091 -0.136137 0
M  V30 5636 H 515.35 0.648151 -0.173613 0
M  V30 5637 H 517.894 1.71089 -1.12022 0
M  V30 5638 H 516.049 3.87266 0.101817 0
M  V30 5639 H 516.463 4.9056 -1.85609 0
M  V30 5640 H 517.937 5.51398 -0.257772 0
M  V30 5641 H 518.414 4.29433 0.921076 0
M  V30 5642 H 519.02 4.18677 -0.747662 0
M  V30 5643 N 517.335 0.585699 1.46312 0
M  V30 5644 C 518.584 0.0701192 2.01578 0
M  V30 5645 C 518.897 -1.29889 1.46247 0
M  V30 5646 O 520.103 -1.90598 1.93351 0
M  V30 5647 C 518.559 0.0747499 3.59822 0
M  V30 5648 C 518.167 1.44226 4.24149 0
M  V30 5649 C 519.911 -0.38673 4.22735 0
M  V30 5650 C 517.818 1.40446 5.74481 0
M  V30 5651 H 516.748 0.0224441 0.753666 0
M  V30 5652 H 519.399 0.737789 1.68015 0
M  V30 5653 H 517.781 -0.659144 3.90476 0
M  V30 5654 H 518.955 2.19612 4.05101 0
M  V30 5655 H 517.27 1.84401 3.73343 0
M  V30 5656 H 519.867 -0.433853 5.32937 0
M  V30 5657 H 520.21 -1.40489 3.91878 0
M  V30 5658 H 520.743 0.293195 3.96718 0
M  V30 5659 H 517.482 2.39952 6.10003 0
M  V30 5660 H 517.002 0.692845 5.95785 0
M  V30 5661 H 518.681 1.11865 6.37256 0
M  V30 5662 N 518.813 -1.54241 0.323641 0
M  V30 5663 C 519.761 -2.25813 -0.557804 0
M  V30 5664 C 520.755 -1.27225 -1.11849 0
M  V30 5665 O 521.961 -1.45001 -1.06652 0
M  V30 5666 H 518.336 -0.72532 -0.198532 0
M  V30 5667 H 520.307 -2.98322 0.0681112 0
M  V30 5668 C 519.056 -3.02913 -1.70701 0
M  V30 5669 H 518.379 -3.78593 -1.28482 0
M  V30 5670 H 519.819 -3.56238 -2.29935 0
M  V30 5671 C 518.278 -2.11217 -2.62467 0
M  V30 5672 O 518.808 -1.69508 -3.64184 0
M  V30 5673 N 517.014 -1.76704 -2.30703 0
M  V30 5674 H 516.561 -2.1082 -1.48029 0
M  V30 5675 H 516.519 -1.15631 -2.92364 0
M  V30 5676 N 520.291 -0.0518155 -1.57515 0
M  V30 5677 C 521.539 0.620595 -1.92336 0
M  V30 5678 C 521.86 1.71345 -0.930907 0
M  V30 5679 O 521.13 1.95885 0.0241341 0
M  V30 5680 H 519.71 0.232226 -0.709986 0
M  V30 5681 H 522.372 -0.104969 -1.94617 0
M  V30 5682 H 521.468 1.05879 -2.93592 0
M  V30 5683 N 521.769 1.56035 0.221574 0
M  V30 5684 C 522.994 1.83476 0.967026 0
M  V30 5685 C 523.419 0.632139 1.7716 0
M  V30 5686 O 522.777 -0.419082 1.7639 0
M  V30 5687 C 522.825 3.08907 1.86034 0
M  V30 5688 O 521.929 2.876 2.95567 0
M  V30 5689 H 521.27 0.604913 0.273817 0
M  V30 5690 H 523.8 2.03247 0.234893 0
M  V30 5691 H 523.81 3.3901 2.27016 0
M  V30 5692 H 522.485 3.96068 1.26898 0
M  V30 5693 H 521.062 2.6873 2.58532 0
M  V30 5694 N 523.247 -0.488276 1.49845 0
M  V30 5695 C 524.475 -1.26527 1.63702 0
M  V30 5696 C 524.89 -1.8618 0.313447 0
M  V30 5697 O 524.247 -1.68432 -0.702624 0
M  V30 5698 C 524.298 -2.3864 2.71538 0
M  V30 5699 O 524.019 -1.81437 3.98763 0
M  V30 5700 C 525.52 -3.29805 2.96215 0
M  V30 5701 H 522.74 -0.383295 0.55075 0
M  V30 5702 H 525.284 -0.584779 1.95961 0
M  V30 5703 H 523.439 -3.02496 2.42023 0
M  V30 5704 H 523.853 -2.55135 4.58265 0
M  V30 5705 H 525.327 -4.04722 3.75372 0
M  V30 5706 H 525.804 -3.87563 2.06619 0
M  V30 5707 H 526.41 -2.71703 3.27196 0
M  V30 5708 N 524.725 -1.39134 -0.740242 0
M  V30 5709 C 525.675 -1.33928 -1.84519 0
M  V30 5710 C 526.659 -0.221097 -1.59374 0
M  V30 5711 O 527.851 -0.458195 -1.70967 0
M  V30 5712 C 524.98 -1.17991 -3.22387 0
M  V30 5713 C 524.066 -2.34488 -3.53378 0
M  V30 5714 N 524.457 -3.59954 -3.5534 0
M  V30 5715 C 522.755 -2.27331 -3.83714 0
M  V30 5716 C 523.456 -4.36962 -3.83978 0
M  V30 5717 N 522.432 -3.66482 -4.01487 0
M  V30 5718 H 526.234 -2.28907 -1.84333 0
M  V30 5719 H 523.748 -1.32555 -0.938237 0
M  V30 5720 H 525.745 -1.12345 -4.01478 0
M  V30 5721 H 524.405 -0.23957 -3.23815 0
M  V30 5722 H 525.416 -3.93448 -3.36778 0
M  V30 5723 H 522.093 -1.41531 -3.92779 0
M  V30 5724 H 523.483 -5.45692 -3.92008 0
M  V30 5725 N 526.204 0.969867 -1.24223 0
M  V30 5726 C 527.45 1.7151 -1.08223 0
M  V30 5727 C 527.783 1.90478 0.37838 0
M  V30 5728 O 527.058 1.4647 1.27971 0
M  V30 5729 C 527.341 3.10714 -1.82013 0
M  V30 5730 C 527.194 2.9925 -3.35811 0
M  V30 5731 C 528.513 4.10332 -1.59108 0
M  V30 5732 H 525.632 0.622499 -0.394543 0
M  V30 5733 H 528.274 1.1284 -1.52863 0
M  V30 5734 H 526.424 3.608 -1.44068 0
M  V30 5735 H 528.096 2.56608 -3.83341 0
M  V30 5736 H 526.339 2.35512 -3.64303 0
M  V30 5737 H 527.01 3.97857 -3.82641 0
M  V30 5738 H 529.486 3.69097 -1.92111 0
M  V30 5739 H 528.362 5.05804 -2.13198 0
M  V30 5740 H 528.623 4.38926 -0.528832 0
M  V30 5741 N 527.682 1.05563 1.17022 0
M  V30 5742 C 528.612 0.681026 2.23348 0
M  V30 5743 C 529.593 -0.322983 1.67005 0
M  V30 5744 O 530.778 -0.199746 1.9317 0
M  V30 5745 C 527.908 0.0589053 3.4725 0
M  V30 5746 C 526.862 0.988082 4.16438 0
M  V30 5747 C 526.188 0.229646 5.34207 0
M  V30 5748 C 527.488 2.31388 4.68249 0
M  V30 5749 H 529.182 1.56993 2.54938 0
M  V30 5750 H 526.728 0.756302 1.2254 0
M  V30 5751 H 528.681 -0.214982 4.20851 0
M  V30 5752 H 527.405 -0.864968 3.14938 0
M  V30 5753 H 526.064 1.24659 3.44754 0
M  V30 5754 H 525.712 -0.697111 4.98146 0
M  V30 5755 H 525.412 0.848815 5.81437 0
M  V30 5756 H 526.936 -0.0368694 6.10589 0
M  V30 5757 H 528.35 2.09964 5.33468 0
M  V30 5758 H 526.747 2.88736 5.26072 0
M  V30 5759 H 527.817 2.94982 3.84855 0
M  V30 5760 N 529.16 -1.33526 0.837174 0
M  V30 5761 C 530.576 -1.50727 0.524743 0
M  V30 5762 C 530.776 -1.77792 -0.948279 0
M  V30 5763 O 529.832 -1.83719 -1.73216 0
M  V30 5764 C 531.145 -2.66299 1.39661 0
M  V30 5765 C 532.693 -2.80183 1.39521 0
M  V30 5766 C 533.168 -3.98815 2.25189 0
M  V30 5767 N 534.659 -4.06047 2.2289 0
M  V30 5768 C 535.394 -4.97032 2.85915 0
M  V30 5769 N 534.89 -5.93143 3.57985 0
M  V30 5770 N 536.683 -4.90015 2.75394 0
M  V30 5771 H 528.834 -1.1422 1.79074 0
M  V30 5772 H 531.097 -0.561399 0.763894 0
M  V30 5773 H 530.803 -2.52974 2.4433 0
M  V30 5774 H 530.677 -3.61663 1.07145 0
M  V30 5775 H 533.064 -2.92942 0.356253 0
M  V30 5776 H 533.145 -1.85586 1.76044 0
M  V30 5777 H 532.789 -3.86817 3.29143 0
M  V30 5778 H 532.719 -4.92654 1.86009 0
M  V30 5779 H 535.21 -3.37262 1.70478 0
M  V30 5780 H 535.523 -6.59227 4.03286 0
M  V30 5781 H 533.868 -5.93223 3.62093 0
M  V30 5782 H 537.059 -4.13894 2.18654 0
M  V30 5783 H 537.232 -5.60724 3.24796 0
M  V30 5784 N 530.638 -0.59345 -1.46 0
M  V30 5785 C 531.915 -0.0157933 -1.95594 0
M  V30 5786 C 532.295 1.44807 -1.53604 0
M  V30 5787 O 531.643 2.14342 -0.791824 0
M  V30 5788 C 531.853 -0.199081 -3.48432 0
M  V30 5789 C 533.201 -0.0724943 -4.24538 0
M  V30 5790 O 534.225 -0.128469 -3.55968 0
M  V30 5791 O 533.084 0.0542426 -5.46473 0
M  V30 5792 H 530.178 0.043749 -0.825842 0
M  V30 5793 H 532.724 -0.662522 -1.56233 0
M  V30 5794 H 531.496 -1.21631 -3.71916 0
M  V30 5795 H 531.119 0.483576 -3.94648 0
M  V30 5796 N 532.116 1.54067 -0.331816 0
M  V30 5797 C 533.079 2.23275 0.517768 0
M  V30 5798 C 534.079 1.22897 1.03697 0
M  V30 5799 O 535.269 1.47419 0.928084 0
M  V30 5800 C 532.401 2.94326 1.72004 0
M  V30 5801 H 533.594 2.99773 -0.0873507 0
M  V30 5802 H 531.147 1.56079 -0.0830042 0
M  V30 5803 H 531.882 2.21986 2.36417 0
M  V30 5804 H 531.667 3.67941 1.35507 0
M  V30 5805 H 533.157 3.47031 2.32291 0
M  V30 5806 N 533.594 0.0601682 1.57485 0
M  V30 5807 C 534.84 -0.612501 1.93329 0
M  V30 5808 C 535.173 -1.6996 0.939526 0
M  V30 5809 O 534.448 -1.94472 -0.0330957 0
M  V30 5810 C 534.731 -1.20025 3.39508 0
M  V30 5811 C 534.584 -0.12059 4.49638 0
M  V30 5812 C 535.903 -2.10923 3.86264 0
M  V30 5813 H 533.022 -0.221185 0.703027 0
M  V30 5814 H 535.664 0.123768 1.89596 0
M  V30 5815 H 533.814 -1.82774 3.42821 0
M  V30 5816 H 535.486 0.51185 4.58452 0
M  V30 5817 H 533.729 0.550251 4.30296 0
M  V30 5818 H 534.4 -0.572019 5.49028 0
M  V30 5819 H 536.876 -1.58124 3.84884 0
M  V30 5820 H 535.752 -2.48987 4.8918 0
M  V30 5821 H 536.013 -3.01292 3.23536 0
M  V30 5822 N 535.072 -1.5615 -0.213296 0
M  V30 5823 C 535.982 -1.96265 -1.28519 0
M  V30 5824 C 536.998 -0.86765 -1.50824 0
M  V30 5825 O 538.174 -1.17191 -1.63793 0
M  V30 5826 C 535.239 -2.27836 -2.61327 0
M  V30 5827 C 534.3 -3.50949 -2.47252 0
M  V30 5828 C 533.533 -3.81004 -3.73727 0
M  V30 5829 O 533.756 -3.12612 -4.77106 0
M  V30 5830 O 532.69 -4.74477 -3.70344 0
M  V30 5831 H 536.516 -2.87631 -0.974795 0
M  V30 5832 H 534.101 -1.43467 -0.416832 0
M  V30 5833 H 535.983 -2.49299 -3.39747 0
M  V30 5834 H 534.658 -1.39643 -2.9203 0
M  V30 5835 H 533.565 -3.34754 -1.67004 0
M  V30 5836 H 534.898 -4.39551 -2.21486 0
M  V30 5837 N 536.55 0.480323 -1.50102 0
M  V30 5838 C 537.79 1.24301 -1.62261 0
M  V30 5839 C 538.154 1.89452 -0.311758 0
M  V30 5840 O 539.355 2.67022 -0.308696 0
M  V30 5841 C 537.626 2.26588 -2.76392 0
M  V30 5842 S 539.185 3.11919 -3.08629 0
M  V30 5843 H 536.003 0.42215 -0.57211 0
M  V30 5844 H 538.605 0.541591 -1.87848 0
M  V30 5845 H 537.309 1.7729 -3.70131 0
M  V30 5846 H 536.84 3.01371 -2.52862 0
M  V30 5847 H 538.855 4.27598 -2.51742 0
M  V30 5848 N 538.028 1.39524 0.732853 0
M  V30 5849 C 539.276 1.36594 1.48951 0
M  V30 5850 C 539.597 -0.0367507 1.94965 0
M  V30 5851 O 538.867 -0.988391 1.69138 0
M  V30 5852 H 537.447 0.502673 0.552566 0
M  V30 5853 H 540.109 1.74411 0.869869 0
M  V30 5854 H 539.205 2.03 2.3706 0
M  V30 5855 N 539.506 -0.963266 1.24736 0
M  V30 5856 C 540.754 -1.70343 1.08755 0
M  V30 5857 C 541.075 -1.91387 -0.373619 0
M  V30 5858 O 540.345 -1.4948 -1.2662 0
M  V30 5859 H 538.925 -0.631224 0.399456 0
M  V30 5860 H 541.587 -1.15859 1.56725 0
M  V30 5861 H 540.683 -2.68616 1.58909 0
M  V30 5862 N 540.985 -1.06182 -1.16461 0
M  V30 5863 C 541.917 -0.629584 -2.20383 0
M  V30 5864 C 542.93 0.311834 -1.59786 0
M  V30 5865 O 544.119 0.103 -1.78203 0
M  V30 5866 C 541.219 0.0973695 -3.3876 0
M  V30 5867 C 540.392 -0.857252 -4.28917 0
M  V30 5868 C 539.451 -0.169749 -5.25926 0
M  V30 5869 O 538.477 -0.807044 -5.6345 0
M  V30 5870 N 539.679 1.08911 -5.70192 0
M  V30 5871 H 542.444 -1.52352 -2.58087 0
M  V30 5872 H 540.005 -0.944993 -1.31459 0
M  V30 5873 H 541.997 0.567676 -4.00699 0
M  V30 5874 H 540.567 0.893093 -2.99571 0
M  V30 5875 H 539.787 -1.50696 -3.64259 0
M  V30 5876 H 541.075 -1.50489 -4.86035 0
M  V30 5877 H 540.473 1.62703 -5.41797 0
M  V30 5878 H 539.03 1.50331 -6.34227 0
M  V30 5879 N 542.463 1.3308 -0.844243 0
M  V30 5880 C 543.709 1.98304 -0.452453 0
M  V30 5881 C 544.064 1.65645 0.978746 0
M  V30 5882 O 543.357 0.928849 1.6758 0
M  V30 5883 C 543.551 3.52045 -0.616354 0
M  V30 5884 C 543.38 3.99643 -2.06193 0
M  V30 5885 C 542.15 4.27224 -2.69829 0
M  V30 5886 C 544.348 4.15471 -3.03131 0
M  V30 5887 N 542.33 4.60998 -4.05406 0
M  V30 5888 C 543.701 4.52665 -4.23668 0
M  V30 5889 C 545.756 3.97776 -2.99465 0
M  V30 5890 C 544.459 4.74011 -5.41023 0
M  V30 5891 C 546.485 4.20301 -4.16055 0
M  V30 5892 C 545.847 4.57801 -5.35348 0
M  V30 5893 H 541.946 0.752122 -0.214096 0
M  V30 5894 H 544.53 1.61096 -1.09344 0
M  V30 5895 H 542.701 3.884 -0.00513205 0
M  V30 5896 H 544.433 4.04228 -0.19548 0
M  V30 5897 H 541.188 4.18911 -2.20931 0
M  V30 5898 H 541.612 4.82087 -4.75312 0
M  V30 5899 H 546.254 3.67893 -2.08362 0
M  V30 5900 H 543.972 5.02753 -6.32665 0
M  V30 5901 H 547.558 4.08122 -4.14641 0
M  V30 5902 H 546.438 4.74884 -6.24063 0
M  V30 5903 N 543.941 0.601185 1.45683 0
M  V30 5904 C 544.851 -0.123395 2.34275 0
M  V30 5905 C 545.867 -0.86702 1.5086 0
M  V30 5906 O 547.043 -0.826049 1.8368 0
M  V30 5907 C 544.108 -1.11237 3.2837 0
M  V30 5908 C 543.169 -0.371405 4.2769 0
M  V30 5909 C 542.402 -1.31327 5.1729 0
M  V30 5910 O 542.625 -2.55078 5.10188 0
M  V30 5911 O 541.559 -0.813811 5.96373 0
M  V30 5912 H 545.385 0.604483 2.97623 0
M  V30 5913 H 542.97 0.361477 1.44961 0
M  V30 5914 H 544.852 -1.68214 3.8637 0
M  V30 5915 H 543.527 -1.82139 2.67595 0
M  V30 5916 H 542.434 0.24067 3.73325 0
M  V30 5917 H 543.767 0.296998 4.91303 0
M  V30 5918 N 545.419 -1.53889 0.339982 0
M  V30 5919 C 546.644 -2.05741 -0.261798 0
M  V30 5920 C 547.069 -1.21354 -1.43718 0
M  V30 5921 O 546.427 -0.22645 -1.7988 0
M  V30 5922 C 546.475 -3.54542 -0.658228 0
M  V30 5923 O 545.579 -3.7302 -1.75869 0
M  V30 5924 H 544.92 -0.662529 -0.0441672 0
M  V30 5925 H 547.45 -1.98568 0.493161 0
M  V30 5926 H 547.46 -3.9711 -0.936368 0
M  V30 5927 H 546.135 -4.15412 0.201358 0
M  V30 5928 H 544.712 -3.42355 -1.47809 0
M  V30 5929 N 546.897 -0.0685191 -1.57451 0
M  V30 5930 C 547.829 0.929372 -2.09512 0
M  V30 5931 C 548.842 1.26354 -1.02657 0
M  V30 5932 O 550.031 1.2213 -1.30179 0
M  V30 5933 C 547.131 2.24612 -2.53777 0
M  V30 5934 C 546.304 2.09128 -3.84167 0
M  V30 5935 C 545.363 3.24079 -4.14559 0
M  V30 5936 O 544.389 2.99215 -4.8421 0
M  V30 5937 N 545.591 4.49077 -3.67845 0
M  V30 5938 H 548.356 0.484901 -2.95751 0
M  V30 5939 H 545.917 0.11729 -1.61475 0
M  V30 5940 H 547.909 3.00412 -2.71172 0
M  V30 5941 H 546.479 2.60569 -1.72692 0
M  V30 5942 H 545.699 1.17815 -3.76182 0
M  V30 5943 H 546.987 1.9603 -4.69521 0
M  V30 5944 H 546.385 4.72165 -3.11571 0
M  V30 5945 H 544.942 5.21915 -3.90446 0
M  V30 5946 N 548.375 1.56261 0.205012 0
M  V30 5947 C 549.615 1.81823 0.933806 0
M  V30 5948 C 549.979 0.644534 1.80858 0
M  V30 5949 O 551.18 0.779819 2.5724 0
M  V30 5950 C 549.451 3.12362 1.7368 0
M  V30 5951 S 551.01 3.59296 2.51897 0
M  V30 5952 H 547.828 0.638209 0.313386 0
M  V30 5953 H 550.43 1.94495 0.198001 0
M  V30 5954 H 549.134 3.95809 1.08459 0
M  V30 5955 H 548.665 3.02542 2.5146 0
M  V30 5956 H 550.68 3.23945 3.75864 0
M  V30 5957 N 549.853 -0.472356 1.50355 0
M  V30 5958 C 550.803 -1.56809 1.65514 0
M  V30 5959 C 551.787 -1.5261 0.509801 0
M  V30 5960 O 552.979 -1.59655 0.764145 0
M  V30 5961 C 550.108 -2.9526 1.75146 0
M  V30 5962 C 549.194 -3.04348 2.95353 0
M  V30 5963 N 549.585 -2.83253 4.19048 0
M  V30 5964 C 547.883 -3.35482 2.93884 0
M  V30 5965 C 548.584 -2.97273 5.00003 0
M  V30 5966 N 547.56 -3.27418 4.33934 0
M  V30 5967 H 551.362 -1.39197 2.58846 0
M  V30 5968 H 548.876 -0.67906 1.47521 0
M  V30 5969 H 550.873 -3.74044 1.8411 0
M  V30 5970 H 549.533 -3.1392 0.829717 0
M  V30 5971 H 550.544 -2.5886 4.48567 0
M  V30 5972 H 547.221 -3.60138 2.11204 0
M  V30 5973 H 548.611 -2.85214 6.08361 0
M  V30 5974 N 551.331 -1.39911 -0.725443 0
M  V30 5975 C 552.742 -1.33599 -1.30415 0
M  V30 5976 C 553.093 -0.00481792 -1.96199 0
M  V30 5977 O 552.218 0.897275 -1.96921 0
M  V30 5978 C 552.813 -2.41965 -2.37146 0
M  V30 5979 C 551.372 -2.39144 -2.90667 0
M  V30 5980 C 550.519 -2.23355 -1.64341 0
M  V30 5981 H 553.47 -1.4986 -0.522267 0
M  V30 5982 H 553.491 -2.09304 -3.17761 0
M  V30 5983 H 553.003 -3.38837 -1.89238 0
M  V30 5984 H 551.104 -1.4594 -3.4283 0
M  V30 5985 H 551.217 -3.34362 -3.43131 0
M  V30 5986 H 549.581 -1.70696 -1.89037 0
M  V30 5987 H 550.364 -3.2221 -1.18471 0
M  V30 5988 N 552.809 0.956637 -1.25245 0
M  V30 5989 C 554.22 1.51569 -1.09012 0
M  V30 5990 C 554.571 1.93322 0.334813 0
M  V30 5991 O 553.696 1.78421 1.22454 0
M  V30 5992 C 554.291 2.75444 -1.97271 0
M  V30 5993 C 552.85 3.27669 -1.8523 0
M  V30 5994 C 551.997 2.00517 -1.91542 0
M  V30 5995 H 554.948 0.773746 -1.3856 0
M  V30 5996 H 554.969 3.4919 -1.51151 0
M  V30 5997 H 554.481 2.45024 -3.00973 0
M  V30 5998 H 552.582 3.62914 -0.844045 0
M  V30 5999 H 552.695 3.9582 -2.69932 0
M  V30 6000 H 551.059 2.15727 -1.35404 0
M  V30 6001 H 551.842 1.72448 -2.96844 0
M  V30 6002 N 554.287 1.06798 1.15896 0
M  V30 6003 C 555.25 0.687328 2.18651 0
M  V30 6004 C 556.25 -0.269559 1.58524 0
M  V30 6005 O 557.44 -0.0512627 1.74125 0
M  V30 6006 C 554.572 0.0121642 3.40898 0
M  V30 6007 H 555.765 1.59701 2.53842 0
M  V30 6008 H 553.318 0.863828 1.3026 0
M  V30 6009 H 554.053 -0.910025 3.1127 0
M  V30 6010 H 553.838 0.700309 3.85795 0
M  V30 6011 H 555.328 -0.239703 4.16911 0
M  V30 6012 N 555.766 -1.3263 0.851289 0
M  V30 6013 C 556.994 -2.01563 0.466899 0
M  V30 6014 C 557.409 -1.63996 -0.935447 0
M  V30 6015 O 556.766 -0.85957 -1.6099 0
M  V30 6016 C 556.817 -3.56613 0.592433 0
M  V30 6017 O 556.538 -3.92828 1.93954 0
M  V30 6018 C 558.039 -4.42818 0.206612 0
M  V30 6019 H 555.259 -0.645307 0.183902 0
M  V30 6020 H 557.803 -1.69285 1.1473 0
M  V30 6021 H 555.958 -3.87379 -0.0401936 0
M  V30 6022 H 556.372 -4.87545 1.9339 0
M  V30 6023 H 557.846 -5.50918 0.345462 0
M  V30 6024 H 558.323 -4.30844 -0.85264 0
M  V30 6025 H 558.929 -4.17434 0.814176 0
M  V30 6026 N 557.244 -0.608902 -1.45362 0
M  V30 6027 C 558.469 -0.10921 -2.07112 0
M  V30 6028 C 558.894 1.19779 -1.45033 0
M  V30 6029 O 558.252 1.72961 -0.543527 0
M  V30 6030 C 558.3 0.0155745 -3.60597 0
M  V30 6031 O 557.404 1.06546 -3.98399 0
M  V30 6032 H 556.745 -0.0746619 -0.659789 0
M  V30 6033 H 559.275 -0.839283 -1.86594 0
M  V30 6034 H 559.285 0.213364 -4.07442 0
M  V30 6035 H 557.96 -0.938765 -4.05167 0
M  V30 6036 H 556.537 0.844024 -3.63223 0
M  V30 6037 N 558.722 1.53707 -0.348139 0
M  V30 6038 C 560.133 1.86213 0.134797 0
M  V30 6039 C 560.484 1.26925 1.49614 0
M  V30 6040 O 559.609 0.584573 2.08355 0
M  V30 6041 C 560.204 3.37866 0.251371 0
M  V30 6042 C 558.763 3.70233 0.678543 0
M  V30 6043 C 557.91 2.76683 -0.184925 0
M  V30 6044 H 560.861 1.48204 -0.567571 0
M  V30 6045 H 560.882 3.64908 1.07806 0
M  V30 6046 H 560.394 3.80988 -0.739581 0
M  V30 6047 H 558.495 3.32659 1.67835 0
M  V30 6048 H 558.608 4.76836 0.465251 0
M  V30 6049 H 556.972 2.52374 0.343465 0
M  V30 6050 H 557.755 3.22635 -1.1731 0
M  V30 6051 N 560.2 0.0768682 1.57412 0
M  V30 6052 C 561.13 -0.886026 2.16037 0
M  V30 6053 C 562.111 -1.30691 1.08876 0
M  V30 6054 O 563.296 -1.37705 1.36934 0
M  V30 6055 C 560.426 -2.1518 2.72608 0
M  V30 6056 C 559.38 -1.87015 3.8498 0
M  V30 6057 C 558.706 -3.20266 4.28175 0
M  V30 6058 C 560.006 -1.17143 5.08994 0
M  V30 6059 H 561.7 -0.397642 2.96748 0
M  V30 6060 H 559.246 -0.189823 1.42743 0
M  V30 6061 H 561.199 -2.82962 3.12266 0
M  V30 6062 H 559.923 -2.66269 1.89125 0
M  V30 6063 H 558.582 -1.21636 3.45833 0
M  V30 6064 H 558.23 -3.69207 3.41607 0
M  V30 6065 H 557.93 -3.0221 5.03927 0
M  V30 6066 H 559.454 -3.89237 4.70454 0
M  V30 6067 H 560.868 -1.75003 5.45937 0
M  V30 6068 H 559.265 -1.09328 5.90057 0
M  V30 6069 H 560.335 -0.151295 4.84664 0
M  V30 6070 N 561.678 -1.56367 -0.196722 0
M  V30 6071 C 562.924 -1.80796 -0.918725 0
M  V30 6072 C 563.257 -0.650645 -1.82976 0
M  V30 6073 O 562.532 0.348889 -1.91345 0
M  V30 6074 C 562.815 -3.15472 -1.73636 0
M  V30 6075 C 562.668 -4.41693 -0.85015 0
M  V30 6076 C 563.987 -3.46824 -2.70927 0
M  V30 6077 H 561.106 -0.657702 -0.332561 0
M  V30 6078 H 563.748 -1.89086 -0.186186 0
M  V30 6079 H 561.898 -3.08536 -2.36088 0
M  V30 6080 H 563.57 -4.60673 -0.240459 0
M  V30 6081 H 561.813 -4.33517 -0.156785 0
M  V30 6082 H 562.484 -5.32419 -1.45719 0
M  V30 6083 H 564.96 -3.54049 -2.18607 0
M  V30 6084 H 563.836 -4.4218 -3.25219 0
M  V30 6085 H 564.097 -2.70236 -3.49893 0
M  V30 6086 N 563.156 0.464375 -1.50603 0
M  V30 6087 C 564.119 1.54393 -1.69397 0
M  V30 6088 C 565.119 1.50566 -0.564504 0
M  V30 6089 O 566.309 1.53066 -0.831645 0
M  V30 6090 C 563.441 2.9401 -1.72543 0
M  V30 6091 H 564.634 1.39044 -2.65719 0
M  V30 6092 H 562.187 0.69122 -1.40185 0
M  V30 6093 H 562.922 3.14795 -0.77938 0
M  V30 6094 H 562.707 2.98195 -2.54602 0
M  V30 6095 H 564.197 3.72375 -1.89015 0
M  V30 6096 N 564.634 1.40294 0.718013 0
M  V30 6097 C 565.597 1.4012 1.81381 0
M  V30 6098 C 566.597 0.295405 1.58063 0
M  V30 6099 O 567.787 0.554187 1.6515 0
M  V30 6100 C 564.919 1.19056 3.19435 0
M  V30 6101 H 566.112 2.37645 1.82933 0
M  V30 6102 H 563.665 1.26107 0.923405 0
M  V30 6103 H 564.4 0.222809 3.23534 0
M  V30 6104 H 564.185 1.99152 3.37758 0
M  V30 6105 H 565.675 1.21716 3.99468 0
M  V30 6106 N 566.112 -0.949982 1.2575 0
M  V30 6107 C 567.044 -2.05088 1.02331 0
M  V30 6108 C 568.057 -1.62795 -0.0133247 0
M  V30 6109 O 569.246 -1.77067 0.225759 0
M  V30 6110 C 566.346 -3.34794 0.525924 0
M  V30 6111 C 565.519 -4.05903 1.62978 0
M  V30 6112 C 564.578 -5.1388 1.13196 0
M  V30 6113 O 563.604 -5.39072 1.82729 0
M  V30 6114 N 564.806 -5.80495 -0.0242926 0
M  V30 6115 H 567.571 -2.25747 1.97125 0
M  V30 6116 H 565.132 -1.11886 1.17018 0
M  V30 6117 H 567.124 -4.04312 0.177263 0
M  V30 6118 H 565.694 -3.10872 -0.328202 0
M  V30 6119 H 564.914 -3.3042 2.1498 0
M  V30 6120 H 566.202 -4.50166 2.37124 0
M  V30 6121 H 565.6 -5.62454 -0.605184 0
M  V30 6122 H 564.157 -6.51043 -0.313947 0
M  V30 6123 N 567.59 -1.07411 -1.15328 0
M  V30 6124 C 569.001 -0.820261 -1.67716 0
M  V30 6125 C 569.352 0.654539 -1.8496 0
M  V30 6126 O 568.477 1.50664 -1.55337 0
M  V30 6127 C 569.072 -1.48242 -3.04647 0
M  V30 6128 C 567.631 -1.27606 -3.5411 0
M  V30 6129 C 566.778 -1.5517 -2.29821 0
M  V30 6130 H 569.729 -1.23608 -0.995332 0
M  V30 6131 H 569.75 -0.903984 -3.69606 0
M  V30 6132 H 569.262 -2.55578 -2.92064 0
M  V30 6133 H 567.363 -0.222948 -3.71932 0
M  V30 6134 H 567.476 -1.99667 -4.35511 0
M  V30 6135 H 565.84 -0.972747 -2.35393 0
M  V30 6136 H 566.623 -2.63689 -2.19824 0
M  V30 6137 N 569.068 1.32177 -0.85831 0
M  V30 6138 C 570.293 2.01847 -0.476718 0
M  V30 6139 C 570.718 1.64065 0.920021 0
M  V30 6140 O 570.076 0.843189 1.60499 0
M  V30 6141 C 570.124 3.55097 -0.627578 0
M  V30 6142 O 569.228 4.11012 0.338086 0
M  V30 6143 H 568.569 0.635907 -0.191099 0
M  V30 6144 H 571.099 1.68641 -1.15851 0
M  V30 6145 H 571.109 4.04718 -0.516476 0
M  V30 6146 H 569.784 3.81938 -1.64609 0
M  V30 6147 H 568.361 3.72451 0.182917 0
M  V30 6148 N 570.547 0.616602 1.45037 0
M  V30 6149 C 571.824 0.0469086 1.95544 0
M  V30 6150 C 572.204 -1.42345 1.55888 0
M  V30 6151 O 571.552 -2.13055 0.825824 0
M  V30 6152 C 571.762 0.254489 3.48071 0
M  V30 6153 C 573.11 0.140025 4.24369 0
M  V30 6154 O 574.134 0.185084 3.55719 0
M  V30 6155 O 572.993 0.0327034 5.4649 0
M  V30 6156 H 570.087 -0.0306051 0.826433 0
M  V30 6157 H 572.633 0.687293 1.55159 0
M  V30 6158 H 571.405 1.27532 3.69934 0
M  V30 6159 H 571.028 -0.42073 3.95368 0
M  V30 6160 N 572.025 -1.5352 0.356285 0
M  V30 6161 C 573.253 -2.05534 -0.237328 0
M  V30 6162 C 573.668 -1.23043 -1.43199 0
M  V30 6163 O 573.025 -0.268821 -1.80509 0
M  V30 6164 C 573.076 -3.55791 -0.639933 0
M  V30 6165 O 572.797 -4.35154 0.507233 0
M  V30 6166 C 574.298 -4.24027 -1.29292 0
M  V30 6167 H 571.518 -0.669585 -0.0435572 0
M  V30 6168 H 574.062 -1.97988 0.511963 0
M  V30 6169 H 572.217 -3.63518 -1.33915 0
M  V30 6170 H 572.631 -5.24178 0.18375 0
M  V30 6171 H 574.105 -5.30509 -1.52527 0
M  V30 6172 H 574.582 -3.77166 -2.25039 0
M  V30 6173 H 575.188 -4.20527 -0.63539 0
M  V30 6174 O 573.542 -0.225101 -1.59924 0
M  V30 6175 H 574.233 0.354711 -1.90425 0
M  V30 END ATOM
M  V30 BEGIN BOND
M  V30 END BOND
M  V30 END CTAB
M  END
$$$$
