drugbank_target|P42262 Glutamate receptor 2 (DB00142; DB00237; DB00241; DB00306; DB00312; DB00418; DB00463; DB00599; DB00794; DB00849; DB00898; DB01174; DB01346; DB01351; DB01352; DB01353; DB01354; DB01355; DB01483; DB01496; DB01664; DB02057; DB02347; DB02818; DB02966; DB02999; DB03240; DB03319; DB03759; DB04000; DB04129; DB04152; DB04599; DB04798; DB04982; DB05047; DB07455; DB07598; DB08303; DB08304; DB08305; DB13146)
 OpenBabel12092119413D

  0  0  0     0  0            999 V3000
M  V30 BEGIN CTAB
M  V30 COUNTS 13897 14044 0 0 0
M  V30 BEGIN ATOM
M  V30 1 H -0.908 1.98254 -0.117106 0
M  V30 2 N 0 1.576 0 0
M  V30 3 C 0.933 2.03868 1.02534 0
M  V30 4 C 1.911 0.928543 1.3348 0
M  V30 5 O 3.095 1.19667 1.45644 0
M  V30 6 C 0.222 2.43627 2.35294 0
M  V30 7 C -0.732 3.65373 2.2001 0
M  V30 8 S 0.101 5.13292 1.52614 0
M  V30 9 C 1.257 5.56322 2.86805 0
M  V30 10 H 1.49 2.90518 0.631377 0
M  V30 11 H -0.977 1.52953 0.210867 0
M  V30 12 H 0.981 2.67203 3.11629 0
M  V30 13 H -0.358 1.57376 2.7183 0
M  V30 14 H -1.165 3.90944 3.18086 0
M  V30 15 H -1.563 3.418 1.51819 0
M  V30 16 H 0.729 5.58782 3.83104 0
M  V30 17 H 1.672 6.56266 2.65933 0
M  V30 18 H 2.08 4.83886 2.90714 0
M  V30 19 N 1.4781 -0.272755 1.55222 0
M  V30 20 C 2.4101 -1.35946 1.8453 0
M  V30 21 C 3.4231 -1.45525 0.729818 0
M  V30 22 O 4.6121 -1.47337 1.00767 0
M  V30 23 C 1.7121 -2.74069 1.99347 0
M  V30 24 C 0.8851 -2.87079 3.30007 0
M  V30 25 C -0.0559 -4.05879 3.34886 0
M  V30 26 O -1.0299 -3.96626 4.08261 0
M  V30 27 N 0.1721 -5.17857 2.62307 0
M  V30 28 H 2.9371 -1.11149 2.78327 0
M  V30 29 H 0.4981 -0.462869 1.55142 0
M  V30 30 H 2.4901 -3.51838 1.99981 0
M  V30 31 H 1.0601 -2.91688 1.12415 0
M  V30 32 H 0.2801 -1.96193 3.41909 0
M  V30 33 H 1.5681 -2.92701 4.16177 0
M  V30 34 H 0.9661 -5.28261 2.02377 0
M  V30 35 H -0.4769 -5.93855 2.68663 0
M  V30 36 N 2.9562 -1.48159 -0.537278 0
M  V30 37 C 3.9032 -1.62138 -1.64256 0
M  V30 38 C 4.8732 -0.463668 -1.59497 0
M  V30 39 O 6.0582 -0.686241 -1.78032 0
M  V30 40 C 3.1982 -1.66028 -3.02537 0
M  V30 41 C 2.3112 -2.92855 -3.17585 0
M  V30 42 C 1.4462 -2.87952 -4.46382 0
M  V30 43 C 0.4852 -4.09516 -4.54932 0
M  V30 44 N -0.3778 -4.02733 -5.75109 0
M  V30 45 H 4.4622 -2.56529 -1.51647 0
M  V30 46 H 1.9992 -1.27224 -0.738414 0
M  V30 47 H 3.9572 -1.66265 -3.82638 0
M  V30 48 H 2.5872 -0.751331 -3.13934 0
M  V30 49 H 1.6392 -3.02395 -2.30784 0
M  V30 50 H 2.9512 -3.82822 -3.19764 0
M  V30 51 H 2.1052 -2.8655 -5.34765 0
M  V30 52 H 0.8442 -1.95702 -4.46712 0
M  V30 53 H -0.1508 -4.11201 -3.64957 0
M  V30 54 H 1.0742 -5.02917 -4.56346 0
M  V30 55 H -0.9798 -3.13299 -5.76351 0
M  V30 56 H -1.0628 -4.86397 -5.78752 0
M  V30 57 H 0.2052 -4.05379 -6.65799 0
M  V30 58 N 4.4343 0.785586 -1.36625 0
M  V30 59 C 5.6833 1.53883 -1.30396 0
M  V30 60 C 5.9963 1.95271 0.113452 0
M  V30 61 O 7.2023 2.69858 0.298142 0
M  V30 62 C 5.6583 2.77808 -2.28802 0
M  V30 63 C 5.2663 2.43574 -3.75999 0
M  V30 64 C 7.0103 3.55783 -2.31558 0
M  V30 65 C 4.9173 3.63919 -4.66173 0
M  V30 66 H 3.8473 0.577678 -0.484566 0
M  V30 67 H 6.4983 0.861705 -1.62009 0
M  V30 68 H 4.8803 3.47339 -1.90188 0
M  V30 69 H 6.0543 1.81916 -4.23371 0
M  V30 70 H 4.3693 1.78803 -3.76056 0
M  V30 71 H 6.9663 4.45205 -2.96137 0
M  V30 72 H 7.3093 3.94644 -1.3252 0
M  V30 73 H 7.8423 2.93235 -2.68809 0
M  V30 74 H 4.5813 3.3015 -5.66287 0
M  V30 75 H 4.1013 4.2473 -4.23515 0
M  V30 76 H 5.7803 4.30901 -4.82632 0
M  V30 77 N 5.9124 1.20967 1.01018 0
M  V30 78 C 6.8454 0.907578 2.09376 0
M  V30 79 C 7.8234 -0.142868 1.61971 0
M  V30 80 O 9.0074 -0.0150391 1.88494 0
M  V30 81 C 6.1344 0.361791 3.36762 0
M  V30 82 C 5.1804 1.39423 4.03068 0
M  V30 83 S 6.0134 2.96159 4.4615 0
M  V30 84 C 7.1694 2.43173 5.7673 0
M  V30 85 H 7.4024 1.82519 2.34678 0
M  V30 86 H 4.9354 1.03884 1.14225 0
M  V30 87 H 6.8934 0.0534523 4.10465 0
M  V30 88 H 5.5544 -0.53443 3.0952 0
M  V30 89 H 4.7474 0.961853 4.94737 0
M  V30 90 H 4.3494 1.65038 3.35617 0
M  V30 91 H 6.6414 1.83335 6.52223 0
M  V30 92 H 7.5844 3.33264 6.24773 0
M  V30 93 H 7.9924 1.85069 5.33301 0
M  V30 94 N 7.3905 -1.2043 1.01659 0
M  V30 95 C 8.3405 -2.21076 0.557623 0
M  V30 96 C 9.3245 -1.56176 -0.387029 0
M  V30 97 O 10.5165 -1.7575 -0.209996 0
M  V30 98 C 7.6455 -3.43146 -0.102707 0
M  V30 99 C 6.7315 -4.15213 0.863652 0
M  V30 100 N 7.1225 -4.63662 2.02117 0
M  V30 101 C 5.4205 -4.40716 0.684472 0
M  V30 102 C 6.1215 -5.18868 2.62966 0
M  V30 103 N 5.0975 -5.0893 1.91027 0
M  V30 104 H 8.8995 -2.56201 1.44008 0
M  V30 105 H 6.4135 -1.36366 0.881931 0
M  V30 106 H 8.4105 -4.14475 -0.449054 0
M  V30 107 H 7.0705 -3.09526 -0.981003 0
M  V30 108 H 8.0815 -4.58877 2.40109 0
M  V30 109 H 4.7585 -4.17245 -0.14577 0
M  V30 110 H 6.1485 -5.6673 3.60924 0
M  V30 111 N 8.8686 -0.792821 -1.36206 0
M  V30 112 C 10.1176 -0.363353 -1.984 0
M  V30 113 C 10.4306 1.07172 -1.63626 0
M  V30 114 O 11.6366 1.60362 -2.19081 0
M  V30 115 C 10.0926 -0.59872 -3.54885 0
M  V30 116 C 9.7006 -2.04543 -3.9858 0
M  V30 117 C 11.4446 -0.233926 -4.23855 0
M  V30 118 C 9.3516 -2.22727 -5.47856 0
M  V30 119 H 8.2816 -0.13212 -0.742334 0
M  V30 120 H 10.9326 -0.974935 -1.55458 0
M  V30 121 H 9.3146 0.0826222 -3.95914 0
M  V30 122 H 10.4886 -2.76345 -3.68741 0
M  V30 123 H 8.8036 -2.36879 -3.42458 0
M  V30 124 H 11.4006 -0.348027 -5.33566 0
M  V30 125 H 11.7436 0.818351 -4.08177 0
M  V30 126 H 12.2766 -0.868639 -3.882 0
M  V30 127 H 9.0156 -3.2635 -5.68486 0
M  V30 128 H 8.5356 -1.55434 -5.7931 0
M  V30 129 H 10.2146 -2.03607 -6.14128 0
M  V30 130 N 10.3467 1.47872 -0.545128 0
M  V30 131 C 11.5717 2.07391 -0.0190611 0
M  V30 132 C 11.9967 1.39688 1.25971 0
M  V30 133 O 11.3547 0.467816 1.7516 0
M  V30 134 C 11.4027 3.60188 0.172335 0
M  V30 135 O 10.5067 3.9339 1.23766 0
M  V30 136 H 9.8477 0.662411 -0.0459059 0
M  V30 137 H 12.3777 1.90066 -0.757365 0
M  V30 138 H 12.3877 4.06129 0.390305 0
M  V30 139 H 11.0627 4.08865 -0.761725 0
M  V30 140 H 9.6397 3.5921 1.00114 0
M  V30 141 N 11.8248 0.280983 1.55075 0
M  V30 142 C 13.0708 -0.33461 2.00021 0
M  V30 143 C 13.4038 -1.55063 1.16915 0
M  V30 144 O 12.6788 -1.93006 0.240646 0
M  V30 145 C 12.9618 -0.711007 3.53011 0
M  V30 146 C 12.8148 0.512766 4.46868 0
M  V30 147 C 14.1338 -1.54522 4.12081 0
M  V30 148 H 11.2528 -0.120147 0.727141 0
M  V30 149 H 13.8948 0.389097 1.85973 0
M  V30 150 H 12.0448 -1.32761 3.65112 0
M  V30 151 H 13.7168 1.15131 4.46702 0
M  V30 152 H 11.9598 1.14975 4.18286 0
M  V30 153 H 12.6308 0.205556 5.51617 0
M  V30 154 H 15.1068 -1.02442 4.03293 0
M  V30 155 H 13.9828 -1.77739 5.19327 0
M  V30 156 H 14.2438 -2.52813 3.62682 0
M  V30 157 N 13.3029 -1.57598 0.00835791 0
M  V30 158 C 14.2329 -2.1198 -0.979113 0
M  V30 159 C 15.2139 -1.03091 -1.35301 0
M  V30 160 O 16.3989 -1.30818 -1.43528 0
M  V30 161 C 13.5289 -2.62995 -2.26828 0
M  V30 162 C 12.4829 -3.76485 -2.03576 0
M  V30 163 C 11.8089 -4.13846 -3.38579 0
M  V30 164 C 13.1089 -5.0342 -1.39161 0
M  V30 165 H 14.8029 -2.94738 -0.526281 0
M  V30 166 H 12.3489 -1.41783 -0.251704 0
M  V30 167 H 14.3019 -2.99669 -2.96271 0
M  V30 168 H 13.0259 -1.7737 -2.7424 0
M  V30 169 H 11.6849 -3.40217 -1.36557 0
M  V30 170 H 11.3329 -3.25232 -3.83709 0
M  V30 171 H 11.0329 -4.90312 -3.23834 0
M  V30 172 H 12.5569 -4.53086 -4.09323 0
M  V30 173 H 13.9709 -5.37812 -1.98573 0
M  V30 174 H 12.3679 -5.84746 -1.34878 0
M  V30 175 H 13.4379 -4.83548 -0.361868 0
M  V30 176 N 14.781 0.264519 -1.55364 0
M  V30 177 C 15.711 1.33121 -1.91836 0
M  V30 178 C 16.692 1.51101 -0.781192 0
M  V30 179 O 17.877 1.64003 -1.04003 0
M  V30 180 C 15.007 2.68921 -2.19769 0
M  V30 181 C 13.961 2.65661 -3.35571 0
M  V30 182 C 13.287 4.05093 -3.49004 0
M  V30 183 C 14.587 2.24187 -4.71739 0
M  V30 184 H 16.281 1.02844 -2.81182 0
M  V30 185 H 13.827 0.493286 -1.35287 0
M  V30 186 H 15.78 3.43663 -2.43872 0
M  V30 187 H 14.504 3.00799 -1.27231 0
M  V30 188 H 13.163 1.93377 -3.1145 0
M  V30 189 H 12.811 4.34206 -2.53917 0
M  V30 190 H 12.511 4.03804 -4.26868 0
M  V30 191 H 14.035 4.81561 -3.75408 0
M  V30 192 H 15.449 2.88654 -4.9533 0
M  V30 193 H 13.846 2.34044 -5.52579 0
M  V30 194 H 14.916 1.19327 -4.69988 0
M  V30 195 N 16.2591 1.48442 0.529413 0
M  V30 196 C 17.4841 1.60406 1.31471 0
M  V30 197 C 17.9091 0.264738 1.86228 0
M  V30 198 O 17.2671 -0.763668 1.64432 0
M  V30 199 C 17.3151 2.65419 2.44101 0
M  V30 200 O 16.4191 2.22618 3.47153 0
M  V30 201 H 15.7601 0.537863 0.389357 0
M  V30 202 H 18.2901 1.94432 0.636965 0
M  V30 203 H 18.3001 2.86709 2.90279 0
M  V30 204 H 16.9751 3.62652 2.03608 0
M  V30 205 H 15.5521 2.11543 3.0709 0
M  V30 206 N 17.7372 -0.778329 1.37039 0
M  V30 207 C 19.1482 -1.35421 1.28523 0
M  V30 208 C 19.4992 -1.96075 -0.0700901 0
M  V30 209 O 18.6242 -1.93352 -0.971801 0
M  V30 210 C 19.2192 -2.46211 2.32735 0
M  V30 211 C 17.7782 -2.99585 2.27873 0
M  V30 212 C 16.9252 -1.72748 2.16918 0
M  V30 213 H 19.8762 -0.5791 1.47757 0
M  V30 214 H 19.8972 -3.2552 1.9702 0
M  V30 215 H 19.4092 -2.02036 3.31365 0
M  V30 216 H 17.5102 -3.48152 1.32745 0
M  V30 217 H 17.6232 -3.55646 3.21018 0
M  V30 218 H 15.9872 -1.95416 1.63354 0
M  V30 219 H 16.7702 -1.30686 3.17452 0
M  V30 220 N 19.2153 -1.21501 -1.00376 0
M  V30 221 C 20.4613 -1.03452 -1.74429 0
M  V30 222 C 20.7943 0.430764 -1.89362 0
M  V30 223 O 20.0693 1.31962 -1.42886 0
M  V30 224 C 20.3523 -1.73375 -3.15615 0
M  V30 225 C 20.2053 -3.27431 -3.08397 0
M  V30 226 C 21.5243 -1.47732 -4.14564 0
M  V30 227 H 18.6433 -0.377226 -0.633143 0
M  V30 228 H 21.2853 -1.49693 -1.17013 0
M  V30 229 H 19.4353 -1.34064 -3.64636 0
M  V30 230 H 21.1073 -3.76119 -2.67081 0
M  V30 231 H 19.3503 -3.5767 -2.45468 0
M  V30 232 H 20.0213 -3.71524 -4.08258 0
M  V30 233 H 22.4973 -1.8186 -3.74254 0
M  V30 234 H 21.3733 -1.99169 -5.11491 0
M  V30 235 H 21.6343 -0.407589 -4.40217 0
M  V30 236 N 20.6934 1.19889 -1.02296 0
M  V30 237 C 21.6234 2.25141 -0.619174 0
M  V30 238 C 22.6044 1.66051 0.368915 0
M  V30 239 O 23.7894 1.92546 0.252941 0
M  V30 240 C 20.9194 3.4728 0.0368783 0
M  V30 241 C 19.8734 4.19005 -0.872865 0
M  V30 242 C 19.1994 5.34637 -0.0822402 0
M  V30 243 C 20.4994 4.74452 -2.18387 0
M  V30 244 H 22.1934 2.59171 -1.49903 0
M  V30 245 H 19.7394 1.24579 -0.722222 0
M  V30 246 H 21.6924 4.20098 0.330958 0
M  V30 247 H 20.4164 3.12433 0.95149 0
M  V30 248 H 19.0754 3.48061 -1.15105 0
M  V30 249 H 18.7234 4.96034 0.83422 0
M  V30 250 H 18.4234 5.83557 -0.688149 0
M  V30 251 H 19.9474 6.10255 0.205238 0
M  V30 252 H 21.3614 5.39055 -1.95172 0
M  V30 253 H 19.7584 5.33834 -2.74119 0
M  V30 254 H 20.8284 3.92844 -2.84257 0
M  V30 255 N 22.1715 0.800033 1.35784 0
M  V30 256 C 23.4175 0.38701 1.99684 0
M  V30 257 C 23.7725 -1.03268 1.62338 0
M  V30 258 O 23.0655 -1.70543 0.87325 0
M  V30 259 C 23.2595 0.500276 3.53881 0
M  V30 260 C 23.0885 1.92942 4.06206 0
M  V30 261 C 21.8585 2.55637 4.35865 0
M  V30 262 C 24.0565 2.89307 4.25213 0
M  V30 263 N 22.0385 3.9003 4.74078 0
M  V30 264 C 23.4095 4.08556 4.66349 0
M  V30 265 C 25.4645 2.86225 4.07406 0
M  V30 266 C 24.1675 5.25146 4.91543 0
M  V30 267 C 26.1935 4.02011 4.33752 0
M  V30 268 C 25.5555 5.20007 4.75155 0
M  V30 269 H 21.6545 0.189252 0.758754 0
M  V30 270 H 24.2385 1.03988 1.64604 0
M  V30 271 H 22.4095 -0.122568 3.88207 0
M  V30 272 H 24.1415 0.0624733 4.04652 0
M  V30 273 H 20.8965 2.07039 4.25948 0
M  V30 274 H 21.3205 4.59205 4.97454 0
M  V30 275 H 25.9625 1.96154 3.74544 0
M  V30 276 H 23.6805 6.15794 5.23281 0
M  V30 277 H 27.2665 4.00999 4.21534 0
M  V30 278 H 26.1465 6.08113 4.95145 0
M  V30 279 N 23.6496 -1.47581 0.552962 0
M  V30 280 C 24.8976 -2.02082 0.0272703 0
M  V30 281 C 25.2186 -1.4301 -1.32563 0
M  V30 282 O 24.4886 -0.603745 -1.86365 0
M  V30 283 H 23.0686 -0.746966 0.00709182 0
M  V30 284 H 25.7306 -1.81033 0.722008 0
M  V30 285 H 24.8266 -3.12034 -0.0639951 0
M  V30 286 N 25.1277 -0.289203 -1.54924 0
M  V30 287 C 26.0577 0.58549 -2.2604 0
M  V30 288 C 27.0387 1.14753 -1.25562 0
M  V30 289 O 28.2237 1.17906 -1.54311 0
M  V30 290 C 25.3537 1.76305 -2.99222 0
M  V30 291 C 24.3077 1.33191 -4.06748 0
M  V30 292 C 23.6337 2.5937 -4.6758 0
M  V30 293 C 24.9337 0.471775 -5.20165 0
M  V30 294 H 26.6277 -0.00763532 -2.99399 0
M  V30 295 H 24.1737 -0.00511229 -1.43999 0
M  V30 296 H 26.1267 2.38097 -3.47689 0
M  V30 297 H 24.8507 2.38223 -2.23422 0
M  V30 298 H 23.5097 0.737121 -3.59113 0
M  V30 299 H 23.1577 3.19576 -3.88433 0
M  V30 300 H 22.8577 2.31228 -5.40192 0
M  V30 301 H 24.3817 3.21985 -5.18804 0
M  V30 302 H 25.7957 0.995056 -5.64599 0
M  V30 303 H 24.1927 0.284639 -5.99425 0
M  V30 304 H 25.2627 -0.506041 -4.82252 0
M  V30 305 N 26.6058 1.57591 -0.0167156 0
M  V30 306 C 27.8548 1.90461 0.663877 0
M  V30 307 C 28.1678 0.893515 1.73999 0
M  V30 308 O 29.3738 1.11302 2.47637 0
M  V30 309 C 27.8298 3.38155 1.23204 0
M  V30 310 C 27.4378 4.47597 0.189866 0
M  V30 311 C 29.1818 3.80111 1.88986 0
M  V30 312 C 27.0888 5.86379 0.768964 0
M  V30 313 H 26.0188 0.710738 0.251729 0
M  V30 314 H 28.6698 1.83326 -0.0799926 0
M  V30 315 H 27.0518 3.40182 2.02712 0
M  V30 316 H 28.2258 4.57112 -0.581846 0
M  V30 317 H 26.5408 4.14766 -0.368475 0
M  V30 318 H 29.1378 4.81145 2.33247 0
M  V30 319 H 29.4808 3.14511 2.72743 0
M  V30 320 H 30.0138 3.80454 1.16187 0
M  V30 321 H 26.7528 6.55493 -0.0301957 0
M  V30 322 H 26.2728 5.80496 1.50945 0
M  V30 323 H 27.9518 6.34563 1.26251 0
M  V30 324 N 28.0839 -0.256276 1.55502 0
M  V30 325 C 29.3309 -0.985619 1.76895 0
M  V30 326 C 29.6589 -1.85671 0.579355 0
M  V30 327 O 28.9139 -1.90744 -0.437651 0
M  V30 328 C 29.2129 -1.88432 3.03691 0
M  V30 329 C 28.8789 -1.16936 4.35473 0
M  V30 330 C 27.5409 -0.97173 4.71286 0
M  V30 331 C 29.8929 -0.661889 5.1698 0
M  V30 332 C 27.2209 -0.254179 5.86149 0
M  V30 333 C 29.5729 0.042149 6.32586 0
M  V30 334 C 28.2369 0.25134 6.67027 0
M  V30 335 H 27.5069 -0.360663 0.647304 0
M  V30 336 H 30.1539 -0.256483 1.89775 0
M  V30 337 H 28.4589 -2.68021 2.85783 0
M  V30 338 H 30.1559 -2.45015 3.1744 0
M  V30 339 H 26.7459 -1.33332 4.07333 0
M  V30 340 H 30.9299 -0.802145 4.89775 0
M  V30 341 H 26.1859 -0.0815408 6.11346 0
M  V30 342 H 30.3599 0.443049 6.94989 0
M  V30 343 H 27.9869 0.809314 7.5588 0
M  V30 344 N 29.562 -1.4872 -0.521534 0
M  V30 345 C 30.81 -1.56857 -1.27437 0
M  V30 346 C 31.131 -0.247982 -1.93417 0
M  V30 347 O 30.401 0.731151 -1.81744 0
M  V30 348 H 28.981 -0.577885 -0.473347 0
M  V30 349 H 31.643 -1.85233 -0.606205 0
M  V30 350 H 30.739 -2.35402 -2.0492 0
M  V30 351 N 31.0401 0.771051 -1.3745 0
M  V30 352 C 32.2861 1.5319 -1.32894 0
M  V30 353 C 32.6191 1.94008 0.0862511 0
M  V30 354 O 31.8941 1.64124 1.04373 0
M  V30 355 C 32.1771 2.79648 -2.26868 0
M  V30 356 C 32.0301 2.45079 -3.77169 0
M  V30 357 C 33.3491 3.81583 -2.19277 0
M  V30 358 H 30.4681 0.555744 -0.484064 0
M  V30 359 H 33.1101 0.884492 -1.68157 0
M  V30 360 H 31.2601 3.34891 -1.96926 0
M  V30 361 H 32.9321 1.95745 -4.1771 0
M  V30 362 H 31.1751 1.77767 -3.95704 0
M  V30 363 H 31.8461 3.35478 -4.38359 0
M  V30 364 H 34.3221 3.35835 -2.45671 0
M  V30 365 H 33.1981 4.67787 -2.87171 0
M  V30 366 H 33.4591 4.25897 -1.18592 0
M  V30 367 N 32.5182 1.22032 0.997298 0
M  V30 368 C 33.7432 1.06921 1.77715 0
M  V30 369 C 34.1682 -0.376226 1.84299 0
M  V30 370 O 33.5262 -1.27165 1.29223 0
M  V30 371 C 33.5742 1.67996 3.19076 0
M  V30 372 O 32.6782 0.930653 4.01762 0
M  V30 373 H 32.0192 0.375814 0.547412 0
M  V30 374 H 34.5492 1.61737 1.25309 0
M  V30 375 H 34.5592 1.72538 3.69723 0
M  V30 376 H 33.2342 2.73182 3.13599 0
M  V30 377 H 31.8112 0.960917 3.60307 0
M  V30 378 N 33.9963 -1.19345 1.0293 0
M  V30 379 C 35.2213 -1.93538 0.745511 0
M  V30 380 C 35.6463 -1.75007 -0.689511 0
M  V30 381 O 35.0043 -1.05265 -1.47611 0
M  V30 382 C 35.0523 -3.43336 1.10239 0
M  V30 383 O 34.1563 -4.11806 0.221289 0
M  V30 384 H 33.4973 -0.604193 0.275404 0
M  V30 385 H 36.0273 -1.5141 1.37609 0
M  V30 386 H 36.0373 -3.94004 1.05947 0
M  V30 387 H 34.7123 -3.56146 2.14786 0
M  V30 388 H 33.2893 -3.715 0.322842 0
M  V30 389 N 35.4744 -0.807222 -1.35358 0
M  V30 390 C 36.4224 -0.20614 -2.31685 0
M  V30 391 C 37.4164 0.644445 -1.56663 0
M  V30 392 O 38.6224 0.537538 -1.71786 0
M  V30 393 H 34.9974 -0.0479006 -0.750473 0
M  V30 394 H 36.9684 -1.03369 -2.79924 0
M  V30 395 C 35.7174 0.630212 -3.41941 0
M  V30 396 H 35.0404 -0.0149558 -3.99797 0
M  V30 397 H 36.4804 1.01716 -4.11619 0
M  V30 398 C 34.9394 1.79601 -2.85035 0
M  V30 399 O 35.4694 2.89351 -2.78637 0
M  V30 400 N 33.6754 1.60774 -2.42074 0
M  V30 401 H 33.2224 0.715009 -2.47478 0
M  V30 402 H 33.1804 2.38933 -2.04349 0
M  V30 403 N 36.9525 1.47285 -0.560781 0
M  V30 404 C 38.1775 2.07359 -0.0410566 0
M  V30 405 C 38.6025 1.41017 1.24483 0
M  V30 406 O 37.9605 0.486368 1.74654 0
M  V30 407 C 38.0085 3.6035 0.134123 0
M  V30 408 O 37.1125 3.94681 1.19587 0
M  V30 409 H 36.4535 0.661887 -0.0529291 0
M  V30 410 H 38.9835 1.89252 -0.777482 0
M  V30 411 H 38.9935 4.0652 0.347207 0
M  V30 412 H 37.6685 4.08034 -0.805047 0
M  V30 413 H 36.2455 3.60251 0.962987 0
M  V30 414 N 38.4306 0.297415 1.54768 0
M  V30 415 C 39.6796 -0.313669 1.99246 0
M  V30 416 C 39.9926 -1.55281 1.18942 0
M  V30 417 O 41.1986 -2.23825 1.5367 0
M  V30 418 C 39.6546 -0.609407 3.54703 0
M  V30 419 C 39.2626 0.611192 4.43811 0
M  V30 420 C 41.0066 -1.18188 4.07715 0
M  V30 421 C 38.9136 0.288805 5.90694 0
M  V30 422 H 37.8436 -0.120979 0.744231 0
M  V30 423 H 40.4946 0.40556 1.78962 0
M  V30 424 H 38.8766 -1.38813 3.70873 0
M  V30 425 H 40.0506 1.3875 4.39414 0
M  V30 426 H 38.3656 1.10205 4.01552 0
M  V30 427 H 40.9626 -1.43727 5.15021 0
M  V30 428 H 41.3056 -2.12299 3.58099 0
M  V30 429 H 41.8386 -0.464944 3.95074 0
M  V30 430 H 38.5776 1.19838 6.44453 0
M  V30 431 H 38.0976 -0.450305 5.98107 0
M  V30 432 H 39.7766 -0.110933 6.46905 0
M  V30 433 N 39.9087 -1.5758 0.0250728 0
M  V30 434 C 40.8407 -2.06869 -0.986796 0
M  V30 435 C 41.8537 -0.991332 -1.29137 0
M  V30 436 O 43.0427 -1.26761 -1.25674 0
M  V30 437 C 40.1427 -2.47486 -2.31525 0
M  V30 438 C 39.3157 -3.78253 -2.19643 0
M  V30 439 C 38.3747 -4.05464 -3.35388 0
M  V30 440 O 37.4007 -4.75774 -3.12454 0
M  V30 441 N 38.6027 -3.55321 -4.59051 0
M  V30 442 H 41.3677 -2.94302 -0.566276 0
M  V30 443 H 38.9287 -1.6109 -0.161776 0
M  V30 444 H 40.9207 -2.62785 -3.07776 0
M  V30 445 H 39.4907 -1.65441 -2.65232 0
M  V30 446 H 38.7107 -3.7279 -1.28144 0
M  V30 447 H 39.9987 -4.63936 -2.08903 0
M  V30 448 H 39.3967 -2.98431 -4.80578 0
M  V30 449 H 37.9537 -3.75905 -5.32483 0
M  V30 450 N 41.3868 0.248026 -1.55636 0
M  V30 451 C 42.6358 0.974134 -1.76617 0
M  V30 452 C 42.9488 1.86528 -0.588796 0
M  V30 453 O 44.1548 2.62805 -0.681594 0
M  V30 454 C 42.6108 1.78213 -3.12679 0
M  V30 455 C 42.2188 0.93843 -4.38061 0
M  V30 456 C 43.9628 2.50104 -3.42999 0
M  V30 457 C 41.8698 1.74225 -5.65155 0
M  V30 458 H 40.7998 0.36745 -0.658405 0
M  V30 459 H 43.4508 0.22884 -1.82067 0
M  V30 460 H 41.8328 2.56933 -3.01333 0
M  V30 461 H 43.0068 0.193635 -4.60393 0
M  V30 462 H 41.3218 0.332905 -4.15067 0
M  V30 463 H 43.9188 3.10694 -4.3517 0
M  V30 464 H 44.2618 3.21662 -2.64271 0
M  V30 465 H 44.7948 1.78395 -3.55556 0
M  V30 466 H 41.5338 1.07043 -6.46701 0
M  V30 467 H 41.0538 2.46235 -5.46926 0
M  V30 468 H 42.7328 2.30967 -6.0437 0
M  V30 469 N 42.8649 1.48995 0.513639 0
M  V30 470 C 44.1129 1.57531 1.26604 0
M  V30 471 C 44.4339 0.258236 1.93283 0
M  V30 472 O 43.7039 -0.721502 1.8213 0
M  V30 473 H 42.2839 0.580387 0.470276 0
M  V30 474 H 44.9459 1.85552 0.596373 0
M  V30 475 H 44.0419 2.36486 2.03669 0
M  V30 476 N 44.343 -0.763751 1.37857 0
M  V30 477 C 45.591 -1.51957 1.33243 0
M  V30 478 C 45.912 -1.94835 -0.0801709 0
M  V30 479 O 45.182 -1.66894 -1.02582 0
M  V30 480 H 43.762 -0.563626 0.49024 0
M  V30 481 H 46.424 -0.908504 1.7243 0
M  V30 482 H 45.52 -2.41523 1.97669 0
M  V30 483 N 45.8211 -1.22559 -0.990812 0
M  V30 484 C 46.7511 -1.0218 -2.09956 0
M  V30 485 C 47.7321 0.0579394 -1.70001 0
M  V30 486 O 48.9171 -0.104684 -1.93918 0
M  V30 487 C 46.0471 -0.601023 -3.4206 0
M  V30 488 C 45.0011 -1.62694 -3.95872 0
M  V30 489 C 44.3271 -1.06193 -5.24049 0
M  V30 490 C 45.6271 -3.01743 -4.2632 0
M  V30 491 H 47.3211 -1.94916 -2.27262 0
M  V30 492 H 44.8671 -0.938566 -1.09211 0
M  V30 493 H 46.8201 -0.445561 -4.19038 0
M  V30 494 H 45.5441 0.362005 -3.24588 0
M  V30 495 H 44.2031 -1.77021 -3.21028 0
M  V30 496 H 43.8511 -0.0901903 -5.02919 0
M  V30 497 H 43.5511 -1.74732 -5.61019 0
M  V30 498 H 45.0751 -0.918092 -6.03658 0
M  V30 499 H 46.4891 -2.90777 -4.94087 0
M  V30 500 H 44.8861 -3.67425 -4.74467 0
M  V30 501 H 45.9561 -3.51518 -3.34011 0
M  V30 502 N 47.2992 1.18797 -1.03562 0
M  V30 503 C 48.5462 1.8865 -0.736023 0
M  V30 504 C 48.8742 1.80041 0.735889 0
M  V30 505 O 48.1292 1.19179 1.55225 0
M  V30 506 C 48.4282 3.38692 -1.14117 0
M  V30 507 C 48.0942 3.67504 -2.6125 0
M  V30 508 C 46.7562 3.75078 -3.01447 0
M  V30 509 C 49.1082 3.80293 -3.56408 0
M  V30 510 C 46.4362 3.92915 -4.35701 0
M  V30 511 C 48.7882 3.99645 -4.90374 0
M  V30 512 C 47.4522 4.05453 -5.30249 0
M  V30 513 H 46.7222 0.690321 -0.26933 0
M  V30 514 H 49.3692 1.40641 -1.29971 0
M  V30 515 H 47.6742 3.88645 -0.496202 0
M  V30 516 H 49.3712 3.91072 -0.886789 0
M  V30 517 H 45.9612 3.62223 -2.29113 0
M  V30 518 H 50.1452 3.73779 -3.26501 0
M  V30 519 H 45.4012 3.95653 -4.66121 0
M  V30 520 H 49.5752 4.08482 -5.64017 0
M  V30 521 H 47.2022 4.19027 -6.34288 0
M  V30 522 N 48.7773 0.814389 1.34928 0
M  V30 523 C 50.1883 0.458364 1.80986 0
M  V30 524 C 50.5393 -1.02042 1.67577 0
M  V30 525 O 49.6643 -1.79352 1.21086 0
M  V30 526 C 50.2593 0.825212 3.28597 0
M  V30 527 C 48.8183 0.521677 3.72767 0
M  V30 528 C 47.9653 1.04668 2.56788 0
M  V30 529 H 50.9163 1.00533 1.22795 0
M  V30 530 H 50.9373 0.12571 3.80292 0
M  V30 531 H 50.4493 1.90154 3.38324 0
M  V30 532 H 48.5503 -0.545589 3.68584 0
M  V30 533 H 48.6633 1.05977 4.67232 0
M  V30 534 H 47.0273 0.468622 2.50352 0
M  V30 535 H 47.8103 2.12927 2.6929 0
M  V30 536 N 50.2554 -1.46986 0.568584 0
M  V30 537 C 51.6714 -1.57946 0.229189 0
M  V30 538 C 51.8714 -1.56567 -1.26843 0
M  V30 539 O 50.9274 -1.47511 -2.04931 0
M  V30 540 C 52.2404 -2.87963 0.865909 0
M  V30 541 C 53.7884 -3.01568 0.838188 0
M  V30 542 C 54.2634 -4.34301 1.45419 0
M  V30 543 N 55.7544 -4.40965 1.41788 0
M  V30 544 C 56.4894 -5.42256 1.86403 0
M  V30 545 N 55.9854 -6.50297 2.38926 0
M  V30 546 N 57.7784 -5.3337 1.77405 0
M  V30 547 H 49.9294 -1.46126 1.54146 0
M  V30 548 H 52.1924 -0.696156 0.643484 0
M  V30 549 H 51.8984 -2.94742 1.91886 0
M  V30 550 H 51.7724 -3.75423 0.365687 0
M  V30 551 H 54.1594 -2.94379 -0.206106 0
M  V30 552 H 54.2404 -2.1562 1.37629 0
M  V30 553 H 53.8844 -4.42247 2.49761 0
M  V30 554 H 53.8144 -5.19 0.891435 0
M  V30 555 H 56.3054 -3.63484 1.03381 0
M  V30 556 H 56.6184 -7.23777 2.70863 0
M  V30 557 H 54.9634 -6.51155 2.42944 0
M  V30 558 H 58.1544 -4.47865 1.3614 0
M  V30 559 H 58.3274 -6.12169 2.12492 0
M  V30 560 N 51.7335 -0.305618 -1.54608 0
M  V30 561 C 52.9815 0.301701 -1.99835 0
M  V30 562 C 53.3025 1.54054 -1.19551 0
M  V30 563 O 52.5725 1.93702 -0.292658 0
M  V30 564 H 51.1525 0.114468 -0.738178 0
M  V30 565 H 53.8145 -0.418016 -1.90364 0
M  V30 566 H 52.9105 0.570548 -3.06841 0
M  V30 567 N 53.2116 1.57565 -0.0334293 0
M  V30 568 C 54.1746 2.09393 0.932048 0
M  V30 569 C 55.1746 1.00986 1.25134 0
M  V30 570 O 56.3646 1.27129 1.19096 0
M  V30 571 C 53.4966 2.56338 2.2473 0
M  V30 572 H 54.6896 2.95984 0.483085 0
M  V30 573 H 52.2426 1.54819 0.21468 0
M  V30 574 H 52.9776 1.7309 2.74245 0
M  V30 575 H 52.7626 3.35542 2.02865 0
M  V30 576 H 54.2526 2.96646 2.93923 0
M  V30 577 N 54.6897 -0.239769 1.55765 0
M  V30 578 C 55.9667 -0.990056 1.68693 0
M  V30 579 C 56.3467 -2.03107 0.5754 0
M  V30 580 O 55.6947 -2.24604 -0.42017 0
M  V30 581 C 55.9047 -1.61696 3.09282 0
M  V30 582 C 57.2527 -2.11613 3.6811 0
M  V30 583 O 58.2767 -1.71624 3.12127 0
M  V30 584 O 57.1357 -2.85057 4.66267 0
M  V30 585 H 54.2297 -0.461299 0.686391 0
M  V30 586 H 56.7757 -0.232991 1.68093 0
M  V30 587 H 55.5477 -0.864357 3.81634 0
M  V30 588 H 55.1707 -2.44005 3.13923 0
M  V30 589 N 56.1678 -1.49265 -0.50573 0
M  V30 590 C 57.0998 -1.617 -1.62437 0
M  V30 591 C 58.1128 -0.499924 -1.54934 0
M  V30 592 O 59.3018 -0.771785 -1.60953 0
M  V30 593 C 56.4018 -1.5533 -3.01207 0
M  V30 594 C 55.5748 -2.8249 -3.33943 0
M  V30 595 C 54.6338 -2.69238 -4.52103 0
M  V30 596 O 53.6598 -3.43167 -4.5412 0
M  V30 597 N 54.8618 -1.80468 -5.51735 0
M  V30 598 H 57.6268 -2.58177 -1.52199 0
M  V30 599 H 55.1878 -1.46294 -0.693511 0
M  V30 600 H 57.1798 -1.44125 -3.78167 0
M  V30 601 H 55.7498 -0.667297 -3.05395 0
M  V30 602 H 54.9698 -3.08081 -2.45926 0
M  V30 603 H 56.2578 -3.66802 -3.5261 0
M  V30 604 H 55.6558 -1.19653 -5.52901 0
M  V30 605 H 54.2128 -1.75188 -6.27816 0
M  V30 606 N 57.6459 0.756429 -1.3826 0
M  V30 607 C 58.5559 1.9009 -1.37488 0
M  V30 608 C 59.5719 1.71855 -0.272366 0
M  V30 609 O 60.7479 1.94827 -0.510318 0
M  V30 610 C 57.8129 3.25421 -1.19592 0
M  V30 611 C 56.8739 3.56202 -2.39622 0
M  V30 612 C 56.1069 4.85075 -2.2257 0
M  V30 613 O 56.3299 5.57246 -1.21793 0
M  V30 614 O 55.2639 5.15269 -3.11098 0
M  V30 615 H 59.0899 1.93695 -2.33914 0
M  V30 616 H 56.6749 0.901313 -1.1915 0
M  V30 617 H 58.5569 4.06337 -1.11661 0
M  V30 618 H 57.2319 3.22634 -0.262486 0
M  V30 619 H 56.1389 2.75458 -2.53128 0
M  V30 620 H 57.4719 3.63747 -3.31586 0
M  V30 621 N 59.124 1.23083 0.984299 0
M  V30 622 C 60.354 1.08556 1.75781 0
M  V30 623 C 60.762 -0.366171 1.85623 0
M  V30 624 O 60.105 -1.26524 1.33182 0
M  V30 625 C 60.167 1.63208 3.20318 0
M  V30 626 C 59.831 3.11922 3.33997 0
M  V30 627 C 60.828 4.09259 3.2063 0
M  V30 628 C 58.513 3.51552 3.58771 0
M  V30 629 C 60.507 5.4421 3.31835 0
M  V30 630 C 58.194 4.86649 3.69616 0
M  V30 631 C 59.192 5.82787 3.56157 0
M  V30 632 O 58.88 7.15431 3.66626 0
M  V30 633 H 58.612 0.380713 0.5586 0
M  V30 634 H 61.166 1.63321 1.2456 0
M  V30 635 H 59.396 1.0286 3.72769 0
M  V30 636 H 61.085 1.44216 3.79416 0
M  V30 637 H 61.851 3.79984 3.01392 0
M  V30 638 H 57.73 2.77239 3.6832 0
M  V30 639 H 61.274 6.1923 3.21247 0
M  V30 640 H 57.171 5.15601 3.88363 0
M  V30 641 H 57.939 7.23127 3.83445 0
M  V30 642 N 60.6021 -1.18246 1.0419 0
M  V30 643 C 61.8271 -1.92736 0.765996 0
M  V30 644 C 62.2521 -1.75728 -0.67091 0
M  V30 645 O 61.6101 -1.06825 -1.46486 0
M  V30 646 C 61.6581 -3.42148 1.13875 0
M  V30 647 O 60.7621 -4.11548 0.264954 0
M  V30 648 H 60.1031 -0.601238 0.281797 0
M  V30 649 H 62.6331 -1.49942 1.39207 0
M  V30 650 H 62.6431 -3.92858 1.1012 0
M  V30 651 H 61.3181 -3.53848 2.18551 0
M  V30 652 H 59.8951 -3.71137 0.362226 0
M  V30 653 N 62.0802 -0.821533 -1.34494 0
M  V30 654 C 63.0432 -0.247847 -2.27856 0
M  V30 655 C 64.0432 0.573453 -1.50227 0
M  V30 656 O 65.2332 0.389759 -1.69784 0
M  V30 657 C 62.3652 0.652698 -3.34593 0
M  V30 658 H 63.5582 -1.07146 -2.80107 0
M  V30 659 H 61.1112 -0.593291 -1.44602 0
M  V30 660 H 61.8462 1.49943 -2.87555 0
M  V30 661 H 61.6312 0.065292 -3.92046 0
M  V30 662 H 63.1212 1.04793 -4.04238 0
M  V30 663 N 63.5583 1.46682 -0.576371 0
M  V30 664 C 64.8053 2.02412 -0.0595339 0
M  V30 665 C 65.1333 1.44859 1.29793 0
M  V30 666 O 64.3883 0.601099 1.8624 0
M  V30 667 C 64.6873 3.57345 0.062886 0
M  V30 668 C 64.3533 4.33908 -1.22616 0
M  V30 669 C 63.0153 4.54544 -1.57933 0
M  V30 670 C 65.3673 4.77919 -2.07948 0
M  V30 671 C 62.6953 5.16444 -2.78393 0
M  V30 672 C 65.0473 5.41149 -3.27629 0
M  V30 673 C 63.7113 5.60014 -3.63236 0
M  V30 674 H 62.9813 0.74068 -0.021785 0
M  V30 675 H 65.6283 1.76128 -0.751735 0
M  V30 676 H 63.9333 3.82729 0.838178 0
M  V30 677 H 65.6303 3.98136 0.478439 0
M  V30 678 H 62.2203 4.18138 -0.941202 0
M  V30 679 H 66.4043 4.61738 -1.81967 0
M  V30 680 H 61.6603 5.29242 -3.06126 0
M  V30 681 H 65.8343 5.74211 -3.94023 0
M  V30 682 H 63.4613 6.07748 -4.56669 0
M  V30 683 N 65.0364 0.313813 1.54444 0
M  V30 684 C 66.4524 -0.0391619 1.59552 0
M  V30 685 C 66.6524 -1.51322 1.33056 0
M  V30 686 O 65.7084 -2.26782 1.11022 0
M  V30 687 C 67.0214 0.370302 2.98411 0
M  V30 688 C 68.5694 0.320139 3.11358 0
M  V30 689 C 69.0444 0.704617 4.52547 0
M  V30 690 N 70.5354 0.657645 4.58508 0
M  V30 691 C 71.2704 0.927453 5.6585 0
M  V30 692 N 70.7664 1.26389 6.81174 0
M  V30 693 N 72.5594 0.853662 5.5558 0
M  V30 694 H 64.7104 1.27433 1.69925 0
M  V30 695 H 66.9734 0.517511 0.794284 0
M  V30 696 H 66.6794 1.39694 3.22767 0
M  V30 697 H 66.5534 -0.269619 3.76235 0
M  V30 698 H 68.9404 -0.697275 2.86744 0
M  V30 699 H 69.0214 0.99486 2.35661 0
M  V30 700 H 68.6654 1.7199 4.77893 0
M  V30 701 H 68.5954 0.00768843 5.26599 0
M  V30 702 H 71.0864 0.409067 3.75679 0
M  V30 703 H 71.3994 1.4554 7.58972 0
M  V30 704 H 69.7444 1.30206 6.82694 0
M  V30 705 H 72.9354 0.590383 4.64362 0
M  V30 706 H 73.1084 1.0673 6.3915 0
M  V30 707 N 66.5145 -1.57545 0.0417849 0
M  V30 708 C 67.7605 -1.92601 -0.635021 0
M  V30 709 C 68.0935 -0.919627 -1.71045 0
M  V30 710 O 67.3685 0.0557892 -1.9442 0
M  V30 711 C 67.6515 -3.38085 -1.23979 0
M  V30 712 C 67.5045 -4.49467 -0.173057 0
M  V30 713 C 68.8235 -3.83776 -2.15416 0
M  V30 714 H 65.9425 -0.700397 -0.229374 0
M  V30 715 H 68.5845 -1.89728 0.101633 0
M  V30 716 H 66.7345 -3.40664 -1.86762 0
M  V30 717 H 68.4065 -4.59018 0.458312 0
M  V30 718 H 66.6495 -4.30909 0.499996 0
M  V30 719 H 67.3205 -5.48323 -0.636054 0
M  V30 720 H 69.7965 -3.83013 -1.62605 0
M  V30 721 H 68.6725 -4.8624 -2.54679 0
M  V30 722 H 68.9335 -3.19998 -3.05047 0
M  V30 723 N 67.9926 0.231505 -1.5589 0
M  V30 724 C 69.2406 0.955461 -1.78088 0
M  V30 725 C 69.5616 1.85262 -0.608533 0
M  V30 726 O 68.8316 1.92277 0.375035 0
M  V30 727 H 67.4116 0.355787 -0.656829 0
M  V30 728 H 70.0736 0.245751 -1.93344 0
M  V30 729 H 69.1696 1.56814 -2.69844 0
M  V30 730 N 69.4707 1.49531 0.497807 0
M  V30 731 C 70.4037 1.61043 1.6168 0
M  V30 732 C 71.3817 0.459386 1.55976 0
M  V30 733 O 72.5657 0.675358 1.75986 0
M  V30 734 C 69.6927 1.56833 3.00202 0
M  V30 735 C 68.7387 2.77173 3.24156 0
M  V30 736 S 69.5717 4.38808 3.06933 0
M  V30 737 C 70.7277 4.37248 4.47845 0
M  V30 738 H 70.9607 2.55702 1.51671 0
M  V30 739 H 68.4937 1.38462 0.683201 0
M  V30 740 H 70.4517 1.55089 3.80076 0
M  V30 741 H 69.1127 0.634561 3.07623 0
M  V30 742 H 68.3057 2.70456 4.25288 0
M  V30 743 H 67.9077 2.76346 2.5201 0
M  V30 744 H 70.1997 4.09164 5.39992 0
M  V30 745 H 71.1427 5.38668 4.59612 0
M  V30 746 H 71.5507 3.67286 4.28674 0
M  V30 747 N 70.9488 -0.749086 1.3866 0
M  V30 748 C 72.1948 -1.51056 1.35314 0
M  V30 749 C 72.5278 -1.94121 -0.0553751 0
M  V30 750 O 71.8028 -1.65763 -1.01749 0
M  V30 751 C 72.0858 -2.76003 2.31288 0
M  V30 752 C 71.9388 -2.39047 3.8102 0
M  V30 753 C 73.2578 -3.78046 2.2532 0
M  V30 754 H 70.3768 -0.547972 0.492844 0
M  V30 755 H 73.0188 -0.857628 1.69543 0
M  V30 756 H 71.1688 -3.31716 2.02229 0
M  V30 757 H 72.8408 -1.89074 4.20771 0
M  V30 758 H 71.0838 -1.71449 3.98482 0
M  V30 759 H 71.7548 -3.28462 4.4364 0
M  V30 760 H 74.2308 -3.31884 2.50983 0
M  V30 761 H 73.1068 -4.63159 2.94576 0
M  V30 762 H 73.3678 -4.23957 1.25352 0
M  V30 763 N 72.4269 -1.23603 -0.977757 0
M  V30 764 C 73.3589 -0.977369 -2.07317 0
M  V30 765 C 74.3719 0.0495845 -1.62724 0
M  V30 766 O 75.5609 -0.186261 -1.77526 0
M  V30 767 C 72.6609 -0.451216 -3.35883 0
M  V30 768 C 71.8339 -1.53896 -4.09432 0
M  V30 769 C 70.8929 -1.01721 -5.16274 0
M  V30 770 O 69.9189 -1.70676 -5.43009 0
M  V30 771 N 71.1209 0.153594 -5.80297 0
M  V30 772 H 73.8859 -1.92047 -2.30082 0
M  V30 773 H 71.4469 -1.14497 -1.14465 0
M  V30 774 H 73.4389 -0.0871574 -4.04606 0
M  V30 775 H 72.0089 0.397368 -3.10064 0
M  V30 776 H 71.2289 -2.07566 -3.35127 0
M  V30 777 H 72.5169 -2.27037 -4.55337 0
M  V30 778 H 71.9149 0.730323 -5.60966 0
M  V30 779 H 70.4719 0.458892 -6.50183 0
M  V30 780 N 73.905 1.17692 -1.04816 0
M  V30 781 C 75.152 1.87859 -0.75599 0
M  V30 782 C 75.48 1.80812 0.716752 0
M  V30 783 O 74.735 1.20819 1.53952 0
M  V30 784 C 75.034 3.37462 -1.17703 0
M  V30 785 C 74.7 3.64713 -2.65133 0
M  V30 786 C 73.362 3.71859 -3.05408 0
M  V30 787 C 75.714 3.76492 -3.60421 0
M  V30 788 C 73.042 3.88271 -4.39843 0
M  V30 789 C 75.394 3.94421 -4.94585 0
M  V30 790 C 74.058 3.99806 -5.3452 0
M  V30 791 H 73.328 0.687425 -0.276636 0
M  V30 792 H 75.975 1.39255 -1.31455 0
M  V30 793 H 74.28 3.88097 -0.537395 0
M  V30 794 H 75.977 3.90109 -0.928218 0
M  V30 795 H 72.567 3.59772 -2.32942 0
M  V30 796 H 76.751 3.70295 -3.30447 0
M  V30 797 H 72.007 3.90687 -4.70291 0
M  V30 798 H 76.181 4.02477 -5.68318 0
M  V30 799 H 73.808 4.12276 -6.38696 0
M  V30 800 N 75.3831 0.828654 1.34056 0
M  V30 801 C 76.6081 0.431637 2.02859 0
M  V30 802 C 77.0331 -0.956339 1.61975 0
M  V30 803 O 76.3911 -1.62338 0.807228 0
M  V30 804 C 76.4391 0.548323 3.56407 0
M  V30 805 O 75.5431 -0.429556 4.10157 0
M  V30 806 H 74.8841 0.176886 0.640006 0
M  V30 807 H 77.4141 1.12066 1.71179 0
M  V30 808 H 77.4241 0.426196 4.05768 0
M  V30 809 H 76.0991 1.5606 3.8551 0
M  V30 810 H 74.6761 -0.265836 3.71951 0
M  V30 811 N 76.8612 -1.46375 0.584142 0
M  V30 812 C 78.0892 -2.06761 0.0759296 0
M  V30 813 C 78.5042 -1.43266 -1.22965 0
M  V30 814 O 77.8612 -0.538458 -1.74376 0
M  V30 815 C 77.9122 -3.61375 -0.0950384 0
M  V30 816 O 77.6332 -4.22495 1.15887 0
M  V30 817 C 79.1342 -4.38693 -0.637434 0
M  V30 818 H 76.3542 -0.668479 0.0581075 0
M  V30 819 H 78.8982 -1.8798 0.805218 0
M  V30 820 H 77.0532 -3.79578 -0.774554 0
M  V30 821 H 77.4672 -5.15385 0.973598 0
M  V30 822 H 78.9412 -5.47464 -0.706237 0
M  V30 823 H 79.4182 -4.06836 -1.65472 0
M  V30 824 H 80.0242 -4.25299 0.00725967 0
M  V30 825 N 78.3393 -0.321999 -1.54275 0
M  V30 826 C 79.5643 0.285791 -2.05422 0
M  V30 827 C 79.9893 1.45124 -1.19669 0
M  V30 828 O 79.3473 1.80132 -0.205441 0
M  V30 829 C 79.3953 0.69956 -3.53749 0
M  V30 830 O 78.4993 1.8021 -3.70942 0
M  V30 831 H 77.8403 0.0518962 -0.661969 0
M  V30 832 H 80.3703 -0.469954 -1.9913 0
M  V30 833 H 80.3803 0.982649 -3.9599 0
M  V30 834 H 79.0553 -0.152864 -4.15619 0
M  V30 835 H 77.6323 1.51794 -3.40607 0
M  V30 836 N 79.8174 1.5752 -0.0501392 0
M  V30 837 C 80.7274 2.14952 0.939827 0
M  V30 838 C 81.7434 1.10706 1.34239 0
M  V30 839 O 82.9194 1.42869 1.41952 0
M  V30 840 C 79.9844 2.68232 2.19665 0
M  V30 841 C 79.0454 3.87272 1.85253 0
M  V30 842 C 78.2784 4.38002 3.04943 0
M  V30 843 O 78.5014 3.87811 4.18281 0
M  V30 844 O 77.4354 5.29602 2.86017 0
M  V30 845 H 81.2614 2.9986 0.481392 0
M  V30 846 H 78.8464 1.4841 0.171699 0
M  V30 847 H 80.7284 3.02475 2.93406 0
M  V30 848 H 79.4034 1.86395 2.64648 0
M  V30 849 H 78.3104 3.5792 1.0883 0
M  V30 850 H 79.6434 4.70336 1.4507 0
M  V30 851 N 81.2955 -0.223234 1.56011 0
M  V30 852 C 82.5425 -0.947875 1.78946 0
M  V30 853 C 82.8705 -1.844 0.618608 0
M  V30 854 O 82.1255 -1.91629 -0.397093 0
M  V30 855 C 82.4245 -1.81948 3.0762 0
M  V30 856 C 82.0905 -1.07672 4.37856 0
M  V30 857 C 80.7525 -0.871544 4.73242 0
M  V30 858 C 83.1045 -0.552081 5.18268 0
M  V30 859 C 80.4325 -0.129791 5.86556 0
M  V30 860 C 82.7845 0.17632 6.32354 0
M  V30 861 C 81.4485 0.39277 6.66343 0
M  V30 862 H 80.7185 -0.346852 0.654809 0
M  V30 863 H 83.3655 -0.216171 1.90276 0
M  V30 864 H 81.6705 -2.61899 2.91404 0
M  V30 865 H 83.3675 -2.38227 3.22566 0
M  V30 866 H 79.9575 -1.24662 4.1007 0
M  V30 867 H 84.1415 -0.698076 4.91366 0
M  V30 868 H 79.3975 0.048153 6.11381 0
M  V30 869 H 83.5715 0.590367 6.93893 0
M  V30 870 H 81.1985 0.969466 7.53993 0
M  V30 871 N 82.7736 -1.49793 -0.48987 0
M  V30 872 C 84.1896 -1.36803 -0.822022 0
M  V30 873 C 84.3896 -0.409652 -1.97292 0
M  V30 874 O 83.4456 0.154614 -2.52026 0
M  V30 875 C 84.7586 -2.77768 -1.15175 0
M  V30 876 C 86.3066 -2.86549 -1.25931 0
M  V30 877 C 86.7816 -4.28306 -1.62228 0
M  V30 878 N 88.2726 -4.31169 -1.69256 0
M  V30 879 C 89.0076 -5.37832 -1.98807 0
M  V30 880 N 88.5036 -6.54726 -2.26507 0
M  V30 881 N 90.2966 -5.25258 -2.00152 0
M  V30 882 H 82.4476 -2.10691 0.268881 0
M  V30 883 H 84.7106 -0.946241 0.057728 0
M  V30 884 H 84.4166 -3.49648 -0.379335 0
M  V30 885 H 84.2906 -3.13836 -2.09253 0
M  V30 886 H 86.6776 -2.14899 -2.02243 0
M  V30 887 H 86.7586 -2.54049 -0.298776 0
M  V30 888 H 86.4026 -5.00486 -0.864622 0
M  V30 889 H 86.3326 -4.58279 -2.594 0
M  V30 890 H 88.8236 -3.4687 -1.49965 0
M  V30 891 H 89.1366 -7.31833 -2.48276 0
M  V30 892 H 87.4816 -6.57933 -2.23939 0
M  V30 893 H 90.6726 -4.32938 -1.77996 0
M  V30 894 H 90.8456 -6.08476 -2.22848 0
M  V30 895 N 84.2517 0.741722 -1.39055 0
M  V30 896 C 85.1817 1.869 -1.39966 0
M  V30 897 C 86.1627 1.6804 -0.26392 0
M  V30 898 O 87.3477 1.88458 -0.468755 0
M  V30 899 C 84.4777 3.24572 -1.23574 0
M  V30 900 C 83.4317 3.58056 -2.34477 0
M  V30 901 C 82.7577 4.94593 -2.0318 0
M  V30 902 C 84.0577 3.61716 -3.76774 0
M  V30 903 H 85.7517 1.86395 -2.34302 0
M  V30 904 H 83.2977 0.895361 -1.1278 0
M  V30 905 H 85.2507 4.031 -1.22834 0
M  V30 906 H 83.9747 3.25587 -0.257045 0
M  V30 907 H 82.6337 2.81854 -2.34423 0
M  V30 908 H 82.2817 4.92181 -1.03765 0
M  V30 909 H 81.9817 5.17964 -2.77465 0
M  V30 910 H 83.5057 5.75486 -2.04079 0
M  V30 911 H 84.9197 4.30335 -3.78794 0
M  V30 912 H 83.3167 3.96603 -4.50362 0
M  V30 913 H 84.3867 2.61672 -4.08235 0
M  V30 914 N 85.7298 1.2412 0.971189 0
M  V30 915 C 86.9578 1.10575 1.74874 0
M  V30 916 C 87.3728 -0.342017 1.85676 0
M  V30 917 O 86.7298 -1.23617 1.34258 0
M  V30 918 C 86.7808 1.73579 3.171 0
M  V30 919 O 86.5018 3.12695 3.06844 0
M  V30 920 C 88.0028 1.65598 4.11208 0
M  V30 921 H 85.2228 0.386504 0.548503 0
M  V30 922 H 87.7668 1.64156 1.21955 0
M  V30 923 H 85.9218 1.24009 3.67016 0
M  V30 924 H 86.3358 3.43412 3.96445 0
M  V30 925 H 87.8098 2.1437 5.08674 0
M  V30 926 H 88.2868 0.616532 4.34851 0
M  V30 927 H 88.8928 2.14578 3.67201 0
M  V30 928 N 87.2079 -1.17134 1.05439 0
M  V30 929 C 88.6189 -1.69084 0.791676 0
M  V30 930 C 88.9699 -1.83822 -0.685839 0
M  V30 931 O 88.0949 -1.52757 -1.53278 0
M  V30 932 C 88.6899 -3.07119 1.4305 0
M  V30 933 C 87.2489 -3.56225 1.21577 0
M  V30 934 C 86.3959 -2.32421 1.51247 0
M  V30 935 H 89.3469 -1.01617 1.219 0
M  V30 936 H 89.3679 -3.71087 0.84112 0
M  V30 937 H 88.8799 -2.9636 2.50584 0
M  V30 938 H 86.9809 -3.72257 0.159787 0
M  V30 939 H 87.0939 -4.38837 1.92246 0
M  V30 940 H 85.4579 -2.3701 0.932653 0
M  V30 941 H 86.2409 -2.24268 2.5992 0
M  V30 942 N 88.686 -0.835752 -1.33615 0
M  V30 943 C 89.636 -0.238856 -2.26745 0
M  V30 944 C 90.62 0.604343 -1.49119 0
M  V30 945 O 91.812 0.456822 -1.71003 0
M  V30 946 C 88.941 0.587725 -3.38232 0
M  V30 947 C 88.027 -0.266811 -4.2326 0
M  V30 948 N 88.418 -1.34403 -4.87616 0
M  V30 949 C 86.716 -0.0533131 -4.45968 0
M  V30 950 C 87.417 -1.86819 -5.50884 0
M  V30 951 N 86.393 -1.17013 -5.30857 0
M  V30 952 H 90.195 -1.06266 -2.74016 0
M  V30 953 H 87.709 -0.679881 -1.47483 0
M  V30 954 H 89.706 1.03161 -4.03935 0
M  V30 955 H 88.366 1.40954 -2.9251 0
M  V30 956 H 89.377 -1.7269 -4.88261 0
M  V30 957 H 86.054 0.735312 -4.10974 0
M  V30 958 H 87.444 -2.7701 -6.1214 0
M  V30 959 N 90.1641 1.46063 -0.591896 0
M  V30 960 C 91.4131 2.01547 -0.0786637 0
M  V30 961 C 91.7261 1.46796 1.29268 0
M  V30 962 O 92.9321 1.94157 1.89777 0
M  V30 963 C 91.3881 3.59787 -0.0900024 0
M  V30 964 C 90.9961 4.23534 -1.46023 0
M  V30 965 C 92.7401 4.22895 0.368806 0
M  V30 966 C 90.6471 5.73881 -1.4288 0
M  V30 967 H 89.5771 0.753564 -0.0256388 0
M  V30 968 H 92.2281 1.677 -0.744905 0
M  V30 969 H 90.6101 3.90752 0.642586 0
M  V30 970 H 91.7841 4.04167 -2.21328 0
M  V30 971 H 90.0991 3.72558 -1.85982 0
M  V30 972 H 92.6961 5.33116 0.411258 0
M  V30 973 H 93.0391 3.9247 1.38827 0
M  V30 974 H 93.5721 3.9659 -0.31001 0
M  V30 975 H 90.3111 6.0898 -2.42536 0
M  V30 976 H 89.8311 5.95486 -0.718095 0
M  V30 977 H 91.5101 6.36776 -1.14565 0
M  V30 978 N 91.6422 0.330177 1.54103 0
M  V30 979 C 92.9192 -0.325007 1.92881 0
M  V30 980 C 93.2992 -1.6934 1.26045 0
M  V30 981 O 92.6472 -2.24855 0.406526 0
M  V30 982 C 92.8572 -0.410634 3.46576 0
M  V30 983 C 94.2052 -0.667801 4.19316 0
M  V30 984 O 95.2292 -0.49329 3.52768 0
M  V30 985 O 94.0882 -1.00491 5.37181 0
M  V30 986 H 91.1822 -0.186873 0.80561 0
M  V30 987 H 93.7282 0.380376 1.65382 0
M  V30 988 H 92.5002 0.550164 3.87413 0
M  V30 989 H 92.1232 -1.16333 3.802 0
M  V30 990 N 93.1203 -1.57491 0.0584922 0
M  V30 991 C 94.0683 -2.13148 -0.931168 0
M  V30 992 C 95.0623 -1.06507 -1.31729 0
M  V30 993 O 96.2683 -1.24906 -1.29609 0
M  V30 994 H 92.6433 -0.68137 -0.31818 0
M  V30 995 H 94.6143 -2.95187 -0.436707 0
M  V30 996 C 93.3633 -2.69732 -2.19408 0
M  V30 997 H 92.6863 -3.51454 -1.90578 0
M  V30 998 H 94.1263 -3.12287 -2.86798 0
M  V30 999 C 92.5853 -1.63855 -2.94369 0
M  V30 1000 O 93.1153 -1.05565 -3.87581 0
M  V30 1001 N 91.3213 -1.35202 -2.57233 0
M  V30 1002 H 90.8683 -1.82791 -1.81508 0
M  V30 1003 H 90.8263 -0.645922 -3.07693 0
M  V30 1004 N 94.5984 0.214957 -1.56127 0
M  V30 1005 C 95.5284 1.2695 -1.95974 0
M  V30 1006 C 96.5094 1.48539 -0.828868 0
M  V30 1007 O 97.6944 1.60611 -1.09168 0
M  V30 1008 C 94.8244 2.61794 -2.28214 0
M  V30 1009 C 93.7784 2.54851 -3.43853 0
M  V30 1010 C 93.1044 3.93785 -3.61715 0
M  V30 1011 C 94.4044 2.09065 -4.78632 0
M  V30 1012 H 96.0984 0.93846 -2.84312 0
M  V30 1013 H 93.6444 0.449996 -1.36788 0
M  V30 1014 H 95.5974 3.35731 -2.54682 0
M  V30 1015 H 94.3214 2.96599 -1.36736 0
M  V30 1016 H 92.9804 1.8337 -3.17444 0
M  V30 1017 H 92.6284 4.25908 -2.67602 0
M  V30 1018 H 92.3284 3.90019 -4.39498 0
M  V30 1019 H 93.8524 4.69374 -3.90539 0
M  V30 1020 H 95.2664 2.7275 -5.04262 0
M  V30 1021 H 93.6634 2.16346 -5.59745 0
M  V30 1022 H 94.7334 1.04315 -4.73547 0
M  V30 1023 N 96.0765 1.50051 0.48192 0
M  V30 1024 C 96.9865 1.7089 1.60728 0
M  V30 1025 C 98.0025 0.591788 1.63627 0
M  V30 1026 O 99.1785 0.868817 1.81696 0
M  V30 1027 C 96.2435 1.78855 2.97005 0
M  V30 1028 C 95.3045 3.02537 3.04581 0
M  V30 1029 C 94.5375 3.10112 4.34357 0
M  V30 1030 O 94.7605 2.24765 5.24249 0
M  V30 1031 O 93.6945 4.02747 4.47301 0
M  V30 1032 H 97.5205 2.66264 1.46072 0
M  V30 1033 H 95.1055 1.34018 0.660264 0
M  V30 1034 H 96.9875 1.86336 3.77964 0
M  V30 1035 H 95.6625 0.866628 3.11883 0
M  V30 1036 H 94.5695 3.00563 2.22739 0
M  V30 1037 H 95.9025 3.94272 2.94636 0
M  V30 1038 N 97.5546 -0.734337 1.39446 0
M  V30 1039 C 98.8006 -1.49613 1.36908 0
M  V30 1040 C 99.1336 -1.94169 -0.0347829 0
M  V30 1041 O 98.4086 -1.66833 -0.999847 0
M  V30 1042 C 98.6916 -2.73534 2.34203 0
M  V30 1043 C 98.5446 -2.34993 3.83534 0
M  V30 1044 C 99.8636 -3.75635 2.29317 0
M  V30 1045 H 96.9826 -0.542714 0.498629 0
M  V30 1046 H 99.6246 -0.839597 1.70443 0
M  V30 1047 H 97.7746 -3.29553 2.05736 0
M  V30 1048 H 99.4466 -1.84601 4.22753 0
M  V30 1049 H 97.6896 -1.67213 4.00278 0
M  V30 1050 H 98.3606 -3.23738 4.47099 0
M  V30 1051 H 100.837 -3.29203 2.54489 0
M  V30 1052 H 99.7126 -4.60008 2.99472 0
M  V30 1053 H 99.9736 -4.22603 1.29842 0
M  V30 1054 N 99.0327 -1.24633 -0.964593 0
M  V30 1055 C 99.9957 -1.0424 -2.04124 0
M  V30 1056 C 100.996 0.00137563 -1.608 0
M  V30 1057 O 102.186 -0.239883 -1.7254 0
M  V30 1058 C 99.3177 -0.580588 -3.3592 0
M  V30 1059 H 100.511 -1.99803 -2.23649 0
M  V30 1060 H 98.0637 -1.06899 -1.14027 0
M  V30 1061 H 98.7987 0.3781 -3.22088 0
M  V30 1062 H 98.5837 -1.33398 -3.6871 0
M  V30 1063 H 100.074 -0.459034 -4.15069 0
M  V30 1064 N 100.511 1.16574 -1.06058 0
M  V30 1065 C 101.459 2.22941 -0.663343 0
M  V30 1066 C 102.453 1.66358 0.319593 0
M  V30 1067 O 103.659 1.7905 0.184713 0
M  V30 1068 H 100.034 0.725907 -0.196376 0
M  V30 1069 H 102.005 2.53736 -1.57037 0
M  V30 1070 C 100.754 3.47642 -0.0632808 0
M  V30 1071 H 100.077 3.91493 -0.810733 0
M  V30 1072 H 101.517 4.2363 0.177177 0
M  V30 1073 C 99.9758 3.1509 1.19248 0
M  V30 1074 O 100.506 3.30673 2.28075 0
M  V30 1075 N 98.7118 2.6924 1.09353 0
M  V30 1076 H 98.2588 2.5676 0.207912 0
M  V30 1077 H 98.2168 2.47833 1.93458 0
M  V30 1078 N 101.989 0.842826 1.3317 0
M  V30 1079 C 103.214 0.453129 2.02389 0
M  V30 1080 C 103.639 -0.939105 1.6298 0
M  V30 1081 O 102.997 -1.61472 0.8244 0
M  V30 1082 C 103.045 0.586094 3.55805 0
M  V30 1083 O 102.149 -0.386029 4.10589 0
M  V30 1084 H 101.49 0.183664 0.638094 0
M  V30 1085 H 104.02 1.13875 1.69981 0
M  V30 1086 H 104.03 0.469209 4.05293 0
M  V30 1087 H 102.705 1.6014 3.83833 0
M  V30 1088 H 101.282 -0.226371 3.72212 0
M  V30 1089 N 103.467 -1.45747 0.599634 0
M  V30 1090 C 104.714 -2.02292 0.0917284 0
M  V30 1091 C 105.042 -1.46906 -1.27472 0
M  V30 1092 O 104.297 -0.630652 -1.8526 0
M  V30 1093 C 104.596 -3.57399 -0.00602758 0
M  V30 1094 C 104.262 -4.31902 1.29503 0
M  V30 1095 C 102.924 -4.51974 1.65144 0
M  V30 1096 C 105.276 -4.74551 2.15525 0
M  V30 1097 C 102.604 -5.11949 2.86574 0
M  V30 1098 C 104.956 -5.35868 3.36196 0
M  V30 1099 C 103.62 -5.54165 3.72099 0
M  V30 1100 H 102.89 -0.740239 0.0335658 0
M  V30 1101 H 105.537 -1.7491 0.779661 0
M  V30 1102 H 103.842 -3.84014 -0.777183 0
M  V30 1103 H 105.539 -3.98846 -0.415038 0
M  V30 1104 H 102.129 -4.16588 1.00761 0
M  V30 1105 H 106.313 -4.58784 1.8929 0
M  V30 1106 H 101.569 -5.24305 3.14507 0
M  V30 1107 H 105.743 -5.6787 4.03109 0
M  V30 1108 H 103.37 -6.00406 4.6628 0
M  V30 1109 N 104.945 -0.338344 -1.53925 0
M  V30 1110 C 105.908 0.508299 -2.23493 0
M  V30 1111 C 106.908 1.03175 -1.23335 0
M  V30 1112 O 108.098 0.921826 -1.47811 0
M  V30 1113 C 105.23 1.70754 -2.95052 0
M  V30 1114 H 106.423 -0.100058 -2.99733 0
M  V30 1115 H 103.976 -0.0896198 -1.56043 0
M  V30 1116 H 104.711 2.35474 -2.22986 0
M  V30 1117 H 104.496 1.33946 -3.68512 0
M  V30 1118 H 105.986 2.30818 -3.48013 0
M  V30 1119 N 106.423 1.57458 -0.0668435 0
M  V30 1120 C 107.669 1.93587 0.6043 0
M  V30 1121 C 108.002 0.946722 1.69561 0
M  V30 1122 O 107.277 -0.0248516 1.94484 0
M  V30 1123 C 107.56 3.40014 1.18585 0
M  V30 1124 C 107.413 4.49685 0.101529 0
M  V30 1125 C 108.732 3.87154 2.09284 0
M  V30 1126 H 105.851 0.703958 0.218202 0
M  V30 1127 H 108.493 1.89542 -0.131804 0
M  V30 1128 H 106.643 3.43592 1.81319 0
M  V30 1129 H 108.315 4.5823 -0.531279 0
M  V30 1130 H 106.558 4.30059 -0.568487 0
M  V30 1131 H 107.229 5.49266 0.54874 0
M  V30 1132 H 109.705 3.85551 1.56491 0
M  V30 1133 H 108.581 4.90231 2.46911 0
M  V30 1134 H 108.842 3.2481 2.99918 0
M  V30 1135 N 107.901 -0.206675 1.56239 0
M  V30 1136 C 109.129 -0.945345 1.8404 0
M  V30 1137 C 109.544 -1.77336 0.647885 0
M  V30 1138 O 108.901 -1.78425 -0.383511 0
M  V30 1139 C 108.952 -1.8509 3.10522 0
M  V30 1140 O 108.673 -1.05634 4.25174 0
M  V30 1141 C 110.174 -2.70222 3.51418 0
M  V30 1142 H 107.394 -0.276372 0.61144 0
M  V30 1143 H 109.938 -0.217417 2.03341 0
M  V30 1144 H 108.093 -2.53259 2.93153 0
M  V30 1145 H 108.507 -1.67238 4.97124 0
M  V30 1146 H 109.981 -3.29438 4.42916 0
M  V30 1147 H 110.458 -3.43358 2.73864 0
M  V30 1148 H 111.064 -2.07443 3.71278 0
M  V30 1149 N 109.379 -1.50304 -0.473955 0
M  V30 1150 C 110.327 -1.69482 -1.59307 0
M  V30 1151 C 111.321 -0.560669 -1.59853 0
M  V30 1152 O 112.527 -0.741087 -1.64036 0
M  V30 1153 H 108.902 -0.534892 -0.528578 0
M  V30 1154 H 110.873 -2.63364 -1.40293 0
M  V30 1155 C 109.622 -1.80354 -2.97267 0
M  V30 1156 H 108.945 -2.67012 -2.97564 0
M  V30 1157 H 110.385 -1.97798 -3.75036 0
M  V30 1158 C 108.844 -0.55448 -3.32306 0
M  V30 1159 O 109.374 0.307661 -4.0052 0
M  V30 1160 N 107.58 -0.409354 -2.87702 0
M  V30 1161 H 107.127 -1.11196 -2.32364 0
M  V30 1162 H 107.085 0.425223 -3.11511 0
M  V30 1163 N 110.857 0.726932 -1.39834 0
M  V30 1164 C 111.82 1.82269 -1.38962 0
M  V30 1165 C 112.82 1.58248 -0.285334 0
M  V30 1166 O 114.01 1.65499 -0.54366 0
M  V30 1167 C 111.142 3.20186 -1.17019 0
M  V30 1168 H 112.335 1.84443 -2.36476 0
M  V30 1169 H 109.888 0.931416 -1.25516 0
M  V30 1170 H 110.623 3.23669 -0.202204 0
M  V30 1171 H 110.408 3.3902 -1.96998 0
M  V30 1172 H 111.898 4.00235 -1.1917 0
M  V30 1173 N 112.336 1.25143 0.95797 0
M  V30 1174 C 113.583 1.09692 1.70217 0
M  V30 1175 C 113.911 -0.362654 1.91089 0
M  V30 1176 O 113.166 -1.28386 1.47701 0
M  V30 1177 C 113.465 1.79272 3.09187 0
M  V30 1178 C 113.131 3.29196 3.08125 0
M  V30 1179 C 111.793 3.70096 3.07543 0
M  V30 1180 C 114.145 4.24995 3.0171 0
M  V30 1181 C 111.473 5.05213 2.9829 0
M  V30 1182 C 113.825 5.60132 2.93999 0
M  V30 1183 C 112.489 6.00365 2.9175 0
M  V30 1184 H 111.759 0.401393 0.622868 0
M  V30 1185 H 114.406 1.55372 1.11945 0
M  V30 1186 H 112.711 1.26014 3.70982 0
M  V30 1187 H 114.408 1.64773 3.65583 0
M  V30 1188 H 110.998 2.96651 3.09348 0
M  V30 1189 H 115.182 3.9439 3.01281 0
M  V30 1190 H 110.438 5.35569 2.94916 0
M  V30 1191 H 114.612 6.3406 2.87996 0
M  V30 1192 H 112.239 7.05023 2.84336 0
M  V30 1193 N 113.814 -1.1601 1.06675 0
M  V30 1194 C 115.054 -1.88304 0.795037 0
M  V30 1195 C 115.418 -1.80062 -0.666466 0
M  V30 1196 O 116.619 -2.47319 -1.05293 0
M  V30 1197 C 114.89 -3.33664 1.28076 0
M  V30 1198 S 116.449 -4.23768 1.13868 0
M  V30 1199 H 113.267 -0.649928 0.288296 0
M  V30 1200 H 115.869 -1.4001 1.36445 0
M  V30 1201 H 114.573 -3.37203 2.33927 0
M  V30 1202 H 114.104 -3.87009 0.706253 0
M  V30 1203 H 116.119 -4.96148 0.0719668 0
M  V30 1204 N 115.292 -0.849877 -1.32721 0
M  V30 1205 C 116.517 -0.463856 -2.02146 0
M  V30 1206 C 116.942 0.930449 -1.63476 0
M  V30 1207 O 116.3 1.61033 -0.832952 0
M  V30 1208 C 116.348 -0.604955 -3.55489 0
M  V30 1209 O 115.452 0.36425 -4.10788 0
M  V30 1210 H 114.793 -0.187046 -0.637111 0
M  V30 1211 H 117.323 -1.14775 -1.69375 0
M  V30 1212 H 117.333 -0.490696 -4.05038 0
M  V30 1213 H 116.008 -1.62174 -3.82978 0
M  V30 1214 H 114.585 0.206628 -3.72327 0
M  V30 1215 N 116.77 1.45427 -0.607355 0
M  V30 1216 C 117.702 2.2871 0.149752 0
M  V30 1217 C 118.715 1.39937 0.831958 0
M  V30 1218 O 119.904 1.64313 0.697385 0
M  V30 1219 C 117.004 3.15673 1.23304 0
M  V30 1220 C 116.177 4.32722 0.637996 0
M  V30 1221 C 115.236 5.00895 1.61215 0
M  V30 1222 O 114.262 5.57697 1.13854 0
M  V30 1223 N 115.464 5.00159 2.94655 0
M  V30 1224 H 118.229 2.94328 -0.564882 0
M  V30 1225 H 115.79 1.55612 -0.446823 0
M  V30 1226 H 117.782 3.58144 1.88454 0
M  V30 1227 H 116.352 2.51965 1.8502 0
M  V30 1228 H 115.572 3.93734 -0.191572 0
M  V30 1229 H 116.86 5.08321 0.220665 0
M  V30 1230 H 116.258 4.553 3.35735 0
M  V30 1231 H 114.815 5.46495 3.55228 0
M  V30 1232 N 118.248 0.346503 1.53744 0
M  V30 1233 C 119.495 -0.249104 2.00962 0
M  V30 1234 C 119.823 -1.5032 1.23426 0
M  V30 1235 O 119.078 -1.93217 0.310761 0
M  V30 1236 C 119.377 -0.605809 3.52228 0
M  V30 1237 C 119.043 0.551747 4.47512 0
M  V30 1238 C 117.705 0.86941 4.73281 0
M  V30 1239 C 120.057 1.32818 5.03993 0
M  V30 1240 C 117.385 1.96582 5.52786 0
M  V30 1241 C 119.737 2.41486 5.84694 0
M  V30 1242 C 118.401 2.73808 6.08757 0
M  V30 1243 H 117.671 -0.0911538 0.735372 0
M  V30 1244 H 120.318 0.475027 1.85515 0
M  V30 1245 H 118.623 -1.4107 3.65522 0
M  V30 1246 H 120.32 -1.07858 3.86222 0
M  V30 1247 H 116.91 0.294102 4.2759 0
M  V30 1248 H 121.094 1.09602 4.84047 0
M  V30 1249 H 116.35 2.22045 5.69654 0
M  V30 1250 H 120.524 3.02078 6.27473 0
M  V30 1251 H 118.151 3.58892 6.7015 0
M  V30 1252 N 119.726 -1.57421 0.075193 0
M  V30 1253 C 120.951 -1.98364 -0.605515 0
M  V30 1254 C 121.376 -0.953383 -1.62149 0
M  V30 1255 O 120.734 0.0806053 -1.81121 0
M  V30 1256 C 120.782 -3.38332 -1.24756 0
M  V30 1257 O 119.886 -3.37959 -2.36342 0
M  V30 1258 H 119.227 -0.645553 -0.155428 0
M  V30 1259 H 121.757 -2.04044 0.150714 0
M  V30 1260 H 121.767 -3.75591 -1.5936 0
M  V30 1261 H 120.442 -4.12846 -0.503129 0
M  V30 1262 H 119.019 -3.12474 -2.03506 0
M  V30 1263 N 121.204 0.198386 -1.56346 0
M  V30 1264 C 122.62 0.549085 -1.49857 0
M  V30 1265 C 122.82 1.86016 -0.774611 0
M  V30 1266 O 121.876 2.50416 -0.323776 0
M  V30 1267 C 123.189 0.606868 -2.94512 0
M  V30 1268 C 124.737 0.695925 -3.05165 0
M  V30 1269 C 125.212 0.784848 -4.51225 0
M  V30 1270 N 126.703 0.848463 -4.55363 0
M  V30 1271 C 127.438 0.937378 -5.65686 0
M  V30 1272 N 126.934 0.9888 -6.85707 0
M  V30 1273 N 128.727 0.974312 -5.53592 0
M  V30 1274 H 120.878 -0.661655 -2.01831 0
M  V30 1275 H 123.141 -0.235261 -0.918344 0
M  V30 1276 H 122.847 -0.28732 -3.50524 0
M  V30 1277 H 122.721 1.46268 -3.47686 0
M  V30 1278 H 125.108 1.58055 -2.49204 0
M  V30 1279 H 125.189 -0.186022 -2.55123 0
M  V30 1280 H 124.833 -0.0954072 -5.0781 0
M  V30 1281 H 124.763 1.68255 -4.98997 0
M  V30 1282 H 127.254 0.818103 -3.68938 0
M  V30 1283 H 127.567 1.05707 -7.65536 0
M  V30 1284 H 125.912 0.957534 -6.88372 0
M  V30 1285 H 129.103 0.930954 -4.58749 0
M  V30 1286 H 129.276 1.04015 -6.39597 0
M  V30 1287 N 122.682 1.50554 0.465978 0
M  V30 1288 C 123.93 1.61479 1.21528 0
M  V30 1289 C 124.251 0.319596 1.92363 0
M  V30 1290 O 123.521 -0.663194 1.84333 0
M  V30 1291 H 122.101 0.595055 0.451573 0
M  V30 1292 H 124.763 1.87355 0.53704 0
M  V30 1293 H 123.859 2.42846 1.96042 0
M  V30 1294 N 124.16 -0.719506 1.40217 0
M  V30 1295 C 125.406 -1.48152 1.38488 0
M  V30 1296 C 125.739 -1.94195 -0.0141867 0
M  V30 1297 O 125.014 -1.67884 -0.982096 0
M  V30 1298 C 125.297 -2.71035 2.37091 0
M  V30 1299 C 125.15 -2.30912 3.86005 0
M  V30 1300 C 126.469 -3.73182 2.33288 0
M  V30 1301 H 123.588 -0.537395 0.504357 0
M  V30 1302 H 126.23 -0.821472 1.71324 0
M  V30 1303 H 124.38 -3.27352 2.0922 0
M  V30 1304 H 126.052 -1.80107 4.24687 0
M  V30 1305 H 124.295 -1.62958 4.02029 0
M  V30 1306 H 124.966 -3.18978 4.50508 0
M  V30 1307 H 127.442 -3.26485 2.57966 0
M  V30 1308 H 126.318 -4.56806 3.04334 0
M  V30 1309 H 126.579 -4.21202 1.34317 0
M  V30 1310 N 125.638 -1.25649 -0.95132 0
M  V30 1311 C 126.868 -1.13179 -1.72841 0
M  V30 1312 C 127.276 0.316827 -1.86528 0
M  V30 1313 O 126.619 1.22948 -1.3649 0
M  V30 1314 C 126.681 -1.71644 -3.15878 0
M  V30 1315 C 126.345 -3.20667 -3.25609 0
M  V30 1316 C 127.342 -4.17616 -3.09666 0
M  V30 1317 C 125.027 -3.6094 -3.49324 0
M  V30 1318 C 127.021 -5.52817 -3.17289 0
M  V30 1319 C 124.708 -4.96278 -3.56584 0
M  V30 1320 C 125.706 -5.92025 -3.40581 0
M  V30 1321 O 125.394 -7.24899 -3.47528 0
M  V30 1322 H 125.126 -0.395389 -0.54831 0
M  V30 1323 H 127.68 -1.66566 -1.20187 0
M  V30 1324 H 125.91 -1.12707 -3.69911 0
M  V30 1325 H 127.599 -1.54225 -3.75459 0
M  V30 1326 H 128.365 -3.87842 -2.91211 0
M  V30 1327 H 124.244 -2.86907 -3.6084 0
M  V30 1328 H 127.788 -6.2753 -3.04716 0
M  V30 1329 H 123.685 -5.25716 -3.74556 0
M  V30 1330 H 124.453 -7.33039 -3.64138 0
M  V30 1331 N 127.117 1.15442 -1.07289 0
M  V30 1332 C 128.08 2.18358 -0.696591 0
M  V30 1333 C 129.08 1.58637 0.262837 0
M  V30 1334 O 130.27 1.74145 0.0438809 0
M  V30 1335 C 127.402 3.4089 -0.0266151 0
M  V30 1336 H 128.595 2.53162 -1.60776 0
M  V30 1337 H 126.148 1.29893 -0.869342 0
M  V30 1338 H 126.883 3.11653 0.896822 0
M  V30 1339 H 126.668 3.85495 -0.716657 0
M  V30 1340 H 128.158 4.17009 0.222028 0
M  V30 1341 N 128.595 0.856903 1.32268 0
M  V30 1342 C 129.844 0.457599 1.96441 0
M  V30 1343 C 130.157 -0.992426 1.68553 0
M  V30 1344 O 131.363 -1.49727 2.26482 0
M  V30 1345 C 129.819 0.767358 3.51624 0
M  V30 1346 C 129.427 2.23326 3.88367 0
M  V30 1347 C 131.171 0.435887 4.22256 0
M  V30 1348 C 129.078 2.48613 5.36606 0
M  V30 1349 H 128.008 0.167387 0.735185 0
M  V30 1350 H 130.659 1.048 1.5063 0
M  V30 1351 H 129.041 0.106367 3.95857 0
M  V30 1352 H 130.215 2.93623 3.55137 0
M  V30 1353 H 128.53 2.52948 3.30766 0
M  V30 1354 H 131.127 0.602202 5.31298 0
M  V30 1355 H 131.47 -0.622672 4.11617 0
M  V30 1356 H 132.003 1.05286 3.83614 0
M  V30 1357 H 128.742 3.53101 5.52268 0
M  V30 1358 H 128.262 1.82896 5.71235 0
M  V30 1359 H 129.941 2.32676 6.03714 0
M  V30 1360 N 130.073 -1.45103 0.615059 0
M  V30 1361 C 131.32 -2.02183 0.113179 0
M  V30 1362 C 131.648 -1.48249 -1.25906 0
M  V30 1363 O 130.903 -0.650265 -1.84581 0
M  V30 1364 C 131.202 -3.57386 0.0318797 0
M  V30 1365 C 130.868 -4.30505 1.34077 0
M  V30 1366 C 129.53 -4.50197 1.69929 0
M  V30 1367 C 131.882 -4.72238 2.20546 0
M  V30 1368 C 129.21 -5.08881 2.91988 0
M  V30 1369 C 131.562 -5.32272 3.41861 0
M  V30 1370 C 130.226 -5.50187 3.77956 0
M  V30 1371 H 129.496 -0.739842 0.0414151 0
M  V30 1372 H 132.143 -1.74073 0.798168 0
M  V30 1373 H 130.448 -3.84817 -0.736409 0
M  V30 1374 H 132.145 -3.99264 -0.372712 0
M  V30 1375 H 128.735 -4.15496 1.05173 0
M  V30 1376 H 132.919 -4.56751 1.94146 0
M  V30 1377 H 128.175 -5.20939 3.2005 0
M  V30 1378 H 132.349 -5.63563 4.09109 0
M  V30 1379 H 129.976 -5.95427 4.72622 0
M  V30 1380 N 131.551 -0.354651 -1.53558 0
M  V30 1381 C 132.799 0.237972 -2.00694 0
M  V30 1382 C 133.12 1.50173 -1.24391 0
M  V30 1383 O 132.39 1.92673 -0.354135 0
M  V30 1384 H 130.97 0.0909256 -0.741446 0
M  V30 1385 H 133.632 -0.478368 -1.88938 0
M  V30 1386 H 132.728 0.47264 -3.085 0
M  V30 1387 N 133.029 1.57378 -0.0835403 0
M  V30 1388 C 134.276 1.9393 0.58287 0
M  V30 1389 C 134.604 0.964455 1.68904 0
M  V30 1390 O 133.859 -0.0179474 1.95692 0
M  V30 1391 C 134.158 3.37063 1.1884 0
M  V30 1392 C 133.824 4.50424 0.207194 0
M  V30 1393 C 132.486 4.81159 -0.0627115 0
M  V30 1394 C 134.838 5.19136 -0.463426 0
M  V30 1395 C 132.166 5.77939 -1.01012 0
M  V30 1396 C 134.518 6.16931 -1.39924 0
M  V30 1397 C 133.182 6.46078 -1.67749 0
M  V30 1398 H 132.452 0.70964 0.213287 0
M  V30 1399 H 135.099 1.90856 -0.156916 0
M  V30 1400 H 133.404 3.3666 2.00418 0
M  V30 1401 H 135.101 3.6264 1.71153 0
M  V30 1402 H 131.691 4.2646 0.427747 0
M  V30 1403 H 135.875 4.95576 -0.268034 0
M  V30 1404 H 131.131 5.98842 -1.23283 0
M  V30 1405 H 135.305 6.69273 -1.92476 0
M  V30 1406 H 132.932 7.2088 -2.41321 0
M  V30 1407 N 134.507 -0.190092 1.56449 0
M  V30 1408 C 135.737 -0.92443 1.84764 0
M  V30 1409 C 136.145 -1.77146 0.664529 0
M  V30 1410 O 135.488 -1.79812 -0.375957 0
M  V30 1411 C 135.55 -1.86651 3.07248 0
M  V30 1412 C 135.214 -1.20094 4.40938 0
M  V30 1413 C 136.211 -0.575445 5.16706 0
M  V30 1414 C 133.896 -1.2033 4.87674 0
M  V30 1415 C 135.89 0.0388111 6.37388 0
M  V30 1416 C 133.577 -0.585214 6.08291 0
M  V30 1417 C 134.575 0.0347578 6.82991 0
M  V30 1418 O 134.263 0.643147 8.01323 0
M  V30 1419 H 133.995 -0.274974 0.617548 0
M  V30 1420 H 136.549 -0.200788 2.04416 0
M  V30 1421 H 134.779 -2.62998 2.83494 0
M  V30 1422 H 136.468 -2.46907 3.22167 0
M  V30 1423 H 137.234 -0.565728 4.81689 0
M  V30 1424 H 133.113 -1.67526 4.29484 0
M  V30 1425 H 136.657 0.523329 6.95634 0
M  V30 1426 H 132.554 -0.592451 6.42775 0
M  V30 1427 H 133.322 0.540545 8.16713 0
M  V30 1428 N 135.985 -1.50799 -0.457987 0
M  V30 1429 C 137.262 -1.52968 -1.21902 0
M  V30 1430 C 137.642 -0.281906 -2.09209 0
M  V30 1431 O 136.99 0.734076 -2.16388 0
M  V30 1432 C 137.2 -2.8326 -2.03875 0
M  V30 1433 C 138.548 -3.34425 -2.6162 0
M  V30 1434 O 139.572 -2.8467 -2.14106 0
M  V30 1435 O 138.431 -4.21188 -3.48228 0
M  V30 1436 H 135.525 -0.614129 -0.553873 0
M  V30 1437 H 138.071 -1.63098 -0.468739 0
M  V30 1438 H 136.843 -3.65543 -1.39621 0
M  V30 1439 H 136.466 -2.76195 -2.8601 0
M  V30 1440 N 137.463 0.71206 -1.40597 0
M  V30 1441 C 138.41 1.82613 -1.41142 0
M  V30 1442 C 139.38 1.63925 -0.267903 0
M  V30 1443 O 140.565 1.85009 -0.466495 0
M  V30 1444 C 137.705 3.20354 -1.28324 0
M  V30 1445 C 136.818 3.50589 -2.52411 0
M  V30 1446 C 135.953 4.77855 -2.32009 0
M  V30 1447 C 134.992 5.01005 -3.51654 0
M  V30 1448 N 134.129 6.19487 -3.30425 0
M  V30 1449 H 138.969 1.81482 -2.36365 0
M  V30 1450 H 136.506 0.886475 -1.17388 0
M  V30 1451 H 138.464 3.99899 -1.18899 0
M  V30 1452 H 137.094 3.20705 -0.367189 0
M  V30 1453 H 136.146 2.65573 -2.72351 0
M  V30 1454 H 137.458 3.63604 -3.41458 0
M  V30 1455 H 136.612 5.65424 -2.19956 0
M  V30 1456 H 135.351 4.67056 -1.40392 0
M  V30 1457 H 134.356 4.1189 -3.64179 0
M  V30 1458 H 135.581 5.13674 -4.44202 0
M  V30 1459 H 133.527 6.09932 -2.41494 0
M  V30 1460 H 133.444 6.33194 -4.13039 0
M  V30 1461 H 134.712 7.09834 -3.22113 0
M  V30 1462 N 138.941 1.26152 0.944643 0
M  V30 1463 C 139.888 1.07408 2.04285 0
M  V30 1464 C 140.858 -0.0198413 1.66088 0
M  V30 1465 O 142.043 0.139264 1.90291 0
M  V30 1466 C 139.183 0.70945 3.37729 0
M  V30 1467 C 138.296 1.87926 3.88983 0
M  V30 1468 C 137.431 1.45807 5.10797 0
M  V30 1469 C 136.47 2.5964 5.54305 0
M  V30 1470 N 135.607 2.18226 6.67324 0
M  V30 1471 H 140.447 2.01389 2.1965 0
M  V30 1472 H 137.984 1.00275 1.07626 0
M  V30 1473 H 139.942 0.478948 4.14442 0
M  V30 1474 H 138.572 -0.193389 3.2222 0
M  V30 1475 H 137.624 2.22279 3.08701 0
M  V30 1476 H 138.936 2.73377 4.17213 0
M  V30 1477 H 138.09 1.18781 5.94959 0
M  V30 1478 H 136.829 0.574414 4.84305 0
M  V30 1479 H 135.834 2.87399 4.68702 0
M  V30 1480 H 137.059 3.48599 5.828 0
M  V30 1481 H 135.005 1.3229 6.42523 0
M  V30 1482 H 134.922 2.97221 6.95123 0
M  V30 1483 H 136.19 1.94403 7.54869 0
M  V30 1484 N 140.419 -1.14872 1.07899 0
M  V30 1485 C 141.644 -1.90202 0.826926 0
M  V30 1486 C 142.069 -1.77774 -0.614664 0
M  V30 1487 O 141.427 -1.11431 -1.43013 0
M  V30 1488 C 141.475 -3.38352 1.24702 0
M  V30 1489 O 140.579 -4.10497 0.39575 0
M  V30 1490 H 139.92 -0.591968 0.300782 0
M  V30 1491 H 142.45 -1.45437 1.43907 0
M  V30 1492 H 142.46 -3.89156 1.22563 0
M  V30 1493 H 141.135 -3.46715 2.29698 0
M  V30 1494 H 139.712 -3.69796 0.480117 0
M  V30 1495 N 141.898 -0.863906 -1.31812 0
M  V30 1496 C 143.144 -0.472535 -1.97218 0
M  V30 1497 C 143.477 0.971394 -1.68159 0
M  V30 1498 O 142.752 1.68309 -0.974798 0
M  V30 1499 C 143.035 -0.723054 -3.52766 0
M  V30 1500 C 142.888 -2.21608 -3.91421 0
M  V30 1501 C 144.207 -0.185522 -4.39709 0
M  V30 1502 H 141.326 -0.173158 -0.71637 0
M  V30 1503 H 143.968 -1.08403 -1.56041 0
M  V30 1504 H 142.118 -0.202577 -3.87971 0
M  V30 1505 H 143.79 -2.80334 -3.66347 0
M  V30 1506 H 142.033 -2.691 -3.40246 0
M  V30 1507 H 142.704 -2.34203 -4.99853 0
M  V30 1508 H 145.18 -0.630726 -4.11292 0
M  V30 1509 H 144.056 -0.390306 -5.47511 0
M  V30 1510 H 144.317 0.912229 -4.32586 0
M  V30 1511 N 143.376 1.44774 -0.622745 0
M  V30 1512 C 144.324 2.32387 0.0994683 0
M  V30 1513 C 145.318 1.46859 0.844326 0
M  V30 1514 O 146.524 1.63254 0.758174 0
M  V30 1515 H 142.899 0.750273 0.0509291 0
M  V30 1516 H 144.87 2.91062 -0.65767 0
M  V30 1517 C 143.619 3.30723 1.07319 0
M  V30 1518 H 142.942 3.96541 0.509462 0
M  V30 1519 H 144.382 3.94725 1.54817 0
M  V30 1520 C 142.841 2.59021 2.15429 0
M  V30 1521 O 143.371 2.38286 3.23393 0
M  V30 1522 N 141.577 2.189 1.91131 0
M  V30 1523 H 141.124 2.35964 1.03337 0
M  V30 1524 H 141.082 1.71251 2.63668 0
M  V30 1525 N 144.854 0.36279 1.53368 0
M  V30 1526 C 146.082 -0.228613 2.05633 0
M  V30 1527 C 146.497 -1.42676 1.23649 0
M  V30 1528 O 145.854 -1.80394 0.27647 0
M  V30 1529 C 145.905 -0.624845 3.56059 0
M  V30 1530 O 145.626 0.525675 4.34935 0
M  V30 1531 C 147.127 -1.27493 4.24571 0
M  V30 1532 H 144.347 -0.0407183 0.669763 0
M  V30 1533 H 146.891 0.520352 1.97769 0
M  V30 1534 H 145.046 -1.32373 3.64083 0
M  V30 1535 H 145.46 0.205969 5.24095 0
M  V30 1536 H 146.934 -1.50277 5.31151 0
M  V30 1537 H 147.411 -2.23439 3.78116 0
M  V30 1538 H 148.017 -0.617558 4.20792 0
M  V30 1539 N 146.332 -1.57332 0.0918853 0
M  V30 1540 C 147.581 -1.93412 -0.572249 0
M  V30 1541 C 147.894 -0.975515 -1.69538 0
M  V30 1542 O 149.1 -1.22991 -2.42045 0
M  V30 1543 C 147.556 -3.43648 -1.0693 0
M  V30 1544 C 147.164 -4.47994 0.0239049 0
M  V30 1545 C 148.908 -3.88695 -1.70635 0
M  V30 1546 C 146.815 -5.89381 -0.488319 0
M  V30 1547 H 145.745 -0.721939 -0.217532 0
M  V30 1548 H 148.396 -1.82735 0.167369 0
M  V30 1549 H 146.778 -3.49466 -1.8625 0
M  V30 1550 H 147.952 -4.53815 0.799277 0
M  V30 1551 H 146.267 -4.12536 0.565946 0
M  V30 1552 H 148.864 -4.91725 -2.10025 0
M  V30 1553 H 149.207 -3.27166 -2.57426 0
M  V30 1554 H 149.74 -3.85564 -0.979023 0
M  V30 1555 H 146.479 -6.54602 0.342906 0
M  V30 1556 H 145.999 -5.87037 -1.23077 0
M  V30 1557 H 147.678 -6.39863 -0.958317 0
M  V30 1558 N 147.81 0.181792 -1.56548 0
M  V30 1559 C 149.038 0.915947 -1.85521 0
M  V30 1560 C 149.453 1.76282 -0.676016 0
M  V30 1561 O 148.81 1.79012 0.355077 0
M  V30 1562 C 148.861 1.80126 -3.13427 0
M  V30 1563 O 148.582 0.988562 -4.26801 0
M  V30 1564 C 150.083 2.64597 -3.55673 0
M  V30 1565 H 147.303 0.26661 -0.61576 0
M  V30 1566 H 149.847 0.185039 -2.03661 0
M  V30 1567 H 148.002 2.48563 -2.97145 0
M  V30 1568 H 148.416 1.59308 -4.99721 0
M  V30 1569 H 149.89 3.2235 -4.48101 0
M  V30 1570 H 150.367 3.38958 -2.79292 0
M  V30 1571 H 150.973 2.0151 -3.74532 0
M  V30 1572 N 149.288 1.51039 0.449983 0
M  V30 1573 C 150.513 1.6715 1.22783 0
M  V30 1574 C 150.938 0.363081 1.84563 0
M  V30 1575 O 150.296 -0.675433 1.68249 0
M  V30 1576 C 150.344 2.77985 2.29689 0
M  V30 1577 O 149.448 2.40707 3.34864 0
M  V30 1578 H 148.789 0.557746 0.360299 0
M  V30 1579 H 151.319 1.97535 0.533005 0
M  V30 1580 H 151.329 3.01693 2.74673 0
M  V30 1581 H 150.004 3.72935 1.84098 0
M  V30 1582 H 148.581 2.27523 2.95445 0
M  V30 1583 N 150.766 -0.704594 1.40972 0
M  V30 1584 C 152.013 -1.46458 1.39844 0
M  V30 1585 C 152.341 -1.94499 0.00447594 0
M  V30 1586 O 151.596 -1.69275 -0.982057 0
M  V30 1587 C 151.895 -2.698 2.34399 0
M  V30 1588 C 151.561 -2.40464 3.81429 0
M  V30 1589 C 150.223 -2.32174 4.21484 0
M  V30 1590 C 152.575 -2.16086 4.74296 0
M  V30 1591 C 149.903 -1.97589 5.52427 0
M  V30 1592 C 152.255 -1.83011 6.05549 0
M  V30 1593 C 150.919 -1.7321 6.44635 0
M  V30 1594 H 150.189 -0.535927 0.511725 0
M  V30 1595 H 152.836 -0.806124 1.73706 0
M  V30 1596 H 151.141 -3.40536 1.93759 0
M  V30 1597 H 152.838 -3.27919 2.30804 0
M  V30 1598 H 149.428 -2.47808 3.49699 0
M  V30 1599 H 153.612 -2.2144 4.4416 0
M  V30 1600 H 148.868 -1.88547 5.81601 0
M  V30 1601 H 153.042 -1.63164 6.77016 0
M  V30 1602 H 150.669 -1.46179 7.46013 0
M  V30 1603 N 152.244 -1.26651 -0.937939 0
M  V30 1604 C 153.484 -1.13611 -1.69917 0
M  V30 1605 C 153.848 0.314687 -1.89404 0
M  V30 1606 O 155.049 0.567285 -2.62746 0
M  V30 1607 C 153.32 -1.88742 -3.03498 0
M  V30 1608 S 154.879 -1.91794 -3.94665 0
M  V30 1609 H 151.697 -0.405767 -0.583844 0
M  V30 1610 H 154.299 -1.60416 -1.11745 0
M  V30 1611 H 153.003 -2.9336 -2.86999 0
M  V30 1612 H 152.534 -1.42391 -3.66727 0
M  V30 1613 H 154.549 -1.00698 -4.85875 0
M  V30 1614 N 153.722 1.14298 -1.08507 0
M  V30 1615 C 154.97 1.84993 -0.813763 0
M  V30 1616 C 155.291 1.83405 0.662393 0
M  V30 1617 O 154.561 1.28319 1.48024 0
M  V30 1618 H 153.141 0.684966 -0.298045 0
M  V30 1619 H 155.803 1.385 -1.37126 0
M  V30 1620 H 154.899 2.89788 -1.15884 0
M  V30 1621 N 155.201 0.870884 1.31352 0
M  V30 1622 C 156.429 0.49677 2.00848 0
M  V30 1623 C 156.844 -0.910998 1.65367 0
M  V30 1624 O 156.201 -1.59696 0.883374 0
M  V30 1625 C 156.252 0.645308 3.55694 0
M  V30 1626 O 155.973 1.99764 3.89905 0
M  V30 1627 C 157.474 0.272326 4.42463 0
M  V30 1628 H 154.694 0.193462 0.642506 0
M  V30 1629 H 157.238 1.1723 1.67563 0
M  V30 1630 H 155.393 0.0173176 3.87396 0
M  V30 1631 H 155.807 2.00607 4.84621 0
M  V30 1632 H 157.281 0.427208 5.50344 0
M  V30 1633 H 157.758 -0.788587 4.32062 0
M  V30 1634 H 158.364 0.876054 4.1618 0
M  V30 1635 N 156.679 -1.44442 0.630414 0
M  V30 1636 C 157.609 -2.33418 -0.0618083 0
M  V30 1637 C 158.59 -1.48165 -0.835541 0
M  V30 1638 O 159.775 -1.76886 -0.801564 0
M  V30 1639 C 156.905 -3.31222 -1.04449 0
M  V30 1640 C 155.859 -4.26288 -0.382436 0
M  V30 1641 C 155.185 -5.13954 -1.47497 0
M  V30 1642 C 156.485 -5.1744 0.710865 0
M  V30 1643 H 158.179 -2.91548 0.681184 0
M  V30 1644 H 155.725 -1.40191 0.329026 0
M  V30 1645 H 157.678 -3.92351 -1.53748 0
M  V30 1646 H 156.402 -2.71299 -1.81836 0
M  V30 1647 H 155.061 -3.6649 0.0899054 0
M  V30 1648 H 154.709 -4.50385 -2.2397 0
M  V30 1649 H 154.409 -5.7837 -1.03737 0
M  V30 1650 H 155.933 -5.77955 -1.96979 0
M  V30 1651 H 157.347 -5.72509 0.300996 0
M  V30 1652 H 155.744 -5.90455 1.07156 0
M  V30 1653 H 156.814 -4.58496 1.57829 0
M  V30 1654 N 158.157 -0.370918 -1.53173 0
M  V30 1655 C 159.107 0.489588 -2.22681 0
M  V30 1656 C 160.091 1.04442 -1.22395 0
M  V30 1657 O 161.283 0.973578 -1.47819 0
M  V30 1658 C 158.412 1.626 -3.02351 0
M  V30 1659 C 157.498 1.08379 -4.10018 0
M  V30 1660 N 157.889 0.265004 -5.05105 0
M  V30 1661 C 156.187 1.35809 -4.2482 0
M  V30 1662 C 156.888 -0.0324755 -5.81691 0
M  V30 1663 N 155.864 0.566581 -5.40639 0
M  V30 1664 H 159.666 -0.142729 -2.93553 0
M  V30 1665 H 157.18 -0.179221 -1.61408 0
M  V30 1666 H 159.177 2.2547 -3.50669 0
M  V30 1667 H 157.837 2.26132 -2.33011 0
M  V30 1668 H 158.848 -0.0962352 -5.17811 0
M  V30 1669 H 155.525 1.9958 -3.66707 0
M  V30 1670 H 156.915 -0.69473 -6.68299 0
M  V30 1671 N 159.635 1.57281 -0.100228 0
M  V30 1672 C 160.881 1.94826 0.563101 0
M  V30 1673 C 161.214 0.982475 1.67514 0
M  V30 1674 O 160.489 0.0164069 1.94493 0
M  V30 1675 C 160.772 3.42453 1.11346 0
M  V30 1676 C 160.625 4.498 0.00612081 0
M  V30 1677 C 161.944 3.91506 2.01024 0
M  V30 1678 H 159.063 0.708428 0.203221 0
M  V30 1679 H 161.705 1.8922 -0.171979 0
M  V30 1680 H 159.855 3.47361 1.7399 0
M  V30 1681 H 161.527 4.57 -0.628357 0
M  V30 1682 H 159.77 4.28756 -0.659581 0
M  V30 1683 H 160.441 5.50306 0.432109 0
M  V30 1684 H 162.917 3.88784 1.48278 0
M  V30 1685 H 161.793 4.95358 2.36457 0
M  V30 1686 H 162.054 3.31099 2.92961 0
M  V30 1687 N 161.113 -0.173488 1.56642 0
M  V30 1688 C 162.338 -0.910149 1.86363 0
M  V30 1689 C 162.763 -1.75132 0.686318 0
M  V30 1690 O 162.121 -1.77595 -0.364643 0
M  V30 1691 C 162.169 -1.76447 3.14482 0
M  V30 1692 O 161.273 -2.86584 2.96553 0
M  V30 1693 H 160.614 -0.255086 0.613047 0
M  V30 1694 H 163.144 -0.172283 2.03873 0
M  V30 1695 H 163.154 -2.16483 3.45831 0
M  V30 1696 H 161.829 -1.14658 3.99783 0
M  V30 1697 H 160.406 -2.50146 2.76553 0
M  V30 1698 N 162.591 -1.51276 -0.441967 0
M  V30 1699 C 163.838 -1.63715 -1.19179 0
M  V30 1700 C 164.166 -0.351175 -1.91303 0
M  V30 1701 O 163.421 0.664524 -1.84072 0
M  V30 1702 C 163.72 -2.78746 -2.23686 0
M  V30 1703 C 163.386 -4.18189 -1.68607 0
M  V30 1704 C 162.048 -4.56125 -1.53308 0
M  V30 1705 C 164.4 -5.05222 -1.28062 0
M  V30 1706 C 161.728 -5.78804 -0.959317 0
M  V30 1707 C 164.08 -6.28476 -0.721162 0
M  V30 1708 C 162.744 -6.65188 -0.55504 0
M  V30 1709 H 162.014 -0.599076 -0.436106 0
M  V30 1710 H 164.661 -1.85296 -0.48351 0
M  V30 1711 H 162.966 -2.51369 -3.00535 0
M  V30 1712 H 164.663 -2.8557 -2.81515 0
M  V30 1713 H 161.253 -3.88277 -1.8149 0
M  V30 1714 H 165.437 -4.76524 -1.38704 0
M  V30 1715 H 160.693 -6.05899 -0.81833 0
M  V30 1716 H 164.867 -6.95259 -0.398458 0
M  V30 1717 H 162.494 -7.60123 -0.108311 0
M  V30 1718 N 164.069 0.697108 -1.41344 0
M  V30 1719 C 165.318 1.45279 -1.39918 0
M  V30 1720 C 165.631 1.95597 -0.0109624 0
M  V30 1721 O 166.837 2.71208 0.125919 0
M  V30 1722 C 165.293 2.62695 -2.46007 0
M  V30 1723 C 164.901 2.19169 -3.90729 0
M  V30 1724 C 166.645 3.40336 -2.53715 0
M  V30 1725 C 164.552 3.33535 -4.88373 0
M  V30 1726 H 163.482 0.545692 -0.520323 0
M  V30 1727 H 166.133 0.756929 -1.67161 0
M  V30 1728 H 164.515 3.34541 -2.11892 0
M  V30 1729 H 165.689 1.54623 -4.34083 0
M  V30 1730 H 164.004 1.54525 -3.86666 0
M  V30 1731 H 166.601 4.2547 -3.2385 0
M  V30 1732 H 166.944 3.85418 -1.5735 0
M  V30 1733 H 167.477 2.75546 -2.86913 0
M  V30 1734 H 164.216 2.93468 -5.86137 0
M  V30 1735 H 163.736 3.96936 -4.49668 0
M  V30 1736 H 165.415 3.99335 -5.09059 0
M  V30 1737 N 165.547 1.27147 0.931209 0
M  V30 1738 C 166.775 1.16082 1.71267 0
M  V30 1739 C 167.19 -0.282772 1.8667 0
M  V30 1740 O 166.547 -1.19283 1.38122 0
M  V30 1741 C 166.598 1.8358 3.11417 0
M  V30 1742 O 166.319 3.22299 2.96741 0
M  V30 1743 C 167.82 1.78597 4.05732 0
M  V30 1744 H 165.04 0.403758 0.535929 0
M  V30 1745 H 167.584 1.67953 1.16671 0
M  V30 1746 H 165.739 1.35623 3.62885 0
M  V30 1747 H 166.153 3.55851 3.85319 0
M  V30 1748 H 167.627 2.30444 5.01597 0
M  V30 1749 H 168.104 0.754564 4.3267 0
M  V30 1750 H 168.71 2.26152 3.60188 0
M  V30 1751 N 167.025 -1.13721 1.09112 0
M  V30 1752 C 168.436 -1.6648 0.845068 0
M  V30 1753 C 168.787 -1.85911 -0.62701 0
M  V30 1754 O 167.912 -1.57556 -1.48341 0
M  V30 1755 C 168.507 -3.02413 1.52748 0
M  V30 1756 C 167.066 -3.52176 1.32849 0
M  V30 1757 C 166.213 -2.27492 1.58564 0
M  V30 1758 H 169.164 -0.976872 1.25072 0
M  V30 1759 H 169.185 -3.68223 0.958752 0
M  V30 1760 H 168.697 -2.88238 2.59885 0
M  V30 1761 H 166.798 -3.7156 0.278137 0
M  V30 1762 H 166.911 -4.32499 2.0611 0
M  V30 1763 H 165.275 -2.33923 1.00758 0
M  V30 1764 H 166.058 -2.15886 2.66924 0
M  V30 1765 N 168.503 -0.877838 -1.30888 0
M  V30 1766 C 169.728 -0.506629 -2.01117 0
M  V30 1767 C 170.153 0.895564 -1.65412 0
M  V30 1768 O 169.511 1.5923 -0.866922 0
M  V30 1769 C 169.559 -0.680223 -3.54126 0
M  V30 1770 O 168.663 0.277033 -4.11468 0
M  V30 1771 H 168.004 -0.200518 -0.633 0
M  V30 1772 H 170.534 -1.18342 -1.66902 0
M  V30 1773 H 170.544 -0.5765 -4.03907 0
M  V30 1774 H 169.219 -1.70261 -3.79452 0
M  V30 1775 H 167.796 0.127606 -3.72682 0
M  V30 1776 N 169.982 1.44106 -0.638065 0
M  V30 1777 C 171.229 2.01978 -0.14533 0
M  V30 1778 C 171.557 1.50234 1.23532 0
M  V30 1779 O 170.812 0.679548 1.83523 0
M  V30 1780 C 171.111 3.5729 -0.0887327 0
M  V30 1781 C 170.777 4.28317 -1.40909 0
M  V30 1782 C 169.439 4.47437 -1.77069 0
M  V30 1783 C 171.791 4.6867 -2.28031 0
M  V30 1784 C 169.119 5.04171 -3.00047 0
M  V30 1785 C 171.471 5.26766 -3.50286 0
M  V30 1786 C 170.135 5.44104 -3.86661 0
M  V30 1787 H 169.405 0.739089 -0.0531801 0
M  V30 1788 H 172.052 1.72781 -0.825761 0
M  V30 1789 H 170.357 3.8594 0.675095 0
M  V30 1790 H 172.054 3.99807 0.309145 0
M  V30 1791 H 168.644 4.1377 -1.1177 0
M  V30 1792 H 172.828 4.53604 -2.01388 0
M  V30 1793 H 168.084 5.15782 -3.28298 0
M  V30 1794 H 172.258 5.56983 -4.18023 0
M  V30 1795 H 169.885 5.87832 -4.82034 0
M  V30 1796 N 171.46 0.379036 1.52974 0
M  V30 1797 C 172.871 -0.0972525 1.86447 0
M  V30 1798 C 173.222 -1.47027 1.29914 0
M  V30 1799 O 172.347 -2.07135 0.626433 0
M  V30 1800 C 172.942 -0.183248 3.38304 0
M  V30 1801 C 171.501 -0.603812 3.71525 0
M  V30 1802 C 170.648 0.240632 2.76254 0
M  V30 1803 H 173.599 0.597316 1.4703 0
M  V30 1804 H 173.62 -1.00432 3.67006 0
M  V30 1805 H 173.132 0.816191 3.79421 0
M  V30 1806 H 171.233 -1.61099 3.35973 0
M  V30 1807 H 171.346 -0.369086 4.77676 0
M  V30 1808 H 169.71 -0.292548 2.53014 0
M  V30 1809 H 170.493 1.23786 3.20206 0
M  V30 1810 N 172.938 -1.57226 0.108567 0
M  V30 1811 C 174.166 -1.99179 -0.559954 0
M  V30 1812 C 174.581 -0.988022 -1.60884 0
M  V30 1813 O 173.938 0.0205512 -1.82488 0
M  V30 1814 C 173.989 -3.41159 -1.19552 0
M  V30 1815 O 173.71 -4.37694 -0.188577 0
M  V30 1816 C 175.211 -3.98188 -1.94837 0
M  V30 1817 H 172.431 -0.654228 -0.149088 0
M  V30 1818 H 174.975 -2.03598 0.19183 0
M  V30 1819 H 173.13 -3.37711 -1.89815 0
M  V30 1820 H 173.544 -5.20469 -0.649014 0
M  V30 1821 H 175.018 -4.99644 -2.34648 0
M  V30 1822 H 175.495 -3.3675 -2.81951 0
M  V30 1823 H 176.101 -4.0515 -1.2936 0
M  V30 1824 N 174.416 0.165178 -1.56732 0
M  V30 1825 C 175.693 0.908443 -1.73224 0
M  V30 1826 C 176.073 2.0013 -0.67165 0
M  V30 1827 O 175.421 2.26353 0.31253 0
M  V30 1828 C 175.631 1.46756 -3.16644 0
M  V30 1829 C 176.979 1.93809 -3.77787 0
M  V30 1830 O 178.003 1.56537 -3.1996 0
M  V30 1831 O 176.862 2.62486 -4.79336 0
M  V30 1832 H 173.956 0.428025 -0.707618 0
M  V30 1833 H 176.502 0.152526 -1.69013 0
M  V30 1834 H 175.274 0.68129 -3.85323 0
M  V30 1835 H 174.897 2.28749 -3.25207 0
M  V30 1836 N 175.894 1.51508 0.433938 0
M  V30 1837 C 177.142 1.6402 1.18075 0
M  V30 1838 C 177.463 0.360328 1.91642 0
M  V30 1839 O 176.733 -0.623945 1.85698 0
M  V30 1840 H 175.313 0.6045 0.43885 0
M  V30 1841 H 177.975 1.88452 0.497178 0
M  V30 1842 H 177.071 2.46949 1.90847 0
M  V30 1843 N 177.372 -0.689602 1.41712 0
M  V30 1844 C 178.6 -1.47827 1.44758 0
M  V30 1845 C 179.015 -1.88721 0.0545703 0
M  V30 1846 O 178.372 -1.57176 -0.927463 0
M  V30 1847 C 178.423 -2.73698 2.3616 0
M  V30 1848 O 178.144 -2.34524 3.7004 0
M  V30 1849 C 179.645 -3.67389 2.48072 0
M  V30 1850 H 176.865 -0.455357 0.49284 0
M  V30 1851 H 179.409 -0.848574 1.86063 0
M  V30 1852 H 177.564 -3.32891 1.98148 0
M  V30 1853 H 177.978 -3.15701 4.18847 0
M  V30 1854 H 179.452 -4.52475 3.16181 0
M  V30 1855 H 179.929 -4.12284 1.51388 0
M  V30 1856 H 180.535 -3.14097 2.86746 0
M  V30 1857 N 178.85 -1.27639 -0.924453 0
M  V30 1858 C 179.8 -1.07295 -2.01176 0
M  V30 1859 C 180.784 5.77352e-05 -1.609 0
M  V30 1860 O 181.976 -0.218855 -1.75642 0
M  V30 1861 C 179.105 -0.725592 -3.35544 0
M  V30 1862 C 178.191 -1.83691 -3.82254 0
M  V30 1863 N 178.582 -3.07697 -4.01443 0
M  V30 1864 C 176.88 -1.72433 -4.11319 0
M  V30 1865 C 177.581 -3.80037 -4.40394 0
M  V30 1866 N 176.557 -3.0782 -4.48049 0
M  V30 1867 H 180.359 -2.01399 -2.14046 0
M  V30 1868 H 177.873 -1.18401 -1.11153 0
M  V30 1869 H 179.87 -0.560959 -4.13109 0
M  V30 1870 H 178.53 0.207782 -3.24034 0
M  V30 1871 H 179.541 -3.43424 -3.8766 0
M  V30 1872 H 176.218 -0.862005 -4.08504 0
M  V30 1873 H 177.608 -4.86632 -4.63291 0
M  V30 1874 N 180.328 1.1314 -1.09713 0
M  V30 1875 C 181.739 1.66029 -0.853885 0
M  V30 1876 C 182.09 1.86241 0.617142 0
M  V30 1877 O 181.215 1.5834 1.47503 0
M  V30 1878 C 181.81 3.01599 -1.5435 0
M  V30 1879 C 180.369 3.51467 -1.34714 0
M  V30 1880 C 179.516 2.26648 -1.59769 0
M  V30 1881 H 182.467 0.970226 -1.25588 0
M  V30 1882 H 182.488 3.67709 -0.978267 0
M  V30 1883 H 182 2.86856 -2.6141 0
M  V30 1884 H 180.101 3.71408 -0.297838 0
M  V30 1885 H 180.214 4.314 -2.08401 0
M  V30 1886 H 178.578 2.33385 -1.01998 0
M  V30 1887 H 179.361 2.14467 -2.68065 0
M  V30 1888 N 181.806 0.884767 1.30421 0
M  V30 1889 C 183.053 0.503105 1.96151 0
M  V30 1890 C 183.381 -0.947676 1.69851 0
M  V30 1891 O 182.636 -1.68467 0.995861 0
M  V30 1892 C 182.935 0.724318 3.49983 0
M  V30 1893 C 182.601 2.15015 3.96332 0
M  V30 1894 C 181.263 2.54005 4.08699 0
M  V30 1895 C 183.615 3.07936 4.20505 0
M  V30 1896 C 180.943 3.85128 4.42599 0
M  V30 1897 C 183.295 4.3859 4.55874 0
M  V30 1898 C 181.959 4.77474 4.66449 0
M  V30 1899 H 181.229 0.184099 0.717766 0
M  V30 1900 H 183.876 1.12058 1.55291 0
M  V30 1901 H 182.181 0.0238086 3.91793 0
M  V30 1902 H 183.878 0.408617 3.98913 0
M  V30 1903 H 180.468 1.8375 3.87213 0
M  V30 1904 H 184.652 2.79033 4.10431 0
M  V30 1905 H 179.908 4.14996 4.48986 0
M  V30 1906 H 184.082 5.10629 4.7353 0
M  V30 1907 H 181.709 5.79115 4.92473 0
M  V30 1908 N 183.284 -1.43765 0.645699 0
M  V30 1909 C 184.53 -2.02197 0.156271 0
M  V30 1910 C 184.863 -1.50776 -1.22393 0
M  V30 1911 O 184.138 -0.697771 -1.81553 0
M  V30 1912 C 184.421 -3.59749 0.158872 0
M  V30 1913 C 184.274 -4.21419 1.57245 0
M  V30 1914 C 185.593 -4.37149 -0.50879 0
M  V30 1915 H 182.712 -0.734694 0.0582602 0
M  V30 1916 H 185.354 -1.71157 0.824951 0
M  V30 1917 H 183.504 -3.86325 -0.410525 0
M  V30 1918 H 185.176 -4.059 2.19186 0
M  V30 1919 H 183.419 -3.78356 2.122 0
M  V30 1920 H 184.09 -5.30482 1.52619 0
M  V30 1921 H 186.566 -4.16093 -0.024412 0
M  V30 1922 H 185.442 -5.4683 -0.476213 0
M  V30 1923 H 185.703 -4.12839 -1.58165 0
M  V30 1924 N 184.763 -0.387143 -1.52771 0
M  V30 1925 C 186.012 0.19697 -2.00736 0
M  V30 1926 C 186.325 1.48082 -1.27793 0
M  V30 1927 O 187.531 2.14485 -1.66458 0
M  V30 1928 C 185.987 0.401568 -3.57653 0
M  V30 1929 C 185.595 -0.868907 -4.39493 0
M  V30 1930 C 187.339 0.942164 -4.13912 0
M  V30 1931 C 185.246 -0.632705 -5.88006 0
M  V30 1932 H 184.176 0.0773827 -0.750019 0
M  V30 1933 H 186.827 -0.50921 -1.76293 0
M  V30 1934 H 185.209 1.16954 -3.78335 0
M  V30 1935 H 186.383 -1.64133 -4.30577 0
M  V30 1936 H 184.698 -1.33429 -3.94443 0
M  V30 1937 H 187.295 1.13455 -5.22525 0
M  V30 1938 H 187.638 1.9106 -3.69867 0
M  V30 1939 H 188.171 0.233814 -3.97112 0
M  V30 1940 H 184.91 -1.57208 -6.36369 0
M  V30 1941 H 184.43 0.100825 -5.99715 0
M  V30 1942 H 186.109 -0.26642 -6.46451 0
M  V30 1943 N 186.241 1.57166 -0.116904 0
M  V30 1944 C 187.173 2.12271 0.864507 0
M  V30 1945 C 188.186 1.06494 1.23138 0
M  V30 1946 O 189.375 1.33873 1.18069 0
M  V30 1947 C 186.475 2.60564 2.16702 0
M  V30 1948 C 185.648 3.90416 1.97216 0
M  V30 1949 C 184.707 4.24329 3.11178 0
M  V30 1950 O 183.733 4.93182 2.84184 0
M  V30 1951 N 184.935 3.8148 4.37554 0
M  V30 1952 H 187.7 2.97102 0.393726 0
M  V30 1953 H 185.261 1.61759 0.0675805 0
M  V30 1954 H 187.253 2.80282 2.91932 0
M  V30 1955 H 185.823 1.80623 2.55135 0
M  V30 1956 H 185.043 3.79627 1.06192 0
M  V30 1957 H 186.331 4.75327 1.81499 0
M  V30 1958 H 185.729 3.25943 4.62361 0
M  V30 1959 H 184.286 4.06311 5.09661 0
M  V30 1960 N 187.719 -0.156864 1.56817 0
M  V30 1961 C 188.652 -1.22316 1.9265 0
M  V30 1962 C 189.63 -1.42059 0.791076 0
M  V30 1963 O 190.814 -1.56831 1.04576 0
M  V30 1964 C 187.941 -2.58375 2.18998 0
M  V30 1965 C 186.987 -2.55284 3.41661 0
M  V30 1966 S 187.82 -2.02946 4.95553 0
M  V30 1967 C 188.976 -3.40753 5.25013 0
M  V30 1968 H 189.209 -0.917403 2.82791 0
M  V30 1969 H 186.742 -0.362059 1.50095 0
M  V30 1970 H 188.7 -3.36677 2.34859 0
M  V30 1971 H 187.361 -2.86145 1.29538 0
M  V30 1972 H 186.554 -3.55418 3.57343 0
M  V30 1973 H 186.156 -1.85086 3.24991 0
M  V30 1974 H 188.448 -4.36819 5.17876 0
M  V30 1975 H 189.391 -3.29933 6.26538 0
M  V30 1976 H 189.799 -3.37433 4.52548 0
M  V30 1977 N 189.197 -1.51736 -0.425897 0
M  V30 1978 C 190.613 -1.40166 -0.76326 0
M  V30 1979 C 190.813 -0.492962 -1.95377 0
M  V30 1980 O 189.869 0.0475815 -2.52455 0
M  V30 1981 C 191.182 -2.82403 -1.03291 0
M  V30 1982 C 192.73 -2.91632 -1.13665 0
M  V30 1983 C 193.205 -4.34801 -1.43916 0
M  V30 1984 N 194.696 -4.3796 -1.50816 0
M  V30 1985 C 195.431 -5.4578 -1.75817 0
M  V30 1986 N 194.927 -6.63744 -1.98534 0
M  V30 1987 N 196.72 -5.33274 -1.77694 0
M  V30 1988 H 188.871 -2.09361 0.358 0
M  V30 1989 H 191.134 -0.942941 0.0978094 0
M  V30 1990 H 190.84 -3.50943 -0.230696 0
M  V30 1991 H 190.714 -3.22428 -1.95754 0
M  V30 1992 H 193.101 -2.23284 -1.92947 0
M  V30 1993 H 193.182 -2.55088 -0.190756 0
M  V30 1994 H 192.826 -5.03703 -0.65157 0
M  V30 1995 H 192.756 -4.68868 -2.39729 0
M  V30 1996 H 195.247 -3.52919 -1.35118 0
M  V30 1997 H 195.56 -7.41704 -2.17013 0
M  V30 1998 H 193.905 -6.66839 -1.95832 0
M  V30 1999 H 197.096 -4.40098 -1.59473 0
M  V30 2000 H 197.269 -6.1738 -1.9684 0
M  V30 2001 N 190.675 0.682077 -1.42076 0
M  V30 2002 C 192.086 1.26246 -1.37546 0
M  V30 2003 C 192.437 1.96092 -0.0651481 0
M  V30 2004 O 191.562 1.99587 0.836297 0
M  V30 2005 C 192.157 2.29594 -2.49143 0
M  V30 2006 C 190.716 2.83175 -2.47969 0
M  V30 2007 C 189.863 1.57395 -2.28303 0
M  V30 2008 H 192.814 0.475937 -1.51395 0
M  V30 2009 H 192.835 3.11175 -2.18976 0
M  V30 2010 H 192.347 1.78729 -3.44496 0
M  V30 2011 H 190.448 3.3818 -1.56413 0
M  V30 2012 H 190.561 3.32687 -3.44755 0
M  V30 2013 H 188.925 1.83699 -1.76428 0
M  V30 2014 H 189.708 1.08507 -3.25701 0
M  V30 2015 N 192.153 1.28127 0.917671 0
M  V30 2016 C 193.43 1.05761 1.64542 0
M  V30 2017 C 193.81 -0.404344 2.07191 0
M  V30 2018 O 193.158 -1.38963 1.81388 0
M  V30 2019 C 193.368 2.02857 2.83989 0
M  V30 2020 C 194.716 2.32786 3.551 0
M  V30 2021 O 195.74 2.0091 2.94132 0
M  V30 2022 O 194.599 2.87169 4.64969 0
M  V30 2023 H 191.693 0.403916 0.721652 0
M  V30 2024 H 194.239 1.39431 0.967322 0
M  V30 2025 H 193.011 3.01407 2.49538 0
M  V30 2026 H 192.634 1.69809 3.59514 0
M  V30 2027 N 193.631 -1.12557 1.10312 0
M  V30 2028 C 194.561 -2.20341 0.772798 0
M  V30 2029 C 195.542 -1.68198 -0.25365 0
M  V30 2030 O 196.727 -1.93831 -0.119699 0
M  V30 2031 C 193.857 -3.46709 0.202443 0
M  V30 2032 C 192.811 -4.11996 1.15943 0
M  V30 2033 C 192.137 -5.328 0.450345 0
M  V30 2034 C 193.437 -4.5828 2.50552 0
M  V30 2035 H 195.131 -2.48229 1.674 0
M  V30 2036 H 192.677 -1.19308 0.806326 0
M  V30 2037 H 194.63 -4.2138 -0.0407752 0
M  V30 2038 H 193.354 -3.18245 -0.734001 0
M  V30 2039 H 192.013 -3.39305 1.38808 0
M  V30 2040 H 191.661 -5.00602 -0.490531 0
M  V30 2041 H 191.361 -5.7743 1.08851 0
M  V30 2042 H 192.885 -6.10219 0.215642 0
M  V30 2043 H 194.299 -5.2433 2.31843 0
M  V30 2044 H 192.696 -5.13683 3.10242 0
M  V30 2045 H 193.766 -3.72329 3.10643 0
M  V30 2046 N 195.109 -0.891671 -1.2995 0
M  V30 2047 C 196.056 -0.361736 -2.27948 0
M  V30 2048 C 197.026 0.551761 -1.56668 0
M  V30 2049 O 198.211 0.478736 -1.84696 0
M  V30 2050 C 195.351 0.411825 -3.42634 0
M  V30 2051 C 194.464 -0.531651 -4.28716 0
M  V30 2052 C 193.599 0.258167 -5.30572 0
M  V30 2053 C 192.638 -0.680349 -6.08307 0
M  V30 2054 N 191.775 0.0745613 -7.0206 0
M  V30 2055 H 196.615 -1.20254 -2.72659 0
M  V30 2056 H 194.152 -0.604352 -1.34112 0
M  V30 2057 H 196.11 0.876304 -4.07893 0
M  V30 2058 H 194.74 1.21715 -2.98974 0
M  V30 2059 H 193.792 -1.11463 -3.63703 0
M  V30 2060 H 195.104 -1.25038 -4.82874 0
M  V30 2061 H 194.258 0.784204 -6.0161 0
M  V30 2062 H 192.997 1.01008 -4.77126 0
M  V30 2063 H 192.002 -1.21796 -5.3614 0
M  V30 2064 H 193.227 -1.43145 -6.63842 0
M  V30 2065 H 191.173 0.808883 -6.50994 0
M  V30 2066 H 191.09 -0.584409 -7.53738 0
M  V30 2067 H 192.358 0.581123 -7.77331 0
M  V30 2068 N 196.587 1.43421 -0.653314 0
M  V30 2069 C 197.835 2.01414 -0.166415 0
M  V30 2070 C 198.156 1.51803 1.22397 0
M  V30 2071 O 197.426 0.730693 1.81763 0
M  V30 2072 H 196.006 0.744703 -0.0585319 0
M  V30 2073 H 198.668 1.75629 -0.845003 0
M  V30 2074 H 197.764 3.11734 -0.151111 0
M  V30 2075 N 198.065 0.39524 1.52563 0
M  V30 2076 C 199.028 -0.425001 2.25225 0
M  V30 2077 C 200.028 -0.985266 1.27079 0
M  V30 2078 O 201.218 -0.866332 1.5113 0
M  V30 2079 C 198.35 -1.59686 3.01186 0
M  V30 2080 H 199.543 0.211233 2.99155 0
M  V30 2081 H 197.096 0.147472 1.55603 0
M  V30 2082 H 197.831 -2.27035 2.31572 0
M  V30 2083 H 197.616 -1.20176 3.73229 0
M  V30 2084 H 199.106 -2.17743 3.5634 0
M  V30 2085 N 199.544 -1.57102 0.125237 0
M  V30 2086 C 200.474 -2.18659 -0.819174 0
M  V30 2087 C 201.455 -1.12843 -1.27281 0
M  V30 2088 O 202.64 -1.41104 -1.33429 0
M  V30 2089 C 199.77 -2.79096 -2.06695 0
M  V30 2090 C 198.724 -3.90548 -1.75088 0
M  V30 2091 C 198.05 -4.37821 -3.06948 0
M  V30 2092 C 199.35 -5.12356 -1.01435 0
M  V30 2093 H 201.044 -2.9783 -0.306202 0
M  V30 2094 H 198.59 -1.4326 -0.145839 0
M  V30 2095 H 200.543 -3.2082 -2.73226 0
M  V30 2096 H 199.267 -1.97223 -2.60328 0
M  V30 2097 H 197.926 -3.49409 -1.10944 0
M  V30 2098 H 197.574 -3.52799 -3.58527 0
M  V30 2099 H 197.274 -5.12982 -2.86571 0
M  V30 2100 H 198.798 -4.822 -3.74587 0
M  V30 2101 H 200.212 -5.5106 -1.58132 0
M  V30 2102 H 198.609 -5.9314 -0.911319 0
M  V30 2103 H 199.679 -4.849 -0.00218681 0
M  V30 2104 N 201.022 0.148545 -1.56898 0
M  V30 2105 C 201.952 1.18524 -2.01182 0
M  V30 2106 C 202.933 1.4489 -0.891123 0
M  V30 2107 O 204.118 1.55836 -1.15882 0
M  V30 2108 C 201.248 2.51879 -2.39112 0
M  V30 2109 C 200.202 2.40038 -3.54353 0
M  V30 2110 C 199.528 3.78089 -3.78091 0
M  V30 2111 C 200.828 1.88577 -4.87069 0
M  V30 2112 H 202.522 0.817029 -2.88036 0
M  V30 2113 H 200.068 0.391575 -1.38574 0
M  V30 2114 H 202.021 3.24627 -2.68692 0
M  V30 2115 H 200.745 2.90532 -1.49193 0
M  V30 2116 H 199.404 1.69742 -3.24936 0
M  V30 2117 H 199.052 4.14175 -2.85426 0
M  V30 2118 H 198.752 3.71028 -4.55645 0
M  V30 2119 H 200.276 4.52387 -4.10095 0
M  V30 2120 H 201.69 2.51117 -5.15377 0
M  V30 2121 H 200.087 1.9241 -5.68417 0
M  V30 2122 H 201.157 0.84136 -4.77545 0
M  V30 2123 N 202.5 1.5196 0.417844 0
M  V30 2124 C 203.725 1.69717 1.1921 0
M  V30 2125 C 204.15 0.402148 1.83751 0
M  V30 2126 O 203.508 -0.639593 1.69643 0
M  V30 2127 C 203.556 2.82794 2.2374 0
M  V30 2128 O 202.66 2.47756 3.29683 0
M  V30 2129 H 202.001 0.565263 0.348387 0
M  V30 2130 H 204.531 1.98621 0.490985 0
M  V30 2131 H 204.541 3.07452 2.68212 0
M  V30 2132 H 203.216 3.76756 1.76146 0
M  V30 2133 H 201.793 2.33739 2.90552 0
M  V30 2134 N 203.978 -0.674533 1.42435 0
M  V30 2135 C 204.908 -1.80009 1.48724 0
M  V30 2136 C 205.889 -1.6659 0.343793 0
M  V30 2137 O 207.074 -1.86007 0.558137 0
M  V30 2138 C 204.204 -3.18306 1.38919 0
M  V30 2139 C 203.158 -3.46461 2.51294 0
M  V30 2140 C 202.484 -4.84335 2.26547 0
M  V30 2141 C 203.784 -3.43328 3.93603 0
M  V30 2142 H 205.478 -1.75004 2.42928 0
M  V30 2143 H 203.024 -0.840533 1.16923 0
M  V30 2144 H 204.977 -3.9678 1.41927 0
M  V30 2145 H 203.701 -3.2399 0.412094 0
M  V30 2146 H 202.36 -2.70348 2.47604 0
M  V30 2147 H 202.008 -4.86669 1.2713 0
M  V30 2148 H 201.708 -5.04136 3.01861 0
M  V30 2149 H 203.232 -5.65094 2.31304 0
M  V30 2150 H 204.646 -4.11772 3.98894 0
M  V30 2151 H 203.043 -3.74664 4.68771 0
M  V30 2152 H 204.113 -2.41897 4.20255 0
M  V30 2153 N 205.456 -1.28612 -0.910864 0
M  V30 2154 C 206.705 -1.15311 -1.65488 0
M  V30 2155 C 207.018 0.296999 -1.93332 0
M  V30 2156 O 208.224 0.551168 -2.65847 0
M  V30 2157 C 206.68 -2.01599 -2.98137 0
M  V30 2158 C 206.288 -3.51367 -2.7793 0
M  V30 2159 C 208.032 -1.96993 -3.76024 0
M  V30 2160 C 205.939 -4.29797 -4.06237 0
M  V30 2161 H 204.869 -0.42796 -0.620779 0
M  V30 2162 H 207.52 -1.53166 -1.01057 0
M  V30 2163 H 205.902 -1.56603 -3.63719 0
M  V30 2164 H 207.076 -4.0434 -2.21011 0
M  V30 2165 H 205.391 -3.57529 -2.13452 0
M  V30 2166 H 207.988 -2.52856 -4.71135 0
M  V30 2167 H 208.331 -0.94733 -4.05378 0
M  V30 2168 H 208.864 -2.39973 -3.17266 0
M  V30 2169 H 205.603 -5.32648 -3.82055 0
M  V30 2170 H 205.123 -3.81596 -4.62757 0
M  V30 2171 H 206.802 -4.39869 -4.74473 0
M  V30 2172 N 206.934 1.1197 -1.10907 0
M  V30 2173 C 207.844 2.21433 -0.774896 0
M  V30 2174 C 208.86 1.72478 0.229657 0
M  V30 2175 O 210.036 2.01288 0.0672008 0
M  V30 2176 C 207.101 3.4602 -0.216986 0
M  V30 2177 C 206.162 4.09791 -1.27944 0
M  V30 2178 C 205.395 5.28431 -0.748055 0
M  V30 2179 O 205.618 5.68823 0.423833 0
M  V30 2180 O 204.552 5.82644 -1.51027 0
M  V30 2181 H 208.378 2.5242 -1.68873 0
M  V30 2182 H 205.963 1.20399 -0.884555 0
M  V30 2183 H 207.845 4.21304 0.090059 0
M  V30 2184 H 206.52 3.16698 0.669633 0
M  V30 2185 H 205.427 3.36265 -1.63941 0
M  V30 2186 H 206.76 4.4328 -2.13925 0
M  V30 2187 N 208.412 0.89855 1.29475 0
M  V30 2188 C 209.642 0.538479 1.99459 0
M  V30 2189 C 210.05 -0.880922 1.67441 0
M  V30 2190 O 209.393 -1.59283 0.915127 0
M  V30 2191 C 209.455 0.649564 3.53583 0
M  V30 2192 C 209.119 2.03573 4.09154 0
M  V30 2193 C 210.116 3.00675 4.24135 0
M  V30 2194 C 207.801 2.3448 4.44212 0
M  V30 2195 C 209.795 4.26809 4.73405 0
M  V30 2196 C 207.482 3.60857 4.93179 0
M  V30 2197 C 208.48 4.56836 5.0773 0
M  V30 2198 O 208.168 5.80969 5.55635 0
M  V30 2199 H 207.9 0.205372 0.644048 0
M  V30 2200 H 210.454 1.20958 1.66007 0
M  V30 2201 H 208.684 -0.0785592 3.8662 0
M  V30 2202 H 210.373 0.29881 4.04799 0
M  V30 2203 H 211.139 2.78112 3.97339 0
M  V30 2204 H 207.018 1.60534 4.32145 0
M  V30 2205 H 210.562 5.0173 4.84678 0
M  V30 2206 H 206.459 3.83251 5.19412 0
M  V30 2207 H 207.227 5.83542 5.73952 0
M  V30 2208 N 209.89 -1.43072 0.660911 0
M  V30 2209 C 211.12 -2.05769 0.185153 0
M  V30 2210 C 211.528 -1.49668 -1.15742 0
M  V30 2211 O 210.871 -0.625649 -1.72717 0
M  V30 2212 C 210.933 -3.59489 0.0278237 0
M  V30 2213 C 210.597 -4.38212 1.2969 0
M  V30 2214 C 211.594 -4.69772 2.22734 0
M  V30 2215 C 209.279 -4.7809 1.54063 0
M  V30 2216 C 211.273 -5.40129 3.38437 0
M  V30 2217 C 208.96 -5.4819 2.70058 0
M  V30 2218 C 209.958 -5.79132 3.62071 0
M  V30 2219 O 209.646 -6.47798 4.76039 0
M  V30 2220 H 209.378 -0.669873 0.0908086 0
M  V30 2221 H 211.932 -1.84436 0.90402 0
M  V30 2222 H 210.162 -3.79426 -0.746489 0
M  V30 2223 H 211.851 -4.03862 -0.406275 0
M  V30 2224 H 212.617 -4.39476 2.05149 0
M  V30 2225 H 208.496 -4.53408 0.833215 0
M  V30 2226 H 212.04 -5.64198 4.10277 0
M  V30 2227 H 207.937 -5.77902 2.87574 0
M  V30 2228 H 208.705 -6.66283 4.75404 0
M  V30 2229 N 211.368 -0.403325 -1.52352 0
M  V30 2230 C 212.3 0.4603 -2.2453 0
M  V30 2231 C 213.313 1.01505 -1.27282 0
M  V30 2232 O 214.502 0.914982 -1.53266 0
M  V30 2233 C 211.602 1.65208 -2.95905 0
M  V30 2234 C 210.775 1.22224 -4.19976 0
M  V30 2235 C 209.834 2.28028 -4.74226 0
M  V30 2236 O 208.86 1.88857 -5.36956 0
M  V30 2237 N 210.062 3.6012 -4.55295 0
M  V30 2238 H 212.827 -0.158156 -2.99282 0
M  V30 2239 H 210.388 -0.230402 -1.60252 0
M  V30 2240 H 212.38 2.35541 -3.29093 0
M  V30 2241 H 210.95 2.17658 -2.24374 0
M  V30 2242 H 210.17 0.34725 -3.92668 0
M  V30 2243 H 211.458 0.911924 -5.00561 0
M  V30 2244 H 210.856 3.94698 -4.05253 0
M  V30 2245 H 209.413 4.26447 -4.92936 0
M  V30 2246 N 212.846 1.57033 -0.133567 0
M  V30 2247 C 214.092 1.96764 0.515326 0
M  V30 2248 C 214.447 1.01653 1.63353 0
M  V30 2249 O 213.74 0.0491374 1.91537 0
M  V30 2250 C 213.934 3.40674 1.08057 0
M  V30 2251 C 213.763 4.49696 0.0186522 0
M  V30 2252 C 212.533 5.03567 -0.418174 0
M  V30 2253 C 214.731 5.08536 -0.767809 0
M  V30 2254 N 212.713 5.9618 -1.46434 0
M  V30 2255 C 214.084 5.97231 -1.6648 0
M  V30 2256 C 216.139 4.9115 -0.817087 0
M  V30 2257 C 214.842 6.70401 -2.60681 0
M  V30 2258 C 216.868 5.65012 -1.74687 0
M  V30 2259 C 216.23 6.53403 -2.63141 0
M  V30 2260 H 212.329 0.765919 0.157771 0
M  V30 2261 H 214.913 1.93395 -0.22506 0
M  V30 2262 H 213.084 3.44662 1.79061 0
M  V30 2263 H 214.816 3.67495 1.69497 0
M  V30 2264 H 211.571 4.73594 -0.0229803 0
M  V30 2265 H 211.995 6.47191 -1.98678 0
M  V30 2266 H 216.637 4.22543 -0.147326 0
M  V30 2267 H 214.355 7.38245 -3.28664 0
M  V30 2268 H 217.941 5.53559 -1.79063 0
M  V30 2269 H 216.821 7.09556 -3.33917 0
M  V30 2270 N 214.325 -0.140222 1.56975 0
M  V30 2271 C 215.602 -0.880769 1.74648 0
M  V30 2272 C 215.982 -1.99036 0.703404 0
M  V30 2273 O 215.33 -2.26821 -0.27648 0
M  V30 2274 C 215.54 -1.417 3.18939 0
M  V30 2275 C 216.888 -1.87774 3.80823 0
M  V30 2276 O 217.912 -1.51427 3.2241 0
M  V30 2277 O 216.771 -2.54827 4.83452 0
M  V30 2278 H 213.865 -0.416713 0.714338 0
M  V30 2279 H 216.411 -0.125618 1.69234 0
M  V30 2280 H 215.183 -0.619902 3.86359 0
M  V30 2281 H 214.806 -2.23546 3.28805 0
M  V30 2282 N 215.803 -1.52179 -0.40978 0
M  V30 2283 C 216.75 -1.75475 -1.49924 0
M  V30 2284 C 217.72 -0.597175 -1.54994 0
M  V30 2285 O 218.905 -0.834655 -1.71575 0
M  V30 2286 C 216.045 -1.9107 -2.87378 0
M  V30 2287 C 215.158 -3.18717 -2.91622 0
M  V30 2288 C 214.293 -3.24747 -4.20372 0
M  V30 2289 C 213.332 -4.46598 -4.18588 0
M  V30 2290 N 212.469 -4.50025 -5.38908 0
M  V30 2291 H 217.309 -2.68458 -1.29361 0
M  V30 2292 H 214.846 -1.33024 -0.627934 0
M  V30 2293 H 216.804 -1.98096 -3.6717 0
M  V30 2294 H 215.434 -1.01469 -3.06437 0
M  V30 2295 H 214.486 -3.20866 -2.04326 0
M  V30 2296 H 215.798 -4.08544 -2.86169 0
M  V30 2297 H 214.952 -3.30841 -5.08556 0
M  V30 2298 H 213.691 -2.32857 -4.28519 0
M  V30 2299 H 212.696 -4.40652 -3.28794 0
M  V30 2300 H 213.921 -5.39783 -4.12081 0
M  V30 2301 H 211.867 -3.61017 -5.47725 0
M  V30 2302 H 211.784 -5.33697 -5.35447 0
M  V30 2303 H 213.052 -4.60347 -6.29048 0
M  V30 2304 N 217.281 0.66697 -1.42791 0
M  V30 2305 C 218.528 1.42699 -1.43678 0
M  V30 2306 C 218.856 1.94419 -0.0560425 0
M  V30 2307 O 218.111 1.7182 0.936831 0
M  V30 2308 C 218.41 2.6349 -2.4147 0
M  V30 2309 C 218.076 2.30267 -3.8767 0
M  V30 2310 C 216.738 2.20918 -4.27491 0
M  V30 2311 C 219.09 2.03435 -4.79858 0
M  V30 2312 C 216.418 1.82873 -5.57471 0
M  V30 2313 C 218.77 1.66892 -6.10188 0
M  V30 2314 C 217.434 1.56058 -6.49001 0
M  V30 2315 H 216.704 0.522171 -0.525755 0
M  V30 2316 H 219.351 0.759785 -1.75783 0
M  V30 2317 H 217.656 3.35279 -2.0272 0
M  V30 2318 H 219.353 3.21684 -2.39417 0
M  V30 2319 H 215.943 2.38449 -3.56146 0
M  V30 2320 H 220.127 2.09586 -4.49875 0
M  V30 2321 H 215.383 1.7306 -5.86396 0
M  V30 2322 H 219.557 1.45157 -6.81104 0
M  V30 2323 H 217.184 1.26348 -7.49627 0
M  V30 2324 N 218.759 1.29093 0.90403 0
M  V30 2325 C 219.722 1.1386 1.98919 0
M  V30 2326 C 220.722 0.0753457 1.60623 0
M  V30 2327 O 221.912 0.321931 1.71199 0
M  V30 2328 C 219.044 0.740198 3.32767 0
M  V30 2329 H 220.237 2.10246 2.13861 0
M  V30 2330 H 217.79 1.12218 1.08797 0
M  V30 2331 H 218.525 -0.223997 3.23525 0
M  V30 2332 H 218.31 1.50838 3.61926 0
M  V30 2333 H 219.8 0.656546 4.12407 0
M  V30 2334 N 220.237 -1.11381 1.11499 0
M  V30 2335 C 221.467 -1.86663 0.885464 0
M  V30 2336 C 221.875 -1.80464 -0.568281 0
M  V30 2337 O 221.218 -1.18445 -1.40415 0
M  V30 2338 C 221.28 -3.36337 1.26956 0
M  V30 2339 C 220.944 -3.66304 2.73259 0
M  V30 2340 C 221.941 -3.63733 3.71476 0
M  V30 2341 C 219.626 -3.9529 3.09921 0
M  V30 2342 C 221.62 -3.89725 5.04374 0
M  V30 2343 C 219.307 -4.20941 4.43004 0
M  V30 2344 C 220.305 -4.18147 5.40039 0
M  V30 2345 O 219.993 -4.43153 6.70724 0
M  V30 2346 H 219.725 -0.597114 0.316908 0
M  V30 2347 H 222.279 -1.41782 1.48617 0
M  V30 2348 H 220.509 -3.81826 0.611999 0
M  V30 2349 H 222.198 -3.92986 1.01573 0
M  V30 2350 H 222.964 -3.41389 3.44498 0
M  V30 2351 H 218.843 -3.966 2.35009 0
M  V30 2352 H 222.387 -3.8746 5.80104 0
M  V30 2353 H 218.284 -4.42761 4.69716 0
M  V30 2354 H 219.052 -4.60717 6.76522 0
M  V30 2355 N 221.715 -0.905404 -1.28997 0
M  V30 2356 C 222.645 -0.404212 -2.29975 0
M  V30 2357 C 223.626 0.523784 -1.61835 0
M  V30 2358 O 224.811 0.433298 -1.89304 0
M  V30 2359 C 221.941 0.364042 -3.45387 0
M  V30 2360 C 220.895 -0.474048 -4.25367 0
M  V30 2361 C 220.221 0.422045 -5.33032 0
M  V30 2362 C 221.521 -1.72696 -4.92923 0
M  V30 2363 H 223.215 -1.24807 -2.72146 0
M  V30 2364 H 220.761 -0.601585 -1.30832 0
M  V30 2365 H 222.714 0.725447 -4.15109 0
M  V30 2366 H 221.438 1.24174 -3.02074 0
M  V30 2367 H 220.097 -0.81786 -3.57361 0
M  V30 2368 H 219.745 1.29804 -4.85963 0
M  V30 2369 H 219.445 -0.135057 -5.87445 0
M  V30 2370 H 220.969 0.779517 -6.05604 0
M  V30 2371 H 222.383 -1.43495 -5.55051 0
M  V30 2372 H 220.78 -2.22582 -5.57295 0
M  V30 2373 H 221.85 -2.45964 -4.17887 0
M  V30 2374 N 223.193 1.4272 -0.668489 0
M  V30 2375 C 224.423 2.05668 -0.196063 0
M  V30 2376 C 224.831 1.5028 1.14946 0
M  V30 2377 O 224.174 0.6348 1.72383 0
M  V30 2378 C 224.236 3.59469 -0.0468879 0
M  V30 2379 C 223.9 4.37518 -1.32012 0
M  V30 2380 C 224.897 4.68584 -2.25222 0
M  V30 2381 C 222.582 4.77266 -1.56596 0
M  V30 2382 C 224.576 5.38326 -3.41297 0
M  V30 2383 C 222.263 5.4675 -2.72962 0
M  V30 2384 C 223.261 5.77204 -3.65137 0
M  V30 2385 O 222.949 6.45264 -4.79468 0
M  V30 2386 H 222.681 0.669382 -0.0943599 0
M  V30 2387 H 225.235 1.83954 -0.913788 0
M  V30 2388 H 223.465 3.79817 0.726357 0
M  V30 2389 H 225.154 4.04071 0.384852 0
M  V30 2390 H 225.92 4.38382 -2.07477 0
M  V30 2391 H 221.799 4.52959 -0.857249 0
M  V30 2392 H 225.343 5.62014 -4.13263 0
M  V30 2393 H 221.24 5.76369 -2.90635 0
M  V30 2394 H 222.008 6.63753 -4.78931 0
M  V30 2395 N 224.671 0.411399 1.52136 0
M  V30 2396 C 225.948 -0.222308 1.94333 0
M  V30 2397 C 226.328 -1.6242 1.34844 0
M  V30 2398 O 225.676 -2.22384 0.525145 0
M  V30 2399 C 225.886 -0.226345 3.48265 0
M  V30 2400 C 227.234 -0.444592 4.22266 0
M  V30 2401 O 228.258 -0.305602 3.54887 0
M  V30 2402 O 227.117 -0.718749 5.41753 0
M  V30 2403 H 224.211 -0.143907 0.814383 0
M  V30 2404 H 226.757 0.467506 1.63133 0
M  V30 2405 H 225.529 0.75475 3.83952 0
M  V30 2406 H 225.152 -0.960163 3.85832 0
M  V30 2407 N 226.149 -1.5696 0.141893 0
M  V30 2408 C 227.374 -2.00754 -0.520838 0
M  V30 2409 C 227.799 -1.0213 -1.57959 0
M  V30 2410 O 227.157 0.00371324 -1.813 0
M  V30 2411 C 227.205 -3.43318 -1.10294 0
M  V30 2412 O 226.309 -3.47679 -2.21795 0
M  V30 2413 H 225.65 -0.651564 -0.127908 0
M  V30 2414 H 228.18 -2.03221 0.23712 0
M  V30 2415 H 228.19 -3.82012 -1.43287 0
M  V30 2416 H 226.865 -4.14608 -0.327574 0
M  V30 2417 H 225.442 -3.20824 -1.9007 0
M  V30 2418 N 227.627 0.131896 -1.57047 0
M  V30 2419 C 228.904 0.871495 -1.75112 0
M  V30 2420 C 229.284 1.9866 -0.713949 0
M  V30 2421 O 228.632 2.26965 0.264447 0
M  V30 2422 C 228.842 1.40007 -3.19686 0
M  V30 2423 C 230.19 1.85752 -3.81813 0
M  V30 2424 O 231.214 1.49715 -3.23209 0
M  V30 2425 O 230.073 2.5226 -4.84796 0
M  V30 2426 H 227.167 0.412919 -0.716538 0
M  V30 2427 H 229.713 0.116641 -1.69299 0
M  V30 2428 H 228.485 0.599404 -3.86682 0
M  V30 2429 H 228.108 2.218 -3.29986 0
M  V30 2430 N 229.106 1.52395 0.401703 0
M  V30 2431 C 230.522 1.41363 0.740864 0
M  V30 2432 C 230.722 0.523982 1.94568 0
M  V30 2433 O 229.778 -0.00741204 2.52499 0
M  V30 2434 C 231.091 2.84011 0.987847 0
M  V30 2435 C 232.639 2.93404 1.09011 0
M  V30 2436 C 233.114 4.37036 1.3698 0
M  V30 2437 N 234.605 4.40304 1.43829 0
M  V30 2438 C 235.34 5.48508 1.67112 0
M  V30 2439 N 234.836 6.66819 1.87949 0
M  V30 2440 N 236.629 5.36034 1.69187 0
M  V30 2441 H 228.78 2.08765 -0.391262 0
M  V30 2442 H 231.043 0.941265 -0.112798 0
M  V30 2443 H 230.749 3.51265 0.174835 0
M  V30 2444 H 230.623 3.25502 1.906 0
M  V30 2445 H 233.01 2.26325 1.8937 0
M  V30 2446 H 233.091 2.55359 0.15015 0
M  V30 2447 H 232.735 5.04676 0.571353 0
M  V30 2448 H 232.665 4.72623 2.3224 0
M  V30 2449 H 235.156 3.55024 1.29486 0
M  V30 2450 H 235.469 7.45063 2.05185 0
M  V30 2451 H 233.814 6.6987 1.85199 0
M  V30 2452 H 237.005 4.42579 1.52451 0
M  V30 2453 H 237.178 6.20434 1.86993 0
M  V30 2454 N 230.584 -0.659388 1.43143 0
M  V30 2455 C 231.832 -1.41654 1.44147 0
M  V30 2456 C 232.153 -1.94893 0.0645739 0
M  V30 2457 O 231.423 -1.74044 -0.899198 0
M  V30 2458 H 230.003 -0.525708 0.530697 0
M  V30 2459 H 232.665 -0.778097 1.78694 0
M  V30 2460 H 231.761 -2.26195 2.1504 0
M  V30 2461 N 232.062 -1.29571 -0.897171 0
M  V30 2462 C 232.992 -1.17473 -2.01798 0
M  V30 2463 C 233.973 -0.068323 -1.69963 0
M  V30 2464 O 235.158 -0.248239 -1.92607 0
M  V30 2465 C 232.288 -0.853099 -3.36659 0
M  V30 2466 C 231.242 -1.9161 -3.82713 0
M  V30 2467 C 230.568 -1.44773 -5.14728 0
M  V30 2468 C 231.868 -3.32535 -4.02763 0
M  V30 2469 H 233.562 -2.11237 -2.12177 0
M  V30 2470 H 231.108 -1.01699 -1.01948 0
M  V30 2471 H 233.061 -0.755165 -4.14578 0
M  V30 2472 H 231.785 0.120236 -3.26379 0
M  V30 2473 H 230.444 -2.00346 -3.07013 0
M  V30 2474 H 230.092 -0.462995 -5.00865 0
M  V30 2475 H 229.792 -2.15865 -5.46513 0
M  V30 2476 H 231.316 -1.36334 -5.95185 0
M  V30 2477 H 232.73 -3.26626 -4.71156 0
M  V30 2478 H 231.127 -4.01607 -4.45905 0
M  V30 2479 H 232.197 -3.75326 -3.07016 0
M  V30 2480 N 233.54 1.10788 -1.12088 0
M  V30 2481 C 234.765 1.87002 -0.896949 0
M  V30 2482 C 235.19 1.79933 0.548261 0
M  V30 2483 O 234.548 1.16662 1.38779 0
M  V30 2484 C 234.596 3.3349 -1.37174 0
M  V30 2485 O 233.7 4.08745 -0.547831 0
M  V30 2486 H 233.041 0.580397 -0.322545 0
M  V30 2487 H 235.571 1.39996 -1.49206 0
M  V30 2488 H 235.581 3.84339 -1.36922 0
M  V30 2489 H 234.256 3.37951 -2.42408 0
M  V30 2490 H 232.833 3.6776 -0.617034 0
M  V30 2491 N 235.018 0.912232 1.28515 0
M  V30 2492 C 236.246 0.560416 1.99166 0
M  V30 2493 C 236.661 -0.857927 1.68182 0
M  V30 2494 O 236.018 -1.56805 0.933733 0
M  V30 2495 C 236.069 0.758142 3.53461 0
M  V30 2496 O 235.79 2.12067 3.83352 0
M  V30 2497 C 237.291 0.412954 4.41372 0
M  V30 2498 H 234.511 0.213805 0.636026 0
M  V30 2499 H 237.055 1.22502 1.63749 0
M  V30 2500 H 235.21 0.140556 3.87145 0
M  V30 2501 H 235.624 2.15923 4.77993 0
M  V30 2502 H 237.098 0.60208 5.48707 0
M  V30 2503 H 237.575 -0.65073 4.34353 0
M  V30 2504 H 238.181 1.00802 4.13182 0
M  V30 2505 N 236.496 -1.42363 0.676048 0
M  V30 2506 C 237.426 -2.33497 0.0124832 0
M  V30 2507 C 238.407 -1.50748 -0.787981 0
M  V30 2508 O 239.592 -1.79346 -0.744884 0
M  V30 2509 C 236.722 -3.34377 -0.938582 0
M  V30 2510 C 235.676 -4.27289 -0.246622 0
M  V30 2511 C 235.002 -5.18386 -1.31071 0
M  V30 2512 C 236.302 -5.14916 0.875125 0
M  V30 2513 H 237.996 -2.89233 0.773593 0
M  V30 2514 H 235.542 -1.39073 0.37346 0
M  V30 2515 H 237.495 -3.97044 -1.41188 0
M  V30 2516 H 236.219 -2.76947 -1.73113 0
M  V30 2517 H 234.878 -3.66018 0.206456 0
M  V30 2518 H 234.526 -4.57282 -2.09528 0
M  V30 2519 H 234.226 -5.81378 -0.852839 0
M  V30 2520 H 235.75 -5.83929 -1.78492 0
M  V30 2521 H 237.164 -5.71262 0.482983 0
M  V30 2522 H 235.561 -5.86747 1.25887 0
M  V30 2523 H 236.631 -4.53242 1.72335 0
M  V30 2524 N 237.974 -0.419461 -1.51915 0
M  V30 2525 C 238.906 0.43646 -2.25006 0
M  V30 2526 C 239.919 1.00149 -1.28351 0
M  V30 2527 O 241.108 0.898674 -1.54227 0
M  V30 2528 C 238.208 1.6206 -2.9764 0
M  V30 2529 C 237.381 1.17763 -4.21249 0
M  V30 2530 C 236.44 2.22985 -4.76617 0
M  V30 2531 O 235.466 1.83151 -5.38929 0
M  V30 2532 N 236.668 3.55271 -4.59089 0
M  V30 2533 H 239.433 -0.18989 -2.99098 0
M  V30 2534 H 236.994 -0.247386 -1.59999 0
M  V30 2535 H 238.986 2.32038 -3.31573 0
M  V30 2536 H 237.556 2.15266 -2.2667 0
M  V30 2537 H 236.776 0.305582 -3.93014 0
M  V30 2538 H 238.064 0.858781 -5.015 0
M  V30 2539 H 237.462 3.90377 -4.09417 0
M  V30 2540 H 236.019 4.21195 -4.97432 0
M  V30 2541 N 239.452 1.56882 -0.150215 0
M  V30 2542 C 240.415 2.1573 0.774157 0
M  V30 2543 C 241.415 1.0999 1.17298 0
M  V30 2544 O 242.605 1.35613 1.09338 0
M  V30 2545 C 239.737 2.72302 2.05096 0
M  V30 2546 H 240.93 2.98752 0.262201 0
M  V30 2547 H 238.483 1.55985 0.099248 0
M  V30 2548 H 239.218 1.92956 2.6065 0
M  V30 2549 H 239.003 3.49665 1.77416 0
M  V30 2550 H 240.493 3.17632 2.71109 0
M  V30 2551 N 240.93 -0.123565 1.57115 0
M  V30 2552 C 242.176 -0.833386 1.84885 0
M  V30 2553 C 242.509 -1.79742 0.735292 0
M  V30 2554 O 241.784 -1.92764 -0.25925 0
M  V30 2555 C 242.067 -1.5873 3.23228 0
M  V30 2556 C 241.92 -0.643183 4.45178 0
M  V30 2557 C 243.239 -2.54453 3.59085 0
M  V30 2558 H 240.358 -0.301518 0.6725 0
M  V30 2559 H 243 -0.097778 1.89748 0
M  V30 2560 H 241.15 -2.21438 3.19214 0
M  V30 2561 H 242.822 -0.0253015 4.61293 0
M  V30 2562 H 241.065 0.0456139 4.33776 0
M  V30 2563 H 241.736 -1.20724 5.38637 0
M  V30 2564 H 244.212 -2.01853 3.63861 0
M  V30 2565 H 243.088 -3.04238 4.5687 0
M  V30 2566 H 243.349 -3.36906 2.86264 0
M  V30 2567 N 242.408 -1.52605 -0.393616 0
M  V30 2568 C 243.338 -1.80022 -1.48709 0
M  V30 2569 C 244.319 -0.651995 -1.57108 0
M  V30 2570 O 245.504 -0.89913 -1.72132 0
M  V30 2571 C 242.634 -1.96492 -2.86371 0
M  V30 2572 C 241.588 -3.12161 -2.92813 0
M  V30 2573 C 240.914 -3.13877 -4.3288 0
M  V30 2574 C 242.214 -4.51322 -2.6288 0
M  V30 2575 H 243.908 -2.71589 -1.26015 0
M  V30 2576 H 241.454 -1.30684 -0.604778 0
M  V30 2577 H 243.407 -2.14255 -3.62867 0
M  V30 2578 H 242.131 -1.01611 -3.10391 0
M  V30 2579 H 240.79 -2.94173 -2.18764 0
M  V30 2580 H 240.438 -2.16687 -4.53933 0
M  V30 2581 H 240.138 -3.91576 -4.38112 0
M  V30 2582 H 241.662 -3.33789 -5.1129 0
M  V30 2583 H 243.076 -4.69435 -3.29096 0
M  V30 2584 H 241.473 -5.31053 -2.79468 0
M  V30 2585 H 242.543 -4.58353 -1.58242 0
M  V30 2586 N 243.887 0.651787 -1.4349 0
M  V30 2587 C 245.164 1.40909 -1.35661 0
M  V30 2588 C 245.544 2.11099 -0.00511733 0
M  V30 2589 O 244.892 2.04892 1.0115 0
M  V30 2590 C 245.102 2.3926 -2.54078 0
M  V30 2591 C 246.45 3.03217 -2.97228 0
M  V30 2592 O 247.474 2.49588 -2.54135 0
M  V30 2593 O 246.333 4.00455 -3.71885 0
M  V30 2594 H 243.427 0.629625 -0.536191 0
M  V30 2595 H 245.973 0.678575 -1.55542 0
M  V30 2596 H 244.745 1.86352 -3.44076 0
M  V30 2597 H 244.368 3.1976 -2.36303 0
M  V30 2598 N 245.365 1.30045 0.890287 0
M  V30 2599 C 246.59 1.21598 1.68014 0
M  V30 2600 C 247.015 -0.218678 1.86825 0
M  V30 2601 O 246.373 -1.15756 1.39536 0
M  V30 2602 C 246.421 1.94434 3.03691 0
M  V30 2603 O 245.525 1.2678 3.92429 0
M  V30 2604 H 244.866 0.420856 0.513592 0
M  V30 2605 H 247.396 1.71775 1.11151 0
M  V30 2606 H 247.406 2.03251 3.5377 0
M  V30 2607 H 246.081 2.98777 2.89318 0
M  V30 2608 H 244.658 1.26282 3.50866 0
M  V30 2609 N 246.843 -1.10192 1.12674 0
M  V30 2610 C 247.806 -2.14786 0.799979 0
M  V30 2611 C 248.806 -1.59711 -0.18685 0
M  V30 2612 O 249.996 -1.74156 0.0392558 0
M  V30 2613 C 247.128 -3.40374 0.189228 0
M  V30 2614 H 248.321 -2.45203 1.72671 0
M  V30 2615 H 245.874 -1.25597 0.930326 0
M  V30 2616 H 246.609 -3.15577 -0.747107 0
M  V30 2617 H 246.394 -3.81637 0.899766 0
M  V30 2618 H 247.884 -4.17594 -0.0228143 0
M  V30 2619 N 248.321 -0.919034 -1.28029 0
M  V30 2620 C 249.284 -0.416182 -2.2539 0
M  V30 2621 C 250.284 0.460438 -1.54067 0
M  V30 2622 O 251.474 0.262744 -1.72207 0
M  V30 2623 C 248.606 0.402707 -3.38513 0
M  V30 2624 H 249.799 -1.27629 -2.71387 0
M  V30 2625 H 247.352 -0.698919 -1.39803 0
M  V30 2626 H 248.087 1.282 -2.97885 0
M  V30 2627 H 247.872 -0.225698 -3.9145 0
M  V30 2628 H 249.362 0.745191 -4.10897 0
M  V30 2629 N 249.799 1.42003 -0.683588 0
M  V30 2630 C 250.709 2.34597 -0.0109075 0
M  V30 2631 C 251.725 1.55576 0.779245 0
M  V30 2632 O 252.901 1.88107 0.719555 0
M  V30 2633 C 249.966 3.34199 0.922588 0
M  V30 2634 C 249.027 4.29115 0.125984 0
M  V30 2635 C 248.26 5.23959 1.01502 0
M  V30 2636 O 248.483 5.23952 2.25456 0
M  V30 2637 O 247.417 6.00053 0.47111 0
M  V30 2638 H 251.243 2.93675 -0.773853 0
M  V30 2639 H 248.828 1.42654 -0.443861 0
M  V30 2640 H 250.71 3.95365 1.45823 0
M  V30 2641 H 249.385 2.77582 1.66523 0
M  V30 2642 H 248.292 3.71335 -0.453969 0
M  V30 2643 H 249.625 4.88798 -0.577736 0
M  V30 2644 N 251.277 0.427512 1.51691 0
M  V30 2645 C 252.224 -0.388867 2.275 0
M  V30 2646 C 253.194 -1.02532 1.30677 0
M  V30 2647 O 254.379 -1.0461 1.59566 0
M  V30 2648 C 251.519 -1.48954 3.11298 0
M  V30 2649 C 250.632 -0.872194 4.23104 0
M  V30 2650 C 249.767 -1.94709 4.94228 0
M  V30 2651 C 248.806 -1.30766 5.97969 0
M  V30 2652 N 247.943 -2.32349 6.62539 0
M  V30 2653 H 252.783 0.263997 2.96828 0
M  V30 2654 H 250.32 0.142033 1.46413 0
M  V30 2655 H 252.278 -2.13887 3.58201 0
M  V30 2656 H 250.908 -2.11217 2.44105 0
M  V30 2657 H 249.96 -0.111419 3.80237 0
M  V30 2658 H 251.272 -0.365264 4.97461 0
M  V30 2659 H 250.426 -2.67327 5.44629 0
M  V30 2660 H 249.165 -2.48773 4.1948 0
M  V30 2661 H 248.17 -0.566902 5.4687 0
M  V30 2662 H 249.395 -0.774483 6.74669 0
M  V30 2663 H 247.341 -2.85511 5.90609 0
M  V30 2664 H 247.258 -1.8652 7.3263 0
M  V30 2665 H 248.526 -3.04481 7.17574 0
M  V30 2666 N 252.755 -1.56801 0.158532 0
M  V30 2667 C 253.702 -2.17337 -0.776729 0
M  V30 2668 C 254.672 -1.1096 -1.23601 0
M  V30 2669 O 255.857 -1.39054 -1.30647 0
M  V30 2670 C 252.997 -2.80822 -2.00582 0
M  V30 2671 C 252.11 -4.01624 -1.59129 0
M  V30 2672 C 251.245 -4.53072 -2.77306 0
M  V30 2673 C 250.284 -5.66314 -2.32282 0
M  V30 2674 N 249.421 -6.12329 -3.43508 0
M  V30 2675 H 254.261 -2.96918 -0.253701 0
M  V30 2676 H 251.798 -1.46661 -0.113504 0
M  V30 2677 H 253.756 -3.15779 -2.72652 0
M  V30 2678 H 252.386 -2.03866 -2.50277 0
M  V30 2679 H 251.438 -3.72571 -0.767806 0
M  V30 2680 H 252.75 -4.83633 -1.2207 0
M  V30 2681 H 251.904 -4.90145 -3.57551 0
M  V30 2682 H 250.643 -3.70095 -3.17617 0
M  V30 2683 H 249.648 -5.28806 -1.5048 0
M  V30 2684 H 250.873 -6.51085 -1.93043 0
M  V30 2685 H 248.819 -5.32284 -3.83418 0
M  V30 2686 H 248.736 -6.89293 -3.105 0
M  V30 2687 H 250.004 -6.5405 -4.24075 0
M  V30 2688 N 254.233 0.115231 -1.57178 0
M  V30 2689 C 255.479 0.818565 -1.86202 0
M  V30 2690 C 255.834 1.77316 -0.746785 0
M  V30 2691 O 255.127 1.89923 0.25291 0
M  V30 2692 C 255.321 1.60324 -3.19423 0
M  V30 2693 C 255.15 0.726138 -4.43799 0
M  V30 2694 C 253.92 0.379535 -5.03873 0
M  V30 2695 C 256.118 0.0420774 -5.14283 0
M  V30 2696 N 254.1 -0.507841 -6.11796 0
M  V30 2697 C 255.471 -0.704152 -6.15988 0
M  V30 2698 C 257.526 -0.0339486 -4.97888 0
M  V30 2699 C 256.229 -1.51927 -7.03072 0
M  V30 2700 C 258.255 -0.835906 -5.85463 0
M  V30 2701 C 257.617 -1.57031 -6.86673 0
M  V30 2702 H 253.716 0.276343 -0.731545 0
M  V30 2703 H 256.3 0.0821032 -1.94527 0
M  V30 2704 H 254.471 2.31072 -3.12186 0
M  V30 2705 H 256.203 2.2522 -3.36241 0
M  V30 2706 H 252.958 0.722634 -4.68054 0
M  V30 2707 H 253.382 -0.94349 -6.70393 0
M  V30 2708 H 258.024 0.519496 -4.19596 0
M  V30 2709 H 255.742 -2.08386 -7.80769 0
M  V30 2710 H 259.328 -0.89714 -5.74841 0
M  V30 2711 H 258.208 -2.18088 -7.53264 0
M  V30 2712 N 255.711 1.52812 0.385517 0
M  V30 2713 C 256.643 1.74096 1.49074 0
M  V30 2714 C 257.656 0.621462 1.50472 0
M  V30 2715 O 258.845 0.897245 1.54311 0
M  V30 2716 C 255.945 1.78774 2.87911 0
M  V30 2717 C 255.118 3.08134 3.10439 0
M  V30 2718 C 254.177 3.04313 4.29278 0
M  V30 2719 O 253.203 3.78168 4.25415 0
M  V30 2720 N 254.405 2.23741 5.35649 0
M  V30 2721 H 257.17 2.69455 1.31202 0
M  V30 2722 H 254.731 1.51343 0.575065 0
M  V30 2723 H 256.723 1.73721 3.65518 0
M  V30 2724 H 255.293 0.907869 2.99126 0
M  V30 2725 H 254.513 3.26649 2.20667 0
M  V30 2726 H 255.801 3.93662 3.22347 0
M  V30 2727 H 255.199 1.63211 5.41645 0
M  V30 2728 H 253.756 2.24524 6.11909 0
M  V30 2729 N 257.189 -0.644168 1.43834 0
M  V30 2730 C 258.435 -1.40603 1.46146 0
M  V30 2731 C 258.768 -1.93997 0.0887717 0
M  V30 2732 O 258.043 -1.72854 -0.891724 0
M  V30 2733 C 258.326 -2.58086 2.51124 0
M  V30 2734 C 258.179 -2.10126 3.97702 0
M  V30 2735 C 259.498 -3.60291 2.52742 0
M  V30 2736 H 256.617 -0.509905 0.532134 0
M  V30 2737 H 259.259 -0.729502 1.75437 0
M  V30 2738 H 257.409 -3.15801 2.26278 0
M  V30 2739 H 259.081 -1.57342 4.33637 0
M  V30 2740 H 257.324 -1.41419 4.10101 0
M  V30 2741 H 257.995 -2.94649 4.66783 0
M  V30 2742 H 260.471 -3.12352 2.7491 0
M  V30 2743 H 259.347 -4.40032 3.28121 0
M  V30 2744 H 259.608 -4.1349 1.56455 0
M  V30 2745 N 258.668 -1.30515 -0.883378 0
M  V30 2746 C 259.896 -1.22359 -1.66841 0
M  V30 2747 C 260.311 0.213296 -1.87591 0
M  V30 2748 O 259.668 1.14075 -1.42454 0
M  V30 2749 C 259.719 -1.95011 -3.04389 0
M  V30 2750 O 259.44 -3.3309 -2.84575 0
M  V30 2751 C 260.941 -1.93532 -3.98824 0
M  V30 2752 H 258.161 -0.423371 -0.520575 0
M  V30 2753 H 260.705 -1.72167 -1.10357 0
M  V30 2754 H 258.86 -1.48997 -3.57601 0
M  V30 2755 H 259.274 -3.69907 -3.71846 0
M  V30 2756 H 260.748 -2.48902 -4.92699 0
M  V30 2757 H 261.225 -0.914627 -4.29571 0
M  V30 2758 H 261.831 -2.39364 -3.51547 0
M  V30 2759 N 260.146 1.09593 -1.13257 0
M  V30 2760 C 261.109 2.14359 -0.811358 0
M  V30 2761 C 262.109 1.59808 0.178377 0
M  V30 2762 O 263.299 1.74132 -0.0484911 0
M  V30 2763 C 260.431 3.40269 -0.207276 0
M  V30 2764 H 261.624 2.44284 -1.73969 0
M  V30 2765 H 259.177 1.25102 -0.936973 0
M  V30 2766 H 259.912 3.15969 0.73036 0
M  V30 2767 H 259.697 3.81154 -0.919992 0
M  V30 2768 H 261.187 4.176 0.000667944 0
M  V30 2769 N 261.624 0.925811 1.2754 0
M  V30 2770 C 262.873 0.561084 1.93739 0
M  V30 2771 C 263.186 -0.901685 1.73577 0
M  V30 2772 O 264.392 -1.37511 2.34101 0
M  V30 2773 C 262.848 0.952668 3.47062 0
M  V30 2774 C 262.456 2.43599 3.75983 0
M  V30 2775 C 264.2 0.659103 4.19352 0
M  V30 2776 C 262.107 2.76707 5.22673 0
M  V30 2777 H 261.037 0.206122 0.725279 0
M  V30 2778 H 263.688 1.12637 1.44863 0
M  V30 2779 H 262.07 0.316053 3.94737 0
M  V30 2780 H 263.244 3.12035 3.39073 0
M  V30 2781 H 261.559 2.70125 3.16893 0
M  V30 2782 H 264.156 0.882985 5.27359 0
M  V30 2783 H 264.499 -0.403607 4.14339 0
M  V30 2784 H 265.032 1.25473 3.77494 0
M  V30 2785 H 261.771 3.8188 5.32774 0
M  V30 2786 H 261.291 2.12919 5.60737 0
M  V30 2787 H 262.97 2.6435 5.90532 0
M  V30 2788 N 263.102 -1.41638 0.69111 0
M  V30 2789 C 264.05 -2.32597 0.0115199 0
M  V30 2790 C 265.044 -1.5072 -0.773296 0
M  V30 2791 O 266.25 -1.66685 -0.67942 0
M  V30 2792 H 262.625 -0.751849 -0.0150746 0
M  V30 2793 H 264.596 -2.87593 0.795791 0
M  V30 2794 C 263.345 -3.35467 -0.914172 0
M  V30 2795 H 262.668 -3.9852 -0.319687 0
M  V30 2796 H 264.108 -4.01662 -1.35808 0
M  V30 2797 C 262.567 -2.69004 -2.02826 0
M  V30 2798 O 263.097 -2.53444 -3.11655 0
M  V30 2799 N 261.303 -2.2777 -1.80469 0
M  V30 2800 H 260.85 -2.40626 -0.919615 0
M  V30 2801 H 260.808 -1.83635 -2.55197 0
M  V30 2802 N 264.58 -0.43555 -1.51462 0
M  V30 2803 C 265.826 0.131709 -2.02372 0
M  V30 2804 C 266.159 1.42516 -1.3192 0
M  V30 2805 O 265.434 1.89606 -0.433573 0
M  V30 2806 C 265.717 0.352301 -3.58373 0
M  V30 2807 C 265.57 -0.959676 -4.39443 0
M  V30 2808 C 266.889 1.12286 -4.25535 0
M  V30 2809 H 264.008 0.0463936 -0.735538 0
M  V30 2810 H 266.65 -0.574197 -1.81116 0
M  V30 2811 H 264.8 0.9536 -3.76615 0
M  V30 2812 H 266.472 -1.59482 -4.32855 0
M  V30 2813 H 264.715 -1.56468 -4.04599 0
M  V30 2814 H 265.386 -0.759394 -5.46752 0
M  V30 2815 H 267.862 0.613545 -4.11552 0
M  V30 2816 H 266.738 1.24598 -5.34571 0
M  V30 2817 H 266.999 2.15048 -3.86273 0
M  V30 2818 N 266.058 1.56714 -0.166846 0
M  V30 2819 C 267.306 1.96358 0.478305 0
M  V30 2820 C 267.627 1.0537 1.6408 0
M  V30 2821 O 266.897 0.119154 1.95537 0
M  V30 2822 H 265.477 0.725065 0.179692 0
M  V30 2823 H 268.139 1.93329 -0.246985 0
M  V30 2824 H 267.235 3.00547 0.841292 0
M  V30 2825 N 267.536 -0.106894 1.57237 0
M  V30 2826 C 268.484 -1.14944 2.02215 0
M  V30 2827 C 269.478 -1.42167 0.92114 0
M  V30 2828 O 270.684 -1.41987 1.10634 0
M  V30 2829 H 267.059 -0.387841 0.64427 0
M  V30 2830 H 269.03 -0.743683 2.88984 0
M  V30 2831 C 267.779 -2.4647 2.4525 0
M  V30 2832 H 267.102 -2.26363 3.29545 0
M  V30 2833 H 268.542 -3.17948 2.80508 0
M  V30 2834 C 267.001 -3.09921 1.321 0
M  V30 2835 O 267.531 -3.9651 0.643622 0
M  V30 2836 N 265.737 -2.69986 1.07497 0
M  V30 2837 H 265.284 -1.99667 1.62761 0
M  V30 2838 H 265.242 -3.12769 0.319876 0
M  V30 2839 N 269.014 -1.53014 -0.377408 0
M  V30 2840 C 270.263 -1.67845 -1.11853 0
M  V30 2841 C 270.576 -0.430625 -1.90801 0
M  V30 2842 O 271.782 -0.459261 -2.67587 0
M  V30 2843 C 270.238 -2.96668 -2.03756 0
M  V30 2844 C 269.846 -4.28671 -1.30175 0
M  V30 2845 C 271.59 -3.20865 -2.77932 0
M  V30 2846 C 269.497 -5.48591 -2.20911 0
M  V30 2847 H 268.427 -0.625343 -0.421263 0
M  V30 2848 H 271.078 -1.79514 -0.380409 0
M  V30 2849 H 269.46 -2.78773 -2.8125 0
M  V30 2850 H 270.634 -4.57157 -0.578259 0
M  V30 2851 H 268.949 -4.10825 -0.679108 0
M  V30 2852 H 271.546 -4.07642 -3.46024 0
M  V30 2853 H 271.889 -2.36424 -3.4265 0
M  V30 2854 H 272.422 -3.39379 -2.07525 0
M  V30 2855 H 269.161 -6.35474 -1.6079 0
M  V30 2856 H 268.681 -5.244 -2.91144 0
M  V30 2857 H 270.36 -5.8292 -2.80736 0
M  V30 2858 N 270.492 0.636531 -1.44174 0
M  V30 2859 C 271.44 1.76995 -1.50915 0
M  V30 2860 C 272.434 1.65053 -0.381295 0
M  V30 2861 O 273.64 1.71197 -0.55601 0
M  V30 2862 H 270.015 0.584247 -0.473455 0
M  V30 2863 H 271.986 1.68432 -2.4632 0
M  V30 2864 C 270.735 3.15314 -1.46534 0
M  V30 2865 H 270.058 3.25149 -2.32633 0
M  V30 2866 H 271.498 3.9453 -1.55312 0
M  V30 2867 C 269.957 3.3639 -0.185305 0
M  V30 2868 O 270.487 3.94699 0.746688 0
M  V30 2869 N 268.693 2.9046 -0.0901606 0
M  V30 2870 H 268.24 2.43193 -0.849416 0
M  V30 2871 H 268.198 3.04937 0.765553 0
M  V30 2872 N 271.97 1.30982 0.876444 0
M  V30 2873 C 272.918 1.18006 2.00443 0
M  V30 2874 C 273.912 0.0898871 1.69161 0
M  V30 2875 O 275.118 0.251333 1.78237 0
M  V30 2876 H 271.493 0.365196 0.65737 0
M  V30 2877 H 273.464 2.13453 2.0852 0
M  V30 2878 C 272.213 0.897521 3.35916 0
M  V30 2879 H 271.536 1.7285 3.60504 0
M  V30 2880 H 272.976 0.846874 4.15456 0
M  V30 2881 C 271.435 -0.399674 3.34521 0
M  V30 2882 O 271.965 -1.41852 3.7582 0
M  V30 2883 N 270.171 -0.413893 2.87637 0
M  V30 2884 H 269.718 0.41571 2.54224 0
M  V30 2885 H 269.676 -1.28175 2.87086 0
M  V30 2886 N 273.449 -1.08991 1.13837 0
M  V30 2887 C 274.726 -1.77863 0.813876 0
M  V30 2888 C 275.106 -1.99375 -0.693746 0
M  V30 2889 O 274.454 -1.59875 -1.63255 0
M  V30 2890 C 274.664 -3.0986 1.60586 0
M  V30 2891 C 276.012 -3.84493 1.8014 0
M  V30 2892 O 277.036 -3.19624 1.57222 0
M  V30 2893 O 275.895 -5.00957 2.18413 0
M  V30 2894 H 272.989 -0.771589 0.297624 0
M  V30 2895 H 275.535 -1.15507 1.24323 0
M  V30 2896 H 274.307 -2.89715 2.63022 0
M  V30 2897 H 273.93 -3.79942 1.17173 0
M  V30 2898 N 274.927 -0.932562 -1.27047 0
M  V30 2899 C 275.874 -0.434072 -2.26681 0
M  V30 2900 C 276.844 0.501639 -1.58344 0
M  V30 2901 O 278.029 0.419734 -1.86126 0
M  V30 2902 C 275.169 0.30261 -3.43771 0
M  V30 2903 C 274.282 -0.667774 -4.26808 0
M  V30 2904 C 273.417 0.0892393 -5.31125 0
M  V30 2905 C 272.456 -0.873532 -6.05835 0
M  V30 2906 N 271.593 -0.148832 -7.01942 0
M  V30 2907 H 276.433 -1.28868 -2.68695 0
M  V30 2908 H 273.97 -0.646713 -1.32121 0
M  V30 2909 H 275.928 0.746092 -4.10474 0
M  V30 2910 H 274.558 1.12142 -3.02695 0
M  V30 2911 H 273.61 -1.22978 -3.59973 0
M  V30 2912 H 274.922 -1.40337 -4.78651 0
M  V30 2913 H 274.076 0.592409 -6.03801 0
M  V30 2914 H 272.815 0.85777 -4.80097 0
M  V30 2915 H 271.82 -1.38791 -5.31994 0
M  V30 2916 H 273.045 -1.64193 -6.58952 0
M  V30 2917 H 270.991 0.601365 -6.53238 0
M  V30 2918 H 270.908 -0.82391 -7.51497 0
M  V30 2919 H 272.176 0.333527 -7.78786 0
M  V30 2920 N 276.405 1.4127 -0.698611 0
M  V30 2921 C 277.352 2.30773 -0.0352094 0
M  V30 2922 C 278.322 1.47273 0.768111 0
M  V30 2923 O 279.507 1.76053 0.735524 0
M  V30 2924 C 276.647 3.33346 0.893 0
M  V30 2925 C 275.76 4.31924 0.0809695 0
M  V30 2926 C 274.895 5.21566 1.0071 0
M  V30 2927 C 273.934 6.11811 0.188155 0
M  V30 2928 N 273.071 6.93926 1.06825 0
M  V30 2929 H 277.911 2.86943 -0.804207 0
M  V30 2930 H 275.448 1.4132 -0.408294 0
M  V30 2931 H 277.406 3.91368 1.44523 0
M  V30 2932 H 276.036 2.78719 1.62836 0
M  V30 2933 H 275.088 3.75825 -0.588224 0
M  V30 2934 H 276.4 4.95716 -0.553801 0
M  V30 2935 H 275.554 5.84437 1.62845 0
M  V30 2936 H 274.293 4.58008 1.67572 0
M  V30 2937 H 273.298 5.47986 -0.446254 0
M  V30 2938 H 274.523 6.77425 -0.476716 0
M  V30 2939 H 272.469 6.32973 1.72283 0
M  V30 2940 H 272.386 7.54416 0.489123 0
M  V30 2941 H 273.654 7.61262 1.67632 0
M  V30 2942 N 277.883 0.443576 1.51229 0
M  V30 2943 C 279.16 -0.181038 1.9476 0
M  V30 2944 C 279.54 -1.59523 1.38259 0
M  V30 2945 O 278.888 -2.2122 0.572198 0
M  V30 2946 C 279.098 -0.152422 3.48667 0
M  V30 2947 C 280.446 -0.354923 4.23114 0
M  V30 2948 O 281.47 -0.230257 3.55455 0
M  V30 2949 O 280.329 -0.603674 5.43156 0
M  V30 2950 H 277.423 -0.1266 0.817252 0
M  V30 2951 H 279.969 0.502004 1.62105 0
M  V30 2952 H 278.741 0.836022 3.82265 0
M  V30 2953 H 278.364 -0.878107 3.87782 0
M  V30 2954 N 279.361 -1.56624 0.175154 0
M  V30 2955 C 280.271 -2.21741 -0.766042 0
M  V30 2956 C 281.287 -1.21023 -1.25018 0
M  V30 2957 O 282.463 -1.53697 -1.3015 0
M  V30 2958 C 279.528 -2.84839 -1.97655 0
M  V30 2959 C 278.589 -4.00769 -1.53892 0
M  V30 2960 C 277.822 -4.60849 -2.69173 0
M  V30 2961 O 278.045 -4.19823 -3.86141 0
M  V30 2962 O 276.979 -5.50655 -2.43028 0
M  V30 2963 H 280.805 -3.02738 -0.241585 0
M  V30 2964 H 278.39 -1.49305 -0.053222 0
M  V30 2965 H 280.272 -3.24834 -2.68442 0
M  V30 2966 H 278.947 -2.06836 -2.48999 0
M  V30 2967 H 277.854 -3.65436 -0.80044 0
M  V30 2968 H 279.187 -4.80376 -1.07236 0
M  V30 2969 N 280.839 0.0985539 -1.57292 0
M  V30 2970 C 281.772 1.15082 -1.97057 0
M  V30 2971 C 282.75 1.39025 -0.843255 0
M  V30 2972 O 283.934 1.52842 -1.10325 0
M  V30 2973 C 281.061 2.50069 -2.28437 0
M  V30 2974 C 280.107 2.42428 -3.509 0
M  V30 2975 S 280.94 1.84414 -5.02744 0
M  V30 2976 C 282.096 3.21032 -5.37298 0
M  V30 2977 H 282.329 0.811815 -2.86002 0
M  V30 2978 H 279.862 0.306102 -1.51335 0
M  V30 2979 H 281.82 3.27729 -2.47192 0
M  V30 2980 H 280.481 2.8114 -1.40069 0
M  V30 2981 H 279.674 3.41911 -3.70288 0
M  V30 2982 H 279.276 1.72896 -3.31637 0
M  V30 2983 H 281.568 4.17297 -5.33731 0
M  V30 2984 H 282.511 3.06452 -6.38352 0
M  V30 2985 H 282.919 3.20404 -4.64759 0
M  V30 2986 N 282.317 1.53212 0.369288 0
M  V30 2987 C 283.547 1.72868 1.13139 0
M  V30 2988 C 283.955 0.455754 1.83629 0
M  V30 2989 O 283.298 -0.580861 1.74275 0
M  V30 2990 C 283.36 2.83667 2.20847 0
M  V30 2991 C 283.024 4.24142 1.70155 0
M  V30 2992 C 284.021 5.06619 1.16763 0
M  V30 2993 C 281.706 4.70539 1.7578 0
M  V30 2994 C 283.7 6.33581 0.696678 0
M  V30 2995 C 281.387 5.97481 1.28297 0
M  V30 2996 C 282.385 6.78833 0.753307 0
M  V30 2997 O 282.073 8.03393 0.285475 0
M  V30 2998 H 281.805 0.581707 0.344373 0
M  V30 2999 H 284.359 2.00736 0.435243 0
M  V30 3000 H 282.589 2.51265 2.93944 0
M  V30 3001 H 284.278 2.91536 2.82421 0
M  V30 3002 H 285.044 4.71948 1.11758 0
M  V30 3003 H 280.923 4.07293 2.15949 0
M  V30 3004 H 284.467 6.97027 0.282581 0
M  V30 3005 H 280.364 6.31651 1.32994 0
M  V30 3006 H 281.132 8.17497 0.405145 0
M  V30 3007 N 283.795 -0.628877 1.44509 0
M  V30 3008 C 285.211 -0.947305 1.28446 0
M  V30 3009 C 285.411 -2.00275 0.221872 0
M  V30 3010 O 284.467 -2.49447 -0.391471 0
M  V30 3011 C 285.78 -1.40843 2.65676 0
M  V30 3012 C 287.328 -1.52379 2.73404 0
M  V30 3013 C 287.803 -2.01875 4.11109 0
M  V30 3014 N 289.294 -2.09142 4.13296 0
M  V30 3015 C 290.029 -2.48615 5.16699 0
M  V30 3016 N 289.525 -2.87209 6.30462 0
M  V30 3017 N 291.318 -2.48768 5.04054 0
M  V30 3018 H 283.469 0.0690977 2.12288 0
M  V30 3019 H 285.732 -0.0317164 0.947469 0
M  V30 3020 H 285.438 -0.707206 3.44516 0
M  V30 3021 H 285.312 -2.37902 2.92716 0
M  V30 3022 H 287.699 -2.21598 1.9488 0
M  V30 3023 H 287.78 -0.536898 2.50102 0
M  V30 3024 H 287.424 -1.3325 4.90109 0
M  V30 3025 H 287.354 -3.0144 4.31789 0
M  V30 3026 H 289.845 -1.81991 3.31191 0
M  V30 3027 H 290.158 -3.16149 7.05174 0
M  V30 3028 H 288.503 -2.84955 6.33897 0
M  V30 3029 H 291.694 -2.18009 4.14234 0
M  V30 3030 H 291.867 -2.79207 5.84763 0
M  V30 3031 N 285.273 -1.31445 -0.869486 0
M  V30 3032 C 286.498 -1.24256 -1.66058 0
M  V30 3033 C 286.923 0.188928 -1.87149 0
M  V30 3034 O 286.281 1.13522 -1.4136 0
M  V30 3035 C 286.329 -1.9924 -3.00559 0
M  V30 3036 O 285.433 -1.33007 -3.90362 0
M  V30 3037 H 284.774 -0.428973 -0.506831 0
M  V30 3038 H 287.304 -1.73521 -1.08404 0
M  V30 3039 H 287.314 -2.08854 -3.50491 0
M  V30 3040 H 285.989 -3.03342 -2.84528 0
M  V30 3041 H 284.566 -1.31848 -3.48813 0
M  V30 3042 N 286.751 1.08385 -1.14413 0
M  V30 3043 C 287.681 2.17321 -0.854044 0
M  V30 3044 C 288.662 1.69024 0.191049 0
M  V30 3045 O 289.847 1.94141 0.0476779 0
M  V30 3046 C 286.977 3.45719 -0.330983 0
M  V30 3047 C 285.931 4.07409 -1.31155 0
M  V30 3048 C 285.257 5.30762 -0.64778 0
M  V30 3049 C 286.557 4.48665 -2.67388 0
M  V30 3050 H 288.251 2.41845 -1.76498 0
M  V30 3051 H 285.797 1.16233 -0.850051 0
M  V30 3052 H 287.75 4.21241 -0.115645 0
M  V30 3053 H 286.474 3.2075 0.615381 0
M  V30 3054 H 285.133 3.33919 -1.51306 0
M  V30 3055 H 284.781 5.02078 0.304398 0
M  V30 3056 H 284.481 5.72992 -1.30207 0
M  V30 3057 H 286.005 6.08998 -0.441972 0
M  V30 3058 H 287.419 5.15364 -2.51143 0
M  V30 3059 H 285.816 5.01814 -3.29093 0
M  V30 3060 H 286.886 3.60543 -3.24248 0
M  V30 3061 N 288.23 0.939286 1.26551 0
M  V30 3062 C 289.477 0.585847 1.9384 0
M  V30 3063 C 289.805 -0.874784 1.73718 0
M  V30 3064 O 289.06 -1.64092 1.06642 0
M  V30 3065 C 289.359 0.872106 3.46596 0
M  V30 3066 C 289.025 2.31632 3.86856 0
M  V30 3067 C 287.687 2.71111 3.97558 0
M  V30 3068 C 290.039 3.25494 4.07066 0
M  V30 3069 C 287.367 4.03553 4.25866 0
M  V30 3070 C 289.719 4.57531 4.36862 0
M  V30 3071 C 288.383 4.96828 4.45778 0
M  V30 3072 H 287.653 0.214377 0.709312 0
M  V30 3073 H 290.3 1.18544 1.50398 0
M  V30 3074 H 288.605 0.18996 3.91339 0
M  V30 3075 H 290.302 0.577442 3.96821 0
M  V30 3076 H 286.892 2.00008 3.79071 0
M  V30 3077 H 291.076 2.9619 3.98227 0
M  V30 3078 H 286.332 4.33665 4.30981 0
M  V30 3079 H 290.506 5.30254 4.51446 0
M  V30 3080 H 288.133 5.99482 4.67468 0
M  V30 3081 N 289.708 -1.40897 0.706093 0
M  V30 3082 C 290.64 -2.29199 0.00815776 0
M  V30 3083 C 291.653 -1.45336 -0.733582 0
M  V30 3084 O 292.842 -1.68727 -0.582537 0
M  V30 3085 C 289.942 -3.23417 -1.01265 0
M  V30 3086 C 289.115 -4.36089 -0.338387 0
M  V30 3087 C 288.174 -5.10811 -1.26326 0
M  V30 3088 O 287.2 -5.64215 -0.751651 0
M  V30 3089 N 288.402 -5.19269 -2.595 0
M  V30 3090 H 291.167 -2.89738 0.766297 0
M  V30 3091 H 288.728 -1.52164 0.55296 0
M  V30 3092 H 290.72 -3.70276 -1.63334 0
M  V30 3093 H 289.29 -2.64112 -1.67223 0
M  V30 3094 H 288.51 -3.91479 0.462352 0
M  V30 3095 H 289.798 -5.08634 0.130031 0
M  V30 3096 H 289.196 -4.77347 -3.03573 0
M  V30 3097 H 287.753 -5.69667 -3.16737 0
M  V30 3098 N 291.186 -0.45159 -1.50991 0
M  V30 3099 C 292.463 0.170707 -1.94854 0
M  V30 3100 C 292.843 1.58788 -1.39103 0
M  V30 3101 O 292.191 2.20913 -0.583921 0
M  V30 3102 C 292.401 0.133929 -3.48743 0
M  V30 3103 C 293.749 0.33248 -4.23296 0
M  V30 3104 O 294.773 0.211403 -3.55572 0
M  V30 3105 O 293.632 0.57486 -5.43468 0
M  V30 3106 H 290.726 0.122264 -0.817912 0
M  V30 3107 H 293.272 -0.510594 -1.61836 0
M  V30 3108 H 292.044 -0.856283 -3.81816 0
M  V30 3109 H 291.667 0.857529 -3.88242 0
M  V30 3110 N 292.664 1.56529 -0.183458 0
M  V30 3111 C 293.594 2.21549 0.737456 0
M  V30 3112 C 294.575 1.17489 1.23005 0
M  V30 3113 O 295.76 1.45959 1.281 0
M  V30 3114 C 292.89 2.86575 1.96194 0
M  V30 3115 C 291.844 3.96778 1.60473 0
M  V30 3116 C 291.17 4.48911 2.90487 0
M  V30 3117 C 292.47 5.15767 0.823497 0
M  V30 3118 H 294.164 2.98761 0.195453 0
M  V30 3119 H 291.71 1.43702 0.0925686 0
M  V30 3120 H 293.663 3.30739 2.61131 0
M  V30 3121 H 292.387 2.06749 2.52828 0
M  V30 3122 H 291.046 3.53286 0.978997 0
M  V30 3123 H 290.694 3.65862 3.45186 0
M  V30 3124 H 290.394 5.23265 2.67335 0
M  V30 3125 H 291.918 4.95771 3.56432 0
M  V30 3126 H 293.332 5.56549 1.37571 0
M  V30 3127 H 291.729 5.96114 0.690551 0
M  V30 3128 H 292.799 4.84574 -0.177782 0
M  V30 3129 N 294.142 -0.090211 1.57342 0
M  V30 3130 C 295.052 -1.12735 2.05738 0
M  V30 3131 C 296.068 -1.43557 0.983231 0
M  V30 3132 O 297.244 -1.54101 1.29672 0
M  V30 3133 C 294.309 -2.42659 2.47624 0
M  V30 3134 C 293.37 -2.18975 3.69254 0
M  V30 3135 C 292.603 -3.42704 4.09133 0
M  V30 3136 O 292.826 -4.51127 3.49057 0
M  V30 3137 O 291.76 -3.32003 5.02053 0
M  V30 3138 H 295.586 -0.746279 2.94388 0
M  V30 3139 H 293.171 -0.303064 1.46294 0
M  V30 3140 H 295.053 -3.19155 2.7517 0
M  V30 3141 H 293.728 -2.80182 1.62109 0
M  V30 3142 H 292.635 -1.40244 3.46818 0
M  V30 3143 H 293.968 -1.86342 4.55563 0
M  V30 3144 N 295.62 -1.53406 -0.361157 0
M  V30 3145 C 296.55 -1.83136 -1.44857 0
M  V30 3146 C 297.531 -0.685174 -1.5569 0
M  V30 3147 O 298.716 -0.93544 -1.70186 0
M  V30 3148 C 295.846 -2.02522 -2.82138 0
M  V30 3149 C 294.8 -3.18302 -2.86126 0
M  V30 3150 C 294.126 -3.22989 -4.26125 0
M  V30 3151 C 295.426 -4.56796 -2.53248 0
M  V30 3152 H 297.12 -2.74201 -1.20226 0
M  V30 3153 H 294.666 -1.31938 -0.576922 0
M  V30 3154 H 296.619 -2.21904 -3.58241 0
M  V30 3155 H 295.343 -1.08172 -3.08166 0
M  V30 3156 H 294.002 -2.98747 -2.12475 0
M  V30 3157 H 293.65 -2.26267 -4.49235 0
M  V30 3158 H 293.35 -4.00781 -4.29708 0
M  V30 3159 H 294.874 -3.44559 -5.04094 0
M  V30 3160 H 296.288 -4.7631 -3.19064 0
M  V30 3161 H 294.685 -5.36862 -2.68141 0
M  V30 3162 H 295.755 -4.61606 -1.48484 0
M  V30 3163 N 297.098 0.621204 -1.44841 0
M  V30 3164 C 298.045 1.73267 -1.5247 0
M  V30 3165 C 299.015 1.6189 -0.371611 0
M  V30 3166 O 300.2 1.81668 -0.58321 0
M  V30 3167 C 297.34 3.11545 -1.48438 0
M  V30 3168 C 296.453 3.33827 -2.74196 0
M  V30 3169 C 295.588 4.62133 -2.61929 0
M  V30 3170 C 294.627 4.77627 -3.82804 0
M  V30 3171 N 293.764 5.97219 -3.69153 0
M  V30 3172 H 298.604 1.66082 -2.47428 0
M  V30 3173 H 296.141 0.810026 -1.22788 0
M  V30 3174 H 298.099 3.91528 -1.4409 0
M  V30 3175 H 296.729 3.1772 -0.570402 0
M  V30 3176 H 295.781 2.47715 -2.88689 0
M  V30 3177 H 297.093 3.41153 -3.6389 0
M  V30 3178 H 296.247 5.50291 -2.5547 0
M  V30 3179 H 294.986 4.57182 -1.69811 0
M  V30 3180 H 293.991 3.87896 -3.89637 0
M  V30 3181 H 295.216 4.84385 -4.75971 0
M  V30 3182 H 293.162 5.93339 -2.79794 0
M  V30 3183 H 293.079 6.05644 -4.52472 0
M  V30 3184 H 294.347 6.87912 -3.66603 0
M  V30 3185 N 298.576 1.31904 0.862503 0
M  V30 3186 C 299.523 1.20182 1.9704 0
M  V30 3187 C 300.493 0.0858247 1.65878 0
M  V30 3188 O 301.678 0.26 1.8902 0
M  V30 3189 C 298.818 0.922797 3.32533 0
M  V30 3190 C 297.931 2.12284 3.76244 0
M  V30 3191 C 297.066 1.77996 5.00491 0
M  V30 3192 C 296.105 2.94366 5.36671 0
M  V30 3193 N 295.242 2.60223 6.52095 0
M  V30 3194 H 300.082 2.14951 2.06398 0
M  V30 3195 H 297.619 1.06917 1.01031 0
M  V30 3196 H 299.577 0.741548 4.10557 0
M  V30 3197 H 298.207 0.0119227 3.22798 0
M  V30 3198 H 297.259 2.41461 2.9394 0
M  V30 3199 H 298.571 2.99357 3.98982 0
M  V30 3200 H 297.725 1.56377 5.862 0
M  V30 3201 H 296.464 0.881252 4.79672 0
M  V30 3202 H 295.469 3.16625 4.49476 0
M  V30 3203 H 296.694 3.84957 5.59451 0
M  V30 3204 H 294.64 1.72884 6.32809 0
M  V30 3205 H 294.557 3.40827 6.74814 0
M  V30 3206 H 295.825 2.42016 7.40978 0
M  V30 3207 N 300.054 -1.07777 1.14986 0
M  V30 3208 C 300.964 -2.18404 0.856546 0
M  V30 3209 C 301.98 -1.73211 -0.165485 0
M  V30 3210 O 303.156 -2.01399 0.00755219 0
M  V30 3211 C 300.221 -3.44977 0.34526 0
M  V30 3212 C 299.282 -4.0476 1.43065 0
M  V30 3213 C 298.515 -5.25291 0.943663 0
M  V30 3214 O 298.738 -5.70004 -0.212426 0
M  V30 3215 O 297.672 -5.76638 1.72547 0
M  V30 3216 H 301.498 -2.45978 1.78125 0
M  V30 3217 H 299.083 -1.17033 0.928631 0
M  V30 3218 H 300.965 -4.21348 0.0663671 0
M  V30 3219 H 299.64 -3.18965 -0.551631 0
M  V30 3220 H 298.547 -3.29949 1.76309 0
M  V30 3221 H 299.88 -4.35035 2.30229 0
M  V30 3222 N 301.532 -0.945985 -1.26051 0
M  V30 3223 C 302.948 -0.649045 -1.45807 0
M  V30 3224 C 303.148 0.796158 -1.85104 0
M  V30 3225 O 302.204 1.57233 -1.97571 0
M  V30 3226 C 303.517 -1.61458 -2.53677 0
M  V30 3227 C 305.065 -1.62481 -2.67524 0
M  V30 3228 C 305.54 -2.57776 -3.7857 0
M  V30 3229 N 307.031 -2.5609 -3.85969 0
M  V30 3230 C 307.766 -3.26508 -4.7136 0
M  V30 3231 N 307.262 -4.0637 -5.61102 0
M  V30 3232 N 309.055 -3.15437 -4.65248 0
M  V30 3233 H 301.206 -1.88005 -0.988328 0
M  V30 3234 H 303.469 -0.808198 -0.4955 0
M  V30 3235 H 303.175 -2.64644 -2.31638 0
M  V30 3236 H 303.049 -1.37036 -3.51427 0
M  V30 3237 H 305.436 -0.600167 -2.88933 0
M  V30 3238 H 305.517 -1.90958 -1.70202 0
M  V30 3239 H 305.161 -3.60361 -3.57913 0
M  V30 3240 H 305.091 -2.26587 -4.75359 0
M  V30 3241 H 307.582 -1.98105 -3.21812 0
M  V30 3242 H 307.895 -4.57042 -6.23164 0
M  V30 3243 H 306.24 -4.10469 -5.60839 0
M  V30 3244 H 309.431 -2.52525 -3.94143 0
M  V30 3245 H 309.604 -3.70584 -5.31575 0
M  V30 3246 N 303.011 1.40521 -0.713556 0
M  V30 3247 C 304.427 1.54839 -0.386907 0
M  V30 3248 C 304.627 1.68532 1.1045 0
M  V30 3249 O 303.683 1.67377 1.89053 0
M  V30 3250 C 304.996 2.77792 -1.15118 0
M  V30 3251 C 306.544 2.91607 -1.13729 0
M  V30 3252 C 307.019 4.1747 -1.88368 0
M  V30 3253 N 308.51 4.24466 -1.85427 0
M  V30 3254 C 309.245 5.20755 -2.40004 0
M  V30 3255 N 308.741 6.22965 -3.03129 0
M  V30 3256 N 310.534 5.1282 -2.30158 0
M  V30 3257 H 302.685 1.29879 -1.68063 0
M  V30 3258 H 304.948 0.627896 -0.710247 0
M  V30 3259 H 304.654 2.73944 -2.20561 0
M  V30 3260 H 304.528 3.6984 -0.741477 0
M  V30 3261 H 306.915 2.94959 -0.0910608 0
M  V30 3262 H 306.996 2.00682 -1.5862 0
M  V30 3263 H 306.64 4.1488 -2.9298 0
M  V30 3264 H 306.57 5.074 -1.40898 0
M  V30 3265 H 309.061 3.51241 -1.3942 0
M  V30 3266 H 309.374 6.92859 -3.42295 0
M  V30 3267 H 307.719 6.23415 -3.07212 0
M  V30 3268 H 310.91 4.31899 -1.80501 0
M  V30 3269 H 311.083 5.87689 -2.72993 0
M  V30 3270 N 304.489 0.459591 1.5075 0
M  V30 3271 C 305.735 -0.0994966 2.02556 0
M  V30 3272 C 306.068 -1.40399 1.3417 0
M  V30 3273 O 305.343 -1.88892 0.463683 0
M  V30 3274 C 305.626 -0.295242 3.58888 0
M  V30 3275 C 305.479 1.02947 4.37861 0
M  V30 3276 C 306.798 -1.05502 4.27267 0
M  V30 3277 H 303.917 -0.034686 0.736183 0
M  V30 3278 H 306.559 0.602938 1.8018 0
M  V30 3279 H 304.709 -0.893563 3.78084 0
M  V30 3280 H 306.381 1.66348 4.30263 0
M  V30 3281 H 304.624 1.62885 4.02058 0
M  V30 3282 H 305.295 0.846281 5.45474 0
M  V30 3283 H 307.771 -0.547993 4.12476 0
M  V30 3284 H 306.647 -1.16077 5.36486 0
M  V30 3285 H 306.908 -2.08875 3.89645 0
M  V30 3286 N 305.967 -1.56429 0.191757 0
M  V30 3287 C 307.216 -1.9666 -0.448088 0
M  V30 3288 C 307.529 -1.08136 -1.62991 0
M  V30 3289 O 308.735 -1.38135 -2.33733 0
M  V30 3290 C 307.191 -3.49753 -0.848585 0
M  V30 3291 C 306.799 -4.46935 0.308764 0
M  V30 3292 C 308.543 -3.9876 -1.4557 0
M  V30 3293 C 306.45 -5.91293 -0.112506 0
M  V30 3294 H 305.38 -0.734312 -0.171179 0
M  V30 3295 H 308.031 -1.81301 0.283242 0
M  V30 3296 H 306.413 -3.60604 -1.63649 0
M  V30 3297 H 307.587 -4.47813 1.08627 0
M  V30 3298 H 305.902 -4.08102 0.827158 0
M  V30 3299 H 308.499 -5.04086 -1.78328 0
M  V30 3300 H 308.842 -3.42875 -2.36099 0
M  V30 3301 H 309.375 -3.9101 -0.731836 0
M  V30 3302 H 306.114 -6.51097 0.758514 0
M  V30 3303 H 305.634 -5.93676 -0.854941 0
M  V30 3304 H 307.313 -6.44663 -0.549448 0
M  V30 3305 N 307.445 0.0818655 -1.57387 0
M  V30 3306 C 308.375 1.09885 -2.06028 0
M  V30 3307 C 309.356 1.4098 -0.951774 0
M  V30 3308 O 310.541 1.50781 -1.22387 0
M  V30 3309 C 307.671 2.4151 -2.4958 0
M  V30 3310 C 306.625 2.24792 -3.64215 0
M  V30 3311 C 305.951 3.61712 -3.93787 0
M  V30 3312 C 307.251 1.67749 -4.94629 0
M  V30 3313 H 308.945 0.694128 -2.91243 0
M  V30 3314 H 306.491 0.332448 -1.4011 0
M  V30 3315 H 308.444 3.12939 -2.82219 0
M  V30 3316 H 307.168 2.83943 -1.61381 0
M  V30 3317 H 305.827 1.55807 -3.31843 0
M  V30 3318 H 305.475 4.01697 -3.02735 0
M  V30 3319 H 305.175 3.51368 -4.70971 0
M  V30 3320 H 306.699 4.34587 -4.28913 0
M  V30 3321 H 308.113 2.29032 -5.25564 0
M  V30 3322 H 306.51 1.68128 -5.76067 0
M  V30 3323 H 307.58 0.638059 -4.80684 0
M  V30 3324 N 308.923 1.53595 0.353017 0
M  V30 3325 C 310.2 1.61002 1.11075 0
M  V30 3326 C 310.58 0.425356 2.0677 0
M  V30 3327 O 309.928 -0.583267 2.2093 0
M  V30 3328 C 310.138 2.96631 1.83877 0
M  V30 3329 C 311.486 3.51653 2.37961 0
M  V30 3330 O 312.51 2.98743 1.93987 0
M  V30 3331 O 311.369 4.44177 3.18386 0
M  V30 3332 H 308.463 0.650825 0.510251 0
M  V30 3333 H 311.009 1.6594 0.35527 0
M  V30 3334 H 309.781 3.74293 1.14108 0
M  V30 3335 H 309.404 2.95242 2.66304 0
M  V30 3336 N 310.401 -0.613514 1.45168 0
M  V30 3337 C 311.641 -1.38405 1.5041 0
M  V30 3338 C 312.005 -1.91489 0.139922 0
M  V30 3339 O 313.206 -2.68716 0.067033 0
M  V30 3340 C 311.477 -2.50552 2.5487 0
M  V30 3341 S 313.036 -3.38439 2.79292 0
M  V30 3342 H 309.854 -0.471945 0.531779 0
M  V30 3343 H 312.456 -0.708518 1.82209 0
M  V30 3344 H 311.16 -2.09894 3.52665 0
M  V30 3345 H 310.691 -3.22913 2.24701 0
M  V30 3346 H 312.706 -4.48527 2.12222 0
M  V30 3347 N 311.879 -1.3236 -0.855495 0
M  V30 3348 C 312.789 -1.23221 -1.99634 0
M  V30 3349 C 313.805 -0.145983 -1.73387 0
M  V30 3350 O 314.981 -0.366502 -1.98037 0
M  V30 3351 C 312.046 -0.954782 -3.33294 0
M  V30 3352 C 311.107 -2.12937 -3.72769 0
M  V30 3353 C 310.34 -1.86508 -5.00051 0
M  V30 3354 O 310.563 -0.807231 -5.64659 0
M  V30 3355 O 309.497 -2.72591 -5.36636 0
M  V30 3356 H 313.323 -2.19126 -2.1028 0
M  V30 3357 H 310.908 -1.12241 -0.986018 0
M  V30 3358 H 312.79 -0.816519 -4.13414 0
M  V30 3359 H 311.465 -0.0258854 -3.2369 0
M  V30 3360 H 310.372 -2.3231 -2.93228 0
M  V30 3361 H 311.705 -3.04102 -3.87018 0
M  V30 3362 N 313.357 1.07166 -1.15556 0
M  V30 3363 C 314.773 1.31899 -0.898603 0
M  V30 3364 C 314.973 1.96333 0.453383 0
M  V30 3365 O 314.029 2.22438 1.19489 0
M  V30 3366 C 315.342 2.20826 -2.04099 0
M  V30 3367 C 316.89 2.34269 -2.07574 0
M  V30 3368 C 317.365 3.26546 -3.21141 0
M  V30 3369 N 318.856 3.34127 -3.20801 0
M  V30 3370 C 319.591 4.05595 -4.05315 0
M  V30 3371 N 319.087 4.79661 -4.99897 0
M  V30 3372 N 320.88 4.01555 -3.93332 0
M  V30 3373 H 313.031 0.637302 -2.02613 0
M  V30 3374 H 315.294 0.343468 -0.883591 0
M  V30 3375 H 315 1.80744 -3.01703 0
M  V30 3376 H 314.874 3.21364 -1.97496 0
M  V30 3377 H 317.261 2.73603 -1.10568 0
M  V30 3378 H 317.342 1.33429 -2.18244 0
M  V30 3379 H 316.986 2.87931 -4.184 0
M  V30 3380 H 316.916 4.27345 -3.07708 0
M  V30 3381 H 319.407 2.81336 -2.52306 0
M  V30 3382 H 319.72 5.31694 -5.60822 0
M  V30 3383 H 318.065 4.78671 -5.03884 0
M  V30 3384 H 321.256 3.42806 -3.18751 0
M  V30 3385 H 321.429 4.56987 -4.5942 0
M  V30 3386 N 314.835 0.952656 1.25548 0
M  V30 3387 C 316.112 0.523818 1.88456 0
M  V30 3388 C 316.492 -0.998871 1.85973 0
M  V30 3389 O 315.84 -1.86381 1.3219 0
M  V30 3390 C 316.05 1.0982 3.31271 0
M  V30 3391 C 317.398 1.17385 4.08051 0
M  V30 3392 O 318.422 1.04961 3.40384 0
M  V30 3393 O 317.281 1.36852 5.29088 0
M  V30 3394 H 314.375 0.172485 0.808813 0
M  V30 3395 H 316.921 1.04596 1.33633 0
M  V30 3396 H 315.693 2.1415 3.27499 0
M  V30 3397 H 315.316 0.559191 3.93648 0
M  V30 3398 N 316.313 -1.40141 0.720998 0
M  V30 3399 C 317.26 -2.30688 0.071919 0
M  V30 3400 C 318.23 -1.48476 -0.744584 0
M  V30 3401 O 319.415 -1.77201 -0.707423 0
M  V30 3402 C 316.555 -3.34724 -0.839855 0
M  V30 3403 C 315.668 -4.31998 -0.0122438 0
M  V30 3404 C 314.803 -5.23102 -0.923995 0
M  V30 3405 C 313.842 -6.12033 -0.0907969 0
M  V30 3406 N 312.979 -6.95537 -0.957718 0
M  V30 3407 H 317.819 -2.85628 0.849755 0
M  V30 3408 H 315.356 -1.40653 0.430726 0
M  V30 3409 H 317.314 -3.93618 -1.38279 0
M  V30 3410 H 315.944 -2.81274 -1.58381 0
M  V30 3411 H 314.996 -3.74841 0.64794 0
M  V30 3412 H 316.308 -4.94772 0.632595 0
M  V30 3413 H 315.462 -5.86953 -1.53527 0
M  V30 3414 H 314.201 -4.60615 -1.60264 0
M  V30 3415 H 313.206 -5.47207 0.533377 0
M  V30 3416 H 314.431 -6.76581 0.584428 0
M  V30 3417 H 312.377 -6.35633 -1.62192 0
M  V30 3418 H 312.294 -7.55099 -0.36904 0
M  V30 3419 H 313.562 -7.63832 -1.555 0
M  V30 3420 N 317.792 -0.46758 -1.50504 0
M  V30 3421 C 319.038 0.0887532 -2.02606 0
M  V30 3422 C 319.371 1.39686 -1.34913 0
M  V30 3423 O 318.646 1.88644 -0.473694 0
M  V30 3424 C 318.929 0.276206 -3.59039 0
M  V30 3425 C 318.782 -1.05267 -4.37309 0
M  V30 3426 C 320.101 1.03235 -4.27821 0
M  V30 3427 H 317.22 0.0307814 -0.736357 0
M  V30 3428 H 319.862 -0.612485 -1.79857 0
M  V30 3429 H 318.012 0.8735 -3.78553 0
M  V30 3430 H 319.684 -1.68628 -4.29374 0
M  V30 3431 H 317.927 -1.65015 -4.01189 0
M  V30 3432 H 318.598 -0.875197 -5.45018 0
M  V30 3433 H 321.074 0.526111 -4.12761 0
M  V30 3434 H 319.95 1.1323 -5.37094 0
M  V30 3435 H 320.211 2.06806 -3.90748 0
M  V30 3436 N 319.27 1.56325 -0.20005 0
M  V30 3437 C 320.218 2.20666 0.735482 0
M  V30 3438 C 321.212 1.17934 1.21605 0
M  V30 3439 O 322.418 1.36068 1.17837 0
M  V30 3440 H 318.793 0.70725 0.255542 0
M  V30 3441 H 320.764 2.9792 0.169166 0
M  V30 3442 C 319.513 2.88391 1.94232 0
M  V30 3443 H 318.836 3.67185 1.58161 0
M  V30 3444 H 320.276 3.3684 2.57517 0
M  V30 3445 C 318.735 1.89692 2.78421 0
M  V30 3446 O 319.265 1.40032 3.76502 0
M  V30 3447 N 317.471 1.57813 2.44015 0
M  V30 3448 H 317.018 1.9839 1.64314 0
M  V30 3449 H 316.976 0.920325 3.00628 0
M  V30 3450 N 320.748 -0.0735177 1.57428 0
M  V30 3451 C 322.025 -0.805903 1.78226 0
M  V30 3452 C 322.405 -1.95874 0.787189 0
M  V30 3453 O 321.753 -2.2779 -0.180029 0
M  V30 3454 C 321.963 -1.28045 3.24662 0
M  V30 3455 C 323.311 -1.71453 3.88444 0
M  V30 3456 O 324.335 -1.37616 3.28543 0
M  V30 3457 O 323.194 -2.34093 4.93825 0
M  V30 3458 H 320.288 -0.386041 0.73137 0
M  V30 3459 H 322.834 -0.0537269 1.69615 0
M  V30 3460 H 321.606 -0.455476 3.8864 0
M  V30 3461 H 321.229 -2.094 3.37991 0
M  V30 3462 N 322.226 -1.5378 -0.344866 0
M  V30 3463 C 323.475 -1.7018 -1.08267 0
M  V30 3464 C 323.788 -0.471 -1.89845 0
M  V30 3465 O 324.994 -0.515917 -2.66553 0
M  V30 3466 C 323.45 -3.00923 -1.97417 0
M  V30 3467 C 323.058 -4.31335 -1.21053 0
M  V30 3468 C 324.802 -3.26688 -2.71063 0
M  V30 3469 C 322.709 -5.53153 -2.09225 0
M  V30 3470 H 321.639 -0.634138 -0.407903 0
M  V30 3471 H 324.29 -1.8028 -0.342246 0
M  V30 3472 H 322.672 -2.84676 -2.75274 0
M  V30 3473 H 323.846 -4.58281 -0.481159 0
M  V30 3474 H 322.161 -4.12173 -0.591813 0
M  V30 3475 H 324.758 -4.1489 -3.37299 0
M  V30 3476 H 325.101 -2.43639 -3.37558 0
M  V30 3477 H 325.634 -3.43705 -2.0028 0
M  V30 3478 H 322.373 -6.38741 -1.47274 0
M  V30 3479 H 321.893 -5.30458 -2.79955 0
M  V30 3480 H 323.572 -5.88744 -2.68308 0
M  V30 3481 N 323.704 0.605807 -1.45491 0
M  V30 3482 C 324.95 1.36679 -1.49823 0
M  V30 3483 C 325.283 1.93693 -0.140175 0
M  V30 3484 O 324.558 1.75158 0.845581 0
M  V30 3485 C 324.841 2.51337 -2.57879 0
M  V30 3486 C 324.694 1.99508 -4.03134 0
M  V30 3487 C 326.013 3.53463 -2.62205 0
M  V30 3488 H 323.132 0.495617 -0.545466 0
M  V30 3489 H 325.774 0.682732 -1.7731 0
M  V30 3490 H 323.924 3.09691 -2.34571 0
M  V30 3491 H 325.596 1.45789 -4.37656 0
M  V30 3492 H 323.839 1.30496 -4.13707 0
M  V30 3493 H 324.51 2.82169 -4.74431 0
M  V30 3494 H 326.986 3.04953 -2.83095 0
M  V30 3495 H 325.862 4.31178 -3.39672 0
M  V30 3496 H 326.123 4.09197 -1.67363 0
M  V30 3497 N 325.182 1.32811 0.848464 0
M  V30 3498 C 326.459 1.14334 1.58704 0
M  V30 3499 C 326.839 -0.293948 2.09043 0
M  V30 3500 O 326.187 -1.29153 1.88499 0
M  V30 3501 C 326.397 2.17626 2.72837 0
M  V30 3502 C 327.745 2.51282 3.42261 0
M  V30 3503 O 328.769 2.16219 2.83068 0
M  V30 3504 O 327.628 3.11413 4.49093 0
M  V30 3505 H 324.722 0.441601 0.699226 0
M  V30 3506 H 327.268 1.44362 0.892053 0
M  V30 3507 H 326.04 3.14211 2.3321 0
M  V30 3508 H 325.663 1.88628 3.50008 0
M  V30 3509 N 326.66 -1.06551 1.16123 0
M  V30 3510 C 327.592 -2.13908 0.823171 0
M  V30 3511 C 328.605 -1.61926 -0.16843 0
M  V30 3512 O 329.794 -1.78412 0.055962 0
M  V30 3513 C 326.894 -3.38283 0.204424 0
M  V30 3514 C 326.067 -4.19589 1.23548 0
M  V30 3515 C 325.126 -5.2233 0.637011 0
M  V30 3516 O 324.152 -5.54034 1.30516 0
M  V30 3517 N 325.354 -5.77621 -0.577474 0
M  V30 3518 H 328.119 -2.43508 1.74711 0
M  V30 3519 H 325.68 -1.2253 1.05821 0
M  V30 3520 H 327.672 -4.0416 -0.208909 0
M  V30 3521 H 326.242 -3.06329 -0.623012 0
M  V30 3522 H 325.462 -3.49406 1.82507 0
M  V30 3523 H 326.75 -4.70718 1.93137 0
M  V30 3524 H 326.148 -5.54125 -1.13853 0
M  V30 3525 H 324.705 -6.45087 -0.933053 0
M  V30 3526 N 328.138 -0.959301 -1.25041 0
M  V30 3527 C 329.384 -0.617525 -1.9317 0
M  V30 3528 C 329.717 0.843981 -1.74902 0
M  V30 3529 O 328.992 1.60615 -1.09696 0
M  V30 3530 C 329.275 -0.982736 -3.46431 0
M  V30 3531 C 329.128 -2.50032 -3.73904 0
M  V30 3532 C 330.447 -0.511176 -4.37121 0
M  V30 3533 H 327.566 -0.22582 -0.701552 0
M  V30 3534 H 330.208 -1.19679 -1.4757 0
M  V30 3535 H 328.358 -0.489806 -3.854 0
M  V30 3536 H 330.03 -3.06737 -3.44544 0
M  V30 3537 H 328.273 -2.93598 -3.19348 0
M  V30 3538 H 328.944 -2.70635 -4.81103 0
M  V30 3539 H 331.42 -0.934075 -4.0548 0
M  V30 3540 H 330.296 -0.795361 -5.43107 0
M  V30 3541 H 330.557 0.588834 -4.38161 0
M  V30 3542 N 329.616 1.39756 -0.72842 0
M  V30 3543 C 330.865 1.99879 -0.270407 0
M  V30 3544 C 331.178 1.58449 1.14688 0
M  V30 3545 O 332.384 2.11362 1.70407 0
M  V30 3546 C 330.84 3.57292 -0.43252 0
M  V30 3547 C 330.448 4.07688 -1.85727 0
M  V30 3548 C 332.192 4.24485 -0.0359507 0
M  V30 3549 C 330.099 5.5765 -1.96928 0
M  V30 3550 H 329.029 0.747689 -0.0973472 0
M  V30 3551 H 331.68 1.59837 -0.901355 0
M  V30 3552 H 330.062 3.95097 0.267219 0
M  V30 3553 H 331.236 3.81231 -2.58843 0
M  V30 3554 H 329.551 3.53135 -2.20646 0
M  V30 3555 H 332.148 5.34609 -0.0987484 0
M  V30 3556 H 332.491 4.03915 1.00787 0
M  V30 3557 H 333.024 3.9183 -0.686604 0
M  V30 3558 H 329.763 5.8309 -2.99476 0
M  V30 3559 H 329.283 5.8593 -1.28241 0
M  V30 3560 H 330.962 6.22957 -1.74737 0
M  V30 3561 N 331.094 0.475555 1.50254 0
M  V30 3562 C 332.322 -0.0754493 2.06762 0
M  V30 3563 C 332.737 -1.33111 1.33891 0
M  V30 3564 O 332.094 -1.77846 0.40952 0
M  V30 3565 C 332.145 -0.359008 3.59713 0
M  V30 3566 O 331.866 0.846851 4.29837 0
M  V30 3567 C 333.367 -0.956484 4.32858 0
M  V30 3568 H 330.587 0.00907525 0.670939 0
M  V30 3569 H 333.131 0.665618 1.93364 0
M  V30 3570 H 331.286 -1.05001 3.72899 0
M  V30 3571 H 331.7 0.594162 5.21124 0
M  V30 3572 H 333.174 -1.10463 5.40834 0
M  V30 3573 H 333.651 -1.94775 3.93649 0
M  V30 3574 H 334.257 -0.303723 4.24214 0
M  V30 3575 N 332.573 -1.56217 0.208337 0
M  V30 3576 C 333.822 -1.97124 -0.427204 0
M  V30 3577 C 334.135 -1.09859 -1.61835 0
M  V30 3578 O 335.341 -1.40606 -2.32255 0
M  V30 3579 C 333.797 -3.50633 -0.811442 0
M  V30 3580 C 333.405 -4.46582 0.35615 0
M  V30 3581 C 335.149 -4.00282 -1.41332 0
M  V30 3582 C 333.056 -5.91379 -0.0497852 0
M  V30 3583 H 331.986 -0.736086 -0.163381 0
M  V30 3584 H 334.637 -1.8099 0.302456 0
M  V30 3585 H 333.019 -3.62319 -1.59815 0
M  V30 3586 H 334.193 -4.46636 1.1337 0
M  V30 3587 H 332.508 -4.07202 0.870396 0
M  V30 3588 H 335.105 -5.0595 -1.72972 0
M  V30 3589 H 335.448 -3.45359 -2.32449 0
M  V30 3590 H 335.981 -3.91764 -0.690323 0
M  V30 3591 H 332.72 -6.50255 0.827529 0
M  V30 3592 H 332.24 -5.94549 -0.791926 0
M  V30 3593 H 333.919 -6.45209 -0.481042 0
M  V30 3594 N 334.051 0.0651679 -1.57465 0
M  V30 3595 C 335.299 0.761555 -1.87202 0
M  V30 3596 C 335.62 1.77778 -0.801243 0
M  V30 3597 O 334.89 1.95166 0.16937 0
M  V30 3598 H 333.47 0.284251 -0.690804 0
M  V30 3599 H 336.132 0.0396827 -1.9486 0
M  V30 3600 H 335.228 1.27365 -2.84929 0
M  V30 3601 N 335.529 1.53961 0.336706 0
M  V30 3602 C 336.476 1.82428 1.41381 0
M  V30 3603 C 337.446 0.670444 1.51968 0
M  V30 3604 O 338.631 0.915565 1.67398 0
M  V30 3605 C 335.771 2.04564 2.77934 0
M  V30 3606 C 334.884 3.32267 2.76084 0
M  V30 3607 C 334.019 3.44434 4.04399 0
M  V30 3608 C 333.058 4.66061 3.96804 0
M  V30 3609 N 332.195 4.75224 5.16823 0
M  V30 3610 H 337.035 2.74324 1.16405 0
M  V30 3611 H 334.572 1.35869 0.563752 0
M  V30 3612 H 336.53 2.15388 3.57301 0
M  V30 3613 H 335.16 1.15974 3.01247 0
M  V30 3614 H 334.212 3.3025 1.88784 0
M  V30 3615 H 335.524 4.21733 2.66351 0
M  V30 3616 H 334.678 3.54728 4.92192 0
M  V30 3617 H 333.417 2.53037 4.16921 0
M  V30 3618 H 332.422 4.55838 3.07396 0
M  V30 3619 H 333.647 5.58829 3.85858 0
M  V30 3620 H 331.593 3.86739 5.29876 0
M  V30 3621 H 331.51 5.58636 5.09374 0
M  V30 3622 H 332.778 4.89835 6.06367 0
M  V30 3623 N 337.007 -0.598083 1.45811 0
M  V30 3624 C 337.957 -1.70272 1.51629 0
M  V30 3625 C 338.941 -1.56382 0.378629 0
M  V30 3626 O 340.133 -1.65557 0.626087 0
M  V30 3627 C 337.262 -3.09042 1.49493 0
M  V30 3628 C 336.348 -3.28284 2.68496 0
M  V30 3629 N 336.739 -3.17748 3.93535 0
M  V30 3630 C 335.037 -3.59182 2.64394 0
M  V30 3631 C 335.738 -3.38579 4.7301 0
M  V30 3632 N 334.714 -3.63016 4.04624 0
M  V30 3633 H 338.516 -1.60634 2.46118 0
M  V30 3634 H 336.03 -0.801642 1.41235 0
M  V30 3635 H 338.027 -3.88302 1.51747 0
M  V30 3636 H 336.687 -3.19823 0.560683 0
M  V30 3637 H 337.698 -2.95944 4.25014 0
M  V30 3638 H 334.375 -3.76742 1.79922 0
M  V30 3639 H 335.765 -3.35747 5.82 0
M  V30 3640 N 338.485 -1.33259 -0.841409 0
M  V30 3641 C 339.731 -1.24757 -1.59886 0
M  V30 3642 C 340.064 0.186913 -1.93298 0
M  V30 3643 O 339.339 1.12757 -1.5848 0
M  V30 3644 C 339.622 -2.12036 -2.91055 0
M  V30 3645 C 339.475 -3.63929 -2.6434 0
M  V30 3646 C 340.794 -1.9916 -3.92458 0
M  V30 3647 H 337.913 -0.454542 -0.580138 0
M  V30 3648 H 340.555 -1.63335 -0.970647 0
M  V30 3649 H 338.705 -1.79265 -3.44669 0
M  V30 3650 H 340.377 -4.06978 -2.17178 0
M  V30 3651 H 338.62 -3.85935 -1.98082 0
M  V30 3652 H 339.291 -4.20341 -3.57796 0
M  V30 3653 H 341.767 -2.27895 -3.48143 0
M  V30 3654 H 340.643 -2.62484 -4.82072 0
M  V30 3655 H 340.904 -0.963082 -4.31482 0
M  V30 3656 N 339.963 1.05934 -1.16686 0
M  V30 3657 C 340.91 2.13499 -0.876748 0
M  V30 3658 C 341.88 1.65162 0.176299 0
M  V30 3659 O 343.065 1.90757 0.0407143 0
M  V30 3660 C 340.205 3.42912 -0.387967 0
M  V30 3661 C 339.318 4.04964 -1.50426 0
M  V30 3662 C 338.453 5.22266 -0.970125 0
M  V30 3663 C 337.492 5.76309 -2.06238 0
M  V30 3664 N 336.629 6.84922 -1.54356 0
M  V30 3665 H 341.469 2.37654 -1.7979 0
M  V30 3666 H 339.006 1.16598 -0.896843 0
M  V30 3667 H 340.964 4.17111 -0.086186 0
M  V30 3668 H 339.594 3.18963 0.496235 0
M  V30 3669 H 338.646 3.28277 -1.92193 0
M  V30 3670 H 339.958 4.41122 -2.32836 0
M  V30 3671 H 339.112 6.03506 -0.621743 0
M  V30 3672 H 337.851 4.87564 -0.115377 0
M  V30 3673 H 336.856 4.93704 -2.41942 0
M  V30 3674 H 338.081 6.13062 -2.92115 0
M  V30 3675 H 336.027 6.52131 -0.711406 0
M  V30 3676 H 335.944 7.20043 -2.30379 0
M  V30 3677 H 337.212 7.69832 -1.22387 0
M  V30 3678 N 341.441 0.965919 1.2453 0
M  V30 3679 C 342.689 0.625593 1.92174 0
M  V30 3680 C 343.01 -0.841652 1.75901 0
M  V30 3681 O 342.28 -1.60061 1.12948 0
M  V30 3682 H 340.86 0.228388 0.71123 0
M  V30 3683 H 343.522 1.2266 1.51461 0
M  V30 3684 H 342.618 0.864653 2.99884 0
M  V30 3685 N 342.919 -1.39368 0.735821 0
M  V30 3686 C 344.149 -2.04498 0.293967 0
M  V30 3687 C 344.557 -1.55593 -1.07645 0
M  V30 3688 O 343.9 -0.716324 -1.69158 0
M  V30 3689 C 343.962 -3.58836 0.218342 0
M  V30 3690 C 343.626 -4.30721 1.52736 0
M  V30 3691 C 344.623 -4.57305 2.47322 0
M  V30 3692 C 342.308 -4.69251 1.79189 0
M  V30 3693 C 344.302 -5.21429 3.66593 0
M  V30 3694 C 341.989 -5.33104 2.98737 0
M  V30 3695 C 342.987 -5.59125 3.9226 0
M  V30 3696 O 342.675 -6.21653 5.09708 0
M  V30 3697 H 342.407 -0.664118 0.126189 0
M  V30 3698 H 344.961 -1.79385 1.00051 0
M  V30 3699 H 343.191 -3.8285 -0.544314 0
M  V30 3700 H 344.88 -4.05447 -0.191626 0
M  V30 3701 H 345.646 -4.27983 2.28156 0
M  V30 3702 H 341.525 -4.48354 1.07239 0
M  V30 3703 H 345.069 -5.41656 4.39607 0
M  V30 3704 H 340.966 -5.61846 3.17803 0
M  V30 3705 H 341.734 -6.40146 5.10054 0
M  V30 3706 N 344.397 -0.483516 -1.5 0
M  V30 3707 C 345.347 0.32306 -2.257 0
M  V30 3708 C 346.331 0.950755 -1.29805 0
M  V30 3709 O 347.523 0.861247 -1.54634 0
M  V30 3710 C 344.652 1.39724 -3.13579 0
M  V30 3711 C 343.738 0.776663 -4.16928 0
M  V30 3712 N 344.129 -0.1104 -5.0568 0
M  V30 3713 C 342.427 1.03922 -4.33724 0
M  V30 3714 C 343.128 -0.46387 -5.79848 0
M  V30 3715 N 342.104 0.163987 -5.43353 0
M  V30 3716 H 345.906 -0.360086 -2.91686 0
M  V30 3717 H 343.42 -0.298456 -1.59634 0
M  V30 3718 H 345.417 1.98837 -3.66428 0
M  V30 3719 H 344.077 2.08225 -2.49143 0
M  V30 3720 H 345.088 -0.480069 -5.1567 0
M  V30 3721 H 341.765 1.71829 -3.80501 0
M  V30 3722 H 343.155 -1.18854 -6.61304 0
M  V30 3723 N 345.875 1.56104 -0.216619 0
M  V30 3724 C 347.105 2.02269 0.420802 0
M  V30 3725 C 347.513 1.09575 1.5424 0
M  V30 3726 O 346.856 0.0967308 1.83445 0
M  V30 3727 C 346.918 3.44784 1.01806 0
M  V30 3728 C 346.582 4.56988 0.0325154 0
M  V30 3729 C 347.579 5.14225 -0.766055 0
M  V30 3730 C 345.264 5.02228 -0.0848092 0
M  V30 3731 C 347.258 6.15169 -1.6687 0
M  V30 3732 C 344.945 6.03011 -0.990994 0
M  V30 3733 C 345.943 6.59357 -1.78149 0
M  V30 3734 O 345.631 7.58179 -2.67245 0
M  V30 3735 H 345.363 0.667353 0.107776 0
M  V30 3736 H 347.917 2.02747 -0.329034 0
M  V30 3737 H 346.147 3.41359 1.81689 0
M  V30 3738 H 347.836 3.74626 1.56237 0
M  V30 3739 H 348.602 4.80126 -0.685836 0
M  V30 3740 H 344.481 4.58054 0.520349 0
M  V30 3741 H 348.025 6.59076 -2.28615 0
M  V30 3742 H 343.922 6.36532 -1.07225 0
M  V30 3743 H 344.69 7.75682 -2.61265 0
M  V30 3744 N 347.353 -0.0568162 1.57498 0
M  V30 3745 C 348.602 -0.752001 1.87157 0
M  V30 3746 C 348.915 -1.77978 0.811375 0
M  V30 3747 O 350.121 -2.52559 0.996293 0
M  V30 3748 C 348.577 -1.38844 3.3204 0
M  V30 3749 C 348.185 -0.398456 4.46225 0
M  V30 3750 C 349.929 -2.06512 3.70882 0
M  V30 3751 C 347.836 -1.04166 5.82154 0
M  V30 3752 H 346.766 -0.28461 0.698222 0
M  V30 3753 H 349.417 -0.00561272 1.83499 0
M  V30 3754 H 347.799 -2.1836 3.30356 0
M  V30 3755 H 348.973 0.367977 4.59328 0
M  V30 3756 H 347.288 0.174592 4.16034 0
M  V30 3757 H 349.885 -2.55437 4.6974 0
M  V30 3758 H 350.228 -2.87117 3.01445 0
M  V30 3759 H 350.761 -1.33808 3.7462 0
M  V30 3760 H 347.5 -0.275614 6.5492 0
M  V30 3761 H 347.02 -1.7786 5.72823 0
M  V30 3762 H 348.699 -1.55715 6.27982 0
M  V30 3763 N 348.832 -1.54138 -0.328536 0
M  V30 3764 C 350.081 -1.71318 -1.06456 0
M  V30 3765 C 350.394 -0.491109 -1.89334 0
M  V30 3766 O 351.6 -0.54416 -2.65991 0
M  V30 3767 C 350.056 -3.03 -1.94214 0
M  V30 3768 C 349.664 -4.32595 -1.16471 0
M  V30 3769 C 351.408 -3.29544 -2.67583 0
M  V30 3770 C 349.315 -5.55341 -2.03347 0
M  V30 3771 H 348.245 -0.638429 -0.401155 0
M  V30 3772 H 350.896 -1.80633 -0.323106 0
M  V30 3773 H 349.278 -2.87579 -2.72239 0
M  V30 3774 H 350.452 -4.58766 -0.432525 0
M  V30 3775 H 348.767 -4.12777 -0.548063 0
M  V30 3776 H 351.364 -4.18444 -3.3288 0
M  V30 3777 H 351.707 -2.47206 -3.34955 0
M  V30 3778 H 352.24 -3.45809 -1.96623 0
M  V30 3779 H 348.979 -6.40268 -1.40491 0
M  V30 3780 H 348.499 -5.33397 -2.74313 0
M  V30 3781 H 350.178 -5.91557 -2.62049 0
M  V30 3782 N 350.31 0.590341 -1.46126 0
M  V30 3783 C 351.273 1.68194 -1.55703 0
M  V30 3784 C 352.273 1.54808 -0.434868 0
M  V30 3785 O 353.463 1.59564 -0.698928 0
M  V30 3786 C 350.595 3.07575 -1.47005 0
M  V30 3787 H 351.788 1.61064 -2.52979 0
M  V30 3788 H 349.341 0.807541 -1.33823 0
M  V30 3789 H 350.076 3.20268 -0.509785 0
M  V30 3790 H 349.861 3.187 -2.28414 0
M  V30 3791 H 351.351 3.87055 -1.56776 0
M  V30 3792 N 351.788 1.33704 0.83433 0
M  V30 3793 C 352.736 1.24323 1.96587 0
M  V30 3794 C 353.73 0.143659 1.6879 0
M  V30 3795 O 354.936 0.30791 1.77347 0
M  V30 3796 H 351.311 0.385925 0.645419 0
M  V30 3797 H 353.282 2.19978 2.01624 0
M  V30 3798 C 352.031 1.00394 3.32891 0
M  V30 3799 H 351.354 1.84231 3.54822 0
M  V30 3800 H 352.794 0.97862 4.12552 0
M  V30 3801 C 351.253 -0.293047 3.35623 0
M  V30 3802 O 351.783 -1.29823 3.80143 0
M  V30 3803 N 349.989 -0.322174 2.88809 0
M  V30 3804 H 349.536 0.496379 2.52772 0
M  V30 3805 H 349.494 -1.18977 2.91019 0
M  V30 3806 N 353.266 -1.05314 1.17247 0
M  V30 3807 C 354.196 -2.1498 0.911362 0
M  V30 3808 C 355.177 -1.69471 -0.146169 0
M  V30 3809 O 356.362 -1.942 0.003812 0
M  V30 3810 C 353.492 -3.4472 0.422528 0
M  V30 3811 C 352.446 -4.03789 1.4191 0
M  V30 3812 C 351.772 -5.28858 0.788274 0
M  V30 3813 C 353.072 -4.41418 2.7919 0
M  V30 3814 H 354.766 -2.3708 1.82848 0
M  V30 3815 H 352.312 -1.13938 0.880569 0
M  V30 3816 H 354.265 -4.20787 0.227289 0
M  V30 3817 H 352.989 -3.22269 -0.530123 0
M  V30 3818 H 351.648 -3.2979 1.60106 0
M  V30 3819 H 351.296 -5.02709 -0.171173 0
M  V30 3820 H 350.996 -5.69338 1.45353 0
M  V30 3821 H 352.52 -6.07612 0.603282 0
M  V30 3822 H 353.934 -5.08524 2.64719 0
M  V30 3823 H 352.331 -4.92913 3.42282 0
M  V30 3824 H 353.401 -3.51819 3.33693 0
M  V30 3825 N 354.744 -0.972509 -1.24016 0
M  V30 3826 C 355.992 -0.635776 -1.91839 0
M  V30 3827 C 356.313 0.832312 -1.76345 0
M  V30 3828 O 355.583 1.5946 -1.13795 0
M  V30 3829 H 354.163 -0.232157 -0.710009 0
M  V30 3830 H 356.825 -1.23462 -1.50809 0
M  V30 3831 H 355.921 -0.880545 -2.99421 0
M  V30 3832 N 356.222 1.38976 -0.743202 0
M  V30 3833 C 357.469 2.00343 -0.294752 0
M  V30 3834 C 357.797 1.58983 1.12047 0
M  V30 3835 O 357.052 0.813809 1.77977 0
M  V30 3836 C 357.351 3.55647 -0.353517 0
M  V30 3837 C 357.017 4.16685 -1.72292 0
M  V30 3838 C 355.679 4.3307 -2.09771 0
M  V30 3839 C 358.031 4.50464 -2.62168 0
M  V30 3840 C 355.359 4.80526 -3.36618 0
M  V30 3841 C 357.711 4.99332 -3.88395 0
M  V30 3842 C 356.375 5.13924 -4.25956 0
M  V30 3843 H 355.645 0.733108 -0.107857 0
M  V30 3844 H 358.292 1.6618 -0.951651 0
M  V30 3845 H 356.597 3.89884 0.386954 0
M  V30 3846 H 358.294 4.00998 0.0117269 0
M  V30 3847 H 354.884 4.04339 -1.42155 0
M  V30 3848 H 359.068 4.37416 -2.3448 0
M  V30 3849 H 354.324 4.90008 -3.65653 0
M  V30 3850 H 358.498 5.2444 -4.58187 0
M  V30 3851 H 356.125 5.50457 -5.2431 0
M  V30 3852 N 357.7 0.491464 1.49741 0
M  V30 3853 C 358.928 -0.0535151 2.06831 0
M  V30 3854 C 359.343 -1.31683 1.35296 0
M  V30 3855 O 358.7 -1.77402 0.42836 0
M  V30 3856 C 358.751 -0.320835 3.60073 0
M  V30 3857 O 358.472 0.892394 4.28915 0
M  V30 3858 C 359.973 -0.910519 4.33848 0
M  V30 3859 H 357.193 0.0161909 0.670805 0
M  V30 3860 H 359.737 0.68609 1.92647 0
M  V30 3861 H 357.892 -1.0104 3.73991 0
M  V30 3862 H 358.306 0.649401 5.20464 0
M  V30 3863 H 359.78 -1.04721 5.41976 0
M  V30 3864 H 360.257 -1.90589 3.95692 0
M  V30 3865 H 360.863 -0.258712 4.24512 0
M  V30 3866 N 359.178 -1.55987 0.224894 0
M  V30 3867 C 360.455 -1.90232 -0.455083 0
M  V30 3868 C 360.835 -1.14269 -1.77499 0
M  V30 3869 O 360.183 -0.253079 -2.27094 0
M  V30 3870 C 360.393 -3.42993 -0.644758 0
M  V30 3871 C 361.741 -4.13821 -0.950669 0
M  V30 3872 O 362.765 -3.4861 -0.731423 0
M  V30 3873 O 361.624 -5.29128 -1.36695 0
M  V30 3874 H 358.718 -0.79108 -0.241084 0
M  V30 3875 H 361.264 -1.67581 0.267327 0
M  V30 3876 H 360.036 -3.90252 0.28613 0
M  V30 3877 H 359.659 -3.71434 -1.41853 0
M  V30 3878 N 360.656 0.0484629 -1.57525 0
M  V30 3879 C 361.904 0.741657 -1.88 0
M  V30 3880 C 362.225 1.76918 -0.820054 0
M  V30 3881 O 361.495 1.95335 0.148661 0
M  V30 3882 H 360.075 0.276908 -0.69378 0
M  V30 3883 H 362.737 0.019013 -1.94891 0
M  V30 3884 H 361.833 1.24336 -2.86264 0
M  V30 3885 N 362.134 1.5431 0.320358 0
M  V30 3886 C 363.411 1.63322 1.07635 0
M  V30 3887 C 363.791 0.46912 2.05821 0
M  V30 3888 O 363.139 -0.536274 2.22118 0
M  V30 3889 C 363.349 3.00465 1.77544 0
M  V30 3890 C 364.697 3.56621 2.30449 0
M  V30 3891 O 365.721 3.02791 1.87606 0
M  V30 3892 O 364.58 4.5083 3.08892 0
M  V30 3893 H 361.674 0.661502 0.496331 0
M  V30 3894 H 364.22 1.66656 0.319992 0
M  V30 3895 H 362.992 3.76629 1.06143 0
M  V30 3896 H 362.615 3.00824 2.59982 0
M  V30 3897 N 363.613 -0.582584 1.46437 0
M  V30 3898 C 364.543 -1.70187 1.59871 0
M  V30 3899 C 365.524 -1.64066 0.449042 0
M  V30 3900 O 366.709 -1.82081 0.6753 0
M  V30 3901 C 363.839 -3.08827 1.58881 0
M  V30 3902 C 362.793 -3.29779 2.72819 0
M  V30 3903 C 362.119 -4.68947 2.5689 0
M  V30 3904 C 363.419 -3.17601 4.1464 0
M  V30 3905 H 365.113 -1.592 2.53566 0
M  V30 3906 H 362.659 -0.764472 1.22032 0
M  V30 3907 H 364.612 -3.86951 1.66873 0
M  V30 3908 H 363.336 -3.20713 0.617306 0
M  V30 3909 H 361.995 -2.54054 2.64296 0
M  V30 3910 H 361.643 -4.77599 1.57823 0
M  V30 3911 H 361.343 -4.83919 3.33312 0
M  V30 3912 H 362.867 -5.4924 2.66773 0
M  V30 3913 H 364.281 -3.8557 4.24274 0
M  V30 3914 H 362.678 -3.44094 4.9165 0
M  V30 3915 H 363.748 -2.14681 4.34788 0
M  V30 3916 N 365.091 -1.34144 -0.827227 0
M  V30 3917 C 366.021 -1.28005 -1.95287 0
M  V30 3918 C 367.002 -0.158321 -1.69362 0
M  V30 3919 O 368.187 -0.349987 -1.9102 0
M  V30 3920 C 365.317 -1.03036 -3.31664 0
M  V30 3921 C 364.271 -2.11628 -3.72019 0
M  V30 3922 C 363.597 -1.71854 -5.0633 0
M  V30 3923 C 364.897 -3.53417 -3.8457 0
M  V30 3924 H 366.591 -2.22187 -2.00682 0
M  V30 3925 H 364.137 -1.0696 -0.964135 0
M  V30 3926 H 366.09 -0.973863 -4.09993 0
M  V30 3927 H 364.814 -0.0529391 -3.26557 0
M  V30 3928 H 363.473 -2.16339 -2.95961 0
M  V30 3929 H 363.121 -0.727841 -4.97706 0
M  V30 3930 H 362.821 -2.44531 -5.34302 0
M  V30 3931 H 364.345 -1.67692 -5.87122 0
M  V30 3932 H 365.759 -3.51142 -4.5318 0
M  V30 3933 H 364.156 -4.24679 -4.2399 0
M  V30 3934 H 365.226 -3.91072 -2.86689 0
M  V30 3935 N 366.569 1.04691 -1.17803 0
M  V30 3936 C 367.516 2.12557 -0.899343 0
M  V30 3937 C 368.486 1.65339 0.158771 0
M  V30 3938 O 369.671 1.90789 0.0204797 0
M  V30 3939 C 366.811 3.42481 -0.424315 0
M  V30 3940 C 365.924 4.03346 -1.54713 0
M  V30 3941 C 365.059 5.21208 -1.02546 0
M  V30 3942 C 364.098 5.74089 -2.12339 0
M  V30 3943 N 363.235 6.83247 -1.61612 0
M  V30 3944 H 368.075 2.35734 -1.823 0
M  V30 3945 H 365.612 1.1564 -0.909159 0
M  V30 3946 H 367.57 4.16996 -0.130421 0
M  V30 3947 H 366.2 3.19471 0.462377 0
M  V30 3948 H 365.252 3.2622 -1.95664 0
M  V30 3949 H 366.564 4.38628 -2.37501 0
M  V30 3950 H 365.718 6.02812 -0.685718 0
M  V30 3951 H 364.457 4.87414 -0.167084 0
M  V30 3952 H 363.462 4.91111 -2.47165 0
M  V30 3953 H 364.687 6.0993 -2.98601 0
M  V30 3954 H 362.633 6.5134 -0.780533 0
M  V30 3955 H 362.55 7.17559 -2.38003 0
M  V30 3956 H 363.818 7.68491 -1.30545 0
M  V30 3957 N 368.047 0.979072 1.23499 0
M  V30 3958 C 369.296 0.642751 1.91185 0
M  V30 3959 C 369.609 -0.827253 1.77245 0
M  V30 3960 O 370.815 -1.27458 2.39722 0
M  V30 3961 C 369.271 1.09901 3.42709 0
M  V30 3962 C 368.879 2.59327 3.65313 0
M  V30 3963 C 370.623 0.836371 4.16179 0
M  V30 3964 C 368.53 2.98627 5.10467 0
M  V30 3965 H 367.46 0.236698 0.715884 0
M  V30 3966 H 370.111 1.1868 1.39955 0
M  V30 3967 H 368.493 0.48319 3.93041 0
M  V30 3968 H 369.667 3.26136 3.25533 0
M  V30 3969 H 367.982 2.83323 3.05151 0
M  V30 3970 H 370.579 1.10586 5.23139 0
M  V30 3971 H 370.922 -0.227509 4.15678 0
M  V30 3972 H 371.455 1.41371 3.71832 0
M  V30 3973 H 368.194 4.04133 5.16098 0
M  V30 3974 H 367.714 2.3651 5.51201 0
M  V30 3975 H 369.393 2.89159 5.78788 0
M  V30 3976 N 369.525 -1.3858 0.750561 0
M  V30 3977 C 370.457 -2.29057 0.0810714 0
M  V30 3978 C 371.47 -1.47596 -0.686973 0
M  V30 3979 O 372.659 -1.70495 -0.528563 0
M  V30 3980 C 369.759 -3.26475 -0.909247 0
M  V30 3981 C 368.932 -4.36945 -0.199478 0
M  V30 3982 C 367.991 -5.14572 -1.10011 0
M  V30 3983 O 367.017 -5.66321 -0.57177 0
M  V30 3984 N 368.219 -5.27262 -2.42849 0
M  V30 3985 H 370.984 -2.87153 0.858087 0
M  V30 3986 H 368.545 -1.50328 0.60109 0
M  V30 3987 H 370.537 -3.75285 -1.51471 0
M  V30 3988 H 369.107 -2.69298 -1.58736 0
M  V30 3989 H 368.327 -3.8981 0.586664 0
M  V30 3990 H 369.615 -5.07963 0.291783 0
M  V30 3991 H 369.013 -4.86763 -2.88233 0
M  V30 3992 H 367.57 -5.79456 -2.98453 0
M  V30 3993 N 371.003 -0.499398 -1.49478 0
M  V30 3994 C 372.25 0.0456899 -2.02448 0
M  V30 3995 C 372.578 1.37142 -1.37921 0
M  V30 3996 O 371.833 1.89111 -0.503544 0
M  V30 3997 C 372.132 0.248424 -3.56536 0
M  V30 3998 C 371.798 -0.999107 -4.39692 0
M  V30 3999 C 370.46 -1.34108 -4.62135 0
M  V30 4000 C 372.812 -1.82842 -4.88076 0
M  V30 4001 C 370.14 -2.51191 -5.30208 0
M  V30 4002 C 372.492 -2.99076 -5.57437 0
M  V30 4003 C 371.156 -3.33655 -5.78127 0
M  V30 4004 H 370.426 0.0167191 -0.740811 0
M  V30 4005 H 373.073 -0.65923 -1.79795 0
M  V30 4006 H 371.378 1.03586 -3.77859 0
M  V30 4007 H 373.075 0.684605 -3.95113 0
M  V30 4008 H 369.665 -0.722729 -4.22463 0
M  V30 4009 H 373.849 -1.57737 -4.70566 0
M  V30 4010 H 369.105 -2.78221 -5.44429 0
M  V30 4011 H 373.279 -3.63664 -5.93904 0
M  V30 4012 H 370.906 -4.24483 -6.30649 0
M  V30 4013 N 372.481 1.55866 -0.233164 0
M  V30 4014 C 373.729 1.9821 0.394593 0
M  V30 4015 C 374.05 1.12234 1.59463 0
M  V30 4016 O 373.32 0.201981 1.94856 0
M  V30 4017 H 371.9 0.732034 0.148778 0
M  V30 4018 H 374.562 1.92107 -0.32876 0
M  V30 4019 H 373.658 3.03845 0.713063 0
M  V30 4020 N 373.959 -0.0401083 1.57549 0
M  V30 4021 C 375.207 -0.731677 1.8839 0
M  V30 4022 C 375.528 -1.76481 0.829425 0
M  V30 4023 O 374.798 -1.95411 -0.1383 0
M  V30 4024 H 373.378 -0.273225 0.695239 0
M  V30 4025 H 376.04 -0.00867725 1.94898 0
M  V30 4026 H 375.136 -1.22816 2.86919 0
M  V30 4027 N 375.437 -1.54477 -0.31217 0
M  V30 4028 C 376.4 -1.83923 -1.36766 0
M  V30 4029 C 377.4 -0.711563 -1.44199 0
M  V30 4030 O 378.59 -0.979866 -1.44029 0
M  V30 4031 C 375.722 -2.0095 -2.75376 0
M  V30 4032 H 376.915 -2.78239 -1.11906 0
M  V30 4033 H 374.468 -1.46369 -0.548257 0
M  V30 4034 H 375.203 -1.08883 -3.05475 0
M  V30 4035 H 374.988 -2.83018 -2.71373 0
M  V30 4036 H 376.478 -2.2514 -3.51713 0
M  V30 4037 N 376.915 0.57481 -1.46744 0
M  V30 4038 C 377.863 1.70435 -1.58286 0
M  V30 4039 C 378.857 1.63287 -0.450956 0
M  V30 4040 O 380.063 1.68685 -0.628121 0
M  V30 4041 H 376.438 0.56364 -0.497809 0
M  V30 4042 H 378.409 1.57833 -2.53242 0
M  V30 4043 C 377.158 3.08815 -1.59776 0
M  V30 4044 H 376.481 3.1499 -2.46214 0
M  V30 4045 H 377.921 3.87588 -1.71905 0
M  V30 4046 C 376.38 3.35301 -0.327812 0
M  V30 4047 O 376.91 3.97511 0.57861 0
M  V30 4048 N 375.116 2.89816 -0.213274 0
M  V30 4049 H 374.663 2.39371 -0.951798 0
M  V30 4050 H 374.621 3.0791 0.63553 0
M  V30 4051 N 378.394 1.34581 0.820102 0
M  V30 4052 C 379.64 1.27285 1.57881 0
M  V30 4053 C 379.973 -0.156137 1.93571 0
M  V30 4054 O 379.248 -1.10222 1.60254 0
M  V30 4055 C 379.531 2.16639 2.87645 0
M  V30 4056 C 379.384 3.68088 2.58517 0
M  V30 4057 C 380.703 2.05378 3.8924 0
M  V30 4058 H 377.822 0.463714 0.572833 0
M  V30 4059 H 380.464 1.64859 0.944539 0
M  V30 4060 H 378.614 1.84725 3.41773 0
M  V30 4061 H 380.286 4.10382 2.10676 0
M  V30 4062 H 378.529 3.89038 1.91917 0
M  V30 4063 H 379.2 4.2598 3.51063 0
M  V30 4064 H 381.676 2.33404 3.44473 0
M  V30 4065 H 380.552 2.7012 4.77835 0
M  V30 4066 H 380.813 1.0316 4.29896 0
M  V30 4067 N 379.872 -1.04064 1.18357 0
M  V30 4068 C 381.097 -1.81454 1.00445 0
M  V30 4069 C 381.522 -1.82823 -0.442423 0
M  V30 4070 O 380.88 -1.24555 -1.31741 0
M  V30 4071 C 380.928 -3.24925 1.56384 0
M  V30 4072 O 380.032 -4.04856 0.785209 0
M  V30 4073 H 379.373 -0.560604 0.355835 0
M  V30 4074 H 381.903 -1.31059 1.57114 0
M  V30 4075 H 381.913 -3.75702 1.59097 0
M  V30 4076 H 380.588 -3.23244 2.61699 0
M  V30 4077 H 379.165 -3.63537 0.830399 0
M  V30 4078 N 381.35 -0.985608 -1.22978 0
M  V30 4079 C 382.598 -0.656087 -1.91154 0
M  V30 4080 C 382.919 0.813561 -1.77218 0
M  V30 4081 O 382.189 1.58244 -1.1548 0
M  V30 4082 H 380.769 -0.239674 -0.707506 0
M  V30 4083 H 383.431 -1.25054 -1.49491 0
M  V30 4084 H 382.527 -0.912253 -2.9847 0
M  V30 4085 N 382.828 1.3818 -0.7579 0
M  V30 4086 C 384.075 2.00019 -0.315985 0
M  V30 4087 C 384.403 1.60163 1.10355 0
M  V30 4088 O 383.658 0.83264 1.77103 0
M  V30 4089 C 383.957 3.55252 -0.391218 0
M  V30 4090 C 383.623 4.14834 -1.76702 0
M  V30 4091 C 382.285 4.30821 -2.14353 0
M  V30 4092 C 384.637 4.47658 -2.66931 0
M  V30 4093 C 381.965 4.76928 -3.41696 0
M  V30 4094 C 384.317 4.95184 -3.93669 0
M  V30 4095 C 382.981 5.09377 -4.31383 0
M  V30 4096 H 382.251 0.731923 -0.115627 0
M  V30 4097 H 384.898 1.65161 -0.969223 0
M  V30 4098 H 383.203 3.90273 0.34558 0
M  V30 4099 H 384.9 4.00988 -0.030805 0
M  V30 4100 H 381.49 4.02808 -1.46435 0
M  V30 4101 H 385.674 4.34904 -2.39106 0
M  V30 4102 H 380.93 4.86103 -3.70829 0
M  V30 4103 H 385.104 5.19551 -4.63724 0
M  V30 4104 H 382.731 5.44865 -5.30119 0
M  V30 4105 N 384.306 0.507319 1.49211 0
M  V30 4106 C 385.238 -0.304532 2.27168 0
M  V30 4107 C 386.251 -0.924956 1.33972 0
M  V30 4108 O 387.44 -0.807227 1.59205 0
M  V30 4109 C 384.54 -1.44431 3.06583 0
M  V30 4110 C 383.713 -0.930026 4.27398 0
M  V30 4111 C 382.772 -1.94817 4.88807 0
M  V30 4112 O 381.798 -1.51418 5.4869 0
M  V30 4113 N 383 -3.279 4.79022 0
M  V30 4114 H 385.765 0.36395 2.97482 0
M  V30 4115 H 383.326 0.340249 1.58284 0
M  V30 4116 H 385.318 -2.12311 3.44537 0
M  V30 4117 H 383.888 -2.01684 2.38835 0
M  V30 4118 H 383.108 -0.0759244 3.94127 0
M  V30 4119 H 384.396 -0.564932 5.05654 0
M  V30 4120 H 383.794 -3.65843 4.3148 0
M  V30 4121 H 382.351 -3.91476 5.21142 0
M  V30 4122 N 385.784 -1.5574 0.241426 0
M  V30 4123 C 387.033 -1.97986 -0.385295 0
M  V30 4124 C 387.346 -1.13267 -1.59468 0
M  V30 4125 O 388.552 -1.45501 -2.2922 0
M  V30 4126 C 387.008 -3.52275 -0.736884 0
M  V30 4127 C 386.616 -4.45726 0.450796 0
M  V30 4128 C 388.36 -4.03189 -1.3281 0
M  V30 4129 C 386.267 -5.91352 0.0756662 0
M  V30 4130 H 385.197 -0.739386 -0.147731 0
M  V30 4131 H 387.848 -1.80308 0.340779 0
M  V30 4132 H 386.23 -3.65628 -1.52094 0
M  V30 4133 H 387.404 -4.44131 1.22819 0
M  V30 4134 H 385.719 -4.05264 0.956573 0
M  V30 4135 H 388.316 -5.09505 -1.62201 0
M  V30 4136 H 388.659 -3.50212 -2.25071 0
M  V30 4137 H 389.192 -3.93141 -0.607069 0
M  V30 4138 H 385.931 -6.48354 0.965272 0
M  V30 4139 H 385.451 -5.96095 -0.665635 0
M  V30 4140 H 387.13 -6.46084 -0.344075 0
M  V30 4141 N 387.262 0.0317525 -1.57568 0
M  V30 4142 C 388.508 0.724175 -1.8943 0
M  V30 4143 C 388.841 1.75149 -0.838836 0
M  V30 4144 O 388.116 1.93948 0.146422 0
M  V30 4145 C 388.399 1.39615 -3.31933 0
M  V30 4146 C 388.252 0.382537 -4.4817 0
M  V30 4147 C 389.571 2.33084 -3.73309 0
M  V30 4148 H 386.69 0.261797 -0.688935 0
M  V30 4149 H 389.332 -0.013017 -1.89996 0
M  V30 4150 H 387.482 2.02451 -3.31581 0
M  V30 4151 H 389.154 -0.243689 -4.60656 0
M  V30 4152 H 387.397 -0.29844 -4.32772 0
M  V30 4153 H 388.068 0.891145 -5.44759 0
M  V30 4154 H 390.544 1.80295 -3.7501 0
M  V30 4155 H 389.42 2.77084 -4.73831 0
M  V30 4156 H 389.681 3.19643 -3.05419 0
M  V30 4157 N 388.74 1.54641 0.303973 0
M  V30 4158 C 390.017 1.64455 1.05896 0
M  V30 4159 C 390.397 0.490923 2.05312 0
M  V30 4160 O 389.745 -0.512685 2.22674 0
M  V30 4161 C 389.955 3.02331 1.74347 0
M  V30 4162 C 391.303 3.59045 2.26653 0
M  V30 4163 O 392.327 3.04764 1.84384 0
M  V30 4164 O 391.186 4.54081 3.04093 0
M  V30 4165 H 388.28 0.666729 0.489287 0
M  V30 4166 H 390.826 1.66986 0.302298 0
M  V30 4167 H 389.598 3.77734 1.02142 0
M  V30 4168 H 389.221 3.03565 2.56777 0
M  V30 4169 N 390.218 -0.567019 1.47046 0
M  V30 4170 C 391.448 -1.34831 1.56538 0
M  V30 4171 C 391.856 -1.8802 0.21101 0
M  V30 4172 O 391.199 -1.65152 -0.804387 0
M  V30 4173 C 391.261 -2.56139 2.52256 0
M  V30 4174 C 390.925 -2.24307 3.98165 0
M  V30 4175 C 391.922 -1.82192 4.86931 0
M  V30 4176 C 389.607 -2.35968 4.43423 0
M  V30 4177 C 391.601 -1.52153 6.18973 0
M  V30 4178 C 389.288 -2.05542 5.75496 0
M  V30 4179 C 390.286 -1.63701 6.63092 0
M  V30 4180 O 389.974 -1.33657 7.92711 0
M  V30 4181 H 389.706 -0.417683 0.531523 0
M  V30 4182 H 392.26 -0.694726 1.93294 0
M  V30 4183 H 390.49 -3.24356 2.10548 0
M  V30 4184 H 392.179 -3.18214 2.51982 0
M  V30 4185 H 392.945 -1.72684 4.53217 0
M  V30 4186 H 388.824 -2.67495 3.75456 0
M  V30 4187 H 392.368 -1.19421 6.87302 0
M  V30 4188 H 388.265 -2.14679 6.08755 0
M  V30 4189 H 389.033 -1.4737 8.05124 0
M  V30 4190 N 391.696 -1.35014 -0.812953 0
M  V30 4191 C 392.973 -1.18502 -1.55617 0
M  V30 4192 C 393.353 0.238421 -2.09749 0
M  V30 4193 O 392.701 1.2411 -1.91857 0
M  V30 4194 C 392.911 -2.24783 -2.66971 0
M  V30 4195 C 394.259 -2.60268 -3.35478 0
M  V30 4196 O 395.283 -2.23648 -2.77236 0
M  V30 4197 O 394.142 -3.2321 -4.40678 0
M  V30 4198 H 391.236 -0.459984 -0.687272 0
M  V30 4199 H 393.782 -1.46677 -0.853464 0
M  V30 4200 H 392.554 -3.20284 -2.24798 0
M  V30 4201 H 392.177 -1.97841 -3.44884 0
M  V30 4202 N 393.175 1.03435 -1.18907 0
M  V30 4203 C 394.452 1.73778 -0.89781 0
M  V30 4204 C 394.832 2.02458 0.597832 0
M  V30 4205 O 394.18 1.67482 1.55441 0
M  V30 4206 C 394.39 3.01845 -1.75187 0
M  V30 4207 C 395.738 3.7546 -1.9828 0
M  V30 4208 O 396.762 3.11759 -1.72293 0
M  V30 4209 O 395.621 4.89966 -2.42065 0
M  V30 4210 H 392.715 0.75651 -0.334098 0
M  V30 4211 H 395.261 1.09444 -1.29693 0
M  V30 4212 H 394.033 2.76836 -2.76545 0
M  V30 4213 H 393.656 3.73919 -1.35167 0
M  V30 4214 N 394.653 0.992116 1.22453 0
M  V30 4215 C 395.878 0.685644 1.95739 0
M  V30 4216 C 396.303 -0.743 1.72804 0
M  V30 4217 O 395.661 -1.50778 1.00676 0
M  V30 4218 C 395.709 0.996293 3.46564 0
M  V30 4219 O 394.813 0.0945512 4.12292 0
M  V30 4220 H 394.154 0.256694 0.612376 0
M  V30 4221 H 396.684 1.32888 1.5557 0
M  V30 4222 H 396.694 0.93781 3.97076 0
M  V30 4223 H 395.369 2.03733 3.62582 0
M  V30 4224 H 393.946 0.208451 3.72317 0
M  V30 4225 N 396.131 -1.37776 0.765217 0
M  V30 4226 C 397.061 -2.32945 0.160953 0
M  V30 4227 C 398.042 -1.55454 -0.690516 0
M  V30 4228 O 399.227 -1.83721 -0.629318 0
M  V30 4229 C 396.357 -3.39669 -0.724031 0
M  V30 4230 C 395.311 -4.27992 0.0256173 0
M  V30 4231 C 394.637 -5.25673 -0.978383 0
M  V30 4232 C 395.937 -5.08309 1.20082 0
M  V30 4233 H 397.631 -2.83728 0.955969 0
M  V30 4234 H 395.177 -1.36416 0.461149 0
M  V30 4235 H 397.13 -4.05219 -1.15652 0
M  V30 4236 H 395.854 -2.87396 -1.5515 0
M  V30 4237 H 394.513 -3.63964 0.438812 0
M  V30 4238 H 394.161 -4.69682 -1.80022 0
M  V30 4239 H 393.861 -5.85625 -0.481378 0
M  V30 4240 H 395.385 -5.94098 -1.40995 0
M  V30 4241 H 396.799 -5.67034 0.845307 0
M  V30 4242 H 395.196 -5.77554 1.62947 0
M  V30 4243 H 396.266 -4.41365 2.00811 0
M  V30 4244 N 397.609 -0.515225 -1.4894 0
M  V30 4245 C 398.855 0.0242508 -2.02785 0
M  V30 4246 C 399.188 1.35323 -1.39289 0
M  V30 4247 O 398.463 1.87041 -0.533469 0
M  V30 4248 C 398.746 0.16184 -3.59736 0
M  V30 4249 C 398.599 -1.19127 -4.33738 0
M  V30 4250 C 399.918 0.895719 -4.30888 0
M  V30 4251 H 397.037 0.00733914 -0.736963 0
M  V30 4252 H 399.679 -0.669395 -1.77818 0
M  V30 4253 H 397.829 0.752624 -3.8114 0
M  V30 4254 H 399.501 -1.82202 -4.23792 0
M  V30 4255 H 397.744 -1.77695 -3.95736 0
M  V30 4256 H 398.415 -1.04815 -5.41957 0
M  V30 4257 H 400.891 0.394528 -4.14225 0
M  V30 4258 H 399.767 0.960859 -5.40425 0
M  V30 4259 H 400.028 1.9427 -3.97129 0
M  V30 4260 N 399.087 1.5561 -0.249682 0
M  V30 4261 C 400.312 2.03865 0.381305 0
M  V30 4262 C 400.737 1.12769 1.50548 0
M  V30 4263 O 400.095 0.121189 1.80895 0
M  V30 4264 C 400.143 3.50101 0.863816 0
M  V30 4265 O 399.247 3.62132 1.97318 0
M  V30 4266 H 398.588 0.658827 0.0827194 0
M  V30 4267 H 401.118 2.01105 -0.376552 0
M  V30 4268 H 401.128 3.90975 1.1663 0
M  V30 4269 H 399.803 4.1588 0.0411816 0
M  V30 4270 H 398.38 3.33155 1.67517 0
M  V30 4271 N 400.565 -0.0233959 1.57583 0
M  V30 4272 C 401.512 -1.02224 2.06927 0
M  V30 4273 C 402.482 -1.35575 0.959617 0
M  V30 4274 O 403.667 -1.45815 1.23055 0
M  V30 4275 C 400.807 -2.31636 2.5581 0
M  V30 4276 C 399.92 -2.04394 3.80588 0
M  V30 4277 C 399.055 -3.27717 4.18061 0
M  V30 4278 C 398.094 -2.96056 5.3574 0
M  V30 4279 N 397.231 -4.11847 5.68618 0
M  V30 4280 H 402.071 -0.594504 2.9201 0
M  V30 4281 H 399.608 -0.281921 1.44373 0
M  V30 4282 H 401.566 -3.07258 2.82221 0
M  V30 4283 H 400.196 -2.72122 1.73636 0
M  V30 4284 H 399.248 -1.19244 3.61227 0
M  V30 4285 H 400.56 -1.77042 4.66323 0
M  V30 4286 H 399.714 -4.11702 4.4563 0
M  V30 4287 H 398.453 -3.58188 3.30988 0
M  V30 4288 H 397.458 -2.10474 5.07918 0
M  V30 4289 H 398.683 -2.66857 6.24471 0
M  V30 4290 H 396.629 -4.42258 4.84504 0
M  V30 4291 H 396.546 -3.87938 6.48876 0
M  V30 4292 H 397.814 -4.96689 6.00766 0
M  V30 4293 N 402.043 -1.548 -0.295768 0
M  V30 4294 C 403.29 -1.74329 -1.03032 0
M  V30 4295 C 403.618 -0.531915 -1.87085 0
M  V30 4296 O 402.873 0.486052 -1.89568 0
M  V30 4297 C 403.172 -2.98797 -1.961 0
M  V30 4298 C 402.838 -4.32356 -1.2798 0
M  V30 4299 C 401.5 -4.68661 -1.09135 0
M  V30 4300 C 403.852 -5.15128 -0.793243 0
M  V30 4301 C 401.18 -5.85312 -0.403269 0
M  V30 4302 C 403.532 -6.32488 -0.118854 0
M  V30 4303 C 402.196 -6.6745 0.0815043 0
M  V30 4304 H 401.466 -0.637916 -0.37702 0
M  V30 4305 H 404.113 -1.8906 -0.304696 0
M  V30 4306 H 402.418 -2.78869 -2.75207 0
M  V30 4307 H 404.115 -3.11102 -2.53015 0
M  V30 4308 H 400.705 -4.03808 -1.43655 0
M  V30 4309 H 404.889 -4.87575 -0.92653 0
M  V30 4310 H 400.145 -6.1094 -0.237098 0
M  V30 4311 H 404.319 -6.95892 0.266035 0
M  V30 4312 H 401.946 -7.57695 0.616685 0
M  V30 4313 N 403.521 0.559213 -1.47345 0
M  V30 4314 C 404.77 1.31281 -1.53128 0
M  V30 4315 C 405.083 1.94602 -0.197344 0
M  V30 4316 O 406.289 2.71173 -0.133154 0
M  V30 4317 C 404.745 2.38051 -2.69925 0
M  V30 4318 C 404.353 1.8093 -4.0984 0
M  V30 4319 C 406.097 3.14604 -2.84999 0
M  V30 4320 C 404.004 2.85468 -5.1794 0
M  V30 4321 H 402.934 0.493614 -0.569966 0
M  V30 4322 H 405.585 0.594155 -1.73615 0
M  V30 4323 H 403.967 3.12822 -2.42814 0
M  V30 4324 H 405.141 1.12544 -4.46845 0
M  V30 4325 H 403.456 1.16967 -3.99634 0
M  V30 4326 H 406.053 3.92666 -3.62929 0
M  V30 4327 H 406.396 3.68665 -1.93369 0
M  V30 4328 H 406.929 2.46945 -3.1187 0
M  V30 4329 H 403.668 2.36264 -6.1144 0
M  V30 4330 H 403.188 3.52269 -4.85455 0
M  V30 4331 H 404.867 3.48996 -5.44803 0
M  V30 4332 N 404.999 1.35443 0.805782 0
M  V30 4333 C 405.909 1.30546 1.94923 0
M  V30 4334 C 406.925 0.210233 1.72725 0
M  V30 4335 O 408.101 0.43975 1.9654 0
M  V30 4336 C 405.166 1.07782 3.29521 0
M  V30 4337 C 404.227 2.26625 3.64609 0
M  V30 4338 C 403.46 2.04938 4.92784 0
M  V30 4339 O 403.683 1.01624 5.61274 0
M  V30 4340 O 402.617 2.9232 5.26149 0
M  V30 4341 H 406.443 2.26779 2.02002 0
M  V30 4342 H 404.028 1.15823 0.943682 0
M  V30 4343 H 405.91 0.969392 4.10098 0
M  V30 4344 H 404.585 0.146003 3.23371 0
M  V30 4345 H 403.492 2.43033 2.84404 0
M  V30 4346 H 404.825 3.18257 3.75464 0
M  V30 4347 N 406.477 -1.02803 1.19454 0
M  V30 4348 C 407.893 -1.28473 0.946937 0
M  V30 4349 C 408.093 -1.97881 -0.380202 0
M  V30 4350 O 407.149 -2.26719 -1.11151 0
M  V30 4351 C 408.462 -2.13099 2.12154 0
M  V30 4352 C 410.01 -2.26404 2.16126 0
M  V30 4353 C 410.485 -3.14402 3.33039 0
M  V30 4354 N 411.976 -3.21991 3.32981 0
M  V30 4355 C 412.711 -3.90272 4.20089 0
M  V30 4356 N 412.207 -4.60777 5.17355 0
M  V30 4357 N 414 -3.8668 4.07964 0
M  V30 4358 H 406.151 -0.561665 2.04839 0
M  V30 4359 H 408.414 -0.310438 0.89573 0
M  V30 4360 H 408.12 -1.69422 3.08203 0
M  V30 4361 H 407.994 -3.13813 2.09287 0
M  V30 4362 H 410.381 -2.69311 1.20647 0
M  V30 4363 H 410.462 -1.25237 2.23045 0
M  V30 4364 H 410.106 -2.72204 4.28798 0
M  V30 4365 H 410.036 -4.1563 3.23356 0
M  V30 4366 H 412.527 -2.71778 2.62574 0
M  V30 4367 H 412.84 -5.10513 5.80169 0
M  V30 4368 H 411.185 -4.5964 5.21302 0
M  V30 4369 H 414.376 -3.30739 3.31254 0
M  V30 4370 H 414.549 -4.39621 4.76064 0
M  V30 4371 N 407.956 -0.998596 -1.21925 0
M  V30 4372 C 409.202 -0.688337 -1.91399 0
M  V30 4373 C 409.557 0.771805 -1.76241 0
M  V30 4374 O 408.85 1.55153 -1.1242 0
M  V30 4375 C 409.044 -1.03648 -3.42041 0
M  V30 4376 C 408.873 -2.52892 -3.71855 0
M  V30 4377 C 407.643 -3.19389 -3.91559 0
M  V30 4378 C 409.841 -3.5103 -3.75875 0
M  V30 4379 N 407.823 -4.5805 -4.08734 0
M  V30 4380 C 409.194 -4.75174 -3.98259 0
M  V30 4381 C 411.249 -3.45257 -3.58751 0
M  V30 4382 C 409.952 -5.94247 -4.05294 0
M  V30 4383 C 411.978 -4.63712 -3.67049 0
M  V30 4384 C 411.34 -5.86658 -3.89887 0
M  V30 4385 H 407.439 -0.303251 -0.720807 0
M  V30 4386 H 410.023 -1.27977 -1.46731 0
M  V30 4387 H 408.194 -0.473569 -3.85502 0
M  V30 4388 H 409.926 -0.681619 -3.98919 0
M  V30 4389 H 406.681 -2.69846 -3.89205 0
M  V30 4390 H 407.105 -5.29989 -4.21237 0
M  V30 4391 H 411.747 -2.51215 -3.40075 0
M  V30 4392 H 409.465 -6.88687 -4.22772 0
M  V30 4393 H 413.051 -4.6084 -3.5513 0
M  V30 4394 H 411.931 -6.76786 -3.96144 0
M  V30 4395 N 409.434 1.37368 -0.772513 0
M  V30 4396 C 410.659 2.0447 -0.347386 0
M  V30 4397 C 411.084 1.57882 1.0225 0
M  V30 4398 O 410.442 0.73941 1.65537 0
M  V30 4399 C 410.49 3.58369 -0.400479 0
M  V30 4400 O 409.594 4.0803 0.598789 0
M  V30 4401 H 408.935 0.646773 -0.15027 0
M  V30 4402 H 411.465 1.75667 -1.04892 0
M  V30 4403 H 411.475 4.07183 -0.258045 0
M  V30 4404 H 410.15 3.91633 -1.39986 0
M  V30 4405 H 408.727 3.70534 0.419411 0
M  V30 4406 N 410.912 0.523116 1.48665 0
M  V30 4407 C 412.14 -0.0096312 2.06898 0
M  V30 4408 C 412.555 -1.28784 1.38059 0
M  V30 4409 O 411.912 -1.76453 0.465893 0
M  V30 4410 C 411.963 -0.244386 3.60673 0
M  V30 4411 O 411.684 0.983172 4.26925 0
M  V30 4412 C 413.185 -0.818289 4.35682 0
M  V30 4413 H 410.405 0.0304161 0.67031 0
M  V30 4414 H 412.949 0.726799 1.91149 0
M  V30 4415 H 411.104 -0.930847 3.76051 0
M  V30 4416 H 411.518 0.759653 5.1897 0
M  V30 4417 H 412.992 -0.93201 5.44075 0
M  V30 4418 H 413.469 -1.82153 3.99646 0
M  V30 4419 H 414.075 -0.168609 4.24966 0
M  V30 4420 N 412.39 -1.55475 0.257931 0
M  V30 4421 C 413.32 -2.24815 -0.630912 0
M  V30 4422 C 414.301 -1.23224 -1.17259 0
M  V30 4423 O 415.486 -1.51904 -1.20991 0
M  V30 4424 C 412.616 -2.95609 -1.82298 0
M  V30 4425 C 411.57 -4.03982 -1.41359 0
M  V30 4426 C 410.896 -4.6226 -2.68738 0
M  V30 4427 C 412.196 -5.19109 -0.57648 0
M  V30 4428 H 413.89 -2.99354 -0.0526878 0
M  V30 4429 H 411.436 -1.4398 -0.023901 0
M  V30 4430 H 413.389 -3.42822 -2.45054 0
M  V30 4431 H 412.113 -2.18577 -2.42676 0
M  V30 4432 H 410.772 -3.57555 -0.809324 0
M  V30 4433 H 410.42 -3.81915 -3.27338 0
M  V30 4434 H 410.12 -5.35424 -2.42065 0
M  V30 4435 H 411.644 -5.12212 -3.32372 0
M  V30 4436 H 413.058 -5.62479 -1.10861 0
M  V30 4437 H 411.455 -5.98729 -0.405351 0
M  V30 4438 H 412.525 -4.83174 0.408776 0
M  V30 4439 N 413.868 0.0150385 -1.57593 0
M  V30 4440 C 414.778 1.02791 -2.10882 0
M  V30 4441 C 415.794 1.38702 -1.0506 0
M  V30 4442 O 416.97 1.47739 -1.36877 0
M  V30 4443 C 414.035 2.30568 -2.58919 0
M  V30 4444 C 413.096 2.01108 -3.79281 0
M  V30 4445 C 412.329 3.22794 -4.25018 0
M  V30 4446 O 412.552 4.33959 -3.70183 0
M  V30 4447 O 411.486 3.07672 -5.17322 0
M  V30 4448 H 415.312 0.604973 -2.97613 0
M  V30 4449 H 412.897 0.23292 -1.47573 0
M  V30 4450 H 414.779 3.05662 -2.90084 0
M  V30 4451 H 413.454 2.72129 -1.75293 0
M  V30 4452 H 412.361 1.23537 -3.53114 0
M  V30 4453 H 413.694 1.64394 -4.63935 0
M  V30 4454 N 415.346 1.54954 0.287554 0
M  V30 4455 C 416.256 1.8991 1.37736 0
M  V30 4456 C 417.272 0.794701 1.54792 0
M  V30 4457 O 418.448 1.09243 1.69198 0
M  V30 4458 C 415.513 2.15108 2.71899 0
M  V30 4459 C 414.574 3.38752 2.63715 0
M  V30 4460 C 413.807 3.62739 3.91479 0
M  V30 4461 O 414.03 2.89492 4.91478 0
M  V30 4462 O 412.964 4.56267 3.92561 0
M  V30 4463 H 416.79 2.82652 1.11092 0
M  V30 4464 H 414.375 1.41315 0.484807 0
M  V30 4465 H 416.257 2.32806 3.51254 0
M  V30 4466 H 414.932 1.25551 2.9836 0
M  V30 4467 H 413.839 3.26405 1.82786 0
M  V30 4468 H 415.172 4.28483 2.42205 0
M  V30 4469 N 416.824 -0.551391 1.4764 0
M  V30 4470 C 417.771 -1.65796 1.60563 0
M  V30 4471 C 418.741 -1.59932 0.448428 0
M  V30 4472 O 419.926 -1.78679 0.669222 0
M  V30 4473 C 417.066 -3.04108 1.63133 0
M  V30 4474 C 416.179 -3.20365 2.89811 0
M  V30 4475 C 415.314 -4.49109 2.8368 0
M  V30 4476 C 414.353 -4.58819 4.05156 0
M  V30 4477 N 413.49 -5.78926 3.97227 0
M  V30 4478 H 418.33 -1.54088 2.5507 0
M  V30 4479 H 415.867 -0.75052 1.26513 0
M  V30 4480 H 417.825 -3.84207 1.62606 0
M  V30 4481 H 416.455 -3.14637 0.721341 0
M  V30 4482 H 415.507 -2.33659 3.00179 0
M  V30 4483 H 416.819 -3.23402 3.79753 0
M  V30 4484 H 415.973 -5.37475 2.81434 0
M  V30 4485 H 414.712 -4.4856 1.91431 0
M  V30 4486 H 413.717 -3.68864 4.077 0
M  V30 4487 H 414.942 -4.61124 4.98539 0
M  V30 4488 H 412.888 -5.79314 3.07785 0
M  V30 4489 H 412.805 -5.83367 4.80853 0
M  V30 4490 H 414.073 -6.69637 3.99007 0
M  V30 4491 N 418.302 -1.35869 -0.798587 0
M  V30 4492 C 419.212 -1.31578 -1.94228 0
M  V30 4493 C 420.228 -0.21939 -1.72611 0
M  V30 4494 O 421.404 -0.450167 -1.96305 0
M  V30 4495 C 418.469 -1.09528 -3.28944 0
M  V30 4496 C 417.53 -2.28556 -3.63402 0
M  V30 4497 C 416.763 -2.07549 -4.9169 0
M  V30 4498 O 416.986 -1.046 -5.60727 0
M  V30 4499 O 415.92 -2.95106 -5.24591 0
M  V30 4500 H 419.746 -2.27847 -2.00796 0
M  V30 4501 H 417.331 -1.16322 -0.937526 0
M  V30 4502 H 419.213 -0.991127 -4.09579 0
M  V30 4503 H 417.888 -0.16315 -3.23289 0
M  V30 4504 H 416.795 -2.44538 -2.83112 0
M  V30 4505 H 418.128 -3.20244 -3.73771 0
M  V30 4506 N 419.78 1.02168 -1.19998 0
M  V30 4507 C 421.01 1.79036 -1.031 0
M  V30 4508 C 421.418 1.84409 0.423078 0
M  V30 4509 O 420.761 1.29228 1.30559 0
M  V30 4510 C 420.823 3.25185 -1.53281 0
M  V30 4511 C 420.487 3.43431 -3.01503 0
M  V30 4512 C 421.484 3.33063 -3.99206 0
M  V30 4513 C 419.169 3.69412 -3.40353 0
M  V30 4514 C 421.163 3.48413 -5.33748 0
M  V30 4515 C 418.85 3.84406 -4.75053 0
M  V30 4516 C 419.848 3.7391 -5.71559 0
M  V30 4517 O 419.536 3.88452 -7.03818 0
M  V30 4518 H 419.268 0.570043 -0.363355 0
M  V30 4519 H 421.822 1.29524 -1.59414 0
M  V30 4520 H 420.052 3.75756 -0.913483 0
M  V30 4521 H 421.741 3.83671 -1.32481 0
M  V30 4522 H 422.507 3.12934 -3.70537 0
M  V30 4523 H 418.386 3.76671 -2.65782 0
M  V30 4524 H 421.93 3.40137 -6.09059 0
M  V30 4525 H 417.827 4.04035 -5.03415 0
M  V30 4526 H 418.595 4.055 -7.10993 0
M  V30 4527 N 421.258 1.00505 1.21394 0
M  V30 4528 C 422.669 0.721082 1.72213 0
M  V30 4529 C 423.02 -0.761263 1.80829 0
M  V30 4530 O 422.145 -1.59464 1.46288 0
M  V30 4531 C 422.74 1.30228 3.12772 0
M  V30 4532 C 421.299 1.06743 3.60947 0
M  V30 4533 C 420.446 1.41507 2.38477 0
M  V30 4534 H 423.397 1.17594 1.06571 0
M  V30 4535 H 423.418 0.686955 3.74247 0
M  V30 4536 H 422.93 2.38115 3.06468 0
M  V30 4537 H 421.031 0.00572162 3.726 0
M  V30 4538 H 421.144 1.73936 4.46411 0
M  V30 4539 H 419.508 0.833852 2.40664 0
M  V30 4540 H 420.291 2.50424 2.34824 0
M  V30 4541 N 422.737 -1.36956 0.779787 0
M  V30 4542 C 423.985 -1.99097 0.347079 0
M  V30 4543 C 424.306 -1.62206 -1.08232 0
M  V30 4544 O 423.576 -0.891373 -1.74446 0
M  V30 4545 H 422.156 -0.736409 0.125342 0
M  V30 4546 H 424.818 -1.67308 0.999696 0
M  V30 4547 H 423.914 -3.09107 0.431162 0
M  V30 4548 N 424.215 -0.530993 -1.48385 0
M  V30 4549 C 425.178 0.220497 -2.28137 0
M  V30 4550 C 426.178 0.866851 -1.35434 0
M  V30 4551 O 427.368 0.726746 -1.58316 0
M  V30 4552 C 424.5 1.31921 -3.1434 0
M  V30 4553 H 425.693 -0.479714 -2.96038 0
M  V30 4554 H 423.246 -0.286968 -1.53643 0
M  V30 4555 H 423.981 2.05264 -2.51072 0
M  V30 4556 H 423.766 0.86085 -3.82533 0
M  V30 4557 H 425.256 1.84776 -3.74497 0
M  V30 4558 N 425.693 1.55336 -0.266172 0
M  V30 4559 C 426.643 2.18848 0.639497 0
M  V30 4560 C 427.627 1.1503 1.12503 0
M  V30 4561 O 428.819 1.40875 1.0716 0
M  V30 4562 C 425.948 2.90626 1.82733 0
M  V30 4563 C 425.034 4.01723 1.35939 0
M  V30 4564 N 425.425 5.02145 0.606988 0
M  V30 4565 C 423.723 4.1463 1.6431 0
M  V30 4566 C 424.424 5.80572 0.362138 0
M  V30 4567 N 423.4 5.35551 0.931971 0
M  V30 4568 H 427.202 2.93845 0.0567057 0
M  V30 4569 H 424.716 1.62252 -0.0693312 0
M  V30 4570 H 426.713 3.34569 2.48735 0
M  V30 4571 H 425.373 2.17137 2.41416 0
M  V30 4572 H 426.384 5.17271 0.255198 0
M  V30 4573 H 423.061 3.52326 2.23993 0
M  V30 4574 H 424.451 6.71472 -0.239848 0
M  V30 4575 N 427.171 -0.0066808 1.57599 0
M  V30 4576 C 428.399 -0.704087 1.94551 0
M  V30 4577 C 428.814 -1.67677 0.867746 0
M  V30 4578 O 428.171 -1.8185 -0.153925 0
M  V30 4579 C 428.222 -1.44177 3.31505 0
M  V30 4580 O 427.943 -0.508097 4.35144 0
M  V30 4581 C 429.444 -2.23429 3.82876 0
M  V30 4582 H 426.664 -0.196523 0.641576 0
M  V30 4583 H 429.208 0.042453 2.04456 0
M  V30 4584 H 427.363 -2.13999 3.22929 0
M  V30 4585 H 427.777 -1.02782 5.14331 0
M  V30 4586 H 429.251 -2.70552 4.8115 0
M  V30 4587 H 429.728 -3.05818 3.15233 0
M  V30 4588 H 430.334 -1.58636 3.94607 0
M  V30 4589 N 428.649 -1.55105 -0.279332 0
M  V30 4590 C 429.877 -1.7943 -1.03017 0
M  V30 4591 C 430.292 -0.564456 -1.80165 0
M  V30 4592 O 429.649 0.466326 -1.76442 0
M  V30 4593 C 429.7 -3.0155 -1.99374 0
M  V30 4594 O 429.421 -4.19784 -1.25352 0
M  V30 4595 C 430.922 -3.3843 -2.86321 0
M  V30 4596 H 428.142 -0.597882 -0.304594 0
M  V30 4597 H 430.686 -2.02105 -0.312035 0
M  V30 4598 H 428.841 -2.81019 -2.66659 0
M  V30 4599 H 429.255 -4.88781 -1.90246 0
M  V30 4600 H 430.729 -4.27066 -3.49741 0
M  V30 4601 H 431.206 -2.57549 -3.5576 0
M  V30 4602 H 431.812 -3.61197 -2.24536 0
M  V30 4603 N 430.127 0.543554 -1.4793 0
M  V30 4604 C 431.355 1.32516 -1.58894 0
M  V30 4605 C 431.77 1.87215 -0.244131 0
M  V30 4606 O 431.127 1.65709 0.764652 0
M  V30 4607 C 431.178 2.48554 -2.62494 0
M  V30 4608 O 430.899 1.96112 -3.91755 0
M  V30 4609 C 432.4 3.40572 -2.8377 0
M  V30 4610 H 429.62 0.403472 -0.536145 0
M  V30 4611 H 432.164 0.657106 -1.93655 0
M  V30 4612 H 430.319 3.1127 -2.30629 0
M  V30 4613 H 430.733 2.71967 -4.4848 0
M  V30 4614 H 432.207 4.18375 -3.60093 0
M  V30 4615 H 432.684 3.94965 -1.92092 0
M  V30 4616 H 433.29 2.8366 -3.16887 0
M  V30 4617 N 431.605 1.3629 0.791371 0
M  V30 4618 C 432.854 1.29742 1.54434 0
M  V30 4619 C 433.167 -0.121729 1.95221 0
M  V30 4620 O 434.373 -0.309579 2.69729 0
M  V30 4621 C 432.829 2.27623 2.78776 0
M  V30 4622 C 432.437 3.74963 2.45166 0
M  V30 4623 C 434.181 2.30047 3.56761 0
M  V30 4624 C 432.088 4.64626 3.65891 0
M  V30 4625 H 431.018 0.482113 0.579727 0
M  V30 4626 H 433.669 1.61642 0.868565 0
M  V30 4627 H 432.051 1.88714 3.48142 0
M  V30 4628 H 433.225 4.22596 1.83709 0
M  V30 4629 H 431.54 3.75295 1.80396 0
M  V30 4630 H 434.137 2.94247 4.46456 0
M  V30 4631 H 434.48 1.30846 3.95203 0
M  V30 4632 H 435.013 2.67563 2.94372 0
M  V30 4633 H 431.752 5.64883 3.32547 0
M  V30 4634 H 431.272 4.2171 4.26521 0
M  V30 4635 H 432.951 4.80801 4.32943 0
M  V30 4636 N 433.083 -1.0153 1.20538 0
M  V30 4637 C 434.03 -2.10098 0.955383 0
M  V30 4638 C 435 -1.65702 -0.114878 0
M  V30 4639 O 436.185 -1.90776 0.0301118 0
M  V30 4640 C 433.325 -3.41236 0.514969 0
M  V30 4641 C 432.438 -3.99102 1.65353 0
M  V30 4642 C 431.573 -5.18306 1.16329 0
M  V30 4643 C 430.612 -5.68258 2.27485 0
M  V30 4644 N 429.749 -6.78722 1.7967 0
M  V30 4645 H 434.589 -2.30818 1.88486 0
M  V30 4646 H 432.126 -1.13189 0.939499 0
M  V30 4647 H 434.084 -4.16504 0.240935 0
M  V30 4648 H 432.714 -3.20585 -0.377512 0
M  V30 4649 H 431.766 -3.20918 2.04245 0
M  V30 4650 H 433.078 -4.32177 2.49047 0
M  V30 4651 H 432.232 -6.00782 0.845302 0
M  V30 4652 H 430.971 -4.86799 0.296254 0
M  V30 4653 H 429.976 -4.84385 2.60099 0
M  V30 4654 H 431.201 -6.01798 3.14667 0
M  V30 4655 H 429.147 -6.49042 0.95295 0
M  V30 4656 H 429.064 -7.10996 2.56944 0
M  V30 4657 H 430.332 -7.64759 1.50875 0
M  V30 4658 N 434.561 -1.01147 -1.20859 0
M  V30 4659 C 435.791 -0.715872 -1.93801 0
M  V30 4660 C 436.199 0.726592 -1.74692 0
M  V30 4661 O 435.542 1.50397 -1.05482 0
M  V30 4662 C 435.604 -0.965269 -3.46299 0
M  V30 4663 C 435.268 -2.39584 -3.89164 0
M  V30 4664 C 436.265 -3.3764 -3.95342 0
M  V30 4665 C 433.95 -2.73522 -4.21297 0
M  V30 4666 C 435.944 -4.67698 -4.33056 0
M  V30 4667 C 433.631 -4.03794 -4.58687 0
M  V30 4668 C 434.629 -5.00693 -4.64538 0
M  V30 4669 O 434.317 -6.28635 -5.01072 0
M  V30 4670 H 434.049 -0.262524 -0.622942 0
M  V30 4671 H 436.603 -1.35413 -1.54443 0
M  V30 4672 H 434.833 -0.269847 -3.85757 0
M  V30 4673 H 436.522 -0.662051 -4.00464 0
M  V30 4674 H 437.288 -3.12757 -3.70686 0
M  V30 4675 H 433.167 -1.9879 -4.15937 0
M  V30 4676 H 436.711 -5.4333 -4.37537 0
M  V30 4677 H 432.608 -4.28459 -4.82797 0
M  V30 4678 H 433.376 -6.32847 -5.19083 0
M  V30 4679 N 436.039 1.36541 -0.78704 0
M  V30 4680 C 437.267 2.03561 -0.370199 0
M  V30 4681 C 437.682 1.59347 1.01263 0
M  V30 4682 O 437.039 0.781781 1.64907 0
M  V30 4683 C 437.09 3.59033 -0.421614 0
M  V30 4684 O 436.811 4.01634 -1.7499 0
M  V30 4685 C 438.312 4.433 0.00489763 0
M  V30 4686 H 435.532 0.653346 -0.152904 0
M  V30 4687 H 438.076 1.74566 -1.06522 0
M  V30 4688 H 436.231 3.86746 0.224971 0
M  V30 4689 H 436.645 4.96217 -1.69909 0
M  V30 4690 H 438.119 5.51939 -0.0822184 0
M  V30 4691 H 438.596 4.26285 1.05723 0
M  V30 4692 H 439.202 4.20843 -0.614085 0
M  V30 4693 N 437.518 0.538854 1.48102 0
M  V30 4694 C 438.743 0.0102694 2.07397 0
M  V30 4695 C 439.168 -1.26562 1.39153 0
M  V30 4696 O 438.526 -1.75357 0.460387 0
M  V30 4697 C 438.574 -0.187602 3.60112 0
M  V30 4698 O 437.678 -1.25432 3.92862 0
M  V30 4699 H 437.019 0.0430975 0.6626 0
M  V30 4700 H 439.549 0.749301 1.90385 0
M  V30 4701 H 439.559 -0.407517 4.0596 0
M  V30 4702 H 438.234 0.744386 4.09184 0
M  V30 4703 H 436.811 -1.01636 3.58782 0
M  V30 4704 N 438.996 -1.55193 0.274407 0
M  V30 4705 C 439.959 -2.212 -0.600279 0
M  V30 4706 C 440.959 -1.18963 -1.08187 0
M  V30 4707 O 442.149 -1.43873 -0.982158 0
M  V30 4708 C 439.281 -2.87739 -1.82809 0
M  V30 4709 H 440.474 -2.9989 -0.0239682 0
M  V30 4710 H 438.027 -1.5628 0.0250192 0
M  V30 4711 H 438.762 -2.13058 -2.44493 0
M  V30 4712 H 438.547 -3.62658 -1.49069 0
M  V30 4713 H 440.037 -3.38171 -2.45011 0
M  V30 4714 N 440.474 -0.00167713 -1.576 0
M  V30 4715 C 441.404 0.988091 -2.11563 0
M  V30 4716 C 442.385 1.35736 -1.02517 0
M  V30 4717 O 443.57 1.44082 -1.30208 0
M  V30 4718 C 440.7 2.27941 -2.62031 0
M  V30 4719 C 439.654 2.0517 -3.75619 0
M  V30 4720 C 438.98 3.4033 -4.12407 0
M  V30 4721 C 440.28 1.41294 -5.02825 0
M  V30 4722 H 441.974 0.538771 -2.94513 0
M  V30 4723 H 439.52 0.257712 -1.41675 0
M  V30 4724 H 441.473 2.97539 -2.9841 0
M  V30 4725 H 440.197 2.74989 -1.76205 0
M  V30 4726 H 438.856 1.37998 -3.39635 0
M  V30 4727 H 438.504 3.85085 -3.23603 0
M  V30 4728 H 438.204 3.25909 -4.88935 0
M  V30 4729 H 439.728 4.1124 -4.51347 0
M  V30 4730 H 441.142 2.00851 -5.36965 0
M  V30 4731 H 439.539 1.37356 -5.84169 0
M  V30 4732 H 440.609 0.382362 -4.8339 0
M  V30 4733 N 441.952 1.55251 0.271103 0
M  V30 4734 C 443.18 1.79974 1.02064 0
M  V30 4735 C 443.595 0.574003 1.79863 0
M  V30 4736 O 442.952 -0.456962 1.76686 0
M  V30 4737 C 443.003 3.02603 1.97772 0
M  V30 4738 O 442.724 4.20443 1.23124 0
M  V30 4739 C 444.225 3.39944 2.84522 0
M  V30 4740 H 441.445 0.599489 0.301419 0
M  V30 4741 H 443.989 2.02268 0.301313 0
M  V30 4742 H 442.144 2.8243 2.65165 0
M  V30 4743 H 442.558 4.89783 1.87651 0
M  V30 4744 H 444.032 4.28915 3.47471 0
M  V30 4745 H 444.509 2.59432 3.54389 0
M  V30 4746 H 445.115 3.62383 2.22618 0
M  V30 4747 N 443.43 -0.535701 1.48216 0
M  V30 4748 C 444.66 -1.3148 1.59363 0
M  V30 4749 C 445.068 -1.8753 0.250844 0
M  V30 4750 O 444.411 -1.66821 -0.769174 0
M  V30 4751 C 444.473 -2.50731 2.57632 0
M  V30 4752 C 444.137 -2.15811 4.02833 0
M  V30 4753 C 445.134 -1.71822 4.90686 0
M  V30 4754 C 442.819 -2.26509 4.48329 0
M  V30 4755 C 444.813 -1.3899 6.22062 0
M  V30 4756 C 442.5 -1.93289 5.79726 0
M  V30 4757 C 443.498 -1.49599 6.66415 0
M  V30 4758 O 443.186 -1.16812 7.95368 0
M  V30 4759 H 442.918 -0.406315 0.540263 0
M  V30 4760 H 445.472 -0.653569 1.94725 0
M  V30 4761 H 443.702 -3.19817 2.1738 0
M  V30 4762 H 445.391 -3.12797 2.58675 0
M  V30 4763 H 446.157 -1.63031 4.56778 0
M  V30 4764 H 442.036 -2.59471 3.81045 0
M  V30 4765 H 445.58 -1.04816 6.89681 0
M  V30 4766 H 441.477 -2.01718 6.13172 0
M  V30 4767 H 442.245 -1.30259 8.08069 0
M  V30 4768 N 444.908 -1.36708 -0.784132 0
M  V30 4769 C 446.185 -1.21776 -1.53069 0
M  V30 4770 C 446.565 0.193876 -2.10208 0
M  V30 4771 O 445.913 1.20012 -1.94446 0
M  V30 4772 C 446.123 -2.30395 -2.62143 0
M  V30 4773 C 447.471 -2.67325 -3.29882 0
M  V30 4774 O 448.495 -2.29478 -2.7243 0
M  V30 4775 O 447.354 -3.32485 -4.33724 0
M  V30 4776 H 444.448 -0.474459 -0.677361 0
M  V30 4777 H 446.994 -1.48454 -0.82216 0
M  V30 4778 H 445.766 -3.2498 -2.17953 0
M  V30 4779 H 445.389 -2.05112 -3.40609 0
M  V30 4780 N 446.386 1.0089 -1.21074 0
M  V30 4781 C 447.349 2.0775 -0.968129 0
M  V30 4782 C 448.349 1.6069 0.0593445 0
M  V30 4783 O 449.539 1.73293 -0.177525 0
M  V30 4784 C 446.671 3.37794 -0.459108 0
M  V30 4785 H 447.864 2.30707 -1.9161 0
M  V30 4786 H 445.417 1.17807 -1.02719 0
M  V30 4787 H 446.152 3.20516 0.49397 0
M  V30 4788 H 445.937 3.7328 -1.20019 0
M  V30 4789 H 447.427 4.16454 -0.309099 0
M  V30 4790 N 447.864 1.01787 1.20321 0
M  V30 4791 C 449.11 0.708985 1.90003 0
M  V30 4792 C 449.443 -0.759572 1.78729 0
M  V30 4793 O 448.718 -1.55198 1.17234 0
M  V30 4794 C 449.001 1.1469 3.41348 0
M  V30 4795 C 448.854 2.67586 3.61549 0
M  V30 4796 C 450.173 0.71915 4.34185 0
M  V30 4797 H 447.292 0.259034 0.689978 0
M  V30 4798 H 449.934 1.26584 1.41692 0
M  V30 4799 H 448.084 0.673128 3.82624 0
M  V30 4800 H 449.756 3.22826 3.29517 0
M  V30 4801 H 447.999 3.085 3.04976 0
M  V30 4802 H 448.67 2.93281 4.67643 0
M  V30 4803 H 451.146 1.12647 4.00562 0
M  V30 4804 H 450.022 1.05358 5.38694 0
M  V30 4805 H 450.283 -0.379111 4.40472 0
M  V30 4806 N 449.342 -1.36122 0.79427 0
M  V30 4807 C 450.274 -2.28683 0.153903 0
M  V30 4808 C 451.287 -1.49707 -0.639669 0
M  V30 4809 O 452.476 -1.7209 -0.474054 0
M  V30 4810 C 449.576 -3.29202 -0.804921 0
M  V30 4811 C 448.749 -4.37358 -0.060366 0
M  V30 4812 C 447.808 -5.17811 -0.935849 0
M  V30 4813 O 446.834 -5.67853 -0.391309 0
M  V30 4814 N 448.036 -5.34721 -2.25951 0
M  V30 4815 H 450.801 -2.84278 0.949008 0
M  V30 4816 H 448.362 -1.4834 0.648611 0
M  V30 4817 H 450.354 -3.79914 -1.39455 0
M  V30 4818 H 448.924 -2.74212 -1.50088 0
M  V30 4819 H 448.144 -3.87746 0.710382 0
M  V30 4820 H 449.432 -5.06777 0.45324 0
M  V30 4821 H 448.83 -4.95687 -2.72601 0
M  V30 4822 H 447.387 -5.88657 -2.79867 0
M  V30 4823 N 450.82 -0.546701 -1.47814 0
M  V30 4824 C 452.066 -0.0187684 -2.02791 0
M  V30 4825 C 452.399 1.32338 -1.42128 0
M  V30 4826 O 451.674 1.85867 -0.573023 0
M  V30 4827 C 451.957 0.0854985 -3.59998 0
M  V30 4828 C 451.81 -1.283 -4.31114 0
M  V30 4829 C 453.129 0.80412 -4.32691 0
M  V30 4830 H 450.248 -0.0082946 -0.736953 0
M  V30 4831 H 452.89 -0.706962 -1.76358 0
M  V30 4832 H 451.04 0.671609 -3.82651 0
M  V30 4833 H 452.712 -1.91151 -4.19832 0
M  V30 4834 H 450.955 -1.86049 -3.91878 0
M  V30 4835 H 451.626 -1.16287 -5.39612 0
M  V30 4836 H 454.102 0.306576 -4.14969 0
M  V30 4837 H 452.978 0.846011 -5.42341 0
M  V30 4838 H 453.239 1.85802 -4.01161 0
M  V30 4839 N 452.299 1.55045 -0.282633 0
M  V30 4840 C 453.232 2.18951 0.64311 0
M  V30 4841 C 454.21 1.15287 1.14664 0
M  V30 4842 O 455.394 1.43846 1.21822 0
M  V30 4843 C 452.521 2.81874 1.87789 0
M  V30 4844 C 451.567 3.98906 1.50919 0
M  V30 4845 S 452.4 5.3234 0.580884 0
M  V30 4846 C 453.556 5.98737 1.82387 0
M  V30 4847 H 453.789 2.97131 0.100138 0
M  V30 4848 H 451.322 1.54255 -0.0668514 0
M  V30 4849 H 453.28 3.18757 2.58658 0
M  V30 4850 H 451.941 2.03573 2.392 0
M  V30 4851 H 451.134 4.4165 2.42819 0
M  V30 4852 H 450.736 3.63485 0.88061 0
M  V30 4853 H 453.028 6.18427 2.76684 0
M  V30 4854 H 453.971 6.93318 1.4393 0
M  V30 4855 H 454.379 5.28177 1.99223 0
M  V30 4856 N 453.777 0.010035 1.57597 0
M  V30 4857 C 455.005 -0.683413 1.95287 0
M  V30 4858 C 455.42 -1.66747 0.885481 0
M  V30 4859 O 454.777 -1.82003 -0.134629 0
M  V30 4860 C 454.828 -1.40652 3.33015 0
M  V30 4861 O 454.549 -0.461916 4.35658 0
M  V30 4862 C 456.05 -2.19356 3.85225 0
M  V30 4863 H 453.27 -0.189708 0.643624 0
M  V30 4864 H 455.814 0.0641359 2.04399 0
M  V30 4865 H 453.969 -2.10562 3.2518 0
M  V30 4866 H 454.383 -0.973215 5.15392 0
M  V30 4867 H 455.857 -2.65433 4.83993 0
M  V30 4868 H 456.334 -3.02457 3.18459 0
M  V30 4869 H 456.94 -1.54442 3.96267 0
M  V30 4870 N 455.255 -1.55392 -0.262866 0
M  V30 4871 C 456.165 -1.92077 -1.34698 0
M  V30 4872 C 457.181 -0.819227 -1.53508 0
M  V30 4873 O 458.357 -1.11921 -1.67439 0
M  V30 4874 C 455.422 -2.19407 -2.68443 0
M  V30 4875 C 454.483 -3.42905 -2.58292 0
M  V30 4876 C 453.716 -3.68921 -3.85659 0
M  V30 4877 O 453.939 -2.97275 -4.8681 0
M  V30 4878 O 452.873 -4.62455 -3.85252 0
M  V30 4879 H 456.699 -2.84384 -1.06581 0
M  V30 4880 H 454.284 -1.42069 -0.462264 0
M  V30 4881 H 456.166 -2.38365 -3.47506 0
M  V30 4882 H 454.841 -1.30282 -2.96325 0
M  V30 4883 H 453.748 -3.29272 -1.7757 0
M  V30 4884 H 455.081 -4.32282 -2.35358 0
M  V30 4885 N 456.733 0.527833 -1.48498 0
M  V30 4886 C 457.696 1.61439 -1.62696 0
M  V30 4887 C 458.696 1.52824 -0.500136 0
M  V30 4888 O 459.886 1.56456 -0.765976 0
M  V30 4889 C 457.018 3.01063 -1.59918 0
M  V30 4890 H 458.211 1.50189 -2.59583 0
M  V30 4891 H 455.764 0.750055 -1.37127 0
M  V30 4892 H 456.499 3.17818 -0.645163 0
M  V30 4893 H 456.284 3.08725 -2.41726 0
M  V30 4894 H 457.774 3.80057 -1.73051 0
M  V30 4895 N 458.211 1.37122 0.776871 0
M  V30 4896 C 459.458 1.32047 1.53524 0
M  V30 4897 C 459.786 -0.0965631 1.9426 0
M  V30 4898 O 459.041 -1.06866 1.63945 0
M  V30 4899 C 459.34 2.20068 2.81611 0
M  V30 4900 C 459.006 3.68423 2.59953 0
M  V30 4901 C 457.668 4.08854 2.53755 0
M  V30 4902 C 460.02 4.62431 2.40431 0
M  V30 4903 C 457.348 5.41417 2.26018 0
M  V30 4904 C 459.7 5.95225 2.14219 0
M  V30 4905 C 458.364 6.34767 2.06462 0
M  V30 4906 H 457.634 0.483196 0.561785 0
M  V30 4907 H 460.281 1.69284 0.895268 0
M  V30 4908 H 458.586 1.75809 3.50141 0
M  V30 4909 H 460.283 2.13458 3.39465 0
M  V30 4910 H 456.873 3.36354 2.65638 0
M  V30 4911 H 461.057 4.32057 2.44213 0
M  V30 4912 H 456.313 5.71022 2.18504 0
M  V30 4913 H 460.487 6.67626 1.98112 0
M  V30 4914 H 458.114 7.37413 1.84733 0
M  V30 4915 N 459.689 -1.00246 1.21608 0
M  V30 4916 C 461.105 -1.26435 0.973975 0
M  V30 4917 C 461.305 -1.98642 -0.338143 0
M  V30 4918 O 460.361 -2.29026 -1.06317 0
M  V30 4919 C 461.674 -2.08551 2.16626 0
M  V30 4920 C 463.222 -2.21769 2.20879 0
M  V30 4921 C 463.697 -3.07267 3.39633 0
M  V30 4922 N 465.188 -3.14855 3.39736 0
M  V30 4923 C 465.923 -3.81274 4.28273 0
M  V30 4924 N 465.419 -4.497 5.27012 0
M  V30 4925 N 467.212 -3.7794 4.16074 0
M  V30 4926 H 459.363 -0.518089 2.05984 0
M  V30 4927 H 461.626 -0.291368 0.902113 0
M  V30 4928 H 461.332 -1.62847 3.11727 0
M  V30 4929 H 461.206 -3.09303 2.15897 0
M  V30 4930 H 463.593 -2.66691 1.26332 0
M  V30 4931 H 463.674 -1.20478 2.25652 0
M  V30 4932 H 463.318 -2.63047 4.34475 0
M  V30 4933 H 463.248 -4.08678 3.321 0
M  V30 4934 H 465.739 -2.66147 2.6828 0
M  V30 4935 H 466.052 -4.98092 5.90867 0
M  V30 4936 H 464.397 -4.48479 5.30935 0
M  V30 4937 H 467.588 -3.23638 3.38195 0
M  V30 4938 H 467.761 -4.29424 4.85282 0
M  V30 4939 N 461.167 -1.02423 -1.1978 0
M  V30 4940 C 462.115 -0.594474 -2.24875 0
M  V30 4941 C 463.109 0.370598 -1.65296 0
M  V30 4942 O 464.315 0.239684 -1.78397 0
M  V30 4943 H 460.69 -0.173961 -0.731602 0
M  V30 4944 H 462.661 -1.4916 -2.58445 0
M  V30 4945 C 461.41 0.0436512 -3.47673 0
M  V30 4946 H 460.733 -0.689963 -3.93801 0
M  V30 4947 H 462.173 0.307362 -4.22884 0
M  V30 4948 C 460.632 1.28881 -3.11274 0
M  V30 4949 O 461.162 2.38135 -3.23503 0
M  V30 4950 N 459.368 1.1758 -2.6575 0
M  V30 4951 H 458.915 0.286769 -2.55999 0
M  V30 4952 H 458.873 2.00988 -2.41767 0
M  V30 4953 N 462.645 1.35699 -0.801477 0
M  V30 4954 C 463.575 2.32436 -0.222658 0
M  V30 4955 C 464.556 1.5723 0.649057 0
M  V30 4956 O 465.741 1.85324 0.580387 0
M  V30 4957 C 462.871 3.41469 0.633719 0
M  V30 4958 C 461.825 4.27774 -0.139083 0
M  V30 4959 C 461.151 5.28082 0.838666 0
M  V30 4960 C 462.451 5.04946 -1.33517 0
M  V30 4961 H 464.145 2.81094 -1.03086 0
M  V30 4962 H 461.691 1.35146 -0.497155 0
M  V30 4963 H 463.644 4.08143 1.04868 0
M  V30 4964 H 462.368 2.91408 1.47475 0
M  V30 4965 H 461.027 3.62673 -0.535156 0
M  V30 4966 H 460.675 4.7429 1.67506 0
M  V30 4967 H 460.375 5.86695 0.32594 0
M  V30 4968 H 461.899 5.97628 1.25194 0
M  V30 4969 H 463.313 5.64593 -0.995349 0
M  V30 4970 H 461.71 5.7303 -1.78202 0
M  V30 4971 H 462.78 4.35886 -2.12442 0
M  V30 4972 N 464.123 0.554532 1.47522 0
M  V30 4973 C 465.539 0.214107 1.58157 0
M  V30 4974 C 465.739 -1.28331 1.55349 0
M  V30 4975 O 464.795 -2.06329 1.45549 0
M  V30 4976 C 466.108 0.838391 2.88776 0
M  V30 4977 C 467.656 0.809374 3.02354 0
M  V30 4978 C 468.131 1.41268 4.35669 0
M  V30 4979 N 469.622 1.37574 4.42298 0
M  V30 4980 C 470.357 1.8122 5.4401 0
M  V30 4981 N 469.853 2.3271 6.52547 0
M  V30 4982 N 471.646 1.72307 5.35039 0
M  V30 4983 H 463.797 1.52744 1.4759 0
M  V30 4984 H 466.06 0.636812 0.702264 0
M  V30 4985 H 465.766 1.89065 2.96559 0
M  V30 4986 H 465.64 0.329847 3.75755 0
M  V30 4987 H 468.027 -0.234187 2.94169 0
M  V30 4988 H 468.108 1.35565 2.16924 0
M  V30 4989 H 467.752 2.45529 4.4461 0
M  V30 4990 H 467.682 0.841871 5.19827 0
M  V30 4991 H 470.173 0.999081 3.64454 0
M  V30 4992 H 470.486 2.63944 7.26329 0
M  V30 4993 H 468.831 2.36719 6.53444 0
M  V30 4994 H 472.022 1.3186 4.49144 0
M  V30 4995 H 472.195 2.06641 6.14169 0
M  V30 4996 N 465.601 -1.54893 0.290851 0
M  V30 4997 C 466.548 -2.23138 -0.58974 0
M  V30 4998 C 467.518 -1.21036 -1.13752 0
M  V30 4999 O 468.703 -1.49626 -1.18392 0
M  V30 5000 C 465.843 -2.96811 -1.76061 0
M  V30 5001 C 464.956 -4.13665 -1.24519 0
M  V30 5002 C 464.091 -4.74944 -2.3791 0
M  V30 5003 C 463.13 -5.83963 -1.83451 0
M  V30 5004 N 462.267 -6.39239 -2.90376 0
M  V30 5005 H 467.107 -2.98 -0.00114915 0
M  V30 5006 H 464.644 -1.47096 0.0112006 0
M  V30 5007 H 466.602 -3.37751 -2.44909 0
M  V30 5008 H 465.232 -2.24344 -2.32098 0
M  V30 5009 H 464.284 -3.77737 -0.449288 0
M  V30 5010 H 465.596 -4.92238 -0.806424 0
M  V30 5011 H 464.75 -5.18684 -3.14724 0
M  V30 5012 H 463.489 -3.95682 -2.85109 0
M  V30 5013 H 462.494 -5.39657 -1.05122 0
M  V30 5014 H 463.719 -6.65103 -1.37169 0
M  V30 5015 H 461.665 -5.62864 -3.36927 0
M  V30 5016 H 461.582 -7.13129 -2.50965 0
M  V30 5017 H 462.85 -6.87637 -3.67118 0
M  V30 5018 N 467.08 -0.0183926 -1.57589 0
M  V30 5019 C 468.012 0.995557 -2.06449 0
M  V30 5020 C 469.025 1.29556 -0.985849 0
M  V30 5021 O 470.214 1.2621 -1.26227 0
M  V30 5022 C 467.314 2.32572 -2.46502 0
M  V30 5023 C 466.487 2.21245 -3.77319 0
M  V30 5024 C 465.546 3.37104 -4.04039 0
M  V30 5025 O 464.572 3.14468 -4.74445 0
M  V30 5026 N 465.774 4.60553 -3.53372 0
M  V30 5027 H 468.539 0.578746 -2.94059 0
M  V30 5028 H 466.1 0.168603 -1.6102 0
M  V30 5029 H 468.092 3.08887 -2.61478 0
M  V30 5030 H 466.662 2.65931 -1.64315 0
M  V30 5031 H 465.882 1.29723 -3.72244 0
M  V30 5032 H 467.17 2.10868 -4.63047 0
M  V30 5033 H 466.568 4.81839 -2.96391 0
M  V30 5034 H 465.125 5.34072 -3.73644 0
M  V30 5035 N 468.558 1.5553 0.254621 0
M  V30 5036 C 469.974 1.4778 0.602753 0
M  V30 5037 C 470.174 0.707047 1.88688 0
M  V30 5038 O 469.23 0.233288 2.5142 0
M  V30 5039 C 470.543 2.92133 0.712648 0
M  V30 5040 C 472.091 3.02458 0.805488 0
M  V30 5041 C 472.566 4.48102 0.947009 0
M  V30 5042 N 474.057 4.52008 1.01207 0
M  V30 5043 C 474.792 5.61939 1.1407 0
M  V30 5044 N 474.288 6.81697 1.23536 0
M  V30 5045 N 476.081 5.49719 1.17325 0
M  V30 5046 H 468.232 2.04085 -0.588463 0
M  V30 5047 H 470.495 0.926229 -0.202001 0
M  V30 5048 H 470.201 3.51332 -0.160766 0
M  V30 5049 H 470.075 3.42187 1.58707 0
M  V30 5050 H 472.462 2.43344 1.66936 0
M  V30 5051 H 472.543 2.55627 -0.0939266 0
M  V30 5052 H 472.187 5.07824 0.087725 0
M  V30 5053 H 472.117 4.92607 1.86135 0
M  V30 5054 H 474.608 3.65749 0.950577 0
M  V30 5055 H 474.921 7.61228 1.33236 0
M  V30 5056 H 473.266 6.84473 1.20508 0
M  V30 5057 H 476.457 4.55095 1.09573 0
M  V30 5058 H 476.63 6.35432 1.27005 0
M  V30 5059 N 470.036 -0.519951 1.48776 0
M  V30 5060 C 471.285 -1.27175 1.56555 0
M  V30 5061 C 471.598 -1.9401 0.248869 0
M  V30 5062 O 472.804 -2.70725 0.205004 0
M  V30 5063 C 471.26 -2.30811 2.76142 0
M  V30 5064 C 470.868 -1.7 4.14493 0
M  V30 5065 C 472.612 -3.06937 2.9324 0
M  V30 5066 C 470.519 -2.71635 5.25327 0
M  V30 5067 H 469.449 -0.478329 0.582853 0
M  V30 5068 H 472.1 -0.547916 1.75129 0
M  V30 5069 H 470.482 -3.06274 2.51023 0
M  V30 5070 H 471.656 -1.00658 4.49672 0
M  V30 5071 H 469.971 -1.06331 4.02595 0
M  V30 5072 H 472.568 -3.82905 3.73213 0
M  V30 5073 H 472.911 -3.63409 2.03075 0
M  V30 5074 H 473.444 -2.38589 3.18308 0
M  V30 5075 H 470.183 -2.1997 6.1749 0
M  V30 5076 H 469.703 -3.39275 4.94624 0
M  V30 5077 H 471.382 -3.34429 5.53865 0
M  V30 5078 N 471.514 -1.37532 -0.769588 0
M  V30 5079 C 472.424 -1.35668 -1.91393 0
M  V30 5080 C 473.44 -0.255954 -1.72107 0
M  V30 5081 O 474.616 -0.491704 -1.95305 0
M  V30 5082 C 471.681 -1.16481 -3.26547 0
M  V30 5083 C 470.742 -2.36212 -3.58472 0
M  V30 5084 C 469.975 -2.17932 -4.87177 0
M  V30 5085 O 470.198 -1.1647 -5.58382 0
M  V30 5086 O 469.132 -3.06167 -5.18214 0
M  V30 5087 H 472.958 -2.32055 -1.95918 0
M  V30 5088 H 470.543 -1.18284 -0.912641 0
M  V30 5089 H 472.425 -1.07778 -4.07384 0
M  V30 5090 H 471.1 -0.231687 -3.2287 0
M  V30 5091 H 470.007 -2.50488 -2.77861 0
M  V30 5092 H 471.34 -3.281 -3.66894 0
M  V30 5093 N 472.992 0.995999 -1.22138 0
M  V30 5094 C 474.241 1.72928 -1.03821 0
M  V30 5095 C 474.554 1.90872 0.427444 0
M  V30 5096 O 475.76 2.61496 0.730212 0
M  V30 5097 C 474.216 3.11124 -1.80913 0
M  V30 5098 C 473.824 3.01122 -3.31707 0
M  V30 5099 C 475.568 3.8852 -1.71035 0
M  V30 5100 C 473.475 4.34453 -4.01253 0
M  V30 5101 H 472.405 0.648376 -0.384869 0
M  V30 5102 H 475.056 1.11213 -1.45959 0
M  V30 5103 H 473.438 3.73503 -1.31573 0
M  V30 5104 H 474.612 2.47926 -3.88419 0
M  V30 5105 H 472.927 2.3721 -3.42228 0
M  V30 5106 H 475.524 4.872 -2.20318 0
M  V30 5107 H 475.867 4.1087 -0.670196 0
M  V30 5108 H 476.4 3.32812 -2.17902 0
M  V30 5109 H 473.139 4.17303 -5.05508 0
M  V30 5110 H 472.659 4.87574 -3.49331 0
M  V30 5111 H 474.338 5.03215 -4.06674 0
M  V30 5112 N 474.47 1.03057 1.19235 0
M  V30 5113 C 475.695 0.74757 1.93458 0
M  V30 5114 C 476.12 -0.687648 1.7508 0
M  V30 5115 O 475.478 -1.47499 1.05422 0
M  V30 5116 C 475.526 1.10604 3.43219 0
M  V30 5117 O 474.63 0.225671 4.11782 0
M  V30 5118 H 473.971 0.276047 0.603899 0
M  V30 5119 H 476.501 1.3777 1.51263 0
M  V30 5120 H 476.511 1.06366 3.93891 0
M  V30 5121 H 475.186 2.15165 3.55917 0
M  V30 5122 H 473.763 0.326795 3.71465 0
M  V30 5123 N 475.948 -1.35272 0.808662 0
M  V30 5124 C 477.364 -1.51806 0.492653 0
M  V30 5125 C 477.564 -1.7574 -0.985778 0
M  V30 5126 O 476.62 -1.80003 -1.77074 0
M  V30 5127 C 477.933 -2.69202 1.33981 0
M  V30 5128 C 479.481 -2.8308 1.33547 0
M  V30 5129 C 479.956 -4.03502 2.16679 0
M  V30 5130 N 481.447 -4.10684 2.14227 0
M  V30 5131 C 482.182 -5.02984 2.75308 0
M  V30 5132 N 481.678 -6.00603 3.45323 0
M  V30 5133 N 483.471 -4.95746 2.64938 0
M  V30 5134 H 475.622 -1.17993 1.76611 0
M  V30 5135 H 477.885 -0.577476 0.751814 0
M  V30 5136 H 477.591 -2.581 2.38909 0
M  V30 5137 H 477.465 -3.63854 0.994491 0
M  V30 5138 H 479.852 -2.93631 0.294036 0
M  V30 5139 H 479.933 -1.89278 1.72068 0
M  V30 5140 H 479.577 -3.93711 3.20864 0
M  V30 5141 H 479.507 -4.96489 1.75517 0
M  V30 5142 H 481.998 -3.40802 1.63285 0
M  V30 5143 H 482.311 -6.67633 3.89212 0
M  V30 5144 H 480.656 -6.0077 3.49428 0
M  V30 5145 H 483.847 -4.18439 2.09825 0
M  V30 5146 H 484.02 -5.67487 3.12829 0
M  V30 5147 N 477.426 -0.562348 -1.47226 0
M  V30 5148 C 478.842 -0.222492 -1.58042 0
M  V30 5149 C 479.042 1.27505 -1.56028 0
M  V30 5150 O 478.098 2.05555 -1.46641 0
M  V30 5151 C 479.411 -0.853694 -2.88327 0
M  V30 5152 C 480.959 -0.825397 -3.01921 0
M  V30 5153 C 481.434 -1.43576 -4.34914 0
M  V30 5154 N 482.925 -1.39918 -4.41562 0
M  V30 5155 C 483.66 -1.84103 -5.43041 0
M  V30 5156 N 483.156 -2.36167 -6.51304 0
M  V30 5157 N 484.949 -1.75142 -5.34118 0
M  V30 5158 H 477.1 -1.53525 -1.46778 0
M  V30 5159 H 479.363 -0.640527 -0.698877 0
M  V30 5160 H 479.069 -1.90635 -2.95552 0
M  V30 5161 H 478.943 -0.34977 -3.75575 0
M  V30 5162 H 481.33 0.218583 -2.94289 0
M  V30 5163 H 481.411 -1.36713 -2.16202 0
M  V30 5164 H 481.055 -2.47884 -4.43301 0
M  V30 5165 H 480.985 -0.869427 -5.19373 0
M  V30 5166 H 483.476 -1.0184 -3.63919 0
M  V30 5167 H 483.789 -2.67793 -7.24919 0
M  V30 5168 H 482.134 -2.40181 -6.52179 0
M  V30 5169 H 485.325 -1.34241 -4.48439 0
M  V30 5170 H 485.498 -2.09895 -6.13065 0
M  V30 5171 N 478.904 1.54736 -0.299062 0
M  V30 5172 C 480.152 1.99706 0.31017 0
M  V30 5173 C 480.473 1.18896 1.54559 0
M  V30 5174 O 479.743 0.284445 1.93824 0
M  V30 5175 H 478.323 0.737686 0.117596 0
M  V30 5176 H 480.985 1.9054 -0.409943 0
M  V30 5177 H 480.081 3.06596 0.58355 0
M  V30 5178 N 480.382 0.0267497 1.57577 0
M  V30 5179 C 481.33 -0.973923 2.11229 0
M  V30 5180 C 482.324 -1.33849 1.03831 0
M  V30 5181 O 483.53 -1.321 1.22269 0
M  V30 5182 H 479.905 -0.331844 0.674821 0
M  V30 5183 H 481.876 -0.496092 2.94247 0
M  V30 5184 C 480.625 -2.24798 2.65257 0
M  V30 5185 H 479.948 -1.9762 3.47543 0
M  V30 5186 H 481.388 -2.93031 3.06445 0
M  V30 5187 C 479.847 -2.97611 1.57891 0
M  V30 5188 O 480.377 -3.89629 0.97735 0
M  V30 5189 N 478.583 -2.59905 1.29992 0
M  V30 5190 H 478.13 -1.85154 1.79097 0
M  V30 5191 H 478.088 -3.08932 0.583798 0
M  V30 5192 N 481.861 -1.55662 -0.24637 0
M  V30 5193 C 482.824 -1.89558 -1.28842 0
M  V30 5194 C 483.824 -0.772082 -1.41052 0
M  V30 5195 O 485.014 -1.04007 -1.39743 0
M  V30 5196 C 482.146 -2.12449 -2.66605 0
M  V30 5197 H 483.339 -2.82735 -1.00004 0
M  V30 5198 H 480.892 -1.48562 -0.485684 0
M  V30 5199 H 481.627 -1.21742 -3.00582 0
M  V30 5200 H 481.412 -2.94273 -2.59125 0
M  V30 5201 H 482.902 -2.39854 -3.41847 0
M  V30 5202 N 483.339 0.512053 -1.4905 0
M  V30 5203 C 484.587 1.26436 -1.57665 0
M  V30 5204 C 484.908 1.93255 -0.260293 0
M  V30 5205 O 484.178 1.82206 0.719564 0
M  V30 5206 H 482.758 0.469658 -0.580888 0
M  V30 5207 H 485.42 0.594398 -1.85615 0
M  V30 5208 H 484.516 2.03417 -2.36702 0
M  V30 5209 N 484.817 1.37938 0.762283 0
M  V30 5210 C 486.094 1.24196 1.51112 0
M  V30 5211 C 486.474 -0.160409 2.1049 0
M  V30 5212 O 485.822 -1.16904 1.96331 0
M  V30 5213 C 486.032 2.34537 2.58445 0
M  V30 5214 C 487.38 2.7254 3.25588 0
M  V30 5215 O 488.404 2.33783 2.68745 0
M  V30 5216 O 487.263 3.39343 4.28379 0
M  V30 5217 H 484.357 0.485175 0.669727 0
M  V30 5218 H 486.903 1.49743 0.798438 0
M  V30 5219 H 485.675 3.28406 2.12756 0
M  V30 5220 H 485.298 2.10505 3.37303 0
M  V30 5221 N 486.295 -0.989507 1.22664 0
M  V30 5222 C 487.535 -1.7447 1.06488 0
M  V30 5223 C 487.899 -1.8794 -0.392737 0
M  V30 5224 O 489.1 -2.60175 -0.675446 0
M  V30 5225 C 487.371 -3.11043 1.76031 0
M  V30 5226 S 488.93 -4.02258 1.7531 0
M  V30 5227 H 485.748 -0.600123 0.381278 0
M  V30 5228 H 488.35 -1.18283 1.55658 0
M  V30 5229 H 487.054 -2.98884 2.81241 0
M  V30 5230 H 486.585 -3.72301 1.27105 0
M  V30 5231 H 488.6 -4.89623 0.805208 0
M  V30 5232 N 487.773 -1.03688 -1.18687 0
M  V30 5233 C 488.703 -0.645407 -2.24403 0
M  V30 5234 C 489.684 0.349511 -1.66471 0
M  V30 5235 O 490.869 0.230453 -1.92828 0
M  V30 5236 C 487.999 -0.00365337 -3.473 0
M  V30 5237 C 486.953 -0.921705 -4.17958 0
M  V30 5238 C 486.279 -0.144629 -5.34504 0
M  V30 5239 C 487.579 -2.23909 -4.71871 0
M  V30 5240 H 489.273 -1.52917 -2.57404 0
M  V30 5241 H 486.819 -0.736711 -1.23728 0
M  V30 5242 H 488.772 0.281908 -4.20456 0
M  V30 5243 H 487.496 0.914963 -3.13522 0
M  V30 5244 H 486.155 -1.19159 -3.46694 0
M  V30 5245 H 485.803 0.776274 -4.96974 0
M  V30 5246 H 485.503 -0.756206 -5.82714 0
M  V30 5247 H 487.027 0.134004 -6.10453 0
M  V30 5248 H 488.441 -2.0145 -5.36741 0
M  V30 5249 H 486.838 -2.8033 -5.30599 0
M  V30 5250 H 487.908 -2.88822 -3.895 0
M  V30 5251 N 489.251 1.34841 -0.815825 0
M  V30 5252 C 490.214 2.27959 -0.238185 0
M  V30 5253 C 491.214 1.49983 0.579816 0
M  V30 5254 O 492.404 1.69617 0.396953 0
M  V30 5255 C 489.536 3.34314 0.666876 0
M  V30 5256 H 490.729 2.80558 -1.05958 0
M  V30 5257 H 488.282 1.44852 -0.587156 0
M  V30 5258 H 489.017 2.86916 1.5116 0
M  V30 5259 H 488.802 3.92014 0.0819106 0
M  V30 5260 H 490.292 4.0379 1.06506 0
M  V30 5261 N 490.729 0.570148 1.46925 0
M  V30 5262 C 491.677 -0.183181 2.31878 0
M  V30 5263 C 492.671 -0.896721 1.43719 0
M  V30 5264 O 493.877 -0.816536 1.60414 0
M  V30 5265 H 490.252 -0.077944 0.74795 0
M  V30 5266 H 492.223 0.552312 2.93244 0
M  V30 5267 C 490.972 -1.19172 3.2664 0
M  V30 5268 H 490.295 -0.652088 3.94446 0
M  V30 5269 H 491.735 -1.68946 3.88887 0
M  V30 5270 C 490.194 -2.24627 2.51086 0
M  V30 5271 O 490.724 -3.31773 2.26472 0
M  V30 5272 N 488.93 -1.98898 2.11867 0
M  V30 5273 H 488.477 -1.11777 2.32086 0
M  V30 5274 H 488.435 -2.6967 1.61634 0
M  V30 5275 N 492.207 -1.54576 0.307264 0
M  V30 5276 C 493.618 -1.8579 -0.184121 0
M  V30 5277 C 493.969 -1.22914 -1.52927 0
M  V30 5278 O 493.094 -0.529126 -2.09831 0
M  V30 5279 C 493.689 -3.37081 -0.340862 0
M  V30 5280 C 492.248 -3.68304 -0.776465 0
M  V30 5281 C 491.395 -2.77076 0.111503 0
M  V30 5282 H 494.346 -1.49656 0.528078 0
M  V30 5283 H 494.367 -3.61922 -1.17443 0
M  V30 5284 H 493.879 -3.82815 0.638309 0
M  V30 5285 H 491.98 -3.28092 -1.76596 0
M  V30 5286 H 492.093 -4.75434 -0.591512 0
M  V30 5287 H 490.457 -2.51374 -0.410256 0
M  V30 5288 H 491.24 -3.25632 1.08714 0
M  V30 5289 N 493.685 -0.035106 -1.57561 0
M  V30 5290 C 494.648 0.929819 -2.09492 0
M  V30 5291 C 495.648 1.25026 -1.01119 0
M  V30 5292 O 496.838 1.18961 -1.27255 0
M  V30 5293 C 493.97 2.24457 -2.56577 0
M  V30 5294 H 495.163 0.479935 -2.96035 0
M  V30 5295 H 492.716 0.213033 -1.54841 0
M  V30 5296 H 493.451 2.74061 -1.73382 0
M  V30 5297 H 493.236 2.02508 -3.35757 0
M  V30 5298 H 494.726 2.93607 -2.96959 0
M  V30 5299 N 495.163 1.55791 0.238111 0
M  V30 5300 C 496.409 1.78297 0.966337 0
M  V30 5301 C 496.742 0.601903 1.84637 0
M  V30 5302 O 496.017 -0.399499 1.90353 0
M  V30 5303 C 496.3 3.10758 1.81939 0
M  V30 5304 C 496.153 4.39283 0.966958 0
M  V30 5305 C 497.472 3.39519 2.80027 0
M  V30 5306 H 494.591 0.648654 0.349882 0
M  V30 5307 H 497.233 1.88525 0.236253 0
M  V30 5308 H 495.383 3.02168 2.44185 0
M  V30 5309 H 497.055 4.59873 0.362514 0
M  V30 5310 H 495.298 4.32948 0.271669 0
M  V30 5311 H 495.969 5.28368 1.59784 0
M  V30 5312 H 498.445 3.48128 2.27917 0
M  V30 5313 H 497.321 4.33402 3.36829 0
M  V30 5314 H 497.582 2.60864 3.56934 0
M  V30 5315 N 496.642 -0.504142 1.49319 0
M  V30 5316 C 498.053 -1.08572 1.51885 0
M  V30 5317 C 498.404 -1.93842 0.303255 0
M  V30 5318 O 497.529 -2.0828 -0.58724 0
M  V30 5319 C 498.124 -1.97574 2.75227 0
M  V30 5320 C 496.683 -2.509 2.80581 0
M  V30 5321 C 495.83 -1.28447 2.45757 0
M  V30 5322 H 498.781 -0.288194 1.56061 0
M  V30 5323 H 498.802 -2.82219 2.55211 0
M  V30 5324 H 498.314 -1.35486 3.63683 0
M  V30 5325 H 496.415 -3.16636 1.96398 0
M  V30 5326 H 496.528 -2.88268 3.82673 0
M  V30 5327 H 494.892 -1.60868 1.97468 0
M  V30 5328 H 495.675 -0.68072 3.36483 0
M  V30 5329 N 498.12 -1.38341 -0.754957 0
M  V30 5330 C 499.366 -1.35678 -1.51536 0
M  V30 5331 C 499.721 0.0533985 -1.92326 0
M  V30 5332 O 499.014 1.01573 -1.6246 0
M  V30 5333 C 499.208 -2.2452 -2.78075 0
M  V30 5334 C 499.037 -3.74035 -2.49655 0
M  V30 5335 C 497.807 -4.43066 -2.42942 0
M  V30 5336 C 500.005 -4.665 -2.16523 0
M  V30 5337 N 497.987 -5.78026 -2.06783 0
M  V30 5338 C 499.358 -5.89962 -1.90644 0
M  V30 5339 C 501.413 -4.54718 -2.02821 0
M  V30 5340 C 500.116 -7.0296 -1.52444 0
M  V30 5341 C 502.142 -5.67618 -1.66023 0
M  V30 5342 C 501.504 -6.90141 -1.41015 0
M  V30 5343 H 497.603 -0.551764 -0.554148 0
M  V30 5344 H 500.187 -1.73716 -0.879258 0
M  V30 5345 H 498.358 -1.88673 -3.39496 0
M  V30 5346 H 500.09 -2.12993 -3.44116 0
M  V30 5347 H 496.845 -3.96264 -2.59367 0
M  V30 5348 H 497.269 -6.49394 -1.91353 0
M  V30 5349 H 501.911 -3.60546 -2.20831 0
M  V30 5350 H 499.629 -7.97051 -1.33174 0
M  V30 5351 H 503.215 -5.6048 -1.56055 0
M  V30 5352 H 502.095 -7.76021 -1.12965 0
M  V30 5353 N 499.598 0.982988 -1.23187 0
M  V30 5354 C 500.846 1.72052 -1.06031 0
M  V30 5355 C 501.167 1.90769 0.404019 0
M  V30 5356 O 500.437 1.47446 1.28982 0
M  V30 5357 H 499.017 0.637499 -0.389363 0
M  V30 5358 H 501.679 1.18338 -1.54862 0
M  V30 5359 H 500.775 2.7111 -1.54615 0
M  V30 5360 N 501.076 1.04316 1.18135 0
M  V30 5361 C 502.008 0.594444 2.21357 0
M  V30 5362 C 503.021 -0.337215 1.59269 0
M  V30 5363 O 504.21 -0.131337 1.78016 0
M  V30 5364 C 501.31 -0.151251 3.38562 0
M  V30 5365 C 500.483 0.788907 4.30227 0
M  V30 5366 C 499.542 0.0860572 5.2613 0
M  V30 5367 O 498.568 0.717302 5.64662 0
M  V30 5368 N 499.77 -1.17969 5.68387 0
M  V30 5369 H 502.535 1.48227 2.60478 0
M  V30 5370 H 500.096 0.92396 1.32946 0
M  V30 5371 H 502.088 -0.631352 3.99745 0
M  V30 5372 H 500.658 -0.940639 2.98112 0
M  V30 5373 H 499.878 1.44882 3.6661 0
M  V30 5374 H 501.166 1.42738 4.88368 0
M  V30 5375 H 500.564 -1.71302 5.3914 0
M  V30 5376 H 499.121 -1.60402 6.31755 0
M  V30 5377 N 502.554 -1.34406 0.822964 0
M  V30 5378 C 503.802 -1.97892 0.410245 0
M  V30 5379 C 504.123 -1.65567 -1.03017 0
M  V30 5380 O 503.393 -0.94642 -1.71522 0
M  V30 5381 H 501.973 -0.732049 0.148707 0
M  V30 5382 H 504.635 -1.64043 1.05242 0
M  V30 5383 H 503.731 -3.07579 0.529284 0
M  V30 5384 N 504.032 -0.577932 -1.46621 0
M  V30 5385 C 505.278 -0.0617793 -2.02706 0
M  V30 5386 C 505.611 1.29294 -1.44903 0
M  V30 5387 O 504.886 1.8461 -0.61232 0
M  V30 5388 C 505.169 0.00911824 -3.60099 0
M  V30 5389 C 505.022 -1.37416 -4.28295 0
M  V30 5390 C 506.341 0.712159 -4.343 0
M  V30 5391 H 503.46 -0.0239246 -0.736612 0
M  V30 5392 H 506.102 -0.744211 -1.74818 0
M  V30 5393 H 504.252 0.590292 -3.83989 0
M  V30 5394 H 505.924 -2.00013 -4.15683 0
M  V30 5395 H 504.167 -1.94319 -3.87843 0
M  V30 5396 H 504.838 -1.27707 -5.37024 0
M  V30 5397 H 507.314 0.218486 -4.15526 0
M  V30 5398 H 506.19 0.730782 -5.44014 0
M  V30 5399 H 506.451 1.77251 -4.05012 0
M  V30 5400 N 505.51 1.54411 -0.315457 0
M  V30 5401 C 506.42 2.27737 0.56329 0
M  V30 5402 C 507.436 1.31787 1.13614 0
M  V30 5403 O 508.612 1.64791 1.15784 0
M  V30 5404 C 505.677 3.01478 1.71207 0
M  V30 5405 C 504.738 4.12997 1.17185 0
M  V30 5406 C 503.971 4.83212 2.26588 0
M  V30 5407 O 504.194 4.52884 3.46775 0
M  V30 5408 O 503.128 5.70299 1.92463 0
M  V30 5409 H 506.954 3.03683 -0.0319614 0
M  V30 5410 H 504.539 1.49178 -0.0814188 0
M  V30 5411 H 506.421 3.47683 2.38106 0
M  V30 5412 H 505.096 2.28414 2.29366 0
M  V30 5413 H 504.003 3.71159 0.468174 0
M  V30 5414 H 505.336 4.8808 0.635501 0
M  V30 5415 N 506.988 0.0434614 1.5754 0
M  V30 5416 C 508.237 -0.631454 1.91561 0
M  V30 5417 C 508.55 -1.72457 0.92292 0
M  V30 5418 O 509.756 -2.45712 1.15489 0
M  V30 5419 C 508.212 -1.17447 3.40197 0
M  V30 5420 C 507.82 -0.113867 4.47855 0
M  V30 5421 C 509.564 -1.82507 3.83264 0
M  V30 5422 C 507.471 -0.669326 5.876 0
M  V30 5423 H 506.401 -0.239629 0.714908 0
M  V30 5424 H 509.052 0.111097 1.83163 0
M  V30 5425 H 507.434 -1.96909 3.43574 0
M  V30 5426 H 508.608 0.659348 4.56058 0
M  V30 5427 H 506.923 0.438821 4.14081 0
M  V30 5428 H 509.52 -2.25047 4.85034 0
M  V30 5429 H 509.863 -2.67365 3.19095 0
M  V30 5430 H 510.396 -1.09712 3.82372 0
M  V30 5431 H 507.135 0.141449 6.55347 0
M  V30 5432 H 506.655 -1.4107 5.82974 0
M  V30 5433 H 508.334 -1.15463 6.36614 0
M  V30 5434 N 508.466 -1.55915 -0.229846 0
M  V30 5435 C 509.376 -1.94891 -1.30593 0
M  V30 5436 C 510.392 -0.851604 -1.51736 0
M  V30 5437 O 511.568 -1.15447 -1.65027 0
M  V30 5438 C 508.633 -2.25052 -2.63728 0
M  V30 5439 C 507.694 -3.48306 -2.5096 0
M  V30 5440 C 506.927 -3.77019 -3.77747 0
M  V30 5441 O 507.15 -3.07534 -4.80395 0
M  V30 5442 O 506.084 -4.70523 -3.75356 0
M  V30 5443 H 509.91 -2.86581 -1.00525 0
M  V30 5444 H 507.495 -1.43017 -0.432025 0
M  V30 5445 H 509.377 -2.45682 -3.42372 0
M  V30 5446 H 508.052 -1.36538 -2.93495 0
M  V30 5447 H 506.959 -3.32964 -1.70546 0
M  V30 5448 H 508.292 -4.37177 -2.26136 0
M  V30 5449 N 509.944 0.496216 -1.49584 0
M  V30 5450 C 511.36 0.827814 -1.36453 0
M  V30 5451 C 511.56 1.97464 -0.401285 0
M  V30 5452 O 510.616 2.51958 0.165296 0
M  V30 5453 C 511.929 1.16352 -2.77277 0
M  V30 5454 C 513.477 1.27145 -2.86013 0
M  V30 5455 C 513.952 1.64042 -4.27615 0
M  V30 5456 N 515.443 1.71082 -4.30448 0
M  V30 5457 C 516.178 2.01085 -5.36984 0
M  V30 5458 N 515.674 2.2928 -6.5376 0
M  V30 5459 N 517.467 2.02376 -5.24405 0
M  V30 5460 H 509.618 -0.259947 -2.10803 0
M  V30 5461 H 511.881 -0.0537163 -0.946477 0
M  V30 5462 H 511.587 0.394153 -3.49484 0
M  V30 5463 H 511.461 2.10582 -3.12946 0
M  V30 5464 H 513.848 2.03152 -2.1404 0
M  V30 5465 H 513.929 0.309542 -2.5392 0
M  V30 5466 H 513.573 0.88583 -5.00115 0
M  V30 5467 H 513.503 2.6134 -4.57175 0
M  V30 5468 H 515.994 1.51434 -3.46232 0
M  V30 5469 H 516.307 2.51376 -7.30774 0
M  V30 5470 H 514.652 2.26726 -6.56978 0
M  V30 5471 H 517.843 1.79829 -4.32179 0
M  V30 5472 H 518.016 2.25425 -6.07526 0
M  V30 5473 N 511.423 1.38739 0.74761 0
M  V30 5474 C 512.386 1.36241 1.84312 0
M  V30 5475 C 513.386 0.261811 1.58654 0
M  V30 5476 O 514.576 0.519031 1.66288 0
M  V30 5477 C 511.708 1.12253 3.21888 0
M  V30 5478 H 512.901 2.33712 1.87933 0
M  V30 5479 H 510.454 1.2412 0.949946 0
M  V30 5480 H 511.189 0.154133 3.23934 0
M  V30 5481 H 510.974 1.91943 3.41907 0
M  V30 5482 H 512.464 1.13215 4.0196 0
M  V30 5483 N 512.901 -0.976442 1.23707 0
M  V30 5484 C 513.831 -2.08749 1.04624 0
M  V30 5485 C 514.812 -1.70057 -0.0380956 0
M  V30 5486 O 515.997 -1.93782 0.127308 0
M  V30 5487 C 513.127 -3.41335 0.640902 0
M  V30 5488 C 512.081 -3.93947 1.67302 0
M  V30 5489 C 511.407 -5.22774 1.12301 0
M  V30 5490 C 512.707 -4.22769 3.06697 0
M  V30 5491 H 514.401 -2.24972 1.97555 0
M  V30 5492 H 511.947 -1.08108 0.951247 0
M  V30 5493 H 513.9 -4.18489 0.494434 0
M  V30 5494 H 512.624 -3.24988 -0.324099 0
M  V30 5495 H 511.283 -3.18941 1.80755 0
M  V30 5496 H 510.931 -5.0278 0.148877 0
M  V30 5497 H 510.631 -5.58942 1.81267 0
M  V30 5498 H 512.155 -6.02546 0.988479 0
M  V30 5499 H 513.569 -4.90659 2.96524 0
M  V30 5500 H 511.966 -4.70147 3.72937 0
M  V30 5501 H 513.036 -3.29885 3.55392 0
M  V30 5502 N 514.379 -1.04941 -1.1758 0
M  V30 5503 C 515.326 -0.648155 -2.21512 0
M  V30 5504 C 516.296 0.348431 -1.62404 0
M  V30 5505 O 517.481 0.240419 -1.89279 0
M  V30 5506 C 514.621 -0.0264291 -3.4509 0
M  V30 5507 C 513.734 -1.07154 -4.185 0
M  V30 5508 C 512.869 -0.417403 -5.29558 0
M  V30 5509 C 511.908 -1.447 -5.94751 0
M  V30 5510 N 511.045 -0.817203 -6.97328 0
M  V30 5511 H 515.885 -1.53891 -2.55189 0
M  V30 5512 H 513.422 -0.769699 -1.25356 0
M  V30 5513 H 515.38 0.351456 -4.15717 0
M  V30 5514 H 514.01 0.827802 -3.12005 0
M  V30 5515 H 513.062 -1.56728 -3.46613 0
M  V30 5516 H 514.374 -1.8532 -4.63096 0
M  V30 5517 H 513.528 0.0142061 -6.06698 0
M  V30 5518 H 512.267 0.396265 -4.86087 0
M  V30 5519 H 511.272 -1.88865 -5.16343 0
M  V30 5520 H 512.497 -2.26252 -6.40302 0
M  V30 5521 H 510.443 -0.0239995 -6.55996 0
M  V30 5522 H 510.36 -1.53644 -7.40223 0
M  V30 5523 H 511.628 -0.410283 -7.7842 0
M  V30 5524 N 515.857 1.33968 -0.830081 0
M  V30 5525 C 516.789 2.28194 -0.21448 0
M  V30 5526 C 517.802 1.5135 0.599752 0
M  V30 5527 O 518.991 1.73286 0.42826 0
M  V30 5528 C 516.091 3.31221 0.717356 0
M  V30 5529 C 515.264 4.37365 -0.055613 0
M  V30 5530 C 514.323 5.2011 0.798231 0
M  V30 5531 O 513.349 5.68691 0.240616 0
M  V30 5532 N 514.551 5.40523 2.11695 0
M  V30 5533 H 517.316 2.81662 -1.02405 0
M  V30 5534 H 514.877 1.46568 -0.687713 0
M  V30 5535 H 516.869 3.83477 1.29334 0
M  V30 5536 H 515.439 2.78095 1.42765 0
M  V30 5537 H 514.659 3.85727 -0.812936 0
M  V30 5538 H 515.947 5.05397 -0.587444 0
M  V30 5539 H 515.345 5.0274 2.59363 0
M  V30 5540 H 513.902 5.95871 2.64162 0
M  V30 5541 N 517.335 0.585699 1.46312 0
M  V30 5542 C 518.581 0.0725284 2.0267 0
M  V30 5543 C 518.914 -1.28523 1.45586 0
M  V30 5544 O 518.189 -1.84283 0.622101 0
M  V30 5545 C 518.472 0.0099788 3.60099 0
M  V30 5546 C 518.325 1.39685 4.27561 0
M  V30 5547 C 519.644 -0.689117 4.34671 0
M  V30 5548 H 516.763 0.0278307 0.736474 0
M  V30 5549 H 519.405 0.753472 1.74421 0
M  V30 5550 H 517.555 -0.56992 3.84297 0
M  V30 5551 H 519.227 2.02215 4.14617 0
M  V30 5552 H 517.47 1.96374 3.86807 0
M  V30 5553 H 518.141 1.30553 5.36339 0
M  V30 5554 H 520.617 -0.196446 4.15636 0
M  V30 5555 H 519.493 -0.701921 5.44393 0
M  V30 5556 H 519.754 -1.75101 4.05946 0
M  V30 5557 N 518.813 -1.54241 0.323641 0
M  V30 5558 C 519.745 -2.21836 -0.576311 0
M  V30 5559 C 520.758 -1.21837 -1.07979 0
M  V30 5560 O 521.947 -1.48306 -0.99336 0
M  V30 5561 C 519.047 -2.86923 -1.80356 0
M  V30 5562 C 518.22 -4.1306 -1.43875 0
M  V30 5563 C 517.279 -4.6174 -2.52353 0
M  V30 5564 O 516.305 -5.26421 -2.16494 0
M  V30 5565 N 517.507 -4.35974 -3.83284 0
M  V30 5566 H 520.272 -2.997 0.00247987 0
M  V30 5567 H 517.833 -1.61233 0.146848 0
M  V30 5568 H 519.825 -3.16414 -2.52318 0
M  V30 5569 H 518.395 -2.12765 -2.29019 0
M  V30 5570 H 517.615 -3.90334 -0.550752 0
M  V30 5571 H 518.903 -4.95148 -1.17071 0
M  V30 5572 H 518.301 -3.84203 -4.15216 0
M  V30 5573 H 516.858 -4.70119 -4.51477 0
M  V30 5574 N 520.291 -0.0518155 -1.57515 0
M  V30 5575 C 521.537 0.622745 -1.93002 0
M  V30 5576 C 521.87 1.70456 -0.930499 0
M  V30 5577 O 521.145 1.94452 0.0434086 0
M  V30 5578 C 521.428 1.21824 -3.38867 0
M  V30 5579 C 521.281 0.144434 -4.49568 0
M  V30 5580 C 522.6 2.12968 -3.8514 0
M  V30 5581 H 519.719 0.22491 -0.701844 0
M  V30 5582 H 522.361 -0.113711 -1.89659 0
M  V30 5583 H 520.511 1.8459 -3.41846 0
M  V30 5584 H 522.183 -0.48753 -4.58717 0
M  V30 5585 H 520.426 -0.527424 -4.30582 0
M  V30 5586 H 521.097 0.601127 -5.48717 0
M  V30 5587 H 523.573 1.60163 -3.8404 0
M  V30 5588 H 522.449 2.51578 -4.87852 0
M  V30 5589 H 522.71 3.03004 -3.21934 0
M  V30 5590 N 521.769 1.56035 0.221574 0
M  V30 5591 C 522.679 1.95581 1.29558 0
M  V30 5592 C 523.695 0.859639 1.51282 0
M  V30 5593 O 524.871 1.16321 1.64413 0
M  V30 5594 C 521.936 2.26447 2.62531 0
M  V30 5595 C 520.997 3.49632 2.4911 0
M  V30 5596 C 520.23 3.79017 3.75742 0
M  V30 5597 O 520.453 3.10077 4.78757 0
M  V30 5598 O 519.387 4.72507 3.72855 0
M  V30 5599 H 523.213 2.8711 0.990035 0
M  V30 5600 H 520.798 1.43244 0.424434 0
M  V30 5601 H 522.68 2.47494 3.41064 0
M  V30 5602 H 521.355 1.38092 2.92766 0
M  V30 5603 H 520.262 3.33864 1.68777 0
M  V30 5604 H 521.595 4.3837 2.23814 0
M  V30 5605 N 523.247 -0.488276 1.49845 0
M  V30 5606 C 524.495 -1.23911 1.59657 0
M  V30 5607 C 524.816 -1.92816 0.291005 0
M  V30 5608 O 524.086 -1.83328 -0.690485 0
M  V30 5609 H 522.666 -0.460357 0.588286 0
M  V30 5610 H 525.328 -0.564794 1.86537 0
M  V30 5611 H 524.424 -1.99625 2.39909 0
M  V30 5612 N 524.725 -1.39134 -0.740242 0
M  V30 5613 C 525.655 -1.40165 -1.86751 0
M  V30 5614 C 526.636 -0.265708 -1.68012 0
M  V30 5615 O 527.821 -0.47076 -1.88408 0
M  V30 5616 C 524.951 -1.2392 -3.2444 0
M  V30 5617 C 523.905 -2.34858 -3.57807 0
M  V30 5618 C 523.231 -2.03707 -4.94376 0
M  V30 5619 C 524.531 -3.77159 -3.61315 0
M  V30 5620 H 526.225 -2.345 -1.86145 0
M  V30 5621 H 523.771 -1.12875 -0.89416 0
M  V30 5622 H 525.724 -1.23263 -4.02969 0
M  V30 5623 H 524.448 -0.26051 -3.25559 0
M  V30 5624 H 523.107 -2.34723 -2.81604 0
M  V30 5625 H 522.755 -1.04289 -4.9207 0
M  V30 5626 H 522.455 -2.78016 -5.17669 0
M  V30 5627 H 523.979 -2.04691 -5.75268 0
M  V30 5628 H 525.393 -3.79252 -4.29931 0
M  V30 5629 H 523.79 -4.50784 -3.96124 0
M  V30 5630 H 524.86 -4.08513 -2.61238 0
M  V30 5631 N 526.204 0.969867 -1.24223 0
M  V30 5632 C 527.429 1.75289 -1.10853 0
M  V30 5633 C 527.854 1.85091 0.335079 0
M  V30 5634 O 527.212 1.32024 1.24255 0
M  V30 5635 C 527.26 3.15255 -1.75062 0
M  V30 5636 O 526.364 3.99589 -1.01992 0
M  V30 5637 H 525.705 0.538904 -0.387915 0
M  V30 5638 H 528.235 1.21675 -1.64488 0
M  V30 5639 H 528.245 3.65787 -1.80731 0
M  V30 5640 H 526.92 3.07436 -2.801 0
M  V30 5641 H 525.497 3.58077 -1.04094 0
M  V30 5642 N 527.682 1.05563 1.17022 0
M  V30 5643 C 528.93 0.76642 1.87004 0
M  V30 5644 C 529.251 -0.708854 1.8166 0
M  V30 5645 O 528.521 -1.51242 1.2451 0
M  V30 5646 H 527.101 0.280516 0.692329 0
M  V30 5647 H 529.763 1.33557 1.41945 0
M  V30 5648 H 528.859 1.08472 2.92644 0
M  V30 5649 N 529.16 -1.33526 0.837174 0
M  V30 5650 C 530.108 -2.31168 0.257698 0
M  V30 5651 C 531.102 -1.5806 -0.609388 0
M  V30 5652 O 532.308 -1.72941 -0.499139 0
M  V30 5653 H 528.683 -0.74922 0.0646058 0
M  V30 5654 H 530.654 -2.77552 1.09578 0
M  V30 5655 C 529.403 -3.4326 -0.553887 0
M  V30 5656 H 528.726 -3.99665 0.104008 0
M  V30 5657 H 530.166 -4.13782 -0.925219 0
M  V30 5658 C 528.625 -2.88965 -1.73207 0
M  V30 5659 O 529.155 -2.85013 -2.83073 0
M  V30 5660 N 527.361 -2.45596 -1.55342 0
M  V30 5661 H 526.908 -2.49009 -0.659705 0
M  V30 5662 H 526.866 -2.0962 -2.34322 0
M  V30 5663 N 530.638 -0.59345 -1.46 0
M  V30 5664 C 531.887 -0.0808084 -2.01538 0
M  V30 5665 C 532.2 1.29112 -1.46934 0
M  V30 5666 O 533.406 1.8957 -1.94359 0
M  V30 5667 C 531.862 -0.0938311 -3.59778 0
M  V30 5668 C 531.47 -1.46474 -4.23379 0
M  V30 5669 C 533.214 0.364306 -4.22934 0
M  V30 5670 C 531.121 -1.4349 -5.73729 0
M  V30 5671 H 530.051 -0.0264407 -0.753536 0
M  V30 5672 H 532.702 -0.746689 -1.67621 0
M  V30 5673 H 531.084 0.638427 -3.9082 0
M  V30 5674 H 532.258 -2.21758 -4.03931 0
M  V30 5675 H 530.573 -1.86379 -3.7236 0
M  V30 5676 H 533.17 0.405584 -5.3316 0
M  V30 5677 H 533.513 1.38409 -3.92618 0
M  V30 5678 H 534.046 -0.31423 -3.96557 0
M  V30 5679 H 530.785 -2.43184 -6.08722 0
M  V30 5680 H 530.305 -0.724431 -5.95409 0
M  V30 5681 H 531.984 -1.15243 -6.36654 0
M  V30 5682 N 532.116 1.54067 -0.331816 0
M  V30 5683 C 533.063 2.24623 0.530372 0
M  V30 5684 C 534.033 1.24009 1.10503 0
M  V30 5685 O 535.218 1.52712 1.14384 0
M  V30 5686 C 532.358 3.01374 1.68129 0
M  V30 5687 C 531.471 4.16821 1.13507 0
M  V30 5688 C 530.606 4.81085 2.25234 0
M  V30 5689 C 529.645 5.88621 1.67903 0
M  V30 5690 N 528.782 6.46713 2.73326 0
M  V30 5691 H 533.622 2.97898 -0.0778607 0
M  V30 5692 H 531.159 1.47014 -0.0501965 0
M  V30 5693 H 533.117 3.44125 2.35868 0
M  V30 5694 H 531.747 2.30419 2.26069 0
M  V30 5695 H 530.799 3.78796 0.348979 0
M  V30 5696 H 532.111 4.94203 0.675633 0
M  V30 5697 H 531.265 5.26846 3.00862 0
M  V30 5698 H 530.004 4.03102 2.74518 0
M  V30 5699 H 529.009 5.42254 0.907773 0
M  V30 5700 H 530.234 6.68506 1.19487 0
M  V30 5701 H 528.18 5.71599 3.21886 0
M  V30 5702 H 528.097 7.19532 2.3197 0
M  V30 5703 H 529.365 6.97129 3.48758 0
M  V30 5704 N 533.594 0.0601682 1.57485 0
M  V30 5705 C 534.841 -0.611594 1.93043 0
M  V30 5706 C 535.169 -1.70317 0.939274 0
M  V30 5707 O 534.424 -1.95644 -0.046996 0
M  V30 5708 C 534.723 -1.23831 3.35262 0
M  V30 5709 C 534.389 -0.274037 4.50066 0
M  V30 5710 C 533.051 -0.00872394 4.81199 0
M  V30 5711 C 535.403 0.386308 5.19766 0
M  V30 5712 C 532.731 0.924218 5.79375 0
M  V30 5713 C 535.083 1.3075 6.1894 0
M  V30 5714 C 533.747 1.58139 6.48497 0
M  V30 5715 H 533.017 -0.223798 0.706396 0
M  V30 5716 H 535.664 0.128566 1.91068 0
M  V30 5717 H 533.969 -2.05394 3.33647 0
M  V30 5718 H 535.666 -1.76517 3.60059 0
M  V30 5719 H 532.256 -0.491008 4.25778 0
M  V30 5720 H 536.44 0.194436 4.95919 0
M  V30 5721 H 531.696 1.1438 6.00606 0
M  V30 5722 H 535.87 1.82519 6.72056 0
M  V30 5723 H 533.497 2.30593 7.24383 0
M  V30 5724 N 535.072 -1.5615 -0.213296 0
M  V30 5725 C 536.349 -1.70349 -0.961281 0
M  V30 5726 C 536.729 -0.609791 -2.02101 0
M  V30 5727 O 536.077 0.381987 -2.25285 0
M  V30 5728 C 536.287 -3.11982 -1.56424 0
M  V30 5729 C 537.635 -3.71649 -2.05334 0
M  V30 5730 O 538.659 -3.14995 -1.66302 0
M  V30 5731 O 537.518 -4.71038 -2.77102 0
M  V30 5732 H 534.612 -0.694121 -0.449582 0
M  V30 5733 H 537.158 -1.68464 -0.204426 0
M  V30 5734 H 535.93 -3.83046 -0.799457 0
M  V30 5735 H 535.553 -3.18019 -2.38641 0
M  V30 5736 N 536.55 0.480323 -1.50102 0
M  V30 5737 C 537.482 1.59669 -1.64433 0
M  V30 5738 C 538.495 1.54063 -0.52615 0
M  V30 5739 O 539.684 1.59619 -0.798992 0
M  V30 5740 C 536.784 2.98527 -1.6042 0
M  V30 5741 C 535.957 3.291 -2.88117 0
M  V30 5742 C 535.016 4.47468 -2.76873 0
M  V30 5743 O 534.042 4.4823 -3.50825 0
M  V30 5744 N 535.244 5.48593 -1.89806 0
M  V30 5745 H 538.009 1.47795 -2.60723 0
M  V30 5746 H 535.57 0.66858 -1.4745 0
M  V30 5747 H 537.562 3.75666 -1.50523 0
M  V30 5748 H 536.132 3.04218 -0.719036 0
M  V30 5749 H 535.352 2.40662 -3.12211 0
M  V30 5750 H 536.64 3.46334 -3.72734 0
M  V30 5751 H 536.038 5.50791 -1.2902 0
M  V30 5752 H 534.595 6.24752 -1.85819 0
M  V30 5753 N 538.028 1.39524 0.732853 0
M  V30 5754 C 538.976 1.38563 1.86824 0
M  V30 5755 C 539.97 0.268467 1.67259 0
M  V30 5756 O 541.176 0.438613 1.74574 0
M  V30 5757 H 537.551 0.432737 0.615014 0
M  V30 5758 H 539.522 2.34328 1.84751 0
M  V30 5759 C 538.271 1.2481 3.24527 0
M  V30 5760 H 537.594 2.10044 3.40179 0
M  V30 5761 H 539.034 1.28194 4.04156 0
M  V30 5762 C 537.493 -0.0432825 3.36872 0
M  V30 5763 O 538.023 -1.01268 3.88726 0
M  V30 5764 N 536.229 -0.107055 2.90403 0
M  V30 5765 H 535.776 0.682512 2.48394 0
M  V30 5766 H 535.734 -0.970618 2.99042 0
M  V30 5767 N 539.506 -0.963266 1.24736 0
M  V30 5768 C 540.754 -1.70343 1.08755 0
M  V30 5769 C 541.075 -1.91387 -0.373619 0
M  V30 5770 O 540.345 -1.4948 -1.2662 0
M  V30 5771 H 538.925 -0.631224 0.399456 0
M  V30 5772 H 541.587 -1.15859 1.56725 0
M  V30 5773 H 540.683 -2.68616 1.58909 0
M  V30 5774 N 540.985 -1.06182 -1.16461 0
M  V30 5775 C 541.932 -0.671613 -2.20812 0
M  V30 5776 C 542.902 0.331186 -1.62765 0
M  V30 5777 O 544.087 0.22033 -1.89524 0
M  V30 5778 C 541.227 -0.063029 -3.45042 0
M  V30 5779 C 540.34 -1.11587 -4.1734 0
M  V30 5780 C 539.475 -0.473546 -5.29085 0
M  V30 5781 C 538.514 -1.51 -5.93182 0
M  V30 5782 N 537.651 -0.891118 -6.96422 0
M  V30 5783 H 542.491 -1.56589 -2.53542 0
M  V30 5784 H 540.028 -0.782951 -1.24532 0
M  V30 5785 H 541.986 0.307344 -4.16066 0
M  V30 5786 H 540.616 0.794663 -3.12866 0
M  V30 5787 H 539.668 -1.60396 -3.44931 0
M  V30 5788 H 540.98 -1.90221 -4.61104 0
M  V30 5789 H 540.134 -0.0501432 -6.06679 0
M  V30 5790 H 538.873 0.344687 -4.8648 0
M  V30 5791 H 537.878 -1.94331 -5.14311 0
M  V30 5792 H 539.103 -2.33031 -6.37866 0
M  V30 5793 H 537.049 -0.0935753 -6.55933 0
M  V30 5794 H 536.966 -1.61486 -7.38551 0
M  V30 5795 H 538.234 -0.492822 -7.77941 0
M  V30 5796 N 542.463 1.3308 -0.844243 0
M  V30 5797 C 543.879 1.50447 -0.532729 0
M  V30 5798 C 544.079 1.78292 0.938837 0
M  V30 5799 O 543.135 1.84635 1.72239 0
M  V30 5800 C 544.448 2.65555 -1.41072 0
M  V30 5801 C 545.996 2.7944 -1.41005 0
M  V30 5802 C 546.471 3.97616 -2.27301 0
M  V30 5803 N 547.962 4.0486 -2.2504 0
M  V30 5804 C 548.697 4.95508 -2.88547 0
M  V30 5805 N 548.193 5.91236 -3.61126 0
M  V30 5806 N 549.986 4.88548 -2.77989 0
M  V30 5807 H 542.137 1.13269 -1.79677 0
M  V30 5808 H 544.4 0.55734 -0.766861 0
M  V30 5809 H 544.106 2.51675 -2.45668 0
M  V30 5810 H 543.98 3.61089 -1.09061 0
M  V30 5811 H 546.367 2.92749 -0.371784 0
M  V30 5812 H 546.448 1.8465 -1.77026 0
M  V30 5813 H 546.092 3.85066 -3.3119 0
M  V30 5814 H 546.022 4.91661 -1.88619 0
M  V30 5815 H 548.513 3.36353 -1.72264 0
M  V30 5816 H 548.826 6.57079 -4.06776 0
M  V30 5817 H 547.171 5.91295 -3.65234 0
M  V30 5818 H 550.362 4.12729 -2.20846 0
M  V30 5819 H 550.535 5.58994 -3.27765 0
M  V30 5820 N 543.941 0.601185 1.45683 0
M  V30 5821 C 545.19 0.0914953 2.01492 0
M  V30 5822 C 545.503 -1.28331 1.47616 0
M  V30 5823 O 546.709 -1.88537 1.95362 0
M  V30 5824 C 545.165 0.11291 3.59723 0
M  V30 5825 C 544.773 1.48717 4.22596 0
M  V30 5826 C 546.517 -0.341871 4.23121 0
M  V30 5827 C 544.424 1.46531 5.7296 0
M  V30 5828 H 543.354 0.0304365 0.753385 0
M  V30 5829 H 546.005 0.755568 1.67223 0
M  V30 5830 H 544.387 -0.617692 3.91153 0
M  V30 5831 H 545.561 2.23897 4.02749 0
M  V30 5832 H 543.876 1.88351 3.71366 0
M  V30 5833 H 546.473 -0.377304 5.33367 0
M  V30 5834 H 546.816 -1.36325 3.93346 0
M  V30 5835 H 547.349 0.335256 3.96385 0
M  V30 5836 H 544.088 2.46408 6.07423 0
M  V30 5837 H 543.608 0.755997 5.95017 0
M  V30 5838 H 545.287 1.18618 6.36034 0
M  V30 5839 N 545.419 -1.53889 0.339982 0
M  V30 5840 C 546.367 -2.26391 -0.533822 0
M  V30 5841 C 547.361 -1.28404 -1.10493 0
M  V30 5842 O 548.567 -1.46124 -1.05108 0
M  V30 5843 H 544.942 -0.727385 -0.190828 0
M  V30 5844 H 546.913 -2.98233 0.0997484 0
M  V30 5845 C 545.662 -3.04707 -1.67479 0
M  V30 5846 H 544.985 -3.79934 -1.2446 0
M  V30 5847 H 546.425 -3.58657 -2.26144 0
M  V30 5848 C 544.884 -2.13989 -2.60212 0
M  V30 5849 O 545.414 -1.73361 -3.62366 0
M  V30 5850 N 543.62 -1.79141 -2.28816 0
M  V30 5851 H 543.167 -2.12378 -1.45785 0
M  V30 5852 H 543.125 -1.18725 -2.91121 0
M  V30 5853 N 546.897 -0.0685191 -1.57451 0
M  V30 5854 C 548.127 0.609577 -1.97402 0
M  V30 5855 C 548.535 1.63882 -0.945489 0
M  V30 5856 O 547.878 1.8354 0.0766052 0
M  V30 5857 C 547.94 1.3385 -3.33653 0
M  V30 5858 C 547.604 0.463103 -4.54648 0
M  V30 5859 C 548.601 -0.277964 -5.19156 0
M  V30 5860 C 546.286 0.388941 -5.00792 0
M  V30 5861 C 548.28 -1.08145 -6.28159 0
M  V30 5862 C 545.967 -0.418217 -6.09667 0
M  V30 5863 C 546.965 -1.15208 -6.73213 0
M  V30 5864 O 546.653 -1.94594 -7.79993 0
M  V30 5865 H 546.385 0.170197 -0.654224 0
M  V30 5866 H 548.939 -0.13647 -2.04946 0
M  V30 5867 H 547.169 2.13055 -3.22714 0
M  V30 5868 H 548.858 1.90851 -3.58233 0
M  V30 5869 H 549.624 -0.230241 -4.84453 0
M  V30 5870 H 545.503 0.949769 -4.5111 0
M  V30 5871 H 549.047 -1.65476 -6.7769 0
M  V30 5872 H 544.944 -0.467515 -6.43805 0
M  V30 5873 H 545.712 -1.8699 -7.96854 0
M  V30 5874 N 548.375 1.56261 0.205012 0
M  V30 5875 C 549.603 1.84141 0.943386 0
M  V30 5876 C 550.018 0.649772 1.77266 0
M  V30 5877 O 549.375 -0.381612 1.78466 0
M  V30 5878 C 549.426 3.10719 1.84759 0
M  V30 5879 O 549.147 4.25286 1.05181 0
M  V30 5880 C 550.648 3.51706 2.69848 0
M  V30 5881 H 547.868 0.611734 0.275721 0
M  V30 5882 H 550.412 2.03364 0.215253 0
M  V30 5883 H 548.567 2.93422 2.52947 0
M  V30 5884 H 548.981 4.97301 1.66709 0
M  V30 5885 H 550.455 4.43266 3.28967 0
M  V30 5886 H 550.932 2.7423 3.43067 0
M  V30 5887 H 551.538 3.71499 2.07047 0
M  V30 5888 N 549.853 -0.472356 1.50355 0
M  V30 5889 C 551.102 -1.2213 1.60522 0
M  V30 5890 C 551.415 -1.9312 0.310466 0
M  V30 5891 O 552.621 -2.69936 0.291029 0
M  V30 5892 C 551.077 -2.21909 2.83345 0
M  V30 5893 C 550.685 -1.56727 4.19691 0
M  V30 5894 C 552.429 -2.97453 3.02856 0
M  V30 5895 C 550.336 -2.54785 5.33703 0
M  V30 5896 H 549.266 -0.459543 0.597776 0
M  V30 5897 H 551.917 -0.491922 1.76783 0
M  V30 5898 H 550.299 -2.98133 2.60639 0
M  V30 5899 H 551.473 -0.863007 4.52646 0
M  V30 5900 H 549.788 -0.934685 4.05774 0
M  V30 5901 H 552.385 -3.70838 3.85205 0
M  V30 5902 H 552.728 -3.56764 2.14534 0
M  V30 5903 H 553.261 -2.28342 3.25737 0
M  V30 5904 H 550 -2.00214 6.24175 0
M  V30 5905 H 549.52 -3.23367 5.05167 0
M  V30 5906 H 551.199 -3.16639 5.64224 0
M  V30 5907 N 551.331 -1.39911 -0.725443 0
M  V30 5908 C 552.279 -1.39552 -1.86086 0
M  V30 5909 C 553.273 -0.277334 -1.67114 0
M  V30 5910 O 554.479 -0.447865 -1.74339 0
M  V30 5911 H 550.854 -0.435993 -0.612711 0
M  V30 5912 H 552.825 -2.35305 -1.83505 0
M  V30 5913 C 551.574 -1.26529 -3.2386 0
M  V30 5914 H 550.897 -2.11845 -3.3906 0
M  V30 5915 H 552.337 -1.30336 -4.03471 0
M  V30 5916 C 550.796 0.0254168 -3.3689 0
M  V30 5917 O 551.326 0.992048 -3.89257 0
M  V30 5918 N 549.532 0.0916528 -2.90455 0
M  V30 5919 H 549.079 -0.695675 -2.48028 0
M  V30 5920 H 549.037 0.954745 -2.99553 0
M  V30 5921 N 552.809 0.956637 -1.25245 0
M  V30 5922 C 554.058 1.69537 -1.0927 0
M  V30 5923 C 554.371 1.92136 0.366503 0
M  V30 5924 O 555.577 2.63687 0.64665 0
M  V30 5925 C 554.033 3.05211 -1.9072 0
M  V30 5926 C 553.641 2.90416 -3.41119 0
M  V30 5927 C 555.385 3.82882 -1.83308 0
M  V30 5928 C 553.292 4.21468 -4.14872 0
M  V30 5929 H 552.222 0.635804 -0.405302 0
M  V30 5930 H 554.873 1.06513 -1.49423 0
M  V30 5931 H 553.255 3.69128 -1.43389 0
M  V30 5932 H 554.429 2.35444 -3.9611 0
M  V30 5933 H 552.744 2.26203 -3.49602 0
M  V30 5934 H 555.341 4.79944 -2.35706 0
M  V30 5935 H 555.684 4.0853 -0.800572 0
M  V30 5936 H 556.217 3.25711 -2.28379 0
M  V30 5937 H 552.956 4.01009 -5.18529 0
M  V30 5938 H 552.476 4.76213 -3.64665 0
M  V30 5939 H 554.155 4.90022 -4.22478 0
M  V30 5940 N 554.287 1.06798 1.15896 0
M  V30 5941 C 555.22 0.627503 2.19403 0
M  V30 5942 C 556.198 -0.352352 1.58736 0
M  V30 5943 O 557.382 -0.260111 1.86697 0
M  V30 5944 C 554.509 -0.079356 3.38607 0
M  V30 5945 C 553.555 0.858057 4.17779 0
M  V30 5946 S 554.388 2.35605 4.80885 0
M  V30 5947 C 555.544 1.66083 6.03463 0
M  V30 5948 H 555.777 1.50441 2.56427 0
M  V30 5949 H 553.31 0.881427 1.26768 0
M  V30 5950 H 555.268 -0.48095 4.07673 0
M  V30 5951 H 553.929 -0.932524 2.99938 0
M  V30 5952 H 553.122 0.310108 5.03045 0
M  V30 5953 H 552.724 1.19977 3.54234 0
M  V30 5954 H 555.016 0.969337 6.7053 0
M  V30 5955 H 555.959 2.49159 6.62816 0
M  V30 5956 H 556.367 1.14122 5.52844 0
M  V30 5957 N 555.766 -1.3263 0.851289 0
M  V30 5958 C 556.676 -2.32722 0.296268 0
M  V30 5959 C 557.692 -1.63901 -0.584162 0
M  V30 5960 O 558.868 -1.95465 -0.485334 0
M  V30 5961 C 555.933 -3.42942 -0.509103 0
M  V30 5962 C 554.994 -4.2746 0.397069 0
M  V30 5963 C 554.227 -5.32416 -0.36996 0
M  V30 5964 O 554.45 -5.47491 -1.6003 0
M  V30 5965 O 553.384 -6.01327 0.262493 0
M  V30 5966 H 557.21 -2.82078 1.12543 0
M  V30 5967 H 554.795 -1.36194 0.614135 0
M  V30 5968 H 556.677 -4.1017 -0.96634 0
M  V30 5969 H 555.352 -2.95781 -1.31512 0
M  V30 5970 H 554.259 -3.63053 0.902411 0
M  V30 5971 H 555.592 -4.78136 1.16818 0
M  V30 5972 N 557.244 -0.608902 -1.45362 0
M  V30 5973 C 558.174 0.0964526 -2.33301 0
M  V30 5974 C 559.155 0.857444 -1.46908 0
M  V30 5975 O 560.34 0.827735 -1.75676 0
M  V30 5976 C 557.47 1.09354 -3.29635 0
M  V30 5977 C 556.424 0.445676 -4.25673 0
M  V30 5978 C 555.75 1.5511 -5.11708 0
M  V30 5979 C 557.05 -0.633972 -5.18438 0
M  V30 5980 H 558.744 -0.637829 -2.92527 0
M  V30 5981 H 556.29 -0.308178 -1.40664 0
M  V30 5982 H 558.243 1.59556 -3.90025 0
M  V30 5983 H 556.967 1.85843 -2.6857 0
M  V30 5984 H 555.626 -0.0354897 -3.66583 0
M  V30 5985 H 555.274 2.30631 -4.4701 0
M  V30 5986 H 554.974 1.12311 -5.76767 0
M  V30 5987 H 556.498 2.05537 -5.74967 0
M  V30 5988 H 557.912 -0.215974 -5.72893 0
M  V30 5989 H 556.309 -0.983789 -5.91981 0
M  V30 5990 H 557.379 -1.51005 -4.60788 0
M  V30 5991 N 558.722 1.53707 -0.348139 0
M  V30 5992 C 559.669 2.25173 0.506518 0
M  V30 5993 C 560.639 1.25174 1.09182 0
M  V30 5994 O 561.824 1.53917 1.12757 0
M  V30 5995 C 558.964 3.03141 1.64923 0
M  V30 5996 C 558.077 4.18002 1.0908 0
M  V30 5997 C 557.212 4.83447 2.20119 0
M  V30 5998 C 556.251 5.90369 1.61651 0
M  V30 5999 N 555.388 6.49575 2.66451 0
M  V30 6000 H 560.228 2.97799 -0.109452 0
M  V30 6001 H 557.765 1.46953 -0.0657866 0
M  V30 6002 H 559.723 3.46607 2.32205 0
M  V30 6003 H 558.353 2.32803 2.23612 0
M  V30 6004 H 557.405 3.79145 0.308783 0
M  V30 6005 H 558.717 4.94892 0.623178 0
M  V30 6006 H 557.871 5.30008 2.95257 0
M  V30 6007 H 556.61 4.05991 2.70227 0
M  V30 6008 H 555.615 5.43186 0.850209 0
M  V30 6009 H 556.84 6.69735 1.1239 0
M  V30 6010 H 554.786 5.74981 3.15805 0
M  V30 6011 H 554.703 7.21952 2.24325 0
M  V30 6012 H 555.971 7.00789 3.41344 0
M  V30 6013 N 560.2 0.0768682 1.57412 0
M  V30 6014 C 561.428 -0.59997 1.9801 0
M  V30 6015 C 561.843 -1.62842 0.955408 0
M  V30 6016 O 561.2 -1.8241 -0.057314 0
M  V30 6017 C 561.251 -1.26401 3.38681 0
M  V30 6018 O 560.972 -0.276723 4.37225 0
M  V30 6019 C 562.473 -2.0282 3.94182 0
M  V30 6020 H 559.693 -0.162239 0.651091 0
M  V30 6021 H 562.237 0.150771 2.03943 0
M  V30 6022 H 560.392 -1.96581 3.33819 0
M  V30 6023 H 560.806 -0.753744 5.19056 0
M  V30 6024 H 562.28 -2.44667 4.94815 0
M  V30 6025 H 562.757 -2.88678 3.31001 0
M  V30 6026 H 563.363 -1.37496 4.02461 0
M  V30 6027 N 561.678 -1.56367 -0.196722 0
M  V30 6028 C 562.626 -1.95304 -1.2633 0
M  V30 6029 C 563.62 -0.838252 -1.47206 0
M  V30 6030 O 564.826 -1.02325 -1.48087 0
M  V30 6031 H 561.201 -0.621013 -0.424083 0
M  V30 6032 H 563.172 -2.84254 -0.907879 0
M  V30 6033 C 561.921 -2.3074 -2.60104 0
M  V30 6034 H 561.244 -3.16047 -2.44856 0
M  V30 6035 H 562.684 -2.61849 -3.33484 0
M  V30 6036 C 561.143 -1.14143 -3.16975 0
M  V30 6037 O 561.673 -0.415602 -3.99544 0
M  V30 6038 N 559.879 -0.91867 -2.75697 0
M  V30 6039 H 559.426 -1.51065 -2.08656 0
M  V30 6040 H 559.384 -0.140321 -3.14087 0
M  V30 6041 N 563.156 0.464375 -1.50603 0
M  V30 6042 C 564.404 1.21356 -1.61608 0
M  V30 6043 C 564.725 1.92329 -0.321643 0
M  V30 6044 O 563.995 1.84403 0.661232 0
M  V30 6045 H 562.575 0.45094 -0.595535 0
M  V30 6046 H 565.237 0.535046 -1.87412 0
M  V30 6047 H 564.333 1.95783 -2.43054 0
M  V30 6048 N 564.634 1.40294 0.718013 0
M  V30 6049 C 566.045 1.34289 1.29705 0
M  V30 6050 C 566.396 0.0152228 1.96194 0
M  V30 6051 O 565.521 -0.88682 1.97394 0
M  V30 6052 C 566.116 2.43219 2.3586 0
M  V30 6053 C 564.675 2.40682 2.89394 0
M  V30 6054 C 563.822 2.24223 1.63154 0
M  V30 6055 H 566.773 1.50135 0.514312 0
M  V30 6056 H 566.794 2.10986 3.16647 0
M  V30 6057 H 566.306 3.39836 1.87439 0
M  V30 6058 H 564.407 1.47756 3.42051 0
M  V30 6059 H 564.52 3.36177 3.41353 0
M  V30 6060 H 562.884 1.71696 1.88129 0
M  V30 6061 H 563.667 3.22834 1.16761 0
M  V30 6062 N 566.112 -0.949982 1.2575 0
M  V30 6063 C 567.528 -1.22191 1.02672 0
M  V30 6064 C 567.728 -1.99898 -0.253588 0
M  V30 6065 O 566.784 -2.33329 -0.965076 0
M  V30 6066 C 568.097 -1.99175 2.25277 0
M  V30 6067 C 569.645 -2.12201 2.30087 0
M  V30 6068 C 570.12 -2.92586 3.5236 0
M  V30 6069 N 571.611 -3.00163 3.52784 0
M  V30 6070 C 572.346 -3.62766 4.44059 0
M  V30 6071 N 571.842 -4.26943 5.45611 0
M  V30 6072 N 573.635 -3.59953 4.3173 0
M  V30 6073 H 565.786 -0.430258 2.07996 0
M  V30 6074 H 568.049 -0.252844 0.91366 0
M  V30 6075 H 567.755 -1.49479 3.18354 0
M  V30 6076 H 567.629 -2.99868 2.28821 0
M  V30 6077 H 570.016 -2.61093 1.3753 0
M  V30 6078 H 570.097 -1.10799 2.30559 0
M  V30 6079 H 569.741 -2.44383 4.45241 0
M  V30 6080 H 569.671 -3.94224 3.49134 0
M  V30 6081 H 572.162 -2.54529 2.79327 0
M  V30 6082 H 572.475 -4.72583 6.11461 0
M  V30 6083 H 570.82 -4.25557 5.49478 0
M  V30 6084 H 574.011 -3.09003 3.51617 0
M  V30 6085 H 574.184 -4.08455 5.03059 0
M  V30 6086 N 567.59 -1.07411 -1.15328 0
M  V30 6087 C 568.537 -0.694995 -2.20087 0
M  V30 6088 C 569.507 0.313904 -1.63107 0
M  V30 6089 O 570.692 0.200216 -1.89747 0
M  V30 6090 C 567.832 -0.0996218 -3.44956 0
M  V30 6091 C 566.945 -1.16007 -4.16133 0
M  V30 6092 C 566.08 -0.529636 -5.28553 0
M  V30 6093 C 565.119 -1.57283 -5.91548 0
M  V30 6094 N 564.256 -0.964932 -6.95438 0
M  V30 6095 H 569.096 -1.5927 -2.51867 0
M  V30 6096 H 566.633 -0.796115 -1.23695 0
M  V30 6097 H 568.591 0.263197 -4.16369 0
M  V30 6098 H 567.221 0.761435 -3.13691 0
M  V30 6099 H 566.273 -1.64045 -3.4321 0
M  V30 6100 H 567.585 -1.95101 -4.59061 0
M  V30 6101 H 566.739 -0.114487 -6.06592 0
M  V30 6102 H 565.478 0.29307 -4.86819 0
M  V30 6103 H 564.483 -1.99775 -5.12221 0
M  V30 6104 H 565.708 -2.39783 -6.35359 0
M  V30 6105 H 563.654 -0.16314 -6.55797 0
M  V30 6106 H 563.571 -1.69311 -7.36797 0
M  V30 6107 H 564.839 -0.575305 -7.77374 0
M  V30 6108 N 569.068 1.32177 -0.85831 0
M  V30 6109 C 570.317 1.96392 -0.459689 0
M  V30 6110 C 570.63 1.68659 0.990632 0
M  V30 6111 O 571.836 2.26641 1.49485 0
M  V30 6112 C 570.292 3.51542 -0.7711 0
M  V30 6113 C 569.9 3.8813 -2.2374 0
M  V30 6114 C 571.644 4.2221 -0.44038 0
M  V30 6115 C 569.551 5.36341 -2.49183 0
M  V30 6116 H 568.481 0.735007 -0.168169 0
M  V30 6117 H 571.132 1.50518 -1.0496 0
M  V30 6118 H 569.514 3.95846 -0.11058 0
M  V30 6119 H 570.688 3.54824 -2.94001 0
M  V30 6120 H 569.003 3.30497 -2.533 0
M  V30 6121 H 571.6 5.31234 -0.607855 0
M  V30 6122 H 571.943 4.11683 0.618291 0
M  V30 6123 H 572.476 3.83502 -1.05695 0
M  V30 6124 H 569.215 5.51892 -3.53689 0
M  V30 6125 H 568.735 5.7104 -1.83504 0
M  V30 6126 H 570.414 6.03466 -2.33318 0
M  V30 6127 N 570.547 0.616602 1.45037 0
M  V30 6128 C 571.795 0.115103 2.01772 0
M  V30 6129 C 572.116 -1.2622 1.48639 0
M  V30 6130 O 571.386 -1.83563 0.684199 0
M  V30 6131 H 569.966 0.0395607 0.745952 0
M  V30 6132 H 572.628 0.800032 1.77723 0
M  V30 6133 H 571.724 0.0717274 3.12018 0
M  V30 6134 N 572.025 -1.5352 0.356285 0
M  V30 6135 C 573.255 -2.05236 -0.236983 0
M  V30 6136 C 573.663 -1.23016 -1.43749 0
M  V30 6137 O 573.006 -0.2615 -1.81829 0
M  V30 6138 C 573.068 -3.52549 -0.7035 0
M  V30 6139 C 572.732 -4.55425 0.379059 0
M  V30 6140 C 573.729 -5.0524 1.22592 0
M  V30 6141 C 571.414 -4.99425 0.536638 0
M  V30 6142 C 573.408 -5.97647 2.21578 0
M  V30 6143 C 571.095 -5.9164 1.52988 0
M  V30 6144 C 572.093 -6.4064 2.3679 0
M  V30 6145 O 571.781 -7.31039 3.34421 0
M  V30 6146 H 571.513 -0.674346 -0.047254 0
M  V30 6147 H 574.067 -1.98962 0.510238 0
M  V30 6148 H 572.297 -3.56331 -1.50217 0
M  V30 6149 H 573.986 -3.87171 -1.21873 0
M  V30 6150 H 574.752 -4.72002 1.11532 0
M  V30 6151 H 570.631 -4.60879 -0.105834 0
M  V30 6152 H 574.175 -6.35816 2.87025 0
M  V30 6153 H 570.072 -6.24293 1.64099 0
M  V30 6154 H 570.84 -7.49009 3.30041 0
M  V30 6155 N 573.503 -0.0852151 -1.57369 0
M  V30 6156 C 574.749 0.575588 -1.95086 0
M  V30 6157 C 575.104 1.66402 -0.96582 0
M  V30 6158 O 574.397 1.91598 0.00978463 0
M  V30 6159 C 574.591 1.18482 -3.3719 0
M  V30 6160 C 574.42 0.156928 -4.49426 0
M  V30 6161 C 573.19 -0.263126 -5.04614 0
M  V30 6162 C 575.388 -0.611068 -5.10657 0
M  V30 6163 N 573.37 -1.28032 -6.00401 0
M  V30 6164 C 574.741 -1.48036 -6.02068 0
M  V30 6165 C 576.796 -0.665669 -4.9343 0
M  V30 6166 C 575.499 -2.39943 -6.781 0
M  V30 6167 C 577.525 -1.5723 -5.70116 0
M  V30 6168 C 576.887 -2.42924 -6.61186 0
M  V30 6169 H 572.986 0.181249 -0.760705 0
M  V30 6170 H 575.57 -0.165484 -1.93995 0
M  V30 6171 H 573.741 1.89575 -3.38992 0
M  V30 6172 H 575.473 1.80718 -3.62109 0
M  V30 6173 H 572.228 0.122664 -4.73441 0
M  V30 6174 H 572.652 -1.78682 -6.52994 0
M  V30 6175 H 577.294 -0.0173214 -4.22796 0
M  V30 6176 H 575.012 -3.05807 -7.48002 0
M  V30 6177 H 578.598 -1.61956 -5.58804 0
M  V30 6178 H 577.478 -3.1194 -7.19488 0
M  V30 6179 N 574.981 1.5647 0.188427 0
M  V30 6180 C 576.206 1.85486 0.927891 0
M  V30 6181 C 576.631 0.669575 1.75779 0
M  V30 6182 O 575.989 -0.381573 1.77239 0
M  V30 6183 C 576.037 3.12784 1.7944 0
M  V30 6184 O 575.141 2.93805 2.894 0
M  V30 6185 H 574.482 0.610585 0.260925 0
M  V30 6186 H 577.012 2.037 0.191729 0
M  V30 6187 H 577.022 3.43749 2.19774 0
M  V30 6188 H 575.697 3.98671 1.18468 0
M  V30 6189 H 574.274 2.74153 2.52774 0
M  V30 6190 N 576.459 -0.456382 1.50847 0
M  V30 6191 C 577.369 -1.57805 1.73594 0
M  V30 6192 C 578.385 -1.62599 0.619476 0
M  V30 6193 O 579.561 -1.80195 0.899532 0
M  V30 6194 C 576.626 -2.93926 1.8387 0
M  V30 6195 C 575.687 -2.99402 3.07663 0
M  V30 6196 C 574.92 -4.29031 3.1744 0
M  V30 6197 O 575.143 -5.20358 2.33631 0
M  V30 6198 O 574.077 -4.40401 4.10281 0
M  V30 6199 H 577.903 -1.41531 2.68705 0
M  V30 6200 H 575.488 -0.637422 1.3512 0
M  V30 6201 H 577.37 -3.74747 1.92725 0
M  V30 6202 H 576.045 -3.10368 0.91944 0
M  V30 6203 H 574.952 -2.17606 3.043 0
M  V30 6204 H 576.285 -2.87901 3.99216 0
M  V30 6205 N 577.937 -1.40673 -0.710563 0
M  V30 6206 C 579.183 -1.39428 -1.47267 0
M  V30 6207 C 579.516 0.00182129 -1.942 0
M  V30 6208 O 578.791 0.971387 -1.68506 0
M  V30 6209 C 579.074 -2.38812 -2.6952 0
M  V30 6210 C 578.927 -3.87467 -2.28449 0
M  V30 6211 C 580.246 -2.3566 -3.71689 0
M  V30 6212 H 577.365 -0.507768 -0.534173 0
M  V30 6213 H 580.007 -1.71843 -0.810547 0
M  V30 6214 H 578.157 -2.113 -3.26013 0
M  V30 6215 H 579.829 -4.25825 -1.77399 0
M  V30 6216 H 578.072 -4.03058 -1.60395 0
M  V30 6217 H 578.743 -4.5253 -3.16103 0
M  V30 6218 H 581.219 -2.6004 -3.24836 0
M  V30 6219 H 580.095 -3.07237 -4.54859 0
M  V30 6220 H 580.356 -1.36996 -4.20339 0
M  V30 6221 N 579.415 0.9433 -1.26252 0
M  V30 6222 C 580.692 1.66639 -1.02424 0
M  V30 6223 C 581.072 2.06335 0.446006 0
M  V30 6224 O 580.42 1.78551 1.42589 0
M  V30 6225 C 580.63 2.88019 -1.97094 0
M  V30 6226 C 581.978 3.59718 -2.25584 0
M  V30 6227 O 583.002 2.9812 -1.94943 0
M  V30 6228 O 581.861 4.7066 -2.77743 0
M  V30 6229 H 578.955 0.729643 -0.389294 0
M  V30 6230 H 581.501 0.995218 -1.37454 0
M  V30 6231 H 580.273 2.5556 -2.96319 0
M  V30 6232 H 579.896 3.62863 -1.62532 0
M  V30 6233 N 580.893 1.08022 1.14757 0
M  V30 6234 C 581.84 0.706657 2.19716 0
M  V30 6235 C 582.81 -0.30525 1.63271 0
M  V30 6236 O 583.995 -0.19015 1.8985 0
M  V30 6237 C 581.135 0.117914 3.44898 0
M  V30 6238 C 580.248 1.18212 4.15512 0
M  V30 6239 C 579.383 0.557659 5.28265 0
M  V30 6240 C 578.422 1.60418 5.90705 0
M  V30 6241 N 577.559 1.0018 6.94916 0
M  V30 6242 H 582.399 1.60603 2.51019 0
M  V30 6243 H 579.936 0.802664 1.23271 0
M  V30 6244 H 581.894 -0.241112 4.16503 0
M  V30 6245 H 580.524 -0.744788 3.1409 0
M  V30 6246 H 579.576 1.65863 3.42335 0
M  V30 6247 H 580.888 1.97533 4.5802 0
M  V30 6248 H 580.042 0.146654 6.06523 0
M  V30 6249 H 578.781 -0.267249 4.86967 0
M  V30 6250 H 577.786 2.02489 5.11154 0
M  V30 6251 H 579.011 2.43149 6.34078 0
M  V30 6252 H 576.957 0.197917 6.55701 0
M  V30 6253 H 576.874 1.73216 7.35889 0
M  V30 6254 H 578.142 0.616523 7.77058 0
M  V30 6255 N 582.371 -1.3172 0.865308 0
M  V30 6256 C 583.304 -2.26687 0.262376 0
M  V30 6257 C 584.282 -1.50894 -0.605787 0
M  V30 6258 O 585.466 -1.79982 -0.56024 0
M  V30 6259 C 582.593 -3.3281 -0.628915 0
M  V30 6260 C 581.639 -4.26172 0.167278 0
M  V30 6261 S 582.472 -5.12797 1.54272 0
M  V30 6262 C 583.628 -6.22438 0.657427 0
M  V30 6263 H 583.861 -2.77478 1.0674 0
M  V30 6264 H 581.394 -1.39414 0.663555 0
M  V30 6265 H 583.352 -3.94426 -1.13747 0
M  V30 6266 H 582.013 -2.80782 -1.40785 0
M  V30 6267 H 581.206 -5.01392 -0.51203 0
M  V30 6268 H 580.808 -3.69029 0.607777 0
M  V30 6269 H 583.1 -6.77368 -0.133925 0
M  V30 6270 H 584.043 -6.9451 1.38061 0
M  V30 6271 H 584.451 -5.64043 0.227044 0
M  V30 6272 N 583.85 -0.624285 -1.44708 0
M  V30 6273 C 585.096 -0.126237 -2.02407 0
M  V30 6274 C 585.428 1.24618 -1.48943 0
M  V30 6275 O 584.704 1.82569 -0.670742 0
M  V30 6276 C 584.986 -0.105449 -3.59946 0
M  V30 6277 C 584.84 -1.50972 -4.23707 0
M  V30 6278 C 586.159 0.573629 -4.36346 0
M  V30 6279 H 583.278 -0.0473472 -0.735478 0
M  V30 6280 H 585.92 -0.799452 -1.72362 0
M  V30 6281 H 584.07 0.46783 -3.85673 0
M  V30 6282 H 585.742 -2.13136 -4.0911 0
M  V30 6283 H 583.985 -2.0656 -3.81465 0
M  V30 6284 H 584.656 -1.44727 -5.32689 0
M  V30 6285 H 587.132 0.0861787 -4.16011 0
M  V30 6286 H 586.008 0.557338 -5.46063 0
M  V30 6287 H 586.269 1.64276 -4.10446 0
M  V30 6288 N 585.328 1.53329 -0.364422 0
M  V30 6289 C 586.574 2.01537 0.225969 0
M  V30 6290 C 586.907 1.25128 1.48515 0
M  V30 6291 O 586.182 0.344653 1.91422 0
M  V30 6292 C 586.465 3.56339 0.519092 0
M  V30 6293 C 586.318 4.43441 -0.753639 0
M  V30 6294 C 587.637 4.19833 1.32015 0
M  V30 6295 H 584.756 0.732573 0.0806548 0
M  V30 6296 H 587.398 1.83597 -0.489084 0
M  V30 6297 H 585.548 3.71756 1.12825 0
M  V30 6298 H 587.22 4.39823 -1.39116 0
M  V30 6299 H 585.463 4.11457 -1.37424 0
M  V30 6300 H 586.134 5.49699 -0.503517 0
M  V30 6301 H 588.61 4.08242 0.804859 0
M  V30 6302 H 587.486 5.28177 1.49399 0
M  V30 6303 H 587.747 3.75821 2.32832 0
M  V30 6304 N 586.806 0.0935595 1.57322 0
M  V30 6305 C 588.034 -0.578934 1.98635 0
M  V30 6306 C 588.449 -1.61819 0.972626 0
M  V30 6307 O 587.806 -1.82461 -0.0379638 0
M  V30 6308 C 587.857 -1.22802 3.40003 0
M  V30 6309 O 587.578 -0.230334 4.37494 0
M  V30 6310 C 589.079 -1.98627 3.96311 0
M  V30 6311 H 586.299 -0.155324 0.652775 0
M  V30 6312 H 588.843 0.172393 2.03772 0
M  V30 6313 H 586.998 -1.93029 3.35885 0
M  V30 6314 H 587.412 -0.698649 5.19826 0
M  V30 6315 H 588.886 -2.39405 4.97382 0
M  V30 6316 H 589.363 -2.85151 3.34044 0
M  V30 6317 H 589.969 -1.3322 4.03897 0
M  V30 6318 N 588.284 -1.56567 -0.180126 0
M  V30 6319 C 589.214 -1.98753 -1.22553 0
M  V30 6320 C 590.195 -0.86175 -1.46656 0
M  V30 6321 O 591.38 -1.12719 -1.58139 0
M  V30 6322 C 588.51 -2.33988 -2.56645 0
M  V30 6323 C 587.464 -3.49445 -2.47128 0
M  V30 6324 C 586.79 -3.70397 -3.8563 0
M  V30 6325 C 588.09 -4.83171 -1.98352 0
M  V30 6326 H 589.784 -2.86332 -0.874896 0
M  V30 6327 H 587.33 -1.37757 -0.419414 0
M  V30 6328 H 589.283 -2.62097 -3.29974 0
M  V30 6329 H 588.007 -1.43309 -2.93479 0
M  V30 6330 H 586.666 -3.2145 -1.76254 0
M  V30 6331 H 586.314 -2.77023 -4.19842 0
M  V30 6332 H 586.014 -4.48077 -3.80132 0
M  V30 6333 H 587.538 -4.00897 -4.60558 0
M  V30 6334 H 588.952 -5.10213 -2.61449 0
M  V30 6335 H 587.349 -5.64425 -2.03823 0
M  V30 6336 H 588.419 -4.75753 -0.937402 0
M  V30 6337 N 589.762 0.448376 -1.51087 0
M  V30 6338 C 590.99 1.22143 -1.66999 0
M  V30 6339 C 591.405 1.85283 -0.362699 0
M  V30 6340 O 590.762 1.70236 0.65772 0
M  V30 6341 C 590.813 2.31357 -2.7777 0
M  V30 6342 O 590.534 1.70801 -4.03434 0
M  V30 6343 C 592.035 3.21836 -3.04855 0
M  V30 6344 H 589.255 0.368558 -0.560719 0
M  V30 6345 H 591.799 0.532618 -1.97442 0
M  V30 6346 H 589.954 2.95973 -2.49958 0
M  V30 6347 H 590.368 2.42895 -4.64868 0
M  V30 6348 H 591.842 3.94627 -3.85971 0
M  V30 6349 H 592.319 3.81949 -2.16821 0
M  V30 6350 H 592.925 2.62933 -3.34285 0
M  V30 6351 N 591.24 1.41047 0.703093 0
M  V30 6352 C 592.15 1.44645 1.84703 0
M  V30 6353 C 593.166 0.337778 1.7069 0
M  V30 6354 O 594.342 0.584327 1.92737 0
M  V30 6355 C 591.407 1.31928 3.20618 0
M  V30 6356 C 590.468 2.53047 3.46794 0
M  V30 6357 C 589.701 2.40927 4.76224 0
M  V30 6358 O 589.924 1.42978 5.5219 0
M  V30 6359 O 588.858 3.30543 5.03016 0
M  V30 6360 H 592.684 2.41139 1.84624 0
M  V30 6361 H 590.269 1.22504 0.855167 0
M  V30 6362 H 592.151 1.27092 4.01778 0
M  V30 6363 H 590.826 0.385469 3.21397 0
M  V30 6364 H 589.733 2.6346 2.65593 0
M  V30 6365 H 591.066 3.45231 3.50822 0
M  V30 6366 N 592.718 -0.936591 1.26751 0
M  V30 6367 C 593.648 -2.05315 1.11212 0
M  V30 6368 C 594.629 -1.70092 0.0160262 0
M  V30 6369 O 595.814 -1.93279 0.188894 0
M  V30 6370 C 592.944 -3.39123 0.749171 0
M  V30 6371 C 591.898 -3.88425 1.79751 0
M  V30 6372 C 591.224 -5.18936 1.28876 0
M  V30 6373 C 592.524 -4.12798 3.19992 0
M  V30 6374 H 594.218 -2.18573 2.04613 0
M  V30 6375 H 591.764 -1.05027 0.985159 0
M  V30 6376 H 593.717 -4.16704 0.627323 0
M  V30 6377 H 592.441 -3.25855 -0.220543 0
M  V30 6378 H 591.1 -3.13028 1.90811 0
M  V30 6379 H 590.748 -5.02051 0.308757 0
M  V30 6380 H 590.448 -5.52892 1.98958 0
M  V30 6381 H 591.972 -5.99096 1.17967 0
M  V30 6382 H 593.386 -4.80977 3.11983 0
M  V30 6383 H 591.783 -4.58044 3.87705 0
M  V30 6384 H 592.853 -3.18412 3.65707 0
M  V30 6385 N 594.196 -1.08629 -1.14182 0
M  V30 6386 C 595.607 -0.838003 -1.66836 0
M  V30 6387 C 595.958 0.634885 -1.85644 0
M  V30 6388 O 595.083 1.49008 -1.56926 0
M  V30 6389 C 595.678 -1.51465 -3.03058 0
M  V30 6390 C 594.237 -1.31355 -3.52736 0
M  V30 6391 C 593.384 -1.57599 -2.28162 0
M  V30 6392 H 596.335 -1.24656 -0.982165 0
M  V30 6393 H 596.356 -0.943134 -3.68626 0
M  V30 6394 H 595.868 -2.58661 -2.89337 0
M  V30 6395 H 593.969 -0.262384 -3.71675 0
M  V30 6396 H 594.082 -2.04275 -4.33369 0
M  V30 6397 H 592.446 -0.997659 -2.34348 0
M  V30 6398 H 593.229 -2.66006 -2.17015 0
M  V30 6399 N 595.674 1.31259 -0.872281 0
M  V30 6400 C 596.899 2.0133 -0.498099 0
M  V30 6401 C 597.324 1.65031 0.902568 0
M  V30 6402 O 596.682 0.860164 1.59596 0
M  V30 6403 C 596.73 3.54411 -0.665205 0
M  V30 6404 O 595.834 4.11347 0.294473 0
M  V30 6405 H 595.175 0.633844 -0.197832 0
M  V30 6406 H 597.705 1.67402 -1.17633 0
M  V30 6407 H 597.715 4.04147 -0.559373 0
M  V30 6408 H 596.39 3.80171 -1.68651 0
M  V30 6409 H 594.967 3.72624 0.143403 0
M  V30 6410 N 597.152 0.631951 1.44375 0
M  V30 6411 C 598.4 0.136497 2.01639 0
M  V30 6412 C 598.721 -1.24637 1.49969 0
M  V30 6413 O 597.991 -1.82827 0.70363 0
M  V30 6414 H 596.571 0.0474703 0.74549 0
M  V30 6415 H 599.233 0.818837 1.76865 0
M  V30 6416 H 598.329 0.104817 3.11924 0
M  V30 6417 N 598.631 -1.53133 0.372548 0
M  V30 6418 C 599.579 -2.27473 -0.485681 0
M  V30 6419 C 600.573 -1.30719 -1.07745 0
M  V30 6420 O 601.779 -1.48321 -1.01985 0
M  V30 6421 H 598.154 -0.731269 -0.175356 0
M  V30 6422 H 600.125 -2.97955 0.162986 0
M  V30 6423 C 598.874 -3.08191 -1.60978 0
M  V30 6424 H 598.197 -3.82488 -1.16373 0
M  V30 6425 H 599.637 -3.63373 -2.18485 0
M  V30 6426 C 598.096 -2.19461 -2.55614 0
M  V30 6427 O 598.626 -1.81008 -3.58607 0
M  V30 6428 N 596.832 -1.83955 -2.24965 0
M  V30 6429 H 596.379 -2.15423 -1.41247 0
M  V30 6430 H 596.337 -1.24874 -2.88538 0
M  V30 6431 N 600.109 -0.101901 -1.5727 0
M  V30 6432 C 601.386 0.602832 -1.86079 0
M  V30 6433 C 601.766 1.85912 -1 0
M  V30 6434 O 601.114 2.28379 -0.0742488 0
M  V30 6435 C 601.324 0.911694 -3.36881 0
M  V30 6436 C 602.672 1.2722 -4.05093 0
M  V30 6437 O 603.696 1.0025 -3.41802 0
M  V30 6438 O 602.555 1.7776 -5.16782 0
M  V30 6439 H 599.649 0.302366 -0.769743 0
M  V30 6440 H 602.195 -0.135113 -1.69161 0
M  V30 6441 H 600.967 0.0207256 -3.91295 0
M  V30 6442 H 600.59 1.70538 -3.59169 0
M  V30 6443 N 601.587 1.56661 0.17182 0
M  V30 6444 C 602.815 1.861 0.904115 0
M  V30 6445 C 603.23 0.687227 1.75848 0
M  V30 6446 O 602.587 -0.343671 1.79235 0
M  V30 6447 C 602.638 3.14568 1.78127 0
M  V30 6448 O 602.359 4.27422 0.961366 0
M  V30 6449 C 603.86 3.5735 2.62327 0
M  V30 6450 H 601.08 0.617445 0.262684 0
M  V30 6451 H 603.624 2.03775 0.172068 0
M  V30 6452 H 601.779 2.98721 2.46666 0
M  V30 6453 H 602.193 5.00725 1.56123 0
M  V30 6454 H 603.667 4.50144 3.1949 0
M  V30 6455 H 604.144 2.81445 3.37173 0
M  V30 6456 H 604.75 3.75807 1.99121 0
M  V30 6457 N 603.065 -0.440357 1.51323 0
M  V30 6458 C 604.29 -1.21716 1.67928 0
M  V30 6459 C 604.715 -1.84328 0.374826 0
M  V30 6460 O 604.073 -1.68675 -0.664706 0
M  V30 6461 C 604.121 -2.27914 2.79442 0
M  V30 6462 O 603.225 -3.33325 2.42834 0
M  V30 6463 H 602.566 -0.35674 0.560029 0
M  V30 6464 H 605.096 -0.520417 1.97871 0
M  V30 6465 H 605.106 -2.72746 3.03436 0
M  V30 6466 H 603.781 -1.8172 3.741 0
M  V30 6467 H 602.358 -2.9399 2.294 0
M  V30 6468 N 604.543 -1.41418 -0.695603 0
M  V30 6469 C 605.791 -1.40496 -1.45277 0
M  V30 6470 C 606.112 -0.0149538 -1.94994 0
M  V30 6471 O 605.382 0.9432 -1.71699 0
M  V30 6472 H 603.962 -0.517147 -0.539044 0
M  V30 6473 H 606.624 -1.76656 -0.823321 0
M  V30 6474 H 605.72 -2.09214 -2.31595 0
M  V30 6475 N 606.021 0.929856 -1.27246 0
M  V30 6476 C 606.951 2.04722 -1.12299 0
M  V30 6477 C 607.932 1.70082 -0.0250464 0
M  V30 6478 O 609.117 1.93176 -0.199141 0
M  V30 6479 C 606.247 3.38721 -0.767145 0
M  V30 6480 C 605.201 3.87466 -1.81808 0
M  V30 6481 C 604.527 5.18246 -1.31626 0
M  V30 6482 C 605.827 4.11095 -3.22177 0
M  V30 6483 H 607.521 2.17485 -2.05769 0
M  V30 6484 H 605.067 1.04503 -0.990715 0
M  V30 6485 H 607.02 4.16366 -0.649413 0
M  V30 6486 H 605.744 3.25967 0.203259 0
M  V30 6487 H 604.403 3.12012 -1.92468 0
M  V30 6488 H 604.051 5.01881 -0.335378 0
M  V30 6489 H 603.751 5.51829 -2.01887 0
M  V30 6490 H 605.275 5.98462 -1.21143 0
M  V30 6491 H 606.689 4.79316 -3.1453 0
M  V30 6492 H 605.086 4.55982 -3.90129 0
M  V30 6493 H 606.156 3.16468 -3.67391 0
M  V30 6494 N 607.499 1.09233 1.13605 0
M  V30 6495 C 608.409 0.741939 2.22559 0
M  V30 6496 C 609.425 -0.255236 1.72118 0
M  V30 6497 O 610.601 -0.0970747 2.01166 0
M  V30 6498 C 607.666 0.165595 3.46304 0
M  V30 6499 C 606.727 1.21846 4.11645 0
M  V30 6500 C 605.96 0.669526 5.29484 0
M  V30 6501 O 606.183 -0.508228 5.68131 0
M  V30 6502 O 605.117 1.42361 5.84822 0
M  V30 6503 H 608.943 1.65107 2.54899 0
M  V30 6504 H 606.528 0.866584 1.21699 0
M  V30 6505 H 608.41 -0.152592 4.21124 0
M  V30 6506 H 607.085 -0.716573 3.15669 0
M  V30 6507 H 605.992 1.58931 3.38662 0
M  V30 6508 H 607.325 2.07321 4.46407 0
M  V30 6509 N 608.977 -1.30795 0.87923 0
M  V30 6510 C 609.925 -2.30231 0.331112 0
M  V30 6511 C 610.919 -1.59918 -0.558794 0
M  V30 6512 O 612.125 -1.74441 -0.443866 0
M  V30 6513 H 608.5 -0.746785 0.088409 0
M  V30 6514 H 610.471 -2.73925 1.18353 0
M  V30 6515 C 609.22 -3.44848 -0.444401 0
M  V30 6516 H 608.543 -3.99131 0.231106 0
M  V30 6517 H 609.983 -4.16516 -0.793109 0
M  V30 6518 C 608.442 -2.94329 -1.63926 0
M  V30 6519 O 608.972 -2.93875 -2.73862 0
M  V30 6520 N 607.178 -2.50413 -1.4745 0
M  V30 6521 H 606.725 -2.50982 -0.58015 0
M  V30 6522 H 606.683 -2.16969 -2.27534 0
M  V30 6523 N 610.455 -0.639598 -1.44038 0
M  V30 6524 C 611.402 0.0602458 -2.30721 0
M  V30 6525 C 612.372 0.828352 -1.43971 0
M  V30 6526 O 613.557 0.807693 -1.72861 0
M  V30 6527 C 610.697 1.03008 -3.29368 0
M  V30 6528 C 609.81 0.259502 -4.3122 0
M  V30 6529 C 608.945 1.22191 -5.16955 0
M  V30 6530 C 607.984 0.440978 -6.10509 0
M  V30 6531 N 607.121 1.35428 -6.88915 0
M  V30 6532 H 611.961 -0.684867 -2.90023 0
M  V30 6533 H 609.498 -0.349509 -1.42888 0
M  V30 6534 H 611.456 1.60583 -3.85057 0
M  V30 6535 H 610.086 1.74222 -2.71747 0
M  V30 6536 H 609.138 -0.432317 -3.77935 0
M  V30 6537 H 610.45 -0.348347 -4.97582 0
M  V30 6538 H 609.604 1.86873 -5.77203 0
M  V30 6539 H 608.343 1.86367 -4.50687 0
M  V30 6540 H 607.348 -0.219279 -5.49363 0
M  V30 6541 H 608.573 -0.196192 -6.78817 0
M  V30 6542 H 606.519 1.9831 -6.25307 0
M  V30 6543 H 606.436 0.800657 -7.51748 0
M  V30 6544 H 607.704 1.98967 -7.53679 0
M  V30 6545 N 611.933 1.52934 -0.380664 0
M  V30 6546 C 613.161 2.05886 0.204599 0
M  V30 6547 C 613.576 1.25305 1.41223 0
M  V30 6548 O 612.933 0.297504 1.80059 0
M  V30 6549 C 612.984 3.56764 0.583249 0
M  V30 6550 O 612.705 4.34292 -0.576398 0
M  V30 6551 C 614.206 4.2603 1.2253 0
M  V30 6552 H 611.426 0.670193 0.0328991 0
M  V30 6553 H 613.97 1.97148 -0.543397 0
M  V30 6554 H 612.125 3.65603 1.28115 0
M  V30 6555 H 612.539 5.23819 -0.267119 0
M  V30 6556 H 614.013 5.32868 1.44068 0
M  V30 6557 H 614.49 3.80698 2.19011 0
M  V30 6558 H 615.096 4.21485 0.568407 0
M  V30 6559 N 613.412 0.11024 1.57214 0
M  V30 6560 C 614.658 -0.550684 1.9518 0
M  V30 6561 C 614.991 -1.66885 0.993122 0
M  V30 6562 O 614.266 -1.94479 0.0287907 0
M  V30 6563 C 614.549 -1.09163 3.43155 0
M  V30 6564 C 614.402 0.0225198 4.49794 0
M  V30 6565 C 615.721 -1.98527 3.92778 0
M  V30 6566 H 612.84 -0.198706 0.709708 0
M  V30 6567 H 615.482 0.184024 1.89107 0
M  V30 6568 H 613.632 -1.71775 3.48462 0
M  V30 6569 H 615.304 0.657443 4.56591 0
M  V30 6570 H 613.547 0.686868 4.28328 0
M  V30 6571 H 614.218 -0.39706 5.5057 0
M  V30 6572 H 616.694 -1.458 3.8972 0
M  V30 6573 H 615.57 -2.33298 4.96853 0
M  V30 6574 H 615.831 -2.90846 3.32958 0
M  V30 6575 N 614.89 -1.56749 -0.16351 0
M  V30 6576 C 616.136 -1.82704 -0.880168 0
M  V30 6577 C 616.469 -0.689311 -1.81555 0
M  V30 6578 O 615.744 0.308224 -1.92042 0
M  V30 6579 C 616.027 -3.19084 -1.66905 0
M  V30 6580 C 615.88 -4.43397 -0.756269 0
M  V30 6581 C 617.199 -3.52493 -2.63509 0
M  V30 6582 H 614.318 -0.664608 -0.318535 0
M  V30 6583 H 616.96 -1.89438 -0.146036 0
M  V30 6584 H 615.11 -3.13475 -2.2949 0
M  V30 6585 H 616.782 -4.61079 -0.14269 0
M  V30 6586 H 615.025 -4.33752 -0.0647944 0
M  V30 6587 H 615.696 -5.3539 -1.34393 0
M  V30 6588 H 618.172 -3.58606 -2.11047 0
M  V30 6589 H 617.048 -4.48979 -3.15767 0
M  V30 6590 H 617.309 -2.77597 -3.44082 0
M  V30 6591 N 616.368 0.432326 -1.51554 0
M  V30 6592 C 617.614 1.18309 -1.64714 0
M  V30 6593 C 617.947 1.90745 -0.364696 0
M  V30 6594 O 617.222 1.8381 0.635936 0
M  V30 6595 C 617.505 2.1961 -2.85383 0
M  V30 6596 C 617.358 1.51223 -4.23617 0
M  V30 6597 C 618.677 3.20538 -3.01569 0
M  V30 6598 H 615.796 0.428751 -0.599451 0
M  V30 6599 H 618.438 0.471689 -1.84052 0
M  V30 6600 H 616.588 2.8028 -2.69027 0
M  V30 6601 H 618.26 0.938516 -4.51652 0
M  V30 6602 H 616.503 0.814501 -4.26085 0
M  V30 6603 H 617.174 2.25024 -5.04052 0
M  V30 6604 H 619.65 2.69926 -3.16669 0
M  V30 6605 H 618.526 3.88706 -3.87555 0
M  V30 6606 H 618.787 3.86933 -2.13859 0
M  V30 6607 N 617.846 1.41785 0.688094 0
M  V30 6608 C 619.074 1.44915 1.47673 0
M  V30 6609 C 619.489 0.0565786 1.88715 0
M  V30 6610 O 618.846 -0.92579 1.57275 0
M  V30 6611 C 618.897 2.36452 2.73446 0
M  V30 6612 O 618.618 3.7029 2.34131 0
M  V30 6613 C 620.119 2.48463 3.67125 0
M  V30 6614 H 617.339 0.493324 0.454832 0
M  V30 6615 H 619.883 1.86153 0.846594 0
M  V30 6616 H 618.038 1.98502 3.3268 0
M  V30 6617 H 618.452 4.19183 3.15255 0
M  V30 6618 H 619.926 3.16662 4.52138 0
M  V30 6619 H 620.403 1.51826 4.12123 0
M  V30 6620 H 621.009 2.8708 3.13792 0
M  V30 6621 N 619.324 -0.923095 1.27737 0
M  V30 6622 C 620.552 -1.70525 1.17171 0
M  V30 6623 C 620.967 -1.86847 -0.270881 0
M  V30 6624 O 620.324 -1.38879 -1.18401 0
M  V30 6625 C 620.375 -3.10242 1.85559 0
M  V30 6626 O 620.096 -2.94683 3.24182 0
M  V30 6627 C 621.597 -4.04586 1.81176 0
M  V30 6628 H 618.817 -0.533347 0.407163 0
M  V30 6629 H 621.361 -1.15599 1.68692 0
M  V30 6630 H 619.516 -3.62014 1.3793 0
M  V30 6631 H 619.93 -3.83045 3.58297 0
M  V30 6632 H 621.404 -5.00119 2.33633 0
M  V30 6633 H 621.881 -4.3218 0.782099 0
M  V30 6634 H 622.487 -3.58741 2.2844 0
M  V30 6635 N 620.802 -1.09834 -1.13024 0
M  V30 6636 C 622.051 -0.831806 -1.83749 0
M  V30 6637 C 622.364 0.644763 -1.84668 0
M  V30 6638 O 623.57 1.02697 -2.51327 0
M  V30 6639 C 622.026 -1.43817 -3.29916 0
M  V30 6640 C 621.634 -2.94759 -3.37374 0
M  V30 6641 C 623.378 -1.25077 -4.05655 0
M  V30 6642 C 621.285 -3.48461 -4.77838 0
M  V30 6643 H 620.215 -0.30751 -0.688443 0
M  V30 6644 H 622.866 -1.32156 -1.27307 0
M  V30 6645 H 621.248 -0.876106 -3.86187 0
M  V30 6646 H 622.422 -3.57228 -2.91076 0
M  V30 6647 H 620.737 -3.12581 -2.75103 0
M  V30 6648 H 623.334 -1.62649 -5.09362 0
M  V30 6649 H 623.677 -0.191782 -4.15858 0
M  V30 6650 H 624.21 -1.78057 -3.55725 0
M  V30 6651 H 620.949 -4.53998 -4.72828 0
M  V30 6652 H 620.469 -2.90757 -5.24615 0
M  V30 6653 H 622.148 -3.45914 -5.46766 0
M  V30 6654 N 622.28 1.30327 -0.886154 0
M  V30 6655 C 623.21 2.30549 -0.370028 0
M  V30 6656 C 624.191 1.61039 0.547751 0
M  V30 6657 O 625.376 1.8864 0.461353 0
M  V30 6658 C 622.506 3.44808 0.415275 0
M  V30 6659 C 621.46 4.26024 -0.41085 0
M  V30 6660 C 620.786 5.32347 0.501128 0
M  V30 6661 C 622.086 4.95433 -1.65359 0
M  V30 6662 H 623.78 2.73969 -1.20754 0
M  V30 6663 H 621.326 1.3171 -0.582097 0
M  V30 6664 H 623.279 4.13986 0.78699 0
M  V30 6665 H 622.003 3.00197 1.28644 0
M  V30 6666 H 620.662 3.58535 -0.764719 0
M  V30 6667 H 620.31 4.83982 1.37004 0
M  V30 6668 H 620.01 5.87581 -0.0478356 0
M  V30 6669 H 621.534 6.0438 0.869333 0
M  V30 6670 H 622.948 5.5712 -1.35239 0
M  V30 6671 H 621.345 5.60537 -2.14284 0
M  V30 6672 H 622.415 4.21493 -2.39733 0
M  V30 6673 N 623.758 0.647228 1.43697 0
M  V30 6674 C 624.668 -0.0487997 2.34549 0
M  V30 6675 C 625.684 -0.818586 1.53542 0
M  V30 6676 O 626.86 -0.767195 1.86215 0
M  V30 6677 C 623.925 -1.00734 3.31743 0
M  V30 6678 C 622.986 -0.23515 4.28655 0
M  V30 6679 C 622.219 -1.14803 5.21206 0
M  V30 6680 O 622.442 -2.38717 5.18045 0
M  V30 6681 O 621.376 -0.623667 5.9866 0
M  V30 6682 H 625.202 0.698863 2.9555 0
M  V30 6683 H 622.787 0.407412 1.43738 0
M  V30 6684 H 624.669 -1.55837 3.91526 0
M  V30 6685 H 623.344 -1.73534 2.73254 0
M  V30 6686 H 622.251 0.359319 3.7237 0
M  V30 6687 H 623.584 0.453152 4.9011 0
M  V30 6688 N 625.236 -1.5273 0.388769 0
M  V30 6689 C 626.461 -2.0647 -0.19621 0
M  V30 6690 C 626.886 -1.25865 -1.39784 0
M  V30 6691 O 626.244 -0.283562 -1.79069 0
M  V30 6692 C 626.292 -3.56456 -0.5451 0
M  V30 6693 O 625.396 -3.78426 -1.63912 0
M  V30 6694 H 624.737 -0.663599 -0.023067 0
M  V30 6695 H 627.267 -1.96898 0.556084 0
M  V30 6696 H 627.277 -3.99888 -0.809557 0
M  V30 6697 H 625.952 -4.14561 0.333417 0
M  V30 6698 H 624.529 -3.46884 -1.36842 0
M  V30 6699 N 626.714 -0.118576 -1.57153 0
M  V30 6700 C 628.125 0.40687 -1.82213 0
M  V30 6701 C 628.476 1.66636 -1.03571 0
M  V30 6702 O 627.601 2.14682 -0.272171 0
M  V30 6703 C 628.196 0.744949 -3.30509 0
M  V30 6704 C 626.755 1.21503 -3.5625 0
M  V30 6705 C 625.902 0.223511 -2.76398 0
M  V30 6706 H 628.853 -0.343712 -1.54933 0
M  V30 6707 H 628.874 1.6024 -3.45114 0
M  V30 6708 H 628.386 -0.171911 -3.87719 0
M  V30 6709 H 626.487 2.1488 -3.04396 0
M  V30 6710 H 626.6 1.16065 -4.64829 0
M  V30 6711 H 624.964 0.71046 -2.44591 0
M  V30 6712 H 625.747 -0.686439 -3.36367 0
M  V30 6713 N 628.193 1.56834 0.155195 0
M  V30 6714 C 629.423 1.86778 0.883044 0
M  V30 6715 C 629.831 0.703824 1.75622 0
M  V30 6716 O 629.174 -0.33581 1.80605 0
M  V30 6717 C 629.236 3.1133 1.79761 0
M  V30 6718 C 628.9 4.43504 1.10242 0
M  V30 6719 C 629.897 5.17859 0.460204 0
M  V30 6720 C 627.582 4.90233 1.09437 0
M  V30 6721 C 629.576 6.37144 -0.180782 0
M  V30 6722 C 627.263 6.09444 0.449569 0
M  V30 6723 C 628.261 6.82744 -0.186888 0
M  V30 6724 O 627.949 7.99692 -0.821486 0
M  V30 6725 H 627.681 0.62352 0.261149 0
M  V30 6726 H 630.235 2.04813 0.155204 0
M  V30 6727 H 628.465 2.89282 2.56618 0
M  V30 6728 H 630.154 3.27587 2.39669 0
M  V30 6729 H 630.92 4.8283 0.458289 0
M  V30 6730 H 626.799 4.33109 1.57917 0
M  V30 6731 H 630.343 6.94296 -0.678154 0
M  V30 6732 H 626.24 6.43936 0.449123 0
M  V30 6733 H 627.008 8.15306 -0.722337 0
M  V30 6734 N 629.671 -0.424282 1.51781 0
M  V30 6735 C 630.917 -1.17434 1.6534 0
M  V30 6736 C 631.25 -1.90549 0.374806 0
M  V30 6737 O 630.525 -1.84145 -0.626179 0
M  V30 6738 C 630.808 -2.18093 2.86544 0
M  V30 6739 C 630.661 -1.48975 4.24413 0
M  V30 6740 C 631.98 -3.18934 3.03264 0
M  V30 6741 H 629.099 -0.425566 0.601716 0
M  V30 6742 H 631.741 -0.461921 1.84299 0
M  V30 6743 H 629.891 -2.78849 2.7051 0
M  V30 6744 H 631.563 -0.914551 4.52143 0
M  V30 6745 H 629.806 -0.791893 4.26511 0
M  V30 6746 H 630.477 -2.22347 5.05238 0
M  V30 6747 H 632.953 -2.68243 3.18096 0
M  V30 6748 H 631.829 -3.86645 3.89611 0
M  V30 6749 H 632.09 -3.85793 2.15908 0
M  V30 6750 N 631.149 -1.42148 -0.680565 0
M  V30 6751 C 632.082 -1.39602 -1.80517 0
M  V30 6752 C 633.06 -0.261098 -1.6049 0
M  V30 6753 O 634.244 -0.450404 -1.8304 0
M  V30 6754 C 631.371 -1.18134 -3.1743 0
M  V30 6755 C 630.417 -2.34543 -3.56219 0
M  V30 6756 S 631.25 -3.97063 -3.59306 0
M  V30 6757 C 632.406 -3.77926 -4.98921 0
M  V30 6758 H 632.639 -2.3477 -1.82402 0
M  V30 6759 H 630.172 -1.28851 -0.850691 0
M  V30 6760 H 632.13 -1.06434 -3.96462 0
M  V30 6761 H 630.791 -0.245611 -3.13138 0
M  V30 6762 H 629.984 -2.15255 -4.55721 0
M  V30 6763 H 629.586 -2.42728 -2.84533 0
M  V30 6764 H 631.878 -3.3856 -5.86842 0
M  V30 6765 H 632.821 -4.77084 -5.23256 0
M  V30 6766 H 633.229 -3.10904 -4.71167 0
M  V30 6767 N 632.627 0.916307 -1.28225 0
M  V30 6768 C 633.56 2.01954 -1.06254 0
M  V30 6769 C 634.538 1.62587 0.0205983 0
M  V30 6770 O 635.722 1.88073 -0.126824 0
M  V30 6771 C 632.849 3.33086 -0.614141 0
M  V30 6772 C 631.895 3.91435 -1.69354 0
M  V30 6773 S 632.728 4.22603 -3.28887 0
M  V30 6774 C 633.884 5.568 -2.85876 0
M  V30 6775 H 634.117 2.20281 -1.99659 0
M  V30 6776 H 631.65 1.06085 -1.12184 0
M  V30 6777 H 633.608 4.089 -0.36213 0
M  V30 6778 H 632.269 3.12664 0.300036 0
M  V30 6779 H 631.462 4.86098 -1.33136 0
M  V30 6780 H 631.064 3.22248 -1.89821 0
M  V30 6781 H 633.356 6.3658 -2.31888 0
M  V30 6782 H 634.299 5.97927 -3.79326 0
M  V30 6783 H 634.707 5.17865 -2.24669 0
M  V30 6784 N 634.105 1.10431 1.1244 0
M  V30 6785 C 635.052 0.753103 2.18167 0
M  V30 6786 C 636.022 -0.270549 1.63882 0
M  V30 6787 O 637.207 -0.149837 1.90211 0
M  V30 6788 C 634.347 0.191046 3.44571 0
M  V30 6789 C 633.46 1.26999 4.12911 0
M  V30 6790 C 632.595 0.669586 5.26963 0
M  V30 6791 C 631.634 1.72912 5.87169 0
M  V30 6792 N 630.771 1.14898 6.92635 0
M  V30 6793 H 635.611 1.65892 2.47556 0
M  V30 6794 H 633.148 0.828631 1.21541 0
M  V30 6795 H 635.106 -0.152712 4.1692 0
M  V30 6796 H 633.736 -0.677997 3.15599 0
M  V30 6797 H 632.788 1.73087 3.3874 0
M  V30 6798 H 634.1 2.07204 4.53727 0
M  V30 6799 H 633.254 0.275274 6.06075 0
M  V30 6800 H 631.993 -0.163895 4.87425 0
M  V30 6801 H 630.998 2.13286 5.06744 0
M  V30 6802 H 632.223 2.56544 6.28778 0
M  V30 6803 H 630.169 0.336956 6.55134 0
M  V30 6804 H 630.086 1.88786 7.32049 0
M  V30 6805 H 631.354 0.78121 7.75576 0
M  V30 6806 N 635.583 -1.29855 0.893053 0
M  V30 6807 C 636.53 -2.27909 0.364161 0
M  V30 6808 C 637.5 -1.56726 -0.550093 0
M  V30 6809 O 638.685 -1.84747 -0.47677 0
M  V30 6810 C 635.825 -3.42678 -0.408178 0
M  V30 6811 C 634.938 -4.28659 0.536212 0
M  V30 6812 C 634.073 -5.30599 -0.252521 0
M  V30 6813 C 633.112 -6.08234 0.686822 0
M  V30 6814 N 632.249 -7.02068 -0.0670902 0
M  V30 6815 H 637.089 -2.72531 1.20544 0
M  V30 6816 H 634.626 -1.34047 0.605779 0
M  V30 6817 H 636.584 -4.07986 -0.871962 0
M  V30 6818 H 635.214 -2.99103 -1.21397 0
M  V30 6819 H 634.266 -3.63584 1.1185 0
M  V30 6820 H 635.578 -4.8274 1.25552 0
M  V30 6821 H 634.732 -6.01694 -0.777801 0
M  V30 6822 H 633.471 -4.77233 -1.005 0
M  V30 6823 H 632.476 -5.3601 1.22366 0
M  V30 6824 H 633.701 -6.63689 1.43852 0
M  V30 6825 H 631.647 -6.5108 -0.801955 0
M  V30 6826 H 631.564 -7.53675 0.59243 0
M  V30 6827 H 632.832 -7.77392 -0.572851 0
M  V30 6828 N 637.061 -0.65484 -1.43351 0
M  V30 6829 C 638.009 0.0476784 -2.32551 0
M  V30 6830 C 639.003 0.811403 -1.48703 0
M  V30 6831 O 640.209 0.721621 -1.64902 0
M  V30 6832 H 636.584 0.0342038 -0.751222 0
M  V30 6833 H 638.555 -0.722342 -2.89525 0
M  V30 6834 C 637.304 0.999251 -3.33032 0
M  V30 6835 H 636.627 0.421005 -3.97577 0
M  V30 6836 H 638.067 1.45986 -3.98076 0
M  V30 6837 C 636.526 2.09606 -2.63756 0
M  V30 6838 O 637.056 3.18004 -2.4543 0
M  V30 6839 N 635.262 1.86207 -2.23103 0
M  V30 6840 H 634.809 0.980555 -2.38208 0
M  V30 6841 H 634.767 2.59787 -1.77081 0
M  V30 6842 N 638.539 1.52521 -0.396863 0
M  V30 6843 C 639.489 2.2348 0.451722 0
M  V30 6844 C 640.473 1.2415 1.0235 0
M  V30 6845 O 641.665 1.4945 0.948348 0
M  V30 6846 C 638.794 3.05067 1.57445 0
M  V30 6847 C 637.88 4.11799 1.01404 0
M  V30 6848 N 638.271 5.05482 0.179234 0
M  V30 6849 C 636.569 4.27064 1.28578 0
M  V30 6850 C 637.27 5.81552 -0.131202 0
M  V30 6851 N 636.246 5.41523 0.474735 0
M  V30 6852 H 640.048 2.93269 -0.192534 0
M  V30 6853 H 637.562 1.61081 -0.206591 0
M  V30 6854 H 639.559 3.54446 2.19485 0
M  V30 6855 H 638.219 2.36816 2.22145 0
M  V30 6856 H 639.23 5.17573 -0.18411 0
M  V30 6857 H 635.907 3.70042 1.93327 0
M  V30 6858 H 637.297 6.67023 -0.808061 0
M  V30 6859 N 640.017 0.126909 1.57088 0
M  V30 6860 C 640.927 -0.833867 2.1928 0
M  V30 6861 C 641.943 -1.2868 1.17122 0
M  V30 6862 O 643.119 -1.34815 1.49622 0
M  V30 6863 C 640.184 -2.0632 2.78627 0
M  V30 6864 C 639.245 -1.66143 3.95847 0
M  V30 6865 C 638.478 -2.83217 4.52354 0
M  V30 6866 O 638.701 -3.98868 4.0775 0
M  V30 6867 O 637.635 -2.59846 5.42922 0
M  V30 6868 H 641.461 -0.334564 3.01852 0
M  V30 6869 H 639.046 -0.0991091 1.49071 0
M  V30 6870 H 640.928 -2.78304 3.16425 0
M  V30 6871 H 639.603 -2.55242 1.99082 0
M  V30 6872 H 638.51 -0.912435 3.62802 0
M  V30 6873 H 639.843 -1.21957 4.76852 0
M  V30 6874 N 641.495 -1.56914 -0.146875 0
M  V30 6875 C 642.428 -1.93425 -1.21087 0
M  V30 6876 C 643.406 -0.800106 -1.41552 0
M  V30 6877 O 644.59 -1.05572 -1.56162 0
M  V30 6878 C 641.717 -2.20639 -2.56975 0
M  V30 6879 C 640.763 -3.43279 -2.53104 0
M  V30 6880 S 641.596 -4.96836 -1.99786 0
M  V30 6881 C 642.752 -5.27172 -3.37403 0
M  V30 6882 H 642.985 -2.8337 -0.899378 0
M  V30 6883 H 640.518 -1.50322 -0.352494 0
M  V30 6884 H 642.476 -2.36998 -3.35175 0
M  V30 6885 H 641.137 -1.31357 -2.85314 0
M  V30 6886 H 640.33 -3.59599 -3.53136 0
M  V30 6887 H 639.932 -3.26163 -1.83012 0
M  V30 6888 H 642.224 -5.20647 -4.33513 0
M  V30 6889 H 643.167 -6.28626 -3.25937 0
M  V30 6890 H 643.575 -4.54687 -3.34544 0
M  V30 6891 N 642.974 0.416227 -1.52004 0
M  V30 6892 C 643.904 1.51365 -1.77795 0
M  V30 6893 C 644.885 1.58059 -0.628601 0
M  V30 6894 O 646.07 1.73447 -0.873478 0
M  V30 6895 C 643.2 2.89256 -1.92219 0
M  V30 6896 C 642.154 2.97415 -3.0778 0
M  V30 6897 C 641.48 4.37492 -3.07417 0
M  V30 6898 C 642.78 2.69551 -4.47369 0
M  V30 6899 H 644.474 1.30033 -2.69688 0
M  V30 6900 H 642.02 0.624112 -1.29772 0
M  V30 6901 H 643.973 3.66008 -2.08845 0
M  V30 6902 H 642.697 3.11866 -0.969917 0
M  V30 6903 H 641.356 2.23107 -2.90893 0
M  V30 6904 H 641.004 4.571 -2.09925 0
M  V30 6905 H 640.704 4.43877 -3.85029 0
M  V30 6906 H 642.228 5.16188 -3.26162 0
M  V30 6907 H 643.642 3.36028 -4.64497 0
M  V30 6908 H 642.039 2.87321 -5.26846 0
M  V30 6909 H 643.109 1.65029 -4.55953 0
M  V30 6910 N 644.452 1.42507 0.673017 0
M  V30 6911 C 645.362 1.4853 1.81593 0
M  V30 6912 C 646.378 0.373907 1.69935 0
M  V30 6913 O 647.554 0.625078 1.91454 0
M  V30 6914 C 644.619 1.387 3.17747 0
M  V30 6915 C 643.68 2.60346 3.41348 0
M  V30 6916 C 642.913 2.50975 4.71007 0
M  V30 6917 O 643.136 1.54659 5.49033 0
M  V30 6918 O 642.07 3.41138 4.95892 0
M  V30 6919 H 645.896 2.45001 1.79467 0
M  V30 6920 H 643.481 1.2429 0.82899 0
M  V30 6921 H 645.363 1.35586 3.98992 0
M  V30 6922 H 644.038 0.453555 3.20507 0
M  V30 6923 H 642.945 2.69034 2.59945 0
M  V30 6924 H 644.278 3.52595 3.43421 0
M  V30 6925 N 645.93 -0.909495 1.28709 0
M  V30 6926 C 647.178 -1.65577 1.15882 0
M  V30 6927 C 647.499 -1.928 -0.292108 0
M  V30 6928 O 646.769 -1.54716 -1.20166 0
M  V30 6929 H 645.349 -0.613714 0.425869 0
M  V30 6930 H 648.011 -1.09108 1.61498 0
M  V30 6931 H 647.107 -2.61634 1.70159 0
M  V30 6932 N 647.408 -1.11026 -1.11852 0
M  V30 6933 C 648.356 -0.759643 -2.19846 0
M  V30 6934 C 649.35 0.246964 -1.6759 0
M  V30 6935 O 650.556 0.106693 -1.79684 0
M  V30 6936 H 646.931 -0.22775 -0.716683 0
M  V30 6937 H 648.902 -1.6792 -2.46669 0
M  V30 6938 C 647.651 -0.214364 -3.47039 0
M  V30 6939 H 646.974 -0.980175 -3.87599 0
M  V30 6940 H 648.414 -0.00717047 -4.23999 0
M  V30 6941 C 646.873 1.05436 -3.19976 0
M  V30 6942 O 647.403 2.13483 -3.40276 0
M  V30 6943 N 645.609 0.975436 -2.7374 0
M  V30 6944 H 645.156 0.0960853 -2.57421 0
M  V30 6945 H 645.114 1.82501 -2.5601 0
M  V30 6946 N 648.886 1.2938 -0.899927 0
M  V30 6947 C 649.796 2.31462 -0.382437 0
M  V30 6948 C 650.812 1.65956 0.522929 0
M  V30 6949 O 651.988 1.97131 0.412454 0
M  V30 6950 C 649.053 3.44595 0.381472 0
M  V30 6951 C 648.114 4.25692 -0.555444 0
M  V30 6952 C 647.347 5.33422 0.172102 0
M  V30 6953 O 647.57 5.53053 1.396 0
M  V30 6954 O 646.504 5.99939 -0.485491 0
M  V30 6955 H 650.33 2.77706 -1.22934 0
M  V30 6956 H 647.915 1.33821 -0.664259 0
M  V30 6957 H 649.797 4.13474 0.813442 0
M  V30 6958 H 648.472 3.00458 1.20443 0
M  V30 6959 H 647.379 3.59453 -1.03653 0
M  V30 6960 H 648.712 4.73471 -1.34483 0
M  V30 6961 N 650.364 0.662433 1.43002 0
M  V30 6962 C 651.78 0.330835 1.56133 0
M  V30 6963 C 651.98 -1.16454 1.64441 0
M  V30 6964 O 651.036 -1.94964 1.60453 0
M  V30 6965 C 652.349 1.05029 2.81761 0
M  V30 6966 C 653.897 1.03142 2.95518 0
M  V30 6967 C 654.372 1.73196 4.2399 0
M  V30 6968 N 655.863 1.70004 4.30875 0
M  V30 6969 C 656.598 2.21074 5.29069 0
M  V30 6970 N 656.094 2.80473 6.33488 0
M  V30 6971 N 657.887 2.1152 5.20784 0
M  V30 6972 H 650.038 1.63272 1.35853 0
M  V30 6973 H 652.301 0.687149 0.653092 0
M  V30 6974 H 652.007 2.10542 2.81718 0
M  V30 6975 H 651.881 0.607664 3.72273 0
M  V30 6976 H 654.268 -0.0153339 2.95096 0
M  V30 6977 H 654.349 1.51282 2.0627 0
M  V30 6978 H 653.993 2.77833 4.25172 0
M  V30 6979 H 653.923 1.22515 5.1215 0
M  V30 6980 H 656.414 1.26667 3.56039 0
M  V30 6981 H 656.727 3.17094 7.04749 0
M  V30 6982 H 655.072 2.84538 6.34085 0
M  V30 6983 H 658.263 1.64814 4.38126 0
M  V30 6984 H 658.436 2.51629 5.97149 0
M  V30 6985 N 651.842 -1.52309 0.404946 0
M  V30 6986 C 653.072 -2.05886 -0.171569 0
M  V30 6987 C 653.48 -1.27527 -1.39762 0
M  V30 6988 O 652.823 -0.319215 -1.80905 0
M  V30 6989 C 652.885 -3.54609 -0.590983 0
M  V30 6990 C 652.549 -4.53989 0.523757 0
M  V30 6991 C 653.546 -5.01084 1.38604 0
M  V30 6992 C 651.231 -4.97465 0.695255 0
M  V30 6993 C 653.225 -5.90295 2.4048 0
M  V30 6994 C 650.912 -5.86473 1.71733 0
M  V30 6995 C 651.91 -6.32782 2.57051 0
M  V30 6996 O 651.598 -7.20029 3.57509 0
M  V30 6997 H 651.33 -0.675508 -0.0257763 0
M  V30 6998 H 653.884 -1.97238 0.573278 0
M  V30 6999 H 652.114 -3.60929 -1.38805 0
M  V30 7000 H 653.803 -3.90853 -1.09494 0
M  V30 7001 H 654.569 -4.68214 1.26492 0
M  V30 7002 H 650.448 -4.60982 0.0408447 0
M  V30 7003 H 653.992 -6.26363 3.07108 0
M  V30 7004 H 649.889 -6.18756 1.83877 0
M  V30 7005 H 650.657 -7.3813 3.53703 0
M  V30 7006 N 653.32 -0.135238 -1.57019 0
M  V30 7007 C 654.23 0.822226 -2.19719 0
M  V30 7008 C 655.246 1.28057 -1.17802 0
M  V30 7009 O 656.422 1.3402 -1.50335 0
M  V30 7010 C 653.487 2.0484 -2.79717 0
M  V30 7011 C 652.548 1.64042 -3.96723 0
M  V30 7012 C 651.781 2.80814 -4.53849 0
M  V30 7013 O 652.004 3.967 -4.0986 0
M  V30 7014 O 650.938 2.56963 -5.44292 0
M  V30 7015 H 654.764 0.318552 -3.02025 0
M  V30 7016 H 652.349 0.0912021 -1.49121 0
M  V30 7017 H 654.231 2.76622 -3.17897 0
M  V30 7018 H 652.906 2.54182 -2.00432 0
M  V30 7019 H 651.813 0.893182 -3.63281 0
M  V30 7020 H 653.146 1.19426 -4.77492 0
M  V30 7021 N 654.798 1.5699 0.138552 0
M  V30 7022 C 656.046 1.83446 0.848053 0
M  V30 7023 C 656.367 0.71744 1.81322 0
M  V30 7024 O 655.637 -0.260228 1.94164 0
M  V30 7025 H 654.217 0.676792 0.316166 0
M  V30 7026 H 656.879 1.94462 0.130538 0
M  V30 7027 H 655.975 2.78677 1.40518 0
M  V30 7028 N 656.276 -0.40816 1.52223 0
M  V30 7029 C 657.506 -1.17501 1.69932 0
M  V30 7030 C 657.914 -1.84729 0.408874 0
M  V30 7031 O 657.257 -1.7274 -0.625025 0
M  V30 7032 C 657.319 -2.27994 2.77955 0
M  V30 7033 C 656.983 -1.80894 4.19674 0
M  V30 7034 C 657.98 -1.29618 5.03483 0
M  V30 7035 C 655.665 -1.87698 4.65913 0
M  V30 7036 C 657.659 -0.857695 6.31603 0
M  V30 7037 C 655.346 -1.43461 5.94022 0
M  V30 7038 C 656.344 -0.925822 6.76696 0
M  V30 7039 O 656.032 -0.489841 8.02406 0
M  V30 7040 H 655.764 -0.359065 0.572755 0
M  V30 7041 H 658.318 -0.486188 1.99563 0
M  V30 7042 H 656.548 -3.00243 2.43703 0
M  V30 7043 H 658.237 -2.89749 2.84254 0
M  V30 7044 H 659.003 -1.23733 4.68951 0
M  V30 7045 H 654.882 -2.26244 4.01665 0
M  V30 7046 H 658.426 -0.459879 6.96083 0
M  V30 7047 H 654.323 -1.49026 6.28062 0
M  V30 7048 H 655.091 -0.613062 8.16201 0
M  V30 7049 N 657.755 -1.42862 -0.66545 0
M  V30 7050 C 658.995 -1.45323 -1.43738 0
M  V30 7051 C 659.359 -0.0707969 -1.91869 0
M  V30 7052 O 660.56 0.0298852 -2.68783 0
M  V30 7053 C 658.831 -2.45671 -2.59577 0
M  V30 7054 S 660.39 -2.6691 -3.48288 0
M  V30 7055 H 657.208 -0.51442 -0.490809 0
M  V30 7056 H 659.81 -1.79537 -0.773745 0
M  V30 7057 H 658.514 -3.44869 -2.22471 0
M  V30 7058 H 658.045 -2.12914 -3.30804 0
M  V30 7059 H 660.06 -1.95914 -4.55886 0
M  V30 7060 N 659.233 0.902656 -1.29189 0
M  V30 7061 C 660.479 1.65532 -1.17163 0
M  V30 7062 C 660.812 1.92216 0.276879 0
M  V30 7063 O 660.087 1.53048 1.20027 0
M  V30 7064 C 660.37 3.00629 -1.98228 0
M  V30 7065 C 660.223 2.81029 -3.51202 0
M  V30 7066 C 661.542 4.01321 -1.80635 0
M  V30 7067 H 658.661 0.60071 -0.426985 0
M  V30 7068 H 661.303 1.04578 -1.5863 0
M  V30 7069 H 659.453 3.52656 -1.62991 0
M  V30 7070 H 661.125 2.35927 -3.96404 0
M  V30 7071 H 659.368 2.1587 -3.76275 0
M  V30 7072 H 660.039 3.77014 -4.03192 0
M  V30 7073 H 662.515 3.58394 -2.11406 0
M  V30 7074 H 661.391 4.93792 -2.3971 0
M  V30 7075 H 661.652 4.35505 -0.760754 0
M  V30 7076 N 660.711 1.11618 1.11262 0
M  V30 7077 C 661.988 0.777876 1.79467 0
M  V30 7078 C 662.368 -0.733774 1.97937 0
M  V30 7079 O 661.716 -1.66443 1.56554 0
M  V30 7080 C 661.926 1.5431 3.13032 0
M  V30 7081 C 663.274 1.72357 3.88044 0
M  V30 7082 O 664.298 1.5075 3.22727 0
M  V30 7083 O 663.157 2.08276 5.05256 0
M  V30 7084 H 660.251 0.282018 0.777428 0
M  V30 7085 H 662.797 1.21971 1.17988 0
M  V30 7086 H 661.569 2.57132 2.94956 0
M  V30 7087 H 661.192 1.09495 3.82226 0
M  V30 7088 N 662.189 -1.289 0.906776 0
M  V30 7089 C 663.119 -2.29932 0.406659 0
M  V30 7090 C 664.1 -1.6189 -0.522061 0
M  V30 7091 O 665.285 -1.8935 -0.431283 0
M  V30 7092 C 662.415 -3.45425 -0.360366 0
M  V30 7093 C 661.369 -4.25316 0.478574 0
M  V30 7094 C 660.695 -5.33076 -0.416373 0
M  V30 7095 C 661.995 -4.92739 1.7322 0
M  V30 7096 H 663.689 -2.72013 1.25097 0
M  V30 7097 H 661.235 -1.30768 0.602977 0
M  V30 7098 H 663.188 -4.15186 -0.721029 0
M  V30 7099 H 661.912 -3.02206 -1.23852 0
M  V30 7100 H 660.571 -3.57273 0.821662 0
M  V30 7101 H 660.219 -4.86101 -1.29287 0
M  V30 7102 H 659.919 -5.8743 0.141309 0
M  V30 7103 H 661.443 -6.05686 -0.773072 0
M  V30 7104 H 662.857 -5.54898 1.44086 0
M  V30 7105 H 661.254 -5.57057 2.23175 0
M  V30 7106 H 662.324 -4.17625 2.46408 0
M  V30 7107 N 663.667 -0.670007 -1.42649 0
M  V30 7108 C 664.63 0.00204659 -2.292 0
M  V30 7109 C 665.63 0.733817 -1.4308 0
M  V30 7110 O 666.82 0.57254 -1.64522 0
M  V30 7111 C 663.952 1.01359 -3.25483 0
M  V30 7112 H 665.145 -0.759696 -2.90118 0
M  V30 7113 H 662.698 -0.432105 -1.50208 0
M  V30 7114 H 663.433 1.80399 -2.69493 0
M  V30 7115 H 663.218 0.492323 -3.88997 0
M  V30 7116 H 664.708 1.4824 -3.90403 0
M  V30 7117 N 665.145 1.52092 -0.413018 0
M  V30 7118 C 666.108 2.25706 0.398687 0
M  V30 7119 C 667.108 1.28221 0.970368 0
M  V30 7120 O 668.298 1.52131 0.848635 0
M  V30 7121 C 665.43 3.03029 1.5616 0
M  V30 7122 H 666.623 2.98888 -0.246131 0
M  V30 7123 H 664.176 1.5542 -0.165622 0
M  V30 7124 H 664.911 2.34205 2.24317 0
M  V30 7125 H 664.696 3.74606 1.15812 0
M  V30 7126 H 666.186 3.58857 2.13569 0
M  V30 7127 N 666.623 0.143563 1.56945 0
M  V30 7128 C 667.533 -0.810562 2.20152 0
M  V30 7129 C 668.549 -1.27431 1.1848 0
M  V30 7130 O 669.725 -1.33221 1.51044 0
M  V30 7131 C 666.79 -2.03353 2.80799 0
M  V30 7132 C 665.851 -1.61936 3.97587 0
M  V30 7133 C 665.084 -2.78403 4.55332 0
M  V30 7134 O 665.307 -3.94521 4.11958 0
M  V30 7135 O 664.241 -2.54073 5.45647 0
M  V30 7136 H 668.067 -0.30253 3.02189 0
M  V30 7137 H 665.652 -0.0832925 1.49168 0
M  V30 7138 H 667.534 -2.74932 3.19359 0
M  V30 7139 H 666.209 -2.53116 2.01777 0
M  V30 7140 H 665.116 -0.873904 3.6375 0
M  V30 7141 H 666.449 -1.16892 4.78118 0
M  V30 7142 N 668.101 -1.57061 -0.130224 0
M  V30 7143 C 669.35 -1.83446 -0.838488 0
M  V30 7144 C 669.663 -0.727468 -1.81569 0
M  V30 7145 O 670.869 -0.877394 -2.56932 0
M  V30 7146 C 669.325 -3.25201 -1.54182 0
M  V30 7147 C 668.933 -4.4388 -0.606178 0
M  V30 7148 C 670.677 -3.60844 -2.23588 0
M  V30 7149 C 668.584 -5.76661 -1.31209 0
M  V30 7150 H 667.514 -0.684185 -0.316871 0
M  V30 7151 H 670.165 -1.83273 -0.0912059 0
M  V30 7152 H 668.547 -3.1981 -2.33533 0
M  V30 7153 H 669.721 -4.60545 0.153308 0
M  V30 7154 H 668.036 -4.16395 -0.0196705 0
M  V30 7155 H 670.633 -4.57313 -2.77072 0
M  V30 7156 H 670.976 -2.87724 -3.00867 0
M  V30 7157 H 671.509 -3.67971 -1.51137 0
M  V30 7158 H 668.248 -6.52922 -0.580823 0
M  V30 7159 H 667.768 -5.63902 -2.04387 0
M  V30 7160 H 669.447 -6.20035 -1.8484 0
M  V30 7161 N 669.579 0.400081 -1.52437 0
M  V30 7162 C 670.542 1.4707 -1.75793 0
M  V30 7163 C 671.542 1.48036 -0.627856 0
M  V30 7164 O 672.732 1.49401 -0.895817 0
M  V30 7165 C 669.864 2.86427 -1.84858 0
M  V30 7166 H 671.057 1.27649 -2.71377 0
M  V30 7167 H 668.61 0.631141 -1.42991 0
M  V30 7168 H 669.345 3.11207 -0.912194 0
M  V30 7169 H 669.13 2.87128 -2.6702 0
M  V30 7170 H 670.62 3.64023 -2.04638 0
M  V30 7171 N 671.057 1.43213 0.657864 0
M  V30 7172 C 672.004 1.48011 1.77092 0
M  V30 7173 C 672.974 0.330291 1.62783 0
M  V30 7174 O 674.159 0.536787 1.83094 0
M  V30 7175 C 671.299 1.40461 3.15222 0
M  V30 7176 C 670.412 2.65612 3.40697 0
M  V30 7177 C 669.547 2.50083 4.68649 0
M  V30 7178 C 668.586 3.70525 4.87214 0
M  V30 7179 N 667.723 3.53835 6.0642 0
M  V30 7180 H 672.563 2.43121 1.72326 0
M  V30 7181 H 670.1 1.20687 0.841013 0
M  V30 7182 H 672.058 1.34079 3.95068 0
M  V30 7183 H 670.688 0.489359 3.19069 0
M  V30 7184 H 669.74 2.82292 2.54982 0
M  V30 7185 H 671.052 3.5509 3.50303 0
M  V30 7186 H 670.206 2.41383 5.56614 0
M  V30 7187 H 668.945 1.58121 4.61356 0
M  V30 7188 H 667.95 3.79639 3.97686 0
M  V30 7189 H 669.175 4.63489 4.96341 0
M  V30 7190 H 667.121 2.64604 6.00267 0
M  V30 7191 H 667.038 4.36912 6.16963 0
M  V30 7192 H 668.306 3.48978 6.97019 0
M  V30 7193 N 672.536 -0.895792 1.29666 0
M  V30 7194 C 673.486 -1.98736 1.1175 0
M  V30 7195 C 674.47 -1.6086 0.0357834 0
M  V30 7196 O 675.662 -1.75111 0.257926 0
M  V30 7197 C 672.791 -3.33845 0.800156 0
M  V30 7198 C 671.877 -3.78068 1.9216 0
M  V30 7199 N 672.268 -3.94489 3.16563 0
M  V30 7200 C 670.566 -4.07376 1.81552 0
M  V30 7201 C 671.267 -4.31819 3.89753 0
M  V30 7202 N 670.243 -4.41081 3.17724 0
M  V30 7203 H 674.045 -2.09507 2.06117 0
M  V30 7204 H 671.559 -1.08488 1.20848 0
M  V30 7205 H 673.556 -4.11757 0.652841 0
M  V30 7206 H 672.216 -3.24417 -0.135551 0
M  V30 7207 H 673.227 -3.79914 3.51974 0
M  V30 7208 H 669.904 -4.06483 0.952787 0
M  V30 7209 H 671.294 -4.52337 4.96831 0
M  V30 7210 N 674.014 -1.12206 -1.10668 0
M  V30 7211 C 675.254 -0.885935 -1.84202 0
M  V30 7212 C 675.618 0.577849 -1.83098 0
M  V30 7213 O 676.819 0.931051 -2.5216 0
M  V30 7214 C 675.09 -1.44197 -3.2702 0
M  V30 7215 S 676.649 -1.34402 -4.1771 0
M  V30 7216 H 673.467 -0.319653 -0.635093 0
M  V30 7217 H 676.069 -1.43112 -1.33189 0
M  V30 7218 H 674.773 -2.50096 -3.25392 0
M  V30 7219 H 674.304 -0.894173 -3.83103 0
M  V30 7220 H 676.319 -0.313873 -4.95206 0
M  V30 7221 N 675.492 1.28418 -0.913599 0
M  V30 7222 C 676.74 1.94596 -0.545594 0
M  V30 7223 C 677.061 1.7227 0.913668 0
M  V30 7224 O 676.331 1.06233 1.64595 0
M  V30 7225 H 674.911 0.720065 -0.198783 0
M  V30 7226 H 677.573 1.56404 -1.16292 0
M  V30 7227 H 676.669 3.03202 -0.739911 0
M  V30 7228 N 676.97 0.677563 1.42291 0
M  V30 7229 C 678.217 0.200975 2.015 0
M  V30 7230 C 678.545 -1.19342 1.53583 0
M  V30 7231 O 677.8 -1.81579 0.7299 0
M  V30 7232 C 678.099 0.187229 3.56909 0
M  V30 7233 C 677.765 1.52667 4.24268 0
M  V30 7234 C 676.427 1.89341 4.42384 0
M  V30 7235 C 678.779 2.40869 4.62203 0
M  V30 7236 C 676.107 3.13836 4.95705 0
M  V30 7237 C 678.459 3.64679 5.16906 0
M  V30 7238 C 677.123 4.01519 5.33234 0
M  V30 7239 H 676.393 0.0735418 0.737342 0
M  V30 7240 H 679.04 0.873095 1.70439 0
M  V30 7241 H 677.345 -0.568407 3.87655 0
M  V30 7242 H 679.042 -0.198773 4.00507 0
M  V30 7243 H 675.632 1.23138 4.1053 0
M  V30 7244 H 679.816 2.1382 4.47878 0
M  V30 7245 H 675.072 3.42396 5.06532 0
M  V30 7246 H 679.246 4.33224 5.45243 0
M  V30 7247 H 676.873 4.98062 5.74316 0
M  V30 7248 N 678.448 -1.51871 0.421078 0
M  V30 7249 C 679.395 -2.27334 -0.398508 0
M  V30 7250 C 680.365 -1.30241 -1.03085 0
M  V30 7251 O 681.55 -1.59121 -1.05285 0
M  V30 7252 C 678.69 -3.10664 -1.50272 0
M  V30 7253 C 677.803 -4.2273 -0.890122 0
M  V30 7254 C 676.938 -4.93399 -1.96803 0
M  V30 7255 C 675.977 -5.97409 -1.333 0
M  V30 7256 N 675.114 -6.61548 -2.35156 0
M  V30 7257 H 679.954 -2.96938 0.251411 0
M  V30 7258 H 677.491 -1.46472 0.135825 0
M  V30 7259 H 679.449 -3.57292 -2.15403 0
M  V30 7260 H 678.079 -2.43207 -2.1225 0
M  V30 7261 H 677.131 -3.80186 -0.127537 0
M  V30 7262 H 678.443 -4.97302 -0.386349 0
M  V30 7263 H 677.597 -5.43491 -2.69633 0
M  V30 7264 H 676.336 -4.18421 -2.50549 0
M  V30 7265 H 675.341 -5.46624 -0.59008 0
M  V30 7266 H 676.566 -6.74335 -0.803076 0
M  V30 7267 H 674.512 -5.89394 -2.88012 0
M  V30 7268 H 674.429 -7.31832 -1.89624 0
M  V30 7269 H 675.697 -7.16276 -3.0752 0
M  V30 7270 N 679.926 -0.151884 -1.56866 0
M  V30 7271 C 681.156 0.504081 -2.00356 0
M  V30 7272 C 681.564 1.58639 -1.03103 0
M  V30 7273 O 680.907 1.83688 -0.0207931 0
M  V30 7274 C 680.969 1.15975 -3.40279 0
M  V30 7275 C 680.633 0.221453 -4.56463 0
M  V30 7276 C 681.63 -0.552766 -5.16953 0
M  V30 7277 C 679.315 0.122936 -5.0215 0
M  V30 7278 C 681.309 -1.4129 -6.21543 0
M  V30 7279 C 678.996 -0.740801 -6.06593 0
M  V30 7280 C 679.994 -1.50732 -6.6616 0
M  V30 7281 O 679.682 -2.35666 -7.68581 0
M  V30 7282 H 679.414 0.135279 -0.662326 0
M  V30 7283 H 681.968 -0.244916 -2.03935 0
M  V30 7284 H 680.198 1.95649 -3.33554 0
M  V30 7285 H 681.887 1.71594 -3.67846 0
M  V30 7286 H 682.653 -0.486716 -4.82552 0
M  V30 7287 H 678.532 0.70931 -4.5551 0
M  V30 7288 H 682.076 -2.01166 -6.67966 0
M  V30 7289 H 677.973 -0.808125 -6.40421 0
M  V30 7290 H 678.741 -2.28967 -7.85822 0
M  V30 7291 N 681.404 1.57128 0.121893 0
M  V30 7292 C 682.351 2.0013 1.14964 0
M  V30 7293 C 683.321 0.872959 1.4131 0
M  V30 7294 O 684.506 1.13696 1.53225 0
M  V30 7295 C 681.646 2.40824 2.4718 0
M  V30 7296 C 680.759 3.67061 2.27794 0
M  V30 7297 C 679.894 3.96749 3.53219 0
M  V30 7298 C 678.933 5.16178 3.28978 0
M  V30 7299 N 678.07 5.41751 4.46599 0
M  V30 7300 H 682.91 2.8772 0.775947 0
M  V30 7301 H 680.447 1.42328 0.371652 0
M  V30 7302 H 682.405 2.62454 3.24305 0
M  V30 7303 H 681.035 1.56279 2.82448 0
M  V30 7304 H 680.087 3.53063 1.416 0
M  V30 7305 H 681.399 4.5434 2.05857 0
M  V30 7306 H 680.553 4.19012 4.38764 0
M  V30 7307 H 679.292 3.07941 3.78185 0
M  V30 7308 H 678.297 4.93762 2.41824 0
M  V30 7309 H 679.522 6.06561 3.05386 0
M  V30 7310 H 677.468 4.55899 4.71691 0
M  V30 7311 H 677.385 6.23347 4.27756 0
M  V30 7312 H 678.653 5.68531 5.33285 0
M  V30 7313 N 682.882 -0.391992 1.52647 0
M  V30 7314 C 683.812 -1.48517 1.8018 0
M  V30 7315 C 684.793 -1.57039 0.653667 0
M  V30 7316 O 685.978 -1.72036 0.900962 0
M  V30 7317 C 683.108 -2.86161 1.96797 0
M  V30 7318 C 682.062 -2.92481 3.12472 0
M  V30 7319 C 681.388 -4.32546 3.14338 0
M  V30 7320 C 682.688 -2.624 4.51601 0
M  V30 7321 H 684.382 -1.25726 2.71723 0
M  V30 7322 H 681.928 -0.603387 1.30749 0
M  V30 7323 H 683.881 -3.62639 2.14641 0
M  V30 7324 H 682.605 -3.10283 1.01941 0
M  V30 7325 H 681.264 -2.18451 2.94406 0
M  V30 7326 H 680.912 -4.53703 2.1717 0
M  V30 7327 H 680.612 -4.37695 3.92042 0
M  V30 7328 H 682.136 -5.10934 3.34333 0
M  V30 7329 H 683.55 -3.28596 4.69785 0
M  V30 7330 H 681.947 -2.78903 5.3135 0
M  V30 7331 H 683.017 -1.57754 4.58521 0
M  V30 7332 N 684.36 -1.4356 -0.65026 0
M  V30 7333 C 685.588 -1.48779 -1.43779 0
M  V30 7334 C 686.003 -0.106593 -1.88499 0
M  V30 7335 O 685.36 0.883766 -1.59674 0
M  V30 7336 C 685.411 -2.43618 -2.67081 0
M  V30 7337 O 685.132 -3.76367 -2.24231 0
M  V30 7338 C 686.633 -2.5811 -3.60409 0
M  V30 7339 H 683.853 -0.50521 -0.441593 0
M  V30 7340 H 686.397 -1.88332 -0.796941 0
M  V30 7341 H 684.552 -2.07253 -3.273 0
M  V30 7342 H 684.966 -4.27394 -3.0403 0
M  V30 7343 H 686.44 -3.28539 -4.43583 0
M  V30 7344 H 686.917 -1.627 -4.07953 0
M  V30 7345 H 687.523 -2.95298 -3.0607 0
M  V30 7346 N 685.838 0.888903 -1.30139 0
M  V30 7347 C 687.087 1.63507 -1.18103 0
M  V30 7348 C 687.4 1.93808 0.264141 0
M  V30 7349 O 688.606 2.66744 0.505966 0
M  V30 7350 C 687.062 2.94673 -2.0663 0
M  V30 7351 C 686.67 2.71926 -3.56034 0
M  V30 7352 C 688.414 3.72626 -2.03346 0
M  V30 7353 C 686.321 3.98884 -4.3663 0
M  V30 7354 H 685.251 0.613426 -0.438435 0
M  V30 7355 H 687.902 0.984427 -1.54859 0
M  V30 7356 H 686.284 3.61009 -1.62754 0
M  V30 7357 H 687.458 2.14116 -4.08033 0
M  V30 7358 H 685.773 2.07353 -3.61101 0
M  V30 7359 H 688.37 4.66775 -2.60816 0
M  V30 7360 H 688.713 4.03712 -1.016 0
M  V30 7361 H 689.246 3.13147 -2.45324 0
M  V30 7362 H 685.985 3.72959 -5.39056 0
M  V30 7363 H 685.505 4.56214 -3.89396 0
M  V30 7364 H 687.184 4.66938 -4.47859 0
M  V30 7365 N 687.317 1.12792 1.10072 0
M  V30 7366 C 688.563 0.886857 1.82381 0
M  V30 7367 C 688.896 -0.58576 1.85155 0
M  V30 7368 O 688.171 -1.43317 1.31493 0
M  V30 7369 C 688.454 1.46703 3.28862 0
M  V30 7370 C 688.307 3.00829 3.34398 0
M  V30 7371 C 689.626 1.12971 4.25353 0
M  V30 7372 H 686.745 0.32362 0.662148 0
M  V30 7373 H 689.387 1.39513 1.28982 0
M  V30 7374 H 687.537 1.03476 3.74466 0
M  V30 7375 H 689.209 3.52764 2.97247 0
M  V30 7376 H 687.452 3.36164 2.74183 0
M  V30 7377 H 688.123 3.36519 4.3756 0
M  V30 7378 H 690.599 1.50313 3.88001 0
M  V30 7379 H 689.475 1.56223 5.26199 0
M  V30 7380 H 689.736 0.0424452 4.4208 0
M  V30 7381 N 688.795 -1.27931 0.920396 0
M  V30 7382 C 690.043 -1.94304 0.555906 0
M  V30 7383 C 690.364 -1.72753 -0.904519 0
M  V30 7384 O 689.634 -1.07104 -1.64029 0
M  V30 7385 H 688.214 -0.719001 0.202599 0
M  V30 7386 H 690.876 -1.55785 1.1712 0
M  V30 7387 H 689.972 -3.02806 0.755981 0
M  V30 7388 N 690.273 -0.685099 -1.4193 0
M  V30 7389 C 691.55 -0.140152 -1.95097 0
M  V30 7390 C 691.93 1.34745 -1.62502 0
M  V30 7391 O 691.278 2.08872 -0.926534 0
M  V30 7392 C 691.488 -0.420268 -3.4646 0
M  V30 7393 C 692.836 -0.342338 -4.23218 0
M  V30 7394 O 693.86 -0.354592 -3.54431 0
M  V30 7395 O 692.719 -0.293404 -5.45712 0
M  V30 7396 H 689.813 -0.00885998 -0.826953 0
M  V30 7397 H 692.359 -0.760539 -1.51703 0
M  V30 7398 H 691.131 -1.45037 -3.63428 0
M  V30 7399 H 690.754 0.231616 -3.96925 0
M  V30 7400 N 691.751 1.51645 -0.429126 0
M  V30 7401 C 692.999 2.01616 0.139802 0
M  V30 7402 C 693.32 1.31568 1.43927 0
M  V30 7403 O 692.59 0.447688 1.90716 0
M  V30 7404 H 691.17 0.744998 0.054654 0
M  V30 7405 H 693.832 1.8638 -0.569952 0
M  V30 7406 H 692.928 3.10439 0.321609 0
M  V30 7407 N 693.229 0.160201 1.56784 0
M  V30 7408 C 694.176 -0.774416 2.1742 0
M  V30 7409 C 695.146 -1.23483 1.11091 0
M  V30 7410 O 696.331 -1.30499 1.39193 0
M  V30 7411 C 693.471 -2.00283 2.81035 0
M  V30 7412 C 692.584 -1.58701 4.01793 0
M  V30 7413 C 691.719 -2.76824 4.53367 0
M  V30 7414 C 690.758 -2.31679 5.66561 0
M  V30 7415 N 689.895 -3.42856 6.12694 0
M  V30 7416 H 694.735 -0.250542 2.96945 0
M  V30 7417 H 692.272 -0.111943 1.46673 0
M  V30 7418 H 694.23 -2.72316 3.16069 0
M  V30 7419 H 692.86 -2.5006 2.04132 0
M  V30 7420 H 691.912 -0.76384 3.72652 0
M  V30 7421 H 693.224 -1.21555 4.83762 0
M  V30 7422 H 692.378 -3.57029 4.90525 0
M  V30 7423 H 691.117 -3.17223 3.70433 0
M  V30 7424 H 690.122 -1.49917 5.28966 0
M  V30 7425 H 691.347 -1.9235 6.5129 0
M  V30 7426 H 689.293 -3.82852 5.32692 0
M  V30 7427 H 689.21 -3.09767 6.89624 0
M  V30 7428 H 690.478 -4.23379 6.545 0
M  V30 7429 N 694.707 -1.5719 -0.113559 0
M  V30 7430 C 695.937 -1.89053 -0.833212 0
M  V30 7431 C 696.345 -0.750139 -1.73694 0
M  V30 7432 O 695.688 0.287808 -1.81431 0
M  V30 7433 C 695.75 -3.15986 -1.71443 0
M  V30 7434 C 695.414 -4.46271 -0.984449 0
M  V30 7435 C 696.411 -5.18897 -0.322741 0
M  V30 7436 C 694.096 -4.92963 -0.964011 0
M  V30 7437 C 696.09 -6.3644 0.349646 0
M  V30 7438 C 693.777 -6.10422 -0.287828 0
M  V30 7439 C 694.775 -6.82009 0.36784 0
M  V30 7440 O 694.463 -7.97233 1.03322 0
M  V30 7441 H 694.195 -0.630225 -0.244526 0
M  V30 7442 H 696.749 -2.05152 -0.100847 0
M  V30 7443 H 694.979 -2.95984 -2.48858 0
M  V30 7444 H 696.668 -3.33826 -2.309 0
M  V30 7445 H 697.434 -4.83875 -0.330114 0
M  V30 7446 H 693.313 -4.37143 -1.46379 0
M  V30 7447 H 696.857 -6.92254 0.861996 0
M  V30 7448 H 692.754 -6.449 -0.278237 0
M  V30 7449 H 693.522 -8.13105 0.938247 0
M  V30 7450 N 696.185 0.383891 -1.52853 0
M  V30 7451 C 697.433 1.12619 -1.67814 0
M  V30 7452 C 697.754 1.90354 -0.423141 0
M  V30 7453 O 697.024 1.87649 0.562554 0
M  V30 7454 H 695.604 0.418738 -0.618601 0
M  V30 7455 H 698.266 0.43495 -1.89985 0
M  V30 7456 H 697.362 1.82624 -2.5309 0
M  V30 7457 N 697.663 1.43903 0.642637 0
M  V30 7458 C 698.626 1.49538 1.73698 0
M  V30 7459 C 699.626 0.378776 1.56275 0
M  V30 7460 O 700.816 0.64095 1.6198 0
M  V30 7461 C 697.948 1.35821 3.12675 0
M  V30 7462 H 699.141 2.47008 1.70079 0
M  V30 7463 H 696.694 1.30824 0.85526 0
M  V30 7464 H 697.429 0.393994 3.21898 0
M  V30 7465 H 697.214 2.16776 3.26727 0
M  V30 7466 H 698.704 1.4272 3.92455 0
M  V30 7467 N 699.141 -0.881989 1.30609 0
M  V30 7468 C 700.557 -1.16576 1.09005 0
M  V30 7469 C 700.757 -2.00961 -0.14727 0
M  V30 7470 O 699.813 -2.38117 -0.840036 0
M  V30 7471 C 701.126 -1.86954 2.35518 0
M  V30 7472 C 702.674 -1.99706 2.41011 0
M  V30 7473 C 703.149 -2.73497 3.67374 0
M  V30 7474 N 704.64 -2.8104 3.68199 0
M  V30 7475 C 705.375 -3.38718 4.62664 0
M  V30 7476 N 704.871 -3.97421 5.67475 0
M  V30 7477 N 706.664 -3.36561 4.50203 0
M  V30 7478 H 698.815 -0.319398 2.09985 0
M  V30 7479 H 701.078 -0.204058 0.925778 0
M  V30 7480 H 700.784 -1.32393 3.2583 0
M  V30 7481 H 700.658 -2.87317 2.44395 0
M  V30 7482 H 703.045 -2.53436 1.51176 0
M  V30 7483 H 703.126 -0.984218 2.36108 0
M  V30 7484 H 702.77 -2.20438 4.57569 0
M  V30 7485 H 702.7 -3.75163 3.6954 0
M  V30 7486 H 705.191 -2.39365 2.92426 0
M  V30 7487 H 705.504 -4.39507 6.35652 0
M  V30 7488 H 703.849 -3.95832 5.71264 0
M  V30 7489 H 707.04 -2.8993 3.67503 0
M  V30 7490 H 707.213 -3.81215 5.24003 0
M  V30 7491 N 700.619 -1.13374 -1.09472 0
M  V30 7492 C 701.896 -0.806329 -1.78207 0
M  V30 7493 C 702.276 0.702191 -1.99079 0
M  V30 7494 O 701.624 1.63931 -1.59182 0
M  V30 7495 C 701.834 -1.59271 -3.10538 0
M  V30 7496 C 703.182 -1.78509 -3.85253 0
M  V30 7497 O 704.206 -1.55866 -3.20288 0
M  V30 7498 O 703.065 -2.16287 -5.01879 0
M  V30 7499 H 700.159 -0.29435 -0.772843 0
M  V30 7500 H 702.705 -1.23833 -1.16033 0
M  V30 7501 H 701.477 -2.61792 -2.90828 0
M  V30 7502 H 701.1 -1.15562 -3.80436 0
M  V30 7503 N 702.098 1.27442 -0.927168 0
M  V30 7504 C 703.061 2.2512 -0.430525 0
M  V30 7505 C 704.061 1.54357 0.450619 0
M  V30 7506 O 705.251 1.72371 0.251774 0
M  V30 7507 C 702.383 3.38763 0.381144 0
M  V30 7508 H 703.576 2.70569 -1.29354 0
M  V30 7509 H 701.129 1.39355 -0.707806 0
M  V30 7510 H 701.864 2.98695 1.263 0
M  V30 7511 H 701.649 3.91298 -0.250618 0
M  V30 7512 H 703.139 4.11364 0.719012 0
M  V30 7513 N 703.576 0.692616 1.41565 0
M  V30 7514 C 704.853 0.150496 1.9502 0
M  V30 7515 C 705.233 -1.33881 1.63215 0
M  V30 7516 O 704.581 -2.08378 0.937598 0
M  V30 7517 C 704.791 0.438636 3.46233 0
M  V30 7518 C 706.139 0.364777 4.2303 0
M  V30 7519 O 707.163 0.373383 3.54238 0
M  V30 7520 O 706.022 0.32234 5.45549 0
M  V30 7521 H 703.116 0.0132454 0.826894 0
M  V30 7522 H 705.662 0.768574 1.51298 0
M  V30 7523 H 704.434 1.46962 3.62654 0
M  V30 7524 H 704.057 -0.210562 3.97042 0
M  V30 7525 N 705.054 -1.51416 0.437162 0
M  V30 7526 C 706.282 -2.06503 -0.128045 0
M  V30 7527 C 706.697 -1.30461 -1.36475 0
M  V30 7528 O 706.054 -0.364127 -1.78831 0
M  V30 7529 C 706.105 -3.58683 -0.450437 0
M  V30 7530 O 705.826 -4.31853 0.737186 0
M  V30 7531 C 707.327 -4.30284 -1.06633 0
M  V30 7532 H 704.547 -0.670952 -0.00800269 0
M  V30 7533 H 707.091 -1.94996 0.616193 0
M  V30 7534 H 705.246 -3.70106 -1.14457 0
M  V30 7535 H 705.66 -5.22467 0.461347 0
M  V30 7536 H 707.134 -5.37848 -1.24191 0
M  V30 7537 H 707.611 -3.88564 -2.0473 0
M  V30 7538 H 708.217 -4.23304 -0.411585 0
M  V30 7539 N 706.532 -0.168513 -1.56696 0
M  V30 7540 C 707.479 0.762875 -2.17828 0
M  V30 7541 C 708.449 1.22892 -1.11745 0
M  V30 7542 O 709.634 1.29759 -1.39883 0
M  V30 7543 C 706.774 1.9879 -2.82093 0
M  V30 7544 C 705.887 1.56568 -4.02629 0
M  V30 7545 C 705.022 2.74416 -4.54829 0
M  V30 7546 C 704.061 2.28671 -5.67782 0
M  V30 7547 N 703.198 3.39602 -6.14504 0
M  V30 7548 H 708.038 0.23479 -2.97074 0
M  V30 7549 H 705.575 0.104163 -1.46731 0
M  V30 7550 H 707.533 2.70636 -3.17509 0
M  V30 7551 H 706.163 2.48973 -2.05456 0
M  V30 7552 H 705.215 0.744067 -3.73052 0
M  V30 7553 H 706.527 1.18988 -4.844 0
M  V30 7554 H 705.681 3.54423 -4.92412 0
M  V30 7555 H 704.42 3.15254 -3.7211 0
M  V30 7556 H 703.425 1.4711 -5.29753 0
M  V30 7557 H 704.65 1.88894 -6.52301 0
M  V30 7558 H 702.596 3.80021 -5.34715 0
M  V30 7559 H 702.513 3.06105 -6.91257 0
M  V30 7560 H 703.781 4.19902 -6.56737 0
M  V30 7561 N 708.01 1.57248 0.105221 0
M  V30 7562 C 709.259 1.84756 0.809198 0
M  V30 7563 C 709.572 0.756262 1.80389 0
M  V30 7564 O 710.778 0.918158 2.55504 0
M  V30 7565 C 709.234 3.27613 1.48989 0
M  V30 7566 C 708.842 4.44788 0.535484 0
M  V30 7567 C 710.586 3.64356 2.17819 0
M  V30 7568 C 708.493 5.78676 1.22019 0
M  V30 7569 H 707.423 0.689139 0.305946 0
M  V30 7570 H 710.074 1.83395 0.0620371 0
M  V30 7571 H 708.456 3.23485 2.28415 0
M  V30 7572 H 709.63 4.60243 -0.226557 0
M  V30 7573 H 707.945 4.16374 -0.0465769 0
M  V30 7574 H 710.542 4.61663 2.69761 0
M  V30 7575 H 710.885 2.92474 2.96251 0
M  V30 7576 H 711.418 3.70328 1.45264 0
M  V30 7577 H 708.157 6.53763 0.476875 0
M  V30 7578 H 707.677 5.67083 1.9539 0
M  V30 7579 H 709.356 6.22897 1.74952 0
M  V30 7580 N 709.488 -0.375779 1.53054 0
M  V30 7581 C 710.734 -1.11767 1.6994 0
M  V30 7582 C 711.089 -1.87288 0.440574 0
M  V30 7583 O 710.382 -1.83045 -0.566146 0
M  V30 7584 C 710.576 -2.11356 2.88207 0
M  V30 7585 C 710.405 -1.45619 4.25471 0
M  V30 7586 C 709.175 -1.21464 4.90484 0
M  V30 7587 C 711.373 -0.899276 5.06377 0
M  V30 7588 N 709.355 -0.519705 6.11696 0
M  V30 7589 C 710.726 -0.333138 6.19104 0
M  V30 7590 C 712.781 -0.79697 4.9148 0
M  V30 7591 C 711.484 0.325316 7.18564 0
M  V30 7592 C 713.51 -0.152315 5.91204 0
M  V30 7593 C 712.872 0.402994 7.03246 0
M  V30 7594 H 708.971 -0.394489 0.675206 0
M  V30 7595 H 711.555 -0.40541 1.90432 0
M  V30 7596 H 709.726 -2.79905 2.69272 0
M  V30 7597 H 711.458 -2.78148 2.93966 0
M  V30 7598 H 708.213 -1.49319 4.49445 0
M  V30 7599 H 708.637 -0.187896 6.76739 0
M  V30 7600 H 713.279 -1.21208 4.05054 0
M  V30 7601 H 710.997 0.752399 8.0459 0
M  V30 7602 H 714.583 -0.074223 5.81753 0
M  V30 7603 H 713.463 0.89394 7.79088 0
M  V30 7604 N 710.966 -1.44241 -0.634997 0
M  V30 7605 C 711.914 -1.51103 -1.76835 0
M  V30 7606 C 712.908 -0.383051 -1.65012 0
M  V30 7607 O 714.114 -0.557832 -1.71138 0
M  V30 7608 H 710.489 -0.474076 -0.583743 0
M  V30 7609 H 712.46 -2.46499 -1.68169 0
M  V30 7610 C 711.209 -1.4687 -3.15158 0
M  V30 7611 H 710.532 -2.32979 -3.24901 0
M  V30 7612 H 711.972 -1.55731 -3.94365 0
M  V30 7613 C 710.431 -0.188884 -3.3637 0
M  V30 7614 O 710.961 0.742487 -3.94778 0
M  V30 7615 N 709.167 -0.0932516 -2.9045 0
M  V30 7616 H 708.714 -0.852004 -2.43102 0
M  V30 7617 H 708.672 0.762308 -3.05018 0
M  V30 7618 N 712.444 0.87505 -1.31075 0
M  V30 7619 C 713.692 1.62447 -1.20231 0
M  V30 7620 C 714.013 1.93506 0.240888 0
M  V30 7621 O 713.283 1.57847 1.16022 0
M  V30 7622 H 711.863 0.602207 -0.441991 0
M  V30 7623 H 714.525 1.04788 -1.64334 0
M  V30 7624 H 713.621 2.57031 -1.77036 0
M  V30 7625 N 713.922 1.13953 1.08869 0
M  V30 7626 C 714.855 0.765765 2.14968 0
M  V30 7627 C 715.833 -0.250689 1.60656 0
M  V30 7628 O 717.017 -0.140852 1.87973 0
M  V30 7629 C 714.144 0.136146 3.38426 0
M  V30 7630 C 713.19 1.12201 4.11477 0
M  V30 7631 S 714.023 2.65711 4.64928 0
M  V30 7632 C 715.179 2.04125 5.91679 0
M  V30 7633 H 715.412 1.66444 2.46341 0
M  V30 7634 H 712.945 0.960263 1.20906 0
M  V30 7635 H 714.903 -0.220712 4.09906 0
M  V30 7636 H 713.564 -0.739887 3.05261 0
M  V30 7637 H 712.757 0.629398 5.00055 0
M  V30 7638 H 712.359 1.42262 3.45886 0
M  V30 7639 H 714.651 1.39381 6.63008 0
M  V30 7640 H 715.594 2.90808 6.45629 0
M  V30 7641 H 716.002 1.4905 5.44467 0
M  V30 7642 N 715.4 -1.26948 0.933913 0
M  V30 7643 C 716.646 -1.94374 0.57848 0
M  V30 7644 C 716.979 -1.73166 -0.879048 0
M  V30 7645 O 716.254 -1.06438 -1.62792 0
M  V30 7646 C 716.537 -3.4834 0.912739 0
M  V30 7647 C 716.39 -3.78866 2.42448 0
M  V30 7648 C 717.709 -4.38062 0.423003 0
M  V30 7649 H 714.828 -0.705959 0.211639 0
M  V30 7650 H 717.47 -1.49951 1.16682 0
M  V30 7651 H 715.62 -3.86309 0.412058 0
M  V30 7652 H 717.292 -3.50654 2.99733 0
M  V30 7653 H 715.535 -3.25198 2.87104 0
M  V30 7654 H 716.206 -4.86458 2.60887 0
M  V30 7655 H 718.682 -4.0728 0.852191 0
M  V30 7656 H 717.558 -5.44599 0.685776 0
M  V30 7657 H 717.819 -4.36886 -0.676994 0
M  V30 7658 N 716.879 -0.700114 -1.41195 0
M  V30 7659 C 718.127 -0.232546 -2.00758 0
M  V30 7660 C 718.448 1.1734 -1.55745 0
M  V30 7661 O 717.718 1.79262 -0.790058 0
M  V30 7662 H 716.298 -0.0829845 -0.742376 0
M  V30 7663 H 718.96 -0.902289 -1.72756 0
M  V30 7664 H 718.056 -0.253521 -3.11069 0
M  V30 7665 N 718.357 1.51182 -0.445186 0
M  V30 7666 C 719.267 2.31692 0.368255 0
M  V30 7667 C 720.283 1.40942 1.02036 0
M  V30 7668 O 721.459 1.74011 1.01401 0
M  V30 7669 C 718.524 3.14903 1.45041 0
M  V30 7670 C 717.585 4.21442 0.817615 0
M  V30 7671 C 716.818 5.00677 1.8482 0
M  V30 7672 O 717.041 4.80644 3.07145 0
M  V30 7673 O 715.975 5.84559 1.43438 0
M  V30 7674 H 719.801 3.0232 -0.289219 0
M  V30 7675 H 717.386 1.47951 -0.207555 0
M  V30 7676 H 719.268 3.66612 2.07783 0
M  V30 7677 H 717.943 2.47031 2.09182 0
M  V30 7678 H 716.85 3.73791 0.151931 0
M  V30 7679 H 718.183 4.9171 0.219564 0
M  V30 7680 N 719.835 0.176821 1.56605 0
M  V30 7681 C 720.765 -0.746841 2.21234 0
M  V30 7682 C 721.746 -1.23502 1.16967 0
M  V30 7683 O 722.931 -1.28718 1.45414 0
M  V30 7684 C 720.061 -1.97407 2.8574 0
M  V30 7685 C 719.015 -1.62153 3.96094 0
M  V30 7686 C 718.341 -2.92387 4.47676 0
M  V30 7687 C 719.641 -0.845353 5.15413 0
M  V30 7688 H 721.335 -0.208116 2.98676 0
M  V30 7689 H 718.881 -0.0986594 1.43662 0
M  V30 7690 H 720.834 -2.62531 3.2963 0
M  V30 7691 H 719.558 -2.53703 2.05676 0
M  V30 7692 H 718.217 -0.993964 3.52868 0
M  V30 7693 H 717.865 -3.46734 3.64396 0
M  V30 7694 H 717.565 -2.69551 5.22127 0
M  V30 7695 H 719.089 -3.5853 4.94255 0
M  V30 7696 H 720.503 -1.39929 5.55961 0
M  V30 7697 H 718.9 -0.715814 5.95815 0
M  V30 7698 H 719.97 0.157239 4.84645 0
M  V30 7699 N 721.313 -1.57302 -0.09688 0
M  V30 7700 C 722.559 -1.86273 -0.801885 0
M  V30 7701 C 722.892 -0.765694 -1.78468 0
M  V30 7702 O 722.167 0.226495 -1.93177 0
M  V30 7703 C 722.45 -3.25876 -1.53221 0
M  V30 7704 C 722.303 -4.46205 -0.567529 0
M  V30 7705 C 723.622 -3.63352 -2.48321 0
M  V30 7706 H 720.741 -0.67752 -0.29006 0
M  V30 7707 H 723.383 -1.89887 -0.0655577 0
M  V30 7708 H 721.533 -3.22926 -2.15988 0
M  V30 7709 H 723.205 -4.6127 0.0529982 0
M  V30 7710 H 721.448 -4.33636 0.119233 0
M  V30 7711 H 722.119 -5.40608 -1.11564 0
M  V30 7712 H 724.595 -3.67234 -1.95648 0
M  V30 7713 H 723.471 -4.61968 -2.9644 0
M  V30 7714 H 723.732 -2.91941 -3.31998 0
M  V30 7715 N 722.791 0.367657 -1.53252 0
M  V30 7716 C 724.021 1.12955 -1.72988 0
M  V30 7717 C 724.429 1.8358 -0.457708 0
M  V30 7718 O 723.772 1.74336 0.579006 0
M  V30 7719 C 723.834 2.20545 -2.83902 0
M  V30 7720 C 723.498 1.69704 -4.24323 0
M  V30 7721 C 724.495 1.16223 -5.06743 0
M  V30 7722 C 722.18 1.7528 -4.70725 0
M  V30 7723 C 724.174 0.689935 -6.33655 0
M  V30 7724 C 721.861 1.27662 -5.97617 0
M  V30 7725 C 722.859 0.746083 -6.78913 0
M  V30 7726 O 722.547 0.276925 -8.03423 0
M  V30 7727 H 722.279 0.343753 -0.582074 0
M  V30 7728 H 724.833 0.433106 -2.00782 0
M  V30 7729 H 723.063 2.93676 -2.51577 0
M  V30 7730 H 724.752 2.82111 -2.91836 0
M  V30 7731 H 725.518 1.11256 -4.72067 0
M  V30 7732 H 721.397 2.15515 -4.07522 0
M  V30 7733 H 724.941 0.275164 -6.97057 0
M  V30 7734 H 720.838 1.32322 -6.31792 0
M  V30 7735 H 721.606 0.396445 -8.17539 0
M  V30 7736 N 724.269 1.44576 0.627338 0
M  V30 7737 C 725.517 1.47267 1.38408 0
M  V30 7738 C 725.838 0.107971 1.94701 0
M  V30 7739 O 725.108 -0.860206 1.76004 0
M  V30 7740 H 723.688 0.542276 0.513756 0
M  V30 7741 H 726.35 1.80383 0.738099 0
M  V30 7742 H 725.446 2.20025 2.21349 0
M  V30 7743 N 725.747 -0.868086 1.31537 0
M  V30 7744 C 726.694 -1.97548 1.19346 0
M  V30 7745 C 727.664 -1.65913 0.0787922 0
M  V30 7746 O 728.849 -1.89129 0.251985 0
M  V30 7747 C 725.989 -3.32922 0.908692 0
M  V30 7748 C 725.102 -3.77141 2.10687 0
M  V30 7749 C 724.237 -5.01241 1.75873 0
M  V30 7750 C 723.276 -5.37914 2.92088 0
M  V30 7751 N 722.413 -6.53192 2.57457 0
M  V30 7752 H 727.253 -2.07307 2.14074 0
M  V30 7753 H 724.79 -1.01483 1.06487 0
M  V30 7754 H 726.748 -4.10867 0.724138 0
M  V30 7755 H 725.378 -3.228 -0.0017611 0
M  V30 7756 H 724.43 -2.94961 2.40213 0
M  V30 7757 H 725.742 -4.00248 2.97663 0
M  V30 7758 H 724.896 -5.86858 1.53891 0
M  V30 7759 H 723.635 -4.80041 0.86091 0
M  V30 7760 H 722.64 -4.50814 3.14717 0
M  V30 7761 H 723.865 -5.61077 3.82582 0
M  V30 7762 H 721.811 -6.33536 1.702 0
M  V30 7763 H 721.728 -6.76252 3.37963 0
M  V30 7764 H 722.996 -7.41997 2.38873 0
M  V30 7765 N 727.225 -1.14528 -1.08264 0
M  V30 7766 C 728.188 -0.83632 -2.13397 0
M  V30 7767 C 729.188 0.159715 -1.60005 0
M  V30 7768 O 730.378 -0.0688098 -1.74064 0
M  V30 7769 C 727.51 -0.246973 -3.40004 0
M  V30 7770 H 728.703 -1.76808 -2.42237 0
M  V30 7771 H 726.256 -0.951509 -1.24 0
M  V30 7772 H 726.991 0.693436 -3.168 0
M  V30 7773 H 726.776 -0.964412 -3.80055 0
M  V30 7774 H 728.266 -0.0480679 -4.17572 0
M  V30 7775 N 728.703 1.26451 -0.940633 0
M  V30 7776 C 729.98 1.88947 -0.505811 0
M  V30 7777 C 730.36 1.85011 1.01657 0
M  V30 7778 O 729.708 1.30406 1.87634 0
M  V30 7779 C 729.918 3.32304 -1.06654 0
M  V30 7780 C 731.266 4.09153 -1.13486 0
M  V30 7781 O 732.29 3.41371 -1.01708 0
M  V30 7782 O 731.149 5.30369 -1.31797 0
M  V30 7783 H 728.243 0.810422 -0.164759 0
M  V30 7784 H 730.789 1.34625 -1.03316 0
M  V30 7785 H 729.561 3.29527 -2.11015 0
M  V30 7786 H 729.184 3.94164 -0.521603 0
M  V30 7787 N 730.181 0.707592 1.40822 0
M  V30 7788 C 731.43 0.240705 2.00259 0
M  V30 7789 C 731.743 -1.17027 1.56729 0
M  V30 7790 O 732.949 -1.73526 2.08809 0
M  V30 7791 C 731.405 0.379432 3.57894 0
M  V30 7792 C 731.013 1.79654 4.104 0
M  V30 7793 C 732.757 -0.0270684 4.24491 0
M  V30 7794 C 730.664 1.88628 5.60512 0
M  V30 7795 H 729.594 0.0862369 0.749052 0
M  V30 7796 H 732.245 0.877528 1.61157 0
M  V30 7797 H 730.627 -0.325842 3.94657 0
M  V30 7798 H 731.801 2.53155 3.85032 0
M  V30 7799 H 730.116 2.15379 3.56372 0
M  V30 7800 H 732.713 0.0193743 5.34696 0
M  V30 7801 H 733.056 -1.06772 4.02375 0
M  V30 7802 H 733.589 0.628361 3.92806 0
M  V30 7803 H 730.328 2.90787 5.87472 0
M  V30 7804 H 729.848 1.19528 5.8777 0
M  V30 7805 H 731.527 1.6547 6.25483 0
M  V30 7806 N 731.66 -1.50943 0.453197 0
M  V30 7807 C 732.623 -2.26684 -0.338705 0
M  V30 7808 C 733.623 -1.30748 -0.936032 0
M  V30 7809 O 734.813 -1.54327 -0.808002 0
M  V30 7810 C 731.945 -3.07063 -1.48071 0
M  V30 7811 H 733.138 -2.98131 0.325289 0
M  V30 7812 H 730.691 -1.54926 0.206771 0
M  V30 7813 H 731.426 -2.4007 -2.18029 0
M  V30 7814 H 731.211 -3.77545 -1.0584 0
M  V30 7815 H 732.701 -3.64393 -2.0398 0
M  V30 7816 N 733.138 -0.185124 -1.56509 0
M  V30 7817 C 734.387 0.456421 -1.96468 0
M  V30 7818 C 734.7 1.63448 -1.07444 0
M  V30 7819 O 735.906 2.34316 -1.37143 0
M  V30 7820 C 734.362 0.863404 -3.4939 0
M  V30 7821 C 733.97 -0.289815 -4.47062 0
M  V30 7822 C 735.714 1.47259 -3.98139 0
M  V30 7823 C 733.621 0.137571 -5.9124 0
M  V30 7824 H 732.551 0.17429 -0.733579 0
M  V30 7825 H 735.202 -0.275554 -1.81419 0
M  V30 7826 H 733.584 1.65176 -3.59907 0
M  V30 7827 H 734.758 -1.06728 -4.4827 0
M  V30 7828 H 733.073 -0.809851 -4.08449 0
M  V30 7829 H 735.67 1.80463 -5.03326 0
M  V30 7830 H 736.013 2.3755 -3.41871 0
M  V30 7831 H 736.546 0.748405 -3.90696 0
M  V30 7832 H 733.285 -0.730907 -6.51412 0
M  V30 7833 H 732.805 0.8801 -5.93308 0
M  V30 7834 H 734.484 0.576771 -6.44424 0
M  V30 7835 N 734.616 1.57351 0.0885366 0
M  V30 7836 C 735.579 2.01557 1.09121 0
M  V30 7837 C 736.579 0.910052 1.3257 0
M  V30 7838 O 737.769 1.17537 1.28572 0
M  V30 7839 C 734.901 2.38189 2.43883 0
M  V30 7840 H 736.094 2.91361 0.710562 0
M  V30 7841 H 733.647 1.52694 0.333779 0
M  V30 7842 H 734.382 1.5136 2.86811 0
M  V30 7843 H 734.167 3.18846 2.28209 0
M  V30 7844 H 735.657 2.73025 3.15986 0
M  V30 7845 N 736.094 -0.359525 1.53444 0
M  V30 7846 C 737.505 -0.936009 1.61542 0
M  V30 7847 C 737.856 -1.90069 0.486633 0
M  V30 7848 O 736.981 -2.12929 -0.386047 0
M  V30 7849 C 737.576 -1.70441 2.92806 0
M  V30 7850 C 736.135 -2.23015 3.03218 0
M  V30 7851 C 735.282 -1.04438 2.56881 0
M  V30 7852 H 738.233 -0.138134 1.58098 0
M  V30 7853 H 738.254 -2.56609 2.80948 0
M  V30 7854 H 737.766 -1.00205 3.74941 0
M  V30 7855 H 735.867 -2.96475 2.25684 0
M  V30 7856 H 735.98 -2.50481 4.08407 0
M  V30 7857 H 734.344 -1.41314 2.11902 0
M  V30 7858 H 735.127 -0.356905 3.4144 0
M  V30 7859 N 737.572 -1.44907 -0.619662 0
M  V30 7860 C 738.502 -1.55488 -1.742 0
M  V30 7861 C 739.483 -0.407143 -1.65156 0
M  V30 7862 O 740.668 -0.628743 -1.8374 0
M  V30 7863 C 737.798 -1.5097 -3.1277 0
M  V30 7864 C 736.752 -2.64337 -3.36615 0
M  V30 7865 C 736.078 -2.44872 -4.75333 0
M  V30 7866 C 737.378 -4.06423 -3.28051 0
M  V30 7867 H 739.072 -2.49432 -1.65602 0
M  V30 7868 H 736.618 -1.20047 -0.795281 0
M  V30 7869 H 738.571 -1.56971 -3.91073 0
M  V30 7870 H 737.295 -0.535486 -3.2218 0
M  V30 7871 H 735.954 -2.57744 -2.60698 0
M  V30 7872 H 735.602 -1.45617 -4.81461 0
M  V30 7873 H 735.302 -3.20888 -4.92244 0
M  V30 7874 H 736.826 -2.52709 -5.55851 0
M  V30 7875 H 738.24 -4.14324 -3.96243 0
M  V30 7876 H 736.637 -4.82733 -3.56495 0
M  V30 7877 H 737.707 -4.29183 -2.25676 0
M  V30 7878 N 739.05 0.861098 -1.31996 0
M  V30 7879 C 740.278 1.6474 -1.25173 0
M  V30 7880 C 740.693 1.87926 0.181425 0
M  V30 7881 O 740.05 1.4437 1.1164 0
M  V30 7882 C 740.101 3.01036 -2.0015 0
M  V30 7883 O 739.822 2.7888 -3.37872 0
M  V30 7884 C 741.323 3.95481 -2.00273 0
M  V30 7885 H 738.543 0.513314 -0.432146 0
M  V30 7886 H 741.087 1.07419 -1.74016 0
M  V30 7887 H 739.242 3.55021 -1.55046 0
M  V30 7888 H 739.656 3.65514 -3.76165 0
M  V30 7889 H 741.13 4.88403 -2.57229 0
M  V30 7890 H 741.607 4.27957 -0.987407 0
M  V30 7891 H 742.213 3.47433 -2.45296 0
M  V30 7892 N 740.528 1.15101 1.07655 0
M  V30 7893 C 741.777 0.918528 1.79572 0
M  V30 7894 C 742.09 -0.555922 1.87534 0
M  V30 7895 O 743.296 -0.905893 2.55941 0
M  V30 7896 C 741.752 1.59394 3.22679 0
M  V30 7897 C 741.36 3.1052 3.22927 0
M  V30 7898 C 743.104 1.44289 3.99225 0
M  V30 7899 C 741.011 3.70862 4.60668 0
M  V30 7900 H 739.941 0.340006 0.672987 0
M  V30 7901 H 742.592 1.38079 1.20857 0
M  V30 7902 H 740.974 1.05936 3.81567 0
M  V30 7903 H 742.148 3.70708 2.737 0
M  V30 7904 H 740.463 3.25351 2.59876 0
M  V30 7905 H 743.06 1.86766 5.01022 0
M  V30 7906 H 743.403 0.389975 4.14469 0
M  V30 7907 H 743.936 1.94826 3.46825 0
M  V30 7908 H 740.675 4.7604 4.50628 0
M  V30 7909 H 740.195 3.15456 5.10145 0
M  V30 7910 H 741.874 3.71607 5.29639 0
M  V30 7911 N 742.006 -1.2595 0.947325 0
M  V30 7912 C 743.234 -1.97544 0.615127 0
M  V30 7913 C 743.649 -1.70484 -0.811221 0
M  V30 7914 O 743.006 -0.97662 -1.5417 0
M  V30 7915 C 743.057 -3.51236 0.855328 0
M  V30 7916 O 742.778 -3.77359 2.22558 0
M  V30 7917 C 744.279 -4.40066 0.534515 0
M  V30 7918 H 741.499 -0.629888 0.231263 0
M  V30 7919 H 744.043 -1.60308 1.26971 0
M  V30 7920 H 742.198 -3.8661 0.247266 0
M  V30 7921 H 742.612 -4.71857 2.29022 0
M  V30 7922 H 744.086 -5.46838 0.753168 0
M  V30 7923 H 744.563 -4.35982 -0.530701 0
M  V30 7924 H 745.169 -4.10245 1.12158 0
M  V30 7925 N 743.484 -0.715051 -1.40445 0
M  V30 7926 C 744.414 -0.0768699 -2.33373 0
M  V30 7927 C 745.395 0.746109 -1.52863 0
M  V30 7928 O 746.58 0.695142 -1.81332 0
M  V30 7929 C 743.71 0.846014 -3.36838 0
M  V30 7930 C 742.664 0.128694 -4.27806 0
M  V30 7931 C 741.99 1.16726 -5.21804 0
M  V30 7932 C 743.29 -1.01679 -5.12307 0
M  V30 7933 H 744.984 -0.853061 -2.8699 0
M  V30 7934 H 742.53 -0.41167 -1.3799 0
M  V30 7935 H 744.483 1.30185 -4.00786 0
M  V30 7936 H 743.207 1.6541 -2.81615 0
M  V30 7937 H 741.866 -0.307314 -3.6531 0
M  V30 7938 H 741.514 1.96838 -4.62887 0
M  V30 7939 H 741.214 0.692188 -5.83509 0
M  V30 7940 H 742.738 1.62321 -5.88629 0
M  V30 7941 H 744.152 -0.640337 -5.69713 0
M  V30 7942 H 742.549 -1.4202 -5.83053 0
M  V30 7943 H 743.619 -1.84769 -4.48317 0
M  V30 7944 N 744.962 1.50701 -0.461195 0
M  V30 7945 C 746.208 2.02566 0.0973411 0
M  V30 7946 C 746.541 1.3432 1.40257 0
M  V30 7947 O 745.816 0.465692 1.88843 0
M  V30 7948 C 746.099 3.58919 0.291423 0
M  V30 7949 C 745.952 4.37751 -1.03413 0
M  V30 7950 C 747.271 4.27379 1.05048 0
M  V30 7951 H 744.39 0.73622 0.0339026 0
M  V30 7952 H 747.032 1.80115 -0.604855 0
M  V30 7953 H 745.182 3.78179 0.889539 0
M  V30 7954 H 746.854 4.30085 -1.66806 0
M  V30 7955 H 745.097 4.01885 -1.63313 0
M  V30 7956 H 745.768 5.45384 -0.852085 0
M  V30 7957 H 748.244 4.12534 0.543603 0
M  V30 7958 H 747.12 5.36609 1.15506 0
M  V30 7959 H 747.381 3.89868 2.0846 0
M  V30 7960 N 746.441 0.193421 1.56409 0
M  V30 7961 C 747.857 -0.162447 1.58771 0
M  V30 7962 C 748.057 -1.6116 1.20954 0
M  V30 7963 O 747.113 -2.3469 0.931497 0
M  V30 7964 C 748.426 0.138391 3.00381 0
M  V30 7965 C 749.974 0.0783649 3.12902 0
M  V30 7966 C 750.449 0.352491 4.56642 0
M  V30 7967 N 751.94 0.30105 4.62221 0
M  V30 7968 C 752.675 0.487028 5.71328 0
M  V30 7969 N 752.171 0.733265 6.88909 0
M  V30 7970 N 753.964 0.4214 5.60518 0
M  V30 7971 H 746.115 1.13909 1.79272 0
M  V30 7972 H 748.378 0.454528 0.83193 0
M  V30 7973 H 748.084 1.14312 3.32604 0
M  V30 7974 H 747.958 -0.559804 3.73023 0
M  V30 7975 H 750.345 -0.916963 2.80492 0
M  V30 7976 H 750.426 0.809611 2.4265 0
M  V30 7977 H 750.07 1.34513 4.89764 0
M  V30 7978 H 750 -0.399624 5.25081 0
M  V30 7979 H 752.491 0.117279 3.77718 0
M  V30 7980 H 752.804 0.86403 7.67955 0
M  V30 7981 H 751.149 0.770138 6.9072 0
M  V30 7982 H 754.34 0.229461 4.67537 0
M  V30 7983 H 754.513 0.569758 6.4549 0
M  V30 7984 N 747.919 -1.57396 -0.0801906 0
M  V30 7985 C 748.829 -2.06451 -1.11423 0
M  V30 7986 C 749.845 -0.992352 -1.42928 0
M  V30 7987 O 751.021 -1.30651 -1.53272 0
M  V30 7988 C 748.086 -2.49164 -2.41077 0
M  V30 7989 C 747.147 -3.70641 -2.16619 0
M  V30 7990 C 746.38 -4.11307 -3.40092 0
M  V30 7991 O 746.603 -3.51922 -4.48895 0
M  V30 7992 O 745.537 -5.04157 -3.288 0
M  V30 7993 H 749.363 -2.94857 -0.727519 0
M  V30 7994 H 746.948 -1.46484 -0.293743 0
M  V30 7995 H 748.83 -2.77196 -3.17396 0
M  V30 7996 H 747.505 -1.6389 -2.79145 0
M  V30 7997 H 746.412 -3.47703 -1.38033 0
M  V30 7998 H 747.745 -4.5674 -1.83437 0
M  V30 7999 N 749.397 0.351382 -1.53633 0
M  V30 8000 C 750.307 1.45471 -1.84052 0
M  V30 8001 C 751.323 1.57945 -0.730015 0
M  V30 8002 O 752.499 1.73571 -1.02153 0
M  V30 8003 C 749.564 2.80562 -2.03681 0
M  V30 8004 C 748.625 2.77497 -3.27558 0
M  V30 8005 C 747.858 4.06144 -3.46241 0
M  V30 8006 O 748.081 5.03028 -2.68922 0
M  V30 8007 O 747.015 4.11092 -4.39645 0
M  V30 8008 H 750.841 1.22684 -2.77817 0
M  V30 8009 H 748.426 0.542827 -1.3919 0
M  V30 8010 H 750.308 3.6058 -2.18082 0
M  V30 8011 H 748.983 3.03296 -1.13106 0
M  V30 8012 H 747.89 1.96126 -3.18568 0
M  V30 8013 H 749.223 2.59716 -4.18101 0
M  V30 8014 N 750.875 1.45233 0.611969 0
M  V30 8015 C 752.121 1.49242 1.37312 0
M  V30 8016 C 752.454 0.131963 1.93751 0
M  V30 8017 O 751.729 -0.852999 1.74798 0
M  V30 8018 C 752.012 2.56811 2.52428 0
M  V30 8019 C 751.865 4.02284 2.01215 0
M  V30 8020 C 753.184 2.60705 3.54572 0
M  V30 8021 H 750.303 0.54336 0.497925 0
M  V30 8022 H 752.945 1.77019 0.690242 0
M  V30 8023 H 751.095 2.33256 3.10683 0
M  V30 8024 H 752.767 4.37035 1.47643 0
M  V30 8025 H 751.01 4.1315 1.32248 0
M  V30 8026 H 751.681 4.7323 2.84178 0
M  V30 8027 H 754.157 2.81799 3.06151 0
M  V30 8028 H 753.033 3.37841 4.32614 0
M  V30 8029 H 753.294 1.65627 4.09903 0
M  V30 8030 N 752.353 -0.854086 1.3245 0
M  V30 8031 C 753.602 -1.60318 1.22397 0
M  V30 8032 C 753.915 -1.9444 -0.212664 0
M  V30 8033 O 755.121 -2.67991 -0.435066 0
M  V30 8034 C 753.577 -2.8909 2.1437 0
M  V30 8035 C 753.185 -2.62391 3.63119 0
M  V30 8036 C 754.929 -3.67104 2.13155 0
M  V30 8037 C 752.836 -3.87167 4.47052 0
M  V30 8038 H 751.766 -0.601586 0.454544 0
M  V30 8039 H 754.417 -0.943023 1.57415 0
M  V30 8040 H 752.799 -3.56567 1.72268 0
M  V30 8041 H 753.973 -2.03222 4.13567 0
M  V30 8042 H 752.288 -1.97706 3.66471 0
M  V30 8043 H 754.885 -4.59696 2.731 0
M  V30 8044 H 755.228 -4.00876 1.12268 0
M  V30 8045 H 755.761 -3.06533 2.5354 0
M  V30 8046 H 752.5 -3.58536 5.48755 0
M  V30 8047 H 752.02 -4.45729 4.01355 0
M  V30 8048 H 753.699 -4.549 4.60081 0
M  V30 8049 N 753.831 -1.1567 -1.07043 0
M  V30 8050 C 755.108 -0.843948 -1.76456 0
M  V30 8051 C 755.488 0.659806 -2.00524 0
M  V30 8052 O 754.836 1.60518 -1.62623 0
M  V30 8053 C 755.046 -1.65822 -3.0709 0
M  V30 8054 C 756.394 -1.8664 -3.8138 0
M  V30 8055 O 757.418 -1.62624 -3.1691 0
M  V30 8056 O 756.277 -2.26884 -4.97178 0
M  V30 8057 H 753.371 -0.310677 -0.766426 0
M  V30 8058 H 755.917 -1.26266 -1.1338 0
M  V30 8059 H 754.689 -2.67902 -2.85209 0
M  V30 8060 H 754.312 -1.23605 -3.77899 0
M  V30 8061 N 755.309 1.25446 -0.953992 0
M  V30 8062 C 756.556 1.93143 -0.608429 0
M  V30 8063 C 756.884 1.74727 0.854451 0
M  V30 8064 O 756.139 1.0855 1.62836 0
M  V30 8065 C 756.438 3.45555 -0.912496 0
M  V30 8066 C 756.104 3.84126 -2.36131 0
M  V30 8067 C 754.766 3.94367 -2.75732 0
M  V30 8068 C 757.118 4.0324 -3.30223 0
M  V30 8069 C 754.446 4.21127 -4.08496 0
M  V30 8070 C 756.798 4.31493 -4.62598 0
M  V30 8071 C 755.462 4.3995 -5.01996 0
M  V30 8072 H 754.732 0.706762 -0.22264 0
M  V30 8073 H 757.379 1.49005 -1.20291 0
M  V30 8074 H 755.684 3.91091 -0.235618 0
M  V30 8075 H 757.381 3.9612 -0.623714 0
M  V30 8076 H 753.971 3.76711 -2.04418 0
M  V30 8077 H 758.155 3.94744 -3.00817 0
M  V30 8078 H 753.411 4.2589 -4.38665 0
M  V30 8079 H 757.585 4.45227 -5.35486 0
M  V30 8080 H 755.212 4.60439 -6.04896 0
M  V30 8081 N 756.787 0.722489 1.40064 0
M  V30 8082 C 758.012 0.273446 2.05589 0
M  V30 8083 C 758.437 -1.07875 1.54093 0
M  V30 8084 O 757.795 -1.68095 0.679252 0
M  V30 8085 C 757.843 0.271023 3.5958 0
M  V30 8086 O 756.947 -0.745499 4.05606 0
M  V30 8087 H 756.288 0.126856 0.65177 0
M  V30 8088 H 758.818 0.984906 1.79334 0
M  V30 8089 H 758.828 0.111084 4.07849 0
M  V30 8090 H 757.503 1.25776 3.96425 0
M  V30 8091 H 756.08 -0.552719 3.68781 0
M  V30 8092 N 758.265 -1.50454 0.469181 0
M  V30 8093 C 759.212 -2.28486 -0.325982 0
M  V30 8094 C 760.182 -1.33455 -0.988893 0
M  V30 8095 O 761.367 -1.6239 -1.0017 0
M  V30 8096 C 758.507 -3.15288 -1.40313 0
M  V30 8097 C 757.62 -4.25348 -0.755183 0
M  V30 8098 C 756.755 -4.9941 -1.81006 0
M  V30 8099 C 755.794 -6.01348 -1.14226 0
M  V30 8100 N 754.931 -6.68695 -2.1399 0
M  V30 8101 H 759.771 -2.95987 0.345753 0
M  V30 8102 H 757.308 -1.45965 0.182355 0
M  V30 8103 H 759.266 -3.63964 -2.03927 0
M  V30 8104 H 757.896 -2.49837 -2.04405 0
M  V30 8105 H 756.948 -3.80399 -0.00651901 0
M  V30 8106 H 758.26 -4.98279 -0.227941 0
M  V30 8107 H 757.414 -5.51794 -2.52206 0
M  V30 8108 H 756.153 -4.26181 -2.3711 0
M  V30 8109 H 755.158 -5.48225 -0.415876 0
M  V30 8110 H 756.383 -6.76548 -0.588135 0
M  V30 8111 H 754.329 -5.98258 -2.69115 0
M  V30 8112 H 754.246 -7.37495 -1.66246 0
M  V30 8113 H 755.514 -7.25697 -2.84576 0
M  V30 8114 N 759.743 -0.201713 -1.56304 0
M  V30 8115 C 761.154 0.309711 -1.84113 0
M  V30 8116 C 761.505 1.60912 -1.12258 0
M  V30 8117 O 760.63 2.12937 -0.385587 0
M  V30 8118 C 761.225 0.568706 -3.33993 0
M  V30 8119 C 759.784 1.02448 -3.6219 0
M  V30 8120 C 758.931 0.0766842 -2.77194 0
M  V30 8121 H 761.882 -0.425356 -1.52893 0
M  V30 8122 H 761.903 1.41721 -3.53122 0
M  V30 8123 H 761.415 -0.37719 -3.86263 0
M  V30 8124 H 759.516 1.98443 -3.15359 0
M  V30 8125 H 759.629 0.912619 -4.70328 0
M  V30 8126 H 757.993 0.579809 -2.48013 0
M  V30 8127 H 758.776 -0.863774 -3.32256 0
M  V30 8128 N 761.222 1.57436 0.0718424 0
M  V30 8129 C 762.469 1.87248 0.771007 0
M  V30 8130 C 762.797 0.793441 1.7758 0
M  V30 8131 O 762.052 -0.210565 1.94564 0
M  V30 8132 C 762.351 3.23723 1.51455 0
M  V30 8133 C 762.017 4.46194 0.649736 0
M  V30 8134 C 760.679 4.79438 0.411409 0
M  V30 8135 C 763.031 5.21176 0.05004 0
M  V30 8136 C 760.359 5.85077 -0.436096 0
M  V30 8137 C 762.711 6.27712 -0.784919 0
M  V30 8138 C 761.375 6.59457 -1.03312 0
M  V30 8139 H 760.645 0.685188 0.282132 0
M  V30 8140 H 763.292 1.91474 0.0317896 0
M  V30 8141 H 761.597 3.15287 2.32597 0
M  V30 8142 H 763.294 3.44023 2.06031 0
M  V30 8143 H 759.884 4.20175 0.84562 0
M  V30 8144 H 764.068 4.95806 0.221282 0
M  V30 8145 H 759.324 6.08071 -0.637136 0
M  V30 8146 H 763.498 6.84974 -1.25635 0
M  V30 8147 H 761.125 7.4114 -1.6916 0
M  V30 8148 N 762.7 -0.34323 1.53817 0
M  V30 8149 C 763.633 -1.44472 1.76644 0
M  V30 8150 C 764.611 -1.50498 0.615556 0
M  V30 8151 O 765.795 -1.6821 0.850751 0
M  V30 8152 C 762.922 -2.82705 1.86536 0
M  V30 8153 C 761.968 -2.94302 3.08688 0
M  V30 8154 S 762.801 -2.60739 4.67735 0
M  V30 8155 C 763.957 -4.01079 4.80506 0
M  V30 8156 H 764.19 -1.24893 2.69794 0
M  V30 8157 H 761.723 -0.538915 1.4469 0
M  V30 8158 H 763.681 -3.62342 1.92921 0
M  V30 8159 H 762.342 -2.9958 0.943975 0
M  V30 8160 H 761.535 -3.95593 3.12286 0
M  V30 8161 H 761.137 -2.22614 3.00531 0
M  V30 8162 H 763.429 -4.95603 4.61935 0
M  V30 8163 H 764.372 -4.02475 5.82597 0
M  V30 8164 H 764.78 -3.89119 4.08958 0
M  V30 8165 N 764.178 -1.45556 -0.604258 0
M  V30 8166 C 765.403 -1.53509 -1.39462 0
M  V30 8167 C 765.828 -0.169638 -1.87333 0
M  V30 8168 O 765.186 0.846346 -1.60333 0
M  V30 8169 C 765.234 -2.52654 -2.5729 0
M  V30 8170 O 764.338 -2.04666 -3.5803 0
M  V30 8171 H 763.679 -0.517355 -0.416221 0
M  V30 8172 H 766.209 -1.90939 -0.735072 0
M  V30 8173 H 766.219 -2.71568 -3.04491 0
M  V30 8174 H 764.894 -3.51823 -2.21797 0
M  V30 8175 H 763.471 -1.95643 -3.17456 0
M  V30 8176 N 765.656 0.84705 -1.32902 0
M  V30 8177 C 766.586 1.97166 -1.25091 0
M  V30 8178 C 767.567 1.69578 -0.133161 0
M  V30 8179 O 768.752 1.91519 -0.321591 0
M  V30 8180 C 765.882 3.33157 -0.981006 0
M  V30 8181 C 764.836 3.75119 -2.06082 0
M  V30 8182 C 764.162 5.08826 -1.64318 0
M  V30 8183 C 765.462 3.89774 -3.47669 0
M  V30 8184 H 767.156 2.03958 -2.19184 0
M  V30 8185 H 764.702 0.979907 -1.05517 0
M  V30 8186 H 766.655 4.11393 -0.912891 0
M  V30 8187 H 765.379 3.266 -0.00445559 0
M  V30 8188 H 764.038 2.9914 -2.11921 0
M  V30 8189 H 763.686 4.98732 -0.653876 0
M  V30 8190 H 763.386 5.37873 -2.36572 0
M  V30 8191 H 764.91 5.89546 -1.58958 0
M  V30 8192 H 766.324 4.58343 -3.44376 0
M  V30 8193 H 764.721 4.30248 -4.18338 0
M  V30 8194 H 765.791 2.92463 -3.86773 0
M  V30 8195 N 767.134 1.16236 1.06428 0
M  V30 8196 C 768.382 0.941171 1.78847 0
M  V30 8197 C 768.703 -0.53248 1.87589 0
M  V30 8198 O 767.973 -1.38686 1.38358 0
M  V30 8199 H 766.553 0.345228 0.66244 0
M  V30 8200 H 769.215 1.46479 1.28569 0
M  V30 8201 H 768.311 1.35871 2.80972 0
M  V30 8202 N 768.612 -1.24939 0.960631 0
M  V30 8203 C 769.861 -1.92118 0.614298 0
M  V30 8204 C 770.174 -1.75998 -0.853474 0
M  V30 8205 O 771.38 -2.37804 -1.31003 0
M  V30 8206 C 769.836 -3.44303 1.04801 0
M  V30 8207 C 769.444 -3.69123 2.53875 0
M  V30 8208 C 771.188 -4.17375 0.774497 0
M  V30 8209 C 769.095 -5.14843 2.91016 0
M  V30 8210 H 768.025 -0.719319 0.226045 0
M  V30 8211 H 770.676 -1.41701 1.16589 0
M  V30 8212 H 769.058 -3.93715 0.42479 0
M  V30 8213 H 770.232 -3.30339 3.21267 0
M  V30 8214 H 768.547 -3.09323 2.78762 0
M  V30 8215 H 771.144 -5.24723 1.02808 0
M  V30 8216 H 771.487 -4.15294 -0.289192 0
M  V30 8217 H 772.02 -3.7389 1.35835 0
M  V30 8218 H 768.759 -5.2204 3.96427 0
M  V30 8219 H 768.279 -5.54652 2.28302 0
M  V30 8220 H 769.958 -5.83017 2.80535 0
M  V30 8221 N 770.09 -0.729906 -1.39679 0
M  V30 8222 C 771.315 -0.284345 -2.05442 0
M  V30 8223 C 771.74 1.07056 -1.54663 0
M  V30 8224 O 771.098 1.67732 -0.688157 0
M  V30 8225 C 771.146 -0.290089 -3.59431 0
M  V30 8226 O 770.25 0.723978 -4.05995 0
M  V30 8227 H 769.591 -0.130311 -0.651088 0
M  V30 8228 H 772.121 -0.994403 -1.78809 0
M  V30 8229 H 772.131 -0.132712 -4.07784 0
M  V30 8230 H 770.806 -1.27877 -3.95753 0
M  V30 8231 H 769.383 0.533154 -3.69069 0
M  V30 8232 N 771.568 1.50203 -0.477153 0
M  V30 8233 C 772.817 2.01551 0.0774548 0
M  V30 8234 C 773.13 1.36359 1.40234 0
M  V30 8235 O 774.336 1.78898 2.04225 0
M  V30 8236 C 772.792 3.59406 0.188539 0
M  V30 8237 C 772.4 4.3356 -1.12828 0
M  V30 8238 C 774.144 4.18776 0.694782 0
M  V30 8239 C 772.051 5.83213 -0.98066 0
M  V30 8240 H 770.981 0.75329 0.0327212 0
M  V30 8241 H 773.632 1.72959 -0.612969 0
M  V30 8242 H 772.014 3.84611 0.942881 0
M  V30 8243 H 773.188 4.20074 -1.89405 0
M  V30 8244 H 771.503 3.85827 -1.5661 0
M  V30 8245 H 774.1 5.28338 0.822356 0
M  V30 8246 H 774.443 3.80557 1.68766 0
M  V30 8247 H 774.976 3.978 -0.00234519 0
M  V30 8248 H 771.715 6.25914 -1.94709 0
M  V30 8249 H 771.235 5.99256 -0.255375 0
M  V30 8250 H 772.914 6.4373 -0.649717 0
M  V30 8251 N 773.046 0.209999 1.56195 0
M  V30 8252 C 773.979 -0.744546 2.15712 0
M  V30 8253 C 774.957 -1.19917 1.09812 0
M  V30 8254 O 776.141 -1.284 1.38006 0
M  V30 8255 C 773.268 -2.00733 2.72807 0
M  V30 8256 C 772.314 -1.69363 3.91431 0
M  V30 8257 S 773.147 -0.828579 5.29051 0
M  V30 8258 C 774.303 -2.10118 5.89577 0
M  V30 8259 H 774.536 -0.238636 2.96341 0
M  V30 8260 H 772.069 -0.00517877 1.54399 0
M  V30 8261 H 774.027 -2.73246 3.06344 0
M  V30 8262 H 772.688 -2.48436 1.92193 0
M  V30 8263 H 771.881 -2.63157 4.29842 0
M  V30 8264 H 771.483 -1.04921 3.58981 0
M  V30 8265 H 773.775 -3.05231 6.04847 0
M  V30 8266 H 774.718 -1.76116 6.85849 0
M  V30 8267 H 775.126 -2.23644 5.18308 0
M  V30 8268 N 774.524 -1.57472 -0.0634922 0
M  V30 8269 C 775.773 -1.86837 -0.759928 0
M  V30 8270 C 776.086 -0.803823 -1.7832 0
M  V30 8271 O 777.292 -0.985578 -2.52979 0
M  V30 8272 C 775.748 -3.31448 -1.4025 0
M  V30 8273 C 775.356 -4.46052 -0.417368 0
M  V30 8274 C 777.1 -3.70003 -2.08082 0
M  V30 8275 C 775.007 -5.81707 -1.06633 0
M  V30 8276 H 773.937 -0.697009 -0.287567 0
M  V30 8277 H 776.588 -1.83495 -0.0133914 0
M  V30 8278 H 774.97 -3.29427 -2.19759 0
M  V30 8279 H 776.144 -4.5948 0.348503 0
M  V30 8280 H 774.459 -4.16104 0.156955 0
M  V30 8281 H 777.056 -4.68653 -2.57426 0
M  V30 8282 H 777.399 -3.00226 -2.88393 0
M  V30 8283 H 777.932 -3.7405 -1.35394 0
M  V30 8284 H 774.671 -6.54798 -0.303374 0
M  V30 8285 H 774.191 -5.72064 -1.80286 0
M  V30 8286 H 775.87 -6.27317 -1.58376 0
M  V30 8287 N 776.003 0.335068 -1.53997 0
M  V30 8288 C 776.95 1.41187 -1.82579 0
M  V30 8289 C 777.92 1.51897 -0.672061 0
M  V30 8290 O 779.105 1.673 -0.917346 0
M  V30 8291 C 776.245 2.77717 -2.0486 0
M  V30 8292 C 775.358 2.7573 -3.32561 0
M  V30 8293 C 774.493 4.04032 -3.44864 0
M  V30 8294 C 773.532 3.96308 -4.66483 0
M  V30 8295 N 772.669 5.16317 -4.75774 0
M  V30 8296 H 777.509 1.16113 -2.74448 0
M  V30 8297 H 775.046 0.562305 -1.35928 0
M  V30 8298 H 777.004 3.57071 -2.15768 0
M  V30 8299 H 775.634 3.01124 -1.16294 0
M  V30 8300 H 774.686 1.88432 -3.3045 0
M  V30 8301 H 775.998 2.65902 -4.22016 0
M  V30 8302 H 775.152 4.91814 -3.55251 0
M  V30 8303 H 773.891 4.16652 -2.53481 0
M  V30 8304 H 772.896 3.06911 -4.56164 0
M  V30 8305 H 774.121 3.85263 -5.5924 0
M  V30 8306 H 772.067 5.29464 -3.87303 0
M  V30 8307 H 771.984 5.08779 -5.59178 0
M  V30 8308 H 773.252 6.05846 -4.9048 0
M  V30 8309 N 777.481 1.45874 0.596531 0
M  V30 8310 C 778.428 1.55389 1.70655 0
M  V30 8311 C 779.398 0.399036 1.61236 0
M  V30 8312 O 780.583 0.61396 1.80652 0
M  V30 8313 C 777.723 1.53705 3.0898 0
M  V30 8314 C 776.836 2.79823 3.29125 0
M  V30 8315 C 775.971 2.69735 4.5762 0
M  V30 8316 C 775.01 3.90856 4.71061 0
M  V30 8317 N 774.147 3.79237 5.90867 0
M  V30 8318 H 778.987 2.50211 1.61859 0
M  V30 8319 H 776.524 1.24146 0.789069 0
M  V30 8320 H 778.482 1.50715 3.89026 0
M  V30 8321 H 777.112 0.624247 3.16706 0
M  V30 8322 H 776.164 2.92852 2.42779 0
M  V30 8323 H 777.476 3.69628 3.34927 0
M  V30 8324 H 776.63 2.64773 5.45875 0
M  V30 8325 H 775.369 1.77547 4.54234 0
M  V30 8326 H 774.374 3.96164 3.81227 0
M  V30 8327 H 775.599 4.84124 4.76236 0
M  V30 8328 H 773.545 2.89825 5.88504 0
M  V30 8329 H 773.462 4.62686 5.97877 0
M  V30 8330 H 774.73 3.78227 6.8159 0
M  V30 8331 N 778.959 -0.83999 1.33349 0
M  V30 8332 C 780.37 -1.41139 1.22216 0
M  V30 8333 C 780.721 -1.95551 -0.159398 0
M  V30 8334 O 779.846 -1.88721 -1.05893 0
M  V30 8335 C 780.441 -2.56564 2.21269 0
M  V30 8336 C 779 -3.09661 2.13979 0
M  V30 8337 C 778.147 -1.82457 2.08818 0
M  V30 8338 H 781.098 -0.645853 1.44964 0
M  V30 8339 H 781.119 -3.34163 1.81976 0
M  V30 8340 H 780.631 -2.16932 3.21811 0
M  V30 8341 H 778.732 -3.53841 1.16736 0
M  V30 8342 H 778.845 -3.6991 3.04472 0
M  V30 8343 H 777.209 -2.0266 1.54276 0
M  V30 8344 H 777.992 -1.45022 3.11165 0
M  V30 8345 N 780.437 -1.16799 -1.0581 0
M  V30 8346 C 781.369 -0.836774 -2.13379 0
M  V30 8347 C 782.382 0.158116 -1.6203 0
M  V30 8348 O 783.571 -0.0673211 -1.78373 0
M  V30 8349 C 780.671 -0.225959 -3.38146 0
M  V30 8350 C 779.844 -1.26217 -4.18794 0
M  V30 8351 C 778.903 -0.670257 -5.21914 0
M  V30 8352 O 777.929 -1.34042 -5.53192 0
M  V30 8353 N 779.131 0.540683 -5.77977 0
M  V30 8354 H 781.896 -1.76257 -2.42391 0
M  V30 8355 H 779.457 -1.06599 -1.21853 0
M  V30 8356 H 781.449 0.18317 -4.04285 0
M  V30 8357 H 780.019 0.603494 -3.06719 0
M  V30 8358 H 779.239 -1.84729 -3.48237 0
M  V30 8359 H 780.527 -1.9613 -4.69479 0
M  V30 8360 H 779.925 1.10322 -5.54838 0
M  V30 8361 H 778.482 0.891958 -6.45668 0
M  V30 8362 N 781.915 1.24427 -0.967243 0
M  V30 8363 C 782.862 2.25398 -0.496419 0
M  V30 8364 C 783.832 1.59667 0.457781 0
M  V30 8365 O 785.017 1.87213 0.368246 0
M  V30 8366 C 782.157 3.44474 0.207693 0
M  V30 8367 C 781.27 4.24804 -0.785221 0
M  V30 8368 C 780.405 5.31169 -0.0572631 0
M  V30 8369 C 779.444 6.03195 -1.04027 0
M  V30 8370 N 778.581 7.01265 -0.34235 0
M  V30 8371 H 783.421 2.65039 -1.36229 0
M  V30 8372 H 780.958 1.30288 -0.682902 0
M  V30 8373 H 782.916 4.12376 0.632612 0
M  V30 8374 H 781.546 3.05672 1.03752 0
M  V30 8375 H 780.598 3.56445 -1.32858 0
M  V30 8376 H 781.91 4.74599 -1.53483 0
M  V30 8377 H 781.064 6.05205 0.425674 0
M  V30 8378 H 779.803 4.8228 0.725047 0
M  V30 8379 H 778.808 5.27964 -1.53409 0
M  V30 8380 H 780.033 6.54173 -1.82302 0
M  V30 8381 H 777.979 6.54648 0.420993 0
M  V30 8382 H 777.896 7.48939 -1.03084 0
M  V30 8383 H 779.164 7.7941 0.118634 0
M  V30 8384 N 783.393 0.737304 1.3929 0
M  V30 8385 C 784.618 0.295237 2.05288 0
M  V30 8386 C 785.043 -1.06235 1.55228 0
M  V30 8387 O 784.401 -1.67365 0.697043 0
M  V30 8388 C 784.449 0.309146 3.59272 0
M  V30 8389 O 783.553 -0.702437 4.06374 0
M  V30 8390 H 782.894 0.133762 0.650387 0
M  V30 8391 H 785.424 1.00387 1.78279 0
M  V30 8392 H 785.434 0.154336 4.07708 0
M  V30 8393 H 784.109 1.29974 3.95069 0
M  V30 8394 H 782.686 -0.513574 3.69346 0
M  V30 8395 N 784.871 -1.49948 0.485112 0
M  V30 8396 C 785.818 -2.28819 -0.301729 0
M  V30 8397 C 786.788 -1.34496 -0.974683 0
M  V30 8398 O 787.973 -1.63444 -0.984418 0
M  V30 8399 C 785.113 -3.16758 -1.36961 0
M  V30 8400 C 784.226 -4.26125 -0.710027 0
M  V30 8401 C 783.361 -5.01302 -1.75699 0
M  V30 8402 C 782.4 -6.02525 -1.07841 0
M  V30 8403 N 781.537 -6.70927 -2.06886 0
M  V30 8404 H 786.377 -2.95604 0.377127 0
M  V30 8405 H 783.914 -1.45764 0.197826 0
M  V30 8406 H 785.872 -3.66106 -2.00056 0
M  V30 8407 H 784.502 -2.51991 -2.01744 0
M  V30 8408 H 783.554 -3.80385 0.0338278 0
M  V30 8409 H 784.866 -4.98493 -0.175079 0
M  V30 8410 H 784.02 -5.54438 -2.46339 0
M  V30 8411 H 782.759 -4.28672 -2.32577 0
M  V30 8412 H 781.764 -5.48635 -0.357706 0
M  V30 8413 H 782.989 -6.77134 -0.516345 0
M  V30 8414 H 780.935 -6.01079 -2.62755 0
M  V30 8415 H 780.852 -7.39216 -1.58414 0
M  V30 8416 H 782.12 -7.28675 -2.76863 0
M  V30 8417 N 786.349 -0.21828 -1.56081 0
M  V30 8418 C 787.76 0.290166 -1.84431 0
M  V30 8419 C 788.111 1.59712 -1.13958 0
M  V30 8420 O 787.236 2.12516 -0.40815 0
M  V30 8421 C 787.831 0.53325 -3.34577 0
M  V30 8422 C 786.39 0.986011 -3.63256 0
M  V30 8423 C 785.537 0.0472798 -2.7726 0
M  V30 8424 H 788.488 -0.441548 -1.52434 0
M  V30 8425 H 788.509 1.37967 -3.54606 0
M  V30 8426 H 788.021 -0.418137 -3.85841 0
M  V30 8427 H 786.122 1.95087 -3.17446 0
M  V30 8428 H 786.235 0.862684 -4.71269 0
M  V30 8429 H 784.599 0.553471 -2.48614 0
M  V30 8430 H 785.382 -0.898966 -3.31321 0
M  V30 8431 N 787.827 1.57504 0.0551401 0
M  V30 8432 C 789.075 1.87684 0.74962 0
M  V30 8433 C 789.396 0.812547 1.77264 0
M  V30 8434 O 788.666 -0.15694 1.9527 0
M  V30 8435 H 787.246 0.6926 0.279846 0
M  V30 8436 H 789.908 1.94881 0.0272745 0
M  V30 8437 H 789.004 2.85734 1.25548 0
M  V30 8438 N 789.305 -0.326896 1.54172 0
M  V30 8439 C 790.551 -1.06681 1.72473 0
M  V30 8440 C 790.884 -1.87779 0.49523 0
M  V30 8441 O 790.159 -1.87754 -0.507803 0
M  V30 8442 C 790.442 -1.99429 2.99834 0
M  V30 8443 C 790.295 -1.21682 4.33028 0
M  V30 8444 C 791.614 -2.99002 3.22933 0
M  V30 8445 H 788.733 -0.386438 0.627563 0
M  V30 8446 H 791.375 -0.343779 1.86864 0
M  V30 8447 H 789.525 -2.61081 2.87696 0
M  V30 8448 H 791.197 -0.625153 4.57044 0
M  V30 8449 H 789.44 -0.519045 4.30684 0
M  V30 8450 H 790.111 -1.89766 5.18356 0
M  V30 8451 H 792.587 -2.4747 3.34511 0
M  V30 8452 H 791.463 -3.61085 4.13412 0
M  V30 8453 H 791.724 -3.71281 2.40006 0
M  V30 8454 N 790.784 -1.46188 -0.588786 0
M  V30 8455 C 792.031 -1.51184 -1.34721 0
M  V30 8456 C 792.359 -0.161084 -1.93832 0
M  V30 8457 O 791.614 0.842557 -1.76634 0
M  V30 8458 C 791.913 -2.55364 -2.50048 0
M  V30 8459 C 791.579 -3.99553 -2.08969 0
M  V30 8460 C 790.241 -4.38811 -1.9748 0
M  V30 8461 C 792.593 -4.90156 -1.77191 0
M  V30 8462 C 789.921 -5.66544 -1.52463 0
M  V30 8463 C 792.273 -6.1832 -1.33654 0
M  V30 8464 C 790.937 -6.5649 -1.20738 0
M  V30 8465 H 790.207 -0.55322 -0.49298 0
M  V30 8466 H 792.854 -1.79634 -0.663627 0
M  V30 8467 H 791.159 -2.20552 -3.23827 0
M  V30 8468 H 792.856 -2.5646 -3.08268 0
M  V30 8469 H 789.446 -3.68518 -2.18843 0
M  V30 8470 H 793.63 -4.60549 -1.84955 0
M  V30 8471 H 788.886 -5.94895 -1.411 0
M  V30 8472 H 793.06 -6.87956 -1.08117 0
M  V30 8473 H 790.687 -7.55362 -0.856307 0
M  V30 8474 N 792.262 0.832906 -1.33792 0
M  V30 8475 C 793.487 1.62568 -1.28788 0
M  V30 8476 C 793.912 1.87599 0.137246 0
M  V30 8477 O 793.27 1.44436 1.0958 0
M  V30 8478 C 793.318 2.9495 -2.07453 0
M  V30 8479 O 792.422 3.86546 -1.43722 0
M  V30 8480 H 791.763 0.494809 -0.442787 0
M  V30 8481 H 794.293 1.03578 -1.76445 0
M  V30 8482 H 794.303 3.44599 -2.1844 0
M  V30 8483 H 792.978 2.76055 -3.11073 0
M  V30 8484 H 791.555 3.45044 -1.41417 0
M  V30 8485 N 793.74 1.17359 1.05189 0
M  V30 8486 C 794.987 0.961987 1.78191 0
M  V30 8487 C 795.315 -0.509363 1.87712 0
M  V30 8488 O 794.57 -1.39425 1.37329 0
M  V30 8489 C 794.869 1.54821 3.22126 0
M  V30 8490 C 794.535 3.04378 3.32663 0
M  V30 8491 C 793.197 3.45201 3.35246 0
M  V30 8492 C 795.549 4.00387 3.33677 0
M  V30 8493 C 792.877 4.80629 3.36471 0
M  V30 8494 C 795.229 5.35715 3.36441 0
M  V30 8495 C 793.893 5.76002 3.37311 0
M  V30 8496 H 793.163 0.352016 0.652047 0
M  V30 8497 H 795.81 1.46249 1.23627 0
M  V30 8498 H 794.115 0.969432 3.79617 0
M  V30 8499 H 795.812 1.36004 3.77232 0
M  V30 8500 H 792.402 2.71836 3.31366 0
M  V30 8501 H 796.586 3.69906 3.30882 0
M  V30 8502 H 791.842 5.11155 3.35455 0
M  V30 8503 H 796.016 6.09886 3.36173 0
M  V30 8504 H 793.643 6.80919 3.38013 0
M  V30 8505 N 795.218 -1.23913 0.973828 0
M  V30 8506 C 796.148 -2.27453 0.527969 0
M  V30 8507 C 797.129 -1.6443 -0.435513 0
M  V30 8508 O 798.314 -1.9137 -0.330306 0
M  V30 8509 C 795.444 -3.4685 -0.176757 0
M  V30 8510 C 794.398 -4.22181 0.703352 0
M  V30 8511 C 793.724 -5.34534 -0.133215 0
M  V30 8512 C 795.024 -4.82865 1.99096 0
M  V30 8513 H 796.718 -2.65 1.3934 0
M  V30 8514 H 794.264 -1.27388 0.671446 0
M  V30 8515 H 796.217 -4.18424 -0.499934 0
M  V30 8516 H 794.941 -3.08346 -1.07659 0
M  V30 8517 H 793.6 -3.52416 1.00989 0
M  V30 8518 H 793.248 -4.92271 -1.03338 0
M  V30 8519 H 792.948 -5.85855 0.452494 0
M  V30 8520 H 794.472 -6.08933 -0.450924 0
M  V30 8521 H 795.886 -5.46481 1.73297 0
M  V30 8522 H 794.283 -5.44444 2.52389 0
M  V30 8523 H 795.353 -4.03977 2.68199 0
M  V30 8524 N 796.696 -0.74468 -1.38897 0
M  V30 8525 C 797.973 -0.222773 -1.94327 0
M  V30 8526 C 798.353 1.27731 -1.68071 0
M  V30 8527 O 797.701 2.04754 -1.01429 0
M  V30 8528 C 797.911 -0.566836 -3.44366 0
M  V30 8529 C 799.259 -0.521531 -4.21385 0
M  V30 8530 O 800.283 -0.504599 -3.52608 0
M  V30 8531 O 799.142 -0.524595 -5.43976 0
M  V30 8532 H 796.236 -0.0439259 -0.825833 0
M  V30 8533 H 798.782 -0.824197 -1.48341 0
M  V30 8534 H 797.554 -1.60321 -3.56949 0
M  V30 8535 H 797.177 0.0630577 -3.9755 0
M  V30 8536 N 798.174 1.49689 -0.493057 0
M  V30 8537 C 799.585 1.8665 -0.0433032 0
M  V30 8538 C 799.936 1.40607 1.36836 0
M  V30 8539 O 799.061 0.780503 2.01834 0
M  V30 8540 C 799.656 3.38724 -0.0718069 0
M  V30 8541 C 798.215 3.75015 0.32257 0
M  V30 8542 C 797.362 2.7366 -0.4478 0
M  V30 8543 H 800.313 1.42119 -0.706246 0
M  V30 8544 H 800.334 3.73522 0.725347 0
M  V30 8545 H 799.846 3.72204 -1.09935 0
M  V30 8546 H 797.947 3.47142 1.35364 0
M  V30 8547 H 798.06 4.79099 0.00864259 0
M  V30 8548 H 796.424 2.54498 0.101354 0
M  V30 8549 H 797.207 3.09985 -1.47527 0
M  V30 8550 N 799.652 0.226554 1.55963 0
M  V30 8551 C 800.582 -0.676079 2.23498 0
M  V30 8552 C 801.563 -1.19718 1.20837 0
M  V30 8553 O 802.748 -1.24027 1.49436 0
M  V30 8554 C 799.878 -1.88217 2.91876 0
M  V30 8555 C 798.832 -1.4947 4.01052 0
M  V30 8556 C 798.158 -2.77997 4.56751 0
M  V30 8557 C 799.458 -0.680951 5.17842 0
M  V30 8558 H 801.152 -0.112989 2.99187 0
M  V30 8559 H 798.698 -0.0529046 1.43903 0
M  V30 8560 H 800.651 -2.51911 3.37815 0
M  V30 8561 H 799.375 -2.47031 2.13643 0
M  V30 8562 H 798.034 -0.881199 3.55852 0
M  V30 8563 H 797.682 -3.34966 3.75243 0
M  V30 8564 H 797.382 -2.52803 5.30438 0
M  V30 8565 H 798.906 -3.42625 5.05411 0
M  V30 8566 H 800.32 -1.22171 5.60131 0
M  V30 8567 H 798.717 -0.525898 5.97791 0
M  V30 8568 H 799.787 0.311346 4.83899 0
M  V30 8569 N 801.13 -1.57531 -0.0467866 0
M  V30 8570 C 802.093 -2.04379 -1.03738 0
M  V30 8571 C 803.093 -0.944881 -1.3011 0
M  V30 8572 O 804.283 -1.20904 -1.25411 0
M  V30 8573 C 801.415 -2.44572 -2.37482 0
M  V30 8574 H 802.608 -2.93142 -0.633063 0
M  V30 8575 H 800.161 -1.53526 -0.293177 0
M  V30 8576 H 800.896 -1.58911 -2.82697 0
M  V30 8577 H 800.681 -3.24785 -2.19675 0
M  V30 8578 H 802.171 -2.81307 -3.08636 0
M  V30 8579 N 802.608 0.318715 -1.54344 0
M  V30 8580 C 803.838 1.07394 -1.76494 0
M  V30 8581 C 804.246 1.82031 -0.515881 0
M  V30 8582 O 803.589 1.7609 0.52325 0
M  V30 8583 C 803.651 2.11401 -2.90775 0
M  V30 8584 C 803.315 1.56118 -4.29507 0
M  V30 8585 C 804.312 1.00043 -5.10184 0
M  V30 8586 C 801.997 1.60215 -4.76063 0
M  V30 8587 C 803.991 0.487993 -6.35529 0
M  V30 8588 C 801.678 1.08584 -6.01376 0
M  V30 8589 C 802.676 0.529714 -6.80943 0
M  V30 8590 O 802.364 0.0211823 -8.03897 0
M  V30 8591 H 802.096 0.325061 -0.592715 0
M  V30 8592 H 804.65 0.36901 -2.02058 0
M  V30 8593 H 802.88 2.85524 -2.60793 0
M  V30 8594 H 804.569 2.72683 -3.00664 0
M  V30 8595 H 805.335 0.961811 -4.75367 0
M  V30 8596 H 801.214 2.02441 -4.14172 0
M  V30 8597 H 804.758 0.0532608 -6.9758 0
M  V30 8598 H 800.655 1.12155 -6.35682 0
M  V30 8599 H 801.423 0.136151 -8.18387 0
M  V30 8600 N 804.086 1.46499 0.581025 0
M  V30 8601 C 804.996 1.59778 1.71779 0
M  V30 8602 C 806.012 0.481223 1.67213 0
M  V30 8603 O 807.188 0.74557 1.87091 0
M  V30 8604 C 804.253 1.58626 3.08283 0
M  V30 8605 C 803.314 2.81527 3.241 0
M  V30 8606 C 802.547 2.80421 4.54092 0
M  V30 8607 O 802.77 1.89262 5.38085 0
M  V30 8608 O 801.704 3.71984 4.73193 0
M  V30 8609 H 805.53 2.55918 1.63523 0
M  V30 8610 H 803.115 1.29311 0.748267 0
M  V30 8611 H 804.997 1.60686 3.89561 0
M  V30 8612 H 803.672 0.656467 3.16973 0
M  V30 8613 H 802.579 2.85021 2.42309 0
M  V30 8614 H 803.912 3.73721 3.20302 0
M  V30 8615 N 805.565 -0.825799 1.34232 0
M  V30 8616 C 806.814 -1.57686 1.2577 0
M  V30 8617 C 807.127 -1.94848 -0.171372 0
M  V30 8618 O 808.333 -2.68854 -0.378123 0
M  V30 8619 C 806.789 -2.84478 2.20454 0
M  V30 8620 C 806.397 -2.54629 3.68603 0
M  V30 8621 C 808.141 -3.625 2.20893 0
M  V30 8622 C 806.048 -3.77597 4.55164 0
M  V30 8623 H 804.978 -0.591809 0.467203 0
M  V30 8624 H 807.629 -0.909421 1.59379 0
M  V30 8625 H 806.011 -3.52832 1.79793 0
M  V30 8626 H 807.185 -1.94404 4.17784 0
M  V30 8627 H 805.5 -1.89888 3.70582 0
M  V30 8628 H 808.097 -4.538 2.82789 0
M  V30 8629 H 808.44 -3.98404 1.20746 0
M  V30 8630 H 808.973 -3.01086 2.59985 0
M  V30 8631 H 805.712 -3.46815 5.56237 0
M  V30 8632 H 805.232 -4.37116 4.10719 0
M  V30 8633 H 806.911 -4.45039 4.69627 0
M  V30 8634 N 807.043 -1.17915 -1.04565 0
M  V30 8635 C 808.289 -0.982872 -1.78076 0
M  V30 8636 C 808.644 0.482843 -1.86243 0
M  V30 8637 O 807.937 1.35383 -1.3558 0
M  V30 8638 C 808.131 -1.56528 -3.213 0
M  V30 8639 C 807.96 -3.0861 -3.27093 0
M  V30 8640 C 806.73 -3.77389 -3.36014 0
M  V30 8641 C 808.928 -4.06146 -3.15515 0
M  V30 8642 N 806.91 -5.1702 -3.31004 0
M  V30 8643 C 808.281 -5.32268 -3.17948 0
M  V30 8644 C 810.336 -3.97732 -2.99522 0
M  V30 8645 C 809.039 -6.50951 -3.06031 0
M  V30 8646 C 811.065 -5.16007 -2.88948 0
M  V30 8647 C 810.427 -6.41018 -2.9202 0
M  V30 8648 H 806.526 -0.413617 -0.66366 0
M  V30 8649 H 809.11 -1.49607 -1.24603 0
M  V30 8650 H 807.281 -1.07833 -3.73131 0
M  V30 8651 H 809.013 -1.30501 -3.83082 0
M  V30 8652 H 805.768 -3.28098 -3.41538 0
M  V30 8653 H 806.192 -5.90031 -3.31952 0
M  V30 8654 H 810.834 -3.01919 -2.95981 0
M  V30 8655 H 808.552 -7.46968 -3.08326 0
M  V30 8656 H 812.138 -5.11283 -2.77635 0
M  V30 8657 H 811.018 -7.30999 -2.83919 0
M  V30 8658 N 808.521 1.23394 -0.980386 0
M  V30 8659 C 809.454 2.23404 -0.465404 0
M  V30 8660 C 810.432 1.55735 0.467471 0
M  V30 8661 O 811.616 1.84295 0.395921 0
M  V30 8662 C 808.743 3.3712 0.32672 0
M  V30 8663 C 807.789 4.22935 -0.550296 0
M  V30 8664 S 808.622 4.96824 -1.99814 0
M  V30 8665 C 809.778 6.13991 -1.21516 0
M  V30 8666 H 810.011 2.6674 -1.31289 0
M  V30 8667 H 807.544 1.32874 -0.78638 0
M  V30 8668 H 809.502 4.03065 0.777738 0
M  V30 8669 H 808.163 2.92317 1.14933 0
M  V30 8670 H 807.356 5.03966 0.0585298 0
M  V30 8671 H 806.958 3.62058 -0.937558 0
M  V30 8672 H 809.25 6.75822 -0.476476 0
M  V30 8673 H 810.193 6.7926 -2.0003 0
M  V30 8674 H 810.601 5.59708 -0.733949 0
M  V30 8675 N 809.999 0.752036 1.385 0
M  V30 8676 C 811.239 0.312408 2.01998 0
M  V30 8677 C 811.603 -1.085 1.58404 0
M  V30 8678 O 812.804 -1.62365 2.14222 0
M  V30 8679 C 811.075 0.429423 3.54811 0
M  V30 8680 S 812.634 0.0721487 4.38741 0
M  V30 8681 H 809.452 0.1213 0.700576 0
M  V30 8682 H 812.054 0.982312 1.69029 0
M  V30 8683 H 810.758 1.44743 3.84028 0
M  V30 8684 H 810.289 -0.257716 3.92555 0
M  V30 8685 H 812.304 -1.13875 4.82957 0
M  V30 8686 N 811.477 -1.49425 0.500989 0
M  V30 8687 C 812.726 -2.01649 -0.04538 0
M  V30 8688 C 813.039 -1.38572 -1.38047 0
M  V30 8689 O 814.245 -1.82124 -2.01353 0
M  V30 8690 C 812.701 -3.5966 -0.131337 0
M  V30 8691 C 812.309 -4.3171 1.19711 0
M  V30 8692 C 814.053 -4.19828 -0.628071 0
M  V30 8693 C 811.96 -5.81579 1.07332 0
M  V30 8694 H 810.89 -0.753715 -0.0207329 0
M  V30 8695 H 813.541 -1.71962 0.640407 0
M  V30 8696 H 811.923 -3.86063 -0.881574 0
M  V30 8697 H 813.097 -4.17008 1.96064 0
M  V30 8698 H 811.412 -3.83286 1.62729 0
M  V30 8699 H 814.009 -5.2958 -0.738198 0
M  V30 8700 H 814.352 -3.83194 -1.6269 0
M  V30 8701 H 814.885 -3.97746 0.0656314 0
M  V30 8702 H 811.624 -6.22738 2.04642 0
M  V30 8703 H 811.144 -5.98774 0.350679 0
M  V30 8704 H 812.823 -6.42614 0.752047 0
M  V30 8705 N 812.955 -0.234822 -1.55841 0
M  V30 8706 C 814.201 0.393843 -1.98939 0
M  V30 8707 C 814.534 1.58466 -1.1226 0
M  V30 8708 O 813.809 1.93635 -0.183242 0
M  V30 8709 C 814.092 0.815492 -3.50745 0
M  V30 8710 C 813.945 -0.379878 -4.48193 0
M  V30 8711 C 815.264 1.66687 -4.07312 0
M  V30 8712 H 812.383 0.141681 -0.723253 0
M  V30 8713 H 815.025 -0.333716 -1.87046 0
M  V30 8714 H 813.175 1.43541 -3.6101 0
M  V30 8715 H 814.847 -1.0182 -4.49923 0
M  V30 8716 H 813.09 -1.02507 -4.21515 0
M  V30 8717 H 813.761 -0.0417069 -5.51984 0
M  V30 8718 H 816.237 1.14369 -4.00074 0
M  V30 8719 H 815.113 1.93078 -5.13821 0
M  V30 8720 H 815.374 2.63468 -3.55017 0
M  V30 8721 N 814.433 1.57553 0.0384317 0
M  V30 8722 C 815.68 1.88841 0.731116 0
M  V30 8723 C 816.008 0.83093 1.75857 0
M  V30 8724 O 815.263 -0.169248 1.94967 0
M  V30 8725 C 815.562 3.26862 1.44554 0
M  V30 8726 C 815.228 4.47472 0.554946 0
M  V30 8727 C 813.89 4.80203 0.309621 0
M  V30 8728 C 816.242 5.21165 -0.0605204 0
M  V30 8729 C 813.57 5.8402 -0.560101 0
M  V30 8730 C 815.922 6.25905 -0.91789 0
M  V30 8731 C 814.586 6.57117 -1.17277 0
M  V30 8732 H 813.856 0.691018 0.267534 0
M  V30 8733 H 816.503 1.91498 -0.00883195 0
M  V30 8734 H 814.808 3.2015 2.25856 0
M  V30 8735 H 816.505 3.48316 1.98688 0
M  V30 8736 H 813.095 4.21874 0.756304 0
M  V30 8737 H 817.279 4.96164 0.116064 0
M  V30 8738 H 812.535 6.06583 -0.765974 0
M  V30 8739 H 816.709 6.82155 -1.40136 0
M  V30 8740 H 814.336 7.37385 -1.84843 0
M  V30 8741 N 815.911 -0.310526 1.54511 0
M  V30 8742 C 816.874 -1.3657 1.84068 0
M  V30 8743 C 817.874 -1.44123 0.713097 0
M  V30 8744 O 819.064 -1.43924 0.981399 0
M  V30 8745 C 816.196 -2.75162 2.01243 0
M  V30 8746 H 817.389 -1.1161 2.78358 0
M  V30 8747 H 814.942 -0.546699 1.46427 0
M  V30 8748 H 815.677 -3.05359 1.09208 0
M  V30 8749 H 815.462 -2.71071 2.83307 0
M  V30 8750 H 816.952 -3.51473 2.25514 0
M  V30 8751 N 817.389 -1.46805 -0.573248 0
M  V30 8752 C 818.619 -1.55965 -1.35494 0
M  V30 8753 C 819.027 -0.203038 -1.88107 0
M  V30 8754 O 818.37 0.81138 -1.6481 0
M  V30 8755 C 818.432 -2.51168 -2.57206 0
M  V30 8756 C 818.096 -3.97211 -2.25993 0
M  V30 8757 C 819.093 -4.86155 -1.84254 0
M  V30 8758 C 816.778 -4.42419 -2.37846 0
M  V30 8759 C 818.772 -6.18323 -1.54776 0
M  V30 8760 C 816.459 -5.74619 -2.0798 0
M  V30 8761 C 817.457 -6.62392 -1.66511 0
M  V30 8762 O 817.145 -7.92137 -1.37016 0
M  V30 8763 H 816.877 -0.529748 -0.419932 0
M  V30 8764 H 819.431 -1.92998 -0.702914 0
M  V30 8765 H 817.661 -2.09171 -3.25245 0
M  V30 8766 H 819.35 -2.50631 -3.19279 0
M  V30 8767 H 820.116 -4.52481 -1.74603 0
M  V30 8768 H 815.995 -3.74319 -2.69085 0
M  V30 8769 H 819.539 -6.8679 -1.22334 0
M  V30 8770 H 815.436 -6.0784 -2.17258 0
M  V30 8771 H 816.204 -8.04492 -1.50782 0
M  V30 8772 N 818.867 0.818669 -1.34668 0
M  V30 8773 C 820.116 1.57017 -1.26604 0
M  V30 8774 C 820.429 1.94936 0.161036 0
M  V30 8775 O 821.635 2.69051 0.36386 0
M  V30 8776 C 820.091 2.83305 -2.2196 0
M  V30 8777 C 819.699 2.52671 -3.69948 0
M  V30 8778 C 821.443 3.61324 -2.22813 0
M  V30 8779 C 819.35 3.75178 -4.5716 0
M  V30 8780 H 818.28 0.589323 -0.470335 0
M  V30 8781 H 820.931 0.900956 -1.59859 0
M  V30 8782 H 819.313 3.51874 -1.81661 0
M  V30 8783 H 820.487 1.92186 -4.18809 0
M  V30 8784 H 818.802 1.8792 -3.71584 0
M  V30 8785 H 821.399 4.52294 -2.85192 0
M  V30 8786 H 821.742 3.97759 -1.22857 0
M  V30 8787 H 822.275 2.99703 -2.61578 0
M  V30 8788 H 819.014 3.43861 -5.58068 0
M  V30 8789 H 818.534 4.34931 -4.13031 0
M  V30 8790 H 820.213 4.42542 -4.71981 0
M  V30 8791 N 820.346 1.18468 1.03938 0
M  V30 8792 C 821.594 0.978895 1.76811 0
M  V30 8793 C 821.915 -0.49257 1.88676 0
M  V30 8794 O 821.185 -1.3572 1.41269 0
M  V30 8795 H 819.765 0.359201 0.654968 0
M  V30 8796 H 822.427 1.49173 1.25433 0
M  V30 8797 H 821.523 1.418 2.78027 0
M  V30 8798 N 821.824 -1.22873 0.986916 0
M  V30 8799 C 823.07 -1.91746 0.660401 0
M  V30 8800 C 823.403 -1.76738 -0.804812 0
M  V30 8801 O 822.678 -1.13246 -1.58131 0
M  V30 8802 C 822.961 -3.44156 1.05966 0
M  V30 8803 C 822.814 -3.68242 2.58298 0
M  V30 8804 C 824.133 -4.35874 0.60842 0
M  V30 8805 H 821.252 -0.696347 0.241391 0
M  V30 8806 H 823.894 -1.44867 1.22937 0
M  V30 8807 H 822.044 -3.84213 0.575534 0
M  V30 8808 H 823.716 -3.37626 3.14335 0
M  V30 8809 H 821.959 -3.12728 3.00638 0
M  V30 8810 H 822.63 -4.74956 2.81285 0
M  V30 8811 H 825.106 -4.03299 1.02417 0
M  V30 8812 H 823.982 -5.41201 0.916142 0
M  V30 8813 H 824.243 -4.39364 -0.491086 0
M  V30 8814 N 823.302 -0.75937 -1.38099 0
M  V30 8815 C 824.527 -0.327859 -2.04792 0
M  V30 8816 C 824.952 1.03752 -1.56899 0
M  V30 8817 O 824.31 1.66235 -0.723581 0
M  V30 8818 C 824.358 -0.366264 -3.58735 0
M  V30 8819 O 823.462 0.637697 -4.0744 0
M  V30 8820 H 822.803 -0.144092 -0.648177 0
M  V30 8821 H 825.333 -1.03211 -1.7666 0
M  V30 8822 H 825.343 -0.219179 -4.07411 0
M  V30 8823 H 824.018 -1.36243 -3.92951 0
M  V30 8824 H 822.595 0.454749 -3.70117 0
M  V30 8825 N 824.78 1.49157 -0.508906 0
M  V30 8826 C 826.026 2.02773 0.0328469 0
M  V30 8827 C 826.359 1.38714 1.35912 0
M  V30 8828 O 825.634 0.525536 1.87266 0
M  V30 8829 C 825.917 3.59664 0.177088 0
M  V30 8830 C 825.77 4.34239 -1.17287 0
M  V30 8831 C 827.089 4.30505 0.913977 0
M  V30 8832 H 824.208 0.736926 0.0104631 0
M  V30 8833 H 826.85 1.781 -0.661851 0
M  V30 8834 H 825 3.80818 0.768774 0
M  V30 8835 H 826.672 4.24561 -1.80404 0
M  V30 8836 H 824.915 3.96486 -1.76016 0
M  V30 8837 H 825.586 5.42397 -1.02516 0
M  V30 8838 H 828.062 4.14054 0.412084 0
M  V30 8839 H 826.938 5.40012 0.983759 0
M  V30 8840 H 827.199 3.96302 1.95951 0
M  V30 8841 N 826.258 0.243083 1.55714 0
M  V30 8842 C 827.504 -0.383287 1.99145 0
M  V30 8843 C 827.837 -1.57868 1.13098 0
M  V30 8844 O 827.112 -1.93535 0.193509 0
M  V30 8845 C 827.395 -0.796879 3.51172 0
M  V30 8846 C 827.248 0.403642 4.47985 0
M  V30 8847 C 828.567 -1.64525 4.08191 0
M  V30 8848 H 825.686 -0.137843 0.723995 0
M  V30 8849 H 828.328 0.343631 1.86867 0
M  V30 8850 H 826.478 -1.41625 3.61766 0
M  V30 8851 H 828.15 1.04204 4.49376 0
M  V30 8852 H 826.393 1.04741 4.20965 0
M  V30 8853 H 827.064 0.0709794 5.51954 0
M  V30 8854 H 829.54 -1.12246 4.00674 0
M  V30 8855 H 828.416 -1.9035 5.14838 0
M  V30 8856 H 828.677 -2.61582 3.56409 0
M  V30 8857 N 827.736 -1.57571 -0.0300757 0
M  V30 8858 C 828.666 -2.0953 -1.03051 0
M  V30 8859 C 829.647 -0.99761 -1.37774 0
M  V30 8860 O 830.832 -1.27279 -1.46676 0
M  V30 8861 C 827.962 -2.57385 -2.33174 0
M  V30 8862 C 826.916 -3.71409 -2.12696 0
M  V30 8863 C 826.242 -4.05467 -3.4857 0
M  V30 8864 C 827.542 -4.99877 -1.51396 0
M  V30 8865 H 829.236 -2.93367 -0.597999 0
M  V30 8866 H 826.782 -1.41127 -0.286203 0
M  V30 8867 H 828.735 -2.92355 -3.03491 0
M  V30 8868 H 827.459 -1.70629 -2.78484 0
M  V30 8869 H 826.118 -3.36786 -1.44813 0
M  V30 8870 H 825.766 -3.15779 -3.91526 0
M  V30 8871 H 825.466 -4.82269 -3.35694 0
M  V30 8872 H 826.99 -4.4297 -4.2025 0
M  V30 8873 H 828.404 -5.3281 -2.11629 0
M  V30 8874 H 826.801 -5.81283 -1.49098 0
M  V30 8875 H 827.871 -4.82522 -0.479676 0
M  V30 8876 N 829.214 0.302327 -1.54673 0
M  V30 8877 C 830.461 1.0377 -1.73891 0
M  V30 8878 C 830.789 1.87309 -0.523979 0
M  V30 8879 O 830.044 1.8936 0.494084 0
M  V30 8880 C 830.343 1.97365 -2.97963 0
M  V30 8881 C 830.009 1.29812 -4.3181 0
M  V30 8882 C 828.671 1.11121 -4.68194 0
M  V30 8883 C 831.023 0.815073 -5.14787 0
M  V30 8884 C 828.351 0.428077 -5.85136 0
M  V30 8885 C 830.703 0.145665 -6.32432 0
M  V30 8886 C 829.367 -0.0532098 -6.67479 0
M  V30 8887 H 828.637 0.379721 -0.636312 0
M  V30 8888 H 831.284 0.312708 -1.8893 0
M  V30 8889 H 829.589 2.76387 -2.777 0
M  V30 8890 H 831.286 2.54331 -3.10027 0
M  V30 8891 H 827.876 1.45366 -4.03196 0
M  V30 8892 H 832.06 0.947191 -4.87178 0
M  V30 8893 H 827.316 0.262995 -6.10834 0
M  V30 8894 H 831.49 -0.236533 -6.95998 0
M  V30 8895 H 829.117 -0.58456 -7.57949 0
M  V30 8896 N 830.692 1.47107 0.565454 0
M  V30 8897 C 831.622 1.61846 1.68309 0
M  V30 8898 C 832.603 0.468159 1.63531 0
M  V30 8899 O 833.788 0.696504 1.8128 0
M  V30 8900 C 830.918 1.62474 3.06952 0
M  V30 8901 C 829.872 2.76649 3.26572 0
M  V30 8902 C 829.198 2.62345 4.65917 0
M  V30 8903 C 830.498 4.18319 3.12741 0
M  V30 8904 H 832.192 2.55407 1.5623 0
M  V30 8905 H 829.738 1.22916 0.750179 0
M  V30 8906 H 831.691 1.71378 3.84977 0
M  V30 8907 H 830.415 0.654692 3.19971 0
M  V30 8908 H 829.074 2.67242 2.50952 0
M  V30 8909 H 828.722 1.63386 4.75725 0
M  V30 8910 H 828.422 3.38936 4.79996 0
M  V30 8911 H 829.946 2.73165 5.46089 0
M  V30 8912 H 831.36 4.28745 3.80593 0
M  V30 8913 H 829.757 4.95632 3.38333 0
M  V30 8914 H 830.827 4.37263 2.09592 0
M  V30 8915 N 832.17 -0.811516 1.35101 0
M  V30 8916 C 833.416 -1.57068 1.28287 0
M  V30 8917 C 833.749 -1.93667 -0.143808 0
M  V30 8918 O 833.024 -1.60953 -1.09199 0
M  V30 8919 C 833.307 -2.86259 2.18466 0
M  V30 8920 C 833.16 -2.56168 3.69727 0
M  V30 8921 C 834.479 -3.87924 2.07852 0
M  V30 8922 H 831.598 -0.569869 0.467353 0
M  V30 8923 H 834.24 -0.934023 1.65457 0
M  V30 8924 H 832.39 -3.4059 1.86898 0
M  V30 8925 H 834.062 -2.08059 4.11715 0
M  V30 8926 H 832.305 -1.89436 3.90252 0
M  V30 8927 H 832.976 -3.48344 4.28206 0
M  V30 8928 H 835.452 -3.4298 2.35593 0
M  V30 8929 H 834.328 -4.76106 2.73157 0
M  V30 8930 H 834.589 -4.2923 1.05896 0
M  V30 8931 N 833.648 -1.19017 -1.03309 0
M  V30 8932 C 834.873 -1.01598 -1.80811 0
M  V30 8933 C 835.298 0.430773 -1.83101 0
M  V30 8934 O 834.656 1.30946 -1.25391 0
M  V30 8935 C 834.704 -1.5845 -3.23923 0
M  V30 8936 O 833.808 -0.810972 -4.04348 0
M  V30 8937 H 833.149 -0.359398 -0.558327 0
M  V30 8938 H 835.679 -1.57945 -1.30055 0
M  V30 8939 H 835.689 -1.61486 -3.74682 0
M  V30 8940 H 834.364 -2.63752 -3.21571 0
M  V30 8941 H 832.941 -0.85353 -3.63 0
M  V30 8942 N 835.127 1.22348 -0.993418 0
M  V30 8943 C 836.543 1.43222 -0.704238 0
M  V30 8944 C 836.743 1.88009 0.724909 0
M  V30 8945 O 835.799 2.03429 1.49575 0
M  V30 8946 C 837.112 2.47328 -1.71025 0
M  V30 8947 C 838.66 2.61126 -1.72576 0
M  V30 8948 C 839.135 3.68453 -2.72041 0
M  V30 8949 N 840.626 3.75911 -2.70639 0
M  V30 8950 C 841.361 4.58551 -3.44266 0
M  V30 8951 N 840.857 5.45179 -4.27495 0
M  V30 8952 N 842.65 4.52866 -3.32969 0
M  V30 8953 H 834.801 0.915832 -1.91641 0
M  V30 8954 H 837.064 0.464283 -0.826526 0
M  V30 8955 H 836.77 2.21366 -2.73295 0
M  V30 8956 H 836.644 3.45939 -1.50353 0
M  V30 8957 H 839.031 2.86431 -0.710037 0
M  V30 8958 H 839.112 1.62787 -1.97317 0
M  V30 8959 H 838.756 3.43895 -3.73763 0
M  V30 8960 H 838.686 4.66362 -2.4457 0
M  V30 8961 H 841.177 3.14014 -2.10247 0
M  V30 8962 H 841.49 6.0526 -4.80499 0
M  V30 8963 H 839.835 5.44759 -4.31582 0
M  V30 8964 H 843.026 3.84215 -2.67389 0
M  V30 8965 H 843.199 5.17039 -3.90608 0
M  V30 8966 N 836.605 0.766683 1.37694 0
M  V30 8967 C 837.852 0.328714 1.99814 0
M  V30 8968 C 838.18 -1.09333 1.60862 0
M  V30 8969 O 837.435 -1.7657 0.8439 0
M  V30 8970 C 837.734 0.413831 3.54996 0
M  V30 8971 C 837.4 1.7934 4.137 0
M  V30 8972 C 836.062 2.17092 4.29447 0
M  V30 8973 C 838.414 2.69776 4.45949 0
M  V30 8974 C 835.742 3.44726 4.74743 0
M  V30 8975 C 838.094 3.96814 4.92667 0
M  V30 8976 C 836.758 4.34618 5.0662 0
M  V30 8977 H 836.028 0.120285 0.731172 0
M  V30 8978 H 838.675 0.97972 1.64541 0
M  V30 8979 H 836.98 -0.320723 3.90485 0
M  V30 8980 H 838.677 0.0563369 4.0096 0
M  V30 8981 H 835.267 1.48997 4.01868 0
M  V30 8982 H 839.451 2.41871 4.33373 0
M  V30 8983 H 834.707 3.73917 4.83731 0
M  V30 8984 H 838.881 4.67022 5.16588 0
M  V30 8985 H 836.508 5.33578 5.41478 0
M  V30 8986 N 838.083 -1.48885 0.516809 0
M  V30 8987 C 839.308 -2.0739 -0.0205201 0
M  V30 8988 C 839.733 -1.37259 -1.28614 0
M  V30 8989 O 839.091 -0.434304 -1.76021 0
M  V30 8990 C 839.139 -3.59793 -0.24104 0
M  V30 8991 O 838.243 -3.90957 -1.31251 0
M  V30 8992 H 837.584 -0.663167 0.0332564 0
M  V30 8993 H 840.114 -1.91477 0.720956 0
M  V30 8994 H 840.124 -4.0531 -0.467737 0
M  V30 8995 H 838.799 -4.10244 0.68356 0
M  V30 8996 H 837.376 -3.57234 -1.06951 0
M  V30 8997 N 839.561 -0.251338 -1.55583 0
M  V30 8998 C 840.972 0.25098 -1.85005 0
M  V30 8999 C 841.323 1.57259 -1.17321 0
M  V30 9000 O 840.448 2.11603 -0.453136 0
M  V30 9001 C 841.043 0.462161 -3.35633 0
M  V30 9002 C 839.602 0.908737 -3.65266 0
M  V30 9003 C 838.749 -0.0115418 -2.77298 0
M  V30 9004 H 841.7 -0.473782 -1.51463 0
M  V30 9005 H 841.721 1.30415 -3.57452 0
M  V30 9006 H 841.233 -0.499886 -3.84867 0
M  V30 9007 H 839.334 1.8831 -3.21512 0
M  V30 9008 H 839.447 0.762526 -4.72993 0
M  V30 9009 H 837.811 0.500612 -2.49732 0
M  V30 9010 H 838.594 -0.969042 -3.29339 0
M  V30 9011 N 841.039 1.57585 0.0217189 0
M  V30 9012 C 842.269 1.9359 0.721572 0
M  V30 9013 C 842.677 0.850132 1.69025 0
M  V30 9014 O 842.02 -0.181539 1.82801 0
M  V30 9015 C 842.082 3.25445 1.52729 0
M  V30 9016 C 841.746 4.51251 0.722586 0
M  V30 9017 C 842.743 5.19896 0.0196598 0
M  V30 9018 C 840.428 4.97745 0.674959 0
M  V30 9019 C 842.422 6.33319 -0.720114 0
M  V30 9020 C 840.109 6.11062 -0.068555 0
M  V30 9021 C 841.107 6.78704 -0.764845 0
M  V30 9022 O 840.795 7.89852 -1.49627 0
M  V30 9023 H 840.527 0.643409 0.207366 0
M  V30 9024 H 843.081 2.05391 -0.0189346 0
M  V30 9025 H 841.311 3.0999 2.31178 0
M  V30 9026 H 843 3.46721 2.11044 0
M  V30 9027 H 843.766 4.84977 0.0474394 0
M  V30 9028 H 839.645 4.44934 1.20643 0
M  V30 9029 H 843.189 6.86051 -1.26413 0
M  V30 9030 H 839.086 6.45425 -0.0982318 0
M  V30 9031 H 839.854 8.06251 -1.41071 0
M  V30 9032 N 842.517 -0.29412 1.54831 0
M  V30 9033 C 843.427 -1.3854 1.89325 0
M  V30 9034 C 844.443 -1.55127 0.788133 0
M  V30 9035 O 845.619 -1.6966 1.08524 0
M  V30 9036 C 842.684 -2.72809 2.13954 0
M  V30 9037 C 841.745 -2.65148 3.37631 0
M  V30 9038 C 840.978 -3.93014 3.61076 0
M  V30 9039 O 841.201 -4.927 2.87406 0
M  V30 9040 O 840.135 -3.94491 4.54599 0
M  V30 9041 H 843.961 -1.12289 2.82179 0
M  V30 9042 H 841.546 -0.490793 1.41108 0
M  V30 9043 H 843.428 -3.52238 2.31315 0
M  V30 9044 H 842.103 -2.9889 1.24285 0
M  V30 9045 H 841.01 -1.84168 3.25627 0
M  V30 9046 H 842.343 -2.4402 4.27452 0
M  V30 9047 N 843.995 -1.47404 -0.557645 0
M  V30 9048 C 845.241 -1.55219 -1.31449 0
M  V30 9049 C 845.596 -0.211457 -1.91234 0
M  V30 9050 O 844.889 0.782795 -1.7488 0
M  V30 9051 C 845.083 -2.6061 -2.44575 0
M  V30 9052 C 844.912 -4.048 -1.95875 0
M  V30 9053 C 843.682 -4.72252 -1.79738 0
M  V30 9054 C 845.88 -4.91833 -1.50348 0
M  V30 9055 N 843.862 -6.00962 -1.25372 0
M  V30 9056 C 845.233 -6.10566 -1.07745 0
M  V30 9057 C 847.288 -4.78279 -1.38396 0
M  V30 9058 C 845.991 -7.17242 -0.543767 0
M  V30 9059 C 848.017 -5.8505 -0.864293 0
M  V30 9060 C 847.379 -7.02973 -0.44818 0
M  V30 9061 H 843.478 -0.622694 -0.47305 0
M  V30 9062 H 846.062 -1.84152 -0.632144 0
M  V30 9063 H 844.233 -2.33545 -3.10341 0
M  V30 9064 H 845.965 -2.5827 -3.11574 0
M  V30 9065 H 842.72 -4.28153 -2.0244 0
M  V30 9066 H 843.144 -6.69532 -1.00278 0
M  V30 9067 H 847.786 -3.87477 -1.69179 0
M  V30 9068 H 845.504 -8.07791 -0.223563 0
M  V30 9069 H 849.09 -5.7661 -0.775371 0
M  V30 9070 H 847.97 -7.84183 -0.0522964 0
M  V30 9071 N 845.473 0.80434 -1.35529 0
M  V30 9072 C 846.423 1.90565 -1.25175 0
M  V30 9073 C 847.407 1.60232 -0.146512 0
M  V30 9074 O 848.599 1.72918 -0.377943 0
M  V30 9075 C 845.728 3.2754 -1.02823 0
M  V30 9076 C 844.814 3.63932 -2.17748 0
M  V30 9077 N 845.205 3.71744 -3.42986 0
M  V30 9078 C 843.503 3.93901 -2.09184 0
M  V30 9079 C 844.204 4.03944 -4.18574 0
M  V30 9080 N 843.18 4.18146 -3.47355 0
M  V30 9081 H 846.982 1.9481 -2.20059 0
M  V30 9082 H 844.496 0.99905 -1.28034 0
M  V30 9083 H 846.493 4.06281 -0.934941 0
M  V30 9084 H 845.153 3.2458 -0.0882551 0
M  V30 9085 H 846.164 3.54765 -3.77309 0
M  V30 9086 H 842.841 3.98954 -1.23054 0
M  V30 9087 H 844.231 4.17036 -5.26811 0
M  V30 9088 N 846.951 1.19563 1.02676 0
M  V30 9089 C 848.179 1.02488 1.79732 0
M  V30 9090 C 848.594 -0.426302 1.83924 0
M  V30 9091 O 847.951 -1.29609 1.28483 0
M  V30 9092 C 848.002 1.58944 3.24683 0
M  V30 9093 O 847.723 2.98382 3.2078 0
M  V30 9094 C 849.224 1.46681 4.1833 0
M  V30 9095 H 846.444 0.361098 0.565552 0
M  V30 9096 H 848.988 1.58426 1.29311 0
M  V30 9097 H 847.143 1.0715 3.72287 0
M  V30 9098 H 847.557 3.24983 4.11687 0
M  V30 9099 H 849.031 1.90959 5.17918 0
M  V30 9100 H 849.508 0.417663 4.3721 0
M  V30 9101 H 850.114 1.97616 3.76601 0
M  V30 9102 N 848.429 -1.21819 0.999893 0
M  V30 9103 C 849.339 -2.27691 0.565159 0
M  V30 9104 C 850.355 -1.69587 -0.389398 0
M  V30 9105 O 851.531 -1.99786 -0.254499 0
M  V30 9106 C 848.596 -3.46537 -0.106432 0
M  V30 9107 C 847.657 -4.19932 0.891964 0
M  V30 9108 C 846.89 -5.33103 0.252327 0
M  V30 9109 O 847.113 -5.62398 -0.952103 0
M  V30 9110 O 846.047 -5.94184 0.960698 0
M  V30 9111 H 849.873 -2.67059 1.44613 0
M  V30 9112 H 847.458 -1.28119 0.768499 0
M  V30 9113 H 849.34 -4.18631 -0.482301 0
M  V30 9114 H 848.015 -3.09079 -0.961865 0
M  V30 9115 H 846.922 -3.5008 1.3189 0
M  V30 9116 H 848.255 -4.61287 1.71682 0
M  V30 9117 N 849.908 -0.773975 -1.37286 0
M  V30 9118 C 850.818 -0.162571 -2.34036 0
M  V30 9119 C 851.834 0.677022 -1.60289 0
M  V30 9120 O 853.01 0.596423 -1.92366 0
M  V30 9121 C 850.075 0.70457 -3.39465 0
M  V30 9122 C 849.136 -0.151738 -4.29032 0
M  V30 9123 C 848.369 0.674111 -5.29426 0
M  V30 9124 O 848.592 1.91107 -5.37433 0
M  V30 9125 O 847.526 0.0821398 -6.01844 0
M  V30 9126 H 851.352 -0.962119 -2.88057 0
M  V30 9127 H 848.937 -0.53517 -1.39486 0
M  V30 9128 H 850.819 1.19954 -4.03967 0
M  V30 9129 H 849.494 1.48227 -2.87768 0
M  V30 9130 H 848.401 -0.693118 -3.67623 0
M  V30 9131 H 849.734 -0.892575 -4.84039 0
M  V30 9132 N 851.386 1.48609 -0.524698 0
M  V30 9133 C 852.633 2.02497 0.0113214 0
M  V30 9134 C 852.961 1.40229 1.34781 0
M  V30 9135 O 852.216 0.53557 1.88229 0
M  V30 9136 C 852.515 3.56906 0.187873 0
M  V30 9137 C 852.181 4.37932 -1.07359 0
M  V30 9138 C 850.843 4.59792 -1.41933 0
M  V30 9139 C 853.195 4.84902 -1.911 0
M  V30 9140 C 850.523 5.25868 -2.60154 0
M  V30 9141 C 852.875 5.52281 -3.08495 0
M  V30 9142 C 851.539 5.7238 -3.4342 0
M  V30 9143 H 850.809 0.740988 0.0041428 0
M  V30 9144 H 853.456 1.78651 -0.689652 0
M  V30 9145 H 851.761 3.79563 0.971572 0
M  V30 9146 H 853.458 3.96218 0.617443 0
M  V30 9147 H 850.048 4.21175 -0.794331 0
M  V30 9148 H 854.232 4.67821 -1.65701 0
M  V30 9149 H 849.488 5.39628 -2.87422 0
M  V30 9150 H 853.662 5.87645 -3.73692 0
M  V30 9151 H 851.289 6.23354 -4.35126 0
M  V30 9152 N 852.864 0.259585 1.55447 0
M  V30 9153 C 853.774 -0.645026 2.25558 0
M  V30 9154 C 854.79 -1.18291 1.27606 0
M  V30 9155 O 855.966 -1.21649 1.6051 0
M  V30 9156 C 853.031 -1.81964 2.9511 0
M  V30 9157 C 852.092 -1.31997 4.08504 0
M  V30 9158 C 851.325 -2.43861 4.74729 0
M  V30 9159 O 851.548 -3.62876 4.40088 0
M  V30 9160 O 850.482 -2.12898 5.6299 0
M  V30 9161 H 854.308 -0.0775399 3.03601 0
M  V30 9162 H 851.893 0.0275859 1.49375 0
M  V30 9163 H 853.775 -2.50485 3.38873 0
M  V30 9164 H 852.45 -2.37451 2.19997 0
M  V30 9165 H 851.357 -0.601676 3.6923 0
M  V30 9166 H 852.69 -0.811045 4.85472 0
M  V30 9167 N 854.342 -1.57594 -0.0133615 0
M  V30 9168 C 855.619 -1.81173 -0.737273 0
M  V30 9169 C 855.999 -0.861395 -1.92726 0
M  V30 9170 O 855.347 0.0929324 -2.28311 0
M  V30 9171 C 855.557 -3.29314 -1.15557 0
M  V30 9172 C 856.905 -3.94707 -1.56498 0
M  V30 9173 O 857.929 -3.33557 -1.24973 0
M  V30 9174 O 856.788 -5.02402 -2.15069 0
M  V30 9175 H 853.882 -0.745575 -0.357837 0
M  V30 9176 H 856.428 -1.69696 0.0110674 0
M  V30 9177 H 855.2 -3.90096 -0.30677 0
M  V30 9178 H 854.823 -3.45739 -1.96343 0
M  V30 9179 N 855.82 0.285905 -1.54985 0
M  V30 9180 C 857.068 1.01718 -1.74636 0
M  V30 9181 C 857.389 1.87277 -0.543342 0
M  V30 9182 O 856.659 1.90847 0.442078 0
M  V30 9183 H 855.239 0.378549 -0.643979 0
M  V30 9184 H 857.901 0.313247 -1.92366 0
M  V30 9185 H 856.997 1.66159 -2.64192 0
M  V30 9186 N 857.298 1.47698 0.54982 0
M  V30 9187 C 858.714 1.3338 0.876468 0
M  V30 9188 C 858.914 0.329837 1.98782 0
M  V30 9189 O 857.97 -0.256022 2.51199 0
M  V30 9190 C 859.283 2.72903 1.26272 0
M  V30 9191 C 860.831 2.81243 1.37373 0
M  V30 9192 C 861.306 4.21423 1.79351 0
M  V30 9193 N 862.797 4.24 1.86489 0
M  V30 9194 C 863.532 5.29386 2.20313 0
M  V30 9195 N 863.028 6.4507 2.527 0
M  V30 9196 N 864.821 5.16768 2.2115 0
M  V30 9197 H 856.972 2.11603 -0.183781 0
M  V30 9198 H 859.235 0.947798 -0.0195601 0
M  V30 9199 H 858.941 3.47836 0.519889 0
M  V30 9200 H 858.815 3.05151 2.21727 0
M  V30 9201 H 861.202 2.06577 2.10737 0
M  V30 9202 H 861.283 2.52639 0.400882 0
M  V30 9203 H 860.927 4.96597 1.06555 0
M  V30 9204 H 860.857 4.47456 2.77652 0
M  V30 9205 H 863.348 3.40547 1.63817 0
M  V30 9206 H 863.661 7.21236 2.77557 0
M  V30 9207 H 862.006 6.48377 2.50263 0
M  V30 9208 H 865.197 4.25416 1.95293 0
M  V30 9209 H 865.37 5.99004 2.4718 0
M  V30 9210 N 858.776 -0.797141 1.35954 0
M  V30 9211 C 859.686 -1.94088 1.31784 0
M  V30 9212 C 860.702 -1.72588 0.221227 0
M  V30 9213 O 861.878 -1.96256 0.452255 0
M  V30 9214 C 858.943 -3.28828 1.09878 0
M  V30 9215 C 858.004 -3.63158 2.28942 0
M  V30 9216 C 857.237 -4.91469 2.08072 0
M  V30 9217 O 857.46 -5.60616 1.05196 0
M  V30 9218 O 856.394 -5.24277 2.95664 0
M  V30 9219 H 860.22 -2.00554 2.28061 0
M  V30 9220 H 857.805 -0.936288 1.16422 0
M  V30 9221 H 859.687 -4.09473 0.995485 0
M  V30 9222 H 858.362 -3.23271 0.16659 0
M  V30 9223 H 857.269 -2.82851 2.44839 0
M  V30 9224 H 858.602 -3.7343 3.20641 0
M  V30 9225 N 860.254 -1.20106 -1.0204 0
M  V30 9226 C 861.482 -1.0344 -1.79186 0
M  V30 9227 C 861.897 0.416542 -1.84148 0
M  V30 9228 O 861.254 1.28925 -1.29168 0
M  V30 9229 C 861.305 -1.60663 -3.23836 0
M  V30 9230 O 861.026 -3.00079 -3.19193 0
M  V30 9231 C 862.527 -1.48897 -4.17546 0
M  V30 9232 H 859.747 -0.364093 -0.563629 0
M  V30 9233 H 862.291 -1.5911 -1.28469 0
M  V30 9234 H 860.446 -1.09122 -3.71714 0
M  V30 9235 H 860.86 -3.27162 -4.09958 0
M  V30 9236 H 862.334 -1.93703 -5.16898 0
M  V30 9237 H 862.811 -0.440843 -4.36982 0
M  V30 9238 H 863.417 -1.9961 -3.75547 0
M  V30 9239 N 861.732 1.21287 -1.00634 0
M  V30 9240 C 862.664 2.2308 -0.526094 0
M  V30 9241 C 863.677 1.58157 0.386031 0
M  V30 9242 O 864.866 1.77528 0.186016 0
M  V30 9243 C 861.966 3.37937 0.255289 0
M  V30 9244 C 861.139 4.32449 -0.656236 0
M  V30 9245 C 860.198 5.26145 0.0757714 0
M  V30 9246 O 859.224 5.66601 -0.543325 0
M  V30 9247 N 860.426 5.6449 1.35391 0
M  V30 9248 H 863.191 2.64913 -1.40147 0
M  V30 9249 H 860.752 1.35724 -0.882641 0
M  V30 9250 H 862.744 3.97614 0.753977 0
M  V30 9251 H 861.314 2.95078 1.03187 0
M  V30 9252 H 860.534 3.70892 -1.3354 0
M  V30 9253 H 861.822 4.92526 -1.27653 0
M  V30 9254 H 861.22 5.33617 1.878 0
M  V30 9255 H 859.777 6.26524 1.79753 0
M  V30 9256 N 863.21 0.781244 1.36873 0
M  V30 9257 C 864.435 0.360398 2.04245 0
M  V30 9258 C 864.86 -1.01242 1.58529 0
M  V30 9259 O 864.218 -1.65063 0.749936 0
M  V30 9260 C 864.266 0.42329 3.58107 0
M  V30 9261 O 863.37 -0.572796 4.08403 0
M  V30 9262 H 862.711 0.154386 0.645803 0
M  V30 9263 H 865.241 1.06008 1.74996 0
M  V30 9264 H 865.251 0.283967 4.07011 0
M  V30 9265 H 863.926 1.42477 3.90734 0
M  V30 9266 H 862.503 -0.395809 3.70793 0
M  V30 9267 N 864.689 -1.48329 0.532571 0
M  V30 9268 C 865.914 -2.074 0.00147755 0
M  V30 9269 C 866.339 -1.38615 -1.27151 0
M  V30 9270 O 865.697 -0.452949 -1.75551 0
M  V30 9271 C 865.745 -3.60029 -0.202866 0
M  V30 9272 O 864.849 -3.92327 -1.27097 0
M  V30 9273 H 864.19 -0.662777 0.0402883 0
M  V30 9274 H 866.72 -1.90701 0.741224 0
M  V30 9275 H 866.73 -4.05783 -0.424722 0
M  V30 9276 H 865.405 -4.09496 0.727033 0
M  V30 9277 H 863.982 -3.58348 -1.03156 0
M  V30 9278 N 866.167 -0.267825 -1.55308 0
M  V30 9279 C 867.077 0.633055 -2.25897 0
M  V30 9280 C 868.093 1.17613 -1.28231 0
M  V30 9281 O 869.269 1.20797 -1.61153 0
M  V30 9282 C 866.334 1.80397 -2.96071 0
M  V30 9283 C 865.395 1.29829 -4.09198 0
M  V30 9284 C 864.628 2.4134 -4.76016 0
M  V30 9285 O 864.851 3.60537 -4.42006 0
M  V30 9286 O 863.785 2.09909 -5.64111 0
M  V30 9287 H 867.611 0.0614381 -3.03638 0
M  V30 9288 H 865.196 -0.0355072 -1.49358 0
M  V30 9289 H 867.078 2.48685 -3.40197 0
M  V30 9290 H 865.753 2.36281 -2.21253 0
M  V30 9291 H 864.66 0.582086 -3.69544 0
M  V30 9292 H 865.993 0.785288 -4.85895 0
M  V30 9293 N 867.645 1.57599 0.00500368 0
M  V30 9294 C 868.87 1.95026 0.705663 0
M  V30 9295 C 869.295 0.869643 1.6679 0
M  V30 9296 O 868.653 -0.172659 1.80476 0
M  V30 9297 C 868.701 3.31545 1.4181 0
M  V30 9298 O 867.805 3.25495 2.53232 0
M  V30 9299 H 867.146 0.636808 0.188074 0
M  V30 9300 H 869.676 2.04547 -0.046696 0
M  V30 9301 H 869.686 3.66996 1.78265 0
M  V30 9302 H 868.361 4.09751 0.712543 0
M  V30 9303 H 866.938 3.01714 2.19142 0
M  V30 9304 N 869.123 -0.277682 1.55134 0
M  V30 9305 C 870.351 -1.02826 1.7954 0
M  V30 9306 C 870.766 -1.80105 0.566373 0
M  V30 9307 O 870.123 -1.76491 -0.464448 0
M  V30 9308 C 870.174 -1.99053 3.01762 0
M  V30 9309 O 869.895 -1.24906 4.19917 0
M  V30 9310 C 871.396 -2.85961 3.38735 0
M  V30 9311 H 868.616 -0.303958 0.598206 0
M  V30 9312 H 871.16 -0.309884 2.02138 0
M  V30 9313 H 869.315 -2.66359 2.81303 0
M  V30 9314 H 869.729 -1.89725 4.88983 0
M  V30 9315 H 871.203 -3.49286 4.27438 0
M  V30 9316 H 871.68 -3.55486 2.57928 0
M  V30 9317 H 872.286 -2.24152 3.61436 0
M  V30 9318 N 870.601 -1.47988 -0.541979 0
M  V30 9319 C 871.549 -1.62044 -1.66867 0
M  V30 9320 C 872.543 -0.487217 -1.62242 0
M  V30 9321 O 873.749 -0.66554 -1.67244 0
M  V30 9322 H 870.124 -0.51024 -0.552412 0
M  V30 9323 H 872.095 -2.56695 -1.52153 0
M  V30 9324 C 870.844 -1.66615 -3.0518 0
M  V30 9325 H 870.167 -2.5317 -3.09427 0
M  V30 9326 H 871.607 -1.80496 -3.83663 0
M  V30 9327 C 870.066 -0.402421 -3.34488 0
M  V30 9328 O 870.596 0.48992 -3.98701 0
M  V30 9329 N 868.802 -0.277778 -2.89269 0
M  V30 9330 H 868.349 -1.00488 -2.37192 0
M  V30 9331 H 868.307 0.566784 -3.09249 0
M  V30 9332 N 872.079 0.78992 -1.36375 0
M  V30 9333 C 872.989 1.93386 -1.32812 0
M  V30 9334 C 874.005 1.72468 -0.230377 0
M  V30 9335 O 875.181 1.96014 -0.462657 0
M  V30 9336 C 872.246 3.2824 -1.11621 0
M  V30 9337 C 871.307 3.61939 -2.30865 0
M  V30 9338 C 870.54 4.90359 -2.10675 0
M  V30 9339 O 870.763 5.6005 -1.08168 0
M  V30 9340 O 869.697 5.22702 -2.9844 0
M  V30 9341 H 873.523 1.99342 -2.29121 0
M  V30 9342 H 871.108 0.9301 -1.16917 0
M  V30 9343 H 872.99 4.08939 -1.01719 0
M  V30 9344 H 871.665 3.23178 -0.183732 0
M  V30 9345 H 870.572 2.81549 -2.46335 0
M  V30 9346 H 871.905 3.71725 -3.22617 0
M  V30 9347 N 873.557 1.20646 1.01402 0
M  V30 9348 C 874.804 1.01819 1.7504 0
M  V30 9349 C 875.132 -0.449386 1.89237 0
M  V30 9350 O 874.387 -1.34985 1.41695 0
M  V30 9351 C 874.686 1.64991 3.17037 0
M  V30 9352 C 874.352 3.14808 3.22811 0
M  V30 9353 C 873.014 3.55692 3.24094 0
M  V30 9354 C 875.366 4.108 3.2077 0
M  V30 9355 C 872.694 4.9109 3.2101 0
M  V30 9356 C 875.046 5.46147 3.19227 0
M  V30 9357 C 873.71 5.86441 3.18815 0
M  V30 9358 H 872.98 0.372582 0.640518 0
M  V30 9359 H 875.627 1.50108 1.18911 0
M  V30 9360 H 873.932 1.08971 3.76341 0
M  V30 9361 H 875.629 1.47937 3.72714 0
M  V30 9362 H 872.219 2.8224 3.2255 0
M  V30 9363 H 876.403 3.80246 3.18946 0
M  V30 9364 H 871.659 5.21569 3.19023 0
M  V30 9365 H 875.833 6.20272 3.166 0
M  V30 9366 H 873.46 6.91328 3.16179 0
M  V30 9367 N 875.035 -1.20752 1.01276 0
M  V30 9368 C 876.283 -1.89645 0.698505 0
M  V30 9369 C 876.604 -1.78986 -0.773883 0
M  V30 9370 O 875.874 -1.18977 -1.55632 0
M  V30 9371 H 874.454 -0.701992 0.255375 0
M  V30 9372 H 877.116 -1.46668 1.28353 0
M  V30 9373 H 876.212 -2.96364 0.978512 0
M  V30 9374 N 876.513 -0.788492 -1.36457 0
M  V30 9375 C 877.762 -0.357052 -1.98515 0
M  V30 9376 C 878.075 1.0769 -1.63285 0
M  V30 9377 O 879.281 1.61057 -2.1857 0
M  V30 9378 C 877.737 -0.587449 -3.55073 0
M  V30 9379 C 877.345 -2.03276 -3.99228 0
M  V30 9380 C 879.089 -0.220468 -4.23927 0
M  V30 9381 C 876.996 -2.20987 -5.48561 0
M  V30 9382 H 875.926 -0.129762 -0.74275 0
M  V30 9383 H 878.577 -0.969995 -1.55767 0
M  V30 9384 H 876.959 0.0951918 -3.95886 0
M  V30 9385 H 878.133 -2.75173 -3.69617 0
M  V30 9386 H 876.448 -2.3579 -3.43208 0
M  V30 9387 H 879.045 -0.331085 -5.33674 0
M  V30 9388 H 879.388 0.831306 -4.07915 0
M  V30 9389 H 879.921 -0.856309 -3.88474 0
M  V30 9390 H 876.66 -3.24543 -5.69519 0
M  V30 9391 H 876.18 -1.53594 -5.79801 0
M  V30 9392 H 877.859 -2.01656 -6.14771 0
M  V30 9393 N 877.991 1.48044 -0.54043 0
M  V30 9394 C 879.238 2.02497 -0.0101567 0
M  V30 9395 C 879.566 1.41651 1.33286 0
M  V30 9396 O 878.821 0.555504 1.8765 0
M  V30 9397 C 879.12 3.57085 0.150008 0
M  V30 9398 C 878.786 4.36769 -1.11998 0
M  V30 9399 C 877.448 4.58261 -1.46801 0
M  V30 9400 C 879.8 4.82848 -1.96232 0
M  V30 9401 C 877.128 5.23079 -2.65717 0
M  V30 9402 C 879.48 5.48977 -3.14335 0
M  V30 9403 C 878.144 5.68705 -3.49472 0
M  V30 9404 H 877.414 0.740991 -0.00371661 0
M  V30 9405 H 880.061 1.77909 -0.708562 0
M  V30 9406 H 878.366 3.80572 0.931259 0
M  V30 9407 H 880.063 3.96851 0.575384 0
M  V30 9408 H 876.653 4.20309 -0.838957 0
M  V30 9409 H 880.837 4.66038 -1.70654 0
M  V30 9410 H 876.093 5.36549 -2.93129 0
M  V30 9411 H 880.267 5.83649 -3.79904 0
M  V30 9412 H 877.894 6.18703 -4.41713 0
M  V30 9413 N 879.47 0.276058 1.55163 0
M  V30 9414 C 880.418 -0.626978 2.2399 0
M  V30 9415 C 881.412 -1.15708 1.23725 0
M  V30 9416 O 882.618 -1.1106 1.41653 0
M  V30 9417 H 878.993 -0.220742 0.718872 0
M  V30 9418 H 880.964 -0.0236569 2.98391 0
M  V30 9419 C 879.713 -1.79935 2.97521 0
M  V30 9420 H 879.036 -1.40064 3.74463 0
M  V30 9421 H 880.476 -2.40781 3.48999 0
M  V30 9422 C 878.935 -2.68838 2.03046 0
M  V30 9423 O 879.465 -3.69224 1.58229 0
M  V30 9424 N 877.671 -2.36028 1.69527 0
M  V30 9425 H 877.218 -1.54442 2.06169 0
M  V30 9426 H 877.176 -2.95782 1.06586 0
M  V30 9427 N 880.948 -1.576 0.00335426 0
M  V30 9428 C 882.173 -1.95398 -0.695311 0
M  V30 9429 C 882.598 -0.878476 -1.66326 0
M  V30 9430 O 881.956 0.163086 -1.80565 0
M  V30 9431 C 882.004 -3.32293 -1.40049 0
M  V30 9432 O 881.108 -3.26834 -2.51502 0
M  V30 9433 H 880.449 -0.637796 -0.184694 0
M  V30 9434 H 882.979 -2.04519 0.057543 0
M  V30 9435 H 882.989 -3.67936 -1.76316 0
M  V30 9436 H 881.664 -4.10123 -0.690803 0
M  V30 9437 H 880.241 -3.02872 -2.17539 0
M  V30 9438 N 882.426 0.269451 -1.5528 0
M  V30 9439 C 883.356 1.33729 -1.91413 0
M  V30 9440 C 884.337 1.51348 -0.776391 0
M  V30 9441 O 885.522 1.64332 -1.03482 0
M  V30 9442 C 882.652 2.69618 -2.18914 0
M  V30 9443 C 881.606 2.66725 -3.34726 0
M  V30 9444 C 880.932 4.06199 -3.47716 0
M  V30 9445 C 882.232 2.25684 -4.71025 0
M  V30 9446 H 883.926 1.03736 -2.80854 0
M  V30 9447 H 881.472 0.497579 -1.3513 0
M  V30 9448 H 883.425 3.44436 -2.42779 0
M  V30 9449 H 882.149 3.01201 -1.26275 0
M  V30 9450 H 880.808 1.94365 -3.10834 0
M  V30 9451 H 880.456 4.3501 -2.52537 0
M  V30 9452 H 880.156 4.05157 -4.25583 0
M  V30 9453 H 881.68 4.8275 -3.73877 0
M  V30 9454 H 883.094 2.90225 -4.94411 0
M  V30 9455 H 881.491 2.35797 -5.51833 0
M  V30 9456 H 882.561 1.20819 -4.69607 0
M  V30 9457 N 883.904 1.48273 0.534124 0
M  V30 9458 C 885.15 1.5729 1.28963 0
M  V30 9459 C 885.505 0.241854 1.90874 0
M  V30 9460 O 884.798 -0.754874 1.76103 0
M  V30 9461 C 884.992 2.64468 2.40398 0
M  V30 9462 C 884.821 4.07865 1.8941 0
M  V30 9463 C 883.591 4.75052 1.72202 0
M  V30 9464 C 885.789 4.94163 1.42505 0
M  V30 9465 N 883.771 6.0288 1.15795 0
M  V30 9466 C 885.142 6.12203 0.980176 0
M  V30 9467 C 887.197 4.8042 1.30769 0
M  V30 9468 C 885.9 7.18016 0.429591 0
M  V30 9469 C 887.926 5.86351 0.771107 0
M  V30 9470 C 887.288 7.03597 0.336287 0
M  V30 9471 H 883.387 0.630141 0.463083 0
M  V30 9472 H 885.971 1.85135 0.602767 0
M  V30 9473 H 884.142 2.38453 3.06586 0
M  V30 9474 H 885.874 2.63194 3.07426 0
M  V30 9475 H 882.629 4.3132 1.95603 0
M  V30 9476 H 883.053 6.71043 0.896141 0
M  V30 9477 H 887.695 3.90119 1.62993 0
M  V30 9478 H 885.413 8.08044 0.0950224 0
M  V30 9479 H 888.999 5.77771 0.68354 0
M  V30 9480 H 887.879 7.84167 -0.0724668 0
M  V30 9481 N 885.382 -0.782676 1.36792 0
M  V30 9482 C 886.629 -1.54083 1.31395 0
M  V30 9483 C 886.957 -1.94217 -0.104797 0
M  V30 9484 O 886.212 -1.63491 -1.0756 0
M  V30 9485 C 886.511 -2.82542 2.18872 0
M  V30 9486 C 886.177 -2.61512 3.67317 0
M  V30 9487 C 884.839 -2.55486 4.07775 0
M  V30 9488 C 887.191 -2.42389 4.61407 0
M  V30 9489 C 884.519 -2.28311 5.40454 0
M  V30 9490 C 886.871 -2.1674 5.94312 0
M  V30 9491 C 885.535 -2.09151 6.33887 0
M  V30 9492 H 884.805 -0.563829 0.48081 0
M  V30 9493 H 887.452 -0.902436 1.68903 0
M  V30 9494 H 885.757 -3.50883 1.74323 0
M  V30 9495 H 887.454 -3.40367 2.12017 0
M  V30 9496 H 884.044 -2.67062 3.35225 0
M  V30 9497 H 888.228 -2.46043 4.31018 0
M  V30 9498 H 883.484 -2.20922 5.70091 0
M  V30 9499 H 887.658 -2.0094 6.6678 0
M  V30 9500 H 885.285 -1.87857 7.36623 0
M  V30 9501 N 886.86 -1.21182 -1.00761 0
M  V30 9502 C 888.085 -1.05411 -1.78615 0
M  V30 9503 C 888.51 0.391837 -1.83973 0
M  V30 9504 O 887.868 1.28256 -1.28141 0
M  V30 9505 C 887.916 -1.65285 -3.20489 0
M  V30 9506 O 887.02 -0.896558 -4.02536 0
M  V30 9507 H 886.361 -0.37116 -0.550578 0
M  V30 9508 H 888.891 -1.60669 -1.26676 0
M  V30 9509 H 888.901 -1.69397 -3.71172 0
M  V30 9510 H 887.576 -2.70514 -3.15904 0
M  V30 9511 H 886.153 -0.930335 -3.61108 0
M  V30 9512 N 888.338 1.20213 -1.01915 0
M  V30 9513 C 889.268 2.25336 -0.612023 0
M  V30 9514 C 890.249 1.65933 0.374186 0
M  V30 9515 O 891.434 1.92464 0.259053 0
M  V30 9516 C 888.564 3.47267 0.047904 0
M  V30 9517 C 887.518 4.1928 -0.859557 0
M  V30 9518 C 886.844 5.3466 -0.0652655 0
M  V30 9519 C 888.144 4.75143 -2.1688 0
M  V30 9520 H 889.838 2.59645 -1.49079 0
M  V30 9521 H 887.384 1.24808 -0.718263 0
M  V30 9522 H 889.337 4.19991 0.344294 0
M  V30 9523 H 888.061 3.12129 0.961404 0
M  V30 9524 H 886.72 3.48425 -1.13999 0
M  V30 9525 H 886.368 4.95767 0.849964 0
M  V30 9526 H 886.068 5.83772 -0.669618 0
M  V30 9527 H 887.592 6.10187 0.224612 0
M  V30 9528 H 889.006 5.39672 -1.9346 0
M  V30 9529 H 887.403 5.34702 -2.72422 0
M  V30 9530 H 888.473 3.93744 -2.83008 0
M  V30 9531 N 889.816 0.795718 1.36037 0
M  V30 9532 C 891.064 0.370291 1.98679 0
M  V30 9533 C 891.385 -1.06332 1.63458 0
M  V30 9534 O 890.655 -1.73394 0.911671 0
M  V30 9535 H 889.235 0.133928 0.734896 0
M  V30 9536 H 891.897 1.01915 1.6613 0
M  V30 9537 H 890.993 0.467207 3.08583 0
M  V30 9538 N 891.294 -1.47756 0.548274 0
M  V30 9539 C 892.257 -2.28379 -0.193857 0
M  V30 9540 C 893.257 -1.36436 -0.850986 0
M  V30 9541 O 894.447 -1.59154 -0.70822 0
M  V30 9542 C 891.579 -3.15858 -1.28243 0
M  V30 9543 H 892.772 -2.95458 0.514231 0
M  V30 9544 H 890.325 -1.53298 0.304879 0
M  V30 9545 H 891.06 -2.5345 -2.0232 0
M  V30 9546 H 890.845 -3.83512 -0.816148 0
M  V30 9547 H 892.335 -3.76627 -1.80393 0
M  V30 9548 N 892.772 -0.284283 -1.55015 0
M  V30 9549 C 894.019 0.329864 -1.99795 0
M  V30 9550 C 894.347 1.55171 -1.1727 0
M  V30 9551 O 893.602 1.94312 -0.232667 0
M  V30 9552 C 893.901 0.747219 -3.49502 0
M  V30 9553 C 893.567 -0.37101 -4.49371 0
M  V30 9554 C 892.229 -0.678034 -4.76399 0
M  V30 9555 C 894.581 -1.12406 -5.08935 0
M  V30 9556 C 891.909 -1.74152 -5.60257 0
M  V30 9557 C 894.261 -2.17734 -5.93948 0
M  V30 9558 C 892.925 -2.49061 -6.19294 0
M  V30 9559 H 892.195 0.120706 -0.731103 0
M  V30 9560 H 894.842 -0.399904 -1.87278 0
M  V30 9561 H 893.147 1.55681 -3.59542 0
M  V30 9562 H 894.844 1.2333 -3.81563 0
M  V30 9563 H 891.434 -0.1216 -4.28427 0
M  V30 9564 H 895.618 -0.900119 -4.88069 0
M  V30 9565 H 890.874 -1.98915 -5.78137 0
M  V30 9566 H 895.048 -2.76553 -6.39133 0
M  V30 9567 H 892.675 -3.31602 -6.84064 0
M  V30 9568 N 894.251 1.57596 -0.0117121 0
M  V30 9569 C 895.184 2.04624 1.01016 0
M  V30 9570 C 896.162 0.938437 1.32786 0
M  V30 9571 O 897.346 1.20746 1.44751 0
M  V30 9572 C 894.473 2.45369 2.33477 0
M  V30 9573 C 893.519 3.66998 2.17289 0
M  V30 9574 S 894.352 5.14412 1.48795 0
M  V30 9575 C 895.508 5.58438 2.82662 0
M  V30 9576 H 895.741 2.9098 0.60977 0
M  V30 9577 H 893.274 1.53106 0.199494 0
M  V30 9578 H 895.232 2.69511 3.09635 0
M  V30 9579 H 893.893 1.59391 2.70653 0
M  V30 9580 H 893.086 3.93297 3.15172 0
M  V30 9581 H 892.688 3.42918 1.49275 0
M  V30 9582 H 894.98 5.61614 3.78941 0
M  V30 9583 H 895.923 6.58224 2.61049 0
M  V30 9584 H 896.331 4.86033 2.8711 0
M  V30 9585 N 895.729 -0.261212 1.5542 0
M  V30 9586 C 896.661 -1.34571 1.85535 0
M  V30 9587 C 897.674 -1.44979 0.740612 0
M  V30 9588 O 898.863 -1.46584 1.01859 0
M  V30 9589 C 895.963 -2.7258 2.01378 0
M  V30 9590 C 895.136 -2.84618 3.32131 0
M  V30 9591 C 894.195 -4.03379 3.37893 0
M  V30 9592 O 893.221 -3.93581 4.11197 0
M  V30 9593 N 894.423 -5.15893 2.66148 0
M  V30 9594 H 897.188 -1.09078 2.79145 0
M  V30 9595 H 894.749 -0.451327 1.55482 0
M  V30 9596 H 896.741 -3.50342 2.0259 0
M  V30 9597 H 895.311 -2.90844 1.14579 0
M  V30 9598 H 894.531 -1.93647 3.43358 0
M  V30 9599 H 895.819 -2.896 4.18341 0
M  V30 9600 H 895.217 -5.26743 2.06297 0
M  V30 9601 H 893.774 -5.91842 2.73069 0
M  V30 9602 N 897.207 -1.48554 -0.526253 0
M  V30 9603 C 898.139 -1.59446 -1.6465 0
M  V30 9604 C 899.152 -0.478525 -1.55608 0
M  V30 9605 O 900.341 -0.74953 -1.62001 0
M  V30 9606 C 897.441 -1.51164 -3.03319 0
M  V30 9607 C 896.614 -2.77861 -3.37805 0
M  V30 9608 C 895.673 -2.62982 -4.5577 0
M  V30 9609 O 894.699 -3.36876 -4.58806 0
M  V30 9610 N 895.901 -1.72847 -5.5417 0
M  V30 9611 H 898.666 -2.56055 -1.55743 0
M  V30 9612 H 896.227 -1.45325 -0.713606 0
M  V30 9613 H 898.219 -1.389 -3.80117 0
M  V30 9614 H 896.789 -0.625147 -3.06285 0
M  V30 9615 H 896.009 -3.04663 -2.50149 0
M  V30 9616 H 897.297 -3.61908 -3.57632 0
M  V30 9617 H 896.695 -1.12022 -5.54498 0
M  V30 9618 H 895.252 -1.6652 -6.3017 0
M  V30 9619 N 898.685 0.775411 -1.37205 0
M  V30 9620 C 899.933 1.53081 -1.3195 0
M  V30 9621 C 900.254 1.9476 0.0966864 0
M  V30 9622 O 899.524 1.66019 1.03993 0
M  V30 9623 H 898.104 0.567762 -0.485444 0
M  V30 9624 H 900.766 0.92309 -1.71654 0
M  V30 9625 H 899.862 2.4319 -1.95614 0
M  V30 9626 N 900.163 1.21714 1.00117 0
M  V30 9627 C 901.403 1.04818 1.75478 0
M  V30 9628 C 901.767 -0.410653 1.87557 0
M  V30 9629 O 902.968 -0.700241 2.59519 0
M  V30 9630 C 901.239 1.73055 3.12709 0
M  V30 9631 S 902.798 1.71464 4.03913 0
M  V30 9632 H 899.616 0.375534 0.603734 0
M  V30 9633 H 902.218 1.54522 1.19763 0
M  V30 9634 H 900.922 2.78376 3.01554 0
M  V30 9635 H 900.453 1.23546 3.73497 0
M  V30 9636 H 902.468 0.75845 4.90369 0
M  V30 9637 N 901.641 -1.19671 1.02551 0
M  V30 9638 C 902.918 -1.85014 0.634771 0
M  V30 9639 C 903.298 -1.91574 -0.886706 0
M  V30 9640 O 902.646 -1.43022 -1.78205 0
M  V30 9641 C 902.856 -3.24167 1.29292 0
M  V30 9642 C 904.204 -4.00363 1.41402 0
M  V30 9643 O 905.228 -3.33553 1.24983 0
M  V30 9644 O 904.087 -5.2003 1.6802 0
M  V30 9645 H 901.181 -0.797147 0.220196 0
M  V30 9646 H 903.727 -1.27188 1.12345 0
M  V30 9647 H 902.499 -3.14208 2.33215 0
M  V30 9648 H 902.122 -3.89634 0.791895 0
M  V30 9649 N 903.119 -0.802921 -1.35613 0
M  V30 9650 C 904.368 -0.378087 -1.98125 0
M  V30 9651 C 904.681 1.05953 -1.64418 0
M  V30 9652 O 905.887 1.58729 -2.20266 0
M  V30 9653 C 904.343 -0.625077 -3.5443 0
M  V30 9654 C 903.951 -2.07499 -3.97049 0
M  V30 9655 C 905.695 -0.265419 -4.23669 0
M  V30 9656 C 903.602 -2.26793 -5.46186 0
M  V30 9657 H 902.532 -0.137633 -0.741332 0
M  V30 9658 H 905.183 -0.986461 -1.54729 0
M  V30 9659 H 903.565 0.0531975 -3.95964 0
M  V30 9660 H 904.739 -2.79077 -3.66678 0
M  V30 9661 H 903.054 -2.39417 -3.40688 0
M  V30 9662 H 905.651 -0.387669 -5.33293 0
M  V30 9663 H 905.994 0.787994 -4.08774 0
M  V30 9664 H 906.527 -0.897464 -3.87544 0
M  V30 9665 H 903.266 -3.30566 -5.66045 0
M  V30 9666 H 902.786 -1.59735 -5.78139 0
M  V30 9667 H 904.465 -2.08165 -6.12598 0
M  V30 9668 N 904.597 1.47463 -0.556102 0
M  V30 9669 C 905.822 2.07371 -0.0344729 0
M  V30 9670 C 906.247 1.40621 1.2493 0
M  V30 9671 O 905.605 0.48082 1.74808 0
M  V30 9672 C 905.653 3.60306 0.145563 0
M  V30 9673 O 904.757 3.94299 1.20839 0
M  V30 9674 H 904.098 0.662052 -0.0508274 0
M  V30 9675 H 906.628 1.89498 -0.771469 0
M  V30 9676 H 906.638 4.06408 0.360112 0
M  V30 9677 H 905.313 4.08288 -0.792089 0
M  V30 9678 H 903.89 3.59944 0.97442 0
M  V30 9679 N 906.075 0.2925 1.54862 0
M  V30 9680 C 907.486 -0.201841 1.85606 0
M  V30 9681 C 907.837 -1.54093 1.21449 0
M  V30 9682 O 906.962 -2.10327 0.509079 0
M  V30 9683 C 907.557 -0.373011 3.3674 0
M  V30 9684 C 906.116 -0.811574 3.67547 0
M  V30 9685 C 905.263 0.0850583 2.7717 0
M  V30 9686 H 908.214 0.513774 1.50153 0
M  V30 9687 H 908.235 -1.20892 3.60785 0
M  V30 9688 H 907.747 0.601751 3.83407 0
M  V30 9689 H 905.848 -1.79719 3.26392 0
M  V30 9690 H 905.961 -0.636853 4.74848 0
M  V30 9691 H 904.325 -0.434224 2.50971 0
M  V30 9692 H 905.108 1.05602 3.26654 0
M  V30 9693 N 907.553 -1.57587 0.0200696 0
M  V30 9694 C 908.969 -1.56018 -0.336237 0
M  V30 9695 C 909.169 -1.02478 -1.73495 0
M  V30 9696 O 908.225 -0.667487 -2.43518 0
M  V30 9697 C 909.538 -3.00079 -0.193112 0
M  V30 9698 C 911.086 -3.11863 -0.266557 0
M  V30 9699 C 911.561 -4.57747 -0.152326 0
M  V30 9700 N 913.052 -4.62726 -0.209596 0
M  V30 9701 C 913.787 -5.73217 -0.144855 0
M  V30 9702 N 913.283 -6.92794 -0.0295487 0
M  V30 9703 N 915.076 -5.61751 -0.198184 0
M  V30 9704 H 907.227 -1.90722 0.93482 0
M  V30 9705 H 909.49 -0.876909 0.360186 0
M  V30 9706 H 909.196 -3.43167 0.770036 0
M  V30 9707 H 909.07 -3.64593 -0.967029 0
M  V30 9708 H 911.457 -2.68693 -1.22016 0
M  V30 9709 H 911.538 -2.50087 0.53758 0
M  V30 9710 H 911.182 -5.01595 0.797817 0
M  V30 9711 H 911.112 -5.17491 -0.97521 0
M  V30 9712 H 913.603 -3.76713 -0.299229 0
M  V30 9713 H 913.916 -7.72799 0.0134071 0
M  V30 9714 H 912.261 -6.95 0.00510737 0
M  V30 9715 H 915.452 -4.67222 -0.286603 0
M  V30 9716 H 915.625 -6.47839 -0.144266 0
M  V30 9717 N 909.032 0.252966 -1.55557 0
M  V30 9718 C 910.257 1.0038 -1.8149 0
M  V30 9719 C 910.682 1.78397 -0.596318 0
M  V30 9720 O 910.04 1.7551 0.454535 0
M  V30 9721 C 910.088 1.9222 -3.05096 0
M  V30 9722 O 909.192 3.01302 -2.81587 0
M  V30 9723 H 908.533 0.285949 -0.599274 0
M  V30 9724 H 911.063 0.275795 -2.02733 0
M  V30 9725 H 911.073 2.338 -3.34368 0
M  V30 9726 H 909.748 1.34852 -3.93431 0
M  V30 9727 H 908.325 2.63894 -2.63466 0
M  V30 9728 N 910.51 1.48831 0.518367 0
M  V30 9729 C 911.44 1.67119 1.63075 0
M  V30 9730 C 912.421 0.519948 1.61958 0
M  V30 9731 O 913.606 0.753824 1.78972 0
M  V30 9732 C 910.736 1.72158 3.01627 0
M  V30 9733 C 909.69 2.86898 3.17606 0
M  V30 9734 C 909.016 2.77035 4.57335 0
M  V30 9735 C 910.316 4.28057 2.99274 0
M  V30 9736 H 912.01 2.60248 1.48025 0
M  V30 9737 H 909.556 1.2524 0.710694 0
M  V30 9738 H 911.509 1.83539 3.7933 0
M  V30 9739 H 910.233 0.756157 3.17726 0
M  V30 9740 H 908.892 2.75091 2.42323 0
M  V30 9741 H 908.54 1.78438 4.70286 0
M  V30 9742 H 908.24 3.54036 4.6897 0
M  V30 9743 H 909.764 2.904 5.37122 0
M  V30 9744 H 911.178 4.40636 3.6676 0
M  V30 9745 H 909.575 5.06145 3.22393 0
M  V30 9746 H 910.645 4.4371 1.95574 0
M  V30 9747 N 911.988 -0.768124 1.37614 0
M  V30 9748 C 913.213 -1.56239 1.36397 0
M  V30 9749 C 913.638 -1.8804 -0.0475839 0
M  V30 9750 O 912.996 -1.495 -1.02564 0
M  V30 9751 C 913.044 -2.84716 2.21289 0
M  V30 9752 O 912.148 -3.79249 1.62001 0
M  V30 9753 H 911.489 -0.473119 0.465891 0
M  V30 9754 H 914.019 -0.950415 1.81186 0
M  V30 9755 H 914.029 -3.33784 2.34632 0
M  V30 9756 H 912.704 -2.60899 3.2389 0
M  V30 9757 H 911.281 -3.37904 1.57719 0
M  V30 9758 N 913.466 -1.22244 -0.994698 0
M  V30 9759 C 914.714 -1.04384 -1.73056 0
M  V30 9760 C 915.035 0.422204 -1.90374 0
M  V30 9761 O 914.305 1.30383 -1.46209 0
M  V30 9762 H 912.885 -0.383263 -0.641185 0
M  V30 9763 H 915.547 -1.53725 -1.1981 0
M  V30 9764 H 914.643 -1.52021 -2.72573 0
M  V30 9765 N 914.944 1.19125 -1.03184 0
M  V30 9766 C 916.36 1.40909 -0.749447 0
M  V30 9767 C 916.56 1.9022 0.664729 0
M  V30 9768 O 915.616 2.08085 1.43028 0
M  V30 9769 C 916.929 2.41761 -1.78807 0
M  V30 9770 C 918.477 2.55503 -1.80796 0
M  V30 9771 C 918.952 3.59612 -2.83626 0
M  V30 9772 N 920.443 3.6711 -2.82461 0
M  V30 9773 C 921.178 4.47366 -3.5868 0
M  V30 9774 N 920.674 5.31302 -4.44623 0
M  V30 9775 N 922.467 4.42044 -3.47208 0
M  V30 9776 H 914.618 0.854399 -1.94458 0
M  V30 9777 H 916.881 0.437753 -0.840878 0
M  V30 9778 H 916.587 2.12559 -2.80199 0
M  V30 9779 H 916.461 3.40981 -1.61283 0
M  V30 9780 H 918.848 2.84027 -0.800803 0
M  V30 9781 H 918.929 1.56427 -2.02396 0
M  V30 9782 H 918.573 3.3183 -3.84515 0
M  V30 9783 H 918.503 4.58345 -2.59283 0
M  V30 9784 H 920.994 3.07166 -2.2013 0
M  V30 9785 H 921.307 5.89667 -4.99512 0
M  V30 9786 H 919.652 5.30753 -4.48694 0
M  V30 9787 H 922.843 3.75513 -2.79477 0
M  V30 9788 H 923.016 5.0435 -4.06859 0
M  V30 9789 N 916.422 0.810101 1.35185 0
M  V30 9790 C 917.671 0.388589 1.97921 0
M  V30 9791 C 917.984 -1.05079 1.64978 0
M  V30 9792 O 919.19 -1.57559 2.21105 0
M  V30 9793 C 917.646 0.643864 3.54094 0
M  V30 9794 C 917.254 2.09602 3.95943 0
M  V30 9795 C 918.998 0.287883 4.23523 0
M  V30 9796 C 916.905 2.29686 5.44976 0
M  V30 9797 H 915.835 0.141562 0.740592 0
M  V30 9798 H 918.486 0.994653 1.54204 0
M  V30 9799 H 916.868 -0.0321978 3.95987 0
M  V30 9800 H 918.042 2.81018 3.65192 0
M  V30 9801 H 916.357 2.4122 3.39414 0
M  V30 9802 H 918.954 0.415946 5.3308 0
M  V30 9803 H 919.297 -0.766305 4.09186 0
M  V30 9804 H 919.83 0.918004 3.87063 0
M  V30 9805 H 916.569 3.33563 5.64284 0
M  V30 9806 H 916.089 1.62798 5.77284 0
M  V30 9807 H 917.768 2.11411 6.11485 0
M  V30 9808 N 917.9 -1.47166 0.563914 0
M  V30 9809 C 919.146 -2.02756 0.0424338 0
M  V30 9810 C 919.479 -1.43662 -1.3067 0
M  V30 9811 O 918.754 -0.594676 -1.85186 0
M  V30 9812 C 919.037 -3.60074 -0.0434793 0
M  V30 9813 C 918.89 -4.29587 1.33323 0
M  V30 9814 C 920.209 -4.336 -0.753568 0
M  V30 9815 H 917.328 -0.736806 0.0168946 0
M  V30 9816 H 919.97 -1.75521 0.727496 0
M  V30 9817 H 918.12 -3.83409 -0.626906 0
M  V30 9818 H 919.792 -4.17573 1.96037 0
M  V30 9819 H 918.035 -3.8968 1.9061 0
M  V30 9820 H 918.706 -5.38218 1.22576 0
M  V30 9821 H 921.182 -4.15299 -0.258126 0
M  V30 9822 H 920.058 -5.43291 -0.782659 0
M  V30 9823 H 920.319 -4.03302 -1.81108 0
M  V30 9824 N 919.378 -0.300708 -1.54705 0
M  V30 9825 C 920.626 0.308044 -1.99739 0
M  V30 9826 C 920.947 1.54433 -1.19061 0
M  V30 9827 O 920.217 1.93794 -0.286507 0
M  V30 9828 H 918.797 0.116811 -0.73781 0
M  V30 9829 H 921.459 -0.41197 -1.90496 0
M  V30 9830 H 920.555 0.580287 -3.06658 0
M  V30 9831 N 920.856 1.57574 -0.0284266 0
M  V30 9832 C 922.104 1.91393 0.649079 0
M  V30 9833 C 922.425 0.905368 1.72708 0
M  V30 9834 O 921.695 -0.0532107 1.95828 0
M  V30 9835 H 920.275 0.70646 0.24274 0
M  V30 9836 H 922.937 1.94752 -0.076066 0
M  V30 9837 H 922.033 2.91988 1.10226 0
M  V30 9838 N 922.334 -0.244713 1.55689 0
M  V30 9839 C 923.58 -0.973886 1.77886 0
M  V30 9840 C 923.913 -1.8489 0.594071 0
M  V30 9841 O 923.188 -1.90182 -0.407564 0
M  V30 9842 C 923.471 -1.83255 3.09983 0
M  V30 9843 C 923.324 -0.985571 4.3887 0
M  V30 9844 C 924.643 -2.81464 3.38329 0
M  V30 9845 H 921.762 -0.352629 0.647165 0
M  V30 9846 H 924.404 -0.244243 1.88424 0
M  V30 9847 H 922.554 -2.45464 3.01131 0
M  V30 9848 H 924.226 -0.382005 4.59716 0
M  V30 9849 H 922.469 -0.29002 4.32829 0
M  V30 9850 H 923.14 -1.62022 5.27686 0
M  V30 9851 H 925.616 -2.2939 3.47159 0
M  V30 9852 H 924.492 -3.38663 4.31971 0
M  V30 9853 H 924.753 -3.58037 2.59349 0
M  V30 9854 N 923.813 -1.49104 -0.510467 0
M  V30 9855 C 925.059 -1.59322 -1.26444 0
M  V30 9856 C 925.414 -0.27219 -1.90465 0
M  V30 9857 O 924.707 0.726762 -1.77281 0
M  V30 9858 C 924.901 -2.68259 -2.36161 0
M  V30 9859 C 924.73 -4.10827 -1.82897 0
M  V30 9860 C 923.5 -4.77732 -1.64623 0
M  V30 9861 C 925.698 -4.96367 -1.34625 0
M  V30 9862 N 923.68 -6.04646 -1.06189 0
M  V30 9863 C 925.051 -6.13685 -0.882656 0
M  V30 9864 C 927.106 -4.8244 -1.2311 0
M  V30 9865 C 925.809 -7.18609 -0.315306 0
M  V30 9866 C 927.835 -5.87504 -0.677726 0
M  V30 9867 C 927.197 -7.04043 -0.224308 0
M  V30 9868 H 923.296 -0.637429 -0.453 0
M  V30 9869 H 925.88 -1.8607 -0.573237 0
M  V30 9870 H 924.051 -2.433 -3.02753 0
M  V30 9871 H 925.783 -2.68052 -3.032 0
M  V30 9872 H 922.538 -4.34377 -1.88716 0
M  V30 9873 H 922.962 -6.72383 -0.78927 0
M  V30 9874 H 927.604 -3.92663 -1.56766 0
M  V30 9875 H 925.322 -8.08093 0.0335425 0
M  V30 9876 H 928.908 -5.78785 -0.591535 0
M  V30 9877 H 927.788 -7.83952 0.197212 0
M  V30 9878 N 925.291 0.760815 -1.38019 0
M  V30 9879 C 926.537 1.52109 -1.35034 0
M  V30 9880 C 926.892 1.92302 0.0615509 0
M  V30 9881 O 926.185 1.62028 1.02261 0
M  V30 9882 C 926.379 2.79024 -2.23339 0
M  V30 9883 C 926.208 2.51238 -3.72974 0
M  V30 9884 C 924.978 2.44818 -4.42032 0
M  V30 9885 C 927.176 2.18499 -4.65578 0
M  V30 9886 N 925.158 2.09232 -5.77144 0
M  V30 9887 C 926.529 1.93143 -5.89148 0
M  V30 9888 C 928.584 2.04747 -4.53854 0
M  V30 9889 C 927.287 1.55423 -7.02308 0
M  V30 9890 C 929.313 1.68428 -5.66909 0
M  V30 9891 C 928.675 1.43939 -6.89537 0
M  V30 9892 H 924.774 0.556482 -0.54941 0
M  V30 9893 H 927.358 0.886614 -1.73341 0
M  V30 9894 H 925.529 3.40292 -1.87232 0
M  V30 9895 H 927.261 3.45016 -2.11533 0
M  V30 9896 H 924.016 2.61045 -3.95161 0
M  V30 9897 H 924.44 1.94104 -6.48577 0
M  V30 9898 H 929.082 2.22358 -3.59607 0
M  V30 9899 H 926.8 1.36551 -7.96479 0
M  V30 9900 H 930.386 1.5843 -5.59814 0
M  V30 9901 H 929.266 1.16253 -7.75535 0
M  V30 9902 N 926.769 1.22769 0.988202 0
M  V30 9903 C 928.016 1.05509 1.72841 0
M  V30 9904 C 928.344 -0.409145 1.90148 0
M  V30 9905 O 927.599 -1.3195 1.44526 0
M  V30 9906 C 927.898 1.71679 3.13466 0
M  V30 9907 C 927.564 3.21584 3.16061 0
M  V30 9908 C 926.226 3.62486 3.16476 0
M  V30 9909 C 928.578 4.17511 3.11984 0
M  V30 9910 C 925.906 4.97789 3.10521 0
M  V30 9911 C 928.258 5.52796 3.0757 0
M  V30 9912 C 926.922 5.93072 3.06304 0
M  V30 9913 H 926.192 0.386085 0.632471 0
M  V30 9914 H 928.839 1.52596 1.157 0
M  V30 9915 H 927.144 1.1693 3.73945 0
M  V30 9916 H 928.841 1.55809 3.69492 0
M  V30 9917 H 925.431 2.89019 3.1649 0
M  V30 9918 H 929.615 3.86926 3.10809 0
M  V30 9919 H 924.871 5.28218 3.07888 0
M  V30 9920 H 929.045 6.26848 3.03372 0
M  V30 9921 H 926.672 6.97879 3.01444 0
M  V30 9922 N 928.247 -1.18576 1.03814 0
M  V30 9923 C 929.494 -1.88493 0.740036 0
M  V30 9924 C 929.822 -1.80198 -0.732056 0
M  V30 9925 O 929.077 -1.19509 -1.54971 0
M  V30 9926 C 929.376 -3.38448 1.14837 0
M  V30 9927 C 929.042 -3.66947 2.62031 0
M  V30 9928 C 927.704 -3.74435 3.02244 0
M  V30 9929 C 930.056 -3.79534 3.57217 0
M  V30 9930 C 927.384 -3.91986 4.36536 0
M  V30 9931 C 929.736 -3.986 4.91223 0
M  V30 9932 C 928.4 -4.04323 5.31111 0
M  V30 9933 H 927.67 -0.689746 0.270798 0
M  V30 9934 H 930.317 -1.40364 1.3027 0
M  V30 9935 H 928.622 -3.88539 0.504472 0
M  V30 9936 H 930.319 -3.90882 0.89511 0
M  V30 9937 H 926.909 -3.61734 2.29883 0
M  V30 9938 H 931.093 -3.73083 3.27296 0
M  V30 9939 H 926.349 -3.9466 4.66962 0
M  V30 9940 H 930.523 -4.07281 5.64885 0
M  V30 9941 H 928.15 -4.17676 6.35178 0
M  V30 9942 N 929.725 -0.817259 -1.34754 0
M  V30 9943 C 930.953 -0.415451 -2.02686 0
M  V30 9944 C 931.368 0.97688 -1.61563 0
M  V30 9945 O 930.725 1.63125 -0.818321 0
M  V30 9946 C 930.776 -0.501486 -3.58005 0
M  V30 9947 O 930.497 -1.83893 -3.97637 0
M  V30 9948 C 931.998 -0.0938504 -4.43201 0
M  V30 9949 H 929.218 -0.16742 -0.649778 0
M  V30 9950 H 931.762 -1.10384 -1.7215 0
M  V30 9951 H 929.917 0.138766 -3.87151 0
M  V30 9952 H 930.331 -1.8092 -4.92309 0
M  V30 9953 H 931.805 -0.205145 -5.51619 0
M  V30 9954 H 932.282 0.962011 -4.28535 0
M  V30 9955 H 932.888 -0.707677 -4.19371 0
M  V30 9956 N 931.203 1.46865 -0.571711 0
M  V30 9957 C 932.133 2.3298 0.155795 0
M  V30 9958 C 933.114 1.44678 0.894553 0
M  V30 9959 O 934.299 1.73513 0.872176 0
M  V30 9960 C 931.429 3.26745 1.17708 0
M  V30 9961 C 930.383 4.24401 0.553863 0
M  V30 9962 C 929.709 5.07595 1.68083 0
M  V30 9963 C 931.009 5.19884 -0.501827 0
M  V30 9964 H 932.703 2.94056 -0.563176 0
M  V30 9965 H 930.249 1.41402 -0.27228 0
M  V30 9966 H 932.202 3.85838 1.6943 0
M  V30 9967 H 930.926 2.63753 1.92618 0
M  V30 9968 H 929.585 3.66554 0.057815 0
M  V30 9969 H 929.233 4.40996 2.41933 0
M  V30 9970 H 928.933 5.73722 1.26953 0
M  V30 9971 H 930.457 5.6955 2.20103 0
M  V30 9972 H 931.871 5.73257 -0.0701057 0
M  V30 9973 H 930.268 5.94293 -0.832815 0
M  V30 9974 H 931.338 4.64482 -1.39229 0
M  V30 9975 N 932.681 0.308908 1.54543 0
M  V30 9976 C 933.93 -0.298854 1.99474 0
M  V30 9977 C 934.243 -1.54393 1.20093 0
M  V30 9978 O 935.449 -2.22677 1.55329 0
M  V30 9979 C 933.905 -0.58303 3.55146 0
M  V30 9980 C 933.513 0.644157 4.43345 0
M  V30 9981 C 935.257 -1.15155 4.08582 0
M  V30 9982 C 933.164 0.332694 5.90463 0
M  V30 9983 H 932.094 -0.115445 0.74511 0
M  V30 9984 H 934.745 0.418848 1.78656 0
M  V30 9985 H 933.127 -1.36053 3.71894 0
M  V30 9986 H 934.301 1.42012 4.38371 0
M  V30 9987 H 932.616 1.13186 4.00722 0
M  V30 9988 H 935.213 -1.39896 5.16075 0
M  V30 9989 H 935.556 -2.09632 3.59667 0
M  V30 9990 H 936.089 -0.435571 3.95408 0
M  V30 9991 H 932.828 1.24624 6.43544 0
M  V30 9992 H 932.348 -0.405844 5.98425 0
M  V30 9993 H 934.027 -0.0628545 6.46969 0
M  V30 9994 N 934.159 -1.57557 0.0367827 0
M  V30 9995 C 935.408 -1.91291 -0.639569 0
M  V30 9996 C 935.721 -0.915601 -1.72847 0
M  V30 9997 O 936.927 -1.14447 -2.46199 0
M  V30 9998 C 935.383 -3.39697 -1.18888 0
M  V30 9999 C 934.991 -4.47803 -0.132851 0
M  V30 10000 C 936.735 -3.82487 -1.8413 0
M  V30 10001 C 934.642 -5.87311 -0.694229 0
M  V30 10002 H 933.572 -0.713886 -0.242658 0
M  V30 10003 H 936.223 -1.83209 0.103332 0
M  V30 10004 H 934.605 -3.42736 -1.98363 0
M  V30 10005 H 935.779 -4.56334 0.640009 0
M  V30 10006 H 934.094 -4.14264 0.421264 0
M  V30 10007 H 936.691 -4.84076 -2.27101 0
M  V30 10008 H 937.034 -3.17959 -2.68716 0
M  V30 10009 H 937.567 -3.81903 -1.11332 0
M  V30 10010 H 934.306 -6.55401 0.113667 0
M  V30 10011 H 933.826 -5.82371 -1.4354 0
M  V30 10012 H 935.505 -6.36119 -1.1816 0
M  V30 10013 N 935.637 0.236453 -1.55816 0
M  V30 10014 C 936.886 0.960981 -1.77336 0
M  V30 10015 C 937.199 1.86085 -0.602641 0
M  V30 10016 O 938.405 2.62291 -0.701106 0
M  V30 10017 C 936.861 1.75884 -3.13995 0
M  V30 10018 C 936.469 0.905849 -4.38746 0
M  V30 10019 C 938.213 2.47548 -3.44848 0
M  V30 10020 C 936.12 1.7002 -5.66434 0
M  V30 10021 H 935.05 0.362547 -0.661117 0
M  V30 10022 H 937.701 0.215303 -1.82233 0
M  V30 10023 H 936.083 2.54687 -3.03234 0
M  V30 10024 H 937.257 0.159415 -4.60524 0
M  V30 10025 H 935.572 0.30205 -4.15303 0
M  V30 10026 H 938.169 3.07452 -4.37467 0
M  V30 10027 H 938.512 3.19689 -2.66655 0
M  V30 10028 H 939.045 1.75747 -3.56872 0
M  V30 10029 H 935.784 1.02234 -6.47479 0
M  V30 10030 H 935.304 2.42164 -5.48741 0
M  V30 10031 H 936.983 2.26469 -6.0607 0
M  V30 10032 N 937.115 1.49373 0.502552 0
M  V30 10033 C 938.34 1.62752 1.28556 0
M  V30 10034 C 938.765 0.298285 1.8572 0
M  V30 10035 O 938.123 -0.733885 1.65782 0
M  V30 10036 C 938.171 2.69778 2.39274 0
M  V30 10037 O 937.275 2.28843 3.43081 0
M  V30 10038 H 936.616 0.544799 0.379592 0
M  V30 10039 H 939.146 1.9555 0.601792 0
M  V30 10040 H 939.156 2.91899 2.8506 0
M  V30 10041 H 937.831 3.66266 1.97033 0
M  V30 10042 H 936.408 2.17047 3.03224 0
M  V30 10043 N 938.594 -0.753485 1.38421 0
M  V30 10044 C 939.819 -1.54783 1.38047 0
M  V30 10045 C 940.244 -1.8808 -0.0276371 0
M  V30 10046 O 939.602 -1.5058 -1.00973 0
M  V30 10047 C 939.65 -2.82353 2.24297 0
M  V30 10048 O 938.754 -3.77509 1.66014 0
M  V30 10049 H 938.095 -0.468151 0.470883 0
M  V30 10050 H 940.625 -0.931144 1.82184 0
M  V30 10051 H 940.635 -3.31277 2.38159 0
M  V30 10052 H 939.31 -2.57449 3.26639 0
M  V30 10053 H 937.887 -3.36212 1.61294 0
M  V30 10054 N 940.072 -1.23292 -0.981677 0
M  V30 10055 C 941.302 -1.0893 -1.7555 0
M  V30 10056 C 941.71 0.362219 -1.857 0
M  V30 10057 O 941.053 1.2624 -1.33451 0
M  V30 10058 C 941.115 -1.6389 -3.19969 0
M  V30 10059 C 940.779 -3.12632 -3.33332 0
M  V30 10060 C 941.776 -4.0994 -3.19758 0
M  V30 10061 C 939.461 -3.52314 -3.58022 0
M  V30 10062 C 941.455 -5.44915 -3.30676 0
M  V30 10063 C 939.142 -4.87434 -3.6858 0
M  V30 10064 C 940.14 -5.83544 -3.54916 0
M  V30 10065 O 939.828 -7.16209 -3.65102 0
M  V30 10066 H 939.56 -0.381901 -0.557788 0
M  V30 10067 H 942.114 -1.63586 -1.24213 0
M  V30 10068 H 940.344 -1.03653 -3.72549 0
M  V30 10069 H 942.033 -1.45023 -3.79108 0
M  V30 10070 H 942.799 -3.80625 -3.00582 0
M  V30 10071 H 938.678 -2.78022 -3.67729 0
M  V30 10072 H 942.222 -6.19913 -3.19928 0
M  V30 10073 H 938.119 -5.16426 -3.87265 0
M  V30 10074 H 938.887 -7.23941 -3.81905 0
M  V30 10075 N 941.55 1.18024 -1.04442 0
M  V30 10076 C 942.778 1.92032 -0.770161 0
M  V30 10077 C 943.193 1.76391 0.673181 0
M  V30 10078 O 942.55 1.09604 1.45922 0
M  V30 10079 C 942.601 3.43328 -1.13173 0
M  V30 10080 O 942.322 3.5848 -2.51841 0
M  V30 10081 C 943.823 4.34427 -0.882523 0
M  V30 10082 H 941.043 0.609518 -0.280586 0
M  V30 10083 H 943.587 1.49711 -1.39308 0
M  V30 10084 H 941.742 3.83423 -0.553704 0
M  V30 10085 H 942.156 4.52166 -2.65794 0
M  V30 10086 H 943.63 5.39123 -1.18533 0
M  V30 10087 H 944.107 4.3882 0.18257 0
M  V30 10088 H 944.713 4.00035 -1.44403 0
M  V30 10089 N 943.028 0.824394 1.34319 0
M  V30 10090 C 943.991 0.252696 2.27803 0
M  V30 10091 C 944.991 -0.570254 1.50349 0
M  V30 10092 O 946.181 -0.386145 1.69866 0
M  V30 10093 C 943.313 -0.645575 3.34731 0
M  V30 10094 H 944.506 1.07742 2.79878 0
M  V30 10095 H 942.059 0.596367 1.44475 0
M  V30 10096 H 942.794 -1.4933 2.87873 0
M  V30 10097 H 942.579 -0.0569478 3.92059 0
M  V30 10098 H 944.069 -1.03933 4.0446 0
M  V30 10099 N 944.506 -1.46559 0.579492 0
M  V30 10100 C 945.454 -2.3199 -0.168413 0
M  V30 10101 C 946.448 -1.44288 -0.887551 0
M  V30 10102 O 947.654 -1.60931 -0.806305 0
M  V30 10103 H 944.029 -0.748431 -0.0731799 0
M  V30 10104 H 946 -2.92886 0.570973 0
M  V30 10105 C 944.749 -3.27392 -1.1709 0
M  V30 10106 H 944.072 -3.94853 -0.626958 0
M  V30 10107 H 945.512 -3.89955 -1.66467 0
M  V30 10108 C 943.971 -2.52511 -2.23024 0
M  V30 10109 O 944.501 -2.2858 -3.30324 0
M  V30 10110 N 942.707 -2.1313 -1.97545 0
M  V30 10111 H 942.254 -2.32793 -1.10297 0
M  V30 10112 H 942.212 -1.63348 -2.68635 0
M  V30 10113 N 945.984 -0.3171 -1.54377 0
M  V30 10114 C 946.914 0.544623 -2.2706 0
M  V30 10115 C 947.895 1.12469 -1.27611 0
M  V30 10116 O 949.08 1.15103 -1.56413 0
M  V30 10117 C 946.21 1.70879 -3.02353 0
M  V30 10118 C 945.164 1.25833 -4.09084 0
M  V30 10119 C 944.49 2.50894 -4.72182 0
M  V30 10120 C 945.79 0.377876 -5.20931 0
M  V30 10121 H 947.484 -0.0616372 -2.99337 0
M  V30 10122 H 945.03 -0.0310848 -1.43966 0
M  V30 10123 H 946.983 2.31787 -3.51927 0
M  V30 10124 H 945.707 2.34155 -2.27682 0
M  V30 10125 H 944.366 0.672228 -3.60384 0
M  V30 10126 H 944.014 3.12518 -3.94134 0
M  V30 10127 H 943.714 2.21447 -5.44275 0
M  V30 10128 H 945.238 3.12575 -5.24528 0
M  V30 10129 H 946.652 0.893056 -5.66302 0
M  V30 10130 H 945.049 0.176474 -5.9984 0
M  V30 10131 H 946.119 -0.592943 -4.81261 0
M  V30 10132 N 947.462 1.57535 -0.0451378 0
M  V30 10133 C 948.425 2.1008 0.916461 0
M  V30 10134 C 949.425 1.01913 1.2438 0
M  V30 10135 O 950.615 1.2801 1.18148 0
M  V30 10136 C 947.747 2.58001 2.22818 0
M  V30 10137 H 948.94 2.96334 0.461076 0
M  V30 10138 H 946.493 1.54974 0.203169 0
M  V30 10139 H 947.228 1.75123 2.72951 0
M  V30 10140 H 947.013 3.3704 2.00366 0
M  V30 10141 H 948.503 2.98822 2.9171 0
M  V30 10142 N 948.94 -0.228186 1.55939 0
M  V30 10143 C 949.903 -1.26621 1.91049 0
M  V30 10144 C 950.903 -1.40141 0.788491 0
M  V30 10145 O 952.093 -1.3852 1.05631 0
M  V30 10146 C 949.225 -2.64108 2.15545 0
M  V30 10147 H 950.418 -0.966978 2.83883 0
M  V30 10148 H 947.971 -0.468313 1.49119 0
M  V30 10149 H 948.706 -2.99141 1.25241 0
M  V30 10150 H 948.491 -2.55673 2.97277 0
M  V30 10151 H 949.981 -3.39025 2.43827 0
M  V30 10152 N 950.418 -1.49637 -0.494624 0
M  V30 10153 C 951.665 -1.59445 -1.24834 0
M  V30 10154 C 951.993 -0.284028 -1.92415 0
M  V30 10155 O 951.248 0.728519 -1.81634 0
M  V30 10156 C 951.547 -2.70749 -2.33302 0
M  V30 10157 C 951.213 -4.12034 -1.83135 0
M  V30 10158 C 949.875 -4.50482 -1.69173 0
M  V30 10159 C 952.227 -5.00432 -1.4566 0
M  V30 10160 C 949.555 -5.75093 -1.16124 0
M  V30 10161 C 951.907 -6.25568 -0.940608 0
M  V30 10162 C 950.571 -6.62839 -0.787432 0
M  V30 10163 H 949.841 -0.583451 -0.456799 0
M  V30 10164 H 952.488 -1.8349 -0.548044 0
M  V30 10165 H 950.793 -2.407 -3.09145 0
M  V30 10166 H 952.49 -2.75546 -2.91334 0
M  V30 10167 H 949.08 -3.8169 -1.94964 0
M  V30 10168 H 953.264 -4.71379 -1.55291 0
M  V30 10169 H 948.52 -6.02665 -1.02982 0
M  V30 10170 H 952.694 -6.93439 -0.641467 0
M  V30 10171 H 950.321 -7.59279 -0.374191 0
M  V30 10172 N 951.896 0.746133 -1.38819 0
M  V30 10173 C 952.826 1.87344 -1.39372 0
M  V30 10174 C 953.807 1.68123 -0.258583 0
M  V30 10175 O 954.992 1.88606 -0.462769 0
M  V30 10176 C 952.122 3.24962 -1.22543 0
M  V30 10177 C 951.076 3.58799 -2.33339 0
M  V30 10178 C 950.402 4.95235 -2.01609 0
M  V30 10179 C 951.702 3.62911 -3.75624 0
M  V30 10180 H 953.396 1.87138 -2.33709 0
M  V30 10181 H 950.942 0.898937 -1.12495 0
M  V30 10182 H 952.895 4.03488 -1.21554 0
M  V30 10183 H 951.619 3.25667 -0.246707 0
M  V30 10184 H 950.278 2.82596 -2.33527 0
M  V30 10185 H 949.926 4.92508 -1.02202 0
M  V30 10186 H 949.626 5.18843 -2.75819 0
M  V30 10187 H 951.15 5.76131 -2.02251 0
M  V30 10188 H 952.564 4.31535 -3.77426 0
M  V30 10189 H 950.961 3.98031 -4.491 0
M  V30 10190 H 952.031 2.62967 -4.07402 0
M  V30 10191 N 953.375 1.23811 0.975125 0
M  V30 10192 C 954.603 1.10019 1.75224 0
M  V30 10193 C 955.018 -0.34791 1.85567 0
M  V30 10194 O 954.375 -1.24043 1.33864 0
M  V30 10195 C 954.426 1.72572 3.1765 0
M  V30 10196 O 954.147 3.11719 3.07836 0
M  V30 10197 C 955.648 1.64292 4.11732 0
M  V30 10198 H 952.868 0.38476 0.549728 0
M  V30 10199 H 955.412 1.63768 1.22476 0
M  V30 10200 H 953.567 1.22843 3.67408 0
M  V30 10201 H 953.981 3.42152 3.97533 0
M  V30 10202 H 955.455 2.12754 5.09352 0
M  V30 10203 H 955.932 0.602722 4.35045 0
M  V30 10204 H 956.538 2.13411 3.6788 0
M  V30 10205 N 954.853 -1.17469 1.05066 0
M  V30 10206 C 956.099 -1.87976 0.761113 0
M  V30 10207 C 956.432 -1.80756 -0.709995 0
M  V30 10208 O 955.707 -1.21469 -1.51906 0
M  V30 10209 C 955.99 -3.38055 1.2406 0
M  V30 10210 C 955.843 -3.54032 2.77455 0
M  V30 10211 C 957.162 -4.32036 0.838612 0
M  V30 10212 H 954.281 -0.682573 0.277963 0
M  V30 10213 H 956.923 -1.38147 1.30443 0
M  V30 10214 H 955.073 -3.80622 0.778388 0
M  V30 10215 H 956.745 -3.20489 3.3179 0
M  V30 10216 H 954.988 -2.96352 3.16793 0
M  V30 10217 H 955.659 -4.59377 3.06066 0
M  V30 10218 H 958.135 -3.97303 1.23651 0
M  V30 10219 H 957.011 -5.35583 1.20173 0
M  V30 10220 H 957.272 -4.41349 -0.257498 0
M  V30 10221 N 956.331 -0.831506 -1.3388 0
M  V30 10222 C 957.241 -0.261688 -2.33136 0
M  V30 10223 C 958.257 0.608429 -1.63016 0
M  V30 10224 O 959.433 0.514297 -1.94723 0
M  V30 10225 C 956.498 0.559957 -3.42148 0
M  V30 10226 C 955.559 -0.333569 -4.28002 0
M  V30 10227 C 954.792 0.448956 -5.31808 0
M  V30 10228 O 955.015 1.6814 -5.45055 0
M  V30 10229 O 953.949 -0.173197 -6.01651 0
M  V30 10230 H 957.775 -1.08343 -2.83717 0
M  V30 10231 H 955.36 -0.593849 -1.3709 0
M  V30 10232 H 957.242 1.02712 -4.08691 0
M  V30 10233 H 955.917 1.35888 -2.93796 0
M  V30 10234 H 954.824 -0.848416 -3.64352 0
M  V30 10235 H 956.157 -1.09707 -4.79818 0
M  V30 10236 N 957.809 1.4625 -0.587256 0
M  V30 10237 C 959.225 1.57641 -0.249284 0
M  V30 10238 C 959.425 1.58169 1.24839 0
M  V30 10239 O 958.481 1.50109 2.03036 0
M  V30 10240 C 959.794 2.86837 -0.902509 0
M  V30 10241 C 961.342 3.00476 -0.876524 0
M  V30 10242 C 961.817 4.32414 -1.50938 0
M  V30 10243 N 963.308 4.39124 -1.47392 0
M  V30 10244 C 964.043 5.39838 -1.93293 0
M  V30 10245 N 963.539 6.47202 -2.47188 0
M  V30 10246 N 965.332 5.31068 -1.84183 0
M  V30 10247 H 957.483 1.44151 -1.55994 0
M  V30 10248 H 959.746 0.687905 -0.652297 0
M  V30 10249 H 959.452 2.92274 -1.95624 0
M  V30 10250 H 959.326 3.74927 -0.413466 0
M  V30 10251 H 961.713 2.94618 0.168601 0
M  V30 10252 H 961.794 2.1385 -1.40363 0
M  V30 10253 H 961.438 4.3903 -2.55372 0
M  V30 10254 H 961.368 5.17823 -0.957455 0
M  V30 10255 H 963.859 3.62138 -1.08002 0
M  V30 10256 H 964.172 7.20269 -2.80058 0
M  V30 10257 H 962.517 6.48009 -2.51216 0
M  V30 10258 H 965.708 4.46095 -1.41833 0
M  V30 10259 H 965.881 6.09414 -2.2027 0
M  V30 10260 N 959.287 0.325282 1.54207 0
M  V30 10261 C 960.22 -0.582485 2.20641 0
M  V30 10262 C 961.198 -1.11441 1.18405 0
M  V30 10263 O 962.382 -1.17809 1.4715 0
M  V30 10264 C 959.509 -1.79944 2.86946 0
M  V30 10265 C 958.555 -1.39861 4.02916 0
M  V30 10266 S 959.388 -0.433859 5.3374 0
M  V30 10267 C 960.544 -1.65806 6.03539 0
M  V30 10268 H 960.777 -0.0181601 2.97294 0
M  V30 10269 H 958.31 0.109365 1.54012 0
M  V30 10270 H 960.268 -2.4977 3.25769 0
M  V30 10271 H 958.929 -2.33495 2.10092 0
M  V30 10272 H 958.122 -2.30547 4.48179 0
M  V30 10273 H 957.724 -0.780036 3.65775 0
M  V30 10274 H 960.016 -2.59524 6.25822 0
M  V30 10275 H 960.959 -1.24756 6.97023 0
M  V30 10276 H 961.367 -1.84581 5.3347 0
M  V30 10277 N 960.765 -1.57509 0.0534917 0
M  V30 10278 C 962.011 -1.93068 -0.62069 0
M  V30 10279 C 962.344 -0.932313 -1.70357 0
M  V30 10280 O 961.619 0.0413393 -1.94456 0
M  V30 10281 C 961.902 -3.38997 -1.21463 0
M  V30 10282 C 961.755 -4.49583 -0.13965 0
M  V30 10283 C 963.074 -3.85366 -2.12558 0
M  V30 10284 H 960.193 -0.702083 -0.224163 0
M  V30 10285 H 962.835 -1.89647 0.115729 0
M  V30 10286 H 960.985 -3.42043 -1.84226 0
M  V30 10287 H 962.657 -4.58664 0.492411 0
M  V30 10288 H 960.9 -4.30525 0.532006 0
M  V30 10289 H 961.571 -5.48781 -0.595287 0
M  V30 10290 H 964.047 -3.8421 -1.59755 0
M  V30 10291 H 962.923 -4.8812 -2.51058 0
M  V30 10292 H 963.184 -3.22256 -3.02661 0
M  V30 10293 N 962.243 0.219913 -1.56058 0
M  V30 10294 C 963.468 0.965073 -1.83579 0
M  V30 10295 C 963.893 1.77092 -0.634024 0
M  V30 10296 O 963.251 1.76434 0.417205 0
M  V30 10297 C 963.299 1.85705 -3.09105 0
M  V30 10298 O 962.403 2.95261 -2.87914 0
M  V30 10299 H 961.744 0.273173 -0.605204 0
M  V30 10300 H 964.274 0.23273 -2.03272 0
M  V30 10301 H 964.284 2.26655 -3.39252 0
M  V30 10302 H 962.959 1.26476 -3.96203 0
M  V30 10303 H 961.536 2.58246 -2.69005 0
M  V30 10304 N 963.721 1.49897 0.486681 0
M  V30 10305 C 965.132 1.53142 1.06792 0
M  V30 10306 C 965.483 0.325856 1.93475 0
M  V30 10307 O 964.608 -0.562893 2.08951 0
M  V30 10308 C 965.203 2.77514 1.94348 0
M  V30 10309 C 963.762 2.83491 2.47609 0
M  V30 10310 C 962.909 2.47239 1.2557 0
M  V30 10311 H 965.86 1.56387 0.269962 0
M  V30 10312 H 965.881 2.58487 2.79221 0
M  V30 10313 H 965.393 3.65239 1.31232 0
M  V30 10314 H 963.494 2.0008 3.14323 0
M  V30 10315 H 963.607 3.86011 2.83782 0
M  V30 10316 H 961.971 1.99332 1.58552 0
M  V30 10317 H 962.754 3.37255 0.641404 0
M  V30 10318 N 965.199 -0.738761 1.39212 0
M  V30 10319 C 966.448 -1.49368 1.35543 0
M  V30 10320 C 966.761 -1.95543 -0.0471091 0
M  V30 10321 O 967.967 -2.70714 -0.206376 0
M  V30 10322 C 966.423 -2.69882 2.381 0
M  V30 10323 C 966.031 -2.30672 3.8405 0
M  V30 10324 C 967.775 -3.47718 2.435 0
M  V30 10325 C 965.682 -3.47886 4.78256 0
M  V30 10326 H 964.612 -0.560898 0.503894 0
M  V30 10327 H 967.263 -0.806221 1.6484 0
M  V30 10328 H 965.645 -3.40684 2.01867 0
M  V30 10329 H 966.819 -1.67441 4.29302 0
M  V30 10330 H 965.134 -1.65936 3.81909 0
M  V30 10331 H 967.731 -4.34897 3.11077 0
M  V30 10332 H 968.074 -3.89919 1.45838 0
M  V30 10333 H 968.607 -2.83942 2.78606 0
M  V30 10334 H 965.346 -3.10739 5.77167 0
M  V30 10335 H 964.866 -4.10111 4.37686 0
M  V30 10336 H 966.545 -4.14271 4.96979 0
M  V30 10337 N 966.677 -1.24326 -0.968545 0
M  V30 10338 C 967.587 -1.05194 -2.09694 0
M  V30 10339 C 968.603 0.00701291 -1.73999 0
M  V30 10340 O 969.779 -0.190981 -2.00492 0
M  V30 10341 C 966.844 -0.658075 -3.40397 0
M  V30 10342 C 965.905 -1.79341 -3.90045 0
M  V30 10343 C 965.138 -1.41824 -5.14511 0
M  V30 10344 O 965.361 -0.307693 -5.69569 0
M  V30 10345 O 964.295 -2.24358 -5.58522 0
M  V30 10346 H 968.121 -1.99791 -2.2873 0
M  V30 10347 H 965.706 -1.03138 -1.08088 0
M  V30 10348 H 967.588 -0.449911 -4.18991 0
M  V30 10349 H 966.263 0.258782 -3.22664 0
M  V30 10350 H 965.17 -2.05632 -3.12516 0
M  V30 10351 H 966.503 -2.68901 -4.12254 0
M  V30 10352 N 968.156 1.1691 -1.05688 0
M  V30 10353 C 969.381 1.91745 -0.790478 0
M  V30 10354 C 969.806 1.76568 0.648478 0
M  V30 10355 O 969.164 1.08682 1.45114 0
M  V30 10356 C 969.212 3.4067 -1.18222 0
M  V30 10357 O 968.316 4.11177 -0.317341 0
M  V30 10358 H 967.657 0.5976 -0.28943 0
M  V30 10359 H 970.187 1.48157 -1.41105 0
M  V30 10360 H 970.197 3.91424 -1.15114 0
M  V30 10361 H 968.872 3.51036 -2.2304 0
M  V30 10362 H 967.449 3.70645 -0.409459 0
M  V30 10363 N 969.634 0.838594 1.33437 0
M  V30 10364 C 970.597 0.276843 2.27522 0
M  V30 10365 C 971.597 -0.554275 1.50945 0
M  V30 10366 O 972.787 -0.368107 1.70266 0
M  V30 10367 C 969.919 -0.610036 3.35397 0
M  V30 10368 H 971.112 1.10705 2.78719 0
M  V30 10369 H 968.665 0.611657 1.43835 0
M  V30 10370 H 969.4 -1.46269 2.89441 0
M  V30 10371 H 969.185 -0.0153615 3.92097 0
M  V30 10372 H 970.675 -0.996368 4.05539 0
M  V30 10373 N 971.112 -1.45937 0.595003 0
M  V30 10374 C 972.022 -2.34221 -0.133325 0
M  V30 10375 C 973.038 -1.50491 -0.873407 0
M  V30 10376 O 974.214 -1.83328 -0.833828 0
M  V30 10377 C 971.279 -3.27896 -1.12628 0
M  V30 10378 C 970.34 -4.27529 -0.389532 0
M  V30 10379 C 969.573 -5.16729 -1.33519 0
M  V30 10380 O 969.796 -5.09102 -2.57238 0
M  V30 10381 O 968.73 -5.96023 -0.839084 0
M  V30 10382 H 972.556 -2.97877 0.591861 0
M  V30 10383 H 970.141 -1.45113 0.355329 0
M  V30 10384 H 972.023 -3.85654 -1.69851 0
M  V30 10385 H 970.698 -2.6682 -1.83272 0
M  V30 10386 H 969.605 -3.73424 0.224843 0
M  V30 10387 H 970.938 -4.91425 0.276169 0
M  V30 10388 N 972.59 -0.333456 -1.54032 0
M  V30 10389 C 973.867 0.320902 -1.9295 0
M  V30 10390 C 974.247 1.69071 -1.26405 0
M  V30 10391 O 973.595 2.24768 -0.411311 0
M  V30 10392 C 973.805 0.403257 -3.46662 0
M  V30 10393 C 975.153 0.658875 -4.19457 0
M  V30 10394 O 976.177 0.485781 -3.52872 0
M  V30 10395 O 975.036 0.993475 -5.37394 0
M  V30 10396 H 972.13 0.185158 -0.806006 0
M  V30 10397 H 974.676 -0.383895 -1.65301 0
M  V30 10398 H 973.448 -0.558409 -3.87295 0
M  V30 10399 H 973.071 1.15524 -3.80447 0
M  V30 10400 N 974.068 1.57479 -0.061844 0
M  V30 10401 C 974.998 2.15181 0.9066 0
M  V30 10402 C 975.979 1.07624 1.31724 0
M  V30 10403 O 977.164 1.35614 1.39006 0
M  V30 10404 C 974.294 2.70542 2.17771 0
M  V30 10405 C 973.248 3.83178 1.9068 0
M  V30 10406 C 972.574 4.25099 3.24337 0
M  V30 10407 C 973.874 5.07853 1.21994 0
M  V30 10408 H 975.568 2.96355 0.42594 0
M  V30 10409 H 973.114 1.42556 0.203435 0
M  V30 10410 H 975.067 3.09552 2.85929 0
M  V30 10411 H 973.791 1.86575 2.68062 0
M  V30 10412 H 972.45 3.44656 1.24931 0
M  V30 10413 H 972.098 3.38069 3.72449 0
M  V30 10414 H 971.798 5.01021 3.07005 0
M  V30 10415 H 973.322 4.66718 3.93709 0
M  V30 10416 H 974.736 5.44242 1.80204 0
M  V30 10417 H 973.133 5.88987 1.14954 0
M  V30 10418 H 974.203 4.84497 0.197536 0
M  V30 10419 N 975.546 -0.211634 1.56173 0
M  V30 10420 C 976.771 -0.955324 1.84088 0
M  V30 10421 C 977.196 -1.76754 0.643407 0
M  V30 10422 O 976.554 -1.76653 -0.407842 0
M  V30 10423 C 976.602 -1.84063 3.10085 0
M  V30 10424 O 975.706 -2.9373 2.89476 0
M  V30 10425 H 975.047 -0.26996 0.606645 0
M  V30 10426 H 977.577 -0.221947 2.03393 0
M  V30 10427 H 977.587 -2.24852 3.40449 0
M  V30 10428 H 976.262 -1.24373 3.96868 0
M  V30 10429 H 974.839 -2.56816 2.7037 0
M  V30 10430 N 977.024 -1.50153 -0.478725 0
M  V30 10431 C 977.971 -1.68458 -1.57767 0
M  V30 10432 C 978.941 -0.5259 -1.57555 0
M  V30 10433 O 980.126 -0.755574 -1.75202 0
M  V30 10434 C 977.266 -1.77772 -2.95789 0
M  V30 10435 C 976.379 -3.05092 -3.05848 0
M  V30 10436 C 975.514 -3.05247 -4.34739 0
M  V30 10437 C 974.553 -4.27053 -4.38512 0
M  V30 10438 N 973.69 -4.24991 -5.58862 0
M  V30 10439 H 978.53 -2.62282 -1.41464 0
M  V30 10440 H 976.067 -1.30023 -0.687921 0
M  V30 10441 H 978.025 -1.81152 -3.75819 0
M  V30 10442 H 976.655 -0.873944 -3.10744 0
M  V30 10443 H 975.707 -3.11219 -2.1874 0
M  V30 10444 H 977.019 -3.95075 -3.04495 0
M  V30 10445 H 976.173 -3.07314 -5.23109 0
M  V30 10446 H 974.912 -2.13081 -4.38689 0
M  V30 10447 H 973.917 -4.25206 -3.4854 0
M  V30 10448 H 975.142 -5.20437 -4.36259 0
M  V30 10449 H 973.088 -3.35674 -5.63612 0
M  V30 10450 H 973.005 -5.08734 -5.59219 0
M  V30 10451 H 974.273 -4.31193 -6.49379 0
M  V30 10452 N 978.502 0.731368 -1.39602 0
M  V30 10453 C 979.434 1.85575 -1.34516 0
M  V30 10454 C 980.447 1.60818 -0.253287 0
M  V30 10455 O 981.636 1.70984 -0.512505 0
M  V30 10456 C 978.736 3.21673 -1.06676 0
M  V30 10457 C 977.909 3.73757 -2.27211 0
M  V30 10458 C 976.968 4.88426 -1.95773 0
M  V30 10459 O 975.994 5.01898 -2.68491 0
M  V30 10460 N 977.196 5.73065 -0.926083 0
M  V30 10461 H 979.961 1.90442 -2.31413 0
M  V30 10462 H 977.522 0.912258 -1.33752 0
M  V30 10463 H 979.514 3.95959 -0.836577 0
M  V30 10464 H 978.084 3.12052 -0.185003 0
M  V30 10465 H 977.304 2.90781 -2.66158 0
M  V30 10466 H 978.592 4.05289 -3.07601 0
M  V30 10467 H 977.99 5.64774 -0.323497 0
M  V30 10468 H 976.547 6.47403 -0.755795 0
M  V30 10469 N 979.98 1.24838 0.961938 0
M  V30 10470 C 981.208 1.11871 1.74047 0
M  V30 10471 C 981.623 -0.328209 1.85925 0
M  V30 10472 O 980.98 -1.22616 1.35173 0
M  V30 10473 C 981.031 1.75931 3.15801 0
M  V30 10474 O 980.752 3.14967 3.04512 0
M  V30 10475 C 982.253 1.68649 4.09966 0
M  V30 10476 H 979.473 0.390569 0.545616 0
M  V30 10477 H 982.017 1.65058 1.20732 0
M  V30 10478 H 980.172 1.26733 3.66084 0
M  V30 10479 H 980.586 3.46349 3.93882 0
M  V30 10480 H 982.06 2.18144 5.07067 0
M  V30 10481 H 982.537 0.648831 4.34381 0
M  V30 10482 H 983.143 2.17301 3.65596 0
M  V30 10483 N 981.458 -1.16348 1.06306 0
M  V30 10484 C 982.368 -2.24375 0.685059 0
M  V30 10485 C 983.384 -1.71413 -0.298956 0
M  V30 10486 O 984.56 -2.00854 -0.148239 0
M  V30 10487 C 981.625 -3.46614 0.0774088 0
M  V30 10488 C 980.686 -4.14613 1.11331 0
M  V30 10489 C 979.919 -5.31016 0.534559 0
M  V30 10490 O 980.142 -5.66654 -0.65265 0
M  V30 10491 O 979.076 -5.88256 1.27431 0
M  V30 10492 H 982.902 -2.59018 1.58566 0
M  V30 10493 H 980.487 -1.23865 0.835332 0
M  V30 10494 H 982.369 -4.20599 -0.259716 0
M  V30 10495 H 981.044 -3.13743 -0.796677 0
M  V30 10496 H 979.951 -3.42597 1.50261 0
M  V30 10497 H 981.284 -4.51538 1.95893 0
M  V30 10498 N 982.937 -0.845659 -1.3299 0
M  V30 10499 C 984.186 -0.440928 -1.96822 0
M  V30 10500 C 984.499 1.00668 -1.67706 0
M  V30 10501 O 985.705 1.51641 -2.25205 0
M  V30 10502 C 984.161 -0.73752 -3.52262 0
M  V30 10503 C 983.769 -2.20026 -3.90247 0
M  V30 10504 C 985.513 -0.400072 -4.22611 0
M  V30 10505 C 983.42 -2.44054 -5.38694 0
M  V30 10506 H 982.35 -0.161148 -0.736578 0
M  V30 10507 H 985.001 -1.03519 -1.51513 0
M  V30 10508 H 983.383 -0.0728025 -3.95933 0
M  V30 10509 H 984.557 -2.90602 -3.57613 0
M  V30 10510 H 982.872 -2.50135 -3.32899 0
M  V30 10511 H 985.469 -0.557136 -5.3179 0
M  V30 10512 H 985.812 0.657547 -4.11074 0
M  V30 10513 H 986.345 -1.0203 -3.84493 0
M  V30 10514 H 983.084 -3.48407 -5.55241 0
M  V30 10515 H 982.604 -1.78047 -5.72765 0
M  V30 10516 H 984.283 -2.27549 -6.05665 0
M  V30 10517 N 984.415 1.45619 -0.602734 0
M  V30 10518 C 985.378 2.28941 0.108962 0
M  V30 10519 C 986.378 1.39501 0.799762 0
M  V30 10520 O 987.568 1.61673 0.648663 0
M  V30 10521 C 984.7 3.204 1.16432 0
M  V30 10522 H 985.893 2.93346 -0.623534 0
M  V30 10523 H 983.446 1.52061 -0.361565 0
M  V30 10524 H 984.181 2.60785 1.92774 0
M  V30 10525 H 983.966 3.86277 0.673248 0
M  V30 10526 H 985.456 3.83063 1.6629 0
M  V30 10527 N 985.893 0.34162 1.53853 0
M  V30 10528 C 987.123 -0.256557 2.05001 0
M  V30 10529 C 987.531 -1.44916 1.21639 0
M  V30 10530 O 986.874 -1.8207 0.244138 0
M  V30 10531 C 986.936 -0.737109 3.51862 0
M  V30 10532 C 986.6 0.335584 4.55766 0
M  V30 10533 C 987.597 1.17765 5.06387 0
M  V30 10534 C 985.282 0.488958 4.99914 0
M  V30 10535 C 987.276 2.15865 5.99734 0
M  V30 10536 C 984.963 1.47336 5.93073 0
M  V30 10537 C 985.961 2.30666 6.4287 0
M  V30 10538 O 985.649 3.2743 7.34197 0
M  V30 10539 H 985.381 -0.0536867 0.673865 0
M  V30 10540 H 987.935 0.49123 1.99439 0
M  V30 10541 H 986.165 -1.53611 3.54881 0
M  V30 10542 H 987.854 -1.25562 3.85991 0
M  V30 10543 H 988.62 1.07023 4.73044 0
M  V30 10544 H 984.499 -0.149807 4.60757 0
M  V30 10545 H 988.043 2.80945 6.38526 0
M  V30 10546 H 983.94 1.58134 6.25831 0
M  V30 10547 H 984.708 3.22879 7.52125 0
M  V30 10548 N 987.371 -1.57444 0.0701946 0
M  V30 10549 C 988.619 -1.93047 -0.598106 0
M  V30 10550 C 988.94 -0.950841 -1.70247 0
M  V30 10551 O 988.21 0.00127177 -1.959 0
M  V30 10552 H 986.79 -0.712648 -0.223924 0
M  V30 10553 H 989.452 -1.94481 0.127674 0
M  V30 10554 H 988.548 -2.94807 -1.02445 0
M  V30 10555 N 988.849 0.203349 -1.56283 0
M  V30 10556 C 990.077 0.941426 -1.84241 0
M  V30 10557 C 990.492 1.77197 -0.651658 0
M  V30 10558 O 989.849 1.78506 0.379713 0
M  V30 10559 C 989.9 1.84429 -3.10915 0
M  V30 10560 O 989.621 1.04729 -4.25398 0
M  V30 10561 C 991.122 2.69474 -3.51993 0
M  V30 10562 H 988.342 0.27507 -0.612027 0
M  V30 10563 H 990.886 0.213088 -2.03387 0
M  V30 10564 H 989.041 2.52635 -2.93691 0
M  V30 10565 H 989.455 1.66179 -4.97478 0
M  V30 10566 H 990.929 3.28495 -4.43616 0
M  V30 10567 H 991.406 3.42775 -2.74594 0
M  V30 10568 H 992.012 2.06652 -3.71719 0
M  V30 10569 N 990.327 1.50405 0.470755 0
M  V30 10570 C 991.257 1.72222 1.57676 0
M  V30 10571 C 992.238 0.57121 1.60222 0
M  V30 10572 O 993.423 0.810381 1.76484 0
M  V30 10573 C 990.553 1.81666 2.95998 0
M  V30 10574 C 989.507 2.96857 3.08318 0
M  V30 10575 C 988.833 2.91445 4.4829 0
M  V30 10576 C 990.133 4.37361 2.85504 0
M  V30 10577 H 991.827 2.64825 1.39671 0
M  V30 10578 H 989.373 1.27438 0.67049 0
M  V30 10579 H 991.326 1.95514 3.73299 0
M  V30 10580 H 990.05 0.856856 3.1516 0
M  V30 10581 H 988.709 2.82661 2.33449 0
M  V30 10582 H 988.357 1.93309 4.64371 0
M  V30 10583 H 988.057 3.68776 4.57469 0
M  V30 10584 H 989.581 3.07341 5.27611 0
M  V30 10585 H 990.995 4.52081 3.52555 0
M  V30 10586 H 989.392 5.16145 3.06127 0
M  V30 10587 H 990.462 4.49708 1.81359 0
M  V30 10588 N 991.805 -0.723954 1.39988 0
M  V30 10589 C 993.082 -1.4763 1.28316 0
M  V30 10590 C 993.462 -2.10852 -0.102302 0
M  V30 10591 O 992.81 -1.9948 -1.11445 0
M  V30 10592 C 993.02 -2.51878 2.41574 0
M  V30 10593 C 994.368 -3.17948 2.81415 0
M  V30 10594 O 995.392 -2.62195 2.41106 0
M  V30 10595 O 994.251 -4.18858 3.51027 0
M  V30 10596 H 991.345 -0.656092 0.50346 0
M  V30 10597 H 993.891 -0.75684 1.51888 0
M  V30 10598 H 992.663 -2.03618 3.34149 0
M  V30 10599 H 992.286 -3.3137 2.19727 0
M  V30 10600 N 993.283 -1.25346 -0.955304 0
M  V30 10601 C 994.508 -1.12892 -1.73983 0
M  V30 10602 C 994.933 0.313455 -1.8547 0
M  V30 10603 O 994.291 1.22706 -1.33465 0
M  V30 10604 C 994.339 -1.78729 -3.1319 0
M  V30 10605 O 993.443 -1.06648 -3.98372 0
M  V30 10606 H 992.784 -0.394178 -0.534341 0
M  V30 10607 H 995.314 -1.65897 -1.19747 0
M  V30 10608 H 995.324 -1.84987 -3.63653 0
M  V30 10609 H 993.999 -2.83669 -3.04146 0
M  V30 10610 H 992.576 -1.08266 -3.56837 0
M  V30 10611 N 994.761 1.15782 -1.06922 0
M  V30 10612 C 996.009 1.86097 -0.788192 0
M  V30 10613 C 996.33 1.82475 0.687606 0
M  V30 10614 O 995.6 1.26266 1.49778 0
M  V30 10615 H 994.18 0.689008 -0.288577 0
M  V30 10616 H 996.842 1.40377 -1.35205 0
M  V30 10617 H 995.938 2.91358 -1.1188 0
M  V30 10618 N 996.239 0.8527 1.3254 0
M  V30 10619 C 997.464 0.468157 2.02047 0
M  V30 10620 C 997.889 -0.926967 1.63673 0
M  V30 10621 O 997.247 -1.60855 0.836378 0
M  V30 10622 C 997.295 0.612519 3.5536 0
M  V30 10623 O 996.399 -0.355506 4.10865 0
M  V30 10624 H 995.74 0.188401 0.636711 0
M  V30 10625 H 998.27 1.15135 1.6913 0
M  V30 10626 H 998.28 0.499315 4.04933 0
M  V30 10627 H 996.955 1.62988 3.82632 0
M  V30 10628 H 995.532 -0.198703 3.7237 0
M  V30 10629 N 997.718 -1.45297 0.610449 0
M  V30 10630 C 998.946 -2.0659 0.113211 0
M  V30 10631 C 999.361 -1.4546 -1.20361 0
M  V30 10632 O 998.718 -0.569823 -1.73376 0
M  V30 10633 C 998.769 -3.61488 -0.0298411 0
M  V30 10634 O 998.49 -4.20336 1.23488 0
M  V30 10635 C 999.991 -4.39772 -0.558202 0
M  V30 10636 H 997.211 -0.667322 0.0701555 0
M  V30 10637 H 999.755 -1.86497 0.838993 0
M  V30 10638 H 997.91 -3.80913 -0.705963 0
M  V30 10639 H 998.324 -5.13545 1.0664 0
M  V30 10640 H 999.798 -5.48648 -0.607375 0
M  V30 10641 H 1000.27 -4.09755 -1.58107 0
M  V30 10642 H 1000.88 -4.25217 0.0839704 0
M  V30 10643 N 999.196 -0.349774 -1.5367 0
M  V30 10644 C 1000.14 0.504121 -2.25227 0
M  V30 10645 C 1001.11 1.09048 -1.2529 0
M  V30 10646 O 1002.3 1.12594 -1.54037 0
M  V30 10647 C 999.438 1.64601 -3.03316 0
M  V30 10648 C 998.551 1.08635 -4.18118 0
M  V30 10649 C 997.686 2.19605 -4.83681 0
M  V30 10650 C 996.725 1.61023 -5.90541 0
M  V30 10651 N 995.862 2.6576 -6.49858 0
M  V30 10652 H 1000.7 -0.112621 -2.97787 0
M  V30 10653 H 998.239 -0.0673503 -1.46946 0
M  V30 10654 H 1000.2 2.31836 -3.46854 0
M  V30 10655 H 998.827 2.23364 -2.33041 0
M  V30 10656 H 997.879 0.304748 -3.79177 0
M  V30 10657 H 999.191 0.617911 -4.94958 0
M  V30 10658 H 998.345 2.94693 -5.30322 0
M  V30 10659 H 997.084 2.69795 -4.06278 0
M  V30 10660 H 996.089 0.844428 -5.43277 0
M  V30 10661 H 997.314 1.11677 -6.69855 0
M  V30 10662 H 995.26 3.15193 -5.75317 0
M  V30 10663 H 995.177 2.23557 -7.2219 0
M  V30 10664 H 996.445 3.40598 -7.01151 0
M  V30 10665 N 1000.67 1.57404 -0.0785433 0
M  V30 10666 C 1001.58 2.16612 0.900902 0
M  V30 10667 C 1002.6 1.13109 1.32221 0
M  V30 10668 O 1003.78 1.45406 1.39352 0
M  V30 10669 C 1000.84 2.7215 2.14791 0
M  V30 10670 C 999.902 3.90551 1.78237 0
M  V30 10671 C 999.135 4.43431 2.96993 0
M  V30 10672 O 999.358 3.95292 4.11218 0
M  V30 10673 O 998.292 5.34674 2.76418 0
M  V30 10674 H 1002.12 3.0068 0.427227 0
M  V30 10675 H 999.703 1.48696 0.144902 0
M  V30 10676 H 1001.58 3.07718 2.87902 0
M  V30 10677 H 1000.26 1.91139 2.61243 0
M  V30 10678 H 999.167 3.59825 1.02357 0
M  V30 10679 H 1000.5 4.72876 1.36562 0
M  V30 10680 N 1002.15 -0.195058 1.56388 0
M  V30 10681 C 1003.4 -0.915444 1.80626 0
M  V30 10682 C 1003.73 -1.83255 0.651768 0
M  V30 10683 O 1002.98 -1.92314 -0.362464 0
M  V30 10684 C 1003.28 -1.7637 3.10851 0
M  V30 10685 C 1002.95 -0.997572 4.39726 0
M  V30 10686 C 1001.61 -0.786043 4.74737 0
M  V30 10687 C 1003.96 -0.45851 5.19179 0
M  V30 10688 C 1001.29 -0.023972 5.86695 0
M  V30 10689 C 1003.64 0.29035 6.31933 0
M  V30 10690 C 1002.3 0.512895 6.65527 0
M  V30 10691 H 1001.57 -0.334985 0.660959 0
M  V30 10692 H 1004.22 -0.181815 1.90635 0
M  V30 10693 H 1002.53 -2.566 2.9608 0
M  V30 10694 H 1004.22 -2.3237 3.26811 0
M  V30 10695 H 1000.81 -1.17245 4.12252 0
M  V30 10696 H 1005 -0.609334 4.92545 0
M  V30 10697 H 1000.25 0.158421 6.11195 0
M  V30 10698 H 1004.43 0.715429 6.92715 0
M  V30 10699 H 1002.05 1.10531 7.52122 0
M  V30 10700 N 1003.63 -1.50653 -0.462772 0
M  V30 10701 C 1004.88 -1.62057 -1.21424 0
M  V30 10702 C 1005.2 -0.324778 -1.91769 0
M  V30 10703 O 1004.46 0.689828 -1.83139 0
M  V30 10704 C 1004.76 -2.75637 -2.27507 0
M  V30 10705 C 1004.42 -4.15826 -1.74354 0
M  V30 10706 C 1003.09 -4.53969 -1.5958 0
M  V30 10707 C 1005.44 -5.03409 -1.35012 0
M  V30 10708 C 1002.77 -5.77427 -1.03899 0
M  V30 10709 C 1005.12 -6.27422 -0.807704 0
M  V30 10710 C 1003.78 -6.6436 -0.646657 0
M  V30 10711 H 1003.05 -0.59301 -0.44432 0
M  V30 10712 H 1005.7 -1.84612 -0.508999 0
M  V30 10713 H 1004 -2.47203 -3.0397 0
M  V30 10714 H 1005.7 -2.81663 -2.85424 0
M  V30 10715 H 1002.29 -3.85739 -1.86823 0
M  V30 10716 H 1006.48 -4.74567 -1.45258 0
M  V30 10717 H 1001.73 -6.04713 -0.901751 0
M  V30 10718 H 1005.91 -6.94644 -0.494234 0
M  V30 10719 H 1003.53 -7.59901 -0.213053 0
M  V30 10720 N 1005.11 0.71652 -1.4037 0
M  V30 10721 C 1006.52 1.02447 -1.22379 0
M  V30 10722 C 1006.72 2.0126 -0.0983394 0
M  V30 10723 O 1005.78 2.46569 0.544071 0
M  V30 10724 C 1007.09 1.56909 -2.56515 0
M  V30 10725 C 1008.64 1.68898 -2.6352 0
M  V30 10726 C 1009.12 2.26765 -3.97922 0
M  V30 10727 N 1010.61 2.34152 -3.99658 0
M  V30 10728 C 1011.34 2.79907 -5.00439 0
M  V30 10729 N 1010.84 3.25422 -6.11615 0
M  V30 10730 N 1012.63 2.79283 -4.87809 0
M  V30 10731 H 1004.78 0.0615306 -2.12311 0
M  V30 10732 H 1007.05 0.0898994 -0.943728 0
M  V30 10733 H 1006.75 0.917649 -3.39517 0
M  V30 10734 H 1006.63 2.55446 -2.77538 0
M  V30 10735 H 1009.01 2.33159 -1.8089 0
M  V30 10736 H 1009.09 0.689626 -2.46329 0
M  V30 10737 H 1008.74 1.63126 -4.80991 0
M  V30 10738 H 1008.67 3.27413 -4.12442 0
M  V30 10739 H 1011.16 2.02006 -3.19378 0
M  V30 10740 H 1011.47 3.58899 -6.84406 0
M  V30 10741 H 1009.82 3.23383 -6.15181 0
M  V30 10742 H 1013.01 2.43061 -4.00049 0
M  V30 10743 H 1013.18 3.14626 -5.66493 0
M  V30 10744 N 1006.59 1.25851 0.948643 0
M  V30 10745 C 1008 1.02802 1.22081 0
M  V30 10746 C 1008.2 -0.251461 1.99925 0
M  V30 10747 O 1007.26 -0.962592 2.33432 0
M  V30 10748 C 1008.57 2.25489 1.98936 0
M  V30 10749 C 1010.12 2.30312 2.11956 0
M  V30 10750 C 1010.59 3.52671 2.92211 0
M  V30 10751 N 1012.09 3.53103 2.99787 0
M  V30 10752 C 1012.82 4.44445 3.62294 0
M  V30 10753 N 1012.32 5.46065 4.26362 0
M  V30 10754 N 1014.11 4.32113 3.59493 0
M  V30 10755 H 1006.26 2.08042 0.428044 0
M  V30 10756 H 1008.52 0.913928 0.251872 0
M  V30 10757 H 1008.23 3.18513 1.4914 0
M  V30 10758 H 1008.1 2.2914 2.99624 0
M  V30 10759 H 1010.49 1.37808 2.60946 0
M  V30 10760 H 1010.57 2.30676 1.10554 0
M  V30 10761 H 1010.22 4.45501 2.43909 0
M  V30 10762 H 1010.15 3.49554 3.93853 0
M  V30 10763 H 1012.64 2.79597 2.54232 0
M  V30 10764 H 1012.95 6.11964 4.71932 0
M  V30 10765 H 1011.29 5.49931 4.24972 0
M  V30 10766 H 1014.49 3.51946 3.08629 0
M  V30 10767 H 1014.66 5.03493 4.0792 0
M  V30 10768 N 1008.06 -1.15214 1.07534 0
M  V30 10769 C 1009.29 -1.90463 0.820883 0
M  V30 10770 C 1009.71 -1.77578 -0.620305 0
M  V30 10771 O 1009.07 -1.10976 -1.43366 0
M  V30 10772 C 1009.12 -3.38746 1.23627 0
M  V30 10773 O 1008.22 -4.1062 0.382715 0
M  V30 10774 H 1007.57 -0.59292 0.298901 0
M  V30 10775 H 1010.1 -1.45893 1.43445 0
M  V30 10776 H 1010.11 -3.89543 1.21327 0
M  V30 10777 H 1008.78 -3.47443 2.28596 0
M  V30 10778 H 1007.36 -3.69947 0.468374 0
M  V30 10779 N 1009.54 -0.859717 -1.32086 0
M  V30 10780 C 1010.49 -0.306042 -2.28762 0
M  V30 10781 C 1011.46 0.589801 -1.55276 0
M  V30 10782 O 1012.64 0.523633 -1.83474 0
M  V30 10783 C 1009.78 0.495256 -3.41528 0
M  V30 10784 C 1008.9 -0.426947 -4.29885 0
M  V30 10785 C 1008.03 0.387474 -5.29785 0
M  V30 10786 C 1007.07 -0.531807 -6.09785 0
M  V30 10787 N 1006.21 0.245741 -7.0167 0
M  V30 10788 H 1011.05 -1.1357 -2.7551 0
M  V30 10789 H 1008.59 -0.571468 -1.35546 0
M  V30 10790 H 1010.54 0.97551 -4.05635 0
M  V30 10791 H 1009.17 1.28969 -2.95917 0
M  V30 10792 H 1008.23 -1.02561 -3.66313 0
M  V30 10793 H 1009.54 -1.13226 -4.85779 0
M  V30 10794 H 1008.69 0.930677 -5.99519 0
M  V30 10795 H 1007.43 1.12612 -4.74521 0
M  V30 10796 H 1006.44 -1.08685 -5.3895 0
M  V30 10797 H 1007.66 -1.26915 -6.67135 0
M  V30 10798 H 1005.61 0.967391 -6.48828 0
M  V30 10799 H 1005.52 -0.400432 -7.54939 0
M  V30 10800 H 1006.79 0.770507 -7.75683 0
M  V30 10801 N 1011.02 1.44971 -0.618145 0
M  V30 10802 C 1012.27 2.01372 -0.115004 0
M  V30 10803 C 1012.58 1.49104 1.26599 0
M  V30 10804 O 1013.79 1.97549 1.86244 0
M  V30 10805 C 1012.24 3.59567 -0.154883 0
M  V30 10806 C 1011.85 4.20832 -1.53639 0
M  V30 10807 C 1013.6 4.23491 0.292468 0
M  V30 10808 C 1011.5 5.7121 -1.53208 0
M  V30 10809 H 1010.43 0.752979 -0.0392267 0
M  V30 10810 H 1013.08 1.66329 -0.775032 0
M  V30 10811 H 1011.47 3.91847 0.572001 0
M  V30 10812 H 1012.64 4.00109 -2.28582 0
M  V30 10813 H 1010.96 3.69143 -1.92672 0
M  V30 10814 H 1013.55 5.33771 0.315032 0
M  V30 10815 H 1013.9 3.9491 1.31725 0
M  V30 10816 H 1014.43 3.95967 -0.381493 0
M  V30 10817 H 1011.17 6.04506 -2.53481 0
M  V30 10818 H 1010.69 5.94094 -0.825387 0
M  V30 10819 H 1012.37 6.34606 -1.26032 0
M  V30 10820 N 1012.5 0.357919 1.53482 0
M  V30 10821 C 1013.46 -0.479797 2.24122 0
M  V30 10822 C 1014.46 -1.01596 1.24639 0
M  V30 10823 O 1015.65 -0.902928 1.48973 0
M  V30 10824 C 1012.78 -1.66983 2.97203 0
M  V30 10825 H 1013.98 0.138219 2.99581 0
M  V30 10826 H 1011.53 0.109484 1.55916 0
M  V30 10827 H 1012.26 -2.32615 2.25966 0
M  V30 10828 H 1012.05 -1.29242 3.70188 0
M  V30 10829 H 1013.54 -2.26367 3.50924 0
M  V30 10830 N 1013.98 -1.5736 0.0868897 0
M  V30 10831 C 1015.22 -1.94341 -0.579598 0
M  V30 10832 C 1015.56 -0.968238 -1.68341 0
M  V30 10833 O 1014.83 8.29649e-05 -1.945 0
M  V30 10834 C 1015.11 -3.41497 -1.14245 0
M  V30 10835 C 1014.97 -4.49778 -0.044255 0
M  V30 10836 C 1016.29 -3.89788 -2.04336 0
M  V30 10837 H 1013.4 -0.70668 -0.20922 0
M  V30 10838 H 1016.05 -1.89359 0.15593 0
M  V30 10839 H 1014.2 -3.45873 -1.76929 0
M  V30 10840 H 1015.87 -4.57517 0.58959 0
M  V30 10841 H 1014.11 -4.293 0.623207 0
M  V30 10842 H 1014.78 -5.4992 -0.478749 0
M  V30 10843 H 1017.26 -3.87513 -1.51569 0
M  V30 10844 H 1016.13 -4.93335 -2.40648 0
M  V30 10845 H 1016.4 -3.28603 -2.95757 0
M  V30 10846 N 1015.45 0.186762 -1.56489 0
M  V30 10847 C 1016.7 0.905852 -1.81109 0
M  V30 10848 C 1017.03 1.82906 -0.661477 0
M  V30 10849 O 1016.28 1.92504 0.35226 0
M  V30 10850 C 1016.58 1.74719 -3.11782 0
M  V30 10851 C 1016.25 0.974238 -4.40249 0
M  V30 10852 C 1014.91 0.760856 -4.75147 0
M  V30 10853 C 1017.26 0.430971 -5.19415 0
M  V30 10854 C 1014.59 -0.00714216 -5.867 0
M  V30 10855 C 1016.94 -0.323859 -6.3177 0
M  V30 10856 C 1015.61 -0.548183 -6.65245 0
M  V30 10857 H 1014.88 0.331475 -0.662726 0
M  V30 10858 H 1017.52 0.171703 -1.90729 0
M  V30 10859 H 1015.83 2.55027 -2.97437 0
M  V30 10860 H 1017.53 2.30634 -3.28038 0
M  V30 10861 H 1014.12 1.15057 -4.12868 0
M  V30 10862 H 1018.3 0.583205 -4.92861 0
M  V30 10863 H 1013.56 -0.190832 -6.11102 0
M  V30 10864 H 1017.73 -0.752155 -6.92326 0
M  V30 10865 H 1015.36 -1.14518 -7.51525 0
M  V30 10866 N 1016.93 1.50896 0.454776 0
M  V30 10867 C 1018.21 1.53227 1.21576 0
M  V30 10868 C 1018.59 0.286358 2.09149 0
M  V30 10869 O 1017.94 -0.729469 2.16543 0
M  V30 10870 C 1018.15 2.83693 2.03271 0
M  V30 10871 C 1019.5 3.34981 2.60908 0
M  V30 10872 O 1020.52 2.85126 2.13499 0
M  V30 10873 O 1019.38 4.21929 3.4733 0
M  V30 10874 H 1016.47 0.615306 0.552564 0
M  V30 10875 H 1019.02 1.63197 0.465266 0
M  V30 10876 H 1017.79 3.65839 1.38843 0
M  V30 10877 H 1017.41 2.76803 2.85422 0
M  V30 10878 N 1018.41 -0.709066 1.40748 0
M  V30 10879 C 1019.36 -1.82312 1.4153 0
M  V30 10880 C 1020.33 -1.63868 0.271392 0
M  V30 10881 O 1021.51 -1.8491 0.470431 0
M  V30 10882 C 1018.65 -3.2008 1.29006 0
M  V30 10883 C 1017.77 -3.50051 2.53156 0
M  V30 10884 C 1016.9 -4.7736 2.33025 0
M  V30 10885 C 1015.94 -5.00255 3.52719 0
M  V30 10886 N 1015.08 -6.18782 3.31743 0
M  V30 10887 H 1019.92 -1.80978 2.36751 0
M  V30 10888 H 1017.45 -0.883975 1.17577 0
M  V30 10889 H 1019.41 -3.99645 1.19749 0
M  V30 10890 H 1018.04 -3.20626 0.374014 0
M  V30 10891 H 1017.09 -2.64993 2.72916 0
M  V30 10892 H 1018.41 -3.62877 3.42231 0
M  V30 10893 H 1017.56 -5.64954 2.21159 0
M  V30 10894 H 1016.3 -4.66756 1.41386 0
M  V30 10895 H 1015.3 -4.11114 3.65055 0
M  V30 10896 H 1016.53 -5.12728 4.45295 0
M  V30 10897 H 1014.47 -6.09416 2.42791 0
M  V30 10898 H 1014.39 -6.32313 4.14386 0
M  V30 10899 H 1015.66 -7.09146 3.23623 0
M  V30 10900 N 1019.89 -1.26353 -0.941956 0
M  V30 10901 C 1020.82 -1.02163 -2.04054 0
M  V30 10902 C 1021.8 0.0533514 -1.62512 0
M  V30 10903 O 1022.98 -0.0889063 -1.8829 0
M  V30 10904 C 1020.11 -0.546908 -3.34255 0
M  V30 10905 C 1019.16 -1.61433 -3.94768 0
M  V30 10906 S 1019.99 -3.20306 -4.29144 0
M  V30 10907 C 1021.15 -2.746 -5.62446 0
M  V30 10908 H 1021.38 -1.9518 -2.24259 0
M  V30 10909 H 1018.91 -1.10024 -1.08324 0
M  V30 10910 H 1020.87 -0.279673 -4.09546 0
M  V30 10911 H 1019.53 0.36297 -3.11996 0
M  V30 10912 H 1018.72 -1.23315 -4.88681 0
M  V30 10913 H 1018.33 -1.8329 -3.26007 0
M  V30 10914 H 1020.62 -2.19015 -6.41123 0
M  V30 10915 H 1021.56 -3.67202 -6.05449 0
M  V30 10916 H 1021.97 -2.1419 -5.22286 0
M  V30 10917 N 1021.37 1.14642 -1.08144 0
M  V30 10918 C 1022.61 1.86115 -0.820533 0
M  V30 10919 C 1022.97 1.81208 0.646635 0
M  V30 10920 O 1022.26 1.22997 1.46909 0
M  V30 10921 C 1022.46 3.33953 -1.2732 0
M  V30 10922 C 1022.28 3.53254 -2.78283 0
M  V30 10923 C 1021.05 3.68259 -3.45996 0
M  V30 10924 C 1023.25 3.504 -3.76463 0
M  V30 10925 N 1021.23 3.75692 -4.85519 0
M  V30 10926 C 1022.61 3.64045 -5.01868 0
M  V30 10927 C 1024.66 3.33722 -3.69505 0
M  V30 10928 C 1023.36 3.62734 -6.21141 0
M  V30 10929 C 1025.39 3.33713 -4.88251 0
M  V30 10930 C 1024.75 3.47896 -6.12493 0
M  V30 10931 H 1020.85 0.697829 -0.352929 0
M  V30 10932 H 1023.43 1.3742 -1.37927 0
M  V30 10933 H 1021.61 3.81245 -0.742066 0
M  V30 10934 H 1023.34 3.93174 -0.958991 0
M  V30 10935 H 1020.09 3.69376 -2.96409 0
M  V30 10936 H 1020.52 3.83133 -5.58156 0
M  V30 10937 H 1025.16 3.2167 -2.74387 0
M  V30 10938 H 1022.88 3.73563 -7.16573 0
M  V30 10939 H 1026.46 3.22025 -4.84553 0
M  V30 10940 H 1025.34 3.47833 -7.02838 0
M  V30 10941 N 1022.85 0.866709 1.31628 0
M  V30 10942 C 1024.07 0.49039 2.01004 0
M  V30 10943 C 1024.49 -0.916244 1.65077 0
M  V30 10944 O 1023.85 -1.59975 0.8783 0
M  V30 10945 C 1023.9 0.634011 3.55897 0
M  V30 10946 O 1023.62 1.98525 3.90537 0
M  V30 10947 C 1025.12 0.258277 4.42547 0
M  V30 10948 H 1022.34 0.191421 0.643117 0
M  V30 10949 H 1024.88 1.16698 1.67934 0
M  V30 10950 H 1023.04 0.00501801 3.874 0
M  V30 10951 H 1023.45 1.99067 4.85255 0
M  V30 10952 H 1024.93 0.409733 5.50477 0
M  V30 10953 H 1025.4 -0.802301 4.3181 0
M  V30 10954 H 1026.01 0.862837 4.16456 0
M  V30 10955 N 1024.32 -1.44642 0.625825 0
M  V30 10956 C 1025.55 -2.06159 0.13492 0
M  V30 10957 C 1025.96 -1.46801 -1.19357 0
M  V30 10958 O 1025.3 -0.583345 -1.74192 0
M  V30 10959 C 1025.37 -3.5945 -0.0598481 0
M  V30 10960 C 1025.03 -4.41244 1.18965 0
M  V30 10961 C 1026.03 -4.75064 2.11212 0
M  V30 10962 C 1023.71 -4.81705 1.42359 0
M  V30 10963 C 1025.71 -5.48221 3.25165 0
M  V30 10964 C 1023.39 -5.54612 2.5661 0
M  V30 10965 C 1024.39 -5.87789 3.4784 0
M  V30 10966 O 1024.08 -6.59213 4.60101 0
M  V30 10967 H 1023.81 -0.671888 0.0744464 0
M  V30 10968 H 1026.37 -1.86586 0.858775 0
M  V30 10969 H 1024.6 -3.77493 -0.838792 0
M  V30 10970 H 1026.28 -4.02751 -0.504639 0
M  V30 10971 H 1027.05 -4.44348 1.94371 0
M  V30 10972 H 1022.93 -4.55305 0.722401 0
M  V30 10973 H 1026.47 -5.74035 3.96396 0
M  V30 10974 H 1022.37 -5.84743 2.73396 0
M  V30 10975 H 1023.14 -6.77678 4.59015 0
M  V30 10976 N 1025.8 -0.366053 -1.5329 0
M  V30 10977 C 1026.73 0.523781 -2.22108 0
M  V30 10978 C 1027.71 1.08262 -1.21318 0
M  V30 10979 O 1028.9 1.13866 -1.50222 0
M  V30 10980 C 1026.02 1.72273 -2.91616 0
M  V30 10981 C 1025.07 1.29129 -4.06482 0
M  V30 10982 S 1025.9 0.292195 -5.34702 0
M  V30 10983 C 1027.06 1.49746 -6.07723 0
M  V30 10984 H 1027.29 -0.0606687 -2.97238 0
M  V30 10985 H 1024.82 -0.15016 -1.53668 0
M  V30 10986 H 1026.78 2.41045 -3.32277 0
M  V30 10987 H 1025.44 2.27843 -2.16209 0
M  V30 10988 H 1024.64 2.18583 -4.54134 0
M  V30 10989 H 1024.24 0.682783 -3.67715 0
M  V30 10990 H 1026.53 2.4284 -6.32483 0
M  V30 10991 H 1027.47 1.06232 -7.00086 0
M  V30 10992 H 1027.88 1.70373 -5.38176 0
M  V30 10993 N 1027.28 1.57312 -0.0952337 0
M  V30 10994 C 1028.7 1.57445 0.261416 0
M  V30 10995 C 1028.9 1.10639 1.68408 0
M  V30 10996 O 1027.95 0.782912 2.40056 0
M  V30 10997 C 1029.26 3.00659 0.0497206 0
M  V30 10998 C 1030.81 3.1278 0.117459 0
M  V30 10999 C 1031.29 4.57952 -0.0662441 0
M  V30 11000 N 1032.78 4.63199 -0.0114146 0
M  V30 11001 C 1033.51 5.73255 -0.128799 0
M  V30 11002 N 1033.01 6.92146 -0.301026 0
M  V30 11003 N 1034.8 5.62056 -0.0700599 0
M  V30 11004 H 1026.95 1.86045 -1.02475 0
M  V30 11005 H 1029.22 0.858726 -0.401614 0
M  V30 11006 H 1028.92 3.39102 -0.932888 0
M  V30 11007 H 1028.8 3.68792 0.791975 0
M  V30 11008 H 1031.18 2.74209 1.09057 0
M  V30 11009 H 1031.26 2.47238 -0.656288 0
M  V30 11010 H 1030.91 4.97217 -1.03623 0
M  V30 11011 H 1030.84 5.21555 0.727198 0
M  V30 11012 H 1033.33 3.77712 0.119154 0
M  V30 11013 H 1033.64 7.71855 -0.382104 0
M  V30 11014 H 1031.99 6.94184 -0.336695 0
M  V30 11015 H 1035.18 4.68057 0.0633587 0
M  V30 11016 H 1035.35 6.4779 -0.164991 0
M  V30 11017 N 1028.76 -0.17846 1.56586 0
M  V30 11018 C 1029.98 -0.916061 1.86073 0
M  V30 11019 C 1030.41 -1.75349 0.680754 0
M  V30 11020 O 1029.77 -1.77479 -0.37028 0
M  V30 11021 C 1029.81 -1.77445 3.1392 0
M  V30 11022 O 1028.92 -2.87524 2.95641 0
M  V30 11023 H 1028.26 -0.257031 0.612234 0
M  V30 11024 H 1030.79 -0.178755 2.03818 0
M  V30 11025 H 1030.8 -2.1758 3.45142 0
M  V30 11026 H 1029.47 -1.15927 3.99417 0
M  V30 11027 H 1028.05 -2.51023 2.75757 0
M  V30 11028 N 1030.24 -1.51135 -0.446768 0
M  V30 11029 C 1031.2 -1.71187 -1.52406 0
M  V30 11030 C 1032.2 -0.582037 -1.49897 0
M  V30 11031 O 1033.39 -0.849452 -1.52085 0
M  V30 11032 C 1030.52 -1.75962 -2.91976 0
M  V30 11033 H 1031.71 -2.67324 -1.35934 0
M  V30 11034 H 1029.27 -1.40982 -0.674813 0
M  V30 11035 H 1030 -0.816065 -3.13864 0
M  V30 11036 H 1029.79 -2.58065 -2.95203 0
M  V30 11037 H 1031.28 -1.93347 -3.70144 0
M  V30 11038 N 1031.71 0.701592 -1.41122 0
M  V30 11039 C 1032.62 1.84548 -1.44841 0
M  V30 11040 C 1033.64 1.70654 -0.339594 0
M  V30 11041 O 1034.82 1.92675 -0.586378 0
M  V30 11042 C 1031.88 3.20477 -1.3227 0
M  V30 11043 C 1030.94 3.46524 -2.53415 0
M  V30 11044 C 1030.17 4.75968 -2.41434 0
M  V30 11045 O 1030.4 5.52037 -1.43566 0
M  V30 11046 O 1029.33 5.02664 -3.31078 0
M  V30 11047 H 1033.16 1.84367 -2.41335 0
M  V30 11048 H 1030.74 0.853863 -1.22595 0
M  V30 11049 H 1032.62 4.01642 -1.2752 0
M  V30 11050 H 1031.3 3.21355 -0.388889 0
M  V30 11051 H 1030.21 2.65313 -2.63742 0
M  V30 11052 H 1031.54 3.50455 -3.45604 0
M  V30 11053 N 1033.19 1.2685 0.935242 0
M  V30 11054 C 1034.6 1.11569 1.49697 0
M  V30 11055 C 1034.95 -0.301952 1.93863 0
M  V30 11056 O 1034.08 -1.19408 1.80473 0
M  V30 11057 C 1034.67 2.01918 2.72056 0
M  V30 11058 C 1033.23 1.90765 3.24477 0
M  V30 11059 C 1032.38 1.94918 1.97237 0
M  V30 11060 H 1035.33 1.39853 0.750116 0
M  V30 11061 H 1035.35 1.57056 3.46574 0
M  V30 11062 H 1034.86 3.05088 2.39881 0
M  V30 11063 H 1032.96 0.905521 3.61429 0
M  V30 11064 H 1033.08 2.76611 3.91182 0
M  V30 11065 H 1031.44 1.39046 2.13397 0
M  V30 11066 H 1032.22 2.99729 1.67385 0
M  V30 11067 N 1034.67 -1.14067 1.0875 0
M  V30 11068 C 1035.9 -1.89582 0.841038 0
M  V30 11069 C 1036.32 -1.78226 -0.601436 0
M  V30 11070 O 1035.68 -1.12491 -1.42181 0
M  V30 11071 C 1035.73 -3.37415 1.27213 0
M  V30 11072 O 1034.83 -4.10191 0.426246 0
M  V30 11073 H 1034.17 -0.589716 0.305173 0
M  V30 11074 H 1036.7 -1.44364 1.44984 0
M  V30 11075 H 1036.71 -3.88234 1.25451 0
M  V30 11076 H 1035.39 -3.44999 2.32268 0
M  V30 11077 H 1033.96 -3.69429 0.507585 0
M  V30 11078 N 1036.15 -0.873678 -1.31166 0
M  V30 11079 C 1037.39 -0.487178 -1.96861 0
M  V30 11080 C 1037.73 0.95887 -1.68877 0
M  V30 11081 O 1037 1.6758 -0.987279 0
M  V30 11082 C 1037.29 -0.74925 -3.52219 0
M  V30 11083 C 1037.14 -2.2451 -3.89763 0
M  V30 11084 C 1038.46 -0.218194 -4.39559 0
M  V30 11085 H 1035.58 -0.178477 -0.715063 0
M  V30 11086 H 1038.22 -1.0956 -1.55231 0
M  V30 11087 H 1036.37 -0.231403 -3.8781 0
M  V30 11088 H 1038.04 -2.83049 -3.64254 0
M  V30 11089 H 1036.28 -2.71621 -3.38237 0
M  V30 11090 H 1036.95 -2.37911 -4.98099 0
M  V30 11091 H 1039.43 -0.661274 -4.10812 0
M  V30 11092 H 1038.31 -0.430983 -5.47205 0
M  V30 11093 H 1038.57 0.880056 -4.33252 0
M  V30 11094 N 1037.63 1.44308 -0.633487 0
M  V30 11095 C 1038.87 2.02023 -0.138917 0
M  V30 11096 C 1039.2 1.49841 1.24008 0
M  V30 11097 O 1038.46 0.673718 1.83738 0
M  V30 11098 C 1038.76 3.57316 -0.0773886 0
M  V30 11099 C 1038.42 4.28762 -1.39548 0
M  V30 11100 C 1037.08 4.47997 -1.75648 0
M  V30 11101 C 1039.44 4.69391 -2.26542 0
M  V30 11102 C 1036.76 5.05121 -2.98445 0
M  V30 11103 C 1039.12 5.27876 -3.48612 0
M  V30 11104 C 1037.78 5.45329 -3.84932 0
M  V30 11105 H 1037.05 0.739254 -0.0508333 0
M  V30 11106 H 1039.7 1.73043 -0.820271 0
M  V30 11107 H 1038 3.85724 0.687345 0
M  V30 11108 H 1039.7 3.99706 0.321837 0
M  V30 11109 H 1036.29 4.14122 -1.10456 0
M  V30 11110 H 1040.47 4.54241 -1.99946 0
M  V30 11111 H 1035.73 5.16821 -3.26658 0
M  V30 11112 H 1039.9 5.58307 -4.16253 0
M  V30 11113 H 1037.53 5.8936 -4.80166 0
M  V30 11114 N 1039.1 0.374177 1.53094 0
M  V30 11115 C 1040.35 -0.213131 2.01677 0
M  V30 11116 C 1040.68 -1.47715 1.26071 0
M  V30 11117 O 1039.96 -1.91199 0.356834 0
M  V30 11118 C 1040.24 -0.496392 3.56662 0
M  V30 11119 C 1040.09 0.781859 4.42953 0
M  V30 11120 C 1041.41 -1.29339 4.20666 0
M  V30 11121 H 1038.53 -0.0759885 0.733072 0
M  V30 11122 H 1041.17 0.500765 1.83282 0
M  V30 11123 H 1039.32 -1.10455 3.72467 0
M  V30 11124 H 1041 1.41914 4.38928 0
M  V30 11125 H 1039.24 1.40041 4.10574 0
M  V30 11126 H 1039.91 0.538508 5.49367 0
M  V30 11127 H 1042.39 -0.778848 4.08746 0
M  V30 11128 H 1041.26 -1.46033 5.29118 0
M  V30 11129 H 1041.52 -2.30435 3.77296 0
M  V30 11130 N 1040.58 -1.57259 0.103575 0
M  V30 11131 C 1042 -1.57581 -0.253062 0
M  V30 11132 C 1042.2 -1.11531 -1.67819 0
M  V30 11133 O 1041.25 -0.795632 -2.39637 0
M  V30 11134 C 1042.57 -3.00681 -0.0337753 0
M  V30 11135 C 1044.12 -3.12837 -0.10087 0
M  V30 11136 C 1044.59 -4.57911 0.0905295 0
M  V30 11137 N 1046.08 -4.63186 0.0359789 0
M  V30 11138 C 1046.82 -5.73179 0.159199 0
M  V30 11139 N 1046.31 -6.91976 0.337728 0
M  V30 11140 N 1048.11 -5.62011 0.0998662 0
M  V30 11141 H 1040.26 -1.85499 1.0346 0
M  V30 11142 H 1042.52 -0.856584 0.406163 0
M  V30 11143 H 1042.23 -3.38602 0.950858 0
M  V30 11144 H 1042.1 -3.69207 -0.772406 0
M  V30 11145 H 1044.49 -2.74783 -1.07601 0
M  V30 11146 H 1044.57 -2.46886 0.66939 0
M  V30 11147 H 1044.21 -4.9666 1.06258 0
M  V30 11148 H 1044.14 -5.21933 -0.699528 0
M  V30 11149 H 1046.63 -3.7777 -0.099121 0
M  V30 11150 H 1046.95 -7.71641 0.423032 0
M  V30 11151 H 1045.29 -6.93996 0.373504 0
M  V30 11152 H 1048.48 -4.68084 -0.0385356 0
M  V30 11153 H 1048.65 -6.47693 0.199342 0
M  V30 11154 N 1042.06 0.170153 -1.56679 0
M  V30 11155 C 1043.29 0.902134 -1.86197 0
M  V30 11156 C 1043.7 1.75775 -0.689098 0
M  V30 11157 O 1043.06 1.79271 0.341763 0
M  V30 11158 C 1043.11 1.77792 -3.14757 0
M  V30 11159 O 1042.83 0.956817 -4.27524 0
M  V30 11160 C 1044.33 2.61947 -3.57629 0
M  V30 11161 H 1041.55 0.262026 -0.617724 0
M  V30 11162 H 1044.1 0.169899 -2.03793 0
M  V30 11163 H 1042.25 2.46348 -2.98984 0
M  V30 11164 H 1042.67 1.5559 -5.00891 0
M  V30 11165 H 1044.14 3.19011 -4.50484 0
M  V30 11166 H 1044.62 3.36873 -2.81803 0
M  V30 11167 H 1045.22 1.98721 -3.76019 0
M  V30 11168 N 1043.54 1.5137 0.438746 0
M  V30 11169 C 1044.77 1.67774 1.21077 0
M  V30 11170 C 1045.18 0.374489 1.85049 0
M  V30 11171 O 1044.54 -0.646867 1.70651 0
M  V30 11172 C 1044.59 2.79238 2.29584 0
M  V30 11173 O 1044.31 4.04513 1.68228 0
M  V30 11174 C 1045.81 3.06898 3.19888 0
M  V30 11175 H 1043.03 0.563054 0.364981 0
M  V30 11176 H 1045.58 1.97777 0.520035 0
M  V30 11177 H 1043.73 2.51837 2.94375 0
M  V30 11178 H 1044.14 4.66405 2.3993 0
M  V30 11179 H 1045.62 3.88476 3.92162 0
M  V30 11180 H 1046.1 2.19249 3.80561 0
M  V30 11181 H 1046.7 3.35952 2.60799 0
M  V30 11182 N 1045.02 -0.694098 1.41492 0
M  V30 11183 C 1045.98 -1.78976 1.43179 0
M  V30 11184 C 1046.98 -1.57539 0.322191 0
M  V30 11185 O 1048.17 -1.64185 0.582138 0
M  V30 11186 C 1045.3 -3.17368 1.2446 0
M  V30 11187 H 1046.49 -1.78874 2.40716 0
M  V30 11188 H 1044.05 -0.901867 1.27656 0
M  V30 11189 H 1044.78 -3.23109 0.277691 0
M  V30 11190 H 1044.57 -3.3433 2.04856 0
M  V30 11191 H 1046.06 -3.97345 1.28479 0
M  V30 11192 N 1046.49 -1.27344 -0.928501 0
M  V30 11193 C 1047.4 -1.11812 -2.06241 0
M  V30 11194 C 1048.42 -0.048347 -1.73933 0
M  V30 11195 O 1049.6 -0.25467 -1.99783 0
M  V30 11196 C 1046.66 -0.766036 -3.38131 0
M  V30 11197 C 1045.72 -1.91659 -3.84142 0
M  V30 11198 C 1044.96 -1.58121 -5.09738 0
M  V30 11199 O 1045.18 -0.488742 -5.68302 0
M  V30 11200 O 1044.11 -2.42013 -5.51102 0
M  V30 11201 H 1047.94 -2.06967 -2.22258 0
M  V30 11202 H 1045.52 -1.06524 -1.04752 0
M  V30 11203 H 1047.41 -0.582982 -4.17348 0
M  V30 11204 H 1046.08 0.155998 -3.23324 0
M  V30 11205 H 1044.99 -2.1547 -3.05816 0
M  V30 11206 H 1046.32 -2.8188 -4.0349 0
M  V30 11207 N 1047.97 1.13488 -1.09353 0
M  V30 11208 C 1049.22 1.84383 -0.827488 0
M  V30 11209 C 1049.54 1.83892 0.648745 0
M  V30 11210 O 1048.81 1.29415 1.47066 0
M  V30 11211 H 1047.39 0.682732 -0.303127 0
M  V30 11212 H 1050.05 1.37477 -1.38152 0
M  V30 11213 H 1049.15 2.88919 -1.18035 0
M  V30 11214 N 1049.45 0.880621 1.30701 0
M  V30 11215 C 1050.7 0.497611 1.966 0
M  V30 11216 C 1051.03 -0.949901 1.69383 0
M  V30 11217 O 1050.31 -1.67054 0.996152 0
M  V30 11218 C 1050.59 0.767919 3.51817 0
M  V30 11219 C 1050.44 2.26574 3.88567 0
M  V30 11220 C 1051.76 0.241502 4.39437 0
M  V30 11221 H 1048.88 0.182267 0.714106 0
M  V30 11222 H 1051.52 1.10382 1.54648 0
M  V30 11223 H 1049.67 0.251967 3.87682 0
M  V30 11224 H 1051.34 2.84977 3.62748 0
M  V30 11225 H 1049.59 2.73411 3.36792 0
M  V30 11226 H 1050.26 2.40549 4.9683 0
M  V30 11227 H 1052.73 0.683051 4.10455 0
M  V30 11228 H 1051.61 0.459997 5.46969 0
M  V30 11229 H 1051.87 -0.857068 4.33713 0
M  V30 11230 N 1050.93 -1.4397 0.641131 0
M  V30 11231 C 1051.89 -2.29149 -0.0482243 0
M  V30 11232 C 1052.89 -1.41572 -0.762495 0
M  V30 11233 O 1054.08 -1.63335 -0.605571 0
M  V30 11234 C 1051.21 -3.23375 -1.07896 0
M  V30 11235 H 1052.41 -2.9159 0.70109 0
M  V30 11236 H 1049.96 -1.51048 0.401754 0
M  V30 11237 H 1050.7 -2.65804 -1.85792 0
M  V30 11238 H 1050.48 -3.87926 -0.570597 0
M  V30 11239 H 1051.97 -3.87337 -1.56075 0
M  V30 11240 N 1052.41 -0.382291 -1.52893 0
M  V30 11241 C 1053.82 -0.031941 -1.59568 0
M  V30 11242 C 1054.02 1.45245 -1.39664 0
M  V30 11243 O 1053.08 2.21612 -1.21013 0
M  V30 11244 C 1054.39 -0.502846 -2.96466 0
M  V30 11245 C 1055.94 -0.4585 -3.09624 0
M  V30 11246 C 1056.42 -0.905481 -4.4896 0
M  V30 11247 N 1057.91 -0.861211 -4.55124 0
M  V30 11248 C 1058.64 -1.17856 -5.61157 0
M  V30 11249 N 1058.14 -1.56603 -6.74868 0
M  V30 11250 N 1059.93 -1.10027 -5.51226 0
M  V30 11251 H 1052.08 -1.34875 -1.64081 0
M  V30 11252 H 1054.34 -0.552375 -0.770446 0
M  V30 11253 H 1054.05 -1.53931 -3.16225 0
M  V30 11254 H 1053.92 0.101777 -3.77063 0
M  V30 11255 H 1056.31 0.568868 -2.89565 0
M  V30 11256 H 1056.39 -1.09884 -2.30996 0
M  V30 11257 H 1056.04 -1.93105 -4.69759 0
M  V30 11258 H 1055.97 -0.242227 -5.26043 0
M  V30 11259 H 1058.46 -0.575988 -3.73485 0
M  V30 11260 H 1058.77 -1.792 -7.51736 0
M  V30 11261 H 1057.12 -1.60484 -6.76217 0
M  V30 11262 H 1060.31 -0.796623 -4.61272 0
M  V30 11263 H 1060.48 -1.35091 -6.33762 0
M  V30 11264 N 1053.89 1.57202 -0.111913 0
M  V30 11265 C 1055.13 1.95239 0.548607 0
M  V30 11266 C 1055.46 0.994897 1.6678 0
M  V30 11267 O 1054.74 0.0308603 1.94476 0
M  V30 11268 C 1055.02 3.43271 1.08798 0
M  V30 11269 C 1054.88 4.49792 -0.0273064 0
M  V30 11270 C 1056.19 3.92989 1.98109 0
M  V30 11271 H 1053.31 0.709919 0.197951 0
M  V30 11272 H 1055.96 1.89087 -0.186036 0
M  V30 11273 H 1054.11 3.48644 1.71404 0
M  V30 11274 H 1055.78 4.56521 -0.662302 0
M  V30 11275 H 1054.02 4.28254 -0.691426 0
M  V30 11276 H 1054.69 5.50612 0.391201 0
M  V30 11277 H 1057.17 3.89875 1.45385 0
M  V30 11278 H 1056.04 4.97101 2.32769 0
M  V30 11279 H 1056.3 3.33267 2.90492 0
M  V30 11280 N 1055.36 -0.161842 1.56767 0
M  V30 11281 C 1056.78 -0.51396 1.51098 0
M  V30 11282 C 1056.98 -1.84158 0.817815 0
M  V30 11283 O 1056.04 -2.49592 0.382133 0
M  V30 11284 C 1057.35 -0.537966 2.95849 0
M  V30 11285 C 1058.9 -0.624512 3.06706 0
M  V30 11286 C 1059.37 -0.679322 4.52934 0
M  V30 11287 N 1060.86 -0.741953 4.57219 0
M  V30 11288 C 1061.6 -0.805096 5.6772 0
M  V30 11289 N 1061.09 -0.828492 6.87828 0
M  V30 11290 N 1062.89 -0.844843 5.55715 0
M  V30 11291 H 1055.04 0.708581 2.00232 0
M  V30 11292 H 1057.3 0.25663 0.912603 0
M  V30 11293 H 1057.01 0.369052 3.49758 0
M  V30 11294 H 1056.88 -1.38113 3.51005 0
M  V30 11295 H 1059.27 -1.52195 2.52825 0
M  V30 11296 H 1059.35 0.245515 2.54619 0
M  V30 11297 H 1058.99 0.213901 5.07449 0
M  V30 11298 H 1058.92 -1.56563 5.02788 0
M  V30 11299 H 1061.41 -0.731772 3.70747 0
M  V30 11300 H 1061.73 -0.878109 7.67795 0
M  V30 11301 H 1060.07 -0.796612 6.9042 0
M  V30 11302 H 1063.26 -0.823632 4.60797 0
M  V30 11303 H 1063.44 -0.890588 6.41851 0
M  V30 11304 N 1056.84 -1.516 -0.430713 0
M  V30 11305 C 1057.79 -1.73392 -1.52328 0
M  V30 11306 C 1058.76 -0.575758 -1.55802 0
M  V30 11307 O 1059.94 -0.810931 -1.72709 0
M  V30 11308 C 1057.08 -1.87092 -2.89984 0
M  V30 11309 C 1056.2 -3.14668 -2.95987 0
M  V30 11310 C 1055.33 -3.18923 -4.24807 0
M  V30 11311 C 1054.37 -4.40787 -4.24703 0
M  V30 11312 N 1053.51 -4.42556 -5.45059 0
M  V30 11313 H 1058.35 -2.6665 -1.33048 0
M  V30 11314 H 1055.88 -1.32146 -0.646207 0
M  V30 11315 H 1057.84 -1.93017 -3.69865 0
M  V30 11316 H 1056.47 -0.972363 -3.07807 0
M  V30 11317 H 1055.52 -3.1802 -2.08728 0
M  V30 11318 H 1056.84 -4.04562 -2.91772 0
M  V30 11319 H 1055.99 -3.23801 -5.13067 0
M  V30 11320 H 1054.73 -2.2693 -4.31688 0
M  V30 11321 H 1053.73 -4.36079 -3.34836 0
M  V30 11322 H 1054.96 -5.34053 -4.19481 0
M  V30 11323 H 1052.91 -3.53435 -5.52648 0
M  V30 11324 H 1052.82 -5.26267 -5.42751 0
M  V30 11325 H 1054.09 -4.51634 -6.35332 0
M  V30 11326 N 1058.32 0.686584 -1.41858 0
M  V30 11327 C 1059.54 1.4802 -1.45275 0
M  V30 11328 C 1059.97 1.87997 -0.0621297 0
M  V30 11329 O 1059.33 1.55226 0.936733 0
M  V30 11330 C 1059.38 2.7133 -2.37513 0
M  V30 11331 O 1058.48 3.69159 -1.83836 0
M  V30 11332 H 1057.82 0.445152 -0.492682 0
M  V30 11333 H 1060.35 0.843161 -1.86419 0
M  V30 11334 H 1060.36 3.19537 -2.53693 0
M  V30 11335 H 1059.04 2.41571 -3.3855 0
M  V30 11336 H 1057.61 3.28134 -1.77151 0
M  V30 11337 N 1059.8 1.27835 0.921735 0
M  V30 11338 C 1060.74 1.11075 2.02314 0
M  V30 11339 C 1061.71 0.0101195 1.66097 0
M  V30 11340 O 1062.9 0.173564 1.90009 0
M  V30 11341 C 1060.04 0.770251 3.36394 0
M  V30 11342 C 1059.15 1.94912 3.8553 0
M  V30 11343 C 1058.29 1.54996 5.08084 0
M  V30 11344 C 1057.33 2.69595 5.49531 0
M  V30 11345 N 1056.46 2.30227 6.6328 0
M  V30 11346 H 1061.3 2.05319 2.15982 0
M  V30 11347 H 1058.84 1.022 1.058 0
M  V30 11348 H 1060.8 0.553624 4.1351 0
M  V30 11349 H 1059.43 -0.135238 3.22517 0
M  V30 11350 H 1058.48 2.27811 3.04641 0
M  V30 11351 H 1059.79 2.80858 4.12214 0
M  V30 11352 H 1058.95 1.29493 5.9272 0
M  V30 11353 H 1057.69 0.661676 4.83191 0
M  V30 11354 H 1056.69 2.95806 4.63442 0
M  V30 11355 H 1057.92 3.59054 5.76417 0
M  V30 11356 H 1055.86 1.43858 6.40032 0
M  V30 11357 H 1055.78 3.09711 6.89649 0
M  V30 11358 H 1057.05 2.07987 7.5124 0
M  V30 11359 N 1061.28 -1.12907 1.09954 0
M  V30 11360 C 1062.52 -1.83941 0.837255 0
M  V30 11361 C 1062.84 -1.84234 -0.638984 0
M  V30 11362 O 1062.11 -1.30193 -1.46378 0
M  V30 11363 H 1060.69 -0.681115 0.306743 0
M  V30 11364 H 1063.36 -1.36743 1.38879 0
M  V30 11365 H 1062.45 -2.88289 1.19565 0
M  V30 11366 N 1062.75 -0.88754 -1.30232 0
M  V30 11367 C 1063.7 -0.354497 -2.28061 0
M  V30 11368 C 1064.67 0.556732 -1.56492 0
M  V30 11369 O 1065.86 0.484597 -1.84543 0
M  V30 11370 C 1063 0.422701 -3.42501 0
M  V30 11371 C 1062.11 -0.518036 -4.28883 0
M  V30 11372 C 1061.24 0.275011 -5.30488 0
M  V30 11373 C 1060.28 -0.661032 -6.0852 0
M  V30 11374 N 1059.42 0.0968509 -7.02033 0
M  V30 11375 H 1064.26 -1.19388 -2.73039 0
M  V30 11376 H 1061.8 -0.600091 -1.34303 0
M  V30 11377 H 1063.75 0.889249 -4.07613 0
M  V30 11378 H 1062.38 1.22664 -2.98586 0
M  V30 11379 H 1061.44 -1.10308 -3.64055 0
M  V30 11380 H 1062.75 -1.23504 -4.83268 0
M  V30 11381 H 1061.9 0.803301 -6.01358 0
M  V30 11382 H 1060.64 1.02522 -4.76802 0
M  V30 11383 H 1059.65 -1.20093 -5.36524 0
M  V30 11384 H 1060.87 -1.41037 -6.64293 0
M  V30 11385 H 1058.82 0.829548 -6.50734 0
M  V30 11386 H 1058.73 -0.560476 -7.5392 0
M  V30 11387 H 1060 0.6058 -7.77142 0
M  V30 11388 N 1064.23 1.43628 -0.648757 0
M  V30 11389 C 1065.46 2.05918 -0.167701 0
M  V30 11390 C 1065.87 1.48681 1.17006 0
M  V30 11391 O 1065.21 0.610984 1.73242 0
M  V30 11392 C 1065.28 3.595 0.00265514 0
M  V30 11393 C 1064.94 4.39295 -1.2597 0
M  V30 11394 C 1065.94 4.71643 -2.18743 0
M  V30 11395 C 1063.62 4.79379 -1.50004 0
M  V30 11396 C 1065.62 5.42978 -3.33846 0
M  V30 11397 C 1063.3 5.50459 -2.65401 0
M  V30 11398 C 1064.3 5.82181 -3.57148 0
M  V30 11399 O 1063.99 6.5181 -4.7053 0
M  V30 11400 H 1063.72 0.670619 -0.0851261 0
M  V30 11401 H 1066.27 1.85196 -0.888351 0
M  V30 11402 H 1064.5 3.7878 0.77863 0
M  V30 11403 H 1066.19 4.03503 0.440501 0
M  V30 11404 H 1066.96 4.41199 -2.01416 0
M  V30 11405 H 1062.84 4.54098 -0.794745 0
M  V30 11406 H 1066.38 5.67656 -4.05479 0
M  V30 11407 H 1062.28 5.8032 -2.82664 0
M  V30 11408 H 1063.05 6.7029 -4.69738 0
M  V30 11409 N 1065.71 0.390394 1.52688 0
M  V30 11410 C 1066.67 -0.432149 2.25089 0
M  V30 11411 C 1067.67 -0.989296 1.26766 0
M  V30 11412 O 1068.86 -0.871126 1.50854 0
M  V30 11413 C 1066 -1.60642 3.00678 0
M  V30 11414 H 1067.19 0.201734 2.99221 0
M  V30 11415 H 1064.74 0.142531 1.55649 0
M  V30 11416 H 1065.48 -2.2777 2.3085 0
M  V30 11417 H 1065.26 -1.21361 3.72846 0
M  V30 11418 H 1066.75 -2.18873 3.55647 0
M  V30 11419 N 1067.19 -1.57141 0.120249 0
M  V30 11420 C 1068.42 -1.993 -0.544346 0
M  V30 11421 C 1068.83 -0.998858 -1.60684 0
M  V30 11422 O 1068.17 0.0162197 -1.83693 0
M  V30 11423 C 1068.23 -3.37874 -1.22808 0
M  V30 11424 C 1067.9 -4.55924 -0.313374 0
M  V30 11425 C 1068.89 -5.17962 0.448501 0
M  V30 11426 C 1066.58 -5.018 -0.224082 0
M  V30 11427 C 1068.57 -6.24264 1.28739 0
M  V30 11428 C 1066.26 -6.07963 0.618437 0
M  V30 11429 C 1067.26 -6.69061 1.3728 0
M  V30 11430 O 1066.94 -7.73173 2.20133 0
M  V30 11431 H 1066.68 -0.659466 -0.148596 0
M  V30 11432 H 1069.23 -2.04387 0.203779 0
M  V30 11433 H 1067.46 -3.29545 -2.02329 0
M  V30 11434 H 1069.15 -3.64314 -1.7897 0
M  V30 11435 H 1069.92 -4.83434 0.389395 0
M  V30 11436 H 1065.79 -4.53989 -0.80094 0
M  V30 11437 H 1069.34 -6.71883 1.87667 0
M  V30 11438 H 1065.24 -6.4192 0.678932 0
M  V30 11439 H 1066 -7.90276 2.13088 0
M  V30 11440 N 1068.67 0.153526 -1.5685 0
M  V30 11441 C 1069.6 1.19162 -2.00805 0
M  V30 11442 C 1070.58 1.45172 -0.886518 0
M  V30 11443 O 1071.76 1.56203 -1.15387 0
M  V30 11444 C 1068.89 2.52637 -2.38311 0
M  V30 11445 C 1067.85 2.41161 -3.53589 0
M  V30 11446 C 1067.17 3.79287 -3.76889 0
M  V30 11447 C 1068.47 1.90122 -4.86468 0
M  V30 11448 H 1070.17 0.82617 -2.87776 0
M  V30 11449 H 1067.71 0.395972 -1.38449 0
M  V30 11450 H 1069.67 3.25478 -2.6766 0
M  V30 11451 H 1068.39 2.91005 -1.4827 0
M  V30 11452 H 1067.05 1.70772 -3.24395 0
M  V30 11453 H 1066.7 4.15079 -2.84109 0
M  V30 11454 H 1066.4 3.72472 -4.54465 0
M  V30 11455 H 1067.92 4.53687 -4.08657 0
M  V30 11456 H 1069.33 2.52752 -5.14577 0
M  V30 11457 H 1067.73 1.94214 -5.67804 0
M  V30 11458 H 1068.8 0.856517 -4.77275 0
M  V30 11459 N 1070.14 1.51827 0.422667 0
M  V30 11460 C 1071.07 1.77152 1.52117 0
M  V30 11461 C 1072.06 0.621895 1.58324 0
M  V30 11462 O 1073.24 0.866118 1.73816 0
M  V30 11463 C 1070.37 1.90991 2.90068 0
M  V30 11464 C 1069.32 3.06516 2.98717 0
M  V30 11465 C 1068.65 3.05559 4.38791 0
M  V30 11466 C 1069.95 4.46223 2.71445 0
M  V30 11467 H 1071.64 2.69135 1.31175 0
M  V30 11468 H 1069.19 1.29507 0.629607 0
M  V30 11469 H 1071.14 2.07291 3.6689 0
M  V30 11470 H 1069.87 0.956688 3.12274 0
M  V30 11471 H 1068.53 2.89945 2.24338 0
M  V30 11472 H 1068.17 2.07985 4.57986 0
M  V30 11473 H 1067.87 3.83144 4.45505 0
M  V30 11474 H 1069.4 3.23971 5.17566 0
M  V30 11475 H 1070.81 4.63069 3.37994 0
M  V30 11476 H 1069.21 5.25623 2.89552 0
M  V30 11477 H 1070.28 4.5525 1.6696 0
M  V30 11478 N 1071.62 -0.679052 1.4222 0
M  V30 11479 C 1072.53 -1.82221 1.47759 0
M  V30 11480 C 1073.55 -1.70092 0.3667 0
M  V30 11481 O 1074.72 -1.91718 0.616957 0
M  V30 11482 C 1071.79 -3.18332 1.37351 0
M  V30 11483 C 1070.85 -3.42449 2.58896 0
M  V30 11484 C 1070.08 -4.72067 2.48976 0
M  V30 11485 O 1070.31 -5.49683 1.5233 0
M  V30 11486 O 1069.24 -4.97333 3.39033 0
M  V30 11487 H 1073.07 -1.80504 2.44238 0
M  V30 11488 H 1070.65 -0.834251 1.23938 0
M  V30 11489 H 1072.53 -3.99563 1.33893 0
M  V30 11490 H 1071.21 -3.20696 0.439965 0
M  V30 11491 H 1070.12 -2.61083 2.6793 0
M  V30 11492 H 1071.45 -3.44912 3.51136 0
M  V30 11493 N 1073.1 -1.28322 -0.914942 0
M  V30 11494 C 1074.33 -1.1837 -1.70304 0
M  V30 11495 C 1074.75 0.254291 -1.86373 0
M  V30 11496 O 1074.11 1.18398 -1.37301 0
M  V30 11497 C 1074.16 -1.88603 -3.07346 0
M  V30 11498 O 1073.26 -1.19268 -3.94777 0
M  V30 11499 H 1072.6 -0.410978 -0.52153 0
M  V30 11500 H 1075.13 -1.69622 -1.14409 0
M  V30 11501 H 1075.14 -1.96463 -3.57584 0
M  V30 11502 H 1073.82 -2.93201 -2.94967 0
M  V30 11503 H 1072.39 -1.19563 -3.53212 0
M  V30 11504 N 1074.58 1.12322 -1.10551 0
M  V30 11505 C 1075.81 1.87679 -0.87087 0
M  V30 11506 C 1076.22 1.79711 0.578733 0
M  V30 11507 O 1075.58 1.17185 1.39907 0
M  V30 11508 C 1075.63 3.36846 -1.31213 0
M  V30 11509 O 1075.35 3.44626 -2.70489 0
M  V30 11510 C 1076.85 4.29138 -1.11156 0
M  V30 11511 H 1074.07 0.593788 -0.3125 0
M  V30 11512 H 1076.62 1.42116 -1.47048 0
M  V30 11513 H 1074.77 3.79948 -0.756169 0
M  V30 11514 H 1075.18 4.37441 -2.89389 0
M  V30 11515 H 1076.66 5.32082 -1.46944 0
M  V30 11516 H 1077.14 4.39171 -0.0502963 0
M  V30 11517 H 1077.74 3.91818 -1.65405 0
M  V30 11518 N 1076.06 0.894434 1.2976 0
M  V30 11519 C 1076.99 0.312806 2.26046 0
M  V30 11520 C 1077.97 -0.572024 1.52206 0
M  V30 11521 O 1079.15 -0.520009 1.81185 0
M  V30 11522 C 1076.28 -0.554624 3.34128 0
M  V30 11523 C 1075.32 0.262168 4.25693 0
M  V30 11524 S 1076.16 1.65656 5.09233 0
M  V30 11525 C 1077.31 0.795914 6.20819 0
M  V30 11526 H 1077.55 1.12895 2.75031 0
M  V30 11527 H 1075.08 0.694446 1.37901 0
M  V30 11528 H 1077.04 -1.04933 3.96862 0
M  V30 11529 H 1075.7 -1.34495 2.83848 0
M  V30 11530 H 1074.89 -0.400216 5.02408 0
M  V30 11531 H 1074.49 0.689829 3.67583 0
M  V30 11532 H 1076.79 0.0169942 6.77498 0
M  V30 11533 H 1077.73 1.53497 6.91263 0
M  V30 11534 H 1078.14 0.35263 5.63398 0
M  V30 11535 N 1077.53 -1.43282 0.656365 0
M  V30 11536 C 1078.48 -2.32556 -0.0452037 0
M  V30 11537 C 1079.48 -1.48789 -0.80982 0
M  V30 11538 O 1080.68 -1.64979 -0.719865 0
M  V30 11539 H 1077.06 -0.751258 -0.0334043 0
M  V30 11540 H 1079.03 -2.89448 0.725423 0
M  V30 11541 C 1077.78 -3.33138 -0.995706 0
M  V30 11542 H 1077.1 -3.97622 -0.416774 0
M  V30 11543 H 1078.54 -3.98231 -1.45562 0
M  V30 11544 C 1077 -2.63978 -2.09325 0
M  V30 11545 O 1077.53 -2.45769 -3.17743 0
M  V30 11546 N 1075.74 -2.23301 -1.8597 0
M  V30 11547 H 1075.28 -2.38312 -0.97802 0
M  V30 11548 H 1075.24 -1.77358 -2.59599 0
M  V30 11549 N 1079.01 -0.398486 -1.52479 0
M  V30 11550 C 1079.92 0.439328 -2.3045 0
M  V30 11551 C 1080.94 1.06322 -1.37738 0
M  V30 11552 O 1082.12 1.06704 -1.7081 0
M  V30 11553 C 1079.18 1.54655 -3.10294 0
M  V30 11554 C 1078.24 0.946824 -4.18729 0
M  V30 11555 C 1077.47 2.00129 -4.94757 0
M  V30 11556 O 1077.7 3.2178 -4.70971 0
M  V30 11557 O 1076.63 1.61345 -5.79872 0
M  V30 11558 H 1080.46 -0.196118 -3.03066 0
M  V30 11559 H 1078.04 -0.161961 -1.4852 0
M  V30 11560 H 1079.92 2.18958 -3.60049 0
M  V30 11561 H 1078.6 2.1668 -2.40482 0
M  V30 11562 H 1077.51 0.266802 -3.73147 0
M  V30 11563 H 1078.84 0.370664 -4.90802 0
M  V30 11564 N 1080.49 1.57075 -0.12858 0
M  V30 11565 C 1081.72 1.99586 0.533769 0
M  V30 11566 C 1082.13 1.00737 1.60152 0
M  V30 11567 O 1081.47 -0.00647783 1.83699 0
M  V30 11568 C 1081.53 3.3852 1.21014 0
M  V30 11569 C 1081.2 4.56084 0.289191 0
M  V30 11570 C 1082.2 5.17717 -0.475963 0
M  V30 11571 C 1079.88 5.01912 0.197467 0
M  V30 11572 C 1081.87 6.23572 -1.32048 0
M  V30 11573 C 1079.56 6.07626 -0.65067 0
M  V30 11574 C 1080.56 6.68324 -1.40826 0
M  V30 11575 O 1080.25 7.71995 -2.2423 0
M  V30 11576 H 1079.98 0.660245 0.145096 0
M  V30 11577 H 1082.53 2.04276 -0.214615 0
M  V30 11578 H 1080.76 3.30613 2.00579 0
M  V30 11579 H 1082.45 3.65258 1.77036 0
M  V30 11580 H 1083.22 4.83221 -0.415027 0
M  V30 11581 H 1079.1 4.54407 0.776853 0
M  V30 11582 H 1082.64 6.70878 -1.91228 0
M  V30 11583 H 1078.54 6.41551 -0.712965 0
M  V30 11584 H 1079.31 7.89135 -2.17276 0
M  V30 11585 N 1081.97 -0.145205 1.5693 0
M  V30 11586 C 1083.22 -0.855955 1.82637 0
M  V30 11587 C 1083.53 -1.82255 0.710109 0
M  V30 11588 O 1084.74 -2.57758 0.852837 0
M  V30 11589 C 1083.19 -1.57278 3.23715 0
M  V30 11590 C 1082.8 -0.648507 4.43281 0
M  V30 11591 C 1084.55 -2.27021 3.58695 0
M  V30 11592 C 1082.45 -1.36706 5.75383 0
M  V30 11593 H 1081.38 -0.323385 0.68113 0
M  V30 11594 H 1084.03 -0.10869 1.83178 0
M  V30 11595 H 1082.42 -2.36574 3.17567 0
M  V30 11596 H 1083.59 0.109355 4.6067 0
M  V30 11597 H 1081.9 -0.0594029 4.16358 0
M  V30 11598 H 1084.5 -2.81423 4.54648 0
M  V30 11599 H 1084.84 -3.03598 2.8484 0
M  V30 11600 H 1085.38 -1.54642 3.66512 0
M  V30 11601 H 1082.12 -0.6431 6.52338 0
M  V30 11602 H 1081.64 -2.09759 5.61926 0
M  V30 11603 H 1083.32 -1.90748 6.18243 0
M  V30 11604 N 1083.45 -1.52049 -0.414609 0
M  V30 11605 C 1084.36 -1.7788 -1.52958 0
M  V30 11606 C 1085.37 -0.66408 -1.60829 0
M  V30 11607 O 1086.55 -0.948882 -1.77646 0
M  V30 11608 C 1083.61 -1.91906 -2.88744 0
M  V30 11609 C 1082.68 -3.15803 -2.90804 0
M  V30 11610 C 1081.91 -3.29151 -4.20114 0
M  V30 11611 O 1082.13 -2.47892 -5.13718 0
M  V30 11612 O 1081.07 -4.2227 -4.28919 0
M  V30 11613 H 1084.89 -2.72506 -1.34067 0
M  V30 11614 H 1082.48 -1.36826 -0.599918 0
M  V30 11615 H 1084.36 -2.02986 -3.6929 0
M  V30 11616 H 1083.03 -1.00468 -3.07714 0
M  V30 11617 H 1081.94 -3.10185 -2.09131 0
M  V30 11618 H 1083.27 -4.07004 -2.76783 0
M  V30 11619 N 1084.93 0.6715 -1.42579 0
M  V30 11620 C 1085.86 1.79703 -1.42266 0
M  V30 11621 C 1086.87 1.59599 -0.321268 0
M  V30 11622 O 1088.06 1.68657 -0.584564 0
M  V30 11623 C 1085.16 3.16859 -1.20224 0
M  V30 11624 C 1084.33 3.63783 -2.42859 0
M  V30 11625 C 1083.39 4.79683 -2.16312 0
M  V30 11626 O 1082.42 4.90058 -2.89537 0
M  V30 11627 N 1083.62 5.68622 -1.16831 0
M  V30 11628 H 1086.38 1.80455 -2.39282 0
M  V30 11629 H 1083.95 0.854708 -1.375 0
M  V30 11630 H 1085.94 3.92054 -1.00376 0
M  V30 11631 H 1084.51 3.10987 -0.317188 0
M  V30 11632 H 1083.73 2.7923 -2.78252 0
M  V30 11633 H 1085.02 3.91877 -3.24514 0
M  V30 11634 H 1084.41 5.62894 -0.562746 0
M  V30 11635 H 1082.97 6.43615 -1.0297 0
M  V30 11636 N 1086.4 1.28806 0.908124 0
M  V30 11637 C 1087.82 1.06634 1.18749 0
M  V30 11638 C 1088.02 -0.187729 2.00624 0
M  V30 11639 O 1087.08 -0.88784 2.36376 0
M  V30 11640 C 1088.39 2.31703 1.91661 0
M  V30 11641 C 1089.94 2.36939 2.04521 0
M  V30 11642 C 1090.41 3.61789 2.80843 0
M  V30 11643 N 1091.9 3.62462 2.88402 0
M  V30 11644 C 1092.64 4.55746 3.47971 0
M  V30 11645 N 1092.13 5.59353 4.08774 0
M  V30 11646 N 1093.93 4.43331 3.45564 0
M  V30 11647 H 1086.08 2.09299 0.36164 0
M  V30 11648 H 1088.34 0.921479 0.222668 0
M  V30 11649 H 1088.05 3.23096 1.38931 0
M  V30 11650 H 1087.92 2.38556 2.92183 0
M  V30 11651 H 1090.31 1.4604 2.5643 0
M  V30 11652 H 1090.39 2.34077 1.03159 0
M  V30 11653 H 1090.03 4.53035 2.29612 0
M  V30 11654 H 1089.96 3.61907 3.82532 0
M  V30 11655 H 1092.45 2.87544 2.45208 0
M  V30 11656 H 1092.77 6.26668 4.52224 0
M  V30 11657 H 1091.11 5.63173 4.07261 0
M  V30 11658 H 1094.3 3.61587 2.97276 0
M  V30 11659 H 1094.48 5.16216 3.91695 0
M  V30 11660 N 1087.88 -1.11734 1.11145 0
M  V30 11661 C 1088.83 -2.17683 0.766979 0
M  V30 11662 C 1089.8 -1.64051 -0.260108 0
M  V30 11663 O 1090.98 -1.90302 -0.137723 0
M  V30 11664 C 1088.12 -3.44442 0.212982 0
M  V30 11665 C 1087.24 -4.12094 1.29626 0
M  V30 11666 C 1086.37 -5.26526 0.703127 0
M  V30 11667 C 1085.41 -5.86057 1.76647 0
M  V30 11668 N 1084.55 -6.91889 1.19306 0
M  V30 11669 H 1089.39 -2.46495 1.67465 0
M  V30 11670 H 1086.92 -1.21011 0.836353 0
M  V30 11671 H 1088.88 -4.17009 -0.126162 0
M  V30 11672 H 1087.51 -3.16025 -0.657888 0
M  V30 11673 H 1086.56 -3.37631 1.75241 0
M  V30 11674 H 1087.88 -4.52398 2.10089 0
M  V30 11675 H 1087.03 -6.05888 0.313859 0
M  V30 11676 H 1085.77 -4.87519 -0.132856 0
M  V30 11677 H 1084.77 -5.05375 2.16508 0
M  V30 11678 H 1086 -6.27132 2.60543 0
M  V30 11679 H 1083.95 -6.54906 0.378664 0
M  V30 11680 H 1083.86 -7.30832 1.93443 0
M  V30 11681 H 1085.13 -7.75062 0.830578 0
M  V30 11682 N 1089.36 -0.901303 -1.29284 0
M  V30 11683 C 1090.77 -0.576317 -1.77582 0
M  V30 11684 C 1091.12 0.908078 -1.73921 0
M  V30 11685 O 1090.25 1.71006 -1.32611 0
M  V30 11686 C 1090.84 -1.03938 -3.22463 0
M  V30 11687 C 1089.4 -0.765533 -3.68533 0
M  V30 11688 C 1088.55 -1.21318 -2.49354 0
M  V30 11689 H 1091.5 -1.08386 -1.15923 0
M  V30 11690 H 1091.52 -0.375367 -3.78644 0
M  V30 11691 H 1091.03 -2.11977 -3.25096 0
M  V30 11692 H 1089.13 0.302176 -3.71373 0
M  V30 11693 H 1089.25 -1.36454 -4.59257 0
M  V30 11694 H 1087.61 -0.632141 -2.46731 0
M  V30 11695 H 1088.39 -2.30165 -2.54714 0
M  V30 11696 N 1090.84 1.42931 -0.663954 0
M  V30 11697 C 1092.08 2.03557 -0.185479 0
M  V30 11698 C 1092.44 1.51309 1.18193 0
M  V30 11699 O 1093.64 2.03649 1.75444 0
M  V30 11700 C 1091.91 3.56802 -0.206705 0
M  V30 11701 S 1093.47 4.38333 0.202356 0
M  V30 11702 H 1090.29 0.706791 -0.0772523 0
M  V30 11703 H 1092.89 1.74841 -0.874688 0
M  V30 11704 H 1091.6 3.92328 -1.20445 0
M  V30 11705 H 1091.13 3.90175 0.502693 0
M  V30 11706 H 1093.14 4.7489 1.43853 0
M  V30 11707 N 1092.32 0.406567 1.52266 0
M  V30 11708 C 1093.59 -0.228477 1.94261 0
M  V30 11709 C 1093.97 -1.62848 1.34328 0
M  V30 11710 O 1093.32 -2.22549 0.518082 0
M  V30 11711 C 1093.53 -0.237401 3.48192 0
M  V30 11712 C 1094.88 -0.457997 4.22123 0
M  V30 11713 O 1095.9 -0.316868 3.54788 0
M  V30 11714 O 1094.76 -0.735946 5.41522 0
M  V30 11715 H 1091.86 -0.146492 0.813922 0
M  V30 11716 H 1094.4 0.462325 1.63281 0
M  V30 11717 H 1093.17 0.742556 3.8419 0
M  V30 11718 H 1092.8 -0.972408 3.85526 0
M  V30 11719 N 1093.79 -1.57004 0.136909 0
M  V30 11720 C 1095.02 -2.00156 -0.523936 0
M  V30 11721 C 1095.44 -1.01688 -1.59075 0
M  V30 11722 O 1094.79 -0.0123678 -1.82496 0
M  V30 11723 C 1094.85 -3.4326 -1.13379 0
M  V30 11724 O 1094.57 -4.37963 -0.109598 0
M  V30 11725 C 1096.07 -4.01637 -1.87623 0
M  V30 11726 H 1093.29 -0.65681 -0.137263 0
M  V30 11727 H 1095.83 -2.03219 0.228522 0
M  V30 11728 H 1093.99 -3.4108 -1.83693 0
M  V30 11729 H 1094.4 -5.21555 -0.55503 0
M  V30 11730 H 1095.87 -5.03795 -2.25597 0
M  V30 11731 H 1096.35 -3.41781 -2.75831 0
M  V30 11732 H 1096.96 -4.07417 -1.22031 0
M  V30 11733 N 1095.27 0.136881 -1.57004 0
M  V30 11734 C 1096.21 1.19853 -1.94192 0
M  V30 11735 C 1097.18 1.4104 -0.809103 0
M  V30 11736 O 1098.37 1.55487 -1.06565 0
M  V30 11737 C 1095.49 2.55565 -2.22271 0
M  V30 11738 C 1094.54 2.50913 -3.44884 0
M  V30 11739 S 1095.37 1.96619 -4.98098 0
M  V30 11740 C 1096.53 3.34039 -5.2931 0
M  V30 11741 H 1096.76 0.881316 -2.83937 0
M  V30 11742 H 1094.3 0.342915 -1.50544 0
M  V30 11743 H 1096.25 3.33659 -2.39127 0
M  V30 11744 H 1094.91 2.84472 -1.33172 0
M  V30 11745 H 1094.11 3.50839 -3.6184 0
M  V30 11746 H 1093.71 1.80932 -3.27322 0
M  V30 11747 H 1096 4.30189 -5.23397 0
M  V30 11748 H 1096.94 3.21927 -6.30689 0
M  V30 11749 H 1097.35 3.31642 -4.56808 0
M  V30 11750 N 1096.75 1.52266 0.40654 0
M  V30 11751 C 1097.7 1.75794 1.4955 0
M  V30 11752 C 1098.67 0.600472 1.54866 0
M  V30 11753 O 1099.85 0.838305 1.71397 0
M  V30 11754 C 1096.99 1.91682 2.86971 0
M  V30 11755 C 1096.11 3.19337 2.90943 0
M  V30 11756 C 1095.24 3.25641 4.1968 0
M  V30 11757 C 1094.28 4.47488 4.17637 0
M  V30 11758 N 1093.42 4.51171 5.37949 0
M  V30 11759 H 1098.26 2.68733 1.28789 0
M  V30 11760 H 1095.79 1.33157 0.625102 0
M  V30 11761 H 1097.75 1.98877 3.66748 0
M  V30 11762 H 1096.38 1.02121 3.06221 0
M  V30 11763 H 1095.43 3.21301 2.03642 0
M  V30 11764 H 1096.75 4.09153 2.85299 0
M  V30 11765 H 1095.9 3.31922 5.07851 0
M  V30 11766 H 1094.64 2.33769 4.28023 0
M  V30 11767 H 1093.64 4.41351 3.27856 0
M  V30 11768 H 1094.87 5.40659 4.10932 0
M  V30 11769 H 1092.81 3.62182 5.46955 0
M  V30 11770 H 1092.73 5.34835 5.3431 0
M  V30 11771 H 1094 4.61685 6.28066 0
M  V30 11772 N 1098.23 -0.663929 1.42933 0
M  V30 11773 C 1099.47 -1.42603 1.44195 0
M  V30 11774 C 1099.81 -1.94101 0.0620284 0
M  V30 11775 O 1099.08 -1.71609 -0.91546 0
M  V30 11776 C 1099.37 -2.61522 2.47544 0
M  V30 11777 C 1099.22 -2.15587 3.94769 0
M  V30 11778 C 1100.54 -3.6374 2.47753 0
M  V30 11779 H 1097.66 -0.517189 0.525056 0
M  V30 11780 H 1100.3 -0.75361 1.74415 0
M  V30 11781 H 1098.45 -3.1889 2.21904 0
M  V30 11782 H 1100.12 -1.63303 4.31428 0
M  V30 11783 H 1098.36 -1.47057 4.08114 0
M  V30 11784 H 1099.03 -3.01053 4.62678 0
M  V30 11785 H 1101.51 -3.16111 2.70579 0
M  V30 11786 H 1100.39 -4.44512 3.22025 0
M  V30 11787 H 1100.65 -4.15607 1.50742 0
M  V30 11788 N 1099.71 -1.29285 -0.901281 0
M  V30 11789 C 1100.95 -1.16934 -1.64836 0
M  V30 11790 C 1101.28 0.279826 -1.92982 0
M  V30 11791 O 1100.55 1.19179 -1.55478 0
M  V30 11792 H 1099.13 -0.429768 -0.61099 0
M  V30 11793 H 1101.79 -1.62189 -1.08077 0
M  V30 11794 H 1100.88 -1.71821 -2.60545 0
M  V30 11795 N 1101.18 1.11143 -1.11736 0
M  V30 11796 C 1102.43 1.82586 -0.866412 0
M  V30 11797 C 1102.75 1.85227 0.609593 0
M  V30 11798 O 1102.02 1.32505 1.44288 0
M  V30 11799 H 1100.6 0.676149 -0.31754 0
M  V30 11800 H 1103.27 1.34516 -1.41037 0
M  V30 11801 H 1102.36 2.8635 -1.24136 0
M  V30 11802 N 1102.66 0.908147 1.28804 0
M  V30 11803 C 1103.61 0.382315 2.29437 0
M  V30 11804 C 1104.6 -0.523033 1.61123 0
M  V30 11805 O 1105.81 -0.404898 1.75387 0
M  V30 11806 H 1102.19 0.105022 0.74463 0
M  V30 11807 H 1104.16 1.24425 2.71221 0
M  V30 11808 C 1102.91 -0.367475 3.45753 0
M  V30 11809 H 1102.23 0.319957 3.98518 0
M  V30 11810 H 1103.67 -0.700131 4.1818 0
M  V30 11811 C 1102.13 -1.57329 2.97908 0
M  V30 11812 O 1102.66 -2.67248 2.99902 0
M  V30 11813 N 1100.86 -1.41835 2.53636 0
M  V30 11814 H 1100.41 -0.524099 2.52212 0
M  V30 11815 H 1100.37 -2.22645 2.21984 0
M  V30 11816 N 1104.14 -1.42577 0.671525 0
M  V30 11817 C 1105.07 -2.33499 0.00506984 0
M  V30 11818 C 1106.05 -1.50497 -0.792763 0
M  V30 11819 O 1107.24 -1.79109 -0.750574 0
M  V30 11820 C 1104.37 -3.34077 -0.949194 0
M  V30 11821 C 1103.32 -4.27208 -0.260187 0
M  V30 11822 C 1102.65 -5.17968 -1.32716 0
M  V30 11823 C 1103.95 -5.15192 0.858772 0
M  V30 11824 H 1105.64 -2.89477 0.764407 0
M  V30 11825 H 1103.19 -1.39191 0.369043 0
M  V30 11826 H 1105.14 -3.96594 -1.42448 0
M  V30 11827 H 1103.86 -2.76396 -1.73991 0
M  V30 11828 H 1102.52 -3.66082 0.194834 0
M  V30 11829 H 1102.17 -4.56615 -2.10979 0
M  V30 11830 H 1101.87 -5.81104 -0.871293 0
M  V30 11831 H 1103.39 -5.83359 -1.80345 0
M  V30 11832 H 1104.81 -5.71412 0.464844 0
M  V30 11833 H 1103.21 -5.87144 1.24023 0
M  V30 11834 H 1104.28 -4.53787 1.70895 0
M  V30 11835 N 1105.62 -0.414636 -1.52048 0
M  V30 11836 C 1106.9 0.218172 -1.94379 0
M  V30 11837 C 1107.28 1.62133 -1.35189 0
M  V30 11838 O 1106.62 2.22271 -0.529877 0
M  V30 11839 C 1106.83 0.218932 -3.48313 0
M  V30 11840 C 1108.18 0.435604 -4.2236 0
M  V30 11841 O 1109.21 0.298049 -3.54951 0
M  V30 11842 O 1108.06 0.707217 -5.41905 0
M  V30 11843 H 1105.16 0.142173 -0.814688 0
M  V30 11844 H 1107.7 -0.470977 -1.63033 0
M  V30 11845 H 1106.48 -0.76292 -3.83791 0
M  V30 11846 H 1106.1 0.951949 -3.86036 0
M  V30 11847 N 1107.1 1.56929 -0.145233 0
M  V30 11848 C 1108.32 2.00864 0.516564 0
M  V30 11849 C 1108.75 1.02466 1.57741 0
M  V30 11850 O 1108.1 0.000145439 1.813 0
M  V30 11851 C 1108.15 3.43552 1.09563 0
M  V30 11852 O 1107.26 3.4815 2.21055 0
M  V30 11853 H 1106.6 0.651835 0.126521 0
M  V30 11854 H 1109.13 2.0317 -0.241445 0
M  V30 11855 H 1109.14 3.82316 1.42473 0
M  V30 11856 H 1107.81 4.14677 0.318749 0
M  V30 11857 H 1106.39 3.21228 1.89387 0
M  V30 11858 N 1108.58 -0.128553 1.57075 0
M  V30 11859 C 1109.52 -1.15812 1.9964 0
M  V30 11860 C 1110.49 -1.41679 0.86696 0
M  V30 11861 O 1111.68 -1.53705 1.13046 0
M  V30 11862 C 1108.82 -2.48198 2.39774 0
M  V30 11863 C 1107.93 -2.29348 3.66092 0
M  V30 11864 C 1107.07 -3.54898 3.95248 0
M  V30 11865 C 1106.1 -3.31164 5.14779 0
M  V30 11866 N 1105.24 -4.48891 5.39853 0
M  V30 11867 H 1110.08 -0.788136 2.87389 0
M  V30 11868 H 1107.62 -0.377682 1.42169 0
M  V30 11869 H 1109.58 -3.25414 2.61077 0
M  V30 11870 H 1108.21 -2.83108 1.5508 0
M  V30 11871 H 1107.26 -1.43095 3.5246 0
M  V30 11872 H 1108.57 -2.07781 4.53463 0
M  V30 11873 H 1107.72 -4.40536 4.17148 0
M  V30 11874 H 1106.46 -3.79487 3.06335 0
M  V30 11875 H 1105.47 -2.43915 4.92733 0
M  V30 11876 H 1106.69 -3.07954 6.05261 0
M  V30 11877 H 1104.64 -4.73619 4.53895 0
M  V30 11878 H 1104.56 -4.30394 6.21528 0
M  V30 11879 H 1105.82 -5.35691 5.66265 0
M  V30 11880 N 1110.05 -1.5248 -0.398459 0
M  V30 11881 C 1111.3 -1.66731 -1.14215 0
M  V30 11882 C 1111.62 -0.404957 -1.90749 0
M  V30 11883 O 1110.89 0.580434 -1.87104 0
M  V30 11884 H 1109.47 -0.614577 -0.424622 0
M  V30 11885 H 1112.13 -1.89561 -0.453059 0
M  V30 11886 H 1111.23 -2.51336 -1.85031 0
M  V30 11887 N 1111.53 0.65634 -1.43283 0
M  V30 11888 C 1112.76 1.44199 -1.47954 0
M  V30 11889 C 1113.17 1.88961 -0.0950315 0
M  V30 11890 O 1112.51 1.59895 0.904388 0
M  V30 11891 C 1112.57 2.71161 -2.36033 0
M  V30 11892 C 1112.24 2.48359 -3.83623 0
M  V30 11893 C 1113.24 2.1178 -4.74811 0
M  V30 11894 C 1110.92 2.6278 -4.28079 0
M  V30 11895 C 1112.91 1.89915 -6.0845 0
M  V30 11896 C 1110.6 2.4053 -5.61772 0
M  V30 11897 C 1111.6 2.04154 -6.51775 0
M  V30 11898 O 1111.29 1.82134 -7.82996 0
M  V30 11899 H 1111.02 0.449567 -0.504842 0
M  V30 11900 H 1113.57 0.812234 -1.88658 0
M  V30 11901 H 1111.8 3.36685 -1.9021 0
M  V30 11902 H 1113.49 3.33102 -2.31944 0
M  V30 11903 H 1114.26 2.00217 -4.41744 0
M  V30 11904 H 1110.14 2.9007 -3.58302 0
M  V30 11905 H 1113.68 1.61445 -6.78661 0
M  V30 11906 H 1109.58 2.51695 -5.94407 0
M  V30 11907 H 1110.35 1.96584 -7.94542 0
M  V30 11908 N 1113.01 1.29761 0.894412 0
M  V30 11909 C 1114.26 1.17806 1.64214 0
M  V30 11910 C 1114.58 -0.269588 1.93127 0
M  V30 11911 O 1113.85 -1.18352 1.56107 0
M  V30 11912 H 1112.43 0.433002 0.608702 0
M  V30 11913 H 1115.09 1.6276 1.07216 0
M  V30 11914 H 1114.19 1.73201 2.5963 0
M  V30 11915 N 1114.49 -1.10549 1.12324 0
M  V30 11916 C 1115.74 -1.81851 0.872531 0
M  V30 11917 C 1116.05 -1.86058 -0.603468 0
M  V30 11918 O 1117.26 -2.53553 -0.970736 0
M  V30 11919 C 1115.71 -3.26631 1.51131 0
M  V30 11920 C 1115.32 -3.30725 3.02201 0
M  V30 11921 C 1117.06 -4.02768 1.34082 0
M  V30 11922 C 1114.97 -4.69957 3.59018 0
M  V30 11923 H 1113.9 -0.681422 0.322769 0
M  V30 11924 H 1116.55 -1.24332 1.34959 0
M  V30 11925 H 1114.93 -3.8414 0.961913 0
M  V30 11926 H 1116.11 -2.83046 3.63623 0
M  V30 11927 H 1114.42 -2.68072 3.18632 0
M  V30 11928 H 1117.02 -5.05612 1.73955 0
M  V30 11929 H 1117.36 -4.15328 0.284369 0
M  V30 11930 H 1117.9 -3.51671 1.85937 0
M  V30 11931 H 1114.63 -4.62597 4.64418 0
M  V30 11932 H 1114.15 -5.18008 3.02371 0
M  V30 11933 H 1115.83 -5.38925 3.58007 0
M  V30 11934 N 1115.97 -0.914965 -1.28321 0
M  V30 11935 C 1116.93 -0.409024 -2.25521 0
M  V30 11936 C 1117.93 0.465327 -1.5392 0
M  V30 11937 O 1119.12 0.26821 -1.72123 0
M  V30 11938 C 1116.25 0.413452 -3.38383 0
M  V30 11939 H 1117.44 -1.26767 -2.71791 0
M  V30 11940 H 1115 -0.694477 -1.40024 0
M  V30 11941 H 1115.73 1.29145 -2.97476 0
M  V30 11942 H 1115.52 -0.213268 -3.9152 0
M  V30 11943 H 1117.01 0.758232 -4.10659 0
M  V30 11944 N 1117.44 1.42219 -0.679077 0
M  V30 11945 C 1118.67 2.05815 -0.211649 0
M  V30 11946 C 1119.09 1.51037 1.13284 0
M  V30 11947 O 1118.44 0.651894 1.7046 0
M  V30 11948 C 1118.49 3.61218 -0.142663 0
M  V30 11949 O 1118.22 4.13965 -1.43402 0
M  V30 11950 C 1119.72 4.41934 0.347746 0
M  V30 11951 H 1116.94 0.663215 -0.101914 0
M  V30 11952 H 1119.48 1.82282 -0.927017 0
M  V30 11953 H 1117.64 3.83848 0.52342 0
M  V30 11954 H 1118.05 5.07872 -1.31021 0
M  V30 11955 H 1119.52 5.50921 0.344916 0
M  V30 11956 H 1120 4.16832 1.38377 0
M  V30 11957 H 1120.61 4.24332 -0.286751 0
M  V30 11958 N 1118.92 0.422693 1.51826 0
M  V30 11959 C 1120.33 -0.0438129 1.86649 0
M  V30 11960 C 1120.68 -1.43246 1.34071 0
M  V30 11961 O 1119.81 -2.05256 0.685501 0
M  V30 11962 C 1120.4 -0.0862802 3.3869 0
M  V30 11963 C 1118.96 -0.497157 3.73102 0
M  V30 11964 C 1118.11 0.319655 2.75451 0
M  V30 11965 H 1121.06 0.639181 1.45259 0
M  V30 11966 H 1121.08 -0.8988 3.69732 0
M  V30 11967 H 1120.59 0.924525 3.76927 0
M  V30 11968 H 1118.69 -1.51411 3.40449 0
M  V30 11969 H 1118.81 -0.232125 4.78537 0
M  V30 11970 H 1117.17 -0.219963 2.53748 0
M  V30 11971 H 1117.95 1.32906 3.16529 0
M  V30 11972 N 1120.4 -1.5685 0.153553 0
M  V30 11973 C 1121.35 -2.1709 -0.783626 0
M  V30 11974 C 1122.32 -1.10567 -1.23952 0
M  V30 11975 O 1123.5 -1.38638 -1.31088 0
M  V30 11976 C 1120.64 -2.80183 -2.01473 0
M  V30 11977 C 1119.75 -4.01117 -1.60403 0
M  V30 11978 C 1118.89 -4.5219 -2.78743 0
M  V30 11979 C 1117.93 -5.65574 -2.34079 0
M  V30 11980 N 1117.07 -6.11235 -3.4545 0
M  V30 11981 H 1121.91 -2.96836 -0.263127 0
M  V30 11982 H 1119.44 -1.46625 -0.11816 0
M  V30 11983 H 1121.4 -3.14912 -2.73654 0
M  V30 11984 H 1120.03 -2.03071 -2.50923 0
M  V30 11985 H 1119.08 -3.72325 -0.779631 0
M  V30 11986 H 1120.39 -4.83243 -1.23605 0
M  V30 11987 H 1119.55 -4.89008 -3.59105 0
M  V30 11988 H 1118.29 -3.69085 -3.18791 0
M  V30 11989 H 1117.29 -5.28326 -1.52158 0
M  V30 11990 H 1118.52 -6.50468 -1.95109 0
M  V30 11991 H 1116.46 -5.31064 -3.85106 0
M  V30 11992 H 1116.38 -6.88304 -3.12687 0
M  V30 11993 H 1117.65 -6.527 -4.26149 0
M  V30 11994 N 1121.88 0.120221 -1.57141 0
M  V30 11995 C 1123.13 0.826586 -1.84423 0
M  V30 11996 C 1123.45 1.80473 -0.738553 0
M  V30 11997 O 1122.72 1.94454 0.23755 0
M  V30 11998 H 1121.3 0.308246 -0.680436 0
M  V30 11999 H 1123.96 0.107835 -1.94601 0
M  V30 12000 H 1123.05 1.37256 -2.80298 0
M  V30 12001 N 1123.36 1.52689 0.390367 0
M  V30 12002 C 1124.58 1.71839 1.16129 0
M  V30 12003 C 1125.01 0.435226 1.82996 0
M  V30 12004 O 1124.36 -0.60889 1.70769 0
M  V30 12005 C 1124.41 2.86784 2.18603 0
M  V30 12006 O 1123.52 2.53662 3.25161 0
M  V30 12007 H 1122.86 0.571455 0.338135 0
M  V30 12008 H 1125.39 1.99475 0.45508 0
M  V30 12009 H 1125.4 3.12239 2.62622 0
M  V30 12010 H 1124.07 3.79872 1.69322 0
M  V30 12011 H 1122.65 2.38942 2.86289 0
M  V30 12012 N 1124.83 -0.648732 1.43629 0
M  V30 12013 C 1126.06 -1.44117 1.49148 0
M  V30 12014 C 1126.48 -1.87767 0.111952 0
M  V30 12015 O 1125.84 -1.57655 -0.895249 0
M  V30 12016 C 1125.89 -2.64938 2.44623 0
M  V30 12017 O 1124.99 -3.64155 1.93559 0
M  V30 12018 H 1124.34 -0.431933 0.504312 0
M  V30 12019 H 1126.87 -0.793439 1.88589 0
M  V30 12020 H 1126.88 -3.12698 2.62076 0
M  V30 12021 H 1125.55 -2.3251 3.44836 0
M  V30 12022 H 1124.13 -3.23322 1.85789 0
M  V30 12023 N 1126.31 -1.30234 -0.887518 0
M  V30 12024 C 1127.24 -1.18969 -2.00919 0
M  V30 12025 C 1128.22 -0.080952 -1.69907 0
M  V30 12026 O 1129.41 -0.262546 -1.92417 0
M  V30 12027 C 1126.54 -0.878094 -3.36016 0
M  V30 12028 C 1125.49 -1.94449 -3.81279 0
M  V30 12029 C 1124.82 -1.48594 -5.13638 0
M  V30 12030 C 1126.12 -3.35519 -4.00281 0
M  V30 12031 H 1127.81 -2.12808 -2.10602 0
M  V30 12032 H 1125.36 -1.02454 -1.01189 0
M  V30 12033 H 1127.31 -0.785954 -4.14006 0
M  V30 12034 H 1126.04 0.0959779 -3.26459 0
M  V30 12035 H 1124.69 -2.02622 -3.05516 0
M  V30 12036 H 1124.34 -0.500204 -5.00507 0
M  V30 12037 H 1124.04 -2.19921 -5.44893 0
M  V30 12038 H 1125.57 -1.40754 -5.94156 0
M  V30 12039 H 1126.98 -3.30119 -4.68716 0
M  V30 12040 H 1125.38 -4.0491 -4.42909 0
M  V30 12041 H 1126.45 -3.77597 -3.04218 0
M  V30 12042 N 1127.79 1.09952 -1.12909 0
M  V30 12043 C 1129.21 1.34051 -0.866172 0
M  V30 12044 C 1129.41 1.95169 0.501125 0
M  V30 12045 O 1128.46 2.19458 1.24878 0
M  V30 12046 C 1129.78 2.25738 -1.98653 0
M  V30 12047 C 1131.32 2.39261 -2.01799 0
M  V30 12048 C 1131.8 3.3428 -3.13083 0
M  V30 12049 N 1133.29 3.41851 -3.12558 0
M  V30 12050 C 1134.02 4.15358 -3.95304 0
M  V30 12051 N 1133.52 4.91709 -4.88051 0
M  V30 12052 N 1135.31 4.11027 -3.83423 0
M  V30 12053 H 1127.46 0.686521 -2.00999 0
M  V30 12054 H 1129.73 0.364913 -0.874953 0
M  V30 12055 H 1129.43 1.88048 -2.97205 0
M  V30 12056 H 1129.31 3.26085 -1.89601 0
M  V30 12057 H 1131.69 2.76218 -1.03864 0
M  V30 12058 H 1131.78 1.38712 -2.14925 0
M  V30 12059 H 1131.42 2.98048 -4.11254 0
M  V30 12060 H 1131.35 4.34721 -2.97195 0
M  V30 12061 H 1133.84 2.87405 -2.45371 0
M  V30 12062 H 1134.15 5.45212 -5.47689 0
M  V30 12063 H 1132.5 4.90816 -4.92061 0
M  V30 12064 H 1135.69 3.50477 -3.10296 0
M  V30 12065 H 1135.86 4.68054 -4.4814 0
M  V30 12066 N 1129.27 0.921757 1.27833 0
M  V30 12067 C 1130.22 0.406628 2.29018 0
M  V30 12068 C 1131.21 -0.505914 1.61669 0
M  V30 12069 O 1132.42 -0.386273 1.75807 0
M  V30 12070 H 1128.79 0.112914 0.743475 0
M  V30 12071 H 1130.76 1.27295 2.69886 0
M  V30 12072 C 1129.51 -0.330783 3.46123 0
M  V30 12073 H 1128.83 0.362207 3.98156 0
M  V30 12074 H 1130.27 -0.655738 4.18899 0
M  V30 12075 C 1128.73 -1.54161 2.9956 0
M  V30 12076 O 1129.26 -2.64052 3.0272 0
M  V30 12077 N 1127.47 -1.39137 2.55126 0
M  V30 12078 H 1127.02 -0.497319 2.52754 0
M  V30 12079 H 1126.97 -2.20278 2.24333 0
M  V30 12080 N 1130.75 -1.41857 0.686609 0
M  V30 12081 C 1131.71 -2.29187 0.0247022 0
M  V30 12082 C 1132.71 -1.43926 -0.717069 0
M  V30 12083 O 1133.9 -1.65179 -0.5533 0
M  V30 12084 C 1131.03 -3.26644 -0.975537 0
M  V30 12085 H 1132.22 -2.89212 0.793503 0
M  V30 12086 H 1129.78 -1.49694 0.449605 0
M  V30 12087 H 1130.51 -2.7158 -1.77242 0
M  V30 12088 H 1130.3 -3.89545 -0.446892 0
M  V30 12089 H 1131.79 -3.92107 -1.43673 0
M  V30 12090 N 1132.22 -0.430739 -1.51599 0
M  V30 12091 C 1133.47 0.138133 -2.02329 0
M  V30 12092 C 1133.8 1.42934 -1.31466 0
M  V30 12093 O 1133.08 1.89743 -0.427551 0
M  V30 12094 C 1133.36 0.363677 -3.58259 0
M  V30 12095 C 1133.21 -0.94572 -4.39746 0
M  V30 12096 C 1134.53 1.13637 -4.25176 0
M  V30 12097 H 1131.65 0.0487287 -0.735387 0
M  V30 12098 H 1134.29 -0.568444 -1.81297 0
M  V30 12099 H 1132.44 0.965552 -3.7631 0
M  V30 12100 H 1134.12 -1.58107 -4.33359 0
M  V30 12101 H 1132.36 -1.55183 -4.05094 0
M  V30 12102 H 1133.03 -0.742031 -5.4699 0
M  V30 12103 H 1135.51 0.626608 -4.11355 0
M  V30 12104 H 1134.38 1.26294 -5.34173 0
M  V30 12105 H 1134.64 2.16273 -3.85588 0
M  V30 12106 N 1133.7 1.56767 -0.161869 0
M  V30 12107 C 1134.65 2.18807 0.789074 0
M  V30 12108 C 1135.64 1.14934 1.24445 0
M  V30 12109 O 1136.85 1.33154 1.2112 0
M  V30 12110 H 1133.23 0.700808 0.272713 0
M  V30 12111 H 1135.2 2.97419 0.241766 0
M  V30 12112 C 1133.95 2.83568 2.01207 0
M  V30 12113 H 1133.27 3.63219 1.67068 0
M  V30 12114 H 1134.71 3.3046 2.65654 0
M  V30 12115 C 1133.17 1.82846 2.82964 0
M  V30 12116 O 1133.7 1.30809 3.79805 0
M  V30 12117 N 1131.9 1.51815 2.47791 0
M  V30 12118 H 1131.45 1.94325 1.69103 0
M  V30 12119 H 1131.41 0.846742 3.02783 0
M  V30 12120 N 1135.18 -0.111886 1.57202 0
M  V30 12121 C 1136.11 -1.13796 2.03894 0
M  V30 12122 C 1137.09 -1.4277 0.924696 0
M  V30 12123 O 1138.28 -1.53089 1.19488 0
M  V30 12124 C 1135.41 -2.46229 2.44925 0
M  V30 12125 C 1134.36 -2.31702 3.59859 0
M  V30 12126 C 1133.69 -3.69161 3.86813 0
M  V30 12127 C 1134.99 -1.77158 4.91337 0
M  V30 12128 H 1136.68 -0.749581 2.89865 0
M  V30 12129 H 1134.23 -0.359126 1.3945 0
M  V30 12130 H 1136.18 -3.18267 2.76195 0
M  V30 12131 H 1134.9 -2.86971 1.55933 0
M  V30 12132 H 1133.56 -1.62112 3.28809 0
M  V30 12133 H 1133.21 -4.07401 2.95015 0
M  V30 12134 H 1132.91 -3.60292 4.6418 0
M  V30 12135 H 1134.43 -4.42693 4.20542 0
M  V30 12136 H 1135.85 -2.3902 5.21097 0
M  V30 12137 H 1134.25 -1.79091 5.72753 0
M  V30 12138 H 1135.32 -0.729675 4.79379 0
M  V30 12139 N 1136.66 -1.52894 -0.382264 0
M  V30 12140 C 1137.62 -1.77497 -1.45008 0
M  V30 12141 C 1138.62 -0.64509 -1.47293 0
M  V30 12142 O 1139.81 -0.913192 -1.48346 0
M  V30 12143 C 1136.94 -1.88188 -2.8425 0
M  V30 12144 H 1138.14 -2.72849 -1.24473 0
M  V30 12145 H 1135.69 -1.43717 -0.61441 0
M  V30 12146 H 1136.42 -0.948451 -3.10121 0
M  V30 12147 H 1136.21 -2.70353 -2.83992 0
M  V30 12148 H 1137.7 -2.08873 -3.6161 0
M  V30 12149 N 1138.14 0.641106 -1.43971 0
M  V30 12150 C 1139.38 1.40291 -1.46445 0
M  V30 12151 C 1139.72 1.93978 -0.0929004 0
M  V30 12152 O 1138.99 1.73043 0.888043 0
M  V30 12153 C 1139.27 2.57551 -2.51673 0
M  V30 12154 C 1139.13 2.09279 -3.98149 0
M  V30 12155 C 1140.45 3.59752 -2.53508 0
M  V30 12156 H 1137.57 0.508771 -0.533218 0
M  V30 12157 H 1140.21 0.725767 -1.75592 0
M  V30 12158 H 1138.36 3.15319 -2.2695 0
M  V30 12159 H 1140.03 1.56418 -4.33971 0
M  V30 12160 H 1138.27 1.40545 -4.10402 0
M  V30 12161 H 1138.94 2.93655 -4.67409 0
M  V30 12162 H 1141.42 3.11766 -2.75574 0
M  V30 12163 H 1140.3 4.39332 -3.29057 0
M  V30 12164 H 1140.56 4.13156 -1.57335 0
M  V30 12165 N 1139.62 1.30703 0.880598 0
M  V30 12166 C 1140.55 1.20033 2.00286 0
M  V30 12167 C 1141.53 0.0899614 1.69862 0
M  V30 12168 O 1142.71 0.272747 1.92275 0
M  V30 12169 C 1139.84 0.895902 3.35546 0
M  V30 12170 C 1138.8 1.96468 3.80242 0
M  V30 12171 C 1138.12 1.51316 5.12843 0
M  V30 12172 C 1139.42 3.37637 3.98496 0
M  V30 12173 H 1141.12 2.13922 2.0947 0
M  V30 12174 H 1138.66 1.02989 1.00644 0
M  V30 12175 H 1140.61 0.807899 4.13583 0
M  V30 12176 H 1139.34 -0.0786636 3.26505 0
M  V30 12177 H 1138 2.0424 3.04437 0
M  V30 12178 H 1137.65 0.52674 5.00234 0
M  V30 12179 H 1137.35 2.22807 5.43719 0
M  V30 12180 H 1138.87 1.43903 5.93401 0
M  V30 12181 H 1140.28 3.326 4.66959 0
M  V30 12182 H 1138.68 4.07253 4.40755 0
M  V30 12183 H 1139.75 3.79205 3.02211 0
M  V30 12184 N 1141.09 -1.09351 1.1349 0
M  V30 12185 C 1142.04 -2.16008 0.812981 0
M  V30 12186 C 1143.01 -1.64566 -0.225252 0
M  V30 12187 O 1144.2 -1.90552 -0.0973261 0
M  V30 12188 C 1141.34 -3.43913 0.285996 0
M  V30 12189 C 1140.45 -4.09251 1.38338 0
M  V30 12190 C 1139.58 -5.24916 0.814652 0
M  V30 12191 C 1138.62 -5.82178 1.89038 0
M  V30 12192 N 1137.76 -6.89203 1.33955 0
M  V30 12193 H 1142.6 -2.42887 1.72655 0
M  V30 12194 H 1140.14 -1.19209 0.861833 0
M  V30 12195 H 1142.09 -4.17183 -0.0376794 0
M  V30 12196 H 1140.72 -3.17349 -0.590707 0
M  V30 12197 H 1139.78 -3.33838 1.82363 0
M  V30 12198 H 1141.09 -4.4784 2.19638 0
M  V30 12199 H 1140.24 -6.05086 0.442306 0
M  V30 12200 H 1138.98 -4.87691 -0.029416 0
M  V30 12201 H 1137.99 -5.00669 2.27179 0
M  V30 12202 H 1139.21 -6.21464 2.73787 0
M  V30 12203 H 1137.16 -6.53956 0.517494 0
M  V30 12204 H 1137.07 -7.26565 2.08902 0
M  V30 12205 H 1138.34 -7.73126 0.994793 0
M  V30 12206 N 1142.57 -0.928524 -1.27343 0
M  V30 12207 C 1143.5 -0.445627 -2.29208 0
M  V30 12208 C 1144.48 0.494508 -1.62753 0
M  V30 12209 O 1145.67 0.399082 -1.90055 0
M  V30 12210 C 1142.8 0.301684 -3.45987 0
M  V30 12211 C 1141.75 -0.550695 -4.24442 0
M  V30 12212 C 1141.08 0.325833 -5.33706 0
M  V30 12213 C 1142.38 -1.81559 -4.89728 0
M  V30 12214 H 1144.07 -1.29696 -2.69851 0
M  V30 12215 H 1141.62 -0.625085 -1.29725 0
M  V30 12216 H 1143.57 0.650455 -4.1635 0
M  V30 12217 H 1142.29 1.18705 -3.04264 0
M  V30 12218 H 1140.95 -0.882185 -3.55827 0
M  V30 12219 H 1140.6 1.21018 -4.88225 0
M  V30 12220 H 1140.3 -0.240994 -5.87106 0
M  V30 12221 H 1141.83 0.670156 -6.06911 0
M  V30 12222 H 1143.24 -1.53483 -5.52373 0
M  V30 12223 H 1141.64 -2.32598 -5.53189 0
M  V30 12224 H 1142.71 -2.53461 -4.13383 0
M  V30 12225 N 1144.05 1.41491 -0.694123 0
M  V30 12226 C 1145 2.32594 -0.0164704 0
M  V30 12227 C 1145.99 1.50884 0.770086 0
M  V30 12228 O 1147.2 1.66829 0.675871 0
M  V30 12229 H 1143.57 0.751879 0.0134743 0
M  V30 12230 H 1145.54 2.87423 -0.80191 0
M  V30 12231 C 1144.29 3.35661 0.90703 0
M  V30 12232 H 1143.62 3.98587 0.311205 0
M  V30 12233 H 1145.06 4.0195 1.34952 0
M  V30 12234 C 1143.51 2.69436 2.02253 0
M  V30 12235 O 1144.04 2.54107 3.11115 0
M  V30 12236 N 1142.25 2.28154 1.79984 0
M  V30 12237 H 1141.8 2.40821 0.914492 0
M  V30 12238 H 1141.76 1.84178 2.54805 0
M  V30 12239 N 1145.53 0.438773 1.51369 0
M  V30 12240 C 1146.44 -0.378074 2.31534 0
M  V30 12241 C 1147.45 -1.02632 1.40508 0
M  V30 12242 O 1148.63 -1.02138 1.73579 0
M  V30 12243 C 1145.69 -1.46374 3.14286 0
M  V30 12244 C 1144.76 -0.835473 4.21092 0
M  V30 12245 C 1143.99 -1.86941 4.99889 0
M  V30 12246 O 1144.21 -3.0918 4.79337 0
M  V30 12247 O 1143.15 -1.45914 5.83946 0
M  V30 12248 H 1146.97 0.276401 3.0244 0
M  V30 12249 H 1144.56 0.201281 1.48038 0
M  V30 12250 H 1146.44 -2.09335 3.65728 0
M  V30 12251 H 1145.11 -2.10227 2.46143 0
M  V30 12252 H 1144.02 -0.167775 3.73724 0
M  V30 12253 H 1145.35 -0.240406 4.91613 0
M  V30 12254 N 1147.01 -1.56678 0.170181 0
M  V30 12255 C 1147.94 -2.15083 -0.791961 0
M  V30 12256 C 1148.95 -1.10612 -1.19452 0
M  V30 12257 O 1150.14 -1.37803 -1.13457 0
M  V30 12258 C 1147.24 -2.67769 -2.07733 0
M  V30 12259 C 1146.41 -3.96885 -1.83851 0
M  V30 12260 C 1145.47 -4.34646 -2.96596 0
M  V30 12261 O 1144.5 -5.02543 -2.67281 0
M  V30 12262 N 1145.7 -3.96112 -4.24353 0
M  V30 12263 H 1148.46 -2.98268 -0.292658 0
M  V30 12264 H 1146.03 -1.61895 -0.0126383 0
M  V30 12265 H 1148.02 -2.90029 -2.8225 0
M  V30 12266 H 1146.59 -1.89179 -2.48858 0
M  V30 12267 H 1145.81 -3.83013 -0.932452 0
M  V30 12268 H 1147.1 -4.81213 -1.65261 0
M  V30 12269 H 1146.49 -3.41448 -4.51032 0
M  V30 12270 H 1145.05 -4.23375 -4.95577 0
M  V30 12271 N 1148.48 0.103547 -1.57259 0
M  V30 12272 C 1149.73 0.806979 -1.8529 0
M  V30 12273 C 1150.05 1.79679 -0.757653 0
M  V30 12274 O 1149.32 1.94695 0.216913 0
M  V30 12275 H 1147.9 0.301012 -0.683667 0
M  V30 12276 H 1150.56 0.0871886 -1.94705 0
M  V30 12277 H 1149.66 1.34275 -2.81738 0
M  V30 12278 N 1149.96 1.53094 0.37415 0
M  V30 12279 C 1150.89 1.81901 1.46404 0
M  V30 12280 C 1151.87 0.671949 1.56265 0
M  V30 12281 O 1153.06 0.920978 1.70973 0
M  V30 12282 C 1150.19 2.00123 2.83845 0
M  V30 12283 C 1149.14 3.15864 2.88814 0
M  V30 12284 C 1148.47 3.19364 4.28848 0
M  V30 12285 C 1149.77 4.54633 2.57112 0
M  V30 12286 H 1151.46 2.73172 1.22546 0
M  V30 12287 H 1149.01 1.31444 0.588087 0
M  V30 12288 H 1150.96 2.18859 3.6011 0
M  V30 12289 H 1149.68 1.05555 3.09072 0
M  V30 12290 H 1148.34 2.96935 2.15 0
M  V30 12291 H 1147.99 2.2245 4.51137 0
M  V30 12292 H 1147.69 3.97123 4.3309 0
M  V30 12293 H 1149.22 3.40273 5.06997 0
M  V30 12294 H 1150.63 4.73587 3.23091 0
M  V30 12295 H 1149.03 5.34569 2.72683 0
M  V30 12296 H 1150.1 4.60331 1.52392 0
M  V30 12297 N 1151.44 -0.633461 1.44309 0
M  V30 12298 C 1152.37 -1.75676 1.53819 0
M  V30 12299 C 1153.35 -1.65537 0.391365 0
M  V30 12300 O 1154.54 -1.84332 0.611181 0
M  V30 12301 C 1151.67 -3.14197 1.47979 0
M  V30 12302 C 1150.62 -3.39122 2.61113 0
M  V30 12303 C 1149.95 -4.77648 2.40325 0
M  V30 12304 C 1151.25 -3.31914 4.03274 0
M  V30 12305 H 1152.94 -1.67974 2.47841 0
M  V30 12306 H 1150.49 -0.8067 1.19283 0
M  V30 12307 H 1152.44 -3.92553 1.53233 0
M  V30 12308 H 1151.16 -3.22677 0.504718 0
M  V30 12309 H 1149.82 -2.63145 2.55245 0
M  V30 12310 H 1149.47 -4.82829 1.41016 0
M  V30 12311 H 1149.17 -4.95284 3.16177 0
M  V30 12312 H 1150.69 -5.58237 2.47394 0
M  V30 12313 H 1152.11 -4.00178 4.10524 0
M  V30 12314 H 1150.5 -3.61085 4.7931 0
M  V30 12315 H 1151.57 -2.29761 4.2701 0
M  V30 12316 N 1152.92 -1.31168 -0.873655 0
M  V30 12317 C 1154.2 -1.11285 -1.60857 0
M  V30 12318 C 1154.58 0.333788 -2.08444 0
M  V30 12319 O 1153.92 1.32726 -1.86 0
M  V30 12320 C 1154.13 -2.12379 -2.7694 0
M  V30 12321 C 1155.48 -2.44704 -3.46994 0
M  V30 12322 O 1156.51 -2.10778 -2.87143 0
M  V30 12323 O 1155.36 -3.02786 -4.54954 0
M  V30 12324 H 1152.46 -0.428177 -0.707526 0
M  V30 12325 H 1155 -1.42634 -0.91944 0
M  V30 12326 H 1153.78 -3.09703 -2.39164 0
M  V30 12327 H 1153.4 -1.81914 -3.53544 0
M  V30 12328 N 1154.4 1.08748 -1.14068 0
M  V30 12329 C 1155.34 2.15573 -0.824425 0
M  V30 12330 C 1156.31 1.64683 0.216522 0
M  V30 12331 O 1157.5 1.90601 0.0872193 0
M  V30 12332 C 1154.64 3.43756 -0.30423 0
M  V30 12333 C 1153.75 4.08512 -1.40506 0
M  V30 12334 C 1152.89 5.24477 -0.842479 0
M  V30 12335 C 1151.93 5.81167 -1.92123 0
M  V30 12336 N 1151.06 6.88483 -1.37608 0
M  V30 12337 H 1155.9 2.41968 -1.73941 0
M  V30 12338 H 1153.44 1.18751 -0.868143 0
M  V30 12339 H 1155.4 4.17197 0.0155546 0
M  V30 12340 H 1154.03 3.17658 0.573868 0
M  V30 12341 H 1153.08 3.32866 -1.84131 0
M  V30 12342 H 1154.39 4.46669 -2.2201 0
M  V30 12343 H 1153.55 6.04842 -0.474389 0
M  V30 12344 H 1152.28 4.877 0.00355212 0
M  V30 12345 H 1151.29 4.99458 -2.29831 0
M  V30 12346 H 1152.51 6.20003 -2.77079 0
M  V30 12347 H 1150.46 6.53672 -0.552168 0
M  V30 12348 H 1150.38 7.25446 -2.12752 0
M  V30 12349 H 1151.65 7.72588 -1.03578 0
M  V30 12350 N 1155.87 0.935264 1.26849 0
M  V30 12351 C 1156.8 0.457776 2.28969 0
M  V30 12352 C 1157.79 -0.48587 1.63013 0
M  V30 12353 O 1158.97 -0.388998 1.90264 0
M  V30 12354 C 1156.1 -0.283332 3.46142 0
M  V30 12355 C 1155.05 0.573196 4.24144 0
M  V30 12356 C 1154.38 -0.297525 5.33872 0
M  V30 12357 C 1155.68 1.84153 4.88759 0
M  V30 12358 H 1157.37 1.31125 2.69159 0
M  V30 12359 H 1154.92 0.631956 1.29392 0
M  V30 12360 H 1156.87 -0.628366 4.16689 0
M  V30 12361 H 1155.6 -1.1709 3.04889 0
M  V30 12362 H 1154.26 0.901043 3.55354 0
M  V30 12363 H 1153.9 -1.18427 4.8886 0
M  V30 12364 H 1153.6 0.272126 5.8697 0
M  V30 12365 H 1155.13 -0.637961 6.07258 0
M  V30 12366 H 1156.54 1.5641 5.51551 0
M  V30 12367 H 1154.94 2.35528 5.51948 0
M  V30 12368 H 1156.01 2.5565 4.12033 0
M  V30 12369 N 1157.35 -1.41121 0.701616 0
M  V30 12370 C 1158.3 -2.30765 0.040121 0
M  V30 12371 C 1159.27 -1.47436 -0.764975 0
M  V30 12372 O 1160.45 -1.76209 -0.731775 0
M  V30 12373 C 1157.59 -3.33535 -0.885903 0
M  V30 12374 C 1156.71 -4.3194 -0.0717765 0
M  V30 12375 C 1155.84 -5.21779 -0.995996 0
M  V30 12376 C 1154.88 -6.11849 -0.175133 0
M  V30 12377 N 1154.02 -6.94151 -1.05348 0
M  V30 12378 H 1158.86 -2.86772 0.810312 0
M  V30 12379 H 1156.4 -1.41233 0.411301 0
M  V30 12380 H 1158.35 -3.91675 -1.4369 0
M  V30 12381 H 1156.98 -2.79065 -1.62243 0
M  V30 12382 H 1156.04 -3.75698 0.596221 0
M  V30 12383 H 1157.35 -4.95597 0.56435 0
M  V30 12384 H 1156.5 -5.84782 -1.61601 0
M  V30 12385 H 1155.24 -4.58363 -1.66597 0
M  V30 12386 H 1154.25 -5.4789 0.457916 0
M  V30 12387 H 1155.47 -6.77322 0.491133 0
M  V30 12388 H 1153.42 -6.33338 -1.70936 0
M  V30 12389 H 1153.33 -7.54518 -0.473065 0
M  V30 12390 H 1154.6 -7.61617 -1.66012 0
M  V30 12391 N 1158.83 -0.446794 -1.51134 0
M  V30 12392 C 1159.78 0.374154 -2.29571 0
M  V30 12393 C 1160.77 1.01241 -1.35818 0
M  V30 12394 O 1161.98 0.946293 -1.53119 0
M  V30 12395 H 1158.35 0.13948 -0.738951 0
M  V30 12396 H 1160.32 -0.308117 -2.96805 0
M  V30 12397 C 1159.07 1.45754 -3.15675 0
M  V30 12398 H 1158.4 0.975787 -3.87709 0
M  V30 12399 H 1159.84 2.00502 -3.73597 0
M  V30 12400 C 1158.3 2.44606 -2.31667 0
M  V30 12401 O 1158.83 3.49352 -1.98284 0
M  V30 12402 N 1157.03 2.15725 -1.94708 0
M  V30 12403 H 1156.58 1.30572 -2.22056 0
M  V30 12404 H 1156.54 2.82103 -1.38798 0
M  V30 12405 N 1160.31 1.56586 -0.178487 0
M  V30 12406 C 1161.26 2.18309 0.74899 0
M  V30 12407 C 1162.23 1.12525 1.22178 0
M  V30 12408 O 1163.41 1.40706 1.28866 0
M  V30 12409 C 1160.55 2.83353 1.9699 0
M  V30 12410 C 1159.66 4.03618 1.54002 0
M  V30 12411 C 1158.8 4.56567 2.71514 0
M  V30 12412 C 1157.84 5.69226 2.25051 0
M  V30 12413 N 1156.97 6.16654 3.35682 0
M  V30 12414 H 1161.81 2.97217 0.21587 0
M  V30 12415 H 1159.35 1.46794 0.0948182 0
M  V30 12416 H 1161.31 3.19226 2.68609 0
M  V30 12417 H 1159.94 2.07037 2.4766 0
M  V30 12418 H 1158.99 3.73518 0.720298 0
M  V30 12419 H 1160.3 4.85148 1.15901 0
M  V30 12420 H 1159.46 4.94659 3.5128 0
M  V30 12421 H 1158.2 3.7411 3.12879 0
M  V30 12422 H 1157.2 5.30679 1.43734 0
M  V30 12423 H 1158.43 6.5349 1.84736 0
M  V30 12424 H 1156.37 5.37124 3.76609 0
M  V30 12425 H 1156.29 6.93192 3.01697 0
M  V30 12426 H 1157.56 6.59397 4.15711 0
M  V30 12427 N 1161.79 -0.095206 1.57312 0
M  V30 12428 C 1163.03 -0.794786 1.87229 0
M  V30 12429 C 1163.39 -1.7635 0.769305 0
M  V30 12430 O 1162.68 -1.9023 -0.228704 0
M  V30 12431 C 1162.87 -1.56244 3.21438 0
M  V30 12432 C 1162.7 -0.669563 4.44687 0
M  V30 12433 C 1161.47 -0.315338 5.04315 0
M  V30 12434 C 1163.67 0.0234175 5.14295 0
M  V30 12435 N 1161.65 0.585709 6.111 0
M  V30 12436 C 1163.02 0.782538 6.15042 0
M  V30 12437 C 1165.08 0.0973496 4.97805 0
M  V30 12438 C 1163.78 1.60868 7.01081 0
M  V30 12439 C 1165.81 0.910394 5.84351 0
M  V30 12440 C 1165.17 1.65763 6.84618 0
M  V30 12441 H 1161.27 -0.267005 0.735005 0
M  V30 12442 H 1163.85 -0.0573245 1.94616 0
M  V30 12443 H 1162.02 -2.27077 3.15104 0
M  V30 12444 H 1163.76 -2.2092 3.39082 0
M  V30 12445 H 1160.51 -0.662971 4.68937 0
M  V30 12446 H 1160.94 1.02878 6.69138 0
M  V30 12447 H 1165.58 -0.46602 4.20224 0
M  V30 12448 H 1163.3 2.18312 7.78052 0
M  V30 12449 H 1166.88 0.97027 5.73652 0
M  V30 12450 H 1165.76 2.27663 7.50426 0
M  V30 12451 N 1163.26 -1.53291 -0.366026 0
M  V30 12452 C 1164.51 -1.70649 -1.10683 0
M  V30 12453 C 1164.87 -0.45249 -1.87003 0
M  V30 12454 O 1164.16 0.55448 -1.83401 0
M  V30 12455 C 1164.35 -2.89547 -2.09517 0
M  V30 12456 C 1164.18 -4.26389 -1.42907 0
M  V30 12457 C 1162.95 -4.91247 -1.18339 0
M  V30 12458 C 1165.15 -5.06939 -0.867015 0
M  V30 12459 N 1163.13 -6.12015 -0.480746 0
M  V30 12460 C 1164.5 -6.19304 -0.29371 0
M  V30 12461 C 1166.56 -4.91978 -0.765659 0
M  V30 12462 C 1165.26 -7.18342 0.371063 0
M  V30 12463 C 1167.29 -5.91289 -0.114668 0
M  V30 12464 C 1166.65 -7.02975 0.447764 0
M  V30 12465 H 1162.75 -0.677704 -0.390181 0
M  V30 12466 H 1165.33 -1.90687 -0.393276 0
M  V30 12467 H 1163.5 -2.71049 -2.78185 0
M  V30 12468 H 1165.23 -2.95731 -2.76271 0
M  V30 12469 H 1161.99 -4.50387 -1.46455 0
M  V30 12470 H 1162.41 -6.76845 -0.144802 0
M  V30 12471 H 1167.06 -4.05817 -1.18626 0
M  V30 12472 H 1164.77 -8.04094 0.803615 0
M  V30 12473 H 1168.36 -5.81788 -0.037179 0
M  V30 12474 H 1167.24 -7.78503 0.943529 0
M  V30 12475 N 1164.74 0.6258 -1.44643 0
M  V30 12476 C 1165.97 1.41028 -1.50979 0
M  V30 12477 C 1166.38 1.88717 -0.135092 0
M  V30 12478 O 1165.72 1.61778 0.870268 0
M  V30 12479 C 1165.79 2.66094 -2.41732 0
M  V30 12480 C 1165.45 2.40166 -3.88805 0
M  V30 12481 C 1166.45 2.01661 -4.79196 0
M  V30 12482 C 1164.13 2.53641 -4.33557 0
M  V30 12483 C 1166.13 1.76966 -6.12341 0
M  V30 12484 C 1163.81 2.2856 -5.66748 0
M  V30 12485 C 1164.81 1.90282 -6.55959 0
M  V30 12486 O 1164.5 1.65484 -7.86683 0
M  V30 12487 H 1164.23 0.438757 -0.514265 0
M  V30 12488 H 1166.78 0.772034 -1.90339 0
M  V30 12489 H 1165.01 3.32575 -1.97309 0
M  V30 12490 H 1166.7 3.28107 -2.38957 0
M  V30 12491 H 1167.47 1.90802 -4.45892 0
M  V30 12492 H 1163.35 2.82404 -3.64375 0
M  V30 12493 H 1166.89 1.47014 -6.81933 0
M  V30 12494 H 1162.79 2.3903 -5.99612 0
M  V30 12495 H 1163.56 1.79686 -7.98533 0
M  V30 12496 N 1166.22 1.31629 0.866686 0
M  V30 12497 C 1167.5 1.12136 1.60265 0
M  V30 12498 C 1167.88 -0.322729 2.08618 0
M  V30 12499 O 1167.23 -1.31738 1.86701 0
M  V30 12500 C 1167.44 2.13845 2.7581 0
M  V30 12501 C 1168.78 2.46541 3.45692 0
M  V30 12502 O 1169.81 2.12298 2.86021 0
M  V30 12503 O 1168.67 3.05194 4.53342 0
M  V30 12504 H 1165.76 0.431923 0.705246 0
M  V30 12505 H 1168.31 1.43119 0.911863 0
M  V30 12506 H 1167.08 3.10967 2.37518 0
M  V30 12507 H 1166.7 1.83786 3.52574 0
M  V30 12508 N 1167.7 -1.08142 1.14644 0
M  V30 12509 C 1168.65 -2.15133 0.835845 0
M  V30 12510 C 1169.62 -1.64795 -0.207785 0
M  V30 12511 O 1170.8 -1.90644 -0.07711 0
M  V30 12512 C 1167.94 -3.4359 0.322456 0
M  V30 12513 C 1167.05 -4.07761 1.42671 0
M  V30 12514 C 1166.19 -5.24022 0.870281 0
M  V30 12515 C 1165.23 -5.8014 1.95202 0
M  V30 12516 N 1164.37 -6.87743 1.41257 0
M  V30 12517 H 1169.21 -2.41042 1.75222 0
M  V30 12518 H 1166.74 -1.18288 0.874428 0
M  V30 12519 H 1168.7 -4.17199 0.00657059 0
M  V30 12520 H 1167.33 -3.17958 -0.557014 0
M  V30 12521 H 1166.38 -3.31885 1.85893 0
M  V30 12522 H 1167.69 -4.45485 2.24375 0
M  V30 12523 H 1166.85 -6.04582 0.506459 0
M  V30 12524 H 1165.59 -4.87695 0.0223118 0
M  V30 12525 H 1164.59 -4.98232 2.32476 0
M  V30 12526 H 1165.82 -6.18525 2.80363 0
M  V30 12527 H 1163.76 -6.5337 0.586826 0
M  V30 12528 H 1163.68 -7.24308 2.16596 0
M  V30 12529 H 1164.95 -7.72028 1.07674 0
M  V30 12530 N 1169.18 -0.941978 -1.26351 0
M  V30 12531 C 1170.43 -0.588806 -1.93333 0
M  V30 12532 C 1170.75 0.875067 -1.74263 0
M  V30 12533 O 1170.02 1.62187 -1.09873 0
M  V30 12534 H 1168.6 -0.214774 -0.715459 0
M  V30 12535 H 1171.26 -1.19747 -1.53774 0
M  V30 12536 H 1170.35 -0.807267 -3.01479 0
M  V30 12537 N 1170.66 1.40747 -0.709091 0
M  V30 12538 C 1171.57 2.3454 -0.0532205 0
M  V30 12539 C 1172.58 1.56956 0.751057 0
M  V30 12540 O 1173.76 1.89375 0.685509 0
M  V30 12541 C 1170.82 3.35809 0.862157 0
M  V30 12542 C 1169.88 4.29273 0.0485632 0
M  V30 12543 C 1169.12 5.25705 0.920345 0
M  V30 12544 O 1169.34 5.27933 2.15969 0
M  V30 12545 O 1168.27 6.00806 0.3628 0
M  V30 12546 H 1172.1 2.92232 -0.826698 0
M  V30 12547 H 1169.68 1.4183 -0.469519 0
M  V30 12548 H 1171.57 3.97931 1.38668 0
M  V30 12549 H 1170.24 2.8054 1.61489 0
M  V30 12550 H 1169.15 3.70456 -0.520873 0
M  V30 12551 H 1170.48 4.87676 -0.665807 0
M  V30 12552 N 1172.13 0.454803 1.50895 0
M  V30 12553 C 1173.37 -0.104722 2.04132 0
M  V30 12554 C 1173.74 -1.38434 1.33042 0
M  V30 12555 O 1174.94 -2.02521 1.76745 0
M  V30 12556 C 1173.21 -0.300775 3.56132 0
M  V30 12557 S 1174.77 -0.821197 4.31047 0
M  V30 12558 H 1171.59 -0.0236407 0.710607 0
M  V30 12559 H 1174.19 0.618213 1.85468 0
M  V30 12560 H 1172.89 0.636592 4.05433 0
M  V30 12561 H 1172.42 -1.05029 3.79121 0
M  V30 12562 H 1174.44 -2.09669 4.49726 0
M  V30 12563 N 1173.61 -1.56489 0.186789 0
M  V30 12564 C 1174.86 -1.96952 -0.453261 0
M  V30 12565 C 1175.18 -1.07451 -1.62725 0
M  V30 12566 O 1174.45 -0.144046 -1.9537 0
M  V30 12567 H 1173.03 -0.727295 -0.170445 0
M  V30 12568 H 1175.69 -1.92999 0.271584 0
M  V30 12569 H 1174.79 -3.01594 -0.802951 0
M  V30 12570 N 1175.09 0.086862 -1.5736 0
M  V30 12571 C 1176.31 0.806017 -1.91097 0
M  V30 12572 C 1176.74 1.71082 -0.78183 0
M  V30 12573 O 1176.1 1.79335 0.266175 0
M  V30 12574 C 1176.15 1.5884 -3.23732 0
M  V30 12575 O 1175.25 2.69798 -3.11902 0
M  V30 12576 H 1174.59 0.220899 -0.626179 0
M  V30 12577 H 1177.12 0.059619 -2.04513 0
M  V30 12578 H 1177.13 1.97088 -3.5724 0
M  V30 12579 H 1175.81 0.924426 -4.05496 0
M  V30 12580 H 1174.38 2.34519 -2.89923 0
M  V30 12581 N 1176.57 1.53483 0.357892 0
M  V30 12582 C 1177.82 1.69701 1.09754 0
M  V30 12583 C 1178.14 0.455389 1.89608 0
M  V30 12584 O 1177.41 -0.530623 1.88577 0
M  V30 12585 H 1175.99 0.62562 0.408178 0
M  V30 12586 H 1178.65 1.90696 0.402641 0
M  V30 12587 H 1177.74 2.56154 1.78302 0
M  V30 12588 N 1178.05 -0.61812 1.44973 0
M  V30 12589 C 1179.29 -1.37468 1.48145 0
M  V30 12590 C 1179.61 -1.94628 0.120366 0
M  V30 12591 O 1178.88 -1.76548 -0.848982 0
M  V30 12592 H 1177.46 -0.510293 0.545536 0
M  V30 12593 H 1180.13 -0.726598 1.8085 0
M  V30 12594 H 1179.22 -2.19944 2.2143 0
M  V30 12595 N 1179.52 -1.32087 -0.859693 0
M  V30 12596 C 1180.77 -1.22119 -1.61033 0
M  V30 12597 C 1181.09 0.218289 -1.93774 0
M  V30 12598 O 1180.36 1.14172 -1.5919 0
M  V30 12599 H 1178.94 -0.448989 -0.597008 0
M  V30 12600 H 1181.6 -1.65545 -1.02863 0
M  V30 12601 H 1180.7 -1.80023 -2.54947 0
M  V30 12602 N 1181 1.07532 -1.15215 0
M  V30 12603 C 1182.28 1.76813 -0.83646 0
M  V30 12604 C 1182.66 2.00242 0.6683 0
M  V30 12605 O 1182.01 1.61941 1.61206 0
M  V30 12606 C 1182.22 3.0779 -1.64519 0
M  V30 12607 C 1183.56 3.82168 -1.85022 0
M  V30 12608 O 1184.59 3.17596 -1.61279 0
M  V30 12609 O 1183.45 4.98135 -2.24775 0
M  V30 12610 H 1180.54 0.767736 -0.307426 0
M  V30 12611 H 1183.09 1.13914 -1.25784 0
M  V30 12612 H 1181.86 2.86342 -2.6669 0
M  V30 12613 H 1181.48 3.78419 -1.22002 0
M  V30 12614 N 1182.48 0.948665 1.2585 0
M  V30 12615 C 1183.71 0.616741 1.98018 0
M  V30 12616 C 1184.13 -0.803005 1.70098 0
M  V30 12617 O 1183.49 -1.54208 0.953392 0
M  V30 12618 C 1183.54 0.874429 3.49837 0
M  V30 12619 O 1182.64 -0.0497568 4.1237 0
M  V30 12620 H 1181.98 0.235112 0.620982 0
M  V30 12621 H 1184.51 1.27364 1.60124 0
M  V30 12622 H 1184.52 0.798309 4.00114 0
M  V30 12623 H 1183.2 1.90922 3.69488 0
M  V30 12624 H 1181.77 0.0780591 3.72818 0
M  V30 12625 N 1183.96 -1.40369 0.716545 0
M  V30 12626 C 1184.91 -2.3071 0.0645944 0
M  V30 12627 C 1185.88 -1.48239 -0.749294 0
M  V30 12628 O 1187.06 -1.76975 -0.713045 0
M  V30 12629 C 1184.2 -3.34456 -0.850478 0
M  V30 12630 C 1183.31 -4.31992 -0.0259594 0
M  V30 12631 C 1182.45 -5.22806 -0.940599 0
M  V30 12632 C 1181.49 -6.12001 -0.110228 0
M  V30 12633 N 1180.62 -6.9523 -0.979796 0
M  V30 12634 H 1185.46 -2.85896 0.840682 0
M  V30 12635 H 1183 -1.40789 0.426258 0
M  V30 12636 H 1184.96 -3.93177 -1.39528 0
M  V30 12637 H 1183.59 -2.8077 -1.59274 0
M  V30 12638 H 1182.64 -3.75045 0.636036 0
M  V30 12639 H 1183.95 -4.94971 0.616883 0
M  V30 12640 H 1183.11 -5.86463 -1.5539 0
M  V30 12641 H 1181.85 -4.60104 -1.61726 0
M  V30 12642 H 1180.85 -5.47373 0.516001 0
M  V30 12643 H 1182.08 -6.76763 0.562944 0
M  V30 12644 H 1180.02 -6.35115 -1.64209 0
M  V30 12645 H 1179.94 -7.54978 -0.393012 0
M  V30 12646 H 1181.21 -7.63335 -1.57924 0
M  V30 12647 N 1185.44 -0.462799 -1.50652 0
M  V30 12648 C 1186.35 0.341191 -2.32106 0
M  V30 12649 C 1187.36 1.00384 -1.42123 0
M  V30 12650 O 1188.54 0.993635 -1.75182 0
M  V30 12651 C 1185.6 1.41356 -3.16575 0
M  V30 12652 C 1184.66 0.768375 -4.22368 0
M  V30 12653 C 1183.9 1.78964 -5.028 0
M  V30 12654 O 1184.12 3.01515 -4.84195 0
M  V30 12655 O 1183.05 1.36606 -5.86193 0
M  V30 12656 H 1186.88 -0.324482 -3.01962 0
M  V30 12657 H 1184.47 -0.224807 -1.47699 0
M  V30 12658 H 1186.35 2.0349 -3.69012 0
M  V30 12659 H 1185.02 2.06285 -2.49456 0
M  V30 12660 H 1183.93 0.108297 -3.73943 0
M  V30 12661 H 1185.26 0.162164 -4.91933 0
M  V30 12662 N 1186.91 1.56388 -0.195085 0
M  V30 12663 C 1187.86 2.19091 0.725793 0
M  V30 12664 C 1188.83 1.13814 1.20977 0
M  V30 12665 O 1190.02 1.42065 1.27366 0
M  V30 12666 C 1187.16 2.85427 1.93973 0
M  V30 12667 C 1186.27 4.05229 1.49712 0
M  V30 12668 C 1185.4 4.59421 2.66656 0
M  V30 12669 C 1184.44 5.71581 2.19001 0
M  V30 12670 N 1183.58 6.2018 3.29123 0
M  V30 12671 H 1188.42 2.97429 0.184334 0
M  V30 12672 H 1185.96 1.46886 0.0792434 0
M  V30 12673 H 1187.92 3.22057 2.65208 0
M  V30 12674 H 1186.55 2.09652 2.4545 0
M  V30 12675 H 1185.6 3.74261 0.680641 0
M  V30 12676 H 1186.91 4.8635 1.10749 0
M  V30 12677 H 1186.06 4.98357 3.46014 0
M  V30 12678 H 1184.8 3.77407 3.08893 0
M  V30 12679 H 1183.81 5.32174 1.38097 0
M  V30 12680 H 1185.03 6.55413 1.77795 0
M  V30 12681 H 1182.98 5.41088 3.70891 0
M  V30 12682 H 1182.9 6.96353 2.94328 0
M  V30 12683 H 1184.16 6.63769 4.08694 0
M  V30 12684 N 1188.39 -0.0785156 1.57404 0
M  V30 12685 C 1189.62 -0.792042 1.9114 0
M  V30 12686 C 1190.04 -1.71458 0.790408 0
M  V30 12687 O 1189.39 -1.80959 -0.236662 0
M  V30 12688 C 1189.44 -1.59138 3.24588 0
M  V30 12689 O 1189.16 -0.705931 4.32375 0
M  V30 12690 C 1190.67 -2.4065 3.72293 0
M  V30 12691 H 1187.89 -0.225566 0.63195 0
M  V30 12692 H 1190.43 -0.0507929 2.04437 0
M  V30 12693 H 1188.58 -2.28498 3.12838 0
M  V30 12694 H 1189 -1.26121 5.09111 0
M  V30 12695 H 1190.47 -2.92204 4.68317 0
M  V30 12696 H 1190.95 -3.1987 3.00965 0
M  V30 12697 H 1191.56 -1.7646 3.86965 0
M  V30 12698 N 1189.87 -1.5367 -0.349747 0
M  V30 12699 C 1191.1 -1.74858 -1.11532 0
M  V30 12700 C 1191.52 -0.483591 -1.81777 0
M  V30 12701 O 1190.88 0.563399 -1.72324 0
M  V30 12702 C 1190.93 -2.92479 -2.10923 0
M  V30 12703 O 1190.03 -2.62194 -3.18321 0
M  V30 12704 H 1189.37 -0.580219 -0.322865 0
M  V30 12705 H 1191.9 -2.00611 -0.402033 0
M  V30 12706 H 1191.91 -3.19093 -2.54252 0
M  V30 12707 H 1190.59 -3.84228 -1.59191 0
M  V30 12708 H 1189.16 -2.46448 -2.79853 0
M  V30 12709 N 1191.35 0.610423 -1.45298 0
M  V30 12710 C 1192.31 1.70324 -1.5337 0
M  V30 12711 C 1193.31 1.55393 -0.413492 0
M  V30 12712 O 1194.5 1.60512 -0.676872 0
M  V30 12713 C 1191.63 3.09572 -1.42752 0
M  V30 12714 H 1192.83 1.64535 -2.50736 0
M  V30 12715 H 1190.38 0.825906 -1.32697 0
M  V30 12716 H 1191.11 3.2094 -0.465601 0
M  V30 12717 H 1190.9 3.21817 -2.24 0
M  V30 12718 H 1192.39 3.89178 -1.51427 0
M  V30 12719 N 1192.83 1.32541 0.852676 0
M  V30 12720 C 1193.76 1.24254 1.97694 0
M  V30 12721 C 1194.74 0.125971 1.69633 0
M  V30 12722 O 1195.92 0.31347 1.91653 0
M  V30 12723 C 1193.05 0.966874 3.3357 0
M  V30 12724 C 1192.01 2.0449 3.75989 0
M  V30 12725 C 1191.33 1.6216 5.09518 0
M  V30 12726 C 1192.63 3.46013 3.91244 0
M  V30 12727 H 1194.33 2.18317 2.04886 0
M  V30 12728 H 1191.87 1.05101 0.984371 0
M  V30 12729 H 1193.83 0.895444 4.11776 0
M  V30 12730 H 1192.55 -0.0093893 3.26599 0
M  V30 12731 H 1191.21 2.10651 3.00036 0
M  V30 12732 H 1190.86 0.632729 4.99005 0
M  V30 12733 H 1190.56 2.3429 5.38871 0
M  V30 12734 H 1192.08 1.56457 5.90215 0
M  V30 12735 H 1193.49 3.4243 4.59799 0
M  V30 12736 H 1191.89 4.1651 4.32017 0
M  V30 12737 H 1192.96 3.8553 2.941 0
M  V30 12738 N 1194.3 -1.0692 1.15784 0
M  V30 12739 C 1195.53 -1.83849 0.959903 0
M  V30 12740 C 1195.95 -1.8169 -0.486873 0
M  V30 12741 O 1195.31 -1.21305 -1.34739 0
M  V30 12742 C 1195.36 -3.28642 1.48414 0
M  V30 12743 O 1194.46 -4.0665 0.686249 0
M  V30 12744 H 1193.81 -0.569115 0.342059 0
M  V30 12745 H 1196.34 -1.34851 1.53871 0
M  V30 12746 H 1196.35 -3.7947 1.49888 0
M  V30 12747 H 1195.02 -3.29529 2.53739 0
M  V30 12748 H 1193.6 -3.65453 0.741501 0
M  V30 12749 N 1195.78 -0.955326 -1.25345 0
M  V30 12750 C 1196.71 -0.494145 -2.28211 0
M  V30 12751 C 1197.69 0.459875 -1.63766 0
M  V30 12752 O 1198.88 0.358679 -1.90859 0
M  V30 12753 C 1196.01 0.228228 -3.46549 0
M  V30 12754 C 1194.96 -0.640601 -4.23179 0
M  V30 12755 C 1194.29 0.212553 -5.34277 0
M  V30 12756 C 1195.59 -1.91906 -4.85767 0
M  V30 12757 H 1197.28 -1.35391 -2.67039 0
M  V30 12758 H 1194.83 -0.652462 -1.2837 0
M  V30 12759 H 1196.78 0.561995 -4.17636 0
M  V30 12760 H 1195.51 1.12224 -3.06714 0
M  V30 12761 H 1194.16 -0.957462 -3.53876 0
M  V30 12762 H 1193.81 1.10634 -4.90682 0
M  V30 12763 H 1193.51 -0.365473 -5.86462 0
M  V30 12764 H 1195.04 0.541271 -6.08196 0
M  V30 12765 H 1196.45 -1.65165 -5.48993 0
M  V30 12766 H 1194.85 -2.44279 -5.48131 0
M  V30 12767 H 1195.92 -2.62173 -4.07914 0
M  V30 12768 N 1197.26 1.39987 -0.723979 0
M  V30 12769 C 1198.49 2.0556 -0.275634 0
M  V30 12770 C 1198.91 1.54207 1.07711 0
M  V30 12771 O 1198.27 0.681041 1.68022 0
M  V30 12772 C 1198.32 3.59551 -0.27485 0
M  V30 12773 O 1197.42 4.05685 0.741182 0
M  V30 12774 H 1196.76 0.651634 -0.12755 0
M  V30 12775 H 1199.29 1.79229 -0.986814 0
M  V30 12776 H 1199.3 4.07837 -0.115425 0
M  V30 12777 H 1197.98 3.96291 -1.26198 0
M  V30 12778 H 1196.55 3.6884 0.548795 0
M  V30 12779 N 1198.74 0.470782 1.50404 0
M  V30 12780 C 1199.69 -0.337584 2.30137 0
M  V30 12781 C 1200.68 -0.990673 1.37412 0
M  V30 12782 O 1201.89 -0.921813 1.54605 0
M  V30 12783 H 1198.26 -0.127707 0.741077 0
M  V30 12784 H 1200.23 0.355297 2.96277 0
M  V30 12785 C 1198.98 -1.40714 3.17954 0
M  V30 12786 H 1198.31 -0.913982 3.89213 0
M  V30 12787 H 1199.75 -1.94533 3.7674 0
M  V30 12788 C 1198.2 -2.40889 2.35529 0
M  V30 12789 O 1198.73 -3.46153 2.03816 0
M  V30 12790 N 1196.94 -2.126 1.98115 0
M  V30 12791 H 1196.49 -1.27023 2.24105 0
M  V30 12792 H 1196.45 -2.7986 1.43269 0
M  V30 12793 N 1200.22 -1.56282 0.203376 0
M  V30 12794 C 1201.46 -1.98105 -0.433844 0
M  V30 12795 C 1201.8 -1.09044 -1.60695 0
M  V30 12796 O 1201.07 -0.144193 -1.93965 0
M  V30 12797 C 1201.35 -3.4903 -0.885992 0
M  V30 12798 C 1201.21 -4.48867 0.289501 0
M  V30 12799 C 1202.53 -4.03871 -1.7486 0
M  V30 12800 H 1199.65 -0.720252 -0.156224 0
M  V30 12801 H 1202.29 -1.87681 0.295963 0
M  V30 12802 H 1200.44 -3.58045 -1.50785 0
M  V30 12803 H 1202.11 -4.51883 0.92734 0
M  V30 12804 H 1200.35 -4.23495 0.939934 0
M  V30 12805 H 1201.02 -5.51956 -0.0695128 0
M  V30 12806 H 1203.5 -3.97688 -1.22407 0
M  V30 12807 H 1202.38 -5.09827 -2.03391 0
M  V30 12808 H 1202.64 -3.49637 -2.70567 0
M  V30 12809 N 1201.7 0.070167 -1.57444 0
M  V30 12810 C 1202.66 1.06761 -2.02817 0
M  V30 12811 C 1203.66 1.31498 -0.925462 0
M  V30 12812 O 1204.85 1.27192 -1.19029 0
M  V30 12813 C 1201.98 2.41086 -2.41019 0
M  V30 12814 H 1203.17 0.67651 -2.9217 0
M  V30 12815 H 1200.73 0.315936 -1.53074 0
M  V30 12816 H 1201.46 2.85025 -1.54697 0
M  V30 12817 H 1201.25 2.24472 -3.21488 0
M  V30 12818 H 1202.74 3.12778 -2.76694 0
M  V30 12819 N 1203.17 1.53854 0.341593 0
M  V30 12820 C 1204.42 1.70856 1.07948 0
M  V30 12821 C 1204.74 0.475474 1.89114 0
M  V30 12822 O 1204.01 -0.510592 1.89129 0
M  V30 12823 H 1202.59 0.629914 0.401519 0
M  V30 12824 H 1205.25 1.91112 0.382393 0
M  V30 12825 H 1204.35 2.5803 1.75575 0
M  V30 12826 N 1204.65 -0.602709 1.4562 0
M  V30 12827 C 1205.9 -1.36359 1.50113 0
M  V30 12828 C 1206.23 -1.93663 0.144297 0
M  V30 12829 O 1205.51 -1.75337 -0.841851 0
M  V30 12830 C 1205.79 -2.50788 2.58413 0
M  V30 12831 C 1205.64 -1.98649 4.03557 0
M  V30 12832 C 1206.96 -3.52905 2.62957 0
M  V30 12833 H 1204.08 -0.494455 0.54652 0
M  V30 12834 H 1206.72 -0.678957 1.77455 0
M  V30 12835 H 1204.87 -3.09191 2.3523 0
M  V30 12836 H 1206.54 -1.44857 4.37966 0
M  V30 12837 H 1204.79 -1.29615 4.13984 0
M  V30 12838 H 1205.46 -2.81159 4.7503 0
M  V30 12839 H 1207.93 -3.0435 2.83743 0
M  V30 12840 H 1206.81 -4.30454 3.40589 0
M  V30 12841 H 1207.07 -4.0884 1.68233 0
M  V30 12842 N 1206.13 -1.32992 -0.845635 0
M  V30 12843 C 1207.38 -1.24065 -1.60044 0
M  V30 12844 C 1207.7 0.195282 -1.93517 0
M  V30 12845 O 1206.96 1.1507 -1.58296 0
M  V30 12846 C 1207.26 -2.05454 -2.92444 0
M  V30 12847 C 1206.92 -3.54718 -2.78362 0
M  V30 12848 C 1205.59 -3.95413 -2.74229 0
M  V30 12849 C 1207.94 -4.49598 -2.63649 0
M  V30 12850 C 1205.27 -5.29216 -2.53274 0
M  V30 12851 C 1207.62 -5.83554 -2.44228 0
M  V30 12852 C 1206.28 -6.2344 -2.38493 0
M  V30 12853 H 1205.55 -0.453985 -0.585644 0
M  V30 12854 H 1208.2 -1.6451 -0.980244 0
M  V30 12855 H 1206.5 -1.57765 -3.58633 0
M  V30 12856 H 1208.2 -1.95909 -3.49887 0
M  V30 12857 H 1204.79 -3.22403 -2.82409 0
M  V30 12858 H 1208.98 -4.19072 -2.65881 0
M  V30 12859 H 1204.23 -5.59164 -2.47275 0
M  V30 12860 H 1208.41 -6.56681 -2.31825 0
M  V30 12861 H 1206.03 -7.27058 -2.22015 0
M  V30 12862 N 1207.61 1.06304 -1.1635 0
M  V30 12863 C 1208.84 1.82534 -0.967725 0
M  V30 12864 C 1209.25 1.82816 0.487338 0
M  V30 12865 O 1208.59 1.24581 1.35001 0
M  V30 12866 C 1208.65 3.30349 -1.4181 0
M  V30 12867 C 1208.31 3.53769 -2.89303 0
M  V30 12868 C 1209.31 3.46826 -3.87308 0
M  V30 12869 C 1207 3.81094 -3.2722 0
M  V30 12870 C 1208.99 3.66874 -5.21232 0
M  V30 12871 C 1206.68 4.00792 -4.61313 0
M  V30 12872 C 1207.68 3.93679 -5.58127 0
M  V30 12873 O 1207.36 4.12839 -6.89796 0
M  V30 12874 H 1207.1 0.582407 -0.343189 0
M  V30 12875 H 1209.65 1.35022 -1.54784 0
M  V30 12876 H 1207.88 3.78722 -0.781456 0
M  V30 12877 H 1209.57 3.88072 -1.18976 0
M  V30 12878 H 1210.33 3.25706 -3.59361 0
M  V30 12879 H 1206.21 3.85739 -2.5244 0
M  V30 12880 H 1209.76 3.61238 -5.96786 0
M  V30 12881 H 1205.65 4.214 -4.8897 0
M  V30 12882 H 1206.42 4.30128 -6.96371 0
M  V30 12883 N 1209.09 0.96196 1.24836 0
M  V30 12884 C 1210.33 0.616342 1.92052 0
M  V30 12885 C 1210.65 -0.851601 1.76088 0
M  V30 12886 O 1211.85 -1.3075 2.37943 0
M  V30 12887 C 1210.31 1.05168 3.44191 0
M  V30 12888 C 1209.92 2.54268 3.68852 0
M  V30 12889 C 1211.66 0.778938 4.17292 0
M  V30 12890 C 1209.57 2.91564 5.14533 0
M  V30 12891 H 1208.5 0.22681 0.719078 0
M  V30 12892 H 1211.15 1.1674 1.41577 0
M  V30 12893 H 1209.53 0.428979 3.9367 0
M  V30 12894 H 1210.71 3.21619 3.29997 0
M  V30 12895 H 1209.02 2.79091 3.09026 0
M  V30 12896 H 1211.62 1.03366 5.24614 0
M  V30 12897 H 1211.96 -0.284772 4.15325 0
M  V30 12898 H 1212.49 1.36233 3.73745 0
M  V30 12899 H 1209.23 3.96982 5.21618 0
M  V30 12900 H 1208.75 2.28892 5.54408 0
M  V30 12901 H 1210.43 2.81155 5.82718 0
M  V30 12902 N 1210.56 -1.39601 0.731392 0
M  V30 12903 C 1211.49 -2.33268 0.1041 0
M  V30 12904 C 1212.47 -1.53724 -0.728219 0
M  V30 12905 O 1213.66 -1.82131 -0.673933 0
M  V30 12906 C 1210.79 -3.37802 -0.806646 0
M  V30 12907 C 1209.74 -4.27928 -0.0787588 0
M  V30 12908 C 1209.07 -5.23131 -1.10628 0
M  V30 12909 C 1210.37 -5.11086 1.07651 0
M  V30 12910 H 1212.06 -2.85975 0.886496 0
M  V30 12911 H 1209.61 -1.375 0.427746 0
M  V30 12912 H 1211.56 -4.02278 -1.25499 0
M  V30 12913 H 1210.29 -2.83527 -1.62112 0
M  V30 12914 H 1208.95 -3.64926 0.349926 0
M  V30 12915 H 1208.59 -4.65152 -1.91422 0
M  V30 12916 H 1208.29 -5.84277 -0.624043 0
M  V30 12917 H 1209.82 -5.90483 -1.5544 0
M  V30 12918 H 1211.23 -5.68927 0.706781 0
M  V30 12919 H 1209.63 -5.81356 1.48814 0
M  V30 12920 H 1210.7 -4.46131 1.89988 0
M  V30 12921 N 1212.04 -0.478751 -1.50152 0
M  V30 12922 C 1213.29 0.073694 -2.02666 0
M  V30 12923 C 1213.62 1.38679 -1.35947 0
M  V30 12924 O 1212.9 1.88286 -0.4877 0
M  V30 12925 C 1213.18 0.249516 -3.59235 0
M  V30 12926 C 1213.03 -1.08514 -4.36514 0
M  V30 12927 C 1214.35 1.00053 -4.28576 0
M  V30 12928 H 1211.47 0.0253082 -0.736565 0
M  V30 12929 H 1214.11 -0.625834 -1.79397 0
M  V30 12930 H 1212.26 0.845343 -3.79192 0
M  V30 12931 H 1213.93 -1.71814 -4.28109 0
M  V30 12932 H 1212.18 -1.67992 -3.99952 0
M  V30 12933 H 1212.85 -0.915676 -5.44352 0
M  V30 12934 H 1215.32 0.495422 -4.1314 0
M  V30 12935 H 1214.2 1.09236 -5.37921 0
M  V30 12936 H 1214.46 2.03896 -3.92274 0
M  V30 12937 N 1213.52 1.56172 -0.211661 0
M  V30 12938 C 1214.77 1.97648 0.421871 0
M  V30 12939 C 1215.09 1.10026 1.60995 0
M  V30 12940 O 1214.36 0.175109 1.95116 0
M  V30 12941 H 1212.94 0.729914 0.158852 0
M  V30 12942 H 1215.6 1.92542 -0.302254 0
M  V30 12943 H 1214.7 3.02834 0.754868 0
M  V30 12944 N 1215 -0.0618163 1.57479 0
M  V30 12945 C 1216.25 -0.757569 1.87364 0
M  V30 12946 C 1216.57 -1.77607 0.805025 0
M  V30 12947 O 1215.84 -1.95202 -0.165216 0
M  V30 12948 H 1214.42 -0.28278 0.691408 0
M  V30 12949 H 1217.08 -0.0355354 1.94868 0
M  V30 12950 H 1216.18 -1.26758 2.85199 0
M  V30 12951 N 1216.48 -1.54033 -0.333429 0
M  V30 12952 C 1217.41 -1.85719 -1.4153 0
M  V30 12953 C 1218.39 -0.713144 -1.54429 0
M  V30 12954 O 1219.57 -0.965984 -1.68471 0
M  V30 12955 C 1216.7 -2.07578 -2.78439 0
M  V30 12956 C 1215.66 -3.23411 -2.80338 0
M  V30 12957 C 1214.98 -3.30622 -4.2023 0
M  V30 12958 C 1216.28 -4.6129 -2.44968 0
M  V30 12959 H 1217.98 -2.76325 -1.15261 0
M  V30 12960 H 1215.52 -1.32957 -0.55303 0
M  V30 12961 H 1217.48 -2.28329 -3.5418 0
M  V30 12962 H 1216.2 -1.13713 -3.06165 0
M  V30 12963 H 1214.86 -3.02531 -2.07052 0
M  V30 12964 H 1214.51 -2.34333 -4.45081 0
M  V30 12965 H 1214.21 -4.08466 -4.22409 0
M  V30 12966 H 1215.73 -3.53596 -4.97798 0
M  V30 12967 H 1217.14 -4.81987 -3.10421 0
M  V30 12968 H 1215.54 -5.41611 -2.58414 0
M  V30 12969 H 1216.61 -4.6421 -1.40134 0
M  V30 12970 N 1217.95 0.594978 -1.45938 0
M  V30 12971 C 1219.2 1.35093 -1.50314 0
M  V30 12972 C 1219.52 1.94412 -0.151315 0
M  V30 12973 O 1218.79 1.77876 0.820787 0
M  V30 12974 H 1217.37 0.501549 -0.553586 0
M  V30 12975 H 1220.04 0.697735 -1.81983 0
M  V30 12976 H 1219.13 2.16393 -2.24901 0
M  V30 12977 N 1219.43 1.33438 0.838571 0
M  V30 12978 C 1220.36 1.26344 1.96365 0
M  V30 12979 C 1221.34 0.143956 1.6949 0
M  V30 12980 O 1222.53 0.333779 1.9131 0
M  V30 12981 C 1219.66 1.0022 3.32526 0
M  V30 12982 C 1218.61 2.08466 3.73799 0
M  V30 12983 C 1217.94 1.67555 5.07769 0
M  V30 12984 C 1219.24 3.50144 3.87552 0
M  V30 12985 H 1220.93 2.20478 2.02558 0
M  V30 12986 H 1218.48 1.06139 0.973168 0
M  V30 12987 H 1220.43 0.939068 4.10803 0
M  V30 12988 H 1219.16 0.0252514 3.2659 0
M  V30 12989 H 1217.81 2.13822 2.97785 0
M  V30 12990 H 1217.46 0.685619 4.98305 0
M  V30 12991 H 1217.16 2.39993 5.36356 0
M  V30 12992 H 1218.69 1.62708 5.88522 0
M  V30 12993 H 1220.1 3.47287 4.56141 0
M  V30 12994 H 1218.5 4.21069 4.27575 0
M  V30 12995 H 1219.57 3.88628 2.89994 0
M  V30 12996 N 1220.91 -1.05686 1.16912 0
M  V30 12997 C 1221.87 -2.11481 0.883647 0
M  V30 12998 C 1222.87 -1.60321 -0.124034 0
M  V30 12999 O 1224.06 -1.73868 0.107566 0
M  V30 13000 C 1221.2 -3.3937 0.322649 0
M  V30 13001 H 1222.39 -2.38239 1.8216 0
M  V30 13002 H 1219.94 -1.2185 0.978895 0
M  V30 13003 H 1220.68 -3.18266 -0.622695 0
M  V30 13004 H 1220.46 -3.77812 1.04883 0
M  V30 13005 H 1221.95 -4.17362 0.141072 0
M  V30 13006 N 1222.39 -0.968567 -1.24324 0
M  V30 13007 C 1223.32 -0.444065 -2.23838 0
M  V30 13008 C 1224.3 0.482311 -1.55282 0
M  V30 13009 O 1225.48 0.413489 -1.83909 0
M  V30 13010 C 1222.61 0.358874 -3.36793 0
M  V30 13011 C 1221.66 -0.509913 -4.23441 0
M  V30 13012 S 1222.49 -1.95064 -4.98708 0
M  V30 13013 C 1223.65 -1.15652 -6.15122 0
M  V30 13014 H 1223.88 -1.28738 -2.67981 0
M  V30 13015 H 1221.41 -0.773665 -1.33618 0
M  V30 13016 H 1223.37 0.816164 -4.02305 0
M  V30 13017 H 1222.03 1.17717 -2.91207 0
M  V30 13018 H 1221.22 0.106617 -5.03887 0
M  V30 13019 H 1220.83 -0.902967 -3.62936 0
M  V30 13020 H 1223.12 -0.411966 -6.76246 0
M  V30 13021 H 1224.06 -1.93539 -6.81137 0
M  V30 13022 H 1224.47 -0.680507 -5.60383 0
M  V30 13023 N 1223.87 1.39211 -0.738786 0
M  V30 13024 C 1224.8 2.33209 -0.11647 0
M  V30 13025 C 1225.78 1.54108 0.720056 0
M  V30 13026 O 1226.96 1.82486 0.664264 0
M  V30 13027 C 1224.09 3.38226 0.78872 0
M  V30 13028 C 1223.05 4.27963 0.0560636 0
M  V30 13029 C 1222.37 5.2371 1.07852 0
M  V30 13030 C 1223.67 5.10508 -1.1036 0
M  V30 13031 H 1225.37 2.85501 -0.901649 0
M  V30 13032 H 1222.91 1.37272 -0.435032 0
M  V30 13033 H 1224.87 4.02938 1.23364 0
M  V30 13034 H 1223.59 2.84382 1.60606 0
M  V30 13035 H 1222.25 3.64735 -0.369274 0
M  V30 13036 H 1221.9 4.66161 1.88953 0
M  V30 13037 H 1221.6 5.846 0.593048 0
M  V30 13038 H 1223.12 5.91299 1.52307 0
M  V30 13039 H 1224.53 5.68544 -0.736943 0
M  V30 13040 H 1222.93 5.80558 -1.51895 0
M  V30 13041 H 1224 4.45117 -1.92352 0
M  V30 13042 N 1225.34 0.486708 1.49896 0
M  V30 13043 C 1226.59 -0.0629451 2.02702 0
M  V30 13044 C 1226.92 -1.37956 1.36681 0
M  V30 13045 O 1226.2 -1.88025 0.497678 0
M  V30 13046 C 1226.48 -0.230461 3.59362 0
M  V30 13047 C 1226.33 1.10828 4.35933 0
M  V30 13048 C 1227.65 -0.977785 4.29101 0
M  V30 13049 H 1224.77 -0.0214017 0.736689 0
M  V30 13050 H 1227.41 0.635339 1.79063 0
M  V30 13051 H 1225.56 -0.825222 3.79634 0
M  V30 13052 H 1227.24 1.74082 4.27192 0
M  V30 13053 H 1225.48 1.7011 3.99055 0
M  V30 13054 H 1226.15 0.944532 5.43859 0
M  V30 13055 H 1228.63 -0.473505 4.13397 0
M  V30 13056 H 1227.5 -1.06382 5.38492 0
M  V30 13057 H 1227.76 -2.01813 3.9335 0
M  V30 13058 N 1226.82 -1.56058 0.219941 0
M  V30 13059 C 1227.79 -2.18964 -0.677303 0
M  V30 13060 C 1228.79 -1.15105 -1.12283 0
M  V30 13061 O 1229.98 -1.40348 -1.03189 0
M  V30 13062 C 1227.11 -2.81167 -1.92764 0
M  V30 13063 H 1228.3 -2.99623 -0.128877 0
M  V30 13064 H 1225.85 -1.56272 -0.0296744 0
M  V30 13065 H 1226.59 -2.04374 -2.51797 0
M  V30 13066 H 1226.37 -3.5722 -1.61666 0
M  V30 13067 H 1227.86 -3.29391 -2.56693 0
M  V30 13068 N 1228.3 0.053464 -1.57509 0
M  V30 13069 C 1229.23 1.06151 -2.07977 0
M  V30 13070 C 1230.21 1.3924 -0.977047 0
M  V30 13071 O 1231.4 1.48549 -1.25087 0
M  V30 13072 C 1228.53 2.36969 -2.53895 0
M  V30 13073 C 1227.48 2.18186 -3.6821 0
M  V30 13074 C 1226.81 3.54551 -4.00247 0
M  V30 13075 C 1228.11 1.588 -4.97574 0
M  V30 13076 H 1229.8 0.641483 -2.92447 0
M  V30 13077 H 1227.35 0.307122 -1.40687 0
M  V30 13078 H 1229.3 3.07797 -2.87817 0
M  V30 13079 H 1228.02 2.80986 -1.66476 0
M  V30 13080 H 1226.68 1.49796 -3.34599 0
M  V30 13081 H 1226.33 3.96171 -3.09932 0
M  V30 13082 H 1226.03 3.42816 -4.77232 0
M  V30 13083 H 1227.56 4.2678 -4.36682 0
M  V30 13084 H 1228.97 2.19515 -5.29609 0
M  V30 13085 H 1227.37 1.57711 -5.79006 0
M  V30 13086 H 1228.44 0.551254 -4.81756 0
M  V30 13087 N 1229.78 1.54207 0.325255 0
M  V30 13088 C 1231.03 1.71544 1.06091 0
M  V30 13089 C 1231.34 0.495137 1.89229 0
M  V30 13090 O 1232.55 0.54982 2.65874 0
M  V30 13091 C 1231 3.03412 1.93569 0
M  V30 13092 C 1230.61 4.32842 1.1555 0
M  V30 13093 C 1232.36 3.30113 2.66881 0
M  V30 13094 C 1230.26 5.55773 2.02164 0
M  V30 13095 H 1229.19 0.639281 0.399795 0
M  V30 13096 H 1231.84 1.80701 0.319261 0
M  V30 13097 H 1230.23 2.88158 2.71626 0
M  V30 13098 H 1231.4 4.58857 0.42276 0
M  V30 13099 H 1229.71 4.12893 0.539277 0
M  V30 13100 H 1232.31 4.19151 3.31988 0
M  V30 13101 H 1232.65 2.47918 3.34428 0
M  V30 13102 H 1233.19 3.46227 1.95887 0
M  V30 13103 H 1229.93 6.40565 1.39128 0
M  V30 13104 H 1229.45 5.3398 2.73177 0
M  V30 13105 H 1231.13 5.92113 2.60789 0
M  V30 13106 N 1231.26 -0.58723 1.46251 0
M  V30 13107 C 1232.17 -1.72455 1.59048 0
M  V30 13108 C 1233.18 -1.67416 0.47413 0
M  V30 13109 O 1234.36 -1.87406 0.737633 0
M  V30 13110 C 1231.42 -3.08953 1.57318 0
M  V30 13111 C 1230.49 -3.25291 2.80151 0
M  V30 13112 C 1229.72 -4.55277 2.78493 0
M  V30 13113 O 1229.94 -5.38883 1.8698 0
M  V30 13114 O 1228.88 -4.74765 3.69975 0
M  V30 13115 H 1232.7 -1.64606 2.55223 0
M  V30 13116 H 1230.29 -0.753742 1.28993 0
M  V30 13117 H 1232.17 -3.90239 1.59033 0
M  V30 13118 H 1230.84 -3.17249 0.643025 0
M  V30 13119 H 1229.75 -2.43515 2.83991 0
M  V30 13120 H 1231.08 -3.21883 3.7236 0
M  V30 13121 N 1232.74 -1.33881 -0.831482 0
M  V30 13122 C 1233.98 -1.25755 -1.58719 0
M  V30 13123 C 1234.31 0.174746 -1.93713 0
M  V30 13124 O 1233.57 1.13384 -1.59507 0
M  V30 13125 C 1233.86 -2.08544 -2.90249 0
M  V30 13126 C 1233.53 -3.57651 -2.74585 0
M  V30 13127 C 1232.19 -3.983 -2.7002 0
M  V30 13128 C 1234.54 -4.52369 -2.58866 0
M  V30 13129 C 1231.87 -5.31872 -2.47647 0
M  V30 13130 C 1234.22 -5.86112 -2.38025 0
M  V30 13131 C 1232.89 -6.25934 -2.31867 0
M  V30 13132 H 1232.16 -0.460171 -0.580796 0
M  V30 13133 H 1234.81 -1.6554 -0.96274 0
M  V30 13134 H 1233.11 -1.6156 -3.56939 0
M  V30 13135 H 1234.81 -1.99609 -3.47789 0
M  V30 13136 H 1231.4 -3.2538 -2.78973 0
M  V30 13137 H 1235.58 -4.21868 -2.61421 0
M  V30 13138 H 1230.84 -5.61756 -2.41331 0
M  V30 13139 H 1235.01 -6.59103 -2.24847 0
M  V30 13140 H 1232.64 -7.29372 -2.14291 0
M  V30 13141 N 1234.21 1.05064 -1.1747 0
M  V30 13142 C 1235.45 1.79662 -0.974724 0
M  V30 13143 C 1235.82 1.85699 0.487857 0
M  V30 13144 O 1237.02 2.56401 0.806954 0
M  V30 13145 C 1235.29 3.19597 -1.59976 0
M  V30 13146 S 1236.85 4.10657 -1.54615 0
M  V30 13147 H 1233.67 0.618746 -0.350249 0
M  V30 13148 H 1236.27 1.2605 -1.49438 0
M  V30 13149 H 1234.97 3.12807 -2.65669 0
M  V30 13150 H 1234.5 3.78286 -1.07996 0
M  V30 13151 H 1236.52 4.93086 -0.555033 0
M  V30 13152 N 1235.69 0.975146 1.23809 0
M  V30 13153 C 1236.92 0.658023 1.95841 0
M  V30 13154 C 1237.33 -0.778132 1.72458 0
M  V30 13155 O 1236.67 -1.53462 1.00971 0
M  V30 13156 C 1236.73 0.862038 3.49012 0
M  V30 13157 C 1236.4 2.27925 3.96105 0
M  V30 13158 C 1237.4 3.25755 4.05191 0
M  V30 13159 C 1235.08 2.60894 4.29231 0
M  V30 13160 C 1237.07 4.54636 4.46749 0
M  V30 13161 C 1234.76 3.89999 4.70472 0
M  V30 13162 C 1235.76 4.86682 4.79197 0
M  V30 13163 O 1235.45 6.13483 5.19513 0
M  V30 13164 H 1235.18 0.243915 0.630461 0
M  V30 13165 H 1237.73 1.30768 1.58395 0
M  V30 13166 H 1235.96 0.155209 3.86388 0
M  V30 13167 H 1237.65 0.542873 4.02253 0
M  V30 13168 H 1238.42 3.01614 3.79808 0
M  V30 13169 H 1234.3 1.86355 4.21655 0
M  V30 13170 H 1237.84 5.30101 4.53474 0
M  V30 13171 H 1233.74 4.13937 4.95304 0
M  V30 13172 H 1234.51 6.17158 5.37641 0
M  V30 13173 N 1237.17 -1.38817 0.746158 0
M  V30 13174 C 1238.12 -2.30521 0.113517 0
M  V30 13175 C 1239.09 -1.49795 -0.717682 0
M  V30 13176 O 1240.27 -1.78448 -0.675345 0
M  V30 13177 C 1237.41 -3.36185 -0.779343 0
M  V30 13178 C 1236.52 -4.3195 0.0656784 0
M  V30 13179 C 1235.66 -5.24684 -0.829492 0
M  V30 13180 C 1234.7 -6.12097 0.0196112 0
M  V30 13181 N 1233.84 -6.97152 -0.832107 0
M  V30 13182 H 1238.68 -2.84048 0.901136 0
M  V30 13183 H 1236.21 -1.39853 0.456025 0
M  V30 13184 H 1238.17 -3.96048 -1.31156 0
M  V30 13185 H 1236.8 -2.84085 -1.53282 0
M  V30 13186 H 1235.85 -3.73611 0.715445 0
M  V30 13187 H 1237.16 -4.93551 0.721735 0
M  V30 13188 H 1236.32 -5.89627 -1.42915 0
M  V30 13189 H 1235.06 -4.63431 -1.5193 0
M  V30 13190 H 1234.06 -5.46156 0.631991 0
M  V30 13191 H 1235.29 -6.75416 0.706369 0
M  V30 13192 H 1233.23 -6.38456 -1.507 0
M  V30 13193 H 1233.15 -7.55642 -0.232782 0
M  V30 13194 H 1234.42 -7.66513 -1.41697 0
M  V30 13195 N 1238.65 -0.49465 -1.49636 0
M  V30 13196 C 1239.87 0.051305 -2.07337 0
M  V30 13197 C 1240.3 1.30637 -1.35335 0
M  V30 13198 O 1239.66 1.76647 -0.408126 0
M  V30 13199 C 1239.7 0.294425 -3.59396 0
M  V30 13200 O 1238.81 1.3704 -3.88965 0
M  V30 13201 H 1238.15 -0.023408 -0.663587 0
M  V30 13202 H 1240.68 -0.692451 -1.92526 0
M  V30 13203 H 1240.69 0.527854 -4.04571 0
M  V30 13204 H 1239.36 -0.622583 -4.11214 0
M  V30 13205 H 1237.94 1.12242 -3.55607 0
M  V30 13206 N 1240.13 1.55939 -0.228214 0
M  V30 13207 C 1241.54 1.59094 0.12704 0
M  V30 13208 C 1241.74 1.24514 1.58425 0
M  V30 13209 O 1240.8 0.983544 2.32557 0
M  V30 13210 C 1242.11 2.99999 -0.205268 0
M  V30 13211 C 1243.66 3.1265 -0.148046 0
M  V30 13212 C 1244.13 4.55743 -0.454122 0
M  V30 13213 N 1245.62 4.61435 -0.403937 0
M  V30 13214 C 1246.36 5.70101 -0.614173 0
M  V30 13215 N 1245.86 6.87104 -0.88654 0
M  V30 13216 N 1247.65 5.5944 -0.546153 0
M  V30 13217 H 1239.8 1.7669 -1.17874 0
M  V30 13218 H 1242.06 0.821599 -0.472947 0
M  V30 13219 H 1241.77 3.29976 -1.21692 0
M  V30 13220 H 1241.64 3.74177 0.476573 0
M  V30 13221 H 1244.03 2.82465 0.854255 0
M  V30 13222 H 1244.11 2.40786 -0.863462 0
M  V30 13223 H 1243.75 4.86646 -1.45389 0
M  V30 13224 H 1243.68 5.25841 0.282561 0
M  V30 13225 H 1246.18 3.77363 -0.201388 0
M  V30 13226 H 1246.49 7.65839 -1.03488 0
M  V30 13227 H 1244.83 6.88833 -0.923808 0
M  V30 13228 H 1248.02 4.6691 -0.33355 0
M  V30 13229 H 1248.2 6.44061 -0.713402 0
M  V30 13230 N 1241.6 -0.0451101 1.57535 0
M  V30 13231 C 1242.57 -1.03521 2.0449 0
M  V30 13232 C 1243.57 -1.30009 0.946265 0
M  V30 13233 O 1244.76 -1.25282 1.21038 0
M  V30 13234 C 1241.89 -2.37221 2.44824 0
M  V30 13235 H 1243.08 -0.629943 2.93209 0
M  V30 13236 H 1240.64 -0.291544 1.53557 0
M  V30 13237 H 1241.37 -2.82528 1.59212 0
M  V30 13238 H 1241.16 -2.19329 3.25018 0
M  V30 13239 H 1242.65 -3.08337 2.81635 0
M  V30 13240 N 1243.08 -1.54377 -0.317073 0
M  V30 13241 C 1243.99 -1.87247 -1.41335 0
M  V30 13242 C 1245.01 -0.765017 -1.5628 0
M  V30 13243 O 1246.18 -1.05994 -1.71252 0
M  V30 13244 C 1243.25 -2.0988 -2.75955 0
M  V30 13245 C 1242.31 -3.33658 -2.70131 0
M  V30 13246 C 1241.54 -3.55202 -3.9833 0
M  V30 13247 O 1241.77 -2.80061 -4.96913 0
M  V30 13248 O 1240.7 -4.48693 -4.01196 0
M  V30 13249 H 1244.53 -2.80481 -1.16465 0
M  V30 13250 H 1242.11 -1.40364 -0.511687 0
M  V30 13251 H 1243.99 -2.2606 -3.55633 0
M  V30 13252 H 1242.67 -1.19834 -3.00702 0
M  V30 13253 H 1241.58 -3.22857 -1.88981 0
M  V30 13254 H 1242.91 -4.23782 -2.50338 0
M  V30 13255 N 1244.56 0.579466 -1.4656 0
M  V30 13256 C 1245.52 1.67033 -1.56948 0
M  V30 13257 C 1246.52 1.54481 -0.446361 0
M  V30 13258 O 1247.71 1.5904 -0.710767 0
M  V30 13259 C 1244.85 3.06474 -1.49286 0
M  V30 13260 H 1246.04 1.59179 -2.54169 0
M  V30 13261 H 1243.59 0.797573 -1.34419 0
M  V30 13262 H 1244.33 3.1988 -0.533572 0
M  V30 13263 H 1244.11 3.16993 -2.30776 0
M  V30 13264 H 1245.6 3.85879 -1.59648 0
M  V30 13265 N 1246.04 1.3432 0.824371 0
M  V30 13266 C 1246.99 1.25776 1.93517 0
M  V30 13267 C 1247.96 0.133298 1.65564 0
M  V30 13268 O 1249.14 0.31403 1.88198 0
M  V30 13269 C 1246.28 1.01766 3.29754 0
M  V30 13270 C 1245.39 2.22973 3.7001 0
M  V30 13271 C 1244.53 1.92258 4.95187 0
M  V30 13272 C 1243.57 3.09616 5.2802 0
M  V30 13273 N 1242.7 2.78793 6.44375 0
M  V30 13274 H 1247.54 2.20774 2.00157 0
M  V30 13275 H 1245.08 1.09766 0.979274 0
M  V30 13276 H 1247.04 0.858831 4.08265 0
M  V30 13277 H 1245.67 0.10437 3.22631 0
M  V30 13278 H 1244.72 2.49781 2.86903 0
M  V30 13279 H 1246.03 3.10661 3.90245 0
M  V30 13280 H 1245.19 1.73102 5.81481 0
M  V30 13281 H 1243.93 1.01827 4.76951 0
M  V30 13282 H 1242.93 3.29368 4.40223 0
M  V30 13283 H 1244.16 4.00822 5.48196 0
M  V30 13284 H 1242.1 1.90938 6.27598 0
M  V30 13285 H 1242.02 3.60014 6.64775 0
M  V30 13286 H 1243.29 2.63139 7.33743 0
M  V30 13287 N 1247.52 -1.0444 1.18026 0
M  V30 13288 C 1248.93 -1.29766 0.929143 0
M  V30 13289 C 1249.13 -1.97338 -0.407436 0
M  V30 13290 O 1248.19 -2.25166 -1.14265 0
M  V30 13291 C 1249.5 -2.16002 2.09197 0
M  V30 13292 C 1251.05 -2.29361 2.12985 0
M  V30 13293 C 1251.52 -3.18962 3.28675 0
M  V30 13294 N 1253.02 -3.26549 3.28512 0
M  V30 13295 C 1253.75 -3.96025 4.14671 0
M  V30 13296 N 1253.25 -4.67863 5.10956 0
M  V30 13297 N 1255.04 -3.92266 4.02597 0
M  V30 13298 H 1247.19 -0.58984 2.04046 0
M  V30 13299 H 1249.45 -0.322752 0.891367 0
M  V30 13300 H 1249.16 -1.73653 3.05839 0
M  V30 13301 H 1249.03 -3.16667 2.04943 0
M  V30 13302 H 1251.42 -2.70948 1.16924 0
M  V30 13303 H 1251.5 -1.28299 2.21298 0
M  V30 13304 H 1251.15 -2.78087 4.25006 0
M  V30 13305 H 1251.08 -4.20047 3.17598 0
M  V30 13306 H 1253.57 -2.75371 2.58804 0
M  V30 13307 H 1253.88 -5.1846 5.73079 0
M  V30 13308 H 1252.22 -4.6678 5.14919 0
M  V30 13309 H 1255.42 -3.35273 3.26665 0
M  V30 13310 H 1255.59 -4.4614 4.69961 0
M  V30 13311 N 1248.99 -0.981699 -1.2329 0
M  V30 13312 C 1249.93 -0.467781 -2.23354 0
M  V30 13313 C 1250.91 0.465814 -1.55785 0
M  V30 13314 O 1252.09 0.393959 -1.84337 0
M  V30 13315 C 1249.22 0.323133 -3.37155 0
M  V30 13316 C 1248.26 -0.554796 -4.22876 0
M  V30 13317 S 1249.1 -2.00343 -4.96612 0
M  V30 13318 C 1250.25 -1.22169 -6.13861 0
M  V30 13319 H 1250.48 -1.31573 -2.66601 0
M  V30 13320 H 1248.02 -0.787793 -1.3279 0
M  V30 13321 H 1249.98 0.773448 -4.03148 0
M  V30 13322 H 1248.64 1.14622 -2.92439 0
M  V30 13323 H 1247.83 0.0531667 -5.03972 0
M  V30 13324 H 1247.43 -0.94141 -3.61958 0
M  V30 13325 H 1249.72 -0.483668 -6.75771 0
M  V30 13326 H 1250.67 -2.00752 -6.79046 0
M  V30 13327 H 1251.07 -0.739905 -5.5963 0
M  V30 13328 N 1250.47 1.3842 -0.753509 0
M  V30 13329 C 1251.42 2.30457 -0.12574 0
M  V30 13330 C 1252.39 1.50173 0.709728 0
M  V30 13331 O 1253.57 1.78804 0.665872 0
M  V30 13332 C 1250.71 3.36593 0.761503 0
M  V30 13333 C 1249.83 4.31909 -0.0885848 0
M  V30 13334 C 1248.96 5.25116 0.801655 0
M  V30 13335 C 1248 6.12078 -0.0520719 0
M  V30 13336 N 1247.14 6.97583 0.795124 0
M  V30 13337 H 1251.98 2.83567 -0.916187 0
M  V30 13338 H 1249.52 1.39609 -0.463436 0
M  V30 13339 H 1251.47 3.96738 1.29054 0
M  V30 13340 H 1250.1 2.84894 1.51774 0
M  V30 13341 H 1249.16 3.73227 -0.735249 0
M  V30 13342 H 1250.47 4.93161 -0.747899 0
M  V30 13343 H 1249.62 5.90377 1.39786 0
M  V30 13344 H 1248.36 4.6423 1.4947 0
M  V30 13345 H 1247.37 5.45813 -0.660946 0
M  V30 13346 H 1248.59 6.75032 -0.742178 0
M  V30 13347 H 1246.54 6.39246 1.47312 0
M  V30 13348 H 1246.45 7.55754 0.192705 0
M  V30 13349 H 1247.72 7.67254 1.3763 0
M  V30 13350 N 1251.95 0.502579 1.49372 0
M  V30 13351 C 1253.2 -0.0414423 2.02758 0
M  V30 13352 C 1253.53 -1.36499 1.38136 0
M  V30 13353 O 1252.8 -1.87487 0.517593 0
M  V30 13354 C 1253.09 -0.192333 3.59586 0
M  V30 13355 C 1252.94 1.15445 4.34733 0
M  V30 13356 C 1254.26 -0.932218 4.30114 0
M  V30 13357 H 1251.38 -0.0135869 0.736875 0
M  V30 13358 H 1254.02 0.654296 1.78379 0
M  V30 13359 H 1252.17 -0.78491 3.80488 0
M  V30 13360 H 1253.84 1.78603 4.25322 0
M  V30 13361 H 1252.09 1.74333 3.97228 0
M  V30 13362 H 1252.76 1.00216 5.42827 0
M  V30 13363 H 1255.23 -0.429632 4.13876 0
M  V30 13364 H 1254.11 -1.00664 5.39591 0
M  V30 13365 H 1254.37 -1.9763 3.95468 0
M  V30 13366 N 1253.43 -1.55816 0.23648 0
M  V30 13367 C 1254.39 -2.1967 -0.654041 0
M  V30 13368 C 1255.39 -1.1629 -1.11056 0
M  V30 13369 O 1256.58 -1.41435 -1.01695 0
M  V30 13370 C 1253.71 -2.83196 -1.89771 0
M  V30 13371 H 1254.91 -2.99743 -0.0970911 0
M  V30 13372 H 1252.46 -1.56295 -0.013098 0
M  V30 13373 H 1253.19 -2.07033 -2.49616 0
M  V30 13374 H 1252.98 -3.58915 -1.57868 0
M  V30 13375 H 1254.47 -3.32095 -2.53184 0
M  V30 13376 N 1254.91 0.036755 -1.57557 0
M  V30 13377 C 1255.85 1.03975 -2.06053 0
M  V30 13378 C 1256.82 1.36384 -0.948089 0
M  V30 13379 O 1258.01 1.46853 -1.21815 0
M  V30 13380 C 1255.15 2.33796 -2.53837 0
M  V30 13381 C 1254.26 2.07614 -3.78841 0
M  V30 13382 C 1253.4 3.3125 -4.15267 0
M  V30 13383 C 1252.44 3.00587 -5.33211 0
M  V30 13384 N 1251.57 4.16653 -5.65106 0
M  V30 13385 H 1256.41 0.61924 -2.91495 0
M  V30 13386 H 1253.95 0.294151 -1.44129 0
M  V30 13387 H 1255.91 3.09639 -2.79606 0
M  V30 13388 H 1254.54 2.73584 -1.71323 0
M  V30 13389 H 1253.59 1.22302 -3.60203 0
M  V30 13390 H 1254.9 1.80989 -4.64806 0
M  V30 13391 H 1254.06 4.15466 -4.42123 0
M  V30 13392 H 1252.79 3.60981 -3.27939 0
M  V30 13393 H 1251.8 2.14772 -5.06115 0
M  V30 13394 H 1253.02 2.72142 -6.22186 0
M  V30 13395 H 1250.97 4.4635 -4.80737 0
M  V30 13396 H 1250.89 3.93425 -6.45564 0
M  V30 13397 H 1252.16 5.01764 -5.96534 0
M  V30 13398 N 1256.39 1.54543 0.308881 0
M  V30 13399 C 1257.33 1.85693 1.40074 0
M  V30 13400 C 1258.33 0.730004 1.52864 0
M  V30 13401 O 1259.53 0.913884 1.55075 0
M  V30 13402 H 1255.91 0.588842 0.467728 0
M  V30 13403 H 1257.88 2.76973 1.11034 0
M  V30 13404 C 1256.63 2.11399 2.76054 0
M  V30 13405 H 1255.95 2.97583 2.66992 0
M  V30 13406 H 1257.39 2.37139 3.51484 0
M  V30 13407 C 1255.85 0.91007 3.24375 0
M  V30 13408 O 1256.38 0.12663 4.015 0
M  V30 13409 N 1254.59 0.717629 2.816 0
M  V30 13410 H 1254.13 1.35637 2.18998 0
M  V30 13411 H 1254.09 -0.0863585 3.14281 0
M  V30 13412 N 1257.86 -0.571685 1.46866 0
M  V30 13413 C 1258.83 -1.66198 1.57832 0
M  V30 13414 C 1259.83 -1.54242 0.454547 0
M  V30 13415 O 1261.02 -1.58661 0.719191 0
M  V30 13416 C 1258.15 -3.05678 1.5091 0
M  V30 13417 H 1259.34 -1.57829 2.5501 0
M  V30 13418 H 1256.89 -0.790433 1.3484 0
M  V30 13419 H 1257.63 -3.19593 0.550529 0
M  V30 13420 H 1257.41 -3.15765 2.32454 0
M  V30 13421 H 1258.9 -3.85027 1.61692 0
M  V30 13422 N 1259.34 -1.34755 -0.817236 0
M  V30 13423 C 1260.27 -1.22648 -1.93624 0
M  V30 13424 C 1261.29 -0.152226 -1.62087 0
M  V30 13425 O 1262.48 -0.404578 -1.73855 0
M  V30 13426 C 1259.58 -0.863519 -3.27714 0
M  V30 13427 C 1258.75 -2.03394 -3.87233 0
M  V30 13428 C 1257.81 -1.64846 -4.99712 0
M  V30 13429 O 1256.83 -2.3658 -5.17705 0
M  V30 13430 N 1258.04 -0.565909 -5.77735 0
M  V30 13431 H 1260.8 -2.19051 -2.0454 0
M  V30 13432 H 1258.36 -1.27785 -0.994113 0
M  V30 13433 H 1260.35 -0.58733 -4.00415 0
M  V30 13434 H 1258.92 0.0104987 -3.12598 0
M  V30 13435 H 1258.14 -2.47454 -3.06856 0
M  V30 13436 H 1259.43 -2.81655 -4.23731 0
M  V30 13437 H 1258.83 0.030313 -5.65692 0
M  V30 13438 H 1257.39 -0.349467 -6.50862 0
M  V30 13439 N 1260.82 1.03812 -1.18578 0
M  V30 13440 C 1261.77 2.13994 -0.911563 0
M  V30 13441 C 1262.76 1.68907 0.129131 0
M  V30 13442 O 1263.97 1.7999 -0.0192557 0
M  V30 13443 H 1260.34 0.698996 -0.277324 0
M  V30 13444 H 1262.31 2.34318 -1.84763 0
M  V30 13445 C 1261.06 3.44689 -0.456591 0
M  V30 13446 H 1260.39 3.79793 -1.2489 0
M  V30 13447 H 1261.83 4.22911 -0.303738 0
M  V30 13448 C 1260.28 3.26568 0.827961 0
M  V30 13449 O 1260.81 3.54376 1.89158 0
M  V30 13450 N 1259.02 2.79893 0.781567 0
M  V30 13451 H 1258.57 2.57462 -0.0842145 0
M  V30 13452 H 1258.53 2.68148 1.64146 0
M  V30 13453 N 1262.3 0.988223 1.22768 0
M  V30 13454 C 1263.55 0.656941 1.90702 0
M  V30 13455 C 1263.86 -0.814058 1.77855 0
M  V30 13456 O 1265.07 -1.25673 2.40663 0
M  V30 13457 C 1263.52 1.12445 3.41883 0
M  V30 13458 C 1263.13 2.62034 3.63376 0
M  V30 13459 C 1264.87 0.867277 4.15546 0
M  V30 13460 C 1262.78 3.02412 5.08233 0
M  V30 13461 H 1261.71 0.242012 0.714105 0
M  V30 13462 H 1264.36 1.19716 1.39069 0
M  V30 13463 H 1262.74 0.512386 3.92671 0
M  V30 13464 H 1263.92 3.28546 3.23101 0
M  V30 13465 H 1262.23 2.85583 3.03037 0
M  V30 13466 H 1264.83 1.14471 5.22303 0
M  V30 13467 H 1265.17 -0.196611 4.15835 0
M  V30 13468 H 1265.71 1.4413 3.70771 0
M  V30 13469 H 1262.44 4.07957 5.1308 0
M  V30 13470 H 1261.96 2.406 5.49429 0
M  V30 13471 H 1263.64 2.93452 5.76624 0
M  V30 13472 N 1263.78 -1.38018 0.760839 0
M  V30 13473 C 1264.72 -2.32251 0.127425 0
M  V30 13474 C 1265.72 -1.54387 -0.69722 0
M  V30 13475 O 1266.92 -1.69864 -0.595505 0
M  V30 13476 H 1263.3 -0.751666 0.0224141 0
M  V30 13477 H 1265.27 -2.8327 0.93813 0
M  V30 13478 C 1264.02 -3.39606 -0.745849 0
M  V30 13479 H 1263.34 -3.99618 -0.120679 0
M  V30 13480 H 1264.78 -4.07931 -1.15621 0
M  V30 13481 C 1263.24 -2.78778 -1.89167 0
M  V30 13482 O 1263.77 -2.68661 -2.98637 0
M  V30 13483 N 1261.98 -2.36481 -1.68894 0
M  V30 13484 H 1261.52 -2.4491 -0.798551 0
M  V30 13485 H 1261.48 -1.96126 -2.45728 0
M  V30 13486 N 1265.25 -0.510493 -1.49103 0
M  V30 13487 C 1266.66 -0.0650831 -1.86587 0
M  V30 13488 C 1267.02 1.35185 -1.42195 0
M  V30 13489 O 1266.14 2.0091 -0.804004 0
M  V30 13490 C 1266.74 -0.111333 -3.38617 0
M  V30 13491 C 1265.29 0.278782 -3.75366 0
M  V30 13492 C 1264.44 -0.479707 -2.73119 0
M  V30 13493 H 1267.39 -0.722784 -1.41285 0
M  V30 13494 H 1267.41 0.681706 -3.74343 0
M  V30 13495 H 1266.93 -1.14271 -3.70896 0
M  V30 13496 H 1265.03 1.31304 -3.48698 0
M  V30 13497 H 1265.14 -0.047271 -4.79077 0
M  V30 13498 H 1263.5 0.0716459 -2.54599 0
M  V30 13499 H 1264.29 -1.51135 -3.08242 0
M  V30 13500 N 1266.73 1.55688 -0.24474 0
M  V30 13501 C 1267.96 2.03743 0.387776 0
M  V30 13502 C 1268.38 1.1229 1.50906 0
M  V30 13503 O 1267.74 0.115445 1.80932 0
M  V30 13504 C 1267.79 3.49825 0.874927 0
M  V30 13505 O 1266.89 3.61504 1.98466 0
M  V30 13506 H 1266.23 0.658561 0.0848107 0
M  V30 13507 H 1268.76 2.01224 -0.370165 0
M  V30 13508 H 1268.77 3.90603 1.17871 0
M  V30 13509 H 1267.45 4.15864 0.0543852 0
M  V30 13510 H 1266.02 3.32622 1.68574 0
M  V30 13511 N 1268.21 -0.0283989 1.57574 0
M  V30 13512 C 1269.43 -0.734537 1.93957 0
M  V30 13513 C 1269.86 -1.68062 0.844787 0
M  V30 13514 O 1269.22 -1.802 -0.199432 0
M  V30 13515 C 1269.27 -1.46716 3.29404 0
M  V30 13516 O 1268.37 -2.58036 3.217 0
M  V30 13517 H 1267.71 -0.197507 0.633946 0
M  V30 13518 H 1270.24 0.0163258 2.04593 0
M  V30 13519 H 1270.25 -1.83693 3.64309 0
M  V30 13520 H 1268.93 -0.773292 4.08648 0
M  V30 13521 H 1267.5 -2.23597 2.98427 0
M  V30 13522 N 1269.69 -1.54705 -0.300681 0
M  V30 13523 C 1270.91 -1.78318 -1.05913 0
M  V30 13524 C 1271.34 -0.541177 -1.80147 0
M  V30 13525 O 1270.7 0.508291 -1.74029 0
M  V30 13526 C 1270.74 -2.99041 -2.01511 0
M  V30 13527 O 1269.85 -2.72188 -3.09818 0
M  V30 13528 H 1269.19 -0.590197 -0.304242 0
M  V30 13529 H 1271.72 -2.01789 -0.338006 0
M  V30 13530 H 1271.73 -3.2702 -2.43971 0
M  V30 13531 H 1270.4 -3.89098 -1.46886 0
M  V30 13532 H 1268.98 -2.55227 -2.71871 0
M  V30 13533 N 1271.17 0.563888 -1.47167 0
M  V30 13534 C 1272.1 1.68655 -1.55204 0
M  V30 13535 C 1273.11 1.56776 -0.438769 0
M  V30 13536 O 1274.3 1.63856 -0.708059 0
M  V30 13537 C 1271.4 3.07068 -1.43396 0
M  V30 13538 C 1270.57 3.44767 -2.69174 0
M  V30 13539 C 1269.63 4.62316 -2.51298 0
M  V30 13540 O 1268.66 4.67231 -3.2509 0
M  V30 13541 N 1269.86 5.58389 -1.58688 0
M  V30 13542 H 1272.63 1.62209 -2.52009 0
M  V30 13543 H 1270.19 0.750359 -1.43462 0
M  V30 13544 H 1272.18 3.83529 -1.29181 0
M  V30 13545 H 1270.75 3.07777 -0.546997 0
M  V30 13546 H 1269.97 2.57821 -2.98198 0
M  V30 13547 H 1271.26 3.66726 -3.52689 0
M  V30 13548 H 1270.65 5.57169 -0.978737 0
M  V30 13549 H 1269.21 6.34204 -1.50428 0
M  V30 13550 N 1272.64 1.35187 0.810078 0
M  V30 13551 C 1273.59 1.27848 1.94313 0
M  V30 13552 C 1274.59 0.174081 1.68503 0
M  V30 13553 O 1275.79 0.339848 1.76763 0
M  V30 13554 H 1272.17 0.397504 0.638353 0
M  V30 13555 H 1274.14 2.23579 1.97623 0
M  V30 13556 C 1272.89 1.06382 3.31026 0
M  V30 13557 H 1272.21 1.90601 3.51441 0
M  V30 13558 H 1273.65 1.05287 4.1072 0
M  V30 13559 C 1272.11 -0.232462 3.36097 0
M  V30 13560 O 1272.64 -1.22946 3.82423 0
M  V30 13561 N 1270.85 -0.270028 2.89343 0
M  V30 13562 H 1270.39 0.541891 2.51836 0
M  V30 13563 H 1270.35 -1.13708 2.93117 0
M  V30 13564 N 1274.12 -1.03182 1.19127 0
M  V30 13565 C 1275.35 -1.80703 1.01791 0
M  V30 13566 C 1275.77 -1.83147 -0.428824 0
M  V30 13567 O 1275.13 -1.2553 -1.30812 0
M  V30 13568 C 1275.18 -3.23754 1.58794 0
M  V30 13569 O 1274.28 -4.04261 0.815274 0
M  V30 13570 H 1273.62 -0.557944 0.359992 0
M  V30 13571 H 1276.15 -1.29887 1.58084 0
M  V30 13572 H 1276.16 -3.7451 1.61884 0
M  V30 13573 H 1274.84 -3.2129 2.64094 0
M  V30 13574 H 1273.42 -3.62909 0.857392 0
M  V30 13575 N 1275.6 -0.99472 -1.22242 0
M  V30 13576 C 1276.53 -0.504783 -2.23572 0
M  V30 13577 C 1277.55 0.401105 -1.57781 0
M  V30 13578 O 1278.73 0.202948 -1.77343 0
M  V30 13579 C 1275.83 0.287524 -3.37678 0
M  V30 13580 C 1275.01 -0.614941 -4.33056 0
M  V30 13581 C 1274.07 0.125974 -5.26049 0
M  V30 13582 O 1273.09 -0.489234 -5.67094 0
M  V30 13583 N 1274.29 1.40772 -5.63173 0
M  V30 13584 H 1277.06 -1.37612 -2.66238 0
M  V30 13585 H 1274.62 -0.86965 -1.3656 0
M  V30 13586 H 1276.61 0.791884 -3.96877 0
M  V30 13587 H 1275.18 1.05998 -2.9408 0
M  V30 13588 H 1274.4 -1.29994 -3.72149 0
M  V30 13589 H 1275.69 -1.22947 -4.93722 0
M  V30 13590 H 1275.09 1.92884 -5.31801 0
M  V30 13591 H 1273.65 1.85723 -6.2478 0
M  V30 13592 N 1277.08 1.37613 -0.768148 0
M  V30 13593 C 1278.03 2.3218 -0.13974 0
M  V30 13594 C 1279.02 1.54754 0.689023 0
M  V30 13595 O 1280.23 1.70177 0.586489 0
M  V30 13596 H 1276.6 0.751536 -0.0264001 0
M  V30 13597 H 1278.57 2.82768 -0.953139 0
M  V30 13598 C 1277.32 3.39997 0.727829 0
M  V30 13599 H 1276.64 3.99676 0.0994851 0
M  V30 13600 H 1278.08 4.08538 1.13456 0
M  V30 13601 C 1276.54 2.79778 1.87686 0
M  V30 13602 O 1277.07 2.70241 2.97208 0
M  V30 13603 N 1275.28 2.37373 1.67637 0
M  V30 13604 H 1274.83 2.4533 0.785552 0
M  V30 13605 H 1274.78 1.97426 2.44684 0
M  V30 13606 N 1278.56 0.518393 1.4883 0
M  V30 13607 C 1279.8 -0.0199053 2.0249 0
M  V30 13608 C 1280.13 -1.35375 1.39657 0
M  V30 13609 O 1279.39 -1.88454 0.527586 0
M  V30 13610 C 1279.69 -0.203001 3.56823 0
M  V30 13611 C 1279.35 1.05502 4.38384 0
M  V30 13612 C 1278.01 1.39982 4.60389 0
M  V30 13613 C 1280.37 1.89042 4.85708 0
M  V30 13614 C 1277.69 2.57922 5.26966 0
M  V30 13615 C 1280.05 3.06151 5.53583 0
M  V30 13616 C 1278.71 3.40991 5.73831 0
M  V30 13617 H 1277.98 -0.00728388 0.740964 0
M  V30 13618 H 1280.63 0.682073 1.78941 0
M  V30 13619 H 1278.93 -0.987653 3.79147 0
M  V30 13620 H 1280.63 -0.634234 3.95953 0
M  V30 13621 H 1277.22 0.77647 4.21508 0
M  V30 13622 H 1281.4 1.63716 4.6852 0
M  V30 13623 H 1276.66 2.85132 5.40842 0
M  V30 13624 H 1280.83 3.71198 5.89224 0
M  V30 13625 H 1278.46 4.32479 6.25193 0
M  V30 13626 N 1280.03 -1.55556 0.252993 0
M  V30 13627 C 1281 -2.20351 -0.630705 0
M  V30 13628 C 1282 -1.17461 -1.09816 0
M  V30 13629 O 1283.19 -1.42505 -1.00189 0
M  V30 13630 C 1280.32 -2.85192 -1.86757 0
M  V30 13631 H 1281.51 -2.99829 -0.0652939 0
M  V30 13632 H 1279.07 -1.563 0.00347982 0
M  V30 13633 H 1279.8 -2.09669 -2.47406 0
M  V30 13634 H 1279.59 -3.60569 -1.54053 0
M  V30 13635 H 1281.08 -3.34762 -2.49648 0
M  V30 13636 N 1281.51 0.0200419 -1.57587 0
M  V30 13637 C 1282.74 0.720556 -1.93947 0
M  V30 13638 C 1283.16 1.68407 -0.853499 0
M  V30 13639 O 1282.51 1.81713 0.169337 0
M  V30 13640 C 1282.56 1.46982 -3.3027 0
M  V30 13641 O 1282.28 0.544971 -4.34697 0
M  V30 13642 C 1283.79 2.26667 -3.80968 0
M  V30 13643 H 1281.01 0.201956 -0.639887 0
M  V30 13644 H 1283.55 -0.0251175 -2.04485 0
M  V30 13645 H 1281.7 2.16729 -3.21103 0
M  V30 13646 H 1282.12 1.07139 -5.13441 0
M  V30 13647 H 1283.59 2.74621 -4.78839 0
M  V30 13648 H 1284.07 3.0848 -3.12629 0
M  V30 13649 H 1284.68 1.61976 -3.93248 0
M  V30 13650 N 1282.99 1.54862 0.292472 0
M  V30 13651 C 1284.22 1.78291 1.04383 0
M  V30 13652 C 1284.63 0.546703 1.81129 0
M  V30 13653 O 1283.97 -0.493286 1.76953 0
M  V30 13654 C 1284.03 2.94321 2.06435 0
M  V30 13655 C 1283.7 4.32095 1.48806 0
M  V30 13656 C 1284.69 5.11808 0.91369 0
M  V30 13657 C 1282.38 4.78714 1.52112 0
M  V30 13658 C 1284.37 6.36266 0.380053 0
M  V30 13659 C 1282.06 6.03132 0.983613 0
M  V30 13660 C 1283.06 6.81744 0.41406 0
M  V30 13661 O 1282.75 8.03817 -0.115268 0
M  V30 13662 H 1282.48 0.598147 0.314954 0
M  V30 13663 H 1285.03 2.02655 0.334661 0
M  V30 13664 H 1283.26 2.65602 2.81056 0
M  V30 13665 H 1284.95 3.05249 2.67541 0
M  V30 13666 H 1285.72 4.76931 0.880988 0
M  V30 13667 H 1281.6 4.17549 1.95382 0
M  V30 13668 H 1285.14 6.9757 -0.0651481 0
M  V30 13669 H 1281.04 6.37494 1.01349 0
M  V30 13670 H 1281.81 8.185 -0.00277496 0
M  V30 13671 N 1284.47 -0.556076 1.47464 0
M  V30 13672 C 1285.42 -1.66304 1.60036 0
M  V30 13673 C 1286.39 -1.60074 0.443348 0
M  V30 13674 O 1287.57 -1.7889 0.663545 0
M  V30 13675 C 1284.71 -3.04624 1.62167 0
M  V30 13676 C 1283.82 -3.21283 2.88793 0
M  V30 13677 C 1282.96 -4.50008 2.82252 0
M  V30 13678 C 1282 -4.60103 4.03698 0
M  V30 13679 N 1281.13 -5.80184 3.95387 0
M  V30 13680 H 1285.97 -1.54897 2.5458 0
M  V30 13681 H 1283.51 -0.754533 1.26274 0
M  V30 13682 H 1285.47 -3.84721 1.61386 0
M  V30 13683 H 1284.1 -3.14865 0.711348 0
M  V30 13684 H 1283.15 -2.34611 2.99436 0
M  V30 13685 H 1284.46 -3.24607 3.78724 0
M  V30 13686 H 1283.62 -5.38366 2.79726 0
M  V30 13687 H 1282.36 -4.49165 1.90005 0
M  V30 13688 H 1281.36 -3.70157 4.06527 0
M  V30 13689 H 1282.59 -4.62704 4.97073 0
M  V30 13690 H 1280.53 -5.80288 3.05944 0
M  V30 13691 H 1280.45 -5.8489 4.78998 0
M  V30 13692 H 1281.72 -6.709 3.96879 0
M  V30 13693 N 1285.95 -1.35615 -0.802897 0
M  V30 13694 C 1286.86 -1.3096 -1.94645 0
M  V30 13695 C 1287.87 -0.213909 -1.7268 0
M  V30 13696 O 1289.05 -0.443932 -1.96446 0
M  V30 13697 C 1286.11 -1.08483 -3.2929 0
M  V30 13698 C 1285.18 -2.27401 -3.64126 0
M  V30 13699 C 1284.41 -2.05987 -4.92347 0
M  V30 13700 O 1284.63 -1.02819 -5.61057 0
M  V30 13701 O 1283.57 -2.93439 -5.25526 0
M  V30 13702 H 1287.39 -2.27209 -2.01519 0
M  V30 13703 H 1284.98 -1.16024 -0.941214 0
M  V30 13704 H 1286.86 -0.978118 -4.09891 0
M  V30 13705 H 1285.53 -0.152885 -3.23339 0
M  V30 13706 H 1284.44 -2.43638 -2.83886 0
M  V30 13707 H 1285.77 -3.19055 -3.74786 0
M  V30 13708 N 1287.43 1.02549 -1.19673 0
M  V30 13709 C 1288.67 1.75656 -0.999463 0
M  V30 13710 C 1288.99 1.89238 0.470517 0
M  V30 13711 O 1288.26 1.42843 1.34062 0
M  V30 13712 H 1286.84 0.650732 -0.366821 0
M  V30 13713 H 1289.51 1.23684 -1.50627 0
M  V30 13714 H 1288.6 2.76353 -1.45035 0
M  V30 13715 N 1288.9 1.00119 1.21713 0
M  V30 13716 C 1290.13 0.699416 1.94401 0
M  V30 13717 C 1290.54 -0.741376 1.7407 0
M  V30 13718 O 1289.88 -1.51286 1.04203 0
M  V30 13719 C 1289.95 0.935875 3.47105 0
M  V30 13720 C 1289.61 2.36276 3.91181 0
M  V30 13721 C 1290.61 3.34276 3.9819 0
M  V30 13722 C 1288.29 2.6994 4.23601 0
M  V30 13723 C 1290.29 4.6401 4.37005 0
M  V30 13724 C 1287.97 3.99891 4.62094 0
M  V30 13725 C 1288.97 4.96737 4.68766 0
M  V30 13726 O 1288.66 6.24364 5.06384 0
M  V30 13727 H 1288.39 0.257233 0.625146 0
M  V30 13728 H 1290.95 1.34098 1.55585 0
M  V30 13729 H 1289.18 0.237133 3.85972 0
M  V30 13730 H 1290.86 0.628075 4.01011 0
M  V30 13731 H 1291.63 3.09603 3.73324 0
M  V30 13732 H 1287.51 1.95257 4.17607 0
M  V30 13733 H 1291.05 5.39601 4.42128 0
M  V30 13734 H 1286.95 4.2435 4.86412 0
M  V30 13735 H 1287.72 6.28424 5.24429 0
M  V30 13736 N 1290.38 -1.37203 0.775435 0
M  V30 13737 C 1291.33 -2.32102 0.152051 0
M  V30 13738 C 1292.32 -1.55117 -0.680806 0
M  V30 13739 O 1293.53 -1.70486 -0.577455 0
M  V30 13740 H 1289.9 -0.751386 0.0303853 0
M  V30 13741 H 1291.88 -2.82259 0.968121 0
M  V30 13742 C 1290.62 -3.40378 -0.709788 0
M  V30 13743 H 1289.95 -3.99723 -0.0782879 0
M  V30 13744 H 1291.39 -4.09134 -1.11288 0
M  V30 13745 C 1289.85 -2.80769 -1.862 0
M  V30 13746 O 1290.38 -2.71813 -2.95771 0
M  V30 13747 N 1288.58 -2.38259 -1.66376 0
M  V30 13748 H 1288.13 -2.45743 -0.772531 0
M  V30 13749 H 1288.09 -1.98721 -2.43634 0
M  V30 13750 N 1291.86 -0.526279 -1.48553 0
M  V30 13751 C 1293.11 0.00918008 -2.02798 0
M  V30 13752 C 1293.44 1.34284 -1.4029 0
M  V30 13753 O 1292.71 1.86639 -0.547355 0
M  V30 13754 C 1293 0.135102 -3.59846 0
M  V30 13755 C 1292.85 -1.22347 -4.32841 0
M  V30 13756 C 1294.17 0.863673 -4.31542 0
M  V30 13757 H 1291.29 0.00186216 -0.736998 0
M  V30 13758 H 1293.93 -0.682591 -1.77315 0
M  V30 13759 H 1292.08 0.724279 -3.81689 0
M  V30 13760 H 1293.75 -1.85347 -4.22427 0
M  V30 13761 H 1291.99 -1.80631 -3.94405 0
M  V30 13762 H 1292.67 -1.08839 -5.41164 0
M  V30 13763 H 1295.14 0.363734 -4.14507 0
M  V30 13764 H 1294.02 0.92067 -5.41124 0
M  V30 13765 H 1294.28 1.91313 -3.98562 0
M  V30 13766 N 1293.34 1.5542 -0.261239 0
M  V30 13767 C 1294.57 2.03391 0.362698 0
M  V30 13768 C 1294.98 1.13947 1.51039 0
M  V30 13769 O 1294.32 0.149231 1.83093 0
M  V30 13770 C 1294.38 3.47558 0.918889 0
M  V30 13771 C 1294.04 4.56894 -0.0983829 0
M  V30 13772 C 1295.04 5.1182 -0.913018 0
M  V30 13773 C 1292.73 5.01779 -0.228616 0
M  V30 13774 C 1294.72 6.10138 -1.84421 0
M  V30 13775 C 1292.41 5.99926 -1.16329 0
M  V30 13776 C 1293.41 6.53984 -1.9696 0
M  V30 13777 O 1293.09 7.50214 -2.8885 0
M  V30 13778 H 1292.83 0.670166 0.0886182 0
M  V30 13779 H 1295.38 2.01722 -0.386967 0
M  V30 13780 H 1293.61 3.46423 1.71838 0
M  V30 13781 H 1295.3 3.78947 1.45443 0
M  V30 13782 H 1296.06 4.77965 -0.823066 0
M  V30 13783 H 1291.94 4.59356 0.388945 0
M  V30 13784 H 1295.49 6.52258 -2.47397 0
M  V30 13785 H 1291.38 6.332 -1.25412 0
M  V30 13786 H 1292.15 7.67881 -2.83374 0
M  V30 13787 N 1294.82 -0.0116844 1.57596 0
M  V30 13788 C 1296.06 -0.697577 1.89679 0
M  V30 13789 C 1296.38 -1.74956 0.861122 0
M  V30 13790 O 1295.65 -1.95629 -0.103031 0
M  V30 13791 H 1294.23 -0.26064 0.700054 0
M  V30 13792 H 1296.9 0.0264782 1.94882 0
M  V30 13793 H 1295.99 -1.17621 2.89088 0
M  V30 13794 N 1296.29 -1.55015 -0.284256 0
M  V30 13795 C 1297.54 -1.74297 -1.01506 0
M  V30 13796 C 1297.86 -0.545134 -1.8785 0
M  V30 13797 O 1299.06 -0.620118 -2.64323 0
M  V30 13798 C 1297.52 -3.08438 -1.85456 0
M  V30 13799 C 1297.13 -4.35753 -1.04034 0
M  V30 13800 C 1298.87 -3.37073 -2.58035 0
M  V30 13801 C 1296.78 -5.60938 -1.87358 0
M  V30 13802 H 1295.71 -0.649656 -0.382705 0
M  V30 13803 H 1298.36 -1.81484 -0.271239 0
M  V30 13804 H 1296.74 -2.95259 -2.63891 0
M  V30 13805 H 1297.91 -4.59816 -0.300954 0
M  V30 13806 H 1296.23 -4.14178 -0.429616 0
M  V30 13807 H 1298.83 -4.27806 -3.20759 0
M  V30 13808 H 1299.17 -2.56698 -3.27738 0
M  V30 13809 H 1299.7 -3.51299 -1.86638 0
M  V30 13810 H 1296.44 -6.44029 -1.22096 0
M  V30 13811 H 1295.96 -5.41035 -2.58923 0
M  V30 13812 H 1297.64 -5.98819 -2.44999 0
M  V30 13813 N 1297.77 0.548248 -1.47757 0
M  V30 13814 C 1298.68 1.68178 -1.63565 0
M  V30 13815 C 1299.7 1.661 -0.518351 0
M  V30 13816 O 1300.87 1.85384 -0.787061 0
M  V30 13817 C 1297.94 3.04673 -1.65454 0
M  V30 13818 C 1297 3.17749 -2.88677 0
M  V30 13819 C 1296.23 4.47733 -2.90466 0
M  V30 13820 O 1296.46 5.33736 -2.01201 0
M  V30 13821 O 1295.39 4.64789 -3.82433 0
M  V30 13822 H 1299.22 1.57781 -2.59497 0
M  V30 13823 H 1296.8 0.719277 -1.30946 0
M  V30 13824 H 1298.68 3.85885 -1.69324 0
M  V30 13825 H 1297.36 3.15433 -0.726912 0
M  V30 13826 H 1296.26 2.359 -2.90348 0
M  V30 13827 H 1297.6 3.11897 -3.80763 0
M  V30 13828 N 1299.25 1.36039 0.795694 0
M  V30 13829 C 1300.47 1.33222 1.58955 0
M  V30 13830 C 1300.9 -0.0854596 1.87906 0
M  V30 13831 O 1300.26 -1.05555 1.47403 0
M  V30 13832 C 1300.31 2.15508 2.89117 0
M  V30 13833 O 1299.41 1.54327 3.82436 0
M  V30 13834 H 1298.75 0.456264 0.48241 0
M  V30 13835 H 1301.28 1.79234 0.986726 0
M  V30 13836 H 1301.29 2.2786 3.38444 0
M  V30 13837 H 1299.97 3.18568 2.67371 0
M  V30 13838 H 1298.54 1.50879 3.41013 0
M  V30 13839 N 1300.73 -1.01913 1.20215 0
M  V30 13840 C 1301.97 -1.7573 1.01226 0
M  V30 13841 C 1302.31 -1.88799 -0.45481 0
M  V30 13842 O 1301.58 -1.41196 -1.33768 0
M  V30 13843 C 1301.87 -3.17795 1.69348 0
M  V30 13844 C 1301.72 -3.12536 3.23483 0
M  V30 13845 C 1303.04 -4.16409 1.42448 0
M  V30 13846 H 1300.16 -0.637889 0.369144 0
M  V30 13847 H 1302.8 -1.18907 1.48193 0
M  V30 13848 H 1300.95 -3.66311 1.29416 0
M  V30 13849 H 1302.62 -2.71843 3.72692 0
M  V30 13850 H 1300.86 -2.49997 3.54519 0
M  V30 13851 H 1301.53 -4.12949 3.66302 0
M  V30 13852 H 1304.01 -3.76537 1.77086 0
M  V30 13853 H 1302.89 -5.13983 1.92648 0
M  V30 13854 H 1303.15 -4.407 0.351574 0
M  V30 13855 N 1302.21 -1.00763 -1.2118 0
M  V30 13856 C 1303.15 -0.570257 -2.23644 0
M  V30 13857 C 1304.12 0.405039 -1.61086 0
M  V30 13858 O 1305.31 0.306496 -1.88322 0
M  V30 13859 C 1302.45 0.094325 -3.44971 0
M  V30 13860 C 1301.56 -0.924463 -4.21993 0
M  V30 13861 C 1300.7 -0.231869 -5.30694 0
M  V30 13862 C 1299.74 -1.23803 -5.99449 0
M  V30 13863 N 1298.87 -0.572725 -6.9976 0
M  V30 13864 H 1303.71 -1.44869 -2.60417 0
M  V30 13865 H 1301.25 -0.725369 -1.27972 0
M  V30 13866 H 1303.21 0.496689 -4.14233 0
M  V30 13867 H 1301.84 0.936457 -3.08918 0
M  V30 13868 H 1300.89 -1.44505 -3.51884 0
M  V30 13869 H 1302.2 -1.69004 -4.69296 0
M  V30 13870 H 1301.36 0.226465 -6.06277 0
M  V30 13871 H 1300.09 0.566092 -4.84403 0
M  V30 13872 H 1299.1 -1.70684 -5.22635 0
M  V30 13873 H 1300.32 -2.03711 -6.47826 0
M  V30 13874 H 1298.27 0.205531 -6.55678 0
M  V30 13875 H 1298.19 -1.27651 -7.45145 0
M  V30 13876 H 1299.46 -0.137683 -7.79378 0
M  V30 13877 N 1303.68 1.3679 -0.7827 0
M  V30 13878 C 1304.93 1.98664 -0.348634 0
M  V30 13879 C 1305.25 1.62827 1.08382 0
M  V30 13880 O 1306.45 2.17886 1.61982 0
M  V30 13881 C 1304.91 3.55319 -0.572392 0
M  V30 13882 C 1304.52 4.00086 -2.01582 0
M  V30 13883 C 1306.26 4.24017 -0.202496 0
M  V30 13884 C 1304.17 5.49493 -2.18659 0
M  V30 13885 H 1303.1 0.743294 -0.126612 0
M  V30 13886 H 1305.75 1.56177 -0.963383 0
M  V30 13887 H 1304.13 3.95842 0.111973 0
M  V30 13888 H 1305.3 3.7078 -2.73603 0
M  V30 13889 H 1303.62 3.44205 -2.34333 0
M  V30 13890 H 1306.22 5.3381 -0.308459 0
M  V30 13891 H 1306.56 4.07559 0.84859 0
M  V30 13892 H 1307.09 3.88834 -0.839834 0
M  V30 13893 H 1303.83 5.7089 -3.22126 0
M  V30 13894 H 1303.35 5.80447 -1.51134 0
M  V30 13895 H 1305.03 6.15621 -1.99048 0
M  V30 13896 O 1305.2 0.675472 1.46696 0
M  V30 13897 H 1305.89 0.207859 1.92582 0
M  V30 END ATOM
M  V30 BEGIN BOND
M  V30 END BOND
M  V30 END CTAB
M  END
$$$$
