drugbank_target|O66496 2-dehydro-3-deoxyphosphooctonate aldolase (DB01709; DB01819; DB02053; DB02433; DB02992; DB03248; DB03745; DB03937)
 OpenBabel12092119503D

  0  0  0     0  0            999 V3000
M  V30 BEGIN CTAB
M  V30 COUNTS 4239 4281 0 0 0
M  V30 BEGIN ATOM
M  V30 1 H -0.908 1.98254 -0.117106 0
M  V30 2 N 0 1.576 0 0
M  V30 3 C 0.933 2.03868 1.02534 0
M  V30 4 C 1.911 0.928543 1.3348 0
M  V30 5 O 3.095 1.19667 1.45644 0
M  V30 6 C 0.222 2.43627 2.35294 0
M  V30 7 C -0.732 3.65373 2.2001 0
M  V30 8 S 0.101 5.13292 1.52614 0
M  V30 9 C 1.257 5.56322 2.86805 0
M  V30 10 H 1.49 2.90518 0.631377 0
M  V30 11 H -0.977 1.52953 0.210867 0
M  V30 12 H 0.981 2.67203 3.11629 0
M  V30 13 H -0.358 1.57376 2.7183 0
M  V30 14 H -1.165 3.90944 3.18086 0
M  V30 15 H -1.563 3.418 1.51819 0
M  V30 16 H 0.729 5.58782 3.83104 0
M  V30 17 H 1.672 6.56266 2.65933 0
M  V30 18 H 2.08 4.83886 2.90714 0
M  V30 19 N 1.4781 -0.272755 1.55222 0
M  V30 20 C 2.3881 -1.35918 1.91216 0
M  V30 21 C 3.4041 -1.54026 0.809436 0
M  V30 22 O 4.5801 -1.68148 1.10852 0
M  V30 23 C 1.6451 -2.69834 2.17693 0
M  V30 24 C 0.7061 -2.6047 3.41253 0
M  V30 25 C -0.0609 -3.88 3.66458 0
M  V30 26 O 0.1621 -4.88693 2.94169 0
M  V30 27 O -0.9039 -3.88189 4.59992 0
M  V30 28 H 2.9221 -1.0839 2.83699 0
M  V30 29 H 0.5071 -0.471301 1.41771 0
M  V30 30 H 2.3891 -3.49017 2.36147 0
M  V30 31 H 1.0641 -2.97148 1.28392 0
M  V30 32 H -0.0289 -1.79663 3.28134 0
M  V30 33 H 1.3041 -2.38106 4.30774 0
M  V30 34 N 2.9562 -1.48159 -0.537278 0
M  V30 35 C 3.9032 -1.62138 -1.64256 0
M  V30 36 C 4.8732 -0.463668 -1.59497 0
M  V30 37 O 6.0582 -0.686241 -1.78032 0
M  V30 38 C 3.1982 -1.66028 -3.02537 0
M  V30 39 C 2.3112 -2.92855 -3.17585 0
M  V30 40 C 1.4462 -2.87952 -4.46382 0
M  V30 41 C 0.4852 -4.09516 -4.54932 0
M  V30 42 N -0.3778 -4.02733 -5.75109 0
M  V30 43 H 4.4622 -2.56529 -1.51647 0
M  V30 44 H 1.9992 -1.27224 -0.738414 0
M  V30 45 H 3.9572 -1.66265 -3.82638 0
M  V30 46 H 2.5872 -0.751331 -3.13934 0
M  V30 47 H 1.6392 -3.02395 -2.30784 0
M  V30 48 H 2.9512 -3.82822 -3.19764 0
M  V30 49 H 2.1052 -2.8655 -5.34765 0
M  V30 50 H 0.8442 -1.95702 -4.46712 0
M  V30 51 H -0.1508 -4.11201 -3.64957 0
M  V30 52 H 1.0742 -5.02917 -4.56346 0
M  V30 53 H -0.9798 -3.13299 -5.76351 0
M  V30 54 H -1.0628 -4.86397 -5.78752 0
M  V30 55 H 0.2052 -4.05379 -6.65799 0
M  V30 56 N 4.4343 0.785586 -1.36625 0
M  V30 57 C 5.6813 1.54362 -1.31067 0
M  V30 58 C 6.0093 1.94195 0.10893 0
M  V30 59 O 5.2643 1.63262 1.07908 0
M  V30 60 C 5.5633 2.83007 -2.1827 0
M  V30 61 C 5.2293 2.62294 -3.6676 0
M  V30 62 C 3.8913 2.56353 -4.0723 0
M  V30 63 C 6.2433 2.43371 -4.6089 0
M  V30 64 C 3.5713 2.29461 -5.39967 0
M  V30 65 C 5.9233 2.18005 -5.93849 0
M  V30 66 C 4.5873 2.105 -6.3344 0
M  V30 67 H 3.8573 0.564851 -0.479609 0
M  V30 68 H 6.5043 0.906028 -1.68711 0
M  V30 69 H 4.8093 3.51253 -1.73576 0
M  V30 70 H 6.5063 3.40817 -2.11292 0
M  V30 71 H 3.0963 2.67774 -3.34656 0
M  V30 72 H 7.2803 2.46959 -4.30494 0
M  V30 73 H 2.5363 2.22135 -5.69619 0
M  V30 74 H 6.7103 2.02359 -6.66351 0
M  V30 75 H 4.3373 1.89425 -7.36222 0
M  V30 76 N 5.9124 1.20967 1.01018 0
M  V30 77 C 6.8424 0.988272 2.11555 0
M  V30 78 C 7.8234 -0.0849778 1.69888 0
M  V30 79 O 9.0084 0.0738202 1.9406 0
M  V30 80 C 6.1384 0.546528 3.42973 0
M  V30 81 C 5.0924 1.56375 3.9841 0
M  V30 82 C 4.4184 0.97842 5.25672 0
M  V30 83 C 5.7184 2.94922 4.31066 0
M  V30 84 H 7.4124 1.91276 2.30334 0
M  V30 85 H 4.9584 0.921073 1.1069 0
M  V30 86 H 6.9114 0.378839 4.19694 0
M  V30 87 H 5.6354 -0.413598 3.23971 0
M  V30 88 H 4.2944 1.71891 3.23804 0
M  V30 89 H 3.9424 0.0101688 5.02999 0
M  V30 90 H 3.6424 1.65784 5.63728 0
M  V30 91 H 5.1664 0.821939 6.05043 0
M  V30 92 H 6.5804 2.8288 4.9865 0
M  V30 93 H 4.9774 3.5983 4.80253 0
M  V30 94 H 6.0474 3.4616 3.39561 0
M  V30 95 N 7.3905 -1.2043 1.01659 0
M  V30 96 C 8.6365 -1.90079 0.706963 0
M  V30 97 C 8.9695 -1.78648 -0.761474 0
M  V30 98 O 8.2445 -1.17069 -1.55323 0
M  V30 99 C 8.5275 -3.41469 1.14327 0
M  V30 100 C 8.3805 -3.61833 2.67201 0
M  V30 101 C 9.6995 -4.34261 0.714529 0
M  V30 102 H 6.8185 -0.690254 0.2583 0
M  V30 103 H 9.4605 -1.41826 1.26433 0
M  V30 104 H 7.6105 -3.82696 0.669056 0
M  V30 105 H 9.2825 -3.2986 3.22475 0
M  V30 106 H 7.5255 -3.05304 3.08175 0
M  V30 107 H 8.1965 -4.67955 2.92783 0
M  V30 108 H 10.6725 -4.00682 1.12221 0
M  V30 109 H 9.5485 -5.38806 1.04784 0
M  V30 110 H 9.8095 -4.40431 -0.383799 0
M  V30 111 N 8.8686 -0.792821 -1.36206 0
M  V30 112 C 10.1176 -0.363353 -1.984 0
M  V30 113 C 10.4306 1.07172 -1.63626 0
M  V30 114 O 11.6366 1.60362 -2.19081 0
M  V30 115 C 10.0926 -0.59872 -3.54885 0
M  V30 116 C 9.7006 -2.04543 -3.9858 0
M  V30 117 C 11.4446 -0.233926 -4.23855 0
M  V30 118 C 9.3516 -2.22727 -5.47856 0
M  V30 119 H 8.2816 -0.13212 -0.742334 0
M  V30 120 H 10.9326 -0.974935 -1.55458 0
M  V30 121 H 9.3146 0.0826222 -3.95914 0
M  V30 122 H 10.4886 -2.76345 -3.68741 0
M  V30 123 H 8.8036 -2.36879 -3.42458 0
M  V30 124 H 11.4006 -0.348027 -5.33566 0
M  V30 125 H 11.7436 0.818351 -4.08177 0
M  V30 126 H 12.2766 -0.868639 -3.882 0
M  V30 127 H 9.0156 -3.2635 -5.68486 0
M  V30 128 H 8.5356 -1.55434 -5.7931 0
M  V30 129 H 10.2146 -2.03607 -6.14128 0
M  V30 130 N 10.3467 1.47872 -0.545128 0
M  V30 131 C 11.3097 2.28337 0.198717 0
M  V30 132 C 12.3097 1.36255 0.853888 0
M  V30 133 O 13.4997 1.59003 0.711606 0
M  V30 134 C 10.6317 3.15585 1.28915 0
M  V30 135 H 11.8247 2.95567 -0.507941 0
M  V30 136 H 9.3777 1.53362 -0.301616 0
M  V30 137 H 10.1127 2.53019 2.02859 0
M  V30 138 H 9.8977 3.83337 0.824309 0
M  V30 139 H 11.3877 3.76243 1.81194 0
M  V30 140 N 11.8248 0.280983 1.55075 0
M  V30 141 C 13.0728 -0.333455 1.9933 0
M  V30 142 C 13.3938 -1.55937 1.17085 0
M  V30 143 O 12.6638 -1.94143 0.261805 0
M  V30 144 H 11.2438 -0.126197 0.736263 0
M  V30 145 H 13.9058 0.387678 1.91005 0
M  V30 146 H 13.0018 -0.619292 3.05894 0
M  V30 147 N 13.3029 -1.57598 0.00835791 0
M  V30 148 C 14.7139 -1.7892 -0.53333 0
M  V30 149 C 15.0649 -0.916609 -1.73473 0
M  V30 150 O 14.1899 -0.121336 -2.1606 0
M  V30 151 C 14.7849 -3.24488 -0.974313 0
M  V30 152 C 13.3439 -3.46878 -1.46125 0
M  V30 153 C 12.4909 -2.74157 -0.416302 0
M  V30 154 H 15.4419 -1.56958 0.234495 0
M  V30 155 H 15.4629 -3.3306 -1.83988 0
M  V30 156 H 14.9749 -3.87972 -0.099718 0
M  V30 157 H 13.0759 -2.8862 -2.35646 0
M  V30 158 H 13.1889 -4.55572 -1.48295 0
M  V30 159 H 11.5529 -2.39022 -0.87981 0
M  V30 160 H 12.3359 -3.40345 0.44947 0
M  V30 161 N 14.781 0.264519 -1.55364 0
M  V30 162 C 16.021 1.00254 -1.78125 0
M  V30 163 C 16.385 1.83187 -0.575017 0
M  V30 164 O 17.586 2.60029 -0.681042 0
M  V30 165 C 15.857 1.85478 -3.05504 0
M  V30 166 S 17.416 2.6543 -3.49417 0
M  V30 167 H 14.234 0.337522 -0.625779 0
M  V30 168 H 16.836 0.272111 -1.93597 0
M  V30 169 H 15.54 1.23491 -3.9138 0
M  V30 170 H 15.071 2.62827 -2.92721 0
M  V30 171 H 17.086 3.87958 -3.09359 0
M  V30 172 N 16.2591 1.48442 0.529413 0
M  V30 173 C 17.2221 1.62524 1.61612 0
M  V30 174 C 18.2221 0.498509 1.52877 0
M  V30 175 O 19.4121 0.76431 1.56537 0
M  V30 176 C 16.5441 1.59597 3.01233 0
M  V30 177 H 17.7371 2.59423 1.50465 0
M  V30 178 H 15.2901 1.37047 0.751514 0
M  V30 179 H 16.0251 0.641781 3.17886 0
M  V30 180 H 15.8101 2.41397 3.08982 0
M  V30 181 H 17.3001 1.72646 3.80241 0
M  V30 182 N 17.7372 -0.778329 1.37039 0
M  V30 183 C 18.9862 -1.53189 1.3121 0
M  V30 184 C 19.2992 -1.95328 -0.103095 0
M  V30 185 O 20.5052 -2.70012 -0.283826 0
M  V30 186 C 18.9612 -2.76591 2.30272 0
M  V30 187 C 18.5692 -2.41577 3.77286 0
M  V30 188 C 20.3132 -3.5455 2.33441 0
M  V30 189 C 18.2202 -3.61441 4.68096 0
M  V30 190 H 17.1502 -0.5751 0.487622 0
M  V30 191 H 19.8012 -0.853101 1.62464 0
M  V30 192 H 18.1832 -3.46326 1.92027 0
M  V30 193 H 19.3572 -1.79668 4.2433 0
M  V30 194 H 17.6722 -1.76806 3.76999 0
M  V30 195 H 20.2692 -4.43628 2.98493 0
M  V30 196 H 20.6122 -3.93936 1.34611 0
M  V30 197 H 21.1452 -2.91805 2.7036 0
M  V30 198 H 17.8842 -3.27142 5.6803 0
M  V30 199 H 17.4042 -4.22478 4.25761 0
M  V30 200 H 19.0832 -4.28335 4.8491 0
M  V30 201 N 19.2153 -1.21501 -1.00376 0
M  V30 202 C 20.1253 -0.991447 -2.12621 0
M  V30 203 C 21.1413 0.0568446 -1.73907 0
M  V30 204 O 22.3173 -0.13348 -2.00957 0
M  V30 205 C 19.3823 -0.560312 -3.42142 0
M  V30 206 C 18.4433 -1.68096 -3.95022 0
M  V30 207 C 17.6763 -1.2703 -5.18362 0
M  V30 208 O 17.8993 -0.144438 -5.70217 0
M  V30 209 O 16.8333 -2.08269 -5.64719 0
M  V30 210 H 20.6593 -1.93158 -2.34358 0
M  V30 211 H 18.2443 -0.999999 -1.10997 0
M  V30 212 H 20.1263 -0.329724 -4.20108 0
M  V30 213 H 18.8013 0.351089 -3.2179 0
M  V30 214 H 17.7083 -1.96597 -3.18278 0
M  V30 215 H 19.0413 -2.56983 -4.19786 0
M  V30 216 N 20.6934 1.19889 -1.02296 0
M  V30 217 C 21.9184 1.9393 -0.735237 0
M  V30 218 C 22.3434 1.74639 0.698782 0
M  V30 219 O 21.7014 1.04481 1.48167 0
M  V30 220 C 21.7494 3.43916 -1.08417 0
M  V30 221 O 20.8534 4.11917 -0.199446 0
M  V30 222 H 20.1944 0.605645 -0.272196 0
M  V30 223 H 22.7244 1.52137 -1.36804 0
M  V30 224 H 22.7344 3.9456 -1.03856 0
M  V30 225 H 21.4094 3.5728 -2.12894 0
M  V30 226 H 19.9864 3.71666 -0.303136 0
M  V30 227 N 22.1715 0.800033 1.35784 0
M  V30 228 C 23.0815 0.207204 2.33683 0
M  V30 229 C 24.0975 -0.64631 1.61551 0
M  V30 230 O 25.2735 -0.559604 1.93469 0
M  V30 231 C 22.3385 -0.639659 3.40748 0
M  V30 232 C 21.3995 0.233585 4.28664 0
M  V30 233 C 20.6325 -0.572954 5.30616 0
M  V30 234 O 20.8555 -1.80816 5.40982 0
M  V30 235 O 19.7895 0.0327285 6.01891 0
M  V30 236 H 23.6155 1.01692 2.86169 0
M  V30 237 H 21.2005 0.561691 1.38439 0
M  V30 238 H 23.0825 -1.12223 4.06182 0
M  V30 239 H 21.7575 -1.42708 2.90544 0
M  V30 240 H 20.6645 0.763147 3.66233 0
M  V30 241 H 21.9975 0.984784 4.82248 0
M  V30 242 N 23.6496 -1.47581 0.552962 0
M  V30 243 C 24.5596 -2.33743 -0.200353 0
M  V30 244 C 25.5756 -1.47928 -0.916151 0
M  V30 245 O 26.7516 -1.80865 -0.885993 0
M  V30 246 C 23.8166 -3.24536 -1.21973 0
M  V30 247 C 22.8776 -4.26238 -0.511819 0
M  V30 248 C 22.1106 -5.12693 -1.48263 0
M  V30 249 O 22.3336 -5.01525 -2.71714 0
M  V30 250 O 21.2676 -5.93375 -1.00945 0
M  V30 251 H 25.0936 -2.9945 0.506304 0
M  V30 252 H 22.6786 -1.46071 0.313622 0
M  V30 253 H 24.5606 -3.80631 -1.80827 0
M  V30 254 H 23.2356 -2.61462 -1.90839 0
M  V30 255 H 22.1426 -3.73914 0.117799 0
M  V30 256 H 23.4756 -4.92014 0.135308 0
M  V30 257 N 25.1277 -0.289203 -1.54924 0
M  V30 258 C 26.0577 0.58549 -2.2604 0
M  V30 259 C 27.0387 1.14753 -1.25562 0
M  V30 260 O 28.2237 1.17906 -1.54311 0
M  V30 261 C 25.3537 1.76305 -2.99222 0
M  V30 262 C 24.3077 1.33191 -4.06748 0
M  V30 263 C 23.6337 2.5937 -4.6758 0
M  V30 264 C 24.9337 0.471775 -5.20165 0
M  V30 265 H 26.6277 -0.00763532 -2.99399 0
M  V30 266 H 24.1737 -0.00511229 -1.43999 0
M  V30 267 H 26.1267 2.38097 -3.47689 0
M  V30 268 H 24.8507 2.38223 -2.23422 0
M  V30 269 H 23.5097 0.737121 -3.59113 0
M  V30 270 H 23.1577 3.19576 -3.88433 0
M  V30 271 H 22.8577 2.31228 -5.40192 0
M  V30 272 H 24.3817 3.21985 -5.18804 0
M  V30 273 H 25.7957 0.995056 -5.64599 0
M  V30 274 H 24.1927 0.284639 -5.99425 0
M  V30 275 H 25.2627 -0.506041 -4.82252 0
M  V30 276 N 26.6058 1.57591 -0.0167156 0
M  V30 277 C 27.5358 2.12496 0.967858 0
M  V30 278 C 28.5168 1.03807 1.34752 0
M  V30 279 O 29.7018 1.31577 1.42833 0
M  V30 280 C 26.8318 2.64194 2.25431 0
M  V30 281 C 25.7858 3.77559 2.01576 0
M  V30 282 C 25.1118 4.15636 3.36379 0
M  V30 283 C 26.4118 5.04151 1.36489 0
M  V30 284 H 28.1058 2.95013 0.510643 0
M  V30 285 H 25.6518 1.41915 0.244181 0
M  V30 286 H 27.6048 3.01236 2.94678 0
M  V30 287 H 26.3288 1.78821 2.73296 0
M  V30 288 H 24.9878 3.40937 1.34751 0
M  V30 289 H 24.6358 3.27263 3.81979 0
M  V30 290 H 24.3358 4.92022 3.21229 0
M  V30 291 H 25.8598 4.5525 4.06915 0
M  V30 292 H 27.2738 5.38857 1.95718 0
M  V30 293 H 25.6708 5.85453 1.31776 0
M  V30 294 H 26.7408 4.83733 0.336219 0
M  V30 295 N 28.0839 -0.256276 1.55502 0
M  V30 296 C 29.0139 -1.32102 1.92539 0
M  V30 297 C 29.9949 -1.50684 0.789194 0
M  V30 298 O 31.1799 -1.63449 1.04872 0
M  V30 299 C 28.3099 -2.67752 2.21192 0
M  V30 300 C 27.2639 -2.63878 3.36975 0
M  V30 301 C 26.5899 -4.03236 3.51147 0
M  V30 302 C 27.8899 -2.21682 4.72921 0
M  V30 303 H 29.5839 -1.01351 2.81724 0
M  V30 304 H 27.1299 -0.486105 1.35547 0
M  V30 305 H 29.0829 -3.42365 2.45691 0
M  V30 306 H 27.8069 -3.0012 1.28824 0
M  V30 307 H 26.4659 -1.91722 3.12471 0
M  V30 308 H 26.1139 -4.32854 2.56216 0
M  V30 309 H 25.8139 -4.01535 4.29003 0
M  V30 310 H 27.3379 -4.79563 3.77957 0
M  V30 311 H 28.7519 -2.86023 4.96854 0
M  V30 312 H 27.1489 -2.3111 5.53812 0
M  V30 313 H 28.2189 -1.16833 4.70615 0
M  V30 314 N 29.562 -1.4872 -0.521534 0
M  V30 315 C 30.509 -1.63871 -1.62527 0
M  V30 316 C 31.479 -0.480559 -1.58996 0
M  V30 317 O 32.664 -0.705085 -1.77294 0
M  V30 318 C 29.804 -1.69227 -3.00759 0
M  V30 319 C 28.917 -2.96207 -3.14461 0
M  V30 320 C 28.052 -2.92671 -4.43303 0
M  V30 321 C 27.091 -4.14318 -4.50563 0
M  V30 322 N 26.228 -4.0881 -5.70805 0
M  V30 323 H 31.068 -2.58123 -1.48918 0
M  V30 324 H 28.605 -1.28 -0.724878 0
M  V30 325 H 30.563 -1.70314 -3.80853 0
M  V30 326 H 29.193 -0.784586 -3.1312 0
M  V30 327 H 28.245 -3.04826 -2.27564 0
M  V30 328 H 29.557 -3.86192 -3.15686 0
M  V30 329 H 28.711 -2.92206 -5.31696 0
M  V30 330 H 27.45 -2.00429 -4.44612 0
M  V30 331 H 26.455 -4.15049 -3.60575 0
M  V30 332 H 27.68 -5.07729 -4.50986 0
M  V30 333 H 25.626 -3.19394 -5.72995 0
M  V30 334 H 25.543 -4.92509 -5.7356 0
M  V30 335 H 26.811 -4.12418 -6.61462 0
M  V30 336 N 31.0401 0.771051 -1.3745 0
M  V30 337 C 32.2861 1.5319 -1.32894 0
M  V30 338 C 32.6191 1.94008 0.0862511 0
M  V30 339 O 31.8941 1.64124 1.04373 0
M  V30 340 C 32.1771 2.79648 -2.26868 0
M  V30 341 C 32.0301 2.45079 -3.77169 0
M  V30 342 C 33.3491 3.81583 -2.19277 0
M  V30 343 H 30.4681 0.555744 -0.484064 0
M  V30 344 H 33.1101 0.884492 -1.68157 0
M  V30 345 H 31.2601 3.34891 -1.96926 0
M  V30 346 H 32.9321 1.95745 -4.1771 0
M  V30 347 H 31.1751 1.77767 -3.95704 0
M  V30 348 H 31.8461 3.35478 -4.38359 0
M  V30 349 H 34.3221 3.35835 -2.45671 0
M  V30 350 H 33.1981 4.67787 -2.87171 0
M  V30 351 H 33.4591 4.25897 -1.18592 0
M  V30 352 N 32.5182 1.22032 0.997298 0
M  V30 353 C 33.7662 1.04016 1.73278 0
M  V30 354 C 34.0872 -0.426255 1.90284 0
M  V30 355 O 33.3572 -1.30694 1.45931 0
M  V30 356 H 31.9372 0.381897 0.642 0
M  V30 357 H 34.5992 1.5347 1.20137 0
M  V30 358 H 33.6952 1.51441 2.72896 0
M  V30 359 N 33.9963 -1.19345 1.0293 0
M  V30 360 C 34.9063 -2.26245 0.620515 0
M  V30 361 C 35.9223 -1.70486 -0.347928 0
M  V30 362 O 37.0983 -2.00347 -0.205704 0
M  V30 363 C 34.1633 -3.46693 -0.0218957 0
M  V30 364 C 33.2243 -4.17632 0.994102 0
M  V30 365 C 32.4573 -5.32329 0.382253 0
M  V30 366 O 32.6803 -5.64552 -0.814676 0
M  V30 367 O 31.6143 -5.91664 1.10531 0
M  V30 368 H 35.4403 -2.63453 1.51083 0
M  V30 369 H 33.0253 -1.26207 0.799513 0
M  V30 370 H 34.9073 -4.19683 -0.380072 0
M  V30 371 H 33.5823 -3.11333 -0.886209 0
M  V30 372 H 32.4893 -3.4676 1.40387 0
M  V30 373 H 33.8223 -4.56964 1.8288 0
M  V30 374 N 35.4744 -0.807222 -1.35358 0
M  V30 375 C 36.3844 -0.219594 -2.3357 0
M  V30 376 C 37.4004 0.637734 -1.61892 0
M  V30 377 O 38.5764 0.549336 -1.93763 0
M  V30 378 C 35.6414 0.62158 -3.41083 0
M  V30 379 C 34.7024 -0.256315 -4.28534 0
M  V30 380 C 33.9354 0.544807 -5.30912 0
M  V30 381 O 34.1584 1.77944 -5.41934 0
M  V30 382 O 33.0924 -0.0646478 -6.01865 0
M  V30 383 H 36.9184 -1.03208 -2.85625 0
M  V30 384 H 34.5034 -0.569025 -1.38139 0
M  V30 385 H 36.3854 1.10067 -4.06772 0
M  V30 386 H 35.0604 1.41165 -2.91297 0
M  V30 387 H 33.9674 -0.782559 -3.65823 0
M  V30 388 H 35.3004 -1.01034 -4.81719 0
M  V30 389 N 36.9525 1.47285 -0.560781 0
M  V30 390 C 38.2015 2.01668 -0.035895 0
M  V30 391 C 38.5145 1.44021 1.32353 0
M  V30 392 O 39.7205 1.90088 1.93853 0
M  V30 393 C 38.1765 3.59897 -0.0136659 0
M  V30 394 C 37.7845 4.26536 -1.37006 0
M  V30 395 C 39.5285 4.22017 0.458425 0
M  V30 396 C 37.4355 5.76782 -1.30675 0
M  V30 397 H 36.3655 0.753938 -0.00964879 0
M  V30 398 H 39.0165 1.69243 -0.709166 0
M  V30 399 H 37.3985 3.89301 0.725325 0
M  V30 400 H 38.5725 4.0877 -2.12705 0
M  V30 401 H 36.8875 3.76419 -1.78038 0
M  V30 402 H 39.4845 5.32124 0.524247 0
M  V30 403 H 39.8275 3.89437 1.4712 0
M  V30 404 H 40.3605 3.97159 -0.225818 0
M  V30 405 H 37.0995 6.13988 -2.29564 0
M  V30 406 H 36.6195 5.96875 -0.591622 0
M  V30 407 H 38.2985 6.39063 -1.01033 0
M  V30 408 N 38.4306 0.297415 1.54768 0
M  V30 409 C 39.3776 -0.580276 2.23386 0
M  V30 410 C 40.3476 -1.13238 1.21517 0
M  V30 411 O 41.5326 -1.17757 1.50126 0
M  V30 412 C 38.6726 -1.74801 2.97555 0
M  V30 413 C 37.7856 -1.22764 4.1419 0
M  V30 414 C 36.9206 -2.35895 4.75949 0
M  V30 415 C 35.9596 -1.80974 5.84735 0
M  V30 416 N 35.0966 -2.87664 6.40464 0
M  V30 417 H 39.9366 0.0114833 2.97998 0
M  V30 418 H 37.4736 0.0174361 1.4709 0
M  V30 419 H 39.4316 -2.43475 3.38786 0
M  V30 420 H 38.0616 -2.31145 2.25326 0
M  V30 421 H 37.1136 -0.433271 3.77924 0
M  V30 422 H 38.4256 -0.785551 4.92575 0
M  V30 423 H 37.5796 -3.12523 5.20014 0
M  V30 424 H 36.3186 -2.83429 3.96887 0
M  V30 425 H 35.3236 -1.02834 5.40097 0
M  V30 426 H 36.5486 -1.34348 6.65678 0
M  V30 427 H 34.4946 -3.34538 5.64287 0
M  V30 428 H 34.4116 -2.4794 7.14186 0
M  V30 429 H 35.6796 -3.642 6.89187 0
M  V30 430 N 39.9087 -1.5758 0.0250728 0
M  V30 431 C 41.3247 -1.56124 -0.331282 0
M  V30 432 C 41.5247 -1.03029 -1.73169 0
M  V30 433 O 40.5807 -0.675215 -2.43305 0
M  V30 434 C 41.8937 -3.00139 -0.183584 0
M  V30 435 C 43.4417 -3.11946 -0.256654 0
M  V30 436 C 43.9167 -4.57793 -0.137792 0
M  V30 437 N 45.4077 -4.6279 -0.194904 0
M  V30 438 C 46.1427 -5.7326 -0.126655 0
M  V30 439 N 45.6387 -6.928 -0.00755288 0
M  V30 440 N 47.4317 -5.61811 -0.180348 0
M  V30 441 H 39.5827 -1.90424 0.94087 0
M  V30 442 H 41.8457 -0.875761 0.362968 0
M  V30 443 H 41.5517 -3.4292 0.780927 0
M  V30 444 H 41.4257 -3.64899 -0.955448 0
M  V30 445 H 43.8127 -2.69079 -1.21162 0
M  V30 446 H 43.8937 -2.49915 0.545517 0
M  V30 447 H 43.5377 -5.01339 0.813739 0
M  V30 448 H 43.4677 -5.17798 -0.958775 0
M  V30 449 H 45.9587 -3.76807 -0.287267 0
M  V30 450 H 46.2717 -7.72791 0.0379428 0
M  V30 451 H 44.6167 -6.94995 0.0271731 0
M  V30 452 H 47.8077 -4.6731 -0.271767 0
M  V30 453 H 47.9807 -6.47882 -0.123697 0
M  V30 454 N 41.3868 0.248026 -1.55636 0
M  V30 455 C 42.3168 1.31079 -1.93237 0
M  V30 456 C 43.2978 1.50264 -0.797174 0
M  V30 457 O 44.4828 1.62891 -1.05737 0
M  V30 458 C 41.6128 2.66575 -2.22609 0
M  V30 459 C 40.5668 2.62087 -3.3837 0
M  V30 460 C 39.8928 4.01369 -3.53281 0
M  V30 461 C 41.1928 2.19171 -4.7409 0
M  V30 462 H 42.8868 0.998556 -2.82257 0
M  V30 463 H 40.4328 0.47891 -1.35803 0
M  V30 464 H 42.3858 3.41057 -2.47503 0
M  V30 465 H 41.1098 2.99432 -1.30414 0
M  V30 466 H 39.7688 1.90063 -3.13483 0
M  V30 467 H 39.4168 4.31489 -2.58508 0
M  V30 468 H 39.1168 3.99254 -4.31127 0
M  V30 469 H 40.6408 4.77552 -3.80495 0
M  V30 470 H 42.0548 2.83384 -4.98363 0
M  V30 471 H 40.4518 2.2817 -5.5503 0
M  V30 472 H 41.5218 1.14336 -4.71227 0
M  V30 473 N 42.8649 1.48995 0.513639 0
M  V30 474 C 44.0899 1.61792 1.29762 0
M  V30 475 C 44.5149 0.284475 1.85936 0
M  V30 476 O 43.8729 -0.746185 1.65232 0
M  V30 477 C 43.9209 2.67993 2.41272 0
M  V30 478 O 43.0249 2.26287 3.44772 0
M  V30 479 H 42.3659 0.541963 0.38363 0
M  V30 480 H 44.8959 1.95097 0.616307 0
M  V30 481 H 44.9059 2.89772 2.87221 0
M  V30 482 H 43.5809 3.64791 1.9975 0
M  V30 483 H 42.1579 2.14788 3.04829 0
M  V30 484 N 44.343 -0.763751 1.37857 0
M  V30 485 C 45.253 -1.90817 1.36478 0
M  V30 486 C 46.269 -1.71997 0.263248 0
M  V30 487 O 47.445 -1.95095 0.499979 0
M  V30 488 C 44.51 -3.2605 1.17864 0
M  V30 489 C 43.571 -3.57467 2.3773 0
M  V30 490 C 42.804 -4.86249 2.19995 0
M  V30 491 O 43.027 -5.57884 1.18836 0
M  V30 492 O 41.961 -5.16911 3.08361 0
M  V30 493 H 45.787 -1.94933 2.32884 0
M  V30 494 H 43.372 -0.907619 1.1867 0
M  V30 495 H 45.254 -4.06924 1.09504 0
M  V30 496 H 43.929 -3.22769 0.245372 0
M  V30 497 H 42.836 -2.76796 2.51664 0
M  V30 498 H 44.169 -3.655 3.29652 0
M  V30 499 N 45.8211 -1.22559 -0.990812 0
M  V30 500 C 46.7681 -0.997519 -2.0813 0
M  V30 501 C 47.7381 0.0814702 -1.659 0
M  V30 502 O 48.9231 -0.0685424 -1.90677 0
M  V30 503 C 46.0631 -0.583615 -3.40129 0
M  V30 504 C 45.1761 -1.7336 -3.9569 0
M  V30 505 C 44.3111 -1.26748 -5.15857 0
M  V30 506 C 43.3501 -2.38888 -5.63559 0
M  V30 507 N 42.4871 -1.93308 -6.74964 0
M  V30 508 H 47.3271 -1.93099 -2.26973 0
M  V30 509 H 44.8641 -0.962114 -1.11273 0
M  V30 510 H 46.8221 -0.324801 -4.15934 0
M  V30 511 H 45.4521 0.312845 -3.2128 0
M  V30 512 H 44.5041 -2.10669 -3.16738 0
M  V30 513 H 45.8161 -2.57704 -4.27071 0
M  V30 514 H 44.9701 -0.966173 -5.98957 0
M  V30 515 H 43.7091 -0.394272 -4.86104 0
M  V30 516 H 42.7141 -2.69805 -4.79046 0
M  V30 517 H 43.9391 -3.26728 -5.95336 0
M  V30 518 H 41.8851 -1.08352 -6.4699 0
M  V30 519 H 41.8021 -2.71217 -7.05675 0
M  V30 520 H 43.0701 -1.66252 -7.61564 0
M  V30 521 N 47.2992 1.18797 -1.03562 0
M  V30 522 C 48.5462 1.8865 -0.736023 0
M  V30 523 C 48.8742 1.80041 0.735889 0
M  V30 524 O 48.1292 1.19179 1.55225 0
M  V30 525 C 48.4282 3.38692 -1.14117 0
M  V30 526 C 48.0942 3.67504 -2.6125 0
M  V30 527 C 46.7562 3.75078 -3.01447 0
M  V30 528 C 49.1082 3.80293 -3.56408 0
M  V30 529 C 46.4362 3.92915 -4.35701 0
M  V30 530 C 48.7882 3.99645 -4.90374 0
M  V30 531 C 47.4522 4.05453 -5.30249 0
M  V30 532 H 46.7222 0.690321 -0.26933 0
M  V30 533 H 49.3692 1.40641 -1.29971 0
M  V30 534 H 47.6742 3.88645 -0.496202 0
M  V30 535 H 49.3712 3.91072 -0.886789 0
M  V30 536 H 45.9612 3.62223 -2.29113 0
M  V30 537 H 50.1452 3.73779 -3.26501 0
M  V30 538 H 45.4012 3.95653 -4.66121 0
M  V30 539 H 49.5752 4.08482 -5.64017 0
M  V30 540 H 47.2022 4.19027 -6.34288 0
M  V30 541 N 48.7773 0.814389 1.34928 0
M  V30 542 C 49.7243 0.22822 2.29669 0
M  V30 543 C 50.6943 -0.642164 1.53184 0
M  V30 544 O 51.8793 -0.585605 1.81591 0
M  V30 545 C 49.0193 -0.61089 3.3965 0
M  V30 546 C 48.1323 0.280792 4.31086 0
M  V30 547 C 47.2673 -0.567067 5.28165 0
M  V30 548 C 46.3063 0.324531 6.11239 0
M  V30 549 N 45.4433 -0.483756 7.00431 0
M  V30 550 H 50.2833 1.04153 2.79206 0
M  V30 551 H 47.8203 0.525133 1.37407 0
M  V30 552 H 49.7783 -1.11263 4.0209 0
M  V30 553 H 48.4083 -1.38939 2.91369 0
M  V30 554 H 47.4603 0.900688 3.69583 0
M  V30 555 H 48.7723 0.966723 4.89342 0
M  V30 556 H 47.9263 -1.13363 5.96015 0
M  V30 557 H 46.6653 -1.28654 4.70425 0
M  V30 558 H 45.6703 0.903298 5.42329 0
M  V30 559 H 46.8953 1.04198 6.71059 0
M  V30 560 H 44.8413 -1.18706 6.45171 0
M  V30 561 H 44.7583 0.143965 7.55863 0
M  V30 562 H 46.0263 -1.03334 7.7262 0
M  V30 563 N 50.2554 -1.46986 0.568584 0
M  V30 564 C 51.1654 -2.33942 -0.17555 0
M  V30 565 C 52.1814 -1.48891 -0.90041 0
M  V30 566 O 53.3574 -1.81794 -0.86676 0
M  V30 567 C 50.4224 -3.25811 -1.18524 0
M  V30 568 C 49.4834 -4.26757 -0.466582 0
M  V30 569 C 48.7164 -5.14236 -1.42817 0
M  V30 570 O 48.9394 -5.04379 -2.66379 0
M  V30 571 O 47.8734 -5.94412 -0.946453 0
M  V30 572 H 51.6994 -2.98896 0.538036 0
M  V30 573 H 49.2844 -1.4573 0.329097 0
M  V30 574 H 51.1664 -3.82527 -1.76779 0
M  V30 575 H 49.8414 -2.63471 -1.88055 0
M  V30 576 H 48.7484 -3.73769 0.157451 0
M  V30 577 H 50.0814 -4.91843 0.187485 0
M  V30 578 N 51.7335 -0.305618 -1.54608 0
M  V30 579 C 52.9795 0.302746 -2.00528 0
M  V30 580 C 53.3125 1.53184 -1.19367 0
M  V30 581 O 52.5875 1.92598 -0.271321 0
M  V30 582 C 52.8705 0.654756 -3.54097 0
M  V30 583 C 52.7235 -0.583793 -4.45995 0
M  V30 584 C 54.0425 1.47947 -4.14487 0
M  V30 585 H 51.1615 0.108564 -0.72896 0
M  V30 586 H 53.8035 -0.418634 -1.85331 0
M  V30 587 H 51.9535 1.26935 -3.67178 0
M  V30 588 H 53.6255 -1.22224 -4.44814 0
M  V30 589 H 51.8685 -1.21615 -4.16404 0
M  V30 590 H 52.5395 -0.293287 -5.5122 0
M  V30 591 H 55.0155 0.96013 -4.04871 0
M  V30 592 H 53.8915 1.69454 -5.22088 0
M  V30 593 H 54.1525 2.47011 -3.66658 0
M  V30 594 N 53.2116 1.57565 -0.0334293 0
M  V30 595 C 54.1216 2.13943 0.962572 0
M  V30 596 C 55.1376 1.09276 1.35406 0
M  V30 597 O 56.3136 1.41355 1.4346 0
M  V30 598 C 53.3786 2.65887 2.22497 0
M  V30 599 C 52.4396 3.85286 1.8935 0
M  V30 600 C 51.6726 4.34743 3.09571 0
M  V30 601 O 51.8956 3.83352 4.22371 0
M  V30 602 O 50.8296 5.26538 2.91618 0
M  V30 603 H 54.6556 2.99333 0.513169 0
M  V30 604 H 52.2406 1.4822 0.18743 0
M  V30 605 H 54.1226 2.99346 2.96598 0
M  V30 606 H 52.7976 1.83578 2.6661 0
M  V30 607 H 51.7046 3.56746 1.1262 0
M  V30 608 H 53.0376 4.68771 1.5005 0
M  V30 609 N 54.6897 -0.239769 1.55765 0
M  V30 610 C 55.9367 -0.966801 1.7793 0
M  V30 611 C 56.2647 -1.85046 0.599015 0
M  V30 612 O 55.5197 -1.91197 -0.417395 0
M  V30 613 C 55.8187 -1.852 3.05672 0
M  V30 614 C 55.4847 -1.1231 4.36689 0
M  V30 615 C 54.1467 -0.921689 4.72291 0
M  V30 616 C 56.4987 -0.607019 5.17653 0
M  V30 617 C 53.8267 -0.191996 5.86386 0
M  V30 618 C 56.1787 0.109241 6.32506 0
M  V30 619 C 54.8427 0.322073 6.66723 0
M  V30 620 H 54.1127 -0.353778 0.651093 0
M  V30 621 H 56.7597 -0.23634 1.90036 0
M  V30 622 H 55.0647 -2.64975 2.8861 0
M  V30 623 H 56.7617 -2.41635 3.20021 0
M  V30 624 H 53.3517 -1.29004 4.08725 0
M  V30 625 H 57.5357 -0.750153 4.90598 0
M  V30 626 H 52.7917 -0.0166949 6.11398 0
M  V30 627 H 56.9657 0.516737 6.9448 0
M  V30 628 H 54.5927 0.88944 7.54979 0
M  V30 629 N 56.1678 -1.49265 -0.50573 0
M  V30 630 C 57.4138 -1.58748 -1.26202 0
M  V30 631 C 57.7468 -0.271227 -1.92297 0
M  V30 632 O 57.0218 0.724831 -1.80489 0
M  V30 633 C 57.3048 -2.74332 -2.33268 0
M  V30 634 C 57.1578 -4.15737 -1.71705 0
M  V30 635 C 58.4768 -2.85576 -3.34865 0
M  V30 636 H 55.5958 -0.577826 -0.457478 0
M  V30 637 H 58.2378 -1.81532 -0.560897 0
M  V30 638 H 56.3878 -2.55036 -2.93068 0
M  V30 639 H 58.0598 -4.46537 -1.15769 0
M  V30 640 H 56.3028 -4.21605 -1.02135 0
M  V30 641 H 56.9738 -4.92477 -2.49341 0
M  V30 642 H 59.4498 -3.03127 -2.8505 0
M  V30 643 H 58.3258 -3.68135 -4.07146 0
M  V30 644 H 58.5868 -1.94732 -3.96903 0
M  V30 645 N 57.6459 0.756429 -1.3826 0
M  V30 646 C 58.8929 1.51547 -1.34312 0
M  V30 647 C 59.2209 1.94382 0.0677144 0
M  V30 648 O 58.4759 1.65514 1.04421 0
M  V30 649 C 58.7749 2.78313 -2.24224 0
M  V30 650 C 58.4409 2.54455 -3.72241 0
M  V30 651 C 57.1029 2.47657 -4.12576 0
M  V30 652 C 59.4549 2.3354 -4.65949 0
M  V30 653 C 56.7829 2.17956 -5.44713 0
M  V30 654 C 59.1349 2.05359 -5.9834 0
M  V30 655 C 57.7989 1.97016 -6.37762 0
M  V30 656 H 57.0689 0.55455 -0.491482 0
M  V30 657 H 59.7159 0.870039 -1.70595 0
M  V30 658 H 58.0209 3.47492 -1.80987 0
M  V30 659 H 59.7179 3.36259 -2.18474 0
M  V30 660 H 56.3079 2.60616 -3.40261 0
M  V30 661 H 60.4919 2.37772 -4.35635 0
M  V30 662 H 55.7479 2.10003 -5.74203 0
M  V30 663 H 59.9219 1.88179 -6.70494 0
M  V30 664 H 57.5489 1.73766 -7.40074 0
M  V30 665 N 59.124 1.23083 0.984299 0
M  V30 666 C 60.071 1.00854 2.07598 0
M  V30 667 C 61.041 -0.0726709 1.65941 0
M  V30 668 O 62.226 0.0786535 1.90638 0
M  V30 669 C 59.366 0.601645 3.39815 0
M  V30 670 C 58.479 1.75456 3.94765 0
M  V30 671 C 57.614 1.29482 5.15177 0
M  V30 672 C 56.653 2.41873 5.62284 0
M  V30 673 N 55.79 1.96885 6.73929 0
M  V30 674 H 60.63 1.943 2.25946 0
M  V30 675 H 58.167 0.968001 1.10762 0
M  V30 676 H 60.125 0.346854 4.15756 0
M  V30 677 H 58.755 -0.295803 3.21442 0
M  V30 678 H 57.807 2.12346 3.15616 0
M  V30 679 H 59.119 2.59965 4.25699 0
M  V30 680 H 58.273 0.997923 5.98437 0
M  V30 681 H 57.012 0.420046 4.85888 0
M  V30 682 H 56.017 2.72342 4.77608 0
M  V30 683 H 57.242 3.29881 5.93595 0
M  V30 684 H 55.188 1.11782 6.46406 0
M  V30 685 H 55.105 2.74956 7.04227 0
M  V30 686 H 56.373 1.70289 7.60672 0
M  V30 687 N 60.6021 -1.18246 1.0419 0
M  V30 688 C 61.8271 -1.92736 0.765996 0
M  V30 689 C 62.2521 -1.75728 -0.67091 0
M  V30 690 O 61.6101 -1.06825 -1.46486 0
M  V30 691 C 61.6581 -3.42148 1.13875 0
M  V30 692 O 60.7621 -4.11548 0.264954 0
M  V30 693 H 60.1031 -0.601238 0.281797 0
M  V30 694 H 62.6331 -1.49942 1.39207 0
M  V30 695 H 62.6431 -3.92858 1.1012 0
M  V30 696 H 61.3181 -3.53848 2.18551 0
M  V30 697 H 59.8951 -3.71137 0.362226 0
M  V30 698 N 62.0802 -0.821533 -1.34494 0
M  V30 699 C 63.3052 -0.420873 -2.03085 0
M  V30 700 C 63.7302 0.964915 -1.61465 0
M  V30 701 O 63.0882 1.62763 -0.798607 0
M  V30 702 C 63.1362 -0.529414 -3.56693 0
M  V30 703 O 62.2402 0.451302 -4.09923 0
M  V30 704 H 61.5812 -0.173489 -0.640935 0
M  V30 705 H 64.1112 -1.11157 -1.71771 0
M  V30 706 H 64.1212 -0.404671 -4.05988 0
M  V30 707 H 62.7962 -1.54014 -3.86332 0
M  V30 708 H 61.3732 0.285558 -3.71805 0
M  V30 709 N 63.5583 1.46682 -0.576371 0
M  V30 710 C 64.8053 2.02412 -0.0595339 0
M  V30 711 C 65.1333 1.44859 1.29793 0
M  V30 712 O 64.3883 0.601099 1.8624 0
M  V30 713 C 64.6873 3.57345 0.062886 0
M  V30 714 C 64.3533 4.33908 -1.22616 0
M  V30 715 C 63.0153 4.54544 -1.57933 0
M  V30 716 C 65.3673 4.77919 -2.07948 0
M  V30 717 C 62.6953 5.16444 -2.78393 0
M  V30 718 C 65.0473 5.41149 -3.27629 0
M  V30 719 C 63.7113 5.60014 -3.63236 0
M  V30 720 H 62.9813 0.74068 -0.021785 0
M  V30 721 H 65.6283 1.76128 -0.751735 0
M  V30 722 H 63.9333 3.82729 0.838178 0
M  V30 723 H 65.6303 3.98136 0.478439 0
M  V30 724 H 62.2203 4.18138 -0.941202 0
M  V30 725 H 66.4043 4.61738 -1.81967 0
M  V30 726 H 61.6603 5.29242 -3.06126 0
M  V30 727 H 65.8343 5.74211 -3.94023 0
M  V30 728 H 63.4613 6.07748 -4.56669 0
M  V30 729 N 65.0364 0.313813 1.54444 0
M  V30 730 C 66.3134 -0.345447 1.92525 0
M  V30 731 C 66.6934 -1.70667 1.24242 0
M  V30 732 O 66.0414 -2.25273 0.382654 0
M  V30 733 C 66.2514 -0.44737 3.46121 0
M  V30 734 C 67.5994 -0.712238 4.18584 0
M  V30 735 O 68.6234 -0.530678 3.52225 0
M  V30 736 O 67.4824 -1.06183 5.36085 0
M  V30 737 H 64.5764 -0.195407 0.803583 0
M  V30 738 H 67.1224 0.362813 1.65776 0
M  V30 739 H 65.8944 0.509043 3.87975 0
M  V30 740 H 65.5174 -1.20359 3.78945 0
M  V30 741 N 66.5145 -1.57545 0.0417849 0
M  V30 742 C 67.4615 -2.10977 -0.935805 0
M  V30 743 C 68.4315 -1.01486 -1.31491 0
M  V30 744 O 69.6165 -1.2898 -1.40602 0
M  V30 745 C 66.7565 -2.65169 -2.2086 0
M  V30 746 C 65.8695 -3.88714 -1.88482 0
M  V30 747 C 65.0045 -4.31254 -3.1015 0
M  V30 748 C 64.0435 -5.47524 -2.7365 0
M  V30 749 N 63.1805 -5.85162 -3.87982 0
M  V30 750 H 68.0205 -2.94218 -0.473249 0
M  V30 751 H 65.5575 -1.45415 -0.221981 0
M  V30 752 H 67.5155 -2.94685 -2.95325 0
M  V30 753 H 66.1455 -1.8474 -2.64709 0
M  V30 754 H 65.1975 -3.65849 -1.04205 0
M  V30 755 H 66.5095 -4.73245 -1.57608 0
M  V30 756 H 65.6635 -4.62273 -3.92923 0
M  V30 757 H 64.4025 -3.45516 -3.44195 0
M  V30 758 H 63.4075 -5.16187 -1.89291 0
M  V30 759 H 64.6325 -6.34971 -2.40807 0
M  V30 760 H 62.5785 -5.02377 -4.21846 0
M  V30 761 H 62.4955 -6.64362 -3.60775 0
M  V30 762 H 63.7635 -6.20791 -4.71422 0
M  V30 763 N 67.9926 0.231505 -1.5589 0
M  V30 764 C 68.9556 1.27028 -1.90779 0
M  V30 765 C 69.9556 1.40308 -0.785507 0
M  V30 766 O 71.1456 1.38744 -1.05336 0
M  V30 767 C 68.2776 2.64566 -2.14983 0
M  V30 768 H 69.4706 0.973017 -2.83677 0
M  V30 769 H 67.0236 0.471486 -1.49019 0
M  V30 770 H 67.7586 2.99406 -1.24604 0
M  V30 771 H 67.5436 2.56305 -2.96732 0
M  V30 772 H 69.0336 3.39543 -2.43105 0
M  V30 773 N 69.4707 1.49531 0.497807 0
M  V30 774 C 70.4187 1.66926 1.61983 0
M  V30 775 C 71.4127 0.535167 1.60724 0
M  V30 776 O 72.6187 0.714896 1.65195 0
M  V30 777 H 68.9937 0.526415 0.537021 0
M  V30 778 H 70.9647 2.61098 1.44465 0
M  V30 779 C 69.7137 1.75602 3.00099 0
M  V30 780 H 69.0367 2.62244 3.01775 0
M  V30 781 H 70.4767 1.91807 3.78135 0
M  V30 782 C 68.9357 0.501543 3.33146 0
M  V30 783 O 69.4657 -0.371342 3.9998 0
M  V30 784 N 67.6717 0.363531 2.88317 0
M  V30 785 H 67.2187 1.07485 2.34104 0
M  V30 786 H 67.1767 -0.474728 3.10795 0
M  V30 787 N 70.9488 -0.749086 1.3866 0
M  V30 788 C 72.3648 -1.05276 1.19955 0
M  V30 789 C 72.5648 -2.01435 0.05134 0
M  V30 790 O 71.6208 -2.45232 -0.60147 0
M  V30 791 C 72.9338 -1.62853 2.52783 0
M  V30 792 C 74.4818 -1.75002 2.59506 0
M  V30 793 C 74.9568 -2.35991 3.92521 0
M  V30 794 N 76.4478 -2.43416 3.94085 0
M  V30 795 C 77.1828 -2.91511 4.9377 0
M  V30 796 N 76.6788 -3.39608 6.03853 0
M  V30 797 N 78.4718 -2.90592 4.81157 0
M  V30 798 H 70.6228 -0.111066 2.12109 0
M  V30 799 H 72.8858 -0.111901 0.941373 0
M  V30 800 H 72.5918 -0.99664 3.37283 0
M  V30 801 H 72.4658 -2.61854 2.715 0
M  V30 802 H 74.8528 -2.37317 1.75398 0
M  V30 803 H 74.9338 -0.74693 2.44652 0
M  V30 804 H 74.5778 -1.74308 4.77053 0
M  V30 805 H 74.5078 -3.3695 4.04688 0
M  V30 806 H 76.9988 -2.09405 3.14576 0
M  V30 807 H 77.3118 -3.74775 6.75843 0
M  V30 808 H 75.6568 -3.37653 6.07466 0
M  V30 809 H 78.8478 -2.52332 3.94267 0
M  V30 810 H 79.0208 -3.27762 5.58996 0
M  V30 811 N 72.4269 -1.23603 -0.977757 0
M  V30 812 C 73.6519 -1.09735 -1.75991 0
M  V30 813 C 74.0769 0.346858 -1.84874 0
M  V30 814 O 73.4349 1.25093 -1.3123 0
M  V30 815 C 73.4829 -1.73051 -3.16363 0
M  V30 816 O 72.5869 -0.994452 -4.0023 0
M  V30 817 H 71.9279 -0.384476 -0.541364 0
M  V30 818 H 74.4579 -1.6371 -1.2272 0
M  V30 819 H 74.4679 -1.78398 -3.66931 0
M  V30 820 H 73.1429 -2.78137 -3.09213 0
M  V30 821 H 71.7199 -1.01812 -3.58732 0
M  V30 822 N 73.905 1.17692 -1.04816 0
M  V30 823 C 75.13 1.92327 -0.776207 0
M  V30 824 C 75.555 1.76082 0.661581 0
M  V30 825 O 74.913 1.076 1.45917 0
M  V30 826 C 74.961 3.41539 -1.15687 0
M  V30 827 O 74.065 4.11402 -0.286775 0
M  V30 828 H 73.406 0.599735 -0.284981 0
M  V30 829 H 75.936 1.49201 -1.4 0
M  V30 830 H 75.946 3.92269 -1.12202 0
M  V30 831 H 74.621 3.52684 -2.20425 0
M  V30 832 H 73.198 3.70939 -0.381903 0
M  V30 833 N 75.3831 0.828654 1.34056 0
M  V30 834 C 76.6321 0.415828 1.97367 0
M  V30 835 C 76.9451 -1.02796 1.6641 0
M  V30 836 O 78.1511 -1.54497 2.23255 0
M  V30 837 C 76.6071 0.692601 3.53173 0
M  V30 838 C 76.2151 2.15038 3.93017 0
M  V30 839 C 77.9591 0.346222 4.23086 0
M  V30 840 C 75.8661 2.37174 5.41758 0
M  V30 841 H 74.7961 0.151755 0.738571 0
M  V30 842 H 77.4471 1.01581 1.52819 0
M  V30 843 H 75.8291 0.0223764 3.95994 0
M  V30 844 H 77.0031 2.86024 3.61285 0
M  V30 845 H 75.3181 2.45875 3.36057 0
M  V30 846 H 77.9151 0.48937 5.32456 0
M  V30 847 H 78.2581 -0.709842 4.10204 0
M  V30 848 H 78.7911 0.971258 3.85761 0
M  V30 849 H 75.5301 3.41308 5.59633 0
M  V30 850 H 75.0501 1.70738 5.74986 0
M  V30 851 H 76.7291 2.19818 6.08514 0
M  V30 852 N 76.8612 -1.46375 0.584142 0
M  V30 853 C 77.8112 -2.27371 -0.169232 0
M  V30 854 C 78.7952 -1.35955 -0.860523 0
M  V30 855 O 79.9872 -1.60119 -0.754382 0
M  V30 856 C 77.1162 -3.22334 -1.18134 0
M  V30 857 C 76.2022 -4.21235 -0.492088 0
M  V30 858 N 76.5932 -5.03766 0.453129 0
M  V30 859 C 74.8912 -4.39773 -0.742652 0
M  V30 860 C 75.5922 -5.75366 0.85609 0
M  V30 861 N 74.5682 -5.43214 0.204926 0
M  V30 862 H 78.3702 -2.88572 0.557097 0
M  V30 863 H 75.8842 -1.57242 0.406042 0
M  V30 864 H 77.8812 -3.79071 -1.73525 0
M  V30 865 H 76.5412 -2.62693 -1.90847 0
M  V30 866 H 77.5522 -5.11227 0.828723 0
M  V30 867 H 74.2292 -3.91279 -1.45625 0
M  V30 868 H 75.6192 -6.5172 1.63434 0
M  V30 869 N 78.3393 -0.321999 -1.54275 0
M  V30 870 C 79.5643 0.285791 -2.05422 0
M  V30 871 C 79.9893 1.45124 -1.19669 0
M  V30 872 O 79.3473 1.80132 -0.205441 0
M  V30 873 C 79.3953 0.69956 -3.53749 0
M  V30 874 O 78.4993 1.8021 -3.70942 0
M  V30 875 H 77.8403 0.0518962 -0.661969 0
M  V30 876 H 80.3703 -0.469954 -1.9913 0
M  V30 877 H 80.3803 0.982649 -3.9599 0
M  V30 878 H 79.0553 -0.152864 -4.15619 0
M  V30 879 H 77.6323 1.51794 -3.40607 0
M  V30 880 N 79.8174 1.5752 -0.0501392 0
M  V30 881 C 81.0644 1.9265 0.623874 0
M  V30 882 C 81.3924 0.928411 1.70912 0
M  V30 883 O 80.6474 -0.0594525 1.9561 0
M  V30 884 C 80.9464 3.34467 1.25963 0
M  V30 885 C 80.6124 4.49883 0.302689 0
M  V30 886 C 79.2744 4.81184 0.0393636 0
M  V30 887 C 81.6264 5.20002 -0.353205 0
M  V30 888 C 78.9544 5.79951 -0.887308 0
M  V30 889 C 81.3064 6.1976 -1.26806 0
M  V30 890 C 79.9704 6.49491 -1.54007 0
M  V30 891 H 79.2404 0.704957 0.228292 0
M  V30 892 H 81.8874 1.91146 -0.116398 0
M  V30 893 H 80.1924 3.32333 2.07514 0
M  V30 894 H 81.8894 3.58928 1.78806 0
M  V30 895 H 78.4794 4.25457 0.518109 0
M  V30 896 H 82.6634 4.96033 -0.162854 0
M  V30 897 H 77.9194 6.01322 -1.10553 0
M  V30 898 H 82.0934 6.73205 -1.78236 0
M  V30 899 H 79.7204 7.25837 -2.25976 0
M  V30 900 N 81.2955 -0.223234 1.56011 0
M  V30 901 C 82.7115 -0.572856 1.48965 0
M  V30 902 C 82.9115 -1.87225 0.74492 0
M  V30 903 O 81.9675 -2.50899 0.283896 0
M  V30 904 C 83.2805 -0.653646 2.9351 0
M  V30 905 C 84.8285 -0.744386 3.0402 0
M  V30 906 C 85.3035 -0.856535 4.49919 0
M  V30 907 N 86.7945 -0.9208 4.53955 0
M  V30 908 C 87.5295 -1.02726 5.64123 0
M  V30 909 N 87.0255 -1.09777 6.84047 0
M  V30 910 N 88.8185 -1.06226 5.51971 0
M  V30 911 H 80.9695 0.629462 2.02858 0
M  V30 912 H 83.2325 0.220621 0.921971 0
M  V30 913 H 82.9385 0.231518 3.50937 0
M  V30 914 H 82.8125 -1.51781 3.45315 0
M  V30 915 H 85.1995 -1.61999 2.46658 0
M  V30 916 H 85.2805 0.14541 2.55386 0
M  V30 917 H 84.9245 0.0146069 5.07898 0
M  V30 918 H 84.8545 -1.76172 4.96257 0
M  V30 919 H 87.3455 -0.876694 3.6759 0
M  V30 920 H 87.6585 -1.17872 7.63758 0
M  V30 921 H 86.0035 -1.06693 6.86762 0
M  V30 922 H 89.1945 -1.00382 4.5721 0
M  V30 923 H 89.3675 -1.14177 6.37862 0
M  V30 924 N 82.7736 -1.49793 -0.48987 0
M  V30 925 C 84.0216 -1.59525 -1.24081 0
M  V30 926 C 84.3426 -0.288953 -1.92847 0
M  V30 927 O 83.6126 0.692436 -1.83254 0
M  V30 928 H 82.1926 -0.587796 -0.460983 0
M  V30 929 H 84.8546 -1.86477 -0.566778 0
M  V30 930 H 83.9506 -2.39696 -1.99881 0
M  V30 931 N 84.2517 0.741722 -1.39055 0
M  V30 932 C 85.2017 1.84661 -1.33732 0
M  V30 933 C 86.1857 1.59397 -0.219401 0
M  V30 934 O 87.3777 1.71015 -0.456375 0
M  V30 935 C 84.5067 3.22512 -1.17647 0
M  V30 936 C 83.5927 3.53628 -2.34112 0
M  V30 937 N 83.9837 3.55723 -3.59576 0
M  V30 938 C 82.2817 3.83956 -2.26923 0
M  V30 939 C 82.9827 3.84443 -4.36553 0
M  V30 940 N 81.9587 4.01877 -3.66055 0
M  V30 941 H 85.7607 1.84576 -2.28711 0
M  V30 942 H 83.2747 0.939647 -1.32455 0
M  V30 943 H 85.2717 4.01597 -1.11917 0
M  V30 944 H 83.9317 3.2384 -0.236124 0
M  V30 945 H 84.9427 3.37196 -3.93089 0
M  V30 946 H 81.6197 3.92929 -1.41113 0
M  V30 947 H 83.0097 3.92588 -5.45274 0
M  V30 948 N 85.7298 1.2412 0.971189 0
M  V30 949 C 86.9778 1.07668 1.71032 0
M  V30 950 C 87.2988 -0.385797 1.91146 0
M  V30 951 O 86.5688 -1.27569 1.4867 0
M  V30 952 H 85.1488 0.395429 0.633755 0
M  V30 953 H 87.8108 1.55984 1.16855 0
M  V30 954 H 86.9068 1.57195 2.69622 0
M  V30 955 N 87.2079 -1.17134 1.05439 0
M  V30 956 C 88.1379 -2.2342 0.678649 0
M  V30 957 C 89.1189 -1.66971 -0.32476 0
M  V30 958 O 90.3039 -1.93149 -0.201802 0
M  V30 959 C 87.4339 -3.47256 0.0552099 0
M  V30 960 C 86.3879 -4.16543 0.98365 0
M  V30 961 C 85.7139 -5.34231 0.223961 0
M  V30 962 C 87.0139 -4.68495 2.3089 0
M  V30 963 H 88.7079 -2.55105 1.56722 0
M  V30 964 H 86.2539 -1.2262 0.754998 0
M  V30 965 H 88.2069 -4.20828 -0.21946 0
M  V30 966 H 86.9309 -3.14846 -0.868319 0
M  V30 967 H 85.5899 -3.44887 1.24293 0
M  V30 968 H 85.2379 -4.98071 -0.702412 0
M  V30 969 H 84.9379 -5.81527 0.842627 0
M  V30 970 H 86.4619 -6.10585 -0.0433671 0
M  V30 971 H 87.8759 -5.33691 2.09396 0
M  V30 972 H 86.2729 -5.26379 2.88176 0
M  V30 973 H 87.3429 -3.85169 2.94572 0
M  V30 974 N 88.686 -0.835752 -1.33615 0
M  V30 975 C 89.596 -0.269088 -2.33052 0
M  V30 976 C 90.612 0.603251 -1.63208 0
M  V30 977 O 91.788 0.508112 -1.94885 0
M  V30 978 C 88.853 0.549091 -3.42324 0
M  V30 979 C 87.914 -0.347156 -4.27894 0
M  V30 980 C 87.147 0.43207 -5.31948 0
M  V30 981 O 87.37 1.66409 -5.45586 0
M  V30 982 O 86.304 -0.192298 -6.01593 0
M  V30 983 H 90.13 -1.09243 -2.83372 0
M  V30 984 H 87.715 -0.598198 -1.36901 0
M  V30 985 H 89.597 1.01414 -4.09015 0
M  V30 986 H 88.272 1.34955 -2.94226 0
M  V30 987 H 87.179 -0.859979 -3.64081 0
M  V30 988 H 88.512 -1.1123 -4.79467 0
M  V30 989 N 90.1641 1.46063 -0.591896 0
M  V30 990 C 91.3941 2.06418 -0.0867676 0
M  V30 991 C 91.8021 1.43975 1.22751 0
M  V30 992 O 91.1451 0.542531 1.75506 0
M  V30 993 C 91.2071 3.59213 0.143725 0
M  V30 994 C 90.8711 4.439 -1.08635 0
M  V30 995 C 91.8681 4.79864 -2.00067 0
M  V30 996 C 89.5531 4.84896 -1.31077 0
M  V30 997 C 91.5471 5.55661 -3.12282 0
M  V30 998 C 89.2341 5.6045 -2.43596 0
M  V30 999 C 90.2321 5.95747 -3.34027 0
M  V30 1000 O 89.9201 6.69772 -4.4459 0
M  V30 1001 H 89.6521 0.673443 -0.0587447 0
M  V30 1002 H 92.2061 1.88539 -0.814994 0
M  V30 1003 H 90.4361 3.75433 0.926668 0
M  V30 1004 H 92.1251 4.01463 0.5985 0
M  V30 1005 H 92.8911 4.48763 -1.83947 0
M  V30 1006 H 88.7701 4.56867 -0.61594 0
M  V30 1007 H 92.3141 5.8313 -3.82891 0
M  V30 1008 H 88.2111 5.90965 -2.59674 0
M  V30 1009 H 88.9791 6.88207 -4.43073 0
M  V30 1010 N 91.6422 0.330177 1.54103 0
M  V30 1011 C 92.8902 -0.269871 2.0029 0
M  V30 1012 C 93.2112 -1.52133 1.21986 0
M  V30 1013 O 92.4812 -1.93212 0.323438 0
M  V30 1014 H 91.0612 -0.10271 0.739905 0
M  V30 1015 H 93.7232 0.448249 1.89675 0
M  V30 1016 H 92.8192 -0.52166 3.07709 0
M  V30 1017 N 93.1203 -1.57491 0.0584922 0
M  V30 1018 C 94.3663 -1.93264 -0.614558 0
M  V30 1019 C 94.6993 -0.937717 -1.7006 0
M  V30 1020 O 93.9743 0.0351652 -1.94468 0
M  V30 1021 C 94.2573 -3.3938 -1.20386 0
M  V30 1022 C 94.1103 -4.49625 -0.125375 0
M  V30 1023 C 95.4293 -3.86039 -2.11334 0
M  V30 1024 H 92.5483 -0.702791 -0.221933 0
M  V30 1025 H 95.1903 -1.8961 0.12175 0
M  V30 1026 H 93.3403 -3.42626 -1.83139 0
M  V30 1027 H 95.0123 -4.58506 0.506971 0
M  V30 1028 H 93.2553 -4.30354 0.545672 0
M  V30 1029 H 93.9263 -5.48967 -0.577861 0
M  V30 1030 H 96.4023 -3.84716 -1.58534 0
M  V30 1031 H 95.2783 -4.88914 -2.49507 0
M  V30 1032 H 95.5393 -3.23215 -3.01636 0
M  V30 1033 N 94.5984 0.214957 -1.56127 0
M  V30 1034 C 95.5454 1.26642 -1.92952 0
M  V30 1035 C 96.5154 1.46244 -0.78753 0
M  V30 1036 O 97.7004 1.59704 -1.04399 0
M  V30 1037 C 94.8404 2.6104 -2.25726 0
M  V30 1038 C 93.9534 2.49183 -3.52891 0
M  V30 1039 C 93.0884 3.76149 -3.7508 0
M  V30 1040 C 92.1274 3.59041 -4.95738 0
M  V30 1041 N 91.2644 4.77972 -5.14283 0
M  V30 1042 H 96.1044 0.945384 -2.82607 0
M  V30 1043 H 93.6414 0.455489 -1.3987 0
M  V30 1044 H 95.5994 3.39313 -2.42739 0
M  V30 1045 H 94.2294 2.91227 -1.39236 0
M  V30 1046 H 93.2814 1.6231 -3.44034 0
M  V30 1047 H 94.5934 2.32466 -4.41318 0
M  V30 1048 H 93.7474 4.62865 -3.92226 0
M  V30 1049 H 92.4864 3.95799 -2.84947 0
M  V30 1050 H 91.4914 2.7071 -4.78535 0
M  V30 1051 H 92.7164 3.40856 -5.87362 0
M  V30 1052 H 90.6624 4.97923 -4.27093 0
M  V30 1053 H 90.5794 4.64006 -5.96853 0
M  V30 1054 H 91.8474 5.66096 -5.35869 0
M  V30 1055 N 96.0765 1.50051 0.48192 0
M  V30 1056 C 97.0395 1.67584 1.5636 0
M  V30 1057 C 98.0395 0.546894 1.51214 0
M  V30 1058 O 99.2295 0.813725 1.54026 0
M  V30 1059 C 96.3615 1.691 2.96003 0
M  V30 1060 H 97.5545 2.64078 1.42136 0
M  V30 1061 H 95.1075 1.39369 0.707533 0
M  V30 1062 H 95.8425 0.742589 3.15684 0
M  V30 1063 H 95.6275 2.51105 3.01146 0
M  V30 1064 H 97.1175 1.84656 3.74556 0
M  V30 1065 N 97.5546 -0.734337 1.39446 0
M  V30 1066 C 98.4846 -1.86155 1.40955 0
M  V30 1067 C 99.4656 -1.67898 0.272827 0
M  V30 1068 O 100.651 -1.88207 0.478743 0
M  V30 1069 C 97.7806 -3.23912 1.25294 0
M  V30 1070 C 96.7346 -3.56808 2.36373 0
M  V30 1071 C 96.0606 -4.93508 2.058 0
M  V30 1072 C 97.3606 -3.59713 3.78687 0
M  V30 1073 H 99.0546 -1.8515 2.35287 0
M  V30 1074 H 96.6006 -0.889367 1.13253 0
M  V30 1075 H 98.5536 -4.02443 1.2497 0
M  V30 1076 H 97.2776 -3.25446 0.274308 0
M  V30 1077 H 95.9366 -2.80606 2.35914 0
M  V30 1078 H 95.5846 -4.91623 1.06374 0
M  V30 1079 H 95.2846 -5.16486 2.80208 0
M  V30 1080 H 96.8086 -5.74396 2.07128 0
M  V30 1081 H 98.2226 -4.2832 3.81071 0
M  V30 1082 H 96.6196 -3.94209 4.52459 0
M  V30 1083 H 97.6896 -2.59504 4.09617 0
M  V30 1084 N 99.0327 -1.24633 -0.964593 0
M  V30 1085 C 100.449 -1.01239 -1.2338 0
M  V30 1086 C 100.649 0.2769 -1.99588 0
M  V30 1087 O 99.7047 0.992241 -2.32187 0
M  V30 1088 C 101.018 -2.22937 -2.01791 0
M  V30 1089 C 102.566 -2.27594 -2.14872 0
M  V30 1090 C 103.041 -3.48921 -2.96678 0
M  V30 1091 N 104.532 -3.49257 -3.04259 0
M  V30 1092 C 105.267 -4.39795 -3.67924 0
M  V30 1093 N 104.763 -5.40591 -4.33281 0
M  V30 1094 N 106.556 -4.275 -3.64966 0
M  V30 1095 H 98.7067 -2.0748 -0.454502 0
M  V30 1096 H 100.97 -0.910647 -0.26349 0
M  V30 1097 H 100.676 -3.16587 -1.53184 0
M  V30 1098 H 100.55 -2.25306 -3.02518 0
M  V30 1099 H 102.937 -1.34473 -2.6268 0
M  V30 1100 H 103.018 -2.2925 -1.13482 0
M  V30 1101 H 102.662 -4.42359 -2.49562 0
M  V30 1102 H 102.592 -3.4451 -3.98272 0
M  V30 1103 H 105.083 -2.76337 -2.57771 0
M  V30 1104 H 105.396 -6.05904 -4.79687 0
M  V30 1105 H 103.741 -5.44475 -4.3194 0
M  V30 1106 H 106.932 -3.47987 -3.13086 0
M  V30 1107 H 107.105 -4.98258 -4.14298 0
M  V30 1108 N 100.511 1.16574 -1.06058 0
M  V30 1109 C 101.458 2.20883 -0.669263 0
M  V30 1110 C 102.428 1.62729 0.332918 0
M  V30 1111 O 103.613 1.895 0.222346 0
M  V30 1112 C 100.753 3.45049 -0.0593572 0
M  V30 1113 C 99.8658 4.17458 -1.11143 0
M  V30 1114 C 99.0008 5.29135 -0.467916 0
M  V30 1115 C 98.0398 5.93343 -1.50369 0
M  V30 1116 N 97.1768 6.96516 -0.883706 0
M  V30 1117 H 102.017 2.53709 -1.5632 0
M  V30 1118 H 99.5538 1.24616 -0.781625 0
M  V30 1119 H 101.512 4.16033 0.311771 0
M  V30 1120 H 100.142 3.12781 0.797992 0
M  V30 1121 H 99.1938 3.45101 -1.60029 0
M  V30 1122 H 100.506 4.61307 -1.89731 0
M  V30 1123 H 99.6598 6.06684 -0.0436871 0
M  V30 1124 H 98.3988 4.86443 0.349864 0
M  V30 1125 H 97.4038 5.14517 -1.93784 0
M  V30 1126 H 98.6288 6.38114 -2.32352 0
M  V30 1127 H 96.5748 6.55943 -0.086595 0
M  V30 1128 H 96.4918 7.38723 -1.607 0
M  V30 1129 H 97.7598 7.77993 -0.484543 0
M  V30 1130 N 101.989 0.842826 1.3317 0
M  V30 1131 C 103.235 0.441099 1.97945 0
M  V30 1132 C 103.568 -0.998024 1.66593 0
M  V30 1133 O 102.843 -1.69839 0.947898 0
M  V30 1134 C 103.126 0.666841 3.53872 0
M  V30 1135 C 102.979 2.15352 3.94897 0
M  V30 1136 C 104.298 0.115544 4.39948 0
M  V30 1137 H 101.417 0.161739 0.719034 0
M  V30 1138 H 104.059 1.05907 1.57746 0
M  V30 1139 H 102.209 0.140828 3.88245 0
M  V30 1140 H 103.881 2.7447 3.70761 0
M  V30 1141 H 102.124 2.63653 3.44484 0
M  V30 1142 H 102.795 2.26221 5.03516 0
M  V30 1143 H 105.271 0.565213 4.12243 0
M  V30 1144 H 104.147 0.303152 5.48062 0
M  V30 1145 H 104.408 -0.980935 4.3108 0
M  V30 1146 N 103.467 -1.45747 0.599634 0
M  V30 1147 C 104.414 -2.30467 -0.123849 0
M  V30 1148 C 105.384 -1.41632 -0.86774 0
M  V30 1149 O 106.569 -1.70568 -0.855056 0
M  V30 1150 C 103.709 -3.26402 -1.12051 0
M  V30 1151 C 102.822 -4.3034 -0.37832 0
M  V30 1152 C 101.957 -5.13389 -1.364 0
M  V30 1153 C 100.996 -6.09061 -0.609171 0
M  V30 1154 N 100.133 -6.84918 -1.54374 0
M  V30 1155 H 104.973 -2.91802 0.604627 0
M  V30 1156 H 102.51 -1.43797 0.309972 0
M  V30 1157 H 104.468 -3.80482 -1.7114 0
M  V30 1158 H 103.098 -2.66839 -1.8165 0
M  V30 1159 H 102.15 -3.78984 0.327929 0
M  V30 1160 H 103.462 -4.98354 0.210997 0
M  V30 1161 H 102.616 -5.7183 -2.02719 0
M  V30 1162 H 101.355 -4.45376 -1.98725 0
M  V30 1163 H 100.36 -5.49758 0.0676979 0
M  V30 1164 H 101.585 -6.79099 0.00891991 0
M  V30 1165 H 99.531 -6.19601 -2.15478 0
M  V30 1166 H 99.448 -7.49254 -1.00766 0
M  V30 1167 H 100.716 -7.47906 -2.19676 0
M  V30 1168 N 104.945 -0.338344 -1.53925 0
M  V30 1169 C 105.855 0.529421 -2.28548 0
M  V30 1170 C 106.871 1.11645 -1.3346 0
M  V30 1171 O 108.047 1.13325 -1.66492 0
M  V30 1172 C 105.112 1.66713 -3.03987 0
M  V30 1173 C 104.173 1.11041 -4.14691 0
M  V30 1174 C 103.406 2.19389 -4.86522 0
M  V30 1175 O 103.629 3.40013 -4.57982 0
M  V30 1176 O 102.563 1.83976 -5.73094 0
M  V30 1177 H 106.389 -0.0770399 -3.03602 0
M  V30 1178 H 103.974 -0.103555 -1.49041 0
M  V30 1179 H 105.856 2.32918 -3.5118 0
M  V30 1180 H 104.531 2.25949 -2.31794 0
M  V30 1181 H 103.438 0.413024 -3.71813 0
M  V30 1182 H 104.771 0.562975 -4.8897 0
M  V30 1183 N 106.423 1.57458 -0.0668435 0
M  V30 1184 C 107.333 2.15937 0.916975 0
M  V30 1185 C 108.349 1.12123 1.33058 0
M  V30 1186 O 109.525 1.44366 1.40429 0
M  V30 1187 C 106.59 2.70547 2.16807 0
M  V30 1188 C 105.651 3.89215 1.81135 0
M  V30 1189 C 104.884 4.41211 3.0028 0
M  V30 1190 O 105.107 3.92225 4.14144 0
M  V30 1191 O 104.041 5.32605 2.80384 0
M  V30 1192 H 107.867 3.00354 0.449561 0
M  V30 1193 H 105.452 1.48584 0.155949 0
M  V30 1194 H 107.334 3.0557 2.90181 0
M  V30 1195 H 106.009 1.89192 2.62656 0
M  V30 1196 H 104.916 3.59054 1.05028 0
M  V30 1197 H 106.249 4.71848 1.40073 0
M  V30 1198 N 107.901 -0.206675 1.56239 0
M  V30 1199 C 109.148 -0.928842 1.79941 0
M  V30 1200 C 109.476 -1.83734 0.638131 0
M  V30 1201 O 108.731 -1.92039 -0.376746 0
M  V30 1202 C 109.03 -1.78675 3.09532 0
M  V30 1203 C 108.696 -1.03022 4.38973 0
M  V30 1204 C 107.358 -0.821302 4.74139 0
M  V30 1205 C 109.71 -0.497081 5.18824 0
M  V30 1206 C 107.038 -0.0675719 5.86661 0
M  V30 1207 C 109.39 0.24338 6.32132 0
M  V30 1208 C 108.054 0.463422 6.65889 0
M  V30 1209 H 107.324 -0.339887 0.658451 0
M  V30 1210 H 109.971 -0.195977 1.90495 0
M  V30 1211 H 108.276 -2.58794 2.94165 0
M  V30 1212 H 109.973 -2.34792 3.25075 0
M  V30 1213 H 106.563 -1.20306 4.11369 0
M  V30 1214 H 110.747 -0.645921 4.92079 0
M  V30 1215 H 106.003 0.112995 6.11296 0
M  V30 1216 H 110.177 0.66393 6.93228 0
M  V30 1217 H 107.804 1.04938 7.52922 0
M  V30 1218 N 109.379 -1.50304 -0.473955 0
M  V30 1219 C 110.627 -1.60832 -1.22382 0
M  V30 1220 C 110.948 -0.30939 -1.9253 0
M  V30 1221 O 110.218 0.67296 -1.83978 0
M  V30 1222 H 108.798 -0.592652 -0.454723 0
M  V30 1223 H 111.46 -1.87068 -0.546968 0
M  V30 1224 H 110.556 -2.41803 -1.97327 0
M  V30 1225 N 110.857 0.726932 -1.39834 0
M  V30 1226 C 111.787 1.85405 -1.41941 0
M  V30 1227 C 112.768 1.67751 -0.281728 0
M  V30 1228 O 113.953 1.8795 -0.488717 0
M  V30 1229 C 111.083 3.23243 -1.2701 0
M  V30 1230 C 110.037 3.55549 -2.38262 0
M  V30 1231 C 109.363 4.9241 -2.08415 0
M  V30 1232 C 110.663 3.577 -3.80589 0
M  V30 1233 H 112.357 1.83899 -2.36266 0
M  V30 1234 H 109.903 0.883349 -1.13723 0
M  V30 1235 H 111.856 4.01775 -1.27103 0
M  V30 1236 H 110.58 3.25296 -0.291564 0
M  V30 1237 H 109.239 2.79351 -2.37399 0
M  V30 1238 H 108.887 4.91052 -1.0898 0
M  V30 1239 H 108.587 5.14992 -2.82943 0
M  V30 1240 H 110.111 5.73289 -2.10171 0
M  V30 1241 H 111.525 4.26293 -3.83337 0
M  V30 1242 H 109.922 3.91804 -4.54543 0
M  V30 1243 H 110.992 2.57328 -4.10987 0
M  V30 1244 N 112.336 1.25143 0.95797 0
M  V30 1245 C 113.283 1.05235 2.05412 0
M  V30 1246 C 114.253 -0.0374561 1.66058 0
M  V30 1247 O 115.438 0.119073 1.90428 0
M  V30 1248 C 112.578 0.673589 3.38462 0
M  V30 1249 C 111.691 1.8379 3.90954 0
M  V30 1250 C 110.826 1.40381 5.12315 0
M  V30 1251 C 109.865 2.53746 5.57027 0
M  V30 1252 N 109.002 2.11136 6.69601 0
M  V30 1253 H 113.842 1.99048 2.21774 0
M  V30 1254 H 111.379 0.991277 1.08683 0
M  V30 1255 H 113.337 0.434964 4.14926 0
M  V30 1256 H 111.967 -0.227554 3.21997 0
M  V30 1257 H 111.019 2.18992 3.11041 0
M  V30 1258 H 112.331 2.68937 4.20089 0
M  V30 1259 H 111.485 1.12464 5.96185 0
M  V30 1260 H 110.224 0.523015 4.84887 0
M  V30 1261 H 109.229 2.82412 4.71724 0
M  V30 1262 H 110.454 3.42398 5.86464 0
M  V30 1263 H 108.4 1.25468 6.4389 0
M  V30 1264 H 108.317 2.89832 6.98236 0
M  V30 1265 H 109.585 1.86385 7.56889 0
M  V30 1266 N 113.814 -1.1601 1.06675 0
M  V30 1267 C 115.063 -1.85973 0.780818 0
M  V30 1268 C 115.376 -1.82819 -0.695444 0
M  V30 1269 O 116.582 -2.484 -1.09589 0
M  V30 1270 C 115.038 -3.33757 1.34665 0
M  V30 1271 C 114.646 -3.45374 2.85343 0
M  V30 1272 C 116.39 -4.0895 1.13843 0
M  V30 1273 C 114.297 -4.87266 3.35151 0
M  V30 1274 H 113.227 -0.696661 0.288407 0
M  V30 1275 H 115.878 -1.30903 1.28595 0
M  V30 1276 H 114.26 -3.88456 0.769274 0
M  V30 1277 H 115.434 -3.00816 3.49065 0
M  V30 1278 H 113.749 -2.83619 3.04876 0
M  V30 1279 H 116.346 -5.13654 1.4854 0
M  V30 1280 H 116.689 -4.16229 0.0770282 0
M  V30 1281 H 117.222 -3.605 1.68179 0
M  V30 1282 H 113.961 -4.85168 4.40786 0
M  V30 1283 H 113.481 -5.32433 2.76179 0
M  V30 1284 H 115.16 -5.56097 3.30704 0
M  V30 1285 N 115.292 -0.849877 -1.32721 0
M  V30 1286 C 116.52 -0.464754 -2.01613 0
M  V30 1287 C 116.935 0.937191 -1.63897 0
M  V30 1288 O 116.292 1.61081 -0.857856 0
M  V30 1289 C 116.343 -0.588638 -3.56675 0
M  V30 1290 O 116.064 -1.93535 -3.93034 0
M  V30 1291 C 117.565 -0.2019 -4.4284 0
M  V30 1292 H 114.785 -0.183215 -0.645502 0
M  V30 1293 H 117.329 -1.1455 -1.69407 0
M  V30 1294 H 115.484 0.0443159 -3.87375 0
M  V30 1295 H 115.898 -1.92871 -4.87751 0
M  V30 1296 H 117.372 -0.339599 -5.50954 0
M  V30 1297 H 117.849 0.857224 -4.30753 0
M  V30 1298 H 118.455 -0.809733 -4.17521 0
M  V30 1299 N 116.77 1.45427 -0.607355 0
M  V30 1300 C 117.998 2.06614 -0.108814 0
M  V30 1301 C 118.413 1.45204 1.2067 0
M  V30 1302 O 117.77 0.566132 1.73497 0
M  V30 1303 C 117.821 3.61481 0.0375347 0
M  V30 1304 O 117.542 4.20598 -1.22593 0
M  V30 1305 C 119.043 4.39652 0.567561 0
M  V30 1306 H 116.263 0.66747 -0.0687351 0
M  V30 1307 H 118.807 1.86675 -0.835022 0
M  V30 1308 H 116.962 3.80762 0.714068 0
M  V30 1309 H 117.376 5.1377 -1.05547 0
M  V30 1310 H 118.85 5.48518 0.61905 0
M  V30 1311 H 119.327 4.09417 1.58978 0
M  V30 1312 H 119.933 4.25234 -0.0749202 0
M  V30 1313 N 118.248 0.346503 1.53744 0
M  V30 1314 C 119.525 -0.304532 1.93215 0
M  V30 1315 C 119.905 -1.67993 1.27834 0
M  V30 1316 O 119.253 -2.24411 0.430352 0
M  V30 1317 C 119.463 -0.373852 3.46992 0
M  V30 1318 C 120.811 -0.62329 4.2 0
M  V30 1319 O 121.835 -0.455847 3.53271 0
M  V30 1320 O 120.694 -0.947879 5.38217 0
M  V30 1321 H 117.788 -0.178318 0.807547 0
M  V30 1322 H 120.334 0.397895 1.64969 0
M  V30 1323 H 119.106 0.591224 3.86808 0
M  V30 1324 H 118.729 -1.12294 3.81413 0
M  V30 1325 N 119.726 -1.57421 0.075193 0
M  V30 1326 C 120.975 -1.92794 -0.592731 0
M  V30 1327 C 121.288 -0.957478 -1.70563 0
M  V30 1328 O 122.494 -1.20417 -2.43335 0
M  V30 1329 C 120.95 -3.42495 -1.10569 0
M  V30 1330 C 120.558 -4.47994 -0.0236121 0
M  V30 1331 C 122.302 -3.86864 -1.74748 0
M  V30 1332 C 120.209 -5.88829 -0.550803 0
M  V30 1333 H 119.139 -0.719591 -0.225177 0
M  V30 1334 H 121.79 -1.82902 0.147978 0
M  V30 1335 H 120.172 -3.47471 -1.89947 0
M  V30 1336 H 121.346 -4.54637 0.751099 0
M  V30 1337 H 119.661 -4.13113 0.522159 0
M  V30 1338 H 122.258 -4.8947 -2.15229 0
M  V30 1339 H 122.601 -3.24417 -2.60882 0
M  V30 1340 H 123.134 -3.84504 -1.01986 0
M  V30 1341 H 119.873 -6.54929 0.273457 0
M  V30 1342 H 119.393 -5.85698 -1.29296 0
M  V30 1343 H 121.072 -6.38811 -1.02613 0
M  V30 1344 N 121.204 0.198386 -1.56346 0
M  V30 1345 C 122.154 1.2499 -1.90687 0
M  V30 1346 C 123.138 1.41158 -0.772217 0
M  V30 1347 O 124.33 1.43584 -1.03502 0
M  V30 1348 C 121.459 2.59542 -2.24706 0
M  V30 1349 C 120.545 2.47181 -3.44619 0
M  V30 1350 N 120.936 2.04495 -4.62618 0
M  V30 1351 C 119.234 2.78082 -3.48692 0
M  V30 1352 C 119.935 2.03945 -5.44776 0
M  V30 1353 N 118.911 2.45323 -4.85095 0
M  V30 1354 H 122.713 0.911149 -2.7942 0
M  V30 1355 H 120.227 0.40684 -1.57221 0
M  V30 1356 H 122.224 3.3549 -2.47491 0
M  V30 1357 H 120.884 2.94244 -1.37298 0
M  V30 1358 H 121.895 1.75256 -4.87345 0
M  V30 1359 H 118.572 3.17002 -2.71691 0
M  V30 1360 H 119.962 1.72872 -6.4928 0
M  V30 1361 N 122.682 1.50554 0.465978 0
M  V30 1362 C 123.592 1.72585 1.58907 0
M  V30 1363 C 124.608 0.60911 1.6299 0
M  V30 1364 O 125.784 0.88804 1.80765 0
M  V30 1365 C 122.849 1.81995 2.95091 0
M  V30 1366 C 121.91 3.05751 3.01355 0
M  V30 1367 C 121.143 3.14702 4.31043 0
M  V30 1368 O 121.366 2.30313 5.21835 0
M  V30 1369 O 120.3 4.07468 4.43005 0
M  V30 1370 H 124.126 2.67799 1.43239 0
M  V30 1371 H 121.711 1.34711 0.646013 0
M  V30 1372 H 123.593 1.90335 3.75966 0
M  V30 1373 H 122.268 0.899659 3.10947 0
M  V30 1374 H 121.175 3.02908 2.19539 0
M  V30 1375 H 122.508 3.97375 2.90437 0
M  V30 1376 N 124.16 -0.719506 1.40217 0
M  V30 1377 C 125.385 -1.51371 1.4178 0
M  V30 1378 C 125.81 -1.88091 0.0182355 0
M  V30 1379 O 125.168 -1.52997 -0.972707 0
M  V30 1380 C 125.216 -2.768 2.31115 0
M  V30 1381 O 124.32 -3.73349 1.7517 0
M  V30 1382 H 123.661 -0.456529 0.482159 0
M  V30 1383 H 126.191 -0.88644 1.844 0
M  V30 1384 H 126.201 -3.25371 2.46167 0
M  V30 1385 H 124.876 -2.49407 3.3282 0
M  V30 1386 H 123.453 -3.32179 1.69444 0
M  V30 1387 N 125.638 -1.25649 -0.95132 0
M  V30 1388 C 126.884 -1.11766 -1.69941 0
M  V30 1389 C 127.239 0.33735 -1.89419 0
M  V30 1390 O 126.532 1.24491 -1.45645 0
M  V30 1391 C 126.726 -1.80909 -3.08231 0
M  V30 1392 C 126.555 -3.32984 -3.02245 0
M  V30 1393 C 125.325 -4.02247 -3.05819 0
M  V30 1394 C 127.523 -4.29332 -2.83157 0
M  V30 1395 N 125.505 -5.41072 -2.90024 0
M  V30 1396 C 126.876 -5.55265 -2.75828 0
M  V30 1397 C 128.931 -4.19707 -2.67863 0
M  V30 1398 C 127.634 -6.72671 -2.54767 0
M  V30 1399 C 129.66 -5.36809 -2.48173 0
M  V30 1400 C 129.022 -6.61683 -2.41567 0
M  V30 1401 H 125.121 -0.463708 -0.629682 0
M  V30 1402 H 127.705 -1.58796 -1.12659 0
M  V30 1403 H 125.876 -1.36369 -3.63673 0
M  V30 1404 H 127.608 -1.59739 -3.71841 0
M  V30 1405 H 124.363 -3.53531 -3.15139 0
M  V30 1406 H 124.787 -6.13938 -2.85323 0
M  V30 1407 H 129.429 -3.23907 -2.71743 0
M  V30 1408 H 127.147 -7.68577 -2.49629 0
M  V30 1409 H 130.733 -5.31224 -2.37259 0
M  V30 1410 H 129.613 -7.50768 -2.26531 0
M  V30 1411 N 127.117 1.15442 -1.07289 0
M  V30 1412 C 128.049 2.19773 -0.650585 0
M  V30 1413 C 129.062 1.60076 0.296572 0
M  V30 1414 O 130.251 1.78293 0.0859905 0
M  V30 1415 C 127.351 3.38838 0.0650398 0
M  V30 1416 C 126.524 4.2808 -0.898141 0
M  V30 1417 C 125.583 5.2574 -0.219926 0
M  V30 1418 O 124.609 5.62654 -0.860773 0
M  V30 1419 N 125.811 5.71205 1.03466 0
M  V30 1420 H 128.576 2.56622 -1.54808 0
M  V30 1421 H 126.137 1.30551 -0.957494 0
M  V30 1422 H 128.129 4.01222 0.529415 0
M  V30 1423 H 126.699 3.00409 0.864466 0
M  V30 1424 H 125.919 3.62804 -1.54165 0
M  V30 1425 H 127.207 4.84577 -1.5512 0
M  V30 1426 H 126.605 5.43325 1.57526 0
M  V30 1427 H 125.162 6.35633 1.44272 0
M  V30 1428 N 128.595 0.856903 1.32268 0
M  V30 1429 C 129.558 0.308171 2.27119 0
M  V30 1430 C 130.558 -0.533421 1.51695 0
M  V30 1431 O 131.748 -0.344607 1.70757 0
M  V30 1432 C 128.88 -0.563757 3.36206 0
M  V30 1433 H 130.073 1.14535 2.77167 0
M  V30 1434 H 127.626 0.631421 1.42978 0
M  V30 1435 H 128.361 -1.42266 2.91429 0
M  V30 1436 H 128.146 0.0386749 3.92081 0
M  V30 1437 H 129.636 -0.940386 4.06874 0
M  V30 1438 N 130.073 -1.45103 0.615059 0
M  V30 1439 C 130.983 -2.34382 -0.101034 0
M  V30 1440 C 131.999 -1.51681 -0.852585 0
M  V30 1441 O 133.175 -1.8446 -0.808484 0
M  V30 1442 C 130.24 -3.29417 -1.08099 0
M  V30 1443 C 129.301 -4.28025 -0.330577 0
M  V30 1444 C 128.534 -5.1852 -1.26385 0
M  V30 1445 O 128.757 -5.12598 -2.50198 0
M  V30 1446 O 127.691 -5.97122 -0.756866 0
M  V30 1447 H 131.517 -2.97033 0.632855 0
M  V30 1448 H 129.102 -1.4461 0.375293 0
M  V30 1449 H 130.984 -3.87958 -1.6452 0
M  V30 1450 H 129.659 -2.69321 -1.79577 0
M  V30 1451 H 128.566 -3.73078 0.276283 0
M  V30 1452 H 129.899 -4.90997 0.343866 0
M  V30 1453 N 131.551 -0.354651 -1.53558 0
M  V30 1454 C 132.962 0.126902 -1.86268 0
M  V30 1455 C 133.313 1.49075 -1.27558 0
M  V30 1456 O 132.438 2.08105 -0.5934 0
M  V30 1457 C 133.033 0.237046 -3.3797 0
M  V30 1458 C 131.592 0.662842 -3.70518 0
M  V30 1459 C 130.739 -0.196652 -2.76602 0
M  V30 1460 H 133.69 -0.573849 -1.47962 0
M  V30 1461 H 133.711 1.06259 -3.65362 0
M  V30 1462 H 133.223 -0.755725 -3.80671 0
M  V30 1463 H 131.324 1.66424 -3.33367 0
M  V30 1464 H 131.437 0.445034 -4.77029 0
M  V30 1465 H 129.801 0.332763 -2.52517 0
M  V30 1466 H 130.584 -1.18676 -3.22135 0
M  V30 1467 N 133.029 1.57378 -0.0835403 0
M  V30 1468 C 134.275 1.94217 0.583733 0
M  V30 1469 C 134.608 0.964653 1.68547 0
M  V30 1470 O 133.883 -0.00422258 1.945 0
M  V30 1471 C 134.166 3.41253 1.14972 0
M  V30 1472 C 134.019 4.49768 0.0538277 0
M  V30 1473 C 135.338 3.89352 2.05166 0
M  V30 1474 H 132.457 0.706233 0.210724 0
M  V30 1475 H 135.099 1.89392 -0.1519 0
M  V30 1476 H 133.249 3.45496 1.77665 0
M  V30 1477 H 134.921 4.57641 -0.579851 0
M  V30 1478 H 133.164 4.29432 -0.614068 0
M  V30 1479 H 133.835 5.49817 0.490452 0
M  V30 1480 H 136.311 3.87189 1.52393 0
M  V30 1481 H 135.187 4.92822 2.41698 0
M  V30 1482 H 135.448 3.27973 2.96456 0
M  V30 1483 N 134.507 -0.190092 1.56449 0
M  V30 1484 C 135.47 -1.21925 1.9408 0
M  V30 1485 C 136.47 -1.38176 0.822431 0
M  V30 1486 O 137.66 -1.35903 1.08977 0
M  V30 1487 C 134.792 -2.58773 2.21922 0
M  V30 1488 H 135.985 -0.897464 2.86157 0
M  V30 1489 H 133.538 -0.43181 1.50217 0
M  V30 1490 H 134.273 -2.95998 1.32499 0
M  V30 1491 H 134.058 -2.48348 3.03424 0
M  V30 1492 H 135.548 -3.32978 2.52022 0
M  V30 1493 N 135.985 -1.50799 -0.457987 0
M  V30 1494 C 136.895 -1.73426 -1.57989 0
M  V30 1495 C 137.911 -0.617745 -1.62665 0
M  V30 1496 O 139.087 -0.897614 -1.80291 0
M  V30 1497 C 136.152 -1.83557 -2.94122 0
M  V30 1498 C 135.213 -3.07345 -2.99729 0
M  V30 1499 C 134.446 -3.16983 -4.29368 0
M  V30 1500 O 134.669 -2.33077 -5.20607 0
M  V30 1501 O 133.603 -4.09812 -4.40837 0
M  V30 1502 H 137.429 -2.68555 -1.41817 0
M  V30 1503 H 135.014 -1.35052 -0.638859 0
M  V30 1504 H 136.896 -1.92326 -3.74952 0
M  V30 1505 H 135.571 -0.916137 -3.10465 0
M  V30 1506 H 134.478 -3.04068 -2.1793 0
M  V30 1507 H 135.811 -3.9891 -2.88326 0
M  V30 1508 N 137.463 0.71206 -1.40597 0
M  V30 1509 C 138.709 1.47416 -1.39271 0
M  V30 1510 C 139.042 1.942 0.00388791 0
M  V30 1511 O 138.317 1.68403 0.973179 0
M  V30 1512 C 138.6 2.69774 -2.38525 0
M  V30 1513 C 138.453 2.28861 -3.87224 0
M  V30 1514 C 139.772 3.71939 -2.35264 0
M  V30 1515 H 136.891 0.534713 -0.5072 0
M  V30 1516 H 139.533 0.812375 -1.71757 0
M  V30 1517 H 137.683 3.26238 -2.10953 0
M  V30 1518 H 139.355 1.77852 -4.25636 0
M  V30 1519 H 137.598 1.60824 -4.02887 0
M  V30 1520 H 138.269 3.16584 -4.52193 0
M  V30 1521 H 140.745 3.25113 -2.59694 0
M  V30 1522 H 139.621 4.55186 -3.06753 0
M  V30 1523 H 139.882 4.20484 -1.36549 0
M  V30 1524 N 138.941 1.26152 0.944643 0
M  V30 1525 C 139.904 1.07474 2.0244 0
M  V30 1526 C 140.904 0.0242064 1.60782 0
M  V30 1527 O 142.094 0.267302 1.72137 0
M  V30 1528 C 139.226 0.633956 3.34953 0
M  V30 1529 H 140.419 2.03336 2.20442 0
M  V30 1530 H 137.972 1.087 1.12312 0
M  V30 1531 H 138.707 -0.326811 3.22649 0
M  V30 1532 H 138.492 1.39247 3.66542 0
M  V30 1533 H 139.982 0.52501 4.14287 0
M  V30 1534 N 140.419 -1.14872 1.07899 0
M  V30 1535 C 141.696 -1.81928 0.71845 0
M  V30 1536 C 142.076 -1.95417 -0.798455 0
M  V30 1537 O 141.424 -1.50997 -1.715 0
M  V30 1538 C 141.634 -3.17937 1.43935 0
M  V30 1539 C 142.982 -3.93501 1.59506 0
M  V30 1540 O 144.006 -3.27509 1.40058 0
M  V30 1541 O 142.865 -5.1183 1.91551 0
M  V30 1542 H 139.959 -0.78628 0.256305 0
M  V30 1543 H 142.505 -1.21934 1.18026 0
M  V30 1544 H 141.277 -3.0325 2.47295 0
M  V30 1545 H 140.9 -3.85619 0.968687 0
M  V30 1546 N 141.898 -0.863906 -1.31812 0
M  V30 1547 C 143.147 -0.46801 -1.96195 0
M  V30 1548 C 143.46 0.983474 -1.69077 0
M  V30 1549 O 144.666 1.48523 -2.27273 0
M  V30 1550 C 143.122 -0.785995 -3.51212 0
M  V30 1551 C 142.73 -2.25383 -3.87178 0
M  V30 1552 C 144.474 -0.458274 -4.22019 0
M  V30 1553 C 142.381 -2.51455 -5.3528 0
M  V30 1554 H 141.311 -0.171283 -0.734287 0
M  V30 1555 H 143.962 -1.05597 -1.50072 0
M  V30 1556 H 142.344 -0.127359 -3.95795 0
M  V30 1557 H 143.518 -2.95502 -3.53575 0
M  V30 1558 H 141.833 -2.54698 -3.2942 0
M  V30 1559 H 144.43 -0.630369 -5.30971 0
M  V30 1560 H 144.773 0.600834 -4.11941 0
M  V30 1561 H 145.306 -1.07319 -3.8305 0
M  V30 1562 H 142.045 -3.56025 -5.50387 0
M  V30 1563 H 141.565 -1.85923 -5.70257 0
M  V30 1564 H 143.244 -2.35874 -6.02472 0
M  V30 1565 N 143.376 1.44774 -0.622745 0
M  V30 1566 C 144.625 2.01334 -0.121397 0
M  V30 1567 C 144.938 1.49505 1.26125 0
M  V30 1568 O 146.144 1.98139 1.85616 0
M  V30 1569 C 144.6 3.59516 -0.166298 0
M  V30 1570 C 144.208 4.20342 -1.54974 0
M  V30 1571 C 145.952 4.23582 0.279021 0
M  V30 1572 C 143.859 5.70721 -1.55021 0
M  V30 1573 H 142.789 0.752851 -0.0416172 0
M  V30 1574 H 145.44 1.66083 -0.780309 0
M  V30 1575 H 143.822 3.92027 0.559557 0
M  V30 1576 H 144.996 3.99381 -2.29851 0
M  V30 1577 H 143.311 3.68529 -1.93843 0
M  V30 1578 H 145.908 5.33868 0.298083 0
M  V30 1579 H 146.251 3.95327 1.30471 0
M  V30 1580 H 146.784 3.95843 -0.394063 0
M  V30 1581 H 143.523 6.03698 -2.55399 0
M  V30 1582 H 143.043 5.93829 -0.844245 0
M  V30 1583 H 144.722 6.34203 -1.28047 0
M  V30 1584 N 144.854 0.36279 1.53368 0
M  V30 1585 C 145.786 -0.519668 2.23231 0
M  V30 1586 C 146.799 -1.04844 1.24546 0
M  V30 1587 O 147.988 -0.955296 1.50786 0
M  V30 1588 C 145.088 -1.72995 2.9142 0
M  V30 1589 C 144.261 -1.33316 4.16588 0
M  V30 1590 C 143.32 -2.40521 4.68013 0
M  V30 1591 O 142.346 -2.03027 5.3176 0
M  V30 1592 N 143.548 -3.72065 4.45587 0
M  V30 1593 H 146.313 0.078751 2.99597 0
M  V30 1594 H 143.874 0.187833 1.60807 0
M  V30 1595 H 145.866 -2.44184 3.22733 0
M  V30 1596 H 144.436 -2.2353 2.18525 0
M  V30 1597 H 143.656 -0.451236 3.91609 0
M  V30 1598 H 144.944 -1.04432 4.97967 0
M  V30 1599 H 144.342 -4.05304 3.94646 0
M  V30 1600 H 142.899 -4.39366 4.81457 0
M  V30 1601 N 146.332 -1.57332 0.0918853 0
M  V30 1602 C 147.581 -1.93412 -0.572249 0
M  V30 1603 C 147.894 -0.975515 -1.69538 0
M  V30 1604 O 149.1 -1.22991 -2.42045 0
M  V30 1605 C 147.556 -3.43648 -1.0693 0
M  V30 1606 C 147.164 -4.47994 0.0239049 0
M  V30 1607 C 148.908 -3.88695 -1.70635 0
M  V30 1608 C 146.815 -5.89381 -0.488319 0
M  V30 1609 H 145.745 -0.721939 -0.217532 0
M  V30 1610 H 148.396 -1.82735 0.167369 0
M  V30 1611 H 146.778 -3.49466 -1.8625 0
M  V30 1612 H 147.952 -4.53815 0.799277 0
M  V30 1613 H 146.267 -4.12536 0.565946 0
M  V30 1614 H 148.864 -4.91725 -2.10025 0
M  V30 1615 H 149.207 -3.27166 -2.57426 0
M  V30 1616 H 149.74 -3.85564 -0.979023 0
M  V30 1617 H 146.479 -6.54602 0.342906 0
M  V30 1618 H 145.999 -5.87037 -1.23077 0
M  V30 1619 H 147.678 -6.39863 -0.958317 0
M  V30 1620 N 147.81 0.181792 -1.56548 0
M  V30 1621 C 149.221 0.745244 -1.71181 0
M  V30 1622 C 149.572 1.83262 -0.70068 0
M  V30 1623 O 148.697 2.15946 0.140154 0
M  V30 1624 C 149.292 1.35859 -3.10367 0
M  V30 1625 C 147.851 1.86898 -3.2672 0
M  V30 1626 C 146.998 0.743942 -2.67134 0
M  V30 1627 H 149.949 -0.0434661 -1.5864 0
M  V30 1628 H 149.97 2.22817 -3.08436 0
M  V30 1629 H 149.482 0.566948 -3.83937 0
M  V30 1630 H 147.583 2.68738 -2.5809 0
M  V30 1631 H 147.696 2.02162 -4.34359 0
M  V30 1632 H 146.06 1.16169 -2.26665 0
M  V30 1633 H 146.843 -0.035676 -3.43281 0
M  V30 1634 N 149.288 1.51039 0.449983 0
M  V30 1635 C 150.251 1.70863 1.5277 0
M  V30 1636 C 151.251 0.578846 1.5002 0
M  V30 1637 O 152.441 0.846213 1.52266 0
M  V30 1638 C 149.573 1.75341 2.9235 0
M  V30 1639 H 150.766 2.67034 1.36502 0
M  V30 1640 H 148.319 1.40838 0.677812 0
M  V30 1641 H 149.054 0.809383 3.14037 0
M  V30 1642 H 148.839 2.57436 2.95752 0
M  V30 1643 H 150.329 1.92559 3.70555 0
M  V30 1644 N 150.766 -0.704594 1.40972 0
M  V30 1645 C 152.013 -1.46458 1.39844 0
M  V30 1646 C 152.341 -1.94499 0.00447594 0
M  V30 1647 O 151.596 -1.69275 -0.982057 0
M  V30 1648 C 151.895 -2.698 2.34399 0
M  V30 1649 C 151.561 -2.40464 3.81429 0
M  V30 1650 C 150.223 -2.32174 4.21484 0
M  V30 1651 C 152.575 -2.16086 4.74296 0
M  V30 1652 C 149.903 -1.97589 5.52427 0
M  V30 1653 C 152.255 -1.83011 6.05549 0
M  V30 1654 C 150.919 -1.7321 6.44635 0
M  V30 1655 H 150.189 -0.535927 0.511725 0
M  V30 1656 H 152.836 -0.806124 1.73706 0
M  V30 1657 H 151.141 -3.40536 1.93759 0
M  V30 1658 H 152.838 -3.27919 2.30804 0
M  V30 1659 H 149.428 -2.47808 3.49699 0
M  V30 1660 H 153.612 -2.2144 4.4416 0
M  V30 1661 H 148.868 -1.88547 5.81601 0
M  V30 1662 H 153.042 -1.63164 6.77016 0
M  V30 1663 H 150.669 -1.46179 7.46013 0
M  V30 1664 N 152.244 -1.26651 -0.937939 0
M  V30 1665 C 153.174 -1.10993 -2.05433 0
M  V30 1666 C 154.155 -0.0142161 -1.70094 0
M  V30 1667 O 155.34 -0.186837 -1.93299 0
M  V30 1668 C 152.47 -0.745561 -3.39203 0
M  V30 1669 C 151.424 -1.79337 -3.88616 0
M  V30 1670 C 150.75 -1.28324 -5.19073 0
M  V30 1671 C 152.05 -3.19553 -4.13138 0
M  V30 1672 H 153.744 -2.0438 -2.1879 0
M  V30 1673 H 151.29 -0.984041 -1.05131 0
M  V30 1674 H 153.243 -0.622888 -4.16771 0
M  V30 1675 H 151.967 0.22401 -3.25831 0
M  V30 1676 H 150.626 -1.90477 -3.13231 0
M  V30 1677 H 150.274 -0.303414 -5.02084 0
M  V30 1678 H 149.974 -1.98369 -5.53103 0
M  V30 1679 H 151.498 -1.1733 -5.99221 0
M  V30 1680 H 152.912 -3.11471 -4.81309 0
M  V30 1681 H 151.309 -3.87218 -4.58457 0
M  V30 1682 H 152.379 -3.65368 -3.18801 0
M  V30 1683 N 153.722 1.14298 -1.08507 0
M  V30 1684 C 154.962 1.87016 -0.824894 0
M  V30 1685 C 155.326 1.81099 0.637735 0
M  V30 1686 O 156.527 2.48963 1.01345 0
M  V30 1687 C 154.798 3.31584 -1.33368 0
M  V30 1688 S 156.357 4.21903 -1.20596 0
M  V30 1689 H 153.175 0.645259 -0.2986 0
M  V30 1690 H 155.777 1.37822 -1.38656 0
M  V30 1691 H 154.481 3.33439 -2.39262 0
M  V30 1692 H 154.012 3.85836 -0.767734 0
M  V30 1693 H 156.027 4.95971 -0.150891 0
M  V30 1694 N 155.201 0.870884 1.31352 0
M  V30 1695 C 156.617 0.562932 1.49343 0
M  V30 1696 C 156.817 -0.902725 1.80148 0
M  V30 1697 O 155.873 -1.68484 1.88067 0
M  V30 1698 C 157.186 1.46393 2.62659 0
M  V30 1699 C 158.734 1.46607 2.76542 0
M  V30 1700 C 159.209 2.35266 3.92955 0
M  V30 1701 N 160.7 2.33151 4.00243 0
M  V30 1702 C 161.435 2.98471 4.89594 0
M  V30 1703 N 160.931 3.72964 5.8384 0
M  V30 1704 N 162.724 2.87775 4.82848 0
M  V30 1705 H 154.875 1.81923 1.09626 0
M  V30 1706 H 157.138 0.777934 0.541777 0
M  V30 1707 H 156.844 2.50689 2.46674 0
M  V30 1708 H 156.718 1.16314 3.58819 0
M  V30 1709 H 159.105 0.43069 2.9194 0
M  V30 1710 H 159.186 1.8071 1.81046 0
M  V30 1711 H 158.83 3.38881 3.78315 0
M  V30 1712 H 158.76 1.98487 4.87761 0
M  V30 1713 H 161.251 1.79006 3.32814 0
M  V30 1714 H 161.564 4.19932 6.4875 0
M  V30 1715 H 159.909 3.77073 5.83816 0
M  V30 1716 H 163.1 2.29116 4.08195 0
M  V30 1717 H 163.273 3.38961 5.52277 0
M  V30 1718 N 156.679 -1.44442 0.630414 0
M  V30 1719 C 157.611 -2.2892 -0.113347 0
M  V30 1720 C 158.624 -1.41243 -0.80959 0
M  V30 1721 O 159.813 -1.65402 -0.671156 0
M  V30 1722 C 156.913 -3.17594 -1.18266 0
M  V30 1723 C 156.086 -4.33682 -0.569073 0
M  V30 1724 C 155.145 -5.03397 -1.53226 0
M  V30 1725 O 154.171 -5.59438 -1.04967 0
M  V30 1726 N 155.373 -5.04783 -2.86661 0
M  V30 1727 H 158.138 -2.93392 0.611636 0
M  V30 1728 H 155.699 -1.54881 0.471523 0
M  V30 1729 H 157.691 -3.61097 -1.82732 0
M  V30 1730 H 156.261 -2.54876 -1.80988 0
M  V30 1731 H 155.481 -3.9338 0.254187 0
M  V30 1732 H 156.769 -5.08608 -0.139767 0
M  V30 1733 H 156.167 -4.60584 -3.28449 0
M  V30 1734 H 154.724 -5.52077 -3.46489 0
M  V30 1735 N 158.157 -0.370918 -1.53173 0
M  V30 1736 C 159.385 0.217704 -2.05751 0
M  V30 1737 C 159.8 1.42018 -1.24404 0
M  V30 1738 O 159.157 1.80245 -0.286033 0
M  V30 1739 C 159.208 0.605954 -3.56385 0
M  V30 1740 O 158.929 -0.548734 -4.3465 0
M  V30 1741 C 160.43 1.2524 -4.25241 0
M  V30 1742 H 157.65 0.0371659 -0.66997 0
M  V30 1743 H 160.194 -0.530832 -1.9749 0
M  V30 1744 H 158.349 1.3044 -3.6478 0
M  V30 1745 H 158.763 -0.23376 -5.23979 0
M  V30 1746 H 160.237 1.47458 -5.3194 0
M  V30 1747 H 160.714 2.2143 -3.79296 0
M  V30 1748 H 161.32 0.595233 -4.21114 0
M  V30 1749 N 159.635 1.57281 -0.100228 0
M  V30 1750 C 160.912 1.86014 0.604812 0
M  V30 1751 C 161.292 0.998025 1.86018 0
M  V30 1752 O 160.64 0.0718184 2.28387 0
M  V30 1753 C 160.85 3.36784 0.915278 0
M  V30 1754 C 162.198 4.04957 1.27651 0
M  V30 1755 O 163.222 3.41695 1.00613 0
M  V30 1756 O 162.081 5.16593 1.7831 0
M  V30 1757 H 159.175 0.76942 0.303185 0
M  V30 1758 H 161.721 1.69176 -0.133313 0
M  V30 1759 H 160.493 3.91292 0.0248896 0
M  V30 1760 H 160.116 3.58987 1.70921 0
M  V30 1761 N 161.113 -0.173488 1.56642 0
M  V30 1762 C 162.043 -1.2171 1.99271 0
M  V30 1763 C 163.024 -1.46289 0.867959 0
M  V30 1764 O 164.209 -1.5766 1.13388 0
M  V30 1765 C 161.339 -2.55651 2.35074 0
M  V30 1766 C 160.293 -2.45645 3.50489 0
M  V30 1767 C 159.619 -3.84056 3.72028 0
M  V30 1768 C 160.919 -1.96302 4.84007 0
M  V30 1769 H 162.613 -0.86275 2.867 0
M  V30 1770 H 160.159 -0.413571 1.37933 0
M  V30 1771 H 162.112 -3.2886 2.63494 0
M  V30 1772 H 160.836 -2.92869 1.44552 0
M  V30 1773 H 159.495 -1.7489 3.22194 0
M  V30 1774 H 159.143 -4.18664 2.788 0
M  V30 1775 H 158.843 -3.7823 4.49684 0
M  V30 1776 H 160.367 -4.58854 4.02846 0
M  V30 1777 H 161.781 -2.59284 5.11317 0
M  V30 1778 H 160.178 -2.01429 5.65284 0
M  V30 1779 H 161.248 -0.917226 4.76146 0
M  V30 1780 N 162.591 -1.51276 -0.441967 0
M  V30 1781 C 163.521 -1.752 -1.54361 0
M  V30 1782 C 164.502 -0.601682 -1.59103 0
M  V30 1783 O 165.687 -0.843913 -1.74905 0
M  V30 1784 C 162.817 -1.87282 -2.92477 0
M  V30 1785 C 161.771 -3.02687 -3.02596 0
M  V30 1786 C 161.097 -2.99947 -4.42647 0
M  V30 1787 C 162.397 -4.4273 -2.77106 0
M  V30 1788 H 164.091 -2.67442 -1.34592 0
M  V30 1789 H 161.637 -1.28694 -0.646048 0
M  V30 1790 H 163.59 -2.02602 -3.695 0
M  V30 1791 H 162.314 -0.916844 -3.13467 0
M  V30 1792 H 160.973 -2.87065 -2.28012 0
M  V30 1793 H 160.621 -2.02136 -4.60597 0
M  V30 1794 H 160.321 -3.77439 -4.50348 0
M  V30 1795 H 161.845 -3.17354 -5.2165 0
M  V30 1796 H 163.259 -4.58727 -3.43864 0
M  V30 1797 H 161.656 -5.21893 -2.96222 0
M  V30 1798 H 162.726 -4.53087 -1.72744 0
M  V30 1799 N 164.069 0.697108 -1.41344 0
M  V30 1800 C 164.999 1.82353 -1.45841 0
M  V30 1801 C 165.98 1.67115 -0.317247 0
M  V30 1802 O 167.165 1.86871 -0.528474 0
M  V30 1803 C 164.295 3.20476 -1.33838 0
M  V30 1804 C 163.249 3.50415 -2.4575 0
M  V30 1805 C 162.575 4.87878 -2.18813 0
M  V30 1806 C 163.875 3.49546 -3.88091 0
M  V30 1807 H 165.569 1.78846 -2.40113 0
M  V30 1808 H 163.115 0.859028 -1.15571 0
M  V30 1809 H 165.068 3.98988 -1.35596 0
M  V30 1810 H 163.792 3.24604 -0.360498 0
M  V30 1811 H 162.451 2.74253 -2.43271 0
M  V30 1812 H 162.099 4.8863 -1.19371 0
M  V30 1813 H 161.799 5.08875 -2.93803 0
M  V30 1814 H 163.323 5.68702 -2.22284 0
M  V30 1815 H 164.737 4.18066 -3.92293 0
M  V30 1816 H 163.134 3.82075 -4.62751 0
M  V30 1817 H 164.204 2.48552 -4.16353 0
M  V30 1818 N 165.547 1.27147 0.931209 0
M  V30 1819 C 166.51 1.09615 2.01289 0
M  V30 1820 C 167.51 0.0412581 1.60747 0
M  V30 1821 O 168.7 0.285545 1.71844 0
M  V30 1822 C 165.832 0.669447 3.34262 0
M  V30 1823 H 167.025 2.05662 2.18273 0
M  V30 1824 H 164.578 1.09885 1.11153 0
M  V30 1825 H 165.313 -0.292572 3.22978 0
M  V30 1826 H 165.098 1.43127 3.65044 0
M  V30 1827 H 166.588 0.568921 4.13706 0
M  V30 1828 N 167.025 -1.13721 1.09112 0
M  V30 1829 C 167.988 -2.17222 0.731241 0
M  V30 1830 C 168.988 -1.59035 -0.237566 0
M  V30 1831 O 170.178 -1.74192 -0.0161704 0
M  V30 1832 C 167.31 -3.40804 0.0808443 0
M  V30 1833 H 168.503 -2.50573 1.64783 0
M  V30 1834 H 166.056 -1.28493 0.889897 0
M  V30 1835 H 166.791 -3.1304 -0.847127 0
M  V30 1836 H 166.576 -3.84306 0.777896 0
M  V30 1837 H 168.066 -4.1731 -0.155657 0
M  V30 1838 N 168.503 -0.877838 -1.30888 0
M  V30 1839 C 169.466 -0.344265 -2.266 0
M  V30 1840 C 170.466 0.50922 -1.52524 0
M  V30 1841 O 171.656 0.317398 -1.71284 0
M  V30 1842 C 168.788 0.510198 -3.37061 0
M  V30 1843 H 169.981 -1.1893 -2.7531 0
M  V30 1844 H 167.534 -0.654088 -1.41956 0
M  V30 1845 H 168.269 1.37612 -2.93655 0
M  V30 1846 H 168.054 -0.101047 -3.9197 0
M  V30 1847 H 169.544 0.875537 -4.08319 0
M  V30 1848 N 169.982 1.44106 -0.638065 0
M  V30 1849 C 170.929 2.30715 0.062701 0
M  V30 1850 C 171.899 1.43882 0.829883 0
M  V30 1851 O 173.084 1.72775 0.809532 0
M  V30 1852 C 170.224 3.29258 1.03358 0
M  V30 1853 C 169.337 4.31192 0.26409 0
M  V30 1854 C 168.472 5.16825 1.22741 0
M  V30 1855 C 167.511 6.10462 0.447475 0
M  V30 1856 N 166.648 6.8877 1.36161 0
M  V30 1857 H 171.488 2.90096 -0.681781 0
M  V30 1858 H 169.025 1.42925 -0.347988 0
M  V30 1859 H 170.983 3.84886 1.60992 0
M  V30 1860 H 169.613 2.71562 1.74511 0
M  V30 1861 H 168.665 3.77981 -0.428295 0
M  V30 1862 H 169.977 4.97619 -0.343052 0
M  V30 1863 H 169.131 5.77004 1.87487 0
M  V30 1864 H 167.87 4.50488 1.86847 0
M  V30 1865 H 166.875 5.49386 -0.213433 0
M  V30 1866 H 168.1 6.78837 -0.188968 0
M  V30 1867 H 166.046 6.25096 1.98975 0
M  V30 1868 H 165.963 7.51663 0.808656 0
M  V30 1869 H 167.231 7.53467 1.99769 0
M  V30 1870 N 171.46 0.379036 1.52974 0
M  V30 1871 C 172.688 -0.20679 2.05864 0
M  V30 1872 C 173.103 -1.41356 1.25155 0
M  V30 1873 O 172.46 -1.8009 0.295588 0
M  V30 1874 C 172.511 -0.587045 3.56702 0
M  V30 1875 O 172.232 0.571776 4.34353 0
M  V30 1876 C 173.733 -1.22983 4.25899 0
M  V30 1877 H 170.953 -0.0336123 0.670158 0
M  V30 1878 H 173.497 0.541298 1.97206 0
M  V30 1879 H 171.652 -1.28504 3.65466 0
M  V30 1880 H 172.066 0.261544 5.23847 0
M  V30 1881 H 173.54 -1.44635 5.32715 0
M  V30 1882 H 174.017 -2.19416 3.80465 0
M  V30 1883 H 174.623 -0.572892 4.21424 0
M  V30 1884 N 172.938 -1.57226 0.108567 0
M  V30 1885 C 174.186 -1.94448 -0.550853 0
M  V30 1886 C 174.507 -0.992074 -1.67878 0
M  V30 1887 O 173.777 -0.0465 -1.95845 0
M  V30 1888 H 172.357 -0.717897 -0.206479 0
M  V30 1889 H 175.019 -1.94112 0.175062 0
M  V30 1890 H 174.115 -2.97218 -0.952259 0
M  V30 1891 N 174.416 0.165178 -1.56732 0
M  V30 1892 C 175.832 0.517174 -1.50988 0
M  V30 1893 C 176.032 1.84331 -0.813894 0
M  V30 1894 O 175.088 2.49672 -0.37682 0
M  V30 1895 C 176.401 0.544261 -2.95733 0
M  V30 1896 C 177.949 0.631039 -3.06573 0
M  V30 1897 C 178.424 0.68896 -4.52788 0
M  V30 1898 N 179.915 0.751683 -4.5706 0
M  V30 1899 C 180.65 0.817177 -5.67547 0
M  V30 1900 N 180.146 0.843129 -6.8765 0
M  V30 1901 N 181.939 0.856668 -5.55534 0
M  V30 1902 H 174.09 -0.704318 -2.00382 0
M  V30 1903 H 176.353 -0.254687 -0.913148 0
M  V30 1904 H 176.059 -0.361607 -3.49836 0
M  V30 1905 H 175.933 1.3886 -3.5071 0
M  V30 1906 H 178.32 1.52733 -2.52501 0
M  V30 1907 H 178.401 -0.240095 -2.54671 0
M  V30 1908 H 178.045 -0.2031 -5.07494 0
M  V30 1909 H 177.975 1.57633 -5.02454 0
M  V30 1910 H 180.466 0.739661 -3.70591 0
M  V30 1911 H 180.779 0.894448 -7.67606 0
M  V30 1912 H 179.124 0.811304 -6.90248 0
M  V30 1913 H 182.315 0.833437 -4.60621 0
M  V30 1914 H 182.488 0.904247 -6.4166 0
M  V30 1915 N 175.894 1.51508 0.433938 0
M  V30 1916 C 176.857 1.72473 1.50949 0
M  V30 1917 C 177.857 0.594725 1.49398 0
M  V30 1918 O 179.047 0.862315 1.5136 0
M  V30 1919 C 176.179 1.78431 2.90474 0
M  V30 1920 H 177.372 2.68467 1.33662 0
M  V30 1921 H 174.925 1.41549 0.662836 0
M  V30 1922 H 175.66 0.842645 3.13161 0
M  V30 1923 H 175.445 2.60558 2.93005 0
M  V30 1924 H 176.935 1.96479 3.68491 0
M  V30 1925 N 177.372 -0.689602 1.41712 0
M  V30 1926 C 178.618 -1.45181 1.41599 0
M  V30 1927 C 178.951 -1.94181 0.0270081 0
M  V30 1928 O 178.226 -1.6993 -0.946265 0
M  V30 1929 C 178.509 -2.65945 2.42787 0
M  V30 1930 C 178.362 -2.22672 3.90816 0
M  V30 1931 C 179.681 -3.68149 2.41151 0
M  V30 1932 H 176.8 -0.526576 0.515642 0
M  V30 1933 H 179.442 -0.784947 1.73028 0
M  V30 1934 H 177.592 -3.2284 2.16116 0
M  V30 1935 H 179.264 -1.71058 4.28412 0
M  V30 1936 H 177.507 -1.54394 4.05395 0
M  V30 1937 H 178.178 -3.0935 4.57172 0
M  V30 1938 H 180.654 -3.2094 2.64834 0
M  V30 1939 H 179.53 -4.50248 3.13955 0
M  V30 1940 H 179.791 -4.18259 1.43221 0
M  V30 1941 N 178.85 -1.27639 -0.924453 0
M  V30 1942 C 179.798 -1.10485 -2.04685 0
M  V30 1943 C 180.792 -0.0270421 -1.69378 0
M  V30 1944 O 181.998 -0.185008 -1.79047 0
M  V30 1945 H 178.373 -0.340546 -0.670472 0
M  V30 1946 H 180.344 -2.05566 -2.16298 0
M  V30 1947 C 179.093 -0.772229 -3.39016 0
M  V30 1948 H 178.416 -1.59351 -3.66671 0
M  V30 1949 H 179.856 -0.692097 -4.18313 0
M  V30 1950 C 178.315 0.523554 -3.32807 0
M  V30 1951 O 178.845 1.55702 -3.70297 0
M  V30 1952 N 177.051 0.520363 -2.85903 0
M  V30 1953 H 176.598 -0.32107 -2.55591 0
M  V30 1954 H 176.556 1.38742 -2.82131 0
M  V30 1955 N 180.328 1.1314 -1.09713 0
M  V30 1956 C 181.574 1.84757 -0.836224 0
M  V30 1957 C 181.907 1.8347 0.636598 0
M  V30 1958 O 181.182 1.27491 1.46889 0
M  V30 1959 C 181.465 3.32782 -1.37578 0
M  V30 1960 C 181.318 3.42567 -2.91493 0
M  V30 1961 C 182.637 4.28307 -1.01198 0
M  V30 1962 H 179.756 0.67082 -0.305236 0
M  V30 1963 H 182.398 1.3278 -1.35903 0
M  V30 1964 H 180.548 3.77177 -0.931097 0
M  V30 1965 H 182.22 3.06862 -3.44432 0
M  V30 1966 H 180.463 2.83349 -3.28475 0
M  V30 1967 H 181.134 4.46674 -3.24324 0
M  V30 1968 H 183.61 3.91999 -1.39556 0
M  V30 1969 H 182.486 5.30307 -1.41653 0
M  V30 1970 H 182.747 4.42029 0.0794833 0
M  V30 1971 N 181.806 0.884767 1.30421 0
M  V30 1972 C 182.753 0.349642 2.28136 0
M  V30 1973 C 183.723 -0.560061 1.56373 0
M  V30 1974 O 184.908 -0.488524 1.8444 0
M  V30 1975 C 182.048 -0.42999 3.42411 0
M  V30 1976 C 181.161 0.508907 4.28992 0
M  V30 1977 C 180.296 -0.286301 5.30428 0
M  V30 1978 C 179.335 0.648079 6.08659 0
M  V30 1979 N 178.472 -0.111792 7.02011 0
M  V30 1980 H 183.312 1.18807 2.73293 0
M  V30 1981 H 180.849 0.597231 1.3443 0
M  V30 1982 H 182.807 -0.897923 4.07423 0
M  V30 1983 H 181.437 -1.23299 2.98324 0
M  V30 1984 H 180.489 1.09533 3.64289 0
M  V30 1985 H 181.801 1.22475 4.8353 0
M  V30 1986 H 180.955 -0.816098 6.01186 0
M  V30 1987 H 179.694 -1.03536 4.76583 0
M  V30 1988 H 178.699 1.18951 5.36778 0
M  V30 1989 H 179.924 1.39623 6.64592 0
M  V30 1990 H 177.87 -0.843395 6.50556 0
M  V30 1991 H 177.787 0.544429 7.54037 0
M  V30 1992 H 179.055 -0.622339 7.77012 0
M  V30 1993 N 183.284 -1.43765 0.645699 0
M  V30 1994 C 184.231 -2.30745 -0.0504648 0
M  V30 1995 C 185.201 -1.4432 -0.822241 0
M  V30 1996 O 186.386 -1.73202 -0.800358 0
M  V30 1997 C 183.526 -3.29802 -1.0161 0
M  V30 1998 C 182.639 -4.31326 -0.241219 0
M  V30 1999 C 181.774 -5.17469 -1.19998 0
M  V30 2000 C 180.813 -6.10691 -0.415094 0
M  V30 2001 N 179.95 -6.89483 -1.32506 0
M  V30 2002 H 184.79 -2.8973 0.697155 0
M  V30 2003 H 182.327 -1.42738 0.355563 0
M  V30 2004 H 184.285 -3.85734 -1.58949 0
M  V30 2005 H 182.915 -2.72483 -1.73069 0
M  V30 2006 H 181.967 -3.77749 0.448334 0
M  V30 2007 H 183.279 -4.9743 0.369437 0
M  V30 2008 H 182.433 -5.7799 -1.84424 0
M  V30 2009 H 181.172 -4.51473 -1.84455 0
M  V30 2010 H 180.177 -5.49265 0.242565 0
M  V30 2011 H 181.402 -6.78727 0.224966 0
M  V30 2012 H 179.348 -6.26142 -1.95657 0
M  V30 2013 H 179.265 -7.52081 -0.768783 0
M  V30 2014 H 180.533 -7.54516 -1.9577 0
M  V30 2015 N 184.763 -0.387143 -1.52771 0
M  V30 2016 C 186.011 0.195349 -2.01154 0
M  V30 2017 C 186.332 1.475 -1.27549 0
M  V30 2018 O 185.602 1.91878 -0.394924 0
M  V30 2019 H 184.182 0.075178 -0.743207 0
M  V30 2020 H 186.844 -0.518337 -1.87881 0
M  V30 2021 H 185.94 0.407096 -3.09434 0
M  V30 2022 N 186.241 1.57166 -0.116904 0
M  V30 2023 C 187.173 2.12271 0.864507 0
M  V30 2024 C 188.186 1.06494 1.23138 0
M  V30 2025 O 189.375 1.33873 1.18069 0
M  V30 2026 C 186.475 2.60564 2.16702 0
M  V30 2027 C 185.648 3.90416 1.97216 0
M  V30 2028 C 184.707 4.24329 3.11178 0
M  V30 2029 O 183.733 4.93182 2.84184 0
M  V30 2030 N 184.935 3.8148 4.37554 0
M  V30 2031 H 187.7 2.97102 0.393726 0
M  V30 2032 H 185.261 1.61759 0.0675805 0
M  V30 2033 H 187.253 2.80282 2.91932 0
M  V30 2034 H 185.823 1.80623 2.55135 0
M  V30 2035 H 185.043 3.79627 1.06192 0
M  V30 2036 H 186.331 4.75327 1.81499 0
M  V30 2037 H 185.729 3.25943 4.62361 0
M  V30 2038 H 184.286 4.06311 5.09661 0
M  V30 2039 N 187.719 -0.156864 1.56817 0
M  V30 2040 C 188.966 -0.871125 1.82805 0
M  V30 2041 C 189.294 -1.81611 0.696262 0
M  V30 2042 O 188.549 -1.93141 -0.315459 0
M  V30 2043 C 188.848 -1.68737 3.1506 0
M  V30 2044 C 188.514 -0.890045 4.42028 0
M  V30 2045 C 187.176 -0.670042 4.76512 0
M  V30 2046 C 189.528 -0.331769 5.20143 0
M  V30 2047 C 186.856 0.119104 5.86579 0
M  V30 2048 C 189.208 0.444365 6.31037 0
M  V30 2049 C 187.872 0.675035 6.64078 0
M  V30 2050 H 187.142 -0.318767 0.668931 0
M  V30 2051 H 189.789 -0.135274 1.91022 0
M  V30 2052 H 188.094 -2.49304 3.0225 0
M  V30 2053 H 189.791 -2.24331 3.3238 0
M  V30 2054 H 186.381 -1.07157 4.14988 0
M  V30 2055 H 190.565 -0.489043 4.93885 0
M  V30 2056 H 185.821 0.307417 6.10627 0
M  V30 2057 H 189.995 0.884139 6.90765 0
M  V30 2058 H 187.622 1.28839 7.49203 0
M  V30 2059 N 189.197 -1.51736 -0.425897 0
M  V30 2060 C 190.127 -1.76827 -1.52494 0
M  V30 2061 C 191.108 -0.618524 -1.58456 0
M  V30 2062 O 192.293 -0.862416 -1.74 0
M  V30 2063 C 189.423 -1.90374 -2.90474 0
M  V30 2064 C 188.377 -3.0588 -2.99369 0
M  V30 2065 C 187.703 -3.04625 -4.3944 0
M  V30 2066 C 189.003 -4.45644 -2.72394 0
M  V30 2067 H 190.697 -2.68855 -1.31748 0
M  V30 2068 H 188.243 -1.29372 -0.632362 0
M  V30 2069 H 190.196 -2.0651 -3.6733 0
M  V30 2070 H 188.92 -0.95004 -3.12477 0
M  V30 2071 H 187.579 -2.89467 -2.24954 0
M  V30 2072 H 187.227 -2.0701 -4.58428 0
M  V30 2073 H 186.927 -3.82195 -4.46319 0
M  V30 2074 H 188.451 -3.22869 -5.18255 0
M  V30 2075 H 189.865 -4.62348 -3.38979 0
M  V30 2076 H 188.262 -5.25006 -2.9067 0
M  V30 2077 H 189.332 -4.54893 -1.67929 0
M  V30 2078 N 190.675 0.682077 -1.42076 0
M  V30 2079 C 191.638 1.77756 -1.44691 0
M  V30 2080 C 192.638 1.5726 -0.335535 0
M  V30 2081 O 193.828 1.63686 -0.596037 0
M  V30 2082 C 190.96 3.16301 -1.27146 0
M  V30 2083 H 192.153 1.76826 -2.42224 0
M  V30 2084 H 189.706 0.891012 -1.28416 0
M  V30 2085 H 190.441 3.22862 -0.305075 0
M  V30 2086 H 190.226 3.32581 -2.07683 0
M  V30 2087 H 191.716 3.96241 -1.31843 0
M  V30 2088 N 192.153 1.28127 0.917671 0
M  V30 2089 C 193.564 1.13622 1.48145 0
M  V30 2090 C 193.915 -0.275207 1.9426 0
M  V30 2091 O 193.04 -1.1691 1.82102 0
M  V30 2092 C 193.635 2.05648 2.69248 0
M  V30 2093 C 192.194 1.95219 3.21818 0
M  V30 2094 C 191.341 1.97618 1.94532 0
M  V30 2095 H 194.292 1.40874 0.730772 0
M  V30 2096 H 194.313 1.61818 3.44377 0
M  V30 2097 H 193.825 3.08365 2.35653 0
M  V30 2098 H 191.926 0.955244 3.60147 0
M  V30 2099 H 192.039 2.81976 3.87333 0
M  V30 2100 H 190.403 1.41973 2.11461 0
M  V30 2101 H 191.186 3.02007 1.63238 0
M  V30 2102 N 193.631 -1.12557 1.10312 0
M  V30 2103 C 194.877 -1.84515 0.855901 0
M  V30 2104 C 195.232 -1.82409 -0.611936 0
M  V30 2105 O 194.525 -1.25778 -1.44535 0
M  V30 2106 C 194.719 -3.31462 1.33669 0
M  V30 2107 C 194.548 -3.47879 2.84974 0
M  V30 2108 C 193.318 -3.61589 3.52961 0
M  V30 2109 C 195.516 -3.43152 3.83081 0
M  V30 2110 N 193.498 -3.66359 4.926 0
M  V30 2111 C 194.869 -3.54401 5.08724 0
M  V30 2112 C 196.924 -3.2661 3.75807 0
M  V30 2113 C 195.627 -3.50815 6.2795 0
M  V30 2114 C 197.653 -3.24335 4.94531 0
M  V30 2115 C 197.015 -3.36144 6.19021 0
M  V30 2116 H 193.114 -0.690967 0.366182 0
M  V30 2117 H 195.698 -1.34763 1.40524 0
M  V30 2118 H 193.869 -3.7976 0.814686 0
M  V30 2119 H 195.601 -3.91272 1.03385 0
M  V30 2120 H 192.356 -3.63652 3.03404 0
M  V30 2121 H 192.78 -3.72411 5.65366 0
M  V30 2122 H 197.422 -3.16375 2.80476 0
M  V30 2123 H 195.14 -3.5982 7.23571 0
M  V30 2124 H 198.726 -3.12719 4.9061 0
M  V30 2125 H 197.606 -3.34357 7.09348 0
M  V30 2126 N 195.109 -0.891671 -1.2995 0
M  V30 2127 C 196.386 -0.433307 -1.9074 0
M  V30 2128 C 196.766 1.08646 -1.80995 0
M  V30 2129 O 196.114 1.92476 -1.23147 0
M  V30 2130 C 196.324 -0.938895 -3.36134 0
M  V30 2131 C 197.672 -0.977829 -4.13187 0
M  V30 2132 O 198.696 -0.886015 -3.45005 0
M  V30 2133 O 197.555 -1.11453 -5.35015 0
M  V30 2134 H 194.649 -0.133699 -0.816121 0
M  V30 2135 H 197.195 -0.981011 -1.38471 0
M  V30 2136 H 195.967 -1.98281 -3.37343 0
M  V30 2137 H 195.59 -0.37074 -3.95868 0
M  V30 2138 N 196.587 1.43421 -0.653314 0
M  V30 2139 C 197.815 2.06163 -0.174491 0
M  V30 2140 C 198.23 1.48969 1.1599 0
M  V30 2141 O 197.587 0.621042 1.71608 0
M  V30 2142 C 197.638 3.61417 -0.0774865 0
M  V30 2143 O 197.359 4.16485 -1.35912 0
M  V30 2144 C 198.86 4.41235 0.427402 0
M  V30 2145 H 196.08 0.664946 -0.0899353 0
M  V30 2146 H 198.624 1.83924 -0.893988 0
M  V30 2147 H 196.779 3.82841 0.59257 0
M  V30 2148 H 197.193 5.10153 -1.21839 0
M  V30 2149 H 198.667 5.5021 0.44423 0
M  V30 2150 H 199.144 4.14268 1.45873 0
M  V30 2151 H 199.75 4.2478 -0.210167 0
M  V30 2152 N 198.065 0.39524 1.52563 0
M  V30 2153 C 199.012 -0.437036 2.26624 0
M  V30 2154 C 199.982 -1.05281 1.28472 0
M  V30 2155 O 201.167 -1.07971 1.57311 0
M  V30 2156 C 198.307 -1.55524 3.08069 0
M  V30 2157 C 197.42 -0.961745 4.21158 0
M  V30 2158 C 196.555 -2.05149 4.89987 0
M  V30 2159 C 195.594 -1.4342 5.95061 0
M  V30 2160 N 194.731 -2.46351 6.57462 0
M  V30 2161 H 199.571 0.200976 2.97322 0
M  V30 2162 H 197.108 0.110944 1.46681 0
M  V30 2163 H 199.066 -2.21437 3.53584 0
M  V30 2164 H 197.696 -2.16348 2.3957 0
M  V30 2165 H 196.748 -0.192048 3.79915 0
M  V30 2166 H 198.06 -0.470701 4.96574 0
M  V30 2167 H 197.214 -2.78819 5.38837 0
M  V30 2168 H 195.953 -2.57615 4.14109 0
M  V30 2169 H 194.958 -0.682774 5.45544 0
M  V30 2170 H 196.183 -0.917416 6.72875 0
M  V30 2171 H 194.129 -2.97975 5.8442 0
M  V30 2172 H 194.046 -2.02019 7.28508 0
M  V30 2173 H 195.314 -3.19633 7.10954 0
M  V30 2174 N 199.544 -1.57102 0.125237 0
M  V30 2175 C 200.492 -2.16905 -0.839927 0
M  V30 2176 C 201.486 -1.11998 -1.27094 0
M  V30 2177 O 202.692 -1.3029 -1.24195 0
M  V30 2178 H 199.067 -0.694252 -0.288995 0
M  V30 2179 H 201.038 -2.96774 -0.311115 0
M  V30 2180 C 199.787 -2.78795 -2.07771 0
M  V30 2181 H 199.11 -3.59221 -1.755 0
M  V30 2182 H 200.55 -3.2417 -2.73295 0
M  V30 2183 C 199.009 -1.76193 -2.87155 0
M  V30 2184 O 199.539 -1.21909 -3.82755 0
M  V30 2185 N 197.745 -1.45991 -2.51267 0
M  V30 2186 H 197.292 -1.90325 -1.73592 0
M  V30 2187 H 197.25 -0.775844 -3.04677 0
M  V30 2188 N 201.022 0.148545 -1.56898 0
M  V30 2189 C 202.268 0.862694 -1.83536 0
M  V30 2190 C 202.601 1.80889 -0.706604 0
M  V30 2191 O 201.876 1.92328 0.289885 0
M  V30 2192 C 202.159 1.63853 -3.20662 0
M  V30 2193 C 202.012 0.713925 -4.44098 0
M  V30 2194 C 203.331 2.60133 -3.54991 0
M  V30 2195 H 200.45 0.312179 -0.667618 0
M  V30 2196 H 203.092 0.127953 -1.89569 0
M  V30 2197 H 201.242 2.26489 -3.1565 0
M  V30 2198 H 202.914 0.098686 -4.61194 0
M  V30 2199 H 201.157 0.0234019 -4.33794 0
M  V30 2200 H 201.828 1.29278 -5.36648 0
M  V30 2201 H 204.304 2.07616 -3.60603 0
M  V30 2202 H 203.18 3.11468 -4.51972 0
M  V30 2203 H 203.441 3.41417 -2.80868 0
M  V30 2204 N 202.5 1.5196 0.417844 0
M  V30 2205 C 203.746 1.65836 1.16732 0
M  V30 2206 C 204.079 0.382881 1.90388 0
M  V30 2207 O 203.354 -0.618368 1.84408 0
M  V30 2208 C 203.637 2.87466 2.16876 0
M  V30 2209 C 203.49 4.25041 1.47174 0
M  V30 2210 C 204.809 3.04613 3.17646 0
M  V30 2211 H 201.928 0.603515 0.423011 0
M  V30 2212 H 204.57 1.84494 0.454105 0
M  V30 2213 H 202.72 2.71689 2.777 0
M  V30 2214 H 204.392 4.52527 0.895376 0
M  V30 2215 H 202.635 4.26843 0.773806 0
M  V30 2216 H 203.306 5.06176 2.20204 0
M  V30 2217 H 205.782 3.1923 2.66892 0
M  V30 2218 H 204.658 3.91247 3.8499 0
M  V30 2219 H 204.919 2.17541 3.84874 0
M  V30 2220 N 203.978 -0.674533 1.42435 0
M  V30 2221 C 204.888 -1.81751 1.48337 0
M  V30 2222 C 205.904 -1.69975 0.372099 0
M  V30 2223 O 207.08 -1.91521 0.62304 0
M  V30 2224 C 204.145 -3.17895 1.38361 0
M  V30 2225 C 203.206 -3.41625 2.59982 0
M  V30 2226 C 202.439 -4.71274 2.50473 0
M  V30 2227 O 202.662 -5.49197 1.54075 0
M  V30 2228 O 201.596 -4.96254 3.4061 0
M  V30 2229 H 205.422 -1.79728 2.44809 0
M  V30 2230 H 203.007 -0.830312 1.24202 0
M  V30 2231 H 204.889 -3.99136 1.35161 0
M  V30 2232 H 203.564 -3.20555 0.450144 0
M  V30 2233 H 202.471 -2.60231 2.68757 0
M  V30 2234 H 203.804 -3.43796 3.52229 0
M  V30 2235 N 205.456 -1.28612 -0.910864 0
M  V30 2236 C 206.403 -1.12786 -2.01365 0
M  V30 2237 C 207.373 -0.024201 -1.66082 0
M  V30 2238 O 208.558 -0.189667 -1.89855 0
M  V30 2239 C 205.698 -0.798743 -3.35729 0
M  V30 2240 C 204.811 -1.98173 -3.83864 0
M  V30 2241 C 203.946 -1.59298 -5.06752 0
M  V30 2242 C 202.985 -2.74245 -5.47226 0
M  V30 2243 N 202.122 -2.35842 -6.61304 0
M  V30 2244 H 206.962 -2.07142 -2.14234 0
M  V30 2245 H 204.499 -1.03093 -1.0493 0
M  V30 2246 H 206.457 -0.588662 -4.13026 0
M  V30 2247 H 205.087 0.10789 -3.2262 0
M  V30 2248 H 204.139 -2.30386 -3.02699 0
M  V30 2249 H 205.451 -2.84343 -4.09818 0
M  V30 2250 H 204.605 -1.34513 -5.916 0
M  V30 2251 H 203.344 -0.702618 -4.82612 0
M  V30 2252 H 202.349 -2.99725 -4.60918 0
M  V30 2253 H 203.574 -3.63928 -5.73353 0
M  V30 2254 H 201.52 -1.49279 -6.38789 0
M  V30 2255 H 201.437 -3.15546 -6.86998 0
M  V30 2256 H 202.705 -2.14348 -7.4945 0
M  V30 2257 N 206.934 1.1197 -1.10907 0
M  V30 2258 C 207.864 2.19928 -0.784473 0
M  V30 2259 C 208.845 1.6833 0.244726 0
M  V30 2260 O 210.03 1.93892 0.109418 0
M  V30 2261 C 207.16 3.46597 -0.220827 0
M  V30 2262 C 206.114 4.11376 -1.18127 0
M  V30 2263 C 205.44 5.32554 -0.478594 0
M  V30 2264 C 206.74 4.56945 -2.52979 0
M  V30 2265 H 208.434 2.47337 -1.68715 0
M  V30 2266 H 205.98 1.18879 -0.812642 0
M  V30 2267 H 207.933 4.21396 0.0184278 0
M  V30 2268 H 206.657 3.1863 0.717113 0
M  V30 2269 H 205.316 3.38564 -1.40606 0
M  V30 2270 H 204.964 5.00856 0.463976 0
M  V30 2271 H 204.664 5.76844 -1.11912 0
M  V30 2272 H 206.188 6.10096 -0.248 0
M  V30 2273 H 207.602 5.23093 -2.3462 0
M  V30 2274 H 205.999 5.1203 -3.12962 0
M  V30 2275 H 207.069 3.70676 -3.12614 0
M  V30 2276 N 208.412 0.89855 1.29475 0
M  V30 2277 C 209.359 0.373819 2.27753 0
M  V30 2278 C 210.329 -0.543444 1.56958 0
M  V30 2279 O 211.514 -0.468934 1.84948 0
M  V30 2280 C 208.654 -0.393648 3.42848 0
M  V30 2281 C 207.767 0.554379 4.28428 0
M  V30 2282 C 206.902 -0.230026 5.30702 0
M  V30 2283 C 205.941 0.712599 6.07938 0
M  V30 2284 N 205.078 -0.0373283 7.0209 0
M  V30 2285 H 209.918 1.21699 2.72017 0
M  V30 2286 H 207.455 0.611456 1.33789 0
M  V30 2287 H 209.413 -0.85466 4.08352 0
M  V30 2288 H 208.043 -1.20128 2.99615 0
M  V30 2289 H 207.095 1.13391 3.63107 0
M  V30 2290 H 208.407 1.27597 4.82204 0
M  V30 2291 H 207.561 -0.752288 6.02018 0
M  V30 2292 H 206.3 -0.984758 4.77654 0
M  V30 2293 H 205.305 1.24637 5.35486 0
M  V30 2294 H 206.53 1.46664 6.63074 0
M  V30 2295 H 204.476 -0.774348 6.51414 0
M  V30 2296 H 204.393 0.624374 7.53417 0
M  V30 2297 H 205.661 -0.539891 7.77628 0
M  V30 2298 N 209.89 -1.43072 0.660911 0
M  V30 2299 C 211.137 -2.01721 0.177445 0
M  V30 2300 C 211.465 -1.5218 -1.21126 0
M  V30 2301 O 210.72 -0.708659 -1.82419 0
M  V30 2302 C 211.019 -3.57103 0.145563 0
M  V30 2303 C 210.685 -4.26021 1.47705 0
M  V30 2304 C 209.347 -4.44563 1.84165 0
M  V30 2305 C 211.699 -4.64983 2.35458 0
M  V30 2306 C 209.027 -4.99334 3.0803 0
M  V30 2307 C 211.379 -5.21127 3.58622 0
M  V30 2308 C 210.043 -5.37884 3.95268 0
M  V30 2309 H 209.313 -0.73815 0.0649317 0
M  V30 2310 H 211.96 -1.71446 0.853144 0
M  V30 2311 H 210.265 -3.86965 -0.61361 0
M  V30 2312 H 211.962 -4.00248 -0.2455 0
M  V30 2313 H 208.552 -4.11939 1.18339 0
M  V30 2314 H 212.736 -4.50343 2.08579 0
M  V30 2315 H 207.992 -5.10493 3.36462 0
M  V30 2316 H 212.166 -5.50262 4.26831 0
M  V30 2317 H 209.793 -5.80089 4.91325 0
M  V30 2318 N 211.368 -0.403325 -1.52352 0
M  V30 2319 C 212.616 0.174003 -2.0135 0
M  V30 2320 C 212.937 1.46139 -1.29106 0
M  V30 2321 O 212.207 1.91448 -0.415253 0
M  V30 2322 H 210.787 0.0672911 -0.743963 0
M  V30 2323 H 213.449 -0.538235 -1.87321 0
M  V30 2324 H 212.545 0.374254 -3.09848 0
M  V30 2325 N 212.846 1.57033 -0.133567 0
M  V30 2326 C 214.094 1.953 0.519848 0
M  V30 2327 C 214.415 1.01866 1.66278 0
M  V30 2328 O 213.685 0.0776513 1.95746 0
M  V30 2329 H 212.265 0.721091 0.195032 0
M  V30 2330 H 214.927 1.93809 -0.205921 0
M  V30 2331 H 214.023 2.98695 0.904854 0
M  V30 2332 N 214.325 -0.140222 1.56975 0
M  V30 2333 C 215.288 -1.15689 1.97861 0
M  V30 2334 C 216.288 -1.3549 0.865974 0
M  V30 2335 O 217.478 -1.32367 1.13246 0
M  V30 2336 C 214.61 -2.51582 2.30042 0
M  V30 2337 H 215.803 -0.805971 2.88867 0
M  V30 2338 H 213.356 -0.383801 1.51515 0
M  V30 2339 H 214.091 -2.91632 1.41849 0
M  V30 2340 H 213.876 -2.38569 3.11171 0
M  V30 2341 H 215.366 -3.24792 2.62488 0
M  V30 2342 N 215.803 -1.52179 -0.40978 0
M  V30 2343 C 216.75 -1.75475 -1.49924 0
M  V30 2344 C 217.72 -0.597175 -1.54994 0
M  V30 2345 O 218.905 -0.834655 -1.71575 0
M  V30 2346 C 216.045 -1.9107 -2.87378 0
M  V30 2347 C 215.158 -3.18717 -2.91622 0
M  V30 2348 C 214.293 -3.24747 -4.20372 0
M  V30 2349 C 213.332 -4.46598 -4.18588 0
M  V30 2350 N 212.469 -4.50025 -5.38908 0
M  V30 2351 H 217.309 -2.68458 -1.29361 0
M  V30 2352 H 214.846 -1.33024 -0.627934 0
M  V30 2353 H 216.804 -1.98096 -3.6717 0
M  V30 2354 H 215.434 -1.01469 -3.06437 0
M  V30 2355 H 214.486 -3.20866 -2.04326 0
M  V30 2356 H 215.798 -4.08544 -2.86169 0
M  V30 2357 H 214.952 -3.30841 -5.08556 0
M  V30 2358 H 213.691 -2.32857 -4.28519 0
M  V30 2359 H 212.696 -4.40652 -3.28794 0
M  V30 2360 H 213.921 -5.39783 -4.12081 0
M  V30 2361 H 211.867 -3.61017 -5.47725 0
M  V30 2362 H 211.784 -5.33697 -5.35447 0
M  V30 2363 H 213.052 -4.60347 -6.29048 0
M  V30 2364 N 217.281 0.66697 -1.42791 0
M  V30 2365 C 218.191 1.80962 -1.49299 0
M  V30 2366 C 219.207 1.69775 -0.381108 0
M  V30 2367 O 220.383 1.91188 -0.633188 0
M  V30 2368 C 217.448 3.17156 -1.40045 0
M  V30 2369 C 216.509 3.40242 -2.6179 0
M  V30 2370 C 215.742 4.69939 -2.52969 0
M  V30 2371 O 215.965 5.48372 -1.56985 0
M  V30 2372 O 214.899 4.94441 -3.43237 0
M  V30 2373 H 218.725 1.78427 -2.45759 0
M  V30 2374 H 216.31 0.823713 -1.24641 0
M  V30 2375 H 218.192 3.98413 -1.37276 0
M  V30 2376 H 216.867 3.20312 -0.467138 0
M  V30 2377 H 215.774 2.58802 -2.70134 0
M  V30 2378 H 217.107 3.41923 -3.54047 0
M  V30 2379 N 218.759 1.29093 0.90403 0
M  V30 2380 C 220.008 1.16187 1.64874 0
M  V30 2381 C 220.321 -0.286742 1.93487 0
M  V30 2382 O 221.527 -0.537062 2.66135 0
M  V30 2383 C 219.983 2.03177 2.97064 0
M  V30 2384 C 219.591 3.52836 2.76062 0
M  V30 2385 C 221.335 1.98984 3.74974 0
M  V30 2386 C 219.242 4.31945 4.03952 0
M  V30 2387 H 218.172 0.431246 0.618501 0
M  V30 2388 H 220.823 1.53699 1.00243 0
M  V30 2389 H 219.205 1.5853 3.62883 0
M  V30 2390 H 220.379 4.05507 2.18863 0
M  V30 2391 H 218.694 3.58656 2.11553 0
M  V30 2392 H 221.291 2.55351 4.69787 0
M  V30 2393 H 221.634 0.968815 4.0487 0
M  V30 2394 H 222.167 2.41652 3.15989 0
M  V30 2395 H 218.906 5.34667 3.79225 0
M  V30 2396 H 218.426 3.84045 4.60727 0
M  V30 2397 H 220.105 4.42379 4.72133 0
M  V30 2398 N 220.237 -1.11381 1.11499 0
M  V30 2399 C 221.467 -1.86663 0.885464 0
M  V30 2400 C 221.875 -1.80464 -0.568281 0
M  V30 2401 O 221.218 -1.18445 -1.40415 0
M  V30 2402 C 221.28 -3.36337 1.26956 0
M  V30 2403 C 220.944 -3.66304 2.73259 0
M  V30 2404 C 221.941 -3.63733 3.71476 0
M  V30 2405 C 219.626 -3.9529 3.09921 0
M  V30 2406 C 221.62 -3.89725 5.04374 0
M  V30 2407 C 219.307 -4.20941 4.43004 0
M  V30 2408 C 220.305 -4.18147 5.40039 0
M  V30 2409 O 219.993 -4.43153 6.70724 0
M  V30 2410 H 219.725 -0.597114 0.316908 0
M  V30 2411 H 222.279 -1.41782 1.48617 0
M  V30 2412 H 220.509 -3.81826 0.611999 0
M  V30 2413 H 222.198 -3.92986 1.01573 0
M  V30 2414 H 222.964 -3.41389 3.44498 0
M  V30 2415 H 218.843 -3.966 2.35009 0
M  V30 2416 H 222.387 -3.8746 5.80104 0
M  V30 2417 H 218.284 -4.42761 4.69716 0
M  V30 2418 H 219.052 -4.60717 6.76522 0
M  V30 2419 N 221.715 -0.905404 -1.28997 0
M  V30 2420 C 222.645 -0.404212 -2.29975 0
M  V30 2421 C 223.626 0.523784 -1.61835 0
M  V30 2422 O 224.811 0.433298 -1.89304 0
M  V30 2423 C 221.941 0.364042 -3.45387 0
M  V30 2424 C 220.895 -0.474048 -4.25367 0
M  V30 2425 C 220.221 0.422045 -5.33032 0
M  V30 2426 C 221.521 -1.72696 -4.92923 0
M  V30 2427 H 223.215 -1.24807 -2.72146 0
M  V30 2428 H 220.761 -0.601585 -1.30832 0
M  V30 2429 H 222.714 0.725447 -4.15109 0
M  V30 2430 H 221.438 1.24174 -3.02074 0
M  V30 2431 H 220.097 -0.81786 -3.57361 0
M  V30 2432 H 219.745 1.29804 -4.85963 0
M  V30 2433 H 219.445 -0.135057 -5.87445 0
M  V30 2434 H 220.969 0.779517 -6.05604 0
M  V30 2435 H 222.383 -1.43495 -5.55051 0
M  V30 2436 H 220.78 -2.22582 -5.57295 0
M  V30 2437 H 221.85 -2.45964 -4.17887 0
M  V30 2438 N 223.193 1.4272 -0.668489 0
M  V30 2439 C 224.421 2.05966 -0.196348 0
M  V30 2440 C 224.836 1.50191 1.14403 0
M  V30 2441 O 224.193 0.639208 1.7094 0
M  V30 2442 C 224.244 3.61314 -0.115815 0
M  V30 2443 O 223.965 4.1502 -1.40322 0
M  V30 2444 C 225.466 4.41663 0.380579 0
M  V30 2445 H 222.686 0.663954 -0.0969829 0
M  V30 2446 H 225.23 1.82966 -0.913446 0
M  V30 2447 H 223.385 3.83448 0.551931 0
M  V30 2448 H 223.799 5.08832 -1.27243 0
M  V30 2449 H 225.273 5.5065 0.385848 0
M  V30 2450 H 225.75 4.15792 1.41471 0
M  V30 2451 H 226.356 4.24534 -0.255209 0
M  V30 2452 N 224.671 0.411399 1.52136 0
M  V30 2453 C 225.581 -0.419774 2.30814 0
M  V30 2454 C 226.597 -1.0515 1.38634 0
M  V30 2455 O 227.773 -1.05252 1.71709 0
M  V30 2456 C 224.838 -1.52019 3.11594 0
M  V30 2457 C 223.899 -0.91129 4.19516 0
M  V30 2458 C 223.132 -1.95927 4.96436 0
M  V30 2459 O 223.355 -3.17775 4.73683 0
M  V30 2460 O 222.289 -1.56423 5.81219 0
M  V30 2461 H 226.115 0.221805 3.02889 0
M  V30 2462 H 223.7 0.174547 1.48377 0
M  V30 2463 H 225.582 -2.15898 3.61892 0
M  V30 2464 H 224.257 -2.14633 2.42311 0
M  V30 2465 H 223.164 -0.235157 3.7336 0
M  V30 2466 H 224.497 -0.32904 4.91099 0
M  V30 2467 N 226.149 -1.5696 0.141893 0
M  V30 2468 C 227.565 -1.58151 -0.21456 0
M  V30 2469 C 227.765 -1.1559 -1.65049 0
M  V30 2470 O 226.821 -0.853832 -2.37626 0
M  V30 2471 C 228.134 -3.00674 0.0395576 0
M  V30 2472 C 229.682 -3.1299 -0.0245529 0
M  V30 2473 C 230.157 -4.57554 0.202167 0
M  V30 2474 N 231.648 -4.62961 0.148919 0
M  V30 2475 C 232.383 -5.7262 0.298924 0
M  V30 2476 N 231.879 -6.90947 0.50637 0
M  V30 2477 N 233.672 -5.61601 0.236886 0
M  V30 2478 H 225.823 -1.8292 1.07953 0
M  V30 2479 H 228.086 -0.846425 0.42693 0
M  V30 2480 H 227.792 -3.36183 1.03315 0
M  V30 2481 H 227.666 -3.70981 -0.682143 0
M  V30 2482 H 230.053 -2.77326 -1.00869 0
M  V30 2483 H 230.134 -2.4518 0.729396 0
M  V30 2484 H 229.778 -4.93922 1.18338 0
M  V30 2485 H 229.708 -5.23484 -0.572044 0
M  V30 2486 H 232.199 -3.77899 -0.00697015 0
M  V30 2487 H 232.512 -7.7038 0.611076 0
M  V30 2488 H 230.857 -6.92878 0.542628 0
M  V30 2489 H 234.048 -4.68039 0.0756209 0
M  V30 2490 H 234.221 -6.47015 0.357227 0
M  V30 2491 N 227.627 0.131896 -1.57047 0
M  V30 2492 C 228.875 0.840269 -1.83804 0
M  V30 2493 C 229.196 1.81017 -0.72512 0
M  V30 2494 O 228.466 1.94272 0.251995 0
M  V30 2495 H 227.046 0.313294 -0.678127 0
M  V30 2496 H 229.708 0.122294 -1.94516 0
M  V30 2497 H 228.804 1.39335 -2.79271 0
M  V30 2498 N 229.106 1.52395 0.401703 0
M  V30 2499 C 230.334 1.70676 1.16949 0
M  V30 2500 C 230.749 0.419503 1.8408 0
M  V30 2501 O 230.106 -0.605061 1.72178 0
M  V30 2502 C 230.157 2.84753 2.22706 0
M  V30 2503 O 229.878 4.08495 1.58314 0
M  V30 2504 C 231.379 3.14608 3.12309 0
M  V30 2505 H 228.599 0.571787 0.351142 0
M  V30 2506 H 231.143 1.98987 0.471652 0
M  V30 2507 H 229.298 2.58941 2.88147 0
M  V30 2508 H 229.712 4.72117 2.28485 0
M  V30 2509 H 231.186 3.97923 3.82572 0
M  V30 2510 H 231.663 2.28464 3.75101 0
M  V30 2511 H 232.269 3.42212 2.52529 0
M  V30 2512 N 230.584 -0.659388 1.43143 0
M  V30 2513 C 231.812 -1.44723 1.47861 0
M  V30 2514 C 232.227 -1.88563 0.0945886 0
M  V30 2515 O 231.584 -1.59108 -0.893915 0
M  V30 2516 C 231.635 -2.68627 2.41913 0
M  V30 2517 O 231.356 -2.26623 3.74932 0
M  V30 2518 C 232.857 -3.62045 2.55809 0
M  V30 2519 H 230.077 -0.444801 0.502387 0
M  V30 2520 H 232.621 -0.808916 1.87821 0
M  V30 2521 H 230.776 -3.28613 2.05164 0
M  V30 2522 H 231.19 -3.06745 4.2545 0
M  V30 2523 H 232.664 -4.45666 3.25708 0
M  V30 2524 H 233.141 -4.08981 1.60099 0
M  V30 2525 H 233.747 -3.07944 2.93344 0
M  V30 2526 N 232.062 -1.29571 -0.897171 0
M  V30 2527 C 233.309 -1.17689 -1.6479 0
M  V30 2528 C 233.637 0.27107 -1.92602 0
M  V30 2529 O 232.892 1.21193 -1.53658 0
M  V30 2530 C 233.191 -1.9382 -3.00281 0
M  V30 2531 C 232.857 -3.43522 -2.92068 0
M  V30 2532 C 231.519 -3.84348 -2.89535 0
M  V30 2533 C 233.871 -4.38906 -2.81089 0
M  V30 2534 C 231.199 -5.18869 -2.73846 0
M  V30 2535 C 233.551 -5.73521 -2.66939 0
M  V30 2536 C 232.215 -6.13601 -2.62774 0
M  V30 2537 H 231.485 -0.430654 -0.603008 0
M  V30 2538 H 234.132 -1.60536 -1.04404 0
M  V30 2539 H 232.437 -1.4357 -3.64547 0
M  V30 2540 H 234.134 -1.82028 -3.57305 0
M  V30 2541 H 230.724 -3.11072 -2.94842 0
M  V30 2542 H 234.908 -4.08315 -2.82121 0
M  V30 2543 H 230.164 -5.4903 -2.69027 0
M  V30 2544 H 234.338 -6.47078 -2.57416 0
M  V30 2545 H 231.965 -7.17786 -2.50375 0
M  V30 2546 N 233.54 1.10788 -1.12088 0
M  V30 2547 C 234.788 1.8231 -0.872205 0
M  V30 2548 C 235.109 1.85419 0.603709 0
M  V30 2549 O 234.379 1.32963 1.43867 0
M  V30 2550 H 232.959 0.675137 -0.319686 0
M  V30 2551 H 235.621 1.34068 -1.41463 0
M  V30 2552 H 234.717 2.85955 -1.25045 0
M  V30 2553 N 235.018 0.912232 1.28515 0
M  V30 2554 C 236.248 0.559604 1.98877 0
M  V30 2555 C 236.656 -0.863113 1.68366 0
M  V30 2556 O 235.999 -1.58304 0.931969 0
M  V30 2557 C 236.061 0.68703 3.52874 0
M  V30 2558 C 235.725 2.07901 4.06972 0
M  V30 2559 C 236.722 3.05157 4.20922 0
M  V30 2560 C 234.407 2.39178 4.417 0
M  V30 2561 C 236.401 4.31806 4.68852 0
M  V30 2562 C 234.088 3.66068 4.89324 0
M  V30 2563 C 235.086 4.62195 5.02856 0
M  V30 2564 O 234.774 5.86829 5.49442 0
M  V30 2565 H 234.506 0.212191 0.641834 0
M  V30 2566 H 237.06 1.22712 1.64715 0
M  V30 2567 H 235.29 -0.0375486 3.86682 0
M  V30 2568 H 236.979 0.341727 4.04459 0
M  V30 2569 H 237.745 2.82311 3.94367 0
M  V30 2570 H 233.624 1.65109 4.30418 0
M  V30 2571 H 237.168 5.06842 4.79329 0
M  V30 2572 H 233.065 3.88739 5.15318 0
M  V30 2573 H 233.833 5.89597 5.6773 0
M  V30 2574 N 236.496 -1.42363 0.676048 0
M  V30 2575 C 237.444 -2.32596 -0.0131507 0
M  V30 2576 C 238.438 -1.49891 -0.789238 0
M  V30 2577 O 239.644 -1.65955 -0.697061 0
M  V30 2578 H 236.019 -0.751647 -0.0230481 0
M  V30 2579 H 237.99 -2.88421 0.765243 0
M  V30 2580 C 236.739 -3.34479 -0.949702 0
M  V30 2581 H 236.062 -3.98158 -0.361938 0
M  V30 2582 H 237.502 -4.00199 -1.4006 0
M  V30 2583 C 235.961 -2.66838 -2.05667 0
M  V30 2584 O 236.491 -2.50124 -3.14326 0
M  V30 2585 N 234.697 -2.25843 -1.82875 0
M  V30 2586 H 234.244 -2.39637 -0.945085 0
M  V30 2587 H 234.202 -1.80918 -2.5713 0
M  V30 2588 N 237.974 -0.419461 -1.51915 0
M  V30 2589 C 238.922 0.415502 -2.28859 0
M  V30 2590 C 239.916 1.03674 -1.3397 0
M  V30 2591 O 241.122 0.973757 -1.51387 0
M  V30 2592 H 237.497 0.152786 -0.736315 0
M  V30 2593 H 239.468 -0.254531 -2.97312 0
M  V30 2594 C 238.217 1.51425 -3.12995 0
M  V30 2595 H 237.54 1.04556 -3.85886 0
M  V30 2596 H 238.98 2.07208 -3.6992 0
M  V30 2597 C 237.439 2.48745 -2.27217 0
M  V30 2598 O 237.969 3.52871 -1.9195 0
M  V30 2599 N 236.175 2.19202 -1.90785 0
M  V30 2600 H 235.722 1.34556 -2.19664 0
M  V30 2601 H 235.68 2.84561 -1.33687 0
M  V30 2602 N 239.452 1.56882 -0.150215 0
M  V30 2603 C 240.382 2.19935 0.784284 0
M  V30 2604 C 241.363 1.14854 1.25469 0
M  V30 2605 O 242.548 1.43209 1.31168 0
M  V30 2606 C 239.678 2.82349 2.02229 0
M  V30 2607 C 238.632 3.93285 1.68853 0
M  V30 2608 C 237.958 4.42649 2.99944 0
M  V30 2609 C 239.258 5.13904 0.932714 0
M  V30 2610 H 240.952 2.9828 0.258781 0
M  V30 2611 H 238.498 1.43473 0.123029 0
M  V30 2612 H 240.451 3.25126 2.68088 0
M  V30 2613 H 239.175 2.0134 2.57157 0
M  V30 2614 H 237.834 3.5113 1.05371 0
M  V30 2615 H 237.482 3.58458 3.52869 0
M  V30 2616 H 237.182 5.17476 2.78374 0
M  V30 2617 H 238.706 4.88099 3.66868 0
M  V30 2618 H 240.12 5.53506 1.49345 0
M  V30 2619 H 238.517 5.94515 0.81684 0
M  V30 2620 H 239.587 4.84842 -0.0749568 0
M  V30 2621 N 240.93 -0.123565 1.57115 0
M  V30 2622 C 242.176 -0.833386 1.84885 0
M  V30 2623 C 242.509 -1.79742 0.735292 0
M  V30 2624 O 241.784 -1.92764 -0.25925 0
M  V30 2625 C 242.067 -1.5873 3.23228 0
M  V30 2626 C 241.92 -0.643183 4.45178 0
M  V30 2627 C 243.239 -2.54453 3.59085 0
M  V30 2628 H 240.358 -0.301518 0.6725 0
M  V30 2629 H 243 -0.097778 1.89748 0
M  V30 2630 H 241.15 -2.21438 3.19214 0
M  V30 2631 H 242.822 -0.0253015 4.61293 0
M  V30 2632 H 241.065 0.0456139 4.33776 0
M  V30 2633 H 241.736 -1.20724 5.38637 0
M  V30 2634 H 244.212 -2.01853 3.63861 0
M  V30 2635 H 243.088 -3.04238 4.5687 0
M  V30 2636 H 243.349 -3.36906 2.86264 0
M  V30 2637 N 242.408 -1.52605 -0.393616 0
M  V30 2638 C 243.654 -1.67672 -1.14079 0
M  V30 2639 C 243.987 -0.413121 -1.89755 0
M  V30 2640 O 243.262 0.588952 -1.85369 0
M  V30 2641 C 243.545 -2.9088 -2.12276 0
M  V30 2642 C 243.398 -4.27329 -1.40394 0
M  V30 2643 C 244.717 -3.09628 -3.12759 0
M  V30 2644 H 241.836 -0.610168 -0.413356 0
M  V30 2645 H 244.478 -1.85193 -0.424696 0
M  V30 2646 H 242.628 -2.76073 -2.73342 0
M  V30 2647 H 244.3 -4.53894 -0.82327 0
M  V30 2648 H 242.543 -4.2802 -0.705801 0
M  V30 2649 H 243.214 -5.09615 -2.12123 0
M  V30 2650 H 245.69 -3.23436 -2.61779 0
M  V30 2651 H 244.566 -3.97322 -3.78717 0
M  V30 2652 H 244.827 -2.23637 -3.81365 0
M  V30 2653 N 243.887 0.651787 -1.4349 0
M  V30 2654 C 245.164 1.40909 -1.35661 0
M  V30 2655 C 245.544 2.11099 -0.00511733 0
M  V30 2656 O 244.892 2.04892 1.0115 0
M  V30 2657 C 245.102 2.3926 -2.54078 0
M  V30 2658 C 246.45 3.03217 -2.97228 0
M  V30 2659 O 247.474 2.49588 -2.54135 0
M  V30 2660 O 246.333 4.00455 -3.71885 0
M  V30 2661 H 243.427 0.629625 -0.536191 0
M  V30 2662 H 245.973 0.678575 -1.55542 0
M  V30 2663 H 244.745 1.86352 -3.44076 0
M  V30 2664 H 244.368 3.1976 -2.36303 0
M  V30 2665 N 245.365 1.30045 0.890287 0
M  V30 2666 C 246.612 1.18561 1.64163 0
M  V30 2667 C 246.94 -0.260852 1.92743 0
M  V30 2668 O 246.195 -1.20376 1.54299 0
M  V30 2669 C 246.494 1.95409 2.99249 0
M  V30 2670 C 246.16 3.45066 2.90242 0
M  V30 2671 C 244.822 3.85878 2.87492 0
M  V30 2672 C 247.174 4.4039 2.78758 0
M  V30 2673 C 244.502 5.20314 2.7109 0
M  V30 2674 C 246.854 5.74928 2.63894 0
M  V30 2675 C 245.518 6.14986 2.59516 0
M  V30 2676 H 244.788 0.433846 0.600715 0
M  V30 2677 H 247.435 1.61088 1.03552 0
M  V30 2678 H 245.74 1.45501 3.63781 0
M  V30 2679 H 247.437 1.8392 3.56334 0
M  V30 2680 H 244.027 3.12631 2.93189 0
M  V30 2681 H 248.211 4.09806 2.79952 0
M  V30 2682 H 243.467 5.50449 2.66112 0
M  V30 2683 H 247.641 6.48434 2.53981 0
M  V30 2684 H 245.268 7.19104 2.46565 0
M  V30 2685 N 246.843 -1.10192 1.12674 0
M  V30 2686 C 248.259 -1.34235 0.863317 0
M  V30 2687 C 248.459 -1.95062 -0.505277 0
M  V30 2688 O 247.515 -2.19192 -1.25345 0
M  V30 2689 C 248.828 -2.2616 1.98172 0
M  V30 2690 C 250.376 -2.3969 2.0129 0
M  V30 2691 C 250.851 -3.34946 3.1237 0
M  V30 2692 N 252.342 -3.42515 3.11829 0
M  V30 2693 C 253.077 -4.16199 3.94419 0
M  V30 2694 N 252.573 -4.92747 4.87004 0
M  V30 2695 N 254.366 -4.11843 3.82547 0
M  V30 2696 H 246.517 -0.690798 2.00853 0
M  V30 2697 H 248.78 -0.366774 0.874174 0
M  V30 2698 H 248.486 -1.8868 2.96804 0
M  V30 2699 H 248.36 -3.26488 1.88906 0
M  V30 2700 H 250.747 -2.76438 1.03276 0
M  V30 2701 H 250.828 -1.39169 2.14629 0
M  V30 2702 H 250.472 -2.98923 4.10619 0
M  V30 2703 H 250.402 -4.35353 2.96269 0
M  V30 2704 H 252.893 -2.87926 2.44759 0
M  V30 2705 H 253.206 -5.46376 5.46528 0
M  V30 2706 H 251.551 -4.91862 4.91016 0
M  V30 2707 H 254.742 -3.51136 3.0955 0
M  V30 2708 H 254.915 -4.69007 4.47142 0
M  V30 2709 N 248.321 -0.919034 -1.28029 0
M  V30 2710 C 249.546 -0.570357 -1.99403 0
M  V30 2711 C 249.971 0.842486 -1.68178 0
M  V30 2712 O 249.329 1.56391 -0.917141 0
M  V30 2713 C 249.377 -0.792541 -3.51783 0
M  V30 2714 O 248.481 0.145988 -4.12142 0
M  V30 2715 H 247.822 -0.220555 -0.6263 0
M  V30 2716 H 250.352 -1.23592 -1.63053 0
M  V30 2717 H 250.362 -0.704708 -4.01868 0
M  V30 2718 H 249.037 -1.82247 -3.73844 0
M  V30 2719 H 247.614 0.00897528 -3.72899 0
M  V30 2720 N 249.799 1.42003 -0.683588 0
M  V30 2721 C 250.729 2.33487 -0.024866 0
M  V30 2722 C 251.71 1.51163 0.779975 0
M  V30 2723 O 252.895 1.79739 0.735362 0
M  V30 2724 C 250.025 3.3487 0.920836 0
M  V30 2725 C 248.979 4.27414 0.223958 0
M  V30 2726 C 248.305 5.19074 1.2832 0
M  V30 2727 C 249.605 5.14445 -0.90242 0
M  V30 2728 H 251.299 2.88819 -0.788921 0
M  V30 2729 H 248.845 1.38873 -0.38083 0
M  V30 2730 H 250.798 3.97787 1.39081 0
M  V30 2731 H 249.522 2.77861 1.71642 0
M  V30 2732 H 248.181 3.65904 -0.225864 0
M  V30 2733 H 247.829 4.58387 2.071 0
M  V30 2734 H 247.529 5.81822 0.821995 0
M  V30 2735 H 249.053 5.84867 1.75392 0
M  V30 2736 H 250.467 5.70998 -0.513272 0
M  V30 2737 H 248.864 5.86072 -1.28997 0
M  V30 2738 H 249.934 4.52322 -1.74737 0
M  V30 2739 N 251.277 0.427512 1.51691 0
M  V30 2740 C 252.688 -0.0378867 1.86662 0
M  V30 2741 C 253.039 -1.42819 1.34525 0
M  V30 2742 O 252.164 -2.05037 0.692014 0
M  V30 2743 C 252.759 -0.0755266 3.38716 0
M  V30 2744 C 251.318 -0.485309 3.73258 0
M  V30 2745 C 250.465 0.328399 2.75349 0
M  V30 2746 H 253.416 0.64379 1.45055 0
M  V30 2747 H 253.437 -0.887056 3.70016 0
M  V30 2748 H 252.949 0.936487 3.76632 0
M  V30 2749 H 251.05 -1.50329 3.40928 0
M  V30 2750 H 251.163 -0.21693 4.78609 0
M  V30 2751 H 249.527 -0.211905 2.53817 0
M  V30 2752 H 250.31 1.3391 3.16106 0
M  V30 2753 N 252.755 -1.56801 0.158532 0
M  V30 2754 C 254.004 -1.95665 -0.489702 0
M  V30 2755 C 254.317 -1.04654 -1.65248 0
M  V30 2756 O 255.523 -1.33146 -2.3661 0
M  V30 2757 C 253.979 -3.47874 -0.922582 0
M  V30 2758 C 253.587 -4.47489 0.213893 0
M  V30 2759 C 255.331 -3.95583 -1.53996 0
M  V30 2760 C 253.238 -5.90921 -0.237903 0
M  V30 2761 H 252.168 -0.730516 -0.186716 0
M  V30 2762 H 254.819 -1.81861 0.244722 0
M  V30 2763 H 253.201 -3.57051 -1.71261 0
M  V30 2764 H 254.375 -4.50017 0.991036 0
M  V30 2765 H 252.69 -4.09764 0.740407 0
M  V30 2766 H 255.287 -5.0019 -1.8898 0
M  V30 2767 H 255.63 -3.37789 -2.43319 0
M  V30 2768 H 256.163 -3.8937 -0.814611 0
M  V30 2769 H 252.902 -6.52559 0.620236 0
M  V30 2770 H 252.422 -5.91729 -0.980676 0
M  V30 2771 H 254.101 -6.43352 -0.686067 0
M  V30 2772 N 254.233 0.115231 -1.57178 0
M  V30 2773 C 255.166 1.17166 -1.95825 0
M  V30 2774 C 256.144 1.39912 -0.828463 0
M  V30 2775 O 257.328 1.54004 -1.08697 0
M  V30 2776 C 254.455 2.52478 -2.25771 0
M  V30 2777 C 253.501 2.46136 -3.48309 0
M  V30 2778 S 254.334 1.89736 -5.0076 0
M  V30 2779 C 255.49 3.26713 -5.33863 0
M  V30 2780 H 255.723 0.842103 -2.85124 0
M  V30 2781 H 253.256 0.322136 -1.51002 0
M  V30 2782 H 255.214 3.30332 -2.43702 0
M  V30 2783 H 253.875 2.82609 -1.37079 0
M  V30 2784 H 253.068 3.45819 -3.66641 0
M  V30 2785 H 252.67 1.76404 -3.29784 0
M  V30 2786 H 254.962 4.22935 -5.29275 0
M  V30 2787 H 255.905 3.13205 -6.35065 0
M  V30 2788 H 256.313 3.25316 -4.61335 0
M  V30 2789 N 255.711 1.52812 0.385517 0
M  V30 2790 C 256.658 1.77838 1.47113 0
M  V30 2791 C 257.628 0.621757 1.54024 0
M  V30 2792 O 258.813 0.861846 1.70226 0
M  V30 2793 C 255.953 1.95618 2.84302 0
M  V30 2794 C 255.066 3.23316 2.86515 0
M  V30 2795 C 254.201 3.31394 4.15152 0
M  V30 2796 C 253.24 4.53201 4.1143 0
M  V30 2797 N 252.377 4.58542 5.3168 0
M  V30 2798 H 257.217 2.70482 1.25073 0
M  V30 2799 H 254.754 1.34006 0.606692 0
M  V30 2800 H 256.712 2.03912 3.63972 0
M  V30 2801 H 255.342 1.06331 3.04784 0
M  V30 2802 H 254.394 3.24076 1.99195 0
M  V30 2803 H 255.706 4.13045 2.79634 0
M  V30 2804 H 254.86 3.3889 5.03228 0
M  V30 2805 H 253.599 2.39645 4.24761 0
M  V30 2806 H 252.604 4.45827 3.21742 0
M  V30 2807 H 253.829 5.46271 4.03442 0
M  V30 2808 H 251.775 3.69686 5.41912 0
M  V30 2809 H 251.692 5.42148 5.26889 0
M  V30 2810 H 252.96 4.70296 6.21644 0
M  V30 2811 N 257.189 -0.644168 1.43834 0
M  V30 2812 C 258.121 -1.76955 1.45669 0
M  V30 2813 C 259.134 -1.58956 0.351666 0
M  V30 2814 O 260.323 -1.6751 0.616644 0
M  V30 2815 C 257.423 -3.14507 1.26248 0
M  V30 2816 C 256.596 -3.59083 2.49757 0
M  V30 2817 C 255.655 -4.75467 2.25427 0
M  V30 2818 O 254.681 -4.84444 2.98836 0
M  V30 2819 N 255.883 -5.66289 1.27661 0
M  V30 2820 H 258.648 -1.75856 2.42682 0
M  V30 2821 H 256.209 -0.828312 1.39106 0
M  V30 2822 H 258.201 -3.90067 1.0784 0
M  V30 2823 H 256.771 -3.10325 0.376478 0
M  V30 2824 H 255.991 -2.7387 2.8353 0
M  V30 2825 H 257.279 -3.85613 3.31934 0
M  V30 2826 H 256.677 -5.61718 0.670064 0
M  V30 2827 H 255.234 -6.41533 1.15234 0
M  V30 2828 N 258.668 -1.30515 -0.883378 0
M  V30 2829 C 259.914 -1.20617 -1.63778 0
M  V30 2830 C 260.269 0.236469 -1.90941 0
M  V30 2831 O 259.562 1.16596 -1.52039 0
M  V30 2832 C 259.756 -1.96994 -2.98209 0
M  V30 2833 C 259.585 -3.48537 -2.84169 0
M  V30 2834 C 258.355 -4.17893 -2.84067 0
M  V30 2835 C 260.553 -4.43738 -2.60001 0
M  V30 2836 N 258.535 -5.55685 -2.60936 0
M  V30 2837 C 259.906 -5.69105 -2.46007 0
M  V30 2838 C 261.961 -4.33316 -2.45239 0
M  V30 2839 C 260.664 -6.8523 -2.18752 0
M  V30 2840 C 262.69 -5.4921 -2.19369 0
M  V30 2841 C 262.052 -6.73558 -2.06153 0
M  V30 2842 H 258.151 -0.496434 -0.604216 0
M  V30 2843 H 260.735 -1.64544 -1.04083 0
M  V30 2844 H 258.906 -1.55455 -3.55933 0
M  V30 2845 H 260.638 -1.79225 -3.62851 0
M  V30 2846 H 257.393 -3.69739 -2.95956 0
M  V30 2847 H 257.817 -6.28199 -2.52378 0
M  V30 2848 H 262.459 -3.37856 -2.54191 0
M  V30 2849 H 260.177 -7.80729 -2.08537 0
M  V30 2850 H 263.763 -5.43054 -2.08766 0
M  V30 2851 H 262.643 -7.61721 -1.86416 0
M  V30 2852 N 260.146 1.09593 -1.13257 0
M  V30 2853 C 261.109 2.14359 -0.811358 0
M  V30 2854 C 262.109 1.59808 0.178377 0
M  V30 2855 O 263.299 1.74132 -0.0484911 0
M  V30 2856 C 260.431 3.40269 -0.207276 0
M  V30 2857 H 261.624 2.44284 -1.73969 0
M  V30 2858 H 259.177 1.25102 -0.936973 0
M  V30 2859 H 259.912 3.15969 0.73036 0
M  V30 2860 H 259.697 3.81154 -0.919992 0
M  V30 2861 H 261.187 4.176 0.000667944 0
M  V30 2862 N 261.624 0.925811 1.2754 0
M  V30 2863 C 262.571 0.422045 2.26908 0
M  V30 2864 C 263.541 -0.510029 1.58076 0
M  V30 2865 O 264.726 -0.429599 1.85901 0
M  V30 2866 C 261.866 -0.320837 3.43605 0
M  V30 2867 C 260.979 0.64513 4.27156 0
M  V30 2868 C 260.114 -0.117405 5.3107 0
M  V30 2869 C 259.153 0.841391 6.0629 0
M  V30 2870 N 258.29 0.111604 7.02011 0
M  V30 2871 H 263.13 1.27441 2.69375 0
M  V30 2872 H 260.667 0.639697 1.32462 0
M  V30 2873 H 262.625 -0.76785 4.10073 0
M  V30 2874 H 261.255 -1.13745 3.02096 0
M  V30 2875 H 260.307 1.21067 3.6062 0
M  V30 2876 H 261.619 1.37797 4.79389 0
M  V30 2877 H 260.773 -0.624422 6.03478 0
M  V30 2878 H 259.512 -0.883219 4.79636 0
M  V30 2879 H 258.517 1.35967 5.32722 0
M  V30 2880 H 259.742 1.60696 6.59813 0
M  V30 2881 H 257.688 -0.635999 6.5291 0
M  V30 2882 H 257.605 0.784044 7.51923 0
M  V30 2883 H 258.873 -0.374823 7.78598 0
M  V30 2884 N 263.102 -1.41638 0.69111 0
M  V30 2885 C 264.348 -2.01598 0.220519 0
M  V30 2886 C 264.681 -1.54594 -1.17535 0
M  V30 2887 O 263.956 -0.755177 -1.79241 0
M  V30 2888 C 264.239 -3.59062 0.273243 0
M  V30 2889 C 264.092 -4.16203 1.70573 0
M  V30 2890 C 265.411 -4.38546 -0.369457 0
M  V30 2891 H 262.53 -0.732468 0.0816045 0
M  V30 2892 H 265.172 -1.68445 0.878986 0
M  V30 2893 H 263.322 -3.87435 -0.287411 0
M  V30 2894 H 264.994 -3.98722 2.31989 0
M  V30 2895 H 263.237 -3.71414 2.2413 0
M  V30 2896 H 263.908 -5.25358 1.69419 0
M  V30 2897 H 266.384 -4.1596 0.107977 0
M  V30 2898 H 265.26 -5.48069 -0.302002 0
M  V30 2899 H 265.521 -4.17662 -1.44951 0
M  V30 2900 N 264.58 -0.43555 -1.51462 0
M  V30 2901 C 265.829 0.133007 -2.01261 0
M  V30 2902 C 266.142 1.43942 -1.32439 0
M  V30 2903 O 267.348 2.09081 -1.73198 0
M  V30 2904 C 265.804 0.287581 -3.58749 0
M  V30 2905 C 265.412 -1.00829 -4.36506 0
M  V30 2906 C 267.156 0.810004 -4.167 0
M  V30 2907 C 265.063 -0.819454 -5.85695 0
M  V30 2908 H 263.993 0.0534822 -0.752101 0
M  V30 2909 H 266.644 -0.565038 -1.74584 0
M  V30 2910 H 265.026 1.04859 -3.81865 0
M  V30 2911 H 266.2 -1.77749 -4.25138 0
M  V30 2912 H 264.515 -1.45911 -3.89999 0
M  V30 2913 H 267.112 0.967743 -5.2587 0
M  V30 2914 H 267.455 1.79196 -3.75758 0
M  V30 2915 H 267.988 0.107357 -3.97655 0
M  V30 2916 H 264.727 -1.77374 -6.31046 0
M  V30 2917 H 264.247 -0.0900208 -5.99732 0
M  V30 2918 H 265.926 -0.471949 -6.45276 0
M  V30 2919 N 266.058 1.56714 -0.166846 0
M  V30 2920 C 267.288 2.00828 0.48494 0
M  V30 2921 C 267.696 1.04612 1.57648 0
M  V30 2922 O 267.039 0.0383201 1.8366 0
M  V30 2923 C 267.101 3.4137 1.12723 0
M  V30 2924 C 266.765 4.56654 0.177886 0
M  V30 2925 C 267.762 5.16402 -0.60207 0
M  V30 2926 C 265.447 5.02244 0.0750139 0
M  V30 2927 C 267.441 6.20167 -1.47215 0
M  V30 2928 C 265.128 6.05859 -0.798649 0
M  V30 2929 C 266.126 6.64691 -1.57082 0
M  V30 2930 O 265.814 7.66297 -2.42989 0
M  V30 2931 H 265.546 0.663587 0.128953 0
M  V30 2932 H 268.1 2.03692 -0.264365 0
M  V30 2933 H 266.33 3.35406 1.92457 0
M  V30 2934 H 268.019 3.69466 1.68076 0
M  V30 2935 H 268.785 4.82065 -0.53274 0
M  V30 2936 H 264.664 4.56167 0.665812 0
M  V30 2937 H 268.208 6.66016 -2.07531 0
M  V30 2938 H 264.105 6.39621 -0.869199 0
M  V30 2939 H 264.873 7.83601 -2.36455 0
M  V30 2940 N 267.536 -0.106894 1.57237 0
M  V30 2941 C 268.813 -0.843526 1.76477 0
M  V30 2942 C 269.193 -1.97499 0.745464 0
M  V30 2943 O 268.541 -2.27357 -0.228306 0
M  V30 2944 C 268.751 -1.34903 3.21873 0
M  V30 2945 C 270.099 -1.79654 3.8472 0
M  V30 2946 O 271.123 -1.44554 3.2555 0
M  V30 2947 O 269.982 -2.44515 4.88748 0
M  V30 2948 H 267.076 -0.401468 0.723016 0
M  V30 2949 H 269.622 -0.0896927 1.69463 0
M  V30 2950 H 268.394 -0.53781 3.87586 0
M  V30 2951 H 268.017 -2.16522 3.33473 0
M  V30 2952 N 269.014 -1.53014 -0.377408 0
M  V30 2953 C 269.977 -1.77957 -1.44444 0
M  V30 2954 C 270.977 -0.649763 -1.47087 0
M  V30 2955 O 272.167 -0.917897 -1.48055 0
M  V30 2956 C 269.299 -1.89089 -2.83651 0
M  V30 2957 H 270.492 -2.73243 -1.23606 0
M  V30 2958 H 268.045 -1.43912 -0.609844 0
M  V30 2959 H 268.78 -0.958293 -3.09818 0
M  V30 2960 H 268.565 -2.71254 -2.83132 0
M  V30 2961 H 270.055 -2.1002 -3.60945 0
M  V30 2962 N 270.492 0.636531 -1.44174 0
M  V30 2963 C 271.72 1.42353 -1.50144 0
M  V30 2964 C 272.135 1.88389 -0.124575 0
M  V30 2965 O 271.492 1.6051 0.868489 0
M  V30 2966 C 271.543 2.64744 -2.46156 0
M  V30 2967 O 271.264 2.20629 -3.7849 0
M  V30 2968 C 272.765 3.57929 -2.61537 0
M  V30 2969 H 269.985 0.436752 -0.5094 0
M  V30 2970 H 272.529 0.778933 -1.89084 0
M  V30 2971 H 270.684 3.25307 -2.10366 0
M  V30 2972 H 271.098 2.99938 -4.30276 0
M  V30 2973 H 272.572 4.40428 -3.32757 0
M  V30 2974 H 273.049 4.06382 -1.66585 0
M  V30 2975 H 273.655 3.03238 -2.98206 0
M  V30 2976 N 271.97 1.30982 0.876444 0
M  V30 2977 C 272.92 1.14688 1.97055 0
M  V30 2978 C 273.904 0.0596593 1.60789 0
M  V30 2979 O 275.096 0.283892 1.74708 0
M  V30 2980 C 272.225 0.849627 3.3262 0
M  V30 2981 C 271.311 1.97752 3.75173 0
M  V30 2982 N 271.702 3.22384 3.89746 0
M  V30 2983 C 270 1.8758 4.04635 0
M  V30 2984 C 270.701 3.96121 4.25985 0
M  V30 2985 N 269.677 3.24237 4.36315 0
M  V30 2986 H 273.479 2.09204 2.06424 0
M  V30 2987 H 270.993 1.22445 1.06682 0
M  V30 2988 H 272.99 0.713895 4.10742 0
M  V30 2989 H 271.65 -0.087376 3.24582 0
M  V30 2990 H 272.661 3.57575 3.74647 0
M  V30 2991 H 269.338 1.01303 4.05024 0
M  V30 2992 H 270.728 5.03491 4.44911 0
M  V30 2993 N 273.449 -1.08991 1.13837 0
M  V30 2994 C 274.674 -1.85551 0.926585 0
M  V30 2995 C 275.099 -1.80782 -0.519566 0
M  V30 2996 O 274.457 -1.18855 -1.36906 0
M  V30 2997 C 274.505 -3.31266 1.42462 0
M  V30 2998 O 273.609 -4.07822 0.612789 0
M  V30 2999 H 272.95 -0.575192 0.331738 0
M  V30 3000 H 275.48 -1.37604 1.51414 0
M  V30 3001 H 275.49 -3.82112 1.43019 0
M  V30 3002 H 274.165 -3.34052 2.47754 0
M  V30 3003 H 272.742 -3.66731 0.675463 0
M  V30 3004 N 274.927 -0.932562 -1.27047 0
M  V30 3005 C 276.173 -0.576412 -1.94436 0
M  V30 3006 C 276.506 0.880891 -1.73072 0
M  V30 3007 O 275.781 1.62905 -1.06264 0
M  V30 3008 C 276.064 -0.909031 -3.48437 0
M  V30 3009 C 275.917 -2.42044 -3.79123 0
M  V30 3010 C 277.236 -0.418341 -4.38107 0
M  V30 3011 H 274.355 -0.210888 -0.706184 0
M  V30 3012 H 276.997 -1.16522 -1.50075 0
M  V30 3013 H 275.147 -0.407947 -3.86352 0
M  V30 3014 H 276.819 -2.99359 -3.50973 0
M  V30 3015 H 275.062 -2.86758 -3.25503 0
M  V30 3016 H 275.733 -2.6037 -4.86736 0
M  V30 3017 H 278.209 -0.847856 -4.0737 0
M  V30 3018 H 277.085 -0.679981 -5.44672 0
M  V30 3019 H 277.346 0.681642 -4.36814 0
M  V30 3020 N 276.405 1.4127 -0.698611 0
M  V30 3021 C 277.337 2.292 0.00399731 0
M  V30 3022 C 278.35 1.44944 0.741279 0
M  V30 3023 O 279.539 1.68416 0.591477 0
M  V30 3024 C 276.639 3.22875 1.02979 0
M  V30 3025 C 275.812 4.35904 0.36151 0
M  V30 3026 C 274.871 5.10134 1.29033 0
M  V30 3027 O 273.897 5.63809 0.781562 0
M  V30 3028 N 275.099 5.17885 2.6225 0
M  V30 3029 H 277.864 2.9014 -0.750921 0
M  V30 3030 H 275.425 1.52455 -0.544882 0
M  V30 3031 H 277.417 3.69404 1.65296 0
M  V30 3032 H 275.987 2.63221 1.68622 0
M  V30 3033 H 275.207 3.91719 -0.441584 0
M  V30 3034 H 276.495 5.08696 -0.103055 0
M  V30 3035 H 275.893 4.7573 3.061 0
M  V30 3036 H 274.45 5.6798 3.19754 0
M  V30 3037 N 277.883 0.443576 1.51229 0
M  V30 3038 C 278.813 -0.355142 2.30783 0
M  V30 3039 C 279.794 -1.0154 1.36468 0
M  V30 3040 O 280.979 -1.01785 1.65389 0
M  V30 3041 C 278.109 -1.45312 3.15439 0
M  V30 3042 C 277.063 -0.916002 4.18083 0
M  V30 3043 C 276.389 -2.1102 4.91299 0
M  V30 3044 C 277.689 0.0538602 5.22272 0
M  V30 3045 H 279.383 0.308767 2.97804 0
M  V30 3046 H 276.929 0.149937 1.43217 0
M  V30 3047 H 278.882 -2.01914 3.69876 0
M  V30 3048 H 277.606 -2.14541 2.46252 0
M  V30 3049 H 276.265 -0.372145 3.64706 0
M  V30 3050 H 275.913 -2.78882 4.18609 0
M  V30 3051 H 275.613 -1.75717 5.60712 0
M  V30 3052 H 277.137 -2.68164 5.48562 0
M  V30 3053 H 278.551 -0.422069 5.71744 0
M  V30 3054 H 276.948 0.319776 5.99247 0
M  V30 3055 H 278.018 0.98858 4.74716 0
M  V30 3056 N 279.361 -1.56624 0.175154 0
M  V30 3057 C 280.772 -1.83561 -0.340916 0
M  V30 3058 C 281.123 -1.09511 -1.62794 0
M  V30 3059 O 280.248 -0.349389 -2.13561 0
M  V30 3060 C 280.843 -3.32979 -0.625313 0
M  V30 3061 C 279.402 -3.60399 -1.08581 0
M  V30 3062 C 278.549 -2.77024 -0.123722 0
M  V30 3063 H 281.5 -1.53593 0.399344 0
M  V30 3064 H 281.521 -3.50666 -1.47694 0
M  V30 3065 H 281.033 -3.86847 0.311575 0
M  V30 3066 H 279.134 -3.11945 -2.03767 0
M  V30 3067 H 279.247 -4.68711 -0.992317 0
M  V30 3068 H 277.611 -2.46993 -0.621821 0
M  V30 3069 H 278.394 -3.33674 0.807256 0
M  V30 3070 N 280.839 0.0985539 -1.57292 0
M  V30 3071 C 282.087 0.801092 -1.85545 0
M  V30 3072 C 282.408 1.79438 -0.763353 0
M  V30 3073 O 281.678 1.94763 0.21073 0
M  V30 3074 H 280.258 0.29884 -0.684619 0
M  V30 3075 H 282.92 0.0810064 -1.94732 0
M  V30 3076 H 282.016 1.3338 -2.82163 0
M  V30 3077 N 282.317 1.53212 0.369288 0
M  V30 3078 C 283.565 1.68881 1.11012 0
M  V30 3079 C 283.886 0.441285 1.89941 0
M  V30 3080 O 283.156 -0.544623 1.88177 0
M  V30 3081 H 281.736 0.622569 0.412816 0
M  V30 3082 H 284.398 1.90391 0.416802 0
M  V30 3083 H 283.494 2.54822 1.80201 0
M  V30 3084 N 283.795 -0.628877 1.44509 0
M  V30 3085 C 284.725 -1.75187 1.54376 0
M  V30 3086 C 285.706 -1.65411 0.396618 0
M  V30 3087 O 286.891 -1.84137 0.617031 0
M  V30 3088 C 284.021 -3.13725 1.48976 0
M  V30 3089 C 282.975 -3.38291 2.62189 0
M  V30 3090 C 282.301 -4.76883 2.41841 0
M  V30 3091 C 283.601 -3.30632 4.04326 0
M  V30 3092 H 285.295 -1.67187 2.48373 0
M  V30 3093 H 282.841 -0.802909 1.19538 0
M  V30 3094 H 284.794 -3.92064 1.54478 0
M  V30 3095 H 283.518 -3.22515 0.514961 0
M  V30 3096 H 282.177 -2.62334 2.56079 0
M  V30 3097 H 281.825 -4.82378 1.42548 0
M  V30 3098 H 281.525 -4.94278 3.17747 0
M  V30 3099 H 283.049 -5.57449 2.49165 0
M  V30 3100 H 284.463 -3.98873 4.11793 0
M  V30 3101 H 282.86 -3.59561 4.80454 0
M  V30 3102 H 283.93 -2.28404 4.27738 0
M  V30 3103 N 285.273 -1.31445 -0.869486 0
M  V30 3104 C 286.521 -1.20918 -1.61936 0
M  V30 3105 C 286.842 0.232683 -1.93607 0
M  V30 3106 O 286.112 1.15352 -1.58338 0
M  V30 3107 H 284.692 -0.44454 -0.600328 0
M  V30 3108 H 287.354 -1.64776 -1.0409 0
M  V30 3109 H 286.45 -1.78124 -2.56278 0
M  V30 3110 N 286.751 1.08385 -1.14413 0
M  V30 3111 C 288.028 1.77429 -0.823297 0
M  V30 3112 C 288.408 1.9974 0.683163 0
M  V30 3113 O 287.756 1.60739 1.62405 0
M  V30 3114 C 287.966 3.09004 -1.62227 0
M  V30 3115 C 289.314 3.83532 -1.82177 0
M  V30 3116 O 290.338 3.18786 -1.58915 0
M  V30 3117 O 289.197 4.99792 -2.21067 0
M  V30 3118 H 286.291 0.769999 -0.301712 0
M  V30 3119 H 288.837 1.14846 -1.24934 0
M  V30 3120 H 287.609 2.88316 -2.64555 0
M  V30 3121 H 287.232 3.79316 -1.19187 0
M  V30 3122 N 288.23 0.939286 1.26551 0
M  V30 3123 C 289.177 0.446088 2.26448 0
M  V30 3124 C 290.147 -0.493234 1.58608 0
M  V30 3125 O 291.332 -0.409857 1.86346 0
M  V30 3126 C 288.472 -0.284375 3.43926 0
M  V30 3127 C 287.585 0.690399 4.26448 0
M  V30 3128 C 286.72 -0.0610712 5.31165 0
M  V30 3129 C 285.759 0.905649 6.05363 0
M  V30 3130 N 284.896 0.186055 7.01853 0
M  V30 3131 H 289.736 1.30291 2.68008 0
M  V30 3132 H 287.273 0.65371 1.31776 0
M  V30 3133 H 289.231 -0.724313 4.10864 0
M  V30 3134 H 287.861 -1.10535 3.03285 0
M  V30 3135 H 286.913 1.24885 3.59316 0
M  V30 3136 H 288.225 1.42873 4.779 0
M  V30 3137 H 287.379 -0.56038 6.04106 0
M  V30 3138 H 286.118 -0.832297 4.80546 0
M  V30 3139 H 285.123 1.4161 5.3125 0
M  V30 3140 H 286.348 1.67685 6.58072 0
M  V30 3141 H 284.294 -0.566714 6.53548 0
M  V30 3142 H 284.211 0.863752 7.51049 0
M  V30 3143 H 285.479 -0.292221 7.78952 0
M  V30 3144 N 289.708 -1.40897 0.706093 0
M  V30 3145 C 290.933 -2.05895 0.249435 0
M  V30 3146 C 291.358 -1.52823 -1.09666 0
M  V30 3147 O 290.716 -0.659589 -1.68876 0
M  V30 3148 C 290.764 -3.59872 0.22904 0
M  V30 3149 O 289.868 -4.04708 -0.792784 0
M  V30 3150 H 289.209 -0.653206 0.119241 0
M  V30 3151 H 291.739 -1.80471 0.96391 0
M  V30 3152 H 291.749 -4.07951 0.0634791 0
M  V30 3153 H 290.424 -3.97866 1.21141 0
M  V30 3154 H 289.001 -3.68111 -0.59572 0
M  V30 3155 N 291.186 -0.45159 -1.50991 0
M  V30 3156 C 292.434 0.109857 -2.01801 0
M  V30 3157 C 292.755 1.41958 -1.3369 0
M  V30 3158 O 292.025 1.9003 -0.475951 0
M  V30 3159 H 290.605 0.0435884 -0.745727 0
M  V30 3160 H 293.267 -0.597557 -1.85514 0
M  V30 3161 H 292.363 0.275489 -3.10882 0
M  V30 3162 N 292.664 1.56529 -0.183458 0
M  V30 3163 C 293.912 1.96855 0.457452 0
M  V30 3164 C 294.233 1.07104 1.62953 0
M  V30 3165 O 293.503 0.139887 1.954 0
M  V30 3166 H 292.083 0.72693 0.171992 0
M  V30 3167 H 294.745 1.93056 -0.267476 0
M  V30 3168 H 293.841 3.01423 0.809368 0
M  V30 3169 N 294.142 -0.090211 1.57342 0
M  V30 3170 C 295.075 -1.14035 1.97664 0
M  V30 3171 C 296.053 -1.38576 0.850616 0
M  V30 3172 O 297.237 -1.52255 1.11134 0
M  V30 3173 C 294.364 -2.48854 2.2976 0
M  V30 3174 C 293.41 -2.40564 3.52181 0
M  V30 3175 S 294.243 -1.81745 5.03715 0
M  V30 3176 C 295.399 -3.18178 5.38993 0
M  V30 3177 H 295.632 -0.796636 2.86428 0
M  V30 3178 H 293.165 -0.298072 1.51496 0
M  V30 3179 H 295.123 -3.26413 2.48927 0
M  V30 3180 H 293.784 -2.80393 1.41558 0
M  V30 3181 H 292.977 -3.39942 3.72096 0
M  V30 3182 H 292.579 -1.71135 3.32549 0
M  V30 3183 H 294.871 -4.14461 5.35937 0
M  V30 3184 H 295.814 -3.03062 6.39968 0
M  V30 3185 H 296.222 -3.17935 4.66452 0
M  V30 3186 N 295.62 -1.53406 -0.361157 0
M  V30 3187 C 297.036 -1.43277 -0.703124 0
M  V30 3188 C 297.236 -0.575384 -1.9311 0
M  V30 3189 O 296.292 -0.0595362 -2.5243 0
M  V30 3190 C 297.605 -2.8653 -0.9122 0
M  V30 3191 C 299.153 -2.96191 -1.01193 0
M  V30 3192 C 299.628 -4.40514 -1.25345 0
M  V30 3193 N 301.119 -4.43962 -1.32105 0
M  V30 3194 C 301.854 -5.52746 -1.5251 0
M  V30 3195 N 301.35 -6.71567 -1.70203 0
M  V30 3196 N 303.143 -5.40331 -1.54916 0
M  V30 3197 H 295.294 -2.07654 0.446475 0
M  V30 3198 H 297.557 -0.937944 0.137715 0
M  V30 3199 H 297.263 -3.51605 -0.0816414 0
M  V30 3200 H 297.137 -3.30441 -1.81903 0
M  V30 3201 H 299.524 -2.31266 -1.83303 0
M  V30 3202 H 299.605 -2.55667 -0.0823929 0
M  V30 3203 H 299.249 -5.06014 -0.437346 0
M  V30 3204 H 299.179 -4.78614 -2.19627 0
M  V30 3205 H 301.67 -3.58332 -1.20028 0
M  V30 3206 H 301.983 -7.50241 -1.85359 0
M  V30 3207 H 300.328 -6.74545 -1.67373 0
M  V30 3208 H 303.519 -4.46465 -1.40663 0
M  V30 3209 H 303.692 -6.25173 -1.70477 0
M  V30 3210 N 297.098 0.621204 -1.44841 0
M  V30 3211 C 298.008 1.7612 -1.5498 0
M  V30 3212 C 299.024 1.68477 -0.434927 0
M  V30 3213 O 300.2 1.89076 -0.693693 0
M  V30 3214 C 297.265 3.1254 -1.50065 0
M  V30 3215 C 296.326 3.31741 -2.72482 0
M  V30 3216 C 295.559 4.61653 -2.67792 0
M  V30 3217 O 295.782 5.431 -1.74352 0
M  V30 3218 O 294.716 4.83271 -3.58794 0
M  V30 3219 H 298.542 1.70518 -2.51311 0
M  V30 3220 H 296.127 0.783643 -1.27198 0
M  V30 3221 H 298.009 3.93844 -1.49882 0
M  V30 3222 H 296.684 3.18663 -0.568806 0
M  V30 3223 H 295.591 2.50077 -2.7823 0
M  V30 3224 H 296.924 3.30486 -3.64746 0
M  V30 3225 N 298.576 1.31904 0.862503 0
M  V30 3226 C 299.823 1.22017 1.61611 0
M  V30 3227 C 300.151 -0.21991 1.93253 0
M  V30 3228 O 299.406 -1.17076 1.56817 0
M  V30 3229 C 299.705 2.01713 2.95037 0
M  V30 3230 C 299.371 3.51145 2.82857 0
M  V30 3231 C 298.033 3.91889 2.79243 0
M  V30 3232 C 300.385 4.46204 2.69353 0
M  V30 3233 C 297.713 5.25947 2.59993 0
M  V30 3234 C 300.065 5.80397 2.5164 0
M  V30 3235 C 298.729 6.20352 2.46413 0
M  V30 3236 H 297.999 0.44649 0.591378 0
M  V30 3237 H 300.646 1.63248 1.00111 0
M  V30 3238 H 298.951 1.53185 3.60613 0
M  V30 3239 H 300.648 1.91437 3.52353 0
M  V30 3240 H 297.238 3.1878 2.86491 0
M  V30 3241 H 301.422 4.15652 2.71196 0
M  V30 3242 H 296.678 5.5597 2.54376 0
M  V30 3243 H 300.852 6.53676 2.40169 0
M  V30 3244 H 298.479 7.24172 2.31256 0
M  V30 3245 N 300.054 -1.07777 1.14986 0
M  V30 3246 C 301.303 -1.79669 0.916617 0
M  V30 3247 C 301.616 -1.87474 -0.557917 0
M  V30 3248 O 302.822 -2.55845 -0.908617 0
M  V30 3249 C 301.278 -3.22848 1.59051 0
M  V30 3250 C 300.886 -3.23257 3.10176 0
M  V30 3251 C 302.63 -3.99379 1.43864 0
M  V30 3252 C 300.537 -4.61063 3.70372 0
M  V30 3253 H 299.467 -0.673349 0.33929 0
M  V30 3254 H 302.118 -1.21003 1.37951 0
M  V30 3255 H 300.5 -3.8168 1.0553 0
M  V30 3256 H 301.674 -2.74095 3.70417 0
M  V30 3257 H 299.989 -2.60222 3.25074 0
M  V30 3258 H 302.586 -5.0122 1.86232 0
M  V30 3259 H 302.929 -4.14511 0.385564 0
M  V30 3260 H 303.462 -3.47032 1.94457 0
M  V30 3261 H 300.201 -4.51135 4.7556 0
M  V30 3262 H 299.721 -5.1048 3.14913 0
M  V30 3263 H 301.4 -5.30034 3.71043 0
M  V30 3264 N 301.532 -0.945985 -1.26051 0
M  V30 3265 C 302.779 -0.596118 -1.93527 0
M  V30 3266 C 303.107 0.865559 -1.74179 0
M  V30 3267 O 302.362 1.63524 -1.0751 0
M  V30 3268 C 302.661 -0.890475 -3.46129 0
M  V30 3269 C 302.327 -2.3368 -3.85622 0
M  V30 3270 C 300.989 -2.73216 -3.96114 0
M  V30 3271 C 303.341 -3.27648 -4.05334 0
M  V30 3272 C 300.669 -4.05806 -4.2372 0
M  V30 3273 C 303.021 -4.59841 -4.3443 0
M  V30 3274 C 301.685 -4.99185 -4.43137 0
M  V30 3275 H 300.955 -0.218135 -0.708165 0
M  V30 3276 H 303.602 -1.1934 -1.49768 0
M  V30 3277 H 301.907 -0.210711 -3.91233 0
M  V30 3278 H 303.604 -0.598478 -3.96509 0
M  V30 3279 H 300.194 -2.02015 -3.78005 0
M  V30 3280 H 304.378 -2.98298 -3.96651 0
M  V30 3281 H 299.634 -4.35945 -4.28675 0
M  V30 3282 H 303.808 -5.32641 -4.48628 0
M  V30 3283 H 301.435 -6.01952 -4.64282 0
M  V30 3284 N 303.011 1.40521 -0.713556 0
M  V30 3285 C 304.422 1.83853 -0.324807 0
M  V30 3286 C 304.773 1.59667 1.14021 0
M  V30 3287 O 303.898 1.07649 1.87725 0
M  V30 3288 C 304.493 3.33751 -0.582746 0
M  V30 3289 C 303.052 3.75584 -0.247727 0
M  V30 3290 C 302.199 2.63753 -0.856121 0
M  V30 3291 H 305.15 1.29817 -0.91286 0
M  V30 3292 H 305.171 3.80194 0.152682 0
M  V30 3293 H 304.683 3.51322 -1.64908 0
M  V30 3294 H 302.784 3.63608 0.813624 0
M  V30 3295 H 302.897 4.7373 -0.715307 0
M  V30 3296 H 301.261 2.53108 -0.28432 0
M  V30 3297 H 302.044 2.84137 -1.92668 0
M  V30 3298 N 304.489 0.459591 1.5075 0
M  V30 3299 C 305.419 -0.330644 2.31147 0
M  V30 3300 C 306.4 -1.00087 1.37538 0
M  V30 3301 O 307.585 -1.00025 1.66459 0
M  V30 3302 C 304.715 -1.41958 3.16962 0
M  V30 3303 C 303.669 -0.871608 4.19031 0
M  V30 3304 C 302.995 -2.05797 4.9351 0
M  V30 3305 C 304.295 0.109251 5.22186 0
M  V30 3306 H 305.989 0.340336 2.97459 0
M  V30 3307 H 303.535 0.165119 1.4305 0
M  V30 3308 H 305.488 -1.9798 3.71997 0
M  V30 3309 H 304.212 -2.11917 2.48513 0
M  V30 3310 H 302.871 -0.333442 3.6508 0
M  V30 3311 H 302.519 -2.74427 4.21544 0
M  V30 3312 H 302.219 -1.6976 5.62544 0
M  V30 3313 H 303.743 -2.62331 5.51375 0
M  V30 3314 H 305.157 -0.361405 5.7216 0
M  V30 3315 H 303.554 0.383316 5.98875 0
M  V30 3316 H 304.624 1.03887 4.73641 0
M  V30 3317 N 305.967 -1.56429 0.191757 0
M  V30 3318 C 307.216 -1.9666 -0.448088 0
M  V30 3319 C 307.529 -1.08136 -1.62991 0
M  V30 3320 O 308.735 -1.38135 -2.33733 0
M  V30 3321 C 307.191 -3.49753 -0.848585 0
M  V30 3322 C 306.799 -4.46935 0.308764 0
M  V30 3323 C 308.543 -3.9876 -1.4557 0
M  V30 3324 C 306.45 -5.91293 -0.112506 0
M  V30 3325 H 305.38 -0.734312 -0.171179 0
M  V30 3326 H 308.031 -1.81301 0.283242 0
M  V30 3327 H 306.413 -3.60604 -1.63649 0
M  V30 3328 H 307.587 -4.47813 1.08627 0
M  V30 3329 H 305.902 -4.08102 0.827158 0
M  V30 3330 H 308.499 -5.04086 -1.78328 0
M  V30 3331 H 308.842 -3.42875 -2.36099 0
M  V30 3332 H 309.375 -3.9101 -0.731836 0
M  V30 3333 H 306.114 -6.51097 0.758514 0
M  V30 3334 H 305.634 -5.93676 -0.854941 0
M  V30 3335 H 307.313 -6.44663 -0.549448 0
M  V30 3336 N 307.445 0.0818655 -1.57387 0
M  V30 3337 C 308.861 0.436412 -1.53517 0
M  V30 3338 C 309.061 1.79758 -0.910459 0
M  V30 3339 O 308.117 2.47324 -0.508636 0
M  V30 3340 C 309.43 0.386734 -2.98203 0
M  V30 3341 C 310.978 0.467644 -3.09487 0
M  V30 3342 C 311.453 0.447978 -4.55804 0
M  V30 3343 N 312.944 0.508348 -4.60402 0
M  V30 3344 C 313.679 0.515184 -5.71081 0
M  V30 3345 N 313.175 0.477435 -6.91153 0
M  V30 3346 N 314.968 0.560988 -5.59294 0
M  V30 3347 H 307.119 -0.809546 -1.96367 0
M  V30 3348 H 309.382 -0.302733 -0.898363 0
M  V30 3349 H 309.088 -0.546539 -3.47427 0
M  V30 3350 H 308.962 1.20075 -3.57578 0
M  V30 3351 H 311.349 1.39134 -2.60242 0
M  V30 3352 H 311.43 -0.374753 -2.5304 0
M  V30 3353 H 311.074 -0.471826 -5.05704 0
M  V30 3354 H 311.004 1.30777 -5.10103 0
M  V30 3355 H 313.495 0.54218 -3.7399 0
M  V30 3356 H 313.808 0.486299 -7.71268 0
M  V30 3357 H 312.153 0.444278 -6.93579 0
M  V30 3358 H 315.344 0.5881 -4.64391 0
M  V30 3359 H 315.517 0.562846 -6.45551 0
M  V30 3360 N 308.923 1.53595 0.353017 0
M  V30 3361 C 309.886 1.80232 1.41594 0
M  V30 3362 C 310.886 0.673081 1.46035 0
M  V30 3363 O 312.076 0.941335 1.46576 0
M  V30 3364 C 309.208 1.93578 2.80607 0
M  V30 3365 H 310.401 2.75174 1.19244 0
M  V30 3366 H 307.954 1.44864 0.586872 0
M  V30 3367 H 308.689 1.00746 3.08254 0
M  V30 3368 H 308.474 2.75724 2.78781 0
M  V30 3369 H 309.964 2.15735 3.57558 0
M  V30 3370 N 310.401 -0.613514 1.45168 0
M  V30 3371 C 311.364 -1.7065 1.53007 0
M  V30 3372 C 312.364 -1.5548 0.410184 0
M  V30 3373 O 313.554 -1.60656 0.673455 0
M  V30 3374 C 310.686 -3.09875 1.42093 0
M  V30 3375 H 311.879 -1.65068 2.50385 0
M  V30 3376 H 309.432 -0.828728 1.32521 0
M  V30 3377 H 310.167 -3.21039 0.458769 0
M  V30 3378 H 309.952 -3.22293 2.23315 0
M  V30 3379 H 311.442 -3.895 1.50598 0
M  V30 3380 N 311.879 -1.3236 -0.855495 0
M  V30 3381 C 313.125 -1.23054 -1.612 0
M  V30 3382 C 313.458 0.207404 -1.93089 0
M  V30 3383 O 312.733 1.14432 -1.57275 0
M  V30 3384 C 313.016 -2.08937 -2.93287 0
M  V30 3385 C 312.869 -3.61105 -2.68185 0
M  V30 3386 C 314.188 -1.94986 -3.94549 0
M  V30 3387 H 311.307 -0.448364 -0.584926 0
M  V30 3388 H 313.949 -1.62297 -0.987917 0
M  V30 3389 H 312.099 -1.75599 -3.46551 0
M  V30 3390 H 313.771 -4.04652 -2.21483 0
M  V30 3391 H 312.014 -3.83813 -2.02164 0
M  V30 3392 H 312.685 -4.16522 -3.62234 0
M  V30 3393 H 315.161 -2.24189 -3.5054 0
M  V30 3394 H 314.037 -2.57356 -4.84829 0
M  V30 3395 H 314.298 -0.917263 -4.3248 0
M  V30 3396 N 313.357 1.07166 -1.15556 0
M  V30 3397 C 314.32 2.12589 -0.856644 0
M  V30 3398 C 315.32 1.6015 0.14444 0
M  V30 3399 O 316.51 1.7399 -0.0854163 0
M  V30 3400 C 313.642 3.39753 -0.279405 0
M  V30 3401 H 314.835 2.40539 -1.79112 0
M  V30 3402 H 312.388 1.23086 -0.963298 0
M  V30 3403 H 313.123 3.17447 0.663174 0
M  V30 3404 H 312.908 3.79117 -1.00063 0
M  V30 3405 H 314.398 4.17507 -0.0879113 0
M  V30 3406 N 314.835 0.952656 1.25548 0
M  V30 3407 C 316.081 0.607272 1.93494 0
M  V30 3408 C 316.414 -0.853245 1.74452 0
M  V30 3409 O 315.689 -1.61194 1.08843 0
M  V30 3410 C 315.972 0.96435 3.46947 0
M  V30 3411 C 315.825 2.48045 3.75225 0
M  V30 3412 C 317.144 0.487987 4.37386 0
M  V30 3413 H 314.263 0.222096 0.702739 0
M  V30 3414 H 316.905 1.18895 1.48203 0
M  V30 3415 H 315.055 0.469361 3.85654 0
M  V30 3416 H 316.727 3.04905 3.46166 0
M  V30 3417 H 314.97 2.919 3.209 0
M  V30 3418 H 315.641 2.6808 4.82532 0
M  V30 3419 H 318.117 0.912558 4.0597 0
M  V30 3420 H 316.993 0.766547 5.43521 0
M  V30 3421 H 317.254 -0.612063 4.37843 0
M  V30 3422 N 316.313 -1.40141 0.720998 0
M  V30 3423 C 317.561 -2.0039 0.262323 0
M  V30 3424 C 317.882 -1.57469 -1.15015 0
M  V30 3425 O 317.152 -0.816582 -1.78069 0
M  V30 3426 H 315.732 -0.741063 0.093996 0
M  V30 3427 H 318.394 -1.71398 0.927835 0
M  V30 3428 H 317.49 -3.10658 0.299671 0
M  V30 3429 N 317.792 -0.46758 -1.50504 0
M  V30 3430 C 319.032 0.0874114 -2.04213 0
M  V30 3431 C 319.396 1.37301 -1.34211 0
M  V30 3432 O 320.597 2.01015 -1.78456 0
M  V30 3433 C 318.868 0.270571 -3.56374 0
M  V30 3434 S 320.427 0.784623 -4.31728 0
M  V30 3435 H 317.245 0.0176153 -0.710782 0
M  V30 3436 H 319.847 -0.633915 -1.84937 0
M  V30 3437 H 318.551 -0.670942 -4.04878 0
M  V30 3438 H 318.082 1.01811 -3.79997 0
M  V30 3439 H 320.097 2.05849 -4.51487 0
M  V30 3440 N 319.27 1.56325 -0.20005 0
M  V30 3441 C 320.547 1.89484 0.48529 0
M  V30 3442 C 320.927 1.1143 1.79294 0
M  V30 3443 O 320.275 0.216919 2.27468 0
M  V30 3444 C 320.485 3.41923 0.699243 0
M  V30 3445 C 321.833 4.12256 1.01638 0
M  V30 3446 O 322.857 3.47402 0.786792 0
M  V30 3447 O 321.716 5.26887 1.45095 0
M  V30 3448 H 318.81 0.787144 0.253639 0
M  V30 3449 H 321.356 1.67985 -0.240633 0
M  V30 3450 H 320.128 3.90658 -0.224008 0
M  V30 3451 H 319.751 3.69131 1.47744 0
M  V30 3452 N 320.748 -0.0735177 1.57428 0
M  V30 3453 C 321.996 -0.771472 1.86796 0
M  V30 3454 C 322.317 -1.78201 0.791804 0
M  V30 3455 O 321.587 -1.95074 -0.179718 0
M  V30 3456 H 320.167 -0.28791 0.689287 0
M  V30 3457 H 322.829 -0.0500161 1.94836 0
M  V30 3458 H 321.925 -1.28874 2.8425 0
M  V30 3459 N 322.226 -1.5378 -0.344866 0
M  V30 3460 C 323.472 -1.71216 -1.08687 0
M  V30 3461 C 323.805 -0.473281 -1.88345 0
M  V30 3462 O 323.08 0.52968 -1.87149 0
M  V30 3463 C 323.363 -2.97486 -2.02914 0
M  V30 3464 C 323.216 -4.31579 -1.26727 0
M  V30 3465 C 324.535 -3.19422 -3.0275 0
M  V30 3466 H 321.654 -0.62301 -0.393735 0
M  V30 3467 H 324.296 -1.8645 -0.365563 0
M  V30 3468 H 322.446 -2.84629 -2.64421 0
M  V30 3469 H 324.118 -4.56284 -0.67845 0
M  V30 3470 H 322.361 -4.30049 -0.569273 0
M  V30 3471 H 323.032 -5.16106 -1.95803 0
M  V30 3472 H 325.508 -3.316 -2.51357 0
M  V30 3473 H 324.384 -4.09169 -3.65885 0
M  V30 3474 H 324.645 -2.35656 -3.74057 0
M  V30 3475 N 323.704 0.605807 -1.45491 0
M  V30 3476 C 324.951 1.36476 -1.49601 0
M  V30 3477 C 325.279 1.94007 -0.138452 0
M  V30 3478 O 324.534 1.75638 0.863114 0
M  V30 3479 C 324.833 2.53012 -2.52428 0
M  V30 3480 C 324.499 2.13617 -3.97087 0
M  V30 3481 C 323.161 2.02587 -4.36477 0
M  V30 3482 C 325.513 1.82899 -4.88055 0
M  V30 3483 C 322.841 1.59064 -5.64726 0
M  V30 3484 C 325.193 1.40861 -6.16718 0
M  V30 3485 C 323.857 1.28391 -6.55036 0
M  V30 3486 H 323.127 0.499402 -0.547429 0
M  V30 3487 H 325.774 0.684546 -1.78847 0
M  V30 3488 H 324.079 3.26379 -2.16758 0
M  V30 3489 H 325.776 3.1124 -2.52845 0
M  V30 3490 H 322.366 2.23129 -3.65939 0
M  V30 3491 H 326.55 1.90317 -4.58359 0
M  V30 3492 H 321.806 1.48034 -5.93208 0
M  V30 3493 H 325.98 1.16138 -6.86648 0
M  V30 3494 H 323.607 0.944403 -7.54311 0
M  V30 3495 N 325.182 1.32811 0.848464 0
M  V30 3496 C 326.115 1.16601 1.96162 0
M  V30 3497 C 327.093 0.0638855 1.62474 0
M  V30 3498 O 328.277 0.224348 1.8716 0
M  V30 3499 C 325.404 0.786333 3.29446 0
M  V30 3500 C 324.45 1.89459 3.8211 0
M  V30 3501 S 325.283 3.50395 4.04949 0
M  V30 3502 C 326.439 3.14413 5.41198 0
M  V30 3503 H 326.672 2.10832 2.09612 0
M  V30 3504 H 324.205 1.17543 1.00115 0
M  V30 3505 H 326.163 0.574044 4.06466 0
M  V30 3506 H 324.824 -0.137218 3.138 0
M  V30 3507 H 324.017 1.58207 4.78526 0
M  V30 3508 H 323.619 2.06304 3.11953 0
M  V30 3509 H 325.911 2.64642 6.23675 0
M  V30 3510 H 326.854 4.09874 5.77416 0
M  V30 3511 H 327.262 2.51266 5.05495 0
M  V30 3512 N 326.66 -1.06551 1.16123 0
M  V30 3513 C 327.57 -2.17484 0.879662 0
M  V30 3514 C 328.586 -1.73377 -0.147104 0
M  V30 3515 O 329.762 -2.01379 0.0289128 0
M  V30 3516 C 326.827 -3.44591 0.381829 0
M  V30 3517 C 325.888 -4.0322 1.4735 0
M  V30 3518 C 325.121 -5.24261 0.999324 0
M  V30 3519 O 325.344 -5.70198 -0.151957 0
M  V30 3520 O 324.278 -5.74775 1.78653 0
M  V30 3521 H 328.104 -2.44075 1.80724 0
M  V30 3522 H 325.689 -1.16042 0.940992 0
M  V30 3523 H 327.571 -4.21254 0.111053 0
M  V30 3524 H 326.246 -3.19532 -0.51777 0
M  V30 3525 H 325.153 -3.2806 1.79798 0
M  V30 3526 H 326.486 -4.32568 2.34831 0
M  V30 3527 N 328.138 -0.959301 -1.25041 0
M  V30 3528 C 329.366 -0.633949 -1.96948 0
M  V30 3529 C 329.781 0.794916 -1.7125 0
M  V30 3530 O 329.138 1.53231 -0.991287 0
M  V30 3531 C 329.189 -0.888805 -3.50403 0
M  V30 3532 O 328.91 -2.26149 -3.75218 0
M  V30 3533 C 330.411 -0.576482 -4.39536 0
M  V30 3534 H 327.631 -0.237263 -0.627652 0
M  V30 3535 H 330.175 -1.28495 -1.59089 0
M  V30 3536 H 328.33 -0.284145 -3.86357 0
M  V30 3537 H 328.744 -2.33514 -4.6965 0
M  V30 3538 H 330.218 -0.805314 -5.46094 0
M  V30 3539 H 330.695 0.489075 -4.36468 0
M  V30 3540 H 331.301 -1.16067 -4.09156 0
M  V30 3541 N 329.616 1.39756 -0.72842 0
M  V30 3542 C 330.566 2.2792 -0.0603424 0
M  V30 3543 C 331.55 1.43922 0.719399 0
M  V30 3544 O 332.742 1.66895 0.589489 0
M  V30 3545 C 329.871 3.32582 0.851104 0
M  V30 3546 C 328.957 4.24049 0.0658641 0
M  V30 3547 N 329.348 4.96653 -0.957578 0
M  V30 3548 C 327.646 4.45013 0.296509 0
M  V30 3549 C 328.347 5.63836 -1.43052 0
M  V30 3550 N 327.323 5.38397 -0.750315 0
M  V30 3551 H 331.125 2.81504 -0.84455 0
M  V30 3552 H 328.639 1.5236 -0.562155 0
M  V30 3553 H 330.636 3.94603 1.34514 0
M  V30 3554 H 329.296 2.80558 1.63454 0
M  V30 3555 H 330.307 5.00297 -1.33877 0
M  V30 3556 H 326.984 4.03943 1.05527 0
M  V30 3557 H 328.374 6.31974 -2.28163 0
M  V30 3558 N 331.094 0.475555 1.50254 0
M  V30 3559 C 332.505 0.0215174 1.86688 0
M  V30 3560 C 332.856 -1.38467 1.39001 0
M  V30 3561 O 331.981 -2.02732 0.756894 0
M  V30 3562 C 332.576 0.0322715 3.38785 0
M  V30 3563 C 331.135 -0.366314 3.74613 0
M  V30 3564 C 330.282 0.415832 2.74164 0
M  V30 3565 H 333.233 0.689612 1.42934 0
M  V30 3566 H 333.254 -0.76889 3.7265 0
M  V30 3567 H 332.766 1.05584 3.73462 0
M  V30 3568 H 330.867 -1.39406 3.45538 0
M  V30 3569 H 330.98 -0.064555 4.79057 0
M  V30 3570 H 329.344 -0.131048 2.54363 0
M  V30 3571 H 330.127 1.43899 3.11686 0
M  V30 3572 N 332.573 -1.56217 0.208337 0
M  V30 3573 C 333.483 -2.23316 -0.718836 0
M  V30 3574 C 334.499 -1.23648 -1.22422 0
M  V30 3575 O 335.675 -1.56423 -1.26861 0
M  V30 3576 C 332.74 -2.88968 -1.91568 0
M  V30 3577 C 331.801 -4.03943 -1.45357 0
M  V30 3578 C 331.034 -4.66455 -2.59337 0
M  V30 3579 O 331.257 -4.27919 -3.77149 0
M  V30 3580 O 330.191 -5.55686 -2.31293 0
M  V30 3581 H 334.017 -3.03182 -0.177315 0
M  V30 3582 H 331.602 -1.49384 -0.0215402 0
M  V30 3583 H 333.484 -3.30455 -2.61491 0
M  V30 3584 H 332.159 -2.12071 -2.44556 0
M  V30 3585 H 331.066 -3.67052 -0.722746 0
M  V30 3586 H 332.399 -4.82543 -0.970219 0
M  V30 3587 N 334.051 0.0651679 -1.57465 0
M  V30 3588 C 335.462 0.616213 -1.76238 0
M  V30 3589 C 335.813 1.7756 -0.834689 0
M  V30 3590 O 334.938 2.1639 -0.0204156 0
M  V30 3591 C 335.533 1.12462 -3.1959 0
M  V30 3592 C 334.092 1.62147 -3.39684 0
M  V30 3593 C 333.239 0.543739 -2.71917 0
M  V30 3594 H 336.19 -0.161022 -1.57881 0
M  V30 3595 H 336.211 1.99324 -3.24114 0
M  V30 3596 H 335.723 0.280592 -3.87084 0
M  V30 3597 H 333.824 2.48854 -2.77313 0
M  V30 3598 H 333.937 1.69385 -4.48158 0
M  V30 3599 H 332.301 0.990352 -2.34657 0
M  V30 3600 H 333.084 -0.290216 -3.42071 0
M  V30 3601 N 335.529 1.53961 0.336706 0
M  V30 3602 C 336.439 1.85432 1.43708 0
M  V30 3603 C 337.455 0.745053 1.57242 0
M  V30 3604 O 338.631 1.03804 1.72588 0
M  V30 3605 C 335.696 2.06349 2.78605 0
M  V30 3606 C 334.757 3.30191 2.74358 0
M  V30 3607 C 333.99 3.50101 4.02822 0
M  V30 3608 O 334.213 2.7371 5.00439 0
M  V30 3609 O 333.147 4.43547 4.06878 0
M  V30 3610 H 336.973 2.78975 1.20028 0
M  V30 3611 H 334.558 1.39701 0.52952 0
M  V30 3612 H 336.44 2.21513 3.58483 0
M  V30 3613 H 335.115 1.15995 3.02203 0
M  V30 3614 H 334.022 3.20425 1.93078 0
M  V30 3615 H 335.355 4.2056 2.55715 0
M  V30 3616 N 337.007 -0.598083 1.45811 0
M  V30 3617 C 337.954 -1.7082 1.55207 0
M  V30 3618 C 338.924 -1.61278 0.39732 0
M  V30 3619 O 340.109 -1.80717 0.612038 0
M  V30 3620 C 337.249 -3.09144 1.53376 0
M  V30 3621 C 336.362 -3.29423 2.79472 0
M  V30 3622 C 335.497 -4.57907 2.69248 0
M  V30 3623 C 334.536 -4.71476 3.90354 0
M  V30 3624 N 333.673 -5.9127 3.78608 0
M  V30 3625 H 338.513 -1.62125 2.50039 0
M  V30 3626 H 336.05 -0.790389 1.24062 0
M  V30 3627 H 338.008 -3.89186 1.50301 0
M  V30 3628 H 336.638 -3.16773 0.620876 0
M  V30 3629 H 335.69 -2.43091 2.92594 0
M  V30 3630 H 337.002 -3.3532 3.69272 0
M  V30 3631 H 336.156 -5.46157 2.64192 0
M  V30 3632 H 334.895 -4.54423 1.77063 0
M  V30 3633 H 333.9 -3.81648 3.95759 0
M  V30 3634 H 335.125 -4.76751 4.83617 0
M  V30 3635 H 333.071 -5.88813 2.89199 0
M  V30 3636 H 332.988 -5.98369 4.6205 0
M  V30 3637 H 334.256 -6.81992 3.77501 0
M  V30 3638 N 338.485 -1.33259 -0.841409 0
M  V30 3639 C 339.448 -1.23221 -1.9326 0
M  V30 3640 C 340.448 -0.151895 -1.60081 0
M  V30 3641 O 341.638 -0.403246 -1.69468 0
M  V30 3642 C 338.77 -0.898123 -3.28856 0
M  V30 3643 H 339.963 -2.2021 -2.03587 0
M  V30 3644 H 337.516 -1.17281 -1.03319 0
M  V30 3645 H 338.251 0.0693841 -3.24226 0
M  V30 3646 H 338.036 -1.67934 -3.54317 0
M  V30 3647 H 339.526 -0.852563 -4.08805 0
M  V30 3648 N 339.963 1.05934 -1.16686 0
M  V30 3649 C 340.893 2.1546 -0.899949 0
M  V30 3650 C 341.874 1.69391 0.155154 0
M  V30 3651 O 343.059 1.94199 0.00648693 0
M  V30 3652 C 340.189 3.44939 -0.404241 0
M  V30 3653 C 339.143 4.04536 -1.39767 0
M  V30 3654 C 338.469 5.29268 -0.760216 0
M  V30 3655 C 339.769 4.42893 -2.76845 0
M  V30 3656 H 341.463 2.38046 -1.81588 0
M  V30 3657 H 339.009 1.14404 -0.874514 0
M  V30 3658 H 340.962 4.20901 -0.204971 0
M  V30 3659 H 339.686 3.21983 0.547206 0
M  V30 3660 H 338.345 3.30635 -1.58355 0
M  V30 3661 H 337.993 5.02611 0.197831 0
M  V30 3662 H 337.693 5.70101 -1.42332 0
M  V30 3663 H 339.217 6.07924 -0.57105 0
M  V30 3664 H 340.631 5.09921 -2.62019 0
M  V30 3665 H 339.028 4.94721 -3.39663 0
M  V30 3666 H 340.098 3.53584 -3.31823 0
M  V30 3667 N 341.441 0.965919 1.2453 0
M  V30 3668 C 342.666 0.643971 1.97149 0
M  V30 3669 C 343.091 -0.779487 1.71189 0
M  V30 3670 O 342.449 -1.5288 0.974553 0
M  V30 3671 C 342.497 0.922557 3.48599 0
M  V30 3672 O 341.601 0.00707672 4.12399 0
M  V30 3673 H 340.942 0.243647 0.617683 0
M  V30 3674 H 343.472 1.29558 1.58353 0
M  V30 3675 H 343.482 0.853373 3.98976 0
M  V30 3676 H 342.157 1.95996 3.66822 0
M  V30 3677 H 340.734 0.12943 3.72675 0
M  V30 3678 N 342.919 -1.39368 0.735821 0
M  V30 3679 C 344.196 -1.94465 0.210395 0
M  V30 3680 C 344.576 -1.67254 -1.28799 0
M  V30 3681 O 343.924 -1.00123 -2.05396 0
M  V30 3682 C 344.134 -3.4472 0.544897 0
M  V30 3683 C 345.482 -4.21708 0.494689 0
M  V30 3684 O 346.506 -3.52922 0.482136 0
M  V30 3685 O 345.365 -5.44299 0.489947 0
M  V30 3686 H 342.459 -0.826096 0.0386666 0
M  V30 3687 H 345.005 -1.48863 0.814735 0
M  V30 3688 H 343.777 -3.57963 1.58045 0
M  V30 3689 H 343.4 -3.97502 -0.08837 0
M  V30 3690 N 344.397 -0.483516 -1.5 0
M  V30 3691 C 345.36 0.292965 -2.2732 0
M  V30 3692 C 346.36 0.909499 -1.32608 0
M  V30 3693 O 347.55 0.776745 -1.55924 0
M  V30 3694 C 344.682 1.41854 -3.09984 0
M  V30 3695 H 345.875 -0.385289 -2.97415 0
M  V30 3696 H 343.428 -0.237942 -1.54478 0
M  V30 3697 H 344.163 2.13148 -2.44414 0
M  V30 3698 H 343.948 0.982114 -3.79601 0
M  V30 3699 H 345.438 1.96597 -3.68429 0
M  V30 3700 N 345.875 1.56104 -0.216619 0
M  V30 3701 C 347.1 2.0301 0.424462 0
M  V30 3702 C 347.525 1.0955 1.52907 0
M  V30 3703 O 346.883 0.0827914 1.81111 0
M  V30 3704 C 346.931 3.4819 0.937883 0
M  V30 3705 O 346.035 3.57865 2.04955 0
M  V30 3706 H 345.376 0.656925 0.0966755 0
M  V30 3707 H 347.906 2.01859 -0.33381 0
M  V30 3708 H 347.916 3.88413 1.24897 0
M  V30 3709 H 346.591 4.15699 0.129387 0
M  V30 3710 H 345.168 3.29527 1.74546 0
M  V30 3711 N 347.353 -0.0568162 1.57498 0
M  V30 3712 C 348.581 -0.765626 1.92213 0
M  V30 3713 C 348.996 -1.70353 0.813961 0
M  V30 3714 O 348.353 -1.81268 -0.211701 0
M  V30 3715 C 348.404 -1.5465 3.2675 0
M  V30 3716 O 348.125 -0.646278 4.33307 0
M  V30 3717 C 349.626 -2.35497 3.75574 0
M  V30 3718 H 346.846 -0.216835 0.634999 0
M  V30 3719 H 349.39 -0.0226146 2.04487 0
M  V30 3720 H 347.545 -2.24165 3.15957 0
M  V30 3721 H 347.959 -1.19093 5.108 0
M  V30 3722 H 349.433 -2.85722 4.72299 0
M  V30 3723 H 349.91 -3.15692 3.05344 0
M  V30 3724 H 350.516 -1.7111 3.8936 0
M  V30 3725 N 348.832 -1.54138 -0.328536 0
M  V30 3726 C 349.764 -1.79509 -1.4251 0
M  V30 3727 C 350.777 -0.67688 -1.48061 0
M  V30 3728 O 351.966 -0.953898 -1.50874 0
M  V30 3729 C 349.066 -1.89337 -2.81078 0
M  V30 3730 C 348.239 -3.19443 -2.98789 0
M  V30 3731 C 347.298 -3.20036 -4.17688 0
M  V30 3732 O 346.324 -3.93697 -4.11086 0
M  V30 3733 N 347.526 -2.43467 -5.26976 0
M  V30 3734 H 350.291 -2.74139 -1.21111 0
M  V30 3735 H 347.852 -1.53373 -0.518499 0
M  V30 3736 H 349.844 -1.87167 -3.58818 0
M  V30 3737 H 348.414 -1.01826 -2.95551 0
M  V30 3738 H 347.634 -3.34614 -2.08391 0
M  V30 3739 H 348.922 -4.05354 -3.07515 0
M  V30 3740 H 348.32 -1.83201 -5.35214 0
M  V30 3741 H 346.877 -2.4708 -6.03154 0
M  V30 3742 N 350.31 0.590341 -1.46126 0
M  V30 3743 C 351.24 1.71032 -1.58966 0
M  V30 3744 C 352.221 1.64302 -0.440335 0
M  V30 3745 O 353.406 1.82436 -0.665634 0
M  V30 3746 C 350.536 3.09665 -1.57241 0
M  V30 3747 C 349.49 3.31221 -2.71066 0
M  V30 3748 C 348.816 4.70303 -2.54399 0
M  V30 3749 C 350.116 3.19796 -4.1295 0
M  V30 3750 H 351.81 1.60543 -2.52718 0
M  V30 3751 H 349.356 0.770933 -1.21625 0
M  V30 3752 H 351.309 3.87831 -1.64819 0
M  V30 3753 H 350.033 3.21036 -0.600289 0
M  V30 3754 H 348.692 2.55452 -2.62944 0
M  V30 3755 H 348.34 4.78429 -1.55288 0
M  V30 3756 H 348.04 4.85679 -3.30741 0
M  V30 3757 H 349.564 5.50647 -2.63857 0
M  V30 3758 H 350.978 3.87815 -4.22223 0
M  V30 3759 H 349.375 3.46696 -4.89818 0
M  V30 3760 H 350.445 2.16983 -4.33643 0
M  V30 3761 N 351.788 1.33704 0.83433 0
M  V30 3762 C 353.199 1.22813 1.4062 0
M  V30 3763 C 353.55 -0.151107 1.95617 0
M  V30 3764 O 352.675 -1.05092 1.89168 0
M  V30 3765 C 353.27 2.22355 2.55624 0
M  V30 3766 C 351.829 2.1529 3.08751 0
M  V30 3767 C 350.976 2.09589 1.8157 0
M  V30 3768 H 353.927 1.45236 0.639702 0
M  V30 3769 H 353.948 1.83391 3.33389 0
M  V30 3770 H 353.46 3.22728 2.15566 0
M  V30 3771 H 351.561 1.18235 3.53343 0
M  V30 3772 H 351.674 3.06038 3.68616 0
M  V30 3773 H 350.038 1.55134 2.02004 0
M  V30 3774 H 350.821 3.11777 1.43701 0
M  V30 3775 N 353.266 -1.05314 1.17247 0
M  V30 3776 C 354.196 -2.1498 0.911362 0
M  V30 3777 C 355.177 -1.69471 -0.146169 0
M  V30 3778 O 356.362 -1.942 0.003812 0
M  V30 3779 C 353.492 -3.4472 0.422528 0
M  V30 3780 C 352.446 -4.03789 1.4191 0
M  V30 3781 C 351.772 -5.28858 0.788274 0
M  V30 3782 C 353.072 -4.41418 2.7919 0
M  V30 3783 H 354.766 -2.3708 1.82848 0
M  V30 3784 H 352.312 -1.13938 0.880569 0
M  V30 3785 H 354.265 -4.20787 0.227289 0
M  V30 3786 H 352.989 -3.22269 -0.530123 0
M  V30 3787 H 351.648 -3.2979 1.60106 0
M  V30 3788 H 351.296 -5.02709 -0.171173 0
M  V30 3789 H 350.996 -5.69338 1.45353 0
M  V30 3790 H 352.52 -6.07612 0.603282 0
M  V30 3791 H 353.934 -5.08524 2.64719 0
M  V30 3792 H 352.331 -4.92913 3.42282 0
M  V30 3793 H 353.401 -3.51819 3.33693 0
M  V30 3794 N 354.744 -0.972509 -1.24016 0
M  V30 3795 C 355.969 -0.654417 -1.96805 0
M  V30 3796 C 356.394 0.770398 -1.716 0
M  V30 3797 O 355.752 1.52361 -0.982647 0
M  V30 3798 C 355.8 -0.941031 -3.48105 0
M  V30 3799 O 354.904 -0.0289472 -4.1239 0
M  V30 3800 H 354.245 -0.24692 -0.616382 0
M  V30 3801 H 356.775 -1.30396 -1.57664 0
M  V30 3802 H 356.785 -0.87452 -3.98517 0
M  V30 3803 H 355.46 -1.97939 -3.65777 0
M  V30 3804 H 354.037 -0.149192 -3.72601 0
M  V30 3805 N 356.222 1.38976 -0.743202 0
M  V30 3806 C 357.154 2.29096 -0.0689228 0
M  V30 3807 C 358.167 1.47229 0.694791 0
M  V30 3808 O 359.356 1.70212 0.537597 0
M  V30 3809 C 356.456 3.25988 0.926548 0
M  V30 3810 C 355.629 4.36833 0.222647 0
M  V30 3811 C 354.688 5.13981 1.12739 0
M  V30 3812 O 353.714 5.6601 0.601795 0
M  V30 3813 N 354.916 5.25966 2.45641 0
M  V30 3814 H 357.681 2.87604 -0.842846 0
M  V30 3815 H 355.242 1.50645 -0.593109 0
M  V30 3816 H 357.234 3.74476 1.5346 0
M  V30 3817 H 355.804 2.68453 1.60162 0
M  V30 3818 H 355.024 3.90116 -0.565983 0
M  V30 3819 H 356.312 5.0811 -0.264841 0
M  V30 3820 H 355.71 4.85228 2.9081 0
M  V30 3821 H 354.267 5.77865 3.01522 0
M  V30 3822 N 357.7 0.491464 1.49741 0
M  V30 3823 C 358.63 -0.28154 2.31796 0
M  V30 3824 C 359.611 -0.971473 1.3963 0
M  V30 3825 O 360.796 -0.964719 1.68543 0
M  V30 3826 C 357.926 -1.35203 3.19902 0
M  V30 3827 C 356.88 -0.782529 4.20786 0
M  V30 3828 C 356.206 -1.95283 4.97764 0
M  V30 3829 C 357.506 0.21999 5.21837 0
M  V30 3830 H 359.2 0.403355 2.96671 0
M  V30 3831 H 356.746 0.195425 1.42668 0
M  V30 3832 H 358.699 -1.90045 3.76113 0
M  V30 3833 H 357.423 -2.06598 2.52953 0
M  V30 3834 H 356.082 -0.255928 3.65706 0
M  V30 3835 H 355.73 -2.65423 4.2727 0
M  V30 3836 H 355.43 -1.57789 5.66018 0
M  V30 3837 H 356.954 -2.50577 5.56816 0
M  V30 3838 H 358.368 -0.23996 5.72798 0
M  V30 3839 H 356.765 0.51026 5.97927 0
M  V30 3840 H 357.835 1.13911 4.7133 0
M  V30 3841 N 359.178 -1.55987 0.224894 0
M  V30 3842 C 360.088 -2.24066 -0.69511 0
M  V30 3843 C 361.104 -1.24939 -1.21104 0
M  V30 3844 O 362.28 -1.5776 -1.25195 0
M  V30 3845 C 359.345 -2.90983 -1.88493 0
M  V30 3846 C 358.406 -4.05462 -1.41064 0
M  V30 3847 C 357.639 -4.69179 -2.54375 0
M  V30 3848 O 357.862 -4.31895 -3.72589 0
M  V30 3849 O 356.796 -5.58108 -2.25386 0
M  V30 3850 H 360.622 -3.03353 -0.145149 0
M  V30 3851 H 358.207 -1.49399 -0.00569476 0
M  V30 3852 H 360.089 -3.33209 -2.57972 0
M  V30 3853 H 358.764 -2.14653 -2.42293 0
M  V30 3854 H 357.671 -3.67798 -0.683774 0
M  V30 3855 H 359.004 -4.83545 -0.918985 0
M  V30 3856 N 360.656 0.0484629 -1.57525 0
M  V30 3857 C 361.904 0.741657 -1.88 0
M  V30 3858 C 362.225 1.76918 -0.820054 0
M  V30 3859 O 361.495 1.95335 0.148661 0
M  V30 3860 H 360.075 0.276908 -0.69378 0
M  V30 3861 H 362.737 0.019013 -1.94891 0
M  V30 3862 H 361.833 1.24336 -2.86264 0
M  V30 3863 N 362.134 1.5431 0.320358 0
M  V30 3864 C 363.383 1.7188 1.05546 0
M  V30 3865 C 363.696 0.501143 1.89071 0
M  V30 3866 O 364.902 0.558258 2.65699 0
M  V30 3867 C 363.358 3.04025 1.92605 0
M  V30 3868 C 362.966 4.33207 1.14176 0
M  V30 3869 C 364.71 3.30959 2.65832 0
M  V30 3870 C 362.617 5.56412 2.00399 0
M  V30 3871 H 361.547 0.640547 0.397763 0
M  V30 3872 H 364.198 1.80802 0.313522 0
M  V30 3873 H 362.58 2.89019 2.7071 0
M  V30 3874 H 363.754 4.58989 0.40819 0
M  V30 3875 H 362.069 4.13062 0.526165 0
M  V30 3876 H 364.666 4.20203 3.30656 0
M  V30 3877 H 365.009 2.48979 3.33639 0
M  V30 3878 H 365.542 3.46847 1.94787 0
M  V30 3879 H 362.281 6.41004 1.37094 0
M  V30 3880 H 361.801 5.34844 2.7148 0
M  V30 3881 H 363.48 5.92938 2.58908 0
M  V30 3882 N 363.613 -0.582584 1.46437 0
M  V30 3883 C 364.862 -1.337 1.5102 0
M  V30 3884 C 365.175 -1.94891 0.166359 0
M  V30 3885 O 366.381 -2.71351 0.0899954 0
M  V30 3886 C 364.837 -2.42315 2.66104 0
M  V30 3887 C 364.445 -1.87427 4.06909 0
M  V30 3888 C 366.189 -3.19099 2.79958 0
M  V30 3889 C 364.096 -2.93672 5.13333 0
M  V30 3890 H 363.026 -0.502619 0.562041 0
M  V30 3891 H 365.677 -0.621701 1.72647 0
M  V30 3892 H 364.059 -3.16645 2.37807 0
M  V30 3893 H 365.233 -1.19639 4.44998 0
M  V30 3894 H 363.548 -1.2331 3.97723 0
M  V30 3895 H 366.145 -3.9839 3.56636 0
M  V30 3896 H 366.488 -3.71695 1.87479 0
M  V30 3897 H 367.021 -2.51875 3.07902 0
M  V30 3898 H 363.76 -2.45962 6.07604 0
M  V30 3899 H 363.28 -3.59948 4.79789 0
M  V30 3900 H 364.959 -3.5762 5.39182 0
M  V30 3901 N 365.091 -1.34144 -0.827227 0
M  V30 3902 C 366.001 -1.27428 -1.96975 0
M  V30 3903 C 367.017 -0.182728 -1.73038 0
M  V30 3904 O 368.193 -0.408426 -1.97215 0
M  V30 3905 C 365.258 -1.02526 -3.31194 0
M  V30 3906 C 364.319 -2.20796 -3.68168 0
M  V30 3907 C 363.552 -1.97073 -4.95982 0
M  V30 3908 O 363.775 -0.926822 -5.6282 0
M  V30 3909 O 362.709 -2.83912 -5.30733 0
M  V30 3910 H 366.535 -2.23537 -2.05584 0
M  V30 3911 H 364.12 -1.14307 -0.961989 0
M  V30 3912 H 366.002 -0.904026 -4.11589 0
M  V30 3913 H 364.677 -0.0945389 -3.23562 0
M  V30 3914 H 363.584 -2.38477 -2.88235 0
M  V30 3915 H 364.917 -3.12243 -3.8048 0
M  V30 3916 N 366.569 1.04691 -1.17803 0
M  V30 3917 C 367.532 2.10724 -0.901545 0
M  V30 3918 C 368.532 1.6042 0.110437 0
M  V30 3919 O 369.722 1.7377 -0.122303 0
M  V30 3920 C 366.854 3.39084 -0.351409 0
M  V30 3921 H 368.047 2.36686 -1.84174 0
M  V30 3922 H 365.6 1.21015 -0.98919 0
M  V30 3923 H 366.335 3.18782 0.59569 0
M  V30 3924 H 366.12 3.76909 -1.08083 0
M  V30 3925 H 367.61 4.17227 -0.176451 0
M  V30 3926 N 368.047 0.979072 1.23499 0
M  V30 3927 C 369.296 0.642751 1.91185 0
M  V30 3928 C 369.609 -0.827253 1.77245 0
M  V30 3929 O 370.815 -1.27458 2.39722 0
M  V30 3930 C 369.271 1.09901 3.42709 0
M  V30 3931 C 368.879 2.59327 3.65313 0
M  V30 3932 C 370.623 0.836371 4.16179 0
M  V30 3933 C 368.53 2.98627 5.10467 0
M  V30 3934 H 367.46 0.236698 0.715884 0
M  V30 3935 H 370.111 1.1868 1.39955 0
M  V30 3936 H 368.493 0.48319 3.93041 0
M  V30 3937 H 369.667 3.26136 3.25533 0
M  V30 3938 H 367.982 2.83323 3.05151 0
M  V30 3939 H 370.579 1.10586 5.23139 0
M  V30 3940 H 370.922 -0.227509 4.15678 0
M  V30 3941 H 371.455 1.41371 3.71832 0
M  V30 3942 H 368.194 4.04133 5.16098 0
M  V30 3943 H 367.714 2.3651 5.51201 0
M  V30 3944 H 369.393 2.89159 5.78788 0
M  V30 3945 N 369.525 -1.3858 0.750561 0
M  V30 3946 C 370.455 -2.33102 0.136237 0
M  V30 3947 C 371.436 -1.54713 -0.706965 0
M  V30 3948 O 372.621 -1.83043 -0.648769 0
M  V30 3949 C 369.751 -3.38882 -0.760017 0
M  V30 3950 C 368.705 -4.27995 -0.0197785 0
M  V30 3951 C 368.031 -5.24605 -1.03408 0
M  V30 3952 C 369.331 -5.09554 1.14684 0
M  V30 3953 H 371.025 -2.84726 0.925822 0
M  V30 3954 H 368.571 -1.36898 0.446654 0
M  V30 3955 H 370.524 -4.0397 -1.19943 0
M  V30 3956 H 369.248 -2.85734 -1.58189 0
M  V30 3957 H 367.907 -3.64409 0.400184 0
M  V30 3958 H 367.555 -4.67746 -1.84994 0
M  V30 3959 H 367.255 -5.85081 -0.543464 0
M  V30 3960 H 368.779 -5.9257 -1.47288 0
M  V30 3961 H 370.193 -5.67899 0.785118 0
M  V30 3962 H 368.59 -5.7925 1.56812 0
M  V30 3963 H 369.66 -4.4347 1.96118 0
M  V30 3964 N 371.003 -0.499398 -1.49478 0
M  V30 3965 C 371.913 0.284489 -2.32869 0
M  V30 3966 C 372.929 0.968885 -1.44529 0
M  V30 3967 O 374.105 0.95062 -1.77553 0
M  V30 3968 C 371.17 1.33594 -3.19928 0
M  V30 3969 C 370.231 0.665149 -4.24116 0
M  V30 3970 C 369.464 1.6665 -5.07014 0
M  V30 3971 O 369.687 2.89618 -4.91404 0
M  V30 3972 O 368.621 1.22271 -5.8935 0
M  V30 3973 H 372.447 -0.39802 -3.01081 0
M  V30 3974 H 370.032 -0.260758 -1.47107 0
M  V30 3975 H 371.914 1.94431 -3.73864 0
M  V30 3976 H 370.589 2.0014 -2.54412 0
M  V30 3977 H 369.496 0.0170769 -3.74096 0
M  V30 3978 H 370.829 0.0421555 -4.92182 0
M  V30 3979 N 372.481 1.55866 -0.233164 0
M  V30 3980 C 373.73 1.97779 0.39579 0
M  V30 3981 C 374.043 1.12419 1.60066 0
M  V30 3982 O 375.249 1.44283 2.29988 0
M  V30 3983 C 373.705 3.5188 0.755556 0
M  V30 3984 C 373.313 4.45959 -0.427152 0
M  V30 3985 C 375.057 4.02479 1.34946 0
M  V30 3986 C 372.964 5.91383 -0.0443043 0
M  V30 3987 H 371.894 0.738592 0.15165 0
M  V30 3988 H 374.545 1.80486 -0.331212 0
M  V30 3989 H 372.927 3.64816 1.5403 0
M  V30 3990 H 374.101 4.44776 -1.20462 0
M  V30 3991 H 372.416 4.05765 -0.935068 0
M  V30 3992 H 375.013 5.08637 1.649 0
M  V30 3993 H 375.356 3.49014 2.26925 0
M  V30 3994 H 375.889 3.92813 0.62791 0
M  V30 3995 H 372.628 6.48857 -0.930874 0
M  V30 3996 H 372.148 5.95734 0.697238 0
M  V30 3997 H 373.827 6.45893 0.378334 0
M  V30 3998 N 373.959 -0.0401083 1.57549 0
M  V30 3999 C 375.375 -0.395556 1.54621 0
M  V30 4000 C 375.575 -1.77281 0.957799 0
M  V30 4001 O 374.631 -2.45888 0.574031 0
M  V30 4002 C 375.944 -0.307535 2.99123 0
M  V30 4003 C 377.492 -0.385425 3.10618 0
M  V30 4004 C 377.967 -0.326973 4.56831 0
M  V30 4005 N 379.458 -0.386102 4.61588 0
M  V30 4006 C 380.193 -0.363591 5.72246 0
M  V30 4007 N 379.689 -0.29402 6.92176 0
M  V30 4008 N 381.482 -0.412503 5.60584 0
M  V30 4009 H 373.633 0.861325 1.94152 0
M  V30 4010 H 375.896 0.326445 0.890021 0
M  V30 4011 H 375.602 0.638461 3.45856 0
M  V30 4012 H 375.476 -1.10552 3.60636 0
M  V30 4013 H 377.863 -1.32185 2.63839 0
M  V30 4014 H 377.944 0.44171 2.51957 0
M  V30 4015 H 377.588 0.605738 5.04275 0
M  V30 4016 H 377.518 -1.17207 5.13391 0
M  V30 4017 H 380.009 -0.442832 3.75296 0
M  V30 4018 H 380.322 -0.28164 7.72287 0
M  V30 4019 H 378.667 -0.260232 6.94513 0
M  V30 4020 H 381.858 -0.464769 4.65787 0
M  V30 4021 H 382.031 -0.391492 6.46816 0
M  V30 4022 N 375.437 -1.54477 -0.31217 0
M  V30 4023 C 376.347 -1.87695 -1.4074 0
M  V30 4024 C 377.363 -0.769975 -1.56036 0
M  V30 4025 O 378.539 -1.06537 -1.70915 0
M  V30 4026 C 375.604 -2.10755 -2.75287 0
M  V30 4027 C 374.665 -3.34514 -2.69071 0
M  V30 4028 C 373.898 -3.56465 -3.97201 0
M  V30 4029 O 374.121 -2.81637 -4.96021 0
M  V30 4030 O 373.055 -4.49964 -3.9977 0
M  V30 4031 H 376.881 -2.80849 -1.15574 0
M  V30 4032 H 374.466 -1.40526 -0.507228 0
M  V30 4033 H 376.348 -2.27188 -3.54913 0
M  V30 4034 H 375.023 -1.20788 -3.0032 0
M  V30 4035 H 373.93 -3.23456 -1.87955 0
M  V30 4036 H 375.263 -4.24575 -2.48992 0
M  V30 4037 N 376.915 0.57481 -1.46744 0
M  V30 4038 C 378.161 1.3347 -1.52688 0
M  V30 4039 C 378.494 1.93353 -0.181229 0
M  V30 4040 O 377.769 1.76912 0.808237 0
M  V30 4041 C 378.052 2.45811 -2.63152 0
M  V30 4042 C 377.905 1.90912 -4.07275 0
M  V30 4043 C 379.224 3.47822 -2.69644 0
M  V30 4044 H 376.343 0.483935 -0.555856 0
M  V30 4045 H 378.985 0.644968 -1.78718 0
M  V30 4046 H 377.135 3.04646 -2.41088 0
M  V30 4047 H 378.807 1.36473 -4.4065 0
M  V30 4048 H 377.05 1.21691 -4.16382 0
M  V30 4049 H 377.721 2.72042 -4.80309 0
M  V30 4050 H 380.197 2.9888 -2.895 0
M  V30 4051 H 379.073 4.23876 -3.48742 0
M  V30 4052 H 379.334 4.05555 -1.76005 0
M  V30 4053 N 378.394 1.34581 0.820102 0
M  V30 4054 C 379.357 1.2628 1.91275 0
M  V30 4055 C 380.357 0.177344 1.59819 0
M  V30 4056 O 381.547 0.430156 1.68806 0
M  V30 4057 C 378.679 0.950327 3.27386 0
M  V30 4058 H 379.872 2.23421 2.00057 0
M  V30 4059 H 377.425 1.1891 1.0144 0
M  V30 4060 H 378.16 -0.0177938 3.24295 0
M  V30 4061 H 377.945 1.73549 3.51601 0
M  V30 4062 H 379.435 0.917492 4.07396 0
M  V30 4063 N 379.872 -1.04064 1.18357 0
M  V30 4064 C 381.097 -1.81454 1.00445 0
M  V30 4065 C 381.522 -1.82823 -0.442423 0
M  V30 4066 O 380.88 -1.24555 -1.31741 0
M  V30 4067 C 380.928 -3.24925 1.56384 0
M  V30 4068 O 380.032 -4.04856 0.785209 0
M  V30 4069 H 379.373 -0.560604 0.355835 0
M  V30 4070 H 381.903 -1.31059 1.57114 0
M  V30 4071 H 381.913 -3.75702 1.59097 0
M  V30 4072 H 380.588 -3.23244 2.61699 0
M  V30 4073 H 379.165 -3.63537 0.830399 0
M  V30 4074 N 381.35 -0.985608 -1.22978 0
M  V30 4075 C 382.297 -0.529825 -2.24636 0
M  V30 4076 C 383.267 0.434028 -1.60329 0
M  V30 4077 O 384.452 0.340414 -1.87739 0
M  V30 4078 C 381.592 0.156533 -3.44745 0
M  V30 4079 C 380.705 -0.848197 -4.23591 0
M  V30 4080 C 379.84 -0.136109 -5.31026 0
M  V30 4081 C 378.879 -1.1297 -6.01585 0
M  V30 4082 N 378.016 -0.446415 -7.00679 0
M  V30 4083 H 382.856 -1.40148 -2.62988 0
M  V30 4084 H 380.393 -0.702168 -1.29259 0
M  V30 4085 H 382.351 0.571324 -4.1327 0
M  V30 4086 H 380.981 0.992025 -3.07179 0
M  V30 4087 H 380.033 -1.38135 -3.54433 0
M  V30 4088 H 381.345 -1.60512 -4.72268 0
M  V30 4089 H 380.499 0.335784 -6.0577 0
M  V30 4090 H 379.238 0.653373 -4.83304 0
M  V30 4091 H 378.243 -1.6123 -5.25628 0
M  V30 4092 H 379.468 -1.91993 -6.51395 0
M  V30 4093 H 377.414 0.323763 -6.55201 0
M  V30 4094 H 377.331 -1.1419 -7.47326 0
M  V30 4095 H 378.599 0.00291697 -7.795 0
M  V30 4096 N 382.828 1.3818 -0.7579 0
M  V30 4097 C 384.058 2.04004 -0.326463 0
M  V30 4098 C 384.466 1.57286 1.05156 0
M  V30 4099 O 383.809 0.743144 1.67997 0
M  V30 4100 C 383.871 3.58444 -0.275402 0
M  V30 4101 C 383.535 4.28237 -1.59569 0
M  V30 4102 C 384.532 4.53312 -2.54566 0
M  V30 4103 C 382.217 4.66341 -1.86631 0
M  V30 4104 C 384.211 5.15531 -3.74842 0
M  V30 4105 C 381.898 5.28283 -3.0718 0
M  V30 4106 C 382.896 5.52814 -4.01106 0
M  V30 4107 O 382.584 6.13465 -5.19534 0
M  V30 4108 H 382.316 0.662026 -0.136739 0
M  V30 4109 H 384.87 1.7777 -1.02893 0
M  V30 4110 H 383.1 3.83667 0.483337 0
M  V30 4111 H 384.789 4.05701 0.127099 0
M  V30 4112 H 385.555 4.24299 -2.34936 0
M  V30 4113 H 381.434 4.46591 -1.14358 0
M  V30 4114 H 384.978 5.34594 -4.48168 0
M  V30 4115 H 380.875 5.56719 -3.26702 0
M  V30 4116 H 381.643 6.31951 -5.20173 0
M  V30 4117 N 384.306 0.507319 1.49211 0
M  V30 4118 C 385.536 -0.0315292 2.06576 0
M  V30 4119 C 385.944 -1.30791 1.36713 0
M  V30 4120 O 385.287 -1.78324 0.441181 0
M  V30 4121 C 385.349 -0.349104 3.57801 0
M  V30 4122 C 385.013 0.830475 4.49391 0
M  V30 4123 C 386.01 1.72271 4.90529 0
M  V30 4124 C 383.695 1.03107 4.91604 0
M  V30 4125 C 385.689 2.79964 5.72625 0
M  V30 4126 C 383.376 2.11116 5.73475 0
M  V30 4127 C 384.374 2.99379 6.1389 0
M  V30 4128 O 384.062 4.05523 6.94123 0
M  V30 4129 H 383.794 0.0201002 0.675701 0
M  V30 4130 H 386.348 0.705737 1.92895 0
M  V30 4131 H 384.578 -1.14005 3.69513 0
M  V30 4132 H 386.267 -0.827319 3.97379 0
M  V30 4133 H 387.033 1.57958 4.58557 0
M  V30 4134 H 382.912 0.353417 4.59643 0
M  V30 4135 H 386.456 3.48884 6.04091 0
M  V30 4136 H 382.353 2.25421 6.0486 0
M  V30 4137 H 383.121 4.02953 7.1244 0
M  V30 4138 N 385.784 -1.5574 0.241426 0
M  V30 4139 C 386.694 -2.2479 -0.671305 0
M  V30 4140 C 387.71 -1.26217 -1.19772 0
M  V30 4141 O 388.886 -1.59079 -1.23514 0
M  V30 4142 C 385.951 -2.92966 -1.85396 0
M  V30 4143 C 385.012 -4.06935 -1.36756 0
M  V30 4144 C 384.245 -4.71851 -2.49384 0
M  V30 4145 O 384.468 -4.35823 -3.67987 0
M  V30 4146 O 383.402 -5.60467 -2.19454 0
M  V30 4147 H 387.228 -3.0349 -0.112966 0
M  V30 4148 H 384.813 -1.49397 0.0101513 0
M  V30 4149 H 386.695 -3.35927 -2.54423 0
M  V30 4150 H 385.37 -2.17211 -2.40002 0
M  V30 4151 H 384.277 -3.68503 -0.644726 0
M  V30 4152 H 385.61 -4.84492 -0.867647 0
M  V30 4153 N 387.262 0.0317525 -1.57568 0
M  V30 4154 C 388.49 0.734949 -1.93407 0
M  V30 4155 C 388.905 1.69036 -0.84096 0
M  V30 4156 O 388.262 1.81582 0.182836 0
M  V30 4157 C 388.313 1.49432 -3.29169 0
M  V30 4158 O 388.034 0.577261 -4.3428 0
M  V30 4159 C 389.535 2.29492 -3.79273 0
M  V30 4160 H 386.755 0.206706 -0.638368 0
M  V30 4161 H 389.299 -0.00992046 -2.04498 0
M  V30 4162 H 387.454 2.1911 -3.19483 0
M  V30 4163 H 387.868 1.10952 -5.1263 0
M  V30 4164 H 389.342 2.78172 -4.76785 0
M  V30 4165 H 389.819 3.10794 -3.10328 0
M  V30 4166 H 390.425 1.64894 -3.92033 0
M  V30 4167 N 388.74 1.54641 0.303973 0
M  V30 4168 C 389.989 1.7299 1.03717 0
M  V30 4169 C 390.302 0.521168 1.88529 0
M  V30 4170 O 391.508 0.586408 2.65092 0
M  V30 4171 C 389.964 3.06051 1.89369 0
M  V30 4172 C 389.572 4.34393 1.09574 0
M  V30 4173 C 391.316 3.3376 2.62306 0
M  V30 4174 C 389.223 5.58506 1.94486 0
M  V30 4175 H 388.153 0.64473 0.390947 0
M  V30 4176 H 390.804 1.81124 0.294328 0
M  V30 4177 H 389.186 2.91874 2.67629 0
M  V30 4178 H 390.36 4.59396 0.359485 0
M  V30 4179 H 388.675 4.13597 0.482324 0
M  V30 4180 H 391.272 4.23687 3.26181 0
M  V30 4181 H 391.615 2.52503 3.3098 0
M  V30 4182 H 392.148 3.48894 1.91097 0
M  V30 4183 H 388.887 6.42422 1.30287 0
M  V30 4184 H 388.407 5.37694 2.65792 0
M  V30 4185 H 390.086 5.95651 2.52605 0
M  V30 4186 N 390.218 -0.567019 1.47046 0
M  V30 4187 C 391.629 -1.14916 1.47143 0
M  V30 4188 C 391.98 -1.94954 0.220767 0
M  V30 4189 O 391.105 -2.05602 -0.67505 0
M  V30 4190 C 391.7 -2.09069 2.666 0
M  V30 4191 C 390.259 -2.62575 2.69687 0
M  V30 4192 C 389.406 -1.38755 2.40088 0
M  V30 4193 H 392.357 -0.354126 1.54699 0
M  V30 4194 H 392.378 -2.92789 2.43011 0
M  V30 4195 H 391.89 -1.50789 3.57609 0
M  V30 4196 H 389.991 -3.24681 1.82792 0
M  V30 4197 H 390.104 -3.04239 3.70102 0
M  V30 4198 H 388.468 -1.69098 1.90468 0
M  V30 4199 H 389.251 -0.822822 3.33293 0
M  V30 4200 N 391.696 -1.35014 -0.812953 0
M  V30 4201 C 392.942 -1.2812 -1.57204 0
M  V30 4202 C 393.275 0.145869 -1.93651 0
M  V30 4203 O 392.55 1.0937 -1.60836 0
M  V30 4204 C 392.833 -2.18162 -2.86492 0
M  V30 4205 C 392.686 -3.69454 -2.56561 0
M  V30 4206 C 394.005 -2.07439 -3.88145 0
M  V30 4207 H 391.124 -0.466746 -0.570366 0
M  V30 4208 H 393.766 -1.65357 -0.935783 0
M  V30 4209 H 391.916 -1.86535 -3.40789 0
M  V30 4210 H 393.588 -4.11493 -2.08497 0
M  V30 4211 H 391.831 -3.9005 -1.89851 0
M  V30 4212 H 392.502 -4.27835 -3.48799 0
M  V30 4213 H 394.978 -2.35228 -3.4323 0
M  V30 4214 H 393.854 -2.7265 -4.76396 0
M  V30 4215 H 394.115 -1.05439 -4.29343 0
M  V30 4216 N 393.175 1.03435 -1.18907 0
M  V30 4217 C 394.122 2.11591 -0.921837 0
M  V30 4218 C 395.092 1.65499 0.141226 0
M  V30 4219 O 396.277 1.908 0.000242829 0
M  V30 4220 C 393.417 3.42012 -0.460616 0
M  V30 4221 C 392.53 4.01682 -1.58982 0
M  V30 4222 C 391.665 5.20091 -1.08069 0
M  V30 4223 C 390.704 5.71805 -2.18416 0
M  V30 4224 N 389.841 6.81494 -1.68849 0
M  V30 4225 H 394.681 2.33787 -1.8479 0
M  V30 4226 H 392.218 1.1467 -0.921373 0
M  V30 4227 H 394.176 4.16834 -0.174642 0
M  V30 4228 H 392.806 3.19944 0.428467 0
M  V30 4229 H 391.858 3.24127 -1.99113 0
M  V30 4230 H 393.17 4.36084 -2.4214 0
M  V30 4231 H 392.324 6.02051 -0.749615 0
M  V30 4232 H 391.063 4.87209 -0.218771 0
M  V30 4233 H 390.068 4.88461 -2.5236 0
M  V30 4234 H 391.293 6.06728 -3.05054 0
M  V30 4235 H 389.239 6.50475 -0.849572 0
M  V30 4236 H 389.156 7.14994 -2.45601 0
M  V30 4237 H 390.424 7.67063 -1.38689 0
M  V30 4238 O 394.692 1.12039 1.16316 0
M  V30 4239 H 395.383 0.829719 1.7503 0
M  V30 END ATOM
M  V30 BEGIN BOND
M  V30 END BOND
M  V30 END CTAB
M  END
$$$$
