drugbank_target|P22513 Glyceraldehyde-3-phosphate dehydrogenase, glycosomal (DB02205; DB03211; DB11820)
 OpenBabel12092119553D

  0  0  0     0  0            999 V3000
M  V30 BEGIN CTAB
M  V30 COUNTS 5494 5547 0 0 0
M  V30 BEGIN ATOM
M  V30 1 H -0.908 1.98254 -0.117106 0
M  V30 2 N 0 1.576 0 0
M  V30 3 C 0.933 2.03868 1.02534 0
M  V30 4 C 1.911 0.928543 1.3348 0
M  V30 5 O 3.095 1.19667 1.45644 0
M  V30 6 C 0.222 2.43627 2.35294 0
M  V30 7 C -0.732 3.65373 2.2001 0
M  V30 8 S 0.101 5.13292 1.52614 0
M  V30 9 C 1.257 5.56322 2.86805 0
M  V30 10 H 1.49 2.90518 0.631377 0
M  V30 11 H -0.977 1.52953 0.210867 0
M  V30 12 H 0.981 2.67203 3.11629 0
M  V30 13 H -0.358 1.57376 2.7183 0
M  V30 14 H -1.165 3.90944 3.18086 0
M  V30 15 H -1.563 3.418 1.51819 0
M  V30 16 H 0.729 5.58782 3.83104 0
M  V30 17 H 1.672 6.56266 2.65933 0
M  V30 18 H 2.08 4.83886 2.90714 0
M  V30 19 N 1.4781 -0.272755 1.55222 0
M  V30 20 C 2.8891 -0.84378 1.66545 0
M  V30 21 C 3.2401 -1.87035 0.592641 0
M  V30 22 O 2.3651 -2.14761 -0.265818 0
M  V30 23 C 2.9601 -1.53723 3.01918 0
M  V30 24 C 1.5191 -2.05628 3.15268 0
M  V30 25 C 0.6661 -0.898424 2.62343 0
M  V30 26 H 3.6171 -0.0490998 1.58624 0
M  V30 27 H 3.6381 -2.40421 2.94921 0
M  V30 28 H 3.1501 -0.78983 3.79978 0
M  V30 29 H 1.2511 -2.83329 2.41983 0
M  V30 30 H 1.3641 -2.27142 4.21833 0
M  V30 31 H -0.2719 -1.29186 2.19506 0
M  V30 32 H 0.5111 -0.164528 3.42906 0
M  V30 33 N 2.9562 -1.48159 -0.537278 0
M  V30 34 C 4.2052 -1.5506 -1.28993 0
M  V30 35 C 4.5182 -0.226211 -1.94288 0
M  V30 36 O 5.7242 -0.173395 -2.70946 0
M  V30 37 C 4.1802 -2.73429 -2.34018 0
M  V30 38 C 3.7882 -4.1248 -1.74825 0
M  V30 39 C 5.5322 -2.89638 -3.10339 0
M  V30 40 C 3.4392 -5.22121 -2.77747 0
M  V30 41 H 2.3692 -0.577231 -0.485098 0
M  V30 42 H 5.0202 -1.74478 -0.568317 0
M  V30 43 H 3.4022 -2.47431 -3.09182 0
M  V30 44 H 4.5762 -4.48466 -1.05899 0
M  V30 45 H 2.8912 -4.01327 -1.11022 0
M  V30 46 H 5.4882 -3.68718 -3.87235 0
M  V30 47 H 5.8312 -1.9882 -3.65754 0
M  V30 48 H 6.3642 -3.15502 -2.42288 0
M  V30 49 H 3.1032 -6.1488 -2.27161 0
M  V30 50 H 2.6232 -4.90631 -3.45024 0
M  V30 51 H 4.3022 -5.49924 -3.4087 0
M  V30 52 N 4.4343 0.785586 -1.36625 0
M  V30 53 C 5.3813 1.89838 -1.31264 0
M  V30 54 C 6.3513 1.65115 -0.180633 0
M  V30 55 O 7.5363 1.87222 -0.36777 0
M  V30 56 C 4.6763 3.26706 -1.11163 0
M  V30 57 C 3.7893 3.63476 -2.33472 0
M  V30 58 C 2.9243 4.89481 -2.06353 0
M  V30 59 C 1.9633 5.18941 -3.24602 0
M  V30 60 N 1.1003 6.36131 -2.97123 0
M  V30 61 H 5.9403 1.93756 -2.26413 0
M  V30 62 H 3.4773 0.947454 -1.12524 0
M  V30 63 H 5.4353 4.05639 -0.975337 0
M  V30 64 H 4.0653 3.222 -0.196674 0
M  V30 65 H 3.1173 2.79636 -2.57891 0
M  V30 66 H 4.4293 3.81193 -3.21704 0
M  V30 67 H 3.5833 5.76288 -1.89675 0
M  V30 68 H 2.3223 4.73841 -1.15437 0
M  V30 69 H 1.3273 4.30615 -3.41834 0
M  V30 70 H 2.5523 5.36498 -4.16349 0
M  V30 71 H 0.4983 6.21875 -2.08823 0
M  V30 72 H 0.4153 6.54198 -3.78894 0
M  V30 73 H 1.6833 7.2591 -2.84033 0
M  V30 74 N 5.9124 1.20967 1.01018 0
M  V30 75 C 7.1584 1.02526 1.74975 0
M  V30 76 C 7.4914 -0.4408 1.89131 0
M  V30 77 O 6.7664 -1.32718 1.42184 0
M  V30 78 C 7.0494 1.71699 3.1653 0
M  V30 79 C 6.9024 3.25791 3.10129 0
M  V30 80 C 8.2214 1.45531 4.15342 0
M  V30 81 H 5.3404 0.373863 0.635134 0
M  V30 82 H 7.9824 1.49071 1.17805 0
M  V30 83 H 6.1324 1.32128 3.65341 0
M  V30 84 H 7.8044 3.74697 2.69072 0
M  V30 85 H 6.0474 3.56363 2.47362 0
M  V30 86 H 6.7184 3.69353 4.10222 0
M  V30 87 H 9.1944 1.79872 3.75213 0
M  V30 88 H 8.0704 1.96453 5.1254 0
M  V30 89 H 8.3314 0.384237 4.40427 0
M  V30 90 N 7.3905 -1.2043 1.01659 0
M  V30 91 C 8.6385 -1.89423 0.704522 0
M  V30 92 C 8.9595 -1.79231 -0.768197 0
M  V30 93 O 8.2295 -1.1947 -1.55254 0
M  V30 94 H 6.8095 -0.701178 0.257602 0
M  V30 95 H 9.4715 -1.4626 1.28818 0
M  V30 96 H 8.5675 -2.96052 0.987916 0
M  V30 97 N 8.8686 -0.792821 -1.36206 0
M  V30 98 C 10.1176 -0.363353 -1.984 0
M  V30 99 C 10.4306 1.07172 -1.63626 0
M  V30 100 O 11.6366 1.60362 -2.19081 0
M  V30 101 C 10.0926 -0.59872 -3.54885 0
M  V30 102 C 9.7006 -2.04543 -3.9858 0
M  V30 103 C 11.4446 -0.233926 -4.23855 0
M  V30 104 C 9.3516 -2.22727 -5.47856 0
M  V30 105 H 8.2816 -0.13212 -0.742334 0
M  V30 106 H 10.9326 -0.974935 -1.55458 0
M  V30 107 H 9.3146 0.0826222 -3.95914 0
M  V30 108 H 10.4886 -2.76345 -3.68741 0
M  V30 109 H 8.8036 -2.36879 -3.42458 0
M  V30 110 H 11.4006 -0.348027 -5.33566 0
M  V30 111 H 11.7436 0.818351 -4.08177 0
M  V30 112 H 12.2766 -0.868639 -3.882 0
M  V30 113 H 9.0156 -3.2635 -5.68486 0
M  V30 114 H 8.5356 -1.55434 -5.7931 0
M  V30 115 H 10.2146 -2.03607 -6.14128 0
M  V30 116 N 10.3467 1.47872 -0.545128 0
M  V30 117 C 11.2947 2.31533 0.222512 0
M  V30 118 C 12.2887 1.42177 0.920985 0
M  V30 119 O 13.4947 1.59005 0.843645 0
M  V30 120 H 9.8697 0.746519 0.0906278 0
M  V30 121 H 11.8407 2.94139 -0.50246 0
M  V30 122 C 10.5897 3.2457 1.24699 0
M  V30 123 H 9.9127 3.93283 0.718944 0
M  V30 124 H 11.3527 3.85963 1.75523 0
M  V30 125 C 9.8117 2.47237 2.28856 0
M  V30 126 O 10.3417 2.20808 3.35569 0
M  V30 127 N 8.5477 2.08461 2.02466 0
M  V30 128 H 8.0947 2.30155 1.157 0
M  V30 129 H 8.0527 1.57033 2.72375 0
M  V30 130 N 11.8248 0.280983 1.55075 0
M  V30 131 C 13.0728 -0.333455 1.9933 0
M  V30 132 C 13.3938 -1.55937 1.17085 0
M  V30 133 O 12.6638 -1.94143 0.261805 0
M  V30 134 H 11.2438 -0.126197 0.736263 0
M  V30 135 H 13.9058 0.387678 1.91005 0
M  V30 136 H 13.0018 -0.619292 3.05894 0
M  V30 137 N 13.3029 -1.57598 0.00835791 0
M  V30 138 C 14.5499 -1.90928 -0.674732 0
M  V30 139 C 14.8779 -0.88277 -1.73313 0
M  V30 140 O 14.1329 0.111294 -1.95383 0
M  V30 141 C 14.4319 -3.3101 -1.34787 0
M  V30 142 C 14.0979 -4.48922 -0.421861 0
M  V30 143 C 12.7599 -4.8091 -0.166927 0
M  V30 144 C 15.1119 -5.20755 0.215211 0
M  V30 145 C 12.4399 -5.821 0.733232 0
M  V30 146 C 14.7919 -6.22905 1.1033 0
M  V30 147 C 13.4559 -6.53346 1.36733 0
M  V30 148 H 12.7259 -0.698656 -0.246902 0
M  V30 149 H 15.3729 -1.91387 0.0656779 0
M  V30 150 H 13.6779 -3.26714 -2.16253 0
M  V30 151 H 15.3749 -3.54061 -1.8826 0
M  V30 152 H 11.9649 -4.23934 -0.630729 0
M  V30 153 H 16.1489 -4.9629 0.0312829 0
M  V30 154 H 11.4049 -6.04042 0.945712 0
M  V30 155 H 15.5789 -6.77694 1.60325 0
M  V30 156 H 13.2059 -7.31573 2.06652 0
M  V30 157 N 14.781 0.264519 -1.55364 0
M  V30 158 C 16.029 0.993021 -1.76021 0
M  V30 159 C 16.35 1.86511 -0.569099 0
M  V30 160 O 15.62 1.91438 0.415735 0
M  V30 161 H 14.2 0.369639 -0.649135 0
M  V30 162 H 16.862 0.286707 -1.9278 0
M  V30 163 H 15.958 1.62502 -2.66457 0
M  V30 164 N 16.2591 1.48442 0.529413 0
M  V30 165 C 17.6751 1.34575 0.858004 0
M  V30 166 C 17.8751 0.3572 1.98309 0
M  V30 167 O 16.9311 -0.221379 2.51528 0
M  V30 168 C 18.2441 2.74617 1.22499 0
M  V30 169 C 19.7921 2.83109 1.33484 0
M  V30 170 C 20.2671 4.23854 1.73526 0
M  V30 171 N 21.7581 4.2653 1.80628 0
M  V30 172 C 22.4931 5.32372 2.12997 0
M  V30 173 N 21.9891 6.48491 2.43786 0
M  V30 174 N 23.7821 5.19766 2.14008 0
M  V30 175 H 15.9331 2.1133 -0.212925 0
M  V30 176 H 18.1961 0.947439 -0.0326199 0
M  V30 177 H 17.9021 3.4852 0.471905 0
M  V30 178 H 17.7761 3.08177 2.17501 0
M  V30 179 H 20.1631 2.09462 2.0787 0
M  V30 180 H 20.2441 2.53168 0.366027 0
M  V30 181 H 19.8881 4.98018 0.997013 0
M  V30 182 H 19.8181 4.5124 2.71459 0
M  V30 183 H 22.3091 3.42772 1.59108 0
M  V30 184 H 22.6221 7.24993 2.67592 0
M  V30 185 H 20.9671 6.51765 2.41304 0
M  V30 186 H 24.1581 4.28066 1.89412 0
M  V30 187 H 24.3311 6.02354 2.38902 0
M  V30 188 N 17.7372 -0.778329 1.37039 0
M  V30 189 C 18.9862 -1.53189 1.3121 0
M  V30 190 C 19.2992 -1.95328 -0.103095 0
M  V30 191 O 20.5052 -2.70012 -0.283826 0
M  V30 192 C 18.9612 -2.76591 2.30272 0
M  V30 193 C 18.5692 -2.41577 3.77286 0
M  V30 194 C 20.3132 -3.5455 2.33441 0
M  V30 195 C 18.2202 -3.61441 4.68096 0
M  V30 196 H 17.1502 -0.5751 0.487622 0
M  V30 197 H 19.8012 -0.853101 1.62464 0
M  V30 198 H 18.1832 -3.46326 1.92027 0
M  V30 199 H 19.3572 -1.79668 4.2433 0
M  V30 200 H 17.6722 -1.76806 3.76999 0
M  V30 201 H 20.2692 -4.43628 2.98493 0
M  V30 202 H 20.6122 -3.93936 1.34611 0
M  V30 203 H 21.1452 -2.91805 2.7036 0
M  V30 204 H 17.8842 -3.27142 5.6803 0
M  V30 205 H 17.4042 -4.22478 4.25761 0
M  V30 206 H 19.0832 -4.28335 4.8491 0
M  V30 207 N 19.2153 -1.21501 -1.00376 0
M  V30 208 C 20.4633 -1.03095 -1.73827 0
M  V30 209 C 20.7843 0.436341 -1.90055 0
M  V30 210 O 20.0543 1.31466 -1.45236 0
M  V30 211 H 18.6343 -0.378487 -0.644016 0
M  V30 212 H 21.2963 -1.52831 -1.20949 0
M  V30 213 H 20.3923 -1.49991 -2.73695 0
M  V30 214 N 20.6934 1.19889 -1.02296 0
M  V30 215 C 22.1094 1.41462 -0.738954 0
M  V30 216 C 22.3094 1.89721 0.678846 0
M  V30 217 O 21.3654 2.07016 1.4457 0
M  V30 218 C 22.6784 2.43083 -1.77005 0
M  V30 219 C 24.2264 2.5684 -1.78892 0
M  V30 220 C 24.7014 3.61709 -2.80945 0
M  V30 221 N 26.1924 3.69199 -2.79725 0
M  V30 222 C 26.9274 4.50019 -3.55345 0
M  V30 223 N 26.4234 5.34592 -4.40662 0
M  V30 224 N 28.2164 4.44612 -3.43914 0
M  V30 225 H 20.3674 0.868827 -1.93817 0
M  V30 226 H 22.6304 0.44399 -0.837602 0
M  V30 227 H 22.3364 2.14636 -2.78612 0
M  V30 228 H 22.2104 3.4217 -1.58744 0
M  V30 229 H 24.5974 2.84614 -0.779674 0
M  V30 230 H 24.6784 1.57927 -2.01228 0
M  V30 231 H 24.3224 3.34678 -3.82038 0
M  V30 232 H 24.2524 4.60259 -2.5587 0
M  V30 233 H 26.7434 3.08794 -2.17842 0
M  V30 234 H 27.0564 5.93363 -4.95116 0
M  V30 235 H 25.4014 5.34073 -4.44737 0
M  V30 236 H 28.5924 3.7758 -2.76679 0
M  V30 237 H 28.7654 5.0736 -4.031 0
M  V30 238 N 22.1715 0.800033 1.35784 0
M  V30 239 C 23.1045 0.151499 2.27697 0
M  V30 240 C 24.0825 -0.678663 1.4776 0
M  V30 241 O 25.2665 -0.647358 1.77035 0
M  V30 242 C 22.3935 -0.790492 3.29346 0
M  V30 243 C 21.4395 -0.0407832 4.26481 0
M  V30 244 S 22.2725 1.29077 5.19711 0
M  V30 245 C 23.4285 0.353055 6.24903 0
M  V30 246 H 23.6615 0.930796 2.82353 0
M  V30 247 H 21.1945 0.594767 1.42485 0
M  V30 248 H 23.1525 -1.3285 3.88409 0
M  V30 249 H 21.8135 -1.54312 2.73581 0
M  V30 250 H 21.0065 -0.755971 4.98298 0
M  V30 251 H 20.6085 0.427063 3.71554 0
M  V30 252 H 22.9005 -0.464147 6.75908 0
M  V30 253 H 23.8435 1.04023 7.00418 0
M  V30 254 H 24.2515 -0.0483344 5.64479 0
M  V30 255 N 23.6496 -1.47581 0.552962 0
M  V30 256 C 24.8956 -2.02782 0.0273648 0
M  V30 257 C 25.2286 -1.42687 -1.31734 0
M  V30 258 O 24.5036 -0.580897 -1.85623 0
M  V30 259 C 24.7866 -3.60031 -0.0702371 0
M  V30 260 C 24.6396 -4.30566 1.30126 0
M  V30 261 C 25.9586 -4.33028 -0.785771 0
M  V30 262 H 23.0776 -0.736912 0.0114185 0
M  V30 263 H 25.7196 -1.76056 0.714432 0
M  V30 264 H 23.8696 -3.82932 -0.655382 0
M  V30 265 H 25.5416 -4.19018 1.92929 0
M  V30 266 H 23.7846 -3.91086 1.87709 0
M  V30 267 H 24.4556 -5.39114 1.18573 0
M  V30 268 H 26.9316 -4.15095 -0.288982 0
M  V30 269 H 25.8076 -5.42695 -0.823013 0
M  V30 270 H 26.0686 -4.01945 -1.841 0
M  V30 271 N 25.1277 -0.289203 -1.54924 0
M  V30 272 C 26.3747 0.323519 -1.99899 0
M  V30 273 C 26.7027 1.54797 -1.17762 0
M  V30 274 O 25.9577 1.94237 -0.238835 0
M  V30 275 C 26.2567 0.736119 -3.49737 0
M  V30 276 C 25.9227 -0.385276 -4.49251 0
M  V30 277 C 24.5847 -0.693156 -4.76181 0
M  V30 278 C 26.9367 -1.14021 -5.08575 0
M  V30 279 C 24.2647 -1.7593 -5.59701 0
M  V30 280 C 26.6167 -2.19619 -5.93254 0
M  V30 281 C 25.2807 -2.51026 -6.185 0
M  V30 282 H 24.5507 0.118384 -0.731482 0
M  V30 283 H 27.1977 -0.405847 -1.8715 0
M  V30 284 H 25.5027 1.54539 -3.60035 0
M  V30 285 H 27.1997 1.22118 -3.81953 0
M  V30 286 H 23.7897 -0.135202 -4.28387 0
M  V30 287 H 27.9737 -0.915611 -4.87781 0
M  V30 288 H 23.2297 -2.0075 -5.77503 0
M  V30 289 H 27.4037 -2.78581 -6.38252 0
M  V30 290 H 25.0307 -3.33772 -6.83008 0
M  V30 291 N 26.6058 1.57591 -0.0167156 0
M  V30 292 C 27.5378 2.06343 0.997753 0
M  V30 293 C 28.5508 0.984469 1.29661 0
M  V30 294 O 29.7398 1.26093 1.26344 0
M  V30 295 C 26.8398 2.46255 2.32834 0
M  V30 296 C 26.0128 3.77083 2.21646 0
M  V30 297 C 25.0718 4.0368 3.37534 0
M  V30 298 O 24.0978 4.7411 3.14973 0
M  V30 299 N 25.2998 3.52881 4.60929 0
M  V30 300 H 28.0648 2.93997 0.581875 0
M  V30 301 H 25.6258 1.61002 0.170316 0
M  V30 302 H 27.6178 2.61149 3.09166 0
M  V30 303 H 26.1878 1.64032 2.66106 0
M  V30 304 H 25.4078 3.72106 1.30119 0
M  V30 305 H 26.6958 4.62822 2.11361 0
M  V30 306 H 26.0938 2.95878 4.82154 0
M  V30 307 H 24.6508 3.73076 5.34469 0
M  V30 308 N 28.0839 -0.256276 1.55502 0
M  V30 309 C 29.0469 -1.30047 1.88734 0
M  V30 310 C 30.0469 -1.4154 0.763086 0
M  V30 311 O 31.2369 -1.40403 1.03115 0
M  V30 312 C 28.3689 -2.67953 2.10747 0
M  V30 313 H 29.5619 -1.01802 2.82093 0
M  V30 314 H 27.1149 -0.495134 1.4825 0
M  V30 315 H 27.8499 -3.01351 1.19825 0
M  V30 316 H 27.6349 -2.60993 2.92617 0
M  V30 317 H 29.1249 -3.43368 2.37673 0
M  V30 318 N 29.562 -1.4872 -0.521534 0
M  V30 319 C 30.492 -1.66771 -1.63431 0
M  V30 320 C 31.473 -0.516499 -1.62069 0
M  V30 321 O 32.658 -0.750013 -1.79132 0
M  V30 322 C 29.788 -1.71515 -3.01993 0
M  V30 323 C 28.742 -2.86222 -3.18216 0
M  V30 324 C 28.068 -2.76061 -4.57924 0
M  V30 325 C 29.368 -4.27419 -3.00184 0
M  V30 326 H 31.062 -2.59932 -1.48579 0
M  V30 327 H 28.608 -1.25089 -0.713358 0
M  V30 328 H 30.561 -1.82731 -3.7972 0
M  V30 329 H 29.285 -0.749393 -3.17886 0
M  V30 330 H 27.944 -2.74575 -2.42908 0
M  V30 331 H 27.592 -1.77437 -4.70665 0
M  V30 332 H 27.292 -3.53037 -4.69722 0
M  V30 333 H 28.816 -2.89256 -5.37739 0
M  V30 334 H 30.23 -4.39855 -3.67697 0
M  V30 335 H 28.627 -5.05458 -3.2347 0
M  V30 336 H 29.697 -4.43293 -1.96518 0
M  V30 337 N 31.0401 0.771051 -1.3745 0
M  V30 338 C 32.2801 1.54264 -1.34096 0
M  V30 339 C 32.6441 1.91858 0.0737639 0
M  V30 340 O 33.8451 2.67797 0.23203 0
M  V30 341 C 32.1161 2.77326 -2.25445 0
M  V30 342 S 33.6751 3.67383 -2.39948 0
M  V30 343 H 30.4931 0.528122 -0.476034 0
M  V30 344 H 33.0951 0.906633 -1.73206 0
M  V30 345 H 31.7991 2.47788 -3.27153 0
M  V30 346 H 31.3301 3.45886 -1.87421 0
M  V30 347 H 33.3451 4.69334 -1.61059 0
M  V30 348 N 32.5182 1.22032 0.997298 0
M  V30 349 C 33.4282 1.00271 2.12092 0
M  V30 350 C 34.4442 -0.047621 1.73935 0
M  V30 351 O 35.6202 0.144136 2.00884 0
M  V30 352 C 32.6852 0.578449 3.4184 0
M  V30 353 C 31.7462 1.70189 3.94125 0
M  V30 354 C 30.9792 1.29778 5.17681 0
M  V30 355 O 31.2022 0.174676 5.70132 0
M  V30 356 O 30.1362 2.11261 5.63607 0
M  V30 357 H 33.9622 1.94398 2.3333 0
M  V30 358 H 31.5472 1.00587 1.10465 0
M  V30 359 H 33.4292 0.351998 4.19927 0
M  V30 360 H 32.1042 -0.334019 3.21972 0
M  V30 361 H 31.0112 1.98282 3.1723 0
M  V30 362 H 32.3442 2.59206 4.18417 0
M  V30 363 N 33.9963 -1.19345 1.0293 0
M  V30 364 C 35.2733 -1.84811 0.640642 0
M  V30 365 C 35.6533 -1.91855 -0.88062 0
M  V30 366 O 35.0013 -1.43587 -1.7775 0
M  V30 367 C 35.2113 -3.23755 1.30321 0
M  V30 368 C 36.5593 -3.99912 1.42673 0
M  V30 369 O 37.5833 -3.33155 1.26041 0
M  V30 370 O 36.4423 -5.19494 1.6967 0
M  V30 371 H 33.5363 -0.796443 0.222726 0
M  V30 372 H 36.0823 -1.26831 1.12748 0
M  V30 373 H 34.8543 -3.13466 2.34211 0
M  V30 374 H 34.4773 -3.89381 0.804261 0
M  V30 375 N 35.4744 -0.807222 -1.35358 0
M  V30 376 C 36.7224 -0.387122 -1.98358 0
M  V30 377 C 37.0434 1.04942 -1.64354 0
M  V30 378 O 36.3134 1.72615 -0.926339 0
M  V30 379 H 34.8934 -0.140154 -0.733734 0
M  V30 380 H 37.5554 -1.0332 -1.6526 0
M  V30 381 H 36.6514 -0.493352 -3.08176 0
M  V30 382 N 36.9525 1.47285 -0.560781 0
M  V30 383 C 37.8825 2.32857 0.173105 0
M  V30 384 C 38.8635 1.44009 0.905281 0
M  V30 385 O 40.0485 1.7286 0.885046 0
M  V30 386 C 37.1785 3.25861 1.20133 0
M  V30 387 C 36.1325 4.23978 0.585388 0
M  V30 388 C 35.4585 5.06332 1.7185 0
M  V30 389 C 36.7585 5.20242 -0.463178 0
M  V30 390 H 38.4525 2.94466 -0.541307 0
M  V30 391 H 35.9985 1.41601 -0.261764 0
M  V30 392 H 37.9515 3.84569 1.72293 0
M  V30 393 H 36.6755 2.62315 1.94573 0
M  V30 394 H 35.3345 3.66501 0.085054 0
M  V30 395 H 34.9825 4.39186 2.45203 0
M  V30 396 H 34.6825 5.72762 1.31213 0
M  V30 397 H 36.2065 5.67899 2.24329 0
M  V30 398 H 37.6205 5.73293 -0.027502 0
M  V30 399 H 36.0175 5.94896 -0.788627 0
M  V30 400 H 37.0875 4.65504 -1.35773 0
M  V30 401 N 38.4306 0.297415 1.54768 0
M  V30 402 C 39.3606 -0.573494 2.26348 0
M  V30 403 C 40.3416 -1.14085 1.26169 0
M  V30 404 O 41.5266 -1.17086 1.54934 0
M  V30 405 C 38.6566 -1.74716 3.00153 0
M  V30 406 C 37.6106 -1.31032 4.07449 0
M  V30 407 C 36.9366 -2.56887 4.68949 0
M  V30 408 C 38.2366 -0.444183 5.20408 0
M  V30 409 H 39.9306 0.0235131 2.99391 0
M  V30 410 H 37.4766 0.0127488 1.43994 0
M  V30 411 H 39.4296 -2.3625 3.48947 0
M  V30 412 H 38.1536 -2.37035 2.24682 0
M  V30 413 H 36.8126 -0.718066 3.59499 0
M  V30 414 H 36.4606 -3.17512 3.90122 0
M  V30 415 H 36.1606 -2.2836 5.41411 0
M  V30 416 H 37.6846 -3.19229 5.20505 0
M  V30 417 H 39.0986 -0.9651 5.65118 0
M  V30 418 H 37.4956 -0.252846 5.99567 0
M  V30 419 H 38.5656 0.531609 4.81977 0
M  V30 420 N 39.9087 -1.5758 0.0250728 0
M  V30 421 C 41.1567 -1.91255 -0.653151 0
M  V30 422 C 41.4777 -0.901691 -1.729 0
M  V30 423 O 40.7477 0.0573785 -1.95816 0
M  V30 424 H 39.3277 -0.705942 -0.244243 0
M  V30 425 H 41.9897 -1.94767 0.0719209 0
M  V30 426 H 41.0857 -2.91752 -1.10847 0
M  V30 427 N 41.3868 0.248026 -1.55636 0
M  V30 428 C 42.6148 0.993808 -1.81469 0
M  V30 429 C 43.0298 1.78991 -0.60064 0
M  V30 430 O 42.3868 1.77345 0.430682 0
M  V30 431 C 42.4378 1.93258 -3.05506 0
M  V30 432 O 42.1588 1.16869 -4.22224 0
M  V30 433 C 43.6598 2.79444 -3.4413 0
M  V30 434 H 40.8798 0.292486 -0.603898 0
M  V30 435 H 43.4238 0.271253 -2.02693 0
M  V30 436 H 41.5788 2.60943 -2.86335 0
M  V30 437 H 41.9928 1.80359 -4.92515 0
M  V30 438 H 43.4668 3.41066 -4.34026 0
M  V30 439 H 43.9438 3.50499 -2.64665 0
M  V30 440 H 44.5498 2.17214 -3.65648 0
M  V30 441 N 42.8649 1.48995 0.513639 0
M  V30 442 C 43.7749 1.67443 1.64317 0
M  V30 443 C 44.7909 0.556947 1.64846 0
M  V30 444 O 45.9669 0.830082 1.83498 0
M  V30 445 C 43.0319 1.72515 3.00732 0
M  V30 446 C 42.0929 2.96009 3.1093 0
M  V30 447 C 41.3259 3.00829 4.40837 0
M  V30 448 O 41.5489 2.13594 5.28898 0
M  V30 449 O 40.4829 3.93168 4.55744 0
M  V30 450 H 44.3089 2.63106 1.51687 0
M  V30 451 H 41.8939 1.32588 0.688543 0
M  V30 452 H 43.7759 1.78277 3.81831 0
M  V30 453 H 42.4509 0.800278 3.13651 0
M  V30 454 H 41.3579 2.9577 2.29065 0
M  V30 455 H 42.6909 3.87934 3.02933 0
M  V30 456 N 44.343 -0.763751 1.37857 0
M  V30 457 C 45.592 -1.51789 1.32827 0
M  V30 458 C 45.905 -1.95426 -0.0823719 0
M  V30 459 O 47.111 -2.70298 -0.255172 0
M  V30 460 C 45.567 -2.74133 2.33193 0
M  V30 461 C 45.175 -2.37562 3.79827 0
M  V30 462 C 46.919 -3.52054 2.37188 0
M  V30 463 C 44.826 -3.56456 4.71904 0
M  V30 464 H 43.756 -0.569896 0.493695 0
M  V30 465 H 46.407 -0.835822 1.63359 0
M  V30 466 H 44.789 -3.4427 1.9569 0
M  V30 467 H 45.963 -1.75157 4.26212 0
M  V30 468 H 44.278 -1.72798 3.78853 0
M  V30 469 H 46.875 -4.40437 3.03182 0
M  V30 470 H 47.218 -3.92486 1.38782 0
M  V30 471 H 47.751 -2.88921 2.7344 0
M  V30 472 H 44.49 -3.21099 5.71468 0
M  V30 473 H 44.01 -4.17938 4.30218 0
M  V30 474 H 45.689 -4.23168 4.89426 0
M  V30 475 N 45.8211 -1.22559 -0.990812 0
M  V30 476 C 47.0981 -0.959875 -1.70428 0
M  V30 477 C 47.4781 0.524455 -2.04481 0
M  V30 478 O 46.8261 1.49302 -1.72977 0
M  V30 479 C 47.0361 -1.85955 -2.95333 0
M  V30 480 C 48.3841 -2.11687 -3.68068 0
M  V30 481 O 49.4081 -1.8342 -3.05345 0
M  V30 482 O 48.2671 -2.59572 -4.80921 0
M  V30 483 H 45.3611 -0.361154 -0.743974 0
M  V30 484 H 47.9071 -1.33554 -1.04697 0
M  V30 485 H 46.6791 -2.86346 -2.66687 0
M  V30 486 H 46.3021 -1.4856 -3.68803 0
M  V30 487 N 47.2992 1.18797 -1.03562 0
M  V30 488 C 48.5452 1.8893 -0.737113 0
M  V30 489 C 48.8782 1.79837 0.732956 0
M  V30 490 O 48.1532 1.19525 1.5344 0
M  V30 491 C 48.4362 3.39607 -1.19745 0
M  V30 492 C 48.2892 3.57537 -2.72924 0
M  V30 493 C 49.6082 4.33069 -0.783526 0
M  V30 494 H 46.7272 0.686057 -0.269249 0
M  V30 495 H 49.3692 1.39797 -1.28673 0
M  V30 496 H 47.5192 3.81583 -0.729855 0
M  V30 497 H 49.1912 3.24688 -3.27682 0
M  V30 498 H 47.4342 3.00363 -3.12993 0
M  V30 499 H 48.1052 4.63238 -3.00191 0
M  V30 500 H 50.5812 3.98846 -1.18581 0
M  V30 501 H 49.4572 5.3707 -1.13343 0
M  V30 502 H 49.7182 4.40986 0.313681 0
M  V30 503 N 48.7773 0.814389 1.34928 0
M  V30 504 C 50.0233 0.399013 1.98836 0
M  V30 505 C 50.3563 -1.03314 1.64438 0
M  V30 506 O 49.6313 -1.71811 0.911659 0
M  V30 507 C 49.9143 0.591629 3.55207 0
M  V30 508 C 49.7673 2.06928 3.99376 0
M  V30 509 C 51.0863 0.022199 4.40094 0
M  V30 510 H 48.2053 0.146451 0.722303 0
M  V30 511 H 50.8473 1.02537 1.59957 0
M  V30 512 H 48.9973 0.0584441 3.88456 0
M  V30 513 H 50.6693 2.66544 3.76499 0
M  V30 514 H 48.9123 2.56287 3.49999 0
M  V30 515 H 49.5833 2.1549 5.08201 0
M  V30 516 H 52.0593 0.477643 4.13349 0
M  V30 517 H 50.9353 0.186832 5.48582 0
M  V30 518 H 51.1963 -1.07215 4.28902 0
M  V30 519 N 50.2554 -1.46986 0.568584 0
M  V30 520 C 51.2184 -2.28624 -0.162366 0
M  V30 521 C 52.2184 -1.37596 -0.832103 0
M  V30 522 O 53.4084 -1.60115 -0.68622 0
M  V30 523 C 50.5404 -3.17596 -1.23878 0
M  V30 524 H 51.7334 -2.94722 0.554899 0
M  V30 525 H 49.2864 -1.52863 0.325976 0
M  V30 526 H 50.0214 -2.56214 -1.98808 0
M  V30 527 H 49.8064 -3.846 -0.763219 0
M  V30 528 H 51.2964 -3.79078 -1.75185 0
M  V30 529 N 51.7335 -0.305618 -1.54608 0
M  V30 530 C 52.9795 0.302746 -2.00528 0
M  V30 531 C 53.3125 1.53184 -1.19367 0
M  V30 532 O 52.5875 1.92598 -0.271321 0
M  V30 533 C 52.8705 0.654756 -3.54097 0
M  V30 534 C 52.7235 -0.583793 -4.45995 0
M  V30 535 C 54.0425 1.47947 -4.14487 0
M  V30 536 H 51.1615 0.108564 -0.72896 0
M  V30 537 H 53.8035 -0.418634 -1.85331 0
M  V30 538 H 51.9535 1.26935 -3.67178 0
M  V30 539 H 53.6255 -1.22224 -4.44814 0
M  V30 540 H 51.8685 -1.21615 -4.16404 0
M  V30 541 H 52.5395 -0.293287 -5.5122 0
M  V30 542 H 55.0155 0.96013 -4.04871 0
M  V30 543 H 53.8915 1.69454 -5.22088 0
M  V30 544 H 54.1525 2.47011 -3.66658 0
M  V30 545 N 53.2116 1.57565 -0.0334293 0
M  V30 546 C 54.4576 1.92262 0.645226 0
M  V30 547 C 54.7906 0.910543 1.71531 0
M  V30 548 O 54.0656 -0.066099 1.94388 0
M  V30 549 C 54.3486 3.37422 1.2577 0
M  V30 550 C 54.2016 4.49369 0.196891 0
M  V30 551 C 55.5206 3.82628 2.17449 0
M  V30 552 H 52.6396 0.699171 0.233085 0
M  V30 553 H 55.2816 1.89779 -0.0915694 0
M  V30 554 H 53.4316 3.39669 1.88566 0
M  V30 555 H 55.1036 4.59254 -0.433962 0
M  V30 556 H 53.3466 4.31168 -0.477137 0
M  V30 557 H 54.0176 5.47978 0.665124 0
M  V30 558 H 56.4936 3.82145 1.64634 0
M  V30 559 H 55.3696 4.84883 2.57254 0
M  V30 560 H 55.6306 3.18376 3.0674 0
M  V30 561 N 54.6897 -0.239769 1.55765 0
M  V30 562 C 55.9667 -0.990056 1.68693 0
M  V30 563 C 56.3467 -2.03107 0.5754 0
M  V30 564 O 55.6947 -2.24604 -0.42017 0
M  V30 565 C 55.9047 -1.61696 3.09282 0
M  V30 566 C 57.2527 -2.11613 3.6811 0
M  V30 567 O 58.2767 -1.71624 3.12127 0
M  V30 568 O 57.1357 -2.85057 4.66267 0
M  V30 569 H 54.2297 -0.461299 0.686391 0
M  V30 570 H 56.7757 -0.232991 1.68093 0
M  V30 571 H 55.5477 -0.864357 3.81634 0
M  V30 572 H 55.1707 -2.44005 3.13923 0
M  V30 573 N 56.1678 -1.49265 -0.50573 0
M  V30 574 C 57.1008 -1.60183 -1.62532 0
M  V30 575 C 58.0788 -0.451107 -1.56217 0
M  V30 576 O 59.2628 -0.666016 -1.76342 0
M  V30 577 C 56.3898 -1.55238 -3.01029 0
M  V30 578 C 55.4358 -2.7545 -3.25621 0
M  V30 579 S 56.2688 -4.37174 -3.09256 0
M  V30 580 C 57.4248 -4.34866 -4.50158 0
M  V30 581 H 57.6578 -2.54894 -1.53025 0
M  V30 582 H 55.1908 -1.38098 -0.690535 0
M  V30 583 H 57.1488 -1.53071 -3.80893 0
M  V30 584 H 55.8098 -0.618238 -3.07956 0
M  V30 585 H 55.0028 -2.68197 -4.26716 0
M  V30 586 H 54.6048 -2.75005 -2.53472 0
M  V30 587 H 56.8968 -4.06295 -5.42154 0
M  V30 588 H 57.8398 -5.36223 -4.62462 0
M  V30 589 H 58.2478 -3.65007 -4.30616 0
M  V30 590 N 57.6459 0.756429 -1.3826 0
M  V30 591 C 58.5939 1.89149 -1.35372 0
M  V30 592 C 59.5879 1.67691 -0.24004 0
M  V30 593 O 60.7939 1.75294 -0.408919 0
M  V30 594 H 57.1689 0.622271 -0.422236 0
M  V30 595 H 59.1399 1.88701 -2.31159 0
M  V30 596 C 57.8889 3.26599 -1.19284 0
M  V30 597 H 57.2119 3.43695 -2.0424 0
M  V30 598 H 58.6519 4.06274 -1.21316 0
M  V30 599 C 57.1109 3.3675 0.100454 0
M  V30 600 O 57.6409 3.86951 1.07851 0
M  V30 601 N 55.8469 2.90179 0.15633 0
M  V30 602 H 55.3939 2.49517 -0.640253 0
M  V30 603 H 55.3519 2.97352 1.02123 0
M  V30 604 N 59.124 1.23083 0.984299 0
M  V30 605 C 60.352 1.08714 1.76037 0
M  V30 606 C 60.767 -0.361691 1.85303 0
M  V30 607 O 60.124 -1.25034 1.32939 0
M  V30 608 C 60.175 1.70206 3.18923 0
M  V30 609 O 59.896 3.09423 3.10144 0
M  V30 610 C 61.397 1.61227 4.12941 0
M  V30 611 H 58.617 0.380664 0.552572 0
M  V30 612 H 61.161 1.62853 1.23689 0
M  V30 613 H 59.316 1.20109 3.6831 0
M  V30 614 H 59.73 3.39188 4.00065 0
M  V30 615 H 61.204 2.08962 5.10919 0
M  V30 616 H 61.681 0.570375 4.35481 0
M  V30 617 H 62.287 2.10671 3.69456 0
M  V30 618 N 60.6021 -1.18246 1.0419 0
M  V30 619 C 61.8791 -1.84121 0.660208 0
M  V30 620 C 62.2591 -1.92778 -0.860221 0
M  V30 621 O 61.6071 -1.45464 -1.76217 0
M  V30 622 C 61.8171 -3.22355 1.33747 0
M  V30 623 C 63.1651 -3.98376 1.46906 0
M  V30 624 O 64.1891 -3.31799 1.29568 0
M  V30 625 O 63.0481 -5.17665 1.75171 0
M  V30 626 H 60.1421 -0.794036 0.231161 0
M  V30 627 H 62.6881 -1.25628 1.14087 0
M  V30 628 H 61.4601 -3.10964 2.37522 0
M  V30 629 H 61.0831 -3.88506 0.845515 0
M  V30 630 N 62.0802 -0.821533 -1.34494 0
M  V30 631 C 63.0432 -0.247847 -2.27856 0
M  V30 632 C 64.0432 0.573453 -1.50227 0
M  V30 633 O 65.2332 0.389759 -1.69784 0
M  V30 634 C 62.3652 0.652698 -3.34593 0
M  V30 635 H 63.5582 -1.07146 -2.80107 0
M  V30 636 H 61.1112 -0.593291 -1.44602 0
M  V30 637 H 61.8462 1.49943 -2.87555 0
M  V30 638 H 61.6312 0.065292 -3.92046 0
M  V30 639 H 63.1212 1.04793 -4.04238 0
M  V30 640 N 63.5583 1.46682 -0.576371 0
M  V30 641 C 64.4683 2.34032 0.163141 0
M  V30 642 C 65.4843 1.49367 0.892501 0
M  V30 643 O 66.6603 1.82252 0.857106 0
M  V30 644 C 63.7253 3.26435 1.16795 0
M  V30 645 C 62.7863 4.26998 0.443944 0
M  V30 646 C 62.0193 5.14986 1.40088 0
M  V30 647 O 62.2423 5.05785 2.637 0
M  V30 648 O 61.1763 5.94906 0.914917 0
M  V30 649 H 65.0023 2.98607 -0.55388 0
M  V30 650 H 62.5873 1.45554 -0.336821 0
M  V30 651 H 64.4693 3.83459 1.74748 0
M  V30 652 H 63.1443 2.64465 1.86655 0
M  V30 653 H 62.0513 3.7368 -0.177271 0
M  V30 654 H 63.3843 4.91736 -0.213566 0
M  V30 655 N 65.0364 0.313813 1.54444 0
M  V30 656 C 66.2664 -0.293491 2.04505 0
M  V30 657 C 66.6744 -1.47086 1.19005 0
M  V30 658 O 66.0174 -1.82481 0.211257 0
M  V30 659 C 66.0794 -0.800455 3.50475 0
M  V30 660 C 65.7434 0.253322 4.56297 0
M  V30 661 C 66.7404 1.08612 5.08428 0
M  V30 662 C 64.4254 0.398708 5.00715 0
M  V30 663 C 66.4194 2.05013 6.0353 0
M  V30 664 C 64.1064 1.36614 5.95634 0
M  V30 665 C 65.1044 2.19033 6.46926 0
M  V30 666 O 64.7924 3.14134 7.39983 0
M  V30 667 H 64.5244 -0.0658325 0.672787 0
M  V30 668 H 67.0784 0.455177 2.00293 0
M  V30 669 H 65.3084 -1.59987 3.52053 0
M  V30 670 H 66.9974 -1.32504 3.83663 0
M  V30 671 H 67.7634 0.984736 4.74898 0
M  V30 672 H 63.6424 -0.23289 4.60411 0
M  V30 673 H 67.1864 2.69382 6.4349 0
M  V30 674 H 63.0834 1.4682 6.28581 0
M  V30 675 H 63.8514 3.0926 7.57826 0
M  V30 676 N 66.5145 -1.57545 0.0417849 0
M  V30 677 C 67.7615 -1.92317 -0.634082 0
M  V30 678 C 68.0895 -0.919334 -1.71402 0
M  V30 679 O 67.3445 0.0698253 -1.95575 0
M  V30 680 C 67.6435 -3.33794 -1.27735 0
M  V30 681 C 67.3095 -4.49716 -0.326543 0
M  V30 682 C 65.9715 -4.81156 -0.0648814 0
M  V30 683 C 68.3235 -5.20182 0.325623 0
M  V30 684 C 65.6515 -5.80414 0.856539 0
M  V30 685 C 68.0035 -6.20424 1.23518 0
M  V30 686 C 66.6675 -6.50298 1.5056 0
M  V30 687 H 65.9375 -0.703736 -0.232027 0
M  V30 688 H 68.5845 -1.91205 0.106259 0
M  V30 689 H 66.8895 -3.31228 -2.09274 0
M  V30 690 H 68.5865 -3.57975 -1.80707 0
M  V30 691 H 65.1765 -4.25176 -0.540665 0
M  V30 692 H 69.3605 -4.96112 0.136546 0
M  V30 693 H 64.6165 -6.019 1.07363 0
M  V30 694 H 68.7905 -6.74141 1.74664 0
M  V30 695 H 66.4175 -7.27025 2.22123 0
M  V30 696 N 67.9926 0.231505 -1.5589 0
M  V30 697 C 68.9556 1.27028 -1.90779 0
M  V30 698 C 69.9556 1.40308 -0.785507 0
M  V30 699 O 71.1456 1.38744 -1.05336 0
M  V30 700 C 68.2776 2.64566 -2.14983 0
M  V30 701 H 69.4706 0.973017 -2.83677 0
M  V30 702 H 67.0236 0.471486 -1.49019 0
M  V30 703 H 67.7586 2.99406 -1.24604 0
M  V30 704 H 67.5436 2.56305 -2.96732 0
M  V30 705 H 69.0336 3.39543 -2.43105 0
M  V30 706 N 69.4707 1.49531 0.497807 0
M  V30 707 C 70.7007 1.62657 1.27382 0
M  V30 708 C 71.1087 0.298488 1.86831 0
M  V30 709 O 70.4517 -0.72647 1.68725 0
M  V30 710 C 70.5137 2.6393 2.44093 0
M  V30 711 C 70.1777 4.08195 2.05489 0
M  V30 712 C 71.1747 4.949 1.59279 0
M  V30 713 C 68.8597 4.53948 2.15026 0
M  V30 714 C 70.8537 6.25397 1.23113 0
M  V30 715 C 68.5407 5.84458 1.78473 0
M  V30 716 C 69.5387 6.70006 1.32591 0
M  V30 717 O 69.2267 7.98083 0.965327 0
M  V30 718 H 68.9587 0.550429 0.392434 0
M  V30 719 H 71.5127 1.96325 0.603801 0
M  V30 720 H 69.7427 2.25449 3.14181 0
M  V30 721 H 71.4317 2.66552 3.06113 0
M  V30 722 H 72.1977 4.60779 1.51354 0
M  V30 723 H 68.0767 3.87525 2.4969 0
M  V30 724 H 71.6207 6.92125 0.872299 0
M  V30 725 H 67.5177 6.18107 1.86048 0
M  V30 726 H 68.2857 8.11122 1.09652 0
M  V30 727 N 70.9488 -0.749086 1.3866 0
M  V30 728 C 71.8808 -1.87273 1.32142 0
M  V30 729 C 72.8938 -1.61127 0.232787 0
M  V30 730 O 74.0828 -1.71623 0.49069 0
M  V30 731 C 71.1828 -3.23005 1.02571 0
M  V30 732 C 70.3558 -3.7662 2.22433 0
M  V30 733 C 69.4148 -4.90879 1.89537 0
M  V30 734 O 68.4408 -5.05276 2.62078 0
M  V30 735 N 69.6428 -5.74198 0.853031 0
M  V30 736 H 72.4078 -1.93373 2.28969 0
M  V30 737 H 69.9688 -0.929216 1.32579 0
M  V30 738 H 71.9608 -3.96992 0.786085 0
M  V30 739 H 70.5308 -3.12262 0.145249 0
M  V30 740 H 69.7508 -2.94147 2.62434 0
M  V30 741 H 71.0388 -4.09173 3.02415 0
M  V30 742 H 70.4368 -5.6514 0.25155 0
M  V30 743 H 68.9938 -6.48313 0.67329 0
M  V30 744 N 72.4269 -1.23603 -0.977757 0
M  V30 745 C 73.3599 -0.962772 -2.06896 0
M  V30 746 C 74.3379 0.0998743 -1.62293 0
M  V30 747 O 75.5219 -0.0349421 -1.88468 0
M  V30 748 C 72.6489 -0.45095 -3.35685 0
M  V30 749 C 71.6949 -1.50061 -3.99229 0
M  V30 750 S 72.5279 -3.07884 -4.38142 0
M  V30 751 C 73.6839 -2.58378 -5.7008 0
M  V30 752 H 73.9169 -1.88677 -2.29757 0
M  V30 753 H 71.4499 -1.06876 -1.11431 0
M  V30 754 H 73.4079 -0.162261 -4.10179 0
M  V30 755 H 72.0689 0.452179 -3.10828 0
M  V30 756 H 71.2619 -1.09269 -4.92013 0
M  V30 757 H 70.8639 -1.73878 -3.31123 0
M  V30 758 H 73.1559 -2.00563 -6.47133 0
M  V30 759 H 74.0989 -3.49711 -6.15717 0
M  V30 760 H 74.5069 -1.99143 -5.28207 0
M  V30 761 N 73.905 1.17692 -1.04816 0
M  V30 762 C 75.321 1.39863 -0.768794 0
M  V30 763 C 75.521 1.91118 0.638451 0
M  V30 764 O 74.577 2.10036 1.40146 0
M  V30 765 C 75.89 2.39274 -1.82122 0
M  V30 766 C 77.438 2.52987 -1.843 0
M  V30 767 C 77.913 3.55669 -2.88555 0
M  V30 768 N 79.404 3.63183 -2.87493 0
M  V30 769 C 80.139 4.42381 -3.64811 0
M  V30 770 N 79.635 5.25125 -4.51903 0
M  V30 771 N 81.428 4.37217 -3.53267 0
M  V30 772 H 73.579 0.82752 -1.95617 0
M  V30 773 H 75.842 0.426123 -0.846831 0
M  V30 774 H 75.548 2.08678 -2.83102 0
M  V30 775 H 75.422 3.38725 -1.65967 0
M  V30 776 H 77.809 2.82896 -0.839869 0
M  V30 777 H 77.89 1.53623 -2.04532 0
M  V30 778 H 77.534 3.26499 -3.89051 0
M  V30 779 H 77.464 4.54728 -2.65575 0
M  V30 780 H 79.955 3.04103 -2.24343 0
M  V30 781 H 80.268 5.82728 -5.07591 0
M  V30 782 H 78.613 5.24519 -4.55966 0
M  V30 783 H 81.804 3.71626 -2.84625 0
M  V30 784 H 81.977 4.98696 -4.13771 0
M  V30 785 N 75.3831 0.828654 1.34056 0
M  V30 786 C 76.6131 0.431993 2.02033 0
M  V30 787 C 77.0211 -0.96844 1.62536 0
M  V30 788 O 76.3641 -1.6391 0.829408 0
M  V30 789 C 76.4261 0.461224 3.56529 0
M  V30 790 C 76.0901 1.81599 4.1937 0
M  V30 791 C 77.0871 2.7777 4.39477 0
M  V30 792 C 74.7721 2.10604 4.56017 0
M  V30 793 C 76.7661 4.01115 4.95364 0
M  V30 794 C 74.4531 3.34207 5.11614 0
M  V30 795 C 75.4511 4.2928 5.31232 0
M  V30 796 O 75.1391 5.50699 5.8565 0
M  V30 797 H 74.8711 0.170943 0.654029 0
M  V30 798 H 77.4251 1.11988 1.72185 0
M  V30 799 H 75.6551 -0.283388 3.8566 0
M  V30 800 H 77.3441 0.0838149 4.05813 0
M  V30 801 H 78.1101 2.56659 4.11523 0
M  V30 802 H 73.9891 1.37402 4.40047 0
M  V30 803 H 77.5331 4.75333 5.10592 0
M  V30 804 H 73.4301 3.55179 5.38997 0
M  V30 805 H 74.1981 5.52298 6.04077 0
M  V30 806 N 76.8612 -1.46375 0.584142 0
M  V30 807 C 78.1382 -1.956 0.0033388 0
M  V30 808 C 78.5182 -1.52679 -1.45782 0
M  V30 809 O 77.8662 -0.77816 -2.14842 0
M  V30 810 C 78.0762 -3.48551 0.176891 0
M  V30 811 C 79.4242 -4.24576 0.0454609 0
M  V30 812 O 80.4482 -3.56043 0.105801 0
M  V30 813 O 79.3072 -5.46427 -0.0890376 0
M  V30 814 H 76.4012 -0.825547 -0.0490066 0
M  V30 815 H 78.9472 -1.56652 0.65256 0
M  V30 816 H 77.7192 -3.72683 1.1926 0
M  V30 817 H 77.3422 -3.94332 -0.508695 0
M  V30 818 N 78.3393 -0.321999 -1.54275 0
M  V30 819 C 79.5673 0.283052 -2.04955 0
M  V30 820 C 79.9823 1.45904 -1.19823 0
M  V30 821 O 79.3393 1.81063 -0.228545 0
M  V30 822 C 79.3903 0.719028 -3.54277 0
M  V30 823 O 79.1113 -0.410175 -4.36176 0
M  V30 824 C 80.6123 1.38705 -4.21041 0
M  V30 825 H 77.8323 0.0584616 -0.668448 0
M  V30 826 H 80.3763 -0.467734 -1.99079 0
M  V30 827 H 78.5313 1.41979 -3.60445 0
M  V30 828 H 78.9453 -0.0669416 -5.24457 0
M  V30 829 H 80.4193 1.64306 -5.2698 0
M  V30 830 H 80.8963 2.33385 -3.72059 0
M  V30 831 H 81.5023 0.728906 -4.19007 0
M  V30 832 N 79.8174 1.5752 -0.0501392 0
M  V30 833 C 81.0634 1.92936 0.624798 0
M  V30 834 C 81.3964 0.928685 1.70555 0
M  V30 835 O 80.6714 -0.0454779 1.94447 0
M  V30 836 C 80.9544 3.38737 1.22185 0
M  V30 837 C 80.8074 4.49552 0.149218 0
M  V30 838 C 82.1264 3.84913 2.13378 0
M  V30 839 H 79.2454 0.701604 0.225657 0
M  V30 840 H 81.8874 1.89671 -0.111693 0
M  V30 841 H 80.0374 3.4165 1.84953 0
M  V30 842 H 81.7094 4.58768 -0.482648 0
M  V30 843 H 79.9524 4.30638 -0.522841 0
M  V30 844 H 80.6234 5.48653 0.606966 0
M  V30 845 H 83.0994 3.8387 1.60572 0
M  V30 846 H 81.9754 4.87584 2.52097 0
M  V30 847 H 82.2364 3.21611 3.03346 0
M  V30 848 N 81.2955 -0.223234 1.56011 0
M  V30 849 C 82.2455 -1.28008 1.88674 0
M  V30 850 C 83.2295 -1.42369 0.749663 0
M  V30 851 O 84.4215 -1.45212 1.01205 0
M  V30 852 C 81.5505 -2.63084 2.20548 0
M  V30 853 C 80.6365 -2.52632 3.40643 0
M  V30 854 N 81.0275 -2.11829 4.59306 0
M  V30 855 C 79.3255 -2.83594 3.44224 0
M  V30 856 C 80.0265 -2.12587 5.41463 0
M  V30 857 N 79.0025 -2.5301 4.81131 0
M  V30 858 H 82.8045 -0.955487 2.77935 0
M  V30 859 H 80.3185 -0.431801 1.56554 0
M  V30 860 H 82.3155 -3.39385 2.42122 0
M  V30 861 H 80.9755 -2.96391 1.32599 0
M  V30 862 H 81.9865 -1.82988 4.84496 0
M  V30 863 H 78.6635 -3.21284 2.66614 0
M  V30 864 H 80.0535 -1.83179 6.46448 0
M  V30 865 N 82.7736 -1.49793 -0.48987 0
M  V30 866 C 84.0216 -1.59525 -1.24081 0
M  V30 867 C 84.3426 -0.288953 -1.92847 0
M  V30 868 O 83.6126 0.692436 -1.83254 0
M  V30 869 H 82.1926 -0.587796 -0.460983 0
M  V30 870 H 84.8546 -1.86477 -0.566778 0
M  V30 871 H 83.9506 -2.39696 -1.99881 0
M  V30 872 N 84.2517 0.741722 -1.39055 0
M  V30 873 C 85.1987 1.85566 -1.37237 0
M  V30 874 C 86.1687 1.64457 -0.233072 0
M  V30 875 O 87.3537 1.85957 -0.427147 0
M  V30 876 C 84.4937 3.23004 -1.215 0
M  V30 877 C 83.6067 3.55864 -2.44918 0
M  V30 878 C 82.7417 4.82669 -2.21821 0
M  V30 879 C 81.7807 5.08351 -3.40948 0
M  V30 880 N 80.9177 6.26356 -3.17211 0
M  V30 881 H 85.7577 1.86455 -2.32462 0
M  V30 882 H 83.2947 0.911176 -1.15482 0
M  V30 883 H 85.2527 4.02331 -1.10389 0
M  V30 884 H 83.8827 3.21411 -0.29908 0
M  V30 885 H 82.9347 2.7129 -2.66657 0
M  V30 886 H 84.2467 3.70765 -3.33668 0
M  V30 887 H 83.4007 5.69962 -2.07914 0
M  V30 888 H 82.1397 4.69929 -1.30454 0
M  V30 889 H 81.1447 4.19522 -3.55361 0
M  V30 890 H 82.3697 5.22981 -4.33207 0
M  V30 891 H 80.3157 6.14917 -2.28502 0
M  V30 892 H 80.2327 6.41813 -3.99515 0
M  V30 893 H 81.5007 7.16506 -3.06984 0
M  V30 894 N 85.7298 1.2412 0.971189 0
M  V30 895 C 86.9768 1.07881 1.71371 0
M  V30 896 C 87.3048 -0.382901 1.90694 0
M  V30 897 O 86.5598 -1.29945 1.46331 0
M  V30 898 C 86.8588 1.75983 3.11071 0
M  V30 899 C 86.5248 3.25909 3.11599 0
M  V30 900 C 85.1868 3.66813 3.11451 0
M  V30 901 C 87.5388 4.21771 3.062 0
M  V30 902 C 84.8668 5.02021 3.03631 0
M  V30 903 C 87.2188 5.56982 2.99923 0
M  V30 904 C 85.8828 5.97237 2.98102 0
M  V30 905 H 85.1528 0.394764 0.62709 0
M  V30 906 H 87.7998 1.54176 1.13587 0
M  V30 907 H 86.1048 1.22072 3.72298 0
M  V30 908 H 87.8018 1.60887 3.6731 0
M  V30 909 H 84.3918 2.93353 3.12477 0
M  V30 910 H 88.5758 3.91172 3.05447 0
M  V30 911 H 83.8318 5.32411 3.0058 0
M  V30 912 H 88.0058 6.30969 2.94704 0
M  V30 913 H 85.6328 7.01967 2.91798 0
M  V30 914 N 87.2079 -1.17134 1.05439 0
M  V30 915 C 88.1549 -2.21235 0.657539 0
M  V30 916 C 89.1249 -1.62551 -0.341543 0
M  V30 917 O 90.3099 -1.89379 -0.232393 0
M  V30 918 C 87.4499 -3.45076 0.0410575 0
M  V30 919 C 86.5629 -4.18042 1.08927 0
M  V30 920 C 85.6979 -5.29376 0.439848 0
M  V30 921 C 84.7369 -5.94132 1.4722 0
M  V30 922 N 83.8739 -6.96975 0.846756 0
M  V30 923 H 88.7139 -2.54534 1.54972 0
M  V30 924 H 86.2509 -1.25028 0.775006 0
M  V30 925 H 88.2089 -4.15862 -0.33383 0
M  V30 926 H 86.8389 -3.12353 -0.814568 0
M  V30 927 H 85.8909 -3.45945 1.58196 0
M  V30 928 H 87.2029 -4.62306 1.87282 0
M  V30 929 H 86.3569 -6.06699 0.0115125 0
M  V30 930 H 85.0959 -4.86251 -0.375656 0
M  V30 931 H 84.1009 -5.15538 1.91052 0
M  V30 932 H 85.3259 -6.39337 2.28965 0
M  V30 933 H 83.2719 -6.5598 0.0518075 0
M  V30 934 H 83.1889 -7.39565 1.5678 0
M  V30 935 H 84.4569 -7.78239 0.443277 0
M  V30 936 N 88.686 -0.835752 -1.33615 0
M  V30 937 C 89.916 -0.442701 -2.01801 0
M  V30 938 C 90.324 0.959807 -1.63047 0
M  V30 939 O 89.667 1.63468 -0.838088 0
M  V30 940 C 89.729 -0.480125 -3.56279 0
M  V30 941 C 89.393 -1.8382 -4.18401 0
M  V30 942 C 90.39 -2.80097 -4.37998 0
M  V30 943 C 88.075 -2.13019 -4.54894 0
M  V30 944 C 90.069 -4.03736 -4.9323 0
M  V30 945 C 87.756 -3.36916 -5.09834 0
M  V30 946 C 88.754 -4.32091 -5.28948 0
M  V30 947 O 88.442 -5.53797 -5.82721 0
M  V30 948 H 88.174 -0.17441 -0.653114 0
M  V30 949 H 90.728 -1.129 -1.71589 0
M  V30 950 H 88.958 0.262931 -3.85805 0
M  V30 951 H 90.647 -0.105335 -4.05763 0
M  V30 952 H 91.413 -2.58838 -4.10156 0
M  V30 953 H 87.292 -1.39733 -4.39313 0
M  V30 954 H 90.836 -4.78034 -5.08064 0
M  V30 955 H 86.733 -3.58033 -5.37106 0
M  V30 956 H 87.501 -5.55494 -6.0114 0
M  V30 957 N 90.1641 1.46063 -0.591896 0
M  V30 958 C 91.0741 2.34192 0.13831 0
M  V30 959 C 92.0901 1.50305 0.876608 0
M  V30 960 O 93.2661 1.8315 0.837728 0
M  V30 961 C 90.3311 3.27656 1.13326 0
M  V30 962 C 89.3921 4.27445 0.39863 0
M  V30 963 C 88.6251 5.16443 1.34618 0
M  V30 964 O 88.8481 5.08553 2.58321 0
M  V30 965 O 87.7821 5.95843 0.851768 0
M  V30 966 H 91.6081 2.98002 -0.58552 0
M  V30 967 H 89.1931 1.45188 -0.352239 0
M  V30 968 H 91.0751 3.85291 1.70671 0
M  V30 969 H 89.7501 2.6643 1.83839 0
M  V30 970 H 88.6571 3.73471 -0.216895 0
M  V30 971 H 89.9901 4.91482 -0.265709 0
M  V30 972 N 91.6422 0.330177 1.54103 0
M  V30 973 C 92.8882 -0.270806 2.00984 0
M  V30 974 C 93.2212 -1.51265 1.21789 0
M  V30 975 O 92.4962 -1.92142 0.301927 0
M  V30 976 C 92.7792 -0.598339 3.55094 0
M  V30 977 C 92.6322 0.654674 4.4501 0
M  V30 978 C 93.9512 -1.41334 4.16789 0
M  V30 979 H 91.0702 -0.0969531 0.730595 0
M  V30 980 H 93.7122 0.448066 1.84641 0
M  V30 981 H 91.8622 -1.21078 3.69151 0
M  V30 982 H 93.5342 1.29285 4.42813 0
M  V30 983 H 91.7772 1.28224 4.14416 0
M  V30 984 H 92.4482 0.380944 5.50684 0
M  V30 985 H 94.9242 -0.895597 4.06347 0
M  V30 986 H 93.8002 -1.61127 5.24718 0
M  V30 987 H 94.0612 -2.41146 3.70541 0
M  V30 988 N 93.1203 -1.57491 0.0584922 0
M  V30 989 C 94.3483 -1.97296 -0.623037 0
M  V30 990 C 94.7633 -0.936338 -1.63946 0
M  V30 991 O 94.1203 0.0785981 -1.82331 0
M  V30 992 C 94.1713 -3.37183 -1.30345 0
M  V30 993 O 93.8923 -4.36872 -0.32773 0
M  V30 994 C 95.3933 -3.91788 -2.07406 0
M  V30 995 H 92.6133 -0.649153 -0.169826 0
M  V30 996 H 95.1573 -2.04106 0.12696 0
M  V30 997 H 93.3123 -3.31502 -2.00463 0
M  V30 998 H 93.7263 -5.18141 -0.814269 0
M  V30 999 H 95.2003 -4.91926 -2.50425 0
M  V30 1000 H 95.6773 -3.27609 -2.92521 0
M  V30 1001 H 96.2833 -4.00829 -1.42184 0
M  V30 1002 N 94.5984 0.214957 -1.56127 0
M  V30 1003 C 95.8264 0.955092 -1.83536 0
M  V30 1004 C 96.2414 1.77677 -0.638472 0
M  V30 1005 O 95.5984 1.78219 0.392968 0
M  V30 1006 C 95.6494 1.86734 -3.09536 0
M  V30 1007 O 95.3704 1.07887 -4.24608 0
M  V30 1008 C 96.8714 2.72082 -3.4998 0
M  V30 1009 H 94.0914 0.279611 -0.609966 0
M  V30 1010 H 96.6354 0.228197 -2.03223 0
M  V30 1011 H 94.7904 2.5481 -2.91806 0
M  V30 1012 H 95.2044 1.69872 -4.9623 0
M  V30 1013 H 96.6784 3.31782 -4.41163 0
M  V30 1014 H 97.1554 3.44806 -2.7204 0
M  V30 1015 H 97.7614 2.09409 -3.70173 0
M  V30 1016 N 96.0765 1.50051 0.48192 0
M  V30 1017 C 97.3045 1.64237 1.25832 0
M  V30 1018 C 97.7195 0.321336 1.86045 0
M  V30 1019 O 97.0765 -0.695478 1.68729 0
M  V30 1020 C 97.1275 2.72548 2.37487 0
M  V30 1021 O 96.8485 3.99529 1.79745 0
M  V30 1022 C 98.3495 2.9761 3.28547 0
M  V30 1023 H 95.5695 0.55237 0.380957 0
M  V30 1024 H 98.1135 1.96207 0.576467 0
M  V30 1025 H 96.2685 2.43303 3.01467 0
M  V30 1026 H 96.6825 4.59342 2.5319 0
M  V30 1027 H 98.1565 3.77084 4.03127 0
M  V30 1028 H 98.6335 2.0826 3.86684 0
M  V30 1029 H 99.2395 3.28345 2.70314 0
M  V30 1030 N 97.5546 -0.734337 1.39446 0
M  V30 1031 C 98.5016 -1.84835 1.38219 0
M  V30 1032 C 99.4716 -1.64331 0.24179 0
M  V30 1033 O 100.657 -1.85728 0.437002 0
M  V30 1034 C 97.7966 -3.22355 1.23212 0
M  V30 1035 C 96.9096 -3.5456 2.46801 0
M  V30 1036 C 96.0446 -4.81485 2.24377 0
M  V30 1037 C 95.0836 -5.06536 3.43639 0
M  V30 1038 N 94.2206 -6.24665 3.20528 0
M  V30 1039 H 99.0606 -1.85219 2.33448 0
M  V30 1040 H 96.5976 -0.905039 1.15963 0
M  V30 1041 H 98.5556 -4.0174 1.12522 0
M  V30 1042 H 97.1856 -3.21248 0.316121 0
M  V30 1043 H 96.2376 -2.69872 2.68092 0
M  V30 1044 H 97.5496 -3.6899 3.3563 0
M  V30 1045 H 96.7036 -5.68852 2.10933 0
M  V30 1046 H 95.4426 -4.6923 1.32944 0
M  V30 1047 H 94.4476 -4.17632 3.5758 0
M  V30 1048 H 95.6726 -5.20676 4.35974 0
M  V30 1049 H 93.6186 -6.13696 2.3176 0
M  V30 1050 H 93.5356 -6.39685 4.02913 0
M  V30 1051 H 94.8036 -7.14868 3.10779 0
M  V30 1052 N 99.0327 -1.24633 -0.964593 0
M  V30 1053 C 100.258 -1.11596 -1.74818 0
M  V30 1054 C 100.683 0.32723 -1.85232 0
M  V30 1055 O 100.041 1.23695 -1.32549 0
M  V30 1056 C 100.089 -1.76397 -3.1451 0
M  V30 1057 O 99.1927 -1.03685 -3.99153 0
M  V30 1058 H 98.5337 -0.390196 -0.537255 0
M  V30 1059 H 101.064 -1.65002 -1.20977 0
M  V30 1060 H 101.074 -1.8228 -3.65018 0
M  V30 1061 H 99.7487 -2.81401 -3.06246 0
M  V30 1062 H 98.3257 -1.05611 -3.57632 0
M  V30 1063 N 100.511 1.16574 -1.06058 0
M  V30 1064 C 101.736 1.91493 -0.796562 0
M  V30 1065 C 102.161 1.76773 0.642868 0
M  V30 1066 O 101.519 1.09142 1.44768 0
M  V30 1067 C 101.567 3.40293 -1.19303 0
M  V30 1068 O 100.671 4.11074 -0.330394 0
M  V30 1069 H 100.012 0.596678 -0.291326 0
M  V30 1070 H 102.542 1.47708 -1.41575 0
M  V30 1071 H 102.552 3.91057 -1.16356 0
M  V30 1072 H 101.227 3.50326 -2.24153 0
M  V30 1073 H 99.8038 3.70513 -0.421225 0
M  V30 1074 N 101.989 0.842826 1.3317 0
M  V30 1075 C 103.4 0.496651 1.79973 0
M  V30 1076 C 103.751 -0.984641 1.69703 0
M  V30 1077 O 102.876 -1.76743 1.24863 0
M  V30 1078 C 103.471 0.894727 3.26772 0
M  V30 1079 C 102.03 0.600629 3.71577 0
M  V30 1080 C 101.177 1.10091 2.5451 0
M  V30 1081 H 104.128 1.03116 1.20635 0
M  V30 1082 H 104.149 0.206347 3.7994 0
M  V30 1083 H 103.661 1.97287 3.34215 0
M  V30 1084 H 101.762 -0.467284 3.69658 0
M  V30 1085 H 101.875 1.15863 4.64879 0
M  V30 1086 H 100.239 0.52162 2.49301 0
M  V30 1087 H 101.022 2.18591 2.64713 0
M  V30 1088 N 103.467 -1.45747 0.599634 0
M  V30 1089 C 104.692 -2.07178 0.0960198 0
M  V30 1090 C 105.117 -1.44268 -1.207 0
M  V30 1091 O 104.475 -0.532503 -1.73303 0
M  V30 1092 C 104.523 -3.60579 -0.0385348 0
M  V30 1093 O 103.627 -3.97713 -1.0908 0
M  V30 1094 H 102.968 -0.660251 0.0704593 0
M  V30 1095 H 105.498 -1.87124 0.827385 0
M  V30 1096 H 105.508 -4.07298 -0.239304 0
M  V30 1097 H 104.183 -4.05756 0.912947 0
M  V30 1098 H 102.76 -3.62678 -0.867135 0
M  V30 1099 N 104.945 -0.338344 -1.53925 0
M  V30 1100 C 106.191 0.260143 -2.01125 0
M  V30 1101 C 106.524 1.50617 -1.22589 0
M  V30 1102 O 105.799 1.91979 -0.312113 0
M  V30 1103 C 106.082 0.579499 -3.55407 0
M  V30 1104 C 105.935 -0.678264 -4.44657 0
M  V30 1105 C 107.254 1.39122 -4.17532 0
M  V30 1106 H 104.373 0.0930772 -0.731099 0
M  V30 1107 H 107.015 -0.457852 -1.84401 0
M  V30 1108 H 105.165 1.19118 -3.69788 0
M  V30 1109 H 106.837 -1.31631 -4.42121 0
M  V30 1110 H 105.08 -1.3042 -4.13731 0
M  V30 1111 H 105.751 -0.410143 -5.50474 0
M  V30 1112 H 108.227 0.874035 -4.06817 0
M  V30 1113 H 107.103 1.58342 -5.25565 0
M  V30 1114 H 107.364 2.39178 -3.71815 0
M  V30 1115 N 106.423 1.57458 -0.0668435 0
M  V30 1116 C 107.386 2.11323 0.887422 0
M  V30 1117 C 108.386 1.03618 1.22964 0
M  V30 1118 O 109.576 1.29626 1.16373 0
M  V30 1119 C 106.708 2.61048 2.19242 0
M  V30 1120 H 107.901 2.96942 0.420194 0
M  V30 1121 H 105.454 1.55239 0.181793 0
M  V30 1122 H 106.189 1.78868 2.70512 0
M  V30 1123 H 105.974 3.39769 1.95702 0
M  V30 1124 H 107.464 3.02814 2.87565 0
M  V30 1125 N 107.901 -0.206675 1.56239 0
M  V30 1126 C 108.848 -1.25617 1.93621 0
M  V30 1127 C 109.818 -1.45824 0.795274 0
M  V30 1128 O 111.003 -1.59148 1.05245 0
M  V30 1129 C 108.143 -2.59839 2.27107 0
M  V30 1130 C 107.256 -2.47308 3.54207 0
M  V30 1131 C 106.391 -3.74155 3.7707 0
M  V30 1132 C 105.43 -3.56407 4.97635 0
M  V30 1133 N 104.567 -4.75238 5.1681 0
M  V30 1134 H 109.407 -0.930383 2.83104 0
M  V30 1135 H 106.944 -0.448065 1.4011 0
M  V30 1136 H 108.902 -3.38021 2.44535 0
M  V30 1137 H 107.532 -2.90485 1.40778 0
M  V30 1138 H 106.584 -1.60483 3.4489 0
M  V30 1139 H 107.896 -2.30122 4.42544 0
M  V30 1140 H 107.05 -4.60778 3.94675 0
M  V30 1141 H 105.789 -3.94282 2.87042 0
M  V30 1142 H 104.794 -2.68168 4.79964 0
M  V30 1143 H 106.019 -3.37736 5.89161 0
M  V30 1144 H 103.965 -4.95651 4.29728 0
M  V30 1145 H 103.882 -4.60835 5.99306 0
M  V30 1146 H 105.15 -5.63246 5.38864 0
M  V30 1147 N 109.379 -1.50304 -0.473955 0
M  V30 1148 C 110.656 -1.51667 -1.23518 0
M  V30 1149 C 111.036 -0.259701 -2.09496 0
M  V30 1150 O 110.384 0.756986 -2.15597 0
M  V30 1151 C 110.594 -2.81082 -2.06868 0
M  V30 1152 C 111.942 -3.31631 -2.65153 0
M  V30 1153 O 112.966 -2.82384 -2.17113 0
M  V30 1154 O 111.825 -4.17471 -3.52675 0
M  V30 1155 H 108.919 -0.60822 -0.560355 0
M  V30 1156 H 111.465 -1.62592 -0.486011 0
M  V30 1157 H 110.237 -3.64041 -1.4349 0
M  V30 1158 H 109.86 -2.73146 -2.88924 0
M  V30 1159 N 110.857 0.726932 -1.39834 0
M  V30 1160 C 112.134 1.47902 -1.28001 0
M  V30 1161 C 112.514 2.1083 0.106789 0
M  V30 1162 O 111.862 1.99242 1.11869 0
M  V30 1163 C 112.072 2.52392 -2.41038 0
M  V30 1164 C 113.42 3.18546 -2.80737 0
M  V30 1165 O 114.444 2.62708 -2.40547 0
M  V30 1166 O 113.303 4.19604 -3.50135 0
M  V30 1167 H 110.397 0.657163 -0.502062 0
M  V30 1168 H 112.943 0.760071 -1.51727 0
M  V30 1169 H 111.715 2.04329 -3.33715 0
M  V30 1170 H 111.338 3.31837 -2.19021 0
M  V30 1171 N 112.336 1.25143 0.95797 0
M  V30 1172 C 113.564 1.12424 1.73691 0
M  V30 1173 C 113.979 -0.322304 1.86029 0
M  V30 1174 O 113.336 -1.22186 1.35561 0
M  V30 1175 C 113.387 1.76933 3.15241 0
M  V30 1176 O 113.108 3.15932 3.03511 0
M  V30 1177 C 114.609 1.6995 4.09429 0
M  V30 1178 H 111.829 0.3923 0.544373 0
M  V30 1179 H 114.373 1.6544 1.20207 0
M  V30 1180 H 112.528 1.27895 3.6568 0
M  V30 1181 H 112.942 3.47598 3.9278 0
M  V30 1182 H 114.416 2.19753 5.06372 0
M  V30 1183 H 114.893 0.662619 4.34173 0
M  V30 1184 H 115.499 2.18461 3.64904 0
M  V30 1185 N 113.814 -1.1601 1.06675 0
M  V30 1186 C 114.744 -2.22688 0.702307 0
M  V30 1187 C 115.725 -1.67306 -0.307032 0
M  V30 1188 O 116.91 -1.93352 -0.181305 0
M  V30 1189 C 114.04 -3.47178 0.092038 0
M  V30 1190 C 112.994 -4.15477 1.02777 0
M  V30 1191 C 112.32 -5.33963 0.28061 0
M  V30 1192 C 113.62 -4.66019 2.35846 0
M  V30 1193 H 115.314 -2.53429 1.59419 0
M  V30 1194 H 112.86 -1.21813 0.767961 0
M  V30 1195 H 114.813 -4.21037 -0.174814 0
M  V30 1196 H 113.537 -3.15749 -0.834877 0
M  V30 1197 H 112.196 -3.43549 1.27944 0
M  V30 1198 H 111.844 -4.98788 -0.649545 0
M  V30 1199 H 111.544 -5.806 0.904258 0
M  V30 1200 H 113.068 -6.10596 0.021396 0
M  V30 1201 H 114.482 -5.3144 2.15045 0
M  V30 1202 H 112.879 -5.23293 2.93743 0
M  V30 1203 H 113.949 -3.82023 2.98641 0
M  V30 1204 N 115.292 -0.849877 -1.32721 0
M  V30 1205 C 116.538 -0.451591 -1.97708 0
M  V30 1206 C 116.871 0.989175 -1.6712 0
M  V30 1207 O 116.146 1.69334 -0.956891 0
M  V30 1208 C 116.429 -0.685598 -3.53513 0
M  V30 1209 C 116.282 -2.17444 -3.93749 0
M  V30 1210 C 117.601 -0.138874 -4.39881 0
M  V30 1211 H 114.72 -0.16555 -0.718166 0
M  V30 1212 H 117.362 -1.06742 -1.57182 0
M  V30 1213 H 115.512 -0.161416 -3.88165 0
M  V30 1214 H 117.184 -2.76433 -3.693 0
M  V30 1215 H 115.427 -2.65476 -3.43081 0
M  V30 1216 H 116.098 -2.28888 -5.02309 0
M  V30 1217 H 118.574 -0.587068 -4.11938 0
M  V30 1218 H 117.45 -0.332213 -5.47894 0
M  V30 1219 H 117.711 0.95806 -4.31594 0
M  V30 1220 N 116.77 1.45427 -0.607355 0
M  V30 1221 C 118.016 2.0254 -0.102607 0
M  V30 1222 C 118.349 1.47478 1.26348 0
M  V30 1223 O 117.624 0.64939 1.83339 0
M  V30 1224 C 117.907 3.60044 -0.0634347 0
M  V30 1225 C 117.76 4.2544 -1.46017 0
M  V30 1226 C 119.079 4.35646 0.624514 0
M  V30 1227 H 116.198 0.73598 -0.0387607 0
M  V30 1228 H 118.84 1.73284 -0.779282 0
M  V30 1229 H 116.99 3.85101 0.512808 0
M  V30 1230 H 118.662 4.11569 -2.08347 0
M  V30 1231 H 116.905 3.83849 -2.02094 0
M  V30 1232 H 117.576 5.34342 -1.385 0
M  V30 1233 H 120.052 4.15882 0.134723 0
M  V30 1234 H 118.928 5.45376 0.621028 0
M  V30 1235 H 119.189 4.08501 1.69055 0
M  V30 1236 N 118.248 0.346503 1.53744 0
M  V30 1237 C 119.196 -0.52422 2.26616 0
M  V30 1238 C 120.19 -1.09948 1.28871 0
M  V30 1239 O 121.396 -1.04488 1.46568 0
M  V30 1240 H 117.771 -0.187743 0.728187 0
M  V30 1241 H 119.742 0.11239 2.98188 0
M  V30 1242 C 118.491 -1.66186 3.05414 0
M  V30 1243 H 117.814 -1.22848 3.80458 0
M  V30 1244 H 119.254 -2.24622 3.59612 0
M  V30 1245 C 117.713 -2.59302 2.1509 0
M  V30 1246 O 118.243 -3.61628 1.74895 0
M  V30 1247 N 116.449 -2.28055 1.8011 0
M  V30 1248 H 115.996 -1.44883 2.12994 0
M  V30 1249 H 115.954 -2.90615 1.19958 0
M  V30 1250 N 119.726 -1.57421 0.075193 0
M  V30 1251 C 120.974 -1.93236 -0.591974 0
M  V30 1252 C 121.295 -0.956241 -1.69944 0
M  V30 1253 O 120.565 -0.00494792 -1.95899 0
M  V30 1254 H 119.145 -0.713355 -0.22166 0
M  V30 1255 H 121.807 -1.9444 0.133848 0
M  V30 1256 H 120.903 -2.95131 -1.01509 0
M  V30 1257 N 121.204 0.198386 -1.56346 0
M  V30 1258 C 122.154 1.2499 -1.90687 0
M  V30 1259 C 123.138 1.41158 -0.772217 0
M  V30 1260 O 124.33 1.43584 -1.03502 0
M  V30 1261 C 121.459 2.59542 -2.24706 0
M  V30 1262 C 120.545 2.47181 -3.44619 0
M  V30 1263 N 120.936 2.04495 -4.62618 0
M  V30 1264 C 119.234 2.78082 -3.48692 0
M  V30 1265 C 119.935 2.03945 -5.44776 0
M  V30 1266 N 118.911 2.45323 -4.85095 0
M  V30 1267 H 122.713 0.911149 -2.7942 0
M  V30 1268 H 120.227 0.40684 -1.57221 0
M  V30 1269 H 122.224 3.3549 -2.47491 0
M  V30 1270 H 120.884 2.94244 -1.37298 0
M  V30 1271 H 121.895 1.75256 -4.87345 0
M  V30 1272 H 118.572 3.17002 -2.71691 0
M  V30 1273 H 119.962 1.72872 -6.4928 0
M  V30 1274 N 122.682 1.50554 0.465978 0
M  V30 1275 C 124.098 1.38093 0.800154 0
M  V30 1276 C 124.298 0.440988 1.96615 0
M  V30 1277 O 123.354 -0.114499 2.5224 0
M  V30 1278 C 124.667 2.79565 1.10742 0
M  V30 1279 C 126.215 2.88516 1.21357 0
M  V30 1280 C 126.69 4.30833 1.55393 0
M  V30 1281 N 128.181 4.33807 1.62375 0
M  V30 1282 C 128.916 5.40927 1.90225 0
M  V30 1283 N 128.412 6.58247 2.16062 0
M  V30 1284 N 130.205 5.28376 1.9177 0
M  V30 1285 H 122.356 2.10237 -0.302366 0
M  V30 1286 H 124.619 0.945203 -0.0727746 0
M  V30 1287 H 124.325 3.50208 0.323661 0
M  V30 1288 H 124.199 3.17125 2.04234 0
M  V30 1289 H 126.586 2.1809 1.98799 0
M  V30 1290 H 126.667 2.54492 0.258321 0
M  V30 1291 H 126.311 5.01799 0.784889 0
M  V30 1292 H 126.241 4.62347 2.52076 0
M  V30 1293 H 128.732 3.49212 1.44427 0
M  V30 1294 H 129.045 7.3569 2.36601 0
M  V30 1295 H 127.39 6.61413 2.13444 0
M  V30 1296 H 130.581 4.35715 1.71085 0
M  V30 1297 H 130.754 6.11944 2.13139 0
M  V30 1298 N 124.16 -0.719506 1.40217 0
M  V30 1299 C 125.409 -1.47486 1.37589 0
M  V30 1300 C 125.722 -1.9559 -0.0201568 0
M  V30 1301 O 126.928 -2.70973 -0.169049 0
M  V30 1302 C 125.384 -2.66575 2.41796 0
M  V30 1303 C 124.992 -2.25358 3.87192 0
M  V30 1304 C 126.736 -3.4433 2.48269 0
M  V30 1305 C 124.643 -3.41262 4.83005 0
M  V30 1306 H 123.573 -0.553901 0.511576 0
M  V30 1307 H 126.224 -0.783427 1.65936 0
M  V30 1308 H 124.606 -3.3787 2.06543 0
M  V30 1309 H 125.78 -1.61509 4.31569 0
M  V30 1310 H 124.095 -1.60657 3.84159 0
M  V30 1311 H 126.692 -4.30569 3.17041 0
M  V30 1312 H 127.035 -3.87872 1.51198 0
M  V30 1313 H 127.568 -2.80076 2.82493 0
M  V30 1314 H 124.307 -3.02755 5.81394 0
M  V30 1315 H 123.827 -4.0404 4.43297 0
M  V30 1316 H 125.506 -4.07383 5.02641 0
M  V30 1317 N 125.638 -1.25649 -0.95132 0
M  V30 1318 C 126.568 -1.08808 -2.06599 0
M  V30 1319 C 127.549 0.00382547 -1.701 0
M  V30 1320 O 128.734 -0.166325 -1.93486 0
M  V30 1321 C 125.864 -0.709542 -3.39975 0
M  V30 1322 C 124.818 -1.75206 -3.90496 0
M  V30 1323 C 124.144 -1.22811 -5.20405 0
M  V30 1324 C 125.444 -3.15153 -4.16504 0
M  V30 1325 H 127.138 -2.02048 -2.20946 0
M  V30 1326 H 124.684 -0.972835 -1.06169 0
M  V30 1327 H 126.637 -0.578649 -4.17408 0
M  V30 1328 H 125.361 0.258556 -3.25575 0
M  V30 1329 H 124.02 -1.87145 -3.15234 0
M  V30 1330 H 123.668 -0.250145 -5.02378 0
M  V30 1331 H 123.368 -1.92492 -5.55176 0
M  V30 1332 H 124.892 -1.10968 -6.00432 0
M  V30 1333 H 126.306 -3.06349 -4.84586 0
M  V30 1334 H 124.703 -3.82333 -4.62538 0
M  V30 1335 H 125.773 -3.61966 -3.22658 0
M  V30 1336 N 127.117 1.15442 -1.07289 0
M  V30 1337 C 128.357 1.8788 -0.805012 0
M  V30 1338 C 128.721 1.80413 0.656907 0
M  V30 1339 O 129.922 2.47874 1.0398 0
M  V30 1340 C 128.193 3.3298 -1.29843 0
M  V30 1341 S 129.752 4.23158 -1.16114 0
M  V30 1342 H 126.57 0.64839 -0.291739 0
M  V30 1343 H 129.172 1.39285 -1.37186 0
M  V30 1344 H 127.876 3.35958 -2.35712 0
M  V30 1345 H 127.407 3.86629 -0.726767 0
M  V30 1346 H 129.422 4.96103 -0.0982778 0
M  V30 1347 N 128.595 0.856903 1.32268 0
M  V30 1348 C 129.841 0.462069 1.97466 0
M  V30 1349 C 130.174 -0.980298 1.67642 0
M  V30 1350 O 129.449 -1.68824 0.965858 0
M  V30 1351 C 129.732 0.704336 3.53145 0
M  V30 1352 C 129.585 2.19529 3.9259 0
M  V30 1353 C 130.904 0.1622 4.39801 0
M  V30 1354 H 128.023 0.169357 0.717278 0
M  V30 1355 H 130.665 1.07574 1.56614 0
M  V30 1356 H 128.815 0.181999 3.88073 0
M  V30 1357 H 130.487 2.78387 3.67829 0
M  V30 1358 H 128.73 2.67292 3.41668 0
M  V30 1359 H 129.401 2.31549 5.01088 0
M  V30 1360 H 131.877 0.608905 4.11621 0
M  V30 1361 H 130.753 0.361265 5.4771 0
M  V30 1362 H 131.014 -0.935158 4.32096 0
M  V30 1363 N 130.073 -1.45103 0.615059 0
M  V30 1364 C 131.02 -2.30586 -0.0993978 0
M  V30 1365 C 131.99 -1.42544 -0.852669 0
M  V30 1366 O 133.175 -1.71465 -0.836917 0
M  V30 1367 C 130.315 -3.27572 -1.08583 0
M  V30 1368 C 129.428 -4.30717 -0.332656 0
M  V30 1369 C 128.563 -5.14807 -1.30947 0
M  V30 1370 C 127.602 -6.09673 -0.544538 0
M  V30 1371 N 126.739 -6.86517 -1.47101 0
M  V30 1372 H 131.579 -2.91144 0.635542 0
M  V30 1373 H 129.116 -1.4346 0.325206 0
M  V30 1374 H 131.074 -3.82276 -1.67095 0
M  V30 1375 H 129.704 -2.68751 -1.78809 0
M  V30 1376 H 128.756 -3.78615 0.368107 0
M  V30 1377 H 130.068 -4.98102 0.263842 0
M  V30 1378 H 129.222 -5.73948 -1.96643 0
M  V30 1379 H 127.961 -4.47458 -1.9399 0
M  V30 1380 H 126.966 -5.49656 0.126003 0
M  V30 1381 H 128.191 -6.79052 0.080947 0
M  V30 1382 H 126.137 -6.21851 -2.08895 0
M  V30 1383 H 126.054 -7.50281 -0.928137 0
M  V30 1384 H 127.322 -7.50194 -2.11731 0
M  V30 1385 N 131.551 -0.354651 -1.53558 0
M  V30 1386 C 132.514 0.484566 -2.24019 0
M  V30 1387 C 133.514 1.01861 -1.24422 0
M  V30 1388 O 134.704 0.906097 -1.4878 0
M  V30 1389 C 131.836 1.67615 -2.96847 0
M  V30 1390 H 133.029 -0.131843 -2.9961 0
M  V30 1391 H 130.582 -0.106165 -1.55939 0
M  V30 1392 H 131.317 2.33095 -2.25471 0
M  V30 1393 H 131.102 1.30029 -3.69912 0
M  V30 1394 H 132.592 2.27114 -3.50441 0
M  V30 1395 N 133.029 1.57378 -0.0835403 0
M  V30 1396 C 133.961 2.10389 0.909338 0
M  V30 1397 C 134.974 1.03858 1.25369 0
M  V30 1398 O 136.163 1.31338 1.20882 0
M  V30 1399 C 133.263 2.55908 2.2218 0
M  V30 1400 C 132.436 3.86145 2.05453 0
M  V30 1401 C 131.495 4.17633 3.20108 0
M  V30 1402 O 130.521 4.87043 2.94581 0
M  V30 1403 N 131.723 3.72113 4.45547 0
M  V30 1404 H 134.488 2.962 0.456657 0
M  V30 1405 H 132.049 1.61579 0.101877 0
M  V30 1406 H 134.041 2.74027 2.97811 0
M  V30 1407 H 132.611 1.75171 2.58909 0
M  V30 1408 H 131.831 3.7729 1.1422 0
M  V30 1409 H 133.119 4.7137 1.91541 0
M  V30 1410 H 132.517 3.16062 4.69171 0
M  V30 1411 H 131.074 3.95409 5.18165 0
M  V30 1412 N 134.507 -0.190092 1.56449 0
M  V30 1413 C 135.923 -0.54113 1.50146 0
M  V30 1414 C 136.123 -1.85603 0.784465 0
M  V30 1415 O 135.179 -2.5024 0.337051 0
M  V30 1416 C 136.492 -0.591241 2.9483 0
M  V30 1417 C 138.04 -0.679732 3.0553 0
M  V30 1418 C 138.515 -0.760908 4.51635 0
M  V30 1419 N 140.006 -0.824302 4.55806 0
M  V30 1420 C 140.741 -0.907365 5.66175 0
M  V30 1421 N 140.237 -0.952422 6.86222 0
M  V30 1422 N 142.03 -0.94494 5.541 0
M  V30 1423 H 134.181 0.67235 2.01478 0
M  V30 1424 H 136.444 0.240127 0.917084 0
M  V30 1425 H 136.15 0.305905 3.50367 0
M  V30 1426 H 136.024 -1.44422 3.48457 0
M  V30 1427 H 138.411 -1.56731 2.50039 0
M  V30 1428 H 138.492 0.199549 2.5502 0
M  V30 1429 H 138.136 0.122336 5.07753 0
M  V30 1430 H 138.066 -1.65606 4.99882 0
M  V30 1431 H 140.557 -0.798526 3.69367 0
M  V30 1432 H 140.87 -1.01645 7.66086 0
M  V30 1433 H 139.215 -0.921014 6.8887 0
M  V30 1434 H 142.406 -0.906612 4.59236 0
M  V30 1435 H 142.579 -1.00622 6.4014 0
M  V30 1436 N 135.985 -1.50799 -0.457987 0
M  V30 1437 C 136.933 -1.71162 -1.575 0
M  V30 1438 C 137.927 -0.577592 -1.59249 0
M  V30 1439 O 139.133 -0.758443 -1.63241 0
M  V30 1440 H 135.508 -0.540468 -0.522875 0
M  V30 1441 H 137.479 -2.64837 -1.37492 0
M  V30 1442 C 136.228 -1.83496 -2.95338 0
M  V30 1443 H 135.551 -2.70153 -2.94716 0
M  V30 1444 H 136.991 -2.01765 -3.72917 0
M  V30 1445 C 135.45 -0.589694 -3.31699 0
M  V30 1446 O 135.98 0.265163 -4.00824 0
M  V30 1447 N 134.186 -0.439845 -2.87252 0
M  V30 1448 H 133.733 -1.13655 -2.31172 0
M  V30 1449 H 133.691 0.392159 -3.11945 0
M  V30 1450 N 137.463 0.71206 -1.40597 0
M  V30 1451 C 138.874 1.29135 -1.34837 0
M  V30 1452 C 139.225 1.96186 -0.0235395 0
M  V30 1453 O 138.35 1.97768 0.878444 0
M  V30 1454 C 138.945 2.34827 -2.44217 0
M  V30 1455 C 137.504 2.88371 -2.41907 0
M  V30 1456 C 136.651 1.62202 -2.24913 0
M  V30 1457 H 139.602 0.507944 -1.50352 0
M  V30 1458 H 139.623 3.15749 -2.12327 0
M  V30 1459 H 139.135 1.85996 -3.40627 0
M  V30 1460 H 137.236 3.41422 -1.49204 0
M  V30 1461 H 137.349 3.39925 -3.37621 0
M  V30 1462 H 135.713 1.874 -1.72492 0
M  V30 1463 H 136.496 1.15391 -3.23326 0
M  V30 1464 N 138.941 1.26152 0.944643 0
M  V30 1465 C 139.904 1.07474 2.0244 0
M  V30 1466 C 140.904 0.0242064 1.60782 0
M  V30 1467 O 142.094 0.267302 1.72137 0
M  V30 1468 C 139.226 0.633956 3.34953 0
M  V30 1469 H 140.419 2.03336 2.20442 0
M  V30 1470 H 137.972 1.087 1.12312 0
M  V30 1471 H 138.707 -0.326811 3.22649 0
M  V30 1472 H 138.492 1.39247 3.66542 0
M  V30 1473 H 139.982 0.52501 4.14287 0
M  V30 1474 N 140.419 -1.14872 1.07899 0
M  V30 1475 C 141.696 -1.81928 0.71845 0
M  V30 1476 C 142.076 -1.95417 -0.798455 0
M  V30 1477 O 141.424 -1.50997 -1.715 0
M  V30 1478 C 141.634 -3.17937 1.43935 0
M  V30 1479 C 142.982 -3.93501 1.59506 0
M  V30 1480 O 144.006 -3.27509 1.40058 0
M  V30 1481 O 142.865 -5.1183 1.91551 0
M  V30 1482 H 139.959 -0.78628 0.256305 0
M  V30 1483 H 142.505 -1.21934 1.18026 0
M  V30 1484 H 141.277 -3.0325 2.47295 0
M  V30 1485 H 140.9 -3.85619 0.968687 0
M  V30 1486 N 141.898 -0.863906 -1.31812 0
M  V30 1487 C 142.828 -0.330843 -2.31144 0
M  V30 1488 C 143.809 0.575005 -1.60087 0
M  V30 1489 O 144.994 0.493304 -1.8783 0
M  V30 1490 C 142.124 0.47374 -3.44054 0
M  V30 1491 C 141.078 -0.338481 -4.26659 0
M  V30 1492 C 140.404 0.591412 -5.31419 0
M  V30 1493 C 141.704 -1.56926 -4.98168 0
M  V30 1494 H 143.398 -1.16086 -2.75979 0
M  V30 1495 H 140.944 -0.559657 -1.32679 0
M  V30 1496 H 142.897 0.857143 -4.12591 0
M  V30 1497 H 141.621 1.33721 -2.9797 0
M  V30 1498 H 140.28 -0.703754 -3.59782 0
M  V30 1499 H 139.928 1.45199 -4.81587 0
M  V30 1500 H 139.628 0.0519022 -5.87577 0
M  V30 1501 H 141.152 0.97179 -6.02817 0
M  V30 1502 H 142.566 -1.25764 -5.59336 0
M  V30 1503 H 140.963 -2.04739 -5.64094 0
M  V30 1504 H 142.033 -2.32544 -4.25501 0
M  V30 1505 N 143.376 1.44774 -0.622745 0
M  V30 1506 C 144.787 1.85546 -0.207226 0
M  V30 1507 C 145.138 1.52093 1.23944 0
M  V30 1508 O 144.263 0.95492 1.94191 0
M  V30 1509 C 144.858 3.36781 -0.369313 0
M  V30 1510 C 143.417 3.76399 -0.00836847 0
M  V30 1511 C 142.564 2.68664 -0.686651 0
M  V30 1512 H 145.515 1.3536 -0.828454 0
M  V30 1513 H 145.536 3.78453 0.394162 0
M  V30 1514 H 145.048 3.61098 -1.42231 0
M  V30 1515 H 143.149 3.57698 1.04322 0
M  V30 1516 H 143.262 4.7732 -0.412584 0
M  V30 1517 H 141.626 2.54404 -0.122777 0
M  V30 1518 H 142.409 2.95815 -1.74208 0
M  V30 1519 N 144.854 0.36279 1.53368 0
M  V30 1520 C 146.1 -0.220702 2.02199 0
M  V30 1521 C 146.455 -1.46649 1.24546 0
M  V30 1522 O 145.748 -1.88737 0.32996 0
M  V30 1523 C 145.942 -0.568417 3.52851 0
M  V30 1524 C 145.771 0.642126 4.45092 0
M  V30 1525 C 144.541 1.15335 4.91961 0
M  V30 1526 C 146.739 1.50649 4.91741 0
M  V30 1527 N 144.721 2.3242 5.68202 0
M  V30 1528 C 146.092 2.52404 5.66297 0
M  V30 1529 C 148.147 1.52969 4.73819 0
M  V30 1530 C 146.85 3.56331 6.24836 0
M  V30 1531 C 148.876 2.55789 5.33222 0
M  V30 1532 C 148.238 3.56268 6.07662 0
M  V30 1533 H 144.337 -0.0435508 0.780786 0
M  V30 1534 H 146.921 0.506704 1.87991 0
M  V30 1535 H 145.092 -1.2649 3.67226 0
M  V30 1536 H 146.824 -1.13676 3.88407 0
M  V30 1537 H 143.579 0.718412 4.68119 0
M  V30 1538 H 144.003 2.91591 6.10986 0
M  V30 1539 H 148.645 0.766418 4.15795 0
M  V30 1540 H 146.363 4.33543 6.81958 0
M  V30 1541 H 149.949 2.58435 5.21251 0
M  V30 1542 H 148.829 4.34524 6.52808 0
M  V30 1543 N 146.332 -1.57332 0.0918853 0
M  V30 1544 C 147.58 -1.93853 -0.571446 0
M  V30 1545 C 147.901 -0.974212 -1.6892 0
M  V30 1546 O 147.171 -0.0257254 -1.95883 0
M  V30 1547 H 145.751 -0.715666 -0.214082 0
M  V30 1548 H 148.413 -1.94287 0.154464 0
M  V30 1549 H 147.509 -2.96191 -0.983729 0
M  V30 1550 N 147.81 0.181792 -1.56548 0
M  V30 1551 C 148.757 1.22521 -1.95595 0
M  V30 1552 C 149.727 1.4454 -0.818373 0
M  V30 1553 O 150.912 1.57454 -1.07763 0
M  V30 1554 C 148.052 2.56193 -2.31212 0
M  V30 1555 C 147.165 2.41641 -3.58097 0
M  V30 1556 C 146.3 3.68108 -3.82975 0
M  V30 1557 C 145.339 3.48445 -5.03242 0
M  V30 1558 N 144.476 4.66956 -5.24306 0
M  V30 1559 H 149.316 0.885226 -2.84548 0
M  V30 1560 H 146.853 0.425718 -1.40805 0
M  V30 1561 H 148.811 3.34088 -2.49882 0
M  V30 1562 H 147.441 2.88208 -1.45382 0
M  V30 1563 H 146.493 1.54976 -3.474 0
M  V30 1564 H 147.805 2.23052 -4.46149 0
M  V30 1565 H 146.959 4.54441 -4.01956 0
M  V30 1566 H 145.698 3.89666 -2.93278 0
M  V30 1567 H 144.703 2.60499 -4.8417 0
M  V30 1568 H 145.928 3.2832 -5.9446 0
M  V30 1569 H 143.874 4.88752 -4.37559 0
M  V30 1570 H 143.791 4.51242 -6.06561 0
M  V30 1571 H 145.059 5.54602 -5.47756 0
M  V30 1572 N 149.288 1.51039 0.449983 0
M  V30 1573 C 150.218 1.74379 1.55288 0
M  V30 1574 C 151.199 0.593236 1.5942 0
M  V30 1575 O 152.384 0.834625 1.7535 0
M  V30 1576 C 149.514 1.85728 2.93466 0
M  V30 1577 C 148.468 3.01078 3.04197 0
M  V30 1578 C 147.794 2.97595 4.44231 0
M  V30 1579 C 149.094 4.41254 2.7945 0
M  V30 1580 H 150.788 2.66725 1.36008 0
M  V30 1581 H 148.334 1.2835 0.652864 0
M  V30 1582 H 150.287 2.0064 3.70569 0
M  V30 1583 H 149.011 0.900207 3.13949 0
M  V30 1584 H 147.67 2.85851 2.29531 0
M  V30 1585 H 147.318 1.99691 4.61663 0
M  V30 1586 H 147.018 3.75046 4.52343 0
M  V30 1587 H 148.542 3.14583 5.23326 0
M  V30 1588 H 149.956 4.56897 3.46292 0
M  V30 1589 H 148.353 5.20315 2.98985 0
M  V30 1590 H 149.423 4.52164 1.75144 0
M  V30 1591 N 150.766 -0.704594 1.40972 0
M  V30 1592 C 152.014 -1.46169 1.39568 0
M  V30 1593 C 152.335 -1.95 0.00253745 0
M  V30 1594 O 151.605 -1.71095 -0.954114 0
M  V30 1595 H 150.185 -0.542326 0.513704 0
M  V30 1596 H 152.847 -0.834553 1.76128 0
M  V30 1597 H 151.943 -2.32922 2.07735 0
M  V30 1598 N 152.244 -1.26651 -0.937939 0
M  V30 1599 C 153.49 -1.12553 -1.687 0
M  V30 1600 C 153.823 0.329782 -1.91379 0
M  V30 1601 O 153.098 1.24202 -1.4968 0
M  V30 1602 C 153.381 -1.89862 -3.05981 0
M  V30 1603 C 153.234 -3.43318 -2.90607 0
M  V30 1604 C 154.553 -1.69499 -4.0615 0
M  V30 1605 H 151.672 -0.410257 -0.612257 0
M  V30 1606 H 154.314 -1.55685 -1.08913 0
M  V30 1607 H 152.464 -1.53204 -3.57017 0
M  V30 1608 H 154.136 -3.89747 -2.46769 0
M  V30 1609 H 152.379 -3.70179 -2.26164 0
M  V30 1610 H 153.05 -3.92642 -3.8799 0
M  V30 1611 H 155.526 -2.01442 -3.64088 0
M  V30 1612 H 154.402 -2.26002 -5.00214 0
M  V30 1613 H 154.663 -0.640365 -4.37438 0
M  V30 1614 N 153.722 1.14298 -1.08507 0
M  V30 1615 C 154.632 2.23027 -0.727753 0
M  V30 1616 C 155.648 1.71952 0.26619 0
M  V30 1617 O 156.824 2.011 0.109882 0
M  V30 1618 C 153.889 3.46403 -0.143541 0
M  V30 1619 C 152.95 4.12413 -1.19223 0
M  V30 1620 C 152.183 5.29899 -0.635798 0
M  V30 1621 O 152.406 5.67796 0.544393 0
M  V30 1622 O 151.34 5.85717 -1.38634 0
M  V30 1623 H 155.166 2.55945 -1.63481 0
M  V30 1624 H 152.751 1.22248 -0.858817 0
M  V30 1625 H 154.633 4.21018 0.179404 0
M  V30 1626 H 153.308 3.15206 0.736659 0
M  V30 1627 H 152.215 3.39667 -1.56772 0
M  V30 1628 H 153.548 4.47718 -2.04474 0
M  V30 1629 N 155.201 0.870884 1.31352 0
M  V30 1630 C 156.431 0.496049 2.00557 0
M  V30 1631 C 156.839 -0.916241 1.65534 0
M  V30 1632 O 156.182 -1.61188 0.881134 0
M  V30 1633 C 156.244 0.574418 3.54881 0
M  V30 1634 C 155.908 1.94849 4.1338 0
M  V30 1635 C 156.905 2.91611 4.30417 0
M  V30 1636 C 154.59 2.25005 4.49086 0
M  V30 1637 C 156.584 4.16672 4.82352 0
M  V30 1638 C 154.271 3.50315 5.00722 0
M  V30 1639 C 155.269 4.45964 5.17306 0
M  V30 1640 O 154.957 5.69052 5.67833 0
M  V30 1641 H 154.689 0.191664 0.64826 0
M  V30 1642 H 157.243 1.17409 1.68536 0
M  V30 1643 H 155.473 -0.160549 3.86367 0
M  V30 1644 H 157.162 0.212879 4.05341 0
M  V30 1645 H 157.928 2.69622 4.03149 0
M  V30 1646 H 153.807 1.51332 4.35453 0
M  V30 1647 H 157.351 4.91336 4.95211 0
M  V30 1648 H 153.248 3.72147 5.27424 0
M  V30 1649 H 154.016 5.71236 5.86201 0
M  V30 1650 N 156.679 -1.44442 0.630414 0
M  V30 1651 C 157.925 -2.02351 0.134816 0
M  V30 1652 C 158.258 -1.4947 -1.23986 0
M  V30 1653 O 157.533 -0.678475 -1.82283 0
M  V30 1654 C 157.816 -3.59898 0.120707 0
M  V30 1655 C 157.669 -4.23063 1.52767 0
M  V30 1656 C 158.988 -4.36585 -0.555127 0
M  V30 1657 H 156.107 -0.73527 0.0504646 0
M  V30 1658 H 158.749 -1.72022 0.806751 0
M  V30 1659 H 156.899 -3.85868 -0.451477 0
M  V30 1660 H 158.571 -4.08202 2.14869 0
M  V30 1661 H 156.814 -3.80586 2.08175 0
M  V30 1662 H 157.485 -5.32071 1.46984 0
M  V30 1663 H 159.961 -4.16044 -0.0685429 0
M  V30 1664 H 158.837 -5.46294 -0.534185 0
M  V30 1665 H 159.098 -4.11138 -1.62535 0
M  V30 1666 N 158.157 -0.370918 -1.53173 0
M  V30 1667 C 159.406 0.218249 -2.00516 0
M  V30 1668 C 159.719 1.49429 -1.26215 0
M  V30 1669 O 160.925 2.16239 -1.64174 0
M  V30 1670 C 159.381 0.43948 -3.57207 0
M  V30 1671 C 158.989 -0.822244 -4.4039 0
M  V30 1672 C 160.733 0.986012 -4.1289 0
M  V30 1673 C 158.64 -0.570304 -5.88644 0
M  V30 1674 H 157.57 0.0853333 -0.749156 0
M  V30 1675 H 160.221 -0.490483 -1.76823 0
M  V30 1676 H 158.603 1.20961 -3.77074 0
M  V30 1677 H 159.777 -1.59557 -4.32294 0
M  V30 1678 H 158.092 -1.29238 -3.95836 0
M  V30 1679 H 160.689 1.18991 -5.21292 0
M  V30 1680 H 161.032 1.94972 -3.6782 0
M  V30 1681 H 161.565 0.27592 -3.96842 0
M  V30 1682 H 158.304 -1.50449 -6.38001 0
M  V30 1683 H 157.824 0.164427 -5.99575 0
M  V30 1684 H 159.503 -0.19784 -6.46697 0
M  V30 1685 N 159.635 1.57281 -0.100228 0
M  V30 1686 C 160.545 2.17833 0.870965 0
M  V30 1687 C 161.561 1.14921 1.30649 0
M  V30 1688 O 162.737 1.47313 1.37335 0
M  V30 1689 C 159.802 2.75085 2.1102 0
M  V30 1690 C 158.863 3.9297 1.72838 0
M  V30 1691 C 158.096 4.47482 2.90854 0
M  V30 1692 O 158.319 4.00922 4.05731 0
M  V30 1693 O 157.253 5.38433 2.69023 0
M  V30 1694 H 161.079 3.0124 0.38575 0
M  V30 1695 H 158.664 1.48881 0.124397 0
M  V30 1696 H 160.546 3.11656 2.83634 0
M  V30 1697 H 159.221 1.94721 2.58584 0
M  V30 1698 H 158.128 3.61201 0.973883 0
M  V30 1699 H 159.461 4.74713 1.30033 0
M  V30 1700 N 161.113 -0.173488 1.56642 0
M  V30 1701 C 162.338 -0.910149 1.86363 0
M  V30 1702 C 162.763 -1.75132 0.686318 0
M  V30 1703 O 162.121 -1.77595 -0.364643 0
M  V30 1704 C 162.169 -1.76447 3.14482 0
M  V30 1705 O 161.273 -2.86584 2.96553 0
M  V30 1706 H 160.614 -0.255086 0.613047 0
M  V30 1707 H 163.144 -0.172283 2.03873 0
M  V30 1708 H 163.154 -2.16483 3.45831 0
M  V30 1709 H 161.829 -1.14658 3.99783 0
M  V30 1710 H 160.406 -2.50146 2.76553 0
M  V30 1711 N 162.591 -1.51276 -0.441967 0
M  V30 1712 C 163.819 -1.67516 -1.21434 0
M  V30 1713 C 164.234 -0.37055 -1.85128 0
M  V30 1714 O 163.591 0.650498 -1.70513 0
M  V30 1715 C 163.642 -2.78748 -2.30177 0
M  V30 1716 O 163.363 -4.04154 -1.69089 0
M  V30 1717 C 164.864 -3.06217 -3.20541 0
M  V30 1718 H 162.084 -0.562276 -0.366178 0
M  V30 1719 H 164.628 -1.97666 -0.524244 0
M  V30 1720 H 162.783 -2.5121 -2.94911 0
M  V30 1721 H 163.197 -4.65894 -2.40922 0
M  V30 1722 H 164.671 -3.8764 -3.92987 0
M  V30 1723 H 165.148 -2.18439 -3.81026 0
M  V30 1724 H 165.754 -3.35397 -2.61513 0
M  V30 1725 N 164.069 0.697108 -1.41344 0
M  V30 1726 C 165.317 1.45426 -1.40341 0
M  V30 1727 C 165.638 1.94996 -0.0128787 0
M  V30 1728 O 164.908 1.71599 0.945027 0
M  V30 1729 H 163.488 0.539594 -0.516573 0
M  V30 1730 H 166.15 0.825201 -1.76569 0
M  V30 1731 H 165.246 2.31817 -2.08967 0
M  V30 1732 N 165.547 1.27147 0.931209 0
M  V30 1733 C 166.477 1.12081 2.04842 0
M  V30 1734 C 167.458 0.0232364 1.70084 0
M  V30 1735 O 168.643 0.197085 1.93197 0
M  V30 1736 C 165.773 0.76354 3.38803 0
M  V30 1737 C 164.727 1.81396 3.87659 0
M  V30 1738 C 164.053 1.31075 5.18385 0
M  V30 1739 C 165.353 3.21739 4.11438 0
M  V30 1740 H 167.047 2.05537 2.17703 0
M  V30 1741 H 164.593 0.989603 1.04608 0
M  V30 1742 H 166.546 0.644982 4.16435 0
M  V30 1743 H 165.27 -0.206727 3.25945 0
M  V30 1744 H 163.929 1.92136 3.12217 0
M  V30 1745 H 163.577 0.330037 5.01916 0
M  V30 1746 H 163.277 2.013 5.52044 0
M  V30 1747 H 164.801 1.20506 5.98591 0
M  V30 1748 H 166.215 3.14019 4.79651 0
M  V30 1749 H 164.612 3.89644 4.56397 0
M  V30 1750 H 165.682 3.67054 3.16859 0
M  V30 1751 N 167.025 -1.13721 1.09112 0
M  V30 1752 C 168.272 -1.84924 0.825192 0
M  V30 1753 C 168.6 -1.83347 -0.649151 0
M  V30 1754 O 167.855 -1.26449 -1.49362 0
M  V30 1755 C 168.154 -3.32861 1.30146 0
M  V30 1756 C 167.82 -3.54621 2.78486 0
M  V30 1757 C 166.482 -3.60268 3.18999 0
M  V30 1758 C 168.834 -3.62855 3.74146 0
M  V30 1759 C 166.162 -3.71679 4.53951 0
M  V30 1760 C 168.514 -3.75793 5.08883 0
M  V30 1761 C 167.178 -3.79692 5.4899 0
M  V30 1762 H 166.448 -0.676684 0.301959 0
M  V30 1763 H 169.095 -1.3428 1.36533 0
M  V30 1764 H 167.4 -3.85835 0.681064 0
M  V30 1765 H 169.097 -3.86395 1.07236 0
M  V30 1766 H 165.687 -3.50879 2.46134 0
M  V30 1767 H 169.871 -3.57775 3.43963 0
M  V30 1768 H 165.127 -3.72963 4.84467 0
M  V30 1769 H 169.301 -3.81107 5.82864 0
M  V30 1770 H 166.928 -3.88287 6.53558 0
M  V30 1771 N 168.503 -0.877838 -1.30888 0
M  V30 1772 C 169.731 -0.507414 -2.00581 0
M  V30 1773 C 170.146 0.902216 -1.65848 0
M  V30 1774 O 169.503 1.59225 -0.891831 0
M  V30 1775 C 169.554 -0.664162 -3.55347 0
M  V30 1776 O 169.275 -2.01829 -3.8884 0
M  V30 1777 C 170.776 -0.295787 -4.42312 0
M  V30 1778 H 167.996 -0.196866 -0.641471 0
M  V30 1779 H 170.54 -1.18117 -1.66939 0
M  V30 1780 H 168.695 -0.0378619 -3.87381 0
M  V30 1781 H 169.109 -2.03174 -4.8355 0
M  V30 1782 H 170.583 -0.456388 -5.5011 0
M  V30 1783 H 171.06 0.765663 -4.32475 0
M  V30 1784 H 171.666 -0.898113 -4.15709 0
M  V30 1785 N 169.982 1.44106 -0.638065 0
M  V30 1786 C 170.945 2.29138 0.0531013 0
M  V30 1787 C 171.945 1.41409 0.765506 0
M  V30 1788 O 173.135 1.63206 0.609046 0
M  V30 1789 C 170.267 3.23144 1.08584 0
M  V30 1790 H 171.46 2.91739 -0.694883 0
M  V30 1791 H 169.013 1.51134 -0.398538 0
M  V30 1792 H 169.748 2.65408 1.86357 0
M  V30 1793 H 169.533 3.87804 0.578852 0
M  V30 1794 H 171.023 3.87004 1.56899 0
M  V30 1795 N 171.46 0.379036 1.52974 0
M  V30 1796 C 172.407 -0.461048 2.26148 0
M  V30 1797 C 173.377 -1.06637 1.27349 0
M  V30 1798 O 174.562 -1.09633 1.56157 0
M  V30 1799 C 171.702 -1.58782 3.06402 0
M  V30 1800 C 170.815 -1.00636 4.20115 0
M  V30 1801 C 169.95 -2.10334 4.87784 0
M  V30 1802 C 168.989 -1.49724 5.93506 0
M  V30 1803 N 168.126 -2.5331 6.54812 0
M  V30 1804 H 172.966 0.169429 2.97518 0
M  V30 1805 H 170.503 0.0953806 1.4679 0
M  V30 1806 H 172.461 -2.25174 3.51215 0
M  V30 1807 H 171.091 -2.18876 2.37261 0
M  V30 1808 H 170.143 -0.232332 3.7969 0
M  V30 1809 H 171.455 -0.523343 4.96047 0
M  V30 1810 H 170.609 -2.84519 5.35849 0
M  V30 1811 H 169.348 -2.61992 4.11353 0
M  V30 1812 H 168.353 -0.740598 5.44789 0
M  V30 1813 H 169.578 -0.988732 6.71864 0
M  V30 1814 H 167.524 -3.04156 5.81227 0
M  V30 1815 H 167.441 -2.09734 7.26325 0
M  V30 1816 H 168.709 -3.27155 7.07524 0
M  V30 1817 N 172.938 -1.57226 0.108567 0
M  V30 1818 C 173.901 -2.13602 -0.831082 0
M  V30 1819 C 174.901 -1.06841 -1.20173 0
M  V30 1820 O 176.091 -1.32666 -1.12895 0
M  V30 1821 C 173.223 -2.66769 -2.12243 0
M  V30 1822 H 174.416 -2.97951 -0.341317 0
M  V30 1823 H 171.969 -1.55667 -0.14057 0
M  V30 1824 H 172.704 -1.85977 -2.65675 0
M  V30 1825 H 172.489 -3.44839 -1.86625 0
M  V30 1826 H 173.979 -3.10332 -2.79435 0
M  V30 1827 N 174.416 0.165178 -1.56732 0
M  V30 1828 C 175.379 1.18822 -1.95995 0
M  V30 1829 C 176.379 1.3685 -0.84431 0
M  V30 1830 O 177.569 1.34152 -1.11126 0
M  V30 1831 C 174.701 2.5521 -2.26011 0
M  V30 1832 H 175.894 0.851825 -2.87548 0
M  V30 1833 H 173.447 0.407857 -1.50885 0
M  V30 1834 H 174.182 2.93852 -1.37191 0
M  V30 1835 H 173.967 2.43489 -3.07336 0
M  V30 1836 H 175.457 3.28927 -2.57288 0
M  V30 1837 N 175.894 1.51508 0.433938 0
M  V30 1838 C 176.857 1.72473 1.50949 0
M  V30 1839 C 177.857 0.594725 1.49398 0
M  V30 1840 O 179.047 0.862315 1.5136 0
M  V30 1841 C 176.179 1.78431 2.90474 0
M  V30 1842 H 177.372 2.68467 1.33662 0
M  V30 1843 H 174.925 1.41549 0.662836 0
M  V30 1844 H 175.66 0.842645 3.13161 0
M  V30 1845 H 175.445 2.60558 2.93005 0
M  V30 1846 H 176.935 1.96479 3.68491 0
M  V30 1847 N 177.372 -0.689602 1.41712 0
M  V30 1848 C 178.282 -1.83314 1.46401 0
M  V30 1849 C 179.298 -1.7036 0.35405 0
M  V30 1850 O 180.474 -1.92171 0.602692 0
M  V30 1851 C 177.539 -3.19344 1.34982 0
M  V30 1852 C 176.6 -3.44363 2.56344 0
M  V30 1853 C 175.833 -4.73904 2.45461 0
M  V30 1854 O 176.056 -5.508 1.48241 0
M  V30 1855 O 174.99 -4.99839 3.35328 0
M  V30 1856 H 178.816 -1.82314 2.42889 0
M  V30 1857 H 176.401 -0.843438 1.23315 0
M  V30 1858 H 178.283 -4.00547 1.3092 0
M  V30 1859 H 176.958 -3.21014 0.41612 0
M  V30 1860 H 175.865 -2.63067 2.65982 0
M  V30 1861 H 177.198 -3.47512 3.48563 0
M  V30 1862 N 178.85 -1.27639 -0.924453 0
M  V30 1863 C 180.098 -1.13941 -1.66918 0
M  V30 1864 C 180.419 0.314589 -1.92446 0
M  V30 1865 O 179.689 1.21964 -1.53303 0
M  V30 1866 H 178.269 -0.418678 -0.618642 0
M  V30 1867 H 180.931 -1.60213 -1.10985 0
M  V30 1868 H 180.027 -1.67094 -2.63602 0
M  V30 1869 N 180.328 1.1314 -1.09713 0
M  V30 1870 C 181.278 2.16709 -0.708593 0
M  V30 1871 C 182.262 1.58471 0.278523 0
M  V30 1872 O 183.454 1.76779 0.088427 0
M  V30 1873 C 180.583 3.43039 -0.133923 0
M  V30 1874 C 179.669 4.08277 -1.14763 0
M  V30 1875 N 180.06 4.48637 -2.33577 0
M  V30 1876 C 178.358 4.34954 -0.986446 0
M  V30 1877 C 179.059 4.9952 -2.98085 0
M  V30 1878 N 178.035 4.94561 -2.25632 0
M  V30 1879 H 181.837 2.45672 -1.61315 0
M  V30 1880 H 179.351 1.29967 -0.973775 0
M  V30 1881 H 181.348 4.16583 0.162465 0
M  V30 1882 H 180.008 3.15549 0.765447 0
M  V30 1883 H 181.019 4.41246 -2.7115 0
M  V30 1884 H 177.696 4.17258 -0.142008 0
M  V30 1885 H 179.086 5.40521 -3.99108 0
M  V30 1886 N 181.806 0.884767 1.30421 0
M  V30 1887 C 182.736 0.367574 2.30589 0
M  V30 1888 C 183.717 -0.549464 1.60981 0
M  V30 1889 O 184.902 -0.46336 1.88591 0
M  V30 1890 C 182.032 -0.418944 3.44764 0
M  V30 1891 C 180.986 0.406316 4.26067 0
M  V30 1892 C 180.312 -0.506793 5.32293 0
M  V30 1893 C 181.612 1.64832 4.95608 0
M  V30 1894 H 183.306 1.20462 2.74097 0
M  V30 1895 H 180.852 0.580695 1.31772 0
M  V30 1896 H 182.805 -0.791395 4.13902 0
M  V30 1897 H 181.529 -1.28964 3.0006 0
M  V30 1898 H 180.188 0.760903 3.58617 0
M  V30 1899 H 179.836 -1.37519 4.83836 0
M  V30 1900 H 179.536 0.0415828 5.87585 0
M  V30 1901 H 181.06 -0.875764 6.04287 0
M  V30 1902 H 182.474 1.34646 5.57264 0
M  V30 1903 H 180.871 2.13688 5.60765 0
M  V30 1904 H 181.941 2.39284 4.21748 0
M  V30 1905 N 183.284 -1.43765 0.645699 0
M  V30 1906 C 184.7 -1.56509 0.312591 0
M  V30 1907 C 184.9 -1.6307 -1.18365 0
M  V30 1908 O 183.956 -1.58167 -1.96824 0
M  V30 1909 C 185.269 -2.82968 1.01733 0
M  V30 1910 C 186.817 -2.96701 0.996865 0
M  V30 1911 C 187.292 -4.25982 1.68236 0
M  V30 1912 N 188.783 -4.32829 1.64964 0
M  V30 1913 C 189.518 -5.31613 2.14885 0
M  V30 1914 N 189.014 -6.36718 2.73061 0
M  V30 1915 N 190.807 -5.23217 2.05428 0
M  V30 1916 H 182.958 -1.3775 1.61675 0
M  V30 1917 H 185.221 -0.661067 0.679481 0
M  V30 1918 H 184.927 -2.84156 2.0724 0
M  V30 1919 H 184.801 -3.72957 0.564177 0
M  V30 1920 H 187.188 -2.95058 -0.0497719 0
M  V30 1921 H 187.269 -2.08022 1.48865 0
M  V30 1922 H 186.913 -4.28386 2.72852 0
M  V30 1923 H 186.843 -5.13545 1.16529 0
M  V30 1924 H 189.334 -3.57493 1.22503 0
M  V30 1925 H 189.647 -7.08401 3.08848 0
M  V30 1926 H 187.992 -6.37362 2.77118 0
M  V30 1927 H 191.183 -4.40019 1.59689 0
M  V30 1928 H 191.356 -6.00045 2.44643 0
M  V30 1929 N 184.763 -0.387143 -1.52771 0
M  V30 1930 C 186.011 0.195349 -2.01154 0
M  V30 1931 C 186.332 1.475 -1.27549 0
M  V30 1932 O 185.602 1.91878 -0.394924 0
M  V30 1933 H 184.182 0.075178 -0.743207 0
M  V30 1934 H 186.844 -0.518337 -1.87881 0
M  V30 1935 H 185.94 0.407096 -3.09434 0
M  V30 1936 N 186.241 1.57166 -0.116904 0
M  V30 1937 C 187.489 1.94737 0.540533 0
M  V30 1938 C 187.81 1.00096 1.67349 0
M  V30 1939 O 187.08 0.0568854 1.95817 0
M  V30 1940 H 185.66 0.718981 0.202669 0
M  V30 1941 H 188.322 1.94017 -0.185353 0
M  V30 1942 H 187.418 2.97719 0.936483 0
M  V30 1943 N 187.719 -0.156864 1.56817 0
M  V30 1944 C 188.682 -1.17781 1.96622 0
M  V30 1945 C 189.682 -1.36401 0.851555 0
M  V30 1946 O 190.872 -1.33561 1.11836 0
M  V30 1947 C 188.004 -2.54008 2.27361 0
M  V30 1948 H 189.197 -0.836564 2.87996 0
M  V30 1949 H 186.75 -0.39985 1.51099 0
M  V30 1950 H 187.485 -2.9312 1.38748 0
M  V30 1951 H 187.27 -2.41856 3.08623 0
M  V30 1952 H 188.76 -3.27558 2.59029 0
M  V30 1953 N 189.197 -1.51736 -0.425897 0
M  V30 1954 C 190.613 -1.40166 -0.76326 0
M  V30 1955 C 190.813 -0.492962 -1.95377 0
M  V30 1956 O 189.869 0.0475815 -2.52455 0
M  V30 1957 C 191.182 -2.82403 -1.03291 0
M  V30 1958 C 192.73 -2.91632 -1.13665 0
M  V30 1959 C 193.205 -4.34801 -1.43916 0
M  V30 1960 N 194.696 -4.3796 -1.50816 0
M  V30 1961 C 195.431 -5.4578 -1.75817 0
M  V30 1962 N 194.927 -6.63744 -1.98534 0
M  V30 1963 N 196.72 -5.33274 -1.77694 0
M  V30 1964 H 188.871 -2.09361 0.358 0
M  V30 1965 H 191.134 -0.942941 0.0978094 0
M  V30 1966 H 190.84 -3.50943 -0.230696 0
M  V30 1967 H 190.714 -3.22428 -1.95754 0
M  V30 1968 H 193.101 -2.23284 -1.92947 0
M  V30 1969 H 193.182 -2.55088 -0.190756 0
M  V30 1970 H 192.826 -5.03703 -0.65157 0
M  V30 1971 H 192.756 -4.68868 -2.39729 0
M  V30 1972 H 195.247 -3.52919 -1.35118 0
M  V30 1973 H 195.56 -7.41704 -2.17013 0
M  V30 1974 H 193.905 -6.66839 -1.95832 0
M  V30 1975 H 197.096 -4.40098 -1.59473 0
M  V30 1976 H 197.269 -6.1738 -1.9684 0
M  V30 1977 N 190.675 0.682077 -1.42076 0
M  V30 1978 C 191.622 1.79578 -1.44984 0
M  V30 1979 C 192.592 1.6332 -0.302614 0
M  V30 1980 O 193.777 1.83978 -0.505633 0
M  V30 1981 C 190.917 3.1756 -1.35091 0
M  V30 1982 C 190.03 3.45156 -2.59791 0
M  V30 1983 C 189.165 4.72826 -2.42093 0
M  V30 1984 C 188.204 4.93433 -3.62202 0
M  V30 1985 N 187.341 6.12338 -3.43491 0
M  V30 1986 H 192.181 1.76427 -2.40161 0
M  V30 1987 H 189.718 0.861376 -1.19242 0
M  V30 1988 H 191.676 3.97287 -1.27354 0
M  V30 1989 H 190.306 3.19854 -0.435133 0
M  V30 1990 H 189.358 2.59736 -2.77923 0
M  V30 1991 H 190.67 3.5628 -3.49094 0
M  V30 1992 H 189.824 5.60631 -2.319 0
M  V30 1993 H 188.563 4.63973 -1.50268 0
M  V30 1994 H 187.568 4.04073 -3.72834 0
M  V30 1995 H 188.793 5.04136 -4.54998 0
M  V30 1996 H 186.739 6.04672 -2.54377 0
M  V30 1997 H 186.656 6.2429 -4.26377 0
M  V30 1998 H 187.924 7.02841 -3.37097 0
M  V30 1999 N 192.153 1.28127 0.917671 0
M  V30 2000 C 193.399 1.15223 1.66888 0
M  V30 2001 C 193.732 -0.299293 1.9188 0
M  V30 2002 O 193.007 -1.21805 1.51637 0
M  V30 2003 C 193.29 1.94706 3.02922 0
M  V30 2004 C 193.143 3.47898 2.85109 0
M  V30 2005 C 194.462 1.75939 4.03402 0
M  V30 2006 H 191.581 0.419946 0.605652 0
M  V30 2007 H 194.223 1.57398 1.06423 0
M  V30 2008 H 192.373 1.58864 3.54534 0
M  V30 2009 H 194.045 3.93624 2.40537 0
M  V30 2010 H 192.288 3.7373 2.20246 0
M  V30 2011 H 192.959 3.98765 3.81694 0
M  V30 2012 H 195.435 2.07209 3.60837 0
M  V30 2013 H 194.311 2.33931 4.96556 0
M  V30 2014 H 194.572 0.709877 4.36364 0
M  V30 2015 N 193.631 -1.12557 1.10312 0
M  V30 2016 C 194.877 -1.84311 0.846011 0
M  V30 2017 C 195.21 -1.83805 -0.626859 0
M  V30 2018 O 194.485 -1.28268 -1.46211 0
M  V30 2019 C 194.768 -3.32048 1.39341 0
M  V30 2020 C 194.621 -3.41016 2.93305 0
M  V30 2021 C 195.94 -4.27764 1.03468 0
M  V30 2022 H 193.059 -0.669192 0.30879 0
M  V30 2023 H 195.701 -1.32057 1.36605 0
M  V30 2024 H 193.851 -3.76678 0.951087 0
M  V30 2025 H 195.523 -3.05031 3.46055 0
M  V30 2026 H 193.766 -2.81603 3.29973 0
M  V30 2027 H 194.437 -4.44948 3.26689 0
M  V30 2028 H 196.913 -3.91253 1.41633 0
M  V30 2029 H 195.789 -5.29549 1.44463 0
M  V30 2030 H 196.05 -4.42064 -0.0560404 0
M  V30 2031 N 195.109 -0.891671 -1.2995 0
M  V30 2032 C 196.358 -0.509521 -1.95158 0
M  V30 2033 C 196.671 0.947388 -1.71125 0
M  V30 2034 O 197.877 1.43669 -2.30372 0
M  V30 2035 C 196.333 -0.860315 -3.49466 0
M  V30 2036 C 195.941 -2.33545 -3.8231 0
M  V30 2037 C 197.685 -0.547687 -4.20952 0
M  V30 2038 C 195.592 -2.62752 -5.29826 0
M  V30 2039 H 194.522 -0.18682 -0.730489 0
M  V30 2040 H 197.173 -1.08756 -1.47798 0
M  V30 2041 H 195.555 -0.211285 -3.95436 0
M  V30 2042 H 196.729 -3.02936 -3.47227 0
M  V30 2043 H 195.044 -2.61629 -3.23944 0
M  V30 2044 H 197.641 -0.742854 -5.29515 0
M  V30 2045 H 197.984 0.51332 -4.13123 0
M  V30 2046 H 198.517 -1.1542 -3.80688 0
M  V30 2047 H 195.256 -3.6762 -5.42712 0
M  V30 2048 H 194.776 -1.97977 -5.66185 0
M  V30 2049 H 196.455 -2.48601 -5.97333 0
M  V30 2050 N 196.587 1.43421 -0.653314 0
M  V30 2051 C 197.812 2.06678 -0.172846 0
M  V30 2052 C 198.237 1.48648 1.15262 0
M  V30 2053 O 197.595 0.596457 1.71208 0
M  V30 2054 C 197.643 3.60474 -0.0953184 0
M  V30 2055 O 196.747 4.01487 0.942442 0
M  V30 2056 H 196.088 0.657181 -0.0949155 0
M  V30 2057 H 198.618 1.83925 -0.896265 0
M  V30 2058 H 198.628 4.07905 0.0879728 0
M  V30 2059 H 197.303 4.02088 -1.06291 0
M  V30 2060 H 195.88 3.65646 0.731932 0
M  V30 2061 N 198.065 0.39524 1.52563 0
M  V30 2062 C 199.028 -0.425001 2.25225 0
M  V30 2063 C 200.028 -0.985266 1.27079 0
M  V30 2064 O 201.218 -0.866332 1.5113 0
M  V30 2065 C 198.35 -1.59686 3.01186 0
M  V30 2066 H 199.543 0.211233 2.99155 0
M  V30 2067 H 197.096 0.147472 1.55603 0
M  V30 2068 H 197.831 -2.27035 2.31572 0
M  V30 2069 H 197.616 -1.20176 3.73229 0
M  V30 2070 H 199.106 -2.17743 3.5634 0
M  V30 2071 N 199.544 -1.57102 0.125237 0
M  V30 2072 C 200.955 -1.82384 -0.399142 0
M  V30 2073 C 201.306 -1.04276 -1.66195 0
M  V30 2074 O 200.431 -0.281269 -2.14564 0
M  V30 2075 C 201.026 -3.30821 -0.730932 0
M  V30 2076 C 199.585 -3.56762 -1.19992 0
M  V30 2077 C 198.732 -2.7649 -0.211792 0
M  V30 2078 H 201.683 -1.54786 0.350277 0
M  V30 2079 H 201.704 -3.4579 -1.58775 0
M  V30 2080 H 201.216 -3.87643 0.188345 0
M  V30 2081 H 199.317 -3.05305 -2.13588 0
M  V30 2082 H 199.43 -4.65317 -1.14093 0
M  V30 2083 H 197.794 -2.4489 -0.700085 0
M  V30 2084 H 198.577 -3.36073 0.700691 0
M  V30 2085 N 201.022 0.148545 -1.56898 0
M  V30 2086 C 201.985 1.16736 -1.97244 0
M  V30 2087 C 202.985 1.35947 -0.858777 0
M  V30 2088 O 204.175 1.32966 -1.12542 0
M  V30 2089 C 201.307 2.52798 -2.28705 0
M  V30 2090 H 202.5 0.821279 -2.88435 0
M  V30 2091 H 200.053 0.391831 -1.51309 0
M  V30 2092 H 200.788 2.92381 -1.403 0
M  V30 2093 H 200.573 2.40216 -3.09901 0
M  V30 2094 H 202.063 3.26179 -2.60762 0
M  V30 2095 N 202.5 1.5196 0.417844 0
M  V30 2096 C 203.725 1.69717 1.1921 0
M  V30 2097 C 204.15 0.402148 1.83751 0
M  V30 2098 O 203.508 -0.639593 1.69643 0
M  V30 2099 C 203.556 2.82794 2.2374 0
M  V30 2100 O 202.66 2.47756 3.29683 0
M  V30 2101 H 202.001 0.565263 0.348387 0
M  V30 2102 H 204.531 1.98621 0.490985 0
M  V30 2103 H 204.541 3.07452 2.68212 0
M  V30 2104 H 203.216 3.76756 1.76146 0
M  V30 2105 H 201.793 2.33739 2.90552 0
M  V30 2106 N 203.978 -0.674533 1.42435 0
M  V30 2107 C 205.226 -1.43175 1.42637 0
M  V30 2108 C 205.547 -1.94951 0.0438992 0
M  V30 2109 O 204.817 -1.7308 -0.917607 0
M  V30 2110 H 203.397 -0.531307 0.525092 0
M  V30 2111 H 206.059 -0.797006 1.77859 0
M  V30 2112 H 205.155 -2.28463 2.12629 0
M  V30 2113 N 205.456 -1.28612 -0.910864 0
M  V30 2114 C 206.704 -1.15705 -1.65701 0
M  V30 2115 C 207.025 0.29416 -1.92769 0
M  V30 2116 O 206.295 1.20331 -1.54588 0
M  V30 2117 H 204.875 -0.425216 -0.614167 0
M  V30 2118 H 207.537 -1.61381 -1.0928 0
M  V30 2119 H 206.633 -1.6988 -2.61815 0
M  V30 2120 N 206.934 1.1197 -1.10907 0
M  V30 2121 C 207.897 2.16031 -0.765707 0
M  V30 2122 C 208.897 1.59393 0.212235 0
M  V30 2123 O 210.087 1.74196 -0.0115441 0
M  V30 2124 C 207.219 3.40632 -0.135053 0
M  V30 2125 H 208.412 2.47919 -1.68748 0
M  V30 2126 H 205.965 1.27061 -0.910226 0
M  V30 2127 H 206.7 3.14348 0.797218 0
M  V30 2128 H 206.485 3.8302 -0.838937 0
M  V30 2129 H 207.975 4.17505 0.0892469 0
M  V30 2130 N 208.412 0.89855 1.29475 0
M  V30 2131 C 209.359 0.373819 2.27753 0
M  V30 2132 C 210.329 -0.543444 1.56958 0
M  V30 2133 O 211.514 -0.468934 1.84948 0
M  V30 2134 C 208.654 -0.393648 3.42848 0
M  V30 2135 C 207.767 0.554379 4.28428 0
M  V30 2136 C 206.902 -0.230026 5.30702 0
M  V30 2137 C 205.941 0.712599 6.07938 0
M  V30 2138 N 205.078 -0.0373283 7.0209 0
M  V30 2139 H 209.918 1.21699 2.72017 0
M  V30 2140 H 207.455 0.611456 1.33789 0
M  V30 2141 H 209.413 -0.85466 4.08352 0
M  V30 2142 H 208.043 -1.20128 2.99615 0
M  V30 2143 H 207.095 1.13391 3.63107 0
M  V30 2144 H 208.407 1.27597 4.82204 0
M  V30 2145 H 207.561 -0.752288 6.02018 0
M  V30 2146 H 206.3 -0.984758 4.77654 0
M  V30 2147 H 205.305 1.24637 5.35486 0
M  V30 2148 H 206.53 1.46664 6.63074 0
M  V30 2149 H 204.476 -0.774348 6.51414 0
M  V30 2150 H 204.393 0.624374 7.53417 0
M  V30 2151 H 205.661 -0.539891 7.77628 0
M  V30 2152 N 209.89 -1.43072 0.660911 0
M  V30 2153 C 211.118 -2.06067 0.185422 0
M  V30 2154 C 211.533 -1.49582 -1.15198 0
M  V30 2155 O 210.89 -0.630134 -1.71276 0
M  V30 2156 C 210.941 -3.61371 0.0966523 0
M  V30 2157 O 210.662 -4.15758 1.38119 0
M  V30 2158 C 212.163 -4.41455 -0.403996 0
M  V30 2159 H 209.383 -0.664459 0.0934604 0
M  V30 2160 H 211.927 -1.83447 0.90373 0
M  V30 2161 H 210.082 -3.8315 -0.572259 0
M  V30 2162 H 210.496 -5.09499 1.24542 0
M  V30 2163 H 211.97 -5.50437 -0.415045 0
M  V30 2164 H 212.447 -4.15036 -1.43674 0
M  V30 2165 H 213.053 -4.24663 0.232691 0
M  V30 2166 N 211.368 -0.403325 -1.52352 0
M  V30 2167 C 212.298 0.416205 -2.29761 0
M  V30 2168 C 213.279 1.05123 -1.33728 0
M  V30 2169 O 214.464 1.06134 -1.62632 0
M  V30 2170 C 211.594 1.53624 -3.11475 0
M  V30 2171 C 210.548 1.02653 -4.15507 0
M  V30 2172 C 209.874 2.23971 -4.85532 0
M  V30 2173 C 211.174 0.08463 -5.22231 0
M  V30 2174 H 212.868 -0.229701 -2.98518 0
M  V30 2175 H 210.414 -0.111913 -1.43564 0
M  V30 2176 H 212.367 2.1165 -3.64393 0
M  V30 2177 H 211.091 2.20994 -2.40477 0
M  V30 2178 H 209.75 0.46871 -3.63591 0
M  V30 2179 H 209.398 2.89883 -4.11068 0
M  V30 2180 H 209.098 1.90521 -5.55856 0
M  V30 2181 H 210.622 2.82614 -5.41259 0
M  V30 2182 H 212.036 0.573509 -5.70424 0
M  V30 2183 H 210.433 -0.160783 -5.99885 0
M  V30 2184 H 211.503 -0.86237 -4.7717 0
M  V30 2185 N 212.846 1.57033 -0.133567 0
M  V30 2186 C 214.092 1.95976 0.521649 0
M  V30 2187 C 214.425 1.01779 1.65393 0
M  V30 2188 O 213.7 0.0576581 1.94415 0
M  V30 2189 C 213.983 3.44738 1.04057 0
M  V30 2190 C 213.836 4.49711 -0.0892897 0
M  V30 2191 C 215.155 3.95682 1.92675 0
M  V30 2192 H 212.274 0.712579 0.188149 0
M  V30 2193 H 214.916 1.88813 -0.212076 0
M  V30 2194 H 213.066 3.50973 1.66583 0
M  V30 2195 H 214.738 4.55565 -0.725152 0
M  V30 2196 H 212.981 4.27261 -0.750378 0
M  V30 2197 H 213.652 5.51099 0.315284 0
M  V30 2198 H 216.128 3.91841 1.39998 0
M  V30 2199 H 215.004 5.00262 2.25897 0
M  V30 2200 H 215.265 3.37239 2.85872 0
M  V30 2201 N 214.325 -0.140222 1.56975 0
M  V30 2202 C 215.258 -1.20266 1.93936 0
M  V30 2203 C 216.236 -1.41212 0.806099 0
M  V30 2204 O 217.42 -1.55713 1.06234 0
M  V30 2205 C 214.547 -2.56037 2.21726 0
M  V30 2206 C 213.593 -2.51646 3.44349 0
M  V30 2207 S 214.426 -1.97678 4.97678 0
M  V30 2208 C 215.582 -3.35165 5.28597 0
M  V30 2209 H 215.815 -0.887358 2.83749 0
M  V30 2210 H 213.348 -0.346119 1.50471 0
M  V30 2211 H 215.306 -3.34167 2.38416 0
M  V30 2212 H 213.967 -2.84755 1.32566 0
M  V30 2213 H 213.16 -3.51608 3.61092 0
M  V30 2214 H 212.762 -1.81628 3.26936 0
M  V30 2215 H 215.054 -4.31302 5.2248 0
M  V30 2216 H 215.997 -3.23269 6.30002 0
M  V30 2217 H 216.405 -3.32614 4.56101 0
M  V30 2218 N 215.803 -1.52179 -0.40978 0
M  V30 2219 C 217.051 -1.65878 -1.15451 0
M  V30 2220 C 217.372 -0.390771 -1.91044 0
M  V30 2221 O 216.642 0.594323 -1.86667 0
M  V30 2222 H 215.222 -0.611405 -0.429177 0
M  V30 2223 H 217.884 -1.89219 -0.467134 0
M  V30 2224 H 216.98 -2.49954 -1.86894 0
M  V30 2225 N 217.281 0.66697 -1.42791 0
M  V30 2226 C 218.527 1.4291 -1.43891 0
M  V30 2227 C 218.86 1.94114 -0.0578972 0
M  V30 2228 O 218.135 1.71414 0.91911 0
M  V30 2229 C 218.418 2.62049 -2.46987 0
M  V30 2230 C 218.271 2.16426 -3.94309 0
M  V30 2231 C 219.59 3.64266 -2.46978 0
M  V30 2232 H 216.709 0.518306 -0.523954 0
M  V30 2233 H 219.351 0.757321 -1.74255 0
M  V30 2234 H 217.501 3.19361 -2.21225 0
M  V30 2235 H 219.173 1.64221 -4.31079 0
M  V30 2236 H 217.416 1.47925 -4.078 0
M  V30 2237 H 218.087 3.02038 -4.62036 0
M  V30 2238 H 220.563 3.16686 -2.69906 0
M  V30 2239 H 219.439 4.45196 -3.21079 0
M  V30 2240 H 219.7 4.15927 -1.49857 0
M  V30 2241 N 218.759 1.29093 0.90403 0
M  V30 2242 C 219.707 1.13727 2.02901 0
M  V30 2243 C 220.701 0.0539853 1.69314 0
M  V30 2244 O 221.907 0.213469 1.7873 0
M  V30 2245 H 218.282 0.35117 0.664969 0
M  V30 2246 H 220.253 2.08982 2.13001 0
M  V30 2247 C 219.002 0.826066 3.37745 0
M  V30 2248 H 218.325 1.65164 3.64089 0
M  V30 2249 H 219.765 0.758559 4.17159 0
M  V30 2250 C 218.224 -0.470541 3.33598 0
M  V30 2251 O 218.754 -1.49792 3.72727 0
M  V30 2252 N 216.96 -0.474812 2.86695 0
M  V30 2253 H 216.507 0.361692 2.55048 0
M  V30 2254 H 216.465 -1.34236 2.84303 0
M  V30 2255 N 220.237 -1.11381 1.11499 0
M  V30 2256 C 221.187 -2.15555 0.74298 0
M  V30 2257 C 222.171 -1.58894 -0.253276 0
M  V30 2258 O 223.363 -1.76897 -0.0602918 0
M  V30 2259 C 220.492 -3.42782 0.188481 0
M  V30 2260 C 219.578 -4.064 1.21244 0
M  V30 2261 N 219.969 -4.44864 2.40685 0
M  V30 2262 C 218.267 -4.3333 1.05552 0
M  V30 2263 C 218.968 -4.94715 3.05994 0
M  V30 2264 N 217.944 -4.90909 2.33472 0
M  V30 2265 H 221.746 -2.43074 1.65203 0
M  V30 2266 H 219.26 -1.28401 0.994329 0
M  V30 2267 H 221.257 -4.16789 -0.0961693 0
M  V30 2268 H 219.917 -3.16727 -0.715149 0
M  V30 2269 H 220.928 -4.36876 2.78136 0
M  V30 2270 H 217.605 -4.1698 0.208372 0
M  V30 2271 H 218.995 -5.34103 4.07656 0
M  V30 2272 N 221.715 -0.905404 -1.28997 0
M  V30 2273 C 222.665 -0.358713 -2.25161 0
M  V30 2274 C 223.649 0.524449 -1.52113 0
M  V30 2275 O 224.841 0.365534 -1.73184 0
M  V30 2276 C 221.97 0.407609 -3.40872 0
M  V30 2277 C 221.056 -0.490797 -4.21251 0
M  V30 2278 N 221.447 -1.60061 -4.79806 0
M  V30 2279 C 219.745 -0.289636 -4.45059 0
M  V30 2280 C 220.446 -2.15757 -5.40207 0
M  V30 2281 N 219.422 -1.44988 -5.23908 0
M  V30 2282 H 223.224 -1.20642 -2.67998 0
M  V30 2283 H 220.738 -0.757103 -1.43672 0
M  V30 2284 H 222.735 0.816046 -4.08835 0
M  V30 2285 H 221.395 1.25251 -2.9957 0
M  V30 2286 H 222.406 -1.98329 -4.7842 0
M  V30 2287 H 219.083 0.51643 -4.14294 0
M  V30 2288 H 220.473 -3.09069 -5.96595 0
M  V30 2289 N 223.193 1.4272 -0.668489 0
M  V30 2290 C 224.103 2.34596 0.0139753 0
M  V30 2291 C 225.119 1.5474 0.795703 0
M  V30 2292 O 226.295 1.87334 0.739466 0
M  V30 2293 C 223.36 3.33202 0.957982 0
M  V30 2294 C 222.421 4.28957 0.17149 0
M  V30 2295 C 221.654 5.22853 1.07053 0
M  V30 2296 O 221.877 5.21531 2.31001 0
M  V30 2297 O 220.811 5.9952 0.534727 0
M  V30 2298 H 224.637 2.9448 -0.742661 0
M  V30 2299 H 222.222 1.43117 -0.428705 0
M  V30 2300 H 224.104 3.93796 1.50008 0
M  V30 2301 H 222.779 2.758 1.69458 0
M  V30 2302 H 221.686 3.71796 -0.414558 0
M  V30 2303 H 223.019 4.89383 -0.52586 0
M  V30 2304 N 224.671 0.411399 1.52136 0
M  V30 2305 C 225.901 -0.16284 2.05957 0
M  V30 2306 C 226.309 -1.3922 1.28119 0
M  V30 2307 O 225.652 -1.80768 0.326881 0
M  V30 2308 C 225.714 -0.575946 3.54856 0
M  V30 2309 C 225.378 0.542998 4.53763 0
M  V30 2310 C 226.375 1.40726 5.00492 0
M  V30 2311 C 224.06 0.716337 4.97166 0
M  V30 2312 C 226.054 2.4298 5.8927 0
M  V30 2313 C 223.741 1.74218 5.8574 0
M  V30 2314 C 224.739 2.59731 6.31687 0
M  V30 2315 O 224.427 3.60558 7.18507 0
M  V30 2316 H 224.159 -0.0229125 0.675612 0
M  V30 2317 H 226.713 0.581634 1.96993 0
M  V30 2318 H 224.943 -1.37274 3.61515 0
M  V30 2319 H 226.632 -1.07836 3.91313 0
M  V30 2320 H 227.398 1.28476 4.67674 0
M  V30 2321 H 223.277 0.0603857 4.6096 0
M  V30 2322 H 226.821 3.0976 6.25055 0
M  V30 2323 H 222.718 1.86498 6.17971 0
M  V30 2324 H 223.486 3.56829 7.36624 0
M  V30 2325 N 226.149 -1.5696 0.141893 0
M  V30 2326 C 227.097 -2.17784 -0.816874 0
M  V30 2327 C 228.091 -1.1334 -1.25899 0
M  V30 2328 O 229.297 -1.316 -1.22806 0
M  V30 2329 H 225.672 -0.697278 -0.281615 0
M  V30 2330 H 227.643 -2.97087 -0.279621 0
M  V30 2331 C 226.392 -2.80983 -2.04802 0
M  V30 2332 H 225.715 -3.61062 -1.7168 0
M  V30 2333 H 227.155 -3.2705 -2.69841 0
M  V30 2334 C 225.614 -1.79228 -2.8527 0
M  V30 2335 O 226.144 -1.25962 -3.8144 0
M  V30 2336 N 224.35 -1.48647 -2.49704 0
M  V30 2337 H 223.897 -1.92155 -1.71564 0
M  V30 2338 H 223.855 -0.808115 -3.03837 0
M  V30 2339 N 227.627 0.131896 -1.57047 0
M  V30 2340 C 229.038 0.690407 -1.73465 0
M  V30 2341 C 229.389 1.8094 -0.758629 0
M  V30 2342 O 228.514 2.16282 0.0713813 0
M  V30 2343 C 229.109 1.25916 -3.14532 0
M  V30 2344 C 227.668 1.76409 -3.32501 0
M  V30 2345 C 226.815 0.658579 -2.69366 0
M  V30 2346 H 229.766 -0.0939144 -1.58422 0
M  V30 2347 H 229.787 2.12892 -3.15369 0
M  V30 2348 H 229.299 0.444515 -3.85546 0
M  V30 2349 H 227.4 2.60391 -2.66509 0
M  V30 2350 H 227.513 1.88241 -4.4057 0
M  V30 2351 H 225.877 1.08899 -2.30246 0
M  V30 2352 H 226.66 -0.14487 -3.42994 0
M  V30 2353 N 229.106 1.52395 0.401703 0
M  V30 2354 C 230.331 1.70972 1.17403 0
M  V30 2355 C 230.756 0.421615 1.83314 0
M  V30 2356 O 230.114 -0.621564 1.70312 0
M  V30 2357 C 230.162 2.85151 2.20728 0
M  V30 2358 O 229.266 2.51238 3.27037 0
M  V30 2359 H 228.607 0.568927 0.342372 0
M  V30 2360 H 231.137 1.99131 0.469891 0
M  V30 2361 H 231.147 3.10279 2.64936 0
M  V30 2362 H 229.822 3.78603 1.7214 0
M  V30 2363 H 228.399 2.36808 2.88057 0
M  V30 2364 N 230.584 -0.659388 1.43143 0
M  V30 2365 C 231.494 -1.80167 1.50256 0
M  V30 2366 C 232.51 -1.69571 0.390106 0
M  V30 2367 O 233.686 -1.90849 0.643319 0
M  V30 2368 C 230.751 -3.16409 1.41725 0
M  V30 2369 C 229.812 -3.38848 2.63591 0
M  V30 2370 C 229.045 -4.68591 2.55458 0
M  V30 2371 O 229.268 -5.47532 1.59891 0
M  V30 2372 O 228.202 -4.92614 3.45854 0
M  V30 2373 H 232.028 -1.77121 2.46702 0
M  V30 2374 H 229.613 -0.817092 1.25076 0
M  V30 2375 H 231.495 -3.9768 1.39387 0
M  V30 2376 H 230.17 -3.20059 0.484118 0
M  V30 2377 H 229.077 -2.57366 2.71502 0
M  V30 2378 H 230.41 -3.4004 3.55856 0
M  V30 2379 N 232.062 -1.29571 -0.897171 0
M  V30 2380 C 233.012 -1.11539 -1.98855 0
M  V30 2381 C 233.996 -0.0340716 -1.60864 0
M  V30 2382 O 235.188 -0.256062 -1.75138 0
M  V30 2383 C 232.317 -0.796603 -3.3393 0
M  V30 2384 C 231.403 -1.91758 -3.78272 0
M  V30 2385 N 231.794 -3.16143 -3.94826 0
M  V30 2386 C 230.092 -1.81119 -4.07568 0
M  V30 2387 C 230.793 -3.89293 -4.32233 0
M  V30 2388 N 229.769 -3.17255 -4.41419 0
M  V30 2389 H 233.571 -2.05894 -2.09726 0
M  V30 2390 H 231.085 -1.20732 -1.08616 0
M  V30 2391 H 233.082 -0.648459 -4.11826 0
M  V30 2392 H 231.742 0.139003 -3.24402 0
M  V30 2393 H 232.753 -3.5157 -3.80288 0
M  V30 2394 H 229.43 -0.948461 -4.06584 0
M  V30 2395 H 230.82 -4.9635 -4.52865 0
M  V30 2396 N 233.54 1.10788 -1.12088 0
M  V30 2397 C 234.49 2.15158 -0.754401 0
M  V30 2398 C 235.474 1.59026 0.244846 0
M  V30 2399 O 236.666 1.76927 0.0509097 0
M  V30 2400 C 233.795 3.42677 -0.206657 0
M  V30 2401 C 232.881 4.05751 -1.23398 0
M  V30 2402 N 233.272 4.43582 -2.43041 0
M  V30 2403 C 231.57 4.32764 -1.07848 0
M  V30 2404 C 232.271 4.93085 -3.08613 0
M  V30 2405 N 231.247 4.89664 -2.36072 0
M  V30 2406 H 235.049 2.42195 -1.6649 0
M  V30 2407 H 232.563 1.27872 -1.00112 0
M  V30 2408 H 234.56 4.16834 0.0740646 0
M  V30 2409 H 233.22 3.17101 0.698342 0
M  V30 2410 H 234.231 4.35395 -2.80449 0
M  V30 2411 H 230.908 4.16863 -0.230483 0
M  V30 2412 H 232.298 5.31933 -4.10483 0
M  V30 2413 N 235.018 0.912232 1.28515 0
M  V30 2414 C 236.264 0.545405 1.95328 0
M  V30 2415 C 236.597 -0.908313 1.71649 0
M  V30 2416 O 235.872 -1.64575 1.03659 0
M  V30 2417 C 236.155 0.853483 3.4984 0
M  V30 2418 C 236.008 2.35982 3.82926 0
M  V30 2419 C 237.327 0.348589 4.38717 0
M  V30 2420 H 234.446 0.199626 0.709449 0
M  V30 2421 H 237.088 1.1412 1.5191 0
M  V30 2422 H 235.238 0.34643 3.86952 0
M  V30 2423 H 236.91 2.93738 3.55691 0
M  V30 2424 H 235.153 2.81543 3.30024 0
M  V30 2425 H 235.824 2.52593 4.90816 0
M  V30 2426 H 238.3 0.78294 4.08668 0
M  V30 2427 H 237.176 0.593242 5.45685 0
M  V30 2428 H 237.437 -0.751049 4.35674 0
M  V30 2429 N 236.496 -1.42363 0.676048 0
M  V30 2430 C 237.742 -2.0182 0.199125 0
M  V30 2431 C 238.075 -1.53339 -1.19168 0
M  V30 2432 O 237.35 -0.736124 -1.80032 0
M  V30 2433 C 237.633 -3.59331 0.235144 0
M  V30 2434 C 237.486 -4.17989 1.66149 0
M  V30 2435 C 238.805 -4.3813 -0.41595 0
M  V30 2436 H 235.924 -0.733293 0.0738311 0
M  V30 2437 H 238.566 -1.69368 0.86107 0
M  V30 2438 H 236.716 -3.87109 -0.328487 0
M  V30 2439 H 238.388 -4.0116 2.27747 0
M  V30 2440 H 236.631 -3.7377 2.20178 0
M  V30 2441 H 237.302 -5.27126 1.63837 0
M  V30 2442 H 239.778 -4.16051 0.0638529 0
M  V30 2443 H 238.654 -5.47717 -0.360115 0
M  V30 2444 H 238.915 -4.16101 -1.49373 0
M  V30 2445 N 237.974 -0.419461 -1.51915 0
M  V30 2446 C 239.199 0.154572 -2.06823 0
M  V30 2447 C 239.624 1.3722 -1.28656 0
M  V30 2448 O 238.982 1.78461 -0.319583 0
M  V30 2449 C 239.03 0.473172 -3.57482 0
M  V30 2450 O 238.134 1.56255 -3.81652 0
M  V30 2451 H 237.475 0.0096924 -0.663929 0
M  V30 2452 H 240.005 -0.595642 -1.95738 0
M  V30 2453 H 240.015 0.728825 -4.01438 0
M  V30 2454 H 238.69 -0.416873 -4.13805 0
M  V30 2455 H 237.267 1.29825 -3.49571 0
M  V30 2456 N 239.452 1.56882 -0.150215 0
M  V30 2457 C 240.4 2.18214 0.805313 0
M  V30 2458 C 241.394 1.14006 1.25296 0
M  V30 2459 O 242.6 1.3225 1.22107 0
M  V30 2460 H 238.975 0.698762 0.277913 0
M  V30 2461 H 240.946 2.97231 0.263862 0
M  V30 2462 C 239.695 2.82065 2.03309 0
M  V30 2463 H 239.018 3.61968 1.69763 0
M  V30 2464 H 240.458 3.28477 2.68103 0
M  V30 2465 C 238.917 1.80739 2.84315 0
M  V30 2466 O 239.447 1.27983 3.80767 0
M  V30 2467 N 237.653 1.4997 2.48913 0
M  V30 2468 H 237.2 1.93062 1.70542 0
M  V30 2469 H 237.158 0.824217 3.03404 0
M  V30 2470 N 240.93 -0.123565 1.57115 0
M  V30 2471 C 241.893 -1.13583 1.99076 0
M  V30 2472 C 242.893 -1.34564 0.880296 0
M  V30 2473 O 244.083 -1.31158 1.14644 0
M  V30 2474 C 241.215 -2.49128 2.32698 0
M  V30 2475 H 242.408 -0.775287 2.89706 0
M  V30 2476 H 239.961 -0.36771 1.51913 0
M  V30 2477 H 240.696 -2.90111 1.44934 0
M  V30 2478 H 240.481 -2.35255 3.13684 0
M  V30 2479 H 241.971 -3.2199 2.65918 0
M  V30 2480 N 242.408 -1.52605 -0.393616 0
M  V30 2481 C 243.633 -1.71592 -1.16495 0
M  V30 2482 C 244.058 -0.43133 -1.83088 0
M  V30 2483 O 243.416 0.612523 -1.7064 0
M  V30 2484 C 243.464 -2.86318 -2.19213 0
M  V30 2485 O 242.568 -2.52969 -3.257 0
M  V30 2486 H 241.909 -0.570734 -0.33935 0
M  V30 2487 H 244.439 -1.99377 -0.459324 0
M  V30 2488 H 244.449 -3.1168 -2.63286 0
M  V30 2489 H 243.124 -3.79511 -1.7013 0
M  V30 2490 H 241.701 -2.38332 -2.86797 0
M  V30 2491 N 243.887 0.651787 -1.4349 0
M  V30 2492 C 245.127 1.42345 -1.46688 0
M  V30 2493 C 245.491 1.91793 -0.0891023 0
M  V30 2494 O 246.692 2.688 0.00423594 0
M  V30 2495 C 244.963 2.57221 -2.48137 0
M  V30 2496 S 246.522 3.45725 -2.70221 0
M  V30 2497 H 243.34 0.485878 -0.51908 0
M  V30 2498 H 245.942 0.756578 -1.80267 0
M  V30 2499 H 244.646 2.1917 -3.46976 0
M  V30 2500 H 244.177 3.28757 -2.16061 0
M  V30 2501 H 246.192 4.53996 -2.00255 0
M  V30 2502 N 245.365 1.30045 0.890287 0
M  V30 2503 C 246.593 1.21472 1.67487 0
M  V30 2504 C 247.008 -0.223241 1.87476 0
M  V30 2505 O 246.365 -1.14828 1.41847 0
M  V30 2506 C 246.416 1.93394 3.05419 0
M  V30 2507 O 246.137 3.31576 2.86337 0
M  V30 2508 C 247.638 1.91414 3.99844 0
M  V30 2509 H 244.858 0.420604 0.522813 0
M  V30 2510 H 247.402 1.7158 1.11268 0
M  V30 2511 H 245.557 1.47099 3.58386 0
M  V30 2512 H 245.971 3.67929 3.73802 0
M  V30 2513 H 247.445 2.46285 4.94012 0
M  V30 2514 H 247.922 0.891833 4.3005 0
M  V30 2515 H 248.528 2.37496 3.52811 0
M  V30 2516 N 246.843 -1.10192 1.12674 0
M  V30 2517 C 248.071 -1.85983 0.906527 0
M  V30 2518 C 248.486 -1.80783 -0.544333 0
M  V30 2519 O 247.843 -1.19834 -1.37645 0
M  V30 2520 C 247.894 -3.34281 1.37618 0
M  V30 2521 O 247.615 -3.39401 2.77017 0
M  V30 2522 C 249.116 -4.26938 1.19325 0
M  V30 2523 H 246.336 -0.587716 0.323775 0
M  V30 2524 H 248.88 -1.39284 1.49734 0
M  V30 2525 H 247.035 -3.78436 0.828539 0
M  V30 2526 H 247.449 -4.31838 2.97684 0
M  V30 2527 H 248.923 -5.29181 1.57071 0
M  V30 2528 H 249.4 -4.38995 0.134097 0
M  V30 2529 H 250.006 -3.8859 1.72852 0
M  V30 2530 N 248.321 -0.919034 -1.28029 0
M  V30 2531 C 249.269 -0.401753 -2.29104 0
M  V30 2532 C 250.263 0.509354 -1.61561 0
M  V30 2533 O 251.469 0.390014 -1.75724 0
M  V30 2534 H 247.844 -0.111331 -0.743713 0
M  V30 2535 H 249.815 -1.2672 -2.70156 0
M  V30 2536 C 248.564 0.338148 -3.46052 0
M  V30 2537 H 247.887 -0.353732 -3.98232 0
M  V30 2538 H 249.327 0.664653 -4.18758 0
M  V30 2539 C 247.786 1.54798 -2.99231 0
M  V30 2540 O 248.316 2.64696 -3.02157 0
M  V30 2541 N 246.522 1.3968 -2.54829 0
M  V30 2542 H 246.069 0.502698 -2.52647 0
M  V30 2543 H 246.027 2.20755 -2.23863 0
M  V30 2544 N 249.799 1.42003 -0.683588 0
M  V30 2545 C 251.039 2.03282 -0.213513 0
M  V30 2546 C 251.403 1.52924 1.16097 0
M  V30 2547 O 252.604 2.06048 1.7262 0
M  V30 2548 C 250.875 3.56483 -0.255856 0
M  V30 2549 S 252.434 4.3857 0.14193 0
M  V30 2550 H 249.252 0.705659 -0.0869853 0
M  V30 2551 H 251.854 1.73619 -0.8987 0
M  V30 2552 H 250.558 3.90631 -1.25841 0
M  V30 2553 H 250.089 3.90831 0.448875 0
M  V30 2554 H 252.104 4.76828 1.37295 0
M  V30 2555 N 251.277 0.427512 1.51691 0
M  V30 2556 C 252.207 -0.3796 2.30394 0
M  V30 2557 C 253.188 -1.02982 1.35384 0
M  V30 2558 O 254.373 -1.03534 1.643 0
M  V30 2559 C 251.503 -1.48649 3.1388 0
M  V30 2560 C 250.457 -0.960294 4.17088 0
M  V30 2561 C 249.783 -2.16219 4.89033 0
M  V30 2562 C 251.083 -0.00153679 5.223 0
M  V30 2563 H 252.777 0.277164 2.98114 0
M  V30 2564 H 250.323 0.134739 1.43368 0
M  V30 2565 H 252.276 -2.05826 3.67714 0
M  V30 2566 H 251 -2.1714 2.43962 0
M  V30 2567 H 249.659 -0.410806 3.64291 0
M  V30 2568 H 249.307 -2.83307 4.15628 0
M  V30 2569 H 249.007 -1.81654 5.58816 0
M  V30 2570 H 250.531 -2.73968 5.45687 0
M  V30 2571 H 251.945 -0.482687 5.71264 0
M  V30 2572 H 250.342 0.256199 5.99553 0
M  V30 2573 H 251.412 0.938174 4.75738 0
M  V30 2574 N 252.755 -1.56801 0.158532 0
M  V30 2575 C 253.718 -2.16138 -0.762705 0
M  V30 2576 C 254.718 -1.1061 -1.16713 0
M  V30 2577 O 255.908 -1.36191 -1.08617 0
M  V30 2578 C 253.04 -2.73386 -2.03649 0
M  V30 2579 H 254.233 -2.98886 -0.246354 0
M  V30 2580 H 251.786 -1.56035 -0.0909744 0
M  V30 2581 H 252.521 -1.94335 -2.59623 0
M  V30 2582 H 252.306 -3.50601 -1.75559 0
M  V30 2583 H 253.796 -3.19065 -2.6942 0
M  V30 2584 N 254.233 0.115231 -1.57178 0
M  V30 2585 C 255.644 0.67197 -1.74188 0
M  V30 2586 C 255.995 1.80125 -0.777777 0
M  V30 2587 O 255.12 2.16346 0.0484376 0
M  V30 2588 C 255.715 1.22573 -3.1585 0
M  V30 2589 C 254.274 1.72872 -3.34353 0
M  V30 2590 C 253.421 0.629972 -2.70049 0
M  V30 2591 H 256.372 -0.110712 -1.58313 0
M  V30 2592 H 256.393 2.09535 -3.17609 0
M  V30 2593 H 255.905 0.403598 -3.85996 0
M  V30 2594 H 254.006 2.5755 -2.69256 0
M  V30 2595 H 254.119 1.83557 -4.42542 0
M  V30 2596 H 252.483 1.0645 -2.31388 0
M  V30 2597 H 253.266 -0.181241 -3.42821 0
M  V30 2598 N 255.711 1.52812 0.385517 0
M  V30 2599 C 256.96 1.67249 1.12741 0
M  V30 2600 C 257.273 0.4205 1.91027 0
M  V30 2601 O 258.479 0.445064 2.67827 0
M  V30 2602 C 256.935 2.95583 2.05326 0
M  V30 2603 C 256.543 4.27974 1.32447 0
M  V30 2604 C 258.287 3.19386 2.7963 0
M  V30 2605 C 256.194 5.47412 2.23818 0
M  V30 2606 H 255.124 0.6231 0.424573 0
M  V30 2607 H 257.775 1.79309 0.389924 0
M  V30 2608 H 256.157 2.77277 2.82725 0
M  V30 2609 H 257.331 4.56844 0.602495 0
M  V30 2610 H 255.646 4.10459 0.700885 0
M  V30 2611 H 258.243 4.05801 3.48181 0
M  V30 2612 H 258.586 2.34604 3.43899 0
M  V30 2613 H 259.119 3.38274 2.09322 0
M  V30 2614 H 255.858 6.34612 1.64157 0
M  V30 2615 H 255.378 5.22849 2.93921 0
M  V30 2616 H 257.057 5.81423 2.83824 0
M  V30 2617 N 257.189 -0.644168 1.43834 0
M  V30 2618 C 258.435 -1.40603 1.46146 0
M  V30 2619 C 258.768 -1.93997 0.0887717 0
M  V30 2620 O 258.043 -1.72854 -0.891724 0
M  V30 2621 C 258.326 -2.58086 2.51124 0
M  V30 2622 C 258.179 -2.10126 3.97702 0
M  V30 2623 C 259.498 -3.60291 2.52742 0
M  V30 2624 H 256.617 -0.509905 0.532134 0
M  V30 2625 H 259.259 -0.729502 1.75437 0
M  V30 2626 H 257.409 -3.15801 2.26278 0
M  V30 2627 H 259.081 -1.57342 4.33637 0
M  V30 2628 H 257.324 -1.41419 4.10101 0
M  V30 2629 H 257.995 -2.94649 4.66783 0
M  V30 2630 H 260.471 -3.12352 2.7491 0
M  V30 2631 H 259.347 -4.40032 3.28121 0
M  V30 2632 H 259.608 -4.1349 1.56455 0
M  V30 2633 N 258.668 -1.30515 -0.883378 0
M  V30 2634 C 259.618 -1.13641 -1.9766 0
M  V30 2635 C 260.602 -0.0511314 -1.60819 0
M  V30 2636 O 261.794 -0.274623 -1.74857 0
M  V30 2637 C 258.923 -0.831976 -3.33066 0
M  V30 2638 C 258.009 -1.95759 -3.76217 0
M  V30 2639 N 258.4 -3.20313 -3.9145 0
M  V30 2640 C 256.698 -1.85431 -4.05625 0
M  V30 2641 C 257.399 -3.93856 -4.2808 0
M  V30 2642 N 256.375 -3.21919 -4.38029 0
M  V30 2643 H 260.177 -2.08106 -2.07531 0
M  V30 2644 H 257.691 -1.21877 -1.0733 0
M  V30 2645 H 259.688 -0.692102 -4.11115 0
M  V30 2646 H 258.348 0.104588 -3.24532 0
M  V30 2647 H 259.359 -3.55583 -3.76538 0
M  V30 2648 H 256.036 -0.991531 -4.05555 0
M  V30 2649 H 257.426 -5.01125 -4.47575 0
M  V30 2650 N 260.146 1.09593 -1.13257 0
M  V30 2651 C 261.392 1.82003 -0.89458 0
M  V30 2652 C 261.725 1.85402 0.577906 0
M  V30 2653 O 261 1.32099 1.42759 0
M  V30 2654 C 261.283 3.28237 -1.48096 0
M  V30 2655 C 261.136 3.3312 -3.02244 0
M  V30 2656 C 262.455 4.24871 -1.14774 0
M  V30 2657 H 259.574 0.66077 -0.326424 0
M  V30 2658 H 262.216 1.28389 -1.40058 0
M  V30 2659 H 260.366 3.74024 -1.05062 0
M  V30 2660 H 262.038 2.95748 -3.54021 0
M  V30 2661 H 260.281 2.72756 -3.37323 0
M  V30 2662 H 260.952 4.3613 -3.38371 0
M  V30 2663 H 263.428 3.87361 -1.51957 0
M  V30 2664 H 262.304 5.25532 -1.58452 0
M  V30 2665 H 262.565 4.42058 -0.0611849 0
M  V30 2666 N 261.624 0.925811 1.2754 0
M  V30 2667 C 262.554 0.440748 2.29303 0
M  V30 2668 C 263.535 -0.497971 1.62648 0
M  V30 2669 O 264.72 -0.403126 1.8997 0
M  V30 2670 C 261.85 -0.309048 3.45922 0
M  V30 2671 C 260.804 0.54166 4.24559 0
M  V30 2672 C 260.13 -0.337191 5.33636 0
M  V30 2673 C 261.43 1.80516 4.90114 0
M  V30 2674 H 263.124 1.29121 2.70126 0
M  V30 2675 H 260.67 0.622323 1.29858 0
M  V30 2676 H 262.623 -0.659315 4.1621 0
M  V30 2677 H 261.347 -1.19352 3.04011 0
M  V30 2678 H 260.006 0.874609 3.56014 0
M  V30 2679 H 259.654 -1.22056 4.87966 0
M  V30 2680 H 259.354 0.228497 5.87156 0
M  V30 2681 H 260.878 -0.683072 6.06767 0
M  V30 2682 H 262.292 1.52307 5.52698 0
M  V30 2683 H 260.689 2.3142 5.53683 0
M  V30 2684 H 261.759 2.52581 4.13921 0
M  V30 2685 N 263.102 -1.41638 0.69111 0
M  V30 2686 C 264.348 -2.01598 0.220519 0
M  V30 2687 C 264.681 -1.54594 -1.17535 0
M  V30 2688 O 263.956 -0.755177 -1.79241 0
M  V30 2689 C 264.239 -3.59062 0.273243 0
M  V30 2690 C 264.092 -4.16203 1.70573 0
M  V30 2691 C 265.411 -4.38546 -0.369457 0
M  V30 2692 H 262.53 -0.732468 0.0816045 0
M  V30 2693 H 265.172 -1.68445 0.878986 0
M  V30 2694 H 263.322 -3.87435 -0.287411 0
M  V30 2695 H 264.994 -3.98722 2.31989 0
M  V30 2696 H 263.237 -3.71414 2.2413 0
M  V30 2697 H 263.908 -5.25358 1.69419 0
M  V30 2698 H 266.384 -4.1596 0.107977 0
M  V30 2699 H 265.26 -5.48069 -0.302002 0
M  V30 2700 H 265.521 -4.17662 -1.44951 0
M  V30 2701 N 264.58 -0.43555 -1.51462 0
M  V30 2702 C 265.527 0.376797 -2.27703 0
M  V30 2703 C 266.497 1.01838 -1.31219 0
M  V30 2704 O 267.682 1.03762 -1.60119 0
M  V30 2705 C 264.822 1.47301 -3.12084 0
M  V30 2706 C 263.935 0.849744 -4.2356 0
M  V30 2707 C 263.07 1.92086 -4.95254 0
M  V30 2708 C 262.109 1.27593 -5.98654 0
M  V30 2709 N 261.246 2.28833 -6.63762 0
M  V30 2710 H 266.086 -0.279734 -2.96684 0
M  V30 2711 H 263.623 -0.149795 -1.46335 0
M  V30 2712 H 265.581 2.11984 -3.59331 0
M  V30 2713 H 264.211 2.0992 -2.45221 0
M  V30 2714 H 263.263 0.0912529 -3.80291 0
M  V30 2715 H 264.575 0.338878 -4.97648 0
M  V30 2716 H 263.729 2.64435 -5.46039 0
M  V30 2717 H 262.468 2.46545 -4.20793 0
M  V30 2718 H 261.473 0.537893 -5.47162 0
M  V30 2719 H 262.698 0.738693 -6.7507 0
M  V30 2720 H 260.644 2.82375 -5.92115 0
M  V30 2721 H 260.561 1.82632 -7.33608 0
M  V30 2722 H 261.829 3.00671 -7.19178 0
M  V30 2723 N 266.058 1.56714 -0.166846 0
M  V30 2724 C 266.968 2.21331 0.777791 0
M  V30 2725 C 267.984 1.20358 1.25658 0
M  V30 2726 O 269.16 1.53005 1.30964 0
M  V30 2727 C 266.225 2.83787 1.99163 0
M  V30 2728 C 265.286 3.99947 1.56016 0
M  V30 2729 C 264.519 4.59415 2.71613 0
M  V30 2730 O 264.742 4.17769 3.88362 0
M  V30 2731 O 263.676 5.49359 2.45945 0
M  V30 2732 H 267.502 3.02605 0.257636 0
M  V30 2733 H 265.087 1.49275 0.0611393 0
M  V30 2734 H 266.969 3.23405 2.70161 0
M  V30 2735 H 265.644 2.05513 2.50092 0
M  V30 2736 H 264.551 3.65007 0.819809 0
M  V30 2737 H 265.884 4.79801 1.09782 0
M  V30 2738 N 267.536 -0.106894 1.57237 0
M  V30 2739 C 268.784 -0.810921 1.85117 0
M  V30 2740 C 269.105 -1.7984 0.753827 0
M  V30 2741 O 268.375 -1.94649 -0.221056 0
M  V30 2742 H 266.955 -0.302466 0.683025 0
M  V30 2743 H 269.617 -0.0913324 1.94686 0
M  V30 2744 H 268.713 -1.34875 2.81452 0
M  V30 2745 N 269.014 -1.53014 -0.377408 0
M  V30 2746 C 270.261 -1.68623 -1.12128 0
M  V30 2747 C 270.589 -0.431997 -1.89642 0
M  V30 2748 O 269.844 0.585855 -1.86725 0
M  V30 2749 C 270.143 -2.87982 -2.11663 0
M  V30 2750 C 269.809 -4.24964 -1.50719 0
M  V30 2751 C 268.471 -4.62217 -1.33825 0
M  V30 2752 C 270.823 -5.10199 -1.06519 0
M  V30 2753 C 268.151 -5.82352 -0.712963 0
M  V30 2754 C 270.503 -6.30969 -0.453955 0
M  V30 2755 C 269.167 -6.66944 -0.272411 0
M  V30 2756 H 268.437 -0.617034 -0.410305 0
M  V30 2757 H 271.084 -1.8718 -0.404484 0
M  V30 2758 H 269.389 -2.63889 -2.89603 0
M  V30 2759 H 271.086 -2.97253 -2.6915 0
M  V30 2760 H 267.676 -3.95626 -1.64858 0
M  V30 2761 H 271.86 -4.81978 -1.18368 0
M  V30 2762 H 267.116 -6.08824 -0.560611 0
M  V30 2763 H 271.29 -6.96324 -0.103217 0
M  V30 2764 H 268.917 -7.59898 0.214181 0
M  V30 2765 N 270.492 0.636531 -1.44174 0
M  V30 2766 C 271.74 1.39343 -1.46383 0
M  V30 2767 C 272.061 1.94766 -0.0955715 0
M  V30 2768 O 271.331 1.75452 0.871395 0
M  V30 2769 H 269.911 0.517199 -0.538994 0
M  V30 2770 H 272.573 0.74957 -1.7991 0
M  V30 2771 H 271.669 2.22746 -2.18611 0
M  V30 2772 N 271.97 1.30982 0.876444 0
M  V30 2773 C 273.216 1.20474 1.63138 0
M  V30 2774 C 273.549 -0.238096 1.92735 0
M  V30 2775 O 272.824 -1.1692 1.55435 0
M  V30 2776 C 273.107 2.04244 2.96574 0
M  V30 2777 C 272.96 3.56793 2.73896 0
M  V30 2778 C 274.279 1.88684 3.97601 0
M  V30 2779 H 271.398 0.439001 0.591985 0
M  V30 2780 H 274.04 1.60704 1.01361 0
M  V30 2781 H 272.19 1.70063 3.493 0
M  V30 2782 H 273.862 4.01077 2.27892 0
M  V30 2783 H 272.105 3.80548 2.08245 0
M  V30 2784 H 272.776 4.10706 3.68815 0
M  V30 2785 H 275.252 2.18584 3.54062 0
M  V30 2786 H 274.128 2.4961 4.88862 0
M  V30 2787 H 274.389 0.848343 4.33884 0
M  V30 2788 N 273.449 -1.08991 1.13837 0
M  V30 2789 C 274.381 -2.15606 0.777612 0
M  V30 2790 C 275.394 -1.61533 -0.202739 0
M  V30 2791 O 276.583 -1.78491 0.0181055 0
M  V30 2792 C 273.683 -3.3864 0.132623 0
M  V30 2793 C 272.856 -4.22115 1.1462 0
M  V30 2794 C 271.915 -5.23564 0.526074 0
M  V30 2795 O 270.941 -5.56678 1.18735 0
M  V30 2796 N 272.143 -5.76266 -0.699866 0
M  V30 2797 H 274.908 -2.47159 1.69506 0
M  V30 2798 H 272.469 -1.24747 1.03198 0
M  V30 2799 H 274.461 -4.03626 -0.29459 0
M  V30 2800 H 273.031 -3.04938 -0.687849 0
M  V30 2801 H 272.251 -3.53199 1.75055 0
M  V30 2802 H 273.539 -4.74709 1.83109 0
M  V30 2803 H 272.937 -5.51585 -1.25581 0
M  V30 2804 H 271.494 -6.42963 -1.06968 0
M  V30 2805 N 274.927 -0.932562 -1.27047 0
M  V30 2806 C 276.155 -0.592031 -1.98249 0
M  V30 2807 C 276.57 0.831062 -1.69525 0
M  V30 2808 O 275.927 1.55299 -0.958561 0
M  V30 2809 C 275.978 -0.814279 -3.5221 0
M  V30 2810 O 275.699 -2.18139 -3.7993 0
M  V30 2811 C 277.2 -0.483121 -4.4066 0
M  V30 2812 H 274.42 -0.223896 -0.632544 0
M  V30 2813 H 276.964 -1.25091 -1.61779 0
M  V30 2814 H 275.119 -0.20213 -3.86872 0
M  V30 2815 H 275.533 -2.235 -4.74498 0
M  V30 2816 H 277.007 -0.689298 -5.47679 0
M  V30 2817 H 277.484 0.581546 -4.35333 0
M  V30 2818 H 278.09 -1.07362 -4.11526 0
M  V30 2819 N 276.405 1.4127 -0.698611 0
M  V30 2820 C 277.653 2.00782 -0.230409 0
M  V30 2821 C 277.974 1.5562 1.17505 0
M  V30 2822 O 277.244 0.78815 1.79346 0
M  V30 2823 H 275.824 0.742464 -0.0821944 0
M  V30 2824 H 278.486 1.72852 -0.90045 0
M  V30 2825 H 277.582 3.11095 -0.25021 0
M  V30 2826 N 277.883 0.443576 1.51229 0
M  V30 2827 C 278.813 -0.355142 2.30783 0
M  V30 2828 C 279.794 -1.0154 1.36468 0
M  V30 2829 O 280.979 -1.01785 1.65389 0
M  V30 2830 C 278.109 -1.45312 3.15439 0
M  V30 2831 C 277.063 -0.916002 4.18083 0
M  V30 2832 C 276.389 -2.1102 4.91299 0
M  V30 2833 C 277.689 0.0538602 5.22272 0
M  V30 2834 H 279.383 0.308767 2.97804 0
M  V30 2835 H 276.929 0.149937 1.43217 0
M  V30 2836 H 278.882 -2.01914 3.69876 0
M  V30 2837 H 277.606 -2.14541 2.46252 0
M  V30 2838 H 276.265 -0.372145 3.64706 0
M  V30 2839 H 275.913 -2.78882 4.18609 0
M  V30 2840 H 275.613 -1.75717 5.60712 0
M  V30 2841 H 277.137 -2.68164 5.48562 0
M  V30 2842 H 278.551 -0.422069 5.71744 0
M  V30 2843 H 276.948 0.319776 5.99247 0
M  V30 2844 H 278.018 0.98858 4.74716 0
M  V30 2845 N 279.361 -1.56624 0.175154 0
M  V30 2846 C 280.294 -2.14 -0.792412 0
M  V30 2847 C 281.272 -1.07114 -1.22333 0
M  V30 2848 O 282.456 -1.35112 -1.31442 0
M  V30 2849 C 279.583 -2.68268 -2.0676 0
M  V30 2850 C 278.629 -3.87562 -1.7804 0
M  V30 2851 S 279.462 -5.27074 -0.946222 0
M  V30 2852 C 280.618 -5.8475 -2.23199 0
M  V30 2853 H 280.851 -2.95736 -0.304588 0
M  V30 2854 H 278.384 -1.54349 -0.0395705 0
M  V30 2855 H 280.342 -3.00182 -2.80002 0
M  V30 2856 H 279.003 -1.86612 -2.52656 0
M  V30 2857 H 278.196 -4.23874 -2.72666 0
M  V30 2858 H 277.798 -3.56555 -1.12891 0
M  V30 2859 H 280.09 -5.97898 -3.18629 0
M  V30 2860 H 281.033 -6.81756 -1.91349 0
M  V30 2861 H 281.441 -5.13198 -2.35134 0
M  V30 2862 N 280.839 0.0985539 -1.57292 0
M  V30 2863 C 282.067 0.816318 -1.90115 0
M  V30 2864 C 282.482 1.72451 -0.768509 0
M  V30 2865 O 281.839 1.80643 0.259687 0
M  V30 2866 C 281.89 1.63259 -3.22535 0
M  V30 2867 O 281.611 0.760934 -4.31441 0
M  V30 2868 C 283.112 2.45372 -3.69199 0
M  V30 2869 H 280.332 0.233595 -0.629027 0
M  V30 2870 H 282.876 0.0768229 -2.04356 0
M  V30 2871 H 281.031 2.32463 -3.09903 0
M  V30 2872 H 281.445 1.32595 -5.07463 0
M  V30 2873 H 282.919 2.98144 -4.64558 0
M  V30 2874 H 283.396 3.23677 -2.96867 0
M  V30 2875 H 284.002 1.81373 -3.84687 0
M  V30 2876 N 282.317 1.53212 0.369288 0
M  V30 2877 C 283.545 1.73119 1.13303 0
M  V30 2878 C 283.96 0.458455 1.83149 0
M  V30 2879 O 283.317 -0.568403 1.73423 0
M  V30 2880 C 283.368 2.89413 2.16616 0
M  V30 2881 O 283.089 4.11761 1.49614 0
M  V30 2882 C 284.59 3.21161 3.05566 0
M  V30 2883 H 281.81 0.579107 0.338934 0
M  V30 2884 H 284.354 1.99942 0.429338 0
M  V30 2885 H 282.509 2.64994 2.82589 0
M  V30 2886 H 282.923 4.76858 2.18419 0
M  V30 2887 H 284.397 4.05949 3.74045 0
M  V30 2888 H 284.874 2.36369 3.70171 0
M  V30 2889 H 285.48 3.47492 2.45213 0
M  V30 2890 N 283.795 -0.628877 1.44509 0
M  V30 2891 C 285.044 -1.38437 1.4669 0
M  V30 2892 C 285.357 -1.95322 0.104272 0
M  V30 2893 O 286.563 -2.715 0.00362163 0
M  V30 2894 C 285.019 -2.50659 2.5826 0
M  V30 2895 C 284.627 -2.00277 4.0074 0
M  V30 2896 C 286.371 -3.27844 2.69664 0
M  V30 2897 C 284.278 -3.09854 5.0373 0
M  V30 2898 H 283.208 -0.520245 0.545766 0
M  V30 2899 H 285.859 -0.676313 1.70582 0
M  V30 2900 H 284.241 -3.2405 2.27612 0
M  V30 2901 H 285.415 -1.33736 4.40966 0
M  V30 2902 H 283.73 -1.35901 3.93599 0
M  V30 2903 H 286.327 -4.09534 3.43781 0
M  V30 2904 H 286.67 -3.77471 1.75559 0
M  V30 2905 H 287.203 -2.61543 2.99733 0
M  V30 2906 H 283.942 -2.65168 5.99472 0
M  V30 2907 H 283.462 -3.7503 4.68095 0
M  V30 2908 H 285.141 -3.74592 5.27532 0
M  V30 2909 N 285.273 -1.31445 -0.869486 0
M  V30 2910 C 286.223 -1.15731 -1.96444 0
M  V30 2911 C 287.207 -0.0681855 -1.60755 0
M  V30 2912 O 288.399 -0.293154 -1.74555 0
M  V30 2913 C 285.528 -0.867255 -3.32165 0
M  V30 2914 C 284.614 -1.99738 -3.74119 0
M  V30 2915 N 285.005 -3.24447 -3.88031 0
M  V30 2916 C 283.303 -1.89723 -4.03635 0
M  V30 2917 C 284.004 -3.98374 -4.23879 0
M  V30 2918 N 282.98 -3.26547 -4.3459 0
M  V30 2919 H 286.782 -2.10296 -2.05312 0
M  V30 2920 H 284.296 -1.23009 -1.06031 0
M  V30 2921 H 286.293 -0.735668 -4.10358 0
M  V30 2922 H 284.953 0.0701614 -3.24624 0
M  V30 2923 H 285.964 -3.59557 -3.72746 0
M  V30 2924 H 282.641 -1.03449 -4.04481 0
M  V30 2925 H 284.031 -5.05844 -4.42235 0
M  V30 2926 N 286.751 1.08385 -1.14413 0
M  V30 2927 C 287.976 1.85057 -0.936413 0
M  V30 2928 C 288.401 1.81055 0.509971 0
M  V30 2929 O 287.759 1.1958 1.36273 0
M  V30 2930 C 287.807 3.30505 -1.44217 0
M  V30 2931 O 286.911 4.07491 -0.634409 0
M  V30 2932 H 286.252 0.573425 -0.334784 0
M  V30 2933 H 288.782 1.36799 -1.52142 0
M  V30 2934 H 288.792 3.81348 -1.45043 0
M  V30 2935 H 287.467 3.32734 -2.49522 0
M  V30 2936 H 286.044 3.66368 -0.694902 0
M  V30 2937 N 288.23 0.939286 1.26551 0
M  V30 2938 C 289.46 0.601663 1.97645 0
M  V30 2939 C 289.868 -0.827206 1.70159 0
M  V30 2940 O 289.211 -1.56291 0.965338 0
M  V30 2941 C 289.273 0.761725 3.51337 0
M  V30 2942 C 288.937 2.16487 4.0247 0
M  V30 2943 C 289.934 3.14016 4.14355 0
M  V30 2944 C 287.619 2.48494 4.36527 0
M  V30 2945 C 289.613 4.41654 4.59587 0
M  V30 2946 C 287.3 3.76364 4.81449 0
M  V30 2947 C 288.298 4.72758 4.92939 0
M  V30 2948 O 287.986 5.98352 5.36871 0
M  V30 2949 H 287.718 0.225758 0.637189 0
M  V30 2950 H 290.272 1.26178 1.62075 0
M  V30 2951 H 288.502 0.0444808 3.86674 0
M  V30 2952 H 290.191 0.427442 4.03643 0
M  V30 2953 H 290.957 2.90613 3.8829 0
M  V30 2954 H 286.836 1.74202 4.26819 0
M  V30 2955 H 290.38 5.16896 4.68471 0
M  V30 2956 H 286.277 3.99582 5.06956 0
M  V30 2957 H 287.045 6.01507 5.55096 0
M  V30 2958 N 289.708 -1.40897 0.706093 0
M  V30 2959 C 290.936 -2.05373 0.250887 0
M  V30 2960 C 291.351 -1.53172 -1.10381 0
M  V30 2961 O 290.708 -0.684305 -1.69185 0
M  V30 2962 C 290.759 -3.6088 0.211571 0
M  V30 2963 O 290.48 -4.11153 1.51276 0
M  V30 2964 C 291.981 -4.42517 -0.263346 0
M  V30 2965 H 289.201 -0.66115 0.114552 0
M  V30 2966 H 291.745 -1.80479 0.961635 0
M  V30 2967 H 289.9 -3.84777 -0.450073 0
M  V30 2968 H 290.314 -5.05279 1.40689 0
M  V30 2969 H 291.788 -5.51479 -0.239718 0
M  V30 2970 H 292.265 -4.19396 -1.30397 0
M  V30 2971 H 292.871 -4.23708 0.367677 0
M  V30 2972 N 291.186 -0.45159 -1.50991 0
M  V30 2973 C 292.149 0.341117 -2.26647 0
M  V30 2974 C 293.149 0.937422 -1.30649 0
M  V30 2975 O 294.339 0.809644 -1.54241 0
M  V30 2976 C 291.471 1.48398 -3.06905 0
M  V30 2977 H 292.664 -0.322117 -2.98165 0
M  V30 2978 H 290.217 -0.205122 -1.54948 0
M  V30 2979 H 290.952 2.18284 -2.39838 0
M  V30 2980 H 290.737 1.06241 -3.77432 0
M  V30 2981 H 292.227 2.04367 -3.64176 0
M  V30 2982 N 292.664 1.56529 -0.183458 0
M  V30 2983 C 293.892 2.01623 0.464285 0
M  V30 2984 C 294.307 1.06366 1.55986 0
M  V30 2985 O 293.664 0.0665398 1.82379 0
M  V30 2986 C 293.715 3.46475 1.03139 0
M  V30 2987 O 293.436 4.38095 -0.0204675 0
M  V30 2988 C 294.937 4.0703 1.75617 0
M  V30 2989 H 292.157 0.660596 0.117704 0
M  V30 2990 H 294.701 2.02451 -0.288751 0
M  V30 2991 H 292.856 3.46383 1.73486 0
M  V30 2992 H 293.27 5.22973 0.399952 0
M  V30 2993 H 294.744 5.10271 2.10542 0
M  V30 2994 H 295.221 3.49819 2.65563 0
M  V30 2995 H 295.827 4.1086 1.09882 0
M  V30 2996 N 294.142 -0.090211 1.57342 0
M  V30 2997 C 295.074 -1.13541 1.99101 0
M  V30 2998 C 296.087 -1.3604 0.894258 0
M  V30 2999 O 297.276 -1.34606 1.17233 0
M  V30 3000 C 294.376 -2.49001 2.29895 0
M  V30 3001 C 293.549 -2.46712 3.61182 0
M  V30 3002 C 292.608 -3.64136 3.79857 0
M  V30 3003 O 291.634 -3.46405 4.51655 0
M  V30 3004 N 292.836 -4.83802 3.20806 0
M  V30 3005 H 295.601 -0.779942 2.89373 0
M  V30 3006 H 293.162 -0.279125 1.59476 0
M  V30 3007 H 295.154 -3.26166 2.39578 0
M  V30 3008 H 293.724 -2.76619 1.45605 0
M  V30 3009 H 292.944 -1.55058 3.62423 0
M  V30 3010 H 294.232 -2.42265 4.4742 0
M  V30 3011 H 293.63 -5.01112 2.62494 0
M  V30 3012 H 292.187 -5.58543 3.35966 0
M  V30 3013 N 295.62 -1.53406 -0.361157 0
M  V30 3014 C 296.567 -1.80156 -1.44265 0
M  V30 3015 C 297.537 -0.646183 -1.53015 0
M  V30 3016 O 298.722 -0.888818 -1.68833 0
M  V30 3017 C 295.862 -2.00116 -2.81154 0
M  V30 3018 C 294.975 -3.27833 -2.81335 0
M  V30 3019 C 294.11 -3.37957 -4.09828 0
M  V30 3020 C 293.149 -4.59689 -4.04168 0
M  V30 3021 N 292.286 -4.66942 -5.24318 0
M  V30 3022 H 297.126 -2.72438 -1.20754 0
M  V30 3023 H 294.663 -1.34954 -0.585296 0
M  V30 3024 H 296.621 -2.09677 -3.60682 0
M  V30 3025 H 295.251 -1.11167 -3.03054 0
M  V30 3026 H 294.303 -3.27204 -1.94014 0
M  V30 3027 H 295.615 -4.17442 -2.73027 0
M  V30 3028 H 294.769 -3.46853 -4.97773 0
M  V30 3029 H 293.508 -2.46372 -4.20894 0
M  V30 3030 H 292.513 -4.50889 -3.14609 0
M  V30 3031 H 293.738 -5.5262 -3.947 0
M  V30 3032 H 291.684 -3.7826 -5.35962 0
M  V30 3033 H 291.601 -5.50462 -5.18197 0
M  V30 3034 H 292.869 -4.80127 -6.14084 0
M  V30 3035 N 297.098 0.621204 -1.44841 0
M  V30 3036 C 298.326 1.40752 -1.51646 0
M  V30 3037 C 298.741 1.88246 -0.144549 0
M  V30 3038 O 298.098 1.61422 0.851416 0
M  V30 3039 C 298.149 2.62119 -2.4895 0
M  V30 3040 O 297.87 2.16602 -3.80808 0
M  V30 3041 C 299.371 3.55135 -2.65319 0
M  V30 3042 H 296.591 0.431325 -0.514004 0
M  V30 3043 H 299.135 0.758835 -1.899 0
M  V30 3044 H 297.29 3.23058 -2.13805 0
M  V30 3045 H 297.704 2.95358 -4.33433 0
M  V30 3046 H 299.178 4.36874 -3.37409 0
M  V30 3047 H 299.655 4.04592 -1.70886 0
M  V30 3048 H 300.261 3.00058 -3.01405 0
M  V30 3049 N 298.576 1.31904 0.862503 0
M  V30 3050 C 299.822 1.22197 1.61851 0
M  V30 3051 C 300.155 -0.217641 1.92977 0
M  V30 3052 O 299.43 -1.15264 1.56666 0
M  V30 3053 C 299.713 2.07378 2.94391 0
M  V30 3054 C 299.566 3.59678 2.70096 0
M  V30 3055 C 300.885 1.92891 3.95577 0
M  V30 3056 H 298.004 0.445255 0.587296 0
M  V30 3057 H 300.646 1.6177 0.99651 0
M  V30 3058 H 298.796 1.73758 3.47477 0
M  V30 3059 H 300.468 4.03472 2.23625 0
M  V30 3060 H 298.711 3.82735 2.04197 0
M  V30 3061 H 299.382 4.14595 3.64438 0
M  V30 3062 H 301.858 2.22327 3.51724 0
M  V30 3063 H 300.734 2.54781 4.86187 0
M  V30 3064 H 300.995 0.894315 4.3296 0
M  V30 3065 N 300.054 -1.07777 1.14986 0
M  V30 3066 C 301.331 -1.7699 0.832695 0
M  V30 3067 C 301.711 -2.001 -0.672561 0
M  V30 3068 O 301.059 -1.61598 -1.6155 0
M  V30 3069 C 301.269 -3.08139 1.63863 0
M  V30 3070 C 302.617 -3.8256 1.84208 0
M  V30 3071 O 303.641 -3.17939 1.60603 0
M  V30 3072 O 302.5 -4.98612 2.23714 0
M  V30 3073 H 299.594 -0.768389 0.305791 0
M  V30 3074 H 302.14 -1.14182 1.25541 0
M  V30 3075 H 300.912 -2.86909 2.6608 0
M  V30 3076 H 300.535 -3.78678 1.21197 0
M  V30 3077 N 301.532 -0.945985 -1.26051 0
M  V30 3078 C 302.78 -0.594941 -1.93145 0
M  V30 3079 C 303.101 0.86953 -1.7454 0
M  V30 3080 O 302.371 1.61838 -1.10387 0
M  V30 3081 H 300.951 -0.217044 -0.714773 0
M  V30 3082 H 303.613 -1.20235 -1.53393 0
M  V30 3083 H 302.709 -0.816835 -3.01221 0
M  V30 3084 N 303.011 1.40521 -0.713556 0
M  V30 3085 C 304.257 2.01221 -0.252564 0
M  V30 3086 C 304.59 1.56444 1.1506 0
M  V30 3087 O 303.865 0.783597 1.78017 0
M  V30 3088 C 304.148 3.58582 -0.330332 0
M  V30 3089 C 304.001 4.13437 -1.77173 0
M  V30 3090 C 305.32 4.39079 0.299641 0
M  V30 3091 H 302.439 0.731077 -0.0932471 0
M  V30 3092 H 305.081 1.67026 -0.905673 0
M  V30 3093 H 303.231 3.87844 0.225737 0
M  V30 3094 H 304.903 3.9498 -2.38303 0
M  V30 3095 H 303.146 3.67801 -2.3001 0
M  V30 3096 H 303.817 5.22597 -1.77755 0
M  V30 3097 H 306.293 4.15735 -0.174139 0
M  V30 3098 H 305.169 5.4848 0.214771 0
M  V30 3099 H 305.43 4.19915 1.38288 0
M  V30 3100 N 304.489 0.459591 1.5075 0
M  V30 3101 C 305.714 -0.0996819 2.0716 0
M  V30 3102 C 306.139 -1.33761 1.32249 0
M  V30 3103 O 305.497 -1.77551 0.366786 0
M  V30 3104 C 305.545 -0.378226 3.58611 0
M  V30 3105 O 304.649 -1.46081 3.85661 0
M  V30 3106 H 303.99 0.00791392 0.663953 0
M  V30 3107 H 306.52 0.647329 1.9409 0
M  V30 3108 H 306.53 -0.622135 4.03229 0
M  V30 3109 H 305.205 0.526439 4.12555 0
M  V30 3110 H 303.782 -1.20511 3.5289 0
M  V30 3111 N 305.967 -1.56429 0.191757 0
M  V30 3112 C 307.213 -1.97777 -0.448554 0
M  V30 3113 C 307.546 -1.07847 -1.61501 0
M  V30 3114 O 306.821 -0.129774 -1.94067 0
M  V30 3115 C 307.104 -3.48362 -0.911906 0
M  V30 3116 C 306.957 -4.4907 0.256136 0
M  V30 3117 C 308.276 -4.02561 -1.77857 0
M  V30 3118 H 305.395 -0.719071 -0.161572 0
M  V30 3119 H 308.037 -1.87896 0.282007 0
M  V30 3120 H 306.187 -3.56914 -1.53442 0
M  V30 3121 H 307.859 -4.5256 0.893733 0
M  V30 3122 H 306.102 -4.24181 0.908436 0
M  V30 3123 H 306.773 -5.51889 -0.11053 0
M  V30 3124 H 309.249 -3.96767 -1.25359 0
M  V30 3125 H 308.125 -5.08301 -2.07174 0
M  V30 3126 H 308.386 -3.47616 -2.73158 0
M  V30 3127 N 307.445 0.0818655 -1.57387 0
M  V30 3128 C 308.392 1.09834 -2.0299 0
M  V30 3129 C 309.362 1.39043 -0.908639 0
M  V30 3130 O 310.547 1.50282 -1.17559 0
M  V30 3131 C 307.687 2.40971 -2.47037 0
M  V30 3132 C 306.8 2.18379 -3.7274 0
M  V30 3133 C 305.935 3.43008 -4.0561 0
M  V30 3134 C 304.974 3.15736 -5.24383 0
M  V30 3135 N 304.111 4.32667 -5.52941 0
M  V30 3136 H 308.951 0.702472 -2.89602 0
M  V30 3137 H 306.488 0.33531 -1.43227 0
M  V30 3138 H 308.446 3.1752 -2.70623 0
M  V30 3139 H 307.076 2.78379 -1.63417 0
M  V30 3140 H 306.128 1.32569 -3.56552 0
M  V30 3141 H 307.44 1.94227 -4.59431 0
M  V30 3142 H 306.594 4.27958 -4.30043 0
M  V30 3143 H 305.333 3.70225 -3.17466 0
M  V30 3144 H 304.338 2.2918 -4.99757 0
M  V30 3145 H 305.563 2.8985 -6.14136 0
M  V30 3146 H 303.509 4.59935 -4.67756 0
M  V30 3147 H 303.426 4.11753 -6.34031 0
M  V30 3148 H 304.694 5.18644 -5.81918 0
M  V30 3149 N 308.923 1.53595 0.353017 0
M  V30 3150 C 310.2 1.61002 1.11075 0
M  V30 3151 C 310.58 0.425356 2.0677 0
M  V30 3152 O 309.928 -0.583267 2.2093 0
M  V30 3153 C 310.138 2.96631 1.83877 0
M  V30 3154 C 311.486 3.51653 2.37961 0
M  V30 3155 O 312.51 2.98743 1.93987 0
M  V30 3156 O 311.369 4.44177 3.18386 0
M  V30 3157 H 308.463 0.650825 0.510251 0
M  V30 3158 H 311.009 1.6594 0.35527 0
M  V30 3159 H 309.781 3.74293 1.14108 0
M  V30 3160 H 309.404 2.95242 2.66304 0
M  V30 3161 N 310.401 -0.613514 1.45168 0
M  V30 3162 C 311.647 -1.37279 1.50087 0
M  V30 3163 C 312.002 -1.91902 0.138294 0
M  V30 3164 O 311.295 -1.71764 -0.84899 0
M  V30 3165 C 311.489 -2.54347 2.51083 0
M  V30 3166 C 311.318 -2.11186 3.97027 0
M  V30 3167 C 310.088 -1.97636 4.65046 0
M  V30 3168 C 312.286 -1.69016 4.85735 0
M  V30 3169 N 310.268 -1.48224 5.95737 0
M  V30 3170 C 311.639 -1.30976 6.06008 0
M  V30 3171 C 313.694 -1.56555 4.72647 0
M  V30 3172 C 312.397 -0.817197 7.14643 0
M  V30 3173 C 314.423 -1.08702 5.81324 0
M  V30 3174 C 313.785 -0.716233 7.00749 0
M  V30 3175 H 309.884 -0.496478 0.60418 0
M  V30 3176 H 312.468 -0.701988 1.81605 0
M  V30 3177 H 310.639 -3.19031 2.21527 0
M  V30 3178 H 312.371 -3.21208 2.46187 0
M  V30 3179 H 309.126 -2.18638 4.20112 0
M  V30 3180 H 309.55 -1.25767 6.65216 0
M  V30 3181 H 314.192 -1.83849 3.80736 0
M  V30 3182 H 311.91 -0.531797 8.06348 0
M  V30 3183 H 315.496 -0.994943 5.7323 0
M  V30 3184 H 314.376 -0.351642 7.83411 0
M  V30 3185 N 311.879 -1.3236 -0.855495 0
M  V30 3186 C 313.295 -1.11332 -1.14356 0
M  V30 3187 C 313.495 0.106751 -2.01217 0
M  V30 3188 O 312.551 0.791891 -2.39761 0
M  V30 3189 C 313.864 -2.39237 -1.82171 0
M  V30 3190 C 315.412 -2.44986 -1.9481 0
M  V30 3191 C 315.887 -3.7281 -2.66039 0
M  V30 3192 N 317.378 -3.73787 -2.73565 0
M  V30 3193 C 318.113 -4.69394 -3.29327 0
M  V30 3194 N 317.609 -5.75367 -3.85907 0
M  V30 3195 N 319.402 -4.56893 -3.27423 0
M  V30 3196 H 311.553 -2.10586 -0.277027 0
M  V30 3197 H 313.816 -0.929701 -0.185364 0
M  V30 3198 H 313.522 -3.28431 -1.25802 0
M  V30 3199 H 313.396 -2.50134 -2.82335 0
M  V30 3200 H 315.783 -1.56252 -2.50338 0
M  V30 3201 H 315.864 -2.38043 -0.936448 0
M  V30 3202 H 315.508 -4.61918 -2.11174 0
M  V30 3203 H 315.438 -3.77024 -3.67642 0
M  V30 3204 H 317.929 -2.97189 -2.33424 0
M  V30 3205 H 318.242 -6.44378 -4.26611 0
M  V30 3206 H 316.587 -5.79123 -3.84242 0
M  V30 3207 H 319.778 -3.73269 -2.82467 0
M  V30 3208 H 319.951 -5.31577 -3.7058 0
M  V30 3209 N 313.357 1.07166 -1.15556 0
M  V30 3210 C 314.605 1.79443 -0.929764 0
M  V30 3211 C 314.926 1.87246 0.544414 0
M  V30 3212 O 314.196 1.37473 1.39564 0
M  V30 3213 H 312.776 0.664625 -0.341003 0
M  V30 3214 H 315.438 1.29499 -1.45657 0
M  V30 3215 H 314.534 2.81832 -1.34079 0
M  V30 3216 N 314.835 0.952656 1.25548 0
M  V30 3217 C 316.083 0.605176 1.92826 0
M  V30 3218 C 316.404 -0.860261 1.74999 0
M  V30 3219 O 315.674 -1.6125 1.11244 0
M  V30 3220 H 314.254 0.220832 0.713612 0
M  V30 3221 H 316.916 1.21047 1.52754 0
M  V30 3222 H 316.012 0.832798 3.00784 0
M  V30 3223 N 316.313 -1.40141 0.720998 0
M  V30 3224 C 317.729 -1.54632 0.395113 0
M  V30 3225 C 317.929 -1.69115 -1.09555 0
M  V30 3226 O 316.985 -1.68377 -1.88163 0
M  V30 3227 C 318.298 -2.77177 1.1659 0
M  V30 3228 C 319.846 -2.91 1.15274 0
M  V30 3229 C 320.321 -4.16465 1.90579 0
M  V30 3230 N 321.812 -4.23476 1.87675 0
M  V30 3231 C 322.547 -5.19475 2.42762 0
M  V30 3232 N 322.043 -6.21348 3.06428 0
M  V30 3233 N 323.836 -5.11592 2.32874 0
M  V30 3234 H 315.987 -1.28986 1.68749 0
M  V30 3235 H 318.25 -0.62412 0.713567 0
M  V30 3236 H 317.956 -2.72771 2.22011 0
M  V30 3237 H 317.83 -3.69442 0.76108 0
M  V30 3238 H 320.217 -2.94907 0.106702 0
M  V30 3239 H 320.298 -1.99838 1.59682 0
M  V30 3240 H 319.942 -4.1332 2.95176 0
M  V30 3241 H 319.872 -5.06646 1.43587 0
M  V30 3242 H 322.363 -3.50497 1.41281 0
M  V30 3243 H 322.676 -6.91034 3.45965 0
M  V30 3244 H 321.021 -6.21777 3.10514 0
M  V30 3245 H 324.212 -4.30936 1.82789 0
M  V30 3246 H 324.385 -5.86233 2.76106 0
M  V30 3247 N 317.792 -0.46758 -1.50504 0
M  V30 3248 C 318.755 0.317059 -2.26996 0
M  V30 3249 C 319.755 0.923513 -1.31635 0
M  V30 3250 O 320.945 0.793239 -1.55091 0
M  V30 3251 C 318.077 1.45134 -3.08462 0
M  V30 3252 H 319.27 -0.353723 -2.97807 0
M  V30 3253 H 316.823 -0.221545 -1.54722 0
M  V30 3254 H 317.558 2.15728 -2.4214 0
M  V30 3255 H 317.343 1.02232 -3.78538 0
M  V30 3256 H 318.833 2.00493 -3.66323 0
M  V30 3257 N 319.27 1.56325 -0.20005 0
M  V30 3258 C 320.233 2.18084 0.705132 0
M  V30 3259 C 321.233 1.13666 1.1374 0
M  V30 3260 O 322.423 1.39023 1.04968 0
M  V30 3261 C 319.555 2.78689 1.96329 0
M  V30 3262 H 320.748 2.99435 0.167023 0
M  V30 3263 H 318.301 1.56221 0.0495725 0
M  V30 3264 H 319.036 2.0115 2.5438 0
M  V30 3265 H 318.821 3.55133 1.66202 0
M  V30 3266 H 320.311 3.26096 2.60866 0
M  V30 3267 N 320.748 -0.0735177 1.57428 0
M  V30 3268 C 321.711 -1.07192 2.02589 0
M  V30 3269 C 322.711 -1.31695 0.922661 0
M  V30 3270 O 323.901 -1.27445 1.18758 0
M  V30 3271 C 321.033 -2.41599 2.40506 0
M  V30 3272 H 322.226 -0.682727 2.92025 0
M  V30 3273 H 319.779 -0.319193 1.53006 0
M  V30 3274 H 320.514 -2.85354 1.5409 0
M  V30 3275 H 320.299 -2.25156 3.21009 0
M  V30 3276 H 321.789 -3.13367 2.76027 0
M  V30 3277 N 322.226 -1.5378 -0.344866 0
M  V30 3278 C 323.472 -1.71216 -1.08687 0
M  V30 3279 C 323.805 -0.473281 -1.88345 0
M  V30 3280 O 323.08 0.52968 -1.87149 0
M  V30 3281 C 323.363 -2.97486 -2.02914 0
M  V30 3282 C 323.216 -4.31579 -1.26727 0
M  V30 3283 C 324.535 -3.19422 -3.0275 0
M  V30 3284 H 321.654 -0.62301 -0.393735 0
M  V30 3285 H 324.296 -1.8645 -0.365563 0
M  V30 3286 H 322.446 -2.84629 -2.64421 0
M  V30 3287 H 324.118 -4.56284 -0.67845 0
M  V30 3288 H 322.361 -4.30049 -0.569273 0
M  V30 3289 H 323.032 -5.16106 -1.95803 0
M  V30 3290 H 325.508 -3.316 -2.51357 0
M  V30 3291 H 324.384 -4.09169 -3.65885 0
M  V30 3292 H 324.645 -2.35656 -3.74057 0
M  V30 3293 N 323.704 0.605807 -1.45491 0
M  V30 3294 C 324.652 1.73754 -1.54636 0
M  V30 3295 C 325.646 1.64207 -0.416219 0
M  V30 3296 O 326.852 1.69979 -0.592199 0
M  V30 3297 H 323.227 0.574073 -0.485741 0
M  V30 3298 H 325.198 1.63169 -2.49837 0
M  V30 3299 C 323.947 3.12135 -1.53189 0
M  V30 3300 H 323.27 3.20141 -2.39478 0
M  V30 3301 H 324.71 3.91147 -1.63645 0
M  V30 3302 C 323.169 3.35921 -0.256616 0
M  V30 3303 O 323.699 3.96194 0.662798 0
M  V30 3304 N 321.905 2.90204 -0.151751 0
M  V30 3305 H 321.452 2.41336 -0.90081 0
M  V30 3306 H 321.41 3.06492 0.700699 0
M  V30 3307 N 325.182 1.32811 0.848464 0
M  V30 3308 C 326.431 1.23075 1.59798 0
M  V30 3309 C 326.744 -0.204419 1.94529 0
M  V30 3310 O 327.95 -0.423701 2.68173 0
M  V30 3311 C 326.406 2.15594 2.88179 0
M  V30 3312 C 326.014 3.64228 2.60849 0
M  V30 3313 C 327.758 2.14709 3.66197 0
M  V30 3314 C 325.665 4.48689 3.85269 0
M  V30 3315 H 324.595 0.457091 0.599653 0
M  V30 3316 H 327.246 1.57813 0.936342 0
M  V30 3317 H 325.628 1.73778 3.55833 0
M  V30 3318 H 326.802 4.14424 2.01467 0
M  V30 3319 H 325.117 3.67306 1.96151 0
M  V30 3320 H 327.714 2.75046 4.58534 0
M  V30 3321 H 328.057 1.13966 4.00397 0
M  V30 3322 H 328.59 2.54837 3.05455 0
M  V30 3323 H 325.329 5.5027 3.56207 0
M  V30 3324 H 324.849 4.03241 4.44024 0
M  V30 3325 H 326.528 4.62006 4.52946 0
M  V30 3326 N 326.66 -1.06551 1.16123 0
M  V30 3327 C 327.909 -1.78687 0.935622 0
M  V30 3328 C 328.222 -1.88056 -0.538001 0
M  V30 3329 O 329.428 -2.56794 -0.88143 0
M  V30 3330 C 327.884 -3.21143 1.62466 0
M  V30 3331 C 327.492 -3.19949 3.13587 0
M  V30 3332 C 329.236 -3.9783 1.48092 0
M  V30 3333 C 327.143 -4.57108 3.75241 0
M  V30 3334 H 326.073 -0.669712 0.346412 0
M  V30 3335 H 328.724 -1.19534 1.39226 0
M  V30 3336 H 327.106 -3.80539 1.09572 0
M  V30 3337 H 328.28 -2.70151 3.73303 0
M  V30 3338 H 326.595 -2.5676 3.27816 0
M  V30 3339 H 329.192 -4.99217 1.91538 0
M  V30 3340 H 329.535 -4.14078 0.429507 0
M  V30 3341 H 330.068 -3.4495 1.98127 0
M  V30 3342 H 326.807 -4.46065 4.80319 0
M  V30 3343 H 326.327 -5.07111 3.20309 0
M  V30 3344 H 328.006 -5.26069 3.76644 0
M  V30 3345 N 328.138 -0.959301 -1.25041 0
M  V30 3346 C 329.549 -0.65667 -1.74771 0
M  V30 3347 C 329.9 0.827852 -1.77879 0
M  V30 3348 O 329.025 1.64783 -1.40269 0
M  V30 3349 C 329.62 -1.1853 -3.1739 0
M  V30 3350 C 328.179 -0.932734 -3.6466 0
M  V30 3351 C 327.326 -1.32558 -2.43564 0
M  V30 3352 H 330.277 -1.13558 -1.10862 0
M  V30 3353 H 330.298 -0.547582 -3.76539 0
M  V30 3354 H 329.81 -2.26576 -3.15095 0
M  V30 3355 H 327.911 0.13257 -3.72364 0
M  V30 3356 H 328.024 -1.57248 -4.52559 0
M  V30 3357 H 326.388 -0.743956 -2.43593 0
M  V30 3358 H 327.171 -2.41537 -2.43957 0
M  V30 3359 N 329.616 1.39756 -0.72842 0
M  V30 3360 C 330.841 2.05472 -0.282159 0
M  V30 3361 C 331.266 1.54549 1.07221 0
M  V30 3362 O 330.624 0.686372 1.67805 0
M  V30 3363 C 330.672 3.59462 -0.286264 0
M  V30 3364 O 329.776 4.05918 0.728298 0
M  V30 3365 H 329.117 0.651226 -0.129618 0
M  V30 3366 H 331.647 1.78915 -0.992499 0
M  V30 3367 H 331.657 4.07798 -0.128373 0
M  V30 3368 H 330.332 3.95889 -1.27456 0
M  V30 3369 H 328.909 3.69012 0.537081 0
M  V30 3370 N 331.094 0.475555 1.50254 0
M  V30 3371 C 332.322 -0.0754493 2.06762 0
M  V30 3372 C 332.737 -1.33111 1.33891 0
M  V30 3373 O 332.094 -1.77846 0.40952 0
M  V30 3374 C 332.145 -0.359008 3.59713 0
M  V30 3375 O 331.866 0.846851 4.29837 0
M  V30 3376 C 333.367 -0.956484 4.32858 0
M  V30 3377 H 330.587 0.00907525 0.670939 0
M  V30 3378 H 333.131 0.665618 1.93364 0
M  V30 3379 H 331.286 -1.05001 3.72899 0
M  V30 3380 H 331.7 0.594162 5.21124 0
M  V30 3381 H 333.174 -1.10463 5.40834 0
M  V30 3382 H 333.651 -1.94775 3.93649 0
M  V30 3383 H 334.257 -0.303723 4.24214 0
M  V30 3384 N 332.573 -1.56217 0.208337 0
M  V30 3385 C 333.801 -2.02337 -0.43215 0
M  V30 3386 C 334.216 -1.08834 -1.54275 0
M  V30 3387 O 333.573 -0.0955462 -1.8225 0
M  V30 3388 C 333.624 -3.48072 -0.976138 0
M  V30 3389 O 333.345 -4.38007 0.0901621 0
M  V30 3390 C 334.846 -4.09773 -1.69119 0
M  V30 3391 H 332.066 -0.662385 -0.10718 0
M  V30 3392 H 334.61 -2.01966 0.320923 0
M  V30 3393 H 332.765 -3.49099 -1.67954 0
M  V30 3394 H 333.179 -5.23543 -0.316701 0
M  V30 3395 H 334.653 -5.13556 -2.02397 0
M  V30 3396 H 335.13 -3.53999 -2.59964 0
M  V30 3397 H 335.736 -4.12556 -1.03332 0
M  V30 3398 N 334.051 0.0651679 -1.57465 0
M  V30 3399 C 335.299 0.761555 -1.87202 0
M  V30 3400 C 335.62 1.77778 -0.801243 0
M  V30 3401 O 334.89 1.95166 0.16937 0
M  V30 3402 H 333.47 0.284251 -0.690804 0
M  V30 3403 H 336.132 0.0396827 -1.9486 0
M  V30 3404 H 335.228 1.27365 -2.84929 0
M  V30 3405 N 335.529 1.53961 0.336706 0
M  V30 3406 C 336.492 1.81724 1.39675 0
M  V30 3407 C 337.492 0.688532 1.45313 0
M  V30 3408 O 338.682 0.956829 1.45569 0
M  V30 3409 C 335.814 1.96543 2.78538 0
M  V30 3410 H 337.007 2.76424 1.16318 0
M  V30 3411 H 334.56 1.45478 0.571474 0
M  V30 3412 H 335.295 1.0401 3.07168 0
M  V30 3413 H 335.08 2.78665 2.75841 0
M  V30 3414 H 336.57 2.19516 3.5525 0
M  V30 3415 N 337.007 -0.598083 1.45811 0
M  V30 3416 C 337.97 -1.69018 1.54808 0
M  V30 3417 C 338.97 -1.55037 0.426652 0
M  V30 3418 O 340.16 -1.59932 0.690456 0
M  V30 3419 C 337.292 -3.0835 1.45371 0
M  V30 3420 H 338.485 -1.62403 2.52121 0
M  V30 3421 H 336.038 -0.814626 1.33392 0
M  V30 3422 H 336.773 -3.20534 0.492793 0
M  V30 3423 H 336.558 -3.19907 2.26721 0
M  V30 3424 H 338.048 -3.8788 1.54721 0
M  V30 3425 N 338.485 -1.33259 -0.841409 0
M  V30 3426 C 339.432 -1.23302 -1.95103 0
M  V30 3427 C 340.402 -0.112204 -1.65721 0
M  V30 3428 O 341.587 -0.290038 -1.88583 0
M  V30 3429 C 338.727 -0.975583 -3.31023 0
M  V30 3430 C 337.84 -2.18243 -3.72819 0
M  V30 3431 C 336.975 -1.85936 -4.97595 0
M  V30 3432 C 336.014 -3.02866 -5.3192 0
M  V30 3433 N 335.151 -2.70565 -6.47873 0
M  V30 3434 H 339.991 -2.18207 -2.02952 0
M  V30 3435 H 337.528 -1.0851 -0.993173 0
M  V30 3436 H 339.486 -0.80677 -4.09325 0
M  V30 3437 H 338.116 -0.0632755 -3.22738 0
M  V30 3438 H 337.168 -2.46107 -2.90061 0
M  V30 3439 H 338.48 -3.05666 -3.94169 0
M  V30 3440 H 337.634 -1.65684 -5.83638 0
M  V30 3441 H 336.373 -0.957452 -4.78209 0
M  V30 3442 H 335.378 -3.23736 -4.44382 0
M  V30 3443 H 336.603 -3.93809 -5.53255 0
M  V30 3444 H 334.549 -1.8293 -6.29978 0
M  V30 3445 H 334.466 -3.51519 -6.69306 0
M  V30 3446 H 335.734 -2.53774 -7.37034 0
M  V30 3447 N 339.963 1.05934 -1.16686 0
M  V30 3448 C 340.926 2.11669 -0.879144 0
M  V30 3449 C 341.926 1.60294 0.127445 0
M  V30 3450 O 343.116 1.7389 -0.103865 0
M  V30 3451 C 340.248 3.39438 -0.315425 0
M  V30 3452 H 341.441 2.38626 -1.81653 0
M  V30 3453 H 338.994 1.22058 -0.976299 0
M  V30 3454 H 339.729 3.18132 0.629468 0
M  V30 3455 H 339.514 3.78034 -1.04079 0
M  V30 3456 H 341.004 4.17391 -0.132189 0
M  V30 3457 N 341.441 0.965919 1.2453 0
M  V30 3458 C 342.687 0.62776 1.92839 0
M  V30 3459 C 343.02 -0.834694 1.75347 0
M  V30 3460 O 342.295 -1.60031 1.10546 0
M  V30 3461 C 342.578 1.00109 3.45905 0
M  V30 3462 C 342.431 2.52011 3.72573 0
M  V30 3463 C 343.75 0.53435 4.36844 0
M  V30 3464 H 340.869 0.229537 0.700344 0
M  V30 3465 H 343.511 1.2046 1.46933 0
M  V30 3466 H 341.661 0.510238 3.85135 0
M  V30 3467 H 343.333 3.08559 3.42912 0
M  V30 3468 H 341.576 2.95287 3.17786 0
M  V30 3469 H 342.247 2.73183 4.79661 0
M  V30 3470 H 344.723 0.955565 4.04979 0
M  V30 3471 H 343.599 0.824152 5.42678 0
M  V30 3472 H 343.86 -0.565589 4.38467 0
M  V30 3473 N 342.919 -1.39368 0.735821 0
M  V30 3474 C 344.167 -2.00101 0.283562 0
M  V30 3475 C 344.488 -1.5868 -1.13338 0
M  V30 3476 O 343.758 -0.835423 -1.77193 0
M  V30 3477 H 342.338 -0.740024 0.101851 0
M  V30 3478 H 345 -1.70404 0.945962 0
M  V30 3479 H 344.096 -3.10323 0.332604 0
M  V30 3480 N 344.397 -0.483516 -1.5 0
M  V30 3481 C 345.33 0.350427 -2.25493 0
M  V30 3482 C 346.308 0.985549 -1.29328 0
M  V30 3483 O 347.492 1.01906 -1.58579 0
M  V30 3484 C 344.619 1.49202 -3.04066 0
M  V30 3485 C 343.665 0.973036 -4.15252 0
M  V30 3486 S 344.498 -0.122237 -5.3536 0
M  V30 3487 C 345.654 1.02294 -6.17484 0
M  V30 3488 H 345.887 -0.290381 -2.95878 0
M  V30 3489 H 343.42 -0.268562 -1.52046 0
M  V30 3490 H 345.378 2.14623 -3.49925 0
M  V30 3491 H 344.039 2.10438 -2.33183 0
M  V30 3492 H 343.232 1.82804 -4.69679 0
M  V30 3493 H 342.834 0.396335 -3.71894 0
M  V30 3494 H 345.126 1.93195 -6.49371 0
M  V30 3495 H 346.069 0.517664 -7.06205 0
M  V30 3496 H 346.477 1.28238 -5.49741 0
M  V30 3497 N 345.875 1.56104 -0.216619 0
M  V30 3498 C 347.121 1.98466 0.417033 0
M  V30 3499 C 347.454 1.10403 1.59765 0
M  V30 3500 O 346.729 0.160632 1.93836 0
M  V30 3501 C 347.012 3.49769 0.85637 0
M  V30 3502 C 346.865 4.48606 -0.327546 0
M  V30 3503 C 348.184 4.05339 1.7143 0
M  V30 3504 H 345.303 0.721551 0.150112 0
M  V30 3505 H 347.945 1.87423 -0.311864 0
M  V30 3506 H 346.095 3.5931 1.47745 0
M  V30 3507 H 347.767 4.5108 -0.965618 0
M  V30 3508 H 346.01 4.22682 -0.975805 0
M  V30 3509 H 346.681 5.51995 0.0227149 0
M  V30 3510 H 349.157 3.98712 1.19031 0
M  V30 3511 H 348.033 5.11533 1.99061 0
M  V30 3512 H 348.294 3.51918 2.67593 0
M  V30 3513 N 347.353 -0.0568162 1.57498 0
M  V30 3514 C 348.602 -0.752001 1.87157 0
M  V30 3515 C 348.915 -1.77978 0.811375 0
M  V30 3516 O 350.121 -2.52559 0.996293 0
M  V30 3517 C 348.577 -1.38844 3.3204 0
M  V30 3518 C 348.185 -0.398456 4.46225 0
M  V30 3519 C 349.929 -2.06512 3.70882 0
M  V30 3520 C 347.836 -1.04166 5.82154 0
M  V30 3521 H 346.766 -0.28461 0.698222 0
M  V30 3522 H 349.417 -0.00561272 1.83499 0
M  V30 3523 H 347.799 -2.1836 3.30356 0
M  V30 3524 H 348.973 0.367977 4.59328 0
M  V30 3525 H 347.288 0.174592 4.16034 0
M  V30 3526 H 349.885 -2.55437 4.6974 0
M  V30 3527 H 350.228 -2.87117 3.01445 0
M  V30 3528 H 350.761 -1.33808 3.7462 0
M  V30 3529 H 347.5 -0.275614 6.5492 0
M  V30 3530 H 347.02 -1.7786 5.72823 0
M  V30 3531 H 348.699 -1.55715 6.27982 0
M  V30 3532 N 348.832 -1.54138 -0.328536 0
M  V30 3533 C 350.243 -1.63395 -0.903272 0
M  V30 3534 C 350.594 -0.524828 -1.8905 0
M  V30 3535 O 349.719 0.343068 -2.13663 0
M  V30 3536 C 350.314 -2.9618 -1.64507 0
M  V30 3537 C 348.873 -3.0765 -2.1686 0
M  V30 3538 C 348.02 -2.58933 -0.992416 0
M  V30 3539 H 350.971 -1.58344 -0.106253 0
M  V30 3540 H 350.992 -2.86061 -2.50897 0
M  V30 3541 H 350.504 -3.76884 -0.926302 0
M  V30 3542 H 348.605 -2.31611 -2.91868 0
M  V30 3543 H 348.718 -4.1337 -2.42202 0
M  V30 3544 H 347.082 -2.14706 -1.37016 0
M  V30 3545 H 347.865 -3.42089 -0.288041 0
M  V30 3546 N 350.31 0.590341 -1.46126 0
M  V30 3547 C 351.535 1.37991 -1.54833 0
M  V30 3548 C 351.96 1.87163 -0.187506 0
M  V30 3549 O 351.318 1.61133 0.831008 0
M  V30 3550 C 351.366 2.54867 -2.55098 0
M  V30 3551 O 350.47 3.56061 -2.08073 0
M  V30 3552 H 349.811 0.411265 -0.521303 0
M  V30 3553 H 352.341 0.716819 -1.91632 0
M  V30 3554 H 352.351 3.01886 -2.74461 0
M  V30 3555 H 351.026 2.18429 -3.53923 0
M  V30 3556 H 349.603 3.15574 -1.98664 0
M  V30 3557 N 351.788 1.33704 0.83433 0
M  V30 3558 C 353.016 1.28467 1.62185 0
M  V30 3559 C 353.431 -0.143526 1.88254 0
M  V30 3560 O 352.788 -1.08709 1.4659 0
M  V30 3561 C 352.839 2.06174 2.96942 0
M  V30 3562 O 352.56 3.43422 2.72016 0
M  V30 3563 C 354.061 2.08201 3.91366 0
M  V30 3564 H 351.281 0.4424 0.504503 0
M  V30 3565 H 353.825 1.76145 1.03891 0
M  V30 3566 H 351.98 1.62167 3.51825 0
M  V30 3567 H 352.394 3.83453 3.57861 0
M  V30 3568 H 353.868 2.67017 4.83121 0
M  V30 3569 H 354.345 1.07343 4.2588 0
M  V30 3570 H 354.951 2.52246 3.42421 0
M  V30 3571 N 353.266 -1.05314 1.17247 0
M  V30 3572 C 354.198 -2.13023 0.845812 0
M  V30 3573 C 355.211 -1.62096 -0.151246 0
M  V30 3574 O 356.4 -1.78343 0.0748818 0
M  V30 3575 C 353.5 -3.38047 0.240292 0
M  V30 3576 C 352.673 -4.18255 1.27991 0
M  V30 3577 C 351.732 -5.21625 0.692375 0
M  V30 3578 O 350.758 -5.52619 1.36385 0
M  V30 3579 N 351.96 -5.78201 -0.516178 0
M  V30 3580 H 354.725 -2.41642 1.77283 0
M  V30 3581 H 352.286 -1.21401 1.07115 0
M  V30 3582 H 354.278 -4.04359 -0.16603 0
M  V30 3583 H 352.848 -3.06972 -0.590487 0
M  V30 3584 H 352.068 -3.47451 1.86203 0
M  V30 3585 H 353.356 -4.68643 1.98119 0
M  V30 3586 H 352.754 -5.55301 -1.07969 0
M  V30 3587 H 351.311 -6.4604 -0.86458 0
M  V30 3588 N 354.744 -0.972509 -1.24016 0
M  V30 3589 C 355.992 -0.635776 -1.91839 0
M  V30 3590 C 356.313 0.832312 -1.76345 0
M  V30 3591 O 355.583 1.5946 -1.13795 0
M  V30 3592 H 354.163 -0.232157 -0.710009 0
M  V30 3593 H 356.825 -1.23462 -1.50809 0
M  V30 3594 H 355.921 -0.880545 -2.99421 0
M  V30 3595 N 356.222 1.38976 -0.743202 0
M  V30 3596 C 357.169 2.30544 -0.10861 0
M  V30 3597 C 358.139 1.49642 0.720869 0
M  V30 3598 O 359.324 1.78304 0.679142 0
M  V30 3599 C 356.464 3.36018 0.786496 0
M  V30 3600 C 355.577 4.31963 -0.0564849 0
M  V30 3601 C 354.712 5.24506 0.840657 0
M  V30 3602 C 353.751 6.121 -0.00658363 0
M  V30 3603 N 352.888 6.96973 0.846943 0
M  V30 3604 H 357.728 2.8424 -0.895088 0
M  V30 3605 H 355.265 1.3995 -0.453048 0
M  V30 3606 H 357.223 3.95768 1.31999 0
M  V30 3607 H 355.853 2.83758 1.53887 0
M  V30 3608 H 354.905 3.73763 -0.707492 0
M  V30 3609 H 356.217 4.93703 -0.711229 0
M  V30 3610 H 355.371 5.89322 1.4417 0
M  V30 3611 H 354.11 4.63107 1.52916 0
M  V30 3612 H 353.115 5.46289 -0.620366 0
M  V30 3613 H 354.34 6.75565 -0.691992 0
M  V30 3614 H 352.286 6.38133 1.52059 0
M  V30 3615 H 352.203 7.5559 0.248864 0
M  V30 3616 H 353.471 7.6621 1.43328 0
M  V30 3617 N 357.7 0.491464 1.49741 0
M  V30 3618 C 358.63 -0.28154 2.31796 0
M  V30 3619 C 359.611 -0.971473 1.3963 0
M  V30 3620 O 360.796 -0.964719 1.68543 0
M  V30 3621 C 357.926 -1.35203 3.19902 0
M  V30 3622 C 356.88 -0.782529 4.20786 0
M  V30 3623 C 356.206 -1.95283 4.97764 0
M  V30 3624 C 357.506 0.21999 5.21837 0
M  V30 3625 H 359.2 0.403355 2.96671 0
M  V30 3626 H 356.746 0.195425 1.42668 0
M  V30 3627 H 358.699 -1.90045 3.76113 0
M  V30 3628 H 357.423 -2.06598 2.52953 0
M  V30 3629 H 356.082 -0.255928 3.65706 0
M  V30 3630 H 355.73 -2.65423 4.2727 0
M  V30 3631 H 355.43 -1.57789 5.66018 0
M  V30 3632 H 356.954 -2.50577 5.56816 0
M  V30 3633 H 358.368 -0.23996 5.72798 0
M  V30 3634 H 356.765 0.51026 5.97927 0
M  V30 3635 H 357.835 1.13911 4.7133 0
M  V30 3636 N 359.178 -1.55987 0.224894 0
M  V30 3637 C 360.406 -2.02784 -0.410665 0
M  V30 3638 C 360.821 -1.10464 -1.53112 0
M  V30 3639 O 360.178 -0.114871 -1.82138 0
M  V30 3640 C 360.229 -3.49087 -0.939165 0
M  V30 3641 O 359.95 -4.37887 0.136614 0
M  V30 3642 C 361.451 -4.11543 -1.64763 0
M  V30 3643 H 358.671 -0.663484 -0.100148 0
M  V30 3644 H 361.215 -2.01614 0.342326 0
M  V30 3645 H 359.37 -3.50861 -1.64242 0
M  V30 3646 H 359.784 -5.23849 -0.261155 0
M  V30 3647 H 361.258 -5.15673 -1.96939 0
M  V30 3648 H 361.735 -3.56736 -2.56195 0
M  V30 3649 H 362.341 -4.13629 -0.989503 0
M  V30 3650 N 360.656 0.0484629 -1.57525 0
M  V30 3651 C 361.904 0.741657 -1.88 0
M  V30 3652 C 362.225 1.76918 -0.820054 0
M  V30 3653 O 361.495 1.95335 0.148661 0
M  V30 3654 H 360.075 0.276908 -0.69378 0
M  V30 3655 H 362.737 0.019013 -1.94891 0
M  V30 3656 H 361.833 1.24336 -2.86264 0
M  V30 3657 N 362.134 1.5431 0.320358 0
M  V30 3658 C 363.067 1.78769 1.41834 0
M  V30 3659 C 364.045 0.63783 1.49568 0
M  V30 3660 O 365.229 0.875628 1.66928 0
M  V30 3661 C 362.356 1.90712 2.79905 0
M  V30 3662 C 361.402 3.13023 2.89687 0
M  V30 3663 S 362.235 4.71554 2.53766 0
M  V30 3664 C 363.391 4.86408 3.93902 0
M  V30 3665 H 363.624 2.71619 1.20874 0
M  V30 3666 H 361.157 1.45474 0.517377 0
M  V30 3667 H 363.115 1.98279 3.59438 0
M  V30 3668 H 361.776 0.988343 2.98145 0
M  V30 3669 H 360.969 3.18124 3.90913 0
M  V30 3670 H 360.571 3.03803 2.18128 0
M  V30 3671 H 362.863 4.69241 4.88691 0
M  V30 3672 H 363.806 5.88508 3.93782 0
M  V30 3673 H 364.214 4.14689 3.83005 0
M  V30 3674 N 363.613 -0.582584 1.46437 0
M  V30 3675 C 364.838 -1.37168 1.55563 0
M  V30 3676 C 365.263 -1.87061 0.19743 0
M  V30 3677 O 364.621 -1.61572 -0.822451 0
M  V30 3678 C 364.669 -2.53511 2.56446 0
M  V30 3679 O 363.773 -3.54953 2.09958 0
M  V30 3680 H 363.114 -0.408494 0.523477 0
M  V30 3681 H 365.644 -0.706646 1.9201 0
M  V30 3682 H 365.654 -3.00426 2.76058 0
M  V30 3683 H 364.329 -2.16549 3.55076 0
M  V30 3684 H 362.906 -3.14516 2.00334 0
M  V30 3685 N 365.091 -1.34144 -0.827227 0
M  V30 3686 C 366.338 -1.26258 -1.58319 0
M  V30 3687 C 366.666 0.168595 -1.93768 0
M  V30 3688 O 365.921 1.12877 -1.59866 0
M  V30 3689 C 366.22 -2.09464 -2.89585 0
M  V30 3690 C 365.886 -3.58521 -2.73448 0
M  V30 3691 C 364.548 -3.99155 -2.68754 0
M  V30 3692 C 366.9 -4.53189 -2.57428 0
M  V30 3693 C 364.228 -5.32656 -2.45957 0
M  V30 3694 C 366.58 -5.86864 -2.36163 0
M  V30 3695 C 365.244 -6.26667 -2.29879 0
M  V30 3696 H 364.514 -0.462013 -0.579332 0
M  V30 3697 H 367.161 -1.65845 -0.95748 0
M  V30 3698 H 365.466 -1.62692 -3.56425 0
M  V30 3699 H 367.163 -2.00712 -3.47154 0
M  V30 3700 H 363.753 -3.26264 -2.77939 0
M  V30 3701 H 367.937 -4.22696 -2.60081 0
M  V30 3702 H 363.193 -5.62519 -2.39546 0
M  V30 3703 H 367.367 -6.59813 -2.22754 0
M  V30 3704 H 364.994 -7.30049 -2.11975 0
M  V30 3705 N 366.569 1.04691 -1.17803 0
M  V30 3706 C 367.985 1.29963 -0.926379 0
M  V30 3707 C 368.185 1.97251 0.411635 0
M  V30 3708 O 367.241 2.24922 1.14744 0
M  V30 3709 C 368.554 2.16447 -2.08737 0
M  V30 3710 C 370.102 2.29814 -2.12496 0
M  V30 3711 C 370.577 3.19661 -3.27995 0
M  V30 3712 N 372.068 3.27247 -3.27816 0
M  V30 3713 C 372.803 3.96906 -4.13827 0
M  V30 3714 N 372.299 4.6895 -5.09959 0
M  V30 3715 N 374.092 3.93122 -4.01761 0
M  V30 3716 H 366.243 0.594182 -2.0392 0
M  V30 3717 H 368.506 0.324649 -0.890678 0
M  V30 3718 H 368.212 1.74304 -3.05469 0
M  V30 3719 H 368.086 3.17103 -2.04268 0
M  V30 3720 H 370.473 2.71196 -1.16347 0
M  V30 3721 H 370.554 1.2877 -2.21025 0
M  V30 3722 H 370.198 2.78991 -4.24413 0
M  V30 3723 H 370.128 4.20722 -3.16703 0
M  V30 3724 H 372.619 2.75921 -2.58217 0
M  V30 3725 H 372.932 5.19679 -5.71974 0
M  V30 3726 H 371.277 4.67875 -5.13924 0
M  V30 3727 H 374.468 3.35967 -3.2595 0
M  V30 3728 H 374.641 4.47139 -4.6901 0
M  V30 3729 N 368.047 0.979072 1.23499 0
M  V30 3730 C 369.293 0.648178 1.92163 0
M  V30 3731 C 369.626 -0.816049 1.76222 0
M  V30 3732 O 368.901 -1.58849 1.12237 0
M  V30 3733 C 369.184 1.03773 3.44824 0
M  V30 3734 C 369.037 2.55948 3.69879 0
M  V30 3735 C 370.356 0.580653 4.36253 0
M  V30 3736 H 367.475 0.236952 0.69787 0
M  V30 3737 H 370.117 1.22012 1.45647 0
M  V30 3738 H 368.267 0.551058 3.84572 0
M  V30 3739 H 369.939 3.12179 3.3962 0
M  V30 3740 H 368.182 2.98641 3.14636 0
M  V30 3741 H 368.853 2.78255 4.76737 0
M  V30 3742 H 371.329 0.998465 4.03943 0
M  V30 3743 H 370.205 0.881663 5.41773 0
M  V30 3744 H 370.466 -0.519052 4.39042 0
M  V30 3745 N 369.525 -1.3858 0.750561 0
M  V30 3746 C 370.936 -1.82927 0.373438 0
M  V30 3747 C 371.287 -1.62634 -1.09748 0
M  V30 3748 O 370.412 -1.12588 -1.84805 0
M  V30 3749 C 371.007 -3.32088 0.671029 0
M  V30 3750 C 369.566 -3.74795 0.34722 0
M  V30 3751 C 368.713 -2.61391 0.92575 0
M  V30 3752 H 371.664 -1.27351 0.946958 0
M  V30 3753 H 371.685 -3.80465 -0.0518269 0
M  V30 3754 H 371.197 -3.46826 1.74164 0
M  V30 3755 H 369.298 -3.65638 -0.716933 0
M  V30 3756 H 369.411 -4.71667 0.840656 0
M  V30 3757 H 367.775 -2.52265 0.351327 0
M  V30 3758 H 368.558 -2.78929 2.00133 0
M  V30 3759 N 371.003 -0.499398 -1.49478 0
M  V30 3760 C 372.231 0.0425456 -2.06856 0
M  V30 3761 C 372.646 1.30964 -1.35992 0
M  V30 3762 O 372.003 1.77172 -0.437762 0
M  V30 3763 C 372.054 0.301735 -3.60239 0
M  V30 3764 O 371.775 -0.915127 -4.28436 0
M  V30 3765 C 373.276 0.887499 -4.34325 0
M  V30 3766 H 370.496 -0.0197482 -0.670709 0
M  V30 3767 H 373.04 -0.696297 -1.92281 0
M  V30 3768 H 371.195 0.990556 -3.74522 0
M  V30 3769 H 371.609 -0.676993 -5.20113 0
M  V30 3770 H 373.083 1.01845 -5.42523 0
M  V30 3771 H 373.56 1.88488 -3.96698 0
M  V30 3772 H 374.166 0.236196 -4.24644 0
M  V30 3773 N 372.481 1.55866 -0.233164 0
M  V30 3774 C 373.892 1.847 0.272554 0
M  V30 3775 C 374.243 1.15477 1.58617 0
M  V30 3776 O 373.368 0.42841 2.12117 0
M  V30 3777 C 373.963 3.35071 0.501299 0
M  V30 3778 C 372.522 3.6418 0.951304 0
M  V30 3779 C 371.669 2.77292 0.0208209 0
M  V30 3780 H 374.62 1.52005 -0.456074 0
M  V30 3781 H 374.641 3.55906 1.34577 0
M  V30 3782 H 374.153 3.85424 -0.454936 0
M  V30 3783 H 372.254 3.19293 1.92049 0
M  V30 3784 H 372.367 4.72071 0.817675 0
M  V30 3785 H 370.731 2.49131 0.529723 0
M  V30 3786 H 371.514 3.30448 -0.93054 0
M  V30 3787 N 373.959 -0.0401083 1.57549 0
M  V30 3788 C 375.236 -0.767917 1.79896 0
M  V30 3789 C 375.616 -1.9416 0.82856 0
M  V30 3790 O 374.964 -2.2812 -0.131671 0
M  V30 3791 C 375.174 -1.2113 3.27305 0
M  V30 3792 C 376.522 -1.63175 3.91994 0
M  V30 3793 O 377.546 -1.30616 3.31388 0
M  V30 3794 O 376.405 -2.23565 4.98679 0
M  V30 3795 H 373.499 -0.370441 0.739393 0
M  V30 3796 H 376.045 -0.017737 1.69691 0
M  V30 3797 H 374.817 -0.372937 3.89519 0
M  V30 3798 H 374.44 -2.02183 3.42356 0
M  V30 3799 N 375.437 -1.54477 -0.31217 0
M  V30 3800 C 376.683 -1.73483 -1.0503 0
M  V30 3801 C 377.016 -0.513125 -1.87298 0
M  V30 3802 O 376.291 0.489864 -1.8823 0
M  V30 3803 C 376.574 -3.01723 -1.96558 0
M  V30 3804 C 376.427 -4.3417 -1.17545 0
M  V30 3805 C 377.746 -3.25772 -2.95907 0
M  V30 3806 H 374.865 -0.631222 -0.380432 0
M  V30 3807 H 377.507 -1.87184 -0.325932 0
M  V30 3808 H 375.657 -2.90174 -2.58324 0
M  V30 3809 H 377.329 -4.5762 -0.581513 0
M  V30 3810 H 375.572 -4.31159 -0.477925 0
M  V30 3811 H 376.243 -5.20143 -1.84811 0
M  V30 3812 H 378.719 -3.36857 -2.44267 0
M  V30 3813 H 377.595 -4.16838 -3.57123 0
M  V30 3814 H 377.856 -2.43537 -3.68974 0
M  V30 3815 N 376.915 0.57481 -1.46744 0
M  V30 3816 C 378.14 1.36341 -1.56288 0
M  V30 3817 C 378.565 1.86954 -0.207347 0
M  V30 3818 O 377.923 1.62006 0.813871 0
M  V30 3819 C 377.971 2.52147 -2.57787 0
M  V30 3820 O 377.075 3.53834 -2.11838 0
M  V30 3821 H 376.416 0.405713 -0.525636 0
M  V30 3822 H 378.946 0.696453 -1.92382 0
M  V30 3823 H 378.956 2.98958 -2.77648 0
M  V30 3824 H 377.631 2.14663 -3.5622 0
M  V30 3825 H 376.208 3.1345 -2.01999 0
M  V30 3826 N 378.394 1.34581 0.820102 0
M  V30 3827 C 379.64 1.27285 1.57881 0
M  V30 3828 C 379.973 -0.156137 1.93571 0
M  V30 3829 O 379.248 -1.10222 1.60254 0
M  V30 3830 C 379.531 2.16639 2.87645 0
M  V30 3831 C 379.384 3.68088 2.58517 0
M  V30 3832 C 380.703 2.05378 3.8924 0
M  V30 3833 H 377.822 0.463714 0.572833 0
M  V30 3834 H 380.464 1.64859 0.944539 0
M  V30 3835 H 378.614 1.84725 3.41773 0
M  V30 3836 H 380.286 4.10382 2.10676 0
M  V30 3837 H 378.529 3.89038 1.91917 0
M  V30 3838 H 379.2 4.2598 3.51063 0
M  V30 3839 H 381.676 2.33404 3.44473 0
M  V30 3840 H 380.552 2.7012 4.77835 0
M  V30 3841 H 380.813 1.0316 4.29896 0
M  V30 3842 N 379.872 -1.04064 1.18357 0
M  V30 3843 C 381.118 -1.77528 0.980397 0
M  V30 3844 C 381.451 -1.87948 -0.48879 0
M  V30 3845 O 380.726 -1.3876 -1.36293 0
M  V30 3846 C 381.009 -3.20797 1.63588 0
M  V30 3847 C 380.862 -3.1832 3.17793 0
M  V30 3848 C 382.181 -4.18911 1.34914 0
M  V30 3849 H 379.3 -0.644443 0.357578 0
M  V30 3850 H 381.942 -1.2156 1.46024 0
M  V30 3851 H 380.092 -3.68586 1.22788 0
M  V30 3852 H 381.764 -2.78521 3.67728 0
M  V30 3853 H 380.007 -2.56351 3.49952 0
M  V30 3854 H 380.678 -4.19489 3.58794 0
M  V30 3855 H 383.154 -3.7967 1.70265 0
M  V30 3856 H 382.03 -5.17374 1.83346 0
M  V30 3857 H 382.291 -4.41262 0.272027 0
M  V30 3858 N 381.35 -0.985608 -1.22978 0
M  V30 3859 C 382.627 -0.573599 -1.87001 0
M  V30 3860 C 383.007 0.949213 -1.88555 0
M  V30 3861 O 382.355 1.82811 -1.37086 0
M  V30 3862 C 382.565 -1.18564 -3.28243 0
M  V30 3863 C 383.913 -1.28163 -4.04796 0
M  V30 3864 O 384.937 -1.13949 -3.37482 0
M  V30 3865 O 383.796 -1.50832 -5.25273 0
M  V30 3866 H 380.89 -0.193868 -0.803955 0
M  V30 3867 H 383.436 -1.08102 -1.30813 0
M  V30 3868 H 382.208 -2.22758 -3.21706 0
M  V30 3869 H 381.831 -0.663363 -3.92027 0
M  V30 3870 N 382.828 1.3818 -0.7579 0
M  V30 3871 C 383.758 2.33027 -0.148597 0
M  V30 3872 C 384.739 1.55085 0.69875 0
M  V30 3873 O 385.924 1.83384 0.639053 0
M  V30 3874 C 383.054 3.3928 0.742034 0
M  V30 3875 C 382.008 4.28 -0.00291946 0
M  V30 3876 C 381.334 5.25146 1.00625 0
M  V30 3877 C 382.634 5.08938 -1.17385 0
M  V30 3878 H 384.328 2.84231 -0.940909 0
M  V30 3879 H 381.874 1.36659 -0.453908 0
M  V30 3880 H 383.827 4.046 1.17799 0
M  V30 3881 H 382.551 2.86569 1.56671 0
M  V30 3882 H 381.21 3.64192 -0.419504 0
M  V30 3883 H 380.858 4.68721 1.8251 0
M  V30 3884 H 380.558 5.85361 0.512428 0
M  V30 3885 H 382.082 5.93342 1.44143 0
M  V30 3886 H 383.496 5.67474 -0.815224 0
M  V30 3887 H 381.893 5.7841 -1.59882 0
M  V30 3888 H 382.963 4.42424 -1.98468 0
M  V30 3889 N 384.306 0.507319 1.49211 0
M  V30 3890 C 385.534 -0.0315749 2.06876 0
M  V30 3891 C 385.949 -1.30241 1.36685 0
M  V30 3892 O 385.306 -1.76937 0.447152 0
M  V30 3893 C 385.357 -0.282627 3.60393 0
M  V30 3894 O 385.078 0.937835 4.27944 0
M  V30 3895 C 386.579 -0.864453 4.3479 0
M  V30 3896 H 383.799 0.0233048 0.670595 0
M  V30 3897 H 386.343 0.706484 1.91909 0
M  V30 3898 H 384.498 -0.97068 3.75042 0
M  V30 3899 H 384.912 0.704567 5.19746 0
M  V30 3900 H 386.386 -0.989664 5.43056 0
M  V30 3901 H 386.863 -1.86382 3.97692 0
M  V30 3902 H 387.469 -0.213672 4.24763 0
M  V30 3903 N 385.784 -1.5574 0.241426 0
M  V30 3904 C 387.031 -1.9881 -0.384836 0
M  V30 3905 C 387.359 -1.12947 -1.58346 0
M  V30 3906 O 386.614 -0.178993 -1.9488 0
M  V30 3907 C 386.913 -3.47308 -0.843317 0
M  V30 3908 C 386.579 -4.50223 0.246946 0
M  V30 3909 C 385.241 -4.78088 0.546399 0
M  V30 3910 C 387.593 -5.11841 0.983282 0
M  V30 3911 C 384.921 -5.64846 1.58636 0
M  V30 3912 C 387.273 -5.99727 2.01272 0
M  V30 3913 C 385.937 -6.25927 2.31888 0
M  V30 3914 H 385.207 -0.727496 -0.140821 0
M  V30 3915 H 387.854 -1.8831 0.348106 0
M  V30 3916 H 386.159 -3.55112 -1.65537 0
M  V30 3917 H 387.856 -3.78017 -1.33806 0
M  V30 3918 H 384.446 -4.286 0.00340639 0
M  V30 3919 H 388.63 -4.90366 0.765182 0
M  V30 3920 H 383.886 -5.83403 1.82896 0
M  V30 3921 H 388.06 -6.46517 2.58823 0
M  V30 3922 H 385.687 -6.92949 3.12611 0
M  V30 3923 N 387.262 0.0317525 -1.57568 0
M  V30 3924 C 388.49 0.734949 -1.93407 0
M  V30 3925 C 388.905 1.69036 -0.84096 0
M  V30 3926 O 388.262 1.81582 0.182836 0
M  V30 3927 C 388.313 1.49432 -3.29169 0
M  V30 3928 O 388.034 0.577261 -4.3428 0
M  V30 3929 C 389.535 2.29492 -3.79273 0
M  V30 3930 H 386.755 0.206706 -0.638368 0
M  V30 3931 H 389.299 -0.00992046 -2.04498 0
M  V30 3932 H 387.454 2.1911 -3.19483 0
M  V30 3933 H 387.868 1.10952 -5.1263 0
M  V30 3934 H 389.342 2.78172 -4.76785 0
M  V30 3935 H 389.819 3.10794 -3.10328 0
M  V30 3936 H 390.425 1.64894 -3.92033 0
M  V30 3937 N 388.74 1.54641 0.303973 0
M  V30 3938 C 389.703 1.84646 1.35789 0
M  V30 3939 C 390.703 0.7192 1.4382 0
M  V30 3940 O 391.893 0.987491 1.43507 0
M  V30 3941 C 389.025 2.02407 2.74307 0
M  V30 3942 H 390.218 2.78829 1.10429 0
M  V30 3943 H 387.771 1.46658 0.540487 0
M  V30 3944 H 388.506 1.10502 3.04893 0
M  V30 3945 H 388.291 2.84453 2.69868 0
M  V30 3946 H 389.781 2.27002 3.50514 0
M  V30 3947 N 390.218 -0.567019 1.47046 0
M  V30 3948 C 391.181 -1.65696 1.58359 0
M  V30 3949 C 392.181 -1.54097 0.459441 0
M  V30 3950 O 393.371 -1.58432 0.724225 0
M  V30 3951 C 390.503 -3.05197 1.51879 0
M  V30 3952 H 391.696 -1.57019 2.5551 0
M  V30 3953 H 389.249 -0.786148 1.3509 0
M  V30 3954 H 389.984 -3.19417 0.560673 0
M  V30 3955 H 389.769 -3.15025 2.33455 0
M  V30 3956 H 391.259 -3.84511 1.62913 0
M  V30 3957 N 391.696 -1.35014 -0.812953 0
M  V30 3958 C 393.112 -1.14914 -1.10757 0
M  V30 3959 C 393.312 0.0426818 -2.01455 0
M  V30 3960 O 392.368 0.715212 -2.42159 0
M  V30 3961 C 393.681 -2.44911 -1.74468 0
M  V30 3962 C 395.229 -2.5106 -1.86917 0
M  V30 3963 C 395.704 -3.81085 -2.54044 0
M  V30 3964 N 397.195 -3.82301 -2.61535 0
M  V30 3965 C 397.93 -4.79634 -3.14227 0
M  V30 3966 N 397.426 -5.87353 -3.67407 0
M  V30 3967 N 399.219 -4.67078 -3.12721 0
M  V30 3968 H 391.37 -2.1136 -0.20989 0
M  V30 3969 H 393.633 -0.935128 -0.155692 0
M  V30 3970 H 393.339 -3.32267 -1.15289 0
M  V30 3971 H 393.213 -2.58989 -2.74234 0
M  V30 3972 H 395.6 -1.64137 -2.45241 0
M  V30 3973 H 395.681 -2.40901 -0.860242 0
M  V30 3974 H 395.325 -4.68402 -1.96372 0
M  V30 3975 H 395.255 -3.88529 -3.55461 0
M  V30 3976 H 397.746 -3.04465 -2.23851 0
M  V30 3977 H 398.059 -6.57624 -4.05894 0
M  V30 3978 H 396.404 -5.91054 -3.65623 0
M  V30 3979 H 399.595 -3.82067 -2.70449 0
M  V30 3980 H 399.768 -5.43098 -3.53481 0
M  V30 3981 N 393.175 1.03435 -1.18907 0
M  V30 3982 C 394.452 1.73778 -0.89781 0
M  V30 3983 C 394.832 2.02458 0.597832 0
M  V30 3984 O 394.18 1.67482 1.55441 0
M  V30 3985 C 394.39 3.01845 -1.75187 0
M  V30 3986 C 395.738 3.7546 -1.9828 0
M  V30 3987 O 396.762 3.11759 -1.72293 0
M  V30 3988 O 395.621 4.89966 -2.42065 0
M  V30 3989 H 392.715 0.75651 -0.334098 0
M  V30 3990 H 395.261 1.09444 -1.29693 0
M  V30 3991 H 394.033 2.76836 -2.76545 0
M  V30 3992 H 393.656 3.73919 -1.35167 0
M  V30 3993 N 394.653 0.992116 1.22453 0
M  V30 3994 C 395.881 0.685944 1.95198 0
M  V30 3995 C 396.296 -0.749233 1.73297 0
M  V30 3996 O 395.653 -1.50549 1.03156 0
M  V30 3997 C 395.704 0.981395 3.47924 0
M  V30 3998 O 395.425 2.36018 3.6909 0
M  V30 3999 C 396.926 0.692815 4.37853 0
M  V30 4000 H 394.146 0.253821 0.621141 0
M  V30 4001 H 396.69 1.32668 1.55626 0
M  V30 4002 H 394.845 0.386481 3.85467 0
M  V30 4003 H 395.259 2.45884 4.63294 0
M  V30 4004 H 396.733 0.949818 5.43767 0
M  V30 4005 H 397.21 -0.373181 4.37612 0
M  V30 4006 H 397.816 1.26874 4.05935 0
M  V30 4007 N 396.131 -1.37776 0.765217 0
M  V30 4008 C 397.356 -2.04651 0.336537 0
M  V30 4009 C 397.781 -1.57337 -1.03086 0
M  V30 4010 O 397.139 -0.730621 -1.65927 0
M  V30 4011 C 397.187 -3.58577 0.381468 0
M  V30 4012 O 396.291 -4.07706 -0.62042 0
M  V30 4013 H 395.632 -0.64756 0.146838 0
M  V30 4014 H 398.162 -1.76221 1.03959 0
M  V30 4015 H 398.172 -4.07314 0.236448 0
M  V30 4016 H 396.847 -3.9237 1.37907 0
M  V30 4017 H 395.424 -3.70306 -0.439056 0
M  V30 4018 N 397.609 -0.515225 -1.4894 0
M  V30 4019 C 398.858 0.0261361 -2.01683 0
M  V30 4020 C 399.171 1.36719 -1.39883 0
M  V30 4021 O 400.377 1.99606 -1.84037 0
M  V30 4022 C 398.833 0.0970111 -3.59769 0
M  V30 4023 C 398.441 -1.23825 -4.30548 0
M  V30 4024 C 400.185 0.587981 -4.20408 0
M  V30 4025 C 398.092 -1.12877 -5.80528 0
M  V30 4026 H 397.022 0.0135398 -0.753878 0
M  V30 4027 H 399.673 -0.656787 -1.71343 0
M  V30 4028 H 398.055 0.844694 -3.86886 0
M  V30 4029 H 399.229 -2.00034 -4.15118 0
M  V30 4030 H 397.544 -1.66379 -3.81716 0
M  V30 4031 H 400.141 0.68763 -5.3026 0
M  V30 4032 H 400.484 1.59026 -3.84729 0
M  V30 4033 H 401.017 -0.103582 -3.97665 0
M  V30 4034 H 397.756 -2.10575 -6.20756 0
M  V30 4035 H 397.276 -0.407799 -5.98412 0
M  V30 4036 H 398.955 -0.813332 -6.41868 0
M  V30 4037 N 399.087 1.5561 -0.249682 0
M  V30 4038 C 400.019 2.18834 0.681496 0
M  V30 4039 C 401.032 1.16546 1.1367 0
M  V30 4040 O 402.221 1.43397 1.06299 0
M  V30 4041 C 399.321 2.77992 1.9384 0
M  V30 4042 C 398.494 4.05725 1.63419 0
M  V30 4043 C 397.553 4.49174 2.74096 0
M  V30 4044 O 396.579 5.15492 2.41364 0
M  V30 4045 N 397.781 4.17191 4.03649 0
M  V30 4046 H 400.546 2.9937 0.140514 0
M  V30 4047 H 398.107 1.6175 -0.0697541 0
M  V30 4048 H 400.099 3.04015 2.67127 0
M  V30 4049 H 398.669 2.01596 2.38909 0
M  V30 4050 H 397.889 3.87261 0.736358 0
M  V30 4051 H 399.177 4.88999 1.40562 0
M  V30 4052 H 398.575 3.63955 4.33074 0
M  V30 4053 H 397.132 4.48043 4.73393 0
M  V30 4054 N 400.565 -0.0233959 1.57583 0
M  V30 4055 C 401.475 -1.03907 2.10334 0
M  V30 4056 C 402.491 -1.39257 1.04323 0
M  V30 4057 O 403.667 -1.48462 1.36091 0
M  V30 4058 C 400.732 -2.31938 2.57693 0
M  V30 4059 C 399.793 -2.03117 3.78209 0
M  V30 4060 C 399.026 -3.25043 4.233 0
M  V30 4061 O 399.249 -4.35916 3.67876 0
M  V30 4062 O 398.183 -3.10411 5.15683 0
M  V30 4063 H 402.009 -0.620748 2.97288 0
M  V30 4064 H 399.594 -0.240743 1.47448 0
M  V30 4065 H 401.476 -3.07196 2.88458 0
M  V30 4066 H 400.151 -2.73055 1.73847 0
M  V30 4067 H 399.058 -1.25408 3.52454 0
M  V30 4068 H 400.391 -1.66852 4.63056 0
M  V30 4069 N 402.043 -1.548 -0.295768 0
M  V30 4070 C 403.292 -1.73538 -1.02798 0
M  V30 4071 C 403.605 -0.531159 -1.8825 0
M  V30 4072 O 404.811 -0.600458 -2.64777 0
M  V30 4073 C 403.267 -3.07051 -1.87744 0
M  V30 4074 C 402.875 -4.34968 -1.07269 0
M  V30 4075 C 404.619 -3.35146 -2.60533 0
M  V30 4076 C 402.526 -5.5953 -1.91521 0
M  V30 4077 H 401.456 -0.646794 -0.387522 0
M  V30 4078 H 404.107 -1.81278 -0.284718 0
M  V30 4079 H 402.489 -2.93289 -2.66078 0
M  V30 4080 H 403.663 -4.5958 -0.335117 0
M  V30 4081 H 401.978 -4.13847 -0.460384 0
M  V30 4082 H 404.575 -4.2541 -3.23929 0
M  V30 4083 H 404.918 -2.54255 -3.29636 0
M  V30 4084 H 405.451 -3.49902 -1.89244 0
M  V30 4085 H 402.19 -6.43103 -1.26878 0
M  V30 4086 H 401.71 -5.39096 -2.62937 0
M  V30 4087 H 403.389 -5.96982 -2.49442 0
M  V30 4088 N 403.521 0.559213 -1.47345 0
M  V30 4089 C 404.798 1.31997 -1.44348 0
M  V30 4090 C 405.178 2.1064 -0.139358 0
M  V30 4091 O 404.526 2.1091 0.879153 0
M  V30 4092 C 404.736 2.22618 -2.68779 0
M  V30 4093 C 406.084 2.83701 -3.1591 0
M  V30 4094 O 407.108 2.32921 -2.69493 0
M  V30 4095 O 405.967 3.75993 -3.966 0
M  V30 4096 H 403.061 0.594251 -0.575147 0
M  V30 4097 H 405.607 0.578282 -1.59543 0
M  V30 4098 H 404.379 1.64093 -3.55231 0
M  V30 4099 H 404.002 3.04085 -2.5616 0
M  V30 4100 N 404.999 1.35443 0.805782 0
M  V30 4101 C 405.962 1.28301 1.89925 0
M  V30 4102 C 406.962 0.194285 1.59622 0
M  V30 4103 O 408.152 0.448036 1.6834 0
M  V30 4104 C 405.284 0.984997 3.2636 0
M  V30 4105 H 406.477 2.2553 1.97677 0
M  V30 4106 H 404.03 1.19979 1.00173 0
M  V30 4107 H 404.765 0.016603 3.24296 0
M  V30 4108 H 404.55 1.77269 3.4974 0
M  V30 4109 H 406.04 0.960651 4.064 0
M  V30 4110 N 406.477 -1.02803 1.19454 0
M  V30 4111 C 407.44 -2.09264 0.934955 0
M  V30 4112 C 408.44 -1.60576 -0.0849015 0
M  V30 4113 O 409.63 -1.73554 0.149933 0
M  V30 4114 C 406.762 -3.38482 0.40531 0
M  V30 4115 H 407.955 -2.33726 1.87916 0
M  V30 4116 H 405.508 -1.19426 1.00832 0
M  V30 4117 H 406.243 -3.19689 -0.544899 0
M  V30 4118 H 406.028 -3.75142 1.14065 0
M  V30 4119 H 407.518 -4.16894 0.242806 0
M  V30 4120 N 407.956 -0.998596 -1.21925 0
M  V30 4121 C 408.886 -0.573688 -2.26343 0
M  V30 4122 C 409.867 0.402296 -1.65274 0
M  V30 4123 O 411.052 0.291683 -1.91997 0
M  V30 4124 C 408.182 0.106839 -3.47136 0
M  V30 4125 C 407.136 -0.788269 -4.20678 0
M  V30 4126 C 406.462 0.0254927 -5.34694 0
M  V30 4127 C 407.762 -2.08784 -4.78755 0
M  V30 4128 H 409.456 -1.44651 -2.62138 0
M  V30 4129 H 407.002 -0.696975 -1.26009 0
M  V30 4130 H 408.955 0.415531 -4.19346 0
M  V30 4131 H 407.679 1.01424 -3.10452 0
M  V30 4132 H 406.338 -1.08069 -3.50309 0
M  V30 4133 H 405.986 0.933989 -4.94253 0
M  V30 4134 H 405.686 -0.570437 -5.84825 0
M  V30 4135 H 407.21 0.328147 -6.09718 0
M  V30 4136 H 408.624 -1.84272 -5.42878 0
M  V30 4137 H 407.021 -2.63307 -5.39249 0
M  V30 4138 H 408.091 -2.76284 -3.98491 0
M  V30 4139 N 409.434 1.37368 -0.772513 0
M  V30 4140 C 410.381 2.30262 -0.157488 0
M  V30 4141 C 411.351 1.51137 0.688965 0
M  V30 4142 O 412.536 1.79704 0.641168 0
M  V30 4143 C 409.676 3.37611 0.715045 0
M  V30 4144 C 408.789 4.31746 -0.148098 0
M  V30 4145 C 407.924 5.26171 0.729213 0
M  V30 4146 C 406.963 6.11948 -0.136418 0
M  V30 4147 N 406.1 6.98613 0.698914 0
M  V30 4148 H 410.94 2.82277 -0.955179 0
M  V30 4149 H 408.477 1.38957 -0.482631 0
M  V30 4150 H 410.435 3.98479 1.23575 0
M  V30 4151 H 409.065 2.86959 1.47833 0
M  V30 4152 H 408.117 3.72178 -0.786613 0
M  V30 4153 H 409.429 4.92084 -0.81579 0
M  V30 4154 H 408.583 5.92247 1.31637 0
M  V30 4155 H 407.322 4.66246 1.43059 0
M  V30 4156 H 406.327 5.4485 -0.736102 0
M  V30 4157 H 407.552 6.73945 -0.835134 0
M  V30 4158 H 405.498 6.41215 1.38489 0
M  V30 4159 H 405.415 7.55948 0.0885358 0
M  V30 4160 H 406.683 7.69077 1.27044 0
M  V30 4161 N 410.912 0.523116 1.48665 0
M  V30 4162 C 412.328 0.180511 1.58576 0
M  V30 4163 C 412.528 -1.31597 1.52592 0
M  V30 4164 O 411.584 -2.0937 1.4114 0
M  V30 4165 C 412.897 0.776949 2.90489 0
M  V30 4166 C 414.445 0.745058 3.04003 0
M  V30 4167 C 414.92 1.31995 4.38567 0
M  V30 4168 N 416.411 1.28162 4.45117 0
M  V30 4169 C 417.146 1.6964 5.47731 0
M  V30 4170 N 416.642 2.18816 6.57337 0
M  V30 4171 N 418.435 1.6092 5.38573 0
M  V30 4172 H 410.586 1.4958 1.50797 0
M  V30 4173 H 412.849 0.621772 0.715614 0
M  V30 4174 H 412.555 1.82732 3.00503 0
M  V30 4175 H 412.429 0.25007 3.7637 0
M  V30 4176 H 414.816 -0.296532 2.93606 0
M  V30 4177 H 414.897 1.30933 2.1975 0
M  V30 4178 H 414.541 2.36043 4.49718 0
M  V30 4179 H 414.471 0.731418 5.21496 0
M  V30 4180 H 416.962 0.92155 3.66491 0
M  V30 4181 H 417.275 2.48478 7.31764 0
M  V30 4182 H 415.62 2.22805 6.58318 0
M  V30 4183 H 418.811 1.22304 4.5184 0
M  V30 4184 H 418.984 1.93567 6.18414 0
M  V30 4185 N 412.39 -1.55475 0.257931 0
M  V30 4186 C 413.353 -2.20551 -0.623706 0
M  V30 4187 C 414.353 -1.17809 -1.09443 0
M  V30 4188 O 415.543 -1.42823 -0.997362 0
M  V30 4189 C 412.675 -2.85784 -1.8585 0
M  V30 4190 H 413.868 -2.99848 -0.0557743 0
M  V30 4191 H 411.421 -1.56298 0.0084422 0
M  V30 4192 H 412.156 -2.10453 -2.46739 0
M  V30 4193 H 411.941 -3.61057 -1.52907 0
M  V30 4194 H 413.431 -3.35553 -2.48584 0
M  V30 4195 N 413.868 0.0150385 -1.57593 0
M  V30 4196 C 415.093 0.718067 -1.94573 0
M  V30 4197 C 415.518 1.6734 -0.859005 0
M  V30 4198 O 414.876 1.80362 0.184147 0
M  V30 4199 C 414.924 1.43918 -3.30636 0
M  V30 4200 O 414.028 2.55299 -3.23876 0
M  V30 4201 H 413.369 0.192125 -0.635597 0
M  V30 4202 H 415.899 -0.0336708 -2.04572 0
M  V30 4203 H 415.909 1.80598 -3.65853 0
M  V30 4204 H 414.584 0.738619 -4.09289 0
M  V30 4205 H 413.161 2.21058 -3.00312 0
M  V30 4206 N 415.346 1.54954 0.287554 0
M  V30 4207 C 416.293 1.86834 1.35505 0
M  V30 4208 C 417.263 0.718452 1.49758 0
M  V30 4209 O 418.448 0.968358 1.644 0
M  V30 4210 C 415.588 2.13303 2.71286 0
M  V30 4211 C 414.701 3.40883 2.65373 0
M  V30 4212 C 413.836 3.57125 3.93236 0
M  V30 4213 C 412.875 4.78449 3.81776 0
M  V30 4214 N 412.012 4.91426 5.01443 0
M  V30 4215 H 416.852 2.77889 1.07619 0
M  V30 4216 H 414.389 1.37593 0.520241 0
M  V30 4217 H 416.347 2.26646 3.50267 0
M  V30 4218 H 414.977 1.25499 2.97405 0
M  V30 4219 H 414.029 3.36088 1.78182 0
M  V30 4220 H 415.341 4.29993 2.52799 0
M  V30 4221 H 414.495 3.70207 4.80658 0
M  V30 4222 H 413.234 2.66173 4.0866 0
M  V30 4223 H 412.239 4.65386 2.92738 0
M  V30 4224 H 413.464 5.70822 3.67884 0
M  V30 4225 H 411.41 4.03401 5.17304 0
M  V30 4226 H 411.327 5.74559 4.91343 0
M  V30 4227 H 412.595 5.08879 5.90477 0
M  V30 4228 N 416.824 -0.551391 1.4764 0
M  V30 4229 C 418.052 -1.33357 1.58189 0
M  V30 4230 C 418.467 -1.87342 0.234199 0
M  V30 4231 O 417.824 -1.65301 -0.77343 0
M  V30 4232 C 417.875 -2.49942 2.61173 0
M  V30 4233 O 417.596 -1.98187 3.90709 0
M  V30 4234 C 419.097 -3.42072 2.8196 0
M  V30 4235 H 416.317 -0.40631 0.533998 0
M  V30 4236 H 418.861 -0.667367 1.93304 0
M  V30 4237 H 417.016 -3.12489 2.28975 0
M  V30 4238 H 417.43 -2.74342 4.47031 0
M  V30 4239 H 418.904 -4.20278 3.57869 0
M  V30 4240 H 419.381 -3.95978 1.89995 0
M  V30 4241 H 419.987 -2.85336 3.15378 0
M  V30 4242 N 418.302 -1.35869 -0.798587 0
M  V30 4243 C 419.532 -1.32529 -1.58491 0
M  V30 4244 C 419.94 0.0975405 -1.88948 0
M  V30 4245 O 419.283 1.06224 -1.49874 0
M  V30 4246 C 419.345 -2.07247 -2.9375 0
M  V30 4247 C 419.009 -3.56391 -2.86068 0
M  V30 4248 C 420.006 -4.50824 -2.58947 0
M  V30 4249 C 417.691 -3.9915 -3.04933 0
M  V30 4250 C 419.685 -5.85993 -2.5078 0
M  V30 4251 C 417.372 -5.34413 -2.96389 0
M  V30 4252 C 418.37 -6.27646 -2.69349 0
M  V30 4253 O 418.058 -7.60426 -2.60782 0
M  V30 4254 H 417.79 -0.456529 -0.498556 0
M  V30 4255 H 420.344 -1.79425 -0.999799 0
M  V30 4256 H 418.574 -1.55001 -3.54276 0
M  V30 4257 H 420.263 -1.96883 -3.54954 0
M  V30 4258 H 421.029 -4.19104 -2.44084 0
M  V30 4259 H 416.908 -3.26961 -3.24989 0
M  V30 4260 H 420.452 -6.58735 -2.29595 0
M  V30 4261 H 416.349 -5.65743 -3.10813 0
M  V30 4262 H 417.117 -7.70444 -2.76331 0
M  V30 4263 N 419.78 1.02168 -1.19998 0
M  V30 4264 C 420.713 2.10232 -0.887558 0
M  V30 4265 C 421.691 1.61827 0.158317 0
M  V30 4266 O 422.875 1.88471 0.0330249 0
M  V30 4267 C 420.002 3.37092 -0.32964 0
M  V30 4268 C 419.048 4.0438 -1.3557 0
M  V30 4269 S 419.881 4.48956 -2.91888 0
M  V30 4270 C 421.037 5.79024 -2.37658 0
M  V30 4271 H 421.27 2.36409 -1.80272 0
M  V30 4272 H 418.803 1.15211 -1.0279 0
M  V30 4273 H 420.761 4.10498 -0.0142824 0
M  V30 4274 H 419.422 3.08996 0.563941 0
M  V30 4275 H 418.615 4.95632 -0.9146 0
M  V30 4276 H 418.217 3.37176 -1.61828 0
M  V30 4277 H 420.509 6.53942 -1.77103 0
M  V30 4278 H 421.452 6.27924 -3.27287 0
M  V30 4279 H 421.86 5.35043 -1.79971 0
M  V30 4280 N 421.258 1.00505 1.21394 0
M  V30 4281 C 422.205 0.565496 2.23765 0
M  V30 4282 C 423.175 -0.408466 1.60999 0
M  V30 4283 O 424.36 -0.310503 1.88257 0
M  V30 4284 C 421.5 -0.101667 3.4495 0
M  V30 4285 C 420.613 0.915479 4.22188 0
M  V30 4286 C 419.748 0.220574 5.30742 0
M  V30 4287 C 418.787 1.22527 5.99711 0
M  V30 4288 N 417.924 0.557831 6.9988 0
M  V30 4289 H 422.764 1.44314 2.60725 0
M  V30 4290 H 420.301 0.722643 1.28126 0
M  V30 4291 H 422.259 -0.505504 4.14126 0
M  V30 4292 H 420.889 -0.94303 3.08718 0
M  V30 4293 H 419.941 1.43756 3.52191 0
M  V30 4294 H 421.253 1.68005 4.69655 0
M  V30 4295 H 420.407 -0.239368 6.06228 0
M  V30 4296 H 419.146 -0.576401 4.84282 0
M  V30 4297 H 418.151 1.69571 5.22997 0
M  V30 4298 H 419.376 2.02332 6.48258 0
M  V30 4299 H 417.322 -0.219486 6.55633 0
M  V30 4300 H 417.239 1.26065 7.45415 0
M  V30 4301 H 418.507 0.121095 7.79406 0
M  V30 4302 N 422.737 -1.36956 0.779787 0
M  V30 4303 C 423.985 -1.99097 0.347079 0
M  V30 4304 C 424.306 -1.62206 -1.08232 0
M  V30 4305 O 423.576 -0.891373 -1.74446 0
M  V30 4306 H 422.156 -0.736409 0.125342 0
M  V30 4307 H 424.818 -1.67308 0.999696 0
M  V30 4308 H 423.914 -3.09107 0.431162 0
M  V30 4309 N 424.215 -0.530993 -1.48385 0
M  V30 4310 C 425.464 0.00474348 -2.01699 0
M  V30 4311 C 425.777 1.35227 -1.41325 0
M  V30 4312 O 426.983 1.97643 -1.86144 0
M  V30 4313 C 425.439 0.0588473 -3.59852 0
M  V30 4314 C 425.047 -1.28385 -4.2921 0
M  V30 4315 C 426.791 0.543358 -4.21008 0
M  V30 4316 C 424.698 -1.19028 -5.79298 0
M  V30 4317 H 423.628 0.00554317 -0.75398 0
M  V30 4318 H 426.279 -0.674924 -1.70637 0
M  V30 4319 H 424.661 0.803612 -3.8776 0
M  V30 4320 H 425.835 -2.04426 -4.12973 0
M  V30 4321 H 424.15 -1.70418 -3.7993 0
M  V30 4322 H 426.747 0.631351 -5.3096 0
M  V30 4323 H 427.09 1.54937 -3.86394 0
M  V30 4324 H 427.623 -0.145754 -3.97533 0
M  V30 4325 H 424.362 -2.17147 -6.18488 0
M  V30 4326 H 423.882 -0.471246 -5.97946 0
M  V30 4327 H 425.561 -0.881365 -6.40969 0
M  V30 4328 N 425.693 1.55336 -0.266172 0
M  V30 4329 C 426.623 2.25146 0.618981 0
M  V30 4330 C 427.604 1.23845 1.16604 0
M  V30 4331 O 428.789 1.52544 1.20183 0
M  V30 4332 C 425.919 2.96572 1.80728 0
M  V30 4333 C 424.873 4.04726 1.39215 0
M  V30 4334 C 424.199 4.63678 2.66283 0
M  V30 4335 C 425.499 5.19407 0.548942 0
M  V30 4336 H 427.193 2.99377 0.0368116 0
M  V30 4337 H 424.739 1.43991 0.0162651 0
M  V30 4338 H 426.692 3.44116 2.43232 0
M  V30 4339 H 425.416 2.19861 2.41514 0
M  V30 4340 H 424.075 3.57979 0.790351 0
M  V30 4341 H 423.723 3.83646 3.25308 0
M  V30 4342 H 423.423 5.367 2.39222 0
M  V30 4343 H 424.947 5.13967 3.29651 0
M  V30 4344 H 426.361 5.63059 1.07876 0
M  V30 4345 H 424.758 5.98936 0.373593 0
M  V30 4346 H 425.828 4.8295 -0.434394 0
M  V30 4347 N 427.171 -0.0066808 1.57599 0
M  V30 4348 C 428.419 -0.691552 1.899 0
M  V30 4349 C 428.74 -1.74682 0.866672 0
M  V30 4350 O 428.01 -1.95661 -0.0968189 0
M  V30 4351 H 426.59 -0.258416 0.700878 0
M  V30 4352 H 429.252 0.0326655 1.94873 0
M  V30 4353 H 428.348 -1.16702 2.8946 0
M  V30 4354 N 428.649 -1.55105 -0.279332 0
M  V30 4355 C 429.879 -1.7917 -1.02867 0
M  V30 4356 C 430.287 -0.56204 -1.80659 0
M  V30 4357 O 429.63 0.478266 -1.77365 0
M  V30 4358 C 429.692 -2.96061 -2.03932 0
M  V30 4359 C 429.356 -4.33341 -1.45137 0
M  V30 4360 C 430.353 -5.12565 -0.870266 0
M  V30 4361 C 428.038 -4.79987 -1.48048 0
M  V30 4362 C 430.032 -6.36565 -0.326097 0
M  V30 4363 C 427.719 -6.03944 -0.932443 0
M  V30 4364 C 428.717 -6.8207 -0.356247 0
M  V30 4365 O 428.405 -8.03691 0.183412 0
M  V30 4366 H 428.137 -0.600796 -0.309872 0
M  V30 4367 H 430.691 -2.02932 -0.317468 0
M  V30 4368 H 428.921 -2.67975 -2.78794 0
M  V30 4369 H 430.61 -3.07506 -2.64943 0
M  V30 4370 H 431.376 -4.77661 -0.840521 0
M  V30 4371 H 427.255 -4.1919 -1.91835 0
M  V30 4372 H 430.799 -6.97489 0.124286 0
M  V30 4373 H 426.696 -6.3833 -0.959407 0
M  V30 4374 H 427.464 -8.18468 0.0721681 0
M  V30 4375 N 430.127 0.543554 -1.4793 0
M  V30 4376 C 431.355 1.32516 -1.58894 0
M  V30 4377 C 431.77 1.87215 -0.244131 0
M  V30 4378 O 431.127 1.65709 0.764652 0
M  V30 4379 C 431.178 2.48554 -2.62494 0
M  V30 4380 O 430.899 1.96112 -3.91755 0
M  V30 4381 C 432.4 3.40572 -2.8377 0
M  V30 4382 H 429.62 0.403472 -0.536145 0
M  V30 4383 H 432.164 0.657106 -1.93655 0
M  V30 4384 H 430.319 3.1127 -2.30629 0
M  V30 4385 H 430.733 2.71967 -4.4848 0
M  V30 4386 H 432.207 4.18375 -3.60093 0
M  V30 4387 H 432.684 3.94965 -1.92092 0
M  V30 4388 H 433.29 2.8366 -3.16887 0
M  V30 4389 N 431.605 1.3629 0.791371 0
M  V30 4390 C 432.882 1.20962 1.53712 0
M  V30 4391 C 433.262 -0.205021 2.10102 0
M  V30 4392 O 432.61 -1.21042 1.93807 0
M  V30 4393 C 432.82 2.29002 2.63361 0
M  V30 4394 C 434.168 2.65572 3.31295 0
M  V30 4395 O 435.192 2.2803 2.73643 0
M  V30 4396 O 434.051 3.3018 4.35481 0
M  V30 4397 H 431.145 0.47086 0.679867 0
M  V30 4398 H 433.691 1.48016 0.830021 0
M  V30 4399 H 432.463 3.2382 2.19674 0
M  V30 4400 H 432.086 2.03303 3.41692 0
M  V30 4401 N 433.083 -1.0153 1.20538 0
M  V30 4402 C 433.993 -2.13557 0.971113 0
M  V30 4403 C 435.009 -1.73845 -0.0734366 0
M  V30 4404 O 436.185 -2.01075 0.114299 0
M  V30 4405 C 433.25 -3.42661 0.527639 0
M  V30 4406 C 432.311 -3.96608 1.64319 0
M  V30 4407 C 431.544 -5.1955 1.22078 0
M  V30 4408 O 431.767 -5.70329 0.0900198 0
M  V30 4409 O 430.701 -5.66681 2.02871 0
M  V30 4410 H 434.527 -2.3619 1.90913 0
M  V30 4411 H 432.112 -1.11946 0.989362 0
M  V30 4412 H 433.994 -4.20404 0.289621 0
M  V30 4413 H 432.669 -3.21441 -0.381779 0
M  V30 4414 H 431.576 -3.20139 1.93551 0
M  V30 4415 H 432.909 -4.22219 2.52966 0
M  V30 4416 N 434.561 -1.01147 -1.20859 0
M  V30 4417 C 435.471 -0.58686 -2.27141 0
M  V30 4418 C 436.487 0.373198 -1.69951 0
M  V30 4419 O 437.663 0.235423 -2.00019 0
M  V30 4420 C 434.728 0.0733602 -3.46622 0
M  V30 4421 C 433.789 -0.931995 -4.19061 0
M  V30 4422 C 433.022 -0.303186 -5.32838 0
M  V30 4423 O 433.245 0.898395 -5.63281 0
M  V30 4424 O 432.179 -1.01735 -5.9324 0
M  V30 4425 H 436.005 -1.47155 -2.65667 0
M  V30 4426 H 433.59 -0.780689 -1.2738 0
M  V30 4427 H 435.472 0.442333 -4.19072 0
M  V30 4428 H 434.147 0.932329 -3.09983 0
M  V30 4429 H 433.054 -1.35224 -3.48805 0
M  V30 4430 H 434.387 -1.76076 -4.59628 0
M  V30 4431 N 436.039 1.36541 -0.78704 0
M  V30 4432 C 436.969 2.32659 -0.197992 0
M  V30 4433 C 437.95 1.56533 0.665697 0
M  V30 4434 O 439.135 1.84698 0.60001 0
M  V30 4435 C 436.265 3.40778 0.669901 0
M  V30 4436 C 435.219 4.27897 -0.0937039 0
M  V30 4437 C 434.545 5.27163 0.894629 0
M  V30 4438 C 435.845 5.06334 -1.28154 0
M  V30 4439 H 437.539 2.82171 -1.00099 0
M  V30 4440 H 435.085 1.35665 -0.482793 0
M  V30 4441 H 437.038 4.07008 1.09191 0
M  V30 4442 H 435.762 2.89827 1.50558 0
M  V30 4443 H 434.421 3.6322 -0.49666 0
M  V30 4444 H 434.069 4.72486 1.72527 0
M  V30 4445 H 433.769 5.86317 0.388149 0
M  V30 4446 H 435.293 5.96266 1.31525 0
M  V30 4447 H 436.707 5.65617 -0.93541 0
M  V30 4448 H 435.104 5.74888 -1.72115 0
M  V30 4449 H 436.174 4.38114 -2.07807 0
M  V30 4450 N 437.518 0.538854 1.48102 0
M  V30 4451 C 438.764 0.00801365 2.02798 0
M  V30 4452 C 439.097 -1.3309 1.41424 0
M  V30 4453 O 438.372 -1.86169 0.563158 0
M  V30 4454 C 438.655 -0.104589 3.59948 0
M  V30 4455 C 438.508 1.26012 4.31788 0
M  V30 4456 C 439.827 -0.827055 4.32259 0
M  V30 4457 H 436.946 0.00438624 0.736987 0
M  V30 4458 H 439.588 0.6976 1.7673 0
M  V30 4459 H 437.738 -0.691893 3.82289 0
M  V30 4460 H 439.41 1.88922 4.2084 0
M  V30 4461 H 437.653 1.83968 3.92859 0
M  V30 4462 H 438.324 1.13424 5.40221 0
M  V30 4463 H 440.8 -0.328578 4.14801 0
M  V30 4464 H 439.676 -0.87476 5.41885 0
M  V30 4465 H 439.937 -1.87927 4.0017 0
M  V30 4466 N 438.996 -1.55193 0.274407 0
M  V30 4467 C 440.221 -2.04446 -0.348824 0
M  V30 4468 C 440.646 -1.15149 -1.48735 0
M  V30 4469 O 440.004 -0.149952 -1.80679 0
M  V30 4470 C 440.052 -3.51431 -0.808009 0
M  V30 4471 O 439.156 -3.65225 -1.91531 0
M  V30 4472 H 438.497 -0.66006 -0.0722276 0
M  V30 4473 H 441.027 -2.00481 0.408498 0
M  V30 4474 H 441.037 -3.92781 -1.10395 0
M  V30 4475 H 439.712 -4.15892 0.0249865 0
M  V30 4476 H 438.289 -3.35778 -1.62196 0
M  V30 4477 N 440.474 -0.00167713 -1.576 0
M  V30 4478 C 441.437 0.974046 -2.07473 0
M  V30 4479 C 442.437 1.27143 -0.984444 0
M  V30 4480 O 443.627 1.21633 -1.24703 0
M  V30 4481 C 440.759 2.29849 -2.51759 0
M  V30 4482 H 441.952 0.54262 -2.9495 0
M  V30 4483 H 439.505 0.245829 -1.54355 0
M  V30 4484 H 440.24 2.77677 -1.67529 0
M  V30 4485 H 440.025 2.09584 -3.31386 0
M  V30 4486 H 441.515 2.9984 -2.90664 0
M  V30 4487 N 441.952 1.55251 0.271103 0
M  V30 4488 C 443.229 1.66664 1.02384 0
M  V30 4489 C 443.609 0.534363 2.04225 0
M  V30 4490 O 442.957 -0.465337 2.23712 0
M  V30 4491 C 443.167 3.05961 1.67895 0
M  V30 4492 C 444.515 3.63772 2.18986 0
M  V30 4493 O 445.539 3.08606 1.77878 0
M  V30 4494 O 444.398 4.60429 2.94393 0
M  V30 4495 H 441.492 0.676957 0.475035 0
M  V30 4496 H 444.038 1.67589 0.26681 0
M  V30 4497 H 442.81 3.79815 0.941071 0
M  V30 4498 H 442.433 3.08943 2.5028 0
M  V30 4499 N 443.43 -0.535701 1.48216 0
M  V30 4500 C 444.677 -1.29183 1.55942 0
M  V30 4501 C 445.005 -1.93125 0.230857 0
M  V30 4502 O 444.26 -1.79556 -0.778331 0
M  V30 4503 C 444.559 -2.4068 2.64212 0
M  V30 4504 C 444.225 -1.94428 4.06827 0
M  V30 4505 C 442.887 -1.81532 4.45645 0
M  V30 4506 C 445.239 -1.59405 4.96225 0
M  V30 4507 C 442.567 -1.31939 5.71672 0
M  V30 4508 C 444.919 -1.11276 6.22736 0
M  V30 4509 C 443.583 -0.969924 6.60416 0
M  V30 4510 H 442.853 -0.472715 0.570632 0
M  V30 4511 H 445.5 -0.598437 1.81909 0
M  V30 4512 H 443.805 -3.15666 2.32083 0
M  V30 4513 H 445.502 -2.98822 2.67407 0
M  V30 4514 H 442.092 -2.05415 3.76168 0
M  V30 4515 H 446.276 -1.68231 4.66917 0
M  V30 4516 H 441.532 -1.19562 5.99596 0
M  V30 4517 H 445.706 -0.832453 6.91407 0
M  V30 4518 H 443.333 -0.583436 7.57958 0
M  V30 4519 N 444.908 -1.36708 -0.784132 0
M  V30 4520 C 446.157 -1.30559 -1.53744 0
M  V30 4521 C 446.47 0.111374 -1.95283 0
M  V30 4522 O 447.676 0.29527 -2.6989 0
M  V30 4523 C 446.132 -2.29098 -2.77565 0
M  V30 4524 C 445.74 -3.76258 -2.43174 0
M  V30 4525 C 447.484 -2.31936 -3.55536 0
M  V30 4526 C 445.391 -4.6656 -3.63422 0
M  V30 4527 H 444.321 -0.48518 -0.577162 0
M  V30 4528 H 446.972 -1.62101 -0.859981 0
M  V30 4529 H 445.354 -1.90557 -3.47137 0
M  V30 4530 H 446.528 -4.23565 -1.81465 0
M  V30 4531 H 444.843 -3.76246 -1.78403 0
M  V30 4532 H 447.44 -2.9661 -4.44889 0
M  V30 4533 H 447.783 -1.3294 -3.94503 0
M  V30 4534 H 448.316 -2.6912 -2.92949 0
M  V30 4535 H 445.055 -5.66638 -3.29547 0
M  V30 4536 H 444.575 -4.23966 -4.24279 0
M  V30 4537 H 446.254 -4.8309 -4.30387 0
M  V30 4538 N 446.386 1.0089 -1.21074 0
M  V30 4539 C 447.334 2.11707 -0.963476 0
M  V30 4540 C 448.328 1.69172 0.0879032 0
M  V30 4541 O 449.534 1.79889 -0.0631415 0
M  V30 4542 H 445.909 0.692026 -0.294287 0
M  V30 4543 H 447.88 2.29743 -1.90422 0
M  V30 4544 C 446.629 3.43473 -0.540509 0
M  V30 4545 H 445.952 3.76634 -1.34114 0
M  V30 4546 H 447.392 4.22044 -0.406777 0
M  V30 4547 C 445.851 3.2849 0.748079 0
M  V30 4548 O 446.381 3.58883 1.8046 0
M  V30 4549 N 444.587 2.81715 0.713081 0
M  V30 4550 H 444.134 2.5718 -0.146973 0
M  V30 4551 H 444.092 2.72071 1.57558 0
M  V30 4552 N 447.864 1.01787 1.20321 0
M  V30 4553 C 449.141 0.622978 1.85414 0
M  V30 4554 C 449.521 -0.898887 1.91006 0
M  V30 4555 O 448.869 -1.79112 1.41884 0
M  V30 4556 C 449.079 1.27226 3.24984 0
M  V30 4557 C 450.427 1.3885 4.01255 0
M  V30 4558 O 451.451 1.22857 3.34342 0
M  V30 4559 O 450.31 1.64705 5.2109 0
M  V30 4560 H 447.404 0.215116 0.798533 0
M  V30 4561 H 449.95 1.11533 1.27901 0
M  V30 4562 H 448.722 2.31209 3.15687 0
M  V30 4563 H 448.345 0.767069 3.90131 0
M  V30 4564 N 449.342 -1.36122 0.79427 0
M  V30 4565 C 450.29 -2.31871 0.184023 0
M  V30 4566 C 451.284 -1.56041 -0.659365 0
M  V30 4567 O 452.49 -1.71266 -0.553906 0
M  V30 4568 H 448.865 -0.750896 0.0407373 0
M  V30 4569 H 450.836 -2.80898 1.00693 0
M  V30 4570 C 449.585 -3.41324 -0.662813 0
M  V30 4571 H 448.908 -3.99793 -0.0231944 0
M  V30 4572 H 450.348 -4.10629 -1.05639 0
M  V30 4573 C 448.807 -2.83308 -1.82313 0
M  V30 4574 O 449.337 -2.75863 -2.91997 0
M  V30 4575 N 447.543 -2.40529 -1.63077 0
M  V30 4576 H 447.09 -2.46785 -0.738591 0
M  V30 4577 H 447.048 -2.02059 -2.40872 0
M  V30 4578 N 450.82 -0.546701 -1.47814 0
M  V30 4579 C 452.236 -0.205717 -1.58269 0
M  V30 4580 C 452.436 1.29153 -1.54667 0
M  V30 4581 O 451.492 2.07098 -1.44453 0
M  V30 4582 C 452.805 -0.823065 -2.89216 0
M  V30 4583 C 454.353 -0.793328 -3.02779 0
M  V30 4584 C 454.828 -1.38955 -4.36412 0
M  V30 4585 N 456.319 -1.35227 -4.43021 0
M  V30 4586 C 457.054 -1.78333 -5.44963 0
M  V30 4587 N 456.55 -2.29246 -6.53772 0
M  V30 4588 N 458.343 -1.69467 -5.35945 0
M  V30 4589 H 450.494 -1.5196 -1.48398 0
M  V30 4590 H 452.757 -0.633078 -0.705632 0
M  V30 4591 H 452.463 -1.8749 -2.97558 0
M  V30 4592 H 452.337 -0.309915 -3.75925 0
M  V30 4593 H 454.724 0.249784 -2.94041 0
M  V30 4594 H 454.805 -1.34412 -2.17639 0
M  V30 4595 H 454.449 -2.43168 -4.45906 0
M  V30 4596 H 454.379 -0.814291 -5.20266 0
M  V30 4597 H 456.87 -0.979739 -3.64979 0
M  V30 4598 H 457.183 -2.60089 -7.27718 0
M  V30 4599 H 455.528 -2.3325 -6.5469 0
M  V30 4600 H 458.719 -1.29477 -4.49837 0
M  V30 4601 H 458.892 -2.03381 -6.15256 0
M  V30 4602 N 452.299 1.55045 -0.282633 0
M  V30 4603 C 453.524 2.04628 0.337977 0
M  V30 4604 C 453.949 1.15937 1.48123 0
M  V30 4605 O 453.307 0.159532 1.80597 0
M  V30 4606 C 453.355 3.51854 0.78936 0
M  V30 4607 O 452.459 3.66236 1.89592 0
M  V30 4608 H 451.8 0.660434 0.0687261 0
M  V30 4609 H 454.33 2.00261 -0.419124 0
M  V30 4610 H 454.34 3.93361 1.08311 0
M  V30 4611 H 453.015 4.15873 -0.0470419 0
M  V30 4612 H 451.592 3.36633 1.60413 0
M  V30 4613 N 453.777 0.010035 1.57597 0
M  V30 4614 C 455.002 -0.687021 1.95691 0
M  V30 4615 C 455.427 -1.65952 0.885519 0
M  V30 4616 O 454.785 -1.80633 -0.15543 0
M  V30 4617 C 454.833 -1.3864 3.32884 0
M  V30 4618 O 453.937 -2.50115 3.27897 0
M  V30 4619 H 453.278 -0.181989 0.638573 0
M  V30 4620 H 455.808 0.0662122 2.04493 0
M  V30 4621 H 455.818 -1.74754 3.6868 0
M  V30 4622 H 454.493 -0.673411 4.10412 0
M  V30 4623 H 453.07 -2.16253 3.03791 0
M  V30 4624 N 455.255 -1.55392 -0.262866 0
M  V30 4625 C 456.504 -1.75679 -0.990943 0
M  V30 4626 C 456.817 -0.57097 -1.87081 0
M  V30 4627 O 458.023 -0.656486 -2.63444 0
M  V30 4628 C 456.479 -3.10964 -1.81188 0
M  V30 4629 C 456.087 -4.37146 -0.980188 0
M  V30 4630 C 457.831 -3.40597 -2.53365 0
M  V30 4631 C 455.738 -5.63466 -1.7961 0
M  V30 4632 H 454.668 -0.654868 -0.373716 0
M  V30 4633 H 457.319 -1.81841 -0.246203 0
M  V30 4634 H 455.701 -2.98867 -2.59797 0
M  V30 4635 H 456.875 -4.60187 -0.237558 0
M  V30 4636 H 455.19 -4.14731 -0.372497 0
M  V30 4637 H 457.787 -4.32186 -3.14833 0
M  V30 4638 H 458.13 -2.6119 -3.24169 0
M  V30 4639 H 458.663 -3.53838 -1.81779 0
M  V30 4640 H 455.402 -6.4565 -1.13209 0
M  V30 4641 H 454.922 -5.44552 -2.51443 0
M  V30 4642 H 456.601 -6.02139 -2.36723 0
M  V30 4643 N 456.733 0.527833 -1.48498 0
M  V30 4644 C 457.963 1.30633 -1.60058 0
M  V30 4645 C 458.371 1.87394 -0.260786 0
M  V30 4646 O 457.714 1.67227 0.760317 0
M  V30 4647 C 457.776 2.49361 -2.58958 0
M  V30 4648 C 457.44 2.13671 -4.03972 0
M  V30 4649 C 458.437 1.69217 -4.91591 0
M  V30 4650 C 456.122 2.24129 -4.49524 0
M  V30 4651 C 458.116 1.35689 -6.2279 0
M  V30 4652 C 455.803 1.90212 -5.80743 0
M  V30 4653 C 456.801 1.46063 -6.67199 0
M  V30 4654 O 456.489 1.12593 -7.95976 0
M  V30 4655 H 456.221 0.403444 -0.54241 0
M  V30 4656 H 458.775 0.643233 -1.95068 0
M  V30 4657 H 457.005 3.18659 -2.19073 0
M  V30 4658 H 458.694 3.11421 -2.6033 0
M  V30 4659 H 459.46 1.60607 -4.57636 0
M  V30 4660 H 455.339 2.57447 -3.82416 0
M  V30 4661 H 458.883 1.01157 -6.90227 0
M  V30 4662 H 454.78 1.98464 -6.14233 0
M  V30 4663 H 455.548 1.25972 -8.08748 0
M  V30 4664 N 458.211 1.37122 0.776871 0
M  V30 4665 C 459.488 1.22586 1.52421 0
M  V30 4666 C 459.868 -0.182726 2.10308 0
M  V30 4667 O 459.216 -1.18979 1.9508 0
M  V30 4668 C 459.426 2.31782 2.60918 0
M  V30 4669 C 460.774 2.69071 3.2846 0
M  V30 4670 O 461.798 2.3092 2.71209 0
M  V30 4671 O 460.657 3.3478 4.31954 0
M  V30 4672 H 457.751 0.478045 0.674835 0
M  V30 4673 H 460.297 1.48888 0.814275 0
M  V30 4674 H 459.069 3.26131 2.16227 0
M  V30 4675 H 458.692 2.06916 3.39517 0
M  V30 4676 N 459.689 -1.00246 1.21608 0
M  V30 4677 C 460.914 -1.78167 1.06167 0
M  V30 4678 C 461.339 -1.84138 -0.384035 0
M  V30 4679 O 460.697 -1.28683 -1.27712 0
M  V30 4680 C 460.745 -3.19786 1.66642 0
M  V30 4681 O 459.849 -4.02153 0.913613 0
M  V30 4682 H 459.19 -0.549 0.37349 0
M  V30 4683 H 461.72 -1.25994 1.61204 0
M  V30 4684 H 461.73 -3.70451 1.70969 0
M  V30 4685 H 460.405 -3.14754 2.7185 0
M  V30 4686 H 458.982 -3.60711 0.945635 0
M  V30 4687 N 461.167 -1.02423 -1.1978 0
M  V30 4688 C 462.114 -0.601023 -2.22837 0
M  V30 4689 C 463.084 0.382801 -1.61629 0
M  V30 4690 O 464.269 0.280514 -1.88727 0
M  V30 4691 C 461.409 0.0467755 -3.45068 0
M  V30 4692 C 460.522 -0.98253 -4.20678 0
M  V30 4693 C 459.657 -0.304982 -5.30324 0
M  V30 4694 C 458.696 -1.32052 -5.97686 0
M  V30 4695 N 457.833 -0.669105 -6.98904 0
M  V30 4696 H 462.673 -1.48444 -2.58396 0
M  V30 4697 H 460.21 -0.742936 -1.2696 0
M  V30 4698 H 462.168 0.439556 -4.14878 0
M  V30 4699 H 460.798 0.893796 -3.10179 0
M  V30 4700 H 459.85 -1.49341 -3.49859 0
M  V30 4701 H 461.162 -1.75455 -4.66923 0
M  V30 4702 H 460.316 0.142893 -6.06532 0
M  V30 4703 H 459.055 0.499283 -4.85138 0
M  V30 4704 H 458.06 -1.7787 -5.20233 0
M  V30 4705 H 459.285 -2.1262 -6.44957 0
M  V30 4706 H 457.231 0.115152 -6.55899 0
M  V30 4707 H 457.148 -1.37908 -7.43315 0
M  V30 4708 H 458.416 -0.245076 -7.79115 0
M  V30 4709 N 462.645 1.35699 -0.801477 0
M  V30 4710 C 463.608 2.28199 -0.213994 0
M  V30 4711 C 464.608 1.49359 0.595691 0
M  V30 4712 O 465.798 1.69186 0.414921 0
M  V30 4713 C 462.93 3.33587 0.702297 0
M  V30 4714 H 464.123 2.81666 -1.02976 0
M  V30 4715 H 461.676 1.45467 -0.571759 0
M  V30 4716 H 462.411 2.85297 1.54195 0
M  V30 4717 H 462.196 3.91906 0.123484 0
M  V30 4718 H 463.686 4.02638 1.10783 0
M  V30 4719 N 464.123 0.554532 1.47522 0
M  V30 4720 C 465.351 0.034257 2.06872 0
M  V30 4721 C 465.766 -1.25826 1.40759 0
M  V30 4722 O 465.123 -1.75425 0.503217 0
M  V30 4723 C 465.174 -0.167827 3.6111 0
M  V30 4724 O 464.895 1.07351 4.24744 0
M  V30 4725 C 466.396 -0.72569 4.3732 0
M  V30 4726 H 463.616 0.0446275 0.669514 0
M  V30 4727 H 466.16 0.767181 1.89564 0
M  V30 4728 H 464.315 -0.850872 3.7794 0
M  V30 4729 H 464.729 0.869563 5.17242 0
M  V30 4730 H 466.203 -0.816394 5.45929 0
M  V30 4731 H 466.68 -1.73635 4.0342 0
M  V30 4732 H 467.286 -0.0784292 4.25228 0
M  V30 4733 N 465.601 -1.54893 0.290851 0
M  V30 4734 C 466.531 -2.26103 -0.583084 0
M  V30 4735 C 467.512 -1.25684 -1.14619 0
M  V30 4736 O 468.697 -1.54436 -1.17741 0
M  V30 4737 C 465.827 -2.99409 -1.75987 0
M  V30 4738 C 464.781 -4.0689 -1.32758 0
M  V30 4739 C 464.107 -4.67856 -2.58872 0
M  V30 4740 C 465.407 -5.20215 -0.46624 0
M  V30 4741 H 467.101 -2.99398 0.0108214 0
M  V30 4742 H 464.647 -1.43998 0.00664468 0
M  V30 4743 H 466.6 -3.47943 -2.37727 0
M  V30 4744 H 465.324 -2.23675 -2.37985 0
M  V30 4745 H 463.983 -3.59191 -0.733299 0
M  V30 4746 H 463.631 -3.88772 -3.19163 0
M  V30 4747 H 463.331 -5.40438 -2.30653 0
M  V30 4748 H 464.855 -5.19147 -3.21433 0
M  V30 4749 H 466.269 -5.64704 -0.989047 0
M  V30 4750 H 464.666 -5.99455 -0.27826 0
M  V30 4751 H 465.736 -4.82198 0.511173 0
M  V30 4752 N 467.08 -0.0183926 -1.57589 0
M  V30 4753 C 468.012 0.995557 -2.06449 0
M  V30 4754 C 469.025 1.29556 -0.985849 0
M  V30 4755 O 470.214 1.2621 -1.26227 0
M  V30 4756 C 467.314 2.32572 -2.46502 0
M  V30 4757 C 466.487 2.21245 -3.77319 0
M  V30 4758 C 465.546 3.37104 -4.04039 0
M  V30 4759 O 464.572 3.14468 -4.74445 0
M  V30 4760 N 465.774 4.60553 -3.53372 0
M  V30 4761 H 468.539 0.578746 -2.94059 0
M  V30 4762 H 466.1 0.168603 -1.6102 0
M  V30 4763 H 468.092 3.08887 -2.61478 0
M  V30 4764 H 466.662 2.65931 -1.64315 0
M  V30 4765 H 465.882 1.29723 -3.72244 0
M  V30 4766 H 467.17 2.10868 -4.63047 0
M  V30 4767 H 466.568 4.81839 -2.96391 0
M  V30 4768 H 465.125 5.34072 -3.73644 0
M  V30 4769 N 468.558 1.5553 0.254621 0
M  V30 4770 C 469.506 1.9048 1.33492 0
M  V30 4771 C 470.5 0.78304 1.50216 0
M  V30 4772 O 471.706 0.967582 1.51782 0
M  V30 4773 H 468.081 0.604846 0.44684 0
M  V30 4774 H 470.052 2.80688 1.01275 0
M  V30 4775 C 468.801 2.20928 2.68489 0
M  V30 4776 H 468.124 3.06742 2.56417 0
M  V30 4777 H 469.564 2.49291 3.42972 0
M  V30 4778 C 468.023 1.023 3.20993 0
M  V30 4779 O 468.553 0.267027 4.00811 0
M  V30 4780 N 466.759 0.815714 2.78917 0
M  V30 4781 H 466.306 1.43217 2.14119 0
M  V30 4782 H 466.264 0.0236532 3.14391 0
M  V30 4783 N 470.036 -0.519951 1.48776 0
M  V30 4784 C 470.984 -1.64443 1.64503 0
M  V30 4785 C 471.978 -1.61501 0.511248 0
M  V30 4786 O 473.184 -1.66238 0.690294 0
M  V30 4787 H 469.559 -0.544776 0.518385 0
M  V30 4788 H 471.53 -1.48325 2.58925 0
M  V30 4789 C 470.279 -3.02673 1.71127 0
M  V30 4790 H 469.602 -3.05635 2.57735 0
M  V30 4791 H 471.042 -3.80941 1.86172 0
M  V30 4792 C 469.501 -3.33854 0.452032 0
M  V30 4793 O 470.031 -3.99385 -0.430678 0
M  V30 4794 N 468.237 -2.88825 0.32069 0
M  V30 4795 H 467.784 -2.35674 1.03998 0
M  V30 4796 H 467.742 -3.10056 -0.520814 0
M  V30 4797 N 471.514 -1.37532 -0.769588 0
M  V30 4798 C 472.444 -1.36172 -1.89682 0
M  V30 4799 C 473.425 -0.23001 -1.68538 0
M  V30 4800 O 474.61 -0.43069 -1.89364 0
M  V30 4801 C 471.74 -1.1701 -3.26995 0
M  V30 4802 C 470.694 -2.27216 -3.62708 0
M  V30 4803 C 470.02 -1.93174 -4.98586 0
M  V30 4804 C 471.32 -3.6941 -3.69234 0
M  V30 4805 H 473.014 -2.30499 -1.91078 0
M  V30 4806 H 470.56 -1.10953 -0.917902 0
M  V30 4807 H 472.513 -1.14688 -4.05493 0
M  V30 4808 H 471.237 -0.191395 -3.26039 0
M  V30 4809 H 469.896 -2.28697 -2.86519 0
M  V30 4810 H 469.544 -0.938281 -4.94171 0
M  V30 4811 H 469.244 -2.66973 -5.23449 0
M  V30 4812 H 470.768 -1.92443 -5.79481 0
M  V30 4813 H 472.182 -3.70047 -4.37879 0
M  V30 4814 H 470.579 -4.4228 -4.05597 0
M  V30 4815 H 471.649 -4.0288 -2.69844 0
M  V30 4816 N 472.992 0.995999 -1.22138 0
M  V30 4817 C 474.403 1.54961 -1.04135 0
M  V30 4818 C 474.754 1.92159 0.396147 0
M  V30 4819 O 473.879 1.74435 1.28069 0
M  V30 4820 C 474.474 2.81581 -1.88408 0
M  V30 4821 C 473.033 3.33396 -1.74712 0
M  V30 4822 C 472.18 2.06509 -1.85066 0
M  V30 4823 H 475.131 0.817436 -1.36028 0
M  V30 4824 H 475.152 3.53822 -1.39966 0
M  V30 4825 H 474.664 2.54476 -2.93025 0
M  V30 4826 H 472.765 3.65416 -0.728159 0
M  V30 4827 H 472.878 4.04208 -2.57202 0
M  V30 4828 H 471.242 2.19925 -1.28472 0
M  V30 4829 H 472.025 1.81804 -2.91208 0
M  V30 4830 N 474.47 1.03057 1.19235 0
M  V30 4831 C 475.417 0.612832 2.22515 0
M  V30 4832 C 476.387 -0.374224 1.61829 0
M  V30 4833 O 477.572 -0.270501 1.88873 0
M  V30 4834 C 474.712 -0.028475 3.45088 0
M  V30 4835 C 473.825 1.00483 4.20151 0
M  V30 4836 C 472.96 0.333102 5.30155 0
M  V30 4837 C 471.999 1.3522 5.96977 0
M  V30 4838 N 471.136 0.70616 6.9854 0
M  V30 4839 H 475.976 1.49812 2.57605 0
M  V30 4840 H 473.513 0.749658 1.26564 0
M  V30 4841 H 475.471 -0.417548 4.15105 0
M  V30 4842 H 474.101 -0.877334 3.10649 0
M  V30 4843 H 473.153 1.51194 3.49062 0
M  V30 4844 H 474.465 1.77929 4.65986 0
M  V30 4845 H 473.619 -0.110725 6.06599 0
M  V30 4846 H 472.358 -0.473547 4.85396 0
M  V30 4847 H 471.363 1.80627 5.19282 0
M  V30 4848 H 472.588 2.16037 6.4382 0
M  V30 4849 H 470.534 -0.0803667 6.55951 0
M  V30 4850 H 470.451 1.41848 7.42573 0
M  V30 4851 H 471.719 0.286391 7.78974 0
M  V30 4852 N 475.948 -1.35272 0.808662 0
M  V30 4853 C 476.858 -2.33546 0.222079 0
M  V30 4854 C 477.874 -1.6196 -0.636011 0
M  V30 4855 O 479.05 -1.93822 -0.547274 0
M  V30 4856 C 476.115 -3.41148 -0.61795 0
M  V30 4857 C 475.176 -4.28507 0.260875 0
M  V30 4858 C 474.409 -5.3097 -0.539156 0
M  V30 4859 O 474.632 -5.42123 -1.77367 0
M  V30 4860 O 473.566 -6.01858 0.0710526 0
M  V30 4861 H 477.392 -2.85515 1.03512 0
M  V30 4862 H 474.977 -1.38079 0.570495 0
M  V30 4863 H 476.859 -4.06889 -1.09634 0
M  V30 4864 H 475.534 -2.91447 -1.40855 0
M  V30 4865 H 474.441 -3.6574 0.786451 0
M  V30 4866 H 475.774 -4.81611 1.01547 0
M  V30 4867 N 477.426 -0.562348 -1.47226 0
M  V30 4868 C 478.842 -0.222492 -1.58042 0
M  V30 4869 C 479.042 1.27505 -1.56028 0
M  V30 4870 O 478.098 2.05555 -1.46641 0
M  V30 4871 C 479.411 -0.853694 -2.88327 0
M  V30 4872 C 480.959 -0.825397 -3.01921 0
M  V30 4873 C 481.434 -1.43576 -4.34914 0
M  V30 4874 N 482.925 -1.39918 -4.41562 0
M  V30 4875 C 483.66 -1.84103 -5.43041 0
M  V30 4876 N 483.156 -2.36167 -6.51304 0
M  V30 4877 N 484.949 -1.75142 -5.34118 0
M  V30 4878 H 477.1 -1.53525 -1.46778 0
M  V30 4879 H 479.363 -0.640527 -0.698877 0
M  V30 4880 H 479.069 -1.90635 -2.95552 0
M  V30 4881 H 478.943 -0.34977 -3.75575 0
M  V30 4882 H 481.33 0.218583 -2.94289 0
M  V30 4883 H 481.411 -1.36713 -2.16202 0
M  V30 4884 H 481.055 -2.47884 -4.43301 0
M  V30 4885 H 480.985 -0.869427 -5.19373 0
M  V30 4886 H 483.476 -1.0184 -3.63919 0
M  V30 4887 H 483.789 -2.67793 -7.24919 0
M  V30 4888 H 482.134 -2.40181 -6.52179 0
M  V30 4889 H 485.325 -1.34241 -4.48439 0
M  V30 4890 H 485.498 -2.09895 -6.13065 0
M  V30 4891 N 478.904 1.54736 -0.299062 0
M  V30 4892 C 480.32 1.59507 0.0543849 0
M  V30 4893 C 480.52 1.31606 1.52585 0
M  V30 4894 O 479.576 1.08853 2.27832 0
M  V30 4895 C 480.889 2.98751 -0.34181 0
M  V30 4896 C 482.437 3.1165 -0.290414 0
M  V30 4897 C 482.912 4.53199 -0.661402 0
M  V30 4898 N 484.403 4.59114 -0.613863 0
M  V30 4899 C 485.138 5.66709 -0.873417 0
M  V30 4900 N 484.634 6.82349 -1.19884 0
M  V30 4901 N 486.427 5.56369 -0.800608 0
M  V30 4902 H 478.578 1.71133 -1.25806 0
M  V30 4903 H 480.841 0.799186 -0.509908 0
M  V30 4904 H 480.547 3.24085 -1.36608 0
M  V30 4905 H 480.421 3.75961 0.305508 0
M  V30 4906 H 482.808 2.86066 0.724605 0
M  V30 4907 H 482.889 2.366 -0.972327 0
M  V30 4908 H 482.533 4.79513 -1.67422 0
M  V30 4909 H 482.463 5.26583 0.0425612 0
M  V30 4910 H 484.954 3.76053 -0.3732 0
M  V30 4911 H 485.267 7.60326 -1.38291 0
M  V30 4912 H 483.612 6.83906 -1.23685 0
M  V30 4913 H 486.803 4.64904 -0.546045 0
M  V30 4914 H 486.976 6.40139 -1.00626 0
M  V30 4915 N 480.382 0.0267497 1.57577 0
M  V30 4916 C 481.629 -0.652404 1.91703 0
M  V30 4917 C 481.957 -1.72271 0.902936 0
M  V30 4918 O 481.212 -1.955 -0.0884843 0
M  V30 4919 C 481.511 -1.30914 3.3256 0
M  V30 4920 C 481.177 -0.369441 4.49384 0
M  V30 4921 C 479.839 -0.110791 4.81072 0
M  V30 4922 C 482.191 0.275971 5.20469 0
M  V30 4923 C 479.519 0.801116 5.81205 0
M  V30 4924 C 481.871 1.17592 6.21575 0
M  V30 4925 C 480.535 1.44348 6.51705 0
M  V30 4926 H 479.805 -0.238732 0.70149 0
M  V30 4927 H 482.452 0.0880091 1.91298 0
M  V30 4928 H 480.757 -2.12425 3.29216 0
M  V30 4929 H 482.454 -1.84115 3.56234 0
M  V30 4930 H 479.044 -0.581211 4.24641 0
M  V30 4931 H 483.228 0.0892 4.9622 0
M  V30 4932 H 478.484 1.01614 6.02897 0
M  V30 4933 H 482.658 1.68223 6.75777 0
M  V30 4934 H 480.285 2.15176 7.29111 0
M  V30 4935 N 481.861 -1.55662 -0.24637 0
M  V30 4936 C 483.108 -1.77519 -0.974335 0
M  V30 4937 C 483.436 -0.591165 -1.85298 0
M  V30 4938 O 482.691 0.425497 -1.91018 0
M  V30 4939 C 482.99 -3.04885 -1.86494 0
M  V30 4940 C 482.656 -4.36209 -1.14161 0
M  V30 4941 C 481.318 -4.71896 -0.941701 0
M  V30 4942 C 483.67 -5.17391 -0.628957 0
M  V30 4943 C 480.998 -5.86299 -0.216852 0
M  V30 4944 C 483.35 -6.32546 0.0824273 0
M  V30 4945 C 482.014 -6.66853 0.293807 0
M  V30 4946 H 481.284 -0.649588 -0.356535 0
M  V30 4947 H 483.931 -1.89934 -0.244394 0
M  V30 4948 H 482.236 -2.87484 -2.66196 0
M  V30 4949 H 483.933 -3.18994 -2.42989 0
M  V30 4950 H 480.523 -4.08174 -1.30736 0
M  V30 4951 H 484.707 -4.90276 -0.770943 0
M  V30 4952 H 479.963 -6.11385 -0.0426124 0
M  V30 4953 H 484.137 -6.94693 0.487292 0
M  V30 4954 H 481.764 -7.55349 0.857428 0
M  V30 4955 N 483.339 0.512053 -1.4905 0
M  V30 4956 C 484.286 1.6148 -1.64902 0
M  V30 4957 C 485.256 1.58687 -0.490673 0
M  V30 4958 O 486.441 1.76842 -0.71636 0
M  V30 4959 C 483.581 2.99676 -1.71139 0
M  V30 4960 C 482.694 3.12568 -2.98203 0
M  V30 4961 C 481.829 4.4143 -2.95487 0
M  V30 4962 C 480.868 4.47916 -4.17179 0
M  V30 4963 N 480.005 5.68191 -4.12437 0
M  V30 4964 H 484.845 1.47271 -2.59066 0
M  V30 4965 H 482.382 0.716713 -1.28459 0
M  V30 4966 H 484.34 3.79761 -1.72736 0
M  V30 4967 H 482.97 3.12614 -0.804508 0
M  V30 4968 H 482.022 2.25618 -3.06269 0
M  V30 4969 H 483.334 3.1322 -3.88194 0
M  V30 4970 H 482.488 5.29825 -2.95585 0
M  V30 4971 H 481.227 4.43326 -2.03256 0
M  V30 4972 H 480.232 3.57925 -4.17337 0
M  V30 4973 H 481.457 4.47744 -5.1059 0
M  V30 4974 H 479.403 5.7095 -3.23036 0
M  V30 4975 H 479.32 5.70413 -4.96151 0
M  V30 4976 H 480.588 6.58823 -4.16621 0
M  V30 4977 N 484.817 1.37938 0.762283 0
M  V30 4978 C 486.066 1.32989 1.51647 0
M  V30 4979 C 486.379 -0.0802922 1.95435 0
M  V30 4980 O 487.585 -0.252295 2.70325 0
M  V30 4981 C 486.041 2.33485 2.73885 0
M  V30 4982 C 485.649 3.80079 2.37157 0
M  V30 4983 C 487.393 2.37563 3.51801 0
M  V30 4984 C 485.3 4.72283 3.55954 0
M  V30 4985 H 484.23 0.494301 0.56937 0
M  V30 4986 H 486.881 1.63448 0.834083 0
M  V30 4987 H 485.263 1.96056 3.44061 0
M  V30 4988 H 486.437 4.26398 1.74704 0
M  V30 4989 H 484.752 3.79037 1.72395 0
M  V30 4990 H 487.349 3.0365 4.40114 0
M  V30 4991 H 487.692 1.39199 3.92338 0
M  V30 4992 H 488.225 2.73747 2.8863 0
M  V30 4993 H 484.964 5.7181 3.2049 0
M  V30 4994 H 484.484 4.30663 4.1748 0
M  V30 4995 H 486.163 4.89876 4.22647 0
M  V30 4996 N 486.295 -0.989507 1.22664 0
M  V30 4997 C 487.541 -1.7321 1.05481 0
M  V30 4998 C 487.874 -1.89852 -0.408635 0
M  V30 4999 O 487.149 -1.44416 -1.30285 0
M  V30 5000 C 487.432 -3.1357 1.77047 0
M  V30 5001 C 487.285 -3.04555 3.31008 0
M  V30 5002 C 488.604 -4.12812 1.5256 0
M  V30 5003 H 485.723 -0.628697 0.384589 0
M  V30 5004 H 488.365 -1.15258 1.51049 0
M  V30 5005 H 486.515 -3.63046 1.3831 0
M  V30 5006 H 488.187 -2.62674 3.7921 0
M  V30 5007 H 486.43 -2.41278 3.6051 0
M  V30 5008 H 487.101 -4.03894 3.76263 0
M  V30 5009 H 489.577 -3.72106 1.86215 0
M  V30 5010 H 488.453 -5.09132 2.05124 0
M  V30 5011 H 488.714 -4.39711 0.458936 0
M  V30 5012 N 487.773 -1.03688 -1.18687 0
M  V30 5013 C 488.998 -0.757819 -1.93059 0
M  V30 5014 C 489.423 0.678353 -1.75442 0
M  V30 5015 O 488.781 1.46938 -1.06203 0
M  V30 5016 C 488.829 -1.12423 -3.42627 0
M  V30 5017 O 487.933 -0.247505 -4.11657 0
M  V30 5018 H 487.274 -0.279245 -0.602427 0
M  V30 5019 H 489.804 -1.3857 -1.5053 0
M  V30 5020 H 489.814 -1.08454 -3.93322 0
M  V30 5021 H 488.489 -2.17049 -3.54771 0
M  V30 5022 H 487.066 -0.34649 -3.71287 0
M  V30 5023 N 489.251 1.34841 -0.815825 0
M  V30 5024 C 490.497 1.99219 -0.410288 0
M  V30 5025 C 490.852 1.63532 1.01366 0
M  V30 5026 O 490.145 0.893093 1.69512 0
M  V30 5027 C 490.339 3.53273 -0.541541 0
M  V30 5028 C 490.168 4.03927 -1.9767 0
M  V30 5029 C 488.938 4.32852 -2.60706 0
M  V30 5030 C 491.136 4.21808 -2.9425 0
M  V30 5031 N 489.118 4.69494 -3.95536 0
M  V30 5032 C 490.489 4.6155 -4.13971 0
M  V30 5033 C 492.544 4.04038 -2.9096 0
M  V30 5034 C 491.247 4.85381 -5.30847 0
M  V30 5035 C 493.273 4.29031 -4.07046 0
M  V30 5036 C 492.635 4.69054 -5.25517 0
M  V30 5037 H 488.734 0.756494 -0.198094 0
M  V30 5038 H 491.318 1.63379 -1.05902 0
M  V30 5039 H 489.489 3.88323 0.0772544 0
M  V30 5040 H 491.221 4.04551 -0.109694 0
M  V30 5041 H 487.976 4.23503 -2.11995 0
M  V30 5042 H 488.4 4.92061 -4.64979 0
M  V30 5043 H 493.042 3.7223 -2.00512 0
M  V30 5044 H 490.76 5.16059 -6.21859 0
M  V30 5045 H 494.346 4.16826 -4.05891 0
M  V30 5046 H 493.226 4.88014 -6.1385 0
M  V30 5047 N 490.729 0.570148 1.46925 0
M  V30 5048 C 491.959 0.0561151 2.06524 0
M  V30 5049 C 492.367 -1.24874 1.42137 0
M  V30 5050 O 491.71 -1.76292 0.516417 0
M  V30 5051 C 491.772 -0.197035 3.5896 0
M  V30 5052 C 491.436 1.02033 4.45464 0
M  V30 5053 C 492.433 1.92921 4.82781 0
M  V30 5054 C 490.118 1.23864 4.86788 0
M  V30 5055 C 492.112 3.03999 5.60235 0
M  V30 5056 C 489.799 2.35249 5.64004 0
M  V30 5057 C 490.797 3.25146 6.0064 0
M  V30 5058 O 490.485 4.34598 6.76299 0
M  V30 5059 H 490.217 0.0487409 0.674241 0
M  V30 5060 H 492.771 0.786915 1.89728 0
M  V30 5061 H 491.001 -0.982299 3.74016 0
M  V30 5062 H 492.69 -0.658032 4.00531 0
M  V30 5063 H 493.456 1.77265 4.51444 0
M  V30 5064 H 489.335 0.54805 4.57731 0
M  V30 5065 H 492.879 3.74192 5.8875 0
M  V30 5066 H 488.776 2.50873 5.94755 0
M  V30 5067 H 489.544 4.32808 6.94708 0
M  V30 5068 N 492.207 -1.54576 0.307264 0
M  V30 5069 C 493.484 -1.92377 -0.353605 0
M  V30 5070 C 493.864 -1.23517 -1.71192 0
M  V30 5071 O 493.212 -0.373101 -2.25433 0
M  V30 5072 C 493.422 -3.45928 -0.462039 0
M  V30 5073 C 494.77 -4.18278 -0.729975 0
M  V30 5074 O 495.794 -3.51997 -0.545605 0
M  V30 5075 O 494.653 -5.3563 -1.08454 0
M  V30 5076 H 491.747 -0.802747 -0.198812 0
M  V30 5077 H 494.293 -1.65929 0.355783 0
M  V30 5078 H 493.065 -3.88187 0.492592 0
M  V30 5079 H 492.688 -3.78431 -1.21965 0
M  V30 5080 N 493.685 -0.035106 -1.57561 0
M  V30 5081 C 494.633 0.962707 -2.11742 0
M  V30 5082 C 495.627 1.33296 -1.0454 0
M  V30 5083 O 496.833 1.31449 -1.22968 0
M  V30 5084 H 493.208 0.32826 -0.676572 0
M  V30 5085 H 495.179 0.48048 -2.94506 0
M  V30 5086 C 493.928 2.23388 -2.66445 0
M  V30 5087 H 493.251 1.95774 -3.48587 0
M  V30 5088 H 494.691 2.91402 -3.07995 0
M  V30 5089 C 493.15 2.96769 -1.59467 0
M  V30 5090 O 493.68 3.89105 -0.998 0
M  V30 5091 N 491.886 2.59212 -1.31369 0
M  V30 5092 H 491.433 1.84202 -1.80076 0
M  V30 5093 H 491.391 3.08618 -0.600173 0
M  V30 5094 N 495.163 1.55791 0.238111 0
M  V30 5095 C 496.073 1.94196 1.31625 0
M  V30 5096 C 497.089 0.843545 1.52185 0
M  V30 5097 O 498.265 1.1457 1.65637 0
M  V30 5098 C 495.33 2.2365 2.64918 0
M  V30 5099 C 494.391 3.46971 2.52804 0
M  V30 5100 C 493.624 3.7501 3.79741 0
M  V30 5101 O 493.847 3.04982 4.82019 0
M  V30 5102 O 492.781 4.68525 3.77846 0
M  V30 5103 H 496.607 2.86044 1.02043 0
M  V30 5104 H 494.192 1.42786 0.439603 0
M  V30 5105 H 496.074 2.43863 3.4367 0
M  V30 5106 H 494.749 1.34979 2.94215 0
M  V30 5107 H 493.656 3.32055 1.72309 0
M  V30 5108 H 494.989 4.35971 2.28451 0
M  V30 5109 N 496.642 -0.504142 1.49319 0
M  V30 5110 C 497.888 -1.25767 1.59857 0
M  V30 5111 C 498.243 -1.90348 0.280262 0
M  V30 5112 O 497.536 -1.77588 -0.719241 0
M  V30 5113 C 497.73 -2.35021 2.69258 0
M  V30 5114 C 497.559 -1.81154 4.11598 0
M  V30 5115 C 496.329 -1.62596 4.78425 0
M  V30 5116 C 498.527 -1.3252 4.96934 0
M  V30 5117 N 496.509 -1.03625 6.05091 0
M  V30 5118 C 497.88 -0.856633 6.14054 0
M  V30 5119 C 499.935 -1.21063 4.82958 0
M  V30 5120 C 498.638 -0.284841 7.18736 0
M  V30 5121 C 500.664 -0.652815 5.87786 0
M  V30 5122 C 500.026 -0.194461 7.04132 0
M  V30 5123 H 496.125 -0.450293 0.639343 0
M  V30 5124 H 498.709 -0.565344 1.86311 0
M  V30 5125 H 496.88 -3.01719 2.44581 0
M  V30 5126 H 498.612 -3.02061 2.69335 0
M  V30 5127 H 495.367 -1.86873 4.35173 0
M  V30 5128 H 495.791 -0.76076 6.72712 0
M  V30 5129 H 500.433 -1.551 3.93324 0
M  V30 5130 H 498.151 0.0677979 8.08072 0
M  V30 5131 H 501.737 -0.566994 5.79031 0
M  V30 5132 H 500.617 0.230442 7.83861 0
M  V30 5133 N 498.12 -1.38341 -0.754957 0
M  V30 5134 C 499.368 -1.34208 -1.51105 0
M  V30 5135 C 499.689 0.0677634 -1.94882 0
M  V30 5136 O 498.959 1.01517 -1.67544 0
M  V30 5137 H 497.539 -0.493819 -0.560493 0
M  V30 5138 H 500.201 -1.73005 -0.897507 0
M  V30 5139 H 499.297 -1.99203 -2.4026 0
M  V30 5140 N 499.598 0.982988 -1.23187 0
M  V30 5141 C 500.828 1.75666 -1.08743 0
M  V30 5142 C 501.236 1.85662 0.364195 0
M  V30 5143 O 500.579 1.33317 1.26382 0
M  V30 5144 C 500.641 3.20144 -1.63549 0
M  V30 5145 C 500.305 3.33665 -3.12277 0
M  V30 5146 C 501.302 3.20194 -4.096 0
M  V30 5147 C 498.987 3.58397 -3.51933 0
M  V30 5148 C 500.981 3.31256 -5.44563 0
M  V30 5149 C 498.668 3.69098 -4.87042 0
M  V30 5150 C 499.666 3.55537 -5.83166 0
M  V30 5151 O 499.354 3.65864 -7.1582 0
M  V30 5152 H 499.086 0.558194 -0.381307 0
M  V30 5153 H 501.64 1.24387 -1.63454 0
M  V30 5154 H 499.87 3.72659 -1.03256 0
M  V30 5155 H 501.559 3.79262 -1.4462 0
M  V30 5156 H 502.325 3.00987 -3.80305 0
M  V30 5157 H 498.204 3.68025 -2.77631 0
M  V30 5158 H 501.748 3.20588 -6.19572 0
M  V30 5159 H 497.645 3.87814 -5.16014 0
M  V30 5160 H 498.413 3.82675 -7.23534 0
M  V30 5161 N 501.076 1.04316 1.18135 0
M  V30 5162 C 502.301 0.768047 1.92655 0
M  V30 5163 C 502.726 -0.66904 1.758 0
M  V30 5164 O 502.084 -1.46372 1.06981 0
M  V30 5165 C 502.132 1.14239 3.42026 0
M  V30 5166 O 501.236 0.269333 4.1152 0
M  V30 5167 H 500.577 0.282436 0.600937 0
M  V30 5168 H 503.107 1.39367 1.49793 0
M  V30 5169 H 503.117 1.10538 3.92741 0
M  V30 5170 H 501.792 2.18928 3.53615 0
M  V30 5171 H 500.369 0.366175 3.71098 0
M  V30 5172 N 502.554 -1.34406 0.822964 0
M  V30 5173 C 503.504 -2.26963 0.217208 0
M  V30 5174 C 504.488 -1.48536 -0.618545 0
M  V30 5175 O 505.68 -1.7056 -0.473118 0
M  V30 5176 C 502.809 -3.37655 -0.619973 0
M  V30 5177 C 501.895 -4.23495 0.226411 0
M  V30 5178 N 502.286 -4.88876 1.29744 0
M  V30 5179 C 500.584 -4.45999 0.0107554 0
M  V30 5180 C 501.285 -5.52642 1.81553 0
M  V30 5181 N 500.261 -5.31949 1.11942 0
M  V30 5182 H 504.063 -2.75017 1.03647 0
M  V30 5183 H 501.577 -1.48126 0.665777 0
M  V30 5184 H 503.574 -4.02932 -1.07011 0
M  V30 5185 H 502.234 -2.91151 -1.43739 0
M  V30 5186 H 503.245 -4.89886 1.68024 0
M  V30 5187 H 499.922 -4.10253 -0.774495 0
M  V30 5188 H 501.312 -6.14755 2.71156 0
M  V30 5189 N 504.032 -0.577932 -1.46621 0
M  V30 5190 C 505.448 -0.239242 -1.57797 0
M  V30 5191 C 505.648 1.25843 -1.57371 0
M  V30 5192 O 504.704 2.03988 -1.48813 0
M  V30 5193 C 506.017 -0.884227 -2.87405 0
M  V30 5194 C 507.565 -0.857373 -3.01028 0
M  V30 5195 C 508.04 -1.48181 -4.33366 0
M  V30 5196 N 509.531 -1.44593 -4.40053 0
M  V30 5197 C 510.266 -1.89852 -5.41058 0
M  V30 5198 N 509.762 -2.43062 -6.48762 0
M  V30 5199 N 511.555 -1.80797 -5.3223 0
M  V30 5200 H 503.706 -1.55073 -1.45142 0
M  V30 5201 H 505.969 -0.647903 -0.692044 0
M  V30 5202 H 505.675 -1.93759 -2.93514 0
M  V30 5203 H 505.549 -0.389585 -3.75183 0
M  V30 5204 H 507.936 0.187357 -2.94505 0
M  V30 5205 H 508.017 -1.38999 -2.14739 0
M  V30 5206 H 507.661 -2.52572 -4.40647 0
M  V30 5207 H 507.591 -0.924464 -5.18422 0
M  V30 5208 H 510.082 -1.05694 -3.62819 0
M  V30 5209 H 510.395 -2.75466 -7.22038 0
M  V30 5210 H 508.74 -2.47085 -6.49595 0
M  V30 5211 H 511.931 -1.38989 -4.46989 0
M  V30 5212 H 512.104 -2.16385 -6.10804 0
M  V30 5213 N 505.51 1.54411 -0.315457 0
M  V30 5214 C 506.756 2.00716 0.289972 0
M  V30 5215 C 507.089 1.2034 1.5242 0
M  V30 5216 O 506.364 0.283579 1.92422 0
M  V30 5217 C 506.647 3.54507 0.632196 0
M  V30 5218 C 506.5 4.45615 -0.61218 0
M  V30 5219 C 507.819 4.15421 1.45305 0
M  V30 5220 H 504.938 0.729637 0.10392 0
M  V30 5221 H 507.58 1.8506 -0.430427 0
M  V30 5222 H 505.73 3.67979 1.24595 0
M  V30 5223 H 507.402 4.44026 -1.25053 0
M  V30 5224 H 505.645 4.15621 -1.24264 0
M  V30 5225 H 506.316 5.51022 -0.328379 0
M  V30 5226 H 508.792 4.05474 0.934331 0
M  V30 5227 H 507.668 5.23157 1.66127 0
M  V30 5228 H 507.929 3.68223 2.44671 0
M  V30 5229 N 506.988 0.0434614 1.5754 0
M  V30 5230 C 508.234 -0.632971 1.92669 0
M  V30 5231 C 508.567 -1.70947 0.921446 0
M  V30 5232 O 507.842 -1.94426 -0.0537202 0
M  V30 5233 C 508.125 -1.23619 3.38216 0
M  V30 5234 C 507.978 -0.168274 4.49485 0
M  V30 5235 C 509.297 -2.15008 3.84005 0
M  V30 5236 H 506.416 -0.228629 0.700641 0
M  V30 5237 H 509.058 0.103651 1.89717 0
M  V30 5238 H 507.208 -1.864 3.40863 0
M  V30 5239 H 508.88 0.463196 4.58969 0
M  V30 5240 H 507.123 0.504581 4.30855 0
M  V30 5241 H 507.794 -0.630218 5.48391 0
M  V30 5242 H 510.27 -1.62198 3.83185 0
M  V30 5243 H 509.146 -2.54161 4.86511 0
M  V30 5244 H 509.407 -3.04707 3.20322 0
M  V30 5245 N 508.466 -1.55915 -0.229846 0
M  V30 5246 C 509.743 -1.6932 -0.979295 0
M  V30 5247 C 510.123 -0.588321 -2.02736 0
M  V30 5248 O 509.471 0.40586 -2.24867 0
M  V30 5249 C 509.681 -3.10305 -1.59724 0
M  V30 5250 C 511.029 -3.6945 -2.09264 0
M  V30 5251 O 512.053 -3.13214 -1.69633 0
M  V30 5252 O 510.912 -4.68072 -2.82082 0
M  V30 5253 H 508.006 -0.689314 -0.456919 0
M  V30 5254 H 510.552 -1.68238 -0.222283 0
M  V30 5255 H 509.324 -3.82177 -0.840039 0
M  V30 5256 H 508.947 -3.1547 -2.42001 0
M  V30 5257 N 509.944 0.496216 -1.49584 0
M  V30 5258 C 510.874 1.60576 -1.69521 0
M  V30 5259 C 511.855 1.61169 -0.543933 0
M  V30 5260 O 513.04 1.77834 -0.78031 0
M  V30 5261 C 510.17 2.99038 -1.76616 0
M  V30 5262 C 509.124 3.13312 -2.91581 0
M  V30 5263 C 508.45 4.53172 -2.83794 0
M  V30 5264 C 509.75 2.92886 -4.32452 0
M  V30 5265 H 511.444 1.44146 -2.62416 0
M  V30 5266 H 508.99 0.692024 -1.26282 0
M  V30 5267 H 510.943 3.76564 -1.8915 0
M  V30 5268 H 509.667 3.16568 -0.80324 0
M  V30 5269 H 508.326 2.38213 -2.78658 0
M  V30 5270 H 507.974 4.67585 -1.854 0
M  V30 5271 H 507.674 4.63662 -3.60958 0
M  V30 5272 H 509.198 5.32752 -2.98342 0
M  V30 5273 H 510.612 3.60178 -4.46032 0
M  V30 5274 H 509.009 3.14844 -5.10875 0
M  V30 5275 H 510.079 1.88966 -4.46565 0
M  V30 5276 N 511.423 1.38739 0.74761 0
M  V30 5277 C 512.669 1.35475 1.50912 0
M  V30 5278 C 513.002 -0.0533093 1.94127 0
M  V30 5279 O 512.277 -1.01572 1.65871 0
M  V30 5280 C 512.56 2.31582 2.75757 0
M  V30 5281 C 512.413 3.81274 2.38642 0
M  V30 5282 C 513.732 2.25722 3.77806 0
M  V30 5283 H 510.851 0.493427 0.547447 0
M  V30 5284 H 513.493 1.69634 0.855823 0
M  V30 5285 H 511.643 2.02582 3.31501 0
M  V30 5286 H 513.315 4.20972 1.88626 0
M  V30 5287 H 511.558 3.98664 1.71025 0
M  V30 5288 H 512.229 4.4399 3.27989 0
M  V30 5289 H 514.705 2.51336 3.31616 0
M  V30 5290 H 513.581 2.95069 4.62845 0
M  V30 5291 H 513.842 1.25803 4.23823 0
M  V30 5292 N 512.901 -0.976442 1.23707 0
M  V30 5293 C 514.317 -1.24341 1.00058 0
M  V30 5294 C 514.517 -1.99315 -0.295932 0
M  V30 5295 O 513.573 -2.3123 -1.01435 0
M  V30 5296 C 514.886 -2.03909 2.21001 0
M  V30 5297 C 516.434 -2.17034 2.25534 0
M  V30 5298 C 516.909 -2.99994 3.46075 0
M  V30 5299 N 518.4 -3.07578 3.46338 0
M  V30 5300 C 519.135 -3.72104 4.36264 0
M  V30 5301 N 518.631 -4.3842 5.36432 0
M  V30 5302 N 520.424 -3.69029 4.23998 0
M  V30 5303 H 512.575 -0.47428 2.07037 0
M  V30 5304 H 514.838 -0.272167 0.908091 0
M  V30 5305 H 514.544 -1.56198 3.15111 0
M  V30 5306 H 514.418 -3.04654 2.22409 0
M  V30 5307 H 516.805 -2.63951 1.31961 0
M  V30 5308 H 516.886 -1.15664 2.28156 0
M  V30 5309 H 516.53 -2.53772 4.39957 0
M  V30 5310 H 516.46 -4.01541 3.40694 0
M  V30 5311 H 518.951 -2.60397 2.73865 0
M  V30 5312 H 519.264 -4.85447 6.013 0
M  V30 5313 H 517.609 -4.37116 5.40328 0
M  V30 5314 H 520.8 -3.16392 3.44984 0
M  V30 5315 H 520.973 -4.19034 4.94282 0
M  V30 5316 N 514.379 -1.04941 -1.1758 0
M  V30 5317 C 515.329 -0.618378 -2.19454 0
M  V30 5318 C 516.313 0.343813 -1.57184 0
M  V30 5319 O 517.505 0.16145 -1.76262 0
M  V30 5320 C 514.634 0.00803847 -3.43299 0
M  V30 5321 C 513.72 -0.977827 -4.12673 0
M  V30 5322 N 514.111 -2.14826 -4.57912 0
M  V30 5323 C 512.409 -0.805748 -4.38661 0
M  V30 5324 C 513.11 -2.77174 -5.11419 0
M  V30 5325 N 512.086 -2.04989 -5.03468 0
M  V30 5326 H 515.888 -1.51018 -2.52132 0
M  V30 5327 H 513.402 -0.919201 -1.33882 0
M  V30 5328 H 515.399 0.334584 -4.15555 0
M  V30 5329 H 514.059 0.895272 -3.12114 0
M  V30 5330 H 515.07 -2.52673 -4.52081 0
M  V30 5331 H 511.747 0.0306506 -4.17489 0
M  V30 5332 H 513.137 -3.76416 -5.56562 0
M  V30 5333 N 515.857 1.33968 -0.830081 0
M  V30 5334 C 516.79 2.27303 -0.202182 0
M  V30 5335 C 517.768 1.49235 0.645581 0
M  V30 5336 O 518.952 1.78433 0.607762 0
M  V30 5337 C 516.079 3.31025 0.716932 0
M  V30 5338 C 515.125 4.26466 -0.0542271 0
M  V30 5339 S 515.958 5.16707 -1.40622 0
M  V30 5340 C 517.114 6.23962 -0.492167 0
M  V30 5341 H 517.347 2.8021 -0.99346 0
M  V30 5342 H 514.88 1.41124 -0.626359 0
M  V30 5343 H 516.838 3.91271 1.24165 0
M  V30 5344 H 515.499 2.76951 1.4818 0
M  V30 5345 H 514.692 4.99858 0.644785 0
M  V30 5346 H 514.294 3.7051 -0.509722 0
M  V30 5347 H 516.586 6.76774 0.31347 0
M  V30 5348 H 517.529 6.97927 -1.19599 0
M  V30 5349 H 517.937 5.64447 -0.0774176 0
M  V30 5350 N 517.335 0.585699 1.46312 0
M  V30 5351 C 518.298 -0.135673 2.28798 0
M  V30 5352 C 519.298 -0.815988 1.38558 0
M  V30 5353 O 520.488 -0.667487 1.60904 0
M  V30 5354 C 517.62 -1.20163 3.1902 0
M  V30 5355 H 518.813 0.589257 2.94054 0
M  V30 5356 H 516.366 0.343794 1.52472 0
M  V30 5357 H 517.101 -1.95804 2.58517 0
M  V30 5358 H 516.886 -0.718282 3.85465 0
M  V30 5359 H 518.376 -1.70749 3.81096 0
M  V30 5360 N 518.813 -1.54241 0.323641 0
M  V30 5361 C 520.038 -2.05452 -0.283605 0
M  V30 5362 C 520.463 -1.19823 -1.44997 0
M  V30 5363 O 519.821 -0.207358 -1.8011 0
M  V30 5364 C 519.869 -3.53823 -0.695795 0
M  V30 5365 O 518.973 -3.71134 -1.79815 0
M  V30 5366 H 518.314 -0.662024 -0.0511917 0
M  V30 5367 H 520.844 -1.99079 0.472073 0
M  V30 5368 H 520.854 -3.96094 -0.978434 0
M  V30 5369 H 519.529 -4.15602 0.157287 0
M  V30 5370 H 518.106 -3.40768 -1.51431 0
M  V30 5371 N 520.291 -0.0518155 -1.57515 0
M  V30 5372 C 521.238 0.922352 -2.11569 0
M  V30 5373 C 522.208 1.30842 -1.02321 0
M  V30 5374 O 523.393 1.39778 -1.29872 0
M  V30 5375 C 520.533 2.19167 -2.6657 0
M  V30 5376 C 519.646 1.86003 -3.89906 0
M  V30 5377 C 518.781 3.07398 -4.33221 0
M  V30 5378 C 517.82 2.70158 -5.49255 0
M  V30 5379 N 516.957 3.84248 -5.8762 0
M  V30 5380 H 521.797 0.454506 -2.94514 0
M  V30 5381 H 519.334 0.212718 -1.45554 0
M  V30 5382 H 521.292 2.93443 -2.96559 0
M  V30 5383 H 519.922 2.63528 -1.86421 0
M  V30 5384 H 518.974 1.01874 -3.66505 0
M  V30 5385 H 520.286 1.54592 -4.74239 0
M  V30 5386 H 519.44 3.89972 -4.64765 0
M  V30 5387 H 518.179 3.41988 -3.477 0
M  V30 5388 H 517.184 1.86001 -5.17382 0
M  V30 5389 H 518.409 2.36759 -6.36492 0
M  V30 5390 H 516.355 4.18638 -5.05053 0
M  V30 5391 H 516.272 3.56538 -6.66646 0
M  V30 5392 H 517.54 4.6746 -6.2378 0
M  V30 5393 N 521.769 1.56035 0.221574 0
M  V30 5394 C 523.046 1.69837 0.970301 0
M  V30 5395 C 523.426 0.599065 2.02421 0
M  V30 5396 O 522.774 -0.393929 2.25079 0
M  V30 5397 C 522.984 3.11148 1.58076 0
M  V30 5398 C 524.332 3.70555 2.07302 0
M  V30 5399 O 525.356 3.14109 1.6797 0
M  V30 5400 O 524.215 4.69562 2.79596 0
M  V30 5401 H 521.309 0.691727 0.453257 0
M  V30 5402 H 523.855 1.68353 0.213358 0
M  V30 5403 H 522.627 3.82617 0.819759 0
M  V30 5404 H 522.25 3.16749 2.40324 0
M  V30 5405 N 523.247 -0.488276 1.49845 0
M  V30 5406 C 524.663 -0.820566 1.3689 0
M  V30 5407 C 524.863 -1.97248 0.411752 0
M  V30 5408 O 523.919 -2.52042 -0.151931 0
M  V30 5409 C 525.232 -1.1488 2.77891 0
M  V30 5410 C 526.78 -1.25626 2.86683 0
M  V30 5411 C 527.255 -1.61772 4.28479 0
M  V30 5412 N 528.746 -1.68797 4.31349 0
M  V30 5413 C 529.481 -1.98235 5.38043 0
M  V30 5414 N 528.977 -2.2581 6.54967 0
M  V30 5415 N 530.77 -1.99593 5.2547 0
M  V30 5416 H 522.921 0.271123 2.10662 0
M  V30 5417 H 525.184 0.058735 0.946179 0
M  V30 5418 H 524.89 -0.375614 3.49688 0
M  V30 5419 H 524.764 -2.08919 3.14058 0
M  V30 5420 H 527.151 -2.02014 2.15114 0
M  V30 5421 H 527.232 -0.296072 2.54081 0
M  V30 5422 H 526.876 -0.859295 5.00578 0
M  V30 5423 H 526.806 -2.58912 4.58554 0
M  V30 5424 H 529.297 -1.49595 3.4703 0
M  V30 5425 H 529.61 -2.47497 7.32096 0
M  V30 5426 H 527.955 -2.23239 6.58171 0
M  V30 5427 H 531.146 -1.77535 4.33127 0
M  V30 5428 H 531.319 -2.222 6.08713 0
M  V30 5429 N 524.725 -1.39134 -0.740242 0
M  V30 5430 C 525.95 -1.39518 -1.53459 0
M  V30 5431 C 526.375 0.00968883 -1.88098 0
M  V30 5432 O 525.733 0.995312 -1.51536 0
M  V30 5433 C 525.781 -2.26981 -2.802 0
M  V30 5434 O 524.885 -1.69609 -3.75908 0
M  V30 5435 H 524.226 -0.475328 -0.463637 0
M  V30 5436 H 526.756 -1.83064 -0.913717 0
M  V30 5437 H 526.766 -2.41309 -3.28989 0
M  V30 5438 H 525.441 -3.29081 -2.5432 0
M  V30 5439 H 524.018 -1.64495 -3.34658 0
M  V30 5440 N 526.204 0.969867 -1.24223 0
M  V30 5441 C 527.167 2.04564 -1.03373 0
M  V30 5442 C 528.167 1.60798 0.00819206 0
M  V30 5443 O 529.357 1.72641 -0.232567 0
M  V30 5444 C 526.489 3.36163 -0.566343 0
M  V30 5445 H 527.682 2.24494 -1.98853 0
M  V30 5446 H 525.235 1.1448 -1.06415 0
M  V30 5447 H 525.97 3.21925 0.391751 0
M  V30 5448 H 525.755 3.69273 -1.31834 0
M  V30 5449 H 527.245 4.1526 -0.441435 0
M  V30 5450 N 527.682 1.05563 1.17022 0
M  V30 5451 C 529.098 0.777684 1.39371 0
M  V30 5452 C 529.298 -0.626269 1.91521 0
M  V30 5453 O 528.354 -1.38806 2.10924 0
M  V30 5454 C 529.667 1.83642 2.3811 0
M  V30 5455 C 531.215 1.85907 2.51809 0
M  V30 5456 C 531.69 2.90813 3.53824 0
M  V30 5457 N 533.181 2.898 3.61345 0
M  V30 5458 C 533.916 3.6762 4.40049 0
M  V30 5459 N 533.412 4.55237 5.22237 0
M  V30 5460 N 535.205 3.56044 4.34959 0
M  V30 5461 H 527.356 1.9614 0.815047 0
M  V30 5462 H 529.619 0.849527 0.420722 0
M  V30 5463 H 529.325 2.84425 2.06871 0
M  V30 5464 H 529.199 1.6812 3.37662 0
M  V30 5465 H 531.586 0.857865 2.82356 0
M  V30 5466 H 531.667 2.05506 1.52318 0
M  V30 5467 H 531.311 3.91122 3.24015 0
M  V30 5468 H 531.241 2.68465 4.53028 0
M  V30 5469 H 533.732 2.26274 3.02669 0
M  V30 5470 H 534.045 5.11291 5.79484 0
M  V30 5471 H 532.39 4.59296 5.21605 0
M  V30 5472 H 535.581 2.86986 3.69806 0
M  V30 5473 H 535.754 4.16938 4.96051 0
M  V30 5474 N 529.16 -1.33526 0.837174 0
M  V30 5475 C 530.09 -2.31764 0.284206 0
M  V30 5476 C 531.071 -1.58896 -0.607142 0
M  V30 5477 O 532.256 -1.86798 -0.531047 0
M  V30 5478 C 529.386 -3.43029 -0.542962 0
M  V30 5479 C 528.34 -4.27255 0.252451 0
M  V30 5480 C 527.666 -5.3012 -0.69836 0
M  V30 5481 C 528.966 -5.01229 1.46858 0
M  V30 5482 H 530.66 -2.78262 1.10502 0
M  V30 5483 H 528.206 -1.3378 0.532812 0
M  V30 5484 H 530.159 -4.1078 -0.940096 0
M  V30 5485 H 528.883 -2.95216 -1.39697 0
M  V30 5486 H 527.542 -3.61127 0.631124 0
M  V30 5487 H 527.19 -4.78564 -1.54872 0
M  V30 5488 H 526.89 -5.87353 -0.170274 0
M  V30 5489 H 528.414 -6.00737 -1.09305 0
M  V30 5490 H 529.828 -5.61756 1.14469 0
M  V30 5491 H 528.225 -5.68104 1.93333 0
M  V30 5492 H 529.295 -4.301 2.23924 0
M  V30 5493 O 530.677 -0.734023 -1.43855 0
M  V30 5494 H 531.368 -0.285275 -1.91588 0
M  V30 END ATOM
M  V30 BEGIN BOND
M  V30 END BOND
M  V30 END CTAB
M  END
$$$$
