drugbank_target|Q96A05 V-type proton ATPase subunit E 2 (DB01133)
 OpenBabel12092121233D

  0  0  0     0  0            999 V3000
M  V30 BEGIN CTAB
M  V30 COUNTS 3744 3761 0 0 0
M  V30 BEGIN ATOM
M  V30 1 H -0.908 1.98254 -0.117106 0
M  V30 2 N 0 1.576 0 0
M  V30 3 C 0.933 2.03868 1.02534 0
M  V30 4 C 1.911 0.928543 1.3348 0
M  V30 5 O 3.095 1.19667 1.45644 0
M  V30 6 C 0.222 2.43627 2.35294 0
M  V30 7 C -0.732 3.65373 2.2001 0
M  V30 8 S 0.101 5.13292 1.52614 0
M  V30 9 C 1.257 5.56322 2.86805 0
M  V30 10 H 1.49 2.90518 0.631377 0
M  V30 11 H -0.977 1.52953 0.210867 0
M  V30 12 H 0.981 2.67203 3.11629 0
M  V30 13 H -0.358 1.57376 2.7183 0
M  V30 14 H -1.165 3.90944 3.18086 0
M  V30 15 H -1.563 3.418 1.51819 0
M  V30 16 H 0.729 5.58782 3.83104 0
M  V30 17 H 1.672 6.56266 2.65933 0
M  V30 18 H 2.08 4.83886 2.90714 0
M  V30 19 N 1.4781 -0.272755 1.55222 0
M  V30 20 C 2.4411 -1.32041 1.87344 0
M  V30 21 C 3.4411 -1.42342 0.74803 0
M  V30 22 O 4.6311 -1.41488 1.0162 0
M  V30 23 C 1.7631 -2.70173 2.07893 0
M  V30 24 H 2.9561 -1.04789 2.80997 0
M  V30 25 H 0.5091 -0.51083 1.47717 0
M  V30 26 H 1.2441 -3.02605 1.16622 0
M  V30 27 H 1.0291 -2.64082 2.89833 0
M  V30 28 H 2.5191 -3.45869 2.34017 0
M  V30 29 N 2.9562 -1.48159 -0.537278 0
M  V30 30 C 3.8862 -1.65029 -1.6519 0
M  V30 31 C 4.8672 -0.499281 -1.62607 0
M  V30 32 O 6.0522 -0.730972 -1.79918 0
M  V30 33 C 3.1822 -1.68303 -3.03795 0
M  V30 34 C 2.1362 -2.8283 -3.21234 0
M  V30 35 C 1.4622 -2.71189 -4.60826 0
M  V30 36 C 2.7622 -4.24211 -3.04701 0
M  V30 37 H 4.4562 -2.58341 -1.51328 0
M  V30 38 H 2.0022 -1.24325 -0.726585 0
M  V30 39 H 3.9552 -1.78693 -3.81637 0
M  V30 40 H 2.6792 -0.715635 -3.18663 0
M  V30 41 H 1.3382 -2.71983 -2.45807 0
M  V30 42 H 0.9862 -1.72435 -4.7252 0
M  V30 43 H 0.6862 -3.48035 -4.7344 0
M  V30 44 H 2.2102 -2.83537 -5.40777 0
M  V30 45 H 3.6242 -4.3593 -3.72341 0
M  V30 46 H 2.0212 -5.01998 -3.28813 0
M  V30 47 H 3.0912 -4.41184 -2.01209 0
M  V30 48 N 4.4343 0.785586 -1.36625 0
M  V30 49 C 5.6593 1.57963 -1.34397 0
M  V30 50 C 6.0843 1.87964 0.071526 0
M  V30 51 O 5.4423 1.48182 1.0446 0
M  V30 52 C 5.4903 2.87511 -2.17646 0
M  V30 53 O 4.5943 3.81281 -1.57158 0
M  V30 54 H 3.9353 0.479014 -0.459828 0
M  V30 55 H 6.4653 0.973411 -1.79961 0
M  V30 56 H 6.4753 3.36745 -2.30362 0
M  V30 57 H 5.1503 2.65002 -3.20541 0
M  V30 58 H 3.7273 3.39885 -1.53403 0
M  V30 59 N 5.9124 1.20967 1.01018 0
M  V30 60 C 7.1894 0.93264 1.71934 0
M  V30 61 C 7.5694 -0.55692 2.03621 0
M  V30 62 O 6.9174 -1.52035 1.7058 0
M  V30 63 C 7.1274 1.81233 2.98254 0
M  V30 64 C 8.4754 2.05804 3.71389 0
M  V30 65 O 9.4994 1.78539 3.08225 0
M  V30 66 O 8.3584 2.51888 4.84989 0
M  V30 67 H 5.4524 0.349272 0.749625 0
M  V30 68 H 7.9984 1.31871 1.06808 0
M  V30 69 H 6.7704 2.82067 2.71208 0
M  V30 70 H 6.3934 1.42674 3.7112 0
M  V30 71 N 7.3905 -1.2043 1.01659 0
M  V30 72 C 8.6365 -1.90079 0.706963 0
M  V30 73 C 8.9695 -1.78648 -0.761474 0
M  V30 74 O 8.2445 -1.17069 -1.55323 0
M  V30 75 C 8.5275 -3.41469 1.14327 0
M  V30 76 C 8.3805 -3.61833 2.67201 0
M  V30 77 C 9.6995 -4.34261 0.714529 0
M  V30 78 H 6.8185 -0.690254 0.2583 0
M  V30 79 H 9.4605 -1.41826 1.26433 0
M  V30 80 H 7.6105 -3.82696 0.669056 0
M  V30 81 H 9.2825 -3.2986 3.22475 0
M  V30 82 H 7.5255 -3.05304 3.08175 0
M  V30 83 H 8.1965 -4.67955 2.92783 0
M  V30 84 H 10.6725 -4.00682 1.12221 0
M  V30 85 H 9.5485 -5.38806 1.04784 0
M  V30 86 H 9.8095 -4.40431 -0.383799 0
M  V30 87 N 8.8686 -0.792821 -1.36206 0
M  V30 88 C 10.1456 -0.290627 -1.93429 0
M  V30 89 C 10.5256 1.21773 -1.72437 0
M  V30 90 O 9.8736 2.0108 -1.08531 0
M  V30 91 C 10.0836 -0.686973 -3.42172 0
M  V30 92 C 11.4316 -0.668643 -4.19302 0
M  V30 93 O 12.4556 -0.627658 -3.50626 0
M  V30 94 O 11.3146 -0.714597 -5.41808 0
M  V30 95 H 8.4086 -0.0727927 -0.82379 0
M  V30 96 H 10.9546 -0.875593 -1.45367 0
M  V30 97 H 9.7266 -1.72711 -3.51122 0
M  V30 98 H 9.3496 -0.0760733 -3.97527 0
M  V30 99 N 10.3467 1.47872 -0.545128 0
M  V30 100 C 11.5927 2.02793 -0.0166104 0
M  V30 101 C 11.9257 1.41987 1.32489 0
M  V30 102 O 11.2007 0.571045 1.85928 0
M  V30 103 C 11.4837 3.59989 0.0893294 0
M  V30 104 C 11.3367 4.3125 -1.27841 0
M  V30 105 C 12.6557 4.32606 0.808724 0
M  V30 106 H 9.7747 0.736962 -0.00751035 0
M  V30 107 H 12.4167 1.76433 -0.705085 0
M  V30 108 H 10.5667 3.82579 0.675681 0
M  V30 109 H 12.2387 4.20035 -1.90704 0
M  V30 110 H 10.4817 3.92076 -1.85632 0
M  V30 111 H 11.1527 5.39736 -1.15713 0
M  V30 112 H 13.6287 4.14936 0.310992 0
M  V30 113 H 12.5047 5.42251 0.851782 0
M  V30 114 H 12.7657 4.00963 1.86229 0
M  V30 115 N 11.8248 0.280983 1.55075 0
M  V30 116 C 12.7718 -0.603937 2.22758 0
M  V30 117 C 13.7418 -1.1452 1.20309 0
M  V30 118 O 14.9268 -1.19343 1.48869 0
M  V30 119 C 12.0668 -1.77947 2.95684 0
M  V30 120 C 11.1798 -1.2715 4.12864 0
M  V30 121 C 10.3148 -2.4093 4.7342 0
M  V30 122 C 9.3538 -1.87165 5.82783 0
M  V30 123 N 8.4908 -2.94441 6.37377 0
M  V30 124 H 13.3308 -0.020124 2.97993 0
M  V30 125 H 10.8678 0.00183425 1.471 0
M  V30 126 H 12.8258 -2.47055 3.36184 0
M  V30 127 H 11.4558 -2.33522 2.22861 0
M  V30 128 H 10.5078 -0.473331 3.77444 0
M  V30 129 H 11.8198 -0.837751 4.91715 0
M  V30 130 H 10.9738 -3.18021 5.1667 0
M  V30 131 H 9.7128 -2.87623 3.93859 0
M  V30 132 H 8.7178 -1.08556 5.38976 0
M  V30 133 H 9.9428 -1.41401 6.64216 0
M  V30 134 H 7.8888 -3.40505 5.60707 0
M  V30 135 H 7.8058 -2.55501 7.11516 0
M  V30 136 H 9.0738 -3.71489 6.85285 0
M  V30 137 N 13.3029 -1.57598 0.00835791 0
M  V30 138 C 14.2499 -2.08945 -0.980346 0
M  V30 139 C 15.2199 -0.986738 -1.33614 0
M  V30 140 O 16.4049 -1.25968 -1.43306 0
M  V30 141 C 13.5449 -2.60425 -2.26435 0
M  V30 142 C 12.6579 -3.84628 -1.96685 0
M  V30 143 C 11.7929 -4.24579 -3.19228 0
M  V30 144 C 10.8319 -5.41596 -2.85202 0
M  V30 145 N 9.9689 -5.768 -4.00307 0
M  V30 146 H 14.8089 -2.93148 -0.535551 0
M  V30 147 H 12.3459 -1.44912 -0.252776 0
M  V30 148 H 14.3039 -2.88354 -3.01509 0
M  V30 149 H 12.9339 -1.79083 -2.68568 0
M  V30 150 H 11.9859 -3.63556 -1.11942 0
M  V30 151 H 13.2979 -4.69796 -1.67611 0
M  V30 152 H 12.4519 -4.53834 -4.02641 0
M  V30 153 H 11.1909 -3.38137 -3.51447 0
M  V30 154 H 10.1959 -5.12056 -2.00198 0
M  V30 155 H 11.4209 -6.29721 -2.54222 0
M  V30 156 H 9.3669 -4.93316 -4.32407 0
M  V30 157 H 9.2839 -6.5656 -3.74786 0
M  V30 158 H 10.5519 -6.10652 -4.84484 0
M  V30 159 N 14.781 0.264519 -1.55364 0
M  V30 160 C 15.713 1.34965 -1.85248 0
M  V30 161 C 16.726 1.45136 -0.737525 0
M  V30 162 O 17.915 1.46801 -1.01547 0
M  V30 163 C 15.015 2.73008 -2.00797 0
M  V30 164 C 14.188 2.85324 -3.31525 0
M  V30 165 C 13.247 4.04097 -3.37034 0
M  V30 166 O 12.273 3.94455 -4.10358 0
M  V30 167 N 13.475 5.16458 -2.65049 0
M  V30 168 H 16.24 1.09672 -2.78913 0
M  V30 169 H 13.801 0.454635 -1.55386 0
M  V30 170 H 15.793 3.50772 -2.01844 0
M  V30 171 H 14.363 2.91087 -1.1396 0
M  V30 172 H 13.583 1.94377 -3.42945 0
M  V30 173 H 14.871 2.9049 -4.17724 0
M  V30 174 H 14.269 5.27181 -2.05175 0
M  V30 175 H 12.826 5.92422 -2.71809 0
M  V30 176 N 16.2591 1.48442 0.529413 0
M  V30 177 C 17.5081 1.55742 1.28169 0
M  V30 178 C 17.8211 0.236511 1.94165 0
M  V30 179 O 19.0271 0.187761 2.7085 0
M  V30 180 C 17.4831 2.74667 2.32564 0
M  V30 181 C 17.0911 4.13402 1.72636 0
M  V30 182 C 18.8351 2.9128 3.08798 0
M  V30 183 C 16.7421 5.23587 2.74975 0
M  V30 184 H 15.6721 0.579796 0.48203 0
M  V30 185 H 18.3231 1.74776 0.559056 0
M  V30 186 H 16.7051 2.49067 3.07866 0
M  V30 187 H 17.8791 4.49022 1.03519 0
M  V30 188 H 16.1941 4.0191 1.08892 0
M  V30 189 H 18.7911 3.70767 3.85274 0
M  V30 190 H 19.1341 2.00757 3.64695 0
M  V30 191 H 19.6671 3.16782 2.40611 0
M  V30 192 H 16.4061 6.16076 2.23897 0
M  V30 193 H 15.9261 4.92454 3.42417 0
M  V30 194 H 17.6051 5.51724 3.37949 0
M  V30 195 N 17.7372 -0.778329 1.37039 0
M  V30 196 C 18.6842 -1.89139 1.32269 0
M  V30 197 C 19.6542 -1.65017 0.189387 0
M  V30 198 O 20.8392 -1.87024 0.377693 0
M  V30 199 C 17.9792 -3.26112 1.12894 0
M  V30 200 C 17.0922 -3.62233 2.35396 0
M  V30 201 C 16.2272 -4.8838 2.08946 0
M  V30 202 C 15.2662 -5.17212 3.2735 0
M  V30 203 N 14.4032 -6.34546 3.00492 0
M  V30 204 H 19.2432 -1.92552 2.27437 0
M  V30 205 H 16.7802 -0.941473 1.13025 0
M  V30 206 H 18.7382 -4.05116 0.996835 0
M  V30 207 H 17.3682 -3.22091 0.213758 0
M  V30 208 H 16.4202 -2.78265 2.5937 0
M  V30 209 H 17.7322 -3.79481 3.23721 0
M  V30 210 H 16.8862 -5.75274 1.92729 0
M  V30 211 H 15.6252 -4.73222 1.17949 0
M  V30 212 H 14.6302 -4.28796 3.44113 0
M  V30 213 H 15.8552 -5.34283 4.19188 0
M  V30 214 H 13.8012 -6.20759 2.12118 0
M  V30 215 H 13.7182 -6.52179 3.82358 0
M  V30 216 H 14.9862 -7.24394 2.87879 0
M  V30 217 N 19.2153 -1.21501 -1.00376 0
M  V30 218 C 20.1653 -0.942843 -2.07592 0
M  V30 219 C 21.1493 0.102384 -1.60574 0
M  V30 220 O 22.3413 -0.10671 -1.76678 0
M  V30 221 C 19.4703 -0.510729 -3.3948 0
M  V30 222 C 18.5563 -1.59009 -3.93163 0
M  V30 223 N 18.9473 -2.81544 -4.20198 0
M  V30 224 C 17.2453 -1.45925 -4.21452 0
M  V30 225 C 17.9463 -3.51261 -4.63671 0
M  V30 226 N 16.9223 -2.78703 -4.66718 0
M  V30 227 H 20.7243 -1.87378 -2.26421 0
M  V30 228 H 18.2383 -1.11093 -1.18458 0
M  V30 229 H 20.2353 -0.297101 -4.1584 0
M  V30 230 H 18.8953 0.413436 -3.22057 0
M  V30 231 H 19.9063 -3.18075 -4.08716 0
M  V30 232 H 16.5833 -0.600467 -4.13159 0
M  V30 233 H 17.9733 -4.56183 -4.93302 0
M  V30 234 N 20.6934 1.19889 -1.02296 0
M  V30 235 C 21.6264 2.21639 -0.543282 0
M  V30 236 C 22.6044 1.57275 0.412698 0
M  V30 237 O 23.7884 1.85568 0.331198 0
M  V30 238 C 20.9154 3.38057 0.208571 0
M  V30 239 C 19.9614 4.20751 -0.697933 0
M  V30 240 S 20.7944 4.89529 -2.17075 0
M  V30 241 C 21.9504 6.09363 -1.42923 0
M  V30 242 H 22.1834 2.61984 -1.40541 0
M  V30 243 H 19.7164 1.30041 -0.832387 0
M  V30 244 H 21.6744 4.05539 0.63624 0
M  V30 245 H 20.3354 2.96159 1.04635 0
M  V30 246 H 19.5284 5.03862 -0.117831 0
M  V30 247 H 19.1304 3.58556 -1.06366 0
M  V30 248 H 21.4224 6.73742 -0.712637 0
M  V30 249 H 22.3654 6.71845 -2.23673 0
M  V30 250 H 22.7734 5.56798 -0.929327 0
M  V30 251 N 22.1715 0.800033 1.35784 0
M  V30 252 C 23.1045 0.151499 2.27697 0
M  V30 253 C 24.0825 -0.678663 1.4776 0
M  V30 254 O 25.2665 -0.647358 1.77035 0
M  V30 255 C 22.3935 -0.790492 3.29346 0
M  V30 256 C 21.4395 -0.0407832 4.26481 0
M  V30 257 S 22.2725 1.29077 5.19711 0
M  V30 258 C 23.4285 0.353055 6.24903 0
M  V30 259 H 23.6615 0.930796 2.82353 0
M  V30 260 H 21.1945 0.594767 1.42485 0
M  V30 261 H 23.1525 -1.3285 3.88409 0
M  V30 262 H 21.8135 -1.54312 2.73581 0
M  V30 263 H 21.0065 -0.755971 4.98298 0
M  V30 264 H 20.6085 0.427063 3.71554 0
M  V30 265 H 22.9005 -0.464147 6.75908 0
M  V30 266 H 23.8435 1.04023 7.00418 0
M  V30 267 H 24.2515 -0.0483344 5.64479 0
M  V30 268 N 23.6496 -1.47581 0.552962 0
M  V30 269 C 24.6126 -2.28439 -0.186605 0
M  V30 270 C 25.6126 -1.36706 -0.84665 0
M  V30 271 O 26.8026 -1.59378 -0.703164 0
M  V30 272 C 23.9346 -3.16264 -1.2724 0
M  V30 273 H 25.1276 -2.95294 0.523609 0
M  V30 274 H 22.6806 -1.532 0.309745 0
M  V30 275 H 23.4156 -2.54091 -2.01514 0
M  V30 276 H 23.2006 -3.83769 -0.803968 0
M  V30 277 H 24.6906 -3.77198 -1.79196 0
M  V30 278 N 25.1277 -0.289203 -1.54924 0
M  V30 279 C 26.3747 0.323519 -1.99899 0
M  V30 280 C 26.7027 1.54797 -1.17762 0
M  V30 281 O 25.9577 1.94237 -0.238835 0
M  V30 282 C 26.2567 0.736119 -3.49737 0
M  V30 283 C 25.9227 -0.385276 -4.49251 0
M  V30 284 C 24.5847 -0.693156 -4.76181 0
M  V30 285 C 26.9367 -1.14021 -5.08575 0
M  V30 286 C 24.2647 -1.7593 -5.59701 0
M  V30 287 C 26.6167 -2.19619 -5.93254 0
M  V30 288 C 25.2807 -2.51026 -6.185 0
M  V30 289 H 24.5507 0.118384 -0.731482 0
M  V30 290 H 27.1977 -0.405847 -1.8715 0
M  V30 291 H 25.5027 1.54539 -3.60035 0
M  V30 292 H 27.1997 1.22118 -3.81953 0
M  V30 293 H 23.7897 -0.135202 -4.28387 0
M  V30 294 H 27.9737 -0.915611 -4.87781 0
M  V30 295 H 23.2297 -2.0075 -5.77503 0
M  V30 296 H 27.4037 -2.78581 -6.38252 0
M  V30 297 H 25.0307 -3.33772 -6.83008 0
M  V30 298 N 26.6058 1.57591 -0.0167156 0
M  V30 299 C 27.8548 1.90461 0.663877 0
M  V30 300 C 28.1678 0.893515 1.73999 0
M  V30 301 O 29.3738 1.11302 2.47637 0
M  V30 302 C 27.8298 3.38155 1.23204 0
M  V30 303 C 27.4378 4.47597 0.189866 0
M  V30 304 C 29.1818 3.80111 1.88986 0
M  V30 305 C 27.0888 5.86379 0.768964 0
M  V30 306 H 26.0188 0.710738 0.251729 0
M  V30 307 H 28.6698 1.83326 -0.0799926 0
M  V30 308 H 27.0518 3.40182 2.02712 0
M  V30 309 H 28.2258 4.57112 -0.581846 0
M  V30 310 H 26.5408 4.14766 -0.368475 0
M  V30 311 H 29.1378 4.81145 2.33247 0
M  V30 312 H 29.4808 3.14511 2.72743 0
M  V30 313 H 30.0138 3.80454 1.16187 0
M  V30 314 H 26.7528 6.55493 -0.0301957 0
M  V30 315 H 26.2728 5.80496 1.50945 0
M  V30 316 H 27.9518 6.34563 1.26251 0
M  V30 317 N 28.0839 -0.256276 1.55502 0
M  V30 318 C 28.9939 -1.33882 1.92647 0
M  V30 319 C 30.0099 -1.53159 0.825727 0
M  V30 320 O 31.1859 -1.66963 1.12629 0
M  V30 321 C 28.2509 -2.6751 2.20543 0
M  V30 322 C 27.3119 -2.56836 3.43997 0
M  V30 323 C 26.5449 -3.84092 3.70553 0
M  V30 324 O 26.7679 -4.85545 2.99336 0
M  V30 325 O 25.7019 -3.83288 4.64084 0
M  V30 326 H 29.5279 -1.05374 2.84833 0
M  V30 327 H 27.1129 -0.456237 1.42263 0
M  V30 328 H 28.9949 -3.46492 2.39835 0
M  V30 329 H 27.6699 -2.9577 1.31536 0
M  V30 330 H 26.5769 -1.76172 3.30021 0
M  V30 331 H 27.9099 -2.33523 4.33275 0
M  V30 332 N 29.562 -1.4872 -0.521534 0
M  V30 333 C 30.494 -1.59968 -1.64143 0
M  V30 334 C 31.507 -0.483463 -1.55456 0
M  V30 335 O 32.696 -0.75467 -1.61762 0
M  V30 336 C 29.796 -1.52127 -3.02838 0
M  V30 337 C 28.969 -2.78932 -3.36921 0
M  V30 338 C 28.028 -2.64428 -4.54933 0
M  V30 339 O 27.054 -3.38331 -4.57735 0
M  V30 340 N 28.256 -1.74606 -5.53618 0
M  V30 341 H 31.021 -2.56548 -1.54929 0
M  V30 342 H 28.582 -1.45551 -0.708988 0
M  V30 343 H 30.574 -1.40106 -3.79674 0
M  V30 344 H 29.144 -0.634868 -3.06085 0
M  V30 345 H 28.364 -3.05455 -2.4918 0
M  V30 346 H 29.652 -3.63041 -3.56481 0
M  V30 347 H 29.05 -1.13782 -5.54139 0
M  V30 348 H 27.607 -1.6852 -6.29638 0
M  V30 349 N 31.0401 0.771051 -1.3745 0
M  V30 350 C 31.9501 1.91538 -1.35464 0
M  V30 351 C 32.9661 1.72134 -0.254123 0
M  V30 352 O 34.1421 1.95358 -0.489626 0
M  V30 353 C 31.2071 3.26671 -1.16134 0
M  V30 354 C 30.2681 3.58723 -2.35831 0
M  V30 355 C 29.5011 4.87409 -2.17413 0
M  V30 356 O 29.7241 5.58506 -1.15876 0
M  V30 357 O 28.6581 5.18539 -3.05615 0
M  V30 358 H 32.4841 1.96165 -2.31847 0
M  V30 359 H 30.0691 0.9139 -1.18187 0
M  V30 360 H 31.9511 4.07499 -1.07345 0
M  V30 361 H 30.6261 3.22894 -0.228251 0
M  V30 362 H 29.5331 2.78127 -2.50192 0
M  V30 363 H 30.8661 3.67243 -3.27709 0
M  V30 364 N 32.5182 1.22032 0.997298 0
M  V30 365 C 33.4812 0.987909 2.06816 0
M  V30 366 C 34.4812 -0.0440084 1.6074 0
M  V30 367 O 35.6712 0.194053 1.73116 0
M  V30 368 C 32.8032 0.49132 3.37341 0
M  V30 369 H 33.9962 1.93803 2.28868 0
M  V30 370 H 31.5492 1.03838 1.16822 0
M  V30 371 H 32.2842 -0.463364 3.20973 0
M  V30 372 H 32.0692 1.23575 3.72118 0
M  V30 373 H 33.5592 0.348824 4.16141 0
M  V30 374 N 33.9963 -1.19345 1.0293 0
M  V30 375 C 34.9443 -2.24621 0.604001 0
M  V30 376 C 35.9383 -1.65452 -0.363587 0
M  V30 377 O 37.1443 -1.78497 -0.23212 0
M  V30 378 H 33.5193 -0.730858 0.177061 0
M  V30 379 H 35.4903 -2.5781 1.50255 0
M  V30 380 C 34.2393 -3.47688 -0.0289127 0
M  V30 381 H 33.5623 -3.93505 0.706651 0
M  V30 382 H 35.0023 -4.23011 -0.289432 0
M  V30 383 C 33.4613 -3.11817 -1.2756 0
M  V30 384 O 33.9913 -3.2451 -2.36762 0
M  V30 385 N 32.1973 -2.66246 -1.16453 0
M  V30 386 H 31.7443 -2.56118 -0.275914 0
M  V30 387 H 31.7023 -2.42617 -1.99961 0
M  V30 388 N 35.4744 -0.807222 -1.35358 0
M  V30 389 C 36.3844 -0.219594 -2.3357 0
M  V30 390 C 37.4004 0.637734 -1.61892 0
M  V30 391 O 38.5764 0.549336 -1.93763 0
M  V30 392 C 35.6414 0.62158 -3.41083 0
M  V30 393 C 34.7024 -0.256315 -4.28534 0
M  V30 394 C 33.9354 0.544807 -5.30912 0
M  V30 395 O 34.1584 1.77944 -5.41934 0
M  V30 396 O 33.0924 -0.0646478 -6.01865 0
M  V30 397 H 36.9184 -1.03208 -2.85625 0
M  V30 398 H 34.5034 -0.569025 -1.38139 0
M  V30 399 H 36.3854 1.10067 -4.06772 0
M  V30 400 H 35.0604 1.41165 -2.91297 0
M  V30 401 H 33.9674 -0.782559 -3.65823 0
M  V30 402 H 35.3004 -1.01034 -4.81719 0
M  V30 403 N 36.9525 1.47285 -0.560781 0
M  V30 404 C 37.8995 2.30058 0.18491 0
M  V30 405 C 38.8695 1.39281 0.904986 0
M  V30 406 O 40.0545 1.68241 0.899979 0
M  V30 407 C 37.1945 3.23317 1.20666 0
M  V30 408 C 36.3075 4.29186 0.492285 0
M  V30 409 C 35.4425 5.09592 1.49964 0
M  V30 410 C 34.4815 6.07232 0.770439 0
M  V30 411 N 33.6185 6.80584 1.72479 0
M  V30 412 H 38.4585 2.93302 -0.527048 0
M  V30 413 H 35.9955 1.44568 -0.271738 0
M  V30 414 H 37.9535 3.75811 1.81168 0
M  V30 415 H 36.5835 2.61929 1.88661 0
M  V30 416 H 35.6355 3.7972 -0.227333 0
M  V30 417 H 36.9475 4.98738 -0.0787929 0
M  V30 418 H 36.1015 5.66254 2.17809 0
M  V30 419 H 34.8405 4.3995 2.10464 0
M  V30 420 H 33.8455 5.49745 0.0780846 0
M  V30 421 H 35.0705 6.78884 0.171134 0
M  V30 422 H 33.0165 6.1367 2.3183 0
M  V30 423 H 32.9335 7.46319 1.20596 0
M  V30 424 H 34.2015 7.41818 2.39428 0
M  V30 425 N 38.4306 0.297415 1.54768 0
M  V30 426 C 39.3936 -0.567375 2.22066 0
M  V30 427 C 40.3936 -1.06409 1.20556 0
M  V30 428 O 41.5836 -0.960691 1.45315 0
M  V30 429 C 38.7156 -1.78517 2.90421 0
M  V30 430 H 39.9086 0.0205534 2.99893 0
M  V30 431 H 37.4616 0.0482163 1.56226 0
M  V30 432 H 38.1966 -2.41303 2.16664 0
M  V30 433 H 37.9816 -1.43669 3.64831 0
M  V30 434 H 39.4716 -2.39964 3.41771 0
M  V30 435 N 39.9087 -1.5758 0.0250728 0
M  V30 436 C 40.8187 -2.1343 -0.973905 0
M  V30 437 C 41.8347 -1.08556 -1.35984 0
M  V30 438 O 43.0107 -1.40592 -1.44207 0
M  V30 439 C 40.0757 -2.64703 -2.23904 0
M  V30 440 C 39.1367 -3.84276 -1.91391 0
M  V30 441 C 38.3697 -4.33095 -3.11873 0
M  V30 442 O 38.5927 -3.81107 -4.24398 0
M  V30 443 O 37.5267 -5.24984 -2.94406 0
M  V30 444 H 41.3527 -2.99057 -0.529036 0
M  V30 445 H 38.9377 -1.48118 -0.195288 0
M  V30 446 H 40.8197 -2.97769 -2.98181 0
M  V30 447 H 39.4947 -1.82161 -2.6758 0
M  V30 448 H 38.4017 -3.56143 -1.14511 0
M  V30 449 H 39.7347 -4.67968 -1.52534 0
M  V30 450 N 41.3868 0.248026 -1.55636 0
M  V30 451 C 42.2968 1.32859 -1.93354 0
M  V30 452 C 43.3128 1.52719 -0.833838 0
M  V30 453 O 44.4888 1.66363 -1.13513 0
M  V30 454 C 41.5538 2.66337 -2.21958 0
M  V30 455 C 40.6148 2.55008 -3.45354 0
M  V30 456 C 39.8478 3.82121 -3.72584 0
M  V30 457 O 40.0708 4.83951 -3.01907 0
M  V30 458 O 39.0048 3.80822 -4.6611 0
M  V30 459 H 42.8308 1.03862 -2.85388 0
M  V30 460 H 40.4158 0.448686 -1.42503 0
M  V30 461 H 42.2978 3.45216 -2.4167 0
M  V30 462 H 40.9728 2.95068 -1.33103 0
M  V30 463 H 39.8798 1.7442 -3.30951 0
M  V30 464 H 41.2128 2.31222 -4.34508 0
M  V30 465 N 42.8649 1.48995 0.513639 0
M  V30 466 C 44.1139 1.57093 1.2651 0
M  V30 467 C 44.4269 0.257091 1.93903 0
M  V30 468 O 45.6329 0.216478 2.70636 0
M  V30 469 C 44.0889 2.77118 2.29638 0
M  V30 470 C 43.6969 4.15209 1.68241 0
M  V30 471 C 45.4409 2.94538 3.05692 0
M  V30 472 C 43.3479 5.26474 2.69406 0
M  V30 473 H 42.2779 0.584876 0.475854 0
M  V30 474 H 44.9289 1.7536 0.540487 0
M  V30 475 H 43.3109 2.52319 3.05207 0
M  V30 476 H 44.4849 4.50094 0.987505 0
M  V30 477 H 42.7999 4.03042 1.04623 0
M  V30 478 H 45.3969 3.74832 3.8132 0
M  V30 479 H 45.7399 2.04614 3.62545 0
M  V30 480 H 46.2729 3.19316 2.37238 0
M  V30 481 H 43.0119 6.18417 2.17351 0
M  V30 482 H 42.5319 4.96058 3.37175 0
M  V30 483 H 44.2109 5.55277 3.32078 0
M  V30 484 N 44.343 -0.763751 1.37857 0
M  V30 485 C 45.62 -1.51244 1.24035 0
M  V30 486 C 46 -2.10472 -0.162649 0
M  V30 487 O 45.348 -1.96206 -1.17112 0
M  V30 488 C 45.558 -2.58694 2.34261 0
M  V30 489 C 46.906 -3.25878 2.72193 0
M  V30 490 O 47.93 -2.68993 2.33497 0
M  V30 491 O 46.789 -4.2874 3.38887 0
M  V30 492 H 43.883 -0.670243 0.484462 0
M  V30 493 H 46.429 -0.800031 1.49658 0
M  V30 494 H 45.201 -2.13105 3.2818 0
M  V30 495 H 44.824 -3.37527 2.10146 0
M  V30 496 N 45.8211 -1.22559 -0.990812 0
M  V30 497 C 46.7841 -0.998863 -2.0629 0
M  V30 498 C 47.7841 0.0354834 -1.60761 0
M  V30 499 O 48.9741 -0.203231 -1.7301 0
M  V30 500 C 46.1061 -0.509203 -3.37076 0
M  V30 501 H 47.2991 -1.95014 -2.27837 0
M  V30 502 H 44.8521 -1.04456 -1.16269 0
M  V30 503 H 45.5871 0.446335 -3.21214 0
M  V30 504 H 45.3721 -1.25547 -3.71457 0
M  V30 505 H 46.8621 -0.370888 -4.1595 0
M  V30 506 N 47.2992 1.18797 -1.03562 0
M  V30 507 C 48.2462 2.22253 -0.622259 0
M  V30 508 C 49.2162 1.61987 0.36736 0
M  V30 509 O 50.4012 1.88986 0.262492 0
M  V30 510 C 47.5412 3.45097 0.0138462 0
M  V30 511 C 46.6542 4.19722 -1.02263 0
M  V30 512 C 45.7892 5.30009 -0.355573 0
M  V30 513 C 44.8282 5.96399 -1.37749 0
M  V30 514 N 43.9652 6.98234 -0.735766 0
M  V30 515 H 48.8052 2.56968 -1.50903 0
M  V30 516 H 46.3422 1.26245 -0.755017 0
M  V30 517 H 48.3002 4.15279 0.399948 0
M  V30 518 H 46.9302 3.11018 0.864158 0
M  V30 519 H 45.9822 3.48418 -1.52673 0
M  V30 520 H 47.2942 4.65227 -1.79903 0
M  V30 521 H 46.4482 6.0664 0.0850095 0
M  V30 522 H 45.1872 4.85592 0.452967 0
M  V30 523 H 44.1922 5.18512 -1.82826 0
M  V30 524 H 45.4172 6.42899 -2.18764 0
M  V30 525 H 43.3632 6.55979 0.0525597 0
M  V30 526 H 43.2802 7.41965 -1.44995 0
M  V30 527 H 44.5482 7.78845 -0.31941 0
M  V30 528 N 48.7773 0.814389 1.34928 0
M  V30 529 C 49.7403 0.235759 2.27984 0
M  V30 530 C 50.7403 -0.581412 1.49921 0
M  V30 531 O 51.9303 -0.398758 1.69575 0
M  V30 532 C 49.0623 -0.670433 3.34242 0
M  V30 533 H 50.2553 1.05659 2.80671 0
M  V30 534 H 47.8083 0.585614 1.44915 0
M  V30 535 H 48.5433 -1.51466 2.86755 0
M  V30 536 H 48.3283 -0.0860822 3.92005 0
M  V30 537 H 49.8183 -1.06935 4.03676 0
M  V30 538 N 50.2554 -1.46986 0.568584 0
M  V30 539 C 51.1654 -2.33942 -0.17555 0
M  V30 540 C 52.1814 -1.48891 -0.90041 0
M  V30 541 O 53.3574 -1.81794 -0.86676 0
M  V30 542 C 50.4224 -3.25811 -1.18524 0
M  V30 543 C 49.4834 -4.26757 -0.466582 0
M  V30 544 C 48.7164 -5.14236 -1.42817 0
M  V30 545 O 48.9394 -5.04379 -2.66379 0
M  V30 546 O 47.8734 -5.94412 -0.946453 0
M  V30 547 H 51.6994 -2.98896 0.538036 0
M  V30 548 H 49.2844 -1.4573 0.329097 0
M  V30 549 H 51.1664 -3.82527 -1.76779 0
M  V30 550 H 49.8414 -2.63471 -1.88055 0
M  V30 551 H 48.7484 -3.73769 0.157451 0
M  V30 552 H 50.0814 -4.91843 0.187485 0
M  V30 553 N 51.7335 -0.305618 -1.54608 0
M  V30 554 C 52.6435 0.57778 -2.27374 0
M  V30 555 C 53.6595 1.14451 -1.31061 0
M  V30 556 O 54.8355 1.16831 -1.6405 0
M  V30 557 C 51.9005 1.73123 -3.00382 0
M  V30 558 C 50.9615 1.19812 -4.12242 0
M  V30 559 C 50.1945 2.2966 -4.81759 0
M  V30 560 O 50.4175 3.49651 -4.50666 0
M  V30 561 O 49.3515 1.96091 -5.69062 0
M  V30 562 H 53.1775 -0.012624 -3.03697 0
M  V30 563 H 50.7625 -0.0719184 -1.49227 0
M  V30 564 H 52.6445 2.40315 -3.4616 0
M  V30 565 H 51.3195 2.30815 -2.26949 0
M  V30 566 H 50.2265 0.491798 -3.70853 0
M  V30 567 H 51.5595 0.666566 -4.87666 0
M  V30 568 N 53.2116 1.57565 -0.0334293 0
M  V30 569 C 54.1216 2.13943 0.962572 0
M  V30 570 C 55.1376 1.09276 1.35406 0
M  V30 571 O 56.3136 1.41355 1.4346 0
M  V30 572 C 53.3786 2.65887 2.22497 0
M  V30 573 C 52.4396 3.85286 1.8935 0
M  V30 574 C 51.6726 4.34743 3.09571 0
M  V30 575 O 51.8956 3.83352 4.22371 0
M  V30 576 O 50.8296 5.26538 2.91618 0
M  V30 577 H 54.6556 2.99333 0.513169 0
M  V30 578 H 52.2406 1.4822 0.18743 0
M  V30 579 H 54.1226 2.99346 2.96598 0
M  V30 580 H 52.7976 1.83578 2.6661 0
M  V30 581 H 51.7046 3.56746 1.1262 0
M  V30 582 H 53.0376 4.68771 1.5005 0
M  V30 583 N 54.6897 -0.239769 1.55765 0
M  V30 584 C 55.9367 -0.966801 1.7793 0
M  V30 585 C 56.2647 -1.85046 0.599015 0
M  V30 586 O 55.5197 -1.91197 -0.417395 0
M  V30 587 C 55.8187 -1.852 3.05672 0
M  V30 588 C 55.4847 -1.1231 4.36689 0
M  V30 589 C 54.1467 -0.921689 4.72291 0
M  V30 590 C 56.4987 -0.607019 5.17653 0
M  V30 591 C 53.8267 -0.191996 5.86386 0
M  V30 592 C 56.1787 0.109241 6.32506 0
M  V30 593 C 54.8427 0.322073 6.66723 0
M  V30 594 H 54.1127 -0.353778 0.651093 0
M  V30 595 H 56.7597 -0.23634 1.90036 0
M  V30 596 H 55.0647 -2.64975 2.8861 0
M  V30 597 H 56.7617 -2.41635 3.20021 0
M  V30 598 H 53.3517 -1.29004 4.08725 0
M  V30 599 H 57.5357 -0.750153 4.90598 0
M  V30 600 H 52.7917 -0.0166949 6.11398 0
M  V30 601 H 56.9657 0.516737 6.9448 0
M  V30 602 H 54.5927 0.88944 7.54979 0
M  V30 603 N 56.1678 -1.49265 -0.50573 0
M  V30 604 C 57.1158 -1.66065 -1.62866 0
M  V30 605 C 58.1098 -0.526636 -1.61006 0
M  V30 606 O 59.3158 -0.706126 -1.65571 0
M  V30 607 H 55.6908 -0.52356 -0.539805 0
M  V30 608 H 57.6618 -2.60329 -1.45848 0
M  V30 609 C 56.4108 -1.74008 -3.01026 0
M  V30 610 H 55.7338 -2.6064 -3.03161 0
M  V30 611 H 57.1738 -1.89798 -3.79147 0
M  V30 612 C 55.6328 -0.483868 -3.33407 0
M  V30 613 O 56.1628 0.392548 -3.99777 0
M  V30 614 N 54.3688 -0.348236 -2.88506 0
M  V30 615 H 53.9158 -1.06242 -2.34671 0
M  V30 616 H 53.8738 0.491204 -3.10539 0
M  V30 617 N 57.6459 0.756429 -1.3826 0
M  V30 618 C 58.8949 1.51082 -1.3363 0
M  V30 619 C 59.2079 1.95467 0.0720068 0
M  V30 620 O 60.4139 2.7043 0.240834 0
M  V30 621 C 58.8699 2.72893 -2.34644 0
M  V30 622 C 58.4779 2.35544 -3.81081 0
M  V30 623 C 60.2219 3.50791 -2.39052 0
M  V30 624 C 58.1289 3.53948 -4.73787 0
M  V30 625 H 57.0589 0.56727 -0.49671 0
M  V30 626 H 59.7099 0.827147 -1.638 0
M  V30 627 H 58.0919 3.43227 -1.97513 0
M  V30 628 H 59.2659 1.72894 -4.27135 0
M  V30 629 H 57.5809 1.70786 -3.79764 0
M  V30 630 H 60.1779 4.38823 -3.05513 0
M  V30 631 H 60.5209 3.91745 -1.40861 0
M  V30 632 H 61.0539 2.87467 -2.74968 0
M  V30 633 H 57.7929 3.18064 -5.73163 0
M  V30 634 H 57.3129 4.15651 -4.32428 0
M  V30 635 H 58.9919 4.20566 -4.91663 0
M  V30 636 N 59.124 1.23083 0.984299 0
M  V30 637 C 60.034 1.02515 2.11016 0
M  V30 638 C 61.05 -0.0291702 1.73976 0
M  V30 639 O 62.226 0.165434 2.00719 0
M  V30 640 C 59.291 0.614673 3.41208 0
M  V30 641 C 58.352 1.74359 3.92297 0
M  V30 642 C 57.585 1.35261 5.16275 0
M  V30 643 O 57.808 0.235136 5.69915 0
M  V30 644 O 56.742 2.17227 5.61334 0
M  V30 645 H 60.568 1.96862 2.31255 0
M  V30 646 H 58.153 1.01753 1.09392 0
M  V30 647 H 60.035 0.396518 4.1953 0
M  V30 648 H 58.71 -0.299851 3.22308 0
M  V30 649 H 57.617 2.01635 3.1511 0
M  V30 650 H 58.95 2.63629 4.15645 0
M  V30 651 N 60.6021 -1.18246 1.0419 0
M  V30 652 C 61.5491 -2.2192 0.634037 0
M  V30 653 C 62.5191 -1.62179 -0.358765 0
M  V30 654 O 63.7041 -1.89122 -0.252466 0
M  V30 655 C 60.8441 -3.451 0.00445535 0
M  V30 656 C 59.9571 -4.19174 1.04487 0
M  V30 657 C 59.0921 -5.29813 0.383676 0
M  V30 658 C 58.1311 -5.9566 1.4091 0
M  V30 659 N 57.2681 -6.97834 0.772784 0
M  V30 660 H 62.1081 -2.56164 1.52263 0
M  V30 661 H 59.6451 -1.25843 0.761701 0
M  V30 662 H 61.6031 -4.15485 -0.377919 0
M  V30 663 H 60.2331 -3.11472 -0.847652 0
M  V30 664 H 59.2851 -3.47604 1.54518 0
M  V30 665 H 60.5971 -4.64267 1.82368 0
M  V30 666 H 59.7511 -6.06677 -0.0528366 0
M  V30 667 H 58.4901 -4.85825 -0.427208 0
M  V30 668 H 57.4951 -5.17535 1.85574 0
M  V30 669 H 58.7201 -6.4173 2.22171 0
M  V30 670 H 56.6661 -6.55998 -0.0177708 0
M  V30 671 H 56.5831 -7.41186 1.48928 0
M  V30 672 H 57.8511 -7.78665 0.36071 0
M  V30 673 N 62.0802 -0.821533 -1.34494 0
M  V30 674 C 63.3282 -0.408139 -1.97936 0
M  V30 675 C 63.6492 1.03193 -1.65457 0
M  V30 676 O 62.9192 1.71622 -0.944595 0
M  V30 677 H 61.4992 -0.147928 -0.732206 0
M  V30 678 H 64.1612 -1.05067 -1.64155 0
M  V30 679 H 63.2572 -0.52601 -3.07635 0
M  V30 680 N 63.5583 1.46682 -0.576371 0
M  V30 681 C 64.9743 1.57822 -0.237562 0
M  V30 682 C 65.1743 1.57237 1.26011 0
M  V30 683 O 64.2303 1.48596 2.04146 0
M  V30 684 C 65.5433 2.87499 -0.881168 0
M  V30 685 C 67.0913 3.01119 -0.85417 0
M  V30 686 C 67.5663 4.33524 -1.4772 0
M  V30 687 N 69.0573 4.40207 -1.44125 0
M  V30 688 C 69.7923 5.4126 -1.89276 0
M  V30 689 N 69.2883 6.49021 -2.42371 0
M  V30 690 N 71.0813 5.32422 -1.80231 0
M  V30 691 H 63.2323 1.45306 -1.54919 0
M  V30 692 H 65.4953 0.692733 -0.647167 0
M  V30 693 H 65.2013 2.9372 -1.93447 0
M  V30 694 H 65.0753 3.75224 -0.385592 0
M  V30 695 H 67.4623 2.94485 0.190491 0
M  V30 696 H 67.5433 2.14887 -1.3877 0
M  V30 697 H 67.1873 4.40916 -2.52103 0
M  V30 698 H 67.1173 5.1852 -0.918947 0
M  V30 699 H 69.6083 3.62931 -1.05307 0
M  V30 700 H 69.9213 7.2233 -2.74698 0
M  V30 701 H 68.2663 6.49858 -2.46393 0
M  V30 702 H 71.4573 4.47137 -1.38514 0
M  V30 703 H 71.6303 6.11034 -2.15735 0
M  V30 704 N 65.0364 0.313813 1.54444 0
M  V30 705 C 65.9664 -0.549454 2.26943 0
M  V30 706 C 66.9474 -1.12741 1.27372 0
M  V30 707 O 68.1324 -1.15436 1.56167 0
M  V30 708 C 65.2624 -1.71523 3.01989 0
M  V30 709 C 64.2164 -1.26703 4.08816 0
M  V30 710 C 63.5424 -2.51898 4.71647 0
M  V30 711 C 64.8424 -0.388962 5.2085 0
M  V30 712 H 66.5364 0.0552661 2.99349 0
M  V30 713 H 64.0824 0.0280207 1.43973 0
M  V30 714 H 66.0354 -2.32535 3.51433 0
M  V30 715 H 64.7594 -2.34639 2.27183 0
M  V30 716 H 63.4184 -0.679896 3.6024 0
M  V30 717 H 63.0664 -3.13356 3.93468 0
M  V30 718 H 62.7664 -2.22605 5.43802 0
M  V30 719 H 64.2904 -3.1369 5.23861 0
M  V30 720 H 65.7044 -0.905107 5.6611 0
M  V30 721 H 64.1014 -0.18924 5.99802 0
M  V30 722 H 65.1714 0.582699 4.81386 0
M  V30 723 N 66.5145 -1.57545 0.0417849 0
M  V30 724 C 67.7605 -1.92601 -0.635021 0
M  V30 725 C 68.0935 -0.919627 -1.71045 0
M  V30 726 O 67.3685 0.0557892 -1.9442 0
M  V30 727 C 67.6515 -3.38085 -1.23979 0
M  V30 728 C 67.5045 -4.49467 -0.173057 0
M  V30 729 C 68.8235 -3.83776 -2.15416 0
M  V30 730 H 65.9425 -0.700397 -0.229374 0
M  V30 731 H 68.5845 -1.89728 0.101633 0
M  V30 732 H 66.7345 -3.40664 -1.86762 0
M  V30 733 H 68.4065 -4.59018 0.458312 0
M  V30 734 H 66.6495 -4.30909 0.499996 0
M  V30 735 H 67.3205 -5.48323 -0.636054 0
M  V30 736 H 69.7965 -3.83013 -1.62605 0
M  V30 737 H 68.6725 -4.8624 -2.54679 0
M  V30 738 H 68.9335 -3.19998 -3.05047 0
M  V30 739 N 67.9926 0.231505 -1.5589 0
M  V30 740 C 68.9246 1.31006 -1.8807 0
M  V30 741 C 69.9376 1.43539 -0.768145 0
M  V30 742 O 71.1266 1.44614 -1.04638 0
M  V30 743 C 68.2266 2.68688 -2.06543 0
M  V30 744 C 67.3996 2.78228 -3.37502 0
M  V30 745 C 66.4586 3.96857 -3.4553 0
M  V30 746 O 65.4846 3.85662 -4.18633 0
M  V30 747 N 66.6866 5.1072 -2.75944 0
M  V30 748 H 69.4516 1.03731 -2.81176 0
M  V30 749 H 67.0126 0.421573 -1.56315 0
M  V30 750 H 69.0046 3.46412 -2.09239 0
M  V30 751 H 67.5746 2.88605 -1.20109 0
M  V30 752 H 66.7946 1.87059 -3.46991 0
M  V30 753 H 68.0826 2.81564 -4.23791 0
M  V30 754 H 67.4806 5.2271 -2.16311 0
M  V30 755 H 66.0376 5.86523 -2.84314 0
M  V30 756 N 69.4707 1.49531 0.497807 0
M  V30 757 C 70.6987 1.62893 1.27567 0
M  V30 758 C 71.1137 0.301585 1.86376 0
M  V30 759 O 70.4707 -0.713335 1.67982 0
M  V30 760 C 70.5217 2.70013 2.40364 0
M  V30 761 O 70.2427 3.976 1.83972 0
M  V30 762 C 71.7437 2.94109 3.31685 0
M  V30 763 H 68.9637 0.548298 0.386794 0
M  V30 764 H 71.5077 1.95584 0.597245 0
M  V30 765 H 69.6627 2.40092 3.04031 0
M  V30 766 H 70.0767 4.56631 2.58047 0
M  V30 767 H 71.5507 3.72788 4.07104 0
M  V30 768 H 72.0277 2.04147 3.88871 0
M  V30 769 H 72.6337 3.2546 2.73781 0
M  V30 770 N 70.9488 -0.749086 1.3866 0
M  V30 771 C 71.8808 -1.87273 1.32142 0
M  V30 772 C 72.8938 -1.61127 0.232787 0
M  V30 773 O 74.0828 -1.71623 0.49069 0
M  V30 774 C 71.1828 -3.23005 1.02571 0
M  V30 775 C 70.3558 -3.7662 2.22433 0
M  V30 776 C 69.4148 -4.90879 1.89537 0
M  V30 777 O 68.4408 -5.05276 2.62078 0
M  V30 778 N 69.6428 -5.74198 0.853031 0
M  V30 779 H 72.4078 -1.93373 2.28969 0
M  V30 780 H 69.9688 -0.929216 1.32579 0
M  V30 781 H 71.9608 -3.96992 0.786085 0
M  V30 782 H 70.5308 -3.12262 0.145249 0
M  V30 783 H 69.7508 -2.94147 2.62434 0
M  V30 784 H 71.0388 -4.09173 3.02415 0
M  V30 785 H 70.4368 -5.6514 0.25155 0
M  V30 786 H 68.9938 -6.48313 0.67329 0
M  V30 787 N 72.4269 -1.23603 -0.977757 0
M  V30 788 C 73.8429 -0.999251 -1.24447 0
M  V30 789 C 74.0429 0.298053 -1.99283 0
M  V30 790 O 73.0989 1.01681 -2.31122 0
M  V30 791 C 74.4119 -2.20784 -2.04144 0
M  V30 792 C 75.9599 -2.25303 -2.17273 0
M  V30 793 C 76.4349 -3.45755 -3.00362 0
M  V30 794 N 77.9259 -3.4601 -3.07947 0
M  V30 795 C 78.6609 -4.35868 -3.72568 0
M  V30 796 N 78.1569 -5.35966 -4.38991 0
M  V30 797 N 79.9499 -4.23605 -3.6948 0
M  V30 798 H 72.1009 -2.06986 -0.476483 0
M  V30 799 H 74.3639 -0.907801 -0.273134 0
M  V30 800 H 74.0699 -3.14945 -1.56533 0
M  V30 801 H 73.9439 -2.22085 -3.04891 0
M  V30 802 H 76.3309 -1.3168 -2.64092 0
M  V30 803 H 76.4119 -2.28033 -1.15907 0
M  V30 804 H 76.0559 -4.39687 -2.5424 0
M  V30 805 H 75.9859 -3.40266 -4.01904 0
M  V30 806 H 78.4769 -2.73588 -2.60688 0
M  V30 807 H 78.7899 -6.00783 -4.86086 0
M  V30 808 H 77.1349 -5.39863 -4.37691 0
M  V30 809 H 80.3259 -3.44647 -3.16759 0
M  V30 810 H 80.4989 -4.93836 -4.1956 0
M  V30 811 N 73.905 1.17692 -1.04816 0
M  V30 812 C 74.835 2.23777 -0.666791 0
M  V30 813 C 75.816 1.66796 0.33361 0
M  V30 814 O 77.001 1.93039 0.212042 0
M  V30 815 C 74.131 3.47281 -0.0367933 0
M  V30 816 C 73.085 4.17059 -0.961546 0
M  V30 817 C 72.411 5.34342 -0.195626 0
M  V30 818 C 73.711 4.69713 -2.28402 0
M  V30 819 H 75.405 2.55933 -1.55367 0
M  V30 820 H 72.951 1.23019 -0.748484 0
M  V30 821 H 74.904 4.20706 0.241775 0
M  V30 822 H 73.628 3.14381 0.885004 0
M  V30 823 H 72.287 3.45541 -1.22462 0
M  V30 824 H 71.935 4.97692 0.728816 0
M  V30 825 H 71.635 5.81966 -0.811775 0
M  V30 826 H 73.159 6.10553 0.0757473 0
M  V30 827 H 74.573 5.34794 -2.06563 0
M  V30 828 H 72.97 5.279 -2.8538 0
M  V30 829 H 74.04 3.86726 -2.92525 0
M  V30 830 N 75.3831 0.828654 1.34056 0
M  V30 831 C 76.3301 0.252567 2.29414 0
M  V30 832 C 77.3001 -0.62588 1.53857 0
M  V30 833 O 78.4851 -0.566312 1.82202 0
M  V30 834 C 75.6251 -0.574831 3.40279 0
M  V30 835 C 74.7381 0.326499 4.30764 0
M  V30 836 C 73.8731 -0.511016 5.28736 0
M  V30 837 C 72.9121 0.389342 6.1086 0
M  V30 838 N 72.0491 -0.409439 7.00905 0
M  V30 839 H 76.8891 1.07108 2.78086 0
M  V30 840 H 74.4261 0.539677 1.36843 0
M  V30 841 H 76.3841 -1.06992 4.03248 0
M  V30 842 H 75.0141 -1.35841 2.92826 0
M  V30 843 H 74.0661 0.939837 3.68607 0
M  V30 844 H 75.3781 1.01857 4.88289 0
M  V30 845 H 74.5321 -1.07035 5.97184 0
M  V30 846 H 73.2711 -1.23657 4.71763 0
M  V30 847 H 72.2761 0.960769 5.4134 0
M  V30 848 H 73.5011 1.1131 6.69916 0
M  V30 849 H 71.4471 -1.11856 6.46393 0
M  V30 850 H 71.3641 0.224126 7.55668 0
M  V30 851 H 72.6321 -0.951336 7.73673 0
M  V30 852 N 76.8612 -1.46375 0.584142 0
M  V30 853 C 78.1102 -2.01585 0.0679741 0
M  V30 854 C 78.4232 -1.46109 -1.30045 0
M  V30 855 O 79.6292 -1.93148 -1.90804 0
M  V30 856 C 78.0852 -3.5983 0.0709207 0
M  V30 857 C 77.6932 -4.24303 1.43775 0
M  V30 858 C 79.4372 -4.22693 -0.391228 0
M  V30 859 C 77.3442 -5.74631 1.39834 0
M  V30 860 H 76.2742 -0.753689 0.0216421 0
M  V30 861 H 78.9252 -1.68093 0.736001 0
M  V30 862 H 77.3072 -3.90405 -0.663299 0
M  V30 863 H 78.4812 -4.05335 2.19181 0
M  V30 864 H 76.7962 -3.73539 1.84004 0
M  V30 865 H 79.3932 -5.3289 -0.439524 0
M  V30 866 H 79.7362 -3.91728 -1.40906 0
M  V30 867 H 80.2692 -3.96749 0.288974 0
M  V30 868 H 77.0082 -6.10258 2.39303 0
M  V30 869 H 76.5282 -5.95858 0.686505 0
M  V30 870 H 78.2072 -6.37375 1.11187 0
M  V30 871 N 78.3393 -0.321999 -1.54275 0
M  V30 872 C 79.2723 0.58718 -2.20516 0
M  V30 873 C 80.2503 1.11693 -1.18167 0
M  V30 874 O 81.4343 1.18122 -1.46899 0
M  V30 875 C 78.5613 1.80554 -2.86562 0
M  V30 876 C 77.6073 1.40718 -4.02617 0
M  V30 877 S 78.4403 0.445218 -5.33646 0
M  V30 878 C 79.5963 1.6709 -6.03185 0
M  V30 879 H 79.8293 0.0244875 -2.9729 0
M  V30 880 H 77.3623 -0.106087 -1.54035 0
M  V30 881 H 79.3203 2.50462 -3.25237 0
M  V30 882 H 77.9813 2.33942 -2.09595 0
M  V30 883 H 77.1743 2.31501 -4.47687 0
M  V30 884 H 76.7763 0.78782 -3.65608 0
M  V30 885 H 79.0683 2.60856 -6.25268 0
M  V30 886 H 80.0113 1.26239 -6.96756 0
M  V30 887 H 80.4193 1.85716 -5.33076 0
M  V30 888 N 79.8174 1.5752 -0.0501392 0
M  V30 889 C 80.7274 2.14952 0.939827 0
M  V30 890 C 81.7434 1.10706 1.34239 0
M  V30 891 O 82.9194 1.42869 1.41952 0
M  V30 892 C 79.9844 2.68232 2.19665 0
M  V30 893 C 79.0454 3.87272 1.85253 0
M  V30 894 C 78.2784 4.38002 3.04943 0
M  V30 895 O 78.5014 3.87811 4.18281 0
M  V30 896 O 77.4354 5.29602 2.86017 0
M  V30 897 H 81.2614 2.9986 0.481392 0
M  V30 898 H 78.8464 1.4841 0.171699 0
M  V30 899 H 80.7284 3.02475 2.93406 0
M  V30 900 H 79.4034 1.86395 2.64648 0
M  V30 901 H 78.3104 3.5792 1.0883 0
M  V30 902 H 79.6434 4.70336 1.4507 0
M  V30 903 N 81.2955 -0.223234 1.56011 0
M  V30 904 C 82.5255 -0.963413 1.82762 0
M  V30 905 C 82.9335 -1.78516 0.626804 0
M  V30 906 O 82.2765 -1.78974 -0.414014 0
M  V30 907 C 82.3385 -1.93126 3.0322 0
M  V30 908 C 82.0025 -1.2942 4.38291 0
M  V30 909 C 82.9995 -0.684916 5.15369 0
M  V30 910 C 80.6845 -1.30647 4.85012 0
M  V30 911 C 82.6785 -0.0963971 6.37327 0
M  V30 912 C 80.3655 -0.71411 6.06913 0
M  V30 913 C 81.3635 -0.110123 6.82911 0
M  V30 914 O 81.0515 0.47303 8.02507 0
M  V30 915 H 80.7835 -0.288011 0.611576 0
M  V30 916 H 83.3375 -0.244103 2.03944 0
M  V30 917 H 81.5675 -2.68952 2.77852 0
M  V30 918 H 83.2565 -2.53685 3.16857 0
M  V30 919 H 84.0225 -0.667774 4.80381 0
M  V30 920 H 79.9015 -1.76598 4.25833 0
M  V30 921 H 83.4455 0.375657 6.96588 0
M  V30 922 H 79.3425 -0.728659 6.41374 0
M  V30 923 H 80.1105 0.367186 8.17676 0
M  V30 924 N 82.7736 -1.49793 -0.48987 0
M  V30 925 C 84.0036 -1.6333 -1.26518 0
M  V30 926 C 84.4116 -0.308392 -1.8667 0
M  V30 927 O 83.7546 0.717512 -1.69108 0
M  V30 928 C 83.8166 -2.6522 -2.4269 0
M  V30 929 C 83.4806 -4.09279 -2.03321 0
M  V30 930 C 84.4776 -4.95738 -1.56652 0
M  V30 931 C 82.1626 -4.55082 -2.12616 0
M  V30 932 C 84.1566 -6.26041 -1.19795 0
M  V30 933 C 81.8436 -5.85396 -1.75371 0
M  V30 934 C 82.8416 -6.707 -1.29036 0
M  V30 935 O 82.5296 -7.98584 -0.92299 0
M  V30 936 H 82.2616 -0.552502 -0.389509 0
M  V30 937 H 84.8156 -1.96642 -0.593381 0
M  V30 938 H 83.0456 -2.27112 -3.12981 0
M  V30 939 H 84.7346 -2.68171 -3.04695 0
M  V30 940 H 85.5006 -4.61575 -1.48908 0
M  V30 941 H 81.3796 -3.88844 -2.47631 0
M  V30 942 H 84.9236 -6.92578 -0.835582 0
M  V30 943 H 80.8206 -6.19085 -1.82768 0
M  V30 944 H 81.5886 -8.11692 -1.05349 0
M  V30 945 N 84.2517 0.741722 -1.39055 0
M  V30 946 C 85.1617 1.88621 -1.39496 0
M  V30 947 C 86.1777 1.71557 -0.290578 0
M  V30 948 O 87.3537 1.94275 -0.530954 0
M  V30 949 C 84.4187 3.24134 -1.23037 0
M  V30 950 C 83.4797 3.5364 -2.43387 0
M  V30 951 C 82.7127 4.82687 -2.27703 0
M  V30 952 O 82.9357 5.55922 -1.27696 0
M  V30 953 O 81.8697 5.1194 -3.16545 0
M  V30 954 H 85.6957 1.91203 -2.35956 0
M  V30 955 H 83.2807 0.888625 -1.20099 0
M  V30 956 H 85.1627 4.0513 -1.15964 0
M  V30 957 H 83.8377 3.22337 -0.296691 0
M  V30 958 H 82.7447 2.72758 -2.56035 0
M  V30 959 H 84.0777 3.60209 -3.35425 0
M  V30 960 N 85.7298 1.2412 0.971189 0
M  V30 961 C 86.6768 1.0305 2.06517 0
M  V30 962 C 87.6468 -0.0550666 1.66009 0
M  V30 963 O 88.8318 0.0988688 1.90544 0
M  V30 964 C 85.9718 0.637653 3.39158 0
M  V30 965 C 85.0848 1.79633 3.92882 0
M  V30 966 C 84.2198 1.34939 5.13775 0
M  V30 967 C 83.2588 2.47823 5.59687 0
M  V30 968 N 82.3958 2.04022 6.71803 0
M  V30 969 H 87.2358 1.96685 2.23873 0
M  V30 970 H 84.7728 0.979694 1.09729 0
M  V30 971 H 86.7308 0.390931 4.15364 0
M  V30 972 H 85.3608 -0.261693 3.21737 0
M  V30 973 H 84.4128 2.15681 3.13346 0
M  V30 974 H 85.7248 2.64466 4.22918 0
M  V30 975 H 84.8788 1.06134 5.97345 0
M  V30 976 H 83.6178 0.471557 4.85415 0
M  V30 977 H 82.6228 2.77392 4.74693 0
M  V30 978 H 83.8478 3.36158 5.90063 0
M  V30 979 H 81.7938 1.18632 6.45184 0
M  V30 980 H 81.7108 2.82409 7.01271 0
M  V30 981 H 82.9788 1.78347 7.58823 0
M  V30 982 N 87.2079 -1.17134 1.05439 0
M  V30 983 C 88.1549 -2.21235 0.657539 0
M  V30 984 C 89.1249 -1.62551 -0.341543 0
M  V30 985 O 90.3099 -1.89379 -0.232393 0
M  V30 986 C 87.4499 -3.45076 0.0410575 0
M  V30 987 C 86.5629 -4.18042 1.08927 0
M  V30 988 C 85.6979 -5.29376 0.439848 0
M  V30 989 C 84.7369 -5.94132 1.4722 0
M  V30 990 N 83.8739 -6.96975 0.846756 0
M  V30 991 H 88.7139 -2.54534 1.54972 0
M  V30 992 H 86.2509 -1.25028 0.775006 0
M  V30 993 H 88.2089 -4.15862 -0.33383 0
M  V30 994 H 86.8389 -3.12353 -0.814568 0
M  V30 995 H 85.8909 -3.45945 1.58196 0
M  V30 996 H 87.2029 -4.62306 1.87282 0
M  V30 997 H 86.3569 -6.06699 0.0115125 0
M  V30 998 H 85.0959 -4.86251 -0.375656 0
M  V30 999 H 84.1009 -5.15538 1.91052 0
M  V30 1000 H 85.3259 -6.39337 2.28965 0
M  V30 1001 H 83.2719 -6.5598 0.0518075 0
M  V30 1002 H 83.1889 -7.39565 1.5678 0
M  V30 1003 H 84.4569 -7.78239 0.443277 0
M  V30 1004 N 88.686 -0.835752 -1.33615 0
M  V30 1005 C 89.596 -0.269088 -2.33052 0
M  V30 1006 C 90.612 0.603251 -1.63208 0
M  V30 1007 O 91.788 0.508112 -1.94885 0
M  V30 1008 C 88.853 0.549091 -3.42324 0
M  V30 1009 C 87.914 -0.347156 -4.27894 0
M  V30 1010 C 87.147 0.43207 -5.31948 0
M  V30 1011 O 87.37 1.66409 -5.45586 0
M  V30 1012 O 86.304 -0.192298 -6.01593 0
M  V30 1013 H 90.13 -1.09243 -2.83372 0
M  V30 1014 H 87.715 -0.598198 -1.36901 0
M  V30 1015 H 89.597 1.01414 -4.09015 0
M  V30 1016 H 88.272 1.34955 -2.94226 0
M  V30 1017 H 87.179 -0.859979 -3.64081 0
M  V30 1018 H 88.512 -1.1123 -4.79467 0
M  V30 1019 N 90.1641 1.46063 -0.591896 0
M  V30 1020 C 91.1111 2.30399 0.136069 0
M  V30 1021 C 92.0811 1.41169 0.875238 0
M  V30 1022 O 93.2661 1.70112 0.86409 0
M  V30 1023 C 90.4061 3.25804 1.13781 0
M  V30 1024 C 89.5191 4.30134 0.401137 0
M  V30 1025 C 88.6541 5.12659 1.39121 0
M  V30 1026 C 87.6931 6.0873 0.641462 0
M  V30 1027 N 86.8301 6.8409 1.58004 0
M  V30 1028 H 91.6701 2.92118 -0.589144 0
M  V30 1029 H 89.2071 1.43959 -0.302342 0
M  V30 1030 H 91.1651 3.79569 1.73156 0
M  V30 1031 H 89.7951 2.65872 1.83062 0
M  V30 1032 H 88.8471 3.79152 -0.307826 0
M  V30 1033 H 90.1591 4.98458 -0.184565 0
M  V30 1034 H 89.3131 5.70747 2.05749 0
M  V30 1035 H 88.0521 4.44316 2.01084 0
M  V30 1036 H 87.0571 5.49786 -0.0385419 0
M  V30 1037 H 88.2821 6.79095 0.0270945 0
M  V30 1038 H 86.2281 6.18449 2.18761 0
M  V30 1039 H 86.1451 7.48709 1.04738 0
M  V30 1040 H 87.4131 7.4673 2.23639 0
M  V30 1041 N 91.6422 0.330177 1.54103 0
M  V30 1042 C 92.5742 -0.566902 2.22079 0
M  V30 1043 C 93.5872 -1.07462 1.22294 0
M  V30 1044 O 94.7762 -0.987065 1.48726 0
M  V30 1045 C 91.8762 -1.79138 2.87685 0
M  V30 1046 C 91.0492 -1.42123 4.13666 0
M  V30 1047 C 90.1082 -2.50394 4.62806 0
M  V30 1048 O 89.1342 -2.14261 5.27334 0
M  V30 1049 N 90.3362 -3.81433 4.37595 0
M  V30 1050 H 93.1012 0.0151844 2.99696 0
M  V30 1051 H 90.6622 0.153681 1.61169 0
M  V30 1052 H 92.6542 -2.50975 3.1748 0
M  V30 1053 H 91.2242 -2.28115 2.13734 0
M  V30 1054 H 90.4442 -0.534201 3.90564 0
M  V30 1055 H 91.7322 -1.14971 4.9564 0
M  V30 1056 H 91.1302 -4.13584 3.8596 0
M  V30 1057 H 89.6872 -4.4948 4.72029 0
M  V30 1058 N 93.1203 -1.57491 0.0584922 0
M  V30 1059 C 94.3693 -1.92155 -0.613146 0
M  V30 1060 C 94.6823 -0.939334 -1.71569 0
M  V30 1061 O 95.8883 -1.17829 -2.44599 0
M  V30 1062 C 94.3443 -3.41303 -1.14195 0
M  V30 1063 C 93.9523 -4.47944 -0.0711265 0
M  V30 1064 C 95.6963 -3.84988 -1.78841 0
M  V30 1065 C 93.6033 -5.88212 -0.613225 0
M  V30 1066 H 92.5333 -0.717162 -0.232796 0
M  V30 1067 H 95.1843 -1.83049 0.12857 0
M  V30 1068 H 93.5663 -3.45437 -1.93621 0
M  V30 1069 H 94.7403 -4.55408 0.702836 0
M  V30 1070 H 93.0553 -4.13644 0.478313 0
M  V30 1071 H 95.6523 -4.87159 -2.20408 0
M  V30 1072 H 95.9953 -3.21632 -2.64308 0
M  V30 1073 H 96.5283 -3.83401 -1.06059 0
M  V30 1074 H 93.2673 -6.55183 0.203978 0
M  V30 1075 H 92.7873 -5.84294 -1.35501 0
M  V30 1076 H 94.4663 -6.37687 -1.09383 0
M  V30 1077 N 94.5984 0.214957 -1.56127 0
M  V30 1078 C 95.5084 1.28727 -1.96129 0
M  V30 1079 C 96.5244 1.50916 -0.866044 0
M  V30 1080 O 97.7004 1.63918 -1.17016 0
M  V30 1081 C 94.7654 2.61569 -2.27558 0
M  V30 1082 C 93.8264 2.47625 -3.50685 0
M  V30 1083 C 93.0594 3.74132 -3.80606 0
M  V30 1084 O 93.2824 4.77438 -3.12104 0
M  V30 1085 O 92.2164 3.70849 -4.74083 0
M  V30 1086 H 96.0424 0.977855 -2.87527 0
M  V30 1087 H 93.6274 0.418358 -1.43423 0
M  V30 1088 H 95.5094 3.40012 -2.48938 0
M  V30 1089 H 94.1844 2.92178 -1.39332 0
M  V30 1090 H 93.0914 1.67361 -3.34576 0
M  V30 1091 H 94.4244 2.21954 -4.39315 0
M  V30 1092 N 96.0765 1.50051 0.48192 0
M  V30 1093 C 97.0085 1.64263 1.59844 0
M  V30 1094 C 98.0215 0.52451 1.54119 0
M  V30 1095 O 99.2105 0.797293 1.59704 0
M  V30 1096 C 96.3105 1.60102 2.98698 0
M  V30 1097 C 95.4835 2.87767 3.29407 0
M  V30 1098 C 94.5425 2.76397 4.47762 0
M  V30 1099 O 93.5685 3.50348 4.48603 0
M  V30 1100 N 94.7705 1.89222 5.48794 0
M  V30 1101 H 97.5355 2.60566 1.48073 0
M  V30 1102 H 95.0965 1.47379 0.670149 0
M  V30 1103 H 97.0885 1.50123 3.75826 0
M  V30 1104 H 95.6585 0.715798 3.04294 0
M  V30 1105 H 94.8785 3.11954 2.40994 0
M  V30 1106 H 96.1665 3.72365 3.4673 0
M  V30 1107 H 95.5645 1.28434 5.50928 0
M  V30 1108 H 94.1215 1.85154 6.24949 0
M  V30 1109 N 97.5546 -0.734337 1.39446 0
M  V30 1110 C 98.4866 -1.85861 1.34121 0
M  V30 1111 C 99.4996 -1.60871 0.249864 0
M  V30 1112 O 100.689 -1.71093 0.508865 0
M  V30 1113 C 97.7886 -3.21899 1.05991 0
M  V30 1114 C 96.9616 -3.74239 2.26415 0
M  V30 1115 C 96.0206 -4.88841 1.94733 0
M  V30 1116 O 95.0466 -5.02468 2.67422 0
M  V30 1117 N 96.2486 -5.73261 0.913884 0
M  V30 1118 H 99.0136 -1.90934 2.31007 0
M  V30 1119 H 96.5746 -0.915102 1.33557 0
M  V30 1120 H 98.5666 -3.96136 0.828147 0
M  V30 1121 H 97.1366 -3.12091 0.178361 0
M  V30 1122 H 96.3566 -2.91347 2.65539 0
M  V30 1123 H 97.6446 -4.05942 3.06738 0
M  V30 1124 H 97.0426 -5.64842 0.311476 0
M  V30 1125 H 95.5996 -6.47563 0.742015 0
M  V30 1126 N 99.0327 -1.24633 -0.964593 0
M  V30 1127 C 99.9797 -1.04144 -2.05968 0
M  V30 1128 C 100.95 0.046262 -1.66036 0
M  V30 1129 O 102.135 -0.108972 -1.90489 0
M  V30 1130 C 99.2747 -0.65563 -3.38815 0
M  V30 1131 C 98.3877 -1.81714 -3.91923 0
M  V30 1132 C 97.5227 -1.37662 -5.13052 0
M  V30 1133 C 96.5617 -2.50788 -5.58365 0
M  V30 1134 N 95.6987 -2.07582 -6.70712 0
M  V30 1135 H 100.539 -1.9787 -2.22827 0
M  V30 1136 H 98.0757 -0.9855 -1.09208 0
M  V30 1137 H 100.034 -0.412954 -4.15151 0
M  V30 1138 H 98.6637 0.244627 -3.21872 0
M  V30 1139 H 97.7157 -2.1734 -3.12198 0
M  V30 1140 H 99.0277 -2.66705 -4.21509 0
M  V30 1141 H 98.1817 -1.093 -5.96773 0
M  V30 1142 H 96.9207 -0.497293 -4.85158 0
M  V30 1143 H 95.9257 -2.79906 -4.73215 0
M  V30 1144 H 97.1507 -3.39283 -5.88272 0
M  V30 1145 H 95.0967 -1.22051 -6.44546 0
M  V30 1146 H 95.0137 -2.86125 -6.99763 0
M  V30 1147 H 96.2817 -1.82369 -7.57867 0
M  V30 1148 N 100.511 1.16574 -1.06058 0
M  V30 1149 C 101.458 2.20883 -0.669263 0
M  V30 1150 C 102.428 1.62729 0.332918 0
M  V30 1151 O 103.613 1.895 0.222346 0
M  V30 1152 C 100.753 3.45049 -0.0593572 0
M  V30 1153 C 99.8658 4.17458 -1.11143 0
M  V30 1154 C 99.0008 5.29135 -0.467916 0
M  V30 1155 C 98.0398 5.93343 -1.50369 0
M  V30 1156 N 97.1768 6.96516 -0.883706 0
M  V30 1157 H 102.017 2.53709 -1.5632 0
M  V30 1158 H 99.5538 1.24616 -0.781625 0
M  V30 1159 H 101.512 4.16033 0.311771 0
M  V30 1160 H 100.142 3.12781 0.797992 0
M  V30 1161 H 99.1938 3.45101 -1.60029 0
M  V30 1162 H 100.506 4.61307 -1.89731 0
M  V30 1163 H 99.6598 6.06684 -0.0436871 0
M  V30 1164 H 98.3988 4.86443 0.349864 0
M  V30 1165 H 97.4038 5.14517 -1.93784 0
M  V30 1166 H 98.6288 6.38114 -2.32352 0
M  V30 1167 H 96.5748 6.55943 -0.086595 0
M  V30 1168 H 96.4918 7.38723 -1.607 0
M  V30 1169 H 97.7598 7.77993 -0.484543 0
M  V30 1170 N 101.989 0.842826 1.3317 0
M  V30 1171 C 103.238 0.436738 1.96915 0
M  V30 1172 C 103.551 -1.01025 1.67491 0
M  V30 1173 O 104.757 -1.5212 2.24881 0
M  V30 1174 C 103.213 0.730021 3.52418 0
M  V30 1175 C 102.821 2.19195 3.90714 0
M  V30 1176 C 104.565 0.391076 4.22695 0
M  V30 1177 C 102.472 2.42907 5.39212 0
M  V30 1178 H 101.402 0.15958 0.736919 0
M  V30 1179 H 104.053 1.03196 1.51733 0
M  V30 1180 H 102.435 0.0643755 3.95948 0
M  V30 1181 H 103.609 2.8984 3.58231 0
M  V30 1182 H 101.924 2.49425 3.33431 0
M  V30 1183 H 104.521 0.545817 5.31907 0
M  V30 1184 H 104.864 -0.666294 4.10933 0
M  V30 1185 H 105.397 1.01212 3.84709 0
M  V30 1186 H 102.136 3.47224 5.55982 0
M  V30 1187 H 101.656 1.76827 5.73142 0
M  V30 1188 H 103.335 2.2626 6.06148 0
M  V30 1189 N 103.467 -1.45747 0.599634 0
M  V30 1190 C 104.397 -2.33235 -0.111306 0
M  V30 1191 C 105.378 -1.46359 -0.866781 0
M  V30 1192 O 106.563 -1.75146 -0.838904 0
M  V30 1193 C 103.693 -3.28932 -1.11451 0
M  V30 1194 C 102.647 -4.25381 -0.472772 0
M  V30 1195 C 101.973 -5.1071 -1.58365 0
M  V30 1196 C 103.273 -5.18831 0.600948 0
M  V30 1197 H 104.967 -2.92927 0.61919 0
M  V30 1198 H 102.513 -1.40857 0.299215 0
M  V30 1199 H 104.466 -3.89002 -1.62036 0
M  V30 1200 H 103.19 -2.67381 -1.8755 0
M  V30 1201 H 101.849 -3.66598 0.0121472 0
M  V30 1202 H 101.497 -4.45533 -2.33473 0
M  V30 1203 H 101.197 -5.7604 -1.15982 0
M  V30 1204 H 102.721 -5.73647 -2.09194 0
M  V30 1205 H 104.135 -5.73019 0.179491 0
M  V30 1206 H 102.532 -5.92595 0.946076 0
M  V30 1207 H 103.602 -4.6174 1.48068 0
M  V30 1208 N 104.945 -0.338344 -1.53925 0
M  V30 1209 C 105.878 0.563758 -2.21127 0
M  V30 1210 C 106.856 1.10433 -1.19345 0
M  V30 1211 O 108.04 1.16557 -1.48144 0
M  V30 1212 C 105.167 1.77505 -2.88461 0
M  V30 1213 C 104.213 1.3644 -4.04087 0
M  V30 1214 S 105.046 0.388593 -5.34088 0
M  V30 1215 C 106.202 1.60683 -6.04923 0
M  V30 1216 H 106.435 -0.00704546 -2.97299 0
M  V30 1217 H 103.968 -0.122418 -1.53914 0
M  V30 1218 H 105.926 2.46999 -3.27875 0
M  V30 1219 H 104.587 2.31706 -2.12064 0
M  V30 1220 H 103.78 2.26739 -4.50117 0
M  V30 1221 H 103.382 0.748998 -3.66423 0
M  V30 1222 H 105.674 2.54209 -6.28 0
M  V30 1223 H 106.617 1.18842 -6.98056 0
M  V30 1224 H 107.025 1.80052 -5.35015 0
M  V30 1225 N 106.423 1.57458 -0.0668435 0
M  V30 1226 C 107.648 1.9804 0.616027 0
M  V30 1227 C 108.073 0.944771 1.62652 0
M  V30 1228 O 107.431 -0.0902094 1.81075 0
M  V30 1229 C 107.479 3.37665 1.26549 0
M  V30 1230 O 106.583 3.36701 2.38131 0
M  V30 1231 H 105.924 0.644719 0.158849 0
M  V30 1232 H 108.454 2.04121 -0.139891 0
M  V30 1233 H 108.464 3.7474 1.6135 0
M  V30 1234 H 107.139 4.12573 0.525016 0
M  V30 1235 H 105.716 3.1139 2.0516 0
M  V30 1236 N 107.901 -0.206675 1.56239 0
M  V30 1237 C 109.129 -0.945345 1.8404 0
M  V30 1238 C 109.544 -1.77336 0.647885 0
M  V30 1239 O 108.901 -1.78425 -0.383511 0
M  V30 1240 C 108.952 -1.8509 3.10522 0
M  V30 1241 O 108.673 -1.05634 4.25174 0
M  V30 1242 C 110.174 -2.70222 3.51418 0
M  V30 1243 H 107.394 -0.276372 0.61144 0
M  V30 1244 H 109.938 -0.217417 2.03341 0
M  V30 1245 H 108.093 -2.53259 2.93153 0
M  V30 1246 H 108.507 -1.67238 4.97124 0
M  V30 1247 H 109.981 -3.29438 4.42916 0
M  V30 1248 H 110.458 -3.43358 2.73864 0
M  V30 1249 H 111.064 -2.07443 3.71278 0
M  V30 1250 N 109.379 -1.50304 -0.473955 0
M  V30 1251 C 110.312 -1.63595 -1.59097 0
M  V30 1252 C 111.29 -0.484142 -1.55225 0
M  V30 1253 O 112.474 -0.703271 -1.7489 0
M  V30 1254 C 109.601 -1.61589 -2.97669 0
M  V30 1255 C 108.647 -2.82295 -3.19705 0
M  V30 1256 S 109.48 -4.43635 -2.99913 0
M  V30 1257 C 110.636 -4.44317 -4.40832 0
M  V30 1258 H 110.869 -2.58082 -1.47583 0
M  V30 1259 H 108.402 -1.39531 -0.661087 0
M  V30 1260 H 110.36 -1.61116 -3.7756 0
M  V30 1261 H 109.021 -0.683421 -3.06575 0
M  V30 1262 H 108.214 -2.77188 -4.20931 0
M  V30 1263 H 107.816 -2.8032 -2.47582 0
M  V30 1264 H 110.108 -4.17703 -5.33414 0
M  V30 1265 H 111.051 -5.45911 -4.50984 0
M  V30 1266 H 111.459 -3.74059 -4.22777 0
M  V30 1267 N 110.857 0.726932 -1.39834 0
M  V30 1268 C 112.273 1.03354 -1.21615 0
M  V30 1269 C 112.473 2.01327 -0.08338 0
M  V30 1270 O 111.529 2.46158 0.56238 0
M  V30 1271 C 112.842 1.58811 -2.55342 0
M  V30 1272 C 114.39 1.70851 -2.62257 0
M  V30 1273 C 114.865 2.29716 -3.96225 0
M  V30 1274 N 116.356 2.37116 -3.97907 0
M  V30 1275 C 117.091 2.83619 -4.98345 0
M  V30 1276 N 116.587 3.29958 -6.09179 0
M  V30 1277 N 118.38 2.82901 -4.8572 0
M  V30 1278 H 110.531 0.0773069 -2.12259 0
M  V30 1279 H 112.794 0.0969102 -0.943034 0
M  V30 1280 H 112.5 0.942855 -3.38826 0
M  V30 1281 H 112.374 2.57502 -2.75632 0
M  V30 1282 H 114.761 2.34497 -1.79152 0
M  V30 1283 H 114.842 0.707913 -2.45809 0
M  V30 1284 H 114.486 1.66696 -4.79765 0
M  V30 1285 H 114.416 3.30469 -4.09997 0
M  V30 1286 H 116.907 2.04374 -3.17868 0
M  V30 1287 H 117.22 3.63976 -6.8172 0
M  V30 1288 H 115.565 3.27946 -6.12761 0
M  V30 1289 H 118.756 2.46027 -3.98231 0
M  V30 1290 H 118.929 3.18827 -5.6414 0
M  V30 1291 N 112.336 1.25143 0.95797 0
M  V30 1292 C 113.284 1.05019 2.07542 0
M  V30 1293 C 114.278 -0.0178751 1.69391 0
M  V30 1294 O 115.484 0.137472 1.79474 0
M  V30 1295 H 111.859 0.32265 0.679265 0
M  V30 1296 H 113.83 1.99759 2.21673 0
M  V30 1297 C 112.579 0.682074 3.40944 0
M  V30 1298 H 111.902 1.49573 3.70767 0
M  V30 1299 H 113.342 0.580945 4.20001 0
M  V30 1300 C 111.801 -0.611608 3.31302 0
M  V30 1301 O 112.331 -1.65465 3.66038 0
M  V30 1302 N 110.537 -0.595982 2.84423 0
M  V30 1303 H 110.084 0.253192 2.56353 0
M  V30 1304 H 110.042 -1.46173 2.78354 0
M  V30 1305 N 113.814 -1.1601 1.06675 0
M  V30 1306 C 114.746 -2.20115 0.638921 0
M  V30 1307 C 115.759 -1.59916 -0.305057 0
M  V30 1308 O 116.948 -1.78245 -0.0954446 0
M  V30 1309 C 114.048 -3.38798 -0.0830083 0
M  V30 1310 C 113.221 -4.2855 0.875426 0
M  V30 1311 C 112.28 -5.25849 0.192042 0
M  V30 1312 O 111.306 -5.63102 0.830921 0
M  V30 1313 N 112.508 -5.70648 -1.06493 0
M  V30 1314 H 115.273 -2.57439 1.53444 0
M  V30 1315 H 112.834 -1.31057 0.950557 0
M  V30 1316 H 114.826 -4.00936 -0.550685 0
M  V30 1317 H 113.396 -2.99947 -0.880386 0
M  V30 1318 H 112.616 -3.63617 1.52238 0
M  V30 1319 H 113.904 -4.85393 1.52548 0
M  V30 1320 H 113.302 -5.42482 -1.60405 0
M  V30 1321 H 111.859 -6.34859 -1.47641 0
M  V30 1322 N 115.292 -0.849877 -1.32721 0
M  V30 1323 C 116.255 -0.296122 -2.27279 0
M  V30 1324 C 117.255 0.541458 -1.5141 0
M  V30 1325 O 118.445 0.353658 -1.70572 0
M  V30 1326 C 115.577 0.581579 -3.35902 0
M  V30 1327 H 116.77 -1.13064 -2.77771 0
M  V30 1328 H 114.323 -0.62383 -1.43311 0
M  V30 1329 H 115.058 1.43809 -2.9067 0
M  V30 1330 H 114.843 -0.0178814 -3.92096 0
M  V30 1331 H 116.333 0.961951 -4.0637 0
M  V30 1332 N 116.77 1.45427 -0.607355 0
M  V30 1333 C 118.186 1.57283 -0.270985 0
M  V30 1334 C 118.386 1.59875 1.22647 0
M  V30 1335 O 117.442 1.52893 2.00948 0
M  V30 1336 C 118.755 2.85566 -0.941952 0
M  V30 1337 C 120.303 2.9924 -0.917849 0
M  V30 1338 C 120.778 4.30293 -1.56882 0
M  V30 1339 N 122.269 4.37051 -1.5343 0
M  V30 1340 C 123.004 5.37123 -2.00715 0
M  V30 1341 N 122.5 6.43734 -2.56084 0
M  V30 1342 N 124.293 5.28479 -1.91484 0
M  V30 1343 H 116.444 1.41988 -1.57966 0
M  V30 1344 H 118.707 0.67885 -0.661715 0
M  V30 1345 H 118.413 2.8955 -1.99633 0
M  V30 1346 H 118.287 3.74322 -0.465096 0
M  V30 1347 H 120.674 2.94822 0.127984 0
M  V30 1348 H 120.755 2.11895 -1.43297 0
M  V30 1349 H 120.399 4.35469 -2.61398 0
M  V30 1350 H 120.329 5.16454 -1.02873 0
M  V30 1351 H 122.82 3.60615 -1.12982 0
M  V30 1352 H 123.133 7.16341 -2.89958 0
M  V30 1353 H 121.478 6.44485 -2.60122 0
M  V30 1354 H 124.669 4.44098 -1.47967 0
M  V30 1355 H 124.842 6.0632 -2.28648 0
M  V30 1356 N 118.248 0.346503 1.53744 0
M  V30 1357 C 119.178 -0.501193 2.28058 0
M  V30 1358 C 120.159 -1.10014 1.29734 0
M  V30 1359 O 121.344 -1.12097 1.58581 0
M  V30 1360 C 118.474 -1.65078 3.05559 0
M  V30 1361 C 117.428 -1.18003 4.11411 0
M  V30 1362 C 116.754 -2.41837 4.76884 0
M  V30 1363 C 118.054 -0.278394 5.21558 0
M  V30 1364 H 119.748 0.11875 2.99164 0
M  V30 1365 H 117.294 0.0585531 1.43881 0
M  V30 1366 H 119.247 -2.25028 3.56287 0
M  V30 1367 H 117.971 -2.29767 2.32109 0
M  V30 1368 H 116.63 -0.603331 3.61601 0
M  V30 1369 H 116.278 -3.0494 4.00026 0
M  V30 1370 H 115.978 -2.1102 5.48402 0
M  V30 1371 H 117.502 -3.02508 5.30397 0
M  V30 1372 H 118.916 -0.784823 5.67903 0
M  V30 1373 H 117.313 -0.0619707 6.00068 0
M  V30 1374 H 118.383 0.684677 4.80042 0
M  V30 1375 N 119.726 -1.57421 0.075193 0
M  V30 1376 C 120.673 -2.12915 -0.890843 0
M  V30 1377 C 121.643 -1.04252 -1.29309 0
M  V30 1378 O 122.828 -1.31933 -1.37834 0
M  V30 1379 C 119.968 -2.69795 -2.15186 0
M  V30 1380 C 119.081 -3.92624 -1.80194 0
M  V30 1381 C 118.216 -4.37736 -3.00933 0
M  V30 1382 C 117.255 -5.53205 -2.61974 0
M  V30 1383 N 116.392 -5.9326 -3.75483 0
M  V30 1384 H 121.232 -2.95156 -0.410735 0
M  V30 1385 H 118.769 -1.45854 -0.191086 0
M  V30 1386 H 120.727 -3.00883 -2.89008 0
M  V30 1387 H 119.357 -1.90313 -2.60731 0
M  V30 1388 H 118.409 -3.67977 -0.964218 0
M  V30 1389 H 119.721 -4.76482 -1.47534 0
M  V30 1390 H 118.875 -4.70503 -3.8303 0
M  V30 1391 H 117.614 -3.52739 -3.36789 0
M  V30 1392 H 116.619 -5.20086 -1.783 0
M  V30 1393 H 117.844 -6.39936 -2.27284 0
M  V30 1394 H 115.79 -5.11212 -4.11094 0
M  V30 1395 H 115.707 -6.71865 -3.46602 0
M  V30 1396 H 116.975 -6.30651 -4.58148 0
M  V30 1397 N 121.204 0.198386 -1.56346 0
M  V30 1398 C 122.45 0.920648 -1.80698 0
M  V30 1399 C 122.783 1.83045 -0.648697 0
M  V30 1400 O 122.058 1.91308 0.350925 0
M  V30 1401 C 122.341 1.73971 -3.15287 0
M  V30 1402 C 122.194 0.85485 -4.41602 0
M  V30 1403 C 123.513 2.71296 -3.46535 0
M  V30 1404 H 120.632 0.333261 -0.657348 0
M  V30 1405 H 123.274 0.188198 -1.89066 0
M  V30 1406 H 121.424 2.36416 -3.08285 0
M  V30 1407 H 123.096 0.245362 -4.60647 0
M  V30 1408 H 121.339 0.161398 -4.335 0
M  V30 1409 H 122.01 1.46286 -5.32264 0
M  V30 1410 H 124.486 2.18983 -3.53816 0
M  V30 1411 H 123.362 3.2569 -4.41834 0
M  V30 1412 H 123.623 3.5018 -2.69864 0
M  V30 1413 N 122.682 1.50554 0.465978 0
M  V30 1414 C 123.612 1.72722 1.57128 0
M  V30 1415 C 124.593 0.576294 1.6004 0
M  V30 1416 O 125.778 0.81598 1.76225 0
M  V30 1417 C 122.908 1.82605 2.95419 0
M  V30 1418 C 121.862 2.97835 3.07373 0
M  V30 1419 C 121.188 2.92867 4.47363 0
M  V30 1420 C 122.488 4.38265 2.84114 0
M  V30 1421 H 124.182 2.65267 1.38829 0
M  V30 1422 H 121.728 1.2765 0.666441 0
M  V30 1423 H 123.681 1.96698 3.72677 0
M  V30 1424 H 122.405 0.866858 3.14886 0
M  V30 1425 H 121.064 2.83401 2.3255 0
M  V30 1426 H 120.712 1.94783 4.63755 0
M  V30 1427 H 120.412 3.70227 4.56296 0
M  V30 1428 H 121.936 3.09015 5.26633 0
M  V30 1429 H 123.35 4.53198 3.51118 0
M  V30 1430 H 121.747 5.17115 3.04487 0
M  V30 1431 H 122.817 4.50281 1.7993 0
M  V30 1432 N 124.16 -0.719506 1.40217 0
M  V30 1433 C 125.576 -1.02707 1.22161 0
M  V30 1434 C 125.776 -2.0128 0.0940557 0
M  V30 1435 O 124.832 -2.46452 -0.549318 0
M  V30 1436 C 126.145 -1.57454 2.56181 0
M  V30 1437 C 127.693 -1.69458 2.63159 0
M  V30 1438 C 128.168 -2.27611 3.97438 0
M  V30 1439 N 129.659 -2.35002 3.99159 0
M  V30 1440 C 130.394 -2.80972 4.99842 0
M  V30 1441 N 129.89 -3.26723 6.10921 0
M  V30 1442 N 131.683 -2.80321 4.87213 0
M  V30 1443 H 123.834 -0.0660492 2.12297 0
M  V30 1444 H 126.097 -0.0919077 0.943534 0
M  V30 1445 H 125.803 -0.924873 3.39321 0
M  V30 1446 H 125.677 -2.56036 2.76993 0
M  V30 1447 H 128.064 -2.33543 1.80393 0
M  V30 1448 H 128.145 -0.694867 2.46181 0
M  V30 1449 H 127.789 -1.6415 4.80643 0
M  V30 1450 H 127.719 -3.2829 4.11744 0
M  V30 1451 H 130.21 -2.02685 3.18947 0
M  V30 1452 H 130.523 -3.60355 6.8364 0
M  V30 1453 H 128.868 -3.24692 6.14492 0
M  V30 1454 H 132.059 -2.43912 3.9953 0
M  V30 1455 H 132.232 -3.15831 5.65822 0
M  V30 1456 N 125.638 -1.25649 -0.95132 0
M  V30 1457 C 126.601 -1.06399 -2.03007 0
M  V30 1458 C 127.601 -0.0156794 -1.60792 0
M  V30 1459 O 128.791 -0.25817 -1.72276 0
M  V30 1460 C 125.923 -0.616184 -3.35285 0
M  V30 1461 H 127.116 -2.02164 -2.21517 0
M  V30 1462 H 124.669 -1.08103 -1.12887 0
M  V30 1463 H 125.404 0.343917 -3.22471 0
M  V30 1464 H 125.189 -1.37301 -3.67275 0
M  V30 1465 H 126.679 -0.503032 -4.14559 0
M  V30 1466 N 127.117 1.15442 -1.07289 0
M  V30 1467 C 128.533 1.38201 -0.798288 0
M  V30 1468 C 128.733 1.92429 0.597769 0
M  V30 1469 O 127.789 2.12962 1.3566 0
M  V30 1470 C 129.102 2.35357 -1.87156 0
M  V30 1471 C 130.65 2.49021 -1.89624 0
M  V30 1472 C 131.125 3.49468 -2.96034 0
M  V30 1473 N 132.616 3.57003 -2.95132 0
M  V30 1474 C 133.351 4.34543 -3.74112 0
M  V30 1475 N 132.847 5.15421 -4.6294 0
M  V30 1476 N 134.64 4.29625 -3.62462 0
M  V30 1477 H 126.791 0.78584 -1.97328 0
M  V30 1478 H 129.054 0.408065 -0.855679 0
M  V30 1479 H 128.76 2.02626 -2.87464 0
M  V30 1480 H 128.634 3.35129 -1.73114 0
M  V30 1481 H 131.021 2.81051 -0.899687 0
M  V30 1482 H 131.102 1.4925 -2.07745 0
M  V30 1483 H 130.746 3.18173 -3.95889 0
M  V30 1484 H 130.676 4.48992 -2.75161 0
M  V30 1485 H 133.167 2.99276 -2.30743 0
M  V30 1486 H 133.48 5.7183 -5.19837 0
M  V30 1487 H 131.825 5.14729 -4.66989 0
M  V30 1488 H 135.016 3.65505 -2.92444 0
M  V30 1489 H 135.189 4.89807 -4.24256 0
M  V30 1490 N 128.595 0.856903 1.32268 0
M  V30 1491 C 129.543 0.291987 2.3076 0
M  V30 1492 C 130.537 -0.585857 1.58947 0
M  V30 1493 O 131.743 -0.47341 1.73663 0
M  V30 1494 H 128.118 0.075721 0.748178 0
M  V30 1495 H 130.089 1.13687 2.75895 0
M  V30 1496 C 128.838 -0.502869 3.44044 0
M  V30 1497 H 128.161 0.163328 3.99466 0
M  V30 1498 H 129.601 -0.863691 4.1511 0
M  V30 1499 C 128.06 -1.68898 2.91505 0
M  V30 1500 O 128.59 -2.78811 2.89184 0
M  V30 1501 N 126.796 -1.51679 2.47875 0
M  V30 1502 H 126.343 -0.622666 2.49961 0
M  V30 1503 H 126.301 -2.31184 2.13076 0
M  V30 1504 N 130.073 -1.45103 0.615059 0
M  V30 1505 C 131.35 -1.95549 0.0448276 0
M  V30 1506 C 131.73 -1.55737 -1.4251 0
M  V30 1507 O 131.078 -0.823556 -2.13143 0
M  V30 1508 C 131.288 -3.48098 0.250785 0
M  V30 1509 C 132.636 -4.24384 0.135509 0
M  V30 1510 O 133.66 -3.55738 0.181299 0
M  V30 1511 O 132.519 -5.46493 0.0268878 0
M  V30 1512 H 129.613 -0.8264 -0.0314845 0
M  V30 1513 H 132.159 -1.55232 0.685642 0
M  V30 1514 H 130.931 -3.7007 1.27139 0
M  V30 1515 H 130.554 -3.95323 -0.424937 0
M  V30 1516 N 131.551 -0.354651 -1.53558 0
M  V30 1517 C 132.481 0.489091 -2.2832 0
M  V30 1518 C 133.462 1.09324 -1.30316 0
M  V30 1519 O 134.647 1.11255 -1.59173 0
M  V30 1520 C 131.777 1.63456 -3.0643 0
M  V30 1521 C 130.731 1.1582 -4.12031 0
M  V30 1522 C 130.057 2.39305 -4.7816 0
M  V30 1523 C 131.357 0.250731 -5.21698 0
M  V30 1524 H 133.051 -0.134614 -2.99097 0
M  V30 1525 H 130.597 -0.0661826 -1.43848 0
M  V30 1526 H 132.55 2.23136 -3.57475 0
M  V30 1527 H 131.274 2.28533 -2.33325 0
M  V30 1528 H 129.933 0.584146 -3.61916 0
M  V30 1529 H 129.581 3.02814 -4.01637 0
M  V30 1530 H 129.281 2.08109 -5.49513 0
M  V30 1531 H 130.805 2.99691 -5.31994 0
M  V30 1532 H 132.219 0.754695 -5.68311 0
M  V30 1533 H 130.616 0.0301468 -6.00092 0
M  V30 1534 H 131.686 -0.710125 -4.79672 0
M  V30 1535 N 133.029 1.57378 -0.0835403 0
M  V30 1536 C 134.278 1.93106 0.582498 0
M  V30 1537 C 134.591 0.96651 1.70053 0
M  V30 1538 O 135.797 1.21705 2.42693 0
M  V30 1539 C 134.253 3.43076 1.08751 0
M  V30 1540 C 133.861 4.48 -0.000146404 0
M  V30 1541 C 135.605 3.87785 1.72694 0
M  V30 1542 C 133.512 5.89113 0.519568 0
M  V30 1543 H 132.442 0.720775 0.221358 0
M  V30 1544 H 135.093 1.82821 -0.157675 0
M  V30 1545 H 133.475 3.48474 1.88101 0
M  V30 1546 H 134.649 4.54233 -0.775199 0
M  V30 1547 H 132.964 4.1283 -0.54406 0
M  V30 1548 H 135.561 4.90604 2.1263 0
M  V30 1549 H 135.904 3.25796 2.59158 0
M  V30 1550 H 136.437 3.8504 0.999457 0
M  V30 1551 H 133.176 6.54775 -0.308186 0
M  V30 1552 H 132.696 5.86376 1.26188 0
M  V30 1553 H 134.375 6.39346 0.992237 0
M  V30 1554 N 134.507 -0.190092 1.56449 0
M  V30 1555 C 135.732 -0.929864 1.85387 0
M  V30 1556 C 136.157 -1.7585 0.667704 0
M  V30 1557 O 135.515 -1.77198 -0.383459 0
M  V30 1558 C 135.563 -1.79773 3.12593 0
M  V30 1559 O 134.667 -2.89713 2.93496 0
M  V30 1560 H 134.008 -0.261574 0.610307 0
M  V30 1561 H 136.538 -0.193896 2.03679 0
M  V30 1562 H 136.548 -2.20139 3.43515 0
M  V30 1563 H 135.223 -1.18892 3.98544 0
M  V30 1564 H 133.8 -2.53065 2.73884 0
M  V30 1565 N 135.985 -1.50799 -0.457987 0
M  V30 1566 C 137.262 -1.52968 -1.21902 0
M  V30 1567 C 137.642 -0.281906 -2.09209 0
M  V30 1568 O 136.99 0.734076 -2.16388 0
M  V30 1569 C 137.2 -2.8326 -2.03875 0
M  V30 1570 C 138.548 -3.34425 -2.6162 0
M  V30 1571 O 139.572 -2.8467 -2.14106 0
M  V30 1572 O 138.431 -4.21188 -3.48228 0
M  V30 1573 H 135.525 -0.614129 -0.553873 0
M  V30 1574 H 138.071 -1.63098 -0.468739 0
M  V30 1575 H 136.843 -3.65543 -1.39621 0
M  V30 1576 H 136.466 -2.76195 -2.8601 0
M  V30 1577 N 137.463 0.71206 -1.40597 0
M  V30 1578 C 138.393 1.83889 -1.43899 0
M  V30 1579 C 139.374 1.67442 -0.299504 0
M  V30 1580 O 140.559 1.87421 -0.508624 0
M  V30 1581 C 137.689 3.21877 -1.30431 0
M  V30 1582 C 136.643 3.53002 -2.42019 0
M  V30 1583 C 135.969 4.90172 -2.13626 0
M  V30 1584 C 137.269 3.53643 -3.84362 0
M  V30 1585 H 138.963 1.81383 -2.38203 0
M  V30 1586 H 136.509 0.871237 -1.14654 0
M  V30 1587 H 138.462 4.00404 -1.31357 0
M  V30 1588 H 137.186 3.24968 -0.326049 0
M  V30 1589 H 135.845 2.76818 -2.40349 0
M  V30 1590 H 135.493 4.89869 -1.14182 0
M  V30 1591 H 135.193 5.11962 -2.88389 0
M  V30 1592 H 136.717 5.71028 -2.1624 0
M  V30 1593 H 138.131 4.22203 -3.87837 0
M  V30 1594 H 136.528 3.86961 -4.58673 0
M  V30 1595 H 137.598 2.52954 -4.13693 0
M  V30 1596 N 138.941 1.26152 0.944643 0
M  V30 1597 C 139.871 1.09902 2.06019 0
M  V30 1598 C 140.852 0.00519538 1.70099 0
M  V30 1599 O 142.037 0.176583 1.93396 0
M  V30 1600 C 139.167 0.727562 3.39594 0
M  V30 1601 C 138.121 1.77274 3.89561 0
M  V30 1602 C 137.447 1.25569 5.19747 0
M  V30 1603 C 138.747 3.17357 4.14827 0
M  V30 1604 H 140.441 2.03217 2.19871 0
M  V30 1605 H 137.987 0.978452 1.05652 0
M  V30 1606 H 139.94 0.600777 4.17095 0
M  V30 1607 H 138.664 -0.241287 3.25707 0
M  V30 1608 H 137.323 1.88814 3.14237 0
M  V30 1609 H 136.971 0.276783 5.02238 0
M  V30 1610 H 136.671 1.95433 5.54148 0
M  V30 1611 H 138.195 1.1415 5.99835 0
M  V30 1612 H 139.609 3.08914 4.82954 0
M  V30 1613 H 138.006 3.84781 4.60504 0
M  V30 1614 H 139.076 3.63673 3.20734 0
M  V30 1615 N 140.419 -1.14872 1.07899 0
M  V30 1616 C 141.644 -1.90202 0.826926 0
M  V30 1617 C 142.069 -1.77774 -0.614664 0
M  V30 1618 O 141.427 -1.11431 -1.43013 0
M  V30 1619 C 141.475 -3.38352 1.24702 0
M  V30 1620 O 140.579 -4.10497 0.39575 0
M  V30 1621 H 139.92 -0.591968 0.300782 0
M  V30 1622 H 142.45 -1.45437 1.43907 0
M  V30 1623 H 142.46 -3.89156 1.22563 0
M  V30 1624 H 141.135 -3.46715 2.29698 0
M  V30 1625 H 139.712 -3.69796 0.480117 0
M  V30 1626 N 141.898 -0.863906 -1.31812 0
M  V30 1627 C 142.808 -0.318461 -2.32428 0
M  V30 1628 C 143.824 0.568496 -1.64451 0
M  V30 1629 O 145 0.46666 -1.95919 0
M  V30 1630 C 142.065 0.476355 -3.43412 0
M  V30 1631 C 141.126 -0.43784 -4.27061 0
M  V30 1632 C 140.359 0.319138 -5.32745 0
M  V30 1633 O 140.582 1.54799 -5.48993 0
M  V30 1634 O 139.516 -0.319861 -6.01049 0
M  V30 1635 H 143.342 -1.15229 -2.80991 0
M  V30 1636 H 140.927 -0.627103 -1.35602 0
M  V30 1637 H 142.809 0.927156 -4.11074 0
M  V30 1638 H 141.484 1.28683 -2.97022 0
M  V30 1639 H 140.391 -0.937013 -3.62175 0
M  V30 1640 H 141.724 -1.21375 -4.77 0
M  V30 1641 N 143.376 1.44774 -0.622745 0
M  V30 1642 C 144.339 2.29069 0.0774015 0
M  V30 1643 C 145.339 1.4059 0.780461 0
M  V30 1644 O 146.529 1.62551 0.626322 0
M  V30 1645 C 143.661 3.21974 1.12006 0
M  V30 1646 H 144.854 2.92459 -0.663901 0
M  V30 1647 H 142.407 1.51548 -0.382486 0
M  V30 1648 H 143.142 2.63417 1.89162 0
M  V30 1649 H 142.927 3.87168 0.619951 0
M  V30 1650 H 144.417 3.85318 1.60995 0
M  V30 1651 N 144.854 0.36279 1.53368 0
M  V30 1652 C 145.801 -0.485008 2.25646 0
M  V30 1653 C 146.771 -1.07982 1.2621 0
M  V30 1654 O 147.956 -1.11284 1.54986 0
M  V30 1655 C 145.096 -1.62023 3.04701 0
M  V30 1656 C 144.209 -1.05086 4.19024 0
M  V30 1657 C 143.344 -2.15496 4.85525 0
M  V30 1658 C 142.383 -1.5601 5.91884 0
M  V30 1659 N 141.52 -2.60241 6.52088 0
M  V30 1660 H 146.36 0.137864 2.97681 0
M  V30 1661 H 143.897 0.0798061 1.46883 0
M  V30 1662 H 145.855 -2.28887 3.48807 0
M  V30 1663 H 144.485 -2.2138 2.34927 0
M  V30 1664 H 143.537 -0.27259 3.79422 0
M  V30 1665 H 144.849 -0.575926 4.95464 0
M  V30 1666 H 144.003 -2.90186 5.32801 0
M  V30 1667 H 142.742 -2.66341 4.08551 0
M  V30 1668 H 141.747 -0.798338 5.43973 0
M  V30 1669 H 142.972 -1.05994 6.70777 0
M  V30 1670 H 140.918 -3.10304 5.77968 0
M  V30 1671 H 140.835 -2.17426 7.24059 0
M  V30 1672 H 142.103 -3.34641 7.04014 0
M  V30 1673 N 146.332 -1.57332 0.0918853 0
M  V30 1674 C 147.262 -2.16872 -0.865371 0
M  V30 1675 C 148.243 -1.10118 -1.29646 0
M  V30 1676 O 149.428 -1.38242 -1.36392 0
M  V30 1677 C 146.558 -2.74649 -2.12569 0
M  V30 1678 C 145.512 -3.86747 -1.83333 0
M  V30 1679 C 144.838 -4.31212 -3.16166 0
M  V30 1680 C 146.138 -5.10089 -1.1228 0
M  V30 1681 H 147.832 -2.97114 -0.369307 0
M  V30 1682 H 145.378 -1.42918 -0.176194 0
M  V30 1683 H 147.331 -3.14952 -2.7997 0
M  V30 1684 H 146.055 -1.91657 -2.64452 0
M  V30 1685 H 144.714 -3.46978 -1.18331 0
M  V30 1686 H 144.362 -3.45115 -3.6593 0
M  V30 1687 H 144.062 -5.06788 -2.97388 0
M  V30 1688 H 145.586 -4.74146 -3.84731 0
M  V30 1689 H 147 -5.47582 -1.69785 0
M  V30 1690 H 145.397 -5.91073 -1.03693 0
M  V30 1691 H 146.467 -4.84786 -0.105041 0
M  V30 1692 N 147.81 0.181792 -1.56548 0
M  V30 1693 C 149.226 0.53316 -1.50431 0
M  V30 1694 C 149.426 1.85184 -0.794297 0
M  V30 1695 O 148.482 2.50058 -0.350318 0
M  V30 1696 C 149.795 0.575597 -2.9514 0
M  V30 1697 C 151.343 0.663519 -3.05886 0
M  V30 1698 C 151.818 0.736946 -4.52032 0
M  V30 1699 N 153.309 0.800118 -4.56237 0
M  V30 1700 C 154.044 0.877327 -5.66649 0
M  V30 1701 N 153.54 0.916016 -6.86718 0
M  V30 1702 N 155.333 0.915542 -5.54594 0
M  V30 1703 H 147.484 -0.683025 -2.01118 0
M  V30 1704 H 149.747 -0.244988 -0.915797 0
M  V30 1705 H 149.453 -0.324482 -3.502 0
M  V30 1706 H 149.327 1.42572 -3.49218 0
M  V30 1707 H 151.714 1.55403 -2.50867 0
M  V30 1708 H 151.795 -0.21307 -2.54911 0
M  V30 1709 H 151.439 -0.149262 -5.07681 0
M  V30 1710 H 151.369 1.62953 -5.00753 0
M  V30 1711 H 153.86 0.778926 -3.69785 0
M  V30 1712 H 154.173 0.975813 -7.66614 0
M  V30 1713 H 152.518 0.884469 -6.89349 0
M  V30 1714 H 155.709 0.882245 -4.59711 0
M  V30 1715 H 155.882 0.972253 -6.40665 0
M  V30 1716 N 149.288 1.51039 0.449983 0
M  V30 1717 C 150.218 1.74379 1.55288 0
M  V30 1718 C 151.199 0.593236 1.5942 0
M  V30 1719 O 152.384 0.834625 1.7535 0
M  V30 1720 C 149.514 1.85728 2.93466 0
M  V30 1721 C 148.468 3.01078 3.04197 0
M  V30 1722 C 147.794 2.97595 4.44231 0
M  V30 1723 C 149.094 4.41254 2.7945 0
M  V30 1724 H 150.788 2.66725 1.36008 0
M  V30 1725 H 148.334 1.2835 0.652864 0
M  V30 1726 H 150.287 2.0064 3.70569 0
M  V30 1727 H 149.011 0.900207 3.13949 0
M  V30 1728 H 147.67 2.85851 2.29531 0
M  V30 1729 H 147.318 1.99691 4.61663 0
M  V30 1730 H 147.018 3.75046 4.52343 0
M  V30 1731 H 148.542 3.14583 5.23326 0
M  V30 1732 H 149.956 4.56897 3.46292 0
M  V30 1733 H 148.353 5.20315 2.98985 0
M  V30 1734 H 149.423 4.52164 1.75144 0
M  V30 1735 N 150.766 -0.704594 1.40972 0
M  V30 1736 C 151.991 -1.49858 1.43378 0
M  V30 1737 C 152.416 -1.88061 0.038184 0
M  V30 1738 O 151.774 -1.5402 -0.956425 0
M  V30 1739 C 151.822 -2.74333 2.34038 0
M  V30 1740 O 150.926 -3.7147 1.7912 0
M  V30 1741 H 150.267 -0.45139 0.486974 0
M  V30 1742 H 152.797 -0.866832 1.8533 0
M  V30 1743 H 152.807 -3.22741 2.49604 0
M  V30 1744 H 151.482 -2.45863 3.35446 0
M  V30 1745 H 150.059 -3.30363 1.72958 0
M  V30 1746 N 152.244 -1.26651 -0.937939 0
M  V30 1747 C 153.66 -1.03834 -1.21205 0
M  V30 1748 C 153.86 0.234502 -2.00131 0
M  V30 1749 O 152.916 0.942767 -2.3424 0
M  V30 1750 C 154.229 -2.27167 -1.97017 0
M  V30 1751 C 155.777 -2.32101 -2.09996 0
M  V30 1752 C 156.252 -3.55136 -2.8921 0
M  V30 1753 N 157.743 -3.55632 -2.96783 0
M  V30 1754 C 158.478 -4.475 -3.58512 0
M  V30 1755 N 157.974 -5.4966 -4.21717 0
M  V30 1756 N 159.767 -4.35145 -3.55816 0
M  V30 1757 H 151.918 -2.08398 -0.410391 0
M  V30 1758 H 154.181 -0.916031 -0.244114 0
M  V30 1759 H 153.887 -3.19765 -1.46434 0
M  V30 1760 H 153.761 -2.31672 -2.97671 0
M  V30 1761 H 156.148 -1.40015 -2.59769 0
M  V30 1762 H 156.229 -2.31605 -1.08594 0
M  V30 1763 H 155.873 -4.47553 -2.40123 0
M  V30 1764 H 155.803 -3.5288 -3.90875 0
M  V30 1765 H 158.294 -2.81743 -2.51852 0
M  V30 1766 H 158.607 -6.15943 -4.66727 0
M  V30 1767 H 156.952 -5.53514 -4.20294 0
M  V30 1768 H 160.143 -3.5455 -3.05634 0
M  V30 1769 H 160.316 -5.06934 -4.03636 0
M  V30 1770 N 153.722 1.14298 -1.08507 0
M  V30 1771 C 154.971 1.84708 -0.810305 0
M  V30 1772 C 155.284 1.83903 0.666271 0
M  V30 1773 O 156.49 2.50112 1.05624 0
M  V30 1774 C 154.946 3.31572 -1.39957 0
M  V30 1775 C 154.554 3.40791 -2.90801 0
M  V30 1776 C 156.298 4.07087 -1.20334 0
M  V30 1777 C 154.205 4.81872 -3.4286 0
M  V30 1778 H 153.135 0.691985 -0.299454 0
M  V30 1779 H 155.786 1.28841 -1.30661 0
M  V30 1780 H 154.168 3.87183 -0.830976 0
M  V30 1781 H 155.342 2.95225 -3.53806 0
M  V30 1782 H 153.657 2.78732 -3.0935 0
M  V30 1783 H 156.254 5.11225 -1.56693 0
M  V30 1784 H 156.597 4.16054 -0.143237 0
M  V30 1785 H 157.13 3.57779 -1.73893 0
M  V30 1786 H 153.869 4.78094 -4.48449 0
M  V30 1787 H 153.389 5.27972 -2.84615 0
M  V30 1788 H 155.068 5.50765 -3.39509 0
M  V30 1789 N 155.201 0.870884 1.31352 0
M  V30 1790 C 156.447 0.482987 1.96965 0
M  V30 1791 C 156.78 -0.962462 1.68672 0
M  V30 1792 O 156.055 -1.6779 0.98371 0
M  V30 1793 C 156.338 0.741752 3.52378 0
M  V30 1794 C 156.191 2.2368 3.9024 0
M  V30 1795 C 157.51 0.208838 4.39604 0
M  V30 1796 H 154.629 0.176955 0.715441 0
M  V30 1797 H 157.271 1.09229 1.55464 0
M  V30 1798 H 155.421 0.223149 3.87859 0
M  V30 1799 H 157.093 2.82273 3.64856 0
M  V30 1800 H 155.336 2.70901 3.38814 0
M  V30 1801 H 156.007 2.3685 4.98604 0
M  V30 1802 H 158.483 0.652529 4.10952 0
M  V30 1803 H 157.359 0.419336 5.47296 0
M  V30 1804 H 157.62 -0.889275 4.33064 0
M  V30 1805 N 156.679 -1.44442 0.630414 0
M  V30 1806 C 157.589 -2.34476 -0.0761693 0
M  V30 1807 C 158.605 -1.52576 -0.836449 0
M  V30 1808 O 159.781 -1.85307 -0.788874 0
M  V30 1809 C 156.846 -3.30545 -1.04599 0
M  V30 1810 C 155.907 -4.28352 -0.28516 0
M  V30 1811 C 155.14 -5.19831 -1.20878 0
M  V30 1812 O 155.363 -5.15223 -2.44747 0
M  V30 1813 O 154.297 -5.97892 -0.693491 0
M  V30 1814 H 158.123 -2.96345 0.664324 0
M  V30 1815 H 155.708 -1.44203 0.39061 0
M  V30 1816 H 157.59 -3.89681 -1.60396 0
M  V30 1817 H 156.265 -2.7121 -1.76711 0
M  V30 1818 H 155.172 -3.72764 0.315837 0
M  V30 1819 H 156.505 -4.90605 0.395924 0
M  V30 1820 N 158.157 -0.370918 -1.53173 0
M  V30 1821 C 159.434 0.273754 -1.93675 0
M  V30 1822 C 159.814 1.65938 -1.3049 0
M  V30 1823 O 159.162 2.23698 -0.465999 0
M  V30 1824 C 159.372 0.318602 -3.47543 0
M  V30 1825 C 160.72 0.556392 -4.20939 0
M  V30 1826 O 161.744 0.399587 -3.53952 0
M  V30 1827 O 160.603 0.862133 -5.39657 0
M  V30 1828 H 157.697 0.165448 -0.810281 0
M  V30 1829 H 160.243 -0.42409 -1.64315 0
M  V30 1830 H 159.015 -0.652687 -3.85818 0
M  V30 1831 H 158.638 1.06212 -3.83151 0
M  V30 1832 N 159.635 1.57281 -0.100228 0
M  V30 1833 C 161.046 1.81725 0.428107 0
M  V30 1834 C 161.397 1.01619 1.67833 0
M  V30 1835 O 160.522 0.247098 2.14985 0
M  V30 1836 C 161.117 3.29617 0.78347 0
M  V30 1837 C 159.676 3.54808 1.25653 0
M  V30 1838 C 158.823 2.76118 0.255752 0
M  V30 1839 H 161.774 1.55324 -0.325608 0
M  V30 1840 H 161.795 3.4322 1.64256 0
M  V30 1841 H 161.307 3.87893 -0.12665 0
M  V30 1842 H 159.408 3.01868 2.18418 0
M  V30 1843 H 159.521 4.63443 1.21482 0
M  V30 1844 H 157.885 2.43745 0.738956 0
M  V30 1845 H 158.668 3.37145 -0.647136 0
M  V30 1846 N 161.113 -0.173488 1.56642 0
M  V30 1847 C 162.023 -1.23482 1.99473 0
M  V30 1848 C 163.039 -1.48567 0.905752 0
M  V30 1849 O 164.215 -1.60758 1.21321 0
M  V30 1850 C 161.28 -2.55444 2.34413 0
M  V30 1851 C 160.341 -2.38241 3.57127 0
M  V30 1852 C 159.574 -3.63909 3.90392 0
M  V30 1853 O 159.797 -4.68996 3.24653 0
M  V30 1854 O 158.731 -3.58149 4.83749 0
M  V30 1855 H 162.557 -0.901279 2.90018 0
M  V30 1856 H 160.142 -0.380185 1.44482 0
M  V30 1857 H 162.024 -3.33292 2.57865 0
M  V30 1858 H 160.699 -2.88382 1.4703 0
M  V30 1859 H 159.606 -1.58431 3.38896 0
M  V30 1860 H 160.939 -2.10228 4.45045 0
M  V30 1861 N 162.591 -1.51276 -0.441967 0
M  V30 1862 C 163.837 -1.63958 -1.19355 0
M  V30 1863 C 164.17 -0.352543 -1.90973 0
M  V30 1864 O 163.445 0.647627 -1.83401 0
M  V30 1865 C 163.728 -2.83979 -2.21422 0
M  V30 1866 C 163.581 -4.22646 -1.53918 0
M  V30 1867 C 164.9 -2.99521 -3.22451 0
M  V30 1868 H 162.019 -0.596709 -0.432559 0
M  V30 1869 H 164.661 -1.83748 -0.483398 0
M  V30 1870 H 162.811 -2.67237 -2.81987 0
M  V30 1871 H 164.483 -4.51045 -0.967256 0
M  V30 1872 H 162.726 -4.25558 -0.841615 0
M  V30 1873 H 163.397 -5.02609 -2.28229 0
M  V30 1874 H 165.873 -3.14944 -2.71937 0
M  V30 1875 H 164.749 -3.85072 -3.91166 0
M  V30 1876 H 165.01 -2.11391 -3.88287 0
M  V30 1877 N 164.069 0.697108 -1.41344 0
M  V30 1878 C 165.299 1.48377 -1.43763 0
M  V30 1879 C 165.707 1.89156 -0.0408726 0
M  V30 1880 O 165.05 1.57239 0.949812 0
M  V30 1881 C 165.112 2.7781 -2.2817 0
M  V30 1882 C 164.776 2.59244 -3.76353 0
M  V30 1883 C 165.773 2.25292 -4.68551 0
M  V30 1884 C 163.458 2.74933 -4.20378 0
M  V30 1885 C 165.452 2.07264 -6.02761 0
M  V30 1886 C 163.139 2.56521 -5.54653 0
M  V30 1887 C 164.137 2.22737 -6.4566 0
M  V30 1888 O 163.825 2.04485 -7.77458 0
M  V30 1889 H 163.557 0.463842 -0.491759 0
M  V30 1890 H 166.111 0.865934 -1.86255 0
M  V30 1891 H 164.341 3.41995 -1.8049 0
M  V30 1892 H 166.03 3.39608 -2.22309 0
M  V30 1893 H 166.796 2.12787 -4.35829 0
M  V30 1894 H 162.675 3.00213 -3.49848 0
M  V30 1895 H 166.219 1.80817 -6.73759 0
M  V30 1896 H 162.116 2.68616 -5.86955 0
M  V30 1897 H 162.884 2.1926 -7.88586 0
M  V30 1898 N 165.547 1.27147 0.931209 0
M  V30 1899 C 166.479 1.05364 2.03546 0
M  V30 1900 C 167.492 0.0108438 1.62796 0
M  V30 1901 O 168.681 0.25202 1.76712 0
M  V30 1902 C 165.781 0.575566 3.33977 0
M  V30 1903 C 164.954 1.68985 4.03439 0
M  V30 1904 C 164.013 1.20813 5.12143 0
M  V30 1905 O 163.039 1.90712 5.363 0
M  V30 1906 N 164.241 0.0618851 5.80467 0
M  V30 1907 H 167.006 2.00454 2.22796 0
M  V30 1908 H 164.567 1.18666 1.10136 0
M  V30 1909 H 166.559 0.237264 4.04004 0
M  V30 1910 H 165.129 -0.282016 3.11325 0
M  V30 1911 H 164.349 2.19861 3.27192 0
M  V30 1912 H 165.637 2.4378 4.46597 0
M  V30 1913 H 165.035 -0.521621 5.6329 0
M  V30 1914 H 163.592 -0.217264 6.51438 0
M  V30 1915 N 167.025 -1.13721 1.09112 0
M  V30 1916 C 168.273 -1.84559 0.823562 0
M  V30 1917 C 168.594 -1.83754 -0.652658 0
M  V30 1918 O 167.864 -1.29102 -1.47342 0
M  V30 1919 H 166.444 -0.683376 0.301673 0
M  V30 1920 H 169.106 -1.37771 1.37859 0
M  V30 1921 H 168.202 -2.8917 1.17419 0
M  V30 1922 N 168.503 -0.877838 -1.30888 0
M  V30 1923 C 169.433 -0.35534 -2.3078 0
M  V30 1924 C 170.414 0.557994 -1.60687 0
M  V30 1925 O 171.599 0.473355 -1.88343 0
M  V30 1926 C 168.729 0.437221 -3.44537 0
M  V30 1927 C 167.683 -0.383715 -4.26276 0
M  V30 1928 C 167.009 0.535014 -5.32017 0
M  V30 1929 C 168.309 -1.62201 -4.96476 0
M  V30 1930 H 170.003 -1.19007 -2.74732 0
M  V30 1931 H 167.549 -0.573698 -1.32078 0
M  V30 1932 H 169.502 0.813334 -4.13477 0
M  V30 1933 H 168.226 1.30553 -2.99372 0
M  V30 1934 H 166.885 -0.741874 -3.59015 0
M  V30 1935 H 166.533 1.40083 -4.831 0
M  V30 1936 H 166.233 -0.0104211 -5.87599 0
M  V30 1937 H 167.757 0.907799 -6.03814 0
M  V30 1938 H 169.171 -1.31689 -5.5797 0
M  V30 1939 H 167.568 -2.10711 -5.61891 0
M  V30 1940 H 168.638 -2.37044 -4.23011 0
M  V30 1941 N 169.982 1.44106 -0.638065 0
M  V30 1942 C 170.912 2.33448 0.0494287 0
M  V30 1943 C 171.893 1.48606 0.827672 0
M  V30 1944 O 173.078 1.77308 0.792173 0
M  V30 1945 C 170.208 3.31771 1.02691 0
M  V30 1946 C 169.162 4.26485 0.359823 0
M  V30 1947 C 168.488 5.14729 1.44769 0
M  V30 1948 C 169.788 5.17056 -0.738296 0
M  V30 1949 H 171.482 2.91183 -0.696636 0
M  V30 1950 H 169.028 1.40014 -0.336456 0
M  V30 1951 H 170.981 3.93161 1.51666 0
M  V30 1952 H 169.705 2.7226 1.80395 0
M  V30 1953 H 168.364 3.66437 -0.10934 0
M  V30 1954 H 168.012 4.51566 2.21578 0
M  V30 1955 H 167.712 5.78913 1.00668 0
M  V30 1956 H 169.236 5.78991 1.93911 0
M  V30 1957 H 170.65 5.72342 -0.331354 0
M  V30 1958 H 169.047 5.89879 -1.10286 0
M  V30 1959 H 170.117 4.57652 -1.60258 0
M  V30 1960 N 171.46 0.379036 1.52974 0
M  V30 1961 C 172.737 -0.263479 1.93817 0
M  V30 1962 C 173.117 -1.65244 1.31368 0
M  V30 1963 O 172.465 -2.23448 0.477856 0
M  V30 1964 C 172.675 -0.300166 3.47707 0
M  V30 1965 C 174.023 -0.534061 4.21228 0
M  V30 1966 O 175.047 -0.38081 3.54159 0
M  V30 1967 O 173.906 -0.833501 5.40106 0
M  V30 1968 H 171 -0.161149 0.811147 0
M  V30 1969 H 173.546 0.432798 1.64088 0
M  V30 1970 H 172.318 0.673138 3.85467 0
M  V30 1971 H 171.941 -1.04179 3.83709 0
M  V30 1972 N 172.938 -1.57226 0.108567 0
M  V30 1973 C 173.885 -2.14756 -0.845481 0
M  V30 1974 C 174.855 -1.06971 -1.27068 0
M  V30 1975 O 176.04 -1.34827 -1.35005 0
M  V30 1976 C 173.18 -2.74298 -2.09415 0
M  V30 1977 C 172.293 -3.96358 -1.71826 0
M  V30 1978 C 171.428 -4.44021 -2.9158 0
M  V30 1979 C 170.467 -5.58637 -2.50181 0
M  V30 1980 N 169.604 -6.01091 -3.62814 0
M  V30 1981 H 174.444 -2.95961 -0.348035 0
M  V30 1982 H 171.981 -1.46226 -0.160106 0
M  V30 1983 H 173.939 -3.06945 -2.82561 0
M  V30 1984 H 172.569 -1.95801 -2.56636 0
M  V30 1985 H 171.621 -3.69939 -0.885947 0
M  V30 1986 H 172.933 -4.79504 -1.37394 0
M  V30 1987 H 172.087 -4.78522 -3.72963 0
M  V30 1988 H 170.826 -3.59803 -3.29231 0
M  V30 1989 H 169.831 -5.23751 -1.67228 0
M  V30 1990 H 171.056 -6.44613 -2.13659 0
M  V30 1991 H 169.002 -5.19817 -4.00158 0
M  V30 1992 H 168.919 -6.79066 -3.32273 0
M  V30 1993 H 170.187 -6.40227 -4.44668 0
M  V30 1994 N 174.416 0.165178 -1.56732 0
M  V30 1995 C 175.346 1.20651 -1.99914 0
M  V30 1996 C 176.327 1.45827 -0.875705 0
M  V30 1997 O 177.512 1.57057 -1.14223 0
M  V30 1998 C 174.642 2.54401 -2.36427 0
M  V30 1999 C 173.596 2.43782 -3.51787 0
M  V30 2000 C 172.922 3.82078 -3.7406 0
M  V30 2001 C 174.222 1.93732 -4.85041 0
M  V30 2002 H 175.916 0.847534 -2.87154 0
M  V30 2003 H 173.462 0.40625 -1.38151 0
M  V30 2004 H 175.415 3.27458 -2.65234 0
M  V30 2005 H 174.139 2.92098 -1.46103 0
M  V30 2006 H 172.798 1.73178 -3.23117 0
M  V30 2007 H 172.446 4.17179 -2.81017 0
M  V30 2008 H 172.146 3.7584 -4.51684 0
M  V30 2009 H 173.67 4.56712 -4.05274 0
M  V30 2010 H 175.084 2.56569 -5.12684 0
M  V30 2011 H 173.481 1.98428 -5.66345 0
M  V30 2012 H 174.551 0.891962 -4.76626 0
M  V30 2013 N 175.894 1.51508 0.433938 0
M  V30 2014 C 177.14 1.64588 1.18484 0
M  V30 2015 C 177.473 0.362666 1.90784 0
M  V30 2016 O 176.748 -0.637892 1.83742 0
M  V30 2017 C 177.031 2.85149 2.19913 0
M  V30 2018 C 176.884 4.23456 1.51674 0
M  V30 2019 C 178.203 3.01227 3.20858 0
M  V30 2020 H 175.322 0.598994 0.429389 0
M  V30 2021 H 177.964 1.84002 0.473647 0
M  V30 2022 H 176.114 2.68729 2.80566 0
M  V30 2023 H 177.786 4.51552 0.943322 0
M  V30 2024 H 176.029 4.25998 0.819035 0
M  V30 2025 H 176.7 5.03812 2.2556 0
M  V30 2026 H 179.176 3.16382 2.70263 0
M  V30 2027 H 178.052 3.87141 3.89118 0
M  V30 2028 H 178.313 2.13447 3.8716 0
M  V30 2029 N 177.372 -0.689602 1.41712 0
M  V30 2030 C 178.302 -1.81577 1.46806 0
M  V30 2031 C 179.283 -1.66945 0.326105 0
M  V30 2032 O 180.468 -1.86588 0.538377 0
M  V30 2033 C 177.598 -3.19762 1.35535 0
M  V30 2034 C 176.552 -3.49107 2.47605 0
M  V30 2035 C 175.878 -4.86711 2.21397 0
M  V30 2036 C 177.178 -3.47483 3.89939 0
M  V30 2037 H 178.872 -1.7757 2.41058 0
M  V30 2038 H 176.418 -0.852887 1.16025 0
M  V30 2039 H 178.371 -3.98263 1.3771 0
M  V30 2040 H 177.095 -3.24409 0.377708 0
M  V30 2041 H 175.754 -2.72959 2.44722 0
M  V30 2042 H 175.402 -4.8799 1.21961 0
M  V30 2043 H 175.102 -5.0731 2.96497 0
M  V30 2044 H 176.626 -5.67515 2.25297 0
M  V30 2045 H 178.04 -4.1598 3.94505 0
M  V30 2046 H 176.437 -3.79615 4.64771 0
M  V30 2047 H 177.507 -2.46341 4.17665 0
M  V30 2048 N 178.85 -1.27639 -0.924453 0
M  V30 2049 C 179.782 -1.06442 -2.02985 0
M  V30 2050 C 180.795 -0.0194771 -1.62788 0
M  V30 2051 O 181.984 -0.261388 -1.76576 0
M  V30 2052 C 179.084 -0.59327 -3.33667 0
M  V30 2053 C 178.257 -1.71123 -4.02537 0
M  V30 2054 C 177.316 -1.23527 -5.11495 0
M  V30 2055 O 176.342 -1.93553 -5.35281 0
M  V30 2056 N 177.544 -0.0926678 -5.80426 0
M  V30 2057 H 180.309 -2.01633 -2.2173 0
M  V30 2058 H 177.87 -1.19248 -1.09505 0
M  V30 2059 H 179.862 -0.258686 -4.03872 0
M  V30 2060 H 178.432 0.265502 -3.1147 0
M  V30 2061 H 177.652 -2.21593 -3.26022 0
M  V30 2062 H 178.94 -2.46145 -4.45298 0
M  V30 2063 H 178.338 0.491741 -5.63559 0
M  V30 2064 H 176.895 0.182714 -6.51544 0
M  V30 2065 N 180.328 1.1314 -1.09713 0
M  V30 2066 C 181.576 1.84119 -0.833338 0
M  V30 2067 C 181.897 1.84097 0.642904 0
M  V30 2068 O 181.167 1.29881 1.46655 0
M  V30 2069 H 179.747 0.681766 -0.305293 0
M  V30 2070 H 182.409 1.37038 -1.38588 0
M  V30 2071 H 181.505 2.88543 -1.18951 0
M  V30 2072 N 181.806 0.884767 1.30421 0
M  V30 2073 C 182.736 0.367574 2.30589 0
M  V30 2074 C 183.717 -0.549464 1.60981 0
M  V30 2075 O 184.902 -0.46336 1.88591 0
M  V30 2076 C 182.032 -0.418944 3.44764 0
M  V30 2077 C 180.986 0.406316 4.26067 0
M  V30 2078 C 180.312 -0.506793 5.32293 0
M  V30 2079 C 181.612 1.64832 4.95608 0
M  V30 2080 H 183.306 1.20462 2.74097 0
M  V30 2081 H 180.852 0.580695 1.31772 0
M  V30 2082 H 182.805 -0.791395 4.13902 0
M  V30 2083 H 181.529 -1.28964 3.0006 0
M  V30 2084 H 180.188 0.760903 3.58617 0
M  V30 2085 H 179.836 -1.37519 4.83836 0
M  V30 2086 H 179.536 0.0415828 5.87585 0
M  V30 2087 H 181.06 -0.875764 6.04287 0
M  V30 2088 H 182.474 1.34646 5.57264 0
M  V30 2089 H 180.871 2.13688 5.60765 0
M  V30 2090 H 181.941 2.39284 4.21748 0
M  V30 2091 N 183.284 -1.43765 0.645699 0
M  V30 2092 C 184.214 -2.33471 -0.0370477 0
M  V30 2093 C 185.195 -1.49042 -0.819779 0
M  V30 2094 O 186.38 -1.77726 -0.782758 0
M  V30 2095 C 183.51 -3.32311 -1.0093 0
M  V30 2096 C 182.464 -4.2667 -0.337201 0
M  V30 2097 C 181.79 -5.1549 -1.42037 0
M  V30 2098 C 183.09 -5.16657 0.765706 0
M  V30 2099 H 184.784 -2.90809 0.712069 0
M  V30 2100 H 182.33 -1.39834 0.343876 0
M  V30 2101 H 184.283 -3.9396 -1.49578 0
M  V30 2102 H 183.007 -2.73213 -1.78948 0
M  V30 2103 H 181.666 -3.66374 0.128771 0
M  V30 2104 H 181.314 -4.52735 -2.1918 0
M  V30 2105 H 181.014 -5.79438 -0.975966 0
M  V30 2106 H 182.538 -5.80012 -1.90838 0
M  V30 2107 H 183.952 -5.72158 0.361702 0
M  V30 2108 H 182.349 -5.89286 1.13413 0
M  V30 2109 H 183.419 -4.56796 1.62683 0
M  V30 2110 N 184.763 -0.387143 -1.52771 0
M  V30 2111 C 186.179 -0.037007 -1.59557 0
M  V30 2112 C 186.379 1.44801 -1.40124 0
M  V30 2113 O 185.435 2.21227 -1.21716 0
M  V30 2114 C 186.748 -0.512256 -2.96305 0
M  V30 2115 C 188.296 -0.468328 -3.09476 0
M  V30 2116 C 188.771 -0.919731 -4.4867 0
M  V30 2117 N 190.262 -0.875656 -4.54848 0
M  V30 2118 C 190.997 -1.19637 -5.6078 0
M  V30 2119 N 190.493 -1.58745 -6.74368 0
M  V30 2120 N 192.286 -1.11776 -5.50874 0
M  V30 2121 H 184.437 -1.35395 -1.63652 0
M  V30 2122 H 186.7 -0.554818 -0.768688 0
M  V30 2123 H 186.406 -1.54935 -3.15734 0
M  V30 2124 H 186.28 0.089805 -3.77093 0
M  V30 2125 H 188.667 0.559671 -2.89744 0
M  V30 2126 H 188.748 -1.10616 -2.30646 0
M  V30 2127 H 188.392 -1.94595 -4.69143 0
M  V30 2128 H 188.322 -0.258927 -5.25963 0
M  V30 2129 H 190.813 -0.587843 -3.733 0
M  V30 2130 H 191.126 -1.81586 -7.51163 0
M  V30 2131 H 189.471 -1.6263 -6.75705 0
M  V30 2132 H 192.662 -0.811264 -4.61016 0
M  V30 2133 H 192.835 -1.37103 -6.3333 0
M  V30 2134 N 186.241 1.57166 -0.116904 0
M  V30 2135 C 187.171 2.18222 0.830759 0
M  V30 2136 C 188.152 1.12167 1.27877 0
M  V30 2137 O 189.337 1.40394 1.34176 0
M  V30 2138 C 186.467 2.77996 2.08172 0
M  V30 2139 C 185.421 3.89614 1.77157 0
M  V30 2140 C 184.747 4.36187 3.09265 0
M  V30 2141 C 186.047 5.1181 1.04151 0
M  V30 2142 H 187.741 2.97664 0.321992 0
M  V30 2143 H 185.287 1.4318 0.153434 0
M  V30 2144 H 187.24 3.19366 2.74924 0
M  V30 2145 H 185.964 1.9584 2.6137 0
M  V30 2146 H 184.623 3.48816 1.12796 0
M  V30 2147 H 184.271 3.50893 3.60393 0
M  V30 2148 H 183.971 5.11455 2.89288 0
M  V30 2149 H 185.495 4.80207 3.77139 0
M  V30 2150 H 186.909 5.50214 1.61052 0
M  V30 2151 H 185.306 5.92648 0.942762 0
M  V30 2152 H 186.376 4.84892 0.0279022 0
M  V30 2153 N 187.719 -0.156864 1.56817 0
M  V30 2154 C 188.649 -1.19589 2.00551 0
M  V30 2155 C 189.63 -1.4536 0.883426 0
M  V30 2156 O 190.815 -1.56449 1.15054 0
M  V30 2157 C 187.945 -2.53143 2.37773 0
M  V30 2158 C 186.899 -2.41913 3.53075 0
M  V30 2159 C 186.225 -3.80088 3.76081 0
M  V30 2160 C 187.525 -1.91157 4.86062 0
M  V30 2161 H 189.219 -0.832293 2.87599 0
M  V30 2162 H 186.765 -0.398918 1.38364 0
M  V30 2163 H 188.718 -3.26047 2.66967 0
M  V30 2164 H 187.442 -2.91319 1.4765 0
M  V30 2165 H 186.101 -1.71462 3.24031 0
M  V30 2166 H 185.749 -4.15683 2.83225 0
M  V30 2167 H 185.449 -3.73439 4.53671 0
M  V30 2168 H 186.973 -4.54556 4.0769 0
M  V30 2169 H 188.387 -2.53846 5.14038 0
M  V30 2170 H 186.784 -1.95422 5.67389 0
M  V30 2171 H 187.854 -0.866673 4.77092 0
M  V30 2172 N 189.197 -1.51736 -0.425897 0
M  V30 2173 C 190.107 -1.76738 -1.54275 0
M  V30 2174 C 191.123 -0.65211 -1.61318 0
M  V30 2175 O 192.299 -0.935654 -1.78346 0
M  V30 2176 C 189.364 -1.89755 -2.90162 0
M  V30 2177 C 188.425 -3.13633 -2.93143 0
M  V30 2178 C 187.658 -3.2602 -4.22548 0
M  V30 2179 O 187.881 -2.44067 -5.15546 0
M  V30 2180 O 186.815 -4.19071 -4.32046 0
M  V30 2181 H 190.641 -2.71502 -1.36089 0
M  V30 2182 H 188.226 -1.36376 -0.610069 0
M  V30 2183 H 190.108 -2.00236 -3.70788 0
M  V30 2184 H 188.783 -0.981785 -3.08452 0
M  V30 2185 H 187.69 -3.08622 -2.11431 0
M  V30 2186 H 189.023 -4.04936 -2.798 0
M  V30 2187 N 190.675 0.682077 -1.42076 0
M  V30 2188 C 192.086 1.26246 -1.37546 0
M  V30 2189 C 192.437 1.96092 -0.0651481 0
M  V30 2190 O 191.562 1.99587 0.836297 0
M  V30 2191 C 192.157 2.29594 -2.49143 0
M  V30 2192 C 190.716 2.83175 -2.47969 0
M  V30 2193 C 189.863 1.57395 -2.28303 0
M  V30 2194 H 192.814 0.475937 -1.51395 0
M  V30 2195 H 192.835 3.11175 -2.18976 0
M  V30 2196 H 192.347 1.78729 -3.44496 0
M  V30 2197 H 190.448 3.3818 -1.56413 0
M  V30 2198 H 190.561 3.32687 -3.44755 0
M  V30 2199 H 188.925 1.83699 -1.76428 0
M  V30 2200 H 189.708 1.08507 -3.25701 0
M  V30 2201 N 192.153 1.28127 0.917671 0
M  V30 2202 C 193.399 1.15223 1.66888 0
M  V30 2203 C 193.732 -0.299293 1.9188 0
M  V30 2204 O 193.007 -1.21805 1.51637 0
M  V30 2205 C 193.29 1.94706 3.02922 0
M  V30 2206 C 193.143 3.47898 2.85109 0
M  V30 2207 C 194.462 1.75939 4.03402 0
M  V30 2208 H 191.581 0.419946 0.605652 0
M  V30 2209 H 194.223 1.57398 1.06423 0
M  V30 2210 H 192.373 1.58864 3.54534 0
M  V30 2211 H 194.045 3.93624 2.40537 0
M  V30 2212 H 192.288 3.7373 2.20246 0
M  V30 2213 H 192.959 3.98765 3.81694 0
M  V30 2214 H 195.435 2.07209 3.60837 0
M  V30 2215 H 194.311 2.33931 4.96556 0
M  V30 2216 H 194.572 0.709877 4.36364 0
M  V30 2217 N 193.631 -1.12557 1.10312 0
M  V30 2218 C 194.564 -2.1737 0.694674 0
M  V30 2219 C 195.542 -1.59745 -0.303373 0
M  V30 2220 O 196.726 -1.87408 -0.202578 0
M  V30 2221 C 193.853 -3.38691 0.0248052 0
M  V30 2222 C 192.899 -4.14943 0.986121 0
M  V30 2223 S 193.732 -4.73413 2.50281 0
M  V30 2224 C 194.888 -5.9807 1.84562 0
M  V30 2225 H 195.121 -2.5168 1.58255 0
M  V30 2226 H 192.654 -1.23998 0.919992 0
M  V30 2227 H 194.612 -4.08959 -0.355361 0
M  V30 2228 H 193.273 -3.02664 -0.839851 0
M  V30 2229 H 192.466 -5.01854 0.464651 0
M  V30 2230 H 192.068 -3.50377 1.30813 0
M  V30 2231 H 194.36 -6.67232 1.17507 0
M  V30 2232 H 195.303 -6.54841 2.69423 0
M  V30 2233 H 195.711 -5.49073 1.31069 0
M  V30 2234 N 195.109 -0.891671 -1.2995 0
M  V30 2235 C 196.358 -0.509521 -1.95158 0
M  V30 2236 C 196.671 0.947388 -1.71125 0
M  V30 2237 O 197.877 1.43669 -2.30372 0
M  V30 2238 C 196.333 -0.860315 -3.49466 0
M  V30 2239 C 195.941 -2.33545 -3.8231 0
M  V30 2240 C 197.685 -0.547687 -4.20952 0
M  V30 2241 C 195.592 -2.62752 -5.29826 0
M  V30 2242 H 194.522 -0.18682 -0.730489 0
M  V30 2243 H 197.173 -1.08756 -1.47798 0
M  V30 2244 H 195.555 -0.211285 -3.95436 0
M  V30 2245 H 196.729 -3.02936 -3.47227 0
M  V30 2246 H 195.044 -2.61629 -3.23944 0
M  V30 2247 H 197.641 -0.742854 -5.29515 0
M  V30 2248 H 197.984 0.51332 -4.13123 0
M  V30 2249 H 198.517 -1.1542 -3.80688 0
M  V30 2250 H 195.256 -3.6762 -5.42712 0
M  V30 2251 H 194.776 -1.97977 -5.66185 0
M  V30 2252 H 196.455 -2.48601 -5.97333 0
M  V30 2253 N 196.587 1.43421 -0.653314 0
M  V30 2254 C 197.833 2.02111 -0.166992 0
M  V30 2255 C 198.166 1.51423 1.21592 0
M  V30 2256 O 197.441 0.707389 1.8118 0
M  V30 2257 C 197.724 3.5966 -0.177948 0
M  V30 2258 C 197.577 4.20579 -1.59478 0
M  V30 2259 C 198.896 4.37413 0.4856 0
M  V30 2260 H 196.015 0.734374 -0.0621557 0
M  V30 2261 H 198.657 1.70717 -0.834016 0
M  V30 2262 H 196.807 3.86537 0.390032 0
M  V30 2263 H 198.479 4.04732 -2.21336 0
M  V30 2264 H 196.722 3.77226 -2.14204 0
M  V30 2265 H 197.393 5.29665 -1.5543 0
M  V30 2266 H 199.869 4.161 0.00234528 0
M  V30 2267 H 198.745 5.47075 0.447207 0
M  V30 2268 H 199.006 4.13672 1.55974 0
M  V30 2269 N 198.065 0.39524 1.52563 0
M  V30 2270 C 199.481 0.0454682 1.59535 0
M  V30 2271 C 199.681 -1.44056 1.4089 0
M  V30 2272 O 198.737 -2.20579 1.22888 0
M  V30 2273 C 200.05 0.527963 2.96029 0
M  V30 2274 C 201.598 0.484733 3.09224 0
M  V30 2275 C 202.073 0.943512 4.48176 0
M  V30 2276 N 203.564 0.899765 4.54377 0
M  V30 2277 C 204.299 1.22609 5.60138 0
M  V30 2278 N 203.795 1.62319 6.73516 0
M  V30 2279 N 205.588 1.14696 5.50274 0
M  V30 2280 H 197.739 1.36261 1.62931 0
M  V30 2281 H 200.002 0.558887 0.765735 0
M  V30 2282 H 199.708 1.56607 3.14908 0
M  V30 2283 H 199.582 -0.0698056 3.77135 0
M  V30 2284 H 201.969 -0.544298 2.90037 0
M  V30 2285 H 202.05 1.11838 2.30056 0
M  V30 2286 H 201.694 1.9708 4.68104 0
M  V30 2287 H 201.624 0.286817 5.25818 0
M  V30 2288 H 204.115 0.607632 3.72983 0
M  V30 2289 H 204.428 1.85567 7.5019 0
M  V30 2290 H 202.773 1.66211 6.74833 0
M  V30 2291 H 205.964 0.835701 4.6058 0
M  V30 2292 H 206.137 1.40459 6.32594 0
M  V30 2293 N 199.544 -1.57102 0.125237 0
M  V30 2294 C 200.784 -1.97294 -0.534259 0
M  V30 2295 C 201.148 -1.0074 -1.63449 0
M  V30 2296 O 202.349 -1.29893 -2.35332 0
M  V30 2297 C 200.62 -3.41705 -1.04748 0
M  V30 2298 S 202.179 -4.03913 -1.71463 0
M  V30 2299 H 198.997 -0.689517 -0.173458 0
M  V30 2300 H 201.599 -1.94349 0.211797 0
M  V30 2301 H 200.303 -4.09723 -0.235649 0
M  V30 2302 H 199.834 -3.48315 -1.82867 0
M  V30 2303 H 201.849 -3.95182 -3.00077 0
M  V30 2304 N 201.022 0.148545 -1.56898 0
M  V30 2305 C 202.438 0.501131 -1.51528 0
M  V30 2306 C 202.638 1.83458 -0.833399 0
M  V30 2307 O 201.694 2.49259 -0.40328 0
M  V30 2308 C 203.007 0.512864 -2.96294 0
M  V30 2309 C 204.555 0.598487 -3.07225 0
M  V30 2310 C 205.03 0.640897 -4.53494 0
M  V30 2311 N 206.521 0.703163 -4.57832 0
M  V30 2312 C 207.256 0.756935 -5.68382 0
M  V30 2313 N 206.752 0.770147 -6.88506 0
M  V30 2314 N 208.545 0.797698 -5.56411 0
M  V30 2315 H 200.696 -0.725532 -1.99624 0
M  V30 2316 H 202.959 -0.264358 -0.910395 0
M  V30 2317 H 202.665 -0.398691 -3.49433 0
M  V30 2318 H 202.539 1.35133 -3.52163 0
M  V30 2319 H 204.926 1.50046 -2.54106 0
M  V30 2320 H 205.007 -0.267093 -2.54402 0
M  V30 2321 H 204.651 -0.256915 -5.0725 0
M  V30 2322 H 204.581 1.52295 -5.04097 0
M  V30 2323 H 207.072 0.700314 -3.71354 0
M  V30 2324 H 207.385 0.812983 -7.68512 0
M  V30 2325 H 205.73 0.738049 -6.9107 0
M  V30 2326 H 208.921 0.784535 -4.61479 0
M  V30 2327 H 209.094 0.83614 -6.42583 0
M  V30 2328 N 202.5 1.5196 0.417844 0
M  V30 2329 C 203.911 1.57851 0.997 0
M  V30 2330 C 204.262 0.413714 1.91789 0
M  V30 2331 O 203.387 -0.467057 2.113 0
M  V30 2332 C 203.982 2.86085 1.81496 0
M  V30 2333 C 202.541 2.94483 2.34428 0
M  V30 2334 C 201.688 2.52707 1.14169 0
M  V30 2335 H 204.639 1.57455 0.198392 0
M  V30 2336 H 204.66 2.70947 2.67148 0
M  V30 2337 H 204.172 3.70842 1.14446 0
M  V30 2338 H 202.273 2.142 3.04875 0
M  V30 2339 H 202.386 3.98546 2.65891 0
M  V30 2340 H 200.75 2.06353 1.49301 0
M  V30 2341 H 201.533 3.39828 0.486999 0
M  V30 2342 N 203.978 -0.674533 1.42435 0
M  V30 2343 C 204.91 -1.80005 1.41883 0
M  V30 2344 C 205.923 -1.59667 0.31787 0
M  V30 2345 O 207.112 -1.68781 0.580973 0
M  V30 2346 C 204.212 -3.17114 1.19549 0
M  V30 2347 C 203.385 -3.64299 2.42084 0
M  V30 2348 C 202.444 -4.80142 2.15291 0
M  V30 2349 O 201.47 -4.90673 2.88493 0
M  V30 2350 N 202.672 -5.68869 1.1562 0
M  V30 2351 H 205.437 -1.80964 2.38898 0
M  V30 2352 H 202.998 -0.857633 1.37318 0
M  V30 2353 H 204.99 -3.92267 0.995417 0
M  V30 2354 H 203.56 -3.11053 0.310569 0
M  V30 2355 H 202.78 -2.79822 2.77657 0
M  V30 2356 H 204.068 -3.92567 3.23679 0
M  V30 2357 H 203.466 -5.63012 0.550765 0
M  V30 2358 H 202.023 -6.43833 1.016 0
M  V30 2359 N 205.456 -1.28612 -0.910864 0
M  V30 2360 C 206.733 -1.06632 -1.63979 0
M  V30 2361 C 207.113 0.393351 -2.07403 0
M  V30 2362 O 206.461 1.37999 -1.82122 0
M  V30 2363 C 206.671 -2.0436 -2.8291 0
M  V30 2364 C 208.019 -2.34666 -3.5386 0
M  V30 2365 O 209.043 -2.02467 -2.93062 0
M  V30 2366 O 207.902 -2.89631 -4.63439 0
M  V30 2367 H 204.996 -0.407737 -0.7195 0
M  V30 2368 H 207.542 -1.39942 -0.959914 0
M  V30 2369 H 206.314 -3.02727 -2.47936 0
M  V30 2370 H 205.937 -1.71714 -3.58609 0
M  V30 2371 N 206.934 1.1197 -1.10907 0
M  V30 2372 C 207.864 2.19928 -0.784473 0
M  V30 2373 C 208.845 1.6833 0.244726 0
M  V30 2374 O 210.03 1.93892 0.109418 0
M  V30 2375 C 207.16 3.46597 -0.220827 0
M  V30 2376 C 206.114 4.11376 -1.18127 0
M  V30 2377 C 205.44 5.32554 -0.478594 0
M  V30 2378 C 206.74 4.56945 -2.52979 0
M  V30 2379 H 208.434 2.47337 -1.68715 0
M  V30 2380 H 205.98 1.18879 -0.812642 0
M  V30 2381 H 207.933 4.21396 0.0184278 0
M  V30 2382 H 206.657 3.1863 0.717113 0
M  V30 2383 H 205.316 3.38564 -1.40606 0
M  V30 2384 H 204.964 5.00856 0.463976 0
M  V30 2385 H 204.664 5.76844 -1.11912 0
M  V30 2386 H 206.188 6.10096 -0.248 0
M  V30 2387 H 207.602 5.23093 -2.3462 0
M  V30 2388 H 205.999 5.1203 -3.12962 0
M  V30 2389 H 207.069 3.70676 -3.12614 0
M  V30 2390 N 208.412 0.89855 1.29475 0
M  V30 2391 C 209.342 0.39201 2.30186 0
M  V30 2392 C 210.323 -0.532359 1.61555 0
M  V30 2393 O 211.508 -0.443331 1.89072 0
M  V30 2394 C 208.638 -0.382353 3.45189 0
M  V30 2395 C 207.592 0.451483 4.25612 0
M  V30 2396 C 206.918 -0.450307 5.328 0
M  V30 2397 C 208.218 1.70079 4.93832 0
M  V30 2398 H 209.912 1.23362 2.72804 0
M  V30 2399 H 207.458 0.594638 1.31149 0
M  V30 2400 H 209.411 -0.747451 4.14718 0
M  V30 2401 H 208.135 -1.25774 3.01411 0
M  V30 2402 H 206.794 0.798897 3.57789 0
M  V30 2403 H 206.442 -1.32379 4.85268 0
M  V30 2404 H 206.142 0.103902 5.87508 0
M  V30 2405 H 207.666 -0.811623 6.05182 0
M  V30 2406 H 209.08 1.40549 5.55805 0
M  V30 2407 H 207.477 2.19623 5.58467 0
M  V30 2408 H 208.547 2.43744 4.19186 0
M  V30 2409 N 209.89 -1.43072 0.660911 0
M  V30 2410 C 210.82 -2.33497 -0.0122829 0
M  V30 2411 C 211.801 -1.49903 -0.803925 0
M  V30 2412 O 212.986 -1.78546 -0.763864 0
M  V30 2413 C 210.116 -3.33363 -0.973994 0
M  V30 2414 C 209.07 -4.27003 -0.291928 0
M  V30 2415 C 208.396 -5.16967 -1.36562 0
M  V30 2416 C 209.696 -5.15816 0.820462 0
M  V30 2417 H 211.39 -2.90038 0.742873 0
M  V30 2418 H 208.936 -1.39461 0.358688 0
M  V30 2419 H 210.889 -3.95524 -1.45392 0
M  V30 2420 H 209.613 -2.75095 -1.7604 0
M  V30 2421 H 208.272 -3.66217 0.167623 0
M  V30 2422 H 207.92 -4.55034 -2.14366 0
M  V30 2423 H 207.62 -5.80441 -0.914454 0
M  V30 2424 H 209.144 -5.82003 -1.84675 0
M  V30 2425 H 210.558 -5.71742 0.422366 0
M  V30 2426 H 208.955 -5.8805 1.19656 0
M  V30 2427 H 210.025 -4.55045 1.67518 0
M  V30 2428 N 211.368 -0.403325 -1.52352 0
M  V30 2429 C 212.614 0.174605 -2.02047 0
M  V30 2430 C 212.947 1.45282 -1.28867 0
M  V30 2431 O 212.222 1.90483 -0.393257 0
M  V30 2432 C 212.505 0.428238 -3.57545 0
M  V30 2433 C 212.358 -0.866248 -4.4138 0
M  V30 2434 C 213.677 1.21287 -4.23057 0
M  V30 2435 H 210.796 0.0619851 -0.734389 0
M  V30 2436 H 213.438 -0.53565 -1.82293 0
M  V30 2437 H 211.588 1.03327 -3.74507 0
M  V30 2438 H 213.26 -1.50265 -4.3614 0
M  V30 2439 H 211.503 -1.47851 -4.07827 0
M  V30 2440 H 212.174 -0.643249 -5.48239 0
M  V30 2441 H 214.65 0.700703 -4.10158 0
M  V30 2442 H 213.526 1.35909 -5.31808 0
M  V30 2443 H 213.787 2.23193 -3.81625 0
M  V30 2444 N 212.846 1.57033 -0.133567 0
M  V30 2445 C 213.756 2.19632 0.824564 0
M  V30 2446 C 214.772 1.17666 1.28182 0
M  V30 2447 O 215.948 1.50193 1.3418 0
M  V30 2448 C 213.013 2.79499 2.05137 0
M  V30 2449 C 212.074 3.96548 1.64464 0
M  V30 2450 C 211.307 4.5355 2.81297 0
M  V30 2451 O 211.53 4.09438 3.97136 0
M  V30 2452 O 210.464 5.44018 2.57542 0
M  V30 2453 H 214.29 3.01991 0.321766 0
M  V30 2454 H 211.875 1.49112 0.0927889 0
M  V30 2455 H 213.757 3.17602 2.7696 0
M  V30 2456 H 212.432 2.00162 2.54395 0
M  V30 2457 H 211.339 3.63186 0.897048 0
M  V30 2458 H 212.672 4.77364 1.19934 0
M  V30 2459 N 214.325 -0.140222 1.56975 0
M  V30 2460 C 215.288 -1.15689 1.97861 0
M  V30 2461 C 216.288 -1.3549 0.865974 0
M  V30 2462 O 217.478 -1.32367 1.13246 0
M  V30 2463 C 214.61 -2.51582 2.30042 0
M  V30 2464 H 215.803 -0.805971 2.88867 0
M  V30 2465 H 213.356 -0.383801 1.51515 0
M  V30 2466 H 214.091 -2.91632 1.41849 0
M  V30 2467 H 213.876 -2.38569 3.11171 0
M  V30 2468 H 215.366 -3.24792 2.62488 0
M  V30 2469 N 215.803 -1.52179 -0.40978 0
M  V30 2470 C 216.766 -1.74853 -1.48186 0
M  V30 2471 C 217.766 -0.618417 -1.48433 0
M  V30 2472 O 218.956 -0.886286 -1.49969 0
M  V30 2473 C 216.088 -1.8303 -2.87598 0
M  V30 2474 H 217.281 -2.70559 -1.29374 0
M  V30 2475 H 214.834 -1.42586 -0.640233 0
M  V30 2476 H 215.569 -0.89236 -3.11781 0
M  V30 2477 H 215.354 -2.65187 -2.88822 0
M  V30 2478 H 216.844 -2.02316 -3.65319 0
M  V30 2479 N 217.281 0.66697 -1.42791 0
M  V30 2480 C 218.527 1.4291 -1.43891 0
M  V30 2481 C 218.86 1.94114 -0.0578972 0
M  V30 2482 O 218.135 1.71414 0.91911 0
M  V30 2483 C 218.418 2.62049 -2.46987 0
M  V30 2484 C 218.271 2.16426 -3.94309 0
M  V30 2485 C 219.59 3.64266 -2.46978 0
M  V30 2486 H 216.709 0.518306 -0.523954 0
M  V30 2487 H 219.351 0.757321 -1.74255 0
M  V30 2488 H 217.501 3.19361 -2.21225 0
M  V30 2489 H 219.173 1.64221 -4.31079 0
M  V30 2490 H 217.416 1.47925 -4.078 0
M  V30 2491 H 218.087 3.02038 -4.62036 0
M  V30 2492 H 220.563 3.16686 -2.69906 0
M  V30 2493 H 219.439 4.45196 -3.21079 0
M  V30 2494 H 219.7 4.15927 -1.49857 0
M  V30 2495 N 218.759 1.29093 0.90403 0
M  V30 2496 C 219.691 1.09658 2.01266 0
M  V30 2497 C 220.704 0.0453729 1.62737 0
M  V30 2498 O 221.893 0.289446 1.76138 0
M  V30 2499 C 218.993 0.646278 3.32681 0
M  V30 2500 C 218.166 1.77505 3.99763 0
M  V30 2501 C 217.225 1.31649 5.09465 0
M  V30 2502 O 216.251 2.02045 5.32134 0
M  V30 2503 N 217.453 0.184997 5.80205 0
M  V30 2504 H 220.218 2.05135 2.18494 0
M  V30 2505 H 217.779 1.20975 1.07594 0
M  V30 2506 H 219.771 0.322906 4.0341 0
M  V30 2507 H 218.341 -0.215916 3.11853 0
M  V30 2508 H 217.561 2.26752 3.22455 0
M  V30 2509 H 218.849 2.53198 4.41325 0
M  V30 2510 H 218.247 -0.402021 5.6427 0
M  V30 2511 H 216.804 -0.0790358 6.51752 0
M  V30 2512 N 220.237 -1.11381 1.11499 0
M  V30 2513 C 221.184 -2.17439 0.773887 0
M  V30 2514 C 222.154 -1.64132 -0.254899 0
M  V30 2515 O 223.339 -1.90345 -0.13168 0
M  V30 2516 C 220.479 -3.44373 0.223917 0
M  V30 2517 C 219.592 -4.1168 1.30934 0
M  V30 2518 C 218.727 -5.263 0.71984 0
M  V30 2519 C 217.766 -5.85493 1.78507 0
M  V30 2520 N 216.903 -6.91507 1.21502 0
M  V30 2521 H 221.743 -2.45962 1.68246 0
M  V30 2522 H 219.28 -1.20744 0.840191 0
M  V30 2523 H 221.238 -4.17047 -0.112921 0
M  V30 2524 H 219.868 -3.16232 -0.647851 0
M  V30 2525 H 218.92 -3.37073 1.76312 0
M  V30 2526 H 220.232 -4.51729 2.11524 0
M  V30 2527 H 219.386 -6.05785 0.333094 0
M  V30 2528 H 218.125 -4.87559 -0.117377 0
M  V30 2529 H 217.13 -5.04686 2.18111 0
M  V30 2530 H 218.355 -6.26301 2.62533 0
M  V30 2531 H 216.301 -6.54783 0.399455 0
M  V30 2532 H 216.218 -7.30214 1.95763 0
M  V30 2533 H 217.486 -7.74795 0.855181 0
M  V30 2534 N 221.715 -0.905404 -1.28997 0
M  V30 2535 C 222.678 -0.392253 -2.25819 0
M  V30 2536 C 223.678 0.476753 -1.5357 0
M  V30 2537 O 224.868 0.280994 -1.71919 0
M  V30 2538 C 222 0.438588 -3.38067 0
M  V30 2539 H 223.193 -1.24743 -2.72725 0
M  V30 2540 H 220.746 -0.684051 -1.40536 0
M  V30 2541 H 221.481 1.31352 -2.96508 0
M  V30 2542 H 221.266 -0.184167 -3.91667 0
M  V30 2543 H 222.756 0.78873 -4.10084 0
M  V30 2544 N 223.193 1.4272 -0.668489 0
M  V30 2545 C 224.442 2.00846 -0.185389 0
M  V30 2546 C 224.755 1.53442 1.21305 0
M  V30 2547 O 225.961 2.03944 1.79218 0
M  V30 2548 C 224.417 3.58805 -0.280591 0
M  V30 2549 C 224.025 4.15198 -1.68268 0
M  V30 2550 C 225.769 4.24255 0.14412 0
M  V30 2551 C 223.676 5.655 -1.73099 0
M  V30 2552 H 222.606 0.751145 -0.0655475 0
M  V30 2553 H 225.257 1.63516 -0.832752 0
M  V30 2554 H 223.639 3.93608 0.434553 0
M  V30 2555 H 224.813 3.91866 -2.42441 0
M  V30 2556 H 223.128 3.62176 -2.05469 0
M  V30 2557 H 225.725 5.34547 0.128086 0
M  V30 2558 H 226.068 3.99277 1.17827 0
M  V30 2559 H 226.601 3.94389 -0.519798 0
M  V30 2560 H 223.34 5.95268 -2.74475 0
M  V30 2561 H 222.86 5.90842 -1.03274 0
M  V30 2562 H 224.539 6.29808 -1.48158 0
M  V30 2563 N 224.671 0.411399 1.52136 0
M  V30 2564 C 226.082 -0.0576826 1.86611 0
M  V30 2565 C 226.433 -1.44238 1.33003 0
M  V30 2566 O 225.558 -2.05759 0.670228 0
M  V30 2567 C 226.153 -0.111448 3.38617 0
M  V30 2568 C 224.712 -0.52487 3.72723 0
M  V30 2569 C 223.859 0.299176 2.75681 0
M  V30 2570 H 226.81 0.628368 1.4573 0
M  V30 2571 H 226.831 -0.926252 3.69054 0
M  V30 2572 H 226.343 0.896488 3.77604 0
M  V30 2573 H 224.444 -1.53936 3.39315 0
M  V30 2574 H 224.557 -0.267681 4.78352 0
M  V30 2575 H 222.921 -0.238814 2.53578 0
M  V30 2576 H 223.704 1.3055 3.17508 0
M  V30 2577 N 226.149 -1.5696 0.141893 0
M  V30 2578 C 227.059 -2.20066 -0.812905 0
M  V30 2579 C 228.075 -1.18344 -1.27557 0
M  V30 2580 O 229.251 -1.50902 -1.33381 0
M  V30 2581 C 226.316 -2.80583 -2.03652 0
M  V30 2582 C 225.377 -3.97414 -1.62359 0
M  V30 2583 C 224.61 -4.55036 -2.78887 0
M  V30 2584 O 224.833 -4.11538 -3.94959 0
M  V30 2585 O 223.767 -5.45376 -2.54653 0
M  V30 2586 H 227.593 -3.02157 -0.305746 0
M  V30 2587 H 225.178 -1.49159 -0.0848799 0
M  V30 2588 H 227.06 -3.19067 -2.75272 0
M  V30 2589 H 225.735 -2.01508 -2.5333 0
M  V30 2590 H 224.642 -3.63656 -0.877775 0
M  V30 2591 H 225.975 -4.77994 -1.17401 0
M  V30 2592 N 227.627 0.131896 -1.57047 0
M  V30 2593 C 228.857 0.855219 -1.88068 0
M  V30 2594 C 229.265 1.74557 -0.729817 0
M  V30 2595 O 228.608 1.81083 0.308962 0
M  V30 2596 C 228.67 1.75119 -3.13964 0
M  V30 2597 C 228.334 1.03646 -4.45091 0
M  V30 2598 C 229.331 0.383276 -5.18485 0
M  V30 2599 C 227.016 1.02148 -4.91804 0
M  V30 2600 C 229.01 -0.275347 -6.36805 0
M  V30 2601 C 226.697 0.359047 -6.10044 0
M  V30 2602 C 227.695 -0.288222 -6.82392 0
M  V30 2603 O 227.383 -0.94011 -7.98384 0
M  V30 2604 H 227.115 0.251864 -0.627328 0
M  V30 2605 H 229.669 0.124782 -2.05021 0
M  V30 2606 H 227.899 2.52295 -2.9306 0
M  V30 2607 H 229.588 2.3478 -3.31109 0
M  V30 2608 H 230.354 0.386562 -4.83457 0
M  V30 2609 H 226.233 1.5147 -4.35405 0
M  V30 2610 H 229.777 -0.781148 -6.93213 0
M  V30 2611 H 225.674 0.35348 -6.44531 0
M  V30 2612 H 226.442 -0.84329 -8.14144 0
M  V30 2613 N 229.106 1.52395 0.401703 0
M  V30 2614 C 230.039 1.70999 1.51111 0
M  V30 2615 C 231.017 0.55765 1.52738 0
M  V30 2616 O 232.201 0.785912 1.71335 0
M  V30 2617 C 229.328 1.75607 2.8962 0
M  V30 2618 C 228.374 2.97227 3.05873 0
M  V30 2619 S 229.207 4.57439 2.78405 0
M  V30 2620 C 230.363 4.64844 4.19131 0
M  V30 2621 H 230.596 2.6483 1.35102 0
M  V30 2622 H 228.129 1.42527 0.593762 0
M  V30 2623 H 230.087 1.78947 3.69443 0
M  V30 2624 H 228.748 0.828914 3.02965 0
M  V30 2625 H 227.941 2.96955 4.07227 0
M  V30 2626 H 227.543 2.91813 2.33925 0
M  V30 2627 H 229.835 4.42677 5.12877 0
M  V30 2628 H 230.778 5.66807 4.24424 0
M  V30 2629 H 231.186 3.93804 4.04448 0
M  V30 2630 N 230.584 -0.659388 1.43143 0
M  V30 2631 C 231.812 -1.44723 1.47861 0
M  V30 2632 C 232.227 -1.88563 0.0945886 0
M  V30 2633 O 231.584 -1.59108 -0.893915 0
M  V30 2634 C 231.635 -2.68627 2.41913 0
M  V30 2635 O 231.356 -2.26623 3.74932 0
M  V30 2636 C 232.857 -3.62045 2.55809 0
M  V30 2637 H 230.077 -0.444801 0.502387 0
M  V30 2638 H 232.621 -0.808916 1.87821 0
M  V30 2639 H 230.776 -3.28613 2.05164 0
M  V30 2640 H 231.19 -3.06745 4.2545 0
M  V30 2641 H 232.664 -4.45666 3.25708 0
M  V30 2642 H 233.141 -4.08981 1.60099 0
M  V30 2643 H 233.747 -3.07944 2.93344 0
M  V30 2644 N 232.062 -1.29571 -0.897171 0
M  V30 2645 C 233.311 -1.1706 -1.64256 0
M  V30 2646 C 233.624 0.276476 -1.93636 0
M  V30 2647 O 234.83 0.52294 -2.66416 0
M  V30 2648 C 233.286 -2.0475 -2.95982 0
M  V30 2649 C 232.894 -3.54295 -2.74187 0
M  V30 2650 C 234.638 -2.0097 -3.73914 0
M  V30 2651 C 232.545 -4.34081 -4.01656 0
M  V30 2652 H 231.475 -0.43452 -0.616205 0
M  V30 2653 H 234.126 -1.54229 -0.994268 0
M  V30 2654 H 232.508 -1.60452 -3.62038 0
M  V30 2655 H 233.682 -4.06662 -2.1671 0
M  V30 2656 H 231.997 -3.59773 -2.09648 0
M  V30 2657 H 234.594 -2.57838 -4.68427 0
M  V30 2658 H 234.937 -0.990273 -4.0435 0
M  V30 2659 H 235.47 -2.43325 -3.14703 0
M  V30 2660 H 232.209 -5.36671 -3.76384 0
M  V30 2661 H 231.729 -3.86483 -4.58684 0
M  V30 2662 H 233.408 -4.44877 -4.69781 0
M  V30 2663 N 233.54 1.10788 -1.12088 0
M  V30 2664 C 234.765 1.87002 -0.896949 0
M  V30 2665 C 235.19 1.79933 0.548261 0
M  V30 2666 O 234.548 1.16662 1.38779 0
M  V30 2667 C 234.596 3.3349 -1.37174 0
M  V30 2668 O 233.7 4.08745 -0.547831 0
M  V30 2669 H 233.041 0.580397 -0.322545 0
M  V30 2670 H 235.571 1.39996 -1.49206 0
M  V30 2671 H 235.581 3.84339 -1.36922 0
M  V30 2672 H 234.256 3.37951 -2.42408 0
M  V30 2673 H 232.833 3.6776 -0.617034 0
M  V30 2674 N 235.018 0.912232 1.28515 0
M  V30 2675 C 235.95 0.35676 2.26406 0
M  V30 2676 C 236.963 -0.503933 1.54804 0
M  V30 2677 O 238.152 -0.319059 1.75625 0
M  V30 2678 C 235.252 -0.508825 3.35058 0
M  V30 2679 C 234.425 0.329007 4.36161 0
M  V30 2680 C 233.484 -0.471422 5.24084 0
M  V30 2681 O 232.51 0.115482 5.69083 0
M  V30 2682 N 233.712 -1.77479 5.52704 0
M  V30 2683 H 236.477 1.19818 2.74707 0
M  V30 2684 H 234.038 0.778022 1.4198 0
M  V30 2685 H 236.03 -1.051 3.90815 0
M  V30 2686 H 234.6 -1.25095 2.86478 0
M  V30 2687 H 233.82 1.05256 3.79888 0
M  V30 2688 H 235.108 0.90234 5.00735 0
M  V30 2689 H 234.506 -2.27417 5.17975 0
M  V30 2690 H 233.063 -2.26382 6.11224 0
M  V30 2691 N 236.496 -1.42363 0.676048 0
M  V30 2692 C 237.443 -2.308 -0.00150904 0
M  V30 2693 C 238.413 -1.46032 -0.791444 0
M  V30 2694 O 239.598 -1.74861 -0.76344 0
M  V30 2695 C 236.738 -3.31883 -0.945919 0
M  V30 2696 C 235.851 -4.31741 -0.149675 0
M  V30 2697 C 234.986 -5.19898 -1.08995 0
M  V30 2698 C 234.025 -6.11434 -0.285465 0
M  V30 2699 N 233.162 -6.92138 -1.17851 0
M  V30 2700 H 238.002 -2.88187 0.758455 0
M  V30 2701 H 235.539 -1.41952 0.38576 0
M  V30 2702 H 237.497 -3.89019 -1.50731 0
M  V30 2703 H 236.127 -2.76093 -1.6725 0
M  V30 2704 H 235.179 -3.76713 0.528359 0
M  V30 2705 H 236.491 -4.96534 0.474866 0
M  V30 2706 H 235.645 -5.81772 -1.72123 0
M  V30 2707 H 234.384 -4.55284 -1.74837 0
M  V30 2708 H 233.389 -5.48627 0.359018 0
M  V30 2709 H 234.614 -6.78097 0.368883 0
M  V30 2710 H 232.56 -6.30152 -1.82332 0
M  V30 2711 H 232.477 -7.53542 -0.609082 0
M  V30 2712 H 233.745 -7.58499 -1.79722 0
M  V30 2713 N 237.974 -0.419461 -1.51915 0
M  V30 2714 C 238.924 0.418496 -2.24126 0
M  V30 2715 C 239.908 1.00495 -1.25656 0
M  V30 2716 O 241.1 0.926058 -1.50842 0
M  V30 2717 C 238.229 1.52899 -3.07371 0
M  V30 2718 C 237.315 0.952797 -4.13258 0
M  V30 2719 N 237.706 0.104175 -5.05693 0
M  V30 2720 C 236.004 1.22224 -4.28926 0
M  V30 2721 C 236.705 -0.21752 -5.81293 0
M  V30 2722 N 235.681 0.394293 -5.42168 0
M  V30 2723 H 239.483 -0.236048 -2.92951 0
M  V30 2724 H 236.997 -0.230481 -1.60756 0
M  V30 2725 H 238.994 2.14199 -3.57665 0
M  V30 2726 H 237.654 2.18605 -2.40088 0
M  V30 2727 H 238.665 -0.260924 -5.17242 0
M  V30 2728 H 235.342 1.87812 -3.72871 0
M  V30 2729 H 236.732 -0.906992 -6.6575 0
M  V30 2730 N 239.452 1.56882 -0.150215 0
M  V30 2731 C 240.698 1.96518 0.500834 0
M  V30 2732 C 241.031 1.03527 1.64304 0
M  V30 2733 O 240.306 0.0782751 1.94342 0
M  V30 2734 C 240.589 3.45822 1.00395 0
M  V30 2735 C 240.442 4.49591 -0.136983 0
M  V30 2736 C 241.761 3.97704 1.88467 0
M  V30 2737 H 238.88 0.714535 0.18058 0
M  V30 2738 H 241.522 1.88577 -0.232091 0
M  V30 2739 H 239.672 3.5272 1.62851 0
M  V30 2740 H 241.344 4.5477 -0.77343 0
M  V30 2741 H 239.587 4.26441 -0.795652 0
M  V30 2742 H 240.258 5.51402 0.256815 0
M  V30 2743 H 242.734 3.93304 1.35834 0
M  V30 2744 H 241.61 5.0263 2.20578 0
M  V30 2745 H 241.871 3.40252 2.82279 0
M  V30 2746 N 240.93 -0.123565 1.57115 0
M  V30 2747 C 241.84 -1.17074 2.033 0
M  V30 2748 C 242.856 -1.4561 0.952559 0
M  V30 2749 O 244.032 -1.56817 1.26374 0
M  V30 2750 C 241.097 -2.47857 2.42421 0
M  V30 2751 C 240.158 -2.26758 3.64526 0
M  V30 2752 C 239.391 -3.51305 4.01771 0
M  V30 2753 O 239.614 -4.5843 3.39409 0
M  V30 2754 O 238.548 -3.42578 4.94898 0
M  V30 2755 H 242.374 -0.808555 2.92739 0
M  V30 2756 H 239.959 -0.334027 1.45618 0
M  V30 2757 H 241.841 -3.2492 2.68338 0
M  V30 2758 H 240.516 -2.83558 1.5613 0
M  V30 2759 H 239.423 -1.47569 3.43765 0
M  V30 2760 H 240.756 -1.95963 4.51508 0
M  V30 2761 N 242.408 -1.52605 -0.393616 0
M  V30 2762 C 243.654 -1.67672 -1.14079 0
M  V30 2763 C 243.987 -0.413121 -1.89755 0
M  V30 2764 O 243.262 0.588952 -1.85369 0
M  V30 2765 C 243.545 -2.9088 -2.12276 0
M  V30 2766 C 243.398 -4.27329 -1.40394 0
M  V30 2767 C 244.717 -3.09628 -3.12759 0
M  V30 2768 H 241.836 -0.610168 -0.413356 0
M  V30 2769 H 244.478 -1.85193 -0.424696 0
M  V30 2770 H 242.628 -2.76073 -2.73342 0
M  V30 2771 H 244.3 -4.53894 -0.82327 0
M  V30 2772 H 242.543 -4.2802 -0.705801 0
M  V30 2773 H 243.214 -5.09615 -2.12123 0
M  V30 2774 H 245.69 -3.23436 -2.61779 0
M  V30 2775 H 244.566 -3.97322 -3.78717 0
M  V30 2776 H 244.827 -2.23637 -3.81365 0
M  V30 2777 N 243.887 0.651787 -1.4349 0
M  V30 2778 C 244.819 1.77725 -1.44729 0
M  V30 2779 C 245.832 1.59141 -0.343231 0
M  V30 2780 O 247.021 1.67835 -0.607751 0
M  V30 2781 C 244.121 3.15172 -1.24579 0
M  V30 2782 C 243.294 3.60402 -2.47849 0
M  V30 2783 C 242.353 4.76656 -2.22902 0
M  V30 2784 O 241.379 4.86022 -2.96263 0
M  V30 2785 N 242.581 5.66958 -1.24656 0
M  V30 2786 H 245.346 1.77141 -2.41746 0
M  V30 2787 H 242.907 0.835678 -1.38665 0
M  V30 2788 H 244.899 3.90634 -1.0577 0
M  V30 2789 H 243.469 3.1052 -0.360015 0
M  V30 2790 H 242.689 2.75369 -2.82073 0
M  V30 2791 H 243.977 3.87368 -3.29884 0
M  V30 2792 H 243.375 5.62065 -0.640265 0
M  V30 2793 H 241.932 6.42135 -1.1183 0
M  V30 2794 N 245.365 1.30045 0.890287 0
M  V30 2795 C 246.614 1.17929 1.63633 0
M  V30 2796 C 246.927 -0.266204 1.9378 0
M  V30 2797 O 248.133 -0.508804 2.6669 0
M  V30 2798 C 246.589 2.06317 2.94892 0
M  V30 2799 C 246.197 3.55745 2.72305 0
M  V30 2800 C 247.941 2.0295 3.72843 0
M  V30 2801 C 245.848 4.36205 3.99348 0
M  V30 2802 H 244.778 0.437782 0.613892 0
M  V30 2803 H 247.429 1.54754 0.986075 0
M  V30 2804 H 245.811 1.6237 3.61182 0
M  V30 2805 H 246.985 4.07805 2.1455 0
M  V30 2806 H 245.3 3.6088 2.07737 0
M  V30 2807 H 247.897 2.60319 4.67053 0
M  V30 2808 H 248.24 1.0117 4.0382 0
M  V30 2809 H 248.773 2.4499 3.13408 0
M  V30 2810 H 245.512 5.38659 3.73533 0
M  V30 2811 H 245.032 3.8891 4.56628 0
M  V30 2812 H 246.711 4.47362 4.67415 0
M  V30 2813 N 246.843 -1.10192 1.12674 0
M  V30 2814 C 248.12 -1.78717 0.794965 0
M  V30 2815 C 248.5 -1.98628 -0.714853 0
M  V30 2816 O 247.848 -1.58135 -1.64941 0
M  V30 2817 C 248.058 -3.11546 1.5729 0
M  V30 2818 C 249.406 -3.86382 1.76052 0
M  V30 2819 O 250.43 -3.21274 1.53823 0
M  V30 2820 O 249.289 -5.03246 2.13087 0
M  V30 2821 H 246.383 -0.774702 0.289423 0
M  V30 2822 H 248.929 -1.16819 1.23091 0
M  V30 2823 H 247.701 -2.92489 2.59935 0
M  V30 2824 H 247.324 -3.81164 1.13137 0
M  V30 2825 N 248.321 -0.919034 -1.28029 0
M  V30 2826 C 249.268 -0.410005 -2.27129 0
M  V30 2827 C 250.238 0.518405 -1.57803 0
M  V30 2828 O 251.423 0.439451 -1.8567 0
M  V30 2829 C 248.563 0.339054 -3.4343 0
M  V30 2830 C 247.676 -0.622468 -4.27492 0
M  V30 2831 C 246.811 0.145567 -5.31001 0
M  V30 2832 C 245.85 -0.809226 -6.06727 0
M  V30 2833 N 244.987 -0.0743728 -7.02061 0
M  V30 2834 H 249.827 -1.26011 -2.70047 0
M  V30 2835 H 247.364 -0.632663 -1.328 0
M  V30 2836 H 249.322 0.789586 -4.0966 0
M  V30 2837 H 247.952 1.15346 -3.01488 0
M  V30 2838 H 247.004 -1.19153 -3.61257 0
M  V30 2839 H 248.316 -1.35252 -4.80113 0
M  V30 2840 H 247.47 0.656417 -6.03139 0
M  V30 2841 H 246.209 0.908643 -4.79161 0
M  V30 2842 H 245.214 -1.3314 -5.33436 0
M  V30 2843 H 246.439 -1.57194 -6.60656 0
M  V30 2844 H 244.385 0.670616 -6.52563 0
M  V30 2845 H 244.302 -0.744157 -7.52329 0
M  V30 2846 H 245.57 0.416109 -7.78389 0
M  V30 2847 N 249.799 1.42003 -0.683588 0
M  V30 2848 C 250.709 2.34597 -0.0109075 0
M  V30 2849 C 251.725 1.55576 0.779245 0
M  V30 2850 O 252.901 1.88107 0.719555 0
M  V30 2851 C 249.966 3.34199 0.922588 0
M  V30 2852 C 249.027 4.29115 0.125984 0
M  V30 2853 C 248.26 5.23959 1.01502 0
M  V30 2854 O 248.483 5.23952 2.25456 0
M  V30 2855 O 247.417 6.00053 0.47111 0
M  V30 2856 H 251.243 2.93675 -0.773853 0
M  V30 2857 H 248.828 1.42654 -0.443861 0
M  V30 2858 H 250.71 3.95365 1.45823 0
M  V30 2859 H 249.385 2.77582 1.66523 0
M  V30 2860 H 248.292 3.71335 -0.453969 0
M  V30 2861 H 249.625 4.88798 -0.577736 0
M  V30 2862 N 251.277 0.427512 1.51691 0
M  V30 2863 C 252.24 -0.377132 2.26076 0
M  V30 2864 C 253.24 -0.958089 1.29141 0
M  V30 2865 O 254.43 -0.83408 1.52934 0
M  V30 2866 C 251.562 -1.53262 3.04506 0
M  V30 2867 H 252.755 0.27464 2.9864 0
M  V30 2868 H 250.308 0.180445 1.55255 0
M  V30 2869 H 251.043 -2.22072 2.36335 0
M  V30 2870 H 250.828 -1.12232 3.75694 0
M  V30 2871 H 252.318 -2.10135 3.60878 0
M  V30 2872 N 252.755 -1.56801 0.158532 0
M  V30 2873 C 253.985 -2.00568 -0.495583 0
M  V30 2874 C 254.393 -1.03774 -1.58201 0
M  V30 2875 O 253.736 -0.0285797 -1.83678 0
M  V30 2876 C 253.798 -3.40768 -1.14532 0
M  V30 2877 C 253.462 -4.56553 -0.202101 0
M  V30 2878 C 254.459 -5.16714 0.574675 0
M  V30 2879 C 252.144 -5.02197 -0.101648 0
M  V30 2880 C 254.138 -6.20939 1.43924 0
M  V30 2881 C 251.825 -6.06274 0.766508 0
M  V30 2882 C 252.823 -6.65515 1.53555 0
M  V30 2883 O 252.511 -7.67575 2.38922 0
M  V30 2884 H 252.243 -0.662893 -0.13247 0
M  V30 2885 H 254.797 -2.03829 0.253559 0
M  V30 2886 H 253.027 -3.34381 -1.94233 0
M  V30 2887 H 254.716 -3.6857 -1.70033 0
M  V30 2888 H 255.482 -4.82341 0.507167 0
M  V30 2889 H 251.361 -4.55807 -0.689994 0
M  V30 2890 H 254.905 -6.67107 2.03996 0
M  V30 2891 H 250.802 -6.40073 0.835266 0
M  V30 2892 H 251.57 -7.84844 2.32296 0
M  V30 2893 N 254.233 0.115231 -1.57178 0
M  V30 2894 C 255.163 1.1423 -2.03651 0
M  V30 2895 C 256.144 1.42967 -0.921655 0
M  V30 2896 O 257.329 1.53343 -1.19162 0
M  V30 2897 C 254.459 2.4675 -2.44401 0
M  V30 2898 C 253.413 2.32467 -3.59365 0
M  V30 2899 C 252.739 3.69984 -3.86026 0
M  V30 2900 C 254.039 1.78203 -4.90959 0
M  V30 2901 H 255.733 0.755749 -2.89705 0
M  V30 2902 H 253.279 0.362093 -1.39373 0
M  V30 2903 H 255.232 3.18854 -2.75517 0
M  V30 2904 H 253.956 2.87302 -1.55322 0
M  V30 2905 H 252.615 1.62811 -3.28463 0
M  V30 2906 H 252.263 4.08028 -2.94147 0
M  V30 2907 H 251.963 3.61279 -4.63412 0
M  V30 2908 H 253.487 4.43587 -4.19599 0
M  V30 2909 H 254.901 2.40128 -5.20587 0
M  V30 2910 H 253.298 1.8031 -5.72371 0
M  V30 2911 H 254.368 0.739876 -4.79222 0
M  V30 2912 N 255.711 1.52812 0.385517 0
M  V30 2913 C 256.674 1.77188 1.45386 0
M  V30 2914 C 257.674 0.641953 1.4743 0
M  V30 2915 O 258.864 0.910033 1.4854 0
M  V30 2916 C 255.996 1.87582 2.8465 0
M  V30 2917 H 257.189 2.72583 1.25054 0
M  V30 2918 H 254.742 1.43586 0.617467 0
M  V30 2919 H 255.477 0.941849 3.10322 0
M  V30 2920 H 255.262 2.69748 2.84567 0
M  V30 2921 H 256.752 2.08102 3.62054 0
M  V30 2922 N 257.189 -0.644168 1.43834 0
M  V30 2923 C 258.435 -1.40603 1.46146 0
M  V30 2924 C 258.768 -1.93997 0.0887717 0
M  V30 2925 O 258.043 -1.72854 -0.891724 0
M  V30 2926 C 258.326 -2.58086 2.51124 0
M  V30 2927 C 258.179 -2.10126 3.97702 0
M  V30 2928 C 259.498 -3.60291 2.52742 0
M  V30 2929 H 256.617 -0.509905 0.532134 0
M  V30 2930 H 259.259 -0.729502 1.75437 0
M  V30 2931 H 257.409 -3.15801 2.26278 0
M  V30 2932 H 259.081 -1.57342 4.33637 0
M  V30 2933 H 257.324 -1.41419 4.10101 0
M  V30 2934 H 257.995 -2.94649 4.66783 0
M  V30 2935 H 260.471 -3.12352 2.7491 0
M  V30 2936 H 259.347 -4.40032 3.28121 0
M  V30 2937 H 259.608 -4.1349 1.56455 0
M  V30 2938 N 258.668 -1.30515 -0.883378 0
M  V30 2939 C 259.616 -1.16941 -2.01066 0
M  V30 2940 C 260.61 -0.0809148 -1.69207 0
M  V30 2941 O 261.816 -0.241877 -1.78367 0
M  V30 2942 H 258.191 -0.361705 -0.659298 0
M  V30 2943 H 260.162 -2.12344 -2.09649 0
M  V30 2944 C 258.911 -0.879694 -3.36388 0
M  V30 2945 H 258.234 -1.70936 -3.61415 0
M  V30 2946 H 259.674 -0.82483 -4.159 0
M  V30 2947 C 258.133 0.417409 -3.34304 0
M  V30 2948 O 258.663 1.43843 -3.75063 0
M  V30 2949 N 256.869 0.429141 -2.87414 0
M  V30 2950 H 256.416 -0.402222 -2.5444 0
M  V30 2951 H 256.374 1.29696 -2.86403 0
M  V30 2952 N 260.146 1.09593 -1.13257 0
M  V30 2953 C 261.109 2.14359 -0.811358 0
M  V30 2954 C 262.109 1.59808 0.178377 0
M  V30 2955 O 263.299 1.74132 -0.0484911 0
M  V30 2956 C 260.431 3.40269 -0.207276 0
M  V30 2957 H 261.624 2.44284 -1.73969 0
M  V30 2958 H 259.177 1.25102 -0.936973 0
M  V30 2959 H 259.912 3.15969 0.73036 0
M  V30 2960 H 259.697 3.81154 -0.919992 0
M  V30 2961 H 261.187 4.176 0.000667944 0
M  V30 2962 N 261.624 0.925811 1.2754 0
M  V30 2963 C 262.587 0.428129 2.25166 0
M  V30 2964 C 263.587 -0.452261 1.54309 0
M  V30 2965 O 264.777 -0.253608 1.72344 0
M  V30 2966 C 261.909 -0.384749 3.38722 0
M  V30 2967 H 263.102 1.29066 2.70706 0
M  V30 2968 H 260.655 0.706323 1.3943 0
M  V30 2969 H 261.39 -1.26618 2.98561 0
M  V30 2970 H 261.175 0.246454 3.91325 0
M  V30 2971 H 262.665 -0.723389 4.11287 0
M  V30 2972 N 263.102 -1.41638 0.69111 0
M  V30 2973 C 264.35 -2.00902 0.219758 0
M  V30 2974 C 264.671 -1.54994 -1.18329 0
M  V30 2975 O 263.941 -0.778628 -1.79762 0
M  V30 2976 H 262.521 -0.74289 0.0782558 0
M  V30 2977 H 265.183 -1.73327 0.891271 0
M  V30 2978 H 264.279 -3.11224 0.233708 0
M  V30 2979 N 264.58 -0.43555 -1.51462 0
M  V30 2980 C 265.828 0.131254 -2.01673 0
M  V30 2981 C 266.149 1.43368 -1.32177 0
M  V30 2982 O 265.419 1.90524 -0.455769 0
M  V30 2983 H 263.999 0.0514954 -0.745223 0
M  V30 2984 H 266.661 -0.577847 -1.86137 0
M  V30 2985 H 265.757 0.308446 -3.10572 0
M  V30 2986 N 266.058 1.56714 -0.166846 0
M  V30 2987 C 267.304 1.97039 0.479962 0
M  V30 2988 C 267.637 1.05264 1.63197 0
M  V30 2989 O 266.912 0.0988833 1.94248 0
M  V30 2990 C 267.195 3.46867 0.967212 0
M  V30 2991 C 267.048 4.49421 -0.18466 0
M  V30 2992 C 268.367 3.9968 1.84238 0
M  V30 2993 H 265.486 0.71641 0.172992 0
M  V30 2994 H 268.128 1.8832 -0.252079 0
M  V30 2995 H 266.278 3.54428 1.59101 0
M  V30 2996 H 267.95 4.53924 -0.821621 0
M  V30 2997 H 266.193 4.25573 -0.840837 0
M  V30 2998 H 266.864 5.51644 0.198317 0
M  V30 2999 H 269.34 3.94723 1.31655 0
M  V30 3000 H 268.216 5.04941 2.15234 0
M  V30 3001 H 268.477 3.43226 2.78654 0
M  V30 3002 N 267.536 -0.106894 1.57237 0
M  V30 3003 C 268.446 -1.14911 2.0453 0
M  V30 3004 C 269.462 -1.44592 0.96795 0
M  V30 3005 O 270.638 -1.55468 1.2803 0
M  V30 3006 C 267.703 -2.45272 2.45036 0
M  V30 3007 C 266.764 -2.22879 3.66911 0
M  V30 3008 C 265.997 -3.47024 4.05475 0
M  V30 3009 O 266.22 -4.54804 3.44252 0
M  V30 3010 O 265.154 -3.3731 4.98504 0
M  V30 3011 H 268.98 -0.777461 2.9358 0
M  V30 3012 H 266.565 -0.318563 1.45964 0
M  V30 3013 H 268.447 -3.22055 2.71769 0
M  V30 3014 H 267.122 -2.81886 1.59129 0
M  V30 3015 H 266.029 -1.43915 3.45311 0
M  V30 3016 H 267.362 -1.91163 4.53561 0
M  V30 3017 N 269.014 -1.53014 -0.377408 0
M  V30 3018 C 270.26 -1.68872 -1.12294 0
M  V30 3019 C 270.593 -0.433224 -1.89306 0
M  V30 3020 O 269.868 0.569258 -1.85983 0
M  V30 3021 C 270.151 -2.93115 -2.09179 0
M  V30 3022 C 270.004 -4.28794 -1.35853 0
M  V30 3023 C 271.323 -3.12928 -3.09458 0
M  V30 3024 H 268.442 -0.614518 -0.406862 0
M  V30 3025 H 271.084 -1.85633 -0.40503 0
M  V30 3026 H 269.234 -2.78956 -2.70399 0
M  V30 3027 H 270.906 -4.54742 -0.775082 0
M  V30 3028 H 269.149 -4.28744 -0.660364 0
M  V30 3029 H 269.82 -5.11837 -2.06706 0
M  V30 3030 H 272.296 -3.26194 -2.58334 0
M  V30 3031 H 271.172 -4.01316 -3.74482 0
M  V30 3032 H 271.433 -2.27669 -3.78971 0
M  V30 3033 N 270.492 0.636531 -1.44174 0
M  V30 3034 C 271.722 1.42146 -1.49927 0
M  V30 3035 C 272.13 1.88812 -0.121063 0
M  V30 3036 O 271.473 1.61126 0.882267 0
M  V30 3037 C 271.535 2.67883 -2.39748 0
M  V30 3038 C 271.199 2.43048 -3.8701 0
M  V30 3039 C 272.196 2.05216 -4.77684 0
M  V30 3040 C 269.881 2.56856 -4.3166 0
M  V30 3041 C 271.875 1.81512 -6.11009 0
M  V30 3042 C 269.562 2.32766 -5.65034 0
M  V30 3043 C 270.56 1.95152 -6.54526 0
M  V30 3044 O 270.248 1.71326 -7.85431 0
M  V30 3045 H 269.98 0.442567 -0.51099 0
M  V30 3046 H 272.534 0.786158 -1.8976 0
M  V30 3047 H 270.764 3.34032 -1.94832 0
M  V30 3048 H 272.453 3.29874 -2.36513 0
M  V30 3049 H 273.219 1.94111 -4.44462 0
M  V30 3050 H 269.098 2.85104 -3.62266 0
M  V30 3051 H 272.642 1.52077 -6.80822 0
M  V30 3052 H 268.539 2.43479 -5.97819 0
M  V30 3053 H 269.307 1.85616 -7.97176 0
M  V30 3054 N 271.97 1.30982 0.876444 0
M  V30 3055 C 273.195 1.23373 1.66715 0
M  V30 3056 C 273.62 -0.19885 1.87046 0
M  V30 3057 O 272.978 -1.1427 1.40756 0
M  V30 3058 C 273.026 1.97644 3.01611 0
M  V30 3059 O 272.13 1.30935 3.91062 0
M  V30 3060 H 271.471 0.426279 0.509099 0
M  V30 3061 H 274.001 1.72944 1.09323 0
M  V30 3062 H 274.011 2.06992 3.51594 0
M  V30 3063 H 272.686 3.01829 2.86133 0
M  V30 3064 H 271.263 1.29996 3.49507 0
M  V30 3065 N 273.449 -1.08991 1.13837 0
M  V30 3066 C 274.697 -1.80899 0.901098 0
M  V30 3067 C 275.018 -1.86356 -0.574134 0
M  V30 3068 O 274.288 -1.35235 -1.41733 0
M  V30 3069 H 272.868 -0.669966 0.330386 0
M  V30 3070 H 275.53 -1.318 1.43578 0
M  V30 3071 H 274.626 -2.83929 1.29578 0
M  V30 3072 N 274.927 -0.932562 -1.27047 0
M  V30 3073 C 275.875 -0.42603 -2.28665 0
M  V30 3074 C 276.869 0.49219 -1.62092 0
M  V30 3075 O 278.075 0.371355 -1.76128 0
M  V30 3076 H 274.45 -0.119213 -0.742491 0
M  V30 3077 H 276.421 -1.29579 -2.68797 0
M  V30 3078 C 275.17 0.301426 -3.46391 0
M  V30 3079 H 274.493 -0.39595 -3.97834 0
M  V30 3080 H 275.933 0.6202 -4.1944 0
M  V30 3081 C 274.392 1.51616 -3.00856 0
M  V30 3082 O 274.922 2.61476 -3.04948 0
M  V30 3083 N 273.128 1.36969 -2.56296 0
M  V30 3084 H 272.675 0.475873 -2.53166 0
M  V30 3085 H 272.633 2.18368 -2.26192 0
M  V30 3086 N 276.405 1.4127 -0.698611 0
M  V30 3087 C 277.337 2.292 0.00399731 0
M  V30 3088 C 278.35 1.44944 0.741279 0
M  V30 3089 O 279.539 1.68416 0.591477 0
M  V30 3090 C 276.639 3.22875 1.02979 0
M  V30 3091 C 275.812 4.35904 0.36151 0
M  V30 3092 C 274.871 5.10134 1.29033 0
M  V30 3093 O 273.897 5.63809 0.781562 0
M  V30 3094 N 275.099 5.17885 2.6225 0
M  V30 3095 H 277.864 2.9014 -0.750921 0
M  V30 3096 H 275.425 1.52455 -0.544882 0
M  V30 3097 H 277.417 3.69404 1.65296 0
M  V30 3098 H 275.987 2.63221 1.68622 0
M  V30 3099 H 275.207 3.91719 -0.441584 0
M  V30 3100 H 276.495 5.08696 -0.103055 0
M  V30 3101 H 275.893 4.7573 3.061 0
M  V30 3102 H 274.45 5.6798 3.19754 0
M  V30 3103 N 277.883 0.443576 1.51229 0
M  V30 3104 C 279.299 0.0962001 1.5931 0
M  V30 3105 C 279.499 -1.39501 1.45402 0
M  V30 3106 O 278.555 -2.16557 1.29843 0
M  V30 3107 C 279.868 0.621875 2.94199 0
M  V30 3108 C 281.416 0.582865 3.07525 0
M  V30 3109 C 281.891 1.08562 4.44948 0
M  V30 3110 N 283.382 1.04387 4.51284 0
M  V30 3111 C 284.117 1.40368 5.55954 0
M  V30 3112 N 283.613 1.83664 6.68011 0
M  V30 3113 N 285.406 1.32145 5.46346 0
M  V30 3114 H 277.557 1.41376 1.58514 0
M  V30 3115 H 279.82 0.582965 0.747567 0
M  V30 3116 H 279.526 1.66546 3.09767 0
M  V30 3117 H 279.4 0.0502125 3.77167 0
M  V30 3118 H 281.787 -0.451749 2.91622 0
M  V30 3119 H 281.868 1.191 2.26382 0
M  V30 3120 H 281.512 2.11873 4.61598 0
M  V30 3121 H 281.442 0.453956 5.2464 0
M  V30 3122 H 283.933 0.725986 3.70861 0
M  V30 3123 H 284.246 2.0934 7.43906 0
M  V30 3124 H 282.591 1.87596 6.69203 0
M  V30 3125 H 285.782 0.981808 4.57688 0
M  V30 3126 H 285.955 1.60514 6.27805 0
M  V30 3127 N 279.361 -1.56624 0.175154 0
M  V30 3128 C 280.61 -1.96173 -0.468921 0
M  V30 3129 C 280.923 -1.06401 -1.64128 0
M  V30 3130 O 282.129 -1.35648 -2.35185 0
M  V30 3131 C 280.585 -3.48833 -0.885633 0
M  V30 3132 C 280.193 -4.47237 0.261343 0
M  V30 3133 C 281.937 -3.97194 -1.49791 0
M  V30 3134 C 279.844 -5.9114 -0.175214 0
M  V30 3135 H 278.774 -0.732455 -0.178958 0
M  V30 3136 H 281.425 -1.81591 0.263997 0
M  V30 3137 H 279.807 -3.58848 -1.67464 0
M  V30 3138 H 280.981 -4.4894 1.03871 0
M  V30 3139 H 279.296 -4.08956 0.783827 0
M  V30 3140 H 281.893 -5.02167 -1.83665 0
M  V30 3141 H 282.236 -3.40351 -2.39722 0
M  V30 3142 H 282.769 -3.90212 -0.773267 0
M  V30 3143 H 279.508 -6.51865 0.689414 0
M  V30 3144 H 279.028 -5.92735 -0.91786 0
M  V30 3145 H 280.707 -6.44044 -0.617792 0
M  V30 3146 N 280.839 0.0985539 -1.57292 0
M  V30 3147 C 281.786 1.11981 -2.01814 0
M  V30 3148 C 282.756 1.39999 -0.89384 0
M  V30 3149 O 283.941 1.5152 -1.15958 0
M  V30 3150 C 281.081 2.43577 -2.44467 0
M  V30 3151 C 280.194 2.2232 -3.70402 0
M  V30 3152 C 279.329 3.4729 -4.01949 0
M  V30 3153 C 278.368 3.2128 -5.21005 0
M  V30 3154 N 277.505 4.38507 -5.48321 0
M  V30 3155 H 282.345 0.733149 -2.88841 0
M  V30 3156 H 279.882 0.350482 -1.42864 0
M  V30 3157 H 281.84 3.20373 -2.6724 0
M  V30 3158 H 280.47 2.80097 -1.60455 0
M  V30 3159 H 279.522 1.36343 -3.55126 0
M  V30 3160 H 280.834 1.99089 -4.57345 0
M  V30 3161 H 279.988 4.32495 -4.25479 0
M  V30 3162 H 278.727 3.73572 -3.13521 0
M  V30 3163 H 277.732 2.34468 -4.97298 0
M  V30 3164 H 278.957 2.96348 -6.11028 0
M  V30 3165 H 276.903 4.64871 -4.62851 0
M  V30 3166 H 276.82 4.18455 -6.29628 0
M  V30 3167 H 278.088 5.24787 -5.76385 0
M  V30 3168 N 282.317 1.53212 0.369288 0
M  V30 3169 C 283.563 1.69466 1.11397 0
M  V30 3170 C 283.896 0.443257 1.89074 0
M  V30 3171 O 283.171 -0.559386 1.86282 0
M  V30 3172 C 283.454 2.9422 2.07621 0
M  V30 3173 C 283.307 4.29508 1.33577 0
M  V30 3174 C 284.626 3.14565 3.07794 0
M  V30 3175 H 281.745 0.616667 0.403597 0
M  V30 3176 H 284.387 1.85845 0.395179 0
M  V30 3177 H 282.537 2.80387 2.68916 0
M  V30 3178 H 284.209 4.55147 0.750955 0
M  V30 3179 H 282.452 4.29088 0.637618 0
M  V30 3180 H 283.123 5.12926 2.03989 0
M  V30 3181 H 285.599 3.2756 2.56601 0
M  V30 3182 H 284.475 4.03297 3.72348 0
M  V30 3183 H 284.736 2.29675 3.77759 0
M  V30 3184 N 283.795 -0.628877 1.44509 0
M  V30 3185 C 285.02 -1.42048 1.5112 0
M  V30 3186 C 285.445 -1.87594 0.137818 0
M  V30 3187 O 284.803 -1.58873 -0.873437 0
M  V30 3188 C 284.851 -2.61541 2.48251 0
M  V30 3189 O 283.955 -3.61453 1.98559 0
M  V30 3190 H 283.296 -0.424942 0.510216 0
M  V30 3191 H 285.826 -0.767374 1.89664 0
M  V30 3192 H 285.836 -3.09057 2.66361 0
M  V30 3193 H 284.511 -2.27736 3.48007 0
M  V30 3194 H 283.088 -3.20731 1.90227 0
M  V30 3195 N 285.273 -1.31445 -0.869486 0
M  V30 3196 C 286.221 -1.19067 -1.99814 0
M  V30 3197 C 287.215 -0.0988569 -1.69111 0
M  V30 3198 O 288.421 -0.260781 -1.78101 0
M  V30 3199 H 284.796 -0.368677 -0.655425 0
M  V30 3200 H 286.767 -2.14555 -2.07385 0
M  V30 3201 C 285.516 -0.915323 -3.35436 0
M  V30 3202 H 284.839 -1.74759 -3.59582 0
M  V30 3203 H 286.279 -0.868895 -4.15001 0
M  V30 3204 C 284.738 0.381928 -3.34728 0
M  V30 3205 O 285.268 1.39857 -3.76567 0
M  V30 3206 N 283.474 0.398633 -2.87853 0
M  V30 3207 H 283.021 -0.429186 -2.54 0
M  V30 3208 H 282.979 1.26651 -2.87762 0
M  V30 3209 N 286.751 1.08385 -1.14413 0
M  V30 3210 C 287.979 1.84517 -0.936001 0
M  V30 3211 C 288.394 1.81626 0.515503 0
M  V30 3212 O 287.751 1.22008 1.35721 0
M  V30 3213 C 287.802 3.32049 -1.42918 0
M  V30 3214 O 287.523 3.34951 -2.82381 0
M  V30 3215 C 289.024 4.24986 -1.26103 0
M  V30 3216 H 286.244 0.582491 -0.333084 0
M  V30 3217 H 288.788 1.36885 -1.5193 0
M  V30 3218 H 286.943 3.7707 -0.888641 0
M  V30 3219 H 287.357 4.27048 -3.04517 0
M  V30 3220 H 288.831 5.26615 -1.6547 0
M  V30 3221 H 289.308 4.38726 -0.20392 0
M  V30 3222 H 289.914 3.85791 -1.79012 0
M  V30 3223 N 288.23 0.939286 1.26551 0
M  V30 3224 C 289.16 0.465044 2.28822 0
M  V30 3225 C 290.141 -0.480692 1.63167 0
M  V30 3226 O 291.326 -0.382955 1.90387 0
M  V30 3227 C 288.456 -0.27234 3.46231 0
M  V30 3228 C 287.41 0.58666 4.2396 0
M  V30 3229 C 286.736 -0.280573 5.33963 0
M  V30 3230 C 288.036 1.85704 4.88171 0
M  V30 3231 H 289.73 1.31979 2.68741 0
M  V30 3232 H 287.276 0.636061 1.29191 0
M  V30 3233 H 289.229 -0.615133 4.16886 0
M  V30 3234 H 287.953 -1.16121 3.0526 0
M  V30 3235 H 286.612 0.91232 3.55067 0
M  V30 3236 H 286.26 -1.16874 4.89234 0
M  V30 3237 H 285.96 0.29076 5.8688 0
M  V30 3238 H 287.484 -0.618678 6.07458 0
M  V30 3239 H 288.898 1.58161 5.51052 0
M  V30 3240 H 287.295 2.37279 5.51197 0
M  V30 3241 H 288.365 2.56957 4.11219 0
M  V30 3242 N 289.708 -1.40897 0.706093 0
M  V30 3243 C 290.618 -2.3455 0.0482286 0
M  V30 3244 C 291.634 -1.56796 -0.754396 0
M  V30 3245 O 292.81 -1.89228 -0.689538 0
M  V30 3246 C 289.875 -3.35625 -0.869303 0
M  V30 3247 C 288.936 -4.29261 -0.0576994 0
M  V30 3248 C 288.169 -5.25508 -0.931531 0
M  V30 3249 O 288.392 -5.27472 -2.17092 0
M  V30 3250 O 287.326 -6.00727 -0.375587 0
M  V30 3251 H 291.152 -2.92407 0.820476 0
M  V30 3252 H 288.737 -1.4193 0.4665 0
M  V30 3253 H 290.619 -3.97635 -1.39514 0
M  V30 3254 H 289.294 -2.80196 -1.62086 0
M  V30 3255 H 288.201 -3.70566 0.512988 0
M  V30 3256 H 289.534 -4.87817 0.655426 0
M  V30 3257 N 291.186 -0.45159 -1.50991 0
M  V30 3258 C 292.411 0.110667 -2.07105 0
M  V30 3259 C 292.836 1.3446 -1.31538 0
M  V30 3260 O 292.194 1.77743 -0.357365 0
M  V30 3261 C 292.242 0.397238 -3.58405 0
M  V30 3262 O 291.346 1.48124 -3.84881 0
M  V30 3263 H 290.687 -0.00439271 -0.663985 0
M  V30 3264 H 293.217 -0.637026 -1.9443 0
M  V30 3265 H 293.227 0.64351 -4.02893 0
M  V30 3266 H 291.902 -0.504553 -4.12828 0
M  V30 3267 H 290.479 1.22381 -3.52246 0
M  V30 3268 N 292.664 1.56529 -0.183458 0
M  V30 3269 C 294.08 1.58664 0.172554 0
M  V30 3270 C 294.28 1.19925 1.61926 0
M  V30 3271 O 293.336 0.916534 2.35278 0
M  V30 3272 C 294.649 3.00463 -0.119262 0
M  V30 3273 C 296.197 3.12945 -0.0584396 0
M  V30 3274 C 296.672 4.56857 -0.323408 0
M  V30 3275 N 298.163 4.62403 -0.271612 0
M  V30 3276 C 298.898 5.71626 -0.450639 0
M  V30 3277 N 298.394 6.89362 -0.689384 0
M  V30 3278 N 300.187 5.60775 -0.385701 0
M  V30 3279 H 292.338 1.79994 -1.12765 0
M  V30 3280 H 294.601 0.834808 -0.449222 0
M  V30 3281 H 294.307 3.33326 -1.12192 0
M  V30 3282 H 294.181 3.72659 0.583544 0
M  V30 3283 H 296.568 2.79902 0.934805 0
M  V30 3284 H 296.649 2.4316 -0.794144 0
M  V30 3285 H 296.293 4.9061 -1.31392 0
M  V30 3286 H 296.223 5.24816 0.43305 0
M  V30 3287 H 298.714 3.77785 -0.0932256 0
M  V30 3288 H 299.027 7.68489 -0.815113 0
M  V30 3289 H 297.372 6.91196 -0.726142 0
M  V30 3290 H 300.563 4.67674 -0.199687 0
M  V30 3291 H 300.736 6.4584 -0.528646 0
M  V30 3292 N 294.142 -0.090211 1.57342 0
M  V30 3293 C 295.072 -1.10976 2.05443 0
M  V30 3294 C 296.053 -1.41482 0.944284 0
M  V30 3295 O 297.238 -1.51428 1.21586 0
M  V30 3296 C 294.368 -2.42831 2.48295 0
M  V30 3297 C 293.322 -2.26721 3.63018 0
M  V30 3298 C 292.648 -3.63796 3.91863 0
M  V30 3299 C 293.948 -1.7037 4.93732 0
M  V30 3300 H 295.642 -0.709564 2.9087 0
M  V30 3301 H 293.188 -0.339874 1.39932 0
M  V30 3302 H 295.141 -3.14431 2.80555 0
M  V30 3303 H 293.865 -2.84795 1.59873 0
M  V30 3304 H 292.524 -1.57565 3.31012 0
M  V30 3305 H 292.172 -4.03297 3.00601 0
M  V30 3306 H 291.872 -3.53861 4.69101 0
M  V30 3307 H 293.396 -4.36855 4.26603 0
M  V30 3308 H 294.81 -2.31816 5.24342 0
M  V30 3309 H 293.207 -1.71181 5.75167 0
M  V30 3310 H 294.277 -0.663542 4.80339 0
M  V30 3311 N 295.62 -1.53406 -0.361157 0
M  V30 3312 C 296.897 -1.60411 -1.11927 0
M  V30 3313 C 297.277 -0.414385 -2.06993 0
M  V30 3314 O 296.625 0.594976 -2.20618 0
M  V30 3315 C 296.835 -2.95652 -1.85448 0
M  V30 3316 C 298.183 -3.50386 -2.39823 0
M  V30 3317 O 299.207 -2.97711 -1.95568 0
M  V30 3318 O 298.066 -4.42482 -3.20737 0
M  V30 3319 H 295.16 -0.64811 -0.513695 0
M  V30 3320 H 297.706 -1.65749 -0.364065 0
M  V30 3321 H 296.478 -3.73682 -1.16091 0
M  V30 3322 H 296.101 -2.93825 -2.67866 0
M  V30 3323 N 297.098 0.621204 -1.44841 0
M  V30 3324 C 298.028 1.74366 -1.55303 0
M  V30 3325 C 299.009 1.65199 -0.405385 0
M  V30 3326 O 300.194 1.83807 -0.626787 0
M  V30 3327 C 297.324 3.12931 -1.50637 0
M  V30 3328 C 296.278 3.36896 -2.63979 0
M  V30 3329 C 295.604 4.75594 -2.44366 0
M  V30 3330 C 296.904 3.28483 -4.06074 0
M  V30 3331 H 298.598 1.65867 -2.49256 0
M  V30 3332 H 296.144 0.796558 -1.19962 0
M  V30 3333 H 298.097 3.9124 -1.56555 0
M  V30 3334 H 296.821 3.22237 -0.532057 0
M  V30 3335 H 295.48 2.60972 -2.57467 0
M  V30 3336 H 295.128 4.81616 -1.45105 0
M  V30 3337 H 294.828 4.92586 -3.20364 0
M  V30 3338 H 296.352 5.5612 -2.52117 0
M  V30 3339 H 297.766 3.96684 -4.13902 0
M  V30 3340 H 296.163 3.57008 -4.82354 0
M  V30 3341 H 297.233 2.26133 -4.28943 0
M  V30 3342 N 298.576 1.31904 0.862503 0
M  V30 3343 C 299.801 1.25135 1.65397 0
M  V30 3344 C 300.226 -0.179 1.87246 0
M  V30 3345 O 299.584 -1.1277 1.4196 0
M  V30 3346 C 299.632 2.00832 2.99498 0
M  V30 3347 O 298.736 1.35075 3.89652 0
M  V30 3348 H 298.077 0.431655 0.504549 0
M  V30 3349 H 300.607 1.74094 1.07483 0
M  V30 3350 H 300.617 2.10709 3.49379 0
M  V30 3351 H 299.292 3.04847 2.82916 0
M  V30 3352 H 297.869 1.33696 3.48109 0
M  V30 3353 N 300.054 -1.07777 1.14986 0
M  V30 3354 C 301.017 -2.13041 0.845358 0
M  V30 3355 C 302.017 -1.60071 -0.152931 0
M  V30 3356 O 303.207 -1.74033 0.0761879 0
M  V30 3357 C 300.339 -3.39896 0.261383 0
M  V30 3358 H 301.532 -2.41485 1.77834 0
M  V30 3359 H 299.085 -1.23595 0.956757 0
M  V30 3360 H 299.82 -3.17091 -0.68 0
M  V30 3361 H 299.605 -3.79642 0.980514 0
M  V30 3362 H 301.095 -4.17548 0.0657687 0
M  V30 3363 N 301.532 -0.945985 -1.26051 0
M  V30 3364 C 302.479 -0.45809 -2.26208 0
M  V30 3365 C 303.449 0.484816 -1.58867 0
M  V30 3366 O 304.634 0.399969 -1.86561 0
M  V30 3367 C 301.774 0.266131 -3.44072 0
M  V30 3368 C 300.887 -0.713005 -4.26075 0
M  V30 3369 C 300.022 0.0329013 -5.3119 0
M  V30 3370 C 299.061 -0.93774 -6.04874 0
M  V30 3371 N 298.198 -0.223274 -7.01745 0
M  V30 3372 H 303.038 -1.3171 -2.67313 0
M  V30 3373 H 300.575 -0.66069 -1.31428 0
M  V30 3374 H 302.533 0.702514 -4.11243 0
M  V30 3375 H 301.163 1.08925 -3.03867 0
M  V30 3376 H 300.215 -1.26789 -3.58648 0
M  V30 3377 H 301.527 -1.45406 -4.77136 0
M  V30 3378 H 300.681 0.528335 -6.04395 0
M  V30 3379 H 299.42 0.806801 -4.8098 0
M  V30 3380 H 298.425 -1.44425 -5.30492 0
M  V30 3381 H 299.65 -1.71172 -6.57173 0
M  V30 3382 H 297.596 0.532046 -6.53839 0
M  V30 3383 H 297.513 -0.90357 -7.50581 0
M  V30 3384 H 298.781 0.250907 -7.79096 0
M  V30 3385 N 303.011 1.40521 -0.713556 0
M  V30 3386 C 303.943 2.29191 -0.0203126 0
M  V30 3387 C 304.956 1.45723 0.725864 0
M  V30 3388 O 306.145 1.69033 0.573581 0
M  V30 3389 C 303.245 3.2395 0.995486 0
M  V30 3390 C 302.418 4.36262 0.315256 0
M  V30 3391 C 301.477 5.11474 1.23616 0
M  V30 3392 O 300.503 5.64606 0.721719 0
M  V30 3393 N 301.705 5.20638 2.56743 0
M  V30 3394 H 304.47 2.89327 -0.781652 0
M  V30 3395 H 302.031 1.51869 -0.561022 0
M  V30 3396 H 304.023 3.71137 1.61368 0
M  V30 3397 H 302.593 2.64995 1.6582 0
M  V30 3398 H 301.813 3.91228 -0.483106 0
M  V30 3399 H 303.101 5.08558 -0.157004 0
M  V30 3400 H 302.499 4.7895 3.01037 0
M  V30 3401 H 301.056 5.71339 3.13712 0
M  V30 3402 N 304.489 0.459591 1.5075 0
M  V30 3403 C 305.436 -0.340524 2.28274 0
M  V30 3404 C 306.406 -0.997371 1.32822 0
M  V30 3405 O 307.591 -1.01202 1.61749 0
M  V30 3406 C 304.731 -1.42317 3.14388 0
M  V30 3407 C 303.844 -0.782251 4.24859 0
M  V30 3408 C 302.979 -1.84182 4.98247 0
M  V30 3409 C 302.018 -1.18053 6.00608 0
M  V30 3410 N 301.155 -2.18244 6.67319 0
M  V30 3411 H 305.995 0.326899 2.96202 0
M  V30 3412 H 303.532 0.173057 1.46078 0
M  V30 3413 H 305.49 -2.06241 3.62658 0
M  V30 3414 H 304.12 -2.05992 2.4853 0
M  V30 3415 H 303.172 -0.0307404 3.80388 0
M  V30 3416 H 304.484 -0.259663 4.98124 0
M  V30 3417 H 303.638 -2.55714 5.50177 0
M  V30 3418 H 302.377 -2.39819 4.24662 0
M  V30 3419 H 301.382 -0.450776 5.47949 0
M  V30 3420 H 302.607 -0.631202 6.7616 0
M  V30 3421 H 300.553 -2.72919 5.96533 0
M  V30 3422 H 300.47 -1.70938 7.36421 0
M  V30 3423 H 301.738 -2.89191 7.23871 0
M  V30 3424 N 305.967 -1.56429 0.191757 0
M  V30 3425 C 306.9 -2.14829 -0.76967 0
M  V30 3426 C 307.878 -1.08405 -1.2119 0
M  V30 3427 O 309.062 -1.36498 -1.30002 0
M  V30 3428 C 306.189 -2.70446 -2.03903 0
M  V30 3429 C 305.235 -3.89428 -1.7392 0
M  V30 3430 S 306.068 -5.28048 -0.890265 0
M  V30 3431 C 307.224 -5.87085 -2.16984 0
M  V30 3432 H 307.457 -2.96042 -0.273204 0
M  V30 3433 H 304.99 -1.54383 -0.0231975 0
M  V30 3434 H 306.948 -3.03134 -2.76803 0
M  V30 3435 H 305.609 -1.89281 -2.50662 0
M  V30 3436 H 304.802 -4.26742 -2.68155 0
M  V30 3437 H 304.404 -3.57732 -1.09103 0
M  V30 3438 H 306.696 -6.01244 -3.12269 0
M  V30 3439 H 307.639 -6.83747 -1.84108 0
M  V30 3440 H 308.047 -5.15663 -2.29678 0
M  V30 3441 N 307.445 0.0818655 -1.57387 0
M  V30 3442 C 308.856 0.634871 -1.75574 0
M  V30 3443 C 309.207 1.78435 -0.815809 0
M  V30 3444 O 308.332 2.164 0.0025366 0
M  V30 3445 C 308.927 1.15845 -3.18379 0
M  V30 3446 C 307.486 1.65741 -3.37945 0
M  V30 3447 C 306.633 0.572549 -2.71325 0
M  V30 3448 H 309.584 -0.144268 -1.58043 0
M  V30 3449 H 309.605 2.02751 -3.21982 0
M  V30 3450 H 309.117 0.321631 -3.86765 0
M  V30 3451 H 307.218 2.51781 -2.74658 0
M  V30 3452 H 307.331 1.74129 -4.46336 0
M  V30 3453 H 305.695 1.01518 -2.33594 0
M  V30 3454 H 306.478 -0.253918 -3.4236 0
M  V30 3455 N 308.923 1.53595 0.353017 0
M  V30 3456 C 309.833 1.83897 1.45667 0
M  V30 3457 C 310.849 0.728334 1.58023 0
M  V30 3458 O 312.025 1.01968 1.73679 0
M  V30 3459 C 309.09 2.03383 2.80778 0
M  V30 3460 C 308.151 3.27262 2.77845 0
M  V30 3461 C 307.384 3.45809 4.06512 0
M  V30 3462 O 307.607 2.68387 5.03314 0
M  V30 3463 O 306.541 4.39207 4.11559 0
M  V30 3464 H 310.367 2.77686 1.2298 0
M  V30 3465 H 307.952 1.39132 0.544308 0
M  V30 3466 H 309.834 2.17698 3.60812 0
M  V30 3467 H 308.509 1.12783 3.03417 0
M  V30 3468 H 307.416 3.18359 1.96465 0
M  V30 3469 H 308.749 4.17824 2.60161 0
M  V30 3470 N 310.401 -0.613514 1.45168 0
M  V30 3471 C 311.65 -1.36874 1.4815 0
M  V30 3472 C 311.963 -1.952 0.124982 0
M  V30 3473 O 313.169 -2.71481 0.0324176 0
M  V30 3474 C 311.625 -2.47905 2.60904 0
M  V30 3475 C 311.233 -1.96016 4.02842 0
M  V30 3476 C 312.977 -3.24965 2.73126 0
M  V30 3477 C 310.884 -3.04494 5.06988 0
M  V30 3478 H 309.814 -0.514428 0.551253 0
M  V30 3479 H 312.465 -0.658182 1.7129 0
M  V30 3480 H 310.847 -3.21618 2.31037 0
M  V30 3481 H 312.021 -1.29051 4.4236 0
M  V30 3482 H 310.336 -1.31719 3.95018 0
M  V30 3483 H 312.933 -4.05865 3.48106 0
M  V30 3484 H 313.276 -3.75588 1.79553 0
M  V30 3485 H 313.809 -2.5835 3.0249 0
M  V30 3486 H 310.548 -2.58795 6.0225 0
M  V30 3487 H 310.068 -3.70044 4.72046 0
M  V30 3488 H 311.747 -3.68976 5.31475 0
M  V30 3489 N 311.879 -1.3236 -0.855495 0
M  V30 3490 C 313.295 -1.11332 -1.14356 0
M  V30 3491 C 313.495 0.106751 -2.01217 0
M  V30 3492 O 312.551 0.791891 -2.39761 0
M  V30 3493 C 313.864 -2.39237 -1.82171 0
M  V30 3494 C 315.412 -2.44986 -1.9481 0
M  V30 3495 C 315.887 -3.7281 -2.66039 0
M  V30 3496 N 317.378 -3.73787 -2.73565 0
M  V30 3497 C 318.113 -4.69394 -3.29327 0
M  V30 3498 N 317.609 -5.75367 -3.85907 0
M  V30 3499 N 319.402 -4.56893 -3.27423 0
M  V30 3500 H 311.553 -2.10586 -0.277027 0
M  V30 3501 H 313.816 -0.929701 -0.185364 0
M  V30 3502 H 313.522 -3.28431 -1.25802 0
M  V30 3503 H 313.396 -2.50134 -2.82335 0
M  V30 3504 H 315.783 -1.56252 -2.50338 0
M  V30 3505 H 315.864 -2.38043 -0.936448 0
M  V30 3506 H 315.508 -4.61918 -2.11174 0
M  V30 3507 H 315.438 -3.77024 -3.67642 0
M  V30 3508 H 317.929 -2.97189 -2.33424 0
M  V30 3509 H 318.242 -6.44378 -4.26611 0
M  V30 3510 H 316.587 -5.79123 -3.84242 0
M  V30 3511 H 319.778 -3.73269 -2.82467 0
M  V30 3512 H 319.951 -5.31577 -3.7058 0
M  V30 3513 N 313.357 1.07166 -1.15556 0
M  V30 3514 C 314.29 2.13808 -0.797593 0
M  V30 3515 C 315.268 1.6101 0.226812 0
M  V30 3516 O 316.452 1.88161 0.112932 0
M  V30 3517 C 313.579 3.38187 -0.186371 0
M  V30 3518 C 312.625 4.09766 -1.18297 0
M  V30 3519 S 313.458 4.60932 -2.72584 0
M  V30 3520 C 314.614 5.88583 -2.12886 0
M  V30 3521 H 314.847 2.43843 -1.70083 0
M  V30 3522 H 312.38 1.19467 -0.978106 0
M  V30 3523 H 314.338 4.10189 0.159837 0
M  V30 3524 H 312.999 3.06326 0.694489 0
M  V30 3525 H 312.192 4.99065 -0.703562 0
M  V30 3526 H 311.794 3.43736 -1.47381 0
M  V30 3527 H 314.086 6.60866 -1.49208 0
M  V30 3528 H 315.029 6.41241 -3.0036 0
M  V30 3529 H 315.437 5.42194 -1.57116 0
M  V30 3530 N 314.835 0.952656 1.25548 0
M  V30 3531 C 315.798 0.475794 2.24207 0
M  V30 3532 C 316.798 -0.419428 1.55234 0
M  V30 3533 O 317.988 -0.216994 1.72843 0
M  V30 3534 C 315.12 -0.312814 3.39462 0
M  V30 3535 H 316.313 1.34779 2.67908 0
M  V30 3536 H 313.866 0.735739 1.37901 0
M  V30 3537 H 314.601 -1.20257 3.01179 0
M  V30 3538 H 314.386 0.329404 3.90714 0
M  V30 3539 H 315.876 -0.635986 4.12729 0
M  V30 3540 N 316.313 -1.40141 0.720998 0
M  V30 3541 C 317.243 -2.33339 0.0867621 0
M  V30 3542 C 318.224 -1.53178 -0.739622 0
M  V30 3543 O 319.409 -1.81625 -0.687449 0
M  V30 3544 C 316.539 -3.37194 -0.831728 0
M  V30 3545 C 315.493 -4.27857 -0.110558 0
M  V30 3546 C 314.819 -5.22294 -1.14513 0
M  V30 3547 C 316.119 -5.11872 1.0385 0
M  V30 3548 H 317.813 -2.86626 0.865219 0
M  V30 3549 H 315.359 -1.37814 0.417516 0
M  V30 3550 H 317.312 -4.01335 -1.28485 0
M  V30 3551 H 316.036 -2.82314 -1.64214 0
M  V30 3552 H 314.695 -3.65176 0.322797 0
M  V30 3553 H 314.343 -4.63717 -1.94874 0
M  V30 3554 H 314.043 -5.83797 -0.667446 0
M  V30 3555 H 315.567 -5.89312 -1.59824 0
M  V30 3556 H 316.981 -5.69436 0.664482 0
M  V30 3557 H 315.378 -5.82445 1.4449 0
M  V30 3558 H 316.448 -4.4753 1.86668 0
M  V30 3559 N 317.792 -0.46758 -1.50504 0
M  V30 3560 C 319.039 0.0886219 -2.02306 0
M  V30 3561 C 319.367 1.40037 -1.34981 0
M  V30 3562 O 318.622 1.90136 -0.463318 0
M  V30 3563 C 318.921 0.323995 -3.55928 0
M  V30 3564 C 318.587 -0.905618 -4.41712 0
M  V30 3565 C 317.249 -1.24275 -4.64875 0
M  V30 3566 C 319.601 -1.72448 -4.91845 0
M  V30 3567 C 316.929 -2.39888 -5.35417 0
M  V30 3568 C 319.281 -2.87185 -5.63656 0
M  V30 3569 C 317.945 -3.21317 -5.85074 0
M  V30 3570 H 317.215 0.0324291 -0.74029 0
M  V30 3571 H 319.862 -0.620945 -1.81153 0
M  V30 3572 H 318.167 1.11577 -3.75577 0
M  V30 3573 H 319.864 0.76826 -3.93572 0
M  V30 3574 H 316.454 -0.632956 -4.239 0
M  V30 3575 H 320.638 -1.4772 -4.73806 0
M  V30 3576 H 315.894 -2.66611 -5.50208 0
M  V30 3577 H 320.068 -3.50985 -6.01484 0
M  V30 3578 H 317.695 -4.1101 -6.39511 0
M  V30 3579 N 319.27 1.56325 -0.20005 0
M  V30 3580 C 320.518 1.97329 0.436547 0
M  V30 3581 C 320.839 1.08826 1.61808 0
M  V30 3582 O 320.109 0.160604 1.95241 0
M  V30 3583 H 318.689 0.728714 0.164272 0
M  V30 3584 H 321.351 1.92761 -0.287937 0
M  V30 3585 H 320.447 3.02264 0.777353 0
M  V30 3586 N 320.748 -0.0735177 1.57428 0
M  V30 3587 C 321.711 -1.07192 2.02589 0
M  V30 3588 C 322.711 -1.31695 0.922661 0
M  V30 3589 O 323.901 -1.27445 1.18758 0
M  V30 3590 C 321.033 -2.41599 2.40506 0
M  V30 3591 H 322.226 -0.682727 2.92025 0
M  V30 3592 H 319.779 -0.319193 1.53006 0
M  V30 3593 H 320.514 -2.85354 1.5409 0
M  V30 3594 H 320.299 -2.25156 3.21009 0
M  V30 3595 H 321.789 -3.13367 2.76027 0
M  V30 3596 N 322.226 -1.5378 -0.344866 0
M  V30 3597 C 323.174 -1.82373 -1.4437 0
M  V30 3598 C 324.168 -0.694128 -1.54526 0
M  V30 3599 O 325.374 -0.877442 -1.57165 0
M  V30 3600 H 321.749 -0.577765 -0.481344 0
M  V30 3601 H 323.72 -2.74306 -1.17468 0
M  V30 3602 C 322.469 -2.04898 -2.80913 0
M  V30 3603 H 321.792 -2.9127 -2.73865 0
M  V30 3604 H 323.232 -2.28871 -3.56923 0
M  V30 3605 C 321.691 -0.834116 -3.26411 0
M  V30 3606 O 322.221 -0.0328885 -4.01687 0
M  V30 3607 N 320.427 -0.65171 -2.83198 0
M  V30 3608 H 319.974 -1.30489 -2.22104 0
M  V30 3609 H 319.932 0.159686 -3.13994 0
M  V30 3610 N 323.704 0.605807 -1.45491 0
M  V30 3611 C 324.932 1.39136 -1.5313 0
M  V30 3612 C 325.347 1.88082 -0.164507 0
M  V30 3613 O 324.704 1.62316 0.834247 0
M  V30 3614 C 324.755 2.59463 -2.51716 0
M  V30 3615 O 324.476 2.12551 -3.83084 0
M  V30 3616 C 325.977 3.52301 -2.6907 0
M  V30 3617 H 323.197 0.425849 -0.51855 0
M  V30 3618 H 325.741 0.73865 -1.90694 0
M  V30 3619 H 323.896 3.20772 -2.17219 0
M  V30 3620 H 324.31 2.90744 -4.36541 0
M  V30 3621 H 325.784 4.33271 -3.42024 0
M  V30 3622 H 326.261 4.02757 -1.75167 0
M  V30 3623 H 326.867 2.96845 -3.04571 0
M  V30 3624 N 325.182 1.32811 0.848464 0
M  V30 3625 C 326.13 1.22231 1.97895 0
M  V30 3626 C 327.124 0.125749 1.68933 0
M  V30 3627 O 328.33 0.289083 1.77663 0
M  V30 3628 H 324.705 0.379058 0.649476 0
M  V30 3629 H 326.676 2.17828 2.03945 0
M  V30 3630 C 325.425 0.968572 3.33937 0
M  V30 3631 H 324.748 1.80458 3.56756 0
M  V30 3632 H 326.188 0.934808 4.13567 0
M  V30 3633 C 324.647 -0.328628 3.35293 0
M  V30 3634 O 325.177 -1.33848 3.78745 0
M  V30 3635 N 323.383 -0.352788 2.88451 0
M  V30 3636 H 322.93 0.469541 2.53285 0
M  V30 3637 H 322.888 -1.22057 2.89741 0
M  V30 3638 N 326.66 -1.06551 1.16123 0
M  V30 3639 C 328.076 -1.3142 0.905585 0
M  V30 3640 C 328.276 -1.96571 -0.442964 0
M  V30 3641 O 327.332 -2.23068 -1.18308 0
M  V30 3642 C 328.645 -2.19741 2.05267 0
M  V30 3643 C 330.193 -2.33165 2.08813 0
M  V30 3644 C 330.668 -3.24838 3.22868 0
M  V30 3645 N 332.159 -3.32421 3.22568 0
M  V30 3646 C 332.894 -4.0344 4.0746 0
M  V30 3647 N 332.39 -4.77003 5.02434 0
M  V30 3648 N 334.183 -3.99464 3.95456 0
M  V30 3649 H 326.334 -0.626548 2.02949 0
M  V30 3650 H 328.597 -0.338777 0.8854 0
M  V30 3651 H 328.303 -1.79142 3.02657 0
M  V30 3652 H 328.177 -3.20313 1.99198 0
M  V30 3653 H 330.564 -2.73013 1.12018 0
M  V30 3654 H 330.645 -1.3227 2.18948 0
M  V30 3655 H 330.289 -2.85708 4.19921 0
M  V30 3656 H 330.219 -4.25707 3.0997 0
M  V30 3657 H 332.71 -2.79994 2.53795 0
M  V30 3658 H 333.023 -5.28712 5.63634 0
M  V30 3659 H 331.368 -4.75992 5.06415 0
M  V30 3660 H 334.559 -3.4111 3.20564 0
M  V30 3661 H 334.732 -4.54544 4.61837 0
M  V30 3662 N 328.138 -0.959301 -1.25041 0
M  V30 3663 C 329.085 -0.482057 -2.2571 0
M  V30 3664 C 330.055 0.467939 -1.59372 0
M  V30 3665 O 331.24 0.380159 -1.86974 0
M  V30 3666 C 328.38 0.229623 -3.44335 0
M  V30 3667 C 327.493 -0.758156 -4.25295 0
M  V30 3668 C 326.628 -0.0234403 -5.31195 0
M  V30 3669 C 325.667 -1.00184 -6.03846 0
M  V30 3670 N 324.804 -0.29769 -7.01469 0
M  V30 3671 H 329.644 -1.34538 -2.65901 0
M  V30 3672 H 327.181 -0.674592 -1.3072 0
M  V30 3673 H 329.139 0.658856 -4.11965 0
M  V30 3674 H 327.769 1.05696 -3.05005 0
M  V30 3675 H 326.821 -1.30586 -3.57284 0
M  V30 3676 H 328.133 -1.50458 -4.75567 0
M  V30 3677 H 327.287 0.464201 -6.04922 0
M  V30 3678 H 326.026 0.755741 -4.81809 0
M  V30 3679 H 325.031 -1.50044 -5.2893 0
M  V30 3680 H 326.256 -1.78133 -6.55321 0
M  V30 3681 H 324.202 0.462668 -6.54366 0
M  V30 3682 H 324.119 -0.983128 -7.4958 0
M  V30 3683 H 325.387 0.16826 -7.79318 0
M  V30 3684 N 329.616 1.39756 -0.72842 0
M  V30 3685 C 330.863 2.00645 -0.273487 0
M  V30 3686 C 331.191 1.57786 1.13727 0
M  V30 3687 O 330.446 0.794886 1.7883 0
M  V30 3688 C 330.745 3.56002 -0.315776 0
M  V30 3689 C 330.411 4.18489 -1.67863 0
M  V30 3690 C 329.073 4.3527 -2.05166 0
M  V30 3691 C 331.425 4.53219 -2.57375 0
M  V30 3692 C 328.753 4.84069 -3.31503 0
M  V30 3693 C 331.105 5.03423 -3.83077 0
M  V30 3694 C 329.769 5.18413 -4.20481 0
M  V30 3695 H 329.039 0.734211 -0.100076 0
M  V30 3696 H 331.686 1.6718 -0.933972 0
M  V30 3697 H 329.991 3.89452 0.428285 0
M  V30 3698 H 331.688 4.00963 0.0542575 0
M  V30 3699 H 328.278 4.05824 -1.37858 0
M  V30 3700 H 332.462 4.39878 -2.29827 0
M  V30 3701 H 327.718 4.93859 -3.60435 0
M  V30 3702 H 331.892 5.2927 -4.52599 0
M  V30 3703 H 329.519 5.55987 -5.18443 0
M  V30 3704 N 331.094 0.475555 1.50254 0
M  V30 3705 C 332.341 -0.0778919 2.0235 0
M  V30 3706 C 332.669 -1.39319 1.35722 0
M  V30 3707 O 331.924 -1.89888 0.473395 0
M  V30 3708 C 332.223 -0.305114 3.56095 0
M  V30 3709 C 331.889 0.92903 4.41225 0
M  V30 3710 C 330.551 1.26739 4.6421 0
M  V30 3711 C 332.903 1.75054 4.90923 0
M  V30 3712 C 330.231 2.42724 5.34137 0
M  V30 3713 C 332.583 2.9017 5.62125 0
M  V30 3714 C 331.247 3.24416 5.83362 0
M  V30 3715 H 330.517 -0.0285027 0.740452 0
M  V30 3716 H 333.164 0.630543 1.80821 0
M  V30 3717 H 331.469 -1.09584 3.76163 0
M  V30 3718 H 333.166 -0.747377 3.93974 0
M  V30 3719 H 329.756 0.655428 4.23559 0
M  V30 3720 H 333.94 1.50231 4.73016 0
M  V30 3721 H 329.196 2.69525 5.48786 0
M  V30 3722 H 333.37 3.54169 5.99614 0
M  V30 3723 H 330.997 4.14396 6.37323 0
M  V30 3724 N 332.573 -1.56217 0.208337 0
M  V30 3725 C 333.822 -1.97124 -0.427204 0
M  V30 3726 C 334.135 -1.09859 -1.61835 0
M  V30 3727 O 335.341 -1.40606 -2.32255 0
M  V30 3728 C 333.797 -3.50633 -0.811442 0
M  V30 3729 C 333.405 -4.46582 0.35615 0
M  V30 3730 C 335.149 -4.00282 -1.41332 0
M  V30 3731 C 333.056 -5.91379 -0.0497852 0
M  V30 3732 H 331.986 -0.736086 -0.163381 0
M  V30 3733 H 334.637 -1.8099 0.302456 0
M  V30 3734 H 333.019 -3.62319 -1.59815 0
M  V30 3735 H 334.193 -4.46636 1.1337 0
M  V30 3736 H 332.508 -4.07202 0.870396 0
M  V30 3737 H 335.105 -5.0595 -1.72972 0
M  V30 3738 H 335.448 -3.45359 -2.32449 0
M  V30 3739 H 335.981 -3.91764 -0.690323 0
M  V30 3740 H 332.72 -6.50255 0.827529 0
M  V30 3741 H 332.24 -5.94549 -0.791926 0
M  V30 3742 H 333.919 -6.45209 -0.481042 0
M  V30 3743 O 334.09 -0.071647 -1.61341 0
M  V30 3744 H 334.781 0.534597 -1.86177 0
M  V30 END ATOM
M  V30 BEGIN BOND
M  V30 END BOND
M  V30 END CTAB
M  END
$$$$
