drugbank_target|P44801 Aspartate-semialdehyde dehydrogenase (DB03461; DB03502; DB04498)
 OpenBabel12092119583D

  0  0  0     0  0            999 V3000
M  V30 BEGIN CTAB
M  V30 COUNTS 5751 5803 0 0 0
M  V30 BEGIN ATOM
M  V30 1 H -0.908 1.98254 -0.117106 0
M  V30 2 N 0 1.576 0 0
M  V30 3 C 0.933 2.03868 1.02534 0
M  V30 4 C 1.911 0.928543 1.3348 0
M  V30 5 O 3.095 1.19667 1.45644 0
M  V30 6 C 0.222 2.43627 2.35294 0
M  V30 7 C -0.732 3.65373 2.2001 0
M  V30 8 S 0.101 5.13292 1.52614 0
M  V30 9 C 1.257 5.56322 2.86805 0
M  V30 10 H 1.49 2.90518 0.631377 0
M  V30 11 H -0.977 1.52953 0.210867 0
M  V30 12 H 0.981 2.67203 3.11629 0
M  V30 13 H -0.358 1.57376 2.7183 0
M  V30 14 H -1.165 3.90944 3.18086 0
M  V30 15 H -1.563 3.418 1.51819 0
M  V30 16 H 0.729 5.58782 3.83104 0
M  V30 17 H 1.672 6.56266 2.65933 0
M  V30 18 H 2.08 4.83886 2.90714 0
M  V30 19 N 1.4781 -0.272755 1.55222 0
M  V30 20 C 2.4251 -1.33716 1.88119 0
M  V30 21 C 3.3951 -1.49066 0.73271 0
M  V30 22 O 4.5801 -1.63469 0.984002 0
M  V30 23 C 1.7201 -2.69238 2.15882 0
M  V30 24 C 0.8331 -2.62108 3.43399 0
M  V30 25 C -0.0319 -3.89811 3.60861 0
M  V30 26 C -0.9929 -3.77193 4.8207 0
M  V30 27 N -1.8559 -4.9673 4.96189 0
M  V30 28 H 2.9841 -1.04962 2.78903 0
M  V30 29 H 0.5211 -0.507088 1.38083 0
M  V30 30 H 2.4791 -3.48089 2.29978 0
M  V30 31 H 1.1091 -2.96194 1.28331 0
M  V30 32 H 0.1611 -1.74967 3.37773 0
M  V30 33 H 1.4731 -2.48685 4.32386 0
M  V30 34 H 0.6271 -4.77103 3.74777 0
M  V30 35 H -0.6339 -4.06102 2.7006 0
M  V30 36 H -1.6289 -2.88284 4.68159 0
M  V30 37 H -0.4039 -3.62421 5.74307 0
M  V30 38 H -2.4579 -5.13431 4.08319 0
M  V30 39 H -2.5409 -4.85839 5.79221 0
M  V30 40 H -1.2729 -5.85594 5.1449 0
M  V30 41 N 2.9562 -1.48159 -0.537278 0
M  V30 42 C 3.9042 -1.62573 -1.66352 0
M  V30 43 C 4.8982 -0.492366 -1.62087 0
M  V30 44 O 6.1042 -0.670847 -1.67032 0
M  V30 45 H 2.4792 -0.511992 -0.550789 0
M  V30 46 H 4.4502 -2.57176 -1.51337 0
M  V30 47 C 3.1992 -1.67583 -3.04649 0
M  V30 48 H 2.5222 -2.54151 -3.08622 0
M  V30 49 H 3.9622 -1.81713 -3.83088 0
M  V30 50 C 2.4212 -0.413039 -3.34358 0
M  V30 51 O 2.9512 0.477259 -3.98855 0
M  V30 52 N 1.1572 -0.286961 -2.8918 0
M  V30 53 H 0.7042 -1.01241 -2.36871 0
M  V30 54 H 0.6622 0.556963 -3.09427 0
M  V30 55 N 4.4343 0.785586 -1.36625 0
M  V30 56 C 5.6803 1.54591 -1.31261 0
M  V30 57 C 6.0133 1.93906 0.106823 0
M  V30 58 O 5.2883 1.63007 1.06108 0
M  V30 59 C 5.5713 2.82038 -2.23889 0
M  V30 60 C 5.4243 2.49066 -3.74548 0
M  V30 61 C 6.7433 3.83887 -2.15217 0
M  V30 62 H 3.8623 0.560846 -0.478143 0
M  V30 63 H 6.5043 0.902278 -1.67209 0
M  V30 64 H 4.6543 3.36961 -1.93363 0
M  V30 65 H 6.3263 2.00164 -4.15611 0
M  V30 66 H 4.5693 1.81954 -3.93796 0
M  V30 67 H 5.2403 3.40109 -4.34776 0
M  V30 68 H 7.7163 3.38421 -2.42096 0
M  V30 69 H 6.5923 4.70806 -2.82193 0
M  V30 70 H 6.8533 4.27131 -1.14068 0
M  V30 71 N 5.9124 1.20967 1.01018 0
M  V30 72 C 7.1604 1.02172 1.74371 0
M  V30 73 C 7.4814 -0.446414 1.89821 0
M  V30 74 O 6.7514 -1.32234 1.44537 0
M  V30 75 H 5.3314 0.375066 0.646014 0
M  V30 76 H 7.9934 1.52187 1.21758 0
M  V30 77 H 7.0894 1.48538 2.74487 0
M  V30 78 N 7.3905 -1.2043 1.01659 0
M  V30 79 C 8.6375 -1.89797 0.705917 0
M  V30 80 C 8.9655 -1.78848 -0.764439 0
M  V30 81 O 8.2205 -1.16694 -1.57102 0
M  V30 82 C 8.5195 -3.40464 1.08714 0
M  V30 83 C 8.1855 -3.71614 2.5537 0
M  V30 84 C 6.8475 -3.79826 2.95441 0
M  V30 85 C 9.1995 -3.85915 3.50313 0
M  V30 86 C 6.5275 -3.99797 4.29394 0
M  V30 87 C 8.8795 -4.07396 4.83954 0
M  V30 88 C 7.5435 -4.13837 5.23732 0
M  V30 89 H 6.8135 -0.694518 0.258313 0
M  V30 90 H 9.4605 -1.42691 1.27717 0
M  V30 91 H 7.7655 -3.89385 0.434309 0
M  V30 92 H 9.4625 -3.92433 0.824461 0
M  V30 93 H 6.0525 -3.65822 2.23321 0
M  V30 94 H 10.2365 -3.78926 3.20513 0
M  V30 95 H 5.4925 -4.03018 4.59768 0
M  V30 96 H 9.6665 -4.17404 5.57447 0
M  V30 97 H 7.2935 -4.29064 6.27541 0
M  V30 98 N 8.8686 -0.792821 -1.36206 0
M  V30 99 C 10.1176 -0.363353 -1.984 0
M  V30 100 C 10.4306 1.07172 -1.63626 0
M  V30 101 O 11.6366 1.60362 -2.19081 0
M  V30 102 C 10.0926 -0.59872 -3.54885 0
M  V30 103 C 9.7006 -2.04543 -3.9858 0
M  V30 104 C 11.4446 -0.233926 -4.23855 0
M  V30 105 C 9.3516 -2.22727 -5.47856 0
M  V30 106 H 8.2816 -0.13212 -0.742334 0
M  V30 107 H 10.9326 -0.974935 -1.55458 0
M  V30 108 H 9.3146 0.0826222 -3.95914 0
M  V30 109 H 10.4886 -2.76345 -3.68741 0
M  V30 110 H 8.8036 -2.36879 -3.42458 0
M  V30 111 H 11.4006 -0.348027 -5.33566 0
M  V30 112 H 11.7436 0.818351 -4.08177 0
M  V30 113 H 12.2766 -0.868639 -3.882 0
M  V30 114 H 9.0156 -3.2635 -5.68486 0
M  V30 115 H 8.5356 -1.55434 -5.7931 0
M  V30 116 H 10.2146 -2.03607 -6.14128 0
M  V30 117 N 10.3467 1.47872 -0.545128 0
M  V30 118 C 11.5947 2.02093 -0.016553 0
M  V30 119 C 11.9157 1.42305 1.3332 0
M  V30 120 O 11.1857 0.593853 1.86682 0
M  V30 121 H 9.7657 0.746993 -0.00313038 0
M  V30 122 H 12.4277 1.81414 -0.712397 0
M  V30 123 H 11.5237 3.11996 0.0805422 0
M  V30 124 N 11.8248 0.280983 1.55075 0
M  V30 125 C 13.0708 -0.327573 2.00745 0
M  V30 126 C 13.4258 -1.53045 1.16598 0
M  V30 127 O 12.7188 -1.90221 0.229451 0
M  V30 128 C 12.9128 -0.754656 3.49342 0
M  V30 129 C 12.7418 0.40529 4.4787 0
M  V30 130 C 11.5118 0.890947 4.97383 0
M  V30 131 C 13.7098 1.24371 4.99035 0
M  V30 132 N 11.6918 2.01975 5.79724 0
M  V30 133 C 13.0628 2.22031 5.7888 0
M  V30 134 C 15.1178 1.27638 4.81262 0
M  V30 135 C 13.8208 3.22709 6.42846 0
M  V30 136 C 15.8468 2.27164 5.46031 0
M  V30 137 C 15.2088 3.23556 6.25692 0
M  V30 138 H 11.3078 -0.0848774 0.77738 0
M  V30 139 H 13.8918 0.406342 1.90413 0
M  V30 140 H 12.0628 -1.45778 3.60005 0
M  V30 141 H 13.7948 -1.34105 3.81835 0
M  V30 142 H 10.5498 0.469262 4.71269 0
M  V30 143 H 10.9738 2.58794 6.25584 0
M  V30 144 H 15.6158 0.544936 4.19274 0
M  V30 145 H 13.3338 3.96784 7.0398 0
M  V30 146 H 16.9198 2.30441 5.34217 0
M  V30 147 H 15.7998 3.99309 6.74924 0
M  V30 148 N 13.3029 -1.57598 0.00835791 0
M  V30 149 C 14.7189 -1.55764 -0.347822 0
M  V30 150 C 14.9189 -1.01186 -1.74252 0
M  V30 151 O 13.9749 -0.649371 -2.44007 0
M  V30 152 C 15.2879 -2.99927 -0.215407 0
M  V30 153 C 16.8359 -3.11656 -0.289725 0
M  V30 154 C 17.3109 -4.57621 -0.18634 0
M  V30 155 N 18.8019 -4.62557 -0.243978 0
M  V30 156 C 19.5369 -5.73094 -0.18745 0
M  V30 157 N 19.0329 -6.92753 -0.0810331 0
M  V30 158 N 20.8259 -5.61588 -0.239925 0
M  V30 159 H 12.9769 -1.91411 0.92062 0
M  V30 160 H 15.2399 -0.879562 0.353659 0
M  V30 161 H 14.9459 -3.43729 0.744512 0
M  V30 162 H 14.8199 -3.63865 -0.994097 0
M  V30 163 H 17.2069 -2.67779 -1.24009 0
M  V30 164 H 17.2879 -2.5048 0.51898 0
M  V30 165 H 16.9319 -5.02174 0.760519 0
M  V30 166 H 16.8619 -5.16752 -1.01364 0
M  V30 167 H 19.3529 -3.76481 -0.327217 0
M  V30 168 H 19.6659 -7.72787 -0.0440241 0
M  V30 169 H 18.0109 -6.94984 -0.0465419 0
M  V30 170 H 21.2019 -4.66996 -0.321317 0
M  V30 171 H 21.3749 -6.47714 -0.192407 0
M  V30 172 N 14.781 0.264519 -1.55364 0
M  V30 173 C 16.029 0.993021 -1.76021 0
M  V30 174 C 16.35 1.86511 -0.569099 0
M  V30 175 O 15.62 1.91438 0.415735 0
M  V30 176 H 14.2 0.369639 -0.649135 0
M  V30 177 H 16.862 0.286707 -1.9278 0
M  V30 178 H 15.958 1.62502 -2.66457 0
M  V30 179 N 16.2591 1.48442 0.529413 0
M  V30 180 C 17.1921 1.57577 1.65059 0
M  V30 181 C 18.1701 0.426198 1.56915 0
M  V30 182 O 19.3541 0.637877 1.77379 0
M  V30 183 C 16.4811 1.5043 3.03461 0
M  V30 184 C 15.5271 2.70235 3.29962 0
M  V30 185 S 16.3601 4.32198 3.16172 0
M  V30 186 C 17.5161 4.2765 4.57019 0
M  V30 187 H 17.7491 2.52427 1.5706 0
M  V30 188 H 15.2821 1.36982 0.712417 0
M  V30 189 H 17.2401 1.46992 3.8328 0
M  V30 190 H 15.9011 0.569167 3.089 0
M  V30 191 H 15.0941 2.61374 4.30929 0
M  V30 192 H 14.6961 2.70938 2.57815 0
M  V30 193 H 16.9881 3.97618 5.48549 0
M  V30 194 H 17.9311 5.28797 4.70934 0
M  V30 195 H 18.3391 3.5811 4.36368 0
M  V30 196 N 17.7372 -0.778329 1.37039 0
M  V30 197 C 18.9832 -1.53892 1.32079 0
M  V30 198 C 19.3162 -1.9396 -0.0965386 0
M  V30 199 O 18.5912 -1.63568 -1.05242 0
M  V30 200 C 18.8742 -2.80847 2.25382 0
M  V30 201 C 18.7272 -2.47076 3.75864 0
M  V30 202 C 20.0462 -3.82741 2.1725 0
M  V30 203 H 17.1652 -0.558303 0.48111 0
M  V30 204 H 19.8072 -0.893397 1.67685 0
M  V30 205 H 17.9572 -3.35931 1.95148 0
M  V30 206 H 19.6292 -1.97957 4.16666 0
M  V30 207 H 17.8722 -1.79863 3.94755 0
M  V30 208 H 18.5432 -3.37798 4.36574 0
M  V30 209 H 21.0192 -3.37133 2.43887 0
M  V30 210 H 19.8952 -4.69303 2.84686 0
M  V30 211 H 20.1562 -4.2652 1.16331 0
M  V30 212 N 19.2153 -1.21501 -1.00376 0
M  V30 213 C 20.4633 -1.03095 -1.73827 0
M  V30 214 C 20.7843 0.436341 -1.90055 0
M  V30 215 O 20.0543 1.31466 -1.45236 0
M  V30 216 H 18.6343 -0.378487 -0.644016 0
M  V30 217 H 21.2963 -1.52831 -1.20949 0
M  V30 218 H 20.3923 -1.49991 -2.73695 0
M  V30 219 N 20.6934 1.19889 -1.02296 0
M  V30 220 C 21.9184 1.9393 -0.735237 0
M  V30 221 C 22.3434 1.74639 0.698782 0
M  V30 222 O 21.7014 1.04481 1.48167 0
M  V30 223 C 21.7494 3.43916 -1.08417 0
M  V30 224 O 20.8534 4.11917 -0.199446 0
M  V30 225 H 20.1944 0.605645 -0.272196 0
M  V30 226 H 22.7244 1.52137 -1.36804 0
M  V30 227 H 22.7344 3.9456 -1.03856 0
M  V30 228 H 21.4094 3.5728 -2.12894 0
M  V30 229 H 19.9864 3.71666 -0.303136 0
M  V30 230 N 22.1715 0.800033 1.35784 0
M  V30 231 C 23.4175 0.377901 1.99248 0
M  V30 232 C 23.7505 -1.05052 1.63333 0
M  V30 233 O 23.0255 -1.72768 0.893385 0
M  V30 234 C 23.3085 0.553922 3.55814 0
M  V30 235 C 23.1615 2.0268 4.01548 0
M  V30 236 C 24.4805 -0.0244802 4.40093 0
M  V30 237 H 21.5995 0.138782 0.723815 0
M  V30 238 H 24.2415 1.00835 1.61035 0
M  V30 239 H 22.3915 0.0172398 3.88496 0
M  V30 240 H 24.0635 2.62536 3.79305 0
M  V30 241 H 22.3065 2.5256 3.52698 0
M  V30 242 H 22.9775 2.10087 5.10458 0
M  V30 243 H 25.4535 0.433775 4.13833 0
M  V30 244 H 24.3295 0.128637 5.48749 0
M  V30 245 H 24.5905 -1.11758 4.27741 0
M  V30 246 N 23.6496 -1.47581 0.552962 0
M  V30 247 C 24.5796 -2.32762 -0.185451 0
M  V30 248 C 25.5606 -1.43527 -0.912905 0
M  V30 249 O 26.7456 -1.72388 -0.894201 0
M  V30 250 C 23.8756 -3.25219 -1.21859 0
M  V30 251 C 22.8296 -4.23661 -0.607864 0
M  V30 252 C 22.1556 -5.05413 -1.74533 0
M  V30 253 C 23.4556 -5.20481 0.435582 0
M  V30 254 H 25.1496 -2.94749 0.525684 0
M  V30 255 H 22.6956 -1.41738 0.254251 0
M  V30 256 H 24.6486 -3.8365 -1.7433 0
M  V30 257 H 23.3726 -2.61279 -1.95961 0
M  V30 258 H 22.0316 -3.66451 -0.104489 0
M  V30 259 H 21.6796 -4.3788 -2.47529 0
M  V30 260 H 21.3796 -5.72059 -1.34249 0
M  V30 261 H 22.9036 -5.66701 -2.27338 0
M  V30 262 H 24.3176 -5.733 -0.00290157 0
M  V30 263 H 22.7146 -5.95305 0.757067 0
M  V30 264 H 23.7846 -4.66217 1.33303 0
M  V30 265 N 25.1277 -0.289203 -1.54924 0
M  V30 266 C 26.0607 0.633823 -2.19221 0
M  V30 267 C 27.0387 1.14174 -1.15772 0
M  V30 268 O 28.2227 1.21211 -1.44361 0
M  V30 269 C 25.3497 1.86592 -2.82668 0
M  V30 270 C 24.3957 1.49227 -3.99542 0
M  V30 271 S 25.2287 0.558312 -5.32582 0
M  V30 272 C 26.3847 1.79847 -5.99505 0
M  V30 273 H 26.6177 0.0875416 -2.97171 0
M  V30 274 H 24.1507 -0.0733899 -1.54225 0
M  V30 275 H 26.1087 2.57305 -3.19851 0
M  V30 276 H 24.7697 2.38335 -2.04585 0
M  V30 277 H 23.9627 2.40945 -4.42676 0
M  V30 278 H 23.5647 0.865193 -3.63855 0
M  V30 279 H 25.8567 2.7406 -6.19595 0
M  V30 280 H 26.7997 1.4099 -6.93922 0
M  V30 281 H 27.2077 1.96982 -5.29016 0
M  V30 282 N 26.6058 1.57591 -0.0167156 0
M  V30 283 C 27.8828 1.82547 0.702564 0
M  V30 284 C 28.2628 0.898018 1.91047 0
M  V30 285 O 27.6108 -0.0493456 2.28447 0
M  V30 286 C 27.8208 3.31459 1.09251 0
M  V30 287 C 29.1688 3.97622 1.48937 0
M  V30 288 O 30.1928 3.35881 1.18584 0
M  V30 289 O 29.0518 5.06415 2.05442 0
M  V30 290 H 26.1458 0.752268 0.343544 0
M  V30 291 H 28.6918 1.69644 -0.0434495 0
M  V30 292 H 27.4638 3.9061 0.23227 0
M  V30 293 H 27.0868 3.49422 1.89709 0
M  V30 294 N 28.0839 -0.256276 1.55502 0
M  V30 295 C 29.4999 -0.604325 1.47716 0
M  V30 296 C 29.6999 -1.88763 0.705039 0
M  V30 297 O 28.7559 -2.51445 0.230613 0
M  V30 298 C 30.0689 -0.715756 2.92057 0
M  V30 299 C 31.6169 -0.808706 3.02372 0
M  V30 300 C 32.0919 -0.951777 4.48001 0
M  V30 301 N 33.5829 -1.01688 4.519 0
M  V30 302 C 34.3179 -1.14668 5.61817 0
M  V30 303 N 33.8139 -1.24261 6.81565 0
M  V30 304 N 35.6069 -1.1791 5.49594 0
M  V30 305 H 27.7579 0.586291 2.04148 0
M  V30 306 H 30.0209 0.201015 0.926443 0
M  V30 307 H 29.7269 0.157027 3.51349 0
M  V30 308 H 29.6009 -1.59071 3.42018 0
M  V30 309 H 31.9879 -1.67195 2.43166 0
M  V30 310 H 32.0689 0.0912063 2.55637 0
M  V30 311 H 31.7129 -0.0931291 5.07815 0
M  V30 312 H 31.6429 -1.86659 4.92408 0
M  V30 313 H 34.1339 -0.954468 3.65648 0
M  V30 314 H 34.4469 -1.34046 7.61086 0
M  V30 315 H 32.7919 -1.21236 6.84344 0
M  V30 316 H 35.9829 -1.10057 4.54978 0
M  V30 317 H 36.1559 -1.27681 6.35296 0
M  V30 318 N 29.562 -1.4872 -0.521534 0
M  V30 319 C 30.495 -1.58451 -1.64221 0
M  V30 320 C 31.473 -0.434513 -1.56687 0
M  V30 321 O 32.657 -0.647275 -1.77038 0
M  V30 322 C 29.784 -1.52037 -3.02659 0
M  V30 323 C 28.83 -2.71981 -3.28525 0
M  V30 324 S 29.663 -4.33869 -3.13876 0
M  V30 325 C 30.819 -4.30067 -4.54745 0
M  V30 326 H 31.052 -2.53256 -1.55719 0
M  V30 327 H 28.585 -1.37358 -0.705143 0
M  V30 328 H 30.543 -1.49023 -3.82495 0
M  V30 329 H 29.204 -0.585541 -3.08594 0
M  V30 330 H 28.397 -2.63656 -4.29536 0
M  V30 331 H 27.999 -2.72302 -2.56374 0
M  V30 332 H 30.291 -4.00521 -5.46433 0
M  V30 333 H 31.234 -5.31287 -4.68123 0
M  V30 334 H 31.642 -3.60419 -4.34463 0
M  V30 335 N 31.0401 0.771051 -1.3745 0
M  V30 336 C 32.2651 1.56529 -1.36065 0
M  V30 337 C 32.6901 1.88029 0.0515859 0
M  V30 338 O 32.0481 1.49282 1.02882 0
M  V30 339 C 32.0961 2.85187 -2.20683 0
M  V30 340 O 31.2001 3.79593 -1.61193 0
M  V30 341 H 30.5411 0.47411 -0.464883 0
M  V30 342 H 33.0711 0.954269 -1.80983 0
M  V30 343 H 33.0811 3.34283 -2.33921 0
M  V30 344 H 31.7561 2.61588 -3.23334 0
M  V30 345 H 30.3331 3.38239 -1.56999 0
M  V30 346 N 32.5182 1.22032 0.997298 0
M  V30 347 C 33.4502 0.944263 2.08845 0
M  V30 348 C 34.4632 -0.0754663 1.62625 0
M  V30 349 O 35.6522 0.157994 1.77799 0
M  V30 350 C 32.7522 0.397723 3.36558 0
M  V30 351 C 31.9252 1.47362 4.11829 0
M  V30 352 C 30.9842 0.934951 5.17827 0
M  V30 353 O 30.0102 1.62016 5.45655 0
M  V30 354 N 31.2122 -0.245895 5.79979 0
M  V30 355 H 33.9772 1.88363 2.33109 0
M  V30 356 H 31.5382 1.12661 1.16272 0
M  V30 357 H 33.5302 0.0227771 4.04694 0
M  V30 358 H 32.1002 -0.446646 3.09393 0
M  V30 359 H 31.3202 2.02208 3.38386 0
M  V30 360 H 32.6082 2.19764 4.58891 0
M  V30 361 H 32.0062 -0.819475 5.59733 0
M  V30 362 H 30.5632 -0.562272 6.4937 0
M  V30 363 N 33.9963 -1.19345 1.0293 0
M  V30 364 C 34.9063 -2.26245 0.620515 0
M  V30 365 C 35.9223 -1.70486 -0.347928 0
M  V30 366 O 37.0983 -2.00347 -0.205704 0
M  V30 367 C 34.1633 -3.46693 -0.0218957 0
M  V30 368 C 33.2243 -4.17632 0.994102 0
M  V30 369 C 32.4573 -5.32329 0.382253 0
M  V30 370 O 32.6803 -5.64552 -0.814676 0
M  V30 371 O 31.6143 -5.91664 1.10531 0
M  V30 372 H 35.4403 -2.63453 1.51083 0
M  V30 373 H 33.0253 -1.26207 0.799513 0
M  V30 374 H 34.9073 -4.19683 -0.380072 0
M  V30 375 H 33.5823 -3.11333 -0.886209 0
M  V30 376 H 32.4893 -3.4676 1.40387 0
M  V30 377 H 33.8223 -4.56964 1.8288 0
M  V30 378 N 35.4744 -0.807222 -1.35358 0
M  V30 379 C 36.4224 -0.20614 -2.31685 0
M  V30 380 C 37.4164 0.644445 -1.56663 0
M  V30 381 O 38.6224 0.537538 -1.71786 0
M  V30 382 H 34.9974 -0.0479006 -0.750473 0
M  V30 383 H 36.9684 -1.03369 -2.79924 0
M  V30 384 C 35.7174 0.630212 -3.41941 0
M  V30 385 H 35.0404 -0.0149558 -3.99797 0
M  V30 386 H 36.4804 1.01716 -4.11619 0
M  V30 387 C 34.9394 1.79601 -2.85035 0
M  V30 388 O 35.4694 2.89351 -2.78637 0
M  V30 389 N 33.6754 1.60774 -2.42074 0
M  V30 390 H 33.2224 0.715009 -2.47478 0
M  V30 391 H 33.1804 2.38933 -2.04349 0
M  V30 392 N 36.9525 1.47285 -0.560781 0
M  V30 393 C 38.2295 1.9558 0.0277798 0
M  V30 394 C 38.6095 1.5034 1.48192 0
M  V30 395 O 37.9575 0.743882 2.16052 0
M  V30 396 C 38.1675 3.48789 -0.121418 0
M  V30 397 C 39.5155 4.24594 0.0220912 0
M  V30 398 O 40.5395 3.56166 -0.0491439 0
M  V30 399 O 39.3985 5.46217 0.175958 0
M  V30 400 H 36.4925 0.824663 0.0621342 0
M  V30 401 H 39.0385 1.5767 -0.627556 0
M  V30 402 H 37.8105 3.74533 -1.13316 0
M  V30 403 H 37.4335 3.93473 0.571366 0
M  V30 404 N 38.4306 0.297415 1.54768 0
M  V30 405 C 39.6776 -0.312913 2.00068 0
M  V30 406 C 40.0056 -1.54171 1.18582 0
M  V30 407 O 39.2606 -1.94108 0.249133 0
M  V30 408 C 39.5596 -0.717561 3.50123 0
M  V30 409 C 39.2256 0.409095 4.4904 0
M  V30 410 C 37.8876 0.718399 4.75807 0
M  V30 411 C 40.2396 1.16717 5.07963 0
M  V30 412 C 37.5676 1.78896 5.5876 0
M  V30 413 C 39.9196 2.22762 5.92081 0
M  V30 414 C 38.5836 2.54303 6.1716 0
M  V30 415 H 37.8536 -0.114503 0.7321 0
M  V30 416 H 40.5006 0.415767 1.86932 0
M  V30 417 H 38.8056 -1.52627 3.60849 0
M  V30 418 H 40.5026 -1.20091 3.82595 0
M  V30 419 H 37.0926 0.157918 4.28309 0
M  V30 420 H 41.2766 0.941466 4.87289 0
M  V30 421 H 36.5326 2.0381 5.7643 0
M  V30 422 H 40.7066 2.81962 6.36765 0
M  V30 423 H 38.3336 3.3739 6.81229 0
M  V30 424 N 39.9087 -1.5758 0.0250728 0
M  V30 425 C 40.8187 -2.1343 -0.973905 0
M  V30 426 C 41.8347 -1.08556 -1.35984 0
M  V30 427 O 43.0107 -1.40592 -1.44207 0
M  V30 428 C 40.0757 -2.64703 -2.23904 0
M  V30 429 C 39.1367 -3.84276 -1.91391 0
M  V30 430 C 38.3697 -4.33095 -3.11873 0
M  V30 431 O 38.5927 -3.81107 -4.24398 0
M  V30 432 O 37.5267 -5.24984 -2.94406 0
M  V30 433 H 41.3527 -2.99057 -0.529036 0
M  V30 434 H 38.9377 -1.48118 -0.195288 0
M  V30 435 H 40.8197 -2.97769 -2.98181 0
M  V30 436 H 39.4947 -1.82161 -2.6758 0
M  V30 437 H 38.4017 -3.56143 -1.14511 0
M  V30 438 H 39.7347 -4.67968 -1.52534 0
M  V30 439 N 41.3868 0.248026 -1.55636 0
M  V30 440 C 42.3348 1.32683 -1.91045 0
M  V30 441 C 43.3288 1.49883 -0.789401 0
M  V30 442 O 44.5348 1.51371 -0.974007 0
M  V30 443 H 40.9098 0.444272 -0.606734 0
M  V30 444 H 42.8808 1.00085 -2.81115 0
M  V30 445 C 41.6298 2.6755 -2.22064 0
M  V30 446 H 40.9528 2.55114 -3.07826 0
M  V30 447 H 42.3928 3.41912 -2.50743 0
M  V30 448 C 40.8518 3.20556 -1.0366 0
M  V30 449 O 41.3818 4.00695 -0.284016 0
M  V30 450 N 39.5878 2.78568 -0.82753 0
M  V30 451 H 39.1348 2.1351 -1.44123 0
M  V30 452 H 39.0928 3.14378 -0.0369803 0
M  V30 453 N 42.8649 1.48995 0.513639 0
M  V30 454 C 43.7949 1.67636 1.62544 0
M  V30 455 C 44.7759 0.525087 1.61793 0
M  V30 456 O 45.9609 0.759502 1.78732 0
M  V30 457 C 43.0909 1.73114 3.01079 0
M  V30 458 C 42.0449 2.87905 3.16693 0
M  V30 459 C 41.3709 2.78486 4.56453 0
M  V30 460 C 42.6709 4.29005 2.97913 0
M  V30 461 H 44.3649 2.60716 1.47198 0
M  V30 462 H 41.9109 1.25465 0.706714 0
M  V30 463 H 43.8639 1.84742 3.78746 0
M  V30 464 H 42.5879 0.766241 3.17484 0
M  V30 465 H 41.2469 2.75859 2.41448 0
M  V30 466 H 40.8949 1.7993 4.69717 0
M  V30 467 H 40.5949 3.55523 4.67843 0
M  V30 468 H 42.1189 2.92104 5.36197 0
M  V30 469 H 43.5329 4.41798 3.65359 0
M  V30 470 H 41.9299 5.07166 3.20785 0
M  V30 471 H 42.9999 4.44329 1.94165 0
M  V30 472 N 44.343 -0.763751 1.37857 0
M  V30 473 C 45.291 -1.89864 1.34367 0
M  V30 474 C 46.285 -1.67816 0.231143 0
M  V30 475 O 47.491 -1.75508 0.399617 0
M  V30 476 H 43.866 -0.624501 0.41893 0
M  V30 477 H 45.837 -1.89925 2.30155 0
M  V30 478 C 44.586 -3.27227 1.1755 0
M  V30 479 H 43.909 -3.44773 2.02414 0
M  V30 480 H 45.349 -4.06911 1.1916 0
M  V30 481 C 43.808 -3.36692 -0.118311 0
M  V30 482 O 44.338 -3.86374 -1.09902 0
M  V30 483 N 42.544 -2.90092 -0.171717 0
M  V30 484 H 42.091 -2.49853 0.627012 0
M  V30 485 H 42.049 -2.96806 -1.03699 0
M  V30 486 N 45.8211 -1.22559 -0.990812 0
M  V30 487 C 47.2321 -1.04791 -1.54518 0
M  V30 488 C 47.5831 0.387998 -1.92325 0
M  V30 489 O 46.7081 1.27328 -1.74976 0
M  V30 490 C 47.3031 -1.896 -2.80779 0
M  V30 491 C 45.8621 -1.76124 -3.32652 0
M  V30 492 C 45.0091 -1.8594 -2.05722 0
M  V30 493 H 47.9601 -1.36374 -0.811662 0
M  V30 494 H 47.9811 -1.41464 -3.53225 0
M  V30 495 H 47.4931 -2.94101 -2.53231 0
M  V30 496 H 45.5941 -0.743643 -3.65104 0
M  V30 497 H 45.7071 -2.58913 -4.03114 0
M  V30 498 H 44.0711 -1.29403 -2.19379 0
M  V30 499 H 44.8541 -2.91976 -1.80568 0
M  V30 500 N 47.2992 1.18797 -1.03562 0
M  V30 501 C 48.5452 1.8893 -0.737113 0
M  V30 502 C 48.8782 1.79837 0.732956 0
M  V30 503 O 48.1532 1.19525 1.5344 0
M  V30 504 C 48.4362 3.39607 -1.19745 0
M  V30 505 C 48.2892 3.57537 -2.72924 0
M  V30 506 C 49.6082 4.33069 -0.783526 0
M  V30 507 H 46.7272 0.686057 -0.269249 0
M  V30 508 H 49.3692 1.39797 -1.28673 0
M  V30 509 H 47.5192 3.81583 -0.729855 0
M  V30 510 H 49.1912 3.24688 -3.27682 0
M  V30 511 H 47.4342 3.00363 -3.12993 0
M  V30 512 H 48.1052 4.63238 -3.00191 0
M  V30 513 H 50.5812 3.98846 -1.18581 0
M  V30 514 H 49.4572 5.3707 -1.13343 0
M  V30 515 H 49.7182 4.40986 0.313681 0
M  V30 516 N 48.7773 0.814389 1.34928 0
M  V30 517 C 50.0243 0.398423 1.98542 0
M  V30 518 C 50.3523 -1.03638 1.64589 0
M  V30 519 O 49.6073 -1.73509 0.90516 0
M  V30 520 C 49.9063 0.537781 3.53331 0
M  V30 521 C 49.5723 1.93704 4.07172 0
M  V30 522 C 48.2343 2.31984 4.21589 0
M  V30 523 C 50.5863 2.85213 4.36237 0
M  V30 524 C 47.9143 3.61125 4.62391 0
M  V30 525 C 50.2663 4.13809 4.78482 0
M  V30 526 C 48.9303 4.52077 4.91104 0
M  V30 527 H 48.2003 0.145793 0.726516 0
M  V30 528 H 50.8473 1.03669 1.61012 0
M  V30 529 H 49.1523 -0.183906 3.91368 0
M  V30 530 H 50.8493 0.196588 4.00518 0
M  V30 531 H 47.4393 1.62966 3.96409 0
M  V30 532 H 51.6233 2.56885 4.24645 0
M  V30 533 H 46.8793 3.90612 4.70353 0
M  V30 534 H 51.0533 4.84811 4.99932 0
M  V30 535 H 48.6803 5.52196 5.22478 0
M  V30 536 N 50.2554 -1.46986 0.568584 0
M  V30 537 C 51.5024 -2.02441 0.0487986 0
M  V30 538 C 51.8304 -1.44169 -1.30559 0
M  V30 539 O 51.0854 -0.591213 -1.86556 0
M  V30 540 C 51.3844 -3.57306 -0.081836 0
M  V30 541 C 51.0504 -4.34552 1.20313 0
M  V30 542 C 49.7124 -4.55376 1.5552 0
M  V30 543 C 52.0644 -4.79016 2.05411 0
M  V30 544 C 49.3924 -5.17913 2.7565 0
M  V30 545 C 51.7444 -5.42879 3.24754 0
M  V30 546 C 50.4084 -5.61933 3.60261 0
M  V30 547 H 49.6784 -0.740785 0.0178567 0
M  V30 548 H 52.3254 -1.76525 0.742384 0
M  V30 549 H 50.6304 -3.8228 -0.858463 0
M  V30 550 H 52.3274 -3.97876 -0.499546 0
M  V30 551 H 48.9174 -4.18631 0.919014 0
M  V30 552 H 53.1014 -4.62696 1.79516 0
M  V30 553 H 48.3574 -5.30858 3.03315 0
M  V30 554 H 52.5314 -5.76293 3.90973 0
M  V30 555 H 50.1584 -6.10161 4.53439 0
M  V30 556 N 51.7335 -0.305618 -1.54608 0
M  V30 557 C 52.9615 0.304775 -2.04643 0
M  V30 558 C 53.3765 1.47167 -1.18268 0
M  V30 559 O 52.7335 1.81296 -0.209328 0
M  V30 560 C 52.7845 0.756564 -3.53495 0
M  V30 561 O 52.5055 -0.36389 -4.36586 0
M  V30 562 C 54.0065 1.43163 -4.19546 0
M  V30 563 H 51.2265 0.0655481 -0.667791 0
M  V30 564 H 53.7705 -0.446592 -1.99564 0
M  V30 565 H 51.9255 1.45794 -3.58919 0
M  V30 566 H 52.3395 -0.0113121 -5.24499 0
M  V30 567 H 53.8135 1.69886 -5.25207 0
M  V30 568 H 54.2905 2.37318 -3.69563 0
M  V30 569 H 54.8965 0.773307 -4.18211 0
M  V30 570 N 53.2116 1.57565 -0.0334293 0
M  V30 571 C 54.4396 1.9628 0.654347 0
M  V30 572 C 54.8546 0.910138 1.65414 0
M  V30 573 O 54.2116 -0.107595 1.82183 0
M  V30 574 C 54.2626 3.35067 1.35693 0
M  V30 575 O 53.9836 4.36296 0.397191 0
M  V30 576 C 55.4846 3.88439 2.13613 0
M  V30 577 H 52.7046 0.646369 0.180132 0
M  V30 578 H 55.2486 2.04282 -0.0944721 0
M  V30 579 H 53.4036 3.2827 2.05712 0
M  V30 580 H 53.8176 5.1678 0.896597 0
M  V30 581 H 55.2916 4.8788 2.58219 0
M  V30 582 H 55.7686 3.22914 2.97696 0
M  V30 583 H 56.3746 3.98516 1.48543 0
M  V30 584 N 54.6897 -0.239769 1.55765 0
M  V30 585 C 55.9147 -0.988373 1.82335 0
M  V30 586 C 56.3397 -1.77886 0.611421 0
M  V30 587 O 55.6977 -1.75889 -0.439639 0
M  V30 588 C 55.7457 -1.89627 3.06715 0
M  V30 589 O 54.8497 -2.98904 2.84131 0
M  V30 590 H 54.1907 -0.280858 0.601677 0
M  V30 591 H 56.7207 -0.258597 2.02959 0
M  V30 592 H 56.7307 -2.30957 3.36338 0
M  V30 593 H 55.4057 -1.31511 3.9456 0
M  V30 594 H 53.9827 -2.61651 2.65694 0
M  V30 595 N 56.1678 -1.49265 -0.50573 0
M  V30 596 C 57.0998 -1.617 -1.62437 0
M  V30 597 C 58.1128 -0.499924 -1.54934 0
M  V30 598 O 59.3018 -0.771785 -1.60953 0
M  V30 599 C 56.4018 -1.5533 -3.01207 0
M  V30 600 C 55.5748 -2.8249 -3.33943 0
M  V30 601 C 54.6338 -2.69238 -4.52103 0
M  V30 602 O 53.6598 -3.43167 -4.5412 0
M  V30 603 N 54.8618 -1.80468 -5.51735 0
M  V30 604 H 57.6268 -2.58177 -1.52199 0
M  V30 605 H 55.1878 -1.46294 -0.693511 0
M  V30 606 H 57.1798 -1.44125 -3.78167 0
M  V30 607 H 55.7498 -0.667297 -3.05395 0
M  V30 608 H 54.9698 -3.08081 -2.45926 0
M  V30 609 H 56.2578 -3.66802 -3.5261 0
M  V30 610 H 55.6558 -1.19653 -5.52901 0
M  V30 611 H 54.2128 -1.75188 -6.27816 0
M  V30 612 N 57.6459 0.756429 -1.3826 0
M  V30 613 C 58.6089 1.85176 -1.35065 0
M  V30 614 C 59.6089 1.58818 -0.251703 0
M  V30 615 O 60.7989 1.66615 -0.508433 0
M  V30 616 C 57.9309 3.22596 -1.10201 0
M  V30 617 H 59.1239 1.89417 -2.3251 0
M  V30 618 H 56.6769 0.95783 -1.23512 0
M  V30 619 H 57.4119 3.24025 -0.133504 0
M  V30 620 H 57.1969 3.43122 -1.89762 0
M  V30 621 H 58.6869 4.02673 -1.10654 0
M  V30 622 N 59.124 1.23083 0.984299 0
M  V30 623 C 60.372 1.05848 1.72165 0
M  V30 624 C 60.693 -0.406049 1.90726 0
M  V30 625 O 59.963 -1.29139 1.47309 0
M  V30 626 H 58.543 0.388685 0.637913 0
M  V30 627 H 61.205 1.54736 1.18503 0
M  V30 628 H 60.301 1.54327 2.71274 0
M  V30 629 N 60.6021 -1.18246 1.0419 0
M  V30 630 C 61.5341 -2.2142 0.592088 0
M  V30 631 C 62.5471 -1.59233 -0.338909 0
M  V30 632 O 63.7361 -1.78002 -0.133231 0
M  V30 633 C 60.8361 -3.38546 -0.154854 0
M  V30 634 C 60.0091 -4.3031 0.784328 0
M  V30 635 C 59.0681 -5.26138 0.0804583 0
M  V30 636 O 58.0941 -5.64738 0.711292 0
M  V30 637 N 59.2961 -5.68261 -1.18574 0
M  V30 638 H 62.0611 -2.60636 1.47949 0
M  V30 639 H 59.6221 -1.33044 0.922544 0
M  V30 640 H 61.6141 -3.99678 -0.635606 0
M  V30 641 H 60.1841 -2.98012 -0.943811 0
M  V30 642 H 59.4041 -3.66764 1.44491 0
M  V30 643 H 60.6921 -4.8852 1.42218 0
M  V30 644 H 60.0901 -5.38957 -1.71876 0
M  V30 645 H 58.6471 -6.31584 -1.61074 0
M  V30 646 N 62.0802 -0.821533 -1.34494 0
M  V30 647 C 63.0272 -0.240397 -2.29545 0
M  V30 648 C 63.9972 0.634031 -1.53523 0
M  V30 649 O 65.1822 0.575966 -1.81899 0
M  V30 650 C 62.3222 0.592869 -3.39969 0
M  V30 651 C 61.4352 -0.30365 -4.30932 0
M  V30 652 C 60.5702 0.539049 -5.28458 0
M  V30 653 C 59.6092 -0.356942 -6.11058 0
M  V30 654 N 58.7462 0.446603 -7.00678 0
M  V30 655 H 63.5862 -1.05632 -2.7865 0
M  V30 656 H 61.1232 -0.532413 -1.37127 0
M  V30 657 H 63.0812 1.09129 -4.02675 0
M  V30 658 H 61.7112 1.37392 -2.92102 0
M  V30 659 H 60.7632 -0.920276 -3.691 0
M  V30 660 H 62.0752 -0.992661 -4.88823 0
M  V30 661 H 61.2292 1.102 -5.96608 0
M  V30 662 H 59.9682 1.26157 -4.71101 0
M  V30 663 H 58.9732 -0.932047 -5.41842 0
M  V30 664 H 60.1982 -1.07755 -6.70497 0
M  V30 665 H 58.1442 1.15282 -6.45791 0
M  V30 666 H 58.0612 -0.184048 -7.55776 0
M  V30 667 H 59.3292 0.992352 -7.73158 0
M  V30 668 N 63.5583 1.46682 -0.576371 0
M  V30 669 C 64.5213 2.28707 0.150239 0
M  V30 670 C 65.5213 1.38035 0.824794 0
M  V30 671 O 66.7113 1.60476 0.677719 0
M  V30 672 C 63.8433 3.18248 1.22192 0
M  V30 673 H 65.0363 2.94423 -0.570521 0
M  V30 674 H 62.5893 1.52688 -0.334078 0
M  V30 675 H 63.3243 2.57265 1.97447 0
M  V30 676 H 63.1093 3.85 0.742812 0
M  V30 677 H 64.5993 3.80001 1.73172 0
M  V30 678 N 65.0364 0.313813 1.54444 0
M  V30 679 C 66.4474 -0.176243 1.85866 0
M  V30 680 C 66.7984 -1.52405 1.23561 0
M  V30 681 O 65.9234 -2.09605 0.538016 0
M  V30 682 C 66.5184 -0.32657 3.37222 0
M  V30 683 C 65.0774 -0.760846 3.6863 0
M  V30 684 C 64.2244 0.123247 2.77026 0
M  V30 685 H 67.1754 0.534418 1.49431 0
M  V30 686 H 67.1964 -1.15908 3.62416 0
M  V30 687 H 66.7084 0.654531 3.82541 0
M  V30 688 H 64.8094 -1.75204 3.28838 0
M  V30 689 H 64.9224 -0.571353 4.75681 0
M  V30 690 H 63.2864 -0.399597 2.51546 0
M  V30 691 H 64.0694 1.10094 3.25168 0
M  V30 692 N 66.5145 -1.57545 0.0417849 0
M  V30 693 C 67.7605 -1.92601 -0.635021 0
M  V30 694 C 68.0935 -0.919627 -1.71045 0
M  V30 695 O 67.3685 0.0557892 -1.9442 0
M  V30 696 C 67.6515 -3.38085 -1.23979 0
M  V30 697 C 67.5045 -4.49467 -0.173057 0
M  V30 698 C 68.8235 -3.83776 -2.15416 0
M  V30 699 H 65.9425 -0.700397 -0.229374 0
M  V30 700 H 68.5845 -1.89728 0.101633 0
M  V30 701 H 66.7345 -3.40664 -1.86762 0
M  V30 702 H 68.4065 -4.59018 0.458312 0
M  V30 703 H 66.6495 -4.30909 0.499996 0
M  V30 704 H 67.3205 -5.48323 -0.636054 0
M  V30 705 H 69.7965 -3.83013 -1.62605 0
M  V30 706 H 68.6725 -4.8624 -2.54679 0
M  V30 707 H 68.9335 -3.19998 -3.05047 0
M  V30 708 N 67.9926 0.231505 -1.5589 0
M  V30 709 C 69.2396 0.957352 -1.78441 0
M  V30 710 C 69.5676 1.84726 -0.60882 0
M  V30 711 O 68.8226 1.91416 0.40725 0
M  V30 712 C 69.1216 1.83577 -3.0665 0
M  V30 713 C 68.7876 1.09993 -4.37278 0
M  V30 714 C 67.4496 0.896629 -4.72773 0
M  V30 715 C 69.8016 0.579558 -5.17968 0
M  V30 716 C 67.1296 0.160896 -5.86479 0
M  V30 717 C 69.4816 -0.142783 -6.32439 0
M  V30 718 C 68.1456 -0.357427 -6.66542 0
M  V30 719 H 67.4156 0.35032 -0.65296 0
M  V30 720 H 70.0626 0.226259 -1.90159 0
M  V30 721 H 68.3676 2.63441 -2.90011 0
M  V30 722 H 70.0646 2.39934 -3.21298 0
M  V30 723 H 66.6546 1.26835 -4.09403 0
M  V30 724 H 70.8386 0.724125 -4.90989 0
M  V30 725 H 66.0946 -0.0157293 -6.11398 0
M  V30 726 H 70.2686 -0.553559 -6.94196 0
M  V30 727 H 67.8956 -0.929466 -7.54497 0
M  V30 728 N 69.4707 1.49531 0.497807 0
M  V30 729 C 70.7187 1.58865 1.24926 0
M  V30 730 C 71.0397 0.278721 1.92998 0
M  V30 731 O 70.3097 -0.702144 1.82885 0
M  V30 732 H 68.8897 0.585343 0.464094 0
M  V30 733 H 71.5517 1.86174 0.57666 0
M  V30 734 H 70.6477 2.38633 2.01149 0
M  V30 735 N 70.9488 -0.749086 1.3866 0
M  V30 736 C 72.1968 -1.50535 1.34847 0
M  V30 737 C 72.5178 -1.94909 -0.0595016 0
M  V30 738 O 71.7878 -1.67973 -1.00806 0
M  V30 739 H 70.3678 -0.558395 0.49619 0
M  V30 740 H 73.0298 -0.890165 1.73384 0
M  V30 741 H 72.1258 -2.39413 2.00219 0
M  V30 742 N 72.4269 -1.23603 -0.977757 0
M  V30 743 C 73.3739 -1.01954 -2.07061 0
M  V30 744 C 74.3439 0.0638697 -1.65977 0
M  V30 745 O 75.5289 -0.0887624 -1.90593 0
M  V30 746 C 72.6689 -0.619658 -3.39491 0
M  V30 747 C 71.7819 -1.77547 -3.93829 0
M  V30 748 C 70.9169 -1.32212 -5.14484 0
M  V30 749 C 69.9559 -2.44852 -5.60994 0
M  V30 750 N 69.0929 -2.00456 -6.72876 0
M  V30 751 H 73.9329 -1.95495 -2.24913 0
M  V30 752 H 71.4699 -0.973861 -1.10247 0
M  V30 753 H 73.4279 -0.368898 -4.15566 0
M  V30 754 H 72.0579 0.278752 -3.21594 0
M  V30 755 H 71.1099 -2.14016 -3.14486 0
M  V30 756 H 72.4219 -2.62219 -4.24314 0
M  V30 757 H 71.5759 -1.02965 -5.97899 0
M  V30 758 H 70.3149 -0.445808 -4.85658 0
M  V30 759 H 69.3199 -2.74871 -4.76157 0
M  V30 760 H 70.5449 -3.33024 -5.91837 0
M  V30 761 H 68.4909 -1.15208 -6.45804 0
M  V30 762 H 68.4079 -2.78687 -7.02759 0
M  V30 763 H 69.6759 -1.7432 -7.59758 0
M  V30 764 N 73.905 1.17692 -1.04816 0
M  V30 765 C 75.182 1.83768 -0.669963 0
M  V30 766 C 75.562 1.93232 0.849986 0
M  V30 767 O 74.91 1.46397 1.75443 0
M  V30 768 C 75.12 3.21641 -1.35455 0
M  V30 769 C 76.468 3.97592 -1.49017 0
M  V30 770 O 77.492 3.31107 -1.31326 0
M  V30 771 O 76.351 5.16729 -1.77914 0
M  V30 772 H 73.445 0.792799 -0.235368 0
M  V30 773 H 75.991 1.25021 -1.14751 0
M  V30 774 H 74.763 3.097 -2.39168 0
M  V30 775 H 74.386 3.88052 -0.866107 0
M  V30 776 N 75.3831 0.828654 1.34056 0
M  V30 777 C 76.3461 0.259927 2.27721 0
M  V30 778 C 77.3461 -0.565478 1.50529 0
M  V30 779 O 78.5361 -0.38075 1.69988 0
M  V30 780 C 75.6681 -0.634944 3.34935 0
M  V30 781 H 76.8611 1.0863 2.79534 0
M  V30 782 H 74.4141 0.600951 1.44285 0
M  V30 783 H 75.1491 -1.48416 2.88346 0
M  V30 784 H 74.9341 -0.0444999 3.92075 0
M  V30 785 H 76.4241 -1.02648 4.04788 0
M  V30 786 N 76.8612 -1.46375 0.584142 0
M  V30 787 C 78.1092 -2.01978 0.0701287 0
M  V30 788 C 78.4302 -1.4579 -1.295 0
M  V30 789 O 77.7002 -0.64314 -1.85042 0
M  V30 790 H 76.2802 -0.746648 0.0229345 0
M  V30 791 H 78.9422 -1.79461 0.760245 0
M  V30 792 H 78.0382 -3.121 0.0022064 0
M  V30 793 N 78.3393 -0.321999 -1.54275 0
M  V30 794 C 79.6163 0.335232 -1.92706 0
M  V30 795 C 79.9963 1.70006 -1.25145 0
M  V30 796 O 79.3443 2.25067 -0.394596 0
M  V30 797 C 79.5543 0.429008 -3.46353 0
M  V30 798 C 80.9023 0.690029 -4.18956 0
M  V30 799 O 81.9263 0.511992 -3.52501 0
M  V30 800 O 80.7853 1.03338 -5.36641 0
M  V30 801 H 77.8793 0.191143 -0.804608 0
M  V30 802 H 80.4253 -0.3716 -1.65581 0
M  V30 803 H 79.1973 -0.529611 -3.87699 0
M  V30 804 H 78.8203 1.18348 -3.79578 0
M  V30 805 N 79.8174 1.5752 -0.0501392 0
M  V30 806 C 80.7474 2.14502 0.922566 0
M  V30 807 C 81.7284 1.06642 1.3252 0
M  V30 808 O 82.9134 1.34577 1.4001 0
M  V30 809 C 80.0434 2.68916 2.19776 0
M  V30 810 C 78.9974 3.8175 1.93523 0
M  V30 811 C 78.3234 4.22677 3.27487 0
M  V30 812 C 79.6234 5.06932 1.25765 0
M  V30 813 H 81.3174 2.9603 0.447952 0
M  V30 814 H 78.8634 1.42401 0.214024 0
M  V30 815 H 80.8164 3.07419 2.88222 0
M  V30 816 H 79.5404 1.84578 2.69441 0
M  V30 817 H 78.1994 3.43718 1.27489 0
M  V30 818 H 77.8474 3.35291 3.74952 0
M  V30 819 H 77.5474 4.98725 3.1072 0
M  V30 820 H 79.0714 4.63779 3.97166 0
M  V30 821 H 80.4854 5.42888 1.84244 0
M  V30 822 H 78.8824 5.88116 1.19328 0
M  V30 823 H 79.9524 4.84337 0.233536 0
M  V30 824 N 81.2955 -0.223234 1.56011 0
M  V30 825 C 82.2425 -1.27664 1.92277 0
M  V30 826 C 83.2125 -1.46659 0.779763 0
M  V30 827 O 84.3975 -1.60256 1.03551 0
M  V30 828 C 81.5375 -2.62234 2.24338 0
M  V30 829 C 80.6505 -2.51051 3.51564 0
M  V30 830 C 79.7855 -3.78133 3.7308 0
M  V30 831 C 78.8245 -3.61665 4.93827 0
M  V30 832 N 77.9615 -4.80693 5.11741 0
M  V30 833 H 82.8015 -0.960358 2.82101 0
M  V30 834 H 80.3385 -0.462901 1.39627 0
M  V30 835 H 82.2965 -3.40596 2.40936 0
M  V30 836 H 80.9265 -2.91961 1.3769 0
M  V30 837 H 79.9785 -1.64132 3.43169 0
M  V30 838 H 81.2905 -2.34803 4.40079 0
M  V30 839 H 80.4445 -4.64938 3.89766 0
M  V30 840 H 79.1835 -3.97304 2.82844 0
M  V30 841 H 78.1885 -2.73244 4.77093 0
M  V30 842 H 79.4135 -3.43966 5.85546 0
M  V30 843 H 77.3595 -5.00181 4.24446 0
M  V30 844 H 77.2765 -4.67165 5.94384 0
M  V30 845 H 78.5445 -5.6893 5.3286 0
M  V30 846 N 82.7736 -1.49793 -0.48987 0
M  V30 847 C 83.9986 -1.63836 -1.27172 0
M  V30 848 C 84.4236 -0.31402 -1.8546 0
M  V30 849 O 83.7816 0.719803 -1.66399 0
M  V30 850 C 83.8296 -2.71797 -2.36978 0
M  V30 851 O 82.9336 -2.31744 -3.41128 0
M  V30 852 H 82.2746 -0.547997 -0.37496 0
M  V30 853 H 84.8046 -1.96053 -0.585191 0
M  V30 854 H 84.8146 -2.94305 -2.82575 0
M  V30 855 H 83.4896 -3.67923 -1.93921 0
M  V30 856 H 82.0666 -2.1961 -3.01373 0
M  V30 857 N 84.2517 0.741722 -1.39055 0
M  V30 858 C 85.2147 1.83733 -1.37021 0
M  V30 859 C 86.2147 1.58542 -0.268534 0
M  V30 860 O 87.4047 1.66067 -0.526076 0
M  V30 861 C 84.5367 3.2141 -1.13617 0
M  V30 862 H 85.7297 1.86941 -2.34506 0
M  V30 863 H 83.2827 0.944676 -1.24521 0
M  V30 864 H 84.0177 3.23865 -0.167863 0
M  V30 865 H 83.8027 3.4109 -1.93391 0
M  V30 866 H 85.2927 4.01477 -1.14918 0
M  V30 867 N 85.7298 1.2412 0.971189 0
M  V30 868 C 86.9768 1.07881 1.71371 0
M  V30 869 C 87.3048 -0.382901 1.90694 0
M  V30 870 O 86.5598 -1.29945 1.46331 0
M  V30 871 C 86.8588 1.75983 3.11071 0
M  V30 872 C 86.5248 3.25909 3.11599 0
M  V30 873 C 85.1868 3.66813 3.11451 0
M  V30 874 C 87.5388 4.21771 3.062 0
M  V30 875 C 84.8668 5.02021 3.03631 0
M  V30 876 C 87.2188 5.56982 2.99923 0
M  V30 877 C 85.8828 5.97237 2.98102 0
M  V30 878 H 85.1528 0.394764 0.62709 0
M  V30 879 H 87.7998 1.54176 1.13587 0
M  V30 880 H 86.1048 1.22072 3.72298 0
M  V30 881 H 87.8018 1.60887 3.6731 0
M  V30 882 H 84.3918 2.93353 3.12477 0
M  V30 883 H 88.5758 3.91172 3.05447 0
M  V30 884 H 83.8318 5.32411 3.0058 0
M  V30 885 H 88.0058 6.30969 2.94704 0
M  V30 886 H 85.6328 7.01967 2.91798 0
M  V30 887 N 87.2079 -1.17134 1.05439 0
M  V30 888 C 88.4849 -1.83411 0.679699 0
M  V30 889 C 88.8649 -1.9368 -0.839726 0
M  V30 890 O 88.2129 -1.47325 -1.74664 0
M  V30 891 C 88.4229 -3.20918 1.37159 0
M  V30 892 C 89.7709 -3.96796 1.51123 0
M  V30 893 O 90.7949 -3.30406 1.3308 0
M  V30 894 O 89.6539 -5.15778 1.80651 0
M  V30 895 H 86.7479 -0.79154 0.239569 0
M  V30 896 H 89.2939 -1.24411 1.15413 0
M  V30 897 H 88.0659 -3.08428 2.40807 0
M  V30 898 H 87.6889 -3.87587 0.886674 0
M  V30 899 N 88.686 -0.835752 -1.33615 0
M  V30 900 C 89.935 -0.426289 -1.97144 0
M  V30 901 C 90.248 1.01912 -1.66953 0
M  V30 902 O 91.454 1.53311 -2.24072 0
M  V30 903 C 89.91 -0.711321 -3.52801 0
M  V30 904 C 89.518 -2.1712 -3.91871 0
M  V30 905 C 91.262 -0.368654 -4.22896 0
M  V30 906 C 89.169 -2.40044 -5.40493 0
M  V30 907 H 88.099 -0.15567 -0.737755 0
M  V30 908 H 90.75 -1.0239 -1.52278 0
M  V30 909 H 89.132 -0.0433766 -3.95976 0
M  V30 910 H 90.306 -2.87936 -3.59763 0
M  V30 911 H 88.621 -2.47654 -3.34749 0
M  V30 912 H 91.218 -0.517601 -5.32189 0
M  V30 913 H 91.561 0.688078 -4.10574 0
M  V30 914 H 92.094 -0.991702 -3.8524 0
M  V30 915 H 88.833 -3.44271 -5.57815 0
M  V30 916 H 88.353 -1.73785 -5.74072 0
M  V30 917 H 90.032 -2.23042 -6.0734 0
M  V30 918 N 90.1641 1.46063 -0.591896 0
M  V30 919 C 91.0741 2.34192 0.13831 0
M  V30 920 C 92.0901 1.50305 0.876608 0
M  V30 921 O 93.2661 1.8315 0.837728 0
M  V30 922 C 90.3311 3.27656 1.13326 0
M  V30 923 C 89.3921 4.27445 0.39863 0
M  V30 924 C 88.6251 5.16443 1.34618 0
M  V30 925 O 88.8481 5.08553 2.58321 0
M  V30 926 O 87.7821 5.95843 0.851768 0
M  V30 927 H 91.6081 2.98002 -0.58552 0
M  V30 928 H 89.1931 1.45188 -0.352239 0
M  V30 929 H 91.0751 3.85291 1.70671 0
M  V30 930 H 89.7501 2.6643 1.83839 0
M  V30 931 H 88.6571 3.73471 -0.216895 0
M  V30 932 H 89.9901 4.91482 -0.265709 0
M  V30 933 N 91.6422 0.330177 1.54103 0
M  V30 934 C 92.5522 -0.541534 2.28264 0
M  V30 935 C 93.5682 -1.12351 1.32866 0
M  V30 936 O 94.7442 -1.14206 1.65888 0
M  V30 937 C 91.8092 -1.68322 3.03098 0
M  V30 938 C 90.8702 -1.13238 4.14096 0
M  V30 939 C 90.1032 -2.21966 4.85352 0
M  V30 940 O 90.3262 -3.42437 4.56172 0
M  V30 941 O 89.2602 -1.87013 5.7211 0
M  V30 942 H 93.0862 0.060938 3.03639 0
M  V30 943 H 90.6712 0.09565 1.49093 0
M  V30 944 H 92.5532 -2.34777 3.49939 0
M  V30 945 H 91.2282 -2.27176 2.30593 0
M  V30 946 H 90.1352 -0.432736 3.71589 0
M  V30 947 H 91.4682 -0.588898 4.88664 0
M  V30 948 N 93.1203 -1.57491 0.0584922 0
M  V30 949 C 94.0503 -2.14988 -0.911178 0
M  V30 950 C 95.0313 -1.07343 -1.31952 0
M  V30 951 O 96.2163 -1.35318 -1.39294 0
M  V30 952 C 93.3463 -2.70078 -2.18347 0
M  V30 953 C 92.3003 -3.82771 -1.91495 0
M  V30 954 C 91.6263 -4.24408 -3.25241 0
M  V30 955 C 92.9263 -5.07592 -1.23075 0
M  V30 956 H 94.6203 -2.96263 -0.432246 0
M  V30 957 H 92.1663 -1.42512 -0.206469 0
M  V30 958 H 94.1193 -3.08943 -2.86587 0
M  V30 959 H 92.8433 -1.86005 -2.68458 0
M  V30 960 H 91.5023 -3.44389 -1.25664 0
M  V30 961 H 91.1503 -3.37275 -3.73168 0
M  V30 962 H 90.8503 -5.00366 -3.08071 0
M  V30 963 H 92.3743 -4.65879 -3.94701 0
M  V30 964 H 93.7883 -5.43857 -1.81362 0
M  V30 965 H 92.1853 -5.88741 -1.16207 0
M  V30 966 H 93.2553 -4.84454 -0.207847 0
M  V30 967 N 94.5984 0.214957 -1.56127 0
M  V30 968 C 95.5454 1.26642 -1.92952 0
M  V30 969 C 96.5154 1.46244 -0.78753 0
M  V30 970 O 97.7004 1.59704 -1.04399 0
M  V30 971 C 94.8404 2.6104 -2.25726 0
M  V30 972 C 93.9534 2.49183 -3.52891 0
M  V30 973 C 93.0884 3.76149 -3.7508 0
M  V30 974 C 92.1274 3.59041 -4.95738 0
M  V30 975 N 91.2644 4.77972 -5.14283 0
M  V30 976 H 96.1044 0.945384 -2.82607 0
M  V30 977 H 93.6414 0.455489 -1.3987 0
M  V30 978 H 95.5994 3.39313 -2.42739 0
M  V30 979 H 94.2294 2.91227 -1.39236 0
M  V30 980 H 93.2814 1.6231 -3.44034 0
M  V30 981 H 94.5934 2.32466 -4.41318 0
M  V30 982 H 93.7474 4.62865 -3.92226 0
M  V30 983 H 92.4864 3.95799 -2.84947 0
M  V30 984 H 91.4914 2.7071 -4.78535 0
M  V30 985 H 92.7164 3.40856 -5.87362 0
M  V30 986 H 90.6624 4.97923 -4.27093 0
M  V30 987 H 90.5794 4.64006 -5.96853 0
M  V30 988 H 91.8474 5.66096 -5.35869 0
M  V30 989 N 96.0765 1.50051 0.48192 0
M  V30 990 C 97.0235 1.68122 1.58125 0
M  V30 991 C 97.9935 0.522545 1.57666 0
M  V30 992 O 99.1785 0.751844 1.75362 0
M  V30 993 C 96.3185 1.77142 2.96167 0
M  V30 994 C 95.4315 3.0444 3.06497 0
M  V30 995 C 94.5665 3.04321 4.35387 0
M  V30 996 C 93.6055 4.26118 4.3942 0
M  V30 997 N 92.7425 4.238 5.59766 0
M  V30 998 H 97.5825 2.6198 1.42022 0
M  V30 999 H 95.1195 1.29877 0.690687 0
M  V30 1000 H 97.0775 1.80352 3.76203 0
M  V30 1001 H 95.7075 0.867329 3.1093 0
M  V30 1002 H 94.7595 3.10752 2.19402 0
M  V30 1003 H 96.0715 3.94426 3.05336 0
M  V30 1004 H 95.2255 3.062 5.23762 0
M  V30 1005 H 93.9645 2.12147 4.39141 0
M  V30 1006 H 92.9695 4.24463 3.49444 0
M  V30 1007 H 94.1945 5.19507 4.37366 0
M  V30 1008 H 92.1405 3.34474 5.64326 0
M  V30 1009 H 92.0575 5.07542 5.60301 0
M  V30 1010 H 93.3255 4.2981 6.50295 0
M  V30 1011 N 97.5546 -0.734337 1.39446 0
M  V30 1012 C 98.4846 -1.86155 1.40955 0
M  V30 1013 C 99.4656 -1.67898 0.272827 0
M  V30 1014 O 100.651 -1.88207 0.478743 0
M  V30 1015 C 97.7806 -3.23912 1.25294 0
M  V30 1016 C 96.7346 -3.56808 2.36373 0
M  V30 1017 C 96.0606 -4.93508 2.058 0
M  V30 1018 C 97.3606 -3.59713 3.78687 0
M  V30 1019 H 99.0546 -1.8515 2.35287 0
M  V30 1020 H 96.6006 -0.889367 1.13253 0
M  V30 1021 H 98.5536 -4.02443 1.2497 0
M  V30 1022 H 97.2776 -3.25446 0.274308 0
M  V30 1023 H 95.9366 -2.80606 2.35914 0
M  V30 1024 H 95.5846 -4.91623 1.06374 0
M  V30 1025 H 95.2846 -5.16486 2.80208 0
M  V30 1026 H 96.8086 -5.74396 2.07128 0
M  V30 1027 H 98.2226 -4.2832 3.81071 0
M  V30 1028 H 96.6196 -3.94209 4.52459 0
M  V30 1029 H 97.6896 -2.59504 4.09617 0
M  V30 1030 N 99.0327 -1.24633 -0.964593 0
M  V30 1031 C 100.31 -0.995809 -1.68354 0
M  V30 1032 C 100.69 0.480964 -2.05548 0
M  V30 1033 O 100.038 1.45599 -1.76105 0
M  V30 1034 C 100.248 -1.92177 -2.91323 0
M  V30 1035 C 101.596 -2.19446 -3.63495 0
M  V30 1036 O 102.62 -1.89855 -3.01386 0
M  V30 1037 O 101.479 -2.69714 -4.75307 0
M  V30 1038 H 98.5727 -0.376854 -0.736146 0
M  V30 1039 H 101.119 -1.35745 -1.0184 0
M  V30 1040 H 99.8907 -2.91938 -2.60553 0
M  V30 1041 H 99.5137 -1.56349 -3.65569 0
M  V30 1042 N 100.511 1.16574 -1.06058 0
M  V30 1043 C 101.76 1.86385 -0.770944 0
M  V30 1044 C 102.073 1.82448 0.705129 0
M  V30 1045 O 103.279 2.47815 1.10905 0
M  V30 1046 C 101.735 3.34466 -1.32893 0
M  V30 1047 C 101.343 3.46883 -2.83507 0
M  V30 1048 C 103.087 4.09548 -1.11672 0
M  V30 1049 C 100.994 4.89036 -3.32562 0
M  V30 1050 H 99.9238 0.698181 -0.284709 0
M  V30 1051 H 102.575 1.31583 -1.27899 0
M  V30 1052 H 100.957 3.88859 -0.748662 0
M  V30 1053 H 102.131 3.02663 -3.47465 0
M  V30 1054 H 100.446 2.85232 -3.03368 0
M  V30 1055 H 103.043 5.14434 -1.45814 0
M  V30 1056 H 103.386 4.16264 -0.0549535 0
M  V30 1057 H 103.919 3.61387 -1.66265 0
M  V30 1058 H 100.658 4.87499 -4.38207 0
M  V30 1059 H 100.178 5.3389 -2.73351 0
M  V30 1060 H 101.857 5.57843 -3.2775 0
M  V30 1061 N 101.989 0.842826 1.3317 0
M  V30 1062 C 103.238 0.436738 1.96915 0
M  V30 1063 C 103.551 -1.01025 1.67491 0
M  V30 1064 O 104.757 -1.5212 2.24881 0
M  V30 1065 C 103.213 0.730021 3.52418 0
M  V30 1066 C 102.821 2.19195 3.90714 0
M  V30 1067 C 104.565 0.391076 4.22695 0
M  V30 1068 C 102.472 2.42907 5.39212 0
M  V30 1069 H 101.402 0.15958 0.736919 0
M  V30 1070 H 104.053 1.03196 1.51733 0
M  V30 1071 H 102.435 0.0643755 3.95948 0
M  V30 1072 H 103.609 2.8984 3.58231 0
M  V30 1073 H 101.924 2.49425 3.33431 0
M  V30 1074 H 104.521 0.545817 5.31907 0
M  V30 1075 H 104.864 -0.666294 4.10933 0
M  V30 1076 H 105.397 1.01212 3.84709 0
M  V30 1077 H 102.136 3.47224 5.55982 0
M  V30 1078 H 101.656 1.76827 5.73142 0
M  V30 1079 H 103.335 2.2626 6.06148 0
M  V30 1080 N 103.467 -1.45747 0.599634 0
M  V30 1081 C 104.713 -2.02592 0.0918643 0
M  V30 1082 C 105.046 -1.46806 -1.27128 0
M  V30 1083 O 104.321 -0.639658 -1.83681 0
M  V30 1084 C 104.604 -3.60073 0.0443398 0
M  V30 1085 C 104.457 -4.26208 1.43759 0
M  V30 1086 C 105.776 -4.35309 -0.647608 0
M  V30 1087 H 102.895 -0.736175 0.034857 0
M  V30 1088 H 105.537 -1.73694 0.770081 0
M  V30 1089 H 103.687 -3.84823 -0.533224 0
M  V30 1090 H 105.359 -4.12668 2.06162 0
M  V30 1091 H 103.602 -3.84916 2.00056 0
M  V30 1092 H 104.273 -5.35069 1.35665 0
M  V30 1093 H 106.749 -4.15805 -0.156776 0
M  V30 1094 H 105.625 -5.45038 -0.649942 0
M  V30 1095 H 105.886 -4.07598 -1.71219 0
M  V30 1096 N 104.945 -0.338344 -1.53925 0
M  V30 1097 C 106.173 0.261298 -2.05243 0
M  V30 1098 C 106.588 1.44625 -1.21363 0
M  V30 1099 O 105.945 1.80811 -0.247736 0
M  V30 1100 C 105.996 0.681412 -3.5502 0
M  V30 1101 O 105.717 -0.456414 -4.35716 0
M  V30 1102 C 107.218 1.34232 -4.22489 0
M  V30 1103 H 104.438 0.0513685 -0.669031 0
M  V30 1104 H 106.982 -0.488822 -1.98572 0
M  V30 1105 H 105.137 1.38148 -3.61931 0
M  V30 1106 H 105.551 -0.122564 -5.24357 0
M  V30 1107 H 107.025 1.58708 -5.28693 0
M  V30 1108 H 107.502 2.29426 -3.74514 0
M  V30 1109 H 108.108 0.684424 -4.19757 0
M  V30 1110 N 106.423 1.57458 -0.0668435 0
M  V30 1111 C 107.663 1.95175 0.607116 0
M  V30 1112 C 108.027 0.946039 1.67075 0
M  V30 1113 O 109.228 1.2107 2.39991 0
M  V30 1114 C 107.499 3.37582 1.17358 0
M  V30 1115 S 109.058 3.97271 1.86336 0
M  V30 1116 H 105.876 0.682604 0.19893 0
M  V30 1117 H 108.478 1.95002 -0.139519 0
M  V30 1118 H 107.182 4.08566 0.387553 0
M  V30 1119 H 106.713 3.41288 1.95669 0
M  V30 1120 H 108.728 3.83772 3.14537 0
M  V30 1121 N 107.901 -0.206675 1.56239 0
M  V30 1122 C 108.833 -1.27997 1.9013 0
M  V30 1123 C 109.846 -1.42299 0.790883 0
M  V30 1124 O 111.035 -1.42931 1.06925 0
M  V30 1125 C 108.135 -2.65368 2.10792 0
M  V30 1126 C 107.308 -2.72824 3.41886 0
M  V30 1127 C 106.367 -3.9131 3.51799 0
M  V30 1128 O 105.393 -3.78953 4.24716 0
M  V30 1129 N 106.595 -5.06265 2.84035 0
M  V30 1130 H 109.36 -0.992444 2.82791 0
M  V30 1131 H 106.921 -0.396652 1.56966 0
M  V30 1132 H 108.913 -3.43039 2.14724 0
M  V30 1133 H 107.483 -2.86657 1.24685 0
M  V30 1134 H 106.703 -1.81515 3.49923 0
M  V30 1135 H 107.991 -2.74786 4.28217 0
M  V30 1136 H 107.389 -5.19203 2.246 0
M  V30 1137 H 105.946 -5.81925 2.93609 0
M  V30 1138 N 109.379 -1.50304 -0.473955 0
M  V30 1139 C 110.627 -1.60832 -1.22382 0
M  V30 1140 C 110.948 -0.30939 -1.9253 0
M  V30 1141 O 110.218 0.67296 -1.83978 0
M  V30 1142 H 108.798 -0.592652 -0.454723 0
M  V30 1143 H 111.46 -1.87068 -0.546968 0
M  V30 1144 H 110.556 -2.41803 -1.97327 0
M  V30 1145 N 110.857 0.726932 -1.39834 0
M  V30 1146 C 112.105 1.4837 -1.37225 0
M  V30 1147 C 112.426 1.94979 0.0284857 0
M  V30 1148 O 111.696 1.69555 0.981213 0
M  V30 1149 H 110.276 0.55043 -0.505011 0
M  V30 1150 H 112.938 0.862468 -1.74778 0
M  V30 1151 H 112.034 2.36198 -2.04003 0
M  V30 1152 N 112.336 1.25143 0.95797 0
M  V30 1153 C 113.613 1.00472 1.67823 0
M  V30 1154 C 113.993 -0.470056 2.058 0
M  V30 1155 O 113.341 -1.44663 1.76875 0
M  V30 1156 C 113.551 1.9372 2.90299 0
M  V30 1157 C 114.899 2.21371 3.62326 0
M  V30 1158 O 115.923 1.91451 3.00375 0
M  V30 1159 O 114.782 2.72231 4.7387 0
M  V30 1160 H 111.876 0.380752 0.734137 0
M  V30 1161 H 114.422 1.36283 1.01119 0
M  V30 1162 H 113.194 2.93316 2.59001 0
M  V30 1163 H 112.817 1.58286 3.64735 0
M  V30 1164 N 113.814 -1.1601 1.06675 0
M  V30 1165 C 115.044 -1.90251 0.805497 0
M  V30 1166 C 115.452 -1.77891 -0.64431 0
M  V30 1167 O 114.795 -1.12383 -1.45313 0
M  V30 1168 C 114.857 -3.41419 1.12576 0
M  V30 1169 C 114.521 -3.77564 2.57477 0
M  V30 1170 C 115.518 -3.79161 3.55715 0
M  V30 1171 C 113.203 -4.08079 2.92877 0
M  V30 1172 C 115.197 -4.10767 4.8739 0
M  V30 1173 C 112.884 -4.39351 4.24751 0
M  V30 1174 C 113.882 -4.40675 5.21818 0
M  V30 1175 O 113.57 -4.71202 6.51325 0
M  V30 1176 H 113.302 -0.610018 0.291297 0
M  V30 1177 H 115.856 -1.47958 1.4247 0
M  V30 1178 H 114.086 -3.84079 0.449503 0
M  V30 1179 H 115.775 -3.9694 0.84814 0
M  V30 1180 H 116.541 -3.55693 3.29708 0
M  V30 1181 H 112.42 -4.06211 2.17976 0
M  V30 1182 H 115.964 -4.11715 5.63148 0
M  V30 1183 H 111.861 -4.62285 4.50514 0
M  V30 1184 H 112.629 -4.88996 6.56373 0
M  V30 1185 N 115.292 -0.849877 -1.32721 0
M  V30 1186 C 116.52 -0.464754 -2.01613 0
M  V30 1187 C 116.935 0.937191 -1.63897 0
M  V30 1188 O 116.292 1.61081 -0.857856 0
M  V30 1189 C 116.343 -0.588638 -3.56675 0
M  V30 1190 O 116.064 -1.93535 -3.93034 0
M  V30 1191 C 117.565 -0.2019 -4.4284 0
M  V30 1192 H 114.785 -0.183215 -0.645502 0
M  V30 1193 H 117.329 -1.1455 -1.69407 0
M  V30 1194 H 115.484 0.0443159 -3.87375 0
M  V30 1195 H 115.898 -1.92871 -4.87751 0
M  V30 1196 H 117.372 -0.339599 -5.50954 0
M  V30 1197 H 117.849 0.857224 -4.30753 0
M  V30 1198 H 118.455 -0.809733 -4.17521 0
M  V30 1199 N 116.77 1.45427 -0.607355 0
M  V30 1200 C 117.718 2.32269 0.12411 0
M  V30 1201 C 118.712 1.45955 0.859854 0
M  V30 1202 O 119.918 1.6244 0.775447 0
M  V30 1203 H 116.293 0.749691 0.0588839 0
M  V30 1204 H 118.264 2.91743 -0.626762 0
M  V30 1205 C 117.013 3.29567 1.1082 0
M  V30 1206 H 116.336 3.95978 0.551492 0
M  V30 1207 H 117.776 3.93061 1.58995 0
M  V30 1208 C 116.235 2.56722 2.18164 0
M  V30 1209 O 116.765 2.34842 3.25902 0
M  V30 1210 N 114.971 2.16861 1.93442 0
M  V30 1211 H 114.518 2.34855 1.05834 0
M  V30 1212 H 114.476 1.68444 2.65469 0
M  V30 1213 N 118.248 0.346503 1.53744 0
M  V30 1214 C 119.158 -0.517293 2.28826 0
M  V30 1215 C 120.174 -1.10935 1.3405 0
M  V30 1216 O 121.35 -1.1244 1.6709 0
M  V30 1217 C 118.415 -1.65098 3.04866 0
M  V30 1218 C 117.476 -1.0884 4.15274 0
M  V30 1219 C 116.709 -2.16806 4.87679 0
M  V30 1220 O 116.932 -3.3758 4.59778 0
M  V30 1221 O 115.866 -1.80934 5.74061 0
M  V30 1222 H 119.692 0.0931396 3.03557 0
M  V30 1223 H 117.277 0.111458 1.48984 0
M  V30 1224 H 119.159 -2.31053 3.5241 0
M  V30 1225 H 117.834 -2.24717 2.32989 0
M  V30 1226 H 116.741 -0.3933 3.72027 0
M  V30 1227 H 118.074 -0.537036 4.89261 0
M  V30 1228 N 119.726 -1.57421 0.075193 0
M  V30 1229 C 120.972 -1.93905 -0.594025 0
M  V30 1230 C 121.305 -0.955701 -1.69056 0
M  V30 1231 O 120.58 0.0145373 -1.94495 0
M  V30 1232 C 120.863 -3.40638 -1.1678 0
M  V30 1233 C 120.716 -4.49733 -0.0776792 0
M  V30 1234 C 122.035 -3.88259 -2.07228 0
M  V30 1235 H 119.154 -0.705105 -0.214466 0
M  V30 1236 H 121.796 -1.8947 0.141854 0
M  V30 1237 H 119.946 -3.44549 -1.79494 0
M  V30 1238 H 121.618 -4.57942 0.555573 0
M  V30 1239 H 119.861 -4.29751 0.591286 0
M  V30 1240 H 120.532 -5.49549 -0.519603 0
M  V30 1241 H 123.008 -3.86376 -1.54445 0
M  V30 1242 H 121.884 -4.91533 -2.44308 0
M  V30 1243 H 122.145 -3.26396 -2.98191 0
M  V30 1244 N 121.204 0.198386 -1.56346 0
M  V30 1245 C 122.434 0.934215 -1.84271 0
M  V30 1246 C 122.842 1.77496 -0.655125 0
M  V30 1247 O 122.185 1.7961 0.385488 0
M  V30 1248 C 122.247 1.88278 -3.06254 0
M  V30 1249 C 121.911 1.22431 -4.40295 0
M  V30 1250 C 122.908 0.602839 -5.16393 0
M  V30 1251 C 120.593 1.22915 -4.87029 0
M  V30 1252 C 122.587 -0.0050083 -6.374 0
M  V30 1253 C 120.274 0.617465 -6.07973 0
M  V30 1254 C 121.272 0.00146341 -6.83 0
M  V30 1255 O 120.96 -0.600642 -8.01653 0
M  V30 1256 H 120.692 0.278245 -0.616081 0
M  V30 1257 H 123.246 0.211626 -2.04307 0
M  V30 1258 H 121.476 2.64498 -2.82095 0
M  V30 1259 H 123.165 2.48612 -3.20853 0
M  V30 1260 H 123.931 0.591265 -4.81382 0
M  V30 1261 H 119.81 1.69801 -4.28589 0
M  V30 1262 H 123.354 -0.48643 -6.95902 0
M  V30 1263 H 119.251 0.62653 -6.42452 0
M  V30 1264 H 120.019 -0.497225 -8.16988 0
M  V30 1265 N 122.682 1.50554 0.465978 0
M  V30 1266 C 124.093 1.54599 1.04671 0
M  V30 1267 C 124.444 0.352488 1.93008 0
M  V30 1268 O 123.569 -0.534044 2.09707 0
M  V30 1269 C 124.164 2.80166 1.90505 0
M  V30 1270 C 122.723 2.86876 2.43678 0
M  V30 1271 C 121.87 2.48947 1.22151 0
M  V30 1272 H 124.821 1.56744 0.248384 0
M  V30 1273 H 124.842 2.62311 2.75633 0
M  V30 1274 H 124.354 3.67013 1.26186 0
M  V30 1275 H 122.455 2.04393 3.11536 0
M  V30 1276 H 122.568 3.89885 2.78436 0
M  V30 1277 H 120.932 2.01498 1.5579 0
M  V30 1278 H 121.715 3.38107 0.594866 0
M  V30 1279 N 124.16 -0.719506 1.40217 0
M  V30 1280 C 125.107 -1.83359 1.40172 0
M  V30 1281 C 126.077 -1.64065 0.259206 0
M  V30 1282 O 127.262 -1.85254 0.456677 0
M  V30 1283 C 124.402 -3.2103 1.26624 0
M  V30 1284 C 123.515 -3.51923 2.50548 0
M  V30 1285 C 122.65 -4.79079 2.29471 0
M  V30 1286 C 121.689 -5.02863 3.48992 0
M  V30 1287 N 120.826 -6.2123 3.27135 0
M  V30 1288 H 125.666 -1.82733 2.35399 0
M  V30 1289 H 123.203 -0.892688 1.16917 0
M  V30 1290 H 125.161 -4.00524 1.16776 0
M  V30 1291 H 123.791 -3.20895 0.350176 0
M  V30 1292 H 122.843 -2.67014 2.70939 0
M  V30 1293 H 124.155 -3.6541 3.39525 0
M  V30 1294 H 123.309 -5.66582 2.16955 0
M  V30 1295 H 122.048 -4.67794 1.37913 0
M  V30 1296 H 121.053 -4.13816 3.6199 0
M  V30 1297 H 122.278 -5.16023 4.41472 0
M  V30 1298 H 120.224 -6.11204 2.38256 0
M  V30 1299 H 120.141 -6.35375 4.09675 0
M  V30 1300 H 121.409 -7.11532 3.18344 0
M  V30 1301 N 125.638 -1.25649 -0.95132 0
M  V30 1302 C 126.568 -1.08808 -2.06599 0
M  V30 1303 C 127.549 0.00382547 -1.701 0
M  V30 1304 O 128.734 -0.166325 -1.93486 0
M  V30 1305 C 125.864 -0.709542 -3.39975 0
M  V30 1306 C 124.818 -1.75206 -3.90496 0
M  V30 1307 C 124.144 -1.22811 -5.20405 0
M  V30 1308 C 125.444 -3.15153 -4.16504 0
M  V30 1309 H 127.138 -2.02048 -2.20946 0
M  V30 1310 H 124.684 -0.972835 -1.06169 0
M  V30 1311 H 126.637 -0.578649 -4.17408 0
M  V30 1312 H 125.361 0.258556 -3.25575 0
M  V30 1313 H 124.02 -1.87145 -3.15234 0
M  V30 1314 H 123.668 -0.250145 -5.02378 0
M  V30 1315 H 123.368 -1.92492 -5.55176 0
M  V30 1316 H 124.892 -1.10968 -6.00432 0
M  V30 1317 H 126.306 -3.06349 -4.84586 0
M  V30 1318 H 124.703 -3.82333 -4.62538 0
M  V30 1319 H 125.773 -3.61966 -3.22658 0
M  V30 1320 N 127.117 1.15442 -1.07289 0
M  V30 1321 C 128.064 2.20161 -0.692653 0
M  V30 1322 C 129.034 1.63073 0.31564 0
M  V30 1323 O 130.219 1.89725 0.202235 0
M  V30 1324 C 127.359 3.44967 -0.0959509 0
M  V30 1325 C 126.472 4.16256 -1.15564 0
M  V30 1326 C 125.607 5.28609 -0.524011 0
M  V30 1327 C 124.646 5.91715 -1.56653 0
M  V30 1328 N 123.783 6.9554 -0.957531 0
M  V30 1329 H 128.623 2.52037 -1.59002 0
M  V30 1330 H 126.16 1.2378 -0.794798 0
M  V30 1331 H 128.118 4.16341 0.267628 0
M  V30 1332 H 126.748 3.1361 0.764772 0
M  V30 1333 H 125.8 3.43385 -1.6368 0
M  V30 1334 H 127.112 4.59268 -1.94613 0
M  V30 1335 H 126.266 6.06604 -0.108032 0
M  V30 1336 H 125.005 4.86787 0.29825 0
M  V30 1337 H 124.01 5.12433 -1.9923 0
M  V30 1338 H 125.235 6.35614 -2.39107 0
M  V30 1339 H 123.181 6.55814 -0.156162 0
M  V30 1340 H 123.098 7.36977 -1.68526 0
M  V30 1341 H 124.366 7.77435 -0.567032 0
M  V30 1342 N 128.595 0.856903 1.32268 0
M  V30 1343 C 129.558 0.308171 2.27119 0
M  V30 1344 C 130.558 -0.533421 1.51695 0
M  V30 1345 O 131.748 -0.344607 1.70757 0
M  V30 1346 C 128.88 -0.563757 3.36206 0
M  V30 1347 H 130.073 1.14535 2.77167 0
M  V30 1348 H 127.626 0.631421 1.42978 0
M  V30 1349 H 128.361 -1.42266 2.91429 0
M  V30 1350 H 128.146 0.0386749 3.92081 0
M  V30 1351 H 129.636 -0.940386 4.06874 0
M  V30 1352 N 130.073 -1.45103 0.615059 0
M  V30 1353 C 131.301 -2.06553 0.11977 0
M  V30 1354 C 131.716 -1.45842 -1.19898 0
M  V30 1355 O 131.073 -0.575325 -1.73194 0
M  V30 1356 C 131.124 -3.61495 -0.018364 0
M  V30 1357 O 130.845 -4.19942 1.24822 0
M  V30 1358 C 132.346 -4.39947 -0.544237 0
M  V30 1359 H 129.566 -0.667096 0.0722739 0
M  V30 1360 H 132.11 -1.8623 0.84491 0
M  V30 1361 H 130.265 -3.81135 -0.693865 0
M  V30 1362 H 130.679 -5.13204 1.0827 0
M  V30 1363 H 132.153 -5.48838 -0.589953 0
M  V30 1364 H 132.63 -4.10255 -1.56805 0
M  V30 1365 H 133.236 -4.25188 0.0974703 0
M  V30 1366 N 131.551 -0.354651 -1.53558 0
M  V30 1367 C 132.799 0.237972 -2.00694 0
M  V30 1368 C 133.12 1.50173 -1.24391 0
M  V30 1369 O 132.39 1.92673 -0.354135 0
M  V30 1370 H 130.97 0.0909256 -0.741446 0
M  V30 1371 H 133.632 -0.478368 -1.88938 0
M  V30 1372 H 132.728 0.47264 -3.085 0
M  V30 1373 N 133.029 1.57378 -0.0835403 0
M  V30 1374 C 134.275 1.95025 0.577664 0
M  V30 1375 C 134.63 0.964049 1.66505 0
M  V30 1376 O 133.923 -0.0118235 1.91596 0
M  V30 1377 C 134.117 3.37063 1.1884 0
M  V30 1378 C 133.946 4.49409 0.16171 0
M  V30 1379 C 132.716 5.04642 -0.257756 0
M  V30 1380 C 134.914 5.10722 -0.605634 0
M  V30 1381 N 132.896 6.00537 -1.27393 0
M  V30 1382 C 134.267 6.02225 -1.47395 0
M  V30 1383 C 136.322 4.93501 -0.660418 0
M  V30 1384 C 135.025 6.78355 -2.39221 0
M  V30 1385 C 137.051 5.70283 -1.56623 0
M  V30 1386 C 136.413 6.61444 -2.4222 0
M  V30 1387 H 132.512 0.760512 0.182058 0
M  V30 1388 H 135.096 1.94013 -0.163419 0
M  V30 1389 H 133.267 3.3879 1.89936 0
M  V30 1390 H 134.999 3.61917 1.81103 0
M  V30 1391 H 131.754 4.73428 0.127702 0
M  V30 1392 H 132.178 6.53184 -1.77987 0
M  V30 1393 H 136.82 4.22798 -0.0128221 0
M  V30 1394 H 134.538 7.48327 -3.05011 0
M  V30 1395 H 138.124 5.58976 -1.61361 0
M  V30 1396 H 137.004 7.1982 -3.11174 0
M  V30 1397 N 134.507 -0.190092 1.56449 0
M  V30 1398 C 135.784 -0.935886 1.71757 0
M  V30 1399 C 136.164 -2.01173 0.639726 0
M  V30 1400 O 135.512 -2.25827 -0.348502 0
M  V30 1401 C 135.722 -1.51775 3.1427 0
M  V30 1402 C 137.07 -1.99794 3.74656 0
M  V30 1403 O 138.094 -1.61607 3.1743 0
M  V30 1404 O 136.953 -2.70079 4.751 0
M  V30 1405 H 134.047 -0.439229 0.700719 0
M  V30 1406 H 136.593 -0.179395 1.68749 0
M  V30 1407 H 135.365 -0.742505 3.84191 0
M  V30 1408 H 134.988 -2.33894 3.21527 0
M  V30 1409 N 135.985 -1.50799 -0.457987 0
M  V30 1410 C 137.233 -1.62121 -1.2067 0
M  V30 1411 C 137.554 -0.329793 -1.92191 0
M  V30 1412 O 136.824 0.653409 -1.84682 0
M  V30 1413 H 135.404 -0.597441 -0.448411 0
M  V30 1414 H 138.066 -1.87637 -0.527096 0
M  V30 1415 H 137.162 -2.43882 -1.94751 0
M  V30 1416 N 137.463 0.71206 -1.40597 0
M  V30 1417 C 138.693 1.49894 -1.42181 0
M  V30 1418 C 139.101 1.89189 -0.0208078 0
M  V30 1419 O 138.444 1.56223 0.966436 0
M  V30 1420 C 138.506 2.80215 -2.25211 0
M  V30 1421 C 138.17 2.63221 -3.73582 0
M  V30 1422 C 139.167 2.30249 -4.66135 0
M  V30 1423 C 136.852 2.79376 -4.17438 0
M  V30 1424 C 138.846 2.13645 -6.00529 0
M  V30 1425 C 136.533 2.6239 -5.51901 0
M  V30 1426 C 137.531 2.29573 -6.43262 0
M  V30 1427 O 137.219 2.12719 -7.75246 0
M  V30 1428 H 136.951 0.469031 -0.486812 0
M  V30 1429 H 139.505 0.88564 -1.85326 0
M  V30 1430 H 137.735 3.4389 -1.76852 0
M  V30 1431 H 139.424 3.41947 -2.18694 0
M  V30 1432 H 140.19 2.17398 -4.33547 0
M  V30 1433 H 136.069 3.03906 -3.46644 0
M  V30 1434 H 139.613 1.87953 -6.71803 0
M  V30 1435 H 135.51 2.74826 -5.84073 0
M  V30 1436 H 136.278 2.27611 -7.86216 0
M  V30 1437 N 138.941 1.26152 0.944643 0
M  V30 1438 C 140.187 1.12665 1.69346 0
M  V30 1439 C 140.542 -0.3273 1.89596 0
M  V30 1440 O 139.835 -1.23717 1.46303 0
M  V30 1441 C 140.029 1.82541 3.07268 0
M  V30 1442 C 139.858 3.34582 3.00475 0
M  V30 1443 C 138.628 4.03863 3.03681 0
M  V30 1444 C 140.826 4.30828 2.80877 0
M  V30 1445 N 138.808 5.42603 2.87151 0
M  V30 1446 C 140.179 5.5672 2.7288 0
M  V30 1447 C 142.234 4.21122 2.65633 0
M  V30 1448 C 140.937 6.74013 2.51196 0
M  V30 1449 C 142.963 5.38118 2.45323 0
M  V30 1450 C 142.325 6.62955 2.38055 0
M  V30 1451 H 138.424 0.467041 0.627214 0
M  V30 1452 H 141.008 1.59391 1.11815 0
M  V30 1453 H 139.179 1.38296 3.62945 0
M  V30 1454 H 140.911 1.61708 3.70989 0
M  V30 1455 H 137.666 3.55198 3.1326 0
M  V30 1456 H 138.09 6.15443 2.82063 0
M  V30 1457 H 142.732 3.25344 2.70021 0
M  V30 1458 H 140.45 7.6989 2.4555 0
M  V30 1459 H 144.036 5.32475 2.34439 0
M  V30 1460 H 142.916 7.51959 2.22546 0
M  V30 1461 N 140.419 -1.14872 1.07899 0
M  V30 1462 C 141.665 -1.86064 0.806725 0
M  V30 1463 C 141.998 -1.82434 -0.665706 0
M  V30 1464 O 141.273 -1.25138 -1.48899 0
M  V30 1465 C 141.556 -3.34929 1.32267 0
M  V30 1466 C 141.409 -3.47161 2.86006 0
M  V30 1467 C 142.728 -4.29863 0.943717 0
M  V30 1468 H 139.847 -0.675591 0.294526 0
M  V30 1469 H 142.489 -1.34925 1.33773 0
M  V30 1470 H 140.639 -3.78611 0.870974 0
M  V30 1471 H 142.311 -3.12302 3.39507 0
M  V30 1472 H 140.554 -2.88539 3.23925 0
M  V30 1473 H 141.225 -4.51777 3.17177 0
M  V30 1474 H 143.701 -3.9417 1.33302 0
M  V30 1475 H 142.577 -5.32494 1.33198 0
M  V30 1476 H 142.838 -4.41846 -0.149796 0
M  V30 1477 N 141.898 -0.863906 -1.31812 0
M  V30 1478 C 143.175 -0.39275 -1.91616 0
M  V30 1479 C 143.555 1.12461 -1.7865 0
M  V30 1480 O 142.903 1.95045 -1.19037 0
M  V30 1481 C 143.113 -0.867385 -3.38049 0
M  V30 1482 C 144.461 -0.889966 -4.15168 0
M  V30 1483 O 145.485 -0.812635 -3.46806 0
M  V30 1484 O 144.344 -1.00079 -5.37258 0
M  V30 1485 H 141.438 -0.116358 -0.818773 0
M  V30 1486 H 143.984 -0.951418 -1.40521 0
M  V30 1487 H 142.756 -1.91081 -3.41473 0
M  V30 1488 H 142.379 -0.286687 -3.96565 0
M  V30 1489 N 143.376 1.44774 -0.622745 0
M  V30 1490 C 144.339 2.29069 0.0774015 0
M  V30 1491 C 145.339 1.4059 0.780461 0
M  V30 1492 O 146.529 1.62551 0.626322 0
M  V30 1493 C 143.661 3.21974 1.12006 0
M  V30 1494 H 144.854 2.92459 -0.663901 0
M  V30 1495 H 142.407 1.51548 -0.382486 0
M  V30 1496 H 143.142 2.63417 1.89162 0
M  V30 1497 H 142.927 3.87168 0.619951 0
M  V30 1498 H 144.417 3.85318 1.60995 0
M  V30 1499 N 144.854 0.36279 1.53368 0
M  V30 1500 C 145.817 -0.472679 2.24273 0
M  V30 1501 C 146.817 -1.012 1.24961 0
M  V30 1502 O 148.007 -0.898194 1.49259 0
M  V30 1503 C 145.139 -1.66039 2.97731 0
M  V30 1504 H 146.332 0.14773 2.99536 0
M  V30 1505 H 143.885 0.114434 1.55881 0
M  V30 1506 H 144.62 -2.31896 2.26704 0
M  V30 1507 H 144.405 -1.28066 3.70596 0
M  V30 1508 H 145.895 -2.25252 3.51641 0
M  V30 1509 N 146.332 -1.57332 0.0918853 0
M  V30 1510 C 147.557 -1.98995 -0.584442 0
M  V30 1511 C 147.982 -0.970528 -1.61128 0
M  V30 1512 O 147.34 0.0613904 -1.81196 0
M  V30 1513 C 147.388 -3.39636 -1.21161 0
M  V30 1514 O 146.492 -3.40447 -2.32744 0
M  V30 1515 H 145.833 -0.647165 -0.148572 0
M  V30 1516 H 148.363 -2.03873 0.172347 0
M  V30 1517 H 148.373 -3.7726 -1.55367 0
M  V30 1518 H 147.048 -4.13356 -0.459313 0
M  V30 1519 H 145.625 -3.14614 -2.0018 0
M  V30 1520 N 147.81 0.181792 -1.56548 0
M  V30 1521 C 148.773 1.20894 -1.94724 0
M  V30 1522 C 149.773 1.37738 -0.829747 0
M  V30 1523 O 150.963 1.35323 -1.09697 0
M  V30 1524 C 148.095 2.57593 -2.23291 0
M  V30 1525 H 149.288 0.882275 -2.86629 0
M  V30 1526 H 146.841 0.423838 -1.50444 0
M  V30 1527 H 147.576 2.95291 -1.34067 0
M  V30 1528 H 147.361 2.46735 -3.04736 0
M  V30 1529 H 148.851 3.31637 -2.53785 0
M  V30 1530 N 149.288 1.51039 0.449983 0
M  V30 1531 C 150.218 1.74379 1.55288 0
M  V30 1532 C 151.199 0.593236 1.5942 0
M  V30 1533 O 152.384 0.834625 1.7535 0
M  V30 1534 C 149.514 1.85728 2.93466 0
M  V30 1535 C 148.468 3.01078 3.04197 0
M  V30 1536 C 147.794 2.97595 4.44231 0
M  V30 1537 C 149.094 4.41254 2.7945 0
M  V30 1538 H 150.788 2.66725 1.36008 0
M  V30 1539 H 148.334 1.2835 0.652864 0
M  V30 1540 H 150.287 2.0064 3.70569 0
M  V30 1541 H 149.011 0.900207 3.13949 0
M  V30 1542 H 147.67 2.85851 2.29531 0
M  V30 1543 H 147.318 1.99691 4.61663 0
M  V30 1544 H 147.018 3.75046 4.52343 0
M  V30 1545 H 148.542 3.14583 5.23326 0
M  V30 1546 H 149.956 4.56897 3.46292 0
M  V30 1547 H 148.353 5.20315 2.98985 0
M  V30 1548 H 149.423 4.52164 1.75144 0
M  V30 1549 N 150.766 -0.704594 1.40972 0
M  V30 1550 C 152.182 -1.01406 1.23244 0
M  V30 1551 C 152.382 -2.01169 0.115399 0
M  V30 1552 O 151.438 -2.47021 -0.523147 0
M  V30 1553 C 152.751 -1.54728 2.57836 0
M  V30 1554 C 154.299 -1.66658 2.64942 0
M  V30 1555 C 154.774 -2.23383 3.9983 0
M  V30 1556 N 156.265 -2.30756 4.01629 0
M  V30 1557 C 157 -2.75655 5.02794 0
M  V30 1558 N 156.496 -3.20225 6.14352 0
M  V30 1559 N 158.289 -2.75138 4.90159 0
M  V30 1560 H 150.44 -0.0435285 2.12355 0
M  V30 1561 H 152.703 -0.0818951 0.944456 0
M  V30 1562 H 152.409 -0.888832 3.40283 0
M  V30 1563 H 152.283 -2.53084 2.79693 0
M  V30 1564 H 154.67 -2.31617 1.8286 0
M  V30 1565 H 154.751 -0.668717 2.46904 0
M  V30 1566 H 154.395 -1.59043 4.82357 0
M  V30 1567 H 154.325 -3.23904 4.15203 0
M  V30 1568 H 156.816 -1.99291 3.21079 0
M  V30 1569 H 157.129 -3.53084 6.87424 0
M  V30 1570 H 155.474 -3.18156 6.17901 0
M  V30 1571 H 158.665 -2.39661 4.02095 0
M  V30 1572 H 158.838 -3.09812 5.6914 0
M  V30 1573 N 152.244 -1.26651 -0.937939 0
M  V30 1574 C 153.177 -1.02811 -2.03728 0
M  V30 1575 C 154.155 0.0481915 -1.62529 0
M  V30 1576 O 155.339 -0.0948839 -1.88261 0
M  V30 1577 C 152.466 -0.557517 -3.3408 0
M  V30 1578 C 151.512 -1.62686 -3.94253 0
M  V30 1579 S 152.345 -3.21667 -4.28125 0
M  V30 1580 C 153.501 -2.76384 -5.61572 0
M  V30 1581 H 153.734 -1.95891 -2.23638 0
M  V30 1582 H 151.267 -1.10367 -1.07974 0
M  V30 1583 H 153.225 -0.292674 -4.09455 0
M  V30 1584 H 151.886 0.353062 -3.12109 0
M  V30 1585 H 151.079 -1.24866 -4.88287 0
M  V30 1586 H 150.681 -1.84324 -3.25424 0
M  V30 1587 H 152.973 -2.2105 -6.40424 0
M  V30 1588 H 153.916 -3.69123 -6.0428 0
M  V30 1589 H 154.324 -2.15847 -5.21604 0
M  V30 1590 N 153.722 1.14298 -1.08507 0
M  V30 1591 C 154.669 2.19414 -0.715965 0
M  V30 1592 C 155.639 1.63399 0.298326 0
M  V30 1593 O 156.824 1.89929 0.182101 0
M  V30 1594 C 153.964 3.44845 -0.132534 0
M  V30 1595 C 153.077 4.15007 -1.19973 0
M  V30 1596 C 152.212 5.28024 -0.580048 0
M  V30 1597 C 151.251 5.9002 -1.62921 0
M  V30 1598 N 150.388 6.94485 -1.03125 0
M  V30 1599 H 155.228 2.50336 -1.61666 0
M  V30 1600 H 152.765 1.2293 -0.807882 0
M  V30 1601 H 154.723 4.16601 0.223454 0
M  V30 1602 H 153.353 3.14403 0.731467 0
M  V30 1603 H 152.405 3.41629 -1.67313 0
M  V30 1604 H 153.717 4.57178 -1.99473 0
M  V30 1605 H 152.871 6.06455 -0.172364 0
M  V30 1606 H 151.61 4.87076 0.246603 0
M  V30 1607 H 150.615 5.10291 -2.04654 0
M  V30 1608 H 151.84 6.33042 -2.45835 0
M  V30 1609 H 149.786 6.55612 -0.225711 0
M  V30 1610 H 149.703 7.35148 -1.76334 0
M  V30 1611 H 150.971 7.7679 -0.649458 0
M  V30 1612 N 155.201 0.870884 1.31352 0
M  V30 1613 C 156.478 0.402907 1.91405 0
M  V30 1614 C 156.858 -1.11512 1.79244 0
M  V30 1615 O 156.206 -1.94411 1.2007 0
M  V30 1616 C 156.416 0.885301 3.37585 0
M  V30 1617 C 157.764 0.911971 4.14691 0
M  V30 1618 O 158.788 0.831016 3.46371 0
M  V30 1619 O 157.647 1.02927 5.3672 0
M  V30 1620 H 154.741 0.120698 0.818145 0
M  V30 1621 H 157.287 0.958857 1.40014 0
M  V30 1622 H 156.059 1.92889 3.40455 0
M  V30 1623 H 155.682 0.307714 3.96407 0
M  V30 1624 N 156.679 -1.44442 0.630414 0
M  V30 1625 C 157.956 -1.9549 0.0655657 0
M  V30 1626 C 158.336 -1.5724 -1.40851 0
M  V30 1627 O 157.684 -0.846116 -2.12257 0
M  V30 1628 C 157.894 -3.47812 0.287691 0
M  V30 1629 C 159.242 -4.24216 0.180513 0
M  V30 1630 O 160.266 -3.55526 0.219019 0
M  V30 1631 O 159.125 -5.46434 0.0848493 0
M  V30 1632 H 156.219 -0.826688 -0.0227177 0
M  V30 1633 H 158.765 -1.54496 0.702068 0
M  V30 1634 H 157.537 -3.687 1.31056 0
M  V30 1635 H 157.16 -3.95751 -0.382984 0
M  V30 1636 N 158.157 -0.370918 -1.53173 0
M  V30 1637 C 159.12 0.460778 -2.24521 0
M  V30 1638 C 160.12 1.00536 -1.25496 0
M  V30 1639 O 161.31 0.890266 -1.49733 0
M  V30 1640 C 158.442 1.64457 -2.98608 0
M  V30 1641 H 159.635 -0.163613 -2.99453 0
M  V30 1642 H 157.188 -0.122699 -1.55818 0
M  V30 1643 H 157.923 2.30691 -2.2793 0
M  V30 1644 H 157.708 1.26099 -3.7127 0
M  V30 1645 H 159.198 2.23384 -3.5283 0
M  V30 1646 N 159.635 1.57281 -0.100228 0
M  V30 1647 C 160.884 1.93713 0.561984 0
M  V30 1648 C 161.197 0.984492 1.69018 0
M  V30 1649 O 162.403 1.24273 2.41389 0
M  V30 1650 C 160.859 3.4421 1.05106 0
M  V30 1651 C 160.467 4.47975 -0.0476628 0
M  V30 1652 C 162.211 3.89595 1.68571 0
M  V30 1653 C 160.118 5.89631 0.457055 0
M  V30 1654 H 159.048 0.723082 0.2137 0
M  V30 1655 H 161.699 1.82644 -0.177057 0
M  V30 1656 H 160.081 3.50449 1.84395 0
M  V30 1657 H 161.255 4.53385 -0.823333 0
M  V30 1658 H 159.57 4.1223 -0.587816 0
M  V30 1659 H 162.167 4.92832 2.07414 0
M  V30 1660 H 162.51 3.28526 2.55688 0
M  V30 1661 H 163.043 3.86078 0.958562 0
M  V30 1662 H 159.782 6.54411 -0.377616 0
M  V30 1663 H 159.302 5.87681 1.19962 0
M  V30 1664 H 160.981 6.40363 0.92437 0
M  V30 1665 N 161.113 -0.173488 1.56642 0
M  V30 1666 C 162.362 -0.888758 1.81063 0
M  V30 1667 C 162.675 -1.83506 0.67712 0
M  V30 1668 O 163.881 -2.59254 0.806206 0
M  V30 1669 C 162.337 -1.63091 3.20826 0
M  V30 1670 C 161.945 -0.728357 4.4204 0
M  V30 1671 C 163.689 -2.33454 3.54541 0
M  V30 1672 C 161.596 -1.47062 5.72823 0
M  V30 1673 H 160.526 -0.335618 0.675186 0
M  V30 1674 H 163.177 -0.141712 1.82952 0
M  V30 1675 H 161.559 -2.42263 3.13248 0
M  V30 1676 H 162.733 0.0262449 4.60793 0
M  V30 1677 H 161.048 -0.134492 4.16183 0
M  V30 1678 H 163.645 -2.89578 4.49498 0
M  V30 1679 H 163.988 -3.08687 2.79317 0
M  V30 1680 H 164.521 -1.61227 3.63663 0
M  V30 1681 H 161.26 -0.760658 6.51072 0
M  V30 1682 H 160.78 -2.1986 5.58052 0
M  V30 1683 H 162.459 -2.01868 6.14702 0
M  V30 1684 N 162.591 -1.51276 -0.441967 0
M  V30 1685 C 163.837 -1.63958 -1.19355 0
M  V30 1686 C 164.17 -0.352543 -1.90973 0
M  V30 1687 O 163.445 0.647627 -1.83401 0
M  V30 1688 C 163.728 -2.83979 -2.21422 0
M  V30 1689 C 163.581 -4.22646 -1.53918 0
M  V30 1690 C 164.9 -2.99521 -3.22451 0
M  V30 1691 H 162.019 -0.596709 -0.432559 0
M  V30 1692 H 164.661 -1.83748 -0.483398 0
M  V30 1693 H 162.811 -2.67237 -2.81987 0
M  V30 1694 H 164.483 -4.51045 -0.967256 0
M  V30 1695 H 162.726 -4.25558 -0.841615 0
M  V30 1696 H 163.397 -5.02609 -2.28229 0
M  V30 1697 H 165.873 -3.14944 -2.71937 0
M  V30 1698 H 164.749 -3.85072 -3.91166 0
M  V30 1699 H 165.01 -2.11391 -3.88287 0
M  V30 1700 N 164.069 0.697108 -1.41344 0
M  V30 1701 C 164.999 1.82353 -1.45841 0
M  V30 1702 C 165.98 1.67115 -0.317247 0
M  V30 1703 O 167.165 1.86871 -0.528474 0
M  V30 1704 C 164.295 3.20476 -1.33838 0
M  V30 1705 C 163.249 3.50415 -2.4575 0
M  V30 1706 C 162.575 4.87878 -2.18813 0
M  V30 1707 C 163.875 3.49546 -3.88091 0
M  V30 1708 H 165.569 1.78846 -2.40113 0
M  V30 1709 H 163.115 0.859028 -1.15571 0
M  V30 1710 H 165.068 3.98988 -1.35596 0
M  V30 1711 H 163.792 3.24604 -0.360498 0
M  V30 1712 H 162.451 2.74253 -2.43271 0
M  V30 1713 H 162.099 4.8863 -1.19371 0
M  V30 1714 H 161.799 5.08875 -2.93803 0
M  V30 1715 H 163.323 5.68702 -2.22284 0
M  V30 1716 H 164.737 4.18066 -3.92293 0
M  V30 1717 H 163.134 3.82075 -4.62751 0
M  V30 1718 H 164.204 2.48552 -4.16353 0
M  V30 1719 N 165.547 1.27147 0.931209 0
M  V30 1720 C 166.824 1.0401 1.65654 0
M  V30 1721 C 167.204 -0.426297 2.06751 0
M  V30 1722 O 166.552 -1.40879 1.79904 0
M  V30 1723 C 166.762 1.99834 2.86125 0
M  V30 1724 C 168.11 2.29007 3.57549 0
M  V30 1725 O 169.134 1.97779 2.96246 0
M  V30 1726 O 167.993 2.82222 4.67989 0
M  V30 1727 H 165.087 0.396239 0.725895 0
M  V30 1728 H 167.633 1.38397 0.982056 0
M  V30 1729 H 166.405 2.98744 2.52721 0
M  V30 1730 H 166.028 1.65987 3.61295 0
M  V30 1731 N 167.025 -1.13721 1.09112 0
M  V30 1732 C 168.436 -1.6648 0.845068 0
M  V30 1733 C 168.787 -1.85911 -0.62701 0
M  V30 1734 O 167.912 -1.57556 -1.48341 0
M  V30 1735 C 168.507 -3.02413 1.52748 0
M  V30 1736 C 167.066 -3.52176 1.32849 0
M  V30 1737 C 166.213 -2.27492 1.58564 0
M  V30 1738 H 169.164 -0.976872 1.25072 0
M  V30 1739 H 169.185 -3.68223 0.958752 0
M  V30 1740 H 168.697 -2.88238 2.59885 0
M  V30 1741 H 166.798 -3.7156 0.278137 0
M  V30 1742 H 166.911 -4.32499 2.0611 0
M  V30 1743 H 165.275 -2.33923 1.00758 0
M  V30 1744 H 166.058 -2.15886 2.66924 0
M  V30 1745 N 168.503 -0.877838 -1.30888 0
M  V30 1746 C 169.749 -0.493426 -1.96706 0
M  V30 1747 C 170.082 0.953504 -1.6918 0
M  V30 1748 O 169.357 1.67266 -0.992594 0
M  V30 1749 C 169.64 -0.760429 -3.51979 0
M  V30 1750 C 169.493 -2.25747 -3.89048 0
M  V30 1751 C 170.812 -0.232148 -4.39487 0
M  V30 1752 H 167.931 -0.180746 -0.714493 0
M  V30 1753 H 170.573 -1.10052 -1.54882 0
M  V30 1754 H 168.723 -0.243715 -3.87735 0
M  V30 1755 H 170.395 -2.84204 -3.63354 0
M  V30 1756 H 168.638 -2.72694 -3.37373 0
M  V30 1757 H 169.309 -2.39491 -4.97341 0
M  V30 1758 H 171.785 -0.674314 -4.106 0
M  V30 1759 H 170.661 -0.448355 -5.47066 0
M  V30 1760 H 170.922 0.866297 -4.33529 0
M  V30 1761 N 169.982 1.44106 -0.638065 0
M  V30 1762 C 170.93 2.3248 0.0748149 0
M  V30 1763 C 171.924 1.47746 0.828702 0
M  V30 1764 O 173.13 1.64049 0.740816 0
M  V30 1765 H 169.505 0.750771 0.0429686 0
M  V30 1766 H 171.476 2.90348 -0.688504 0
M  V30 1767 C 170.225 3.31843 1.03805 0
M  V30 1768 H 169.548 3.97059 0.467375 0
M  V30 1769 H 170.988 3.96345 1.50622 0
M  V30 1770 C 169.447 2.61291 2.1267 0
M  V30 1771 O 169.977 2.41702 3.20847 0
M  V30 1772 N 168.183 2.20915 1.88798 0
M  V30 1773 H 167.73 2.37047 1.00829 0
M  V30 1774 H 167.688 1.74038 2.61836 0
M  V30 1775 N 171.46 0.379036 1.52974 0
M  V30 1776 C 172.392 -0.495963 2.2377 0
M  V30 1777 C 173.405 -1.03517 1.25651 0
M  V30 1778 O 174.594 -0.939249 1.51791 0
M  V30 1779 C 171.694 -1.69894 2.93239 0
M  V30 1780 C 170.867 -1.2889 4.17979 0
M  V30 1781 C 169.926 -2.35543 4.70538 0
M  V30 1782 O 168.952 -1.97375 5.33883 0
M  V30 1783 N 170.154 -3.67318 4.49508 0
M  V30 1784 H 172.919 0.110523 2.99496 0
M  V30 1785 H 170.48 0.204878 1.60598 0
M  V30 1786 H 172.472 -2.40747 3.25304 0
M  V30 1787 H 171.042 -2.212 2.20883 0
M  V30 1788 H 170.262 -0.409676 3.92065 0
M  V30 1789 H 171.55 -0.991443 4.99047 0
M  V30 1790 H 170.948 -4.01095 3.98923 0
M  V30 1791 H 169.505 -4.34235 4.8609 0
M  V30 1792 N 172.938 -1.57226 0.108567 0
M  V30 1793 C 173.888 -2.11305 -0.856396 0
M  V30 1794 C 174.872 -1.03129 -1.23504 0
M  V30 1795 O 176.064 -1.29381 -1.20787 0
M  V30 1796 C 173.193 -2.70771 -2.11041 0
M  V30 1797 C 172.279 -3.86011 -1.7566 0
M  V30 1798 N 172.67 -4.93492 -1.10902 0
M  V30 1799 C 170.968 -3.95999 -2.05185 0
M  V30 1800 C 171.669 -5.73984 -0.944308 0
M  V30 1801 N 170.645 -5.2346 -1.46596 0
M  V30 1802 H 174.447 -2.91784 -0.352002 0
M  V30 1803 H 171.961 -1.62126 -0.0942324 0
M  V30 1804 H 173.958 -3.07851 -2.81128 0
M  V30 1805 H 172.618 -1.91751 -2.62034 0
M  V30 1806 H 173.629 -5.1208 -0.774235 0
M  V30 1807 H 170.306 -3.28007 -2.58298 0
M  V30 1808 H 171.696 -6.70479 -0.436813 0
M  V30 1809 N 174.416 0.165178 -1.56732 0
M  V30 1810 C 175.662 0.882112 -1.82611 0
M  V30 1811 C 175.995 1.81628 -0.687378 0
M  V30 1812 O 175.27 1.92009 0.310267 0
M  V30 1813 C 175.553 1.67245 -3.18906 0
M  V30 1814 C 175.406 0.760987 -4.43316 0
M  V30 1815 C 176.725 2.63884 -3.52212 0
M  V30 1816 H 173.844 0.319242 -0.664269 0
M  V30 1817 H 176.486 0.148052 -1.89422 0
M  V30 1818 H 174.636 2.29824 -3.1323 0
M  V30 1819 H 176.308 0.147596 -4.61064 0
M  V30 1820 H 174.551 0.0694102 -4.33744 0
M  V30 1821 H 175.222 1.34962 -5.35247 0
M  V30 1822 H 177.698 2.11429 -3.58381 0
M  V30 1823 H 176.574 3.16245 -4.48643 0
M  V30 1824 H 176.835 3.44377 -2.77231 0
M  V30 1825 N 175.894 1.51508 0.433938 0
M  V30 1826 C 177.143 1.63578 1.18005 0
M  V30 1827 C 177.456 0.359514 1.92268 0
M  V30 1828 O 178.662 0.359632 2.69108 0
M  V30 1829 C 177.118 2.88901 2.14626 0
M  V30 1830 C 176.726 4.23544 1.45995 0
M  V30 1831 C 178.47 3.10328 2.89649 0
M  V30 1832 C 176.377 5.40014 2.4112 0
M  V30 1833 H 175.307 0.609277 0.444182 0
M  V30 1834 H 177.958 1.77978 0.446773 0
M  V30 1835 H 176.34 2.68142 2.91403 0
M  V30 1836 H 177.514 4.54696 0.747532 0
M  V30 1837 H 175.829 4.08021 0.831115 0
M  V30 1838 H 178.426 3.94518 3.60915 0
M  V30 1839 H 178.769 2.23544 3.51189 0
M  V30 1840 H 179.302 3.31443 2.19978 0
M  V30 1841 H 176.041 6.29068 1.84264 0
M  V30 1842 H 175.561 5.13233 3.10406 0
M  V30 1843 H 177.24 5.72099 3.02177 0
M  V30 1844 N 177.372 -0.689602 1.41712 0
M  V30 1845 C 178.597 -1.48329 1.44959 0
M  V30 1846 C 179.022 -1.8801 0.0581283 0
M  V30 1847 O 178.38 -1.55026 -0.940035 0
M  V30 1848 C 178.428 -2.71835 2.36935 0
M  V30 1849 O 177.532 -3.69549 1.8305 0
M  V30 1850 H 176.873 -0.446199 0.491734 0
M  V30 1851 H 179.403 -0.847127 1.86239 0
M  V30 1852 H 179.413 -3.20076 2.53013 0
M  V30 1853 H 178.088 -2.42291 3.38035 0
M  V30 1854 H 176.665 -3.2851 1.76452 0
M  V30 1855 N 178.85 -1.27639 -0.924453 0
M  V30 1856 C 179.76 -1.12466 -2.05885 0
M  V30 1857 C 180.776 -0.053869 -1.73917 0
M  V30 1858 O 181.952 -0.261012 -1.99702 0
M  V30 1859 C 179.017 -0.776768 -3.37886 0
M  V30 1860 C 178.078 -1.92878 -3.83532 0
M  V30 1861 C 177.311 -1.59739 -5.09234 0
M  V30 1862 O 177.534 -0.506782 -5.68144 0
M  V30 1863 O 176.468 -2.43761 -5.50331 0
M  V30 1864 H 180.294 -2.07671 -2.21599 0
M  V30 1865 H 177.879 -1.06857 -1.04413 0
M  V30 1866 H 179.761 -0.596229 -4.17161 0
M  V30 1867 H 178.436 0.145732 -3.23372 0
M  V30 1868 H 177.343 -2.1644 -3.0513 0
M  V30 1869 H 178.676 -2.8316 -4.02593 0
M  V30 1870 N 180.328 1.1314 -1.09713 0
M  V30 1871 C 181.576 1.84119 -0.833338 0
M  V30 1872 C 181.897 1.84097 0.642904 0
M  V30 1873 O 181.167 1.29881 1.46655 0
M  V30 1874 H 179.747 0.681766 -0.305293 0
M  V30 1875 H 182.409 1.37038 -1.38588 0
M  V30 1876 H 181.505 2.88543 -1.18951 0
M  V30 1877 N 181.806 0.884767 1.30421 0
M  V30 1878 C 182.736 0.367574 2.30589 0
M  V30 1879 C 183.717 -0.549464 1.60981 0
M  V30 1880 O 184.902 -0.46336 1.88591 0
M  V30 1881 C 182.032 -0.418944 3.44764 0
M  V30 1882 C 180.986 0.406316 4.26067 0
M  V30 1883 C 180.312 -0.506793 5.32293 0
M  V30 1884 C 181.612 1.64832 4.95608 0
M  V30 1885 H 183.306 1.20462 2.74097 0
M  V30 1886 H 180.852 0.580695 1.31772 0
M  V30 1887 H 182.805 -0.791395 4.13902 0
M  V30 1888 H 181.529 -1.28964 3.0006 0
M  V30 1889 H 180.188 0.760903 3.58617 0
M  V30 1890 H 179.836 -1.37519 4.83836 0
M  V30 1891 H 179.536 0.0415828 5.87585 0
M  V30 1892 H 181.06 -0.875764 6.04287 0
M  V30 1893 H 182.474 1.34646 5.57264 0
M  V30 1894 H 180.871 2.13688 5.60765 0
M  V30 1895 H 181.941 2.39284 4.21748 0
M  V30 1896 N 183.284 -1.43765 0.645699 0
M  V30 1897 C 184.231 -2.30745 -0.0504648 0
M  V30 1898 C 185.201 -1.4432 -0.822241 0
M  V30 1899 O 186.386 -1.73202 -0.800358 0
M  V30 1900 C 183.526 -3.29802 -1.0161 0
M  V30 1901 C 182.639 -4.31326 -0.241219 0
M  V30 1902 C 181.774 -5.17469 -1.19998 0
M  V30 1903 C 180.813 -6.10691 -0.415094 0
M  V30 1904 N 179.95 -6.89483 -1.32506 0
M  V30 1905 H 184.79 -2.8973 0.697155 0
M  V30 1906 H 182.327 -1.42738 0.355563 0
M  V30 1907 H 184.285 -3.85734 -1.58949 0
M  V30 1908 H 182.915 -2.72483 -1.73069 0
M  V30 1909 H 181.967 -3.77749 0.448334 0
M  V30 1910 H 183.279 -4.9743 0.369437 0
M  V30 1911 H 182.433 -5.7799 -1.84424 0
M  V30 1912 H 181.172 -4.51473 -1.84455 0
M  V30 1913 H 180.177 -5.49265 0.242565 0
M  V30 1914 H 181.402 -6.78727 0.224966 0
M  V30 1915 H 179.348 -6.26142 -1.95657 0
M  V30 1916 H 179.265 -7.52081 -0.768783 0
M  V30 1917 H 180.533 -7.54516 -1.9577 0
M  V30 1918 N 184.763 -0.387143 -1.52771 0
M  V30 1919 C 185.71 0.449048 -2.26389 0
M  V30 1920 C 186.68 1.05961 -1.27912 0
M  V30 1921 O 187.865 1.08804 -1.56737 0
M  V30 1922 C 185.005 1.57155 -3.0724 0
M  V30 1923 C 184.118 0.984066 -4.20643 0
M  V30 1924 C 183.253 2.07745 -4.88892 0
M  V30 1925 C 182.292 1.46574 -5.94292 0
M  V30 1926 N 181.429 2.49834 -6.56146 0
M  V30 1927 H 186.269 -0.185205 -2.97424 0
M  V30 1928 H 183.806 -0.103164 -1.46738 0
M  V30 1929 H 185.764 2.23309 -3.52405 0
M  V30 1930 H 184.394 2.17615 -2.38419 0
M  V30 1931 H 183.446 0.212193 -3.79808 0
M  V30 1932 H 184.758 0.497029 -4.96318 0
M  V30 1933 H 183.912 2.81673 -5.3735 0
M  V30 1934 H 182.651 2.59807 -4.12737 0
M  V30 1935 H 181.656 0.711696 -5.45174 0
M  V30 1936 H 182.881 0.953088 -6.72379 0
M  V30 1937 H 180.827 3.0107 -5.82832 0
M  V30 1938 H 180.744 2.05879 -7.27427 0
M  V30 1939 H 182.012 3.23399 -7.09249 0
M  V30 1940 N 186.241 1.57166 -0.116904 0
M  V30 1941 C 187.489 1.94737 0.540533 0
M  V30 1942 C 187.81 1.00096 1.67349 0
M  V30 1943 O 187.08 0.0568854 1.95817 0
M  V30 1944 H 185.66 0.718981 0.202669 0
M  V30 1945 H 188.322 1.94017 -0.185353 0
M  V30 1946 H 187.418 2.97719 0.936483 0
M  V30 1947 N 187.719 -0.156864 1.56817 0
M  V30 1948 C 188.968 -0.869504 1.81996 0
M  V30 1949 C 189.281 -1.82777 0.696545 0
M  V30 1950 O 190.487 -2.58384 0.833658 0
M  V30 1951 C 188.943 -1.59679 3.22538 0
M  V30 1952 C 188.551 -0.681431 4.42787 0
M  V30 1953 C 190.295 -2.2968 3.56997 0
M  V30 1954 C 188.202 -1.40978 5.74351 0
M  V30 1955 H 187.132 -0.328438 0.678708 0
M  V30 1956 H 189.783 -0.1223 1.83092 0
M  V30 1957 H 188.165 -2.38927 3.158 0
M  V30 1958 H 189.339 0.0751166 4.60739 0
M  V30 1959 H 187.654 -0.0903431 4.16302 0
M  V30 1960 H 190.251 -2.84794 4.52544 0
M  V30 1961 H 190.594 -3.05707 2.82576 0
M  V30 1962 H 191.127 -1.57361 3.65352 0
M  V30 1963 H 187.866 -0.691561 6.51842 0
M  V30 1964 H 187.386 -2.13929 5.60352 0
M  V30 1965 H 189.065 -1.95337 6.16808 0
M  V30 1966 N 189.197 -1.51736 -0.425897 0
M  V30 1967 C 190.144 -1.73875 -1.51776 0
M  V30 1968 C 191.114 -0.580702 -1.55618 0
M  V30 1969 O 192.299 -0.81641 -1.72451 0
M  V30 1970 C 189.439 -1.88012 -2.89388 0
M  V30 1971 C 188.552 -3.15606 -2.94986 0
M  V30 1972 C 187.687 -3.20271 -4.23793 0
M  V30 1973 C 186.726 -4.42134 -4.23302 0
M  V30 1974 N 185.863 -4.44284 -5.43651 0
M  V30 1975 H 190.703 -2.67071 -1.32201 0
M  V30 1976 H 188.24 -1.32351 -0.642008 0
M  V30 1977 H 190.198 -1.9419 -3.69251 0
M  V30 1978 H 188.828 -0.98213 -3.07496 0
M  V30 1979 H 187.88 -3.18681 -2.07717 0
M  V30 1980 H 189.192 -4.05486 -2.90486 0
M  V30 1981 H 188.346 -3.25428 -5.12036 0
M  V30 1982 H 187.085 -2.28299 -4.30965 0
M  V30 1983 H 186.09 -4.3714 -3.3345 0
M  V30 1984 H 187.315 -5.35382 -4.17783 0
M  V30 1985 H 185.261 -3.55188 -5.51523 0
M  V30 1986 H 185.178 -5.27988 -5.41078 0
M  V30 1987 H 186.446 -4.53649 -6.33895 0
M  V30 1988 N 190.675 0.682077 -1.42076 0
M  V30 1989 C 191.903 1.47057 -1.4554 0
M  V30 1990 C 192.318 1.8869 -0.0645779 0
M  V30 1991 O 191.675 1.57666 0.919115 0
M  V30 1992 C 191.726 2.72442 -2.37609 0
M  V30 1993 O 191.447 2.32559 -3.71279 0
M  V30 1994 C 192.948 3.66069 -2.50017 0
M  V30 1995 H 190.168 0.452737 -0.495248 0
M  V30 1996 H 192.712 0.838695 -1.8651 0
M  V30 1997 H 190.867 3.31835 -1.9991 0
M  V30 1998 H 191.281 3.13475 -4.20516 0
M  V30 1999 H 192.755 4.50792 -3.18576 0
M  V30 2000 H 193.232 4.11476 -1.53572 0
M  V30 2001 H 193.838 3.12572 -2.88407 0
M  V30 2002 N 192.153 1.28127 0.917671 0
M  V30 2003 C 193.4 1.15052 1.66641 0
M  V30 2004 C 193.728 -0.301677 1.92146 0
M  V30 2005 O 192.983 -1.23622 1.51711 0
M  V30 2006 C 193.282 1.89018 3.03327 0
M  V30 2007 C 192.948 3.38832 2.97496 0
M  V30 2008 C 191.61 3.79693 2.95613 0
M  V30 2009 C 193.962 4.34378 2.88036 0
M  V30 2010 C 191.29 5.14447 2.82066 0
M  V30 2011 C 193.642 5.69201 2.7603 0
M  V30 2012 C 192.306 6.09343 2.72502 0
M  V30 2013 H 191.576 0.421006 0.609783 0
M  V30 2014 H 194.223 1.58855 1.06945 0
M  V30 2015 H 192.528 1.37752 3.66785 0
M  V30 2016 H 194.225 1.76321 3.60156 0
M  V30 2017 H 190.815 3.06342 2.99754 0
M  V30 2018 H 194.999 4.03775 2.88581 0
M  V30 2019 H 190.255 5.44681 2.77728 0
M  V30 2020 H 194.429 6.42901 2.67678 0
M  V30 2021 H 192.056 7.13712 2.61762 0
M  V30 2022 N 193.631 -1.12557 1.10312 0
M  V30 2023 C 194.877 -1.84311 0.846011 0
M  V30 2024 C 195.21 -1.83805 -0.626859 0
M  V30 2025 O 194.485 -1.28268 -1.46211 0
M  V30 2026 C 194.768 -3.32048 1.39341 0
M  V30 2027 C 194.621 -3.41016 2.93305 0
M  V30 2028 C 195.94 -4.27764 1.03468 0
M  V30 2029 H 193.059 -0.669192 0.30879 0
M  V30 2030 H 195.701 -1.32057 1.36605 0
M  V30 2031 H 193.851 -3.76678 0.951087 0
M  V30 2032 H 195.523 -3.05031 3.46055 0
M  V30 2033 H 193.766 -2.81603 3.29973 0
M  V30 2034 H 194.437 -4.44948 3.26689 0
M  V30 2035 H 196.913 -3.91253 1.41633 0
M  V30 2036 H 195.789 -5.29549 1.44463 0
M  V30 2037 H 196.05 -4.42064 -0.0560404 0
M  V30 2038 N 195.109 -0.891671 -1.2995 0
M  V30 2039 C 196.357 -0.512486 -1.95494 0
M  V30 2040 C 196.678 0.942776 -1.70695 0
M  V30 2041 O 195.948 1.66374 -1.03424 0
M  V30 2042 H 194.528 -0.186533 -0.723336 0
M  V30 2043 H 197.19 -1.13621 -1.58355 0
M  V30 2044 H 196.286 -0.688342 -3.04415 0
M  V30 2045 N 196.587 1.43421 -0.653314 0
M  V30 2046 C 197.835 2.01414 -0.166415 0
M  V30 2047 C 198.156 1.51803 1.22397 0
M  V30 2048 O 197.426 0.730693 1.81763 0
M  V30 2049 H 196.006 0.744703 -0.0585319 0
M  V30 2050 H 198.668 1.75629 -0.845003 0
M  V30 2051 H 197.764 3.11734 -0.151111 0
M  V30 2052 N 198.065 0.39524 1.52563 0
M  V30 2053 C 199.013 -0.451859 2.28169 0
M  V30 2054 C 200.007 -1.05792 1.32304 0
M  V30 2055 O 201.213 -0.997718 1.49818 0
M  V30 2056 H 197.588 -0.164481 0.733792 0
M  V30 2057 H 199.559 0.207199 2.9768 0
M  V30 2058 C 198.308 -1.56385 3.10546 0
M  V30 2059 H 197.631 -1.10682 3.84174 0
M  V30 2060 H 199.071 -2.13067 3.66577 0
M  V30 2061 C 197.53 -2.52328 2.23231 0
M  V30 2062 O 198.06 -3.5588 1.86312 0
M  V30 2063 N 196.266 -2.22209 1.87274 0
M  V30 2064 H 195.813 -1.38033 2.17496 0
M  V30 2065 H 195.771 -2.86652 1.29143 0
M  V30 2066 N 199.544 -1.57102 0.125237 0
M  V30 2067 C 200.784 -1.97294 -0.534259 0
M  V30 2068 C 201.148 -1.0074 -1.63449 0
M  V30 2069 O 202.349 -1.29893 -2.35332 0
M  V30 2070 C 200.62 -3.41705 -1.04748 0
M  V30 2071 S 202.179 -4.03913 -1.71463 0
M  V30 2072 H 198.997 -0.689517 -0.173458 0
M  V30 2073 H 201.599 -1.94349 0.211797 0
M  V30 2074 H 200.303 -4.09723 -0.235649 0
M  V30 2075 H 199.834 -3.48315 -1.82867 0
M  V30 2076 H 201.849 -3.95182 -3.00077 0
M  V30 2077 N 201.022 0.148545 -1.56898 0
M  V30 2078 C 202.25 0.876389 -1.87422 0
M  V30 2079 C 202.665 1.74809 -0.713256 0
M  V30 2080 O 202.022 1.79725 0.317025 0
M  V30 2081 C 202.073 1.73438 -3.17178 0
M  V30 2082 O 201.794 0.897809 -4.28802 0
M  V30 2083 C 203.295 2.56993 -3.61205 0
M  V30 2084 H 200.515 0.253489 -0.621277 0
M  V30 2085 H 203.059 0.141798 -2.04008 0
M  V30 2086 H 201.214 2.42205 -3.0235 0
M  V30 2087 H 201.628 1.48672 -5.02988 0
M  V30 2088 H 203.102 3.12773 -4.54838 0
M  V30 2089 H 203.579 3.32958 -2.86419 0
M  V30 2090 H 204.185 1.9352 -3.78722 0
M  V30 2091 N 202.5 1.5196 0.417844 0
M  V30 2092 C 203.746 1.65836 1.16732 0
M  V30 2093 C 204.079 0.382881 1.90388 0
M  V30 2094 O 203.354 -0.618368 1.84408 0
M  V30 2095 C 203.637 2.87466 2.16876 0
M  V30 2096 C 203.49 4.25041 1.47174 0
M  V30 2097 C 204.809 3.04613 3.17646 0
M  V30 2098 H 201.928 0.603515 0.423011 0
M  V30 2099 H 204.57 1.84494 0.454105 0
M  V30 2100 H 202.72 2.71689 2.777 0
M  V30 2101 H 204.392 4.52527 0.895376 0
M  V30 2102 H 202.635 4.26843 0.773806 0
M  V30 2103 H 203.306 5.06176 2.20204 0
M  V30 2104 H 205.782 3.1923 2.66892 0
M  V30 2105 H 204.658 3.91247 3.8499 0
M  V30 2106 H 204.919 2.17541 3.84874 0
M  V30 2107 N 203.978 -0.674533 1.42435 0
M  V30 2108 C 205.203 -1.46784 1.46524 0
M  V30 2109 C 205.628 -1.87938 0.078066 0
M  V30 2110 O 204.986 -1.56014 -0.92354 0
M  V30 2111 C 205.034 -2.69307 2.39805 0
M  V30 2112 O 204.138 -3.67587 1.86959 0
M  V30 2113 H 203.479 -0.440959 0.496439 0
M  V30 2114 H 206.009 -0.827326 1.87127 0
M  V30 2115 H 206.019 -3.17374 2.56393 0
M  V30 2116 H 204.694 -2.38692 3.40586 0
M  V30 2117 H 203.271 -3.2662 1.79927 0
M  V30 2118 N 205.456 -1.28612 -0.910864 0
M  V30 2119 C 206.386 -1.15326 -2.03032 0
M  V30 2120 C 207.367 -0.0502924 -1.70026 0
M  V30 2121 O 208.552 -0.227797 -1.92859 0
M  V30 2122 C 205.682 -0.817343 -3.37545 0
M  V30 2123 C 204.636 -1.8754 -3.84724 0
M  V30 2124 C 203.962 -1.39305 -5.16235 0
M  V30 2125 C 205.262 -3.28244 -4.06267 0
M  V30 2126 H 206.956 -2.08975 -2.14406 0
M  V30 2127 H 204.502 -1.00612 -1.03021 0
M  V30 2128 H 206.455 -0.711151 -4.15356 0
M  V30 2129 H 205.179 0.154846 -3.26233 0
M  V30 2130 H 203.838 -1.97079 -3.09121 0
M  V30 2131 H 203.486 -0.409846 -5.01328 0
M  V30 2132 H 203.186 -2.10057 -5.48771 0
M  V30 2133 H 204.71 -1.30014 -5.96598 0
M  V30 2134 H 206.124 -3.21611 -4.74594 0
M  V30 2135 H 204.521 -3.96855 -4.5014 0
M  V30 2136 H 205.591 -3.72048 -3.10979 0
M  V30 2137 N 206.934 1.1197 -1.10907 0
M  V30 2138 C 207.867 2.16998 -0.706192 0
M  V30 2139 C 208.845 1.59903 0.294897 0
M  V30 2140 O 210.029 1.87513 0.192636 0
M  V30 2141 C 207.156 3.38673 -0.0427664 0
M  V30 2142 C 206.202 4.14414 -1.00811 0
M  V30 2143 S 207.035 4.72079 -2.52789 0
M  V30 2144 C 208.191 5.97083 -1.87731 0
M  V30 2145 H 208.424 2.50837 -1.59587 0
M  V30 2146 H 205.957 1.23508 -0.926555 0
M  V30 2147 H 207.915 4.09142 0.333668 0
M  V30 2148 H 206.576 3.03105 0.823788 0
M  V30 2149 H 205.769 5.016 -0.491259 0
M  V30 2150 H 205.371 3.49678 -1.3267 0
M  V30 2151 H 207.663 6.66599 -1.21044 0
M  V30 2152 H 208.606 6.53403 -2.72892 0
M  V30 2153 H 209.014 5.4837 -1.33979 0
M  V30 2154 N 208.412 0.89855 1.29475 0
M  V30 2155 C 209.342 0.39201 2.30186 0
M  V30 2156 C 210.323 -0.532359 1.61555 0
M  V30 2157 O 211.508 -0.443331 1.89072 0
M  V30 2158 C 208.638 -0.382353 3.45189 0
M  V30 2159 C 207.592 0.451483 4.25612 0
M  V30 2160 C 206.918 -0.450307 5.328 0
M  V30 2161 C 208.218 1.70079 4.93832 0
M  V30 2162 H 209.912 1.23362 2.72804 0
M  V30 2163 H 207.458 0.594638 1.31149 0
M  V30 2164 H 209.411 -0.747451 4.14718 0
M  V30 2165 H 208.135 -1.25774 3.01411 0
M  V30 2166 H 206.794 0.798897 3.57789 0
M  V30 2167 H 206.442 -1.32379 4.85268 0
M  V30 2168 H 206.142 0.103902 5.87508 0
M  V30 2169 H 207.666 -0.811623 6.05182 0
M  V30 2170 H 209.08 1.40549 5.55805 0
M  V30 2171 H 207.477 2.19623 5.58467 0
M  V30 2172 H 208.547 2.43744 4.19186 0
M  V30 2173 N 209.89 -1.43072 0.660911 0
M  V30 2174 C 210.823 -2.28074 -0.0758862 0
M  V30 2175 C 211.801 -1.40271 -0.822362 0
M  V30 2176 O 212.985 -1.69713 -0.820352 0
M  V30 2177 C 210.112 -3.19843 -1.11437 0
M  V30 2178 C 209.158 -4.23957 -0.465069 0
M  V30 2179 S 209.991 -5.29978 0.767078 0
M  V30 2180 C 211.147 -6.25314 -0.270682 0
M  V30 2181 H 211.38 -2.90216 0.645139 0
M  V30 2182 H 208.913 -1.47697 0.449995 0
M  V30 2183 H 210.871 -3.73257 -1.70849 0
M  V30 2184 H 209.532 -2.56863 -1.80776 0
M  V30 2185 H 208.725 -4.88299 -1.24819 0
M  V30 2186 H 208.327 -3.73959 0.0551242 0
M  V30 2187 H 210.619 -6.67932 -1.13459 0
M  V30 2188 H 211.562 -7.07293 0.337916 0
M  V30 2189 H 211.97 -5.61195 -0.609937 0
M  V30 2190 N 211.368 -0.403325 -1.52352 0
M  V30 2191 C 212.331 0.413051 -2.25447 0
M  V30 2192 C 213.331 0.978513 -1.276 0
M  V30 2193 O 214.521 0.858305 -1.51587 0
M  V30 2194 C 211.653 1.58087 -3.02029 0
M  V30 2195 H 212.846 -0.227094 -2.99039 0
M  V30 2196 H 210.399 -0.155722 -1.55522 0
M  V30 2197 H 211.134 2.25804 -2.32772 0
M  V30 2198 H 210.919 1.18195 -3.73861 0
M  V30 2199 H 212.409 2.1585 -3.57489 0
M  V30 2200 N 212.846 1.57033 -0.133567 0
M  V30 2201 C 214.095 1.94861 0.520768 0
M  V30 2202 C 214.408 1.02012 1.66892 0
M  V30 2203 O 215.614 1.29365 2.38699 0
M  V30 2204 C 214.07 3.46362 0.977809 0
M  V30 2205 C 213.678 4.47773 -0.142674 0
M  V30 2206 C 215.422 3.93083 1.60269 0
M  V30 2207 C 213.329 5.90468 0.331883 0
M  V30 2208 H 212.259 0.727453 0.198315 0
M  V30 2209 H 214.91 1.82227 -0.215759 0
M  V30 2210 H 213.292 3.54282 1.7692 0
M  V30 2211 H 214.466 4.51536 -0.919317 0
M  V30 2212 H 212.781 4.10891 -0.675124 0
M  V30 2213 H 215.378 4.97121 1.96914 0
M  V30 2214 H 215.721 3.33876 2.48662 0
M  V30 2215 H 216.254 3.88025 0.876453 0
M  V30 2216 H 212.993 6.53463 -0.516341 0
M  V30 2217 H 212.513 5.90094 1.07469 0
M  V30 2218 H 214.192 6.42179 0.788332 0
M  V30 2219 N 214.325 -0.140222 1.56975 0
M  V30 2220 C 215.573 -0.850005 1.83356 0
M  V30 2221 C 215.894 -1.81399 0.71551 0
M  V30 2222 O 215.164 -1.94136 -0.262294 0
M  V30 2223 H 213.744 -0.316886 0.676456 0
M  V30 2224 H 216.406 -0.132608 1.94448 0
M  V30 2225 H 215.502 -1.40814 2.78528 0
M  V30 2226 N 215.803 -1.52179 -0.40978 0
M  V30 2227 C 217.051 -1.65878 -1.15451 0
M  V30 2228 C 217.372 -0.390771 -1.91044 0
M  V30 2229 O 216.642 0.594323 -1.86667 0
M  V30 2230 H 215.222 -0.611405 -0.429177 0
M  V30 2231 H 217.884 -1.89219 -0.467134 0
M  V30 2232 H 216.98 -2.49954 -1.86894 0
M  V30 2233 N 217.281 0.66697 -1.42791 0
M  V30 2234 C 218.211 1.79218 -1.49677 0
M  V30 2235 C 219.192 1.66405 -0.352623 0
M  V30 2236 O 220.377 1.85708 -0.567993 0
M  V30 2237 C 217.507 3.17565 -1.40605 0
M  V30 2238 C 216.461 3.45124 -2.53127 0
M  V30 2239 C 215.787 4.83127 -2.29112 0
M  V30 2240 C 217.087 3.41236 -3.95418 0
M  V30 2241 H 218.781 1.73713 -2.43853 0
M  V30 2242 H 216.327 0.83432 -1.17367 0
M  V30 2243 H 218.28 3.96022 -1.44029 0
M  V30 2244 H 217.004 3.23767 -0.429271 0
M  V30 2245 H 215.663 2.69031 -2.49034 0
M  V30 2246 H 215.311 4.85988 -1.29709 0
M  V30 2247 H 215.011 5.02528 -3.04531 0
M  V30 2248 H 216.535 5.63859 -2.34297 0
M  V30 2249 H 217.949 4.09651 -4.01073 0
M  V30 2250 H 216.346 3.72173 -4.70752 0
M  V30 2251 H 217.416 2.39665 -4.21532 0
M  V30 2252 N 218.759 1.29093 0.90403 0
M  V30 2253 C 220.006 1.16813 1.65411 0
M  V30 2254 C 220.334 -0.28128 1.92455 0
M  V30 2255 O 219.589 -1.22006 1.53013 0
M  V30 2256 C 219.888 1.92224 3.01305 0
M  V30 2257 C 219.554 3.41968 2.93885 0
M  V30 2258 C 218.216 3.82807 2.91569 0
M  V30 2259 C 220.568 4.37409 2.83413 0
M  V30 2260 C 217.896 5.1741 2.76594 0
M  V30 2261 C 220.248 5.72097 2.69977 0
M  V30 2262 C 218.912 6.12199 2.66024 0
M  V30 2263 H 218.182 0.42745 0.605283 0
M  V30 2264 H 220.829 1.59981 1.05254 0
M  V30 2265 H 219.134 1.41635 3.65304 0
M  V30 2266 H 220.831 1.80131 3.58265 0
M  V30 2267 H 217.421 3.09504 2.96488 0
M  V30 2268 H 221.605 4.06813 2.84283 0
M  V30 2269 H 216.861 5.47596 2.71935 0
M  V30 2270 H 221.035 6.45704 2.60844 0
M  V30 2271 H 218.662 7.16448 2.54178 0
M  V30 2272 N 220.237 -1.11381 1.11499 0
M  V30 2273 C 221.147 -2.21019 0.786628 0
M  V30 2274 C 222.163 -1.72597 -0.220507 0
M  V30 2275 O 223.339 -2.01321 -0.0565251 0
M  V30 2276 C 220.404 -3.459 0.235333 0
M  V30 2277 C 219.465 -4.09107 1.30115 0
M  V30 2278 C 218.698 -5.28027 0.776068 0
M  V30 2279 O 218.921 -5.6904 -0.393661 0
M  V30 2280 O 217.855 -5.81835 1.54114 0
M  V30 2281 H 221.681 -2.51521 1.70209 0
M  V30 2282 H 219.266 -1.19928 0.890928 0
M  V30 2283 H 221.148 -4.21346 -0.067715 0
M  V30 2284 H 219.823 -3.17049 -0.652828 0
M  V30 2285 H 218.73 -3.35391 1.65722 0
M  V30 2286 H 220.063 -4.42139 2.16273 0
M  V30 2287 N 221.715 -0.905404 -1.28997 0
M  V30 2288 C 222.662 -0.385892 -2.27551 0
M  V30 2289 C 223.632 0.535113 -1.57244 0
M  V30 2290 O 224.817 0.459119 -1.85194 0
M  V30 2291 C 221.957 0.375461 -3.43051 0
M  V30 2292 C 221.07 -0.577092 -4.28128 0
M  V30 2293 C 220.205 0.201879 -5.30816 0
M  V30 2294 C 219.244 -0.744829 -6.07551 0
M  V30 2295 N 218.381 9.42587e-05 -7.021 0
M  V30 2296 H 223.221 -1.23139 -2.71368 0
M  V30 2297 H 220.758 -0.618542 -1.33463 0
M  V30 2298 H 222.716 0.832992 -4.088 0
M  V30 2299 H 221.346 1.18537 -3.00248 0
M  V30 2300 H 220.398 -1.15315 -3.62501 0
M  V30 2301 H 221.71 -1.30152 -4.8152 0
M  V30 2302 H 220.864 0.720351 -6.02408 0
M  V30 2303 H 219.603 0.959413 -4.7817 0
M  V30 2304 H 218.608 -1.27475 -5.34818 0
M  V30 2305 H 219.833 -1.50178 -6.62286 0
M  V30 2306 H 217.779 0.739791 -6.51815 0
M  V30 2307 H 217.696 -0.664321 -7.53076 0
M  V30 2308 H 218.964 0.498644 -7.77903 0
M  V30 2309 N 223.193 1.4272 -0.668489 0
M  V30 2310 C 224.47 1.95248 -0.117373 0
M  V30 2311 C 224.85 1.60919 1.36632 0
M  V30 2312 O 224.198 0.902095 2.09939 0
M  V30 2313 C 224.408 3.46927 -0.379806 0
M  V30 2314 C 225.756 4.23588 -0.292923 0
M  V30 2315 O 226.78 3.5482 -0.313204 0
M  V30 2316 O 225.639 5.46017 -0.229697 0
M  V30 2317 H 222.733 0.827 0.00079152 0
M  V30 2318 H 225.279 1.52581 -0.742783 0
M  V30 2319 H 224.051 3.65096 -1.40786 0
M  V30 2320 H 223.674 3.96627 0.277923 0
M  V30 2321 N 224.671 0.411399 1.52136 0
M  V30 2322 C 225.601 -0.404015 2.29978 0
M  V30 2323 C 226.582 -1.04412 1.34284 0
M  V30 2324 O 227.767 -1.0527 1.63192 0
M  V30 2325 C 224.897 -1.5197 3.12286 0
M  V30 2326 C 223.851 -1.00448 4.16046 0
M  V30 2327 C 223.177 -2.21393 4.86712 0
M  V30 2328 C 224.477 -0.0569336 5.22269 0
M  V30 2329 H 226.171 0.245529 2.98392 0
M  V30 2330 H 223.717 0.119525 1.43503 0
M  V30 2331 H 225.67 -2.09715 3.6551 0
M  V30 2332 H 224.394 -2.19716 2.41646 0
M  V30 2333 H 223.053 -0.449421 3.63835 0
M  V30 2334 H 222.701 -2.87699 4.12599 0
M  V30 2335 H 222.401 -1.87571 5.56858 0
M  V30 2336 H 223.925 -2.7974 5.4275 0
M  V30 2337 H 225.339 -0.54325 5.7072 0
M  V30 2338 H 223.736 0.192594 5.99791 0
M  V30 2339 H 224.806 0.887663 4.76706 0
M  V30 2340 N 226.149 -1.5696 0.141893 0
M  V30 2341 C 227.395 -1.9625 -0.511248 0
M  V30 2342 C 227.728 -1.02654 -1.64851 0
M  V30 2343 O 227.003 -0.0679676 -1.94381 0
M  V30 2344 C 227.286 -3.45285 -1.02227 0
M  V30 2345 C 227.139 -4.49658 0.113138 0
M  V30 2346 C 228.458 -3.96698 -1.90574 0
M  V30 2347 H 225.577 -0.713567 -0.184367 0
M  V30 2348 H 228.219 -1.88698 0.222087 0
M  V30 2349 H 226.369 -3.51852 -1.64719 0
M  V30 2350 H 228.041 -4.55174 0.749302 0
M  V30 2351 H 226.284 -4.26857 0.773026 0
M  V30 2352 H 226.955 -5.51258 -0.286053 0
M  V30 2353 H 229.431 -3.92578 -1.37918 0
M  V30 2354 H 228.307 -5.01453 -2.2324 0
M  V30 2355 H 228.568 -3.3875 -2.84079 0
M  V30 2356 N 227.627 0.131896 -1.57047 0
M  V30 2357 C 228.537 1.1815 -2.02676 0
M  V30 2358 C 229.553 1.46113 -0.944824 0
M  V30 2359 O 230.729 1.57485 -1.25541 0
M  V30 2360 C 227.794 2.49139 -2.41103 0
M  V30 2361 C 226.855 2.28688 -3.63318 0
M  V30 2362 C 226.088 3.53431 -3.99903 0
M  V30 2363 O 226.311 4.60223 -3.36973 0
M  V30 2364 O 225.245 3.45198 -4.93074 0
M  V30 2365 H 229.071 0.824069 -2.92306 0
M  V30 2366 H 226.656 0.341745 -1.45439 0
M  V30 2367 H 228.538 3.26338 -2.66611 0
M  V30 2368 H 227.213 2.84382 -1.54624 0
M  V30 2369 H 226.12 1.4939 -3.42977 0
M  V30 2370 H 227.453 1.98355 -4.50462 0
M  V30 2371 N 229.106 1.52395 0.401703 0
M  V30 2372 C 230.352 1.68019 1.14635 0
M  V30 2373 C 230.707 0.408722 1.88009 0
M  V30 2374 O 230 -0.597133 1.82057 0
M  V30 2375 C 230.194 2.84578 2.16217 0
M  V30 2376 C 230.023 4.22938 1.5282 0
M  V30 2377 C 228.793 4.88352 1.29772 0
M  V30 2378 C 230.991 5.04778 0.985094 0
M  V30 2379 N 228.973 6.10726 0.623455 0
M  V30 2380 C 230.344 6.1845 0.438172 0
M  V30 2381 C 232.399 4.90057 0.880275 0
M  V30 2382 C 231.102 7.19013 -0.203306 0
M  V30 2383 C 233.128 5.9086 0.252639 0
M  V30 2384 C 232.49 7.03829 -0.283573 0
M  V30 2385 H 228.589 0.668413 0.405892 0
M  V30 2386 H 231.173 1.89717 0.437674 0
M  V30 2387 H 229.344 2.64483 2.84435 0
M  V30 2388 H 231.076 2.89202 2.83098 0
M  V30 2389 H 227.831 4.46846 1.56926 0
M  V30 2390 H 228.255 6.76323 0.302733 0
M  V30 2391 H 232.897 4.02938 1.28065 0
M  V30 2392 H 230.615 8.05751 -0.615726 0
M  V30 2393 H 234.201 5.81543 0.172954 0
M  V30 2394 H 233.081 7.80493 -0.761575 0
M  V30 2395 N 230.584 -0.659388 1.43143 0
M  V30 2396 C 231.833 -1.41518 1.43721 0
M  V30 2397 C 232.146 -1.95499 0.0628176 0
M  V30 2398 O 233.352 -2.71446 -0.0539683 0
M  V30 2399 C 231.808 -2.5608 2.52885 0
M  V30 2400 C 231.416 -2.08733 3.96402 0
M  V30 2401 C 233.16 -3.3349 2.62649 0
M  V30 2402 C 231.067 -3.20469 4.97045 0
M  V30 2403 H 229.997 -0.531705 0.534608 0
M  V30 2404 H 232.648 -0.712343 1.69109 0
M  V30 2405 H 231.03 -3.28805 2.20688 0
M  V30 2406 H 232.204 -1.43059 4.3803 0
M  V30 2407 H 230.519 -1.44219 3.90627 0
M  V30 2408 H 233.116 -4.16734 3.35017 0
M  V30 2409 H 233.459 -3.8111 1.67513 0
M  V30 2410 H 233.992 -2.67842 2.94118 0
M  V30 2411 H 230.731 -2.77824 5.93712 0
M  V30 2412 H 230.251 -3.84874 4.60034 0
M  V30 2413 H 231.93 -3.85698 5.19467 0
M  V30 2414 N 232.062 -1.29571 -0.897171 0
M  V30 2415 C 233.287 -1.20705 -1.68656 0
M  V30 2416 C 233.712 0.228582 -1.86706 0
M  V30 2417 O 233.07 1.16494 -1.3892 0
M  V30 2418 C 233.118 -1.9282 -3.04717 0
M  V30 2419 O 232.222 -1.24697 -3.93096 0
M  V30 2420 H 231.563 -0.418126 -0.515816 0
M  V30 2421 H 234.093 -1.71183 -1.12061 0
M  V30 2422 H 234.103 -2.01372 -3.54843 0
M  V30 2423 H 232.778 -2.97239 -2.90899 0
M  V30 2424 H 231.355 -1.2442 -3.51531 0
M  V30 2425 N 233.54 1.10788 -1.12088 0
M  V30 2426 C 234.786 1.82942 -0.875226 0
M  V30 2427 C 235.119 1.84779 0.597538 0
M  V30 2428 O 234.394 1.30578 1.44152 0
M  V30 2429 C 234.677 3.29789 -1.44606 0
M  V30 2430 C 234.53 3.36307 -2.98693 0
M  V30 2431 C 235.849 4.26064 -1.10261 0
M  V30 2432 H 232.968 0.664195 -0.319397 0
M  V30 2433 H 235.61 1.29867 -1.38689 0
M  V30 2434 H 233.76 3.75118 -1.01089 0
M  V30 2435 H 235.432 2.99487 -3.50864 0
M  V30 2436 H 233.675 2.76318 -3.34411 0
M  V30 2437 H 234.346 4.39694 -3.33726 0
M  V30 2438 H 236.822 3.88951 -1.4784 0
M  V30 2439 H 235.698 5.27183 -1.52869 0
M  V30 2440 H 235.959 4.42098 -0.0142953 0
M  V30 2441 N 235.018 0.912232 1.28515 0
M  V30 2442 C 235.981 0.404223 2.25607 0
M  V30 2443 C 236.981 -0.468602 1.53821 0
M  V30 2444 O 238.171 -0.271873 1.72065 0
M  V30 2445 C 235.303 -0.420653 3.38295 0
M  V30 2446 H 236.496 1.26188 2.7206 0
M  V30 2447 H 234.049 0.691495 1.40171 0
M  V30 2448 H 234.784 -1.29777 2.97201 0
M  V30 2449 H 234.569 0.204935 3.91564 0
M  V30 2450 H 236.059 -0.766971 4.10496 0
M  V30 2451 N 236.496 -1.42363 0.676048 0
M  V30 2452 C 237.724 -2.05859 0.207268 0
M  V30 2453 C 238.139 -1.50796 -1.13605 0
M  V30 2454 O 237.496 -0.648265 -1.70598 0
M  V30 2455 C 237.547 -3.61248 0.134975 0
M  V30 2456 O 237.268 -4.1427 1.42521 0
M  V30 2457 C 238.769 -4.41859 -0.357151 0
M  V30 2458 H 235.989 -0.663431 0.100503 0
M  V30 2459 H 238.533 -1.82479 0.923136 0
M  V30 2460 H 236.688 -3.83735 -0.531588 0
M  V30 2461 H 237.102 -5.0815 1.29939 0
M  V30 2462 H 238.576 -5.50847 -0.356641 0
M  V30 2463 H 239.053 -4.16536 -1.39264 0
M  V30 2464 H 239.659 -4.24392 0.27772 0
M  V30 2465 N 237.974 -0.419461 -1.51915 0
M  V30 2466 C 239.204 0.151915 -2.06041 0
M  V30 2467 C 239.612 1.38539 -1.28855 0
M  V30 2468 O 238.955 1.80592 -0.336463 0
M  V30 2469 C 239.017 0.557119 -3.55157 0
M  V30 2470 C 238.681 -0.567054 -4.53468 0
M  V30 2471 C 239.678 -1.43379 -4.99738 0
M  V30 2472 C 237.363 -0.742693 -4.96779 0
M  V30 2473 C 239.357 -2.46102 -5.87973 0
M  V30 2474 C 237.044 -1.77322 -5.84808 0
M  V30 2475 C 238.042 -2.63078 -6.30301 0
M  V30 2476 O 237.73 -3.64364 -7.16585 0
M  V30 2477 H 237.462 0.0193293 -0.675724 0
M  V30 2478 H 240.016 -0.592073 -1.96682 0
M  V30 2479 H 238.246 1.35355 -3.62238 0
M  V30 2480 H 239.935 1.05759 -3.9188 0
M  V30 2481 H 240.701 -1.30954 -4.66986 0
M  V30 2482 H 236.58 -0.0848307 -4.60922 0
M  V30 2483 H 240.124 -3.13071 -6.23404 0
M  V30 2484 H 236.021 -1.89773 -6.16974 0
M  V30 2485 H 236.789 -3.60731 -7.34721 0
M  V30 2486 N 239.452 1.56882 -0.150215 0
M  V30 2487 C 240.384 2.14057 0.819286 0
M  V30 2488 C 241.397 1.09082 1.20851 0
M  V30 2489 O 242.586 1.36347 1.15203 0
M  V30 2490 C 239.686 2.65102 2.11127 0
M  V30 2491 C 238.859 3.94511 1.88891 0
M  V30 2492 C 237.918 4.30834 3.02107 0
M  V30 2493 O 236.944 4.99099 2.73659 0
M  V30 2494 N 238.146 3.90676 4.29363 0
M  V30 2495 H 240.911 2.97871 0.330618 0
M  V30 2496 H 238.472 1.61866 0.0332538 0
M  V30 2497 H 240.464 2.86411 2.85921 0
M  V30 2498 H 239.034 1.85994 2.51247 0
M  V30 2499 H 238.254 3.81795 0.981152 0
M  V30 2500 H 239.542 4.7907 1.71376 0
M  V30 2501 H 238.94 3.35677 4.55343 0
M  V30 2502 H 237.497 4.1703 5.00928 0
M  V30 2503 N 240.93 -0.123565 1.57115 0
M  V30 2504 C 241.893 -1.13583 1.99076 0
M  V30 2505 C 242.893 -1.34564 0.880296 0
M  V30 2506 O 244.083 -1.31158 1.14644 0
M  V30 2507 C 241.215 -2.49128 2.32698 0
M  V30 2508 H 242.408 -0.775287 2.89706 0
M  V30 2509 H 239.961 -0.36771 1.51913 0
M  V30 2510 H 240.696 -2.90111 1.44934 0
M  V30 2511 H 240.481 -2.35255 3.13684 0
M  V30 2512 H 241.971 -3.2199 2.65918 0
M  V30 2513 N 242.408 -1.52605 -0.393616 0
M  V30 2514 C 243.371 -1.76415 -1.46323 0
M  V30 2515 C 244.371 -0.634126 -1.47768 0
M  V30 2516 O 245.561 -0.902142 -1.4902 0
M  V30 2517 C 242.693 -1.8607 -2.85641 0
M  V30 2518 H 243.886 -2.71916 -1.26498 0
M  V30 2519 H 241.439 -1.43257 -0.625073 0
M  V30 2520 H 242.174 -0.925378 -3.10817 0
M  V30 2521 H 241.959 -2.68235 -2.85993 0
M  V30 2522 H 243.449 -2.06179 -3.63153 0
M  V30 2523 N 243.887 0.651787 -1.4349 0
M  V30 2524 C 245.112 1.44434 -1.48841 0
M  V30 2525 C 245.537 1.8779 -0.107955 0
M  V30 2526 O 244.895 1.57464 0.898602 0
M  V30 2527 C 244.943 2.65458 -2.44059 0
M  V30 2528 O 244.047 3.64566 -1.92784 0
M  V30 2529 H 243.388 0.433005 -0.503391 0
M  V30 2530 H 245.918 0.797451 -1.88419 0
M  V30 2531 H 245.928 3.13255 -2.6141 0
M  V30 2532 H 244.603 2.33244 -3.4434 0
M  V30 2533 H 243.18 3.23716 -1.851 0
M  V30 2534 N 245.365 1.30045 0.890287 0
M  V30 2535 C 246.613 1.18327 1.63839 0
M  V30 2536 C 246.934 -0.263455 1.93212 0
M  V30 2537 O 246.204 -1.17856 1.56482 0
M  V30 2538 H 244.784 0.434933 0.607324 0
M  V30 2539 H 247.446 1.631 1.06698 0
M  V30 2540 H 246.542 1.74024 2.59079 0
M  V30 2541 N 246.843 -1.10192 1.12674 0
M  V30 2542 C 247.806 -2.14786 0.799979 0
M  V30 2543 C 248.806 -1.59711 -0.18685 0
M  V30 2544 O 249.996 -1.74156 0.0392558 0
M  V30 2545 C 247.128 -3.40374 0.189228 0
M  V30 2546 H 248.321 -2.45203 1.72671 0
M  V30 2547 H 245.874 -1.25597 0.930326 0
M  V30 2548 H 246.609 -3.15577 -0.747107 0
M  V30 2549 H 246.394 -3.81637 0.899766 0
M  V30 2550 H 247.884 -4.17594 -0.0228143 0
M  V30 2551 N 248.321 -0.919034 -1.28029 0
M  V30 2552 C 249.569 -0.553838 -1.94363 0
M  V30 2553 C 249.89 0.906357 -1.72656 0
M  V30 2554 O 249.16 1.64143 -1.0693 0
M  V30 2555 H 247.74 -0.201834 -0.719216 0
M  V30 2556 H 250.402 -1.16954 -1.55909 0
M  V30 2557 H 249.498 -0.752758 -3.02886 0
M  V30 2558 N 249.799 1.42003 -0.683588 0
M  V30 2559 C 250.762 2.29191 -0.0198243 0
M  V30 2560 C 251.762 1.43773 0.72013 0
M  V30 2561 O 252.952 1.65061 0.556815 0
M  V30 2562 C 250.084 3.26435 0.982487 0
M  V30 2563 H 251.277 2.8938 -0.787345 0
M  V30 2564 H 248.83 1.49789 -0.446418 0
M  V30 2565 H 249.565 2.71203 1.77819 0
M  V30 2566 H 249.35 3.89449 0.455182 0
M  V30 2567 H 250.84 3.918 1.44508 0
M  V30 2568 N 251.277 0.427512 1.51691 0
M  V30 2569 C 252.224 -0.388867 2.275 0
M  V30 2570 C 253.194 -1.02532 1.30677 0
M  V30 2571 O 254.379 -1.0461 1.59566 0
M  V30 2572 C 251.519 -1.48954 3.11298 0
M  V30 2573 C 250.632 -0.872194 4.23104 0
M  V30 2574 C 249.767 -1.94709 4.94228 0
M  V30 2575 C 248.806 -1.30766 5.97969 0
M  V30 2576 N 247.943 -2.32349 6.62539 0
M  V30 2577 H 252.783 0.263997 2.96828 0
M  V30 2578 H 250.32 0.142033 1.46413 0
M  V30 2579 H 252.278 -2.13887 3.58201 0
M  V30 2580 H 250.908 -2.11217 2.44105 0
M  V30 2581 H 249.96 -0.111419 3.80237 0
M  V30 2582 H 251.272 -0.365264 4.97461 0
M  V30 2583 H 250.426 -2.67327 5.44629 0
M  V30 2584 H 249.165 -2.48773 4.1948 0
M  V30 2585 H 248.17 -0.566902 5.4687 0
M  V30 2586 H 249.395 -0.774483 6.74669 0
M  V30 2587 H 247.341 -2.85511 5.90609 0
M  V30 2588 H 247.258 -1.8652 7.3263 0
M  V30 2589 H 248.526 -3.04481 7.17574 0
M  V30 2590 N 252.755 -1.56801 0.158532 0
M  V30 2591 C 253.703 -2.18638 -0.793729 0
M  V30 2592 C 254.697 -1.14669 -1.24689 0
M  V30 2593 O 255.903 -1.32895 -1.21403 0
M  V30 2594 H 252.278 -0.700226 -0.274204 0
M  V30 2595 H 254.249 -2.97367 -0.248095 0
M  V30 2596 C 252.998 -2.83139 -2.0181 0
M  V30 2597 H 252.321 -3.62863 -1.67841 0
M  V30 2598 H 253.761 -3.29894 -2.66357 0
M  V30 2599 C 252.22 -1.82244 -2.83353 0
M  V30 2600 O 252.75 -1.3 -3.80083 0
M  V30 2601 N 250.956 -1.51288 -2.48114 0
M  V30 2602 H 250.503 -1.93964 -1.69516 0
M  V30 2603 H 250.461 -0.840296 -3.02963 0
M  V30 2604 N 254.233 0.115231 -1.57178 0
M  V30 2605 C 255.166 1.17166 -1.95825 0
M  V30 2606 C 256.144 1.39912 -0.828463 0
M  V30 2607 O 257.328 1.54004 -1.08697 0
M  V30 2608 C 254.455 2.52478 -2.25771 0
M  V30 2609 C 253.501 2.46136 -3.48309 0
M  V30 2610 S 254.334 1.89736 -5.0076 0
M  V30 2611 C 255.49 3.26713 -5.33863 0
M  V30 2612 H 255.723 0.842103 -2.85124 0
M  V30 2613 H 253.256 0.322136 -1.51002 0
M  V30 2614 H 255.214 3.30332 -2.43702 0
M  V30 2615 H 253.875 2.82609 -1.37079 0
M  V30 2616 H 253.068 3.45819 -3.66641 0
M  V30 2617 H 252.67 1.76404 -3.29784 0
M  V30 2618 H 254.962 4.22935 -5.29275 0
M  V30 2619 H 255.905 3.13205 -6.35065 0
M  V30 2620 H 256.313 3.25316 -4.61335 0
M  V30 2621 N 255.711 1.52812 0.385517 0
M  V30 2622 C 257.127 1.4214 0.725829 0
M  V30 2623 C 257.327 0.544589 1.94001 0
M  V30 2624 O 256.383 0.0193693 2.52493 0
M  V30 2625 C 257.696 2.85042 0.957668 0
M  V30 2626 C 259.244 2.94543 1.05892 0
M  V30 2627 C 259.719 4.38464 1.32337 0
M  V30 2628 N 261.21 4.41804 1.39151 0
M  V30 2629 C 261.945 5.5025 1.61285 0
M  V30 2630 N 261.441 6.68775 1.80866 0
M  V30 2631 N 263.234 5.37798 1.63492 0
M  V30 2632 H 255.385 2.08338 -0.413383 0
M  V30 2633 H 257.648 0.940016 -0.122775 0
M  V30 2634 H 257.354 3.51431 0.137568 0
M  V30 2635 H 257.228 3.27505 1.87137 0
M  V30 2636 H 259.615 2.28321 1.86959 0
M  V30 2637 H 259.696 2.55504 0.123057 0
M  V30 2638 H 259.34 5.05254 0.517793 0
M  V30 2639 H 259.27 4.75059 2.27214 0
M  V30 2640 H 261.761 3.56377 1.25713 0
M  V30 2641 H 262.074 7.47197 1.97271 0
M  V30 2642 H 260.419 6.71797 1.78083 0
M  V30 2643 H 263.61 4.44171 1.47749 0
M  V30 2644 H 263.783 6.22382 1.80402 0
M  V30 2645 N 257.189 -0.644168 1.43834 0
M  V30 2646 C 258.099 -1.78563 1.52159 0
M  V30 2647 C 259.115 -1.69147 0.408069 0
M  V30 2648 O 260.291 -1.90156 0.663524 0
M  V30 2649 C 257.356 -3.14888 1.45073 0
M  V30 2650 C 256.417 -3.36034 2.6717 0
M  V30 2651 C 255.65 -4.65855 2.60413 0
M  V30 2652 O 255.873 -5.45805 1.65689 0
M  V30 2653 O 254.807 -4.88918 3.5106 0
M  V30 2654 H 258.633 -1.74494 2.48567 0
M  V30 2655 H 256.218 -0.80378 1.25935 0
M  V30 2656 H 258.1 -3.96179 1.43597 0
M  V30 2657 H 256.775 -3.19528 0.518037 0
M  V30 2658 H 255.682 -2.54472 2.74217 0
M  V30 2659 H 257.015 -3.36247 3.59442 0
M  V30 2660 N 258.668 -1.30515 -0.883378 0
M  V30 2661 C 259.598 -1.19607 -2.00541 0
M  V30 2662 C 260.579 -0.086346 -1.69881 0
M  V30 2663 O 261.764 -0.268654 -1.92333 0
M  V30 2664 C 258.894 -0.888758 -3.35736 0
M  V30 2665 C 257.848 -1.95659 -3.8066 0
M  V30 2666 C 257.174 -1.50224 -5.13164 0
M  V30 2667 C 258.474 -3.36788 -3.99213 0
M  V30 2668 H 260.168 -2.13476 -2.09925 0
M  V30 2669 H 257.714 -1.02775 -1.00863 0
M  V30 2670 H 259.667 -0.799094 -4.13754 0
M  V30 2671 H 258.391 0.0856125 -3.26488 0
M  V30 2672 H 257.05 -2.03591 -3.04871 0
M  V30 2673 H 256.698 -0.516092 -5.00345 0
M  V30 2674 H 256.398 -2.2165 -5.44192 0
M  V30 2675 H 257.922 -1.42639 -5.93706 0
M  V30 2676 H 259.336 -3.31605 -4.67665 0
M  V30 2677 H 257.733 -4.06314 -4.41621 0
M  V30 2678 H 258.803 -3.78561 -3.03017 0
M  V30 2679 N 260.146 1.09593 -1.13257 0
M  V30 2680 C 261.076 2.18214 -0.830946 0
M  V30 2681 C 262.057 1.68812 0.208966 0
M  V30 2682 O 263.242 1.9408 0.0682666 0
M  V30 2683 C 260.372 3.46051 -0.294296 0
M  V30 2684 C 259.326 4.08778 -1.26826 0
M  V30 2685 C 258.652 5.31419 -0.591449 0
M  V30 2686 C 259.952 4.51476 -2.62615 0
M  V30 2687 H 261.646 2.43703 -1.73923 0
M  V30 2688 H 259.192 1.17128 -0.837675 0
M  V30 2689 H 261.145 4.2134 -0.0709606 0
M  V30 2690 H 259.869 3.20079 0.649366 0
M  V30 2691 H 258.528 3.35505 -1.47756 0
M  V30 2692 H 258.176 5.01727 0.357633 0
M  V30 2693 H 257.876 5.74341 -1.24123 0
M  V30 2694 H 259.4 6.09433 -0.377355 0
M  V30 2695 H 260.814 5.17999 -2.45663 0
M  V30 2696 H 259.211 5.05277 -3.23752 0
M  V30 2697 H 260.281 3.63962 -3.20406 0
M  V30 2698 N 261.624 0.925811 1.2754 0
M  V30 2699 C 262.849 0.580924 1.99098 0
M  V30 2700 C 263.274 -0.833555 1.68622 0
M  V30 2701 O 262.632 -1.55903 0.925422 0
M  V30 2702 C 262.68 0.811186 3.51358 0
M  V30 2703 O 261.784 -0.124129 4.12213 0
M  V30 2704 H 261.125 0.223873 0.625122 0
M  V30 2705 H 263.655 1.24455 1.62395 0
M  V30 2706 H 263.665 0.72601 4.01489 0
M  V30 2707 H 262.34 1.84227 3.72872 0
M  V30 2708 H 260.917 0.0108006 3.72898 0
M  V30 2709 N 263.102 -1.41638 0.69111 0
M  V30 2710 C 264.034 -2.29194 -0.0161523 0
M  V30 2711 C 265.047 -1.44549 -0.748955 0
M  V30 2712 O 266.236 -1.681 -0.6004 0
M  V30 2713 C 263.336 -3.22325 -1.0469 0
M  V30 2714 C 262.509 -4.35706 -0.384621 0
M  V30 2715 C 261.568 -5.09443 -1.31737 0
M  V30 2716 O 260.594 -5.63386 -0.811451 0
M  V30 2717 N 261.796 -5.16487 -2.64993 0
M  V30 2718 H 264.561 -2.90534 0.735523 0
M  V30 2719 H 262.122 -1.52742 0.53679 0
M  V30 2720 H 264.114 -3.68522 -1.67252 0
M  V30 2721 H 262.684 -2.62323 -1.70015 0
M  V30 2722 H 261.904 -3.91948 0.420804 0
M  V30 2723 H 263.192 -5.08743 0.0760765 0
M  V30 2724 H 262.59 -4.741 -3.08619 0
M  V30 2725 H 261.147 -5.66276 -3.22761 0
M  V30 2726 N 264.58 -0.43555 -1.51462 0
M  V30 2727 C 265.513 0.421989 -2.24264 0
M  V30 2728 C 266.491 1.02619 -1.26127 0
M  V30 2729 O 267.675 1.069 -1.55257 0
M  V30 2730 C 264.802 1.588 -2.99166 0
M  V30 2731 C 263.848 1.10465 -4.11946 0
M  V30 2732 S 264.681 0.048146 -5.35478 0
M  V30 2733 C 265.837 1.21887 -6.13917 0
M  V30 2734 H 266.07 -0.196102 -2.96653 0
M  V30 2735 H 263.603 -0.220054 -1.52824 0
M  V30 2736 H 265.561 2.25647 -3.42919 0
M  V30 2737 H 264.222 2.1775 -2.26371 0
M  V30 2738 H 263.415 1.97654 -4.63626 0
M  V30 2739 H 263.017 0.51445 -3.70445 0
M  V30 2740 H 265.309 2.13756 -6.42895 0
M  V30 2741 H 266.252 0.742076 -7.04201 0
M  V30 2742 H 266.66 1.45663 -5.45383 0
M  V30 2743 N 266.058 1.56714 -0.166846 0
M  V30 2744 C 267.306 1.96358 0.478305 0
M  V30 2745 C 267.627 1.0537 1.6408 0
M  V30 2746 O 266.897 0.119154 1.95537 0
M  V30 2747 H 265.477 0.725065 0.179692 0
M  V30 2748 H 268.139 1.93329 -0.246985 0
M  V30 2749 H 267.235 3.00547 0.841292 0
M  V30 2750 N 267.536 -0.106894 1.57237 0
M  V30 2751 C 268.466 -1.13148 2.04254 0
M  V30 2752 C 269.447 -1.42476 0.929224 0
M  V30 2753 O 270.632 -1.52709 1.19973 0
M  V30 2754 C 267.762 -2.4545 2.45706 0
M  V30 2755 C 266.716 -2.30558 3.60592 0
M  V30 2756 C 266.042 -3.67931 3.87983 0
M  V30 2757 C 267.342 -1.75597 4.91897 0
M  V30 2758 H 269.036 -0.740374 2.90101 0
M  V30 2759 H 266.582 -0.354696 1.39563 0
M  V30 2760 H 268.535 -3.17389 2.77205 0
M  V30 2761 H 267.259 -2.86475 1.56843 0
M  V30 2762 H 265.918 -1.61067 3.29322 0
M  V30 2763 H 265.566 -4.06462 2.96306 0
M  V30 2764 H 265.266 -3.58817 4.65322 0
M  V30 2765 H 266.79 -4.41356 4.21945 0
M  V30 2766 H 268.204 -2.37364 5.21854 0
M  V30 2767 H 266.601 -1.77272 5.73319 0
M  V30 2768 H 267.671 -0.714451 4.79608 0
M  V30 2769 N 269.014 -1.53014 -0.377408 0
M  V30 2770 C 269.944 -1.81589 -1.46791 0
M  V30 2771 C 270.925 -0.668622 -1.56408 0
M  V30 2772 O 272.11 -0.917337 -1.71168 0
M  V30 2773 C 269.24 -1.99519 -2.8427 0
M  V30 2774 C 268.194 -3.15249 -2.89486 0
M  V30 2775 C 267.52 -3.18451 -4.29527 0
M  V30 2776 C 268.82 -4.54084 -2.58079 0
M  V30 2777 H 270.514 -2.7291 -1.23127 0
M  V30 2778 H 268.06 -1.31319 -0.590883 0
M  V30 2779 H 270.013 -2.18092 -3.60575 0
M  V30 2780 H 268.737 -1.04897 -3.09296 0
M  V30 2781 H 267.396 -2.96477 -2.15631 0
M  V30 2782 H 267.044 -2.2149 -4.5161 0
M  V30 2783 H 266.744 -3.962 -4.33934 0
M  V30 2784 H 268.268 -3.39193 -5.07721 0
M  V30 2785 H 269.682 -4.72899 -3.24098 0
M  V30 2786 H 268.079 -5.33987 -2.7382 0
M  V30 2787 H 269.149 -4.60006 -1.53372 0
M  V30 2788 N 270.492 0.636531 -1.44174 0
M  V30 2789 C 271.402 1.77754 -1.53103 0
M  V30 2790 C 272.418 1.68928 -0.417034 0
M  V30 2791 O 273.594 1.89801 -0.6736 0
M  V30 2792 C 270.659 3.14115 -1.46741 0
M  V30 2793 C 269.72 3.34612 -2.68948 0
M  V30 2794 C 268.953 4.64467 -2.6288 0
M  V30 2795 O 269.176 5.44919 -1.68581 0
M  V30 2796 O 268.11 4.87049 -3.53648 0
M  V30 2797 H 271.936 1.73174 -2.49489 0
M  V30 2798 H 269.521 0.79709 -1.2636 0
M  V30 2799 H 271.403 3.95412 -1.45696 0
M  V30 2800 H 270.078 3.19249 -0.534975 0
M  V30 2801 H 268.985 2.53014 -2.75562 0
M  V30 2802 H 270.318 3.34336 -3.61221 0
M  V30 2803 N 271.97 1.30982 0.876444 0
M  V30 2804 C 272.902 1.13902 1.98894 0
M  V30 2805 C 273.915 0.0798815 1.62604 0
M  V30 2806 O 275.104 0.326743 1.75484 0
M  V30 2807 C 272.204 0.716699 3.31235 0
M  V30 2808 C 271.377 1.85945 3.95908 0
M  V30 2809 C 270.436 1.42426 5.06558 0
M  V30 2810 O 269.462 2.13287 5.27729 0
M  V30 2811 N 270.664 0.308025 5.79682 0
M  V30 2812 H 273.429 2.09724 2.14094 0
M  V30 2813 H 270.99 1.2323 1.05004 0
M  V30 2814 H 272.982 0.408403 4.02634 0
M  V30 2815 H 271.552 -0.149719 3.12241 0
M  V30 2816 H 270.772 2.33541 3.17573 0
M  V30 2817 H 272.06 2.62503 4.35855 0
M  V30 2818 H 271.458 -0.282241 5.64995 0
M  V30 2819 H 270.015 0.0592282 6.51773 0
M  V30 2820 N 273.449 -1.08991 1.13837 0
M  V30 2821 C 274.412 -2.13925 0.822715 0
M  V30 2822 C 275.412 -1.599 -0.1699 0
M  V30 2823 O 276.602 -1.74104 0.0577251 0
M  V30 2824 C 273.734 -3.40155 0.225318 0
M  V30 2825 H 274.927 -2.43358 1.75262 0
M  V30 2826 H 272.48 -1.24603 0.943594 0
M  V30 2827 H 273.215 -3.16352 -0.713594 0
M  V30 2828 H 273 -3.80661 0.940193 0
M  V30 2829 H 274.49 -4.17594 0.0214784 0
M  V30 2830 N 274.927 -0.932562 -1.27047 0
M  V30 2831 C 276.173 -0.576412 -1.94436 0
M  V30 2832 C 276.506 0.880891 -1.73072 0
M  V30 2833 O 275.781 1.62905 -1.06264 0
M  V30 2834 C 276.064 -0.909031 -3.48437 0
M  V30 2835 C 275.917 -2.42044 -3.79123 0
M  V30 2836 C 277.236 -0.418341 -4.38107 0
M  V30 2837 H 274.355 -0.210888 -0.706184 0
M  V30 2838 H 276.997 -1.16522 -1.50075 0
M  V30 2839 H 275.147 -0.407947 -3.86352 0
M  V30 2840 H 276.819 -2.99359 -3.50973 0
M  V30 2841 H 275.062 -2.86758 -3.25503 0
M  V30 2842 H 275.733 -2.6037 -4.86736 0
M  V30 2843 H 278.209 -0.847856 -4.0737 0
M  V30 2844 H 277.085 -0.679981 -5.44672 0
M  V30 2845 H 277.346 0.681642 -4.36814 0
M  V30 2846 N 276.405 1.4127 -0.698611 0
M  V30 2847 C 277.63 2.06024 -0.238512 0
M  V30 2848 C 278.055 1.5224 1.10475 0
M  V30 2849 O 277.413 0.650623 1.69223 0
M  V30 2850 C 277.461 3.59988 -0.209952 0
M  V30 2851 O 276.565 4.04282 0.814235 0
M  V30 2852 H 275.906 0.653829 -0.115775 0
M  V30 2853 H 278.436 1.8098 -0.954326 0
M  V30 2854 H 278.446 4.07979 -0.0418436 0
M  V30 2855 H 277.121 3.98503 -1.1903 0
M  V30 2856 H 275.698 3.6779 0.615234 0
M  V30 2857 N 277.883 0.443576 1.51229 0
M  V30 2858 C 279.108 -0.121648 2.07043 0
M  V30 2859 C 279.533 -1.35156 1.30823 0
M  V30 2860 O 278.891 -1.7793 0.347934 0
M  V30 2861 C 278.939 -0.41624 3.5819 0
M  V30 2862 O 278.043 -1.50163 3.8409 0
M  V30 2863 H 277.384 0.000871367 0.663999 0
M  V30 2864 H 279.914 0.626706 1.94765 0
M  V30 2865 H 279.924 -0.664867 4.02546 0
M  V30 2866 H 278.599 0.482653 4.1309 0
M  V30 2867 H 277.176 -1.24248 3.51592 0
M  V30 2868 N 279.361 -1.56624 0.175154 0
M  V30 2869 C 280.271 -2.21741 -0.766042 0
M  V30 2870 C 281.287 -1.21023 -1.25018 0
M  V30 2871 O 282.463 -1.53697 -1.3015 0
M  V30 2872 C 279.528 -2.84839 -1.97655 0
M  V30 2873 C 278.589 -4.00769 -1.53892 0
M  V30 2874 C 277.822 -4.60849 -2.69173 0
M  V30 2875 O 278.045 -4.19823 -3.86141 0
M  V30 2876 O 276.979 -5.50655 -2.43028 0
M  V30 2877 H 280.805 -3.02738 -0.241585 0
M  V30 2878 H 278.39 -1.49305 -0.053222 0
M  V30 2879 H 280.272 -3.24834 -2.68442 0
M  V30 2880 H 278.947 -2.06836 -2.48999 0
M  V30 2881 H 277.854 -3.65436 -0.80044 0
M  V30 2882 H 279.187 -4.80376 -1.07236 0
M  V30 2883 N 280.839 0.0985539 -1.57292 0
M  V30 2884 C 281.769 1.12064 -2.04851 0
M  V30 2885 C 282.75 1.41981 -0.936767 0
M  V30 2886 O 283.935 1.52071 -1.20781 0
M  V30 2887 C 281.065 2.44144 -2.47004 0
M  V30 2888 C 280.019 2.28643 -3.6181 0
M  V30 2889 C 279.345 3.65869 -3.89929 0
M  V30 2890 C 280.645 1.72986 -4.92822 0
M  V30 2891 H 282.339 0.724979 -2.9049 0
M  V30 2892 H 279.885 0.34729 -1.39749 0
M  V30 2893 H 281.838 3.15914 -2.78884 0
M  V30 2894 H 280.562 2.85639 -1.5836 0
M  V30 2895 H 279.221 1.59318 -3.30172 0
M  V30 2896 H 278.869 4.04885 -2.98458 0
M  V30 2897 H 278.569 3.56344 -4.67218 0
M  V30 2898 H 280.093 4.39112 -4.2428 0
M  V30 2899 H 281.507 2.34593 -5.23105 0
M  V30 2900 H 279.904 1.74229 -5.74251 0
M  V30 2901 H 280.974 0.689007 -4.7998 0
M  V30 2902 N 282.317 1.53212 0.369288 0
M  V30 2903 C 283.264 1.79388 1.45219 0
M  V30 2904 C 284.234 0.638059 1.53356 0
M  V30 2905 O 285.419 0.879852 1.69302 0
M  V30 2906 C 282.559 1.98623 2.82211 0
M  V30 2907 C 281.672 3.26337 2.8307 0
M  V30 2908 C 280.807 3.35779 4.11614 0
M  V30 2909 C 279.846 4.5754 4.06601 0
M  V30 2910 N 278.983 4.64155 5.26787 0
M  V30 2911 H 283.823 2.71794 1.22198 0
M  V30 2912 H 281.36 1.34642 0.592444 0
M  V30 2913 H 283.318 2.07761 3.61789 0
M  V30 2914 H 281.948 1.09558 3.03639 0
M  V30 2915 H 281 3.26171 1.95747 0
M  V30 2916 H 282.312 4.15988 2.75237 0
M  V30 2917 H 281.466 3.44208 4.99606 0
M  V30 2918 H 280.205 2.44137 4.22195 0
M  V30 2919 H 279.21 4.49215 3.16996 0
M  V30 2920 H 280.435 5.50519 3.97625 0
M  V30 2921 H 278.381 3.75413 5.3796 0
M  V30 2922 H 278.298 5.47706 5.21109 0
M  V30 2923 H 279.566 4.76863 6.16621 0
M  V30 2924 N 283.795 -0.628877 1.44509 0
M  V30 2925 C 285.072 -1.38733 1.37886 0
M  V30 2926 C 285.452 -2.11065 0.0387008 0
M  V30 2927 O 284.8 -2.06476 -0.97878 0
M  V30 2928 C 285.01 -2.35188 2.57852 0
M  V30 2929 C 286.358 -2.9845 3.02014 0
M  V30 2930 O 287.382 -2.45513 2.58073 0
M  V30 2931 O 286.241 -3.94487 3.78209 0
M  V30 2932 H 283.335 -0.621015 0.54614 0
M  V30 2933 H 285.881 -0.653744 1.56602 0
M  V30 2934 H 284.653 -1.80855 3.46998 0
M  V30 2935 H 284.276 -3.1596 2.4136 0
M  V30 2936 N 285.273 -1.31445 -0.869486 0
M  V30 2937 C 286.684 -1.19042 -1.43826 0
M  V30 2938 C 287.035 0.202919 -1.95148 0
M  V30 2939 O 286.16 1.10071 -1.86315 0
M  V30 2940 C 286.755 -2.15499 -2.6143 0
M  V30 2941 C 285.314 -2.07028 -3.14351 0
M  V30 2942 C 284.461 -2.04701 -1.87063 0
M  V30 2943 H 287.412 -1.43489 -0.677984 0
M  V30 2944 H 287.433 -1.74488 -3.38134 0
M  V30 2945 H 286.945 -3.16899 -2.24046 0
M  V30 2946 H 285.046 -1.08825 -3.56354 0
M  V30 2947 H 285.159 -2.96157 -3.766 0
M  V30 2948 H 283.523 -1.49724 -2.06046 0
M  V30 2949 H 284.306 -3.07857 -1.51917 0
M  V30 2950 N 286.751 1.08385 -1.14413 0
M  V30 2951 C 287.714 2.13486 -0.834048 0
M  V30 2952 C 288.714 1.59988 0.161418 0
M  V30 2953 O 289.904 1.74071 -0.0669575 0
M  V30 2954 C 287.036 3.4003 -0.243354 0
M  V30 2955 H 288.229 2.42425 -1.7655 0
M  V30 2956 H 285.782 1.24101 -0.950189 0
M  V30 2957 H 286.517 3.16726 0.696807 0
M  V30 2958 H 286.302 3.80157 -0.960367 0
M  V30 2959 H 287.792 4.17577 -0.0436242 0
M  V30 2960 N 288.23 0.939286 1.26551 0
M  V30 2961 C 289.455 0.602008 1.98471 0
M  V30 2962 C 289.88 -0.815624 1.69497 0
M  V30 2963 O 289.238 -1.54912 0.941905 0
M  V30 2964 C 289.286 0.848407 3.50477 0
M  V30 2965 O 288.39 -0.0804009 4.12322 0
M  V30 2966 H 287.731 0.23049 0.622712 0
M  V30 2967 H 290.261 1.2617 1.61066 0
M  V30 2968 H 290.271 0.768553 4.00696 0
M  V30 2969 H 288.946 1.88171 3.70897 0
M  V30 2970 H 287.523 0.0503508 3.72866 0
M  V30 2971 N 289.708 -1.40897 0.706093 0
M  V30 2972 C 290.933 -2.05895 0.249435 0
M  V30 2973 C 291.358 -1.52823 -1.09666 0
M  V30 2974 O 290.716 -0.659589 -1.68876 0
M  V30 2975 C 290.764 -3.59872 0.22904 0
M  V30 2976 O 289.868 -4.04708 -0.792784 0
M  V30 2977 H 289.209 -0.653206 0.119241 0
M  V30 2978 H 291.739 -1.80471 0.96391 0
M  V30 2979 H 291.749 -4.07951 0.0634791 0
M  V30 2980 H 290.424 -3.97866 1.21141 0
M  V30 2981 H 289.001 -3.68111 -0.59572 0
M  V30 2982 N 291.186 -0.45159 -1.50991 0
M  V30 2983 C 292.435 0.111653 -2.01391 0
M  V30 2984 C 292.748 1.42529 -1.33959 0
M  V30 2985 O 293.954 2.07232 -1.75405 0
M  V30 2986 C 292.41 0.249514 -3.59034 0
M  V30 2987 C 292.018 -1.05453 -4.35412 0
M  V30 2988 C 293.762 0.765762 -4.17536 0
M  V30 2989 C 291.669 -0.881529 -5.84793 0
M  V30 2990 H 290.599 0.0455022 -0.752626 0
M  V30 2991 H 293.25 -0.583524 -1.73975 0
M  V30 2992 H 291.632 1.00803 -3.82955 0
M  V30 2993 H 292.806 -1.82248 -4.23229 0
M  V30 2994 H 291.121 -1.50039 -3.88429 0
M  V30 2995 H 293.718 0.911913 -5.26866 0
M  V30 2996 H 294.061 1.75201 -3.77638 0
M  V30 2997 H 294.594 0.0651744 -3.97747 0
M  V30 2998 H 291.333 -1.84057 -6.29129 0
M  V30 2999 H 290.853 -0.153625 -5.99603 0
M  V30 3000 H 292.532 -0.540363 -6.4474 0
M  V30 3001 N 292.664 1.56529 -0.183458 0
M  V30 3002 C 293.594 2.21549 0.737456 0
M  V30 3003 C 294.575 1.17489 1.23005 0
M  V30 3004 O 295.76 1.45959 1.281 0
M  V30 3005 C 292.89 2.86575 1.96194 0
M  V30 3006 C 291.844 3.96778 1.60473 0
M  V30 3007 C 291.17 4.48911 2.90487 0
M  V30 3008 C 292.47 5.15767 0.823497 0
M  V30 3009 H 294.164 2.98761 0.195453 0
M  V30 3010 H 291.71 1.43702 0.0925686 0
M  V30 3011 H 293.663 3.30739 2.61131 0
M  V30 3012 H 292.387 2.06749 2.52828 0
M  V30 3013 H 291.046 3.53286 0.978997 0
M  V30 3014 H 290.694 3.65862 3.45186 0
M  V30 3015 H 290.394 5.23265 2.67335 0
M  V30 3016 H 291.918 4.95771 3.56432 0
M  V30 3017 H 293.332 5.56549 1.37571 0
M  V30 3018 H 291.729 5.96114 0.690551 0
M  V30 3019 H 292.799 4.84574 -0.177782 0
M  V30 3020 N 294.142 -0.090211 1.57342 0
M  V30 3021 C 295.419 -0.824761 1.77361 0
M  V30 3022 C 295.799 -1.96698 0.76637 0
M  V30 3023 O 295.147 -2.27586 -0.204179 0
M  V30 3024 C 295.357 -1.31481 3.23286 0
M  V30 3025 C 296.705 -1.75563 3.86604 0
M  V30 3026 O 297.729 -1.41093 3.27065 0
M  V30 3027 O 296.588 -2.39317 4.91314 0
M  V30 3028 H 293.682 -0.393776 0.727234 0
M  V30 3029 H 296.228 -0.0717138 1.69548 0
M  V30 3030 H 295 -0.496671 3.88135 0
M  V30 3031 H 294.623 -2.12973 3.35751 0
M  V30 3032 N 295.62 -1.53406 -0.361157 0
M  V30 3033 C 296.869 -1.69022 -1.10066 0
M  V30 3034 C 297.182 -0.450838 -1.90333 0
M  V30 3035 O 298.388 -0.487617 -2.67085 0
M  V30 3036 C 296.844 -2.98812 -2.00598 0
M  V30 3037 C 296.452 -4.30027 -1.25621 0
M  V30 3038 C 298.196 -3.23795 -2.74513 0
M  V30 3039 C 296.103 -5.50903 -2.1508 0
M  V30 3040 H 295.033 -0.629776 -0.414606 0
M  V30 3041 H 297.684 -1.79907 -0.361348 0
M  V30 3042 H 296.066 -2.8174 -2.78278 0
M  V30 3043 H 297.24 -4.57745 -0.529739 0
M  V30 3044 H 295.555 -4.11522 -0.635496 0
M  V30 3045 H 298.152 -4.11289 -3.41681 0
M  V30 3046 H 298.495 -2.40045 -3.40123 0
M  V30 3047 H 299.028 -3.41561 -2.03914 0
M  V30 3048 H 295.767 -6.37143 -1.54041 0
M  V30 3049 H 295.287 -5.27459 -2.85565 0
M  V30 3050 H 296.966 -5.85865 -2.74538 0
M  V30 3051 N 297.098 0.621204 -1.44841 0
M  V30 3052 C 298.008 1.7612 -1.5498 0
M  V30 3053 C 299.024 1.68477 -0.434927 0
M  V30 3054 O 300.2 1.89076 -0.693693 0
M  V30 3055 C 297.265 3.1254 -1.50065 0
M  V30 3056 C 296.326 3.31741 -2.72482 0
M  V30 3057 C 295.559 4.61653 -2.67792 0
M  V30 3058 O 295.782 5.431 -1.74352 0
M  V30 3059 O 294.716 4.83271 -3.58794 0
M  V30 3060 H 298.542 1.70518 -2.51311 0
M  V30 3061 H 296.127 0.783643 -1.27198 0
M  V30 3062 H 298.009 3.93844 -1.49882 0
M  V30 3063 H 296.684 3.18663 -0.568806 0
M  V30 3064 H 295.591 2.50077 -2.7823 0
M  V30 3065 H 296.924 3.30486 -3.64746 0
M  V30 3066 N 298.576 1.31904 0.862503 0
M  V30 3067 C 299.992 1.10724 1.14945 0
M  V30 3068 C 300.192 -0.117421 2.01158 0
M  V30 3069 O 299.248 -0.804595 2.39338 0
M  V30 3070 C 300.561 2.38267 1.83437 0
M  V30 3071 C 302.109 2.43949 1.96106 0
M  V30 3072 C 302.584 3.71394 2.68013 0
M  V30 3073 N 304.075 3.72331 2.75543 0
M  V30 3074 C 304.81 4.67641 3.31812 0
M  V30 3075 N 304.306 5.73313 3.88953 0
M  V30 3076 N 306.099 4.5515 3.29841 0
M  V30 3077 H 298.25 2.10436 0.288191 0
M  V30 3078 H 300.513 0.928705 0.190292 0
M  V30 3079 H 300.219 3.27759 1.27542 0
M  V30 3080 H 300.093 2.48633 2.83657 0
M  V30 3081 H 302.48 1.54922 2.51164 0
M  V30 3082 H 302.561 2.37543 0.949059 0
M  V30 3083 H 302.205 4.60791 2.13621 0
M  V30 3084 H 302.135 3.75069 3.69636 0
M  V30 3085 H 304.626 2.95947 2.34997 0
M  V30 3086 H 304.939 6.42107 4.30022 0
M  V30 3087 H 303.284 5.77077 3.87308 0
M  V30 3088 H 306.475 3.71766 2.84443 0
M  V30 3089 H 306.648 5.29604 3.73394 0
M  V30 3090 N 300.054 -1.07777 1.14986 0
M  V30 3091 C 301.001 -2.14867 0.842672 0
M  V30 3092 C 301.971 -1.6486 -0.202552 0
M  V30 3093 O 303.156 -1.90668 -0.0710568 0
M  V30 3094 C 300.296 -3.43486 0.333363 0
M  V30 3095 C 299.409 -4.07306 1.43965 0
M  V30 3096 C 298.544 -5.23744 0.886914 0
M  V30 3097 C 297.583 -5.79517 1.97043 0
M  V30 3098 N 296.72 -6.87291 1.4344 0
M  V30 3099 H 301.56 -2.40485 1.75986 0
M  V30 3100 H 299.097 -1.1801 0.878179 0
M  V30 3101 H 301.055 -4.17195 0.0198163 0
M  V30 3102 H 299.685 -3.18133 -0.546916 0
M  V30 3103 H 298.737 -3.31293 1.86946 0
M  V30 3104 H 300.049 -4.44771 2.25788 0
M  V30 3105 H 299.203 -6.04419 0.525651 0
M  V30 3106 H 297.942 -4.87685 0.0377957 0
M  V30 3107 H 296.947 -4.97491 2.34057 0
M  V30 3108 H 298.172 -6.17632 2.82325 0
M  V30 3109 H 296.118 -6.5318 0.607567 0
M  V30 3110 H 296.035 -7.23617 2.18895 0
M  V30 3111 H 297.303 -7.71682 1.10124 0
M  V30 3112 N 301.532 -0.945985 -1.26051 0
M  V30 3113 C 302.778 -0.597002 -1.93814 0
M  V30 3114 C 303.111 0.862484 -1.73997 0
M  V30 3115 O 302.386 1.61769 -1.07986 0
M  V30 3116 C 302.669 -0.945937 -3.47454 0
M  V30 3117 C 302.522 -2.46052 -3.76535 0
M  V30 3118 C 303.841 -0.464785 -4.37639 0
M  V30 3119 H 300.96 -0.218366 -0.703907 0
M  V30 3120 H 303.602 -1.18107 -1.48831 0
M  V30 3121 H 301.752 -0.448902 -3.85898 0
M  V30 3122 H 303.424 -3.03065 -3.47778 0
M  V30 3123 H 301.667 -2.90194 -3.22444 0
M  V30 3124 H 302.338 -2.65517 -4.83947 0
M  V30 3125 H 304.814 -0.891016 -4.06448 0
M  V30 3126 H 303.69 -0.737712 -5.4392 0
M  V30 3127 H 303.951 0.635274 -4.37512 0
M  V30 3128 N 303.011 1.40521 -0.713556 0
M  V30 3129 C 304.239 2.05237 -0.261775 0
M  V30 3130 C 304.654 1.53755 1.09567 0
M  V30 3131 O 304.011 0.693268 1.6882 0
M  V30 3132 C 304.062 3.60763 -0.230706 0
M  V30 3133 O 303.783 4.10345 -1.53455 0
M  V30 3134 C 305.284 4.42651 0.239874 0
M  V30 3135 H 302.504 0.660533 -0.118057 0
M  V30 3136 H 305.048 1.79967 -0.971192 0
M  V30 3137 H 303.203 3.8501 0.429661 0
M  V30 3138 H 303.617 5.04526 -1.43366 0
M  V30 3139 H 305.091 5.51599 0.210468 0
M  V30 3140 H 305.568 4.20082 1.28171 0
M  V30 3141 H 306.174 4.23507 -0.390142 0
M  V30 3142 N 304.489 0.459591 1.5075 0
M  V30 3143 C 305.452 -0.329093 2.26825 0
M  V30 3144 C 306.452 -0.930481 1.31144 0
M  V30 3145 O 307.642 -0.801453 1.54669 0
M  V30 3146 C 304.774 -1.46768 3.07688 0
M  V30 3147 H 305.967 0.337924 2.9799 0
M  V30 3148 H 303.52 0.213336 1.54837 0
M  V30 3149 H 304.255 -2.17009 2.40993 0
M  V30 3150 H 304.04 -1.04238 3.77991 0
M  V30 3151 H 305.53 -2.02433 3.65254 0
M  V30 3152 N 305.967 -1.56429 0.191757 0
M  V30 3153 C 306.914 -2.18936 -0.730454 0
M  V30 3154 C 307.884 -1.13557 -1.21219 0
M  V30 3155 O 309.069 -1.41794 -1.27668 0
M  V30 3156 C 306.209 -2.85013 -1.9458 0
M  V30 3157 C 305.322 -4.04909 -1.50574 0
M  V30 3158 C 304.457 -4.58853 -2.67634 0
M  V30 3159 C 303.496 -5.71114 -2.20217 0
M  V30 3160 N 302.633 -6.19478 -3.30442 0
M  V30 3161 H 307.473 -2.97389 -0.190664 0
M  V30 3162 H 305.01 -1.46869 -0.0823694 0
M  V30 3163 H 306.968 -3.21492 -2.65893 0
M  V30 3164 H 305.598 -2.09129 -2.45896 0
M  V30 3165 H 304.65 -3.74115 -0.688605 0
M  V30 3166 H 305.962 -4.86113 -1.11784 0
M  V30 3167 H 305.116 -4.97619 -3.47074 0
M  V30 3168 H 303.855 -3.76749 -3.09696 0
M  V30 3169 H 302.86 -5.31879 -1.3923 0
M  V30 3170 H 304.085 -6.55033 -1.79189 0
M  V30 3171 H 302.031 -5.40297 -3.72041 0
M  V30 3172 H 301.948 -6.95725 -2.9581 0
M  V30 3173 H 303.216 -6.62898 -4.10106 0
M  V30 3174 N 307.445 0.0818655 -1.57387 0
M  V30 3175 C 308.378 1.12986 -1.98266 0
M  V30 3176 C 309.356 1.38123 -0.857954 0
M  V30 3177 O 310.54 1.51663 -1.1194 0
M  V30 3178 C 307.667 2.47632 -2.31076 0
M  V30 3179 C 306.713 2.38693 -3.53452 0
M  V30 3180 S 307.546 1.79071 -5.04672 0
M  V30 3181 C 308.702 3.15316 -5.40673 0
M  V30 3182 H 308.935 0.781435 -2.86846 0
M  V30 3183 H 306.468 0.290034 -1.51651 0
M  V30 3184 H 308.426 3.25089 -2.50654 0
M  V30 3185 H 307.087 2.79638 -1.43043 0
M  V30 3186 H 306.28 3.37964 -3.73893 0
M  V30 3187 H 305.882 1.69369 -3.33452 0
M  V30 3188 H 308.174 4.11613 -5.38127 0
M  V30 3189 H 309.117 2.99664 -6.41566 0
M  V30 3190 H 309.525 3.15457 -4.68132 0
M  V30 3191 N 308.923 1.53595 0.353017 0
M  V30 3192 C 310.339 1.43648 0.695516 0
M  V30 3193 C 310.539 0.585617 1.92802 0
M  V30 3194 O 309.595 0.0729223 2.52395 0
M  V30 3195 C 310.908 2.8701 0.896991 0
M  V30 3196 C 312.456 2.96723 0.996209 0
M  V30 3197 C 312.931 4.41173 1.23007 0
M  V30 3198 N 314.422 4.44657 1.29749 0
M  V30 3199 C 315.157 5.53547 1.49577 0
M  V30 3200 N 314.653 6.72461 1.66639 0
M  V30 3201 N 316.446 5.41145 1.52048 0
M  V30 3202 H 308.597 2.07415 -0.457481 0
M  V30 3203 H 310.86 0.9372 -0.142687 0
M  V30 3204 H 310.566 3.51644 0.0629938 0
M  V30 3205 H 310.44 3.31401 1.80148 0
M  V30 3206 H 312.827 2.32235 1.82074 0
M  V30 3207 H 312.908 2.55707 0.0688331 0
M  V30 3208 H 312.552 5.06238 0.410505 0
M  V30 3209 H 312.482 4.79772 2.17086 0
M  V30 3210 H 314.973 3.58963 1.18126 0
M  V30 3211 H 315.286 7.51214 1.81378 0
M  V30 3212 H 313.631 6.75423 1.63794 0
M  V30 3213 H 316.822 4.47205 1.38294 0
M  V30 3214 H 316.995 6.26068 1.67159 0
M  V30 3215 N 310.401 -0.613514 1.45168 0
M  V30 3216 C 311.364 -1.7065 1.53007 0
M  V30 3217 C 312.364 -1.5548 0.410184 0
M  V30 3218 O 313.554 -1.60656 0.673455 0
M  V30 3219 C 310.686 -3.09875 1.42093 0
M  V30 3220 H 311.879 -1.65068 2.50385 0
M  V30 3221 H 309.432 -0.828728 1.32521 0
M  V30 3222 H 310.167 -3.21039 0.458769 0
M  V30 3223 H 309.952 -3.22293 2.23315 0
M  V30 3224 H 311.442 -3.895 1.50598 0
M  V30 3225 N 311.879 -1.3236 -0.855495 0
M  V30 3226 C 313.156 -1.13491 -1.59309 0
M  V30 3227 C 313.536 0.30503 -2.08885 0
M  V30 3228 O 312.884 1.30151 -1.87811 0
M  V30 3229 C 313.094 -2.16176 -2.73987 0
M  V30 3230 C 314.442 -2.49463 -3.43589 0
M  V30 3231 O 315.466 -2.14715 -2.84211 0
M  V30 3232 O 314.325 -3.09027 -4.50738 0
M  V30 3233 H 311.419 -0.437887 -0.701559 0
M  V30 3234 H 313.965 -1.43887 -0.899696 0
M  V30 3235 H 312.737 -3.1297 -2.34873 0
M  V30 3236 H 312.36 -1.86769 -3.51003 0
M  V30 3237 N 313.357 1.07166 -1.15556 0
M  V30 3238 C 314.305 2.16517 -0.8499 0
M  V30 3239 C 315.299 1.68468 0.177454 0
M  V30 3240 O 316.505 1.79971 0.0323026 0
M  V30 3241 H 312.88 0.706652 -0.25719 0
M  V30 3242 H 314.851 2.39514 -1.77976 0
M  V30 3243 C 313.6 3.45855 -0.357682 0
M  V30 3244 H 312.923 3.83214 -1.13961 0
M  V30 3245 H 314.363 4.23607 -0.182489 0
M  V30 3246 C 312.822 3.24062 0.921152 0
M  V30 3247 O 313.352 3.48813 1.9923 0
M  V30 3248 N 311.558 2.77539 0.86141 0
M  V30 3249 H 311.105 2.57598 -0.0104408 0
M  V30 3250 H 311.063 2.63337 1.71758 0
M  V30 3251 N 314.835 0.952656 1.25548 0
M  V30 3252 C 316.082 0.606373 1.93208 0
M  V30 3253 C 316.41 -0.85631 1.74636 0
M  V30 3254 O 315.665 -1.62951 1.08376 0
M  V30 3255 C 315.964 0.908818 3.45652 0
M  V30 3256 C 315.63 2.35722 3.84378 0
M  V30 3257 C 314.292 2.75312 3.9466 0
M  V30 3258 C 316.644 3.29793 4.03591 0
M  V30 3259 C 313.972 4.08047 4.21562 0
M  V30 3260 C 316.324 4.62138 4.31985 0
M  V30 3261 C 314.988 5.01528 4.40484 0
M  V30 3262 H 314.258 0.221888 0.706998 0
M  V30 3263 H 316.905 1.20132 1.49133 0
M  V30 3264 H 315.21 0.231456 3.91116 0
M  V30 3265 H 316.907 0.619498 3.96186 0
M  V30 3266 H 313.497 2.04017 3.76928 0
M  V30 3267 H 317.681 3.00397 3.95064 0
M  V30 3268 H 312.937 4.38212 4.26357 0
M  V30 3269 H 317.111 5.35012 4.45797 0
M  V30 3270 H 314.738 6.04406 4.61083 0
M  V30 3271 N 316.313 -1.40141 0.720998 0
M  V30 3272 C 317.724 -1.83678 0.334553 0
M  V30 3273 C 318.075 -1.6027 -1.13173 0
M  V30 3274 O 317.2 -1.08643 -1.87152 0
M  V30 3275 C 317.795 -3.33437 0.600437 0
M  V30 3276 C 316.354 -3.75447 0.267642 0
M  V30 3277 C 315.501 -2.63296 0.870097 0
M  V30 3278 H 318.452 -1.29331 0.919732 0
M  V30 3279 H 318.473 -3.80269 -0.132517 0
M  V30 3280 H 317.985 -3.50442 1.66768 0
M  V30 3281 H 316.086 -3.64035 -0.794329 0
M  V30 3282 H 316.199 -4.73344 0.74042 0
M  V30 3283 H 314.563 -2.52954 0.297739 0
M  V30 3284 H 315.346 -2.83112 1.94172 0
M  V30 3285 N 317.792 -0.46758 -1.50504 0
M  V30 3286 C 319.02 0.0864133 -2.06719 0
M  V30 3287 C 319.435 1.33819 -1.33184 0
M  V30 3288 O 318.792 1.78061 -0.400083 0
M  V30 3289 C 318.843 0.378079 -3.59517 0
M  V30 3290 O 318.564 -0.824044 -4.3028 0
M  V30 3291 C 320.065 0.979426 -4.32345 0
M  V30 3292 H 317.285 -0.00551697 -0.670977 0
M  V30 3293 H 319.829 -0.655354 -1.93715 0
M  V30 3294 H 317.984 1.06977 -3.72337 0
M  V30 3295 H 318.398 -0.566518 -5.21432 0
M  V30 3296 H 319.872 1.1333 -5.40241 0
M  V30 3297 H 320.349 1.9686 -3.9261 0
M  V30 3298 H 320.955 0.326216 -4.24047 0
M  V30 3299 N 319.27 1.56325 -0.20005 0
M  V30 3300 C 320.547 1.89484 0.48529 0
M  V30 3301 C 320.927 1.1143 1.79294 0
M  V30 3302 O 320.275 0.216919 2.27468 0
M  V30 3303 C 320.485 3.41923 0.699243 0
M  V30 3304 C 321.833 4.12256 1.01638 0
M  V30 3305 O 322.857 3.47402 0.786792 0
M  V30 3306 O 321.716 5.26887 1.45095 0
M  V30 3307 H 318.81 0.787144 0.253639 0
M  V30 3308 H 321.356 1.67985 -0.240633 0
M  V30 3309 H 320.128 3.90658 -0.224008 0
M  V30 3310 H 319.751 3.69131 1.47744 0
M  V30 3311 N 320.748 -0.0735177 1.57428 0
M  V30 3312 C 321.696 -1.10628 2.04607 0
M  V30 3313 C 322.69 -1.40181 0.951088 0
M  V30 3314 O 323.896 -1.39608 1.1362 0
M  V30 3315 H 320.271 -0.374088 0.652351 0
M  V30 3316 H 322.242 -0.682218 2.90497 0
M  V30 3317 C 320.991 -2.41212 2.50423 0
M  V30 3318 H 320.314 -2.19322 3.34272 0
M  V30 3319 H 321.754 -3.11927 2.87189 0
M  V30 3320 C 320.213 -3.0705 1.38644 0
M  V30 3321 O 320.743 -3.95056 0.727582 0
M  V30 3322 N 318.949 -2.67645 1.132 0
M  V30 3323 H 318.496 -1.96169 1.66959 0
M  V30 3324 H 318.454 -3.1202 0.386147 0
M  V30 3325 N 322.226 -1.5378 -0.344866 0
M  V30 3326 C 323.473 -1.70963 -1.08526 0
M  V30 3327 C 323.801 -0.472126 -1.88683 0
M  V30 3328 O 323.056 0.546116 -1.87926 0
M  V30 3329 C 323.355 -2.92407 -2.05506 0
M  V30 3330 C 323.021 -4.28066 -1.41671 0
M  V30 3331 C 321.683 -4.64951 -1.2399 0
M  V30 3332 C 324.035 -5.12344 -0.956726 0
M  V30 3333 C 321.363 -5.83733 -0.589277 0
M  V30 3334 C 323.715 -6.3179 -0.320015 0
M  V30 3335 C 322.379 -6.67372 -0.130881 0
M  V30 3336 H 321.649 -0.625598 -0.397124 0
M  V30 3337 H 324.296 -1.87995 -0.36469 0
M  V30 3338 H 322.601 -2.69973 -2.8394 0
M  V30 3339 H 324.298 -3.02895 -2.62784 0
M  V30 3340 H 320.888 -3.99034 -1.56429 0
M  V30 3341 H 325.072 -4.8438 -1.08118 0
M  V30 3342 H 320.328 -6.09877 -0.431344 0
M  V30 3343 H 324.502 -6.96386 0.0445072 0
M  V30 3344 H 322.129 -7.59273 0.375318 0
M  V30 3345 N 323.704 0.605807 -1.45491 0
M  V30 3346 C 324.952 1.36207 -1.49305 0
M  V30 3347 C 325.273 1.94519 -0.136863 0
M  V30 3348 O 324.543 1.77261 0.833983 0
M  V30 3349 H 323.123 0.50565 -0.549843 0
M  V30 3350 H 325.785 0.711239 -1.81459 0
M  V30 3351 H 324.881 2.18058 -2.23287 0
M  V30 3352 N 325.182 1.32811 0.848464 0
M  V30 3353 C 326.145 1.22194 1.9391 0
M  V30 3354 C 327.145 0.143404 1.60159 0
M  V30 3355 O 328.335 0.394253 1.6968 0
M  V30 3356 C 325.467 0.88067 3.29328 0
M  V30 3357 H 326.66 2.19127 2.04752 0
M  V30 3358 H 324.213 1.16731 1.0394 0
M  V30 3359 H 324.948 -0.0865776 3.24184 0
M  V30 3360 H 324.733 1.66052 3.55203 0
M  V30 3361 H 326.223 0.830871 4.09251 0
M  V30 3362 N 326.66 -1.06551 1.16123 0
M  V30 3363 C 327.623 -2.12132 0.867906 0
M  V30 3364 C 328.623 -1.60224 -0.135944 0
M  V30 3365 O 329.813 -1.73943 0.0946422 0
M  V30 3366 C 326.945 -3.396 0.297419 0
M  V30 3367 H 328.138 -2.39586 1.80385 0
M  V30 3368 H 325.691 -1.22574 0.969812 0
M  V30 3369 H 326.426 -3.17794 -0.64633 0
M  V30 3370 H 326.211 -3.78581 1.02073 0
M  V30 3371 H 327.701 -4.17455 0.110052 0
M  V30 3372 N 328.138 -0.959301 -1.25041 0
M  V30 3373 C 329.068 -0.501388 -2.28053 0
M  V30 3374 C 330.049 0.454673 -1.63911 0
M  V30 3375 O 331.234 0.352618 -1.90972 0
M  V30 3376 C 328.364 0.217224 -3.4662 0
M  V30 3377 C 327.318 -0.654034 -4.22973 0
M  V30 3378 C 326.644 0.195589 -5.34342 0
M  V30 3379 C 327.944 -1.93447 -4.85155 0
M  V30 3380 H 329.638 -1.36238 -2.66608 0
M  V30 3381 H 327.184 -0.656534 -1.28163 0
M  V30 3382 H 329.137 0.548732 -4.17812 0
M  V30 3383 H 327.861 1.1125 -3.07068 0
M  V30 3384 H 326.52 -0.968693 -3.5357 0
M  V30 3385 H 326.168 1.09076 -4.91031 0
M  V30 3386 H 325.868 -0.384091 -5.86343 0
M  V30 3387 H 327.392 0.521958 -6.08365 0
M  V30 3388 H 328.806 -1.66908 -5.48466 0
M  V30 3389 H 327.203 -2.46018 -5.47353 0
M  V30 3390 H 328.273 -2.63466 -4.07079 0
M  V30 3391 N 329.616 1.39756 -0.72842 0
M  V30 3392 C 330.864 2.00248 -0.272946 0
M  V30 3393 C 331.185 1.58077 1.14178 0
M  V30 3394 O 330.455 0.826014 1.77634 0
M  V30 3395 H 329.035 0.740554 -0.0979247 0
M  V30 3396 H 331.697 1.70903 -0.936912 0
M  V30 3397 H 330.793 3.10495 -0.316142 0
M  V30 3398 N 331.094 0.475555 1.50254 0
M  V30 3399 C 332.342 -0.077738 2.0195 0
M  V30 3400 C 332.663 -1.39813 1.35931 0
M  V30 3401 O 331.933 -1.89249 0.506123 0
M  V30 3402 H 330.513 -0.031719 0.746326 0
M  V30 3403 H 333.175 0.626995 1.84539 0
M  V30 3404 H 332.271 -0.225995 3.11281 0
M  V30 3405 N 332.573 -1.56217 0.208337 0
M  V30 3406 C 333.798 -2.02782 -0.435222 0
M  V30 3407 C 334.223 -1.08738 -1.53485 0
M  V30 3408 O 333.581 -0.0731855 -1.81152 0
M  V30 3409 C 333.629 -3.47687 -0.956335 0
M  V30 3410 O 332.733 -3.56773 -2.06849 0
M  V30 3411 H 332.074 -0.656403 -0.100158 0
M  V30 3412 H 334.604 -2.02033 0.3231 0
M  V30 3413 H 334.614 -3.87745 -1.26955 0
M  V30 3414 H 333.289 -4.15624 -0.15143 0
M  V30 3415 H 331.866 -3.28597 -1.76292 0
M  V30 3416 N 334.051 0.0651679 -1.57465 0
M  V30 3417 C 334.981 1.07693 -2.07182 0
M  V30 3418 C 335.962 1.39962 -0.966673 0
M  V30 3419 O 337.147 1.49475 -1.2398 0
M  V30 3420 C 334.277 2.3885 -2.52127 0
M  V30 3421 C 333.231 2.20917 -3.66579 0
M  V30 3422 C 332.557 3.57515 -3.97601 0
M  V30 3423 C 333.857 1.62493 -4.9638 0
M  V30 3424 H 335.551 0.663199 -2.91962 0
M  V30 3425 H 333.097 0.317569 -1.40455 0
M  V30 3426 H 335.05 3.09928 -2.85522 0
M  V30 3427 H 333.774 2.82215 -1.64384 0
M  V30 3428 H 332.433 1.52279 -3.33477 0
M  V30 3429 H 332.081 3.98463 -3.06979 0
M  V30 3430 H 331.781 3.46353 -4.74672 0
M  V30 3431 H 333.305 4.30013 -4.33499 0
M  V30 3432 H 334.719 2.23445 -5.27963 0
M  V30 3433 H 333.116 1.62009 -5.77818 0
M  V30 3434 H 334.186 0.587041 -4.81333 0
M  V30 3435 N 335.529 1.53961 0.336706 0
M  V30 3436 C 336.778 1.70751 1.07363 0
M  V30 3437 C 337.091 0.481061 1.89592 0
M  V30 3438 O 338.297 0.530046 2.66276 0
M  V30 3439 C 336.753 3.01965 1.95818 0
M  V30 3440 C 336.361 4.31971 1.18764 0
M  V30 3441 C 338.105 3.28121 2.69327 0
M  V30 3442 C 336.012 5.54255 2.06289 0
M  V30 3443 H 334.942 0.636292 0.404535 0
M  V30 3444 H 337.593 1.80459 0.332681 0
M  V30 3445 H 335.975 2.86132 2.7376 0
M  V30 3446 H 337.149 4.5853 0.456849 0
M  V30 3447 H 335.464 4.12481 0.569946 0
M  V30 3448 H 338.061 4.16673 3.35094 0
M  V30 3449 H 338.404 2.45426 3.36261 0
M  V30 3450 H 338.937 3.44762 1.98454 0
M  V30 3451 H 335.676 6.39513 1.43885 0
M  V30 3452 H 335.196 5.31935 2.77138 0
M  V30 3453 H 336.875 5.90159 2.65182 0
M  V30 3454 N 337.007 -0.598083 1.45811 0
M  V30 3455 C 338.418 -1.18011 1.44673 0
M  V30 3456 C 338.769 -1.95378 0.179364 0
M  V30 3457 O 337.894 -2.04124 -0.718509 0
M  V30 3458 C 338.489 -2.14677 2.62105 0
M  V30 3459 C 337.048 -2.68236 2.64057 0
M  V30 3460 C 336.195 -1.43816 2.37091 0
M  V30 3461 H 339.146 -0.38686 1.53913 0
M  V30 3462 H 339.167 -2.97878 2.36746 0
M  V30 3463 H 338.679 -1.5834 3.5433 0
M  V30 3464 H 336.78 -3.28486 1.75864 0
M  V30 3465 H 336.893 -3.12021 3.63566 0
M  V30 3466 H 335.257 -1.731 1.86838 0
M  V30 3467 H 336.04 -0.893333 3.31473 0
M  V30 3468 N 338.485 -1.33259 -0.841409 0
M  V30 3469 C 339.731 -1.25766 -1.59857 0
M  V30 3470 C 340.086 0.175602 -1.91597 0
M  V30 3471 O 339.379 1.117 -1.55672 0
M  V30 3472 C 339.573 -2.06381 -2.9179 0
M  V30 3473 C 339.402 -3.57401 -2.72937 0
M  V30 3474 C 338.172 -4.26718 -2.70628 0
M  V30 3475 C 340.37 -4.51786 -2.45753 0
M  V30 3476 N 338.352 -5.63705 -2.43125 0
M  V30 3477 C 339.723 -5.76643 -2.27777 0
M  V30 3478 C 341.778 -4.40898 -2.31329 0
M  V30 3479 C 340.481 -6.91842 -1.96841 0
M  V30 3480 C 342.507 -5.55911 -2.01786 0
M  V30 3481 C 341.869 -6.79776 -1.8462 0
M  V30 3482 H 337.968 -0.515406 -0.588117 0
M  V30 3483 H 340.552 -1.67772 -0.987955 0
M  V30 3484 H 338.723 -1.667 -3.50807 0
M  V30 3485 H 340.455 -1.90678 -3.56965 0
M  V30 3486 H 337.21 -3.78968 -2.84043 0
M  V30 3487 H 337.634 -6.35911 -2.32265 0
M  V30 3488 H 342.276 -3.45772 -2.43314 0
M  V30 3489 H 339.994 -7.86968 -1.83594 0
M  V30 3490 H 343.58 -5.49421 -1.91384 0
M  V30 3491 H 342.46 -7.67266 -1.62088 0
M  V30 3492 N 339.963 1.05934 -1.16686 0
M  V30 3493 C 341.212 1.78188 -0.945085 0
M  V30 3494 C 341.525 1.88338 0.528021 0
M  V30 3495 O 342.731 2.57258 0.867799 0
M  V30 3496 C 341.187 3.20277 -1.64167 0
M  V30 3497 C 340.795 3.18281 -3.15279 0
M  V30 3498 C 342.539 3.97039 -1.502 0
M  V30 3499 C 340.446 4.55112 -3.7766 0
M  V30 3500 H 339.376 0.667866 -0.349959 0
M  V30 3501 H 342.027 1.18794 -1.39858 0
M  V30 3502 H 340.409 3.79952 -1.11589 0
M  V30 3503 H 341.583 2.68167 -3.74731 0
M  V30 3504 H 339.898 2.55018 -3.29173 0
M  V30 3505 H 342.495 4.98194 -1.94183 0
M  V30 3506 H 342.838 4.13845 -0.451461 0
M  V30 3507 H 343.371 3.43894 -1.99954 0
M  V30 3508 H 340.11 4.43512 -4.82677 0
M  V30 3509 H 339.63 5.05406 -3.22994 0
M  V30 3510 H 341.309 5.24064 -3.79428 0
M  V30 3511 N 341.441 0.965919 1.2453 0
M  V30 3512 C 342.718 0.543777 1.87889 0
M  V30 3513 C 343.098 -0.97909 1.87021 0
M  V30 3514 O 342.446 -1.84969 1.3416 0
M  V30 3515 C 342.656 1.13327 3.30088 0
M  V30 3516 C 344.004 1.21707 4.06783 0
M  V30 3517 O 345.028 1.08566 3.39252 0
M  V30 3518 O 343.887 1.42456 5.27606 0
M  V30 3519 H 340.981 0.181054 0.806938 0
M  V30 3520 H 343.527 1.06007 1.32516 0
M  V30 3521 H 342.299 2.17612 3.25209 0
M  V30 3522 H 341.922 0.600911 3.93033 0
M  V30 3523 N 342.919 -1.39368 0.735821 0
M  V30 3524 C 343.866 -2.30599 0.0963825 0
M  V30 3525 C 344.836 -1.49257 -0.728794 0
M  V30 3526 O 346.021 -1.77941 -0.688588 0
M  V30 3527 C 343.161 -3.35596 -0.804305 0
M  V30 3528 C 342.274 -4.31987 0.0335761 0
M  V30 3529 C 341.409 -5.24053 -0.868461 0
M  V30 3530 C 340.448 -6.12095 -0.0258776 0
M  V30 3531 N 339.585 -6.96514 -0.883893 0
M  V30 3532 H 344.425 -2.8471 0.880002 0
M  V30 3533 H 341.962 -1.40188 0.445619 0
M  V30 3534 H 343.92 -3.95062 -1.34096 0
M  V30 3535 H 342.55 -2.82938 -1.55389 0
M  V30 3536 H 341.602 -3.74133 0.68766 0
M  V30 3537 H 342.914 -4.94074 0.685036 0
M  V30 3538 H 342.068 -5.88549 -1.47293 0
M  V30 3539 H 340.807 -4.62289 -1.5537 0
M  V30 3540 H 339.812 -5.4661 0.591386 0
M  V30 3541 H 341.037 -6.75923 0.656156 0
M  V30 3542 H 338.983 -6.37318 -1.55441 0
M  V30 3543 H 338.9 -7.55448 -0.288931 0
M  V30 3544 H 340.168 -7.65439 -1.4739 0
M  V30 3545 N 344.397 -0.483516 -1.5 0
M  V30 3546 C 345.327 0.293829 -2.31644 0
M  V30 3547 C 346.308 0.978864 -1.39112 0
M  V30 3548 O 347.493 0.973644 -1.68029 0
M  V30 3549 C 344.623 1.36897 -3.19181 0
M  V30 3550 C 343.577 0.804833 -4.20365 0
M  V30 3551 C 342.903 1.9792 -4.96721 0
M  V30 3552 C 344.203 -0.192313 -5.21946 0
M  V30 3553 H 345.897 -0.387616 -2.9688 0
M  V30 3554 H 343.443 -0.187856 -1.42769 0
M  V30 3555 H 345.396 1.92037 -3.751 0
M  V30 3556 H 344.12 2.07936 -2.51853 0
M  V30 3557 H 342.779 0.275319 -3.65565 0
M  V30 3558 H 342.427 2.67686 -4.25856 0
M  V30 3559 H 342.127 1.60789 -5.65173 0
M  V30 3560 H 343.651 2.53526 -5.55479 0
M  V30 3561 H 345.065 0.270333 -5.72662 0
M  V30 3562 H 343.462 -0.478543 -5.98189 0
M  V30 3563 H 344.532 -1.11409 -4.71928 0
M  V30 3564 N 345.875 1.56104 -0.216619 0
M  V30 3565 C 346.805 2.23063 0.690296 0
M  V30 3566 C 347.786 1.20072 1.20485 0
M  V30 3567 O 348.971 1.48643 1.24976 0
M  V30 3568 C 346.101 2.90672 1.90072 0
M  V30 3569 C 345.055 4.00092 1.5202 0
M  V30 3570 C 344.381 4.54972 2.80899 0
M  V30 3571 C 345.681 5.17398 0.71391 0
M  V30 3572 H 347.375 2.99109 0.132038 0
M  V30 3573 H 344.921 1.43866 0.0620664 0
M  V30 3574 H 346.874 3.36204 2.54057 0
M  V30 3575 H 345.598 2.12066 2.48386 0
M  V30 3576 H 344.257 3.55283 0.903839 0
M  V30 3577 H 343.905 3.73102 3.37348 0
M  V30 3578 H 343.605 5.28817 2.56176 0
M  V30 3579 H 345.129 5.0322 3.45836 0
M  V30 3580 H 346.543 5.59342 1.25735 0
M  V30 3581 H 344.94 5.97444 0.563951 0
M  V30 3582 H 346.01 4.84088 -0.280527 0
M  V30 3583 N 347.353 -0.0568162 1.57498 0
M  V30 3584 C 348.764 -0.606858 1.76562 0
M  V30 3585 C 349.115 -1.77114 0.844094 0
M  V30 3586 O 348.24 -2.16376 0.0318911 0
M  V30 3587 C 348.835 -1.10766 3.20182 0
M  V30 3588 C 347.394 -1.60344 3.40539 0
M  V30 3589 C 346.541 -0.529311 2.72201 0
M  V30 3590 H 349.492 0.169393 1.57793 0
M  V30 3591 H 349.513 -1.97602 3.25167 0
M  V30 3592 H 349.025 -0.26006 3.87228 0
M  V30 3593 H 347.126 -2.47379 2.78629 0
M  V30 3594 H 347.239 -1.67006 4.4905 0
M  V30 3595 H 345.603 -0.977893 2.35179 0
M  V30 3596 H 346.386 0.308352 3.41912 0
M  V30 3597 N 348.832 -1.54138 -0.328536 0
M  V30 3598 C 349.742 -1.86192 -1.42723 0
M  V30 3599 C 350.758 -0.753382 -1.56844 0
M  V30 3600 O 351.934 -1.04718 -1.72035 0
M  V30 3601 C 348.999 -2.07824 -2.77507 0
M  V30 3602 C 348.06 -3.31641 -2.72603 0
M  V30 3603 C 347.293 -3.52232 -4.00959 0
M  V30 3604 O 347.516 -2.7636 -4.9898 0
M  V30 3605 O 346.45 -4.45699 -4.0452 0
M  V30 3606 H 350.276 -2.79608 -1.18547 0
M  V30 3607 H 347.861 -1.3998 -0.522104 0
M  V30 3608 H 349.743 -2.23411 -3.57303 0
M  V30 3609 H 348.418 -1.17596 -3.01584 0
M  V30 3610 H 347.325 -3.21444 -1.91376 0
M  V30 3611 H 348.658 -4.2191 -2.53481 0
M  V30 3612 N 350.31 0.590341 -1.46126 0
M  V30 3613 C 351.538 1.37504 -1.54597 0
M  V30 3614 C 351.953 1.87897 -0.184447 0
M  V30 3615 O 351.31 1.63192 0.816984 0
M  V30 3616 C 351.361 2.56779 -2.54454 0
M  V30 3617 O 351.082 2.08476 -3.85317 0
M  V30 3618 C 352.583 3.49427 -2.72792 0
M  V30 3619 H 349.803 0.420325 -0.523037 0
M  V30 3620 H 352.347 0.718383 -1.91467 0
M  V30 3621 H 350.502 3.1845 -2.20609 0
M  V30 3622 H 350.916 2.86097 -4.396 0
M  V30 3623 H 352.39 4.29619 -3.466 0
M  V30 3624 H 352.867 4.00876 -1.79429 0
M  V30 3625 H 353.473 2.93598 -3.07702 0
M  V30 3626 N 351.788 1.33704 0.83433 0
M  V30 3627 C 353.036 1.25169 1.58673 0
M  V30 3628 C 353.357 -0.18127 1.94156 0
M  V30 3629 O 352.627 -1.11113 1.6134 0
M  V30 3630 H 351.207 0.4603 0.58833 0
M  V30 3631 H 353.869 1.67478 0.996847 0
M  V30 3632 H 352.965 1.84856 2.51465 0
M  V30 3633 N 353.266 -1.05314 1.17247 0
M  V30 3634 C 354.198 -2.13023 0.845812 0
M  V30 3635 C 355.211 -1.62096 -0.151246 0
M  V30 3636 O 356.4 -1.78343 0.0748818 0
M  V30 3637 C 353.5 -3.38047 0.240292 0
M  V30 3638 C 352.673 -4.18255 1.27991 0
M  V30 3639 C 351.732 -5.21625 0.692375 0
M  V30 3640 O 350.758 -5.52619 1.36385 0
M  V30 3641 N 351.96 -5.78201 -0.516178 0
M  V30 3642 H 354.725 -2.41642 1.77283 0
M  V30 3643 H 352.286 -1.21401 1.07115 0
M  V30 3644 H 354.278 -4.04359 -0.16603 0
M  V30 3645 H 352.848 -3.06972 -0.590487 0
M  V30 3646 H 352.068 -3.47451 1.86203 0
M  V30 3647 H 353.356 -4.68643 1.98119 0
M  V30 3648 H 352.754 -5.55301 -1.07969 0
M  V30 3649 H 351.311 -6.4604 -0.86458 0
M  V30 3650 N 354.744 -0.972509 -1.24016 0
M  V30 3651 C 355.972 -0.654803 -1.96265 0
M  V30 3652 C 356.387 0.776708 -1.72083 0
M  V30 3653 O 355.744 1.52171 -1.00748 0
M  V30 3654 C 355.795 -0.92592 -3.49441 0
M  V30 3655 O 355.516 -2.30116 -3.72798 0
M  V30 3656 C 357.017 -0.623068 -4.38899 0
M  V30 3657 H 354.237 -0.243907 -0.6251 0
M  V30 3658 H 356.781 -1.30175 -1.57717 0
M  V30 3659 H 354.936 -0.325108 -3.86033 0
M  V30 3660 H 355.35 -2.38483 -4.67147 0
M  V30 3661 H 356.824 -0.863189 -5.45209 0
M  V30 3662 H 357.301 0.442754 -4.36963 0
M  V30 3663 H 357.907 -1.204 -4.07902 0
M  V30 3664 N 356.222 1.38976 -0.743202 0
M  V30 3665 C 357.169 2.30544 -0.10861 0
M  V30 3666 C 358.139 1.49642 0.720869 0
M  V30 3667 O 359.324 1.78304 0.679142 0
M  V30 3668 C 356.464 3.36018 0.786496 0
M  V30 3669 C 355.577 4.31963 -0.0564849 0
M  V30 3670 C 354.712 5.24506 0.840657 0
M  V30 3671 C 353.751 6.121 -0.00658363 0
M  V30 3672 N 352.888 6.96973 0.846943 0
M  V30 3673 H 357.728 2.8424 -0.895088 0
M  V30 3674 H 355.265 1.3995 -0.453048 0
M  V30 3675 H 357.223 3.95768 1.31999 0
M  V30 3676 H 355.853 2.83758 1.53887 0
M  V30 3677 H 354.905 3.73763 -0.707492 0
M  V30 3678 H 356.217 4.93703 -0.711229 0
M  V30 3679 H 355.371 5.89322 1.4417 0
M  V30 3680 H 354.11 4.63107 1.52916 0
M  V30 3681 H 353.115 5.46289 -0.620366 0
M  V30 3682 H 354.34 6.75565 -0.691992 0
M  V30 3683 H 352.286 6.38133 1.52059 0
M  V30 3684 H 352.203 7.5559 0.248864 0
M  V30 3685 H 353.471 7.6621 1.43328 0
M  V30 3686 N 357.7 0.491464 1.49741 0
M  V30 3687 C 358.61 -0.296835 2.32715 0
M  V30 3688 C 359.626 -0.976536 1.44013 0
M  V30 3689 O 360.802 -0.960023 1.77047 0
M  V30 3690 C 357.867 -1.35288 3.19215 0
M  V30 3691 C 356.928 -0.687632 4.23757 0
M  V30 3692 C 356.161 -1.69336 5.06123 0
M  V30 3693 O 356.384 -2.92219 4.89861 0
M  V30 3694 O 355.318 -1.25394 5.88693 0
M  V30 3695 H 359.144 0.382048 3.01287 0
M  V30 3696 H 356.729 0.252953 1.47243 0
M  V30 3697 H 358.611 -1.96411 3.72828 0
M  V30 3698 H 357.286 -2.01487 2.53347 0
M  V30 3699 H 356.193 -0.0369159 3.74082 0
M  V30 3700 H 357.526 -0.0682566 4.92153 0
M  V30 3701 N 359.178 -1.55987 0.224894 0
M  V30 3702 C 360.088 -2.24066 -0.69511 0
M  V30 3703 C 361.104 -1.24939 -1.21104 0
M  V30 3704 O 362.28 -1.5776 -1.25195 0
M  V30 3705 C 359.345 -2.90983 -1.88493 0
M  V30 3706 C 358.406 -4.05462 -1.41064 0
M  V30 3707 C 357.639 -4.69179 -2.54375 0
M  V30 3708 O 357.862 -4.31895 -3.72589 0
M  V30 3709 O 356.796 -5.58108 -2.25386 0
M  V30 3710 H 360.622 -3.03353 -0.145149 0
M  V30 3711 H 358.207 -1.49399 -0.00569476 0
M  V30 3712 H 360.089 -3.33209 -2.57972 0
M  V30 3713 H 358.764 -2.14653 -2.42293 0
M  V30 3714 H 357.671 -3.67798 -0.683774 0
M  V30 3715 H 359.004 -4.83545 -0.918985 0
M  V30 3716 N 360.656 0.0484629 -1.57525 0
M  V30 3717 C 361.902 0.738854 -1.89506 0
M  V30 3718 C 362.257 1.73989 -0.821319 0
M  V30 3719 O 361.55 1.90825 0.172129 0
M  V30 3720 C 361.744 1.46632 -3.25935 0
M  V30 3721 C 361.573 0.537254 -4.46479 0
M  V30 3722 C 360.343 0.165484 -5.05029 0
M  V30 3723 C 362.541 -0.176085 -5.13998 0
M  V30 3724 N 360.523 -0.766868 -6.09091 0
M  V30 3725 C 361.894 -0.96478 -6.12448 0
M  V30 3726 C 363.949 -0.24509 -4.97296 0
M  V30 3727 C 362.652 -1.8161 -6.95996 0
M  V30 3728 C 364.678 -1.08347 -5.81391 0
M  V30 3729 C 364.04 -1.86014 -6.79395 0
M  V30 3730 H 360.139 0.245067 -0.742608 0
M  V30 3731 H 362.723 -0.000476161 -1.947 0
M  V30 3732 H 360.894 2.17623 -3.21706 0
M  V30 3733 H 362.626 2.10757 -3.45491 0
M  V30 3734 H 359.381 0.523466 -4.70698 0
M  V30 3735 H 359.805 -1.22698 -6.65788 0
M  V30 3736 H 364.447 0.341063 -4.21422 0
M  V30 3737 H 362.165 -2.41313 -7.71229 0
M  V30 3738 H 365.751 -1.14014 -5.70519 0
M  V30 3739 H 364.631 -2.4984 -7.43337 0
M  V30 3740 N 362.134 1.5431 0.320358 0
M  V30 3741 C 363.081 1.83918 1.39438 0
M  V30 3742 C 364.051 0.686525 1.51248 0
M  V30 3743 O 365.236 0.933269 1.66417 0
M  V30 3744 C 362.376 2.075 2.75749 0
M  V30 3745 C 361.489 3.35177 2.72544 0
M  V30 3746 C 360.624 3.48704 4.00723 0
M  V30 3747 C 359.663 4.70244 3.91838 0
M  V30 3748 N 358.8 4.80679 5.11754 0
M  V30 3749 H 363.64 2.75544 1.13489 0
M  V30 3750 H 361.177 1.36459 0.549309 0
M  V30 3751 H 363.135 2.19166 3.54996 0
M  V30 3752 H 361.765 1.19163 3 0
M  V30 3753 H 360.817 3.32233 1.85271 0
M  V30 3754 H 362.129 4.24534 2.61863 0
M  V30 3755 H 361.283 3.59928 4.88402 0
M  V30 3756 H 360.022 2.57445 4.14214 0
M  V30 3757 H 359.027 4.59072 3.02544 0
M  V30 3758 H 360.252 5.6289 3.7991 0
M  V30 3759 H 358.198 3.92337 5.25745 0
M  V30 3760 H 358.115 5.64007 5.0342 0
M  V30 3761 H 359.383 4.96239 6.01138 0
M  V30 3762 N 363.613 -0.582584 1.46437 0
M  V30 3763 C 364.861 -1.33814 1.51453 0
M  V30 3764 C 365.182 -1.94277 0.167792 0
M  V30 3765 O 364.452 -1.78566 -0.805677 0
M  V30 3766 H 363.032 -0.496838 0.557818 0
M  V30 3767 H 365.694 -0.682281 1.82568 0
M  V30 3768 H 364.79 -2.14479 2.26728 0
M  V30 3769 N 365.091 -1.34144 -0.827227 0
M  V30 3770 C 366.321 -1.29138 -1.61267 0
M  V30 3771 C 366.729 0.137597 -1.88699 0
M  V30 3772 O 366.072 1.09379 -1.47587 0
M  V30 3773 C 366.134 -2.0097 -2.9808 0
M  V30 3774 C 365.798 -3.50242 -2.93563 0
M  V30 3775 C 366.795 -4.4523 -2.68452 0
M  V30 3776 C 364.48 -3.92592 -3.13331 0
M  V30 3777 C 366.474 -5.80542 -2.63154 0
M  V30 3778 C 364.161 -5.28005 -3.07658 0
M  V30 3779 C 365.159 -6.21792 -2.82602 0
M  V30 3780 O 364.847 -7.54723 -2.76853 0
M  V30 3781 H 364.579 -0.445851 -0.508127 0
M  V30 3782 H 367.133 -1.77263 -1.03763 0
M  V30 3783 H 365.363 -1.47451 -3.57484 0
M  V30 3784 H 367.052 -1.89309 -3.5905 0
M  V30 3785 H 367.818 -4.13832 -2.52919 0
M  V30 3786 H 363.697 -3.19994 -3.31851 0
M  V30 3787 H 367.241 -6.53717 -2.43516 0
M  V30 3788 H 363.138 -5.59023 -3.22743 0
M  V30 3789 H 363.906 -7.64409 -2.92611 0
M  V30 3790 N 366.569 1.04691 -1.17803 0
M  V30 3791 C 367.532 2.10724 -0.901545 0
M  V30 3792 C 368.532 1.6042 0.110437 0
M  V30 3793 O 369.722 1.7377 -0.122303 0
M  V30 3794 C 366.854 3.39084 -0.351409 0
M  V30 3795 H 368.047 2.36686 -1.84174 0
M  V30 3796 H 365.6 1.21015 -0.98919 0
M  V30 3797 H 366.335 3.18782 0.59569 0
M  V30 3798 H 366.12 3.76909 -1.08083 0
M  V30 3799 H 367.61 4.17227 -0.176451 0
M  V30 3800 N 368.047 0.979072 1.23499 0
M  V30 3801 C 368.957 0.526431 2.28617 0
M  V30 3802 C 369.973 -0.418126 1.68901 0
M  V30 3803 O 371.149 -0.288372 1.99325 0
M  V30 3804 C 368.214 -0.165235 3.46306 0
M  V30 3805 C 367.275 0.82056 4.21385 0
M  V30 3806 C 366.508 0.161807 5.33455 0
M  V30 3807 O 366.731 -1.04742 5.60701 0
M  V30 3808 O 365.665 0.859708 5.95729 0
M  V30 3809 H 369.491 1.4006 2.69475 0
M  V30 3810 H 367.076 0.746643 1.29405 0
M  V30 3811 H 368.958 -0.553287 4.17752 0
M  V30 3812 H 367.633 -1.01419 3.07402 0
M  V30 3813 H 366.54 1.25929 3.52268 0
M  V30 3814 H 367.873 1.63828 4.64135 0
M  V30 3815 N 369.525 -1.3858 0.750561 0
M  V30 3816 C 370.753 -2.04471 0.316098 0
M  V30 3817 C 371.168 -1.56606 -1.05452 0
M  V30 3818 O 370.525 -0.737784 -1.66922 0
M  V30 3819 C 370.576 -3.60025 0.326275 0
M  V30 3820 O 370.297 -4.06133 1.6428 0
M  V30 3821 C 371.798 -4.43131 -0.122429 0
M  V30 3822 H 369.018 -0.65717 0.135528 0
M  V30 3823 H 371.562 -1.77329 1.01857 0
M  V30 3824 H 369.717 -3.86014 -0.327431 0
M  V30 3825 H 370.131 -5.00547 1.56693 0
M  V30 3826 H 371.605 -5.51963 -0.0641473 0
M  V30 3827 H 372.082 -4.23333 -1.16988 0
M  V30 3828 H 372.688 -4.22323 0.50229 0
M  V30 3829 N 371.003 -0.499398 -1.49478 0
M  V30 3830 C 371.951 0.293604 -2.3074 0
M  V30 3831 C 372.945 0.96427 -1.39277 0
M  V30 3832 O 374.151 0.892141 -1.56336 0
M  V30 3833 H 370.526 0.113541 -0.743379 0
M  V30 3834 H 372.497 -0.411772 -2.95545 0
M  V30 3835 C 371.246 1.3462 -3.20582 0
M  V30 3836 H 370.569 0.83954 -3.90886 0
M  V30 3837 H 372.009 1.87308 -3.80384 0
M  V30 3838 C 370.468 2.36351 -2.40083 0
M  V30 3839 O 370.998 3.422 -2.10385 0
M  V30 3840 N 369.204 2.0878 -2.02137 0
M  V30 3841 H 368.751 1.22723 -2.26488 0
M  V30 3842 H 368.709 2.77075 -1.48583 0
M  V30 3843 N 372.481 1.55866 -0.233164 0
M  V30 3844 C 373.428 2.20796 0.67215 0
M  V30 3845 C 374.398 1.16731 1.18166 0
M  V30 3846 O 375.583 1.45129 1.23864 0
M  V30 3847 C 372.723 2.90072 1.86955 0
M  V30 3848 C 371.836 4.08759 1.39786 0
M  V30 3849 C 370.971 4.65787 2.55374 0
M  V30 3850 C 370.01 5.76752 2.04998 0
M  V30 3851 N 369.147 6.28021 3.13901 0
M  V30 3852 H 373.987 2.9779 0.111749 0
M  V30 3853 H 371.524 1.47036 0.0434007 0
M  V30 3854 H 373.482 3.28428 2.57276 0
M  V30 3855 H 372.112 2.15575 2.40265 0
M  V30 3856 H 371.164 3.7581 0.589173 0
M  V30 3857 H 372.476 4.88906 0.98856 0
M  V30 3858 H 371.63 5.06646 3.33758 0
M  V30 3859 H 370.369 3.84828 2.99598 0
M  V30 3860 H 369.374 5.35383 1.25079 0
M  V30 3861 H 370.599 6.59553 1.61759 0
M  V30 3862 H 368.545 5.49971 3.57586 0
M  V30 3863 H 368.462 7.03323 2.7726 0
M  V30 3864 H 369.73 6.73538 3.92386 0
M  V30 3865 N 373.959 -0.0401083 1.57549 0
M  V30 3866 C 375.208 -0.732108 1.87944 0
M  V30 3867 C 375.521 -1.77107 0.830206 0
M  V30 3868 O 376.727 -2.51488 1.02302 0
M  V30 3869 C 375.183 -1.35315 3.33494 0
M  V30 3870 C 374.791 -0.351105 4.46622 0
M  V30 3871 C 376.535 -2.02566 3.73051 0
M  V30 3872 C 374.442 -0.979859 5.83226 0
M  V30 3873 H 373.372 -0.277188 0.701201 0
M  V30 3874 H 376.023 0.0138501 1.83495 0
M  V30 3875 H 374.405 -2.14844 3.32653 0
M  V30 3876 H 375.579 0.416674 4.58912 0
M  V30 3877 H 373.894 0.218708 4.15825 0
M  V30 3878 H 376.491 -2.50441 4.72423 0
M  V30 3879 H 376.834 -2.83904 3.04474 0
M  V30 3880 H 377.367 -1.29827 3.76018 0
M  V30 3881 H 374.106 -0.206135 6.55176 0
M  V30 3882 H 373.626 -1.71774 5.74677 0
M  V30 3883 H 375.305 -1.49046 6.29599 0
M  V30 3884 N 375.437 -1.54477 -0.31217 0
M  V30 3885 C 376.367 -1.87652 -1.38957 0
M  V30 3886 C 377.348 -0.734358 -1.53431 0
M  V30 3887 O 378.533 -0.98911 -1.67123 0
M  V30 3888 C 375.663 -2.11396 -2.75552 0
M  V30 3889 C 374.617 -3.27243 -2.75855 0
M  V30 3890 C 373.943 -3.36382 -4.15633 0
M  V30 3891 C 375.243 -4.64622 -2.38587 0
M  V30 3892 H 376.937 -2.77887 -1.11442 0
M  V30 3893 H 374.483 -1.33707 -0.534655 0
M  V30 3894 H 376.436 -2.33189 -3.51 0
M  V30 3895 H 375.16 -1.17921 -3.04569 0
M  V30 3896 H 373.819 -3.05356 -2.02863 0
M  V30 3897 H 373.467 -2.40445 -4.41809 0
M  V30 3898 H 373.167 -4.14249 -4.1674 0
M  V30 3899 H 374.691 -3.60422 -4.92877 0
M  V30 3900 H 376.105 -4.86219 -3.03749 0
M  V30 3901 H 374.502 -5.45121 -2.50925 0
M  V30 3902 H 375.572 -4.66097 -1.33723 0
M  V30 3903 N 376.915 0.57481 -1.46744 0
M  V30 3904 C 378.163 1.33009 -1.52161 0
M  V30 3905 C 378.484 1.94185 -0.178092 0
M  V30 3906 O 377.754 1.7899 0.796196 0
M  V30 3907 H 376.334 0.493873 -0.560445 0
M  V30 3908 H 378.996 0.672589 -1.82927 0
M  V30 3909 H 378.092 2.13273 -2.27862 0
M  V30 3910 N 378.394 1.34581 0.820102 0
M  V30 3911 C 379.324 1.29038 1.94606 0
M  V30 3912 C 380.305 0.1673 1.69275 0
M  V30 3913 O 381.49 0.360112 1.90832 0
M  V30 3914 C 378.62 1.04793 3.31113 0
M  V30 3915 C 377.574 2.13597 3.70891 0
M  V30 3916 C 376.9 1.74537 5.05412 0
M  V30 3917 C 378.2 3.55451 3.8269 0
M  V30 3918 H 379.894 2.23248 1.99501 0
M  V30 3919 H 377.44 1.0747 0.958449 0
M  V30 3920 H 379.393 0.995592 4.0947 0
M  V30 3921 H 378.117 0.0702565 3.26524 0
M  V30 3922 H 376.776 2.17905 2.9481 0
M  V30 3923 H 376.424 0.754226 4.97313 0
M  V30 3924 H 376.124 2.47361 5.32997 0
M  V30 3925 H 377.648 1.70803 5.86224 0
M  V30 3926 H 379.062 3.5354 4.51312 0
M  V30 3927 H 377.459 4.26922 4.21732 0
M  V30 3928 H 378.529 3.92587 2.84611 0
M  V30 3929 N 379.872 -1.04064 1.18357 0
M  V30 3930 C 381.097 -1.81454 1.00445 0
M  V30 3931 C 381.522 -1.82823 -0.442423 0
M  V30 3932 O 380.88 -1.24555 -1.31741 0
M  V30 3933 C 380.928 -3.24925 1.56384 0
M  V30 3934 O 380.032 -4.04856 0.785209 0
M  V30 3935 H 379.373 -0.560604 0.355835 0
M  V30 3936 H 381.903 -1.31059 1.57114 0
M  V30 3937 H 381.913 -3.75702 1.59097 0
M  V30 3938 H 380.588 -3.23244 2.61699 0
M  V30 3939 H 379.165 -3.63537 0.830399 0
M  V30 3940 N 381.35 -0.985608 -1.22978 0
M  V30 3941 C 382.627 -0.573599 -1.87001 0
M  V30 3942 C 383.007 0.949213 -1.88555 0
M  V30 3943 O 382.355 1.82811 -1.37086 0
M  V30 3944 C 382.565 -1.18564 -3.28243 0
M  V30 3945 C 383.913 -1.28163 -4.04796 0
M  V30 3946 O 384.937 -1.13949 -3.37482 0
M  V30 3947 O 383.796 -1.50832 -5.25273 0
M  V30 3948 H 380.89 -0.193868 -0.803955 0
M  V30 3949 H 383.436 -1.08102 -1.30813 0
M  V30 3950 H 382.208 -2.22758 -3.21706 0
M  V30 3951 H 381.831 -0.663363 -3.92027 0
M  V30 3952 N 382.828 1.3818 -0.7579 0
M  V30 3953 C 383.776 2.32277 -0.122482 0
M  V30 3954 C 384.77 1.54238 0.700505 0
M  V30 3955 O 385.976 1.69737 0.599119 0
M  V30 3956 H 382.351 0.751712 -0.0208143 0
M  V30 3957 H 384.322 2.83469 -0.932099 0
M  V30 3958 C 383.071 3.39447 0.753076 0
M  V30 3959 H 382.394 3.99591 0.129184 0
M  V30 3960 H 383.834 4.07684 1.16489 0
M  V30 3961 C 382.293 2.78375 1.8976 0
M  V30 3962 O 382.823 2.68025 2.99208 0
M  V30 3963 N 381.029 2.36121 1.69397 0
M  V30 3964 H 380.576 2.4474 0.803762 0
M  V30 3965 H 380.534 1.95602 2.46145 0
M  V30 3966 N 384.306 0.507319 1.49211 0
M  V30 3967 C 385.717 0.0611118 1.866 0
M  V30 3968 C 386.068 -1.35488 1.41907 0
M  V30 3969 O 385.193 -2.0108 0.799726 0
M  V30 3970 C 385.788 0.104125 3.3864 0
M  V30 3971 C 384.347 -0.28677 3.75306 0
M  V30 3972 C 383.494 0.473893 2.73221 0
M  V30 3973 H 386.445 0.719775 1.41439 0
M  V30 3974 H 386.466 -0.689672 3.74198 0
M  V30 3975 H 385.978 1.13482 3.71138 0
M  V30 3976 H 384.079 -1.32046 3.48417 0
M  V30 3977 H 384.192 0.0370745 4.79086 0
M  V30 3978 H 382.556 -0.0770644 2.54583 0
M  V30 3979 H 383.339 1.50478 3.08563 0
M  V30 3980 N 385.784 -1.5574 0.241426 0
M  V30 3981 C 387.033 -1.97986 -0.385295 0
M  V30 3982 C 387.346 -1.13267 -1.59468 0
M  V30 3983 O 388.552 -1.45501 -2.2922 0
M  V30 3984 C 387.008 -3.52275 -0.736884 0
M  V30 3985 C 386.616 -4.45726 0.450796 0
M  V30 3986 C 388.36 -4.03189 -1.3281 0
M  V30 3987 C 386.267 -5.91352 0.0756662 0
M  V30 3988 H 385.197 -0.739386 -0.147731 0
M  V30 3989 H 387.848 -1.80308 0.340779 0
M  V30 3990 H 386.23 -3.65628 -1.52094 0
M  V30 3991 H 387.404 -4.44131 1.22819 0
M  V30 3992 H 385.719 -4.05264 0.956573 0
M  V30 3993 H 388.316 -5.09505 -1.62201 0
M  V30 3994 H 388.659 -3.50212 -2.25071 0
M  V30 3995 H 389.192 -3.93141 -0.607069 0
M  V30 3996 H 385.931 -6.48354 0.965272 0
M  V30 3997 H 385.451 -5.96095 -0.665635 0
M  V30 3998 H 387.13 -6.46084 -0.344075 0
M  V30 3999 N 387.262 0.0317525 -1.57568 0
M  V30 4000 C 388.673 0.578692 -1.77505 0
M  V30 4001 C 389.024 1.75749 -0.872164 0
M  V30 4002 O 388.149 2.16298 -0.0663106 0
M  V30 4003 C 388.744 1.05658 -3.21904 0
M  V30 4004 C 387.303 1.54906 -3.43047 0
M  V30 4005 C 386.45 0.485939 -2.73009 0
M  V30 4006 H 389.401 -0.194475 -1.57504 0
M  V30 4007 H 389.422 1.92404 -3.28269 0
M  V30 4008 H 388.934 0.198422 -3.87592 0
M  V30 4009 H 387.035 2.42915 -2.82529 0
M  V30 4010 H 387.148 1.59841 -4.5165 0
M  V30 4011 H 385.512 0.940354 -2.36705 0
M  V30 4012 H 386.295 -0.362709 -3.41379 0
M  V30 4013 N 388.74 1.54641 0.303973 0
M  V30 4014 C 389.986 1.74038 1.04109 0
M  V30 4015 C 390.319 0.523051 1.87024 0
M  V30 4016 O 389.594 -0.479874 1.88487 0
M  V30 4017 C 389.877 3.02761 1.94955 0
M  V30 4018 C 389.73 4.34787 1.1524 0
M  V30 4019 C 391.049 3.27336 2.94175 0
M  V30 4020 H 388.168 0.63323 0.377079 0
M  V30 4021 H 390.81 1.87354 0.316001 0
M  V30 4022 H 388.96 2.9154 2.56782 0
M  V30 4023 H 390.632 4.57922 0.557236 0
M  V30 4024 H 388.875 4.31407 0.455053 0
M  V30 4025 H 389.546 5.21116 1.8205 0
M  V30 4026 H 392.022 3.38148 2.42477 0
M  V30 4027 H 390.898 4.18726 3.54908 0
M  V30 4028 H 391.159 2.45491 3.67677 0
M  V30 4029 N 390.218 -0.567019 1.47046 0
M  V30 4030 C 391.495 -1.3276 1.43646 0
M  V30 4031 C 391.875 -2.1071 0.128186 0
M  V30 4032 O 391.223 -2.10441 -0.890326 0
M  V30 4033 C 391.433 -2.2404 2.67595 0
M  V30 4034 C 392.781 -2.85372 3.14401 0
M  V30 4035 O 393.805 -2.34346 2.68254 0
M  V30 4036 O 392.664 -3.78091 3.946 0
M  V30 4037 H 389.758 -0.597293 0.571988 0
M  V30 4038 H 392.304 -0.586735 1.59234 0
M  V30 4039 H 391.076 -1.65975 3.54356 0
M  V30 4040 H 390.699 -3.05439 2.54544 0
M  V30 4041 N 391.696 -1.35014 -0.812953 0
M  V30 4042 C 392.944 -1.27678 -1.56661 0
M  V30 4043 C 393.265 0.150359 -1.94419 0
M  V30 4044 O 392.535 1.08532 -1.63088 0
M  V30 4045 H 391.115 -0.469602 -0.580933 0
M  V30 4046 H 393.777 -1.69043 -0.970076 0
M  V30 4047 H 392.873 -1.88833 -2.48492 0
M  V30 4048 N 393.175 1.03435 -1.18907 0
M  V30 4049 C 394.105 2.13503 -0.945448 0
M  V30 4050 C 395.086 1.69682 0.119189 0
M  V30 4051 O 396.271 1.94169 -0.034707 0
M  V30 4052 C 393.401 3.44004 -0.477316 0
M  V30 4053 C 392.355 4.0148 -1.48316 0
M  V30 4054 C 391.681 5.27537 -0.872311 0
M  V30 4055 C 392.981 4.36921 -2.86177 0
M  V30 4056 H 394.675 2.34141 -1.86597 0
M  V30 4057 H 392.221 1.12523 -0.898584 0
M  V30 4058 H 394.174 4.20372 -0.294204 0
M  V30 4059 H 392.898 3.23072 0.478786 0
M  V30 4060 H 391.557 3.27201 -1.65332 0
M  V30 4061 H 391.205 5.02917 0.0911752 0
M  V30 4062 H 390.905 5.66954 -1.54393 0
M  V30 4063 H 392.429 6.06576 -0.699871 0
M  V30 4064 H 393.843 5.04248 -2.72776 0
M  V30 4065 H 392.24 4.87405 -3.50081 0
M  V30 4066 H 393.31 3.46466 -3.39248 0
M  V30 4067 N 394.653 0.992116 1.22453 0
M  V30 4068 C 395.893 0.675727 1.92907 0
M  V30 4069 C 396.257 -0.777762 1.75542 0
M  V30 4070 O 397.458 -1.20553 2.40251 0
M  V30 4071 C 395.729 1.0696 3.4102 0
M  V30 4072 S 397.288 0.871456 4.30059 0
M  V30 4073 H 394.106 0.247089 0.666684 0
M  V30 4074 H 396.708 1.27423 1.48269 0
M  V30 4075 H 395.412 2.12383 3.51172 0
M  V30 4076 H 394.943 0.462858 3.90668 0
M  V30 4077 H 396.958 -0.238436 4.95627 0
M  V30 4078 N 396.131 -1.37776 0.765217 0
M  V30 4079 C 397.377 -2.00145 0.327072 0
M  V30 4080 C 397.71 -1.60607 -1.09175 0
M  V30 4081 O 396.985 -0.849127 -1.74986 0
M  V30 4082 C 397.268 -3.57109 0.46319 0
M  V30 4083 C 397.121 -4.06576 1.92395 0
M  V30 4084 C 398.44 -4.39888 -0.136473 0
M  V30 4085 H 395.559 -0.727113 0.120316 0
M  V30 4086 H 398.201 -1.63549 0.967039 0
M  V30 4087 H 396.351 -3.88414 -0.0816358 0
M  V30 4088 H 398.023 -3.85864 2.52798 0
M  V30 4089 H 396.266 -3.59011 2.43503 0
M  V30 4090 H 396.937 -5.15639 1.97028 0
M  V30 4091 H 399.413 -4.14803 0.328317 0
M  V30 4092 H 398.289 -5.48899 -0.0110582 0
M  V30 4093 H 398.55 -4.24758 -1.22608 0
M  V30 4094 N 397.609 -0.515225 -1.4894 0
M  V30 4095 C 399.025 -0.172099 -1.58669 0
M  V30 4096 C 399.225 1.32405 -1.51892 0
M  V30 4097 O 398.281 2.10116 -1.40027 0
M  V30 4098 C 399.594 -0.761533 -2.90897 0
M  V30 4099 C 401.142 -0.728926 -3.04394 0
M  V30 4100 C 401.617 -1.29667 -4.39261 0
M  V30 4101 N 403.108 -1.25799 -4.4579 0
M  V30 4102 C 403.843 -1.66733 -5.48623 0
M  V30 4103 N 403.339 -2.15327 -6.58488 0
M  V30 4104 N 405.132 -1.58061 -5.39419 0
M  V30 4105 H 397.283 -1.48778 -1.51588 0
M  V30 4106 H 399.546 -0.617968 -0.718901 0
M  V30 4107 H 399.252 -1.81136 -3.01468 0
M  V30 4108 H 399.126 -0.230106 -3.76497 0
M  V30 4109 H 401.513 0.312098 -2.93445 0
M  V30 4110 H 401.594 -1.29766 -2.20442 0
M  V30 4111 H 401.238 -2.33655 -4.50963 0
M  V30 4112 H 401.168 -0.703752 -5.21876 0
M  V30 4113 H 403.659 -0.902102 -3.66975 0
M  V30 4114 H 403.972 -2.44594 -7.33071 0
M  V30 4115 H 402.317 -2.19311 -6.59491 0
M  V30 4116 H 405.508 -1.19906 -4.52482 0
M  V30 4117 H 405.681 -1.90284 -6.19432 0
M  V30 4118 N 399.087 1.5561 -0.249682 0
M  V30 4119 C 400.336 1.98187 0.37479 0
M  V30 4120 C 400.649 1.14111 1.58865 0
M  V30 4121 O 401.855 1.46714 2.28445 0
M  V30 4122 C 400.311 3.52661 0.718192 0
M  V30 4123 C 399.919 4.45481 -0.474428 0
M  V30 4124 C 401.663 4.03888 1.3067 0
M  V30 4125 C 399.57 5.91303 -0.107026 0
M  V30 4126 H 398.5 0.740159 0.143808 0
M  V30 4127 H 401.151 1.80125 -0.350336 0
M  V30 4128 H 399.533 3.66429 1.50152 0
M  V30 4129 H 400.707 4.43473 -1.25172 0
M  V30 4130 H 399.022 4.04751 -0.978052 0
M  V30 4131 H 401.619 5.10358 1.59496 0
M  V30 4132 H 401.962 3.51401 2.23211 0
M  V30 4133 H 402.495 3.93457 0.586211 0
M  V30 4134 H 399.234 6.47833 -0.999642 0
M  V30 4135 H 398.754 5.9644 0.634013 0
M  V30 4136 H 400.433 6.46258 0.309807 0
M  V30 4137 N 400.565 -0.0233959 1.57583 0
M  V30 4138 C 401.813 -0.711654 1.89156 0
M  V30 4139 C 402.134 -1.75591 0.848096 0
M  V30 4140 O 401.404 -1.95547 -0.117566 0
M  V30 4141 H 399.984 -0.265835 0.698098 0
M  V30 4142 H 402.646 0.0119948 1.94896 0
M  V30 4143 H 401.742 -1.19766 2.88206 0
M  V30 4144 N 402.043 -1.548 -0.295768 0
M  V30 4145 C 403.006 -1.85363 -1.34808 0
M  V30 4146 C 404.006 -0.726817 -1.43436 0
M  V30 4147 O 405.196 -0.995088 -1.42981 0
M  V30 4148 C 402.328 -2.03859 -2.73229 0
M  V30 4149 H 403.521 -2.7941 -1.08949 0
M  V30 4150 H 401.074 -1.46942 -0.532702 0
M  V30 4151 H 401.809 -1.12117 -3.04303 0
M  V30 4152 H 401.594 -2.8588 -2.68356 0
M  V30 4153 H 403.084 -2.28857 -3.49305 0
M  V30 4154 N 403.521 0.559213 -1.47345 0
M  V30 4155 C 404.451 1.67622 -1.62558 0
M  V30 4156 C 405.432 1.63331 -0.475087 0
M  V30 4157 O 406.617 1.80983 -0.704182 0
M  V30 4158 C 403.747 3.0626 -1.63774 0
M  V30 4159 C 402.701 3.25397 -2.7803 0
M  V30 4160 C 402.027 4.64801 -2.64318 0
M  V30 4161 C 403.327 3.10965 -4.19641 0
M  V30 4162 H 405.021 1.55146 -2.56067 0
M  V30 4163 H 402.567 0.744961 -1.23233 0
M  V30 4164 H 404.52 3.84247 -1.73008 0
M  V30 4165 H 403.244 3.1969 -0.66825 0
M  V30 4166 H 401.903 2.49817 -2.68304 0
M  V30 4167 H 401.551 4.75028 -1.65401 0
M  V30 4168 H 401.251 4.78555 -3.40968 0
M  V30 4169 H 402.775 5.44926 -2.75478 0
M  V30 4170 H 404.189 3.78772 -4.30354 0
M  V30 4171 H 402.586 3.36229 -4.97062 0
M  V30 4172 H 403.656 2.07736 -4.38148 0
M  V30 4173 N 404.999 1.35443 0.805782 0
M  V30 4174 C 406.415 1.15499 1.10146 0
M  V30 4175 C 406.615 -0.0319975 2.01475 0
M  V30 4176 O 405.671 -0.70236 2.42535 0
M  V30 4177 C 406.984 2.45833 1.73166 0
M  V30 4178 C 408.532 2.52047 1.85583 0
M  V30 4179 C 409.007 3.82427 2.52019 0
M  V30 4180 N 410.498 3.83682 2.59504 0
M  V30 4181 C 411.233 4.81294 3.11679 0
M  V30 4182 N 410.729 5.89294 3.64287 0
M  V30 4183 N 412.522 4.6873 3.1024 0
M  V30 4184 H 404.673 2.11469 0.198678 0
M  V30 4185 H 406.936 0.93594 0.150731 0
M  V30 4186 H 406.642 3.32874 1.13526 0
M  V30 4187 H 406.516 2.6044 2.72857 0
M  V30 4188 H 408.903 1.65435 2.44367 0
M  V30 4189 H 408.984 2.41354 0.847455 0
M  V30 4190 H 408.628 4.69437 1.93885 0
M  V30 4191 H 408.558 3.90409 3.53395 0
M  V30 4192 H 411.049 3.05648 2.22234 0
M  V30 4193 H 411.362 6.59768 4.02401 0
M  V30 4194 H 409.707 5.92985 3.62483 0
M  V30 4195 H 412.898 3.83496 2.68419 0
M  V30 4196 H 413.071 5.44965 3.50596 0
M  V30 4197 N 406.477 -1.02803 1.19454 0
M  V30 4198 C 407.717 -1.77769 1.00883 0
M  V30 4199 C 408.081 -1.86596 -0.45233 0
M  V30 4200 O 409.282 -2.57895 -0.757877 0
M  V30 4201 C 407.553 -3.16486 1.66046 0
M  V30 4202 S 409.112 -4.07632 1.62424 0
M  V30 4203 H 405.93 -0.611949 0.361993 0
M  V30 4204 H 408.532 -1.23175 1.51816 0
M  V30 4205 H 407.236 -3.0768 2.7159 0
M  V30 4206 H 406.767 -3.76156 1.15196 0
M  V30 4207 H 408.782 -4.91937 0.64903 0
M  V30 4208 N 407.956 -0.998596 -1.21925 0
M  V30 4209 C 408.906 -0.524743 -2.21879 0
M  V30 4210 C 409.89 0.41017 -1.55584 0
M  V30 4211 O 411.082 0.236063 -1.75419 0
M  V30 4212 C 408.211 0.153636 -3.42956 0
M  V30 4213 C 407.297 -0.801918 -4.16449 0
M  V30 4214 N 407.688 -1.95211 -4.66611 0
M  V30 4215 C 405.986 -0.618972 -4.41684 0
M  V30 4216 C 406.687 -2.55234 -5.22715 0
M  V30 4217 N 405.663 -1.83451 -5.1171 0
M  V30 4218 H 409.465 -1.40189 -2.58311 0
M  V30 4219 H 406.979 -0.86159 -1.3766 0
M  V30 4220 H 408.976 0.510534 -4.13762 0
M  V30 4221 H 407.636 1.02684 -3.08036 0
M  V30 4222 H 408.647 -2.33271 -4.62391 0
M  V30 4223 H 405.324 0.207694 -4.16983 0
M  V30 4224 H 406.714 -3.52471 -5.72026 0
M  V30 4225 N 409.434 1.37368 -0.772513 0
M  V30 4226 C 410.659 2.0447 -0.347386 0
M  V30 4227 C 411.084 1.57882 1.0225 0
M  V30 4228 O 410.442 0.73941 1.65537 0
M  V30 4229 C 410.49 3.58369 -0.400479 0
M  V30 4230 O 409.594 4.0803 0.598789 0
M  V30 4231 H 408.935 0.646773 -0.15027 0
M  V30 4232 H 411.465 1.75667 -1.04892 0
M  V30 4233 H 411.475 4.07183 -0.258045 0
M  V30 4234 H 410.15 3.91633 -1.39986 0
M  V30 4235 H 408.727 3.70534 0.419411 0
M  V30 4236 N 410.912 0.523116 1.48665 0
M  V30 4237 C 411.844 -0.280421 2.27478 0
M  V30 4238 C 412.857 -0.910694 1.34945 0
M  V30 4239 O 414.046 -0.790295 1.60052 0
M  V30 4240 C 411.146 -1.41171 3.08097 0
M  V30 4241 C 410.319 -0.884642 4.28361 0
M  V30 4242 C 409.378 -1.89622 4.90846 0
M  V30 4243 O 408.404 -1.4559 5.50265 0
M  V30 4244 N 409.606 -3.22801 4.82472 0
M  V30 4245 H 412.371 0.395481 2.97079 0
M  V30 4246 H 409.932 0.357018 1.57915 0
M  V30 4247 H 411.924 -2.08645 3.4677 0
M  V30 4248 H 410.494 -1.99139 2.40961 0
M  V30 4249 H 409.714 -0.0341177 3.94185 0
M  V30 4250 H 411.002 -0.511268 5.06225 0
M  V30 4251 H 410.4 -3.61246 4.35336 0
M  V30 4252 H 408.957 -3.85927 5.25265 0
M  V30 4253 N 412.39 -1.55475 0.257931 0
M  V30 4254 C 413.353 -2.20551 -0.623706 0
M  V30 4255 C 414.353 -1.17809 -1.09443 0
M  V30 4256 O 415.543 -1.42823 -0.997362 0
M  V30 4257 C 412.675 -2.85784 -1.8585 0
M  V30 4258 H 413.868 -2.99848 -0.0557743 0
M  V30 4259 H 411.421 -1.56298 0.0084422 0
M  V30 4260 H 412.156 -2.10453 -2.46739 0
M  V30 4261 H 411.941 -3.61057 -1.52907 0
M  V30 4262 H 413.431 -3.35553 -2.48584 0
M  V30 4263 N 413.868 0.0150385 -1.57593 0
M  V30 4264 C 415.115 0.703001 -1.89906 0
M  V30 4265 C 415.443 1.74604 -0.856944 0
M  V30 4266 O 414.698 1.95197 0.140287 0
M  V30 4267 C 414.997 1.39686 -3.28972 0
M  V30 4268 C 414.663 0.488457 -4.48246 0
M  V30 4269 C 413.325 0.2383 -4.8061 0
M  V30 4270 C 415.677 -0.137881 -5.21018 0
M  V30 4271 C 413.005 -0.646738 -5.83125 0
M  V30 4272 C 415.357 -1.0107 -6.24474 0
M  V30 4273 C 414.021 -1.27019 -6.55303 0
M  V30 4274 H 413.291 0.257246 -0.694914 0
M  V30 4275 H 415.938 -0.037259 -1.91464 0
M  V30 4276 H 414.243 2.21079 -3.23468 0
M  V30 4277 H 415.94 1.93495 -3.51227 0
M  V30 4278 H 412.53 0.693593 -4.22951 0
M  V30 4279 H 416.714 0.0423953 -4.96282 0
M  V30 4280 H 411.97 -0.855937 -6.05379 0
M  V30 4281 H 416.144 -1.50247 -6.79999 0
M  V30 4282 H 413.771 -1.95769 -7.3456 0
M  V30 4283 N 415.346 1.54954 0.287554 0
M  V30 4284 C 416.574 1.78881 1.03967 0
M  V30 4285 C 416.989 0.554894 1.80462 0
M  V30 4286 O 416.346 -0.475676 1.76192 0
M  V30 4287 C 416.397 3.00488 2.0097 0
M  V30 4288 O 416.118 4.19113 1.27577 0
M  V30 4289 C 417.619 3.36907 2.88112 0
M  V30 4290 H 414.839 0.596259 0.307761 0
M  V30 4291 H 417.383 2.01937 0.322749 0
M  V30 4292 H 415.538 2.79601 2.68145 0
M  V30 4293 H 415.952 4.87765 1.92835 0
M  V30 4294 H 417.426 4.25205 3.52001 0
M  V30 4295 H 417.903 2.55659 3.57121 0
M  V30 4296 H 418.509 3.60001 2.26449 0
M  V30 4297 N 416.824 -0.551391 1.4764 0
M  V30 4298 C 418.073 -1.30467 1.53822 0
M  V30 4299 C 418.386 -1.94495 0.207661 0
M  V30 4300 O 419.592 -2.71099 0.147533 0
M  V30 4301 C 418.048 -2.36616 2.71184 0
M  V30 4302 C 417.656 -1.78754 4.10793 0
M  V30 4303 C 419.4 -3.13088 2.86663 0
M  V30 4304 C 417.307 -2.82717 5.19447 0
M  V30 4305 H 416.237 -0.490584 0.572576 0
M  V30 4306 H 418.888 -0.58494 1.73927 0
M  V30 4307 H 417.27 -3.11529 2.4447 0
M  V30 4308 H 418.444 -1.10173 4.47435 0
M  V30 4309 H 416.759 -1.14846 4.00249 0
M  V30 4310 H 419.356 -3.90736 3.65007 0
M  V30 4311 H 419.699 -3.67635 1.95321 0
M  V30 4312 H 420.232 -2.45288 3.13175 0
M  V30 4313 H 416.971 -2.33018 6.12685 0
M  V30 4314 H 416.491 -3.4969 4.87316 0
M  V30 4315 H 418.17 -3.46102 5.46646 0
M  V30 4316 N 418.302 -1.35869 -0.798587 0
M  V30 4317 C 419.249 -1.29446 -1.91082 0
M  V30 4318 C 420.219 -0.16487 -1.6528 0
M  V30 4319 O 421.404 -0.349888 -1.87564 0
M  V30 4320 C 418.544 -1.0804 -3.27752 0
M  V30 4321 C 417.657 -2.29993 -3.65687 0
M  V30 4322 C 416.792 -2.01673 -4.91428 0
M  V30 4323 C 415.831 -3.19636 -5.22015 0
M  V30 4324 N 414.968 -2.91039 -6.38937 0
M  V30 4325 H 419.808 -2.24553 -1.95907 0
M  V30 4326 H 417.345 -1.11615 -0.958148 0
M  V30 4327 H 419.303 -0.936586 -4.06551 0
M  V30 4328 H 417.933 -0.16592 -3.22373 0
M  V30 4329 H 416.985 -2.55211 -2.82085 0
M  V30 4330 H 418.297 -3.18052 -3.84245 0
M  V30 4331 H 417.451 -1.84168 -5.78072 0
M  V30 4332 H 416.19 -1.10911 -4.74921 0
M  V30 4333 H 415.195 -3.37709 -4.33858 0
M  V30 4334 H 416.42 -4.11211 -5.40447 0
M  V30 4335 H 414.366 -2.0288 -6.2384 0
M  V30 4336 H 414.283 -3.72635 -6.57784 0
M  V30 4337 H 415.551 -2.77093 -7.28587 0
M  V30 4338 N 419.78 1.02168 -1.19998 0
M  V30 4339 C 420.71 2.12488 -0.96804 0
M  V30 4340 C 421.691 1.69799 0.101185 0
M  V30 4341 O 422.876 1.94121 -0.0552993 0
M  V30 4342 C 420.006 3.43479 -0.513776 0
M  V30 4343 C 418.96 3.99884 -1.52566 0
M  V30 4344 C 418.286 5.26582 -0.928214 0
M  V30 4345 C 419.586 4.33861 -2.90795 0
M  V30 4346 H 421.28 2.32149 -1.89069 0
M  V30 4347 H 418.826 1.11564 -0.910468 0
M  V30 4348 H 420.779 4.20036 -0.338774 0
M  V30 4349 H 419.503 3.23561 0.444493 0
M  V30 4350 H 418.162 3.25429 -1.68794 0
M  V30 4351 H 417.81 5.02986 0.0378289 0
M  V30 4352 H 417.51 5.65284 -1.60397 0
M  V30 4353 H 419.034 6.05799 -0.764167 0
M  V30 4354 H 420.448 5.01327 -2.78109 0
M  V30 4355 H 418.845 4.83664 -3.55231 0
M  V30 4356 H 419.915 3.42848 -3.42904 0
M  V30 4357 N 421.258 1.00505 1.21394 0
M  V30 4358 C 422.205 0.565496 2.23765 0
M  V30 4359 C 423.175 -0.408466 1.60999 0
M  V30 4360 O 424.36 -0.310503 1.88257 0
M  V30 4361 C 421.5 -0.101667 3.4495 0
M  V30 4362 C 420.613 0.915479 4.22188 0
M  V30 4363 C 419.748 0.220574 5.30742 0
M  V30 4364 C 418.787 1.22527 5.99711 0
M  V30 4365 N 417.924 0.557831 6.9988 0
M  V30 4366 H 422.764 1.44314 2.60725 0
M  V30 4367 H 420.301 0.722643 1.28126 0
M  V30 4368 H 422.259 -0.505504 4.14126 0
M  V30 4369 H 420.889 -0.94303 3.08718 0
M  V30 4370 H 419.941 1.43756 3.52191 0
M  V30 4371 H 421.253 1.68005 4.69655 0
M  V30 4372 H 420.407 -0.239368 6.06228 0
M  V30 4373 H 419.146 -0.576401 4.84282 0
M  V30 4374 H 418.151 1.69571 5.22997 0
M  V30 4375 H 419.376 2.02332 6.48258 0
M  V30 4376 H 417.322 -0.219486 6.55633 0
M  V30 4377 H 417.239 1.26065 7.45415 0
M  V30 4378 H 418.507 0.121095 7.79406 0
M  V30 4379 N 422.737 -1.36956 0.779787 0
M  V30 4380 C 423.684 -2.30175 0.169697 0
M  V30 4381 C 424.654 -1.51501 -0.68094 0
M  V30 4382 O 425.839 -1.80042 -0.631629 0
M  V30 4383 C 422.979 -3.37985 -0.697131 0
M  V30 4384 C 422.092 -4.31661 0.170992 0
M  V30 4385 C 421.227 -5.2655 -0.701298 0
M  V30 4386 C 420.266 -6.11867 0.168869 0
M  V30 4387 N 419.403 -6.98973 -0.661855 0
M  V30 4388 H 424.243 -2.81767 0.970135 0
M  V30 4389 H 421.78 -1.38699 0.489994 0
M  V30 4390 H 423.738 -3.99128 -1.2146 0
M  V30 4391 H 422.368 -2.87739 -1.46309 0
M  V30 4392 H 421.42 -3.71756 0.80634 0
M  V30 4393 H 422.732 -4.91644 0.841875 0
M  V30 4394 H 421.886 -5.92937 -1.28494 0
M  V30 4395 H 420.625 -4.66998 -1.40584 0
M  V30 4396 H 419.63 -5.44452 0.764986 0
M  V30 4397 H 420.855 -6.73493 0.870863 0
M  V30 4398 H 418.801 -6.41941 -1.35086 0
M  V30 4399 H 418.718 -7.55984 -0.0484447 0
M  V30 4400 H 419.986 -7.6974 -1.22963 0
M  V30 4401 N 424.215 -0.530993 -1.48385 0
M  V30 4402 C 425.492 0.0671788 -1.95485 0
M  V30 4403 C 425.872 1.51191 -1.47324 0
M  V30 4404 O 425.22 2.17507 -0.700202 0
M  V30 4405 C 425.43 -0.0511206 -3.48963 0
M  V30 4406 C 426.778 0.107632 -4.24464 0
M  V30 4407 O 427.802 0.0226248 -3.56193 0
M  V30 4408 O 426.661 0.285972 -5.45751 0
M  V30 4409 H 423.755 0.0787365 -0.823243 0
M  V30 4410 H 426.301 -0.595662 -1.58902 0
M  V30 4411 H 425.073 -1.05747 -3.7674 0
M  V30 4412 H 424.696 0.650525 -3.92242 0
M  V30 4413 N 425.693 1.55336 -0.266172 0
M  V30 4414 C 426.623 2.25146 0.618981 0
M  V30 4415 C 427.604 1.23845 1.16604 0
M  V30 4416 O 428.789 1.52544 1.20183 0
M  V30 4417 C 425.919 2.96572 1.80728 0
M  V30 4418 C 424.873 4.04726 1.39215 0
M  V30 4419 C 424.199 4.63678 2.66283 0
M  V30 4420 C 425.499 5.19407 0.548942 0
M  V30 4421 H 427.193 2.99377 0.0368116 0
M  V30 4422 H 424.739 1.43991 0.0162651 0
M  V30 4423 H 426.692 3.44116 2.43232 0
M  V30 4424 H 425.416 2.19861 2.41514 0
M  V30 4425 H 424.075 3.57979 0.790351 0
M  V30 4426 H 423.723 3.83646 3.25308 0
M  V30 4427 H 423.423 5.367 2.39222 0
M  V30 4428 H 424.947 5.13967 3.29651 0
M  V30 4429 H 426.361 5.63059 1.07876 0
M  V30 4430 H 424.758 5.98936 0.373593 0
M  V30 4431 H 425.828 4.8295 -0.434394 0
M  V30 4432 N 427.171 -0.0066808 1.57599 0
M  V30 4433 C 428.582 -0.550379 1.78403 0
M  V30 4434 C 428.933 -1.74339 0.900014 0
M  V30 4435 O 428.058 -2.16166 0.100713 0
M  V30 4436 C 428.653 -1.00523 3.23544 0
M  V30 4437 C 427.212 -1.49428 3.45468 0
M  V30 4438 C 426.359 -0.442444 2.73748 0
M  V30 4439 H 429.31 0.219508 1.57175 0
M  V30 4440 H 429.331 -1.87157 3.31289 0
M  V30 4441 H 428.843 -0.136735 3.87859 0
M  V30 4442 H 426.944 -2.3839 2.86358 0
M  V30 4443 H 427.057 -1.52635 4.54136 0
M  V30 4444 H 425.421 -0.902578 2.38171 0
M  V30 4445 H 426.204 0.416973 3.40758 0
M  V30 4446 N 428.649 -1.55105 -0.279332 0
M  V30 4447 C 429.579 -1.90557 -1.34945 0
M  V30 4448 C 430.56 -0.766738 -1.51839 0
M  V30 4449 O 431.745 -1.02434 -1.64988 0
M  V30 4450 C 428.875 -2.17193 -2.71006 0
M  V30 4451 C 427.829 -3.33021 -2.68851 0
M  V30 4452 C 427.155 -3.45123 -4.08405 0
M  V30 4453 C 428.455 -4.69578 -2.28678 0
M  V30 4454 H 430.149 -2.80188 -1.05522 0
M  V30 4455 H 427.695 -1.34811 -0.506173 0
M  V30 4456 H 429.648 -2.40581 -3.45975 0
M  V30 4457 H 428.372 -1.24355 -3.01999 0
M  V30 4458 H 427.031 -3.0959 -1.9634 0
M  V30 4459 H 426.679 -2.49762 -4.3661 0
M  V30 4460 H 426.379 -4.22995 -4.07859 0
M  V30 4461 H 427.903 -3.70796 -4.85121 0
M  V30 4462 H 429.317 -4.92553 -2.93368 0
M  V30 4463 H 427.714 -5.5032 -2.39306 0
M  V30 4464 H 428.784 -4.68828 -1.23807 0
M  V30 4465 N 430.127 0.543554 -1.4793 0
M  V30 4466 C 431.037 1.67657 -1.64098 0
M  V30 4467 C 432.053 1.65934 -0.523622 0
M  V30 4468 O 433.229 1.85133 -0.792943 0
M  V30 4469 C 430.294 3.04146 -1.66421 0
M  V30 4470 C 429.355 3.16831 -2.89684 0
M  V30 4471 C 428.588 4.46809 -2.91886 0
M  V30 4472 O 428.811 5.33095 -2.02895 0
M  V30 4473 O 427.745 4.63573 -3.83906 0
M  V30 4474 H 431.571 1.56957 -2.59997 0
M  V30 4475 H 429.156 0.715116 -1.31173 0
M  V30 4476 H 431.038 3.85346 -1.70548 0
M  V30 4477 H 429.713 3.152 -0.736923 0
M  V30 4478 H 428.62 2.34977 -2.91095 0
M  V30 4479 H 429.953 3.10687 -3.81752 0
M  V30 4480 N 431.605 1.3629 0.791371 0
M  V30 4481 C 432.515 1.32606 1.93527 0
M  V30 4482 C 433.531 0.228541 1.72493 0
M  V30 4483 O 434.707 0.460571 1.96063 0
M  V30 4484 C 431.772 1.11271 3.28359 0
M  V30 4485 C 430.833 2.3048 3.62185 0
M  V30 4486 C 430.066 2.10154 4.90583 0
M  V30 4487 O 430.289 1.07572 5.60165 0
M  V30 4488 O 429.223 2.97884 5.23019 0
M  V30 4489 H 433.049 2.28909 1.99585 0
M  V30 4490 H 430.634 1.16818 0.931344 0
M  V30 4491 H 432.516 1.01283 4.09047 0
M  V30 4492 H 431.191 0.180292 3.23198 0
M  V30 4493 H 430.098 2.46036 2.81811 0
M  V30 4494 H 431.431 3.22221 3.72068 0
M  V30 4495 N 433.083 -1.0153 1.20538 0
M  V30 4496 C 434.332 -1.74558 1.01057 0
M  V30 4497 C 434.645 -1.90168 -0.457756 0
M  V30 4498 O 435.851 -2.60301 -0.771722 0
M  V30 4499 C 434.307 -3.13963 1.75941 0
M  V30 4500 C 433.915 -3.06361 3.26875 0
M  V30 4501 C 435.659 -3.91191 1.64832 0
M  V30 4502 C 433.566 -4.40782 3.94291 0
M  V30 4503 H 432.496 -0.654417 0.374505 0
M  V30 4504 H 435.147 -1.13521 1.44171 0
M  V30 4505 H 433.529 -3.75549 1.25614 0
M  V30 4506 H 434.703 -2.54074 3.84425 0
M  V30 4507 H 433.018 -2.42625 3.38411 0
M  V30 4508 H 435.615 -4.90644 2.12539 0
M  V30 4509 H 435.958 -4.11884 0.604745 0
M  V30 4510 H 436.491 -3.36236 2.12579 0
M  V30 4511 H 433.23 -4.25292 4.98805 0
M  V30 4512 H 432.75 -4.9307 3.41529 0
M  V30 4513 H 434.429 -5.09621 3.98617 0
M  V30 4514 N 434.561 -1.01147 -1.20859 0
M  V30 4515 C 435.471 -0.58686 -2.27141 0
M  V30 4516 C 436.487 0.373198 -1.69951 0
M  V30 4517 O 437.663 0.235423 -2.00019 0
M  V30 4518 C 434.728 0.0733602 -3.46622 0
M  V30 4519 C 433.789 -0.931995 -4.19061 0
M  V30 4520 C 433.022 -0.303186 -5.32838 0
M  V30 4521 O 433.245 0.898395 -5.63281 0
M  V30 4522 O 432.179 -1.01735 -5.9324 0
M  V30 4523 H 436.005 -1.47155 -2.65667 0
M  V30 4524 H 433.59 -0.780689 -1.2738 0
M  V30 4525 H 435.472 0.442333 -4.19072 0
M  V30 4526 H 434.147 0.932329 -3.09983 0
M  V30 4527 H 433.054 -1.35224 -3.48805 0
M  V30 4528 H 434.387 -1.76076 -4.59628 0
M  V30 4529 N 436.039 1.36541 -0.78704 0
M  V30 4530 C 436.971 2.28761 -0.141773 0
M  V30 4531 C 437.984 1.49365 0.647599 0
M  V30 4532 O 439.173 1.71836 0.483173 0
M  V30 4533 C 436.273 3.28771 0.822368 0
M  V30 4534 C 435.446 4.3732 0.0835594 0
M  V30 4535 C 434.505 5.17307 0.963296 0
M  V30 4536 O 433.531 5.67638 0.421419 0
M  V30 4537 N 434.733 5.33515 2.28784 0
M  V30 4538 H 437.498 2.84777 -0.933919 0
M  V30 4539 H 435.059 1.48682 -0.640735 0
M  V30 4540 H 437.051 3.79169 1.41468 0
M  V30 4541 H 435.621 2.73412 1.5154 0
M  V30 4542 H 434.841 3.88118 -0.689809 0
M  V30 4543 H 436.129 5.0701 -0.426358 0
M  V30 4544 H 435.527 4.94234 2.75226 0
M  V30 4545 H 434.084 5.87165 2.82985 0
M  V30 4546 N 437.518 0.538854 1.48102 0
M  V30 4547 C 438.767 0.0059532 2.01699 0
M  V30 4548 C 439.08 -1.34476 1.42041 0
M  V30 4549 O 440.286 -1.96653 1.87189 0
M  V30 4550 C 438.742 -0.0397627 3.59878 0
M  V30 4551 C 438.35 1.30659 4.28523 0
M  V30 4552 C 440.094 -0.521024 4.2129 0
M  V30 4553 C 438.001 1.22098 5.78659 0
M  V30 4554 H 436.931 -0.00154456 0.753998 0
M  V30 4555 H 439.582 0.683963 1.70277 0
M  V30 4556 H 437.964 -0.783037 3.88181 0
M  V30 4557 H 439.138 2.06613 4.11883 0
M  V30 4558 H 437.453 1.7243 3.79021 0
M  V30 4559 H 440.05 -0.603184 5.31287 0
M  V30 4560 H 440.393 -1.52885 3.8721 0
M  V30 4561 H 440.926 0.166834 3.9745 0
M  V30 4562 H 437.665 2.20424 6.17328 0
M  V30 4563 H 437.185 0.50295 5.97688 0
M  V30 4564 H 438.864 0.915345 6.40492 0
M  V30 4565 N 438.996 -1.55193 0.274407 0
M  V30 4566 C 440.245 -1.98758 -0.343213 0
M  V30 4567 C 440.558 -1.16624 -1.5703 0
M  V30 4568 O 441.764 -1.5033 -2.26082 0
M  V30 4569 C 440.22 -3.53759 -0.661996 0
M  V30 4570 C 439.828 -4.4467 0.54524 0
M  V30 4571 C 441.572 -4.05916 -1.24228 0
M  V30 4572 C 439.479 -5.91058 0.201084 0
M  V30 4573 H 438.409 -0.742353 -0.132014 0
M  V30 4574 H 441.06 -1.79545 0.378948 0
M  V30 4575 H 439.442 -3.68772 -1.44304 0
M  V30 4576 H 440.616 -4.41426 1.32212 0
M  V30 4577 H 438.931 -4.03143 1.04232 0
M  V30 4578 H 441.528 -5.12831 -1.51357 0
M  V30 4579 H 441.871 -3.54908 -2.17592 0
M  V30 4580 H 442.404 -3.9434 -0.523542 0
M  V30 4581 H 439.143 -6.46161 1.10258 0
M  V30 4582 H 438.663 -5.97373 -0.539045 0
M  V30 4583 H 440.342 -6.46669 -0.206954 0
M  V30 4584 N 440.474 -0.00167713 -1.576 0
M  V30 4585 C 441.437 0.974046 -2.07473 0
M  V30 4586 C 442.437 1.27143 -0.984444 0
M  V30 4587 O 443.627 1.21633 -1.24703 0
M  V30 4588 C 440.759 2.29849 -2.51759 0
M  V30 4589 H 441.952 0.54262 -2.9495 0
M  V30 4590 H 439.505 0.245829 -1.54355 0
M  V30 4591 H 440.24 2.77677 -1.67529 0
M  V30 4592 H 440.025 2.09584 -3.31386 0
M  V30 4593 H 441.515 2.9984 -2.90664 0
M  V30 4594 N 441.952 1.55251 0.271103 0
M  V30 4595 C 443.177 1.80306 1.02491 0
M  V30 4596 C 443.602 0.575457 1.79081 0
M  V30 4597 O 442.96 -0.474987 1.74967 0
M  V30 4598 C 443.008 3.02832 1.95768 0
M  V30 4599 O 442.112 2.78051 3.04568 0
M  V30 4600 H 441.453 0.595896 0.292923 0
M  V30 4601 H 443.983 2.02397 0.299436 0
M  V30 4602 H 443.993 3.31616 2.37686 0
M  V30 4603 H 442.668 3.9183 1.39434 0
M  V30 4604 H 441.245 2.60369 2.66951 0
M  V30 4605 N 443.43 -0.535701 1.48216 0
M  V30 4606 C 444.38 -1.63688 1.58714 0
M  V30 4607 C 445.364 -1.54635 0.444615 0
M  V30 4608 O 446.556 -1.62753 0.695742 0
M  V30 4609 C 443.685 -3.02423 1.62466 0
M  V30 4610 C 442.771 -3.16601 2.82178 0
M  V30 4611 N 443.162 -3.00771 4.06658 0
M  V30 4612 C 441.46 -3.47645 2.79391 0
M  V30 4613 C 442.161 -3.18213 4.86945 0
M  V30 4614 N 441.137 -3.45528 4.19656 0
M  V30 4615 H 444.939 -1.5005 2.5271 0
M  V30 4616 H 442.453 -0.741018 1.44508 0
M  V30 4617 H 444.45 -3.81517 1.6808 0
M  V30 4618 H 443.11 -3.17157 0.695826 0
M  V30 4619 H 444.121 -2.77652 4.37184 0
M  V30 4620 H 440.798 -3.68771 1.95739 0
M  V30 4621 H 442.188 -3.1076 5.95716 0
M  V30 4622 N 444.908 -1.36708 -0.784132 0
M  V30 4623 C 445.856 -1.31533 -1.91838 0
M  V30 4624 C 446.85 -0.206205 -1.6814 0
M  V30 4625 O 448.056 -0.373519 -1.76082 0
M  V30 4626 H 444.431 -0.409613 -0.630651 0
M  V30 4627 H 446.402 -2.2731 -1.9332 0
M  V30 4628 C 445.151 -1.12679 -3.28936 0
M  V30 4629 H 444.474 -1.97274 -3.4774 0
M  V30 4630 H 445.914 -1.13106 -4.08636 0
M  V30 4631 C 444.373 0.168281 -3.36479 0
M  V30 4632 O 444.903 1.15625 -3.84699 0
M  V30 4633 N 443.109 0.214762 -2.89805 0
M  V30 4634 H 442.656 -0.589852 -2.50756 0
M  V30 4635 H 442.614 1.08094 -2.95234 0
M  V30 4636 N 446.386 1.0089 -1.21074 0
M  V30 4637 C 447.296 2.13039 -0.982425 0
M  V30 4638 C 448.312 1.73881 0.0642161 0
M  V30 4639 O 449.488 2.01012 -0.12496 0
M  V30 4640 C 446.553 3.42377 -0.545803 0
M  V30 4641 C 445.614 3.95731 -1.6642 0
M  V30 4642 C 444.847 5.18896 -1.24832 0
M  V30 4643 O 445.07 5.70273 -0.120265 0
M  V30 4644 O 444.004 5.65597 -2.05873 0
M  V30 4645 H 447.83 2.35175 -1.92163 0
M  V30 4646 H 445.415 1.1142 -0.995285 0
M  V30 4647 H 447.297 4.20244 -0.311912 0
M  V30 4648 H 445.972 3.21639 0.364727 0
M  V30 4649 H 444.879 3.19108 -1.95246 0
M  V30 4650 H 446.212 4.20872 -2.55201 0
M  V30 4651 N 447.864 1.01787 1.20321 0
M  V30 4652 C 449.11 0.718699 1.90279 0
M  V30 4653 C 449.465 -0.743669 1.77447 0
M  V30 4654 O 448.758 -1.53345 1.14874 0
M  V30 4655 C 448.952 1.09076 3.40349 0
M  V30 4656 C 448.781 2.58775 3.67784 0
M  V30 4657 C 447.551 3.25578 3.86428 0
M  V30 4658 C 449.749 3.56966 3.70243 0
M  V30 4659 N 447.731 4.64495 4.01395 0
M  V30 4660 C 449.102 4.8145 3.90649 0
M  V30 4661 C 451.157 3.5092 3.53213 0
M  V30 4662 C 449.86 6.00619 3.95789 0
M  V30 4663 C 451.886 4.69493 3.59625 0
M  V30 4664 C 451.248 5.92786 3.80505 0
M  V30 4665 H 447.347 0.31468 0.715891 0
M  V30 4666 H 449.931 1.30295 1.44677 0
M  V30 4667 H 448.102 0.534839 3.847 0
M  V30 4668 H 449.834 0.744997 3.97784 0
M  V30 4669 H 446.589 2.76003 3.84862 0
M  V30 4670 H 447.013 5.36624 4.12752 0
M  V30 4671 H 451.655 2.56593 3.36035 0
M  V30 4672 H 449.373 6.95326 4.11762 0
M  V30 4673 H 452.959 4.66432 3.47754 0
M  V30 4674 H 451.839 6.83003 3.85327 0
M  V30 4675 N 449.342 -1.36122 0.79427 0
M  V30 4676 C 450.588 -1.99406 0.369452 0
M  V30 4677 C 450.921 -1.62886 -1.05743 0
M  V30 4678 O 450.196 -0.886053 -1.73145 0
M  V30 4679 C 450.479 -3.56046 0.538833 0
M  V30 4680 C 450.332 -4.02404 2.00976 0
M  V30 4681 C 451.651 -4.40079 -0.0431359 0
M  V30 4682 H 448.77 -0.724397 0.135712 0
M  V30 4683 H 451.412 -1.61461 1.00151 0
M  V30 4684 H 449.562 -3.885 0.000771004 0
M  V30 4685 H 451.234 -3.80415 2.60926 0
M  V30 4686 H 449.477 -3.53765 2.51063 0
M  V30 4687 H 450.148 -5.11344 2.07922 0
M  V30 4688 H 452.624 -4.14013 0.416228 0
M  V30 4689 H 451.5 -5.48799 0.105374 0
M  V30 4690 H 451.761 -4.27264 -1.13571 0
M  V30 4691 N 450.82 -0.546701 -1.47814 0
M  V30 4692 C 451.767 0.206854 -2.29871 0
M  V30 4693 C 452.737 0.918235 -1.38411 0
M  V30 4694 O 453.922 0.915991 -1.67375 0
M  V30 4695 C 451.062 1.23746 -3.22151 0
M  V30 4696 C 450.175 0.533216 -4.28697 0
M  V30 4697 C 449.31 1.5482 -5.08138 0
M  V30 4698 C 448.349 0.828347 -6.06469 0
M  V30 4699 N 447.486 1.78966 -6.78908 0
M  V30 4700 H 452.326 -0.499037 -2.93792 0
M  V30 4701 H 449.863 -0.25793 -1.44821 0
M  V30 4702 H 451.821 1.84746 -3.74065 0
M  V30 4703 H 450.451 1.91151 -2.60117 0
M  V30 4704 H 449.503 -0.191089 -3.7992 0
M  V30 4705 H 450.815 -0.0311987 -4.9879 0
M  V30 4706 H 449.969 2.23202 -5.6415 0
M  V30 4707 H 448.708 2.14652 -4.37922 0
M  V30 4708 H 447.713 0.130539 -5.49645 0
M  V30 4709 H 448.938 0.235907 -6.7869 0
M  V30 4710 H 446.884 2.37675 -6.1143 0
M  V30 4711 H 446.801 1.27712 -7.45135 0
M  V30 4712 H 448.069 2.46496 -7.395 0
M  V30 4713 N 452.299 1.55045 -0.282633 0
M  V30 4714 C 453.545 2.00056 0.332481 0
M  V30 4715 C 453.878 1.1708 1.54939 0
M  V30 4716 O 453.153 0.2427 1.9298 0
M  V30 4717 C 453.436 3.53086 0.70725 0
M  V30 4718 C 453.289 4.46813 -0.517521 0
M  V30 4719 C 454.608 4.12245 1.54084 0
M  V30 4720 H 451.727 0.727268 0.119373 0
M  V30 4721 H 454.369 1.85932 -0.391076 0
M  V30 4722 H 452.519 3.65253 1.32372 0
M  V30 4723 H 454.191 4.46579 -1.15607 0
M  V30 4724 H 452.434 4.18163 -1.1542 0
M  V30 4725 H 453.105 5.51595 -0.211426 0
M  V30 4726 H 455.581 4.03401 1.02013 0
M  V30 4727 H 454.457 5.19515 1.77186 0
M  V30 4728 H 454.718 3.62951 2.52427 0
M  V30 4729 N 453.777 0.010035 1.57597 0
M  V30 4730 C 455.026 -0.671945 1.90178 0
M  V30 4731 C 455.339 -1.74376 0.886131 0
M  V30 4732 O 456.545 -2.48107 1.10252 0
M  V30 4733 C 455.001 -1.24636 3.3763 0
M  V30 4734 C 454.609 -0.208838 4.47513 0
M  V30 4735 C 456.353 -1.90595 3.79307 0
M  V30 4736 C 454.26 -0.793814 5.86048 0
M  V30 4737 H 453.19 -0.25474 0.709665 0
M  V30 4738 H 455.841 0.0722206 1.83358 0
M  V30 4739 H 454.223 -2.04152 3.3932 0
M  V30 4740 H 455.397 0.562463 4.57354 0
M  V30 4741 H 453.712 0.350889 4.14919 0
M  V30 4742 H 456.309 -2.35284 4.80151 0
M  V30 4743 H 456.652 -2.74074 3.13352 0
M  V30 4744 H 457.185 -1.17798 3.79958 0
M  V30 4745 H 453.924 0.00240855 6.555 0
M  V30 4746 H 453.444 -1.53404 5.79851 0
M  V30 4747 H 455.123 -1.2894 6.34022 0
M  V30 4748 N 455.255 -1.55392 -0.262866 0
M  V30 4749 C 456.666 -1.67079 -0.833158 0
M  V30 4750 C 457.017 -0.604539 -1.86654 0
M  V30 4751 O 456.142 0.252138 -2.14926 0
M  V30 4752 C 456.737 -3.02891 -1.51797 0
M  V30 4753 C 455.296 -3.16571 -2.03617 0
M  V30 4754 C 454.443 -2.62909 -0.881701 0
M  V30 4755 H 457.394 -1.58652 -0.0389986 0
M  V30 4756 H 457.415 -2.96445 -2.38538 0
M  V30 4757 H 456.927 -3.80473 -0.765619 0
M  V30 4758 H 455.028 -2.43782 -2.81782 0
M  V30 4759 H 455.141 -4.23271 -2.24452 0
M  V30 4760 H 453.505 -2.20324 -1.27786 0
M  V30 4761 H 454.288 -3.43003 -0.14269 0
M  V30 4762 N 456.733 0.527833 -1.48498 0
M  V30 4763 C 457.681 1.65313 -1.63628 0
M  V30 4764 C 458.675 1.6177 -0.502676 0
M  V30 4765 O 459.881 1.66601 -0.681469 0
M  V30 4766 H 456.256 0.547518 -0.515488 0
M  V30 4767 H 458.227 1.49696 -2.58135 0
M  V30 4768 C 456.976 3.03576 -1.6952 0
M  V30 4769 H 456.299 3.06997 -2.56111 0
M  V30 4770 H 457.739 3.81923 -1.84149 0
M  V30 4771 C 456.198 3.34089 -0.43432 0
M  V30 4772 O 456.728 3.99151 0.451852 0
M  V30 4773 N 454.934 2.88991 -0.305368 0
M  V30 4774 H 454.481 2.36222 -1.02747 0
M  V30 4775 H 454.439 3.09776 0.537249 0
M  V30 4776 N 458.211 1.37122 0.776871 0
M  V30 4777 C 459.488 1.22586 1.52421 0
M  V30 4778 C 459.868 -0.182726 2.10308 0
M  V30 4779 O 459.216 -1.18979 1.9508 0
M  V30 4780 C 459.426 2.31782 2.60918 0
M  V30 4781 C 460.774 2.69071 3.2846 0
M  V30 4782 O 461.798 2.3092 2.71209 0
M  V30 4783 O 460.657 3.3478 4.31954 0
M  V30 4784 H 457.751 0.478045 0.674835 0
M  V30 4785 H 460.297 1.48888 0.814275 0
M  V30 4786 H 459.069 3.26131 2.16227 0
M  V30 4787 H 458.692 2.06916 3.39517 0
M  V30 4788 N 459.689 -1.00246 1.21608 0
M  V30 4789 C 460.636 -2.09073 0.977613 0
M  V30 4790 C 461.606 -1.65815 -0.097297 0
M  V30 4791 O 462.791 -1.90734 0.0503445 0
M  V30 4792 C 459.931 -3.40671 0.551133 0
M  V30 4793 C 459.044 -3.97326 1.69576 0
M  V30 4794 C 458.179 -5.17043 1.2182 0
M  V30 4795 C 457.218 -5.65813 2.335 0
M  V30 4796 N 456.355 -6.76778 1.86859 0
M  V30 4797 H 461.195 -2.28806 1.90924 0
M  V30 4798 H 458.732 -1.12186 0.951452 0
M  V30 4799 H 460.69 -4.16225 0.285097 0
M  V30 4800 H 459.32 -3.20967 -0.343489 0
M  V30 4801 H 458.372 -3.18734 2.07637 0
M  V30 4802 H 459.684 -4.29511 2.53617 0
M  V30 4803 H 458.838 -5.99852 0.908975 0
M  V30 4804 H 457.577 -4.86458 0.347869 0
M  V30 4805 H 456.582 -4.81599 2.65222 0
M  V30 4806 H 457.807 -5.98427 3.21033 0
M  V30 4807 H 455.753 -6.47994 1.02174 0
M  V30 4808 H 455.67 -7.08231 2.64471 0
M  V30 4809 H 456.938 -7.63116 1.58978 0
M  V30 4810 N 461.167 -1.02423 -1.1978 0
M  V30 4811 C 462.077 -0.610919 -2.26506 0
M  V30 4812 C 463.093 0.355152 -1.70337 0
M  V30 4813 O 464.269 0.214195 -2.00258 0
M  V30 4814 C 461.334 0.0365921 -3.46681 0
M  V30 4815 C 460.395 -0.976389 -4.18049 0
M  V30 4816 C 459.628 -0.359683 -5.32487 0
M  V30 4817 O 459.851 0.838601 -5.64202 0
M  V30 4818 O 458.785 -1.08022 -5.92127 0
M  V30 4819 H 462.611 -1.49965 -2.64091 0
M  V30 4820 H 460.196 -0.794156 -1.26545 0
M  V30 4821 H 462.078 0.39786 -4.19518 0
M  V30 4822 H 460.753 0.899398 -3.10954 0
M  V30 4823 H 459.66 -1.38916 -3.47352 0
M  V30 4824 H 460.993 -1.80941 -4.57735 0
M  V30 4825 N 462.645 1.35699 -0.801477 0
M  V30 4826 C 463.894 1.98165 -0.375979 0
M  V30 4827 C 464.207 1.64306 1.06127 0
M  V30 4828 O 465.413 2.20097 1.58964 0
M  V30 4829 C 463.869 3.54497 -0.621305 0
M  V30 4830 C 463.477 3.9727 -2.07076 0
M  V30 4831 C 465.221 4.23697 -0.26091 0
M  V30 4832 C 463.128 5.46427 -2.26211 0
M  V30 4833 H 462.058 0.741478 -0.136844 0
M  V30 4834 H 464.709 1.54834 -0.984814 0
M  V30 4835 H 463.091 3.95958 0.0574112 0
M  V30 4836 H 464.265 3.66974 -2.78687 0
M  V30 4837 H 462.58 3.40943 -2.39054 0
M  V30 4838 H 465.177 5.33334 -0.381994 0
M  V30 4839 H 465.52 4.0869 0.792344 0
M  V30 4840 H 466.053 3.87639 -0.893339 0
M  V30 4841 H 462.792 5.66396 -3.29963 0
M  V30 4842 H 462.312 5.78309 -1.59119 0
M  V30 4843 H 463.991 6.12819 -2.07513 0
M  V30 4844 N 464.123 0.554532 1.47522 0
M  V30 4845 C 465.351 0.034257 2.06872 0
M  V30 4846 C 465.766 -1.25826 1.40759 0
M  V30 4847 O 465.123 -1.75425 0.503217 0
M  V30 4848 C 465.174 -0.167827 3.6111 0
M  V30 4849 O 464.895 1.07351 4.24744 0
M  V30 4850 C 466.396 -0.72569 4.3732 0
M  V30 4851 H 463.616 0.0446275 0.669514 0
M  V30 4852 H 466.16 0.767181 1.89564 0
M  V30 4853 H 464.315 -0.850872 3.7794 0
M  V30 4854 H 464.729 0.869563 5.17242 0
M  V30 4855 H 466.203 -0.816394 5.45929 0
M  V30 4856 H 466.68 -1.73635 4.0342 0
M  V30 4857 H 467.286 -0.0784292 4.25228 0
M  V30 4858 N 465.601 -1.54893 0.290851 0
M  V30 4859 C 466.531 -2.26103 -0.583084 0
M  V30 4860 C 467.512 -1.25684 -1.14619 0
M  V30 4861 O 468.697 -1.54436 -1.17741 0
M  V30 4862 C 465.827 -2.99409 -1.75987 0
M  V30 4863 C 464.781 -4.0689 -1.32758 0
M  V30 4864 C 464.107 -4.67856 -2.58872 0
M  V30 4865 C 465.407 -5.20215 -0.46624 0
M  V30 4866 H 467.101 -2.99398 0.0108214 0
M  V30 4867 H 464.647 -1.43998 0.00664468 0
M  V30 4868 H 466.6 -3.47943 -2.37727 0
M  V30 4869 H 465.324 -2.23675 -2.37985 0
M  V30 4870 H 463.983 -3.59191 -0.733299 0
M  V30 4871 H 463.631 -3.88772 -3.19163 0
M  V30 4872 H 463.331 -5.40438 -2.30653 0
M  V30 4873 H 464.855 -5.19147 -3.21433 0
M  V30 4874 H 466.269 -5.64704 -0.989047 0
M  V30 4875 H 464.666 -5.99455 -0.27826 0
M  V30 4876 H 465.736 -4.82198 0.511173 0
M  V30 4877 N 467.08 -0.0183926 -1.57589 0
M  V30 4878 C 468.496 0.337897 -1.55982 0
M  V30 4879 C 468.696 1.73604 -1.02294 0
M  V30 4880 O 467.752 2.43589 -0.664895 0
M  V30 4881 C 469.065 0.196305 -3.00059 0
M  V30 4882 C 470.613 0.269875 -3.11834 0
M  V30 4883 C 471.088 0.157197 -4.5773 0
M  V30 4884 N 472.579 0.214521 -4.62703 0
M  V30 4885 C 473.314 0.150955 -5.73201 0
M  V30 4886 N 472.81 0.0369212 -6.9279 0
M  V30 4887 N 474.603 0.204162 -5.61729 0
M  V30 4888 H 466.754 -0.93279 -1.90821 0
M  V30 4889 H 469.017 -0.359253 -0.877292 0
M  V30 4890 H 468.723 -0.766383 -3.43248 0
M  V30 4891 H 468.597 0.970908 -3.6449 0
M  V30 4892 H 470.984 1.22302 -2.68563 0
M  V30 4893 H 471.065 -0.534918 -2.50144 0
M  V30 4894 H 470.709 -0.792479 -5.01679 0
M  V30 4895 H 470.639 0.980717 -5.17387 0
M  V30 4896 H 473.13 0.303238 -3.76681 0
M  V30 4897 H 473.443 -0.00518321 -7.728 0
M  V30 4898 H 471.788 0.0022886 -6.95 0
M  V30 4899 H 474.979 0.291575 -4.67191 0
M  V30 4900 H 475.152 0.15116 -6.47824 0
M  V30 4901 N 468.558 1.5553 0.254621 0
M  V30 4902 C 469.468 1.92789 1.33677 0
M  V30 4903 C 470.484 0.827356 1.53071 0
M  V30 4904 O 471.66 1.12807 1.66843 0
M  V30 4905 C 468.725 2.20827 2.67275 0
M  V30 4906 C 467.786 3.4427 2.5647 0
M  V30 4907 C 467.019 3.70961 3.83697 0
M  V30 4908 O 467.242 2.99852 4.85227 0
M  V30 4909 O 466.176 4.64491 3.82794 0
M  V30 4910 H 470.002 2.84945 1.05071 0
M  V30 4911 H 467.587 1.42312 0.454723 0
M  V30 4912 H 469.469 2.40204 3.46237 0
M  V30 4913 H 468.144 1.31851 2.9563 0
M  V30 4914 H 467.051 3.30209 1.75821 0
M  V30 4915 H 468.384 4.33524 2.33062 0
M  V30 4916 N 470.036 -0.519951 1.48776 0
M  V30 4917 C 470.966 -1.63253 1.66945 0
M  V30 4918 C 471.947 -1.62014 0.518224 0
M  V30 4919 O 473.132 -1.79053 0.751919 0
M  V30 4920 C 470.262 -3.0181 1.71836 0
M  V30 4921 C 469.216 -3.17911 2.8656 0
M  V30 4922 C 468.542 -4.5763 2.76548 0
M  V30 4923 C 469.842 -2.99729 4.27738 0
M  V30 4924 H 471.536 -1.48302 2.6009 0
M  V30 4925 H 469.082 -0.712026 1.25165 0
M  V30 4926 H 471.035 -3.79525 1.83135 0
M  V30 4927 H 469.759 -3.17806 0.752775 0
M  V30 4928 H 468.418 -2.42616 2.74833 0
M  V30 4929 H 468.066 -4.70476 1.77937 0
M  V30 4930 H 467.766 -4.69346 3.53536 0
M  V30 4931 H 469.29 -5.37431 2.89828 0
M  V30 4932 H 470.704 -3.67228 4.40246 0
M  V30 4933 H 469.101 -3.22932 5.05801 0
M  V30 4934 H 470.171 -1.96047 4.43502 0
M  V30 4935 N 471.514 -1.37532 -0.769588 0
M  V30 4936 C 472.742 -1.36059 -1.55871 0
M  V30 4937 C 473.157 0.053544 -1.88724 0
M  V30 4938 O 472.514 1.01591 -1.5161 0
M  V30 4939 C 472.565 -2.20107 -2.86767 0
M  V30 4940 O 472.286 -3.56009 -2.55321 0
M  V30 4941 C 473.787 -2.26636 -3.80987 0
M  V30 4942 H 471.007 -0.465967 -0.482821 0
M  V30 4943 H 473.551 -1.80901 -0.953686 0
M  V30 4944 H 471.706 -1.78768 -3.43687 0
M  V30 4945 H 472.12 -4.0009 -3.39158 0
M  V30 4946 H 473.594 -2.89763 -4.69831 0
M  V30 4947 H 474.071 -1.2754 -4.20274 0
M  V30 4948 H 474.677 -2.68296 -3.29996 0
M  V30 4949 N 472.992 0.995999 -1.22138 0
M  V30 4950 C 474.403 1.54961 -1.04135 0
M  V30 4951 C 474.754 1.92159 0.396147 0
M  V30 4952 O 473.879 1.74435 1.28069 0
M  V30 4953 C 474.474 2.81581 -1.88408 0
M  V30 4954 C 473.033 3.33396 -1.74712 0
M  V30 4955 C 472.18 2.06509 -1.85066 0
M  V30 4956 H 475.131 0.817436 -1.36028 0
M  V30 4957 H 475.152 3.53822 -1.39966 0
M  V30 4958 H 474.664 2.54476 -2.93025 0
M  V30 4959 H 472.765 3.65416 -0.728159 0
M  V30 4960 H 472.878 4.04208 -2.57202 0
M  V30 4961 H 471.242 2.19925 -1.28472 0
M  V30 4962 H 472.025 1.81804 -2.91208 0
M  V30 4963 N 474.47 1.03057 1.19235 0
M  V30 4964 C 475.433 0.617418 2.20727 0
M  V30 4965 C 476.433 -0.319856 1.57587 0
M  V30 4966 O 477.623 -0.106633 1.73873 0
M  V30 4967 C 474.755 -0.096296 3.40764 0
M  V30 4968 H 475.948 1.51544 2.58794 0
M  V30 4969 H 473.501 0.821949 1.32942 0
M  V30 4970 H 474.236 -1.00859 3.08217 0
M  V30 4971 H 474.021 0.577217 3.87828 0
M  V30 4972 H 475.511 -0.372219 4.15938 0
M  V30 4973 N 475.948 -1.35272 0.808662 0
M  V30 4974 C 476.895 -2.29764 0.218482 0
M  V30 4975 C 477.865 -1.52911 -0.648652 0
M  V30 4976 O 479.05 -1.81341 -0.593297 0
M  V30 4977 C 476.19 -3.39388 -0.625282 0
M  V30 4978 C 475.303 -4.31202 0.262516 0
M  V30 4979 C 474.438 -5.27919 -0.589451 0
M  V30 4980 C 473.477 -6.11371 0.298617 0
M  V30 4981 N 472.614 -7.0022 -0.513443 0
M  V30 4982 H 477.454 -2.79645 1.02968 0
M  V30 4983 H 474.991 -1.37629 0.519303 0
M  V30 4984 H 476.949 -4.01615 -1.12966 0
M  V30 4985 H 475.579 -2.90777 -1.40173 0
M  V30 4986 H 474.631 -3.69962 0.885013 0
M  V30 4987 H 475.943 -4.89748 0.945971 0
M  V30 4988 H 475.097 -5.95529 -1.15888 0
M  V30 4989 H 473.836 -4.69875 -1.30647 0
M  V30 4990 H 472.841 -5.42707 0.880301 0
M  V30 4991 H 474.066 -6.71494 1.01352 0
M  V30 4992 H 472.012 -6.44662 -1.21439 0
M  V30 4993 H 471.929 -7.55917 0.111922 0
M  V30 4994 H 473.197 -7.72175 -1.06608 0
M  V30 4995 N 477.426 -0.562348 -1.47226 0
M  V30 4996 C 478.672 -0.0402761 -2.0276 0
M  V30 4997 C 479.005 1.30823 -1.43523 0
M  V30 4998 O 478.28 1.85249 -0.592705 0
M  V30 4999 C 478.563 0.047311 -3.60069 0
M  V30 5000 C 478.416 -1.32865 -4.29729 0
M  V30 5001 C 479.735 0.758182 -4.3352 0
M  V30 5002 H 476.854 -0.0161105 -0.736824 0
M  V30 5003 H 479.496 -0.725628 -1.75598 0
M  V30 5004 H 477.646 0.630986 -3.83342 0
M  V30 5005 H 479.318 -1.95593 -4.17781 0
M  V30 5006 H 477.561 -1.90195 -3.89882 0
M  V30 5007 H 478.232 -1.22004 -5.38349 0
M  V30 5008 H 480.708 0.262546 -4.15271 0
M  V30 5009 H 479.584 0.78844 -5.43208 0
M  V30 5010 H 479.845 1.81537 -4.03109 0
M  V30 5011 N 478.904 1.54736 -0.299062 0
M  V30 5012 C 480.132 2.04512 0.313447 0
M  V30 5013 C 480.547 1.17643 1.47667 0
M  V30 5014 O 479.904 0.20164 1.81383 0
M  V30 5015 C 479.955 3.53171 0.771542 0
M  V30 5016 O 479.676 4.36736 -0.345379 0
M  V30 5017 C 481.177 4.18936 1.4494 0
M  V30 5018 H 478.397 0.667507 0.0683784 0
M  V30 5019 H 480.941 1.99752 -0.438129 0
M  V30 5020 H 479.096 3.58298 1.47314 0
M  V30 5021 H 479.51 5.24499 0.0109219 0
M  V30 5022 H 480.984 5.24482 1.72111 0
M  V30 5023 H 481.461 3.68554 2.38883 0
M  V30 5024 H 482.067 4.17879 0.791028 0
M  V30 5025 N 480.382 0.0267497 1.57577 0
M  V30 5026 C 481.63 -0.651116 1.91324 0
M  V30 5027 C 481.951 -1.72804 0.90353 0
M  V30 5028 O 481.221 -1.95822 -0.0552946 0
M  V30 5029 H 479.801 -0.243491 0.706202 0
M  V30 5030 H 482.463 0.0739935 1.94759 0
M  V30 5031 H 481.559 -1.10536 2.9187 0
M  V30 5032 N 481.861 -1.55662 -0.24637 0
M  V30 5033 C 483.089 -1.81575 -0.991876 0
M  V30 5034 C 483.504 -0.602545 -1.78927 0
M  V30 5035 O 482.861 0.428795 -1.77391 0
M  V30 5036 C 482.912 -3.05711 -1.92933 0
M  V30 5037 O 482.633 -4.22348 -1.1642 0
M  V30 5038 C 484.134 -3.44428 -2.79078 0
M  V30 5039 H 481.354 -0.604209 -0.291844 0
M  V30 5040 H 483.898 -2.02722 -0.269095 0
M  V30 5041 H 482.053 -2.86612 -2.60638 0
M  V30 5042 H 482.467 -4.92706 -1.79835 0
M  V30 5043 H 483.941 -4.34388 -3.40603 0
M  V30 5044 H 484.418 -2.65037 -3.50217 0
M  V30 5045 H 485.024 -3.65879 -2.16824 0
M  V30 5046 N 483.339 0.512053 -1.4905 0
M  V30 5047 C 484.269 1.62365 -1.67809 0
M  V30 5048 C 485.25 1.61737 -0.526809 0
M  V30 5049 O 486.435 1.78651 -0.761404 0
M  V30 5050 C 483.565 3.00895 -1.73435 0
M  V30 5051 C 482.519 3.16387 -2.88242 0
M  V30 5052 C 481.845 4.56157 -2.78971 0
M  V30 5053 C 483.145 2.97457 -4.29321 0
M  V30 5054 H 484.839 1.46921 -2.60873 0
M  V30 5055 H 482.385 0.705379 -1.2554 0
M  V30 5056 H 484.338 3.78549 -1.85145 0
M  V30 5057 H 483.062 3.17403 -0.769619 0
M  V30 5058 H 481.721 2.41155 -2.76116 0
M  V30 5059 H 481.369 4.69525 -1.8043 0
M  V30 5060 H 481.069 4.67465 -3.5602 0
M  V30 5061 H 482.593 5.35886 -2.92675 0
M  V30 5062 H 484.007 3.64888 -4.42187 0
M  V30 5063 H 482.404 3.20245 -5.07507 0
M  V30 5064 H 483.474 1.93692 -4.44535 0
M  V30 5065 N 484.817 1.37938 0.762283 0
M  V30 5066 C 486.042 1.37059 1.55659 0
M  V30 5067 C 486.467 -0.0396123 1.88058 0
M  V30 5068 O 485.825 -1.01929 1.49934 0
M  V30 5069 C 485.873 2.22494 2.83776 0
M  V30 5070 O 484.977 1.63607 3.78559 0
M  V30 5071 H 484.318 0.467892 0.47114 0
M  V30 5072 H 486.848 1.81587 0.942725 0
M  V30 5073 H 486.858 2.36045 3.32786 0
M  V30 5074 H 485.533 3.24993 2.59524 0
M  V30 5075 H 484.11 1.5915 3.37233 0
M  V30 5076 N 486.295 -0.989507 1.22664 0
M  V30 5077 C 487.541 -1.7321 1.05481 0
M  V30 5078 C 487.874 -1.89852 -0.408635 0
M  V30 5079 O 487.149 -1.44416 -1.30285 0
M  V30 5080 C 487.432 -3.1357 1.77047 0
M  V30 5081 C 487.285 -3.04555 3.31008 0
M  V30 5082 C 488.604 -4.12812 1.5256 0
M  V30 5083 H 485.723 -0.628697 0.384589 0
M  V30 5084 H 488.365 -1.15258 1.51049 0
M  V30 5085 H 486.515 -3.63046 1.3831 0
M  V30 5086 H 488.187 -2.62674 3.7921 0
M  V30 5087 H 486.43 -2.41278 3.6051 0
M  V30 5088 H 487.101 -4.03894 3.76263 0
M  V30 5089 H 489.577 -3.72106 1.86215 0
M  V30 5090 H 488.453 -5.09132 2.05124 0
M  V30 5091 H 488.714 -4.39711 0.458936 0
M  V30 5092 N 487.773 -1.03688 -1.18687 0
M  V30 5093 C 489.184 -0.766488 -1.70241 0
M  V30 5094 C 489.535 0.713052 -1.82784 0
M  V30 5095 O 488.66 1.55529 -1.50465 0
M  V30 5096 C 489.255 -1.38475 -3.09209 0
M  V30 5097 C 487.814 -1.16276 -3.5799 0
M  V30 5098 C 486.961 -1.4778 -2.34641 0
M  V30 5099 H 489.912 -1.20378 -1.03415 0
M  V30 5100 H 489.933 -0.785939 -3.72295 0
M  V30 5101 H 489.445 -2.46157 -3.00048 0
M  V30 5102 H 487.546 -0.104508 -3.72453 0
M  V30 5103 H 487.659 -1.8571 -4.41643 0
M  V30 5104 H 486.023 -0.897366 -2.38368 0
M  V30 5105 H 486.806 -2.56562 -2.28102 0
M  V30 5106 N 489.251 1.34841 -0.815825 0
M  V30 5107 C 490.497 1.98793 -0.401129 0
M  V30 5108 C 490.83 1.64548 1.03139 0
M  V30 5109 O 490.105 0.913487 1.71714 0
M  V30 5110 C 490.388 3.55143 -0.595409 0
M  V30 5111 C 490.241 3.99155 -2.07352 0
M  V30 5112 C 491.56 4.40092 -0.0268823 0
M  V30 5113 H 488.679 0.722146 -0.14722 0
M  V30 5114 H 491.321 1.59847 -1.02707 0
M  V30 5115 H 489.471 3.8845 -0.0625779 0
M  V30 5116 H 491.143 3.76216 -2.66945 0
M  V30 5117 H 489.386 3.49726 -2.56659 0
M  V30 5118 H 490.057 5.07971 -2.1603 0
M  V30 5119 H 492.533 4.13298 -0.482042 0
M  V30 5120 H 491.409 5.48562 -0.19267 0
M  V30 5121 H 491.67 4.29016 1.06759 0
M  V30 5122 N 490.729 0.570148 1.46925 0
M  V30 5123 C 491.977 0.0508523 2.02036 0
M  V30 5124 C 492.298 -1.30885 1.44548 0
M  V30 5125 O 491.568 -1.85647 0.625453 0
M  V30 5126 H 490.148 0.0158088 0.746833 0
M  V30 5127 H 492.81 0.743086 1.80178 0
M  V30 5128 H 491.906 -0.027575 3.12088 0
M  V30 5129 N 492.207 -1.54576 0.307264 0
M  V30 5130 C 493.623 -1.59534 -0.0459251 0
M  V30 5131 C 493.823 -1.32414 -1.51884 0
M  V30 5132 O 492.879 -1.1006 -2.27251 0
M  V30 5133 C 494.192 -2.98566 0.357649 0
M  V30 5134 C 495.74 -3.11491 0.306937 0
M  V30 5135 C 496.215 -4.52842 0.685427 0
M  V30 5136 N 497.706 -4.58782 0.638203 0
M  V30 5137 C 498.441 -5.66238 0.903458 0
M  V30 5138 N 497.937 -6.81703 1.23501 0
M  V30 5139 N 499.73 -5.55937 0.830102 0
M  V30 5140 H 491.881 -1.70464 1.26712 0
M  V30 5141 H 494.144 -0.79647 0.514139 0
M  V30 5142 H 493.85 -3.23356 1.38325 0
M  V30 5143 H 493.724 -3.76117 -0.285565 0
M  V30 5144 H 496.111 -2.86446 -0.709424 0
M  V30 5145 H 496.192 -2.36081 0.984861 0
M  V30 5146 H 495.836 -4.78618 1.69963 0
M  V30 5147 H 495.766 -5.26598 -0.0146346 0
M  V30 5148 H 498.257 -3.75849 0.393138 0
M  V30 5149 H 498.57 -7.59582 1.42322 0
M  V30 5150 H 496.915 -6.8324 1.27311 0
M  V30 5151 H 500.106 -4.64608 0.570693 0
M  V30 5152 H 500.279 -6.39597 1.04019 0
M  V30 5153 N 493.685 -0.035106 -1.57561 0
M  V30 5154 C 494.615 0.942993 -2.13612 0
M  V30 5155 C 495.596 1.33531 -1.05373 0
M  V30 5156 O 496.781 1.41287 -1.33235 0
M  V30 5157 C 493.911 2.22332 -2.66807 0
M  V30 5158 C 492.865 1.97156 -3.79886 0
M  V30 5159 C 492.191 3.31506 -4.19533 0
M  V30 5160 C 493.491 1.30596 -5.05709 0
M  V30 5161 H 495.185 0.476179 -2.95589 0
M  V30 5162 H 492.731 0.227602 -1.4219 0
M  V30 5163 H 494.684 2.91142 -3.04654 0
M  V30 5164 H 493.408 2.7119 -1.81999 0
M  V30 5165 H 492.067 1.30763 -3.42486 0
M  V30 5166 H 491.715 3.78134 -3.31698 0
M  V30 5167 H 491.415 3.15465 -4.95738 0
M  V30 5168 H 492.939 4.01574 -4.59968 0
M  V30 5169 H 494.353 1.89416 -5.41105 0
M  V30 5170 H 492.75 1.24934 -5.86951 0
M  V30 5171 H 493.82 0.279742 -4.84092 0
M  V30 5172 N 495.163 1.55791 0.238111 0
M  V30 5173 C 496.579 1.48411 0.587045 0
M  V30 5174 C 496.779 0.72702 1.87927 0
M  V30 5175 O 495.835 0.259942 2.51158 0
M  V30 5176 C 497.148 2.92873 0.681623 0
M  V30 5177 C 498.696 3.03295 0.773363 0
M  V30 5178 C 499.171 4.49082 0.899428 0
M  V30 5179 N 500.662 4.53056 0.964075 0
M  V30 5180 C 501.397 5.63117 1.08104 0
M  V30 5181 N 500.893 6.82969 1.16299 0
M  V30 5182 N 502.686 5.50933 1.11488 0
M  V30 5183 H 494.837 2.0345 -0.610076 0
M  V30 5184 H 497.1 0.924034 -0.211813 0
M  V30 5185 H 496.806 3.51142 -0.19802 0
M  V30 5186 H 496.68 3.43851 1.55069 0
M  V30 5187 H 499.067 2.45101 1.64346 0
M  V30 5188 H 499.148 2.55513 -0.121034 0
M  V30 5189 H 498.792 5.07889 0.0338586 0
M  V30 5190 H 498.722 4.94553 1.809 0
M  V30 5191 H 501.213 3.66737 0.91173 0
M  V30 5192 H 501.526 7.62598 1.25155 0
M  V30 5193 H 499.871 6.85712 1.13241 0
M  V30 5194 H 503.062 4.56231 1.0474 0
M  V30 5195 H 503.235 6.36743 1.20259 0
M  V30 5196 N 496.642 -0.504142 1.49319 0
M  V30 5197 C 497.589 -1.60603 1.65756 0
M  V30 5198 C 498.559 -1.58425 0.499082 0
M  V30 5199 O 499.744 -1.76459 0.725728 0
M  V30 5200 C 496.884 -2.98764 1.72726 0
M  V30 5201 C 495.997 -3.10982 2.99857 0
M  V30 5202 C 495.132 -4.39857 2.97824 0
M  V30 5203 C 494.171 -4.45697 4.19548 0
M  V30 5204 N 493.308 -5.65995 4.15444 0
M  V30 5205 H 498.148 -1.45895 2.59843 0
M  V30 5206 H 495.685 -0.709891 1.28837 0
M  V30 5207 H 497.643 -3.78839 1.74747 0
M  V30 5208 H 496.273 -3.12183 0.821075 0
M  V30 5209 H 495.325 -2.23991 3.07461 0
M  V30 5210 H 496.637 -3.11157 3.89849 0
M  V30 5211 H 495.791 -5.2825 2.98391 0
M  V30 5212 H 494.53 -4.42242 2.05604 0
M  V30 5213 H 493.535 -3.55707 4.19229 0
M  V30 5214 H 494.76 -4.4503 5.12957 0
M  V30 5215 H 492.706 -5.69229 3.26059 0
M  V30 5216 H 492.623 -5.67773 4.99169 0
M  V30 5217 H 493.891 -6.56604 4.20109 0
M  V30 5218 N 498.12 -1.38341 -0.754957 0
M  V30 5219 C 499.05 -1.38176 -1.88227 0
M  V30 5220 C 500.031 -0.247873 -1.68284 0
M  V30 5221 O 501.216 -0.45075 -1.88896 0
M  V30 5222 C 498.346 -1.20471 -3.25736 0
M  V30 5223 C 497.3 -2.3105 -3.60278 0
M  V30 5224 C 496.626 -1.98452 -4.96509 0
M  V30 5225 C 497.926 -3.73305 -3.65295 0
M  V30 5226 H 499.62 -2.32512 -1.88622 0
M  V30 5227 H 497.166 -1.1192 -0.906082 0
M  V30 5228 H 499.119 -1.18982 -4.04254 0
M  V30 5229 H 497.843 -0.225965 -3.25817 0
M  V30 5230 H 496.502 -2.31723 -2.84078 0
M  V30 5231 H 496.15 -0.990641 -4.93148 0
M  V30 5232 H 495.85 -2.7251 -5.20588 0
M  V30 5233 H 497.374 -1.98578 -5.77407 0
M  V30 5234 H 498.788 -3.7467 -4.3393 0
M  V30 5235 H 497.185 -4.46557 -4.00883 0
M  V30 5236 H 498.255 -4.05719 -2.65556 0
M  V30 5237 N 499.598 0.982988 -1.23187 0
M  V30 5238 C 500.561 2.05649 -1.01198 0
M  V30 5239 C 501.561 1.6078 0.0252464 0
M  V30 5240 O 502.751 1.72878 -0.214243 0
M  V30 5241 C 499.883 3.36744 -0.530656 0
M  V30 5242 H 501.076 2.2659 -1.96461 0
M  V30 5243 H 498.629 1.15602 -1.05195 0
M  V30 5244 H 499.364 3.21492 0.425873 0
M  V30 5245 H 499.149 3.7065 -1.2791 0
M  V30 5246 H 500.639 4.15705 -0.397366 0
M  V30 5247 N 501.076 1.04316 1.18135 0
M  V30 5248 C 502.009 0.580823 2.20685 0
M  V30 5249 C 502.987 -0.385943 1.57953 0
M  V30 5250 O 504.171 -0.299654 1.86103 0
M  V30 5251 C 501.298 -0.151162 3.38363 0
M  V30 5252 C 500.344 0.769247 4.19505 0
M  V30 5253 S 501.177 2.25352 4.85774 0
M  V30 5254 C 502.333 1.53246 6.0685 0
M  V30 5255 H 502.566 1.44968 2.5956 0
M  V30 5256 H 500.099 0.85434 1.28609 0
M  V30 5257 H 502.057 -0.567315 4.06561 0
M  V30 5258 H 500.718 -0.995936 2.97892 0
M  V30 5259 H 499.911 0.203335 5.0359 0
M  V30 5260 H 499.513 1.12436 3.56699 0
M  V30 5261 H 501.805 0.82689 6.72435 0
M  V30 5262 H 502.748 2.35044 6.67952 0
M  V30 5263 H 503.156 1.0237 5.5514 0
M  V30 5264 N 502.554 -1.34406 0.822964 0
M  V30 5265 C 503.802 -1.97892 0.410245 0
M  V30 5266 C 504.123 -1.65567 -1.03017 0
M  V30 5267 O 503.393 -0.94642 -1.71522 0
M  V30 5268 H 501.973 -0.732049 0.148707 0
M  V30 5269 H 504.635 -1.64043 1.05242 0
M  V30 5270 H 503.731 -3.07579 0.529284 0
M  V30 5271 N 504.032 -0.577932 -1.46621 0
M  V30 5272 C 505.443 -0.150071 -1.86096 0
M  V30 5273 C 505.794 1.28563 -1.48209 0
M  V30 5274 O 504.919 1.97036 -0.894754 0
M  V30 5275 C 505.514 -0.265576 -3.37758 0
M  V30 5276 C 504.073 0.10738 -3.76247 0
M  V30 5277 C 503.22 -0.603711 -2.70649 0
M  V30 5278 H 506.171 -0.786438 -1.37844 0
M  V30 5279 H 506.192 0.510352 -3.77062 0
M  V30 5280 H 505.704 -1.3106 -3.65301 0
M  V30 5281 H 503.805 1.15272 -3.54321 0
M  V30 5282 H 503.918 -0.26561 -4.78363 0
M  V30 5283 H 502.282 -0.0444884 -2.54661 0
M  V30 5284 H 503.065 -1.65029 -3.01032 0
M  V30 5285 N 505.51 1.54411 -0.315457 0
M  V30 5286 C 506.42 2.27737 0.56329 0
M  V30 5287 C 507.436 1.31787 1.13614 0
M  V30 5288 O 508.612 1.64791 1.15784 0
M  V30 5289 C 505.677 3.01478 1.71207 0
M  V30 5290 C 504.738 4.12997 1.17185 0
M  V30 5291 C 503.971 4.83212 2.26588 0
M  V30 5292 O 504.194 4.52884 3.46775 0
M  V30 5293 O 503.128 5.70299 1.92463 0
M  V30 5294 H 506.954 3.03683 -0.0319614 0
M  V30 5295 H 504.539 1.49178 -0.0814188 0
M  V30 5296 H 506.421 3.47683 2.38106 0
M  V30 5297 H 505.096 2.28414 2.29366 0
M  V30 5298 H 504.003 3.71159 0.468174 0
M  V30 5299 H 505.336 4.8808 0.635501 0
M  V30 5300 N 506.988 0.0434614 1.5754 0
M  V30 5301 C 508.218 -0.640905 1.96408 0
M  V30 5302 C 508.626 -1.65365 0.919297 0
M  V30 5303 O 507.969 -1.83395 -0.105795 0
M  V30 5304 C 508.031 -1.39141 3.31482 0
M  V30 5305 C 507.695 -0.535375 4.53853 0
M  V30 5306 C 508.692 0.195335 5.19533 0
M  V30 5307 C 506.377 -0.468564 5.0011 0
M  V30 5308 C 508.371 0.981377 6.298 0
M  V30 5309 C 506.058 0.321171 6.10255 0
M  V30 5310 C 507.056 1.04484 6.74961 0
M  V30 5311 O 506.744 1.8216 7.8299 0
M  V30 5312 H 506.476 -0.180584 0.651433 0
M  V30 5313 H 509.03 0.103848 2.05137 0
M  V30 5314 H 507.26 -2.18162 3.19284 0
M  V30 5315 H 508.949 -1.96526 3.55151 0
M  V30 5316 H 509.715 0.15314 4.84758 0
M  V30 5317 H 505.594 -1.02142 4.49542 0
M  V30 5318 H 509.138 1.54674 6.80237 0
M  V30 5319 H 505.035 0.365032 6.44467 0
M  V30 5320 H 505.803 1.74289 7.99728 0
M  V30 5321 N 508.466 -1.55915 -0.229846 0
M  V30 5322 C 509.396 -1.94754 -1.28815 0
M  V30 5323 C 510.377 -0.814657 -1.49323 0
M  V30 5324 O 511.562 -1.07631 -1.61645 0
M  V30 5325 C 508.692 -2.25705 -2.63959 0
M  V30 5326 C 507.646 -3.41406 -2.5812 0
M  V30 5327 C 506.972 -3.57941 -3.97218 0
M  V30 5328 C 508.272 -4.76616 -2.13623 0
M  V30 5329 H 509.966 -2.83404 -0.965547 0
M  V30 5330 H 507.512 -1.36353 -0.463028 0
M  V30 5331 H 509.465 -2.51467 -3.38146 0
M  V30 5332 H 508.189 -1.339 -2.9789 0
M  V30 5333 H 506.848 -3.1568 -1.86391 0
M  V30 5334 H 506.496 -2.63526 -4.28443 0
M  V30 5335 H 506.196 -4.35757 -3.94195 0
M  V30 5336 H 507.72 -3.86042 -4.73079 0
M  V30 5337 H 509.134 -5.01637 -2.77549 0
M  V30 5338 H 507.531 -5.57655 -2.21677 0
M  V30 5339 H 508.601 -4.7253 -1.08829 0
M  V30 5340 N 509.944 0.496216 -1.49584 0
M  V30 5341 C 510.907 1.57952 -1.66084 0
M  V30 5342 C 511.907 1.51729 -0.53244 0
M  V30 5343 O 513.097 1.54796 -0.79899 0
M  V30 5344 C 510.229 2.97604 -1.66268 0
M  V30 5345 H 511.422 1.44649 -2.6271 0
M  V30 5346 H 508.975 0.7208 -1.38687 0
M  V30 5347 H 509.71 3.16378 -0.712432 0
M  V30 5348 H 509.495 3.03528 -2.4822 0
M  V30 5349 H 510.985 3.76301 -1.81073 0
M  V30 5350 N 511.423 1.38739 0.74761 0
M  V30 5351 C 512.386 1.36241 1.84312 0
M  V30 5352 C 513.386 0.261811 1.58654 0
M  V30 5353 O 514.576 0.519031 1.66288 0
M  V30 5354 C 511.708 1.12253 3.21888 0
M  V30 5355 H 512.901 2.33712 1.87933 0
M  V30 5356 H 510.454 1.2412 0.949946 0
M  V30 5357 H 511.189 0.154133 3.23934 0
M  V30 5358 H 510.974 1.91943 3.41907 0
M  V30 5359 H 512.464 1.13215 4.0196 0
M  V30 5360 N 512.901 -0.976442 1.23707 0
M  V30 5361 C 514.148 -1.71827 1.07153 0
M  V30 5362 C 514.476 -1.9053 -0.390982 0
M  V30 5363 O 513.731 -1.45779 -1.30564 0
M  V30 5364 C 514.03 -3.11814 1.74662 0
M  V30 5365 C 513.696 -3.12978 3.24585 0
M  V30 5366 C 512.358 -3.13003 3.6549 0
M  V30 5367 C 514.71 -3.07986 4.20469 0
M  V30 5368 C 512.038 -3.05757 5.00729 0
M  V30 5369 C 514.39 -3.02282 5.55705 0
M  V30 5370 C 513.054 -3.00631 5.95968 0
M  V30 5371 H 512.324 -0.628758 0.392102 0
M  V30 5372 H 514.971 -1.14239 1.53693 0
M  V30 5373 H 513.276 -3.72812 1.20492 0
M  V30 5374 H 514.973 -3.67989 1.59328 0
M  V30 5375 H 511.563 -3.13718 2.92026 0
M  V30 5376 H 515.747 -3.07103 3.89874 0
M  V30 5377 H 511.003 -3.02834 5.31132 0
M  V30 5378 H 515.177 -2.97376 6.29714 0
M  V30 5379 H 512.804 -2.94771 7.00724 0
M  V30 5380 N 514.379 -1.04941 -1.1758 0
M  V30 5381 C 515.607 -0.778294 -1.91703 0
M  V30 5382 C 516.022 0.665697 -1.76675 0
M  V30 5383 O 515.379 1.45456 -1.10222 0
M  V30 5384 C 515.43 -1.14628 -3.42845 0
M  V30 5385 O 515.151 -2.53359 -3.57409 0
M  V30 5386 C 516.652 -0.900931 -4.34049 0
M  V30 5387 H 513.872 -0.283167 -0.608323 0
M  V30 5388 H 516.416 -1.39942 -1.49119 0
M  V30 5389 H 514.571 -0.569953 -3.83184 0
M  V30 5390 H 514.985 -2.67709 -4.51035 0
M  V30 5391 H 516.459 -1.20817 -5.38616 0
M  V30 5392 H 516.936 0.163966 -4.38894 0
M  V30 5393 H 517.542 -1.46097 -3.99419 0
M  V30 5394 N 515.857 1.33968 -0.830081 0
M  V30 5395 C 517.103 1.98357 -0.422191 0
M  V30 5396 C 517.436 1.65633 1.01387 0
M  V30 5397 O 516.711 0.931648 1.70735 0
M  V30 5398 C 516.994 3.54492 -0.633043 0
M  V30 5399 C 516.847 3.96934 -2.11574 0
M  V30 5400 C 518.166 4.40039 -0.0735584 0
M  V30 5401 H 515.285 0.720544 -0.154871 0
M  V30 5402 H 517.927 1.58749 -1.04397 0
M  V30 5403 H 516.077 3.88361 -0.103775 0
M  V30 5404 H 517.749 3.73363 -2.7092 0
M  V30 5405 H 515.992 3.46984 -2.60354 0
M  V30 5406 H 516.663 5.05651 -2.21406 0
M  V30 5407 H 519.139 4.12764 -0.52585 0
M  V30 5408 H 518.015 5.48327 -0.250841 0
M  V30 5409 H 518.276 4.30124 1.02202 0
M  V30 5410 N 517.335 0.585699 1.46312 0
M  V30 5411 C 518.583 0.072278 2.01971 0
M  V30 5412 C 518.904 -1.29345 1.45928 0
M  V30 5413 O 518.174 -1.84973 0.645109 0
M  V30 5414 H 516.754 0.023729 0.746623 0
M  V30 5415 H 519.416 0.762155 1.7938 0
M  V30 5416 H 518.512 0.00552767 3.121 0
M  V30 5417 N 518.813 -1.54241 0.323641 0
M  V30 5418 C 520.09 -1.92741 -0.333181 0
M  V30 5419 C 520.47 -1.25326 -1.69872 0
M  V30 5420 O 519.818 -0.396991 -2.25025 0
M  V30 5421 C 520.028 -3.46399 -0.425322 0
M  V30 5422 C 521.376 -4.19029 -0.68557 0
M  V30 5423 O 522.4 -3.52555 -0.50824 0
M  V30 5424 O 521.259 -5.36751 -1.02767 0
M  V30 5425 H 518.353 -0.804811 -0.190286 0
M  V30 5426 H 520.899 -1.65542 0.373361 0
M  V30 5427 H 519.671 -3.87643 0.533737 0
M  V30 5428 H 519.294 -3.79704 -1.17944 0
M  V30 5429 N 520.291 -0.0518155 -1.57515 0
M  V30 5430 C 521.223 0.951542 -2.08515 0
M  V30 5431 C 522.236 1.27436 -1.01311 0
M  V30 5432 O 523.425 1.23504 -1.28876 0
M  V30 5433 C 520.525 2.27291 -2.5138 0
M  V30 5434 C 519.698 2.13191 -3.81927 0
M  V30 5435 C 518.757 3.28458 -4.11098 0
M  V30 5436 O 517.783 3.04334 -4.81009 0
M  V30 5437 N 518.985 4.52954 -3.63061 0
M  V30 5438 H 521.75 0.516242 -2.9522 0
M  V30 5439 H 519.311 0.13441 -1.61341 0
M  V30 5440 H 521.303 3.03272 -2.67971 0
M  V30 5441 H 519.873 2.62386 -1.69919 0
M  V30 5442 H 519.093 1.21798 -3.74912 0
M  V30 5443 H 520.381 2.00999 -4.67415 0
M  V30 5444 H 519.779 4.75444 -3.06545 0
M  V30 5445 H 518.336 5.26026 -3.84889 0
M  V30 5446 N 521.769 1.56035 0.221574 0
M  V30 5447 C 522.699 1.95434 1.2778 0
M  V30 5448 C 523.68 0.822564 1.48889 0
M  V30 5449 O 524.865 1.08486 1.61072 0
M  V30 5450 C 521.995 2.27102 2.62759 0
M  V30 5451 C 520.949 3.4277 2.56306 0
M  V30 5452 C 520.275 3.60043 3.95314 0
M  V30 5453 C 521.575 4.77742 2.11093 0
M  V30 5454 H 523.269 2.83912 0.950504 0
M  V30 5455 H 520.815 1.36596 0.455791 0
M  V30 5456 H 522.768 2.53256 3.36807 0
M  V30 5457 H 521.492 1.35478 2.97176 0
M  V30 5458 H 520.151 3.16664 1.84715 0
M  V30 5459 H 519.799 2.65794 4.27039 0
M  V30 5460 H 519.499 4.37841 3.91879 0
M  V30 5461 H 521.023 3.88545 4.71025 0
M  V30 5462 H 522.437 5.03102 2.74885 0
M  V30 5463 H 520.834 5.58823 2.18716 0
M  V30 5464 H 521.904 4.731 1.06321 0
M  V30 5465 N 523.247 -0.488276 1.49845 0
M  V30 5466 C 524.177 -1.59675 1.70371 0
M  V30 5467 C 525.158 -1.60878 0.552473 0
M  V30 5468 O 526.343 -1.77417 0.78973 0
M  V30 5469 C 523.473 -2.98098 1.782 0
M  V30 5470 C 522.427 -3.11761 2.93239 0
M  V30 5471 C 521.753 -4.51661 2.86193 0
M  V30 5472 C 523.053 -2.90589 4.33999 0
M  V30 5473 H 524.747 -1.42752 2.63177 0
M  V30 5474 H 522.293 -0.685317 1.26647 0
M  V30 5475 H 524.246 -3.75555 1.91144 0
M  V30 5476 H 522.97 -3.16138 0.820018 0
M  V30 5477 H 521.629 -2.36732 2.79917 0
M  V30 5478 H 521.277 -4.66595 1.87877 0
M  V30 5479 H 520.977 -4.61742 3.63412 0
M  V30 5480 H 522.501 -5.31162 3.01163 0
M  V30 5481 H 523.915 -3.57807 4.47936 0
M  V30 5482 H 522.312 -3.1213 5.12538 0
M  V30 5483 H 523.382 -1.86595 4.4756 0
M  V30 5484 N 524.725 -1.39134 -0.740242 0
M  V30 5485 C 525.971 -1.37278 -1.50088 0
M  V30 5486 C 526.326 0.0329967 -1.92372 0
M  V30 5487 O 525.619 0.998447 -1.63529 0
M  V30 5488 C 525.813 -2.27457 -2.75678 0
M  V30 5489 C 525.642 -3.76662 -2.45674 0
M  V30 5490 C 524.412 -4.45617 -2.38229 0
M  V30 5491 C 526.61 -4.6877 -2.11563 0
M  V30 5492 N 524.592 -5.80187 -2.00641 0
M  V30 5493 C 525.963 -5.91951 -1.84376 0
M  V30 5494 C 528.018 -4.56843 -1.97987 0
M  V30 5495 C 526.721 -7.04538 -1.4498 0
M  V30 5496 C 528.747 -5.69347 -1.59994 0
M  V30 5497 C 528.109 -6.91597 -1.33687 0
M  V30 5498 H 524.208 -0.557611 -0.548265 0
M  V30 5499 H 526.792 -1.74638 -0.860784 0
M  V30 5500 H 524.963 -1.92263 -3.37475 0
M  V30 5501 H 526.695 -2.16631 -3.41838 0
M  V30 5502 H 523.45 -3.98993 -2.5515 0
M  V30 5503 H 523.874 -6.51387 -1.84454 0
M  V30 5504 H 528.516 -3.62868 -2.16995 0
M  V30 5505 H 526.234 -7.98419 -1.24712 0
M  V30 5506 H 529.82 -5.62104 -1.50102 0
M  V30 5507 H 528.7 -7.77176 -1.04728 0
M  V30 5508 N 526.204 0.969867 -1.24223 0
M  V30 5509 C 527.452 1.70918 -1.0785 0
M  V30 5510 C 527.773 1.91186 0.383763 0
M  V30 5511 O 527.043 1.48806 1.27411 0
M  V30 5512 H 525.623 0.633334 -0.396103 0
M  V30 5513 H 528.285 1.16689 -1.56108 0
M  V30 5514 H 527.381 2.69455 -1.57482 0
M  V30 5515 N 527.682 1.05563 1.17022 0
M  V30 5516 C 528.645 0.664098 2.19368 0
M  V30 5517 C 529.645 -0.286358 1.5823 0
M  V30 5518 O 530.835 -0.069728 1.7406 0
M  V30 5519 C 527.967 -0.0239932 3.40892 0
M  V30 5520 H 529.16 1.57 2.55521 0
M  V30 5521 H 526.713 0.849964 1.31169 0
M  V30 5522 H 527.448 -0.942988 3.10287 0
M  V30 5523 H 527.233 0.659351 3.86516 0
M  V30 5524 H 528.723 -0.283909 4.16634 0
M  V30 5525 N 529.16 -1.33526 0.837174 0
M  V30 5526 C 530.123 -2.27551 0.274421 0
M  V30 5527 C 531.123 -1.50886 -0.555881 0
M  V30 5528 O 532.313 -1.70227 -0.369918 0
M  V30 5529 C 529.445 -3.35332 -0.613605 0
M  V30 5530 H 530.638 -2.78837 1.10408 0
M  V30 5531 H 528.191 -1.439 0.610126 0
M  V30 5532 H 528.926 -2.89285 -1.46577 0
M  V30 5533 H 528.711 -3.92095 -0.0195341 0
M  V30 5534 H 530.201 -4.05433 -1.00068 0
M  V30 5535 N 530.638 -0.59345 -1.46 0
M  V30 5536 C 531.548 0.135817 -2.34207 0
M  V30 5537 C 532.564 0.875008 -1.50398 0
M  V30 5538 O 533.74 0.835778 -1.83239 0
M  V30 5539 C 530.805 1.12977 -3.27776 0
M  V30 5540 C 529.866 0.394081 -4.27487 0
M  V30 5541 C 529.099 1.34068 -5.16586 0
M  V30 5542 O 529.322 2.5778 -5.08828 0
M  V30 5543 O 528.256 0.845426 -5.95933 0
M  V30 5544 H 532.082 -0.588691 -2.9794 0
M  V30 5545 H 529.667 -0.353784 -1.45151 0
M  V30 5546 H 531.549 1.70261 -3.85473 0
M  V30 5547 H 530.224 1.83556 -2.66625 0
M  V30 5548 H 529.131 -0.220869 -3.73447 0
M  V30 5549 H 530.464 -0.270939 -4.91454 0
M  V30 5550 N 532.116 1.54067 -0.331816 0
M  V30 5551 C 533.527 1.86059 0.15454 0
M  V30 5552 C 533.878 1.25331 1.50952 0
M  V30 5553 O 533.003 0.562441 2.08963 0
M  V30 5554 C 533.598 3.37581 0.287192 0
M  V30 5555 C 532.157 3.69493 0.717773 0
M  V30 5556 C 531.304 2.76863 -0.155569 0
M  V30 5557 H 534.255 1.48797 -0.55182 0
M  V30 5558 H 534.276 3.63744 1.11671 0
M  V30 5559 H 533.788 3.81751 -0.699131 0
M  V30 5560 H 531.889 3.3086 1.71354 0
M  V30 5561 H 532.002 4.76315 0.5158 0
M  V30 5562 H 530.366 2.51995 0.370213 0
M  V30 5563 H 531.149 3.23861 -1.13881 0
M  V30 5564 N 533.594 0.0601682 1.57485 0
M  V30 5565 C 534.84 -0.612501 1.93329 0
M  V30 5566 C 535.173 -1.6996 0.939526 0
M  V30 5567 O 534.448 -1.94472 -0.0330957 0
M  V30 5568 C 534.731 -1.20025 3.39508 0
M  V30 5569 C 534.584 -0.12059 4.49638 0
M  V30 5570 C 535.903 -2.10923 3.86264 0
M  V30 5571 H 533.022 -0.221185 0.703027 0
M  V30 5572 H 535.664 0.123768 1.89596 0
M  V30 5573 H 533.814 -1.82774 3.42821 0
M  V30 5574 H 535.486 0.51185 4.58452 0
M  V30 5575 H 533.729 0.550251 4.30296 0
M  V30 5576 H 534.4 -0.572019 5.49028 0
M  V30 5577 H 536.876 -1.58124 3.84884 0
M  V30 5578 H 535.752 -2.48987 4.8918 0
M  V30 5579 H 536.013 -3.01292 3.23536 0
M  V30 5580 N 535.072 -1.5615 -0.213296 0
M  V30 5581 C 536.488 -1.49327 -0.56336 0
M  V30 5582 C 536.688 -0.756826 -1.86747 0
M  V30 5583 O 535.744 -0.299866 -2.50713 0
M  V30 5584 C 537.057 -2.9392 -0.634944 0
M  V30 5585 C 538.605 -3.04487 -0.725013 0
M  V30 5586 C 539.08 -4.50456 -0.82787 0
M  V30 5587 N 540.571 -4.54533 -0.891876 0
M  V30 5588 C 541.306 -5.64766 -0.991315 0
M  V30 5589 N 540.802 -6.84733 -1.05419 0
M  V30 5590 N 542.595 -5.52637 -1.02709 0
M  V30 5591 H 534.746 -2.02453 0.642366 0
M  V30 5592 H 537.009 -0.920548 0.226487 0
M  V30 5593 H 536.715 -3.50783 0.253859 0
M  V30 5594 H 536.589 -3.46274 -1.49579 0
M  V30 5595 H 538.976 -2.47685 -1.60425 0
M  V30 5596 H 539.057 -2.55289 0.161669 0
M  V30 5597 H 538.701 -5.07878 0.0469464 0
M  V30 5598 H 538.631 -4.97369 -1.73009 0
M  V30 5599 H 541.122 -3.68141 -0.85327 0
M  V30 5600 H 541.435 -7.64493 -1.13007 0
M  V30 5601 H 539.78 -6.87427 -1.02318 0
M  V30 5602 H 542.971 -4.5784 -0.974687 0
M  V30 5603 H 543.144 -6.38576 -1.10113 0
M  V30 5604 N 536.55 0.480323 -1.50102 0
M  V30 5605 C 537.966 0.813295 -1.37323 0
M  V30 5606 C 538.166 1.97027 -0.422206 0
M  V30 5607 O 537.222 2.5212 0.138563 0
M  V30 5608 C 538.535 1.13404 -2.78496 0
M  V30 5609 C 540.083 1.24104 -2.87345 0
M  V30 5610 C 540.558 1.59497 -4.29331 0
M  V30 5611 N 542.049 1.66507 -4.32238 0
M  V30 5612 C 542.784 1.95378 -5.39087 0
M  V30 5613 N 542.28 2.22333 -6.56155 0
M  V30 5614 N 544.073 1.96803 -5.26522 0
M  V30 5615 H 536.224 -0.282291 -2.10516 0
M  V30 5616 H 538.487 -0.063752 -0.945854 0
M  V30 5617 H 538.193 0.357064 -3.49883 0
M  V30 5618 H 538.067 2.07251 -3.15162 0
M  V30 5619 H 540.454 2.00871 -2.16183 0
M  V30 5620 H 540.535 0.282593 -2.54234 0
M  V30 5621 H 540.179 0.832736 -5.01027 0
M  V30 5622 H 540.109 2.56477 -4.59921 0
M  V30 5623 H 542.6 1.47753 -3.47818 0
M  V30 5624 H 542.913 2.43611 -7.33399 0
M  V30 5625 H 541.258 2.19745 -6.59346 0
M  V30 5626 H 544.449 1.75235 -4.34062 0
M  V30 5627 H 544.622 2.18969 -6.09883 0
M  V30 5628 N 538.028 1.39524 0.732853 0
M  V30 5629 C 539.277 1.36175 1.48792 0
M  V30 5630 C 539.59 -0.0388195 1.95561 0
M  V30 5631 O 540.796 -0.194899 2.708 0
M  V30 5632 C 539.252 2.39242 2.68871 0
M  V30 5633 C 538.86 3.85024 2.29042 0
M  V30 5634 C 540.604 2.44972 3.46683 0
M  V30 5635 C 538.511 4.79727 3.45856 0
M  V30 5636 H 537.441 0.506267 0.558757 0
M  V30 5637 H 540.092 1.65181 0.799226 0
M  V30 5638 H 538.474 2.0331 3.39825 0
M  V30 5639 H 539.648 4.30008 1.6562 0
M  V30 5640 H 537.963 3.82609 1.64316 0
M  V30 5641 H 540.56 3.12918 4.33574 0
M  V30 5642 H 540.903 1.4749 3.89297 0
M  V30 5643 H 541.436 2.79808 2.82759 0
M  V30 5644 H 538.175 5.78479 3.08289 0
M  V30 5645 H 537.695 4.39421 4.08251 0
M  V30 5646 H 539.374 4.98731 4.12161 0
M  V30 5647 N 539.506 -0.963266 1.24736 0
M  V30 5648 C 540.436 -2.07628 1.06832 0
M  V30 5649 C 541.417 -1.70088 -0.0200566 0
M  V30 5650 O 542.602 -1.93636 0.147854 0
M  V30 5651 C 539.732 -3.40636 0.677069 0
M  V30 5652 C 538.686 -3.9215 1.71471 0
M  V30 5653 C 538.012 -5.21553 1.1784 0
M  V30 5654 C 539.312 -4.19493 3.11164 0
M  V30 5655 H 541.006 -2.22864 1.9993 0
M  V30 5656 H 538.552 -1.07093 0.96266 0
M  V30 5657 H 540.505 -4.17941 0.538792 0
M  V30 5658 H 539.229 -3.25313 -0.289612 0
M  V30 5659 H 537.888 -3.17005 1.84128 0
M  V30 5660 H 537.536 -5.02593 0.202195 0
M  V30 5661 H 537.236 -5.56988 1.87185 0
M  V30 5662 H 538.76 -6.01463 1.05233 0
M  V30 5663 H 540.174 -4.87487 3.01711 0
M  V30 5664 H 538.571 -4.66165 3.77902 0
M  V30 5665 H 539.641 -3.26097 3.58871 0
M  V30 5666 N 540.985 -1.06182 -1.16461 0
M  V30 5667 C 541.932 -0.671613 -2.20812 0
M  V30 5668 C 542.902 0.331186 -1.62765 0
M  V30 5669 O 544.087 0.22033 -1.89524 0
M  V30 5670 C 541.227 -0.063029 -3.45042 0
M  V30 5671 C 540.34 -1.11587 -4.1734 0
M  V30 5672 C 539.475 -0.473546 -5.29085 0
M  V30 5673 C 538.514 -1.51 -5.93182 0
M  V30 5674 N 537.651 -0.891118 -6.96422 0
M  V30 5675 H 542.491 -1.56589 -2.53542 0
M  V30 5676 H 540.028 -0.782951 -1.24532 0
M  V30 5677 H 541.986 0.307344 -4.16066 0
M  V30 5678 H 540.616 0.794663 -3.12866 0
M  V30 5679 H 539.668 -1.60396 -3.44931 0
M  V30 5680 H 540.98 -1.90221 -4.61104 0
M  V30 5681 H 540.134 -0.0501432 -6.06679 0
M  V30 5682 H 538.873 0.344687 -4.8648 0
M  V30 5683 H 537.878 -1.94331 -5.14311 0
M  V30 5684 H 539.103 -2.33031 -6.37866 0
M  V30 5685 H 537.049 -0.0935753 -6.55933 0
M  V30 5686 H 536.966 -1.61486 -7.38551 0
M  V30 5687 H 538.234 -0.492822 -7.77941 0
M  V30 5688 N 542.463 1.3308 -0.844243 0
M  V30 5689 C 543.395 2.27954 -0.238671 0
M  V30 5690 C 544.408 1.51978 0.583665 0
M  V30 5691 O 545.597 1.73731 0.409857 0
M  V30 5692 C 542.697 3.31963 0.682185 0
M  V30 5693 C 541.87 4.37281 -0.101998 0
M  V30 5694 C 540.929 5.20928 0.743022 0
M  V30 5695 O 539.955 5.68914 0.180285 0
M  V30 5696 N 541.157 5.42738 2.0595 0
M  V30 5697 H 543.922 2.8056 -1.05386 0
M  V30 5698 H 541.483 1.4583 -0.70322 0
M  V30 5699 H 543.475 3.84828 1.25259 0
M  V30 5700 H 542.045 2.79594 1.39808 0
M  V30 5701 H 541.265 3.84843 -0.853802 0
M  V30 5702 H 542.553 5.04746 -0.641015 0
M  V30 5703 H 541.951 5.05463 2.54016 0
M  V30 5704 H 540.508 5.98639 2.57827 0
M  V30 5705 N 543.941 0.601185 1.45683 0
M  V30 5706 C 544.871 -0.108824 2.33246 0
M  V30 5707 C 545.852 -0.865223 1.46451 0
M  V30 5708 O 547.037 -0.83704 1.75235 0
M  V30 5709 C 544.167 -1.11101 3.2905 0
M  V30 5710 C 543.121 -0.468244 4.25431 0
M  V30 5711 C 542.447 -1.57822 5.10878 0
M  V30 5712 C 543.747 0.606469 5.18767 0
M  V30 5713 H 545.441 0.622306 2.92861 0
M  V30 5714 H 542.987 0.300714 1.40825 0
M  V30 5715 H 544.94 -1.61622 3.89174 0
M  V30 5716 H 543.664 -1.87265 2.67581 0
M  V30 5717 H 542.323 0.0160484 3.66596 0
M  V30 5718 H 541.971 -2.32998 4.45781 0
M  V30 5719 H 541.671 -1.15369 5.76163 0
M  V30 5720 H 543.195 -2.08583 5.73869 0
M  V30 5721 H 544.609 0.185589 5.73 0
M  V30 5722 H 543.006 0.952381 5.92494 0
M  V30 5723 H 544.076 1.48559 4.61582 0
M  V30 5724 N 545.419 -1.53889 0.339982 0
M  V30 5725 C 546.665 -2.01152 -0.258003 0
M  V30 5726 C 546.998 -1.22749 -1.50487 0
M  V30 5727 O 546.273 -0.314156 -1.91946 0
M  V30 5728 C 546.556 -3.55468 -0.575717 0
M  V30 5729 C 546.409 -4.44584 0.682996 0
M  V30 5730 C 547.728 -4.1768 -1.38677 0
M  V30 5731 H 544.847 -0.731198 -0.0922992 0
M  V30 5732 H 547.489 -1.84352 0.459814 0
M  V30 5733 H 545.639 -3.69914 -1.18725 0
M  V30 5734 H 547.311 -4.41981 1.32102 0
M  V30 5735 H 545.554 -4.13592 1.3086 0
M  V30 5736 H 546.225 -5.5043 0.416001 0
M  V30 5737 H 548.701 -4.0691 -0.869705 0
M  V30 5738 H 547.577 -5.25734 -1.57783 0
M  V30 5739 H 547.838 -3.72069 -2.38782 0
M  V30 5740 N 546.897 -0.0685191 -1.57451 0
M  V30 5741 C 547.86 0.885173 -2.11417 0
M  V30 5742 C 548.86 1.22853 -1.03748 0
M  V30 5743 O 550.05 1.16235 -1.2975 0
M  V30 5744 C 547.182 2.18964 -2.61281 0
M  V30 5745 H 548.375 0.417034 -2.96986 0
M  V30 5746 H 545.928 0.18014 -1.55258 0
M  V30 5747 H 546.663 2.70321 -1.79156 0
M  V30 5748 H 546.448 1.9534 -3.39977 0
M  V30 5749 H 547.938 2.87242 -3.0312 0
M  V30 5750 O 548.414 1.61339 0.072188 0
M  V30 5751 H 549.105 1.80682 0.698125 0
M  V30 END ATOM
M  V30 BEGIN BOND
M  V30 END BOND
M  V30 END CTAB
M  END
$$$$
