drugbank_target|P16519 Neuroendocrine convertase 2 (DB00071)
 OpenBabel12092120063D

  0  0  0     0  0            999 V3000
M  V30 BEGIN CTAB
M  V30 COUNTS 9751 9864 0 0 0
M  V30 BEGIN ATOM
M  V30 1 H -0.908 1.98254 -0.117106 0
M  V30 2 N 0 1.576 0 0
M  V30 3 C 0.933 2.03868 1.02534 0
M  V30 4 C 1.911 0.928543 1.3348 0
M  V30 5 O 3.095 1.19667 1.45644 0
M  V30 6 C 0.222 2.43627 2.35294 0
M  V30 7 C -0.732 3.65373 2.2001 0
M  V30 8 S 0.101 5.13292 1.52614 0
M  V30 9 C 1.257 5.56322 2.86805 0
M  V30 10 H 1.49 2.90518 0.631377 0
M  V30 11 H -0.977 1.52953 0.210867 0
M  V30 12 H 0.981 2.67203 3.11629 0
M  V30 13 H -0.358 1.57376 2.7183 0
M  V30 14 H -1.165 3.90944 3.18086 0
M  V30 15 H -1.563 3.418 1.51819 0
M  V30 16 H 0.729 5.58782 3.83104 0
M  V30 17 H 1.672 6.56266 2.65933 0
M  V30 18 H 2.08 4.83886 2.90714 0
M  V30 19 N 1.4781 -0.272755 1.55222 0
M  V30 20 C 2.4251 -1.33716 1.88119 0
M  V30 21 C 3.3951 -1.49066 0.73271 0
M  V30 22 O 4.5801 -1.63469 0.984002 0
M  V30 23 C 1.7201 -2.69238 2.15882 0
M  V30 24 C 0.8331 -2.62108 3.43399 0
M  V30 25 C -0.0319 -3.89811 3.60861 0
M  V30 26 C -0.9929 -3.77193 4.8207 0
M  V30 27 N -1.8559 -4.9673 4.96189 0
M  V30 28 H 2.9841 -1.04962 2.78903 0
M  V30 29 H 0.5211 -0.507088 1.38083 0
M  V30 30 H 2.4791 -3.48089 2.29978 0
M  V30 31 H 1.1091 -2.96194 1.28331 0
M  V30 32 H 0.1611 -1.74967 3.37773 0
M  V30 33 H 1.4731 -2.48685 4.32386 0
M  V30 34 H 0.6271 -4.77103 3.74777 0
M  V30 35 H -0.6339 -4.06102 2.7006 0
M  V30 36 H -1.6289 -2.88284 4.68159 0
M  V30 37 H -0.4039 -3.62421 5.74307 0
M  V30 38 H -2.4579 -5.13431 4.08319 0
M  V30 39 H -2.5409 -4.85839 5.79221 0
M  V30 40 H -1.2729 -5.85594 5.1449 0
M  V30 41 N 2.9562 -1.48159 -0.537278 0
M  V30 42 C 4.2042 -1.55497 -1.29094 0
M  V30 43 C 4.5252 -0.227454 -1.93669 0
M  V30 44 O 3.7952 0.750386 -1.80959 0
M  V30 45 H 2.3752 -0.572832 -0.47945 0
M  V30 46 H 5.0372 -1.84579 -0.625818 0
M  V30 47 H 4.1332 -2.33216 -2.07405 0
M  V30 48 N 4.4343 0.785586 -1.36625 0
M  V30 49 C 5.6823 1.54057 -1.30808 0
M  V30 50 C 6.0033 1.94683 0.111157 0
M  V30 51 O 5.2733 1.65241 1.05224 0
M  V30 52 H 3.8533 0.571354 -0.481211 0
M  V30 53 H 6.5153 0.935821 -1.70963 0
M  V30 54 H 5.6113 2.44637 -1.93801 0
M  V30 55 N 5.9124 1.20967 1.01018 0
M  V30 56 C 7.1524 1.03511 1.76252 0
M  V30 57 C 7.5164 -0.42458 1.87247 0
M  V30 58 O 8.7174 -0.719508 2.58991 0
M  V30 59 C 6.9884 1.70726 3.13986 0
M  V30 60 S 8.5474 1.68458 4.05176 0
M  V30 61 H 5.3654 0.371037 0.606508 0
M  V30 62 H 7.9674 1.53628 1.20908 0
M  V30 63 H 6.6714 2.76128 3.03614 0
M  V30 64 H 6.2024 1.20767 3.74405 0
M  V30 65 H 8.2174 0.721987 4.90919 0
M  V30 66 N 7.3905 -1.2043 1.01659 0
M  V30 67 C 8.6365 -1.90079 0.706963 0
M  V30 68 C 8.9695 -1.78648 -0.761474 0
M  V30 69 O 8.2445 -1.17069 -1.55323 0
M  V30 70 C 8.5275 -3.41469 1.14327 0
M  V30 71 C 8.3805 -3.61833 2.67201 0
M  V30 72 C 9.6995 -4.34261 0.714529 0
M  V30 73 H 6.8185 -0.690254 0.2583 0
M  V30 74 H 9.4605 -1.41826 1.26433 0
M  V30 75 H 7.6105 -3.82696 0.669056 0
M  V30 76 H 9.2825 -3.2986 3.22475 0
M  V30 77 H 7.5255 -3.05304 3.08175 0
M  V30 78 H 8.1965 -4.67955 2.92783 0
M  V30 79 H 10.6725 -4.00682 1.12221 0
M  V30 80 H 9.5485 -5.38806 1.04784 0
M  V30 81 H 9.8095 -4.40431 -0.383799 0
M  V30 82 N 8.8686 -0.792821 -1.36206 0
M  V30 83 C 10.0936 -0.377701 -2.03932 0
M  V30 84 C 10.5186 0.998947 -1.59382 0
M  V30 85 O 9.8766 1.64421 -0.763903 0
M  V30 86 C 9.9246 -0.453635 -3.57735 0
M  V30 87 O 9.0286 0.538151 -4.08874 0
M  V30 88 H 8.3696 -0.159855 -0.644471 0
M  V30 89 H 10.8996 -1.07488 -1.7409 0
M  V30 90 H 10.9096 -0.318464 -4.06755 0
M  V30 91 H 9.5846 -1.45784 -3.89512 0
M  V30 92 H 8.1616 0.364359 -3.71116 0
M  V30 93 N 10.3467 1.47872 -0.545128 0
M  V30 94 C 11.2787 2.27869 0.246621 0
M  V30 95 C 12.2917 1.36282 0.890561 0
M  V30 96 O 13.4807 1.61207 0.766449 0
M  V30 97 C 10.5807 3.10159 1.36582 0
M  V30 98 C 9.7537 4.29627 0.820954 0
M  V30 99 C 8.8127 4.93607 1.82314 0
M  V30 100 O 7.8387 5.52366 1.37406 0
M  V30 101 N 9.0407 4.87211 3.15603 0
M  V30 102 H 11.8057 2.96459 -0.439539 0
M  V30 103 H 9.3667 1.57367 -0.380421 0
M  V30 104 H 11.3587 3.49829 2.03474 0
M  V30 105 H 9.9287 2.43891 1.9554 0
M  V30 106 H 9.1487 3.94192 -0.0244032 0
M  V30 107 H 10.4367 5.06928 0.436063 0
M  V30 108 H 9.8347 4.40651 3.54744 0
M  V30 109 H 8.3917 5.30937 3.78087 0
M  V30 110 N 11.8248 0.280983 1.55075 0
M  V30 111 C 13.0708 -0.327573 2.00745 0
M  V30 112 C 13.4258 -1.53045 1.16598 0
M  V30 113 O 12.7188 -1.90221 0.229451 0
M  V30 114 C 12.9128 -0.754656 3.49342 0
M  V30 115 C 12.7418 0.40529 4.4787 0
M  V30 116 C 11.5118 0.890947 4.97383 0
M  V30 117 C 13.7098 1.24371 4.99035 0
M  V30 118 N 11.6918 2.01975 5.79724 0
M  V30 119 C 13.0628 2.22031 5.7888 0
M  V30 120 C 15.1178 1.27638 4.81262 0
M  V30 121 C 13.8208 3.22709 6.42846 0
M  V30 122 C 15.8468 2.27164 5.46031 0
M  V30 123 C 15.2088 3.23556 6.25692 0
M  V30 124 H 11.3078 -0.0848774 0.77738 0
M  V30 125 H 13.8918 0.406342 1.90413 0
M  V30 126 H 12.0628 -1.45778 3.60005 0
M  V30 127 H 13.7948 -1.34105 3.81835 0
M  V30 128 H 10.5498 0.469262 4.71269 0
M  V30 129 H 10.9738 2.58794 6.25584 0
M  V30 130 H 15.6158 0.544936 4.19274 0
M  V30 131 H 13.3338 3.96784 7.0398 0
M  V30 132 H 16.9198 2.30441 5.34217 0
M  V30 133 H 15.7998 3.99309 6.74924 0
M  V30 134 N 13.3029 -1.57598 0.00835791 0
M  V30 135 C 14.2499 -2.08945 -0.980346 0
M  V30 136 C 15.2199 -0.986738 -1.33614 0
M  V30 137 O 16.4049 -1.25968 -1.43306 0
M  V30 138 C 13.5449 -2.60425 -2.26435 0
M  V30 139 C 12.6579 -3.84628 -1.96685 0
M  V30 140 C 11.7929 -4.24579 -3.19228 0
M  V30 141 C 10.8319 -5.41596 -2.85202 0
M  V30 142 N 9.9689 -5.768 -4.00307 0
M  V30 143 H 14.8089 -2.93148 -0.535551 0
M  V30 144 H 12.3459 -1.44912 -0.252776 0
M  V30 145 H 14.3039 -2.88354 -3.01509 0
M  V30 146 H 12.9339 -1.79083 -2.68568 0
M  V30 147 H 11.9859 -3.63556 -1.11942 0
M  V30 148 H 13.2979 -4.69796 -1.67611 0
M  V30 149 H 12.4519 -4.53834 -4.02641 0
M  V30 150 H 11.1909 -3.38137 -3.51447 0
M  V30 151 H 10.1959 -5.12056 -2.00198 0
M  V30 152 H 11.4209 -6.29721 -2.54222 0
M  V30 153 H 9.3669 -4.93316 -4.32407 0
M  V30 154 H 9.2839 -6.5656 -3.74786 0
M  V30 155 H 10.5519 -6.10652 -4.84484 0
M  V30 156 N 14.781 0.264519 -1.55364 0
M  V30 157 C 15.744 1.31046 -1.88042 0
M  V30 158 C 16.744 1.41943 -0.755569 0
M  V30 159 O 17.934 1.40947 -1.02369 0
M  V30 160 C 15.066 2.69067 -2.09323 0
M  V30 161 H 16.259 1.03297 -2.81549 0
M  V30 162 H 13.812 0.502989 -1.47986 0
M  V30 163 H 14.547 3.01982 -1.18226 0
M  V30 164 H 14.332 2.62542 -2.91229 0
M  V30 165 H 15.822 3.44623 -2.35848 0
M  V30 166 N 16.2591 1.48442 0.529413 0
M  V30 167 C 17.2221 1.62524 1.61612 0
M  V30 168 C 18.2221 0.498509 1.52877 0
M  V30 169 O 19.4121 0.76431 1.56537 0
M  V30 170 C 16.5441 1.59597 3.01233 0
M  V30 171 H 17.7371 2.59423 1.50465 0
M  V30 172 H 15.2901 1.37047 0.751514 0
M  V30 173 H 16.0251 0.641781 3.17886 0
M  V30 174 H 15.8101 2.41397 3.08982 0
M  V30 175 H 17.3001 1.72646 3.80241 0
M  V30 176 N 17.7372 -0.778329 1.37039 0
M  V30 177 C 18.7002 -1.87301 1.32102 0
M  V30 178 C 19.7002 -1.59198 0.226405 0
M  V30 179 O 20.8902 -1.67403 0.481861 0
M  V30 180 C 18.0222 -3.24309 1.05055 0
M  V30 181 H 19.2152 -1.93093 2.29467 0
M  V30 182 H 16.7682 -0.977358 1.21973 0
M  V30 183 H 17.5032 -3.24196 0.0819373 0
M  V30 184 H 17.2882 -3.46098 1.84279 0
M  V30 185 H 18.7782 -4.04382 1.04234 0
M  V30 186 N 19.2153 -1.21501 -1.00376 0
M  V30 187 C 20.4633 -1.03095 -1.73827 0
M  V30 188 C 20.7843 0.436341 -1.90055 0
M  V30 189 O 20.0543 1.31466 -1.45236 0
M  V30 190 H 18.6343 -0.378487 -0.644016 0
M  V30 191 H 21.2963 -1.52831 -1.20949 0
M  V30 192 H 20.3923 -1.49991 -2.73695 0
M  V30 193 N 20.6934 1.19889 -1.02296 0
M  V30 194 C 21.9404 1.8942 -0.715972 0
M  V30 195 C 22.2684 1.79251 0.754944 0
M  V30 196 O 21.5234 1.17526 1.56481 0
M  V30 197 C 21.8224 3.39883 -1.10518 0
M  V30 198 C 21.4884 3.70254 -2.57337 0
M  V30 199 C 20.1504 3.78254 -2.97452 0
M  V30 200 C 22.5024 3.84052 -3.52354 0
M  V30 201 C 19.8304 3.97514 -4.31509 0
M  V30 202 C 22.1824 4.04824 -4.86108 0
M  V30 203 C 20.8464 4.11054 -5.25919 0
M  V30 204 H 20.1164 0.693138 -0.261993 0
M  V30 205 H 22.7634 1.42012 -1.28472 0
M  V30 206 H 21.0684 3.8915 -0.454953 0
M  V30 207 H 22.7654 3.9199 -0.845261 0
M  V30 208 H 19.3554 3.64632 -2.25258 0
M  V30 209 H 23.5394 3.77221 -3.22518 0
M  V30 210 H 18.7954 4.00574 -4.61898 0
M  V30 211 H 22.9694 4.14442 -5.59653 0
M  V30 212 H 20.5964 4.2573 -6.29808 0
M  V30 213 N 22.1715 0.800033 1.35784 0
M  V30 214 C 23.1015 0.220184 2.3246 0
M  V30 215 C 24.0825 -0.65073 1.57161 0
M  V30 216 O 25.2675 -0.582359 1.85263 0
M  V30 217 C 22.3975 -0.637353 3.41402 0
M  V30 218 C 21.3515 0.134531 4.27789 0
M  V30 219 C 20.6775 -0.844285 5.27992 0
M  V30 220 C 21.9775 1.32979 5.05088 0
M  V30 221 H 23.6715 1.02787 2.81203 0
M  V30 222 H 21.2175 0.495717 1.35199 0
M  V30 223 H 23.1705 -1.05302 4.08031 0
M  V30 224 H 21.8945 -1.47785 2.91251 0
M  V30 225 H 20.5535 0.531296 3.6273 0
M  V30 226 H 20.2015 -1.68011 4.74111 0
M  V30 227 H 19.9015 -0.332184 5.8666 0
M  V30 228 H 21.4255 -1.2583 5.97494 0
M  V30 229 H 22.8395 0.98934 5.64699 0
M  V30 230 H 21.2365 1.77593 5.7322 0
M  V30 231 H 22.3065 2.11978 4.36111 0
M  V30 232 N 23.6496 -1.47581 0.552962 0
M  V30 233 C 24.8966 -2.02482 0.0273243 0
M  V30 234 C 25.2246 -1.42776 -1.32081 0
M  V30 235 O 24.4796 -0.571393 -1.87173 0
M  V30 236 C 24.7786 -3.57199 -0.119728 0
M  V30 237 C 24.4446 -4.35804 1.15697 0
M  V30 238 C 23.1066 -4.57 1.50681 0
M  V30 239 C 25.4586 -4.81167 2.00319 0
M  V30 240 C 22.7866 -5.20807 2.70142 0
M  V30 241 C 25.1386 -5.46293 3.18978 0
M  V30 242 C 23.8026 -5.65722 3.54281 0
M  V30 243 H 23.0726 -0.740933 0.00999866 0
M  V30 244 H 25.7196 -1.77302 0.72362 0
M  V30 245 H 24.0246 -3.81348 -0.89896 0
M  V30 246 H 25.7216 -3.97324 -0.541718 0
M  V30 247 H 22.3116 -4.19582 0.874561 0
M  V30 248 H 26.4956 -4.64574 1.74599 0
M  V30 249 H 21.7516 -5.34045 2.97668 0
M  V30 250 H 25.9256 -5.80407 3.84838 0
M  V30 251 H 23.5526 -6.14936 4.46942 0
M  V30 252 N 25.1277 -0.289203 -1.54924 0
M  V30 253 C 26.3677 0.324536 -2.01807 0
M  V30 254 C 26.7317 1.5199 -1.17316 0
M  V30 255 O 27.9327 2.20422 -1.53843 0
M  V30 256 C 26.2037 0.683578 -3.50802 0
M  V30 257 S 27.7627 1.28185 -4.19659 0
M  V30 258 H 24.5807 0.100236 -0.703899 0
M  V30 259 H 27.1827 -0.414325 -1.91059 0
M  V30 260 H 25.8867 -0.195073 -4.09936 0
M  V30 261 H 25.4177 1.45354 -3.65562 0
M  V30 262 H 27.4327 2.57006 -4.24456 0
M  V30 263 N 26.6058 1.57591 -0.0167156 0
M  V30 264 C 27.8518 1.91567 0.665582 0
M  V30 265 C 28.1848 0.892298 1.72487 0
M  V30 266 O 27.4598 -0.0867127 1.94307 0
M  V30 267 C 27.7428 3.36069 1.29342 0
M  V30 268 C 27.5958 4.49135 0.244541 0
M  V30 269 C 28.9148 3.803 2.21495 0
M  V30 270 H 26.0338 0.69666 0.240488 0
M  V30 271 H 28.6758 1.89866 -0.0714356 0
M  V30 272 H 26.8258 3.3765 1.92158 0
M  V30 273 H 28.4978 4.59689 -0.385228 0
M  V30 274 H 26.7408 4.3165 -0.431379 0
M  V30 275 H 27.4118 5.47242 0.723207 0
M  V30 276 H 29.8878 3.80377 1.68678 0
M  V30 277 H 28.7638 4.82127 2.62382 0
M  V30 278 H 29.0248 3.15104 3.101 0
M  V30 279 N 28.0839 -0.256276 1.55502 0
M  V30 280 C 29.0169 -1.34321 1.84481 0
M  V30 281 C 29.9949 -1.46802 0.699131 0
M  V30 282 O 31.1789 -1.63165 0.943904 0
M  V30 283 C 28.3059 -2.71779 2.02123 0
M  V30 284 C 27.3519 -2.76496 3.24734 0
M  V30 285 S 28.1849 -2.3405 4.81644 0
M  V30 286 C 29.3409 -3.73452 5.02279 0
M  V30 287 H 29.5739 -1.09539 2.76385 0
M  V30 288 H 27.1069 -0.45678 1.47489 0
M  V30 289 H 29.0649 -3.50932 2.12972 0
M  V30 290 H 27.7259 -2.93803 1.11078 0
M  V30 291 H 26.9189 -3.77424 3.34016 0
M  V30 292 H 26.5209 -2.05379 3.12563 0
M  V30 293 H 28.8129 -4.6887 4.89047 0
M  V30 294 H 29.7559 -3.6911 6.04287 0
M  V30 295 H 30.1639 -3.6553 4.30172 0
M  V30 296 N 29.562 -1.4872 -0.521534 0
M  V30 297 C 30.808 -1.574 -1.27879 0
M  V30 298 C 31.141 -0.250817 -1.92573 0
M  V30 299 O 30.416 0.743934 -1.79711 0
M  V30 300 C 30.699 -2.71843 -2.36164 0
M  V30 301 C 30.552 -4.13893 -1.76105 0
M  V30 302 C 31.871 -2.82008 -3.37875 0
M  V30 303 H 28.99 -0.572941 -0.463581 0
M  V30 304 H 31.632 -1.80927 -0.580119 0
M  V30 305 H 29.782 -2.51914 -2.95756 0
M  V30 306 H 31.454 -4.45284 -1.20499 0
M  V30 307 H 29.697 -4.20498 -1.06601 0
M  V30 308 H 30.368 -4.89804 -2.5455 0
M  V30 309 H 32.844 -3.00086 -2.88249 0
M  V30 310 H 31.72 -3.63796 -4.11028 0
M  V30 311 H 31.981 -1.90511 -3.98946 0
M  V30 312 N 31.0401 0.771051 -1.3745 0
M  V30 313 C 32.2871 1.52963 -1.32697 0
M  V30 314 C 32.6151 1.94299 0.0883274 0
M  V30 315 O 31.8701 1.64397 1.0617 0
M  V30 316 C 32.1691 2.80676 -2.2126 0
M  V30 317 C 31.8351 2.58389 -3.69521 0
M  V30 318 C 30.4971 2.52019 -4.09927 0
M  V30 319 C 32.8491 2.38469 -4.63446 0
M  V30 320 C 30.1771 2.23721 -5.42371 0
M  V30 321 C 32.5291 2.11694 -5.96128 0
M  V30 322 C 31.1931 2.03769 -6.35637 0
M  V30 323 H 30.4631 0.559732 -0.485573 0
M  V30 324 H 33.1101 0.888083 -1.69662 0
M  V30 325 H 31.4151 3.49392 -1.77291 0
M  V30 326 H 33.1121 3.38557 -2.14895 0
M  V30 327 H 29.7021 2.6421 -3.37478 0
M  V30 328 H 33.8861 2.4238 -4.33089 0
M  V30 329 H 29.1421 2.16081 -5.71943 0
M  V30 330 H 33.3161 1.9528 -6.6846 0
M  V30 331 H 30.9431 1.81606 -7.38189 0
M  V30 332 N 32.5182 1.22032 0.997298 0
M  V30 333 C 33.4812 0.987909 2.06816 0
M  V30 334 C 34.4812 -0.0440084 1.6074 0
M  V30 335 O 35.6712 0.194053 1.73116 0
M  V30 336 C 32.8032 0.49132 3.37341 0
M  V30 337 H 33.9962 1.93803 2.28868 0
M  V30 338 H 31.5492 1.03838 1.16822 0
M  V30 339 H 32.2842 -0.463364 3.20973 0
M  V30 340 H 32.0692 1.23575 3.72118 0
M  V30 341 H 33.5592 0.348824 4.16141 0
M  V30 342 N 33.9963 -1.19345 1.0293 0
M  V30 343 C 35.2213 -1.93538 0.745511 0
M  V30 344 C 35.6463 -1.75007 -0.689511 0
M  V30 345 O 35.0043 -1.05265 -1.47611 0
M  V30 346 C 35.0523 -3.43336 1.10239 0
M  V30 347 O 34.1563 -4.11806 0.221289 0
M  V30 348 H 33.4973 -0.604193 0.275404 0
M  V30 349 H 36.0273 -1.5141 1.37609 0
M  V30 350 H 36.0373 -3.94004 1.05947 0
M  V30 351 H 34.7123 -3.56146 2.14786 0
M  V30 352 H 33.2893 -3.715 0.322842 0
M  V30 353 N 35.4744 -0.807222 -1.35358 0
M  V30 354 C 36.4374 -0.223665 -2.28106 0
M  V30 355 C 37.4374 0.589354 -1.4961 0
M  V30 356 O 38.6274 0.407745 -1.69361 0
M  V30 357 C 35.7594 0.688149 -3.33882 0
M  V30 358 H 36.9524 -1.04169 -2.81227 0
M  V30 359 H 34.5054 -0.577921 -1.45223 0
M  V30 360 H 35.2404 1.52984 -2.85948 0
M  V30 361 H 35.0254 0.10687 -3.91954 0
M  V30 362 H 36.5154 1.09075 -4.03104 0
M  V30 363 N 36.9525 1.47285 -0.560781 0
M  V30 364 C 37.8625 2.33846 0.187954 0
M  V30 365 C 38.8785 1.48412 0.908293 0
M  V30 366 O 40.0545 1.81332 0.876388 0
M  V30 367 C 37.1195 3.25178 1.2025 0
M  V30 368 C 36.1805 4.26504 0.489208 0
M  V30 369 C 35.4135 5.13472 1.45542 0
M  V30 370 O 35.6365 5.02959 2.6905 0
M  V30 371 O 34.5705 5.93902 0.977963 0
M  V30 372 H 38.3965 2.99177 -0.522177 0
M  V30 373 H 35.9815 1.45903 -0.321364 0
M  V30 374 H 37.8635 3.81584 1.78805 0
M  V30 375 H 36.5385 2.6247 1.89449 0
M  V30 376 H 35.4455 3.73847 -0.137627 0
M  V30 377 H 36.7785 4.91935 -0.161399 0
M  V30 378 N 38.4306 0.297415 1.54768 0
M  V30 379 C 39.8466 -0.0560823 1.59501 0
M  V30 380 C 40.0466 -1.52725 1.31444 0
M  V30 381 O 39.1026 -2.27947 1.08611 0
M  V30 382 C 40.4156 0.338631 2.98787 0
M  V30 383 C 41.9636 0.287097 3.11681 0
M  V30 384 C 42.4386 0.656579 4.53269 0
M  V30 385 N 43.9296 0.608977 4.59179 0
M  V30 386 C 44.6646 0.867385 5.66802 0
M  V30 387 N 44.1606 1.19157 6.82476 0
M  V30 388 N 45.9536 0.794687 5.56454 0
M  V30 389 H 38.1046 1.25624 1.71267 0
M  V30 390 H 40.3676 0.509057 0.799728 0
M  V30 391 H 40.0736 1.36263 3.2423 0
M  V30 392 H 39.9476 -0.309508 3.75928 0
M  V30 393 H 42.3346 -0.727649 2.85988 0
M  V30 394 H 42.4156 0.969809 2.36703 0
M  V30 395 H 42.0596 1.66912 4.7969 0
M  V30 396 H 41.9896 -0.0481649 5.26578 0
M  V30 397 H 44.4806 0.369198 3.76092 0
M  V30 398 H 44.7936 1.37482 7.60473 0
M  V30 399 H 43.1386 1.22958 6.84037 0
M  V30 400 H 46.3296 0.541098 4.64962 0
M  V30 401 H 46.5026 0.999445 6.40246 0
M  V30 402 N 39.9087 -1.5758 0.0250728 0
M  V30 403 C 41.3197 -1.79476 -0.514323 0
M  V30 404 C 41.6707 -0.934956 -1.72491 0
M  V30 405 O 40.7957 -0.144245 -2.15919 0
M  V30 406 C 41.3907 -3.25503 -0.939842 0
M  V30 407 C 39.9497 -3.48408 -1.42438 0
M  V30 408 C 39.0967 -2.74583 -0.387201 0
M  V30 409 H 42.0477 -1.567 0.25113 0
M  V30 410 H 42.0687 -3.34992 -1.80445 0
M  V30 411 H 41.5807 -3.88056 -0.0585628 0
M  V30 412 H 39.6817 -2.91103 -2.32572 0
M  V30 413 H 39.7947 -4.57119 -1.43455 0
M  V30 414 H 38.1587 -2.39942 -0.854409 0
M  V30 415 H 38.9417 -3.39849 0.485543 0
M  V30 416 N 41.3868 0.248026 -1.55636 0
M  V30 417 C 42.6328 0.97767 -1.77678 0
M  V30 418 C 42.9658 1.85016 -0.590135 0
M  V30 419 O 42.2408 1.90095 0.411611 0
M  V30 420 C 42.5238 1.83914 -3.09593 0
M  V30 421 C 42.3768 0.99491 -4.38659 0
M  V30 422 C 43.6958 2.82183 -3.37729 0
M  V30 423 H 40.8148 0.354005 -0.646413 0
M  V30 424 H 43.4568 0.248253 -1.88371 0
M  V30 425 H 41.6068 2.46104 -3.00608 0
M  V30 426 H 43.2788 0.391789 -4.59633 0
M  V30 427 H 41.5218 0.299231 -4.32767 0
M  V30 428 H 42.1928 1.63145 -5.2734 0
M  V30 429 H 44.6688 2.30129 -3.4667 0
M  V30 430 H 43.5448 3.39582 -4.31249 0
M  V30 431 H 43.8058 3.58588 -2.58586 0
M  V30 432 N 42.8649 1.48995 0.513639 0
M  V30 433 C 44.1119 1.57843 1.26854 0
M  V30 434 C 44.4399 0.259501 1.92761 0
M  V30 435 O 43.6949 -0.75159 1.80692 0
M  V30 436 C 43.9939 2.67756 2.36731 0
M  V30 437 C 43.6599 4.09669 1.88368 0
M  V30 438 C 42.3219 4.48291 1.74896 0
M  V30 439 C 44.6739 4.98537 1.52021 0
M  V30 440 C 42.0019 5.73568 1.23438 0
M  V30 441 C 44.3539 6.24319 1.0202 0
M  V30 442 C 43.0179 6.61783 0.871778 0
M  V30 443 H 42.2879 0.577587 0.464192 0
M  V30 444 H 44.9349 1.82778 0.571366 0
M  V30 445 H 43.2399 2.36743 3.12185 0
M  V30 446 H 44.9369 2.71813 2.9482 0
M  V30 447 H 41.5269 3.79176 1.99808 0
M  V30 448 H 45.7109 4.69363 1.61281 0
M  V30 449 H 40.9669 6.01304 1.10648 0
M  V30 450 H 45.1409 6.92566 0.729722 0
M  V30 451 H 42.7679 7.5874 0.470852 0
M  V30 452 N 44.343 -0.763751 1.37857 0
M  V30 453 C 45.571 -1.55293 1.36718 0
M  V30 454 C 45.986 -1.88745 -0.0455434 0
M  V30 455 O 45.343 -1.52039 -1.00947 0
M  V30 456 C 45.394 -2.85831 2.2132 0
M  V30 457 O 45.115 -2.5381 3.57089 0
M  V30 458 C 46.616 -3.80023 2.28249 0
M  V30 459 H 43.836 -0.480841 0.468009 0
M  V30 460 H 46.38 -0.946009 1.81303 0
M  V30 461 H 44.535 -3.42926 1.80223 0
M  V30 462 H 44.949 -3.37459 4.01524 0
M  V30 463 H 46.423 -4.68599 2.91752 0
M  V30 464 H 46.9 -4.1973 1.2932 0
M  V30 465 H 47.506 -3.28855 2.69693 0
M  V30 466 N 45.8211 -1.22559 -0.990812 0
M  V30 467 C 46.7691 -0.994798 -2.10253 0
M  V30 468 C 47.7631 0.0627798 -1.69284 0
M  V30 469 O 48.9691 -0.0898392 -1.79776 0
M  V30 470 H 45.3441 -0.304527 -0.687581 0
M  V30 471 H 47.3151 -1.93812 -2.26891 0
M  V30 472 C 46.0641 -0.591439 -3.42633 0
M  V30 473 H 45.3871 -1.3969 -3.74602 0
M  V30 474 H 46.8271 -0.469385 -4.21394 0
M  V30 475 C 45.2861 0.699232 -3.29564 0
M  V30 476 O 45.8161 1.75112 -3.61523 0
M  V30 477 N 44.0221 0.671182 -2.82743 0
M  V30 478 H 43.5691 -0.185136 -2.56934 0
M  V30 479 H 43.5271 1.53502 -2.7438 0
M  V30 480 N 47.2992 1.18797 -1.03562 0
M  V30 481 C 48.2492 2.20161 -0.592724 0
M  V30 482 C 49.2332 1.56772 0.362133 0
M  V30 483 O 50.4252 1.76062 0.182009 0
M  V30 484 C 47.5542 3.43266 0.0481024 0
M  V30 485 C 46.6402 4.13786 -0.9296 0
M  V30 486 N 47.0312 4.60388 -2.09467 0
M  V30 487 C 45.3292 4.39572 -0.754499 0
M  V30 488 C 46.0302 5.14619 -2.71187 0
M  V30 489 N 45.0062 5.05826 -1.991 0
M  V30 490 H 48.8082 2.53877 -1.48066 0
M  V30 491 H 46.3222 1.34946 -0.903514 0
M  V30 492 H 48.3192 4.15136 0.383058 0
M  V30 493 H 46.9792 3.11048 0.931636 0
M  V30 494 H 47.9902 4.54999 -2.47379 0
M  V30 495 H 44.6672 4.17425 0.0793713 0
M  V30 496 H 46.0572 5.60917 -3.69895 0
M  V30 497 N 48.7773 0.814389 1.34928 0
M  V30 498 C 50.0243 0.398423 1.98542 0
M  V30 499 C 50.3523 -1.03638 1.64589 0
M  V30 500 O 49.6073 -1.73509 0.90516 0
M  V30 501 C 49.9063 0.537781 3.53331 0
M  V30 502 C 49.5723 1.93704 4.07172 0
M  V30 503 C 48.2343 2.31984 4.21589 0
M  V30 504 C 50.5863 2.85213 4.36237 0
M  V30 505 C 47.9143 3.61125 4.62391 0
M  V30 506 C 50.2663 4.13809 4.78482 0
M  V30 507 C 48.9303 4.52077 4.91104 0
M  V30 508 H 48.2003 0.145793 0.726516 0
M  V30 509 H 50.8473 1.03669 1.61012 0
M  V30 510 H 49.1523 -0.183906 3.91368 0
M  V30 511 H 50.8493 0.196588 4.00518 0
M  V30 512 H 47.4393 1.62966 3.96409 0
M  V30 513 H 51.6233 2.56885 4.24645 0
M  V30 514 H 46.8793 3.90612 4.70353 0
M  V30 515 H 51.0533 4.84811 4.99932 0
M  V30 516 H 48.6803 5.52196 5.22478 0
M  V30 517 N 50.2554 -1.46986 0.568584 0
M  V30 518 C 51.1854 -2.32946 -0.160753 0
M  V30 519 C 52.1664 -1.44487 -0.897631 0
M  V30 520 O 53.3514 -1.73327 -0.875867 0
M  V30 521 C 50.4814 -3.26494 -1.18403 0
M  V30 522 C 49.4354 -4.24282 -0.562895 0
M  V30 523 C 48.7614 -5.07236 -1.69163 0
M  V30 524 C 50.0614 -5.19989 0.490761 0
M  V30 525 H 51.7554 -2.94175 0.556916 0
M  V30 526 H 49.3014 -1.4146 0.26927 0
M  V30 527 H 51.2544 -3.85477 -1.70251 0
M  V30 528 H 49.9784 -2.63343 -1.93179 0
M  V30 529 H 48.6374 -3.66541 -0.0656164 0
M  V30 530 H 48.2854 -4.4048 -2.42871 0
M  V30 531 H 47.9854 -5.7345 -1.28174 0
M  V30 532 H 49.5094 -5.6908 -2.21314 0
M  V30 533 H 50.9234 -5.73271 0.0579047 0
M  V30 534 H 49.3204 -5.94469 0.820165 0
M  V30 535 H 50.3904 -4.64777 1.3824 0
M  V30 536 N 51.7335 -0.305618 -1.54608 0
M  V30 537 C 52.9795 0.302746 -2.00528 0
M  V30 538 C 53.3125 1.53184 -1.19367 0
M  V30 539 O 52.5875 1.92598 -0.271321 0
M  V30 540 C 52.8705 0.654756 -3.54097 0
M  V30 541 C 52.7235 -0.583793 -4.45995 0
M  V30 542 C 54.0425 1.47947 -4.14487 0
M  V30 543 H 51.1615 0.108564 -0.72896 0
M  V30 544 H 53.8035 -0.418634 -1.85331 0
M  V30 545 H 51.9535 1.26935 -3.67178 0
M  V30 546 H 53.6255 -1.22224 -4.44814 0
M  V30 547 H 51.8685 -1.21615 -4.16404 0
M  V30 548 H 52.5395 -0.293287 -5.5122 0
M  V30 549 H 55.0155 0.96013 -4.04871 0
M  V30 550 H 53.8915 1.69454 -5.22088 0
M  V30 551 H 54.1525 2.47011 -3.66658 0
M  V30 552 N 53.2116 1.57565 -0.0334293 0
M  V30 553 C 54.1216 2.13943 0.962572 0
M  V30 554 C 55.1376 1.09276 1.35406 0
M  V30 555 O 56.3136 1.41355 1.4346 0
M  V30 556 C 53.3786 2.65887 2.22497 0
M  V30 557 C 52.4396 3.85286 1.8935 0
M  V30 558 C 51.6726 4.34743 3.09571 0
M  V30 559 O 51.8956 3.83352 4.22371 0
M  V30 560 O 50.8296 5.26538 2.91618 0
M  V30 561 H 54.6556 2.99333 0.513169 0
M  V30 562 H 52.2406 1.4822 0.18743 0
M  V30 563 H 54.1226 2.99346 2.96598 0
M  V30 564 H 52.7976 1.83578 2.6661 0
M  V30 565 H 51.7046 3.56746 1.1262 0
M  V30 566 H 53.0376 4.68771 1.5005 0
M  V30 567 N 54.6897 -0.239769 1.55765 0
M  V30 568 C 55.6197 -1.30052 1.9393 0
M  V30 569 C 56.6007 -1.49839 0.805132 0
M  V30 570 O 57.7857 -1.62328 1.06599 0
M  V30 571 C 54.9157 -2.65391 2.2402 0
M  V30 572 C 53.8697 -2.60289 3.39755 0
M  V30 573 C 53.1957 -3.99489 3.55405 0
M  V30 574 C 54.4957 -2.16654 4.75246 0
M  V30 575 H 56.1897 -0.983573 2.82783 0
M  V30 576 H 53.7357 -0.471701 1.36055 0
M  V30 577 H 55.6887 -3.3974 2.49308 0
M  V30 578 H 54.4127 -2.98736 1.32 0
M  V30 579 H 53.0717 -1.88398 3.14487 0
M  V30 580 H 52.7197 -4.30112 2.60793 0
M  V30 581 H 52.4197 -3.96962 4.33238 0
M  V30 582 H 53.9437 -4.75528 3.83022 0
M  V30 583 H 55.3577 -2.80737 4.99859 0
M  V30 584 H 53.7547 -2.25223 5.56232 0
M  V30 585 H 54.8247 -1.11835 4.71827 0
M  V30 586 N 56.1678 -1.49265 -0.50573 0
M  V30 587 C 57.1178 -1.6198 -1.60457 0
M  V30 588 C 58.1018 -0.47568 -1.53708 0
M  V30 589 O 59.2938 -0.728392 -1.61318 0
M  V30 590 C 56.4228 -1.68526 -2.99089 0
M  V30 591 C 55.5088 -2.885 -3.10852 0
M  V30 592 N 55.8998 -4.12635 -2.92517 0
M  V30 593 C 54.1978 -2.86338 -3.41945 0
M  V30 594 C 54.8988 -4.93258 -3.08337 0
M  V30 595 N 53.8748 -4.26533 -3.37003 0
M  V30 596 H 57.6768 -2.55681 -1.44928 0
M  V30 597 H 55.1908 -1.45972 -0.711752 0
M  V30 598 H 57.1878 -1.75732 -3.78053 0
M  V30 599 H 55.8478 -0.759584 -3.1569 0
M  V30 600 H 56.8588 -4.42689 -2.68787 0
M  V30 601 H 53.5358 -2.03129 -3.64753 0
M  V30 602 H 54.9258 -6.01856 -2.98695 0
M  V30 603 N 57.6459 0.756429 -1.3826 0
M  V30 604 C 58.5929 1.87011 -1.35261 0
M  V30 605 C 59.5629 1.64695 -0.215616 0
M  V30 606 O 60.7479 1.864 -0.407399 0
M  V30 607 C 57.8879 3.24275 -1.18068 0
M  V30 608 C 57.0009 3.58442 -2.41129 0
M  V30 609 C 56.1359 4.84994 -2.16689 0
M  V30 610 C 55.1749 5.11939 -3.35537 0
M  V30 611 N 54.3119 6.29685 -3.10549 0
M  V30 612 H 59.1519 1.8891 -2.30472 0
M  V30 613 H 56.6889 0.923373 -1.14509 0
M  V30 614 H 58.6469 4.03479 -1.06116 0
M  V30 615 H 57.2769 3.21711 -0.264973 0
M  V30 616 H 56.3289 2.74103 -2.63764 0
M  V30 617 H 57.6409 3.74283 -3.29717 0
M  V30 618 H 56.7949 5.72135 -2.01857 0
M  V30 619 H 55.5339 4.71286 -1.25462 0
M  V30 620 H 54.5389 4.23268 -3.50891 0
M  V30 621 H 55.7639 5.27546 -4.27635 0
M  V30 622 H 53.7099 6.17306 -2.21967 0
M  V30 623 H 53.6269 6.46014 -3.92686 0
M  V30 624 H 54.8949 7.19722 -2.99367 0
M  V30 625 N 59.124 1.23083 0.984299 0
M  V30 626 C 60.372 1.05848 1.72165 0
M  V30 627 C 60.693 -0.406049 1.90726 0
M  V30 628 O 59.963 -1.29139 1.47309 0
M  V30 629 H 58.543 0.388685 0.637913 0
M  V30 630 H 61.205 1.54736 1.18503 0
M  V30 631 H 60.301 1.54327 2.71274 0
M  V30 632 N 60.6021 -1.18246 1.0419 0
M  V30 633 C 61.8501 -1.87886 0.744543 0
M  V30 634 C 62.1711 -1.8082 -0.730006 0
M  V30 635 O 61.4411 -1.22736 -1.52685 0
M  V30 636 H 60.0211 -0.695556 0.272417 0
M  V30 637 H 62.6831 -1.43494 1.31892 0
M  V30 638 H 61.7791 -2.9389 1.05049 0
M  V30 639 N 62.0802 -0.821533 -1.34494 0
M  V30 640 C 62.9902 -0.244355 -2.33324 0
M  V30 641 C 64.0062 0.620527 -1.62559 0
M  V30 642 O 65.1822 0.528754 -1.94335 0
M  V30 643 C 62.2472 0.585368 -3.41723 0
M  V30 644 C 61.3082 -0.301752 -4.28238 0
M  V30 645 C 60.5412 0.488466 -5.3146 0
M  V30 646 O 60.7642 1.72186 -5.4379 0
M  V30 647 O 59.6982 -0.12848 -6.01763 0
M  V30 648 H 63.5242 -1.06231 -2.84515 0
M  V30 649 H 61.1092 -0.583645 -1.37528 0
M  V30 650 H 62.9912 1.05747 -4.07916 0
M  V30 651 H 61.6662 1.38068 -2.92778 0
M  V30 652 H 60.5732 -0.821315 -3.64973 0
M  V30 653 H 61.9062 -1.06138 -4.8062 0
M  V30 654 N 63.5583 1.46682 -0.576371 0
M  V30 655 C 64.8353 1.95599 0.00703437 0
M  V30 656 C 65.2153 1.51904 1.46589 0
M  V30 657 O 64.5633 0.766755 2.15251 0
M  V30 658 C 64.7733 3.4864 -0.158404 0
M  V30 659 C 66.1213 4.24594 -0.0229439 0
M  V30 660 O 67.1453 3.56094 -0.0869173 0
M  V30 661 O 66.0043 5.46373 0.118015 0
M  V30 662 H 63.0983 0.825275 0.053384 0
M  V30 663 H 65.6443 1.56996 -0.644244 0
M  V30 664 H 64.4163 3.7331 -1.17282 0
M  V30 665 H 64.0393 3.94057 0.5296 0
M  V30 666 N 65.0364 0.313813 1.54444 0
M  V30 667 C 65.9834 -0.55655 2.23989 0
M  V30 668 C 66.9534 -1.11943 1.22711 0
M  V30 669 O 68.1384 -1.16158 1.51367 0
M  V30 670 C 65.2784 -1.71635 2.99392 0
M  V30 671 C 64.3914 -1.18364 4.15468 0
M  V30 672 C 63.5264 -2.30834 4.78424 0
M  V30 673 C 62.5654 -1.74762 5.86622 0
M  V30 674 N 61.7024 -2.80855 6.43479 0
M  V30 675 H 66.5424 0.0430893 2.97969 0
M  V30 676 H 64.0794 0.0330359 1.47063 0
M  V30 677 H 66.0374 -2.39868 3.41349 0
M  V30 678 H 64.6674 -2.28742 2.27765 0
M  V30 679 H 63.7194 -0.393163 3.78363 0
M  V30 680 H 65.0314 -0.733262 4.93381 0
M  V30 681 H 64.1854 -3.0699 5.23299 0
M  V30 682 H 62.9244 -2.79204 3.99871 0
M  V30 683 H 61.9294 -0.970995 5.41158 0
M  V30 684 H 63.1544 -1.2728 6.67066 0
M  V30 685 H 61.1004 -3.28535 5.67804 0
M  V30 686 H 61.0174 -2.40351 7.16776 0
M  V30 687 H 62.2854 -3.5687 6.93011 0
M  V30 688 N 66.5145 -1.57545 0.0417849 0
M  V30 689 C 67.4775 -2.09885 -0.92093 0
M  V30 690 C 68.4775 -1.01648 -1.24596 0
M  V30 691 O 69.6675 -1.27759 -1.1842 0
M  V30 692 C 66.7995 -2.57527 -2.23367 0
M  V30 693 H 67.9925 -2.96236 -0.467382 0
M  V30 694 H 65.5455 -1.5493 -0.206467 0
M  V30 695 H 66.2805 -1.74542 -2.73323 0
M  V30 696 H 66.0655 -3.36613 -2.01083 0
M  V30 697 H 67.5555 -2.98201 -2.92346 0
M  V30 698 N 67.9926 0.231505 -1.5589 0
M  V30 699 C 69.4086 0.580748 -1.48659 0
M  V30 700 C 69.6086 1.87617 -0.73498 0
M  V30 701 O 68.6646 2.51046 -0.270586 0
M  V30 702 C 69.9776 0.669202 -2.93159 0
M  V30 703 C 71.5256 0.760499 -3.03621 0
M  V30 704 C 72.0006 0.880383 -4.49459 0
M  V30 705 N 73.4916 0.944861 -4.53461 0
M  V30 706 C 74.2266 1.05716 -5.63571 0
M  V30 707 N 73.7226 1.13403 -6.83456 0
M  V30 708 N 75.5156 1.09152 -5.514 0
M  V30 709 H 67.6666 -0.618695 -2.03189 0
M  V30 710 H 69.9296 -0.215728 -0.923128 0
M  V30 711 H 69.6356 -0.212904 -3.51055 0
M  V30 712 H 69.5096 1.5361 -3.44505 0
M  V30 713 H 71.8966 1.63305 -2.45796 0
M  V30 714 H 71.9776 -0.131864 -2.5546 0
M  V30 715 H 71.6216 0.0123284 -5.07899 0
M  V30 716 H 71.5516 1.78802 -4.95316 0
M  V30 717 H 74.0426 0.896176 -3.6712 0
M  V30 718 H 74.3556 1.21921 -7.63122 0
M  V30 719 H 72.7006 1.10333 -6.86186 0
M  V30 720 H 75.8916 1.02805 -4.56671 0
M  V30 721 H 76.0646 1.17558 -6.37247 0
M  V30 722 N 69.4707 1.49531 0.497807 0
M  V30 723 C 70.4027 1.62559 1.61578 0
M  V30 724 C 71.4157 0.508134 1.54667 0
M  V30 725 O 72.6047 0.780309 1.60541 0
M  V30 726 C 69.7047 1.56925 3.00379 0
M  V30 727 C 68.8777 2.84257 3.3244 0
M  V30 728 C 67.9367 2.71632 4.50669 0
M  V30 729 O 66.9627 3.4557 4.52294 0
M  V30 730 N 68.1647 1.83391 5.5077 0
M  V30 731 H 70.9297 2.58981 1.50828 0
M  V30 732 H 68.4907 1.4666 0.685743 0
M  V30 733 H 70.4827 1.46129 3.77397 0
M  V30 734 H 69.0527 0.683483 3.05037 0
M  V30 735 H 68.2727 3.09381 2.44289 0
M  V30 736 H 69.5607 3.68666 3.5066 0
M  V30 737 H 68.9587 1.22583 5.52259 0
M  V30 738 H 67.5157 1.78515 6.26878 0
M  V30 739 N 70.9488 -0.749086 1.3866 0
M  V30 740 C 72.1948 -1.51056 1.35314 0
M  V30 741 C 72.5278 -1.94121 -0.0553751 0
M  V30 742 O 71.8028 -1.65763 -1.01749 0
M  V30 743 C 72.0858 -2.76003 2.31288 0
M  V30 744 C 71.9388 -2.39047 3.8102 0
M  V30 745 C 73.2578 -3.78046 2.2532 0
M  V30 746 H 70.3768 -0.547972 0.492844 0
M  V30 747 H 73.0188 -0.857628 1.69543 0
M  V30 748 H 71.1688 -3.31716 2.02229 0
M  V30 749 H 72.8408 -1.89074 4.20771 0
M  V30 750 H 71.0838 -1.71449 3.98482 0
M  V30 751 H 71.7548 -3.28462 4.4364 0
M  V30 752 H 74.2308 -3.31884 2.50983 0
M  V30 753 H 73.1068 -4.63159 2.94576 0
M  V30 754 H 73.3678 -4.23957 1.25352 0
M  V30 755 N 72.4269 -1.23603 -0.977757 0
M  V30 756 C 73.3899 -1.02069 -2.05218 0
M  V30 757 C 74.3899 0.0184305 -1.60789 0
M  V30 758 O 75.5799 -0.221569 -1.72785 0
M  V30 759 C 72.7119 -0.544926 -3.36517 0
M  V30 760 H 73.9049 -1.9742 -2.25755 0
M  V30 761 H 71.4579 -1.05684 -1.15155 0
M  V30 762 H 72.1929 0.412241 -3.21669 0
M  V30 763 H 71.9779 -1.2948 -3.70105 0
M  V30 764 H 73.4679 -0.414985 -4.15533 0
M  V30 765 N 73.905 1.17692 -1.04816 0
M  V30 766 C 74.868 2.19787 -0.650117 0
M  V30 767 C 75.868 1.58044 0.296427 0
M  V30 768 O 77.058 1.74012 0.0808097 0
M  V30 769 C 74.19 3.40869 0.0456987 0
M  V30 770 H 75.383 2.56516 -1.5537 0
M  V30 771 H 72.936 1.31708 -0.841594 0
M  V30 772 H 73.671 3.09681 0.962726 0
M  V30 773 H 73.456 3.86928 -0.634727 0
M  V30 774 H 74.946 4.16445 0.310432 0
M  V30 775 N 75.3831 0.828654 1.34056 0
M  V30 776 C 76.2931 0.256725 2.33191 0
M  V30 777 C 77.3091 -0.611898 1.62886 0
M  V30 778 O 78.4851 -0.51844 1.94613 0
M  V30 779 C 75.5501 -0.567238 3.42028 0
M  V30 780 C 74.6111 0.324458 4.28072 0
M  V30 781 C 73.8441 -0.460274 5.31712 0
M  V30 782 O 74.0671 -1.693 5.44696 0
M  V30 783 O 73.0011 0.160391 6.01686 0
M  V30 784 H 76.8271 1.07739 2.83947 0
M  V30 785 H 74.4121 0.59093 1.37217 0
M  V30 786 H 76.2941 -1.03582 4.08471 0
M  V30 787 H 74.9691 -1.36513 2.93506 0
M  V30 788 H 73.8761 0.840659 3.64532 0
M  V30 789 H 75.2091 1.08685 4.8005 0
M  V30 790 N 76.8612 -1.46375 0.584142 0
M  V30 791 C 77.8112 -2.27371 -0.169232 0
M  V30 792 C 78.7952 -1.35955 -0.860523 0
M  V30 793 O 79.9872 -1.60119 -0.754382 0
M  V30 794 C 77.1162 -3.22334 -1.18134 0
M  V30 795 C 76.2022 -4.21235 -0.492088 0
M  V30 796 N 76.5932 -5.03766 0.453129 0
M  V30 797 C 74.8912 -4.39773 -0.742652 0
M  V30 798 C 75.5922 -5.75366 0.85609 0
M  V30 799 N 74.5682 -5.43214 0.204926 0
M  V30 800 H 78.3702 -2.88572 0.557097 0
M  V30 801 H 75.8842 -1.57242 0.406042 0
M  V30 802 H 77.8812 -3.79071 -1.73525 0
M  V30 803 H 76.5412 -2.62693 -1.90847 0
M  V30 804 H 77.5522 -5.11227 0.828723 0
M  V30 805 H 74.2292 -3.91279 -1.45625 0
M  V30 806 H 75.6192 -6.5172 1.63434 0
M  V30 807 N 78.3393 -0.321999 -1.54275 0
M  V30 808 C 79.5873 0.280489 -2.00144 0
M  V30 809 C 79.9083 1.52777 -1.21178 0
M  V30 810 O 79.1783 1.9338 -0.313187 0
M  V30 811 H 77.7583 0.106632 -0.73935 0
M  V30 812 H 80.4203 -0.438184 -1.8991 0
M  V30 813 H 79.5163 0.537972 -3.07428 0
M  V30 814 N 79.8174 1.5752 -0.0501392 0
M  V30 815 C 81.0644 1.9265 0.623874 0
M  V30 816 C 81.3924 0.928411 1.70912 0
M  V30 817 O 80.6474 -0.0594525 1.9561 0
M  V30 818 C 80.9464 3.34467 1.25963 0
M  V30 819 C 80.6124 4.49883 0.302689 0
M  V30 820 C 79.2744 4.81184 0.0393636 0
M  V30 821 C 81.6264 5.20002 -0.353205 0
M  V30 822 C 78.9544 5.79951 -0.887308 0
M  V30 823 C 81.3064 6.1976 -1.26806 0
M  V30 824 C 79.9704 6.49491 -1.54007 0
M  V30 825 H 79.2404 0.704957 0.228292 0
M  V30 826 H 81.8874 1.91146 -0.116398 0
M  V30 827 H 80.1924 3.32333 2.07514 0
M  V30 828 H 81.8894 3.58928 1.78806 0
M  V30 829 H 78.4794 4.25457 0.518109 0
M  V30 830 H 82.6634 4.96033 -0.162854 0
M  V30 831 H 77.9194 6.01322 -1.10553 0
M  V30 832 H 82.0934 6.73205 -1.78236 0
M  V30 833 H 79.7204 7.25837 -2.25976 0
M  V30 834 N 81.2955 -0.223234 1.56011 0
M  V30 835 C 82.5435 -0.946003 1.78592 0
M  V30 836 C 82.8645 -1.84936 0.618349 0
M  V30 837 O 82.1345 -1.92473 -0.364833 0
M  V30 838 H 80.7145 -0.352298 0.658707 0
M  V30 839 H 83.3765 -0.235494 1.93472 0
M  V30 840 H 82.4725 -1.55381 2.70672 0
M  V30 841 N 82.7736 -1.49793 -0.48987 0
M  V30 842 C 84.0196 -1.60078 -1.24511 0
M  V30 843 C 84.3526 -0.291608 -1.91998 0
M  V30 844 O 83.6276 0.705647 -1.81248 0
M  V30 845 C 83.9106 -2.76791 -2.30345 0
M  V30 846 C 83.7636 -4.17535 -1.67286 0
M  V30 847 C 85.0826 -2.89111 -3.31817 0
M  V30 848 H 82.2016 -0.582645 -0.451324 0
M  V30 849 H 84.8436 -1.82117 -0.541612 0
M  V30 850 H 82.9936 -2.5813 -2.90346 0
M  V30 851 H 84.6656 -4.4774 -1.11026 0
M  V30 852 H 82.9086 -4.22665 -0.976577 0
M  V30 853 H 83.5796 -4.95094 -2.44103 0
M  V30 854 H 86.0556 -3.06133 -2.81819 0
M  V30 855 H 84.9316 -3.72433 -4.03219 0
M  V30 856 H 85.1926 -1.9893 -3.94815 0
M  V30 857 N 84.2517 0.741722 -1.39055 0
M  V30 858 C 85.6677 1.04638 -1.20512 0
M  V30 859 C 85.8677 2.01405 -0.0620218 0
M  V30 860 O 84.9237 2.45547 0.588457 0
M  V30 861 C 86.2367 1.6151 -2.53643 0
M  V30 862 C 87.7847 1.73623 -2.6043 0
M  V30 863 C 88.2597 2.33906 -3.93767 0
M  V30 864 N 89.7507 2.41323 -3.9537 0
M  V30 865 C 90.4857 2.88888 -4.95309 0
M  V30 866 N 89.9817 3.36401 -6.05645 0
M  V30 867 N 91.7747 2.88037 -4.82692 0
M  V30 868 H 83.9257 0.0998155 -2.12165 0
M  V30 869 H 86.1887 0.106907 -0.941953 0
M  V30 870 H 85.8947 0.978739 -3.37807 0
M  V30 871 H 85.7687 2.60411 -2.72885 0
M  V30 872 H 88.1557 2.36384 -1.76655 0
M  V30 873 H 88.2367 0.733945 -2.45045 0
M  V30 874 H 87.8807 1.71776 -4.7797 0
M  V30 875 H 87.8107 3.34799 -4.06469 0
M  V30 876 H 90.3017 2.07734 -3.15682 0
M  V30 877 H 90.6147 3.71186 -6.77821 0
M  V30 878 H 88.9597 3.34427 -6.09248 0
M  V30 879 H 92.1507 2.50237 -3.95599 0
M  V30 880 H 92.3237 3.24792 -5.60726 0
M  V30 881 N 85.7298 1.2412 0.971189 0
M  V30 882 C 86.6768 1.0305 2.06517 0
M  V30 883 C 87.6468 -0.0550666 1.66009 0
M  V30 884 O 88.8318 0.0988688 1.90544 0
M  V30 885 C 85.9718 0.637653 3.39158 0
M  V30 886 C 85.0848 1.79633 3.92882 0
M  V30 887 C 84.2198 1.34939 5.13775 0
M  V30 888 C 83.2588 2.47823 5.59687 0
M  V30 889 N 82.3958 2.04022 6.71803 0
M  V30 890 H 87.2358 1.96685 2.23873 0
M  V30 891 H 84.7728 0.979694 1.09729 0
M  V30 892 H 86.7308 0.390931 4.15364 0
M  V30 893 H 85.3608 -0.261693 3.21737 0
M  V30 894 H 84.4128 2.15681 3.13346 0
M  V30 895 H 85.7248 2.64466 4.22918 0
M  V30 896 H 84.8788 1.06134 5.97345 0
M  V30 897 H 83.6178 0.471557 4.85415 0
M  V30 898 H 82.6228 2.77392 4.74693 0
M  V30 899 H 83.8478 3.36158 5.90063 0
M  V30 900 H 81.7938 1.18632 6.45184 0
M  V30 901 H 81.7108 2.82409 7.01271 0
M  V30 902 H 82.9788 1.78347 7.58823 0
M  V30 903 N 87.2079 -1.17134 1.05439 0
M  V30 904 C 88.1379 -2.2342 0.678649 0
M  V30 905 C 89.1189 -1.66971 -0.32476 0
M  V30 906 O 90.3039 -1.93149 -0.201802 0
M  V30 907 C 87.4339 -3.47256 0.0552099 0
M  V30 908 C 86.3879 -4.16543 0.98365 0
M  V30 909 C 85.7139 -5.34231 0.223961 0
M  V30 910 C 87.0139 -4.68495 2.3089 0
M  V30 911 H 88.7079 -2.55105 1.56722 0
M  V30 912 H 86.2539 -1.2262 0.754998 0
M  V30 913 H 88.2069 -4.20828 -0.21946 0
M  V30 914 H 86.9309 -3.14846 -0.868319 0
M  V30 915 H 85.5899 -3.44887 1.24293 0
M  V30 916 H 85.2379 -4.98071 -0.702412 0
M  V30 917 H 84.9379 -5.81527 0.842627 0
M  V30 918 H 86.4619 -6.10585 -0.0433671 0
M  V30 919 H 87.8759 -5.33691 2.09396 0
M  V30 920 H 86.2729 -5.26379 2.88176 0
M  V30 921 H 87.3429 -3.85169 2.94572 0
M  V30 922 N 88.686 -0.835752 -1.33615 0
M  V30 923 C 90.097 -0.487099 -1.80234 0
M  V30 924 C 90.448 0.993627 -1.69179 0
M  V30 925 O 89.573 1.77403 -1.23924 0
M  V30 926 C 90.168 -0.877385 -3.27242 0
M  V30 927 C 88.727 -0.580915 -3.7189 0
M  V30 928 C 87.874 -1.0874 -2.5509 0
M  V30 929 H 90.825 -1.02474 -1.2118 0
M  V30 930 H 90.846 -0.186195 -3.80044 0
M  V30 931 H 90.358 -1.95512 -3.35256 0
M  V30 932 H 88.459 0.486881 -3.69405 0
M  V30 933 H 88.572 -1.13396 -4.65487 0
M  V30 934 H 86.936 -0.508392 -2.49575 0
M  V30 935 H 87.719 -2.17184 -2.65868 0
M  V30 936 N 90.1641 1.46063 -0.591896 0
M  V30 937 C 91.4111 2.02338 -0.0809991 0
M  V30 938 C 91.7391 1.46228 1.28249 0
M  V30 939 O 90.9941 0.620818 1.85592 0
M  V30 940 C 91.2931 3.57391 0.0249813 0
M  V30 941 C 90.9591 4.32583 -1.27211 0
M  V30 942 C 89.6211 4.52844 -1.62745 0
M  V30 943 C 91.9731 4.75687 -2.13005 0
M  V30 944 C 89.3011 5.13462 -2.83855 0
M  V30 945 C 91.6531 5.37644 -3.3335 0
M  V30 946 C 90.3171 5.5613 -3.69155 0
M  V30 947 H 89.5871 0.740407 -0.0296397 0
M  V30 948 H 92.2341 1.75321 -0.770374 0
M  V30 949 H 90.5391 3.83597 0.797537 0
M  V30 950 H 92.2361 3.98621 0.436184 0
M  V30 951 H 88.8261 4.17116 -0.985499 0
M  V30 952 H 93.0101 4.59782 -1.86855 0
M  V30 953 H 88.2661 5.25965 -3.11722 0
M  V30 954 H 92.4401 5.7 -4.00092 0
M  V30 955 H 90.0671 6.0287 -4.63089 0
M  V30 956 N 91.6422 0.330177 1.54103 0
M  V30 957 C 92.6052 -0.520144 2.2322 0
M  V30 958 C 93.6052 -1.03828 1.22786 0
M  V30 959 O 94.7952 -0.929652 1.4732 0
M  V30 960 C 91.9272 -1.72317 2.94142 0
M  V30 961 H 93.1202 0.0841605 2.99782 0
M  V30 962 H 90.6732 0.0813433 1.56088 0
M  V30 963 H 91.4082 -2.36653 2.21734 0
M  V30 964 H 91.1932 -1.35898 3.67796 0
M  V30 965 H 92.6832 -2.3266 3.46784 0
M  V30 966 N 93.1203 -1.57491 0.0584922 0
M  V30 967 C 94.0303 -2.15448 -0.928414 0
M  V30 968 C 95.0463 -1.11416 -1.3365 0
M  V30 969 O 96.2223 -1.4362 -1.41193 0
M  V30 970 C 93.2873 -2.69393 -2.18239 0
M  V30 971 C 92.3483 -3.88249 -1.83196 0
M  V30 972 C 91.5813 -4.39613 -3.02616 0
M  V30 973 O 91.8043 -3.90023 -4.16219 0
M  V30 974 O 90.7383 -5.31111 -2.83204 0
M  V30 975 H 94.5643 -3.00112 -0.465483 0
M  V30 976 H 92.1493 -1.48499 -0.163826 0
M  V30 977 H 94.0313 -3.04026 -2.91798 0
M  V30 978 H 92.7063 -1.87796 -2.63656 0
M  V30 979 H 91.6133 -3.58492 -1.06931 0
M  V30 980 H 92.9463 -4.71098 -1.42573 0
M  V30 981 N 94.5984 0.214957 -1.56127 0
M  V30 982 C 95.8464 0.936518 -1.79091 0
M  V30 983 C 96.1674 1.84606 -0.628148 0
M  V30 984 O 95.4374 1.92664 0.35462 0
M  V30 985 H 94.0174 0.3488 -0.660566 0
M  V30 986 H 96.6794 0.22523 -1.93594 0
M  V30 987 H 95.7754 1.53943 -2.71492 0
M  V30 988 N 96.0765 1.50051 0.48192 0
M  V30 989 C 97.0065 1.71046 1.58951 0
M  V30 990 C 97.9875 0.559288 1.60642 0
M  V30 991 O 99.1725 0.797243 1.77081 0
M  V30 992 C 96.3025 1.79462 2.97339 0
M  V30 993 C 95.2565 2.94558 3.10515 0
M  V30 994 C 94.5825 2.88105 4.50444 0
M  V30 995 C 95.8825 4.35227 2.88747 0
M  V30 996 H 97.5765 2.6378 1.41635 0
M  V30 997 H 95.1225 1.26936 0.679942 0
M  V30 998 H 97.0755 1.92734 3.74742 0
M  V30 999 H 95.7995 0.833412 3.15788 0
M  V30 1000 H 94.4585 2.80918 2.35543 0
M  V30 1001 H 94.1065 1.89853 4.65795 0
M  V30 1002 H 93.8065 3.65366 4.60197 0
M  V30 1003 H 95.3305 3.03412 5.29881 0
M  V30 1004 H 96.7445 4.49449 3.55905 0
M  V30 1005 H 95.1415 5.13856 3.09955 0
M  V30 1006 H 96.2115 4.48347 1.84696 0
M  V30 1007 N 97.5546 -0.734337 1.39446 0
M  V30 1008 C 98.7846 -1.52137 1.39778 0
M  V30 1009 C 99.1926 -1.89198 -0.00929312 0
M  V30 1010 O 98.5356 -1.54666 -0.991168 0
M  V30 1011 C 98.5976 -2.83762 2.20724 0
M  V30 1012 C 98.2616 -2.69131 3.69347 0
M  V30 1013 C 99.2586 -2.37635 4.62413 0
M  V30 1014 C 96.9436 -2.85982 4.1294 0
M  V30 1015 C 98.9376 -2.23172 5.97054 0
M  V30 1016 C 96.6246 -2.71137 5.47657 0
M  V30 1017 C 97.6226 -2.39777 6.39528 0
M  V30 1018 O 97.3106 -2.25026 7.71763 0
M  V30 1019 H 97.0426 -0.476717 0.479288 0
M  V30 1020 H 99.5966 -0.915012 1.83893 0
M  V30 1021 H 97.8266 -3.4666 1.71359 0
M  V30 1022 H 99.5156 -3.45383 2.13226 0
M  V30 1023 H 100.282 -2.24267 4.30034 0
M  V30 1024 H 96.1606 -3.09383 3.41765 0
M  V30 1025 H 99.7046 -1.98617 6.68728 0
M  V30 1026 H 95.6016 -2.84083 5.79626 0
M  V30 1027 H 96.3696 -2.40091 7.82495 0
M  V30 1028 N 99.0327 -1.24633 -0.964593 0
M  V30 1029 C 99.9827 -1.00841 -2.04487 0
M  V30 1030 C 100.967 0.0512468 -1.60818 0
M  V30 1031 O 102.159 -0.162865 -1.76249 0
M  V30 1032 C 99.2877 -0.618474 -3.37683 0
M  V30 1033 C 98.3737 -1.71437 -3.87905 0
M  V30 1034 N 98.7647 -2.9477 -4.11029 0
M  V30 1035 C 97.0627 -1.5926 -4.16596 0
M  V30 1036 C 97.7637 -3.65834 -4.52261 0
M  V30 1037 N 96.7397 -2.9341 -4.57615 0
M  V30 1038 H 100.542 -1.94487 -2.20345 0
M  V30 1039 H 98.0557 -1.14805 -1.14863 0
M  V30 1040 H 100.053 -0.429247 -4.14684 0
M  V30 1041 H 98.7127 0.310766 -3.23209 0
M  V30 1042 H 99.7237 -3.30917 -3.9839 0
M  V30 1043 H 96.4007 -0.731606 -4.1104 0
M  V30 1044 H 97.7907 -4.71646 -4.78539 0
M  V30 1045 N 100.511 1.16574 -1.06058 0
M  V30 1046 C 101.758 1.87047 -0.775873 0
M  V30 1047 C 102.086 1.81562 0.697534 0
M  V30 1048 O 101.341 1.22445 1.52662 0
M  V30 1049 C 101.64 3.36195 -1.21275 0
M  V30 1050 C 101.306 3.6188 -2.68986 0
M  V30 1051 C 99.9678 3.68599 -3.09335 0
M  V30 1052 C 102.32 3.72648 -3.64394 0
M  V30 1053 C 99.6478 3.83584 -4.43937 0
M  V30 1054 C 102 3.89154 -4.98741 0
M  V30 1055 C 100.664 3.94114 -5.3873 0
M  V30 1056 H 99.9338 0.684452 -0.283912 0
M  V30 1057 H 102.581 1.37853 -1.32925 0
M  V30 1058 H 100.886 3.87505 -0.578528 0
M  V30 1059 H 102.583 3.89103 -0.969542 0
M  V30 1060 H 99.1728 3.57281 -2.36744 0
M  V30 1061 H 103.357 3.66769 -3.34356 0
M  V30 1062 H 98.6128 3.85677 -4.74409 0
M  V30 1063 H 102.787 3.96427 -5.72554 0
M  V30 1064 H 100.414 4.05478 -6.43033 0
M  V30 1065 N 101.989 0.842826 1.3317 0
M  V30 1066 C 103.219 0.453397 2.01564 0
M  V30 1067 C 103.627 -0.951147 1.63554 0
M  V30 1068 O 102.97 -1.63021 0.846746 0
M  V30 1069 C 103.032 0.499013 3.5602 0
M  V30 1070 C 102.696 1.86037 4.1742 0
M  V30 1071 C 103.693 2.82416 4.36506 0
M  V30 1072 C 101.378 2.15428 4.53757 0
M  V30 1073 C 103.372 4.06346 4.91082 0
M  V30 1074 C 101.059 3.39615 5.0804 0
M  V30 1075 C 102.057 4.3489 5.26649 0
M  V30 1076 O 101.745 5.5688 5.79776 0
M  V30 1077 H 101.477 0.177871 0.652179 0
M  V30 1078 H 104.031 1.13808 1.70988 0
M  V30 1079 H 102.261 -0.242467 3.85939 0
M  V30 1080 H 103.95 0.126852 4.05702 0
M  V30 1081 H 104.716 2.6101 4.08777 0
M  V30 1082 H 100.595 1.42061 4.38565 0
M  V30 1083 H 104.139 4.80722 5.05522 0
M  V30 1084 H 100.036 3.60876 5.352 0
M  V30 1085 H 100.804 5.58674 5.98185 0
M  V30 1086 N 103.467 -1.45747 0.599634 0
M  V30 1087 C 104.417 -2.27538 -0.145107 0
M  V30 1088 C 105.401 -1.3686 -0.846055 0
M  V30 1089 O 106.593 -1.6091 -0.737357 0
M  V30 1090 C 103.722 -3.23569 -1.14708 0
M  V30 1091 C 102.808 -4.21734 -0.447383 0
M  V30 1092 N 103.199 -5.03257 0.506535 0
M  V30 1093 C 101.497 -4.40536 -0.695966 0
M  V30 1094 C 102.198 -5.74426 0.917068 0
M  V30 1095 N 101.174 -5.42966 0.26253 0
M  V30 1096 H 104.976 -2.87965 0.587672 0
M  V30 1097 H 102.49 -1.56803 0.422697 0
M  V30 1098 H 104.487 -3.8089 -1.69495 0
M  V30 1099 H 103.147 -2.64702 -1.8805 0
M  V30 1100 H 104.158 -5.10319 0.882899 0
M  V30 1101 H 100.835 -3.92802 -1.41467 0
M  V30 1102 H 102.225 -6.4995 1.70338 0
M  V30 1103 N 104.945 -0.338344 -1.53925 0
M  V30 1104 C 105.893 0.536231 -2.26335 0
M  V30 1105 C 106.887 1.1063 -1.28286 0
M  V30 1106 O 108.093 1.05264 -1.46012 0
M  V30 1107 H 104.468 0.191602 -0.727181 0
M  V30 1108 H 106.439 -0.0965747 -2.98244 0
M  V30 1109 C 105.188 1.67803 -3.04528 0
M  V30 1110 H 104.511 1.24864 -3.79801 0
M  V30 1111 H 105.951 2.26526 -3.58416 0
M  V30 1112 C 104.41 2.60439 -2.13712 0
M  V30 1113 O 104.94 3.6255 -1.72975 0
M  V30 1114 N 103.146 2.29006 -1.78898 0
M  V30 1115 H 102.693 1.46011 -2.12223 0
M  V30 1116 H 102.651 2.91248 -1.18416 0
M  V30 1117 N 106.423 1.57458 -0.0668435 0
M  V30 1118 C 107.671 1.92919 0.602214 0
M  V30 1119 C 107.992 0.947215 1.70449 0
M  V30 1120 O 107.262 -0.00544117 1.95899 0
M  V30 1121 H 105.842 0.71217 0.22544 0
M  V30 1122 H 108.504 1.94508 -0.123535 0
M  V30 1123 H 107.6 2.94589 1.03073 0
M  V30 1124 N 107.901 -0.206675 1.56239 0
M  V30 1125 C 108.831 -1.25909 1.96645 0
M  V30 1126 C 109.812 -1.48097 0.836734 0
M  V30 1127 O 110.997 -1.6003 1.10019 0
M  V30 1128 C 108.127 -2.6058 2.29599 0
M  V30 1129 C 107.081 -2.53024 3.452 0
M  V30 1130 C 106.407 -3.91861 3.63798 0
M  V30 1131 C 107.707 -2.06524 4.79734 0
M  V30 1132 H 109.401 -0.923369 2.84806 0
M  V30 1133 H 106.947 -0.442735 1.37025 0
M  V30 1134 H 108.9 -3.34375 2.56459 0
M  V30 1135 H 107.624 -2.95869 1.38307 0
M  V30 1136 H 106.283 -1.81684 3.18412 0
M  V30 1137 H 105.931 -4.24483 2.69857 0
M  V30 1138 H 105.631 -3.87683 4.4156 0
M  V30 1139 H 107.155 -4.67296 3.93022 0
M  V30 1140 H 108.569 -2.70072 5.05702 0
M  V30 1141 H 106.966 -2.13374 5.60885 0
M  V30 1142 H 108.036 -1.01802 4.74093 0
M  V30 1143 N 109.379 -1.50304 -0.473955 0
M  V30 1144 C 110.342 -1.6841 -1.55469 0
M  V30 1145 C 111.342 -0.554905 -1.50922 0
M  V30 1146 O 112.532 -0.821882 -1.53593 0
M  V30 1147 C 109.664 -1.70667 -2.95102 0
M  V30 1148 H 110.857 -2.64828 -1.40733 0
M  V30 1149 H 108.41 -1.39742 -0.700132 0
M  V30 1150 H 109.145 -0.75932 -3.15285 0
M  V30 1151 H 108.93 -2.52698 -2.9981 0
M  V30 1152 H 110.42 -1.8664 -3.73571 0
M  V30 1153 N 110.857 0.726932 -1.39834 0
M  V30 1154 C 111.804 1.841 -1.39197 0
M  V30 1155 C 112.774 1.642 -0.250502 0
M  V30 1156 O 113.959 1.85494 -0.446846 0
M  V30 1157 C 111.099 3.21697 -1.24919 0
M  V30 1158 C 110.212 3.53247 -2.48678 0
M  V30 1159 C 109.347 4.80289 -2.26928 0
M  V30 1160 C 108.386 5.04707 -3.4632 0
M  V30 1161 N 107.523 6.22956 -3.23836 0
M  V30 1162 H 112.363 1.83979 -2.34427 0
M  V30 1163 H 109.9 0.898876 -1.16442 0
M  V30 1164 H 111.858 4.01137 -1.1465 0
M  V30 1165 H 110.488 3.21076 -0.333153 0
M  V30 1166 H 109.54 2.68447 -2.69519 0
M  V30 1167 H 110.852 3.67205 -3.37582 0
M  V30 1168 H 110.006 5.67725 -2.13947 0
M  V30 1169 H 108.745 4.68519 -1.35431 0
M  V30 1170 H 107.75 4.1573 -3.5979 0
M  V30 1171 H 108.975 5.18357 -4.38729 0
M  V30 1172 H 106.921 6.12459 -2.35011 0
M  V30 1173 H 106.838 6.37539 -4.063 0
M  V30 1174 H 108.106 7.1321 -3.14566 0
M  V30 1175 N 112.336 1.25143 0.95797 0
M  V30 1176 C 113.299 1.05321 2.03569 0
M  V30 1177 C 114.299 0.007152 1.60798 0
M  V30 1178 O 115.489 0.24903 1.72411 0
M  V30 1179 C 112.621 0.598394 3.35607 0
M  V30 1180 H 113.814 2.00986 2.22586 0
M  V30 1181 H 111.367 1.07502 1.13459 0
M  V30 1182 H 112.102 -0.361014 3.22284 0
M  V30 1183 H 111.887 1.35351 3.67998 0
M  V30 1184 H 113.377 0.48104 4.1482 0
M  V30 1185 N 113.814 -1.1601 1.06675 0
M  V30 1186 C 114.761 -2.20525 0.680967 0
M  V30 1187 C 115.731 -1.62904 -0.324283 0
M  V30 1188 O 116.916 -1.89615 -0.212294 0
M  V30 1189 C 114.056 -3.45013 0.0776551 0
M  V30 1190 C 113.169 -4.16863 1.13355 0
M  V30 1191 C 112.304 -5.2888 0.49597 0
M  V30 1192 C 111.343 -5.92537 1.53513 0
M  V30 1193 N 110.48 -6.96038 0.920631 0
M  V30 1194 H 115.32 -2.52876 1.57663 0
M  V30 1195 H 112.857 -1.24199 0.788223 0
M  V30 1196 H 114.815 -4.16193 -0.289704 0
M  V30 1197 H 113.445 -3.132 -0.781393 0
M  V30 1198 H 112.497 -3.44248 1.61857 0
M  V30 1199 H 113.809 -4.60294 1.92174 0
M  V30 1200 H 112.963 -6.06653 0.0758604 0
M  V30 1201 H 111.702 -4.86622 -0.324062 0
M  V30 1202 H 110.707 -5.13482 1.9651 0
M  V30 1203 H 111.932 -6.36873 2.35733 0
M  V30 1204 H 109.878 -6.55888 0.12138 0
M  V30 1205 H 109.795 -7.3786 1.64616 0
M  V30 1206 H 111.063 -7.77725 0.525795 0
M  V30 1207 N 115.292 -0.849877 -1.32721 0
M  V30 1208 C 116.708 -0.539102 -1.50219 0
M  V30 1209 C 116.908 0.931271 -1.78689 0
M  V30 1210 O 115.964 1.71455 -1.85363 0
M  V30 1211 C 117.277 -1.42196 -2.64954 0
M  V30 1212 C 118.825 -1.42189 -2.78839 0
M  V30 1213 C 119.3 -2.28985 -3.96648 0
M  V30 1214 N 120.791 -2.26754 -4.03902 0
M  V30 1215 C 121.526 -2.90644 -4.94281 0
M  V30 1216 N 121.022 -3.63629 -5.897 0
M  V30 1217 N 122.815 -2.80057 -4.87365 0
M  V30 1218 H 114.966 -1.80156 -1.12506 0
M  V30 1219 H 117.229 -0.769217 -0.554085 0
M  V30 1220 H 116.935 -2.46733 -2.50631 0
M  V30 1221 H 116.809 -1.10591 -3.60624 0
M  V30 1222 H 119.196 -0.38419 -2.92588 0
M  V30 1223 H 119.277 -1.77807 -1.83898 0
M  V30 1224 H 118.921 -3.32819 -3.83658 0
M  V30 1225 H 118.851 -1.90702 -4.90857 0
M  V30 1226 H 121.342 -1.73688 -3.3562 0
M  V30 1227 H 121.655 -4.09558 -6.55349 0
M  V30 1228 H 120 -3.67737 -5.89741 0
M  V30 1229 H 123.191 -2.22593 -4.11789 0
M  V30 1230 H 123.364 -3.30132 -5.57599 0
M  V30 1231 N 116.77 1.45427 -0.607355 0
M  V30 1232 C 118.186 1.57283 -0.270985 0
M  V30 1233 C 118.386 1.59875 1.22647 0
M  V30 1234 O 117.442 1.52893 2.00948 0
M  V30 1235 C 118.755 2.85566 -0.941952 0
M  V30 1236 C 120.303 2.9924 -0.917849 0
M  V30 1237 C 120.778 4.30293 -1.56882 0
M  V30 1238 N 122.269 4.37051 -1.5343 0
M  V30 1239 C 123.004 5.37123 -2.00715 0
M  V30 1240 N 122.5 6.43734 -2.56084 0
M  V30 1241 N 124.293 5.28479 -1.91484 0
M  V30 1242 H 116.444 1.41988 -1.57966 0
M  V30 1243 H 118.707 0.67885 -0.661715 0
M  V30 1244 H 118.413 2.8955 -1.99633 0
M  V30 1245 H 118.287 3.74322 -0.465096 0
M  V30 1246 H 120.674 2.94822 0.127984 0
M  V30 1247 H 120.755 2.11895 -1.43297 0
M  V30 1248 H 120.399 4.35469 -2.61398 0
M  V30 1249 H 120.329 5.16454 -1.02873 0
M  V30 1250 H 122.82 3.60615 -1.12982 0
M  V30 1251 H 123.133 7.16341 -2.89958 0
M  V30 1252 H 121.478 6.44485 -2.60122 0
M  V30 1253 H 124.669 4.44098 -1.47967 0
M  V30 1254 H 124.842 6.0632 -2.28648 0
M  V30 1255 N 118.248 0.346503 1.53744 0
M  V30 1256 C 119.664 -0.00530975 1.59599 0
M  V30 1257 C 119.864 -1.48465 1.36236 0
M  V30 1258 O 118.92 -2.24376 1.15808 0
M  V30 1259 C 120.233 0.433516 2.97559 0
M  V30 1260 C 121.781 0.386111 3.10609 0
M  V30 1261 C 122.256 0.800451 4.50951 0
M  V30 1262 N 123.747 0.754753 4.5701 0
M  V30 1263 C 124.482 1.04727 5.63755 0
M  V30 1264 N 123.978 1.4081 6.7834 0
M  V30 1265 N 125.771 0.971316 5.53644 0
M  V30 1266 H 117.922 1.31009 1.67184 0
M  V30 1267 H 120.185 0.534242 0.783128 0
M  V30 1268 H 119.891 1.46509 3.19731 0
M  V30 1269 H 119.765 -0.189753 3.76722 0
M  V30 1270 H 122.152 -0.636295 2.88158 0
M  V30 1271 H 122.233 1.04462 2.33498 0
M  V30 1272 H 121.877 1.82088 4.74137 0
M  V30 1273 H 121.807 0.119386 5.26465 0
M  V30 1274 H 124.298 0.488662 3.74727 0
M  V30 1275 H 124.611 1.61607 7.55714 0
M  V30 1276 H 122.956 1.44657 6.79779 0
M  V30 1277 H 126.147 0.688748 4.63005 0
M  V30 1278 H 126.32 1.20263 6.36742 0
M  V30 1279 N 119.726 -1.57421 0.075193 0
M  V30 1280 C 120.951 -1.98364 -0.605515 0
M  V30 1281 C 121.376 -0.953383 -1.62149 0
M  V30 1282 O 120.734 0.0806053 -1.81121 0
M  V30 1283 C 120.782 -3.38332 -1.24756 0
M  V30 1284 O 119.886 -3.37959 -2.36342 0
M  V30 1285 H 119.227 -0.645553 -0.155428 0
M  V30 1286 H 121.757 -2.04044 0.150714 0
M  V30 1287 H 121.767 -3.75591 -1.5936 0
M  V30 1288 H 120.442 -4.12846 -0.503129 0
M  V30 1289 H 119.019 -3.12474 -2.03506 0
M  V30 1290 N 121.204 0.198386 -1.56346 0
M  V30 1291 C 122.134 1.24865 -1.9731 0
M  V30 1292 C 123.115 1.47651 -0.844576 0
M  V30 1293 O 124.3 1.59444 -1.10866 0
M  V30 1294 C 121.43 2.59358 -2.30977 0
M  V30 1295 C 120.384 2.5119 -3.46537 0
M  V30 1296 C 119.71 3.89926 -3.65871 0
M  V30 1297 C 121.01 2.03977 -4.80823 0
M  V30 1298 H 122.704 0.908252 -2.85291 0
M  V30 1299 H 120.25 0.435462 -1.37258 0
M  V30 1300 H 122.203 3.33011 -2.58228 0
M  V30 1301 H 120.927 2.95132 -1.39874 0
M  V30 1302 H 119.586 1.79993 -3.19371 0
M  V30 1303 H 119.234 4.23046 -2.72105 0
M  V30 1304 H 118.934 3.85336 -4.4361 0
M  V30 1305 H 120.458 4.65205 -3.95495 0
M  V30 1306 H 121.872 2.67386 -5.07127 0
M  V30 1307 H 120.269 2.10397 -5.62008 0
M  V30 1308 H 121.339 0.992861 -4.74626 0
M  V30 1309 N 122.682 1.50554 0.465978 0
M  V30 1310 C 123.632 1.66177 1.56106 0
M  V30 1311 C 124.616 0.516265 1.52393 0
M  V30 1312 O 125.808 0.770906 1.5933 0
M  V30 1313 C 122.937 1.76396 2.94515 0
M  V30 1314 C 122.023 2.9664 3.03093 0
M  V30 1315 N 122.414 4.20245 2.81474 0
M  V30 1316 C 120.712 2.95304 3.34233 0
M  V30 1317 C 121.413 5.01259 2.95151 0
M  V30 1318 N 120.389 4.35318 3.25576 0
M  V30 1319 H 124.191 2.59434 1.38099 0
M  V30 1320 H 121.705 1.47808 0.6728 0
M  V30 1321 H 123.702 1.85694 3.73261 0
M  V30 1322 H 122.362 0.843017 3.13565 0
M  V30 1323 H 123.373 4.4966 2.56956 0
M  V30 1324 H 120.05 2.12729 3.59239 0
M  V30 1325 H 121.44 6.09564 2.82632 0
M  V30 1326 N 124.16 -0.719506 1.40217 0
M  V30 1327 C 125.11 -1.8251 1.36653 0
M  V30 1328 C 126.094 -1.59028 0.244732 0
M  V30 1329 O 127.286 -1.70268 0.483524 0
M  V30 1330 C 124.415 -3.20599 1.22763 0
M  V30 1331 C 123.501 -3.49858 2.39708 0
M  V30 1332 N 123.892 -3.49957 3.6519 0
M  V30 1333 C 122.19 -3.80297 2.33002 0
M  V30 1334 C 122.891 -3.77449 4.42614 0
M  V30 1335 N 121.867 -3.96002 3.72402 0
M  V30 1336 H 125.669 -1.80914 2.31619 0
M  V30 1337 H 123.183 -0.918455 1.33933 0
M  V30 1338 H 125.18 -3.99766 1.18292 0
M  V30 1339 H 123.84 -3.23424 0.287614 0
M  V30 1340 H 124.851 -3.309 3.98404 0
M  V30 1341 H 121.528 -3.90635 1.47346 0
M  V30 1342 H 122.918 -3.83863 5.51451 0
M  V30 1343 N 125.638 -1.25649 -0.95132 0
M  V30 1344 C 126.585 -1.06323 -2.04851 0
M  V30 1345 C 127.555 0.0286491 -1.66075 0
M  V30 1346 O 128.74 -0.12917 -1.90362 0
M  V30 1347 C 125.88 -0.691529 -3.381 0
M  V30 1348 C 124.993 -1.85861 -3.89974 0
M  V30 1349 C 124.128 -1.43096 -5.11563 0
M  V30 1350 C 123.167 -2.56696 -5.55674 0
M  V30 1351 N 122.304 -2.14684 -6.68472 0
M  V30 1352 H 127.144 -2.00222 -2.20715 0
M  V30 1353 H 124.681 -0.997027 -1.08156 0
M  V30 1354 H 126.639 -0.456963 -4.1469 0
M  V30 1355 H 125.269 0.210474 -3.22113 0
M  V30 1356 H 124.321 -2.20639 -3.09875 0
M  V30 1357 H 125.633 -2.71161 -4.18657 0
M  V30 1358 H 124.787 -1.15624 -5.9558 0
M  V30 1359 H 123.526 -0.548722 -4.84603 0
M  V30 1360 H 122.531 -2.84909 -4.7022 0
M  V30 1361 H 123.756 -3.45503 -5.8464 0
M  V30 1362 H 121.702 -1.28881 -6.43215 0
M  V30 1363 H 121.619 -2.9353 -6.96689 0
M  V30 1364 H 122.887 -1.90397 -7.5589 0
M  V30 1365 N 127.117 1.15442 -1.07289 0
M  V30 1366 C 128.049 2.19773 -0.650585 0
M  V30 1367 C 129.062 1.60076 0.296572 0
M  V30 1368 O 130.251 1.78293 0.0859905 0
M  V30 1369 C 127.351 3.38838 0.0650398 0
M  V30 1370 C 126.524 4.2808 -0.898141 0
M  V30 1371 C 125.583 5.2574 -0.219926 0
M  V30 1372 O 124.609 5.62654 -0.860773 0
M  V30 1373 N 125.811 5.71205 1.03466 0
M  V30 1374 H 128.576 2.56622 -1.54808 0
M  V30 1375 H 126.137 1.30551 -0.957494 0
M  V30 1376 H 128.129 4.01222 0.529415 0
M  V30 1377 H 126.699 3.00409 0.864466 0
M  V30 1378 H 125.919 3.62804 -1.54165 0
M  V30 1379 H 127.207 4.84577 -1.5512 0
M  V30 1380 H 126.605 5.43325 1.57526 0
M  V30 1381 H 125.162 6.35633 1.44272 0
M  V30 1382 N 128.595 0.856903 1.32268 0
M  V30 1383 C 129.527 0.260412 2.27716 0
M  V30 1384 C 130.54 -0.569137 1.52528 0
M  V30 1385 O 131.729 -0.39326 1.74114 0
M  V30 1386 C 128.829 -0.650477 3.32599 0
M  V30 1387 C 128.002 0.14372 4.37164 0
M  V30 1388 C 127.061 -0.69328 5.21613 0
M  V30 1389 O 126.087 -0.12599 5.69061 0
M  V30 1390 N 127.289 -2.00761 5.44679 0
M  V30 1391 H 130.054 1.08059 2.79541 0
M  V30 1392 H 127.615 0.717103 1.45152 0
M  V30 1393 H 129.607 -1.21581 3.86005 0
M  V30 1394 H 128.177 -1.37133 2.80915 0
M  V30 1395 H 127.397 0.890486 3.8401 0
M  V30 1396 H 128.685 0.68915 5.04111 0
M  V30 1397 H 128.083 -2.49181 5.07863 0
M  V30 1398 H 126.64 -2.52103 6.01072 0
M  V30 1399 N 130.073 -1.45103 0.615059 0
M  V30 1400 C 131.003 -2.33339 -0.0865619 0
M  V30 1401 C 131.984 -1.4727 -0.851209 0
M  V30 1402 O 133.169 -1.76026 -0.820281 0
M  V30 1403 C 130.299 -3.30095 -1.07956 0
M  V30 1404 C 129.253 -4.25858 -0.427628 0
M  V30 1405 C 128.579 -5.12361 -1.5294 0
M  V30 1406 C 129.879 -5.18165 0.655944 0
M  V30 1407 H 131.573 -2.92254 0.650224 0
M  V30 1408 H 129.119 -1.40532 0.314138 0
M  V30 1409 H 131.072 -3.90698 -1.57901 0
M  V30 1410 H 129.796 -2.69355 -1.84703 0
M  V30 1411 H 128.455 -3.66564 0.0510292 0
M  V30 1412 H 128.103 -4.47984 -2.28734 0
M  V30 1413 H 127.803 -5.77238 -1.09865 0
M  V30 1414 H 129.327 -5.75833 -2.03098 0
M  V30 1415 H 130.741 -5.72796 0.240257 0
M  V30 1416 H 129.138 -5.91559 1.00888 0
M  V30 1417 H 130.208 -4.60144 1.52957 0
M  V30 1418 N 131.551 -0.354651 -1.53558 0
M  V30 1419 C 132.461 0.50515 -2.29097 0
M  V30 1420 C 133.477 1.10223 -1.34636 0
M  V30 1421 O 134.653 1.11553 -1.67684 0
M  V30 1422 C 131.718 1.63479 -3.05738 0
M  V30 1423 C 130.779 1.06636 -4.15845 0
M  V30 1424 C 130.012 2.14217 -4.88822 0
M  V30 1425 O 130.235 3.35137 -4.61562 0
M  V30 1426 O 129.169 1.77887 -5.75013 0
M  V30 1427 H 132.995 -0.109237 -3.03503 0
M  V30 1428 H 130.58 -0.119357 -1.48922 0
M  V30 1429 H 132.462 2.2918 -3.5363 0
M  V30 1430 H 131.137 2.23478 -2.34178 0
M  V30 1431 H 130.044 0.373565 -3.7223 0
M  V30 1432 H 131.377 0.511081 -4.89539 0
M  V30 1433 N 133.029 1.57378 -0.0835403 0
M  V30 1434 C 134.445 1.57246 0.273109 0
M  V30 1435 C 134.645 1.09385 1.69225 0
M  V30 1436 O 133.701 0.765051 2.40631 0
M  V30 1437 C 135.014 3.00614 0.0720628 0
M  V30 1438 C 136.562 3.12684 0.1407 0
M  V30 1439 C 137.037 4.57989 -0.0322094 0
M  V30 1440 N 138.528 4.63194 0.0230085 0
M  V30 1441 C 139.263 5.73335 -0.0861941 0
M  V30 1442 N 138.759 6.9235 -0.24958 0
M  V30 1443 N 140.552 5.62093 -0.0282886 0
M  V30 1444 H 132.703 1.86801 -1.0109 0
M  V30 1445 H 134.966 0.861687 -0.395222 0
M  V30 1446 H 134.672 3.39786 -0.907662 0
M  V30 1447 H 134.546 3.68193 0.81936 0
M  V30 1448 H 136.933 2.73391 1.11092 0
M  V30 1449 H 137.014 2.47719 -0.637896 0
M  V30 1450 H 136.658 4.97973 -0.999247 0
M  V30 1451 H 136.588 5.21 0.765937 0
M  V30 1452 H 139.079 3.77613 0.14722 0
M  V30 1453 H 139.392 7.72117 -0.324733 0
M  V30 1454 H 137.737 6.94415 -0.285097 0
M  V30 1455 H 140.928 4.67997 0.0981408 0
M  V30 1456 H 141.101 6.47895 -0.116845 0
M  V30 1457 N 134.507 -0.190092 1.56449 0
M  V30 1458 C 135.784 -0.935886 1.71757 0
M  V30 1459 C 136.164 -2.01173 0.639726 0
M  V30 1460 O 135.512 -2.25827 -0.348502 0
M  V30 1461 C 135.722 -1.51775 3.1427 0
M  V30 1462 C 137.07 -1.99794 3.74656 0
M  V30 1463 O 138.094 -1.61607 3.1743 0
M  V30 1464 O 136.953 -2.70079 4.751 0
M  V30 1465 H 134.047 -0.439229 0.700719 0
M  V30 1466 H 136.593 -0.179395 1.68749 0
M  V30 1467 H 135.365 -0.742505 3.84191 0
M  V30 1468 H 134.988 -2.33894 3.21527 0
M  V30 1469 N 135.985 -1.50799 -0.457987 0
M  V30 1470 C 137.396 -1.55152 -1.0385 0
M  V30 1471 C 137.747 -0.362719 -1.92818 0
M  V30 1472 O 136.872 0.522915 -2.09987 0
M  V30 1473 C 137.467 -2.81173 -1.89017 0
M  V30 1474 C 136.026 -2.88164 -2.42154 0
M  V30 1475 C 135.173 -2.49591 -1.20829 0
M  V30 1476 H 138.124 -1.56874 -0.240068 0
M  V30 1477 H 138.145 -2.63769 -2.74238 0
M  V30 1478 H 137.657 -3.67677 -1.24238 0
M  V30 1479 H 135.758 -2.06042 -3.10447 0
M  V30 1480 H 135.871 -3.91356 -2.76364 0
M  V30 1481 H 134.235 -2.02322 -1.54719 0
M  V30 1482 H 135.018 -3.38418 -0.576927 0
M  V30 1483 N 137.463 0.71206 -1.40597 0
M  V30 1484 C 138.879 1.02058 -1.22704 0
M  V30 1485 C 139.079 2.01228 -0.104729 0
M  V30 1486 O 138.135 2.4674 0.53624 0
M  V30 1487 C 139.448 1.56094 -2.57012 0
M  V30 1488 C 140.996 1.6806 -2.64054 0
M  V30 1489 C 141.471 2.25501 -3.9864 0
M  V30 1490 N 142.962 2.32882 -4.004 0
M  V30 1491 C 143.697 2.78317 -5.01325 0
M  V30 1492 N 143.193 3.23478 -6.12645 0
M  V30 1493 N 144.986 2.77733 -4.88693 0
M  V30 1494 H 137.137 0.0547896 -2.12329 0
M  V30 1495 H 139.4 0.0869027 -0.944008 0
M  V30 1496 H 139.106 0.906865 -3.39807 0
M  V30 1497 H 138.98 2.54564 -2.78347 0
M  V30 1498 H 141.367 2.32583 -1.81629 0
M  V30 1499 H 141.448 0.681802 -2.46546 0
M  V30 1500 H 141.092 1.61598 -4.81506 0
M  V30 1501 H 141.022 3.26102 -4.13479 0
M  V30 1502 H 143.513 2.00991 -3.20017 0
M  V30 1503 H 143.826 3.56725 -6.85542 0
M  V30 1504 H 142.171 3.21429 -6.16205 0
M  V30 1505 H 145.362 2.4179 -4.00818 0
M  V30 1506 H 145.535 3.12826 -5.67489 0
M  V30 1507 N 138.941 1.26152 0.944643 0
M  V30 1508 C 140.187 1.11657 1.69294 0
M  V30 1509 C 140.52 -0.339926 1.91202 0
M  V30 1510 O 139.795 -1.24994 1.49019 0
M  V30 1511 C 140.078 1.88236 3.06984 0
M  V30 1512 C 139.931 3.41772 2.92424 0
M  V30 1513 C 141.25 1.67343 4.07043 0
M  V30 1514 H 138.369 0.407004 0.614424 0
M  V30 1515 H 141.011 1.55106 1.09737 0
M  V30 1516 H 139.161 1.51308 3.57824 0
M  V30 1517 H 140.833 3.88433 2.48832 0
M  V30 1518 H 139.076 3.68974 2.28124 0
M  V30 1519 H 139.747 3.90579 3.90067 0
M  V30 1520 H 142.223 1.99509 3.65151 0
M  V30 1521 H 141.099 2.23346 5.01406 0
M  V30 1522 H 141.36 0.617158 4.37771 0
M  V30 1523 N 140.419 -1.14872 1.07899 0
M  V30 1524 C 141.366 -2.19791 0.704319 0
M  V30 1525 C 142.336 -1.63238 -0.306987 0
M  V30 1526 O 143.521 -1.8983 -0.192171 0
M  V30 1527 C 140.661 -3.44911 0.114244 0
M  V30 1528 C 139.774 -4.15637 1.1777 0
M  V30 1529 C 138.909 -5.28324 0.552037 0
M  V30 1530 C 137.948 -5.90875 1.59789 0
M  V30 1531 N 137.085 -6.95022 0.994404 0
M  V30 1532 H 141.925 -2.5119 1.60336 0
M  V30 1533 H 139.462 -1.23356 0.801352 0
M  V30 1534 H 141.42 -4.16477 -0.245544 0
M  V30 1535 H 140.05 -3.14011 -0.74813 0
M  V30 1536 H 139.102 -3.42512 1.65499 0
M  V30 1537 H 140.414 -4.5823 1.97046 0
M  V30 1538 H 139.568 -6.06538 0.1402 0
M  V30 1539 H 138.307 -4.86939 -0.272431 0
M  V30 1540 H 137.312 -5.11369 2.01945 0
M  V30 1541 H 138.537 -6.34337 2.42474 0
M  V30 1542 H 136.483 -6.55722 0.190939 0
M  V30 1543 H 136.4 -7.36073 1.72432 0
M  V30 1544 H 137.668 -7.77123 0.608253 0
M  V30 1545 N 141.898 -0.863906 -1.31812 0
M  V30 1546 C 142.831 -0.259963 -2.26714 0
M  V30 1547 C 143.809 0.607392 -1.50829 0
M  V30 1548 O 144.993 0.562155 -1.79922 0
M  V30 1549 C 142.12 0.632456 -3.32743 0
M  V30 1550 C 141.166 -0.162743 -4.26189 0
M  V30 1551 S 141.999 -1.53726 -5.12961 0
M  V30 1552 C 143.155 -0.650803 -6.22507 0
M  V30 1553 H 143.388 -1.06445 -2.77591 0
M  V30 1554 H 140.921 -0.662071 -1.39485 0
M  V30 1555 H 142.879 1.14167 -3.94305 0
M  V30 1556 H 141.54 1.41083 -2.80632 0
M  V30 1557 H 140.733 0.517366 -5.01338 0
M  V30 1558 H 140.335 -0.60385 -3.69093 0
M  V30 1559 H 142.627 0.141134 -6.77353 0
M  V30 1560 H 143.57 -1.37322 -6.94657 0
M  V30 1561 H 143.978 -0.221041 -5.64067 0
M  V30 1562 N 143.376 1.44774 -0.622745 0
M  V30 1563 C 144.339 2.29069 0.0774015 0
M  V30 1564 C 145.339 1.4059 0.780461 0
M  V30 1565 O 146.529 1.62551 0.626322 0
M  V30 1566 C 143.661 3.21974 1.12006 0
M  V30 1567 H 144.854 2.92459 -0.663901 0
M  V30 1568 H 142.407 1.51548 -0.382486 0
M  V30 1569 H 143.142 2.63417 1.89162 0
M  V30 1570 H 142.927 3.87168 0.619951 0
M  V30 1571 H 144.417 3.85318 1.60995 0
M  V30 1572 N 144.854 0.36279 1.53368 0
M  V30 1573 C 145.784 -0.476976 2.28576 0
M  V30 1574 C 146.765 -1.08631 1.30894 0
M  V30 1575 O 147.95 -1.10409 1.59761 0
M  V30 1576 C 145.08 -1.61828 3.07293 0
M  V30 1577 C 144.034 -1.13633 4.1264 0
M  V30 1578 C 143.36 -2.36766 4.79423 0
M  V30 1579 C 144.66 -0.223061 5.21823 0
M  V30 1580 H 146.354 0.150474 2.99022 0
M  V30 1581 H 143.9 0.0738103 1.43811 0
M  V30 1582 H 145.853 -2.21237 3.58653 0
M  V30 1583 H 144.577 -2.27292 2.34533 0
M  V30 1584 H 143.236 -0.564945 3.62221 0
M  V30 1585 H 142.884 -3.0068 4.03238 0
M  V30 1586 H 142.584 -2.05192 5.50609 0
M  V30 1587 H 144.108 -2.96865 5.33576 0
M  V30 1588 H 145.522 -0.724545 5.68703 0
M  V30 1589 H 143.919 0.001678 6.001 0
M  V30 1590 H 144.989 0.735553 4.79289 0
M  V30 1591 N 146.332 -1.57332 0.0918853 0
M  V30 1592 C 147.264 -2.10869 -0.898168 0
M  V30 1593 C 148.277 -1.04521 -1.24817 0
M  V30 1594 O 149.466 -1.31977 -1.20184 0
M  V30 1595 C 146.566 -2.57083 -2.2082 0
M  V30 1596 C 145.739 -3.87229 -2.03402 0
M  V30 1597 C 144.798 -4.19324 -3.17889 0
M  V30 1598 O 143.824 -4.88598 -2.91994 0
M  V30 1599 N 145.026 -3.74471 -4.43567 0
M  V30 1600 H 147.791 -2.96439 -0.440943 0
M  V30 1601 H 145.352 -1.61631 -0.0933064 0
M  V30 1602 H 147.344 -2.75602 -2.96354 0
M  V30 1603 H 145.914 -1.76541 -2.57977 0
M  V30 1604 H 145.134 -3.7789 -1.12218 0
M  V30 1605 H 146.422 -4.72379 -1.89038 0
M  V30 1606 H 145.82 -3.18546 -4.67488 0
M  V30 1607 H 144.377 -3.98151 -5.16061 0
M  V30 1608 N 147.81 0.181792 -1.56548 0
M  V30 1609 C 148.742 1.24956 -1.92142 0
M  V30 1610 C 149.755 1.41022 -0.813422 0
M  V30 1611 O 150.944 1.41212 -1.09186 0
M  V30 1612 C 148.044 2.61981 -2.14987 0
M  V30 1613 C 147.217 2.6735 -3.46183 0
M  V30 1614 C 146.276 3.85664 -3.5798 0
M  V30 1615 O 145.302 3.72148 -4.30691 0
M  V30 1616 N 146.504 5.01683 -2.92053 0
M  V30 1617 H 149.269 0.947329 -2.84334 0
M  V30 1618 H 146.83 0.371629 -1.57577 0
M  V30 1619 H 148.822 3.3958 -2.20154 0
M  V30 1620 H 147.392 2.84637 -1.2923 0
M  V30 1621 H 146.612 1.75925 -3.52766 0
M  V30 1622 H 147.9 2.67939 -4.32534 0
M  V30 1623 H 147.298 5.15564 -2.32832 0
M  V30 1624 H 145.855 5.77181 -3.0283 0
M  V30 1625 N 149.288 1.51039 0.449983 0
M  V30 1626 C 150.198 1.74261 1.57067 0
M  V30 1627 C 151.214 0.626363 1.62335 0
M  V30 1628 O 152.39 0.907162 1.79812 0
M  V30 1629 C 149.455 1.85114 2.93144 0
M  V30 1630 C 148.516 3.0893 2.98095 0
M  V30 1631 C 147.749 3.19256 4.27681 0
M  V30 1632 O 147.972 2.35835 5.19363 0
M  V30 1633 O 146.906 4.12144 4.38658 0
M  V30 1634 H 150.732 2.69303 1.40391 0
M  V30 1635 H 148.317 1.35389 0.631688 0
M  V30 1636 H 150.199 1.94311 3.73926 0
M  V30 1637 H 148.874 0.932588 3.09975 0
M  V30 1638 H 147.781 3.0522 2.16314 0
M  V30 1639 H 149.114 4.00433 2.86206 0
M  V30 1640 N 150.766 -0.704594 1.40972 0
M  V30 1641 C 152.014 -1.46169 1.39568 0
M  V30 1642 C 152.335 -1.95 0.00253745 0
M  V30 1643 O 151.605 -1.71095 -0.954114 0
M  V30 1644 H 150.185 -0.542326 0.513704 0
M  V30 1645 H 152.847 -0.834553 1.76128 0
M  V30 1646 H 151.943 -2.32922 2.07735 0
M  V30 1647 N 152.244 -1.26651 -0.937939 0
M  V30 1648 C 153.491 -1.12387 -1.6845 0
M  V30 1649 C 153.819 0.332208 -1.91642 0
M  V30 1650 O 153.074 1.2602 -1.49725 0
M  V30 1651 C 153.373 -1.84168 -3.06295 0
M  V30 1652 C 153.039 -3.34056 -3.02849 0
M  V30 1653 C 151.701 -3.74942 -3.01616 0
M  V30 1654 C 154.053 -4.29741 -2.9491 0
M  V30 1655 C 151.381 -5.09894 -2.90215 0
M  V30 1656 C 153.733 -5.64738 -2.8505 0
M  V30 1657 C 152.397 -6.0493 -2.82162 0
M  V30 1658 H 151.667 -0.411252 -0.616403 0
M  V30 1659 H 154.314 -1.57134 -1.09459 0
M  V30 1660 H 152.619 -1.319 -3.6893 0
M  V30 1661 H 154.316 -1.70569 -3.62915 0
M  V30 1662 H 150.906 -3.01534 -3.0459 0
M  V30 1663 H 155.09 -3.99133 -2.94969 0
M  V30 1664 H 150.346 -5.40194 -2.86358 0
M  V30 1665 H 154.52 -6.38561 -2.77872 0
M  V30 1666 H 152.147 -7.09457 -2.73084 0
M  V30 1667 N 153.722 1.14298 -1.08507 0
M  V30 1668 C 154.999 1.81544 -0.728088 0
M  V30 1669 C 155.379 1.95838 0.78808 0
M  V30 1670 O 154.727 1.51904 1.70697 0
M  V30 1671 C 154.937 3.17169 -1.45619 0
M  V30 1672 C 156.285 3.9265 -1.61591 0
M  V30 1673 O 157.309 3.26762 -1.41793 0
M  V30 1674 O 156.168 5.10807 -1.94263 0
M  V30 1675 H 153.262 0.78491 -0.260471 0
M  V30 1676 H 155.808 1.21307 -1.18671 0
M  V30 1677 H 154.58 3.01934 -2.489 0
M  V30 1678 H 154.203 3.851 -0.989124 0
M  V30 1679 N 155.201 0.870884 1.31352 0
M  V30 1680 C 156.617 0.562932 1.49343 0
M  V30 1681 C 156.817 -0.902725 1.80148 0
M  V30 1682 O 155.873 -1.68484 1.88067 0
M  V30 1683 C 157.186 1.46393 2.62659 0
M  V30 1684 C 158.734 1.46607 2.76542 0
M  V30 1685 C 159.209 2.35266 3.92955 0
M  V30 1686 N 160.7 2.33151 4.00243 0
M  V30 1687 C 161.435 2.98471 4.89594 0
M  V30 1688 N 160.931 3.72964 5.8384 0
M  V30 1689 N 162.724 2.87775 4.82848 0
M  V30 1690 H 154.875 1.81923 1.09626 0
M  V30 1691 H 157.138 0.777934 0.541777 0
M  V30 1692 H 156.844 2.50689 2.46674 0
M  V30 1693 H 156.718 1.16314 3.58819 0
M  V30 1694 H 159.105 0.43069 2.9194 0
M  V30 1695 H 159.186 1.8071 1.81046 0
M  V30 1696 H 158.83 3.38881 3.78315 0
M  V30 1697 H 158.76 1.98487 4.87761 0
M  V30 1698 H 161.251 1.79006 3.32814 0
M  V30 1699 H 161.564 4.19932 6.4875 0
M  V30 1700 H 159.909 3.77073 5.83816 0
M  V30 1701 H 163.1 2.29116 4.08195 0
M  V30 1702 H 163.273 3.38961 5.52277 0
M  V30 1703 N 156.679 -1.44442 0.630414 0
M  V30 1704 C 157.626 -2.30678 -0.0749355 0
M  V30 1705 C 158.596 -1.4344 -0.837502 0
M  V30 1706 O 159.781 -1.72343 -0.818684 0
M  V30 1707 C 156.921 -3.28706 -1.05103 0
M  V30 1708 C 156.034 -4.31046 -0.286954 0
M  V30 1709 C 155.169 -5.16167 -1.2548 0
M  V30 1710 C 154.208 -6.10216 -0.479843 0
M  V30 1711 N 153.345 -6.88039 -1.39811 0
M  V30 1712 H 158.185 -2.90454 0.666386 0
M  V30 1713 H 155.722 -1.43107 0.340404 0
M  V30 1714 H 157.68 -3.84027 -1.63031 0
M  V30 1715 H 156.31 -2.70632 -1.75949 0
M  V30 1716 H 155.362 -3.78203 0.408243 0
M  V30 1717 H 156.674 -4.97794 0.316657 0
M  V30 1718 H 155.828 -5.76002 -1.90544 0
M  V30 1719 H 154.567 -4.49491 -1.89233 0
M  V30 1720 H 153.572 -5.49491 0.184295 0
M  V30 1721 H 154.797 -6.78928 0.152965 0
M  V30 1722 H 152.743 -6.24032 -2.02287 0
M  V30 1723 H 152.66 -7.51223 -0.848508 0
M  V30 1724 H 153.928 -7.52397 -2.03762 0
M  V30 1725 N 158.157 -0.370918 -1.53173 0
M  V30 1726 C 159.104 0.473035 -2.259 0
M  V30 1727 C 160.074 1.07311 -1.26781 0
M  V30 1728 O 161.259 1.1046 -1.55574 0
M  V30 1729 C 158.399 1.60405 -3.05556 0
M  V30 1730 C 157.512 1.02863 -4.19575 0
M  V30 1731 C 156.647 2.12918 -4.86661 0
M  V30 1732 C 155.686 1.52869 -5.92704 0
M  V30 1733 N 154.823 2.56779 -6.53459 0
M  V30 1734 H 159.663 -0.153649 -2.97604 0
M  V30 1735 H 157.2 -0.0875946 -1.46839 0
M  V30 1736 H 159.158 2.27034 -3.50016 0
M  V30 1737 H 157.788 2.20131 -2.36097 0
M  V30 1738 H 156.84 0.252465 -3.79561 0
M  V30 1739 H 158.152 0.549642 -4.95762 0
M  V30 1740 H 157.306 2.87356 -5.34333 0
M  V30 1741 H 156.045 2.6417 -4.09958 0
M  V30 1742 H 155.05 0.769479 -5.44389 0
M  V30 1743 H 156.275 1.02435 -6.7133 0
M  V30 1744 H 154.221 3.07235 -5.79606 0
M  V30 1745 H 154.138 2.13583 -7.25202 0
M  V30 1746 H 155.406 3.30903 -7.05779 0
M  V30 1747 N 159.635 1.57281 -0.100228 0
M  V30 1748 C 161.051 1.57527 0.256416 0
M  V30 1749 C 161.251 1.11173 1.68056 0
M  V30 1750 O 160.307 0.79053 2.39806 0
M  V30 1751 C 161.62 3.00673 0.0401747 0
M  V30 1752 C 163.168 3.12815 0.107528 0
M  V30 1753 C 163.643 4.57929 -0.0807834 0
M  V30 1754 N 165.134 4.63193 -0.0261207 0
M  V30 1755 C 165.869 5.73212 -0.146999 0
M  V30 1756 N 165.365 6.92047 -0.322999 0
M  V30 1757 N 167.158 5.62031 -0.0879044 0
M  V30 1758 H 159.309 1.85718 -1.03065 0
M  V30 1759 H 161.572 0.857446 -0.404339 0
M  V30 1760 H 161.278 3.38804 -0.943649 0
M  V30 1761 H 161.152 3.69042 0.780262 0
M  V30 1762 H 163.539 2.74554 1.08186 0
M  V30 1763 H 163.62 2.47028 -0.664134 0
M  V30 1764 H 163.264 4.96886 -1.05201 0
M  V30 1765 H 163.194 5.21783 0.710635 0
M  V30 1766 H 165.685 3.77748 0.107161 0
M  V30 1767 H 165.998 7.7173 -0.406608 0
M  V30 1768 H 164.343 6.94074 -0.358733 0
M  V30 1769 H 167.534 4.68075 0.048498 0
M  V30 1770 H 167.707 6.47734 -0.185557 0
M  V30 1771 N 161.113 -0.173488 1.56642 0
M  V30 1772 C 162.361 -0.888706 1.81512 0
M  V30 1773 C 162.682 -1.82875 0.676872 0
M  V30 1774 O 161.952 -1.93536 -0.303414 0
M  V30 1775 H 160.532 -0.331164 0.669582 0
M  V30 1776 H 163.194 -0.173823 1.94123 0
M  V30 1777 H 162.29 -1.46691 2.75478 0
M  V30 1778 N 162.591 -1.51276 -0.441967 0
M  V30 1779 C 163.821 -1.67273 -1.21257 0
M  V30 1780 C 164.229 -0.367624 -1.85594 0
M  V30 1781 O 163.572 0.663349 -1.71305 0
M  V30 1782 C 163.634 -2.72807 -2.34129 0
M  V30 1783 C 163.298 -4.1554 -1.90198 0
M  V30 1784 C 164.295 -5.00471 -1.40801 0
M  V30 1785 C 161.98 -4.61616 -1.9803 0
M  V30 1786 C 163.974 -6.29536 -0.998174 0
M  V30 1787 C 161.661 -5.90679 -1.56658 0
M  V30 1788 C 162.659 -6.74466 -1.07633 0
M  V30 1789 O 162.347 -8.01116 -0.668459 0
M  V30 1790 H 162.079 -0.564614 -0.371734 0
M  V30 1791 H 164.633 -1.9843 -0.530521 0
M  V30 1792 H 162.863 -2.36954 -3.05597 0
M  V30 1793 H 164.552 -2.77729 -2.96009 0
M  V30 1794 H 165.318 -4.66079 -1.34148 0
M  V30 1795 H 161.197 -3.96526 -2.35135 0
M  V30 1796 H 164.741 -6.94885 -0.61482 0
M  V30 1797 H 160.638 -6.24586 -1.62979 0
M  V30 1798 H 161.406 -8.14633 -0.794722 0
M  V30 1799 N 164.069 0.697108 -1.41344 0
M  V30 1800 C 165.485 1.00751 -1.2378 0
M  V30 1801 C 165.685 2.01105 -0.126066 0
M  V30 1802 O 164.741 2.47295 0.51004 0
M  V30 1803 C 166.054 1.53359 -2.58653 0
M  V30 1804 C 167.602 1.6525 -2.65822 0
M  V30 1805 C 168.077 2.2126 -4.01009 0
M  V30 1806 N 169.568 2.28622 -4.02847 0
M  V30 1807 C 170.303 2.72984 -5.04249 0
M  V30 1808 N 169.799 3.16962 -6.16041 0
M  V30 1809 N 171.592 2.72534 -4.91611 0
M  V30 1810 H 163.743 0.0322662 -2.12375 0
M  V30 1811 H 166.006 0.0768853 -0.944877 0
M  V30 1812 H 165.712 0.870773 -3.4075 0
M  V30 1813 H 165.586 2.51597 -2.81032 0
M  V30 1814 H 167.973 2.30644 -1.84086 0
M  V30 1815 H 168.054 0.655614 -2.47256 0
M  V30 1816 H 167.698 1.56482 -4.83193 0
M  V30 1817 H 167.628 3.21698 -4.16915 0
M  V30 1818 H 170.119 1.97585 -3.22131 0
M  V30 1819 H 170.432 3.49434 -6.89287 0
M  V30 1820 H 168.777 3.14875 -6.1958 0
M  V30 1821 H 171.968 2.37525 -4.0336 0
M  V30 1822 H 172.141 3.06789 -5.70775 0
M  V30 1823 N 165.547 1.27147 0.931209 0
M  V30 1824 C 166.824 1.0401 1.65654 0
M  V30 1825 C 167.204 -0.426297 2.06751 0
M  V30 1826 O 166.552 -1.40879 1.79904 0
M  V30 1827 C 166.762 1.99834 2.86125 0
M  V30 1828 C 168.11 2.29007 3.57549 0
M  V30 1829 O 169.134 1.97779 2.96246 0
M  V30 1830 O 167.993 2.82222 4.67989 0
M  V30 1831 H 165.087 0.396239 0.725895 0
M  V30 1832 H 167.633 1.38397 0.982056 0
M  V30 1833 H 166.405 2.98744 2.52721 0
M  V30 1834 H 166.028 1.65987 3.61295 0
M  V30 1835 N 167.025 -1.13721 1.09112 0
M  V30 1836 C 168.274 -1.84275 0.82009 0
M  V30 1837 C 168.587 -1.84253 -0.656509 0
M  V30 1838 O 169.793 -2.50668 -1.04296 0
M  V30 1839 C 168.249 -3.30825 1.41714 0
M  V30 1840 C 167.857 -3.39244 2.92605 0
M  V30 1841 C 169.601 -4.06443 1.22492 0
M  V30 1842 C 167.508 -4.80047 3.45411 0
M  V30 1843 H 166.438 -0.690387 0.30312 0
M  V30 1844 H 169.089 -1.28146 1.31343 0
M  V30 1845 H 167.471 -3.86737 0.851498 0
M  V30 1846 H 168.645 -2.93344 3.55367 0
M  V30 1847 H 166.96 -2.77088 3.10823 0
M  V30 1848 H 169.557 -5.10387 1.59402 0
M  V30 1849 H 169.9 -4.15972 0.165299 0
M  V30 1850 H 170.433 -3.56852 1.75788 0
M  V30 1851 H 167.172 -4.75709 4.50978 0
M  V30 1852 H 166.692 -5.26455 2.87411 0
M  V30 1853 H 168.371 -5.48957 3.42425 0
M  V30 1854 N 168.503 -0.877838 -1.30888 0
M  V30 1855 C 169.451 -0.328662 -2.30266 0
M  V30 1856 C 170.445 0.560496 -1.59859 0
M  V30 1857 O 171.651 0.445722 -1.74394 0
M  V30 1858 H 168.026 -0.0876142 -0.746879 0
M  V30 1859 H 169.997 -1.18061 -2.74051 0
M  V30 1860 C 168.746 0.448071 -3.44801 0
M  V30 1861 H 168.069 -0.226859 -3.99156 0
M  V30 1862 H 169.509 0.797541 -4.16432 0
M  V30 1863 C 167.968 1.64239 -2.94155 0
M  V30 1864 O 168.498 2.74175 -2.93583 0
M  V30 1865 N 166.704 1.47716 -2.50256 0
M  V30 1866 H 166.251 0.582821 -2.5092 0
M  V30 1867 H 166.209 2.27765 -2.16727 0
M  V30 1868 N 169.982 1.44106 -0.638065 0
M  V30 1869 C 170.892 2.34513 0.0637334 0
M  V30 1870 C 171.908 1.53018 0.828346 0
M  V30 1871 O 173.084 1.85723 0.779036 0
M  V30 1872 C 170.149 3.31095 1.02844 0
M  V30 1873 C 169.21 4.28497 0.26244 0
M  V30 1874 C 168.443 5.20465 1.1812 0
M  V30 1875 O 168.666 5.16514 2.42011 0
M  V30 1876 O 167.6 5.98251 0.661774 0
M  V30 1877 H 171.426 2.95989 -0.68003 0
M  V30 1878 H 169.011 1.43994 -0.398252 0
M  V30 1879 H 170.893 3.90526 1.58327 0
M  V30 1880 H 169.568 2.72144 1.7527 0
M  V30 1881 H 168.475 3.72592 -0.335602 0
M  V30 1882 H 169.808 4.90388 -0.421936 0
M  V30 1883 N 171.46 0.379036 1.52974 0
M  V30 1884 C 172.709 -0.207612 2.00629 0
M  V30 1885 C 173.022 -1.48758 1.27006 0
M  V30 1886 O 174.228 -2.15365 1.65318 0
M  V30 1887 C 172.684 -0.42053 3.57435 0
M  V30 1888 C 172.292 0.845587 4.39948 0
M  V30 1889 C 174.036 -0.964102 4.13407 0
M  V30 1890 C 171.943 0.601513 5.88333 0
M  V30 1891 H 170.873 -0.0813591 0.749598 0
M  V30 1892 H 173.524 0.499853 1.76561 0
M  V30 1893 H 171.906 -1.18959 3.7771 0
M  V30 1894 H 173.08 1.61848 4.31442 0
M  V30 1895 H 171.395 1.31336 3.95145 0
M  V30 1896 H 173.992 -1.16225 5.21916 0
M  V30 1897 H 174.335 -1.93019 3.68849 0
M  V30 1898 H 174.868 -0.25487 3.96983 0
M  V30 1899 H 171.607 1.53831 6.37194 0
M  V30 1900 H 171.127 -0.132628 5.99653 0
M  V30 1901 H 172.806 0.232134 6.46583 0
M  V30 1902 N 172.938 -1.57226 0.108567 0
M  V30 1903 C 174.215 -1.86333 -0.594939 0
M  V30 1904 C 174.595 -1.00788 -1.85486 0
M  V30 1905 O 173.943 -0.0839293 -2.28346 0
M  V30 1906 C 174.153 -3.37265 -0.897405 0
M  V30 1907 C 175.501 -4.05629 -1.25501 0
M  V30 1908 O 176.525 -3.42224 -0.987998 0
M  V30 1909 O 175.384 -5.17531 -1.75567 0
M  V30 1910 H 172.478 -0.771018 -0.2991 0
M  V30 1911 H 175.024 -1.69102 0.142283 0
M  V30 1912 H 173.796 -3.913 -0.00413806 0
M  V30 1913 H 173.419 -3.59889 -1.69014 0
M  V30 1914 N 174.416 0.165178 -1.56732 0
M  V30 1915 C 175.665 0.879143 -1.81532 0
M  V30 1916 C 175.978 1.83144 -0.686842 0
M  V30 1917 O 177.184 2.58823 -0.819944 0
M  V30 1918 C 175.64 1.61388 -3.21686 0
M  V30 1919 C 175.248 0.704904 -4.4242 0
M  V30 1920 C 176.992 2.3157 -3.55774 0
M  V30 1921 C 174.899 1.44022 -5.73595 0
M  V30 1922 H 173.829 0.332033 -0.676957 0
M  V30 1923 H 176.48 0.132008 -1.83025 0
M  V30 1924 H 174.862 2.40599 -3.14529 0
M  V30 1925 H 176.036 -0.0506815 -4.60772 0
M  V30 1926 H 174.351 0.112419 -4.16248 0
M  V30 1927 H 176.948 2.8719 -4.51028 0
M  V30 1928 H 177.291 3.07201 -2.8095 0
M  V30 1929 H 177.824 1.59297 -3.64513 0
M  V30 1930 H 174.563 0.72612 -6.51466 0
M  V30 1931 H 174.083 2.16898 -5.5921 0
M  V30 1932 H 175.762 1.98606 -6.15764 0
M  V30 1933 N 175.894 1.51508 0.433938 0
M  V30 1934 C 176.842 1.73646 1.54757 0
M  V30 1935 C 177.836 0.602854 1.5831 0
M  V30 1936 O 179.042 0.784318 1.62014 0
M  V30 1937 H 175.417 0.548718 0.51421 0
M  V30 1938 H 177.388 2.66991 1.33261 0
M  V30 1939 C 176.137 1.88172 2.92381 0
M  V30 1940 H 175.46 2.74808 2.90381 0
M  V30 1941 H 176.9 2.07672 3.6966 0
M  V30 1942 C 175.359 0.64239 3.30719 0
M  V30 1943 O 175.889 -0.201362 4.01195 0
M  V30 1944 N 174.095 0.485489 2.86516 0
M  V30 1945 H 173.642 1.17318 2.29334 0
M  V30 1946 H 173.6 -0.342482 3.12529 0
M  V30 1947 N 177.372 -0.689602 1.41712 0
M  V30 1948 C 178.305 -1.81403 1.3845 0
M  V30 1949 C 179.283 -1.60653 0.250874 0
M  V30 1950 O 180.467 -1.83323 0.43874 0
M  V30 1951 C 177.594 -3.18176 1.1611 0
M  V30 1952 C 176.64 -3.57705 2.3227 0
M  V30 1953 S 177.473 -3.61827 3.94767 0
M  V30 1954 C 178.629 -5.01318 3.74742 0
M  V30 1955 H 178.862 -1.83893 2.33603 0
M  V30 1956 H 176.395 -0.858878 1.28307 0
M  V30 1957 H 178.353 -3.97132 1.03907 0
M  V30 1958 H 177.014 -3.13288 0.225668 0
M  V30 1959 H 176.207 -4.57082 2.12349 0
M  V30 1960 H 175.809 -2.86073 2.40911 0
M  V30 1961 H 178.101 -5.88986 3.34817 0
M  V30 1962 H 179.044 -5.26283 4.73743 0
M  V30 1963 H 179.452 -4.73138 3.07898 0
M  V30 1964 N 178.85 -1.27639 -0.924453 0
M  V30 1965 C 179.798 -1.10485 -2.04685 0
M  V30 1966 C 180.792 -0.0270421 -1.69378 0
M  V30 1967 O 181.998 -0.185008 -1.79047 0
M  V30 1968 H 178.373 -0.340546 -0.670472 0
M  V30 1969 H 180.344 -2.05566 -2.16298 0
M  V30 1970 C 179.093 -0.772229 -3.39016 0
M  V30 1971 H 178.416 -1.59351 -3.66671 0
M  V30 1972 H 179.856 -0.692097 -4.18313 0
M  V30 1973 C 178.315 0.523554 -3.32807 0
M  V30 1974 O 178.845 1.55702 -3.70297 0
M  V30 1975 N 177.051 0.520363 -2.85903 0
M  V30 1976 H 176.598 -0.32107 -2.55591 0
M  V30 1977 H 176.556 1.38742 -2.82131 0
M  V30 1978 N 180.328 1.1314 -1.09713 0
M  V30 1979 C 181.605 1.80762 -0.747302 0
M  V30 1980 C 181.985 1.96663 0.767265 0
M  V30 1981 O 181.333 1.53706 1.69076 0
M  V30 1982 C 181.543 3.15606 -1.48975 0
M  V30 1983 C 182.891 3.90914 -1.65746 0
M  V30 1984 O 183.915 3.25239 -1.45251 0
M  V30 1985 O 182.774 5.08718 -1.9967 0
M  V30 1986 H 179.868 0.782103 -0.268782 0
M  V30 1987 H 182.414 1.20041 -1.19951 0
M  V30 1988 H 181.186 2.99278 -2.52088 0
M  V30 1989 H 180.809 3.84029 -1.02991 0
M  V30 1990 N 181.806 0.884767 1.30421 0
M  V30 1991 C 183.217 0.553656 1.78302 0
M  V30 1992 C 183.568 -0.930153 1.7275 0
M  V30 1993 O 182.693 -1.72681 1.30423 0
M  V30 1994 C 183.288 0.998234 3.2376 0
M  V30 1995 C 181.847 0.71854 3.69478 0
M  V30 1996 C 180.994 1.18132 2.50879 0
M  V30 1997 H 183.945 1.06901 1.17294 0
M  V30 1998 H 183.966 0.327118 3.79091 0
M  V30 1999 H 183.478 2.0782 3.27769 0
M  V30 2000 H 181.579 -0.349444 3.70958 0
M  V30 2001 H 181.692 1.30595 4.60958 0
M  V30 2002 H 180.056 0.600669 2.47516 0
M  V30 2003 H 180.839 2.26902 2.57624 0
M  V30 2004 N 183.284 -1.43765 0.645699 0
M  V30 2005 C 184.214 -2.33471 -0.0370477 0
M  V30 2006 C 185.195 -1.49042 -0.819779 0
M  V30 2007 O 186.38 -1.77726 -0.782758 0
M  V30 2008 C 183.51 -3.32311 -1.0093 0
M  V30 2009 C 182.464 -4.2667 -0.337201 0
M  V30 2010 C 181.79 -5.1549 -1.42037 0
M  V30 2011 C 183.09 -5.16657 0.765706 0
M  V30 2012 H 184.784 -2.90809 0.712069 0
M  V30 2013 H 182.33 -1.39834 0.343876 0
M  V30 2014 H 184.283 -3.9396 -1.49578 0
M  V30 2015 H 183.007 -2.73213 -1.78948 0
M  V30 2016 H 181.666 -3.66374 0.128771 0
M  V30 2017 H 181.314 -4.52735 -2.1918 0
M  V30 2018 H 181.014 -5.79438 -0.975966 0
M  V30 2019 H 182.538 -5.80012 -1.90838 0
M  V30 2020 H 183.952 -5.72158 0.361702 0
M  V30 2021 H 182.349 -5.89286 1.13413 0
M  V30 2022 H 183.419 -4.56796 1.62683 0
M  V30 2023 N 184.763 -0.387143 -1.52771 0
M  V30 2024 C 186.01 0.195735 -2.01552 0
M  V30 2025 C 186.338 1.46995 -1.27369 0
M  V30 2026 O 185.593 1.92325 -0.361879 0
M  V30 2027 C 185.892 0.512209 -3.53711 0
M  V30 2028 C 185.558 -0.670202 -4.45891 0
M  V30 2029 C 184.22 -0.994586 -4.70809 0
M  V30 2030 C 186.572 -1.46134 -5.00294 0
M  V30 2031 C 183.9 -2.11169 -5.4738 0
M  V30 2032 C 186.252 -2.56903 -5.78086 0
M  V30 2033 C 184.916 -2.89852 -6.01284 0
M  V30 2034 H 184.186 0.0716246 -0.73753 0
M  V30 2035 H 186.833 -0.524046 -1.8419 0
M  V30 2036 H 185.138 1.31329 -3.69134 0
M  V30 2037 H 186.835 0.975804 -3.88946 0
M  V30 2038 H 183.425 -0.407366 -4.2666 0
M  V30 2039 H 187.609 -1.22397 -4.80971 0
M  V30 2040 H 182.865 -2.3707 -5.63567 0
M  V30 2041 H 187.039 -3.18608 -6.19243 0
M  V30 2042 H 184.666 -3.76533 -6.60399 0
M  V30 2043 N 186.241 1.57166 -0.116904 0
M  V30 2044 C 187.469 1.99473 0.549383 0
M  V30 2045 C 187.884 0.996541 1.60357 0
M  V30 2046 O 187.241 -0.0108731 1.82497 0
M  V30 2047 C 187.292 3.41788 1.17741 0
M  V30 2048 O 187.013 4.37788 0.165362 0
M  V30 2049 C 188.514 3.99216 1.92722 0
M  V30 2050 H 185.734 0.655009 0.145616 0
M  V30 2051 H 188.278 2.03494 -0.202625 0
M  V30 2052 H 186.433 3.38713 1.88021 0
M  V30 2053 H 186.847 5.20806 0.621403 0
M  V30 2054 H 188.321 5.00882 2.31995 0
M  V30 2055 H 188.798 3.3824 2.80161 0
M  V30 2056 H 189.404 4.0583 1.27209 0
M  V30 2057 N 187.719 -0.156864 1.56817 0
M  V30 2058 C 188.666 -1.19394 1.97519 0
M  V30 2059 C 189.636 -1.4322 0.841265 0
M  V30 2060 O 190.821 -1.55719 1.10255 0
M  V30 2061 C 187.961 -2.52483 2.35258 0
M  V30 2062 C 187.074 -2.35914 3.61896 0
M  V30 2063 C 186.209 -3.61969 3.88782 0
M  V30 2064 C 185.248 -3.40395 5.08722 0
M  V30 2065 N 184.385 -4.58556 5.31668 0
M  V30 2066 H 189.225 -0.839845 2.85921 0
M  V30 2067 H 186.762 -0.403264 1.41464 0
M  V30 2068 H 188.72 -3.30071 2.55165 0
M  V30 2069 H 187.35 -2.85859 1.49949 0
M  V30 2070 H 186.402 -1.49429 3.49821 0
M  V30 2071 H 187.714 -2.15926 4.49641 0
M  V30 2072 H 186.868 -4.47989 4.09135 0
M  V30 2073 H 185.607 -3.84951 2.9944 0
M  V30 2074 H 184.612 -2.52763 4.88253 0
M  V30 2075 H 185.837 -3.18822 5.99608 0
M  V30 2076 H 183.783 -4.81729 4.45279 0
M  V30 2077 H 183.7 -4.41535 6.13664 0
M  V30 2078 H 184.968 -5.45817 5.5651 0
M  V30 2079 N 189.197 -1.51736 -0.425897 0
M  V30 2080 C 190.129 -1.70083 -1.53638 0
M  V30 2081 C 191.142 -0.581349 -1.52066 0
M  V30 2082 O 192.331 -0.856017 -1.56635 0
M  V30 2083 C 189.431 -1.71078 -2.9255 0
M  V30 2084 C 188.604 -2.99795 -3.185 0
M  V30 2085 C 187.663 -2.92825 -4.37196 0
M  V30 2086 O 186.689 -3.66756 -4.35291 0
M  V30 2087 N 187.891 -2.0946 -5.41393 0
M  V30 2088 H 190.656 -2.65882 -1.383 0
M  V30 2089 H 188.217 -1.49765 -0.614988 0
M  V30 2090 H 190.209 -1.63969 -3.69995 0
M  V30 2091 H 188.779 -0.828242 -3.01428 0
M  V30 2092 H 187.999 -3.20684 -2.2925 0
M  V30 2093 H 189.287 -3.84977 -3.32671 0
M  V30 2094 H 188.685 -1.48792 -5.45781 0
M  V30 2095 H 187.242 -2.08221 -6.17647 0
M  V30 2096 N 190.675 0.682077 -1.42076 0
M  V30 2097 C 191.921 1.44283 -1.43366 0
M  V30 2098 C 192.276 1.92344 -0.0465775 0
M  V30 2099 O 191.569 1.67517 0.929973 0
M  V30 2100 C 191.763 2.66036 -2.38662 0
M  V30 2101 C 191.592 2.29889 -3.86499 0
M  V30 2102 C 190.362 2.19599 -4.55087 0
M  V30 2103 C 192.56 1.91999 -4.77117 0
M  V30 2104 N 190.542 1.76478 -5.87987 0
M  V30 2105 C 191.913 1.59741 -5.99068 0
M  V30 2106 C 193.968 1.78927 -4.64639 0
M  V30 2107 C 192.671 1.15723 -7.0993 0
M  V30 2108 C 194.697 1.36314 -5.75476 0
M  V30 2109 C 194.059 1.04975 -6.96534 0
M  V30 2110 H 190.158 0.524739 -0.579805 0
M  V30 2111 H 192.742 0.787834 -1.78048 0
M  V30 2112 H 190.913 3.29237 -2.06053 0
M  V30 2113 H 192.645 3.32588 -2.30581 0
M  V30 2114 H 189.4 2.38433 -4.09202 0
M  V30 2115 H 189.824 1.57362 -6.58458 0
M  V30 2116 H 194.466 2.01805 -3.7153 0
M  V30 2117 H 192.184 0.91591 -8.02893 0
M  V30 2118 H 195.77 1.26731 -5.6783 0
M  V30 2119 H 194.65 0.725017 -7.80841 0
M  V30 2120 N 192.153 1.28127 0.917671 0
M  V30 2121 C 193.383 1.17722 1.6978 0
M  V30 2122 C 193.791 -0.267261 1.87303 0
M  V30 2123 O 193.134 -1.19286 1.39702 0
M  V30 2124 C 193.196 1.79958 3.11216 0
M  V30 2125 C 192.86 3.29187 3.16993 0
M  V30 2126 C 193.857 4.25679 2.98485 0
M  V30 2127 C 191.542 3.70075 3.39632 0
M  V30 2128 C 193.536 5.61035 3.02521 0
M  V30 2129 C 191.223 5.05557 3.433 0
M  V30 2130 C 192.221 6.00847 3.24764 0
M  V30 2131 O 191.909 7.33859 3.28187 0
M  V30 2132 H 191.641 0.409788 0.537634 0
M  V30 2133 H 194.195 1.69694 1.15728 0
M  V30 2134 H 192.425 1.22475 3.66793 0
M  V30 2135 H 194.114 1.64125 3.71238 0
M  V30 2136 H 194.88 3.95426 2.80826 0
M  V30 2137 H 190.759 2.96373 3.53106 0
M  V30 2138 H 194.303 6.35388 2.87971 0
M  V30 2139 H 190.2 5.35462 3.60486 0
M  V30 2140 H 190.968 7.42436 3.44575 0
M  V30 2141 N 193.631 -1.12557 1.10312 0
M  V30 2142 C 194.561 -2.20341 0.772798 0
M  V30 2143 C 195.542 -1.68198 -0.25365 0
M  V30 2144 O 196.727 -1.93831 -0.119699 0
M  V30 2145 C 193.857 -3.46709 0.202443 0
M  V30 2146 C 192.811 -4.11996 1.15943 0
M  V30 2147 C 192.137 -5.328 0.450345 0
M  V30 2148 C 193.437 -4.5828 2.50552 0
M  V30 2149 H 195.131 -2.48229 1.674 0
M  V30 2150 H 192.677 -1.19308 0.806326 0
M  V30 2151 H 194.63 -4.2138 -0.0407752 0
M  V30 2152 H 193.354 -3.18245 -0.734001 0
M  V30 2153 H 192.013 -3.39305 1.38808 0
M  V30 2154 H 191.661 -5.00602 -0.490531 0
M  V30 2155 H 191.361 -5.7743 1.08851 0
M  V30 2156 H 192.885 -6.10219 0.215642 0
M  V30 2157 H 194.299 -5.2433 2.31843 0
M  V30 2158 H 192.696 -5.13683 3.10242 0
M  V30 2159 H 193.766 -3.72329 3.10643 0
M  V30 2160 N 195.109 -0.891671 -1.2995 0
M  V30 2161 C 196.358 -0.509521 -1.95158 0
M  V30 2162 C 196.671 0.947388 -1.71125 0
M  V30 2163 O 197.877 1.43669 -2.30372 0
M  V30 2164 C 196.333 -0.860315 -3.49466 0
M  V30 2165 C 195.941 -2.33545 -3.8231 0
M  V30 2166 C 197.685 -0.547687 -4.20952 0
M  V30 2167 C 195.592 -2.62752 -5.29826 0
M  V30 2168 H 194.522 -0.18682 -0.730489 0
M  V30 2169 H 197.173 -1.08756 -1.47798 0
M  V30 2170 H 195.555 -0.211285 -3.95436 0
M  V30 2171 H 196.729 -3.02936 -3.47227 0
M  V30 2172 H 195.044 -2.61629 -3.23944 0
M  V30 2173 H 197.641 -0.742854 -5.29515 0
M  V30 2174 H 197.984 0.51332 -4.13123 0
M  V30 2175 H 198.517 -1.1542 -3.80688 0
M  V30 2176 H 195.256 -3.6762 -5.42712 0
M  V30 2177 H 194.776 -1.97977 -5.66185 0
M  V30 2178 H 196.455 -2.48601 -5.97333 0
M  V30 2179 N 196.587 1.43421 -0.653314 0
M  V30 2180 C 197.535 2.32546 0.0501531 0
M  V30 2181 C 198.529 1.48617 0.812985 0
M  V30 2182 O 199.735 1.64825 0.723375 0
M  V30 2183 H 196.11 0.751185 0.0350032 0
M  V30 2184 H 198.081 2.89602 -0.719261 0
M  V30 2185 C 196.83 3.32925 1.00279 0
M  V30 2186 H 196.153 3.97532 0.425236 0
M  V30 2187 H 197.593 3.9792 1.46409 0
M  V30 2188 C 196.052 2.63532 2.09886 0
M  V30 2189 O 196.582 2.45092 3.18265 0
M  V30 2190 N 194.788 2.22905 1.86445 0
M  V30 2191 H 194.335 2.38103 0.98309 0
M  V30 2192 H 194.293 1.76805 2.59976 0
M  V30 2193 N 198.065 0.39524 1.52563 0
M  V30 2194 C 199.293 -0.184943 2.06072 0
M  V30 2195 C 199.708 -1.40021 1.26647 0
M  V30 2196 O 199.065 -1.79767 0.314672 0
M  V30 2197 C 199.116 -0.549179 3.57304 0
M  V30 2198 O 198.837 0.617813 4.33722 0
M  V30 2199 C 200.338 -1.18459 4.2718 0
M  V30 2200 H 197.558 -0.0265025 0.670476 0
M  V30 2201 H 200.102 0.562184 1.96621 0
M  V30 2202 H 198.257 -1.2462 3.66809 0
M  V30 2203 H 198.671 0.317091 5.23541 0
M  V30 2204 H 200.145 -1.38976 5.34219 0
M  V30 2205 H 200.622 -2.15368 3.82771 0
M  V30 2206 H 201.228 -0.528163 4.22008 0
M  V30 2207 N 199.544 -1.57102 0.125237 0
M  V30 2208 C 200.792 -1.95021 -0.530198 0
M  V30 2209 C 201.113 -1.00982 -1.66816 0
M  V30 2210 O 200.383 -0.0672693 -1.95784 0
M  V30 2211 H 198.963 -0.720046 -0.198853 0
M  V30 2212 H 201.625 -1.93916 0.19564 0
M  V30 2213 H 200.721 -2.98211 -0.920681 0
M  V30 2214 N 201.022 0.148545 -1.56898 0
M  V30 2215 C 201.954 1.20852 -1.9475 0
M  V30 2216 C 202.967 1.39265 -0.843152 0
M  V30 2217 O 204.156 1.38864 -1.12156 0
M  V30 2218 C 201.256 2.57362 -2.20495 0
M  V30 2219 C 200.429 2.59947 -3.51776 0
M  V30 2220 C 199.488 3.77984 -3.6608 0
M  V30 2221 O 198.514 3.62929 -4.38487 0
M  V30 2222 N 199.716 4.95375 -3.02629 0
M  V30 2223 H 202.481 0.886804 -2.86279 0
M  V30 2224 H 200.042 0.338121 -1.5833 0
M  V30 2225 H 202.034 3.34833 -2.27307 0
M  V30 2226 H 200.604 2.81832 -1.35238 0
M  V30 2227 H 199.824 1.68403 -3.56419 0
M  V30 2228 H 201.112 2.58704 -4.38121 0
M  V30 2229 H 200.51 5.10509 -2.43715 0
M  V30 2230 H 199.067 5.70627 -3.15004 0
M  V30 2231 N 202.5 1.5196 0.417844 0
M  V30 2232 C 203.463 1.74065 1.49111 0
M  V30 2233 C 204.463 0.610537 1.48758 0
M  V30 2234 O 205.653 0.87832 1.50437 0
M  V30 2235 C 202.785 1.81502 2.88565 0
M  V30 2236 H 203.978 2.69869 1.30807 0
M  V30 2237 H 201.531 1.42244 0.647785 0
M  V30 2238 H 202.266 0.875813 3.1225 0
M  V30 2239 H 202.051 2.63651 2.90225 0
M  V30 2240 H 203.541 2.00376 3.66387 0
M  V30 2241 N 203.978 -0.674533 1.42435 0
M  V30 2242 C 205.255 -1.4305 1.33402 0
M  V30 2243 C 205.635 -2.11081 -0.0284674 0
M  V30 2244 O 204.983 -2.03257 -1.04397 0
M  V30 2245 C 205.193 -2.43272 2.50239 0
M  V30 2246 C 206.541 -3.07907 2.92367 0
M  V30 2247 O 207.565 -2.53599 2.50132 0
M  V30 2248 O 206.424 -4.0632 3.65467 0
M  V30 2249 H 203.518 -0.638076 0.526106 0
M  V30 2250 H 206.064 -0.703235 1.54443 0
M  V30 2251 H 204.836 -1.91803 3.41068 0
M  V30 2252 H 204.459 -3.23479 2.31186 0
M  V30 2253 N 205.456 -1.28612 -0.910864 0
M  V30 2254 C 206.704 -1.15705 -1.65701 0
M  V30 2255 C 207.025 0.29416 -1.92769 0
M  V30 2256 O 206.295 1.20331 -1.54588 0
M  V30 2257 H 204.875 -0.425216 -0.614167 0
M  V30 2258 H 207.537 -1.61381 -1.0928 0
M  V30 2259 H 206.633 -1.6988 -2.61815 0
M  V30 2260 N 206.934 1.1197 -1.10907 0
M  V30 2261 C 208.162 1.87402 -0.876824 0
M  V30 2262 C 208.577 1.79894 0.573025 0
M  V30 2263 O 207.934 1.17629 1.39534 0
M  V30 2264 C 207.985 3.36428 -1.32282 0
M  V30 2265 O 207.706 3.43765 -2.71582 0
M  V30 2266 C 209.207 4.28783 -1.12518 0
M  V30 2267 H 206.427 0.592793 -0.314384 0
M  V30 2268 H 208.971 1.41649 -1.47499 0
M  V30 2269 H 207.126 3.79706 -0.768229 0
M  V30 2270 H 207.54 4.3652 -2.90776 0
M  V30 2271 H 209.014 5.31613 -1.48633 0
M  V30 2272 H 209.491 4.39153 -0.0642394 0
M  V30 2273 H 210.097 3.91291 -1.66648 0
M  V30 2274 N 208.412 0.89855 1.29475 0
M  V30 2275 C 209.823 0.572537 1.77705 0
M  V30 2276 C 210.174 -0.911778 1.73727 0
M  V30 2277 O 209.299 -1.71288 1.32247 0
M  V30 2278 C 209.894 1.03252 3.22683 0
M  V30 2279 C 208.453 0.757687 3.68695 0
M  V30 2280 C 207.6 1.20787 2.49612 0
M  V30 2281 H 210.551 1.08139 1.16153 0
M  V30 2282 H 210.572 0.367307 3.78723 0
M  V30 2283 H 210.084 2.11285 3.25546 0
M  V30 2284 H 208.185 -0.310079 3.71308 0
M  V30 2285 H 208.298 1.35476 4.59547 0
M  V30 2286 H 206.662 0.626888 2.46865 0
M  V30 2287 H 207.445 2.29622 2.55203 0
M  V30 2288 N 209.89 -1.43072 0.660911 0
M  V30 2289 C 211.138 -2.01323 0.177094 0
M  V30 2290 C 211.459 -1.5245 -1.2159 0
M  V30 2291 O 210.729 -0.740322 -1.81373 0
M  V30 2292 H 209.309 -0.744382 0.0624804 0
M  V30 2293 H 211.971 -1.75179 0.854305 0
M  V30 2294 H 211.067 -3.11649 0.167641 0
M  V30 2295 N 211.368 -0.403325 -1.52352 0
M  V30 2296 C 212.298 0.416205 -2.29761 0
M  V30 2297 C 213.279 1.05123 -1.33728 0
M  V30 2298 O 214.464 1.06134 -1.62632 0
M  V30 2299 C 211.594 1.53624 -3.11475 0
M  V30 2300 C 210.548 1.02653 -4.15507 0
M  V30 2301 C 209.874 2.23971 -4.85532 0
M  V30 2302 C 211.174 0.08463 -5.22231 0
M  V30 2303 H 212.868 -0.229701 -2.98518 0
M  V30 2304 H 210.414 -0.111913 -1.43564 0
M  V30 2305 H 212.367 2.1165 -3.64393 0
M  V30 2306 H 211.091 2.20994 -2.40477 0
M  V30 2307 H 209.75 0.46871 -3.63591 0
M  V30 2308 H 209.398 2.89883 -4.11068 0
M  V30 2309 H 209.098 1.90521 -5.55856 0
M  V30 2310 H 210.622 2.82614 -5.41259 0
M  V30 2311 H 212.036 0.573509 -5.70424 0
M  V30 2312 H 210.433 -0.160783 -5.99885 0
M  V30 2313 H 211.503 -0.86237 -4.7717 0
M  V30 2314 N 212.846 1.57033 -0.133567 0
M  V30 2315 C 214.123 1.87256 0.56522 0
M  V30 2316 C 214.503 1.03726 1.83859 0
M  V30 2317 O 213.851 0.120247 2.28183 0
M  V30 2318 C 214.061 3.3865 0.843636 0
M  V30 2319 C 215.409 4.07574 1.19032 0
M  V30 2320 O 216.433 3.43752 0.933429 0
M  V30 2321 O 215.292 5.20259 1.67312 0
M  V30 2322 H 212.386 0.775678 0.286796 0
M  V30 2323 H 214.932 1.68855 -0.169168 0
M  V30 2324 H 213.704 3.91257 -0.0581149 0
M  V30 2325 H 213.327 3.62532 1.63268 0
M  V30 2326 N 214.325 -0.140222 1.56975 0
M  V30 2327 C 215.255 -1.17456 2.01808 0
M  V30 2328 C 216.236 -1.44415 0.898794 0
M  V30 2329 O 217.421 -1.5522 1.16707 0
M  V30 2330 C 214.551 -2.50607 2.40444 0
M  V30 2331 C 213.505 -2.38155 3.55621 0
M  V30 2332 C 212.831 -3.76078 3.80091 0
M  V30 2333 C 214.131 -1.85991 4.88062 0
M  V30 2334 H 215.825 -0.801743 2.88466 0
M  V30 2335 H 213.371 -0.38422 1.38779 0
M  V30 2336 H 215.324 -3.23197 2.7041 0
M  V30 2337 H 214.048 -2.89737 1.50732 0
M  V30 2338 H 212.707 -1.68016 3.25832 0
M  V30 2339 H 212.355 -4.12656 2.87618 0
M  V30 2340 H 212.055 -3.68606 4.57606 0
M  V30 2341 H 213.579 -4.50206 4.12488 0
M  V30 2342 H 214.993 -2.4838 5.16701 0
M  V30 2343 H 213.39 -1.89393 5.6943 0
M  V30 2344 H 214.46 -0.816023 4.77984 0
M  V30 2345 N 215.803 -1.52179 -0.40978 0
M  V30 2346 C 216.751 -1.76086 -1.51975 0
M  V30 2347 C 217.745 -0.627964 -1.57331 0
M  V30 2348 O 218.951 -0.809993 -1.60745 0
M  V30 2349 H 215.326 -0.556829 -0.505416 0
M  V30 2350 H 217.297 -2.69077 -1.28996 0
M  V30 2351 C 216.046 -1.92799 -2.8935 0
M  V30 2352 H 215.369 -2.79392 -2.85972 0
M  V30 2353 H 216.809 -2.13527 -3.66309 0
M  V30 2354 C 215.268 -0.694923 -3.29655 0
M  V30 2355 O 215.798 0.13751 -4.01465 0
M  V30 2356 N 214.004 -0.53101 -2.85707 0
M  V30 2357 H 213.551 -1.20952 -2.27439 0
M  V30 2358 H 213.509 0.292718 -3.13034 0
M  V30 2359 N 217.281 0.66697 -1.42791 0
M  V30 2360 C 218.527 1.4291 -1.43891 0
M  V30 2361 C 218.86 1.94114 -0.0578972 0
M  V30 2362 O 218.135 1.71414 0.91911 0
M  V30 2363 C 218.418 2.62049 -2.46987 0
M  V30 2364 C 218.271 2.16426 -3.94309 0
M  V30 2365 C 219.59 3.64266 -2.46978 0
M  V30 2366 H 216.709 0.518306 -0.523954 0
M  V30 2367 H 219.351 0.757321 -1.74255 0
M  V30 2368 H 217.501 3.19361 -2.21225 0
M  V30 2369 H 219.173 1.64221 -4.31079 0
M  V30 2370 H 217.416 1.47925 -4.078 0
M  V30 2371 H 218.087 3.02038 -4.62036 0
M  V30 2372 H 220.563 3.16686 -2.69906 0
M  V30 2373 H 219.439 4.45196 -3.21079 0
M  V30 2374 H 219.7 4.15927 -1.49857 0
M  V30 2375 N 218.759 1.29093 0.90403 0
M  V30 2376 C 219.722 1.1386 1.98919 0
M  V30 2377 C 220.722 0.0753457 1.60623 0
M  V30 2378 O 221.912 0.321931 1.71199 0
M  V30 2379 C 219.044 0.740198 3.32767 0
M  V30 2380 H 220.237 2.10246 2.13861 0
M  V30 2381 H 217.79 1.12218 1.08797 0
M  V30 2382 H 218.525 -0.223997 3.23525 0
M  V30 2383 H 218.31 1.50838 3.61926 0
M  V30 2384 H 219.8 0.656546 4.12407 0
M  V30 2385 N 220.237 -1.11381 1.11499 0
M  V30 2386 C 221.147 -2.21019 0.786628 0
M  V30 2387 C 222.163 -1.72597 -0.220507 0
M  V30 2388 O 223.339 -2.01321 -0.0565251 0
M  V30 2389 C 220.404 -3.459 0.235333 0
M  V30 2390 C 219.465 -4.09107 1.30115 0
M  V30 2391 C 218.698 -5.28027 0.776068 0
M  V30 2392 O 218.921 -5.6904 -0.393661 0
M  V30 2393 O 217.855 -5.81835 1.54114 0
M  V30 2394 H 221.681 -2.51521 1.70209 0
M  V30 2395 H 219.266 -1.19928 0.890928 0
M  V30 2396 H 221.148 -4.21346 -0.067715 0
M  V30 2397 H 219.823 -3.17049 -0.652828 0
M  V30 2398 H 218.73 -3.35391 1.65722 0
M  V30 2399 H 220.063 -4.42139 2.16273 0
M  V30 2400 N 221.715 -0.905404 -1.28997 0
M  V30 2401 C 222.678 -0.392253 -2.25819 0
M  V30 2402 C 223.678 0.476753 -1.5357 0
M  V30 2403 O 224.868 0.280994 -1.71919 0
M  V30 2404 C 222 0.438588 -3.38067 0
M  V30 2405 H 223.193 -1.24743 -2.72725 0
M  V30 2406 H 220.746 -0.684051 -1.40536 0
M  V30 2407 H 221.481 1.31352 -2.96508 0
M  V30 2408 H 221.266 -0.184167 -3.91667 0
M  V30 2409 H 222.756 0.78873 -4.10084 0
M  V30 2410 N 223.193 1.4272 -0.668489 0
M  V30 2411 C 224.439 2.02443 -0.197076 0
M  V30 2412 C 224.794 1.51882 1.18109 0
M  V30 2413 O 224.087 0.708618 1.78015 0
M  V30 2414 C 224.281 3.57021 -0.164499 0
M  V30 2415 C 224.11 4.22583 -1.53797 0
M  V30 2416 C 222.88 4.58019 -2.13416 0
M  V30 2417 C 225.078 4.50588 -2.47941 0
M  V30 2418 N 223.06 5.08729 -3.4361 0
M  V30 2419 C 224.431 5.02782 -3.62782 0
M  V30 2420 C 226.486 4.32571 -2.46551 0
M  V30 2421 C 225.189 5.38852 -4.76478 0
M  V30 2422 C 227.215 4.69713 -3.59338 0
M  V30 2423 C 226.577 5.22053 -4.72906 0
M  V30 2424 H 222.676 0.773214 -0.116894 0
M  V30 2425 H 225.26 1.73673 -0.880108 0
M  V30 2426 H 223.431 3.85323 0.487925 0
M  V30 2427 H 225.163 4.03439 0.319207 0
M  V30 2428 H 221.918 4.43566 -1.65969 0
M  V30 2429 H 222.342 5.38521 -4.10273 0
M  V30 2430 H 226.984 3.91365 -1.59978 0
M  V30 2431 H 224.702 5.78993 -5.63731 0
M  V30 2432 H 228.288 4.57454 -3.59482 0
M  V30 2433 H 227.168 5.50258 -5.58736 0
M  V30 2434 N 224.671 0.411399 1.52136 0
M  V30 2435 C 225.581 -0.419774 2.30814 0
M  V30 2436 C 226.597 -1.0515 1.38634 0
M  V30 2437 O 227.773 -1.05252 1.71709 0
M  V30 2438 C 224.838 -1.52019 3.11594 0
M  V30 2439 C 223.899 -0.91129 4.19516 0
M  V30 2440 C 223.132 -1.95927 4.96436 0
M  V30 2441 O 223.355 -3.17775 4.73683 0
M  V30 2442 O 222.289 -1.56423 5.81219 0
M  V30 2443 H 226.115 0.221805 3.02889 0
M  V30 2444 H 223.7 0.174547 1.48377 0
M  V30 2445 H 225.582 -2.15898 3.61892 0
M  V30 2446 H 224.257 -2.14633 2.42311 0
M  V30 2447 H 223.164 -0.235157 3.7336 0
M  V30 2448 H 224.497 -0.32904 4.91099 0
M  V30 2449 N 226.149 -1.5696 0.141893 0
M  V30 2450 C 227.079 -2.19516 -0.795936 0
M  V30 2451 C 228.06 -1.14187 -1.26077 0
M  V30 2452 O 229.245 -1.42511 -1.31925 0
M  V30 2453 C 226.375 -2.81272 -2.03723 0
M  V30 2454 C 225.329 -3.92384 -1.70936 0
M  V30 2455 C 224.655 -4.41052 -3.02287 0
M  V30 2456 C 225.955 -5.13403 -0.959954 0
M  V30 2457 H 227.649 -2.98138 -0.274596 0
M  V30 2458 H 225.195 -1.43406 -0.130636 0
M  V30 2459 H 227.148 -3.237 -2.69808 0
M  V30 2460 H 225.872 -1.99973 -2.58221 0
M  V30 2461 H 224.531 -3.50566 -1.07232 0
M  V30 2462 H 224.179 -3.56582 -3.54765 0
M  V30 2463 H 223.879 -5.15993 -2.81114 0
M  V30 2464 H 225.403 -4.86146 -3.69451 0
M  V30 2465 H 226.817 -5.52706 -1.52279 0
M  V30 2466 H 225.214 -5.94073 -0.848357 0
M  V30 2467 H 226.284 -4.84875 0.0492434 0
M  V30 2468 N 227.627 0.131896 -1.57047 0
M  V30 2469 C 228.875 0.840269 -1.83804 0
M  V30 2470 C 229.196 1.81017 -0.72512 0
M  V30 2471 O 228.466 1.94272 0.251995 0
M  V30 2472 H 227.046 0.313294 -0.678127 0
M  V30 2473 H 229.708 0.122294 -1.94516 0
M  V30 2474 H 228.804 1.39335 -2.79271 0
M  V30 2475 N 229.106 1.52395 0.401703 0
M  V30 2476 C 230.336 1.70429 1.1678 0
M  V30 2477 C 230.744 0.416702 1.84554 0
M  V30 2478 O 230.087 -0.617697 1.73003 0
M  V30 2479 C 230.149 2.78919 2.26814 0
M  V30 2480 C 229.813 4.20437 1.79113 0
M  V30 2481 C 230.81 5.04028 1.27482 0
M  V30 2482 C 228.495 4.66704 1.85722 0
M  V30 2483 C 230.489 6.31961 0.830913 0
M  V30 2484 C 228.176 5.94625 1.40942 0
M  V30 2485 C 229.174 6.77082 0.897128 0
M  V30 2486 O 228.862 8.02607 0.455822 0
M  V30 2487 H 228.594 0.574272 0.356634 0
M  V30 2488 H 231.148 1.99767 0.477724 0
M  V30 2489 H 229.378 2.44973 2.99207 0
M  V30 2490 H 231.067 2.8548 2.88541 0
M  V30 2491 H 231.833 4.69471 1.21744 0
M  V30 2492 H 227.712 4.0262 2.24539 0
M  V30 2493 H 231.256 6.96271 0.430368 0
M  V30 2494 H 227.153 6.28688 1.46362 0
M  V30 2495 H 227.921 8.16453 0.578457 0
M  V30 2496 N 230.584 -0.659388 1.43143 0
M  V30 2497 C 231.812 -1.44723 1.47861 0
M  V30 2498 C 232.227 -1.88563 0.0945886 0
M  V30 2499 O 231.584 -1.59108 -0.893915 0
M  V30 2500 C 231.635 -2.68627 2.41913 0
M  V30 2501 O 231.356 -2.26623 3.74932 0
M  V30 2502 C 232.857 -3.62045 2.55809 0
M  V30 2503 H 230.077 -0.444801 0.502387 0
M  V30 2504 H 232.621 -0.808916 1.87821 0
M  V30 2505 H 230.776 -3.28613 2.05164 0
M  V30 2506 H 231.19 -3.06745 4.2545 0
M  V30 2507 H 232.664 -4.45666 3.25708 0
M  V30 2508 H 233.141 -4.08981 1.60099 0
M  V30 2509 H 233.747 -3.07944 2.93344 0
M  V30 2510 N 232.062 -1.29571 -0.897171 0
M  V30 2511 C 233.31 -1.17456 -1.64464 0
M  V30 2512 C 233.631 0.273698 -1.9307 0
M  V30 2513 O 232.901 1.18684 -1.55855 0
M  V30 2514 H 231.481 -0.431706 -0.609622 0
M  V30 2515 H 234.143 -1.62531 -1.07562 0
M  V30 2516 H 233.239 -1.72648 -2.59998 0
M  V30 2517 N 233.54 1.10788 -1.12088 0
M  V30 2518 C 234.487 2.17025 -0.785407 0
M  V30 2519 C 235.457 1.64265 0.246191 0
M  V30 2520 O 236.642 1.90412 0.121584 0
M  V30 2521 C 233.782 3.44249 -0.242177 0
M  V30 2522 C 232.895 4.1098 -1.33115 0
M  V30 2523 C 232.03 5.25911 -0.747741 0
M  V30 2524 C 231.069 5.84538 -1.81609 0
M  V30 2525 N 230.206 6.90853 -1.25167 0
M  V30 2526 H 235.046 2.45066 -1.69548 0
M  V30 2527 H 232.583 1.20297 -0.846582 0
M  V30 2528 H 234.541 4.17101 0.0908026 0
M  V30 2529 H 233.171 3.16571 0.631072 0
M  V30 2530 H 232.223 3.36133 -1.78097 0
M  V30 2531 H 233.535 4.50601 -2.13917 0
M  V30 2532 H 232.689 6.056 -0.365216 0
M  V30 2533 H 231.428 4.87614 0.0915188 0
M  V30 2534 H 230.433 5.03522 -2.20785 0
M  V30 2535 H 231.658 6.249 -2.6585 0
M  V30 2536 H 229.604 6.54562 -0.434174 0
M  V30 2537 H 229.521 7.29166 -1.99633 0
M  V30 2538 H 230.789 7.7433 -0.896259 0
M  V30 2539 N 235.018 0.912232 1.28515 0
M  V30 2540 C 236.266 0.543523 1.94654 0
M  V30 2541 C 236.587 -0.9155 1.72173 0
M  V30 2542 O 235.857 -1.64708 1.06058 0
M  V30 2543 H 234.437 0.198017 0.720277 0
M  V30 2544 H 237.099 1.16126 1.56527 0
M  V30 2545 H 236.195 0.736684 3.03281 0
M  V30 2546 N 236.496 -1.42363 0.676048 0
M  V30 2547 C 237.742 -2.0182 0.199125 0
M  V30 2548 C 238.075 -1.53339 -1.19168 0
M  V30 2549 O 237.35 -0.736124 -1.80032 0
M  V30 2550 C 237.633 -3.59331 0.235144 0
M  V30 2551 C 237.486 -4.17989 1.66149 0
M  V30 2552 C 238.805 -4.3813 -0.41595 0
M  V30 2553 H 235.924 -0.733293 0.0738311 0
M  V30 2554 H 238.566 -1.69368 0.86107 0
M  V30 2555 H 236.716 -3.87109 -0.328487 0
M  V30 2556 H 238.388 -4.0116 2.27747 0
M  V30 2557 H 236.631 -3.7377 2.20178 0
M  V30 2558 H 237.302 -5.27126 1.63837 0
M  V30 2559 H 239.778 -4.16051 0.0638529 0
M  V30 2560 H 238.654 -5.47717 -0.360115 0
M  V30 2561 H 238.915 -4.16101 -1.49373 0
M  V30 2562 N 237.974 -0.419461 -1.51915 0
M  V30 2563 C 239.202 0.152136 -2.0634 0
M  V30 2564 C 239.617 1.37988 -1.28859 0
M  V30 2565 O 238.974 1.79243 -0.343232 0
M  V30 2566 C 239.025 0.492266 -3.58133 0
M  V30 2567 O 238.746 -0.686736 -4.32684 0
M  V30 2568 C 240.247 1.11648 -4.2901 0
M  V30 2569 H 237.467 0.0158325 -0.670813 0
M  V30 2570 H 240.011 -0.593394 -1.95702 0
M  V30 2571 H 238.166 1.18769 -3.68745 0
M  V30 2572 H 238.58 -0.400341 -5.2297 0
M  V30 2573 H 240.054 1.3046 -5.36362 0
M  V30 2574 H 240.531 2.09251 -3.86148 0
M  V30 2575 H 241.137 0.460958 -4.22795 0
M  V30 2576 N 239.452 1.56882 -0.150215 0
M  V30 2577 C 240.701 1.95403 0.500071 0
M  V30 2578 C 241.014 1.03777 1.658 0
M  V30 2579 O 242.22 1.31889 2.37313 0
M  V30 2580 C 240.676 3.4738 0.941018 0
M  V30 2581 C 240.284 4.47596 -0.190158 0
M  V30 2582 C 242.028 3.9476 1.56091 0
M  V30 2583 C 239.935 5.90787 0.269237 0
M  V30 2584 H 238.865 0.729515 0.190588 0
M  V30 2585 H 241.516 1.81988 -0.235074 0
M  V30 2586 H 239.898 3.56138 1.73152 0
M  V30 2587 H 241.072 4.50536 -0.967157 0
M  V30 2588 H 239.387 4.10151 -0.718666 0
M  V30 2589 H 241.984 4.99181 1.9163 0
M  V30 2590 H 242.327 3.36494 2.45107 0
M  V30 2591 H 242.86 3.88932 0.835249 0
M  V30 2592 H 239.599 6.52879 -0.585621 0
M  V30 2593 H 239.119 5.912 1.01204 0
M  V30 2594 H 240.798 6.42979 0.720176 0
M  V30 2595 N 240.93 -0.123565 1.57115 0
M  V30 2596 C 242.178 -0.83051 1.84247 0
M  V30 2597 C 242.499 -1.80629 0.73471 0
M  V30 2598 O 241.769 -1.94403 -0.241688 0
M  V30 2599 H 240.349 -0.309694 0.679778 0
M  V30 2600 H 243.011 -0.111976 1.94578 0
M  V30 2601 H 242.107 -1.37852 2.80006 0
M  V30 2602 N 242.408 -1.52605 -0.393616 0
M  V30 2603 C 243.657 -1.66649 -1.13627 0
M  V30 2604 C 243.97 -0.410364 -1.91247 0
M  V30 2605 O 245.176 -0.430854 -2.68059 0
M  V30 2606 C 243.632 -2.9449 -2.06891 0
M  V30 2607 C 243.24 -4.27266 -1.34714 0
M  V30 2608 C 244.984 -3.17899 -2.81319 0
M  V30 2609 C 242.891 -5.46217 -2.26717 0
M  V30 2610 H 241.821 -0.62084 -0.427871 0
M  V30 2611 H 244.472 -1.791 -0.399428 0
M  V30 2612 H 242.854 -2.75774 -2.84191 0
M  V30 2613 H 244.028 -4.56518 -0.626714 0
M  V30 2614 H 242.343 -4.10081 -0.722643 0
M  V30 2615 H 244.94 -4.03949 -3.50328 0
M  V30 2616 H 245.283 -2.32777 -3.45139 0
M  V30 2617 H 245.816 -3.37159 -2.11113 0
M  V30 2618 H 242.555 -6.33733 -1.67521 0
M  V30 2619 H 242.075 -5.21283 -2.96689 0
M  V30 2620 H 243.754 -5.7991 -2.86903 0
M  V30 2621 N 243.887 0.651787 -1.4349 0
M  V30 2622 C 244.82 1.77668 -1.43211 0
M  V30 2623 C 245.798 1.59931 -0.29338 0
M  V30 2624 O 246.982 1.82095 -0.487191 0
M  V30 2625 C 244.109 3.14986 -1.24505 0
M  V30 2626 C 243.155 3.51421 -2.41673 0
M  V30 2627 S 243.988 3.51234 -4.04222 0
M  V30 2628 C 245.144 4.91206 -3.87902 0
M  V30 2629 H 245.377 1.77635 -2.38397 0
M  V30 2630 H 242.91 0.824558 -1.30539 0
M  V30 2631 H 244.868 3.94237 -1.144 0
M  V30 2632 H 243.529 3.1258 -0.308651 0
M  V30 2633 H 242.722 4.51291 -2.24393 0
M  V30 2634 H 242.324 2.79585 -2.48411 0
M  V30 2635 H 244.616 5.79902 -3.50315 0
M  V30 2636 H 245.559 5.13537 -4.8753 0
M  V30 2637 H 245.967 4.64808 -3.20334 0
M  V30 2638 N 245.365 1.30045 0.890287 0
M  V30 2639 C 246.642 1.09227 1.62262 0
M  V30 2640 C 247.022 -0.360305 2.08002 0
M  V30 2641 O 246.37 -1.35084 1.84295 0
M  V30 2642 C 246.58 2.08835 2.79623 0
M  V30 2643 C 247.928 2.40266 3.50082 0
M  V30 2644 O 248.952 2.07104 2.89804 0
M  V30 2645 O 247.811 2.96967 4.58773 0
M  V30 2646 H 244.905 0.419132 0.712922 0
M  V30 2647 H 247.451 1.41451 0.937529 0
M  V30 2648 H 246.223 3.06633 2.43089 0
M  V30 2649 H 245.846 1.77397 3.55832 0
M  V30 2650 N 246.843 -1.10192 1.12674 0
M  V30 2651 C 248.12 -1.78717 0.794965 0
M  V30 2652 C 248.5 -1.98628 -0.714853 0
M  V30 2653 O 247.848 -1.58135 -1.64941 0
M  V30 2654 C 248.058 -3.11546 1.5729 0
M  V30 2655 C 249.406 -3.86382 1.76052 0
M  V30 2656 O 250.43 -3.21274 1.53823 0
M  V30 2657 O 249.289 -5.03246 2.13087 0
M  V30 2658 H 246.383 -0.774702 0.289423 0
M  V30 2659 H 248.929 -1.16819 1.23091 0
M  V30 2660 H 247.701 -2.92489 2.59935 0
M  V30 2661 H 247.324 -3.81164 1.13137 0
M  V30 2662 N 248.321 -0.919034 -1.28029 0
M  V30 2663 C 249.569 -0.553838 -1.94363 0
M  V30 2664 C 249.89 0.906357 -1.72656 0
M  V30 2665 O 249.16 1.64143 -1.0693 0
M  V30 2666 H 247.74 -0.201834 -0.719216 0
M  V30 2667 H 250.402 -1.16954 -1.55909 0
M  V30 2668 H 249.498 -0.752758 -3.02886 0
M  V30 2669 N 249.799 1.42003 -0.683588 0
M  V30 2670 C 251.048 2.00638 -0.206681 0
M  V30 2671 C 251.361 1.5472 1.19671 0
M  V30 2672 O 252.567 2.05833 1.77045 0
M  V30 2673 C 251.023 3.58487 -0.318632 0
M  V30 2674 C 250.631 4.1339 -1.72663 0
M  V30 2675 C 252.375 4.24384 0.0991141 0
M  V30 2676 C 250.282 5.63633 -1.79087 0
M  V30 2677 H 249.212 0.750408 -0.0735107 0
M  V30 2678 H 251.863 1.62624 -0.850048 0
M  V30 2679 H 250.245 3.94047 0.392781 0
M  V30 2680 H 251.419 3.89273 -2.46583 0
M  V30 2681 H 249.734 3.59976 -2.09299 0
M  V30 2682 H 252.331 5.34652 0.0713833 0
M  V30 2683 H 252.674 4.00505 1.13586 0
M  V30 2684 H 253.207 3.93816 -0.561599 0
M  V30 2685 H 249.946 5.92323 -2.80774 0
M  V30 2686 H 249.466 5.89714 -1.09535 0
M  V30 2687 H 251.145 6.28201 -1.5483 0
M  V30 2688 N 251.277 0.427512 1.51691 0
M  V30 2689 C 252.554 -0.201684 1.94557 0
M  V30 2690 C 252.934 -1.60981 1.36559 0
M  V30 2691 O 252.282 -2.21814 0.548702 0
M  V30 2692 C 252.492 -0.189394 3.48486 0
M  V30 2693 C 253.84 -0.39978 4.22714 0
M  V30 2694 O 254.864 -0.267945 3.55191 0
M  V30 2695 O 253.723 -0.661249 5.42485 0
M  V30 2696 H 250.817 -0.135261 0.815864 0
M  V30 2697 H 253.363 0.484782 1.62628 0
M  V30 2698 H 252.135 0.795431 3.8313 0
M  V30 2699 H 251.758 -0.919187 3.86829 0
M  V30 2700 N 252.755 -1.56801 0.158532 0
M  V30 2701 C 253.985 -2.00568 -0.495583 0
M  V30 2702 C 254.393 -1.03774 -1.58201 0
M  V30 2703 O 253.736 -0.0285797 -1.83678 0
M  V30 2704 C 253.798 -3.40768 -1.14532 0
M  V30 2705 C 253.462 -4.56553 -0.202101 0
M  V30 2706 C 254.459 -5.16714 0.574675 0
M  V30 2707 C 252.144 -5.02197 -0.101648 0
M  V30 2708 C 254.138 -6.20939 1.43924 0
M  V30 2709 C 251.825 -6.06274 0.766508 0
M  V30 2710 C 252.823 -6.65515 1.53555 0
M  V30 2711 O 252.511 -7.67575 2.38922 0
M  V30 2712 H 252.243 -0.662893 -0.13247 0
M  V30 2713 H 254.797 -2.03829 0.253559 0
M  V30 2714 H 253.027 -3.34381 -1.94233 0
M  V30 2715 H 254.716 -3.6857 -1.70033 0
M  V30 2716 H 255.482 -4.82341 0.507167 0
M  V30 2717 H 251.361 -4.55807 -0.689994 0
M  V30 2718 H 254.905 -6.67107 2.03996 0
M  V30 2719 H 250.802 -6.40073 0.835266 0
M  V30 2720 H 251.57 -7.84844 2.32296 0
M  V30 2721 N 254.233 0.115231 -1.57178 0
M  V30 2722 C 255.163 1.1423 -2.03651 0
M  V30 2723 C 256.144 1.42967 -0.921655 0
M  V30 2724 O 257.329 1.53343 -1.19162 0
M  V30 2725 C 254.459 2.4675 -2.44401 0
M  V30 2726 C 253.413 2.32467 -3.59365 0
M  V30 2727 C 252.739 3.69984 -3.86026 0
M  V30 2728 C 254.039 1.78203 -4.90959 0
M  V30 2729 H 255.733 0.755749 -2.89705 0
M  V30 2730 H 253.279 0.362093 -1.39373 0
M  V30 2731 H 255.232 3.18854 -2.75517 0
M  V30 2732 H 253.956 2.87302 -1.55322 0
M  V30 2733 H 252.615 1.62811 -3.28463 0
M  V30 2734 H 252.263 4.08028 -2.94147 0
M  V30 2735 H 251.963 3.61279 -4.63412 0
M  V30 2736 H 253.487 4.43587 -4.19599 0
M  V30 2737 H 254.901 2.40128 -5.20587 0
M  V30 2738 H 253.298 1.8031 -5.72371 0
M  V30 2739 H 254.368 0.739876 -4.79222 0
M  V30 2740 N 255.711 1.52812 0.385517 0
M  V30 2741 C 256.661 1.74219 1.47078 0
M  V30 2742 C 257.645 0.59632 1.49442 0
M  V30 2743 O 258.837 0.85428 1.5502 0
M  V30 2744 C 255.966 1.9176 2.84751 0
M  V30 2745 C 255.052 3.12289 2.86943 0
M  V30 2746 N 255.443 4.34575 2.58802 0
M  V30 2747 C 253.741 3.12605 3.1811 0
M  V30 2748 C 254.442 5.162 2.68166 0
M  V30 2749 N 253.418 4.51964 3.02043 0
M  V30 2750 H 257.22 2.6639 1.24152 0
M  V30 2751 H 254.734 1.51166 0.593504 0
M  V30 2752 H 256.731 2.05218 3.62893 0
M  V30 2753 H 255.391 1.00805 3.08656 0
M  V30 2754 H 256.402 4.62649 2.32759 0
M  V30 2755 H 253.079 2.31472 3.47458 0
M  V30 2756 H 254.469 6.23689 2.49923 0
M  V30 2757 N 257.189 -0.644168 1.43834 0
M  V30 2758 C 258.6 -1.22554 1.40845 0
M  V30 2759 C 258.951 -1.9585 0.117115 0
M  V30 2760 O 258.076 -2.01734 -0.783086 0
M  V30 2761 C 258.671 -2.22907 2.55143 0
M  V30 2762 C 257.23 -2.76501 2.5539 0
M  V30 2763 C 256.377 -1.51287 2.32396 0
M  V30 2764 H 259.328 -0.43563 1.52604 0
M  V30 2765 H 259.349 -3.05259 2.2715 0
M  V30 2766 H 258.861 -1.69533 3.49114 0
M  V30 2767 H 256.962 -3.33914 1.65324 0
M  V30 2768 H 257.075 -3.23429 3.53455 0
M  V30 2769 H 255.439 -1.78957 1.81236 0
M  V30 2770 H 256.222 -0.998336 3.28463 0
M  V30 2771 N 258.668 -1.30515 -0.883378 0
M  V30 2772 C 259.945 -1.10086 -1.6168 0
M  V30 2773 C 260.325 0.349269 -2.08191 0
M  V30 2774 O 259.673 1.34105 -1.85008 0
M  V30 2775 C 259.883 -2.10315 -2.78511 0
M  V30 2776 C 261.231 -2.42119 -3.48803 0
M  V30 2777 O 262.255 -2.08638 -2.88702 0
M  V30 2778 O 261.114 -2.99396 -4.57192 0
M  V30 2779 H 258.208 -0.422907 -0.710689 0
M  V30 2780 H 260.754 -1.41947 -0.930015 0
M  V30 2781 H 259.526 -3.07917 -2.41459 0
M  V30 2782 H 259.149 -1.79282 -3.54886 0
M  V30 2783 N 260.146 1.09593 -1.13257 0
M  V30 2784 C 261.076 2.18214 -0.830946 0
M  V30 2785 C 262.057 1.68812 0.208966 0
M  V30 2786 O 263.242 1.9408 0.0682666 0
M  V30 2787 C 260.372 3.46051 -0.294296 0
M  V30 2788 C 259.326 4.08778 -1.26826 0
M  V30 2789 C 258.652 5.31419 -0.591449 0
M  V30 2790 C 259.952 4.51476 -2.62615 0
M  V30 2791 H 261.646 2.43703 -1.73923 0
M  V30 2792 H 259.192 1.17128 -0.837675 0
M  V30 2793 H 261.145 4.2134 -0.0709606 0
M  V30 2794 H 259.869 3.20079 0.649366 0
M  V30 2795 H 258.528 3.35505 -1.47756 0
M  V30 2796 H 258.176 5.01727 0.357633 0
M  V30 2797 H 257.876 5.74341 -1.24123 0
M  V30 2798 H 259.4 6.09433 -0.377355 0
M  V30 2799 H 260.814 5.17999 -2.45663 0
M  V30 2800 H 259.211 5.05277 -3.23752 0
M  V30 2801 H 260.281 3.63962 -3.20406 0
M  V30 2802 N 261.624 0.925811 1.2754 0
M  V30 2803 C 262.587 0.428129 2.25166 0
M  V30 2804 C 263.587 -0.452261 1.54309 0
M  V30 2805 O 264.777 -0.253608 1.72344 0
M  V30 2806 C 261.909 -0.384749 3.38722 0
M  V30 2807 H 263.102 1.29066 2.70706 0
M  V30 2808 H 260.655 0.706323 1.3943 0
M  V30 2809 H 261.39 -1.26618 2.98561 0
M  V30 2810 H 261.175 0.246454 3.91325 0
M  V30 2811 H 262.665 -0.723389 4.11287 0
M  V30 2812 N 263.102 -1.41638 0.69111 0
M  V30 2813 C 264.327 -2.06148 0.227583 0
M  V30 2814 C 264.752 -1.51652 -1.11281 0
M  V30 2815 O 264.11 -0.64164 -1.69566 0
M  V30 2816 C 264.158 -3.60095 0.190858 0
M  V30 2817 O 263.262 -4.03845 -0.835664 0
M  V30 2818 H 262.603 -0.654434 0.112306 0
M  V30 2819 H 265.133 -1.81484 0.944714 0
M  V30 2820 H 265.143 -4.07995 0.020207 0
M  V30 2821 H 263.818 -3.99129 1.16915 0
M  V30 2822 H 262.395 -3.67458 -0.63473 0
M  V30 2823 N 264.58 -0.43555 -1.51462 0
M  V30 2824 C 265.528 0.391205 -2.29287 0
M  V30 2825 C 266.522 1.02247 -1.35062 0
M  V30 2826 O 267.728 0.957646 -1.52411 0
M  V30 2827 H 264.103 0.144968 -0.737895 0
M  V30 2828 H 266.074 -0.286051 -2.97026 0
M  V30 2829 C 264.823 1.48096 -3.14583 0
M  V30 2830 H 264.146 1.00457 -3.86973 0
M  V30 2831 H 265.586 2.03273 -3.72097 0
M  V30 2832 C 264.045 2.46321 -2.29843 0
M  V30 2833 O 264.575 3.50815 -1.95682 0
M  V30 2834 N 262.781 2.17166 -1.931 0
M  V30 2835 H 262.328 1.32218 -2.21079 0
M  V30 2836 H 262.286 2.83127 -1.36698 0
M  V30 2837 N 266.058 1.56714 -0.166846 0
M  V30 2838 C 267.288 2.00828 0.48494 0
M  V30 2839 C 267.696 1.04612 1.57648 0
M  V30 2840 O 267.039 0.0383201 1.8366 0
M  V30 2841 C 267.101 3.4137 1.12723 0
M  V30 2842 C 266.765 4.56654 0.177886 0
M  V30 2843 C 267.762 5.16402 -0.60207 0
M  V30 2844 C 265.447 5.02244 0.0750139 0
M  V30 2845 C 267.441 6.20167 -1.47215 0
M  V30 2846 C 265.128 6.05859 -0.798649 0
M  V30 2847 C 266.126 6.64691 -1.57082 0
M  V30 2848 O 265.814 7.66297 -2.42989 0
M  V30 2849 H 265.546 0.663587 0.128953 0
M  V30 2850 H 268.1 2.03692 -0.264365 0
M  V30 2851 H 266.33 3.35406 1.92457 0
M  V30 2852 H 268.019 3.69466 1.68076 0
M  V30 2853 H 268.785 4.82065 -0.53274 0
M  V30 2854 H 264.664 4.56167 0.665812 0
M  V30 2855 H 268.208 6.66016 -2.07531 0
M  V30 2856 H 264.105 6.39621 -0.869199 0
M  V30 2857 H 264.873 7.83601 -2.36455 0
M  V30 2858 N 267.536 -0.106894 1.57237 0
M  V30 2859 C 268.484 -1.14944 2.02215 0
M  V30 2860 C 269.478 -1.42167 0.92114 0
M  V30 2861 O 270.684 -1.41987 1.10634 0
M  V30 2862 H 267.059 -0.387841 0.64427 0
M  V30 2863 H 269.03 -0.743683 2.88984 0
M  V30 2864 C 267.779 -2.4647 2.4525 0
M  V30 2865 H 267.102 -2.26363 3.29545 0
M  V30 2866 H 268.542 -3.17948 2.80508 0
M  V30 2867 C 267.001 -3.09921 1.321 0
M  V30 2868 O 267.531 -3.9651 0.643622 0
M  V30 2869 N 265.737 -2.69986 1.07497 0
M  V30 2870 H 265.284 -1.99667 1.62761 0
M  V30 2871 H 265.242 -3.12769 0.319876 0
M  V30 2872 N 269.014 -1.53014 -0.377408 0
M  V30 2873 C 269.977 -1.77957 -1.44444 0
M  V30 2874 C 270.977 -0.649763 -1.47087 0
M  V30 2875 O 272.167 -0.917897 -1.48055 0
M  V30 2876 C 269.299 -1.89089 -2.83651 0
M  V30 2877 H 270.492 -2.73243 -1.23606 0
M  V30 2878 H 268.045 -1.43912 -0.609844 0
M  V30 2879 H 268.78 -0.958293 -3.09818 0
M  V30 2880 H 268.565 -2.71254 -2.83132 0
M  V30 2881 H 270.055 -2.1002 -3.60945 0
M  V30 2882 N 270.492 0.636531 -1.44174 0
M  V30 2883 C 271.402 1.77754 -1.53103 0
M  V30 2884 C 272.418 1.68928 -0.417034 0
M  V30 2885 O 273.594 1.89801 -0.6736 0
M  V30 2886 C 270.659 3.14115 -1.46741 0
M  V30 2887 C 269.72 3.34612 -2.68948 0
M  V30 2888 C 268.953 4.64467 -2.6288 0
M  V30 2889 O 269.176 5.44919 -1.68581 0
M  V30 2890 O 268.11 4.87049 -3.53648 0
M  V30 2891 H 271.936 1.73174 -2.49489 0
M  V30 2892 H 269.521 0.79709 -1.2636 0
M  V30 2893 H 271.403 3.95412 -1.45696 0
M  V30 2894 H 270.078 3.19249 -0.534975 0
M  V30 2895 H 268.985 2.53014 -2.75562 0
M  V30 2896 H 270.318 3.34336 -3.61221 0
M  V30 2897 N 271.97 1.30982 0.876444 0
M  V30 2898 C 272.933 1.18054 1.96459 0
M  V30 2899 C 273.933 0.109399 1.60427 0
M  V30 2900 O 275.123 0.358173 1.70478 0
M  V30 2901 C 272.255 0.810616 3.31122 0
M  V30 2902 H 273.448 2.14735 2.09354 0
M  V30 2903 H 271.001 1.145 1.06392 0
M  V30 2904 H 271.736 -0.155322 3.23928 0
M  V30 2905 H 271.521 1.58481 3.58645 0
M  V30 2906 H 273.011 0.743876 4.10921 0
M  V30 2907 N 273.449 -1.08991 1.13837 0
M  V30 2908 C 274.674 -1.85551 0.926585 0
M  V30 2909 C 275.099 -1.80782 -0.519566 0
M  V30 2910 O 274.457 -1.18855 -1.36906 0
M  V30 2911 C 274.505 -3.31266 1.42462 0
M  V30 2912 O 273.609 -4.07822 0.612789 0
M  V30 2913 H 272.95 -0.575192 0.331738 0
M  V30 2914 H 275.48 -1.37604 1.51414 0
M  V30 2915 H 275.49 -3.82112 1.43019 0
M  V30 2916 H 274.165 -3.34052 2.47754 0
M  V30 2917 H 272.742 -3.66731 0.675463 0
M  V30 2918 N 274.927 -0.932562 -1.27047 0
M  V30 2919 C 276.157 -0.591173 -1.97961 0
M  V30 2920 C 276.565 0.836219 -1.69717 0
M  V30 2921 O 275.908 1.56801 -0.957036 0
M  V30 2922 C 275.97 -0.743082 -3.51736 0
M  V30 2923 C 275.634 -2.1435 -4.03613 0
M  V30 2924 C 276.631 -3.11815 -4.16014 0
M  V30 2925 C 274.316 -2.46175 -4.37839 0
M  V30 2926 C 276.31 -4.39211 -4.61923 0
M  V30 2927 C 273.997 -3.73806 -4.83438 0
M  V30 2928 C 274.995 -4.70137 -4.95439 0
M  V30 2929 O 274.683 -5.95496 -5.40037 0
M  V30 2930 H 274.415 -0.222375 -0.638377 0
M  V30 2931 H 276.969 -1.25317 -1.62742 0
M  V30 2932 H 275.199 -0.0239739 -3.86693 0
M  V30 2933 H 276.888 -0.40603 -4.03864 0
M  V30 2934 H 277.654 -2.88549 -3.89826 0
M  V30 2935 H 273.533 -1.71936 -4.27737 0
M  V30 2936 H 277.077 -5.14404 -4.71205 0
M  V30 2937 H 272.974 -3.96888 -5.09068 0
M  V30 2938 H 273.742 -5.98554 -5.58279 0
M  V30 2939 N 276.405 1.4127 -0.698611 0
M  V30 2940 C 277.682 1.94955 -0.158762 0
M  V30 2941 C 278.062 1.63781 1.33188 0
M  V30 2942 O 277.41 0.946423 2.07979 0
M  V30 2943 C 277.62 3.46044 -0.453309 0
M  V30 2944 C 278.968 4.22872 -0.382707 0
M  V30 2945 O 279.992 3.54076 -0.388396 0
M  V30 2946 O 278.851 5.45407 -0.345463 0
M  V30 2947 H 275.945 0.82683 -0.0167505 0
M  V30 2948 H 278.491 1.50971 -0.77498 0
M  V30 2949 H 277.263 3.62028 -1.48498 0
M  V30 2950 H 276.886 3.97128 0.19373 0
M  V30 2951 N 277.883 0.443576 1.51229 0
M  V30 2952 C 279.13 -0.120796 2.02139 0
M  V30 2953 C 279.458 -1.42166 1.32736 0
M  V30 2954 O 278.713 -1.90849 0.43301 0
M  V30 2955 C 279.012 -0.380579 3.55368 0
M  V30 2956 C 278.678 0.83523 4.43097 0
M  V30 2957 C 277.34 1.16864 4.66794 0
M  V30 2958 C 279.692 1.64601 4.94526 0
M  V30 2959 C 277.02 2.31339 5.39165 0
M  V30 2960 C 279.372 2.78181 5.68153 0
M  V30 2961 C 278.036 3.11969 5.90112 0
M  V30 2962 H 277.306 -0.0442023 0.73968 0
M  V30 2963 H 279.953 0.592046 1.82118 0
M  V30 2964 H 278.258 -1.17538 3.73754 0
M  V30 2965 H 279.955 -0.830777 3.923 0
M  V30 2966 H 276.545 0.565437 4.24854 0
M  V30 2967 H 280.729 1.40163 4.76097 0
M  V30 2968 H 275.985 2.57823 5.5438 0
M  V30 2969 H 280.159 3.41371 6.06992 0
M  V30 2970 H 277.786 4.00784 6.45969 0
M  V30 2971 N 279.361 -1.56624 0.175154 0
M  V30 2972 C 280.586 -2.01813 -0.478137 0
M  V30 2973 C 281.011 -1.05457 -1.55757 0
M  V30 2974 O 280.369 -0.0347439 -1.81267 0
M  V30 2975 C 280.417 -3.45581 -1.02987 0
M  V30 2976 O 279.521 -3.52305 -2.14371 0
M  V30 2977 H 278.862 -0.65413 -0.114059 0
M  V30 2978 H 281.392 -2.02673 0.280173 0
M  V30 2979 H 281.402 -3.84965 -1.35151 0
M  V30 2980 H 280.077 -4.1521 -0.239556 0
M  V30 2981 H 278.654 -3.24783 -1.83222 0
M  V30 2982 N 280.839 0.0985539 -1.57292 0
M  V30 2983 C 282.064 0.820196 -1.90493 0
M  V30 2984 C 282.489 1.71658 -0.769094 0
M  V30 2985 O 281.847 1.79133 0.279495 0
M  V30 2986 C 281.895 1.61242 -3.22542 0
M  V30 2987 O 280.999 2.72108 -3.09888 0
M  V30 2988 H 280.34 0.225547 -0.62452 0
M  V30 2989 H 282.87 0.0748159 -2.04463 0
M  V30 2990 H 282.88 1.99737 -3.55766 0
M  V30 2991 H 281.555 0.954535 -4.04798 0
M  V30 2992 H 280.132 2.36667 -2.88172 0
M  V30 2993 N 282.317 1.53212 0.369288 0
M  V30 2994 C 283.265 1.80054 1.47253 0
M  V30 2995 C 284.259 0.669456 1.55611 0
M  V30 2996 O 285.465 0.852328 1.58541 0
M  V30 2997 H 281.84 0.570034 0.490475 0
M  V30 2998 H 283.811 2.72403 1.21817 0
M  V30 2999 C 282.56 2.00403 2.84137 0
M  V30 3000 H 281.883 2.86876 2.78464 0
M  V30 3001 H 283.323 2.23164 3.60519 0
M  V30 3002 C 281.782 0.782081 3.27697 0
M  V30 3003 O 282.312 -0.0310205 4.01688 0
M  V30 3004 N 280.518 0.606573 2.84199 0
M  V30 3005 H 280.065 1.26939 2.24152 0
M  V30 3006 H 280.023 -0.20962 3.137 0
M  V30 3007 N 283.795 -0.628877 1.44509 0
M  V30 3008 C 285.072 -1.38733 1.37886 0
M  V30 3009 C 285.452 -2.11065 0.0387008 0
M  V30 3010 O 284.8 -2.06476 -0.97878 0
M  V30 3011 C 285.01 -2.35188 2.57852 0
M  V30 3012 C 286.358 -2.9845 3.02014 0
M  V30 3013 O 287.382 -2.45513 2.58073 0
M  V30 3014 O 286.241 -3.94487 3.78209 0
M  V30 3015 H 283.335 -0.621015 0.54614 0
M  V30 3016 H 285.881 -0.653744 1.56602 0
M  V30 3017 H 284.653 -1.80855 3.46998 0
M  V30 3018 H 284.276 -3.1596 2.4136 0
M  V30 3019 N 285.273 -1.31445 -0.869486 0
M  V30 3020 C 286.684 -1.19042 -1.43826 0
M  V30 3021 C 287.035 0.202919 -1.95148 0
M  V30 3022 O 286.16 1.10071 -1.86315 0
M  V30 3023 C 286.755 -2.15499 -2.6143 0
M  V30 3024 C 285.314 -2.07028 -3.14351 0
M  V30 3025 C 284.461 -2.04701 -1.87063 0
M  V30 3026 H 287.412 -1.43489 -0.677984 0
M  V30 3027 H 287.433 -1.74488 -3.38134 0
M  V30 3028 H 286.945 -3.16899 -2.24046 0
M  V30 3029 H 285.046 -1.08825 -3.56354 0
M  V30 3030 H 285.159 -2.96157 -3.766 0
M  V30 3031 H 283.523 -1.49724 -2.06046 0
M  V30 3032 H 284.306 -3.07857 -1.51917 0
M  V30 3033 N 286.751 1.08385 -1.14413 0
M  V30 3034 C 287.981 1.8425 -0.934644 0
M  V30 3035 C 288.389 1.81907 0.520234 0
M  V30 3036 O 287.732 1.22126 1.37226 0
M  V30 3037 C 287.794 3.32853 -1.35828 0
M  V30 3038 C 287.458 3.5893 -2.82875 0
M  V30 3039 C 288.455 3.53756 -3.80989 0
M  V30 3040 C 286.14 3.86934 -3.20293 0
M  V30 3041 C 288.134 3.76216 -5.14529 0
M  V30 3042 C 285.821 4.09047 -4.54008 0
M  V30 3043 C 286.819 4.03682 -5.50936 0
M  V30 3044 O 286.507 4.25214 -6.82238 0
M  V30 3045 H 286.239 0.588502 -0.332628 0
M  V30 3046 H 288.793 1.37792 -1.52324 0
M  V30 3047 H 287.023 3.8007 -0.713019 0
M  V30 3048 H 288.712 3.90154 -1.11957 0
M  V30 3049 H 289.478 3.32135 -3.53428 0
M  V30 3050 H 285.357 3.9023 -2.45442 0
M  V30 3051 H 288.901 3.71943 -5.90173 0
M  V30 3052 H 284.798 4.30151 -4.8129 0
M  V30 3053 H 285.566 4.42619 -6.88499 0
M  V30 3054 N 288.23 0.939286 1.26551 0
M  V30 3055 C 289.641 0.628782 1.75793 0
M  V30 3056 C 289.992 -0.856046 1.7654 0
M  V30 3057 O 289.117 -1.66994 1.3763 0
M  V30 3058 C 289.712 1.13465 3.19235 0
M  V30 3059 C 288.271 0.874601 3.66098 0
M  V30 3060 C 287.418 1.28667 2.45642 0
M  V30 3061 H 290.369 1.1178 1.12654 0
M  V30 3062 H 290.39 0.487609 3.77363 0
M  V30 3063 H 289.902 2.21535 3.1866 0
M  V30 3064 H 288.003 -0.191793 3.72106 0
M  V30 3065 H 288.116 1.50028 4.55004 0
M  V30 3066 H 286.48 0.705109 2.44745 0
M  V30 3067 H 287.263 2.37625 2.47769 0
M  V30 3068 N 289.708 -1.40897 0.706093 0
M  V30 3069 C 290.938 -2.05075 0.250523 0
M  V30 3070 C 291.346 -1.53275 -1.10921 0
M  V30 3071 O 290.689 -0.680281 -1.7064 0
M  V30 3072 C 290.751 -3.59219 0.142178 0
M  V30 3073 C 290.415 -4.33864 1.43566 0
M  V30 3074 C 291.412 -4.62448 2.37566 0
M  V30 3075 C 289.097 -4.72946 1.69195 0
M  V30 3076 C 291.091 -5.29088 3.5545 0
M  V30 3077 C 288.778 -5.3932 2.87362 0
M  V30 3078 C 289.776 -5.6732 3.80312 0
M  V30 3079 O 289.464 -6.32325 4.96408 0
M  V30 3080 H 289.196 -0.666645 0.112074 0
M  V30 3081 H 291.75 -1.81467 0.962239 0
M  V30 3082 H 289.98 -3.81609 -0.6254 0
M  V30 3083 H 291.669 -4.0495 -0.277584 0
M  V30 3084 H 292.435 -4.32727 2.19027 0
M  V30 3085 H 288.314 -4.50527 0.977042 0
M  V30 3086 H 291.858 -5.50859 4.28018 0
M  V30 3087 H 287.755 -5.68461 3.05814 0
M  V30 3088 H 288.523 -6.50821 4.9636 0
M  V30 3089 N 291.186 -0.45159 -1.50991 0
M  V30 3090 C 292.597 0.00818571 -1.86698 0
M  V30 3091 C 292.948 1.40661 -1.3678 0
M  V30 3092 O 292.073 2.0391 -0.724546 0
M  V30 3093 C 292.668 0.0216303 -3.38793 0
M  V30 3094 C 291.227 0.425865 -3.73983 0
M  V30 3095 C 290.374 -0.372163 -2.74791 0
M  V30 3096 H 293.325 -0.666785 -1.44013 0
M  V30 3097 H 293.346 0.828078 -3.7138 0
M  V30 3098 H 292.858 -0.996288 -3.75094 0
M  V30 3099 H 290.959 1.44886 -3.43277 0
M  V30 3100 H 291.072 0.140761 -4.78893 0
M  V30 3101 H 289.436 0.171498 -2.54122 0
M  V30 3102 H 290.219 -1.38922 -3.13935 0
M  V30 3103 N 292.664 1.56529 -0.183458 0
M  V30 3104 C 294.08 1.58664 0.172554 0
M  V30 3105 C 294.28 1.19925 1.61926 0
M  V30 3106 O 293.336 0.916534 2.35278 0
M  V30 3107 C 294.649 3.00463 -0.119262 0
M  V30 3108 C 296.197 3.12945 -0.0584396 0
M  V30 3109 C 296.672 4.56857 -0.323408 0
M  V30 3110 N 298.163 4.62403 -0.271612 0
M  V30 3111 C 298.898 5.71626 -0.450639 0
M  V30 3112 N 298.394 6.89362 -0.689384 0
M  V30 3113 N 300.187 5.60775 -0.385701 0
M  V30 3114 H 292.338 1.79994 -1.12765 0
M  V30 3115 H 294.601 0.834808 -0.449222 0
M  V30 3116 H 294.307 3.33326 -1.12192 0
M  V30 3117 H 294.181 3.72659 0.583544 0
M  V30 3118 H 296.568 2.79902 0.934805 0
M  V30 3119 H 296.649 2.4316 -0.794144 0
M  V30 3120 H 296.293 4.9061 -1.31392 0
M  V30 3121 H 296.223 5.24816 0.43305 0
M  V30 3122 H 298.714 3.77785 -0.0932256 0
M  V30 3123 H 299.027 7.68489 -0.815113 0
M  V30 3124 H 297.372 6.91196 -0.726142 0
M  V30 3125 H 300.563 4.67674 -0.199687 0
M  V30 3126 H 300.736 6.4584 -0.528646 0
M  V30 3127 N 294.142 -0.090211 1.57342 0
M  V30 3128 C 295.372 -0.805055 1.90269 0
M  V30 3129 C 295.78 -1.72561 0.775842 0
M  V30 3130 O 295.123 -1.81839 -0.260843 0
M  V30 3131 C 295.185 -1.66734 3.18497 0
M  V30 3132 C 294.849 -0.918092 4.47683 0
M  V30 3133 C 295.846 -0.245674 5.19319 0
M  V30 3134 C 293.531 -0.890724 4.94339 0
M  V30 3135 C 295.525 0.444088 6.35851 0
M  V30 3136 C 293.212 -0.197179 6.10782 0
M  V30 3137 C 294.21 0.469044 6.81388 0
M  V30 3138 O 293.898 1.15146 7.95611 0
M  V30 3139 H 293.63 -0.235143 0.633785 0
M  V30 3140 H 296.184 -0.0703805 2.05279 0
M  V30 3141 H 294.414 -2.44437 2.99646 0
M  V30 3142 H 296.103 -2.25919 3.37217 0
M  V30 3143 H 296.869 -0.258246 4.84312 0
M  V30 3144 H 292.748 -1.39873 4.39268 0
M  V30 3145 H 296.292 0.964667 6.90898 0
M  V30 3146 H 292.189 -0.18247 6.45242 0
M  V30 3147 H 292.957 1.05885 8.11622 0
M  V30 3148 N 295.62 -1.53406 -0.361157 0
M  V30 3149 C 296.848 -1.73717 -1.12383 0
M  V30 3150 C 297.263 -0.468161 -1.82904 0
M  V30 3151 O 296.62 0.559198 -1.73722 0
M  V30 3152 C 296.671 -2.90558 -2.15078 0
M  V30 3153 O 296.392 -4.12549 -1.47428 0
M  V30 3154 C 297.893 -3.22777 -3.03858 0
M  V30 3155 H 295.113 -0.580896 -0.335858 0
M  V30 3156 H 297.657 -2.00167 -0.418728 0
M  V30 3157 H 295.812 -2.66489 -2.8118 0
M  V30 3158 H 296.226 -4.78009 -2.15887 0
M  V30 3159 H 297.7 -4.07927 -3.71887 0
M  V30 3160 H 298.177 -2.38329 -3.68912 0
M  V30 3161 H 298.783 -3.48787 -2.43367 0
M  V30 3162 N 297.098 0.621204 -1.44841 0
M  V30 3163 C 298.375 1.38 -1.38619 0
M  V30 3164 C 298.755 2.11041 -0.0498935 0
M  V30 3165 O 298.103 2.06992 0.967816 0
M  V30 3166 C 298.313 2.33817 -2.59096 0
M  V30 3167 C 299.661 2.96844 -3.03593 0
M  V30 3168 O 300.685 2.44141 -2.59371 0
M  V30 3169 O 299.544 3.92476 -3.80296 0
M  V30 3170 H 296.638 0.61811 -0.549426 0
M  V30 3171 H 299.184 0.645429 -1.56947 0
M  V30 3172 H 297.956 1.79012 -3.47952 0
M  V30 3173 H 297.579 3.14676 -2.43032 0
M  V30 3174 N 298.576 1.31904 0.862503 0
M  V30 3175 C 299.853 1.12644 1.59908 0
M  V30 3176 C 300.233 -0.316104 2.0872 0
M  V30 3177 O 299.581 -1.31145 1.87118 0
M  V30 3178 C 299.791 2.1472 2.7513 0
M  V30 3179 C 301.139 2.47637 3.44907 0
M  V30 3180 O 302.163 2.13205 2.85346 0
M  V30 3181 O 301.022 3.06632 4.52371 0
M  V30 3182 H 298.116 0.43416 0.703871 0
M  V30 3183 H 300.662 1.43408 0.907314 0
M  V30 3184 H 299.434 3.1172 2.3653 0
M  V30 3185 H 299.057 1.84905 3.51989 0
M  V30 3186 N 300.054 -1.07777 1.14986 0
M  V30 3187 C 301.3 -1.80719 0.93339 0
M  V30 3188 C 301.655 -1.8484 -0.534019 0
M  V30 3189 O 300.948 -1.31795 -1.3907 0
M  V30 3190 C 301.142 -3.25495 1.47608 0
M  V30 3191 C 300.971 -3.3548 2.99472 0
M  V30 3192 C 299.741 -3.46293 3.6798 0
M  V30 3193 C 301.939 -3.26596 3.97291 0
M  V30 3194 N 299.921 -3.45136 5.07695 0
M  V30 3195 C 301.292 -3.32506 5.23297 0
M  V30 3196 C 303.347 -3.10376 3.89321 0
M  V30 3197 C 302.05 -3.23866 6.42264 0
M  V30 3198 C 304.076 -3.03069 5.07842 0
M  V30 3199 C 303.438 -3.09587 6.32721 0
M  V30 3200 H 299.537 -0.674814 0.395158 0
M  V30 3201 H 302.121 -1.28681 1.46114 0
M  V30 3202 H 300.292 -3.75963 0.975022 0
M  V30 3203 H 302.024 -3.86535 1.19887 0
M  V30 3204 H 298.779 -3.50456 3.18555 0
M  V30 3205 H 299.203 -3.48097 5.80653 0
M  V30 3206 H 303.845 -3.04194 2.93642 0
M  V30 3207 H 301.563 -3.28807 7.38181 0
M  V30 3208 H 305.149 -2.91629 5.03432 0
M  V30 3209 H 304.029 -3.0397 7.22891 0
M  V30 3210 N 301.532 -0.945985 -1.26051 0
M  V30 3211 C 302.779 -0.596118 -1.93527 0
M  V30 3212 C 303.107 0.865559 -1.74179 0
M  V30 3213 O 302.362 1.63524 -1.0751 0
M  V30 3214 C 302.661 -0.890475 -3.46129 0
M  V30 3215 C 302.327 -2.3368 -3.85622 0
M  V30 3216 C 300.989 -2.73216 -3.96114 0
M  V30 3217 C 303.341 -3.27648 -4.05334 0
M  V30 3218 C 300.669 -4.05806 -4.2372 0
M  V30 3219 C 303.021 -4.59841 -4.3443 0
M  V30 3220 C 301.685 -4.99185 -4.43137 0
M  V30 3221 H 300.955 -0.218135 -0.708165 0
M  V30 3222 H 303.602 -1.1934 -1.49768 0
M  V30 3223 H 301.907 -0.210711 -3.91233 0
M  V30 3224 H 303.604 -0.598478 -3.96509 0
M  V30 3225 H 300.194 -2.02015 -3.78005 0
M  V30 3226 H 304.378 -2.98298 -3.96651 0
M  V30 3227 H 299.634 -4.35945 -4.28675 0
M  V30 3228 H 303.808 -5.32641 -4.48628 0
M  V30 3229 H 301.435 -6.01952 -4.64282 0
M  V30 3230 N 303.011 1.40521 -0.713556 0
M  V30 3231 C 303.959 2.32549 -0.0485227 0
M  V30 3232 C 304.953 1.51931 0.74922 0
M  V30 3233 O 306.159 1.67745 0.652816 0
M  V30 3234 H 302.534 0.751994 0.00311138 0
M  V30 3235 H 304.505 2.86291 -0.841443 0
M  V30 3236 C 303.254 3.36879 0.860687 0
M  V30 3237 H 302.577 3.98978 0.256246 0
M  V30 3238 H 304.017 4.03772 1.294 0
M  V30 3239 C 302.476 2.72197 1.9852 0
M  V30 3240 O 303.006 2.5837 3.07584 0
M  V30 3241 N 301.212 2.30612 1.76823 0
M  V30 3242 H 300.759 2.42059 0.881217 0
M  V30 3243 H 300.717 1.87672 2.52243 0
M  V30 3244 N 304.489 0.459591 1.5075 0
M  V30 3245 C 305.714 -0.0996819 2.0716 0
M  V30 3246 C 306.139 -1.33761 1.32249 0
M  V30 3247 O 305.497 -1.77551 0.366786 0
M  V30 3248 C 305.545 -0.378226 3.58611 0
M  V30 3249 O 304.649 -1.46081 3.85661 0
M  V30 3250 H 303.99 0.00791392 0.663953 0
M  V30 3251 H 306.52 0.647329 1.9409 0
M  V30 3252 H 306.53 -0.622135 4.03229 0
M  V30 3253 H 305.205 0.526439 4.12555 0
M  V30 3254 H 303.782 -1.20511 3.5289 0
M  V30 3255 N 305.967 -1.56429 0.191757 0
M  V30 3256 C 306.917 -2.15548 -0.743184 0
M  V30 3257 C 307.901 -1.09531 -1.17863 0
M  V30 3258 O 309.093 -1.35602 -1.13759 0
M  V30 3259 C 306.222 -2.81577 -1.96391 0
M  V30 3260 C 305.308 -3.9478 -1.54951 0
M  V30 3261 N 305.699 -4.98677 -0.845876 0
M  V30 3262 C 303.997 -4.06319 -1.83905 0
M  V30 3263 C 304.698 -5.78183 -0.638724 0
M  V30 3264 N 303.674 -5.30495 -1.18643 0
M  V30 3265 H 307.476 -2.9324 -0.196839 0
M  V30 3266 H 304.99 -1.62398 -0.0081603 0
M  V30 3267 H 306.987 -3.22321 -2.64415 0
M  V30 3268 H 305.647 -2.05371 -2.51501 0
M  V30 3269 H 306.658 -5.15464 -0.501704 0
M  V30 3270 H 303.335 -3.41238 -2.40548 0
M  V30 3271 H 304.725 -6.71851 -0.0807929 0
M  V30 3272 N 307.445 0.0818655 -1.57387 0
M  V30 3273 C 308.693 0.781368 -1.86384 0
M  V30 3274 C 309.014 1.78618 -0.782342 0
M  V30 3275 O 308.284 1.94976 0.190061 0
M  V30 3276 H 306.864 0.291562 -0.687751 0
M  V30 3277 H 309.526 0.060348 -1.94807 0
M  V30 3278 H 308.622 1.3038 -2.83562 0
M  V30 3279 N 308.923 1.53595 0.353017 0
M  V30 3280 C 310.151 1.74311 1.1146 0
M  V30 3281 C 310.566 0.477854 1.82653 0
M  V30 3282 O 309.923 -0.549977 1.74016 0
M  V30 3283 C 309.974 2.91694 2.13534 0
M  V30 3284 O 309.695 4.13325 1.45238 0
M  V30 3285 C 311.196 3.24384 3.02142 0
M  V30 3286 H 308.416 0.582669 0.332773 0
M  V30 3287 H 310.96 2.00386 0.408107 0
M  V30 3288 H 309.115 2.67977 2.79763 0
M  V30 3289 H 309.529 4.79148 2.13349 0
M  V30 3290 H 311.003 4.09893 3.69718 0
M  V30 3291 H 311.48 2.40282 3.67643 0
M  V30 3292 H 312.086 3.50073 2.41514 0
M  V30 3293 N 310.401 -0.613514 1.45168 0
M  V30 3294 C 311.817 -0.933629 1.29443 0
M  V30 3295 C 312.017 -2.00028 0.243101 0
M  V30 3296 O 311.073 -2.49848 -0.364992 0
M  V30 3297 C 312.386 -1.38018 2.67155 0
M  V30 3298 C 313.934 -1.49471 2.75004 0
M  V30 3299 C 314.409 -1.97503 4.13227 0
M  V30 3300 N 315.9 -2.04746 4.15491 0
M  V30 3301 C 316.635 -2.43121 5.19307 0
M  V30 3302 N 316.131 -2.80506 6.33473 0
M  V30 3303 N 317.924 -2.43408 5.06664 0
M  V30 3304 H 310.075 0.0916097 2.12202 0
M  V30 3305 H 312.338 -0.0216655 0.947752 0
M  V30 3306 H 312.044 -0.670625 3.45247 0
M  V30 3307 H 311.918 -2.34784 2.95222 0
M  V30 3308 H 314.305 -2.19519 1.9722 0
M  V30 3309 H 314.386 -0.510342 2.50657 0
M  V30 3310 H 314.03 -1.28045 4.91495 0
M  V30 3311 H 313.96 -2.96843 4.34962 0
M  V30 3312 H 316.451 -1.78468 3.33103 0
M  V30 3313 H 316.764 -3.08652 7.08487 0
M  V30 3314 H 315.109 -2.78216 6.36884 0
M  V30 3315 H 318.3 -2.13604 4.16523 0
M  V30 3316 H 318.473 -2.72989 5.87691 0
M  V30 3317 N 311.879 -1.3236 -0.855495 0
M  V30 3318 C 313.119 -1.24187 -1.62348 0
M  V30 3319 C 313.483 0.193597 -1.91021 0
M  V30 3320 O 314.684 0.39904 -2.65822 0
M  V30 3321 C 312.955 -2.07661 -2.90881 0
M  V30 3322 S 314.514 -2.16505 -3.81669 0
M  V30 3323 H 311.332 -0.442076 -0.556857 0
M  V30 3324 H 313.934 -1.67198 -1.01317 0
M  V30 3325 H 312.638 -3.11018 -2.67761 0
M  V30 3326 H 312.169 -1.65425 -3.56929 0
M  V30 3327 H 314.184 -1.31394 -4.78487 0
M  V30 3328 N 313.357 1.07166 -1.15556 0
M  V30 3329 C 314.32 2.12589 -0.856644 0
M  V30 3330 C 315.32 1.6015 0.14444 0
M  V30 3331 O 316.51 1.7399 -0.0854163 0
M  V30 3332 C 313.642 3.39753 -0.279405 0
M  V30 3333 H 314.835 2.40539 -1.79112 0
M  V30 3334 H 312.388 1.23086 -0.963298 0
M  V30 3335 H 313.123 3.17447 0.663174 0
M  V30 3336 H 312.908 3.79117 -1.00063 0
M  V30 3337 H 314.398 4.17507 -0.0879113 0
M  V30 3338 N 314.835 0.952656 1.25548 0
M  V30 3339 C 316.083 0.605176 1.92826 0
M  V30 3340 C 316.404 -0.860261 1.74999 0
M  V30 3341 O 315.674 -1.6125 1.11244 0
M  V30 3342 H 314.254 0.220832 0.713612 0
M  V30 3343 H 316.916 1.21047 1.52754 0
M  V30 3344 H 316.012 0.832798 3.00784 0
M  V30 3345 N 316.313 -1.40141 0.720998 0
M  V30 3346 C 317.223 -2.34486 0.0731031 0
M  V30 3347 C 318.239 -1.57587 -0.737723 0
M  V30 3348 O 319.415 -1.89949 -0.669429 0
M  V30 3349 C 316.48 -3.36528 -0.833656 0
M  V30 3350 C 315.541 -4.29298 -0.0121673 0
M  V30 3351 C 314.774 -5.26466 -0.875742 0
M  V30 3352 O 314.997 -5.29745 -2.11485 0
M  V30 3353 O 313.931 -6.01092 -0.31185 0
M  V30 3354 H 317.757 -2.9152 0.851444 0
M  V30 3355 H 315.342 -1.41427 0.481527 0
M  V30 3356 H 317.224 -3.99093 -1.35289 0
M  V30 3357 H 315.899 -2.81899 -1.59105 0
M  V30 3358 H 314.806 -3.70001 0.552262 0
M  V30 3359 H 316.139 -4.87094 0.707129 0
M  V30 3360 N 317.792 -0.46758 -1.50504 0
M  V30 3361 C 319.038 0.0887532 -2.02606 0
M  V30 3362 C 319.371 1.39686 -1.34913 0
M  V30 3363 O 318.646 1.88644 -0.473694 0
M  V30 3364 C 318.929 0.276206 -3.59039 0
M  V30 3365 C 318.782 -1.05267 -4.37309 0
M  V30 3366 C 320.101 1.03235 -4.27821 0
M  V30 3367 H 317.22 0.0307814 -0.736357 0
M  V30 3368 H 319.862 -0.612485 -1.79857 0
M  V30 3369 H 318.012 0.8735 -3.78553 0
M  V30 3370 H 319.684 -1.68628 -4.29374 0
M  V30 3371 H 317.927 -1.65015 -4.01189 0
M  V30 3372 H 318.598 -0.875197 -5.45018 0
M  V30 3373 H 321.074 0.526111 -4.12761 0
M  V30 3374 H 319.95 1.1323 -5.37094 0
M  V30 3375 H 320.211 2.06806 -3.90748 0
M  V30 3376 N 319.27 1.56325 -0.20005 0
M  V30 3377 C 320.495 2.02548 0.44597 0
M  V30 3378 C 320.92 1.07922 1.5406 0
M  V30 3379 O 320.278 0.0635775 1.81188 0
M  V30 3380 C 320.326 3.47175 0.974761 0
M  V30 3381 O 319.43 3.55671 2.08739 0
M  V30 3382 H 318.771 0.655862 0.103638 0
M  V30 3383 H 321.301 2.02201 -0.312381 0
M  V30 3384 H 321.311 3.87067 1.2901 0
M  V30 3385 H 319.986 4.15538 0.17347 0
M  V30 3386 H 318.563 3.27657 1.78032 0
M  V30 3387 N 320.748 -0.0735177 1.57428 0
M  V30 3388 C 321.711 -1.07192 2.02589 0
M  V30 3389 C 322.711 -1.31695 0.922661 0
M  V30 3390 O 323.901 -1.27445 1.18758 0
M  V30 3391 C 321.033 -2.41599 2.40506 0
M  V30 3392 H 322.226 -0.682727 2.92025 0
M  V30 3393 H 319.779 -0.319193 1.53006 0
M  V30 3394 H 320.514 -2.85354 1.5409 0
M  V30 3395 H 320.299 -2.25156 3.21009 0
M  V30 3396 H 321.789 -3.13367 2.76027 0
M  V30 3397 N 322.226 -1.5378 -0.344866 0
M  V30 3398 C 323.189 -1.80981 -1.40637 0
M  V30 3399 C 324.189 -0.680816 -1.45676 0
M  V30 3400 O 325.379 -0.949095 -1.46075 0
M  V30 3401 C 322.511 -1.95063 -2.79577 0
M  V30 3402 H 323.704 -2.75803 -1.17783 0
M  V30 3403 H 321.257 -1.45173 -0.579181 0
M  V30 3404 H 321.992 -1.02379 -3.07716 0
M  V30 3405 H 321.777 -2.77198 -2.77315 0
M  V30 3406 H 323.267 -2.17629 -3.56409 0
M  V30 3407 N 323.704 0.605807 -1.45491 0
M  V30 3408 C 324.667 1.69836 -1.5391 0
M  V30 3409 C 325.667 1.55261 -0.418424 0
M  V30 3410 O 326.857 1.60296 -0.681965 0
M  V30 3411 C 323.989 3.09117 -1.43734 0
M  V30 3412 H 325.182 1.63738 -2.51257 0
M  V30 3413 H 322.735 0.821689 -1.32959 0
M  V30 3414 H 323.47 3.20791 -0.475788 0
M  V30 3415 H 323.255 3.21104 -2.25021 0
M  V30 3416 H 324.745 3.88696 -1.52661 0
M  V30 3417 N 325.182 1.32811 0.848464 0
M  V30 3418 C 326.13 1.22231 1.97895 0
M  V30 3419 C 327.124 0.125749 1.68933 0
M  V30 3420 O 328.33 0.289083 1.77663 0
M  V30 3421 H 324.705 0.379058 0.649476 0
M  V30 3422 H 326.676 2.17828 2.03945 0
M  V30 3423 C 325.425 0.968572 3.33937 0
M  V30 3424 H 324.748 1.80458 3.56756 0
M  V30 3425 H 326.188 0.934808 4.13567 0
M  V30 3426 C 324.647 -0.328628 3.35293 0
M  V30 3427 O 325.177 -1.33848 3.78745 0
M  V30 3428 N 323.383 -0.352788 2.88451 0
M  V30 3429 H 322.93 0.469541 2.53285 0
M  V30 3430 H 322.888 -1.22057 2.89741 0
M  V30 3431 N 326.66 -1.06551 1.16123 0
M  V30 3432 C 327.608 -2.16063 0.861371 0
M  V30 3433 C 328.602 -1.6856 -0.168517 0
M  V30 3434 O 329.808 -1.79986 -0.0227579 0
M  V30 3435 H 326.183 -0.705278 0.260934 0
M  V30 3436 H 328.154 -2.38567 1.79244 0
M  V30 3437 C 326.903 -3.45661 0.376018 0
M  V30 3438 H 326.226 -3.82604 1.15992 0
M  V30 3439 H 327.666 -4.23504 0.204951 0
M  V30 3440 C 326.125 -3.24546 -0.903954 0
M  V30 3441 O 326.655 -3.49865 -1.97377 0
M  V30 3442 N 324.861 -2.77992 -0.846679 0
M  V30 3443 H 324.408 -2.57589 0.0241017 0
M  V30 3444 H 324.366 -2.64244 -1.70359 0
M  V30 3445 N 328.138 -0.959301 -1.25041 0
M  V30 3446 C 329.086 -0.474437 -2.2771 0
M  V30 3447 C 330.08 0.457697 -1.631 0
M  V30 3448 O 331.286 0.333912 -1.76876 0
M  V30 3449 H 327.661 -0.134936 -0.739795 0
M  V30 3450 H 329.632 -1.35251 -2.65988 0
M  V30 3451 C 328.381 0.227884 -3.46952 0
M  V30 3452 H 327.704 -0.480248 -3.96905 0
M  V30 3453 H 329.144 0.531091 -4.20661 0
M  V30 3454 C 327.603 1.452 -3.04004 0
M  V30 3455 O 328.133 2.54949 -3.10426 0
M  V30 3456 N 326.339 1.31502 -2.59144 0
M  V30 3457 H 325.886 0.422065 -2.54119 0
M  V30 3458 H 325.844 2.13521 -2.30773 0
M  V30 3459 N 329.616 1.39756 -0.72842 0
M  V30 3460 C 330.865 1.99879 -0.270407 0
M  V30 3461 C 331.178 1.58449 1.14688 0
M  V30 3462 O 332.384 2.11362 1.70407 0
M  V30 3463 C 330.84 3.57292 -0.43252 0
M  V30 3464 C 330.448 4.07688 -1.85727 0
M  V30 3465 C 332.192 4.24485 -0.0359507 0
M  V30 3466 C 330.099 5.5765 -1.96928 0
M  V30 3467 H 329.029 0.747689 -0.0973472 0
M  V30 3468 H 331.68 1.59837 -0.901355 0
M  V30 3469 H 330.062 3.95097 0.267219 0
M  V30 3470 H 331.236 3.81231 -2.58843 0
M  V30 3471 H 329.551 3.53135 -2.20646 0
M  V30 3472 H 332.148 5.34609 -0.0987484 0
M  V30 3473 H 332.491 4.03915 1.00787 0
M  V30 3474 H 333.024 3.9183 -0.686604 0
M  V30 3475 H 329.763 5.8309 -2.99476 0
M  V30 3476 H 329.283 5.8593 -1.28241 0
M  V30 3477 H 330.962 6.22957 -1.74737 0
M  V30 3478 N 331.094 0.475555 1.50254 0
M  V30 3479 C 332.334 -0.0765802 2.04256 0
M  V30 3480 C 332.698 -1.36587 1.34937 0
M  V30 3481 O 333.899 -2.00066 1.79519 0
M  V30 3482 C 332.17 -0.251668 3.56513 0
M  V30 3483 S 333.729 -0.761716 4.32138 0
M  V30 3484 H 330.547 -0.0138456 0.710865 0
M  V30 3485 H 333.149 0.643714 1.84598 0
M  V30 3486 H 331.853 0.692404 4.04517 0
M  V30 3487 H 331.384 -0.997946 3.80532 0
M  V30 3488 H 333.399 -2.03451 4.52573 0
M  V30 3489 N 332.573 -1.56217 0.208337 0
M  V30 3490 C 333.821 -1.97558 -0.426076 0
M  V30 3491 C 334.142 -1.09683 -1.61229 0
M  V30 3492 O 333.412 -0.170956 -1.95153 0
M  V30 3493 H 331.992 -0.729575 -0.160405 0
M  V30 3494 H 334.654 -1.92606 0.298155 0
M  V30 3495 H 333.75 -3.02672 -0.761312 0
M  V30 3496 N 334.051 0.0651679 -1.57465 0
M  V30 3497 C 335.297 0.764193 -1.87851 0
M  V30 3498 C 335.63 1.76889 -0.801495 0
M  V30 3499 O 334.905 1.93594 0.187528 0
M  V30 3500 C 335.188 1.46625 -3.28897 0
M  V30 3501 C 335.041 0.477515 -4.47258 0
M  V30 3502 C 336.36 2.4095 -3.68281 0
M  V30 3503 H 333.479 0.276351 -0.683227 0
M  V30 3504 H 336.121 0.0272868 -1.8998 0
M  V30 3505 H 334.271 2.09438 -3.27212 0
M  V30 3506 H 335.943 -0.145922 -4.61069 0
M  V30 3507 H 334.186 -0.206576 -4.33308 0
M  V30 3508 H 334.857 1.0065 -5.42746 0
M  V30 3509 H 337.333 1.88209 -3.71102 0
M  V30 3510 H 336.209 2.87072 -4.67847 0
M  V30 3511 H 336.47 3.26049 -2.98571 0
M  V30 3512 N 335.529 1.53961 0.336706 0
M  V30 3513 C 336.777 1.71197 1.07405 0
M  V30 3514 C 337.098 0.481475 1.88962 0
M  V30 3515 O 336.368 -0.504585 1.8929 0
M  V30 3516 H 334.948 0.631185 0.399517 0
M  V30 3517 H 337.61 1.91232 0.376323 0
M  V30 3518 H 336.706 2.58587 1.74755 0
M  V30 3519 N 337.007 -0.598083 1.45811 0
M  V30 3520 C 338.253 -1.35882 1.50545 0
M  V30 3521 C 338.586 -1.93616 0.150445 0
M  V30 3522 O 337.861 -1.75604 -0.83628 0
M  V30 3523 C 338.144 -2.49966 2.59208 0
M  V30 3524 C 337.997 -1.97367 4.04186 0
M  V30 3525 C 339.316 -3.52068 2.64076 0
M  V30 3526 H 336.435 -0.492717 0.548087 0
M  V30 3527 H 339.077 -0.673319 1.77669 0
M  V30 3528 H 337.227 -3.08443 2.3621 0
M  V30 3529 H 338.899 -1.43466 4.38423 0
M  V30 3530 H 337.142 -1.283 4.14393 0
M  V30 3531 H 337.813 -2.79649 4.75921 0
M  V30 3532 H 340.289 -3.03448 2.84708 0
M  V30 3533 H 339.165 -4.2937 3.41954 0
M  V30 3534 H 339.426 -4.08304 1.69531 0
M  V30 3535 N 338.485 -1.33259 -0.841409 0
M  V30 3536 C 339.448 -1.23221 -1.9326 0
M  V30 3537 C 340.448 -0.151895 -1.60081 0
M  V30 3538 O 341.638 -0.403246 -1.69468 0
M  V30 3539 C 338.77 -0.898123 -3.28856 0
M  V30 3540 H 339.963 -2.2021 -2.03587 0
M  V30 3541 H 337.516 -1.17281 -1.03319 0
M  V30 3542 H 338.251 0.0693841 -3.24226 0
M  V30 3543 H 338.036 -1.67934 -3.54317 0
M  V30 3544 H 339.526 -0.852563 -4.08805 0
M  V30 3545 N 339.963 1.05934 -1.16686 0
M  V30 3546 C 341.193 1.82226 -0.973515 0
M  V30 3547 C 341.601 1.8297 0.481532 0
M  V30 3548 O 340.944 1.25009 1.34604 0
M  V30 3549 C 341.006 3.29897 -1.42858 0
M  V30 3550 C 340.67 3.52849 -2.90425 0
M  V30 3551 C 341.667 3.45595 -3.88407 0
M  V30 3552 C 339.352 3.80053 -3.28428 0
M  V30 3553 C 341.346 3.65217 -5.22394 0
M  V30 3554 C 339.033 3.99325 -4.62583 0
M  V30 3555 C 340.031 3.91905 -5.59374 0
M  V30 3556 O 339.719 4.10647 -6.91104 0
M  V30 3557 H 339.451 0.581314 -0.345036 0
M  V30 3558 H 342.005 1.3453 -1.55212 0
M  V30 3559 H 340.235 3.78472 -0.793477 0
M  V30 3560 H 341.924 3.87692 -1.20207 0
M  V30 3561 H 342.69 3.24564 -3.60393 0
M  V30 3562 H 338.569 3.84936 -2.53664 0
M  V30 3563 H 342.113 3.59341 -5.9793 0
M  V30 3564 H 338.01 4.19846 -4.90306 0
M  V30 3565 H 338.778 4.27915 -6.97733 0
M  V30 3566 N 341.441 0.965919 1.2453 0
M  V30 3567 C 342.389 0.486506 2.27455 0
M  V30 3568 C 343.383 -0.449041 1.6334 0
M  V30 3569 O 344.589 -0.324527 1.7705 0
M  V30 3570 H 340.964 0.138857 0.739069 0
M  V30 3571 H 342.935 1.3666 2.65267 0
M  V30 3572 C 341.684 -0.209481 3.47068 0
M  V30 3573 H 341.007 0.50129 3.96645 0
M  V30 3574 H 342.447 -0.508775 4.20936 0
M  V30 3575 C 340.906 -1.43586 3.0477 0
M  V30 3576 O 341.436 -2.53299 3.11773 0
M  V30 3577 N 339.642 -1.30126 2.59838 0
M  V30 3578 H 339.189 -0.408583 2.54339 0
M  V30 3579 H 339.147 -2.12294 2.31902 0
M  V30 3580 N 342.919 -1.39368 0.735821 0
M  V30 3581 C 344.144 -2.05319 0.293052 0
M  V30 3582 C 344.569 -1.55115 -1.064 0
M  V30 3583 O 343.927 -0.695261 -1.67439 0
M  V30 3584 C 343.975 -3.59305 0.305323 0
M  V30 3585 O 343.079 -4.06299 -0.706761 0
M  V30 3586 H 342.42 -0.650529 0.13307 0
M  V30 3587 H 344.95 -1.78386 1.00197 0
M  V30 3588 H 344.96 -4.07724 0.149997 0
M  V30 3589 H 343.635 -3.95207 1.29553 0
M  V30 3590 H 342.212 -3.69292 -0.517504 0
M  V30 3591 N 344.397 -0.483516 -1.5 0
M  V30 3592 C 345.344 0.304164 -2.28787 0
M  V30 3593 C 346.314 0.976114 -1.34392 0
M  V30 3594 O 347.499 0.986156 -1.63339 0
M  V30 3595 C 344.639 1.37298 -3.16612 0
M  V30 3596 C 343.752 0.714561 -4.26049 0
M  V30 3597 C 342.887 1.76232 -5.01114 0
M  V30 3598 C 341.926 1.08483 -6.0241 0
M  V30 3599 N 341.063 2.076 -6.70706 0
M  V30 3600 H 345.903 -0.373981 -2.95644 0
M  V30 3601 H 343.44 -0.196275 -1.45785 0
M  V30 3602 H 345.398 2.00445 -3.65893 0
M  V30 3603 H 344.028 2.02012 -2.51776 0
M  V30 3604 H 343.08 -0.0297798 -3.80388 0
M  V30 3605 H 344.392 0.180383 -4.98474 0
M  V30 3606 H 343.546 2.46929 -5.54176 0
M  V30 3607 H 342.285 2.33033 -4.28424 0
M  V30 3608 H 341.29 0.363545 -5.48597 0
M  V30 3609 H 342.515 0.523551 -6.77079 0
M  V30 3610 H 340.461 2.63394 -6.00799 0
M  V30 3611 H 340.378 1.59201 -7.39047 0
M  V30 3612 H 341.646 2.77639 -7.2838 0
M  V30 3613 N 345.875 1.56104 -0.216619 0
M  V30 3614 C 347.121 1.98466 0.417033 0
M  V30 3615 C 347.454 1.10403 1.59765 0
M  V30 3616 O 346.729 0.160632 1.93836 0
M  V30 3617 C 347.012 3.49769 0.85637 0
M  V30 3618 C 346.865 4.48606 -0.327546 0
M  V30 3619 C 348.184 4.05339 1.7143 0
M  V30 3620 H 345.303 0.721551 0.150112 0
M  V30 3621 H 347.945 1.87423 -0.311864 0
M  V30 3622 H 346.095 3.5931 1.47745 0
M  V30 3623 H 347.767 4.5108 -0.965618 0
M  V30 3624 H 346.01 4.22682 -0.975805 0
M  V30 3625 H 346.681 5.51995 0.0227149 0
M  V30 3626 H 349.157 3.98712 1.19031 0
M  V30 3627 H 348.033 5.11533 1.99061 0
M  V30 3628 H 348.294 3.51918 2.67593 0
M  V30 3629 N 347.353 -0.0568162 1.57498 0
M  V30 3630 C 348.316 -1.05038 2.03715 0
M  V30 3631 C 349.316 -1.30709 0.936577 0
M  V30 3632 O 350.506 -1.26178 1.20103 0
M  V30 3633 C 347.638 -2.39034 2.43055 0
M  V30 3634 H 348.831 -0.651715 2.92733 0
M  V30 3635 H 346.384 -0.302947 1.53336 0
M  V30 3636 H 347.119 -2.83703 1.57108 0
M  V30 3637 H 346.904 -2.21739 3.2338 0
M  V30 3638 H 348.394 -3.10421 2.79336 0
M  V30 3639 N 348.832 -1.54138 -0.328536 0
M  V30 3640 C 350.08 -1.71765 -1.06496 0
M  V30 3641 C 350.401 -0.49149 -1.88704 0
M  V30 3642 O 349.671 0.494539 -1.89555 0
M  V30 3643 H 348.251 -0.633295 -0.396164 0
M  V30 3644 H 350.913 -1.91429 -0.366176 0
M  V30 3645 H 350.009 -2.5951 -1.73381 0
M  V30 3646 N 350.31 0.590341 -1.46126 0
M  V30 3647 C 351.559 1.34499 -1.50309 0
M  V30 3648 C 351.872 1.94977 -0.156021 0
M  V30 3649 O 353.078 2.71395 -0.0756037 0
M  V30 3650 C 351.534 2.43723 -2.64815 0
M  V30 3651 C 351.142 1.89582 -4.0591 0
M  V30 3652 C 352.886 3.20579 -2.78262 0
M  V30 3653 C 350.793 2.9639 -5.11769 0
M  V30 3654 H 349.723 0.505593 -0.559368 0
M  V30 3655 H 352.374 0.630848 -1.72315 0
M  V30 3656 H 350.756 3.17902 -2.36124 0
M  V30 3657 H 351.93 1.21997 -4.44357 0
M  V30 3658 H 350.245 1.25418 -3.97063 0
M  V30 3659 H 352.842 4.00276 -3.54519 0
M  V30 3660 H 353.185 3.72684 -1.85505 0
M  V30 3661 H 353.718 2.53505 -3.06562 0
M  V30 3662 H 350.457 2.49181 -6.06291 0
M  V30 3663 H 349.977 3.62487 -4.77873 0
M  V30 3664 H 351.656 3.60474 -5.37278 0
M  V30 3665 N 351.788 1.33704 0.83433 0
M  V30 3666 C 353.204 1.13137 1.12571 0
M  V30 3667 C 353.404 -0.0747261 2.01361 0
M  V30 3668 O 352.46 -0.753647 2.4099 0
M  V30 3669 C 353.773 2.42105 1.78342 0
M  V30 3670 C 355.321 2.48054 1.90888 0
M  V30 3671 C 355.796 3.76995 2.60075 0
M  V30 3672 N 357.287 3.78092 2.67584 0
M  V30 3673 C 358.022 4.74574 3.21818 0
M  V30 3674 N 357.518 5.81434 3.76705 0
M  V30 3675 N 359.311 4.62044 3.20112 0
M  V30 3676 H 351.462 2.11 0.243489 0
M  V30 3677 H 353.725 0.932532 0.17055 0
M  V30 3678 H 353.431 3.30391 1.20561 0
M  V30 3679 H 353.305 2.54594 2.7832 0
M  V30 3680 H 355.692 1.60215 2.47821 0
M  V30 3681 H 355.773 2.39502 0.898459 0
M  V30 3682 H 355.417 4.65219 2.03799 0
M  V30 3683 H 355.347 3.82825 3.61597 0
M  V30 3684 H 357.838 3.00865 2.28667 0
M  V30 3685 H 358.151 6.51084 4.16305 0
M  V30 3686 H 356.496 5.85163 3.7498 0
M  V30 3687 H 359.687 3.77716 2.76493 0
M  V30 3688 H 359.86 5.37406 3.62076 0
M  V30 3689 N 353.266 -1.05314 1.17247 0
M  V30 3690 C 354.199 -2.12512 0.831507 0
M  V30 3691 C 355.177 -1.61351 -0.201168 0
M  V30 3692 O 356.361 -1.88317 -0.0829831 0
M  V30 3693 C 353.488 -3.37848 0.24015 0
M  V30 3694 C 352.534 -4.07832 1.24801 0
M  V30 3695 S 353.367 -4.56537 2.79882 0
M  V30 3696 C 354.523 -5.85122 2.22223 0
M  V30 3697 H 354.756 -2.41106 1.7394 0
M  V30 3698 H 352.289 -1.17896 0.996988 0
M  V30 3699 H 354.247 -4.10391 -0.0945588 0
M  V30 3700 H 352.908 -3.07392 -0.645668 0
M  V30 3701 H 352.101 -4.97883 0.78287 0
M  V30 3702 H 351.703 -3.41348 1.52831 0
M  V30 3703 H 353.995 -6.58408 1.59703 0
M  V30 3704 H 354.938 -6.36381 3.10523 0
M  V30 3705 H 355.346 -5.39626 1.65722 0
M  V30 3706 N 354.744 -0.972509 -1.24016 0
M  V30 3707 C 355.674 -0.525548 -2.27509 0
M  V30 3708 C 356.655 0.437262 -1.64384 0
M  V30 3709 O 357.84 0.332343 -1.91335 0
M  V30 3710 C 354.97 0.180448 -3.46831 0
M  V30 3711 C 353.924 -0.698859 -4.22256 0
M  V30 3712 C 353.25 0.138903 -5.3452 0
M  V30 3713 C 354.55 -1.98582 -4.83076 0
M  V30 3714 H 356.244 -1.39058 -2.65148 0
M  V30 3715 H 353.79 -0.67009 -1.27459 0
M  V30 3716 H 355.743 0.504387 -4.18371 0
M  V30 3717 H 354.467 1.07987 -3.08231 0
M  V30 3718 H 353.126 -1.00614 -3.52523 0
M  V30 3719 H 352.774 1.03862 -4.9216 0
M  V30 3720 H 352.474 -0.446259 -5.85903 0
M  V30 3721 H 353.998 0.457404 -6.08884 0
M  V30 3722 H 355.412 -1.72715 -5.46665 0
M  V30 3723 H 353.809 -2.5181 -5.44713 0
M  V30 3724 H 354.879 -2.67769 -4.04262 0
M  V30 3725 N 356.222 1.38976 -0.743202 0
M  V30 3726 C 357.499 1.94351 -0.220705 0
M  V30 3727 C 357.879 1.67935 1.2791 0
M  V30 3728 O 357.227 1.01211 2.04862 0
M  V30 3729 C 357.437 3.44426 -0.563171 0
M  V30 3730 C 358.785 4.2144 -0.517046 0
M  V30 3731 O 359.809 3.52661 -0.500846 0
M  V30 3732 O 358.668 5.44032 -0.518806 0
M  V30 3733 H 355.762 0.825879 -0.043047 0
M  V30 3734 H 358.308 1.48429 -0.822618 0
M  V30 3735 H 357.08 3.5712 -1.59941 0
M  V30 3736 H 356.703 3.97543 0.0672883 0
M  V30 3737 N 357.7 0.491464 1.49741 0
M  V30 3738 C 358.632 -0.328609 2.26832 0
M  V30 3739 C 359.645 -0.939113 1.32983 0
M  V30 3740 O 360.834 -0.824067 1.58339 0
M  V30 3741 C 357.934 -1.47675 3.05033 0
M  V30 3742 C 357.107 -0.975305 4.26388 0
M  V30 3743 C 356.166 -1.99991 4.86714 0
M  V30 3744 O 355.192 -1.57229 5.47054 0
M  V30 3745 N 356.394 -3.32962 4.75517 0
M  V30 3746 H 359.159 0.332377 2.97851 0
M  V30 3747 H 356.72 0.323441 1.58636 0
M  V30 3748 H 358.712 -2.15954 3.42266 0
M  V30 3749 H 357.282 -2.04206 2.36683 0
M  V30 3750 H 356.502 -0.117723 3.94024 0
M  V30 3751 H 357.79 -0.618531 5.05026 0
M  V30 3752 H 357.188 -3.70399 4.27576 0
M  V30 3753 H 355.745 -3.96982 5.16961 0
M  V30 3754 N 359.178 -1.55987 0.224894 0
M  V30 3755 C 360.589 -1.84553 -0.282345 0
M  V30 3756 C 360.94 -1.14634 -1.59227 0
M  V30 3757 O 360.065 -0.417155 -2.12341 0
M  V30 3758 C 360.66 -3.348 -0.519062 0
M  V30 3759 C 359.219 -3.63671 -0.970604 0
M  V30 3760 C 358.366 -2.77277 -0.0355261 0
M  V30 3761 H 361.317 -1.52245 0.448006 0
M  V30 3762 H 361.338 -3.55187 -1.36463 0
M  V30 3763 H 360.85 -3.8566 0.43449 0
M  V30 3764 H 358.951 -3.1827 -1.9374 0
M  V30 3765 H 359.064 -4.71631 -0.842698 0
M  V30 3766 H 357.428 -2.48846 -0.542927 0
M  V30 3767 H 358.211 -3.30937 0.913003 0
M  V30 3768 N 360.656 0.0484629 -1.57525 0
M  V30 3769 C 361.903 0.743125 -1.88372 0
M  V30 3770 C 362.231 1.76383 -0.819715 0
M  V30 3771 O 361.486 1.94855 0.181659 0
M  V30 3772 C 361.785 1.46632 -3.25935 0
M  V30 3773 C 361.451 0.583427 -4.4711 0
M  V30 3774 C 360.113 0.340191 -4.79996 0
M  V30 3775 C 362.465 -0.0273345 -5.21193 0
M  V30 3776 C 359.793 -0.522903 -5.84365 0
M  V30 3777 C 362.145 -0.878017 -6.26477 0
M  V30 3778 C 360.809 -1.1309 -6.5785 0
M  V30 3779 H 360.079 0.271929 -0.689301 0
M  V30 3780 H 362.726 0.00336166 -1.915 0
M  V30 3781 H 361.031 2.2789 -3.18706 0
M  V30 3782 H 362.728 2.00902 -3.47044 0
M  V30 3783 H 359.318 0.783151 -4.21384 0
M  V30 3784 H 363.502 0.147654 -4.9608 0
M  V30 3785 H 358.758 -0.727335 -6.07058 0
M  V30 3786 H 362.932 -1.35789 -6.83033 0
M  V30 3787 H 360.559 -1.80144 -7.38547 0
M  V30 3788 N 362.134 1.5431 0.320358 0
M  V30 3789 C 363.067 1.78769 1.41834 0
M  V30 3790 C 364.045 0.63783 1.49568 0
M  V30 3791 O 365.229 0.875628 1.66928 0
M  V30 3792 C 362.356 1.90712 2.79905 0
M  V30 3793 C 361.402 3.13023 2.89687 0
M  V30 3794 S 362.235 4.71554 2.53766 0
M  V30 3795 C 363.391 4.86408 3.93902 0
M  V30 3796 H 363.624 2.71619 1.20874 0
M  V30 3797 H 361.157 1.45474 0.517377 0
M  V30 3798 H 363.115 1.98279 3.59438 0
M  V30 3799 H 361.776 0.988343 2.98145 0
M  V30 3800 H 360.969 3.18124 3.90913 0
M  V30 3801 H 360.571 3.03803 2.18128 0
M  V30 3802 H 362.863 4.69241 4.88691 0
M  V30 3803 H 363.806 5.88508 3.93782 0
M  V30 3804 H 364.214 4.14689 3.83005 0
M  V30 3805 N 363.613 -0.582584 1.46437 0
M  V30 3806 C 364.841 -1.36682 1.55324 0
M  V30 3807 C 365.256 -1.87796 0.194409 0
M  V30 3808 O 364.613 -1.63623 -0.808318 0
M  V30 3809 C 364.664 -2.55426 2.55812 0
M  V30 3810 O 364.385 -2.0643 3.86417 0
M  V30 3811 C 365.886 -3.47976 2.74641 0
M  V30 3812 H 363.106 -0.417545 0.525259 0
M  V30 3813 H 365.65 -0.708219 1.91845 0
M  V30 3814 H 363.805 -3.17275 2.22295 0
M  V30 3815 H 364.219 -2.83762 4.41111 0
M  V30 3816 H 365.693 -4.27775 3.48874 0
M  V30 3817 H 366.17 -3.99919 1.81553 0
M  V30 3818 H 366.776 -2.91962 3.09255 0
M  V30 3819 N 365.091 -1.34144 -0.827227 0
M  V30 3820 C 366.368 -1.16844 -1.56865 0
M  V30 3821 C 366.748 0.260654 -2.09485 0
M  V30 3822 O 366.096 1.26138 -1.9053 0
M  V30 3823 C 366.306 -2.21939 -2.6934 0
M  V30 3824 C 367.654 -2.56695 -3.3822 0
M  V30 3825 O 368.678 -2.20695 -2.79593 0
M  V30 3826 O 367.537 -3.18518 -4.44082 0
M  V30 3827 H 364.631 -0.452669 -0.692112 0
M  V30 3828 H 367.177 -1.45763 -0.868973 0
M  V30 3829 H 365.949 -3.17882 -2.28182 0
M  V30 3830 H 365.572 -1.94172 -3.46962 0
M  V30 3831 N 366.569 1.04691 -1.17803 0
M  V30 3832 C 367.818 1.77176 -0.963931 0
M  V30 3833 C 368.131 1.88888 0.508015 0
M  V30 3834 O 369.337 2.58164 0.840465 0
M  V30 3835 C 367.793 3.18518 -1.67555 0
M  V30 3836 C 367.401 3.14919 -3.18637 0
M  V30 3837 C 369.145 3.95424 -1.54402 0
M  V30 3838 C 367.052 4.51081 -3.82466 0
M  V30 3839 H 365.982 0.664116 -0.357023 0
M  V30 3840 H 368.633 1.17303 -1.4111 0
M  V30 3841 H 367.015 3.78748 -1.15613 0
M  V30 3842 H 368.189 2.64178 -3.77554 0
M  V30 3843 H 366.504 2.51512 -3.31859 0
M  V30 3844 H 369.101 4.96106 -1.99456 0
M  V30 3845 H 369.444 4.13343 -0.495329 0
M  V30 3846 H 369.977 3.41754 -2.0359 0
M  V30 3847 H 366.716 4.38368 -4.87354 0
M  V30 3848 H 366.236 5.01951 -3.28337 0
M  V30 3849 H 367.915 5.2001 -3.84965 0
M  V30 3850 N 368.047 0.979072 1.23499 0
M  V30 3851 C 369.296 0.642751 1.91185 0
M  V30 3852 C 369.609 -0.827253 1.77245 0
M  V30 3853 O 370.815 -1.27458 2.39722 0
M  V30 3854 C 369.271 1.09901 3.42709 0
M  V30 3855 C 368.879 2.59327 3.65313 0
M  V30 3856 C 370.623 0.836371 4.16179 0
M  V30 3857 C 368.53 2.98627 5.10467 0
M  V30 3858 H 367.46 0.236698 0.715884 0
M  V30 3859 H 370.111 1.1868 1.39955 0
M  V30 3860 H 368.493 0.48319 3.93041 0
M  V30 3861 H 369.667 3.26136 3.25533 0
M  V30 3862 H 367.982 2.83323 3.05151 0
M  V30 3863 H 370.579 1.10586 5.23139 0
M  V30 3864 H 370.922 -0.227509 4.15678 0
M  V30 3865 H 371.455 1.41371 3.71832 0
M  V30 3866 H 368.194 4.04133 5.16098 0
M  V30 3867 H 367.714 2.3651 5.51201 0
M  V30 3868 H 369.393 2.89159 5.78788 0
M  V30 3869 N 369.525 -1.3858 0.750561 0
M  V30 3870 C 370.435 -2.34278 0.122825 0
M  V30 3871 C 371.451 -1.59116 -0.704131 0
M  V30 3872 O 372.627 -1.91326 -0.628987 0
M  V30 3873 C 369.692 -3.38221 -0.762086 0
M  V30 3874 C 368.753 -4.29227 0.078896 0
M  V30 3875 C 367.986 -5.28205 -0.763874 0
M  V30 3876 O 368.209 -5.34112 -2.00201 0
M  V30 3877 O 367.143 -6.01618 -0.18428 0
M  V30 3878 H 370.969 -2.89649 0.913088 0
M  V30 3879 H 368.554 -1.40374 0.511417 0
M  V30 3880 H 370.436 -4.01872 -1.26793 0
M  V30 3881 H 369.111 -2.85211 -1.5309 0
M  V30 3882 H 368.018 -3.68747 0.630621 0
M  V30 3883 H 369.351 -4.85484 0.810289 0
M  V30 3884 N 371.003 -0.499398 -1.49478 0
M  V30 3885 C 371.966 0.268838 -2.27618 0
M  V30 3886 C 372.966 0.895383 -1.33565 0
M  V30 3887 O 374.156 0.760164 -1.56739 0
M  V30 3888 C 371.288 1.38559 -3.11471 0
M  V30 3889 H 372.481 -0.416812 -2.96989 0
M  V30 3890 H 370.034 -0.254313 -1.54217 0
M  V30 3891 H 370.769 2.10544 -2.46661 0
M  V30 3892 H 370.554 0.941797 -3.80621 0
M  V30 3893 H 372.044 1.92678 -3.70493 0
M  V30 3894 N 372.481 1.55866 -0.233164 0
M  V30 3895 C 373.706 2.03449 0.402906 0
M  V30 3896 C 374.131 1.11166 1.51736 0
M  V30 3897 O 373.489 0.101996 1.81013 0
M  V30 3898 C 373.537 3.49165 0.9009 0
M  V30 3899 O 372.641 3.60019 2.01147 0
M  V30 3900 H 371.982 0.657913 0.0897025 0
M  V30 3901 H 374.512 2.01493 -0.355201 0
M  V30 3902 H 374.522 3.89716 1.2077 0
M  V30 3903 H 373.197 4.15813 0.0852889 0
M  V30 3904 H 371.774 3.3136 1.71042 0
M  V30 3905 N 373.959 -0.0401083 1.57549 0
M  V30 3906 C 375.184 -0.748931 1.93406 0
M  V30 3907 C 375.609 -1.68686 0.832274 0
M  V30 3908 O 374.967 -1.80047 -0.212818 0
M  V30 3909 C 375.015 -1.4916 3.28304 0
M  V30 3910 O 374.119 -2.6042 3.19774 0
M  V30 3911 H 373.46 -0.202212 0.63246 0
M  V30 3912 H 375.99 0.00112086 2.046 0
M  V30 3913 H 376 -1.86395 3.62934 0
M  V30 3914 H 374.675 -0.80364 4.08062 0
M  V30 3915 H 373.252 -2.25808 2.96758 0
M  V30 3916 N 375.437 -1.54477 -0.31217 0
M  V30 3917 C 376.686 -1.72438 -1.04633 0
M  V30 3918 C 376.999 -0.511163 -1.88803 0
M  V30 3919 O 378.205 -0.572341 -2.65399 0
M  V30 3920 C 376.661 -3.05043 -1.9099 0
M  V30 3921 C 376.269 -4.33806 -1.11877 0
M  V30 3922 C 378.013 -3.32364 -2.64073 0
M  V30 3923 C 375.92 -5.57467 -1.97445 0
M  V30 3924 H 374.85 -0.642647 -0.394361 0
M  V30 3925 H 377.501 -1.80966 -0.303929 0
M  V30 3926 H 375.883 -2.90451 -2.69173 0
M  V30 3927 H 377.057 -4.59199 -0.383843 0
M  V30 3928 H 375.372 -4.13336 -0.504252 0
M  V30 3929 H 377.969 -4.21951 -3.28423 0
M  V30 3930 H 378.312 -2.50745 -3.32314 0
M  V30 3931 H 378.845 -3.47875 -1.92944 0
M  V30 3932 H 375.584 -6.41722 -1.33692 0
M  V30 3933 H 375.104 -5.36277 -2.6864 0
M  V30 3934 H 376.783 -5.94303 -2.5576 0
M  V30 3935 N 376.915 0.57481 -1.46744 0
M  V30 3936 C 378.14 1.36341 -1.56288 0
M  V30 3937 C 378.565 1.86954 -0.207347 0
M  V30 3938 O 377.923 1.62006 0.813871 0
M  V30 3939 C 377.971 2.52147 -2.57787 0
M  V30 3940 O 377.075 3.53834 -2.11838 0
M  V30 3941 H 376.416 0.405713 -0.525636 0
M  V30 3942 H 378.946 0.696453 -1.92382 0
M  V30 3943 H 378.956 2.98958 -2.77648 0
M  V30 3944 H 377.631 2.14663 -3.5622 0
M  V30 3945 H 376.208 3.1345 -2.01999 0
M  V30 3946 N 378.394 1.34581 0.820102 0
M  V30 3947 C 379.344 1.22943 1.92013 0
M  V30 3948 C 380.328 0.127802 1.60392 0
M  V30 3949 O 381.52 0.357737 1.73347 0
M  V30 3950 C 378.649 0.989938 3.28717 0
M  V30 3951 C 377.735 2.13486 3.66449 0
M  V30 3952 N 378.126 3.38625 3.75722 0
M  V30 3953 C 376.424 2.04573 3.96315 0
M  V30 3954 C 377.125 4.13832 4.08801 0
M  V30 3955 N 376.101 3.42451 4.22171 0
M  V30 3956 H 379.903 2.17771 1.97365 0
M  V30 3957 H 377.417 1.2686 1.01392 0
M  V30 3958 H 379.414 0.887462 4.07345 0
M  V30 3959 H 378.074 0.0503691 3.24661 0
M  V30 3960 H 379.085 3.73143 3.59144 0
M  V30 3961 H 375.762 1.1839 4.00362 0
M  V30 3962 H 377.152 5.21909 4.23156 0
M  V30 3963 N 379.872 -1.04064 1.18357 0
M  V30 3964 C 380.805 -2.11618 0.854 0
M  V30 3965 C 381.783 -1.61555 -0.184043 0
M  V30 3966 O 382.967 -1.88395 -0.0630048 0
M  V30 3967 C 380.094 -3.37574 0.27597 0
M  V30 3968 C 379.14 -4.06485 1.2912 0
M  V30 3969 S 379.973 -4.53543 2.84709 0
M  V30 3970 C 381.129 -5.82732 2.28417 0
M  V30 3971 H 381.362 -2.39247 1.76488 0
M  V30 3972 H 378.895 -1.16832 1.00944 0
M  V30 3973 H 380.853 -4.10468 -0.051026 0
M  V30 3974 H 379.514 -3.0806 -0.613028 0
M  V30 3975 H 378.707 -4.97024 0.835633 0
M  V30 3976 H 378.309 -3.39708 1.56443 0
M  V30 3977 H 380.601 -6.56677 1.66677 0
M  V30 3978 H 381.544 -6.33052 3.17256 0
M  V30 3979 H 381.952 -5.37838 1.71436 0
M  V30 3980 N 381.35 -0.985608 -1.22978 0
M  V30 3981 C 382.761 -0.693593 -1.73338 0
M  V30 3982 C 383.112 0.789935 -1.79595 0
M  V30 3983 O 382.237 1.61771 -1.43733 0
M  V30 3984 C 382.832 -1.25235 -3.14804 0
M  V30 3985 C 381.391 -1.00987 -3.626 0
M  V30 3986 C 380.538 -1.37695 -2.40698 0
M  V30 3987 H 383.489 -1.15884 -1.08428 0
M  V30 3988 H 383.51 -0.627329 -3.75293 0
M  V30 3989 H 383.022 -2.33209 -3.10218 0
M  V30 3990 H 381.123 0.0535565 -3.72562 0
M  V30 3991 H 381.236 -1.66812 -4.49122 0
M  V30 3992 H 379.6 -0.795459 -2.4196 0
M  V30 3993 H 380.383 -2.46657 -2.38779 0
M  V30 3994 N 382.828 1.3818 -0.7579 0
M  V30 3995 C 383.76 2.2901 -0.0932177 0
M  V30 3996 C 384.773 1.47958 0.679136 0
M  V30 3997 O 385.962 1.70773 0.519514 0
M  V30 3998 C 383.062 3.26953 0.89192 0
M  V30 3999 C 382.235 4.37045 0.176303 0
M  V30 4000 C 381.294 5.15148 1.07281 0
M  V30 4001 O 380.32 5.66616 0.541728 0
M  V30 4002 N 381.522 5.28542 2.40049 0
M  V30 4003 H 384.287 2.86694 -0.873303 0
M  V30 4004 H 381.848 1.50007 -0.609054 0
M  V30 4005 H 383.84 3.76083 1.49479 0
M  V30 4006 H 382.41 2.70136 1.57306 0
M  V30 4007 H 381.63 3.89493 -0.607328 0
M  V30 4008 H 382.918 5.07801 -0.318718 0
M  V30 4009 H 382.316 4.88285 2.85647 0
M  V30 4010 H 380.873 5.8103 2.95376 0
M  V30 4011 N 384.306 0.507319 1.49211 0
M  V30 4012 C 385.236 -0.256939 2.32082 0
M  V30 4013 C 386.217 -0.956609 1.40652 0
M  V30 4014 O 387.402 -0.946788 1.69557 0
M  V30 4015 C 384.532 -1.31802 3.21318 0
M  V30 4016 C 383.486 -0.737855 4.21592 0
M  V30 4017 C 382.812 -1.89992 4.99807 0
M  V30 4018 C 384.112 0.275325 5.21574 0
M  V30 4019 H 385.806 0.434798 2.96226 0
M  V30 4020 H 383.352 0.210546 1.42452 0
M  V30 4021 H 385.305 -1.86045 3.78107 0
M  V30 4022 H 384.029 -2.03903 2.5513 0
M  V30 4023 H 382.688 -0.217126 3.65956 0
M  V30 4024 H 382.336 -2.60877 4.30061 0
M  V30 4025 H 382.036 -1.51777 5.6766 0
M  V30 4026 H 383.56 -2.44657 5.59442 0
M  V30 4027 H 384.974 -0.179193 5.7302 0
M  V30 4028 H 383.371 0.573649 5.97352 0
M  V30 4029 H 384.441 1.18903 4.70096 0
M  V30 4030 N 385.784 -1.5574 0.241426 0
M  V30 4031 C 387.033 -1.97986 -0.385295 0
M  V30 4032 C 387.346 -1.13267 -1.59468 0
M  V30 4033 O 388.552 -1.45501 -2.2922 0
M  V30 4034 C 387.008 -3.52275 -0.736884 0
M  V30 4035 C 386.616 -4.45726 0.450796 0
M  V30 4036 C 388.36 -4.03189 -1.3281 0
M  V30 4037 C 386.267 -5.91352 0.0756662 0
M  V30 4038 H 385.197 -0.739386 -0.147731 0
M  V30 4039 H 387.848 -1.80308 0.340779 0
M  V30 4040 H 386.23 -3.65628 -1.52094 0
M  V30 4041 H 387.404 -4.44131 1.22819 0
M  V30 4042 H 385.719 -4.05264 0.956573 0
M  V30 4043 H 388.316 -5.09505 -1.62201 0
M  V30 4044 H 388.659 -3.50212 -2.25071 0
M  V30 4045 H 389.192 -3.93141 -0.607069 0
M  V30 4046 H 385.931 -6.48354 0.965272 0
M  V30 4047 H 385.451 -5.96095 -0.665635 0
M  V30 4048 H 387.13 -6.46084 -0.344075 0
M  V30 4049 N 387.262 0.0317525 -1.57568 0
M  V30 4050 C 388.539 0.758366 -1.803 0
M  V30 4051 C 388.919 1.93718 -0.838845 0
M  V30 4052 O 388.267 2.28187 0.119571 0
M  V30 4053 C 388.477 1.19392 -3.27943 0
M  V30 4054 C 389.825 1.61094 -3.92854 0
M  V30 4055 O 390.849 1.28857 -3.32076 0
M  V30 4056 O 389.708 2.20918 -4.99858 0
M  V30 4057 H 386.802 0.366514 -0.741348 0
M  V30 4058 H 389.348 0.00873765 -1.69698 0
M  V30 4059 H 388.12 0.352275 -3.89711 0
M  V30 4060 H 387.743 2.00365 -3.43424 0
M  V30 4061 N 388.74 1.54641 0.303973 0
M  V30 4062 C 389.989 1.7299 1.03717 0
M  V30 4063 C 390.302 0.521168 1.88529 0
M  V30 4064 O 391.508 0.586408 2.65092 0
M  V30 4065 C 389.964 3.06051 1.89369 0
M  V30 4066 C 389.572 4.34393 1.09574 0
M  V30 4067 C 391.316 3.3376 2.62306 0
M  V30 4068 C 389.223 5.58506 1.94486 0
M  V30 4069 H 388.153 0.64473 0.390947 0
M  V30 4070 H 390.804 1.81124 0.294328 0
M  V30 4071 H 389.186 2.91874 2.67629 0
M  V30 4072 H 390.36 4.59396 0.359485 0
M  V30 4073 H 388.675 4.13597 0.482324 0
M  V30 4074 H 391.272 4.23687 3.26181 0
M  V30 4075 H 391.615 2.52503 3.3098 0
M  V30 4076 H 392.148 3.48894 1.91097 0
M  V30 4077 H 388.887 6.42422 1.30287 0
M  V30 4078 H 388.407 5.37694 2.65792 0
M  V30 4079 H 390.086 5.95651 2.52605 0
M  V30 4080 N 390.218 -0.567019 1.47046 0
M  V30 4081 C 391.448 -1.34831 1.56538 0
M  V30 4082 C 391.856 -1.8802 0.21101 0
M  V30 4083 O 391.199 -1.65152 -0.804387 0
M  V30 4084 C 391.261 -2.56139 2.52256 0
M  V30 4085 C 390.925 -2.24307 3.98165 0
M  V30 4086 C 391.922 -1.82192 4.86931 0
M  V30 4087 C 389.607 -2.35968 4.43423 0
M  V30 4088 C 391.601 -1.52153 6.18973 0
M  V30 4089 C 389.288 -2.05542 5.75496 0
M  V30 4090 C 390.286 -1.63701 6.63092 0
M  V30 4091 O 389.974 -1.33657 7.92711 0
M  V30 4092 H 389.706 -0.417683 0.531523 0
M  V30 4093 H 392.26 -0.694726 1.93294 0
M  V30 4094 H 390.49 -3.24356 2.10548 0
M  V30 4095 H 392.179 -3.18214 2.51982 0
M  V30 4096 H 392.945 -1.72684 4.53217 0
M  V30 4097 H 388.824 -2.67495 3.75456 0
M  V30 4098 H 392.368 -1.19421 6.87302 0
M  V30 4099 H 388.265 -2.14679 6.08755 0
M  V30 4100 H 389.033 -1.4737 8.05124 0
M  V30 4101 N 391.696 -1.35014 -0.812953 0
M  V30 4102 C 392.921 -1.31187 -1.60639 0
M  V30 4103 C 393.346 0.109382 -1.87782 0
M  V30 4104 O 392.704 1.07424 -1.46047 0
M  V30 4105 C 392.752 -2.11809 -2.91838 0
M  V30 4106 O 391.856 -1.49444 -3.8437 0
M  V30 4107 H 391.197 -0.450084 -0.488181 0
M  V30 4108 H 393.727 -1.77963 -1.00947 0
M  V30 4109 H 393.737 -2.23531 -3.41318 0
M  V30 4110 H 392.412 -3.15137 -2.71407 0
M  V30 4111 H 390.989 -1.46524 -3.42907 0
M  V30 4112 N 393.175 1.03435 -1.18907 0
M  V30 4113 C 394.138 2.09756 -0.923844 0
M  V30 4114 C 395.138 1.60528 0.093416 0
M  V30 4115 O 396.328 1.73631 -0.140727 0
M  V30 4116 C 393.46 3.38692 -0.387354 0
M  V30 4117 H 394.653 2.34719 -1.86674 0
M  V30 4118 H 392.206 1.19959 -1.00197 0
M  V30 4119 H 392.941 3.19396 0.561845 0
M  V30 4120 H 392.726 3.75742 -1.12074 0
M  V30 4121 H 394.216 4.17016 -0.220694 0
M  V30 4122 N 394.653 0.992116 1.22453 0
M  V30 4123 C 395.878 0.685644 1.95739 0
M  V30 4124 C 396.303 -0.743 1.72804 0
M  V30 4125 O 395.661 -1.50778 1.00676 0
M  V30 4126 C 395.709 0.996293 3.46564 0
M  V30 4127 O 394.813 0.0945512 4.12292 0
M  V30 4128 H 394.154 0.256694 0.612376 0
M  V30 4129 H 396.684 1.32888 1.5557 0
M  V30 4130 H 396.694 0.93781 3.97076 0
M  V30 4131 H 395.369 2.03733 3.62582 0
M  V30 4132 H 393.946 0.208451 3.72317 0
M  V30 4133 N 396.131 -1.37776 0.765217 0
M  V30 4134 C 397.377 -2.00604 0.336066 0
M  V30 4135 C 397.732 -1.59657 -1.07366 0
M  V30 4136 O 397.025 -0.829565 -1.7271 0
M  V30 4137 C 397.219 -3.5504 0.410053 0
M  V30 4138 C 397.048 -4.10985 1.82542 0
M  V30 4139 C 395.818 -4.42229 2.44461 0
M  V30 4140 C 398.016 -4.32438 2.78392 0
M  V30 4141 N 395.998 -4.8385 3.77839 0
M  V30 4142 C 397.369 -4.76596 3.96556 0
M  V30 4143 C 399.424 -4.14559 2.75764 0
M  V30 4144 C 398.127 -5.04748 5.12466 0
M  V30 4145 C 400.153 -4.43843 3.90842 0
M  V30 4146 C 399.515 -4.88235 5.07746 0
M  V30 4147 H 395.614 -0.763325 0.169881 0
M  V30 4148 H 398.198 -1.67197 0.997656 0
M  V30 4149 H 396.369 -3.87769 -0.221325 0
M  V30 4150 H 398.101 -4.0468 -0.0405285 0
M  V30 4151 H 394.856 -4.31079 1.96131 0
M  V30 4152 H 395.28 -5.08979 4.46396 0
M  V30 4153 H 399.922 -3.79415 1.86558 0
M  V30 4154 H 397.64 -5.38783 6.02277 0
M  V30 4155 H 401.226 -4.31603 3.90141 0
M  V30 4156 H 400.106 -5.10461 5.95315 0
M  V30 4157 N 397.609 -0.515225 -1.4894 0
M  V30 4158 C 398.857 0.0241671 -2.02086 0
M  V30 4159 C 399.178 1.3616 -1.3959 0
M  V30 4160 O 398.448 1.87841 -0.556121 0
M  V30 4161 H 397.028 0.0119203 -0.746905 0
M  V30 4162 H 399.69 -0.675702 -1.82812 0
M  V30 4163 H 398.786 0.143385 -3.1177 0
M  V30 4164 N 399.087 1.5561 -0.249682 0
M  V30 4165 C 400.498 1.84979 0.252949 0
M  V30 4166 C 400.849 1.17153 1.57384 0
M  V30 4167 O 399.974 0.450884 2.11651 0
M  V30 4168 C 400.569 3.35584 0.465732 0
M  V30 4169 C 399.128 3.65169 0.912624 0
M  V30 4170 C 398.275 2.77299 -0.00859085 0
M  V30 4171 H 401.226 1.51513 -0.47217 0
M  V30 4172 H 401.247 3.57313 1.30795 0
M  V30 4173 H 400.759 3.8492 -0.49579 0
M  V30 4174 H 398.86 3.21312 1.88652 0
M  V30 4175 H 398.973 4.72912 0.767559 0
M  V30 4176 H 397.337 2.49678 0.50327 0
M  V30 4177 H 398.12 3.29442 -0.965537 0
M  V30 4178 N 400.565 -0.0233959 1.57583 0
M  V30 4179 C 401.793 -0.724682 1.93794 0
M  V30 4180 C 402.208 -1.68588 0.849912 0
M  V30 4181 O 401.565 -1.81676 -0.173204 0
M  V30 4182 C 401.616 -1.47684 3.29957 0
M  V30 4183 O 401.337 -0.554222 4.3458 0
M  V30 4184 C 402.838 -2.27477 3.80485 0
M  V30 4185 H 400.058 -0.203317 0.639455 0
M  V30 4186 H 402.602 0.0207653 2.04489 0
M  V30 4187 H 400.757 -2.17412 3.20641 0
M  V30 4188 H 401.171 -1.08232 5.13212 0
M  V30 4189 H 402.645 -2.7564 4.78254 0
M  V30 4190 H 403.122 -3.09144 3.11972 0
M  V30 4191 H 403.728 -1.62813 3.92902 0
M  V30 4192 N 402.043 -1.548 -0.295768 0
M  V30 4193 C 403.32 -1.65014 -1.05023 0
M  V30 4194 C 403.7 -0.501805 -2.05049 0
M  V30 4195 O 403.048 0.500869 -2.22943 0
M  V30 4196 C 403.258 -3.03252 -1.72741 0
M  V30 4197 C 404.606 -3.60242 -2.24746 0
M  V30 4198 O 405.63 -3.05737 -1.82765 0
M  V30 4199 O 404.489 -4.55687 -3.01681 0
M  V30 4200 H 401.583 -0.669314 -0.485744 0
M  V30 4201 H 404.129 -1.67144 -0.293438 0
M  V30 4202 H 402.901 -3.7827 -1.00138 0
M  V30 4203 H 402.524 -3.04922 -2.55163 0
M  V30 4204 N 403.521 0.559213 -1.47345 0
M  V30 4205 C 404.469 1.68747 -1.60085 0
M  V30 4206 C 405.463 1.628 -0.46825 0
M  V30 4207 O 406.669 1.68009 -0.645977 0
M  V30 4208 H 403.044 0.558329 -0.503759 0
M  V30 4209 H 405.015 1.55138 -2.54902 0
M  V30 4210 C 403.764 3.07103 -1.63042 0
M  V30 4211 H 403.087 3.12361 -2.49541 0
M  V30 4212 H 404.527 3.85743 -1.76006 0
M  V30 4213 C 402.986 3.34935 -0.363357 0
M  V30 4214 O 403.516 3.98102 0.536416 0
M  V30 4215 N 401.722 2.89574 -0.244 0
M  V30 4216 H 401.269 2.38348 -0.977133 0
M  V30 4217 H 401.227 3.08566 0.602836 0
M  V30 4218 N 404.999 1.35443 0.805782 0
M  V30 4219 C 406.247 1.28507 1.55982 0
M  V30 4220 C 406.568 -0.140046 1.94496 0
M  V30 4221 O 405.838 -1.07666 1.63661 0
M  V30 4222 H 404.418 0.472676 0.578434 0
M  V30 4223 H 407.08 1.69555 0.961098 0
M  V30 4224 H 406.176 1.90148 2.47488 0
M  V30 4225 N 406.477 -1.02803 1.19454 0
M  V30 4226 C 407.424 -2.11099 0.933046 0
M  V30 4227 C 408.394 -1.65571 -0.132447 0
M  V30 4228 O 409.579 -1.90797 0.00987576 0
M  V30 4229 C 406.719 -3.41763 0.478747 0
M  V30 4230 C 405.832 -4.00833 1.6111 0
M  V30 4231 C 404.967 -5.19511 1.10825 0
M  V30 4232 C 404.006 -5.70639 2.21445 0
M  V30 4233 N 403.143 -6.80589 1.72461 0
M  V30 4234 H 407.983 -2.32804 1.86028 0
M  V30 4235 H 405.52 -1.14179 0.927441 0
M  V30 4236 H 407.478 -4.16736 0.196745 0
M  V30 4237 H 406.108 -3.20166 -0.411493 0
M  V30 4238 H 405.16 -3.23066 2.00829 0
M  V30 4239 H 406.472 -4.34794 2.4445 0
M  V30 4240 H 405.626 -6.01645 0.781533 0
M  V30 4241 H 404.365 -4.87086 0.244606 0
M  V30 4242 H 403.37 -4.87116 2.54947 0
M  V30 4243 H 404.595 -6.05102 3.08267 0
M  V30 4244 H 402.541 -6.50016 0.884056 0
M  V30 4245 H 402.458 -7.13681 2.49389 0
M  V30 4246 H 403.726 -7.66317 1.42755 0
M  V30 4247 N 407.956 -0.998596 -1.21925 0
M  V30 4248 C 409.184 -0.696286 -1.94832 0
M  V30 4249 C 409.599 0.740032 -1.73692 0
M  V30 4250 O 408.956 1.5 -1.03953 0
M  V30 4251 C 409.007 -0.999833 -3.47398 0
M  V30 4252 O 408.728 -2.37972 -3.67833 0
M  V30 4253 C 410.229 -0.716025 -4.37479 0
M  V30 4254 H 407.449 -0.257111 -0.619786 0
M  V30 4255 H 409.993 -1.33491 -1.54921 0
M  V30 4256 H 408.148 -0.406918 -3.85257 0
M  V30 4257 H 408.562 -2.48338 -4.61983 0
M  V30 4258 H 410.036 -0.978642 -5.43256 0
M  V30 4259 H 410.513 0.349968 -4.37803 0
M  V30 4260 H 411.119 -1.29025 -4.05256 0
M  V30 4261 N 409.434 1.37368 -0.772513 0
M  V30 4262 C 410.68 1.99969 -0.337681 0
M  V30 4263 C 411.013 1.61184 1.08321 0
M  V30 4264 O 410.288 0.858395 1.74533 0
M  V30 4265 C 410.571 3.56858 -0.482121 0
M  V30 4266 C 410.424 4.0555 -1.94549 0
M  V30 4267 C 411.743 4.39955 0.113143 0
M  V30 4268 H 408.862 0.726464 -0.124171 0
M  V30 4269 H 411.504 1.63034 -0.975699 0
M  V30 4270 H 409.654 3.88452 0.0610361 0
M  V30 4271 H 411.326 3.84518 -2.54841 0
M  V30 4272 H 409.569 3.57715 -2.45403 0
M  V30 4273 H 410.24 5.14587 -1.9976 0
M  V30 4274 H 412.716 4.14623 -0.35031 0
M  V30 4275 H 411.592 5.48897 -0.0180514 0
M  V30 4276 H 411.853 4.25403 1.20354 0
M  V30 4277 N 410.912 0.523116 1.48665 0
M  V30 4278 C 412.189 -0.0775449 1.95446 0
M  V30 4279 C 412.569 -1.5197 1.4652 0
M  V30 4280 O 411.917 -2.17876 0.688657 0
M  V30 4281 C 412.127 0.0326135 3.48985 0
M  V30 4282 C 413.475 -0.130141 4.24401 0
M  V30 4283 O 414.499 -0.0415142 3.56176 0
M  V30 4284 O 413.358 -0.31491 5.45592 0
M  V30 4285 H 410.452 -0.0831012 0.822814 0
M  V30 4286 H 412.998 0.587227 1.59216 0
M  V30 4287 H 411.77 1.03748 3.77296 0
M  V30 4288 H 411.393 -0.671317 3.91892 0
M  V30 4289 N 412.39 -1.55475 0.257931 0
M  V30 4290 C 413.638 -1.98813 -0.363009 0
M  V30 4291 C 413.959 -1.14757 -1.57657 0
M  V30 4292 O 413.229 -0.232956 -1.9451 0
M  V30 4293 H 411.809 -0.734308 -0.137113 0
M  V30 4294 H 414.471 -1.9156 0.359281 0
M  V30 4295 H 413.567 -3.04941 -0.664634 0
M  V30 4296 N 413.868 0.0150385 -1.57593 0
M  V30 4297 C 415.279 0.559832 -1.78109 0
M  V30 4298 C 415.63 1.74814 -0.890756 0
M  V30 4299 O 414.755 2.16216 -0.0892482 0
M  V30 4300 C 415.35 1.02238 -3.23006 0
M  V30 4301 C 413.909 1.51258 -3.44671 0
M  V30 4302 C 413.056 0.456955 -2.73509 0
M  V30 4303 H 416.007 -0.211169 -1.57289 0
M  V30 4304 H 416.028 1.88912 -3.30292 0
M  V30 4305 H 415.54 0.157302 -3.87781 0
M  V30 4306 H 413.641 2.39905 -2.8509 0
M  V30 4307 H 413.754 1.55042 -4.5332 0
M  V30 4308 H 412.118 0.915196 -2.37689 0
M  V30 4309 H 412.901 -0.398896 -3.40975 0
M  V30 4310 N 415.346 1.54954 0.287554 0
M  V30 4311 C 416.762 1.46469 0.633964 0
M  V30 4312 C 416.962 0.666865 1.90145 0
M  V30 4313 O 416.018 0.179906 2.51858 0
M  V30 4314 C 417.331 2.90556 0.774454 0
M  V30 4315 C 418.879 3.00681 0.869462 0
M  V30 4316 C 419.354 4.45993 1.04184 0
M  V30 4317 N 420.845 4.4976 1.10772 0
M  V30 4318 C 421.58 5.59393 1.25964 0
M  V30 4319 N 421.076 6.78923 1.37968 0
M  V30 4320 N 422.869 5.47107 1.28959 0
M  V30 4321 H 415.02 2.05288 -0.545041 0
M  V30 4322 H 417.283 0.930305 -0.182308 0
M  V30 4323 H 416.989 3.51594 -0.086207 0
M  V30 4324 H 416.863 3.38743 1.6593 0
M  V30 4325 H 419.25 2.39749 1.7206 0
M  V30 4326 H 419.331 2.55769 -0.0396831 0
M  V30 4327 H 418.975 5.07524 0.195422 0
M  V30 4328 H 418.905 4.88548 1.96542 0
M  V30 4329 H 421.396 3.63651 1.02794 0
M  V30 4330 H 421.709 7.58231 1.49353 0
M  V30 4331 H 420.054 6.81763 1.34999 0
M  V30 4332 H 423.245 4.52668 1.19202 0
M  V30 4333 H 423.418 6.32595 1.40455 0
M  V30 4334 N 416.824 -0.551391 1.4764 0
M  V30 4335 C 417.734 -1.68525 1.63207 0
M  V30 4336 C 418.75 -1.6621 0.514815 0
M  V30 4337 O 419.926 -1.85551 0.783113 0
M  V30 4338 C 416.991 -3.05025 1.64805 0
M  V30 4339 C 416.052 -3.18362 2.88 0
M  V30 4340 C 415.285 -4.4835 2.89513 0
M  V30 4341 O 415.508 -5.34163 2.00065 0
M  V30 4342 O 414.442 -4.65602 3.81443 0
M  V30 4343 H 418.268 -1.58333 2.59161 0
M  V30 4344 H 415.853 -0.722063 1.30792 0
M  V30 4345 H 417.735 -3.86245 1.68502 0
M  V30 4346 H 416.41 -3.15587 0.720197 0
M  V30 4347 H 415.317 -2.36518 2.89845 0
M  V30 4348 H 416.65 -3.12707 3.80099 0
M  V30 4349 N 418.302 -1.35869 -0.798587 0
M  V30 4350 C 419.232 -1.32118 -1.92528 0
M  V30 4351 C 420.213 -0.194209 -1.68988 0
M  V30 4352 O 421.398 -0.390426 -1.90235 0
M  V30 4353 C 418.528 -1.10047 -3.29404 0
M  V30 4354 C 417.482 -2.19471 -3.67446 0
M  V30 4355 C 416.808 -1.82555 -5.02571 0
M  V30 4356 C 418.108 -3.61495 -3.76987 0
M  V30 4357 H 419.802 -2.26394 -1.95924 0
M  V30 4358 H 417.348 -1.08981 -0.94123 0
M  V30 4359 H 419.301 -1.06061 -4.07835 0
M  V30 4360 H 418.025 -0.122195 -3.26371 0
M  V30 4361 H 416.684 -2.22568 -2.91306 0
M  V30 4362 H 416.332 -0.833249 -4.9605 0
M  V30 4363 H 416.032 -2.5581 -5.28995 0
M  V30 4364 H 417.556 -1.80108 -5.83432 0
M  V30 4365 H 418.97 -3.60676 -4.4563 0
M  V30 4366 H 417.367 -4.33577 -4.14887 0
M  V30 4367 H 418.437 -3.97065 -2.78329 0
M  V30 4368 N 419.78 1.02168 -1.19998 0
M  V30 4369 C 421.008 1.79296 -1.03249 0
M  V30 4370 C 421.423 1.84103 0.418502 0
M  V30 4371 O 420.78 1.29031 1.29063 0
M  V30 4372 C 420.831 3.24007 -1.60319 0
M  V30 4373 O 420.552 3.19512 -2.99739 0
M  V30 4374 C 422.053 4.17704 -1.48453 0
M  V30 4375 H 419.273 0.564016 -0.363493 0
M  V30 4376 H 421.817 1.28639 -1.58973 0
M  V30 4377 H 419.972 3.7183 -1.08727 0
M  V30 4378 H 420.386 4.10306 -3.26725 0
M  V30 4379 H 421.86 5.17104 -1.93153 0
M  V30 4380 H 422.337 4.37029 -0.436193 0
M  V30 4381 H 422.943 3.7576 -1.99211 0
M  V30 4382 N 421.258 1.00505 1.21394 0
M  V30 4383 C 422.188 0.585684 2.26035 0
M  V30 4384 C 423.169 -0.393525 1.65485 0
M  V30 4385 O 424.354 -0.281497 1.92149 0
M  V30 4386 C 421.484 -0.0884283 3.47187 0
M  V30 4387 C 420.438 0.810567 4.20254 0
M  V30 4388 C 419.764 0.00286382 5.347 0
M  V30 4389 C 421.064 2.1132 4.77641 0
M  V30 4390 H 422.758 1.46039 2.61368 0
M  V30 4391 H 420.304 0.703648 1.25638 0
M  V30 4392 H 422.257 -0.393286 4.19561 0
M  V30 4393 H 420.981 -0.997766 3.10986 0
M  V30 4394 H 419.64 1.09925 3.49731 0
M  V30 4395 H 419.288 -0.907765 4.94741 0
M  V30 4396 H 418.988 0.601444 5.84514 0
M  V30 4397 H 420.512 -0.295808 6.09883 0
M  V30 4398 H 421.926 1.87148 5.41893 0
M  V30 4399 H 420.323 2.66164 5.37845 0
M  V30 4400 H 421.393 2.78393 3.9702 0
M  V30 4401 N 422.737 -1.36956 0.779787 0
M  V30 4402 C 423.669 -2.28833 0.129639 0
M  V30 4403 C 424.682 -1.4902 -0.655511 0
M  V30 4404 O 425.871 -1.71578 -0.492279 0
M  V30 4405 C 422.971 -3.2833 -0.839792 0
M  V30 4406 C 422.144 -4.3727 -0.10675 0
M  V30 4407 C 421.203 -5.16789 -0.990717 0
M  V30 4408 O 420.229 -5.67406 -0.451516 0
M  V30 4409 N 421.431 -5.32294 -2.3161 0
M  V30 4410 H 424.196 -2.85268 0.918803 0
M  V30 4411 H 421.757 -1.49019 0.632841 0
M  V30 4412 H 423.749 -3.78413 -1.43477 0
M  V30 4413 H 422.319 -2.72605 -1.52988 0
M  V30 4414 H 421.539 -3.88478 0.669216 0
M  V30 4415 H 422.827 -5.07229 0.399464 0
M  V30 4416 H 422.225 -4.92768 -2.77843 0
M  V30 4417 H 420.782 -5.85656 -2.86095 0
M  V30 4418 N 424.215 -0.530993 -1.48385 0
M  V30 4419 C 425.178 0.220497 -2.28137 0
M  V30 4420 C 426.178 0.866851 -1.35434 0
M  V30 4421 O 427.368 0.726746 -1.58316 0
M  V30 4422 C 424.5 1.31921 -3.1434 0
M  V30 4423 H 425.693 -0.479714 -2.96038 0
M  V30 4424 H 423.246 -0.286968 -1.53643 0
M  V30 4425 H 423.981 2.05264 -2.51072 0
M  V30 4426 H 423.766 0.86085 -3.82533 0
M  V30 4427 H 425.256 1.84776 -3.74497 0
M  V30 4428 N 425.693 1.55336 -0.266172 0
M  V30 4429 C 426.626 2.18256 0.666296 0
M  V30 4430 C 427.604 1.14064 1.1588 0
M  V30 4431 O 428.788 1.42546 1.23341 0
M  V30 4432 C 425.915 2.79867 1.90768 0
M  V30 4433 C 424.961 3.97283 1.55141 0
M  V30 4434 S 425.794 5.31694 0.637313 0
M  V30 4435 C 426.95 5.96769 1.88727 0
M  V30 4436 H 427.183 2.97008 0.131647 0
M  V30 4437 H 424.716 1.54317 -0.0504869 0
M  V30 4438 H 426.674 3.15996 2.62025 0
M  V30 4439 H 425.335 2.01025 2.41346 0
M  V30 4440 H 424.528 4.3905 2.4749 0
M  V30 4441 H 424.13 3.6253 0.919113 0
M  V30 4442 H 426.422 6.15458 2.83227 0
M  V30 4443 H 427.365 6.91752 1.51276 0
M  V30 4444 H 427.773 5.26034 2.04814 0
M  V30 4445 N 427.171 -0.0066808 1.57599 0
M  V30 4446 C 428.134 -0.985035 2.06953 0
M  V30 4447 C 429.134 -1.27663 0.977687 0
M  V30 4448 O 430.324 -1.22293 1.24057 0
M  V30 4449 C 427.456 -2.3118 2.50536 0
M  V30 4450 H 428.649 -0.558255 2.94658 0
M  V30 4451 H 426.202 -0.254011 1.54222 0
M  V30 4452 H 426.937 -2.78561 1.66054 0
M  V30 4453 H 426.722 -2.11338 3.3027 0
M  V30 4454 H 428.212 -3.01377 2.8907 0
M  V30 4455 N 428.649 -1.55105 -0.279332 0
M  V30 4456 C 429.926 -1.66119 -1.03267 0
M  V30 4457 C 430.306 -0.523525 -2.04505 0
M  V30 4458 O 429.654 0.477194 -2.23462 0
M  V30 4459 C 429.864 -3.05067 -1.69515 0
M  V30 4460 C 431.212 -3.62606 -2.20912 0
M  V30 4461 O 432.236 -3.07659 -1.79512 0
M  V30 4462 O 431.095 -4.58861 -2.96831 0
M  V30 4463 H 428.189 -0.674429 -0.478618 0
M  V30 4464 H 430.735 -1.67446 -0.275694 0
M  V30 4465 H 429.507 -3.79311 -0.9612 0
M  V30 4466 H 429.13 -3.07611 -2.51915 0
M  V30 4467 N 430.127 0.543554 -1.4793 0
M  V30 4468 C 431.375 1.29752 -1.54948 0
M  V30 4469 C 431.696 1.93764 -0.219242 0
M  V30 4470 O 430.966 1.80639 0.75805 0
M  V30 4471 H 429.546 0.481874 -0.570795 0
M  V30 4472 H 432.208 0.633636 -1.84312 0
M  V30 4473 H 431.304 2.08392 -2.32334 0
M  V30 4474 N 431.605 1.3629 0.791371 0
M  V30 4475 C 432.851 1.30605 1.55146 0
M  V30 4476 C 433.184 -0.115042 1.93859 0
M  V30 4477 O 432.459 -1.06798 1.62556 0
M  V30 4478 C 432.742 2.22692 2.82985 0
M  V30 4479 C 432.595 3.73489 2.50651 0
M  V30 4480 C 433.914 2.13588 3.84796 0
M  V30 4481 H 431.033 0.475761 0.562868 0
M  V30 4482 H 433.675 1.66825 0.909358 0
M  V30 4483 H 431.825 1.91933 3.37778 0
M  V30 4484 H 433.497 4.14758 2.01924 0
M  V30 4485 H 431.74 3.93021 1.83622 0
M  V30 4486 H 432.411 4.3333 3.41949 0
M  V30 4487 H 434.887 2.40659 3.39445 0
M  V30 4488 H 433.763 2.80195 4.71998 0
M  V30 4489 H 434.024 1.12256 4.27611 0
M  V30 4490 N 433.083 -1.0153 1.20538 0
M  V30 4491 C 434.031 -2.12215 0.952235 0
M  V30 4492 C 435.025 -1.69123 -0.0968735 0
M  V30 4493 O 436.231 -1.7992 0.0536006 0
M  V30 4494 H 432.606 -0.693576 0.290613 0
M  V30 4495 H 434.577 -2.3075 1.89201 0
M  V30 4496 C 433.326 -3.43755 0.522287 0
M  V30 4497 H 432.649 -3.7734 1.32115 0
M  V30 4498 H 434.089 -4.22254 0.384389 0
M  V30 4499 C 432.548 -3.28088 -0.765489 0
M  V30 4500 O 433.078 -3.57921 -1.8236 0
M  V30 4501 N 431.284 -2.81333 -0.728011 0
M  V30 4502 H 430.831 -2.57255 0.133332 0
M  V30 4503 H 430.789 -2.71232 -1.58999 0
M  V30 4504 N 434.561 -1.01147 -1.20859 0
M  V30 4505 C 435.508 -0.577354 -2.23462 0
M  V30 4506 C 436.478 0.399922 -1.61214 0
M  V30 4507 O 437.663 0.300515 -1.88419 0
M  V30 4508 C 434.803 0.083372 -3.44999 0
M  V30 4509 C 433.916 -0.937856 -4.21697 0
M  V30 4510 C 433.051 -0.248717 -5.30617 0
M  V30 4511 C 432.09 -1.25705 -5.99053 0
M  V30 4512 N 431.227 -0.594939 -6.99575 0
M  V30 4513 H 436.067 -1.45695 -2.59956 0
M  V30 4514 H 433.604 -0.729428 -1.27741 0
M  V30 4515 H 435.562 0.483535 -4.14388 0
M  V30 4516 H 434.192 0.926645 -3.09214 0
M  V30 4517 H 433.244 -1.45622 -3.51423 0
M  V30 4518 H 434.556 -1.70493 -4.68757 0
M  V30 4519 H 433.71 0.207215 -6.06346 0
M  V30 4520 H 432.449 0.55071 -4.84581 0
M  V30 4521 H 431.454 -1.72343 -5.2209 0
M  V30 4522 H 432.679 -2.05767 -6.47176 0
M  V30 4523 H 430.625 0.184713 -6.5574 0
M  V30 4524 H 430.542 -1.30017 -7.44736 0
M  V30 4525 H 431.81 -0.162427 -7.79331 0
M  V30 4526 N 436.039 1.36541 -0.78704 0
M  V30 4527 C 437.287 1.98911 -0.357633 0
M  V30 4528 C 437.608 1.62778 1.07371 0
M  V30 4529 O 436.878 0.900612 1.73971 0
M  V30 4530 H 435.458 0.735734 -0.129246 0
M  V30 4531 H 438.12 1.66776 -1.00855 0
M  V30 4532 H 437.216 3.08874 -0.447549 0
M  V30 4533 N 437.518 0.538854 1.48102 0
M  V30 4534 C 438.934 0.19732 1.58376 0
M  V30 4535 C 439.134 -1.29971 1.5398 0
M  V30 4536 O 438.19 -2.07861 1.43352 0
M  V30 4537 C 439.503 0.807716 2.89649 0
M  V30 4538 C 441.051 0.77726 3.03196 0
M  V30 4539 C 441.526 1.36639 4.37143 0
M  V30 4540 N 443.017 1.32875 4.43732 0
M  V30 4541 C 443.752 1.7544 5.45901 0
M  V30 4542 N 443.248 2.25776 6.54979 0
M  V30 4543 N 445.041 1.66623 5.36836 0
M  V30 4544 H 437.192 1.5117 1.49202 0
M  V30 4545 H 439.455 0.629327 0.708979 0
M  V30 4546 H 439.161 1.85909 2.98548 0
M  V30 4547 H 439.035 0.289975 3.76084 0
M  V30 4548 H 441.422 -0.265374 2.93904 0
M  V30 4549 H 441.503 1.33256 2.18349 0
M  V30 4550 H 441.147 2.408 4.47189 0
M  V30 4551 H 441.077 0.786689 5.20691 0
M  V30 4552 H 443.568 0.96037 3.65493 0
M  V30 4553 H 443.881 2.56226 7.29087 0
M  V30 4554 H 442.226 2.29775 6.55918 0
M  V30 4555 H 445.417 1.27089 4.50517 0
M  V30 4556 H 445.59 2.00115 6.16326 0
M  V30 4557 N 438.996 -1.55193 0.274407 0
M  V30 4558 C 440.244 -1.99187 -0.341902 0
M  V30 4559 C 440.565 -1.16422 -1.56431 0
M  V30 4560 O 439.835 -0.253573 -1.94252 0
M  V30 4561 H 438.415 -0.735721 -0.129317 0
M  V30 4562 H 441.077 -1.91168 0.379578 0
M  V30 4563 H 440.173 -3.05629 -0.632253 0
M  V30 4564 N 440.474 -0.00167713 -1.576 0
M  V30 4565 C 441.722 0.681471 -1.90264 0
M  V30 4566 C 442.043 1.7422 -0.875924 0
M  V30 4567 O 441.313 1.95709 0.0864412 0
M  V30 4568 H 439.893 0.254696 -0.702239 0
M  V30 4569 H 442.555 -0.0429996 -1.94853 0
M  V30 4570 H 441.651 1.15166 -2.90075 0
M  V30 4571 N 441.952 1.55251 0.271103 0
M  V30 4572 C 442.899 1.88261 1.33516 0
M  V30 4573 C 443.869 0.734296 1.48988 0
M  V30 4574 O 445.054 0.985741 1.63364 0
M  V30 4575 C 442.194 2.16168 2.69008 0
M  V30 4576 C 441.307 3.43678 2.61743 0
M  V30 4577 C 440.442 3.61276 3.89427 0
M  V30 4578 C 439.481 4.82472 3.7668 0
M  V30 4579 N 438.618 4.96717 4.96202 0
M  V30 4580 H 443.458 2.79015 1.04665 0
M  V30 4581 H 440.995 1.38137 0.505618 0
M  V30 4582 H 442.953 2.30349 3.47844 0
M  V30 4583 H 441.583 1.28646 2.96057 0
M  V30 4584 H 440.635 3.37959 1.74607 0
M  V30 4585 H 441.947 4.3265 2.48224 0
M  V30 4586 H 441.101 3.75284 4.76704 0
M  V30 4587 H 439.84 2.70492 4.05814 0
M  V30 4588 H 438.845 4.68465 2.87786 0
M  V30 4589 H 440.07 5.74692 3.61809 0
M  V30 4590 H 438.016 4.08865 5.12997 0
M  V30 4591 H 437.933 5.79738 4.85222 0
M  V30 4592 H 439.201 5.15113 5.85046 0
M  V30 4593 N 443.43 -0.535701 1.48216 0
M  V30 4594 C 444.678 -1.28928 1.55634 0
M  V30 4595 C 444.999 -1.93645 0.229514 0
M  V30 4596 O 444.269 -1.81038 -0.74846 0
M  V30 4597 H 442.849 -0.47884 0.573342 0
M  V30 4598 H 445.511 -0.623853 1.84646 0
M  V30 4599 H 444.607 -2.07157 2.33436 0
M  V30 4600 N 444.908 -1.36708 -0.784132 0
M  V30 4601 C 446.133 -1.34565 -1.5782 0
M  V30 4602 C 446.558 0.0695257 -1.87971 0
M  V30 4603 O 445.916 1.04302 -1.48293 0
M  V30 4604 C 445.964 -2.17952 -2.87279 0
M  V30 4605 O 445.068 -1.57563 -3.81114 0
M  V30 4606 H 444.409 -0.460337 -0.478524 0
M  V30 4607 H 446.939 -1.80064 -0.971495 0
M  V30 4608 H 446.949 -2.30721 -3.365 0
M  V30 4609 H 445.624 -3.20823 -2.64661 0
M  V30 4610 H 444.201 -1.53764 -3.39722 0
M  V30 4611 N 446.386 1.0089 -1.21074 0
M  V30 4612 C 447.635 1.74019 -1.01981 0
M  V30 4613 C 447.948 1.90408 0.447665 0
M  V30 4614 O 449.154 2.60707 0.757906 0
M  V30 4615 C 447.61 3.13026 -1.77603 0
M  V30 4616 C 447.218 3.04623 -3.28495 0
M  V30 4617 C 448.962 3.90312 -1.66904 0
M  V30 4618 C 446.869 4.38685 -3.96623 0
M  V30 4619 H 445.799 0.652422 -0.377971 0
M  V30 4620 H 448.45 1.12755 -1.44771 0
M  V30 4621 H 446.832 3.74878 -1.27604 0
M  V30 4622 H 448.006 2.52032 -3.85767 0
M  V30 4623 H 446.321 2.40827 -3.39693 0
M  V30 4624 H 448.918 4.8951 -2.15138 0
M  V30 4625 H 449.261 4.11558 -0.62658 0
M  V30 4626 H 449.794 3.35104 -2.14359 0
M  V30 4627 H 446.533 4.22641 -5.01054 0
M  V30 4628 H 446.053 4.91252 -3.4414 0
M  V30 4629 H 447.732 5.075 -4.01314 0
M  V30 4630 N 447.864 1.01787 1.20321 0
M  V30 4631 C 449.094 0.72614 1.93419 0
M  V30 4632 C 449.502 -0.717317 1.75075 0
M  V30 4633 O 448.845 -1.49836 1.06278 0
M  V30 4634 C 448.907 0.983621 3.45782 0
M  V30 4635 C 448.571 2.41645 3.87888 0
M  V30 4636 C 449.568 3.39732 3.93545 0
M  V30 4637 C 447.253 2.75752 4.19841 0
M  V30 4638 C 449.247 4.69988 4.30569 0
M  V30 4639 C 446.934 4.06221 4.56539 0
M  V30 4640 C 447.932 5.0315 4.61876 0
M  V30 4641 O 447.62 6.31284 4.97731 0
M  V30 4642 H 447.352 0.265824 0.621541 0
M  V30 4643 H 449.906 1.3623 1.53722 0
M  V30 4644 H 448.136 0.290301 3.85609 0
M  V30 4645 H 449.825 0.683279 4.00108 0
M  V30 4646 H 450.591 3.14718 3.69022 0
M  V30 4647 H 446.47 2.00993 4.14877 0
M  V30 4648 H 450.014 5.45642 4.3465 0
M  V30 4649 H 445.911 4.31013 4.80518 0
M  V30 4650 H 446.679 6.35591 5.15719 0
M  V30 4651 N 449.342 -1.36122 0.79427 0
M  V30 4652 C 450.588 -1.99406 0.369452 0
M  V30 4653 C 450.921 -1.62886 -1.05743 0
M  V30 4654 O 450.196 -0.886053 -1.73145 0
M  V30 4655 C 450.479 -3.56046 0.538833 0
M  V30 4656 C 450.332 -4.02404 2.00976 0
M  V30 4657 C 451.651 -4.40079 -0.0431359 0
M  V30 4658 H 448.77 -0.724397 0.135712 0
M  V30 4659 H 451.412 -1.61461 1.00151 0
M  V30 4660 H 449.562 -3.885 0.000771004 0
M  V30 4661 H 451.234 -3.80415 2.60926 0
M  V30 4662 H 449.477 -3.53765 2.51063 0
M  V30 4663 H 450.148 -5.11344 2.07922 0
M  V30 4664 H 452.624 -4.14013 0.416228 0
M  V30 4665 H 451.5 -5.48799 0.105374 0
M  V30 4666 H 451.761 -4.27264 -1.13571 0
M  V30 4667 N 450.82 -0.546701 -1.47814 0
M  V30 4668 C 452.066 -0.0269594 -2.03382 0
M  V30 4669 C 452.421 1.30406 -1.41464 0
M  V30 4670 O 451.714 1.8332 -0.557151 0
M  V30 4671 C 451.908 0.134869 -3.57145 0
M  V30 4672 C 451.737 -1.17891 -4.33972 0
M  V30 4673 C 450.507 -1.74336 -4.74273 0
M  V30 4674 C 452.705 -2.09361 -4.69758 0
M  V30 4675 N 450.687 -2.99829 -5.35701 0
M  V30 4676 C 452.058 -3.19431 -5.31379 0
M  V30 4677 C 454.113 -2.09484 -4.51687 0
M  V30 4678 C 452.816 -4.2971 -5.76838 0
M  V30 4679 C 454.842 -3.18767 -4.98138 0
M  V30 4680 C 454.204 -4.27557 -5.59799 0
M  V30 4681 H 450.303 -0.0517733 -0.780284 0
M  V30 4682 H 452.887 -0.731673 -1.80429 0
M  V30 4683 H 451.058 0.80869 -3.79888 0
M  V30 4684 H 452.79 0.655726 -3.99352 0
M  V30 4685 H 449.545 -1.28265 -4.559 0
M  V30 4686 H 449.969 -3.63765 -5.70968 0
M  V30 4687 H 454.611 -1.26663 -4.03381 0
M  V30 4688 H 452.329 -5.13297 -6.24141 0
M  V30 4689 H 455.915 -3.19937 -4.85934 0
M  V30 4690 H 454.795 -5.10725 -5.95088 0
M  V30 4691 N 452.299 1.55045 -0.282633 0
M  V30 4692 C 453.262 2.21515 0.588539 0
M  V30 4693 C 454.262 1.19535 1.07554 0
M  V30 4694 O 455.452 1.44391 0.974514 0
M  V30 4695 C 452.584 2.88704 1.8128 0
M  V30 4696 H 453.777 2.99899 0.00806397 0
M  V30 4697 H 451.33 1.56265 -0.0333067 0
M  V30 4698 H 452.065 2.14352 2.43359 0
M  V30 4699 H 451.85 3.63443 1.47144 0
M  V30 4700 H 453.34 3.39465 2.43214 0
M  V30 4701 N 453.777 0.010035 1.57597 0
M  V30 4702 C 455.002 -0.687021 1.95691 0
M  V30 4703 C 455.427 -1.65952 0.885519 0
M  V30 4704 O 454.785 -1.80633 -0.15543 0
M  V30 4705 C 454.833 -1.3864 3.32884 0
M  V30 4706 O 453.937 -2.50115 3.27897 0
M  V30 4707 H 453.278 -0.181989 0.638573 0
M  V30 4708 H 455.808 0.0662122 2.04493 0
M  V30 4709 H 455.818 -1.74754 3.6868 0
M  V30 4710 H 454.493 -0.673411 4.10412 0
M  V30 4711 H 453.07 -2.16253 3.03791 0
M  V30 4712 N 455.255 -1.55392 -0.262866 0
M  V30 4713 C 456.503 -1.76127 -0.991147 0
M  V30 4714 C 456.824 -0.571083 -1.8645 0
M  V30 4715 O 456.094 0.413698 -1.91482 0
M  V30 4716 H 454.674 -0.649528 -0.368948 0
M  V30 4717 H 457.336 -1.9281 -0.284655 0
M  V30 4718 H 456.432 -2.6663 -1.62219 0
M  V30 4719 N 456.733 0.527833 -1.48498 0
M  V30 4720 C 458.01 1.28905 -1.47115 0
M  V30 4721 C 458.39 2.10297 -0.184007 0
M  V30 4722 O 457.738 2.12728 0.834218 0
M  V30 4723 C 457.948 2.16866 -2.73441 0
M  V30 4724 C 459.296 2.76936 -3.21857 0
M  V30 4725 O 460.32 2.27152 -2.74373 0
M  V30 4726 O 459.179 3.67496 -4.04486 0
M  V30 4727 H 456.273 0.581918 -0.587623 0
M  V30 4728 H 458.819 0.544311 -1.60734 0
M  V30 4729 H 457.591 1.56521 -3.58632 0
M  V30 4730 H 457.214 2.98583 -2.62553 0
M  V30 4731 N 458.211 1.37122 0.776871 0
M  V30 4732 C 459.459 1.31787 1.53221 0
M  V30 4733 C 459.78 -0.0987589 1.9475 0
M  V30 4734 O 459.05 -1.0417 1.65908 0
M  V30 4735 H 457.63 0.484839 0.568278 0
M  V30 4736 H 460.292 1.71556 0.924917 0
M  V30 4737 H 459.388 1.95355 2.43398 0
M  V30 4738 N 459.689 -1.00246 1.21608 0
M  V30 4739 C 460.937 -1.73717 1.0328 0
M  V30 4740 C 461.258 -1.90102 -0.434318 0
M  V30 4741 O 460.528 -1.45376 -1.31311 0
M  V30 4742 H 459.108 -0.643613 0.379172 0
M  V30 4743 H 461.77 -1.20787 1.52959 0
M  V30 4744 H 460.866 -2.73535 1.50283 0
M  V30 4745 N 461.167 -1.02423 -1.1978 0
M  V30 4746 C 462.392 -0.7373 -1.93852 0
M  V30 4747 C 462.817 0.696923 -1.74713 0
M  V30 4748 O 462.175 1.48056 -1.04638 0
M  V30 4749 C 462.223 -1.08783 -3.438 0
M  V30 4750 O 461.327 -0.20383 -4.11896 0
M  V30 4751 H 460.668 -0.27284 -0.605355 0
M  V30 4752 H 463.198 -1.36966 -1.51992 0
M  V30 4753 H 463.208 -1.04276 -3.9445 0
M  V30 4754 H 461.883 -2.13274 -3.57053 0
M  V30 4755 H 460.46 -0.307091 -3.71633 0
M  V30 4756 N 462.645 1.35699 -0.801477 0
M  V30 4757 C 463.875 2.02862 -0.3912 0
M  V30 4758 C 464.283 1.60552 1.00099 0
M  V30 4759 O 463.626 0.796215 1.65548 0
M  V30 4760 C 463.688 3.57386 -0.389299 0
M  V30 4761 C 463.352 4.22943 -1.73113 0
M  V30 4762 C 464.349 4.44984 -2.68859 0
M  V30 4763 C 462.034 4.60167 -2.01373 0
M  V30 4764 C 464.028 5.03345 -3.91053 0
M  V30 4765 C 461.715 5.18243 -3.23832 0
M  V30 4766 C 462.713 5.39773 -4.1849 0
M  V30 4767 O 462.401 5.96626 -5.38788 0
M  V30 4768 H 462.133 0.657341 -0.157732 0
M  V30 4769 H 464.687 1.74407 -1.08496 0
M  V30 4770 H 462.917 3.85011 0.361031 0
M  V30 4771 H 464.606 4.059 -0.0020365 0
M  V30 4772 H 465.372 4.1661 -2.48316 0
M  V30 4773 H 461.251 4.42726 -1.28508 0
M  V30 4774 H 464.795 5.20065 -4.64949 0
M  V30 4775 H 460.692 5.46044 -3.44248 0
M  V30 4776 H 461.46 6.15082 -5.40015 0
M  V30 4777 N 464.123 0.554532 1.47522 0
M  V30 4778 C 465.4 -0.0360704 1.95567 0
M  V30 4779 C 465.78 -1.48828 1.49711 0
M  V30 4780 O 465.128 -2.16366 0.734717 0
M  V30 4781 C 465.338 0.106631 3.48837 0
M  V30 4782 C 466.686 -0.0400899 4.24581 0
M  V30 4783 O 467.71 0.0340453 3.56184 0
M  V30 4784 O 466.569 -0.199111 5.46137 0
M  V30 4785 H 463.663 -0.0656294 0.824392 0
M  V30 4786 H 466.209 0.620867 1.57935 0
M  V30 4787 H 464.981 1.11727 3.7501 0
M  V30 4788 H 464.604 -0.58804 3.93227 0
M  V30 4789 N 465.601 -1.54893 0.290851 0
M  V30 4790 C 466.878 -1.91991 -0.373989 0
M  V30 4791 C 467.258 -1.21694 -1.72493 0
M  V30 4792 O 466.606 -0.34917 -2.25816 0
M  V30 4793 C 466.816 -3.45419 -0.498703 0
M  V30 4794 C 468.164 -4.1748 -0.774298 0
M  V30 4795 O 469.188 -3.51398 -0.582908 0
M  V30 4796 O 468.047 -5.3445 -1.14129 0
M  V30 4797 H 465.141 -0.800593 -0.207315 0
M  V30 4798 H 467.687 -1.66297 0.338164 0
M  V30 4799 H 466.459 -3.88688 0.451392 0
M  V30 4800 H 466.082 -3.77117 -1.25972 0
M  V30 4801 N 467.08 -0.0183926 -1.57589 0
M  V30 4802 C 468.32 0.666846 -1.93216 0
M  V30 4803 C 468.684 1.69905 -0.894215 0
M  V30 4804 O 469.885 2.436 -1.13633 0
M  V30 4805 C 468.156 1.27684 -3.33814 0
M  V30 4806 S 469.715 1.98464 -3.91353 0
M  V30 4807 H 466.533 0.219826 -0.676164 0
M  V30 4808 H 469.135 -0.0794893 -1.95338 0
M  V30 4809 H 467.839 0.513006 -4.07181 0
M  V30 4810 H 467.37 2.06071 -3.3511 0
M  V30 4811 H 469.385 3.26189 -3.73918 0
M  V30 4812 N 468.558 1.5553 0.254621 0
M  V30 4813 C 469.506 1.9048 1.33492 0
M  V30 4814 C 470.5 0.78304 1.50216 0
M  V30 4815 O 471.706 0.967582 1.51782 0
M  V30 4816 H 468.081 0.604846 0.44684 0
M  V30 4817 H 470.052 2.80688 1.01275 0
M  V30 4818 C 468.801 2.20928 2.68489 0
M  V30 4819 H 468.124 3.06742 2.56417 0
M  V30 4820 H 469.564 2.49291 3.42972 0
M  V30 4821 C 468.023 1.023 3.20993 0
M  V30 4822 O 468.553 0.267027 4.00811 0
M  V30 4823 N 466.759 0.815714 2.78917 0
M  V30 4824 H 466.306 1.43217 2.14119 0
M  V30 4825 H 466.264 0.0236532 3.14391 0
M  V30 4826 N 470.036 -0.519951 1.48776 0
M  V30 4827 C 471.276 -1.2856 1.58908 0
M  V30 4828 C 471.64 -1.90212 0.261418 0
M  V30 4829 O 472.841 -2.67746 0.237791 0
M  V30 4830 C 471.112 -2.33836 2.70288 0
M  V30 4831 S 472.671 -3.19992 3.0025 0
M  V30 4832 H 469.489 -0.43717 0.560717 0
M  V30 4833 H 472.091 -0.591205 1.86346 0
M  V30 4834 H 470.795 -1.87041 3.653 0
M  V30 4835 H 470.326 -3.07969 2.44783 0
M  V30 4836 H 472.341 -4.34122 2.40317 0
M  V30 4837 N 471.514 -1.37532 -0.769588 0
M  V30 4838 C 472.791 -1.23392 -1.51768 0
M  V30 4839 C 473.171 0.17157 -2.10402 0
M  V30 4840 O 472.519 1.17943 -1.95708 0
M  V30 4841 C 472.729 -2.33163 -2.59685 0
M  V30 4842 C 474.077 -2.70809 -3.27028 0
M  V30 4843 O 475.101 -2.32355 -2.69981 0
M  V30 4844 O 473.96 -3.37066 -4.30173 0
M  V30 4845 H 471.054 -0.481617 -0.67229 0
M  V30 4846 H 473.6 -1.49318 -0.806368 0
M  V30 4847 H 472.372 -3.27273 -2.14494 0
M  V30 4848 H 471.995 -2.08713 -3.38415 0
M  V30 4849 N 472.992 0.995999 -1.22138 0
M  V30 4850 C 474.24 1.73167 -1.042 0
M  V30 4851 C 474.561 1.90329 0.42423 0
M  V30 4852 O 473.831 1.4607 1.30539 0
M  V30 4853 H 472.411 0.641593 -0.38258 0
M  V30 4854 H 475.073 1.19974 -1.53598 0
M  V30 4855 H 474.169 2.72734 -1.51731 0
M  V30 4856 N 474.47 1.03057 1.19235 0
M  V30 4857 C 475.7 0.746613 1.92638 0
M  V30 4858 C 476.108 -0.698708 1.75826 0
M  V30 4859 O 475.451 -1.487 1.07861 0
M  V30 4860 C 475.513 1.02024 3.44719 0
M  V30 4861 C 475.177 2.45745 3.85303 0
M  V30 4862 C 476.174 3.43887 3.8992 0
M  V30 4863 C 473.859 2.8019 4.16892 0
M  V30 4864 C 475.853 4.74529 4.2556 0
M  V30 4865 C 473.54 4.1104 4.52205 0
M  V30 4866 C 474.538 5.0802 4.56513 0
M  V30 4867 O 474.226 6.36527 4.91008 0
M  V30 4868 H 473.958 0.272401 0.618687 0
M  V30 4869 H 476.512 1.37853 1.52269 0
M  V30 4870 H 474.742 0.331184 3.85279 0
M  V30 4871 H 476.431 0.725677 3.9936 0
M  V30 4872 H 477.197 3.18614 3.65664 0
M  V30 4873 H 473.076 2.05382 4.12722 0
M  V30 4874 H 476.62 5.50222 4.28838 0
M  V30 4875 H 472.517 4.36086 4.7592 0
M  V30 4876 H 473.285 6.41025 5.08949 0
M  V30 4877 N 475.948 -1.35272 0.808662 0
M  V30 4878 C 476.911 -2.28082 0.226093 0
M  V30 4879 C 477.911 -1.49673 -0.587762 0
M  V30 4880 O 479.101 -1.69404 -0.405943 0
M  V30 4881 C 476.233 -3.33955 -0.684596 0
M  V30 4882 H 477.426 -2.81116 1.04469 0
M  V30 4883 H 474.979 -1.45162 0.579466 0
M  V30 4884 H 475.714 -2.86111 -1.5268 0
M  V30 4885 H 475.499 -3.91965 -0.102699 0
M  V30 4886 H 476.989 -4.03219 -1.08646 0
M  V30 4887 N 477.426 -0.562348 -1.47226 0
M  V30 4888 C 478.651 -0.0432632 -2.07355 0
M  V30 4889 C 479.076 1.24332 -1.41149 0
M  V30 4890 O 478.434 1.74603 -0.488226 0
M  V30 4891 C 478.482 0.130288 -3.60365 0
M  V30 4892 O 477.586 1.19166 -3.94808 0
M  V30 4893 H 476.927 -0.0536334 -0.66183 0
M  V30 4894 H 479.457 -0.779495 -1.89169 0
M  V30 4895 H 479.467 0.342881 -4.06557 0
M  V30 4896 H 478.142 -0.809389 -4.07948 0
M  V30 4897 H 476.719 0.959153 -3.60354 0
M  V30 4898 N 478.904 1.54736 -0.299062 0
M  V30 4899 C 480.129 2.04975 0.316254 0
M  V30 4900 C 480.554 1.17501 1.46885 0
M  V30 4901 O 479.912 0.178678 1.80417 0
M  V30 4902 C 479.96 3.52672 0.751997 0
M  V30 4903 O 479.064 3.68226 1.85697 0
M  V30 4904 H 478.405 0.661126 0.0617175 0
M  V30 4905 H 480.935 1.99805 -0.440341 0
M  V30 4906 H 480.945 3.94488 1.04133 0
M  V30 4907 H 479.62 4.158 -0.0911482 0
M  V30 4908 H 478.197 3.38316 1.56834 0
M  V30 4909 N 480.382 0.0267497 1.57577 0
M  V30 4910 C 481.315 -0.99059 2.05579 0
M  V30 4911 C 482.293 -1.31884 0.951065 0
M  V30 4912 O 483.477 -1.43592 1.22121 0
M  V30 4913 C 480.604 -2.31125 2.47586 0
M  V30 4914 C 479.65 -2.13777 3.69055 0
M  V30 4915 S 480.483 -1.4388 5.15809 0
M  V30 4916 C 481.639 -2.77321 5.6111 0
M  V30 4917 H 481.872 -0.581976 2.91548 0
M  V30 4918 H 479.405 -0.184876 1.53289 0
M  V30 4919 H 481.363 -3.07049 2.72454 0
M  V30 4920 H 480.024 -2.6912 1.61967 0
M  V30 4921 H 479.217 -3.11405 3.96287 0
M  V30 4922 H 478.819 -1.45996 3.44327 0
M  V30 4923 H 481.111 -3.73565 5.65204 0
M  V30 4924 H 482.054 -2.54756 6.60685 0
M  V30 4925 H 482.462 -2.82459 4.88751 0
M  V30 4926 N 481.861 -1.55662 -0.24637 0
M  V30 4927 C 483.107 -1.78698 -0.971525 0
M  V30 4928 C 483.462 -0.59577 -1.82944 0
M  V30 4929 O 482.755 0.41097 -1.87141 0
M  V30 4930 C 482.949 -3.04885 -1.86494 0
M  V30 4931 C 482.778 -4.36165 -1.09501 0
M  V30 4932 C 481.548 -4.98929 -0.799895 0
M  V30 4933 C 483.746 -5.12126 -0.472334 0
M  V30 4934 N 481.728 -6.139 -0.00595299 0
M  V30 4935 C 483.099 -6.1972 0.18616 0
M  V30 4936 C 485.154 -4.96426 -0.382854 0
M  V30 4937 C 483.857 -7.13321 0.925542 0
M  V30 4938 C 485.883 -5.90405 0.342999 0
M  V30 4939 C 485.245 -6.97407 0.990128 0
M  V30 4940 H 481.344 -0.705852 -0.336597 0
M  V30 4941 H 483.928 -1.93157 -0.244615 0
M  V30 4942 H 482.099 -2.91753 -2.56388 0
M  V30 4943 H 483.831 -3.16212 -2.5257 0
M  V30 4944 H 480.586 -4.60365 -1.11181 0
M  V30 4945 H 481.01 -6.75938 0.379127 0
M  V30 4946 H 485.652 -4.13777 -0.868834 0
M  V30 4947 H 483.37 -7.9547 1.42312 0
M  V30 4948 H 486.956 -5.80333 0.412907 0
M  V30 4949 H 485.836 -7.68874 1.54282 0
M  V30 4950 N 483.339 0.512053 -1.4905 0
M  V30 4951 C 484.567 1.29116 -1.61669 0
M  V30 4952 C 484.982 1.86655 -0.283787 0
M  V30 4953 O 484.339 1.67293 0.729331 0
M  V30 4954 C 484.39 2.4293 -2.67707 0
M  V30 4955 O 484.111 1.87758 -3.95826 0
M  V30 4956 C 485.612 3.34476 -2.90931 0
M  V30 4957 H 482.832 0.392009 -0.544583 0
M  V30 4958 H 485.376 0.615881 -1.95006 0
M  V30 4959 H 483.531 3.06308 -2.37179 0
M  V30 4960 H 483.945 2.62393 -4.54148 0
M  V30 4961 H 485.419 4.10642 -3.68886 0
M  V30 4962 H 485.896 3.90801 -2.00427 0
M  V30 4963 H 486.502 2.76874 -3.22832 0
M  V30 4964 N 484.817 1.37938 0.762283 0
M  V30 4965 C 486.066 1.32989 1.51647 0
M  V30 4966 C 486.379 -0.0802922 1.95435 0
M  V30 4967 O 487.585 -0.252295 2.70325 0
M  V30 4968 C 486.041 2.33485 2.73885 0
M  V30 4969 C 485.649 3.80079 2.37157 0
M  V30 4970 C 487.393 2.37563 3.51801 0
M  V30 4971 C 485.3 4.72283 3.55954 0
M  V30 4972 H 484.23 0.494301 0.56937 0
M  V30 4973 H 486.881 1.63448 0.834083 0
M  V30 4974 H 485.263 1.96056 3.44061 0
M  V30 4975 H 486.437 4.26398 1.74704 0
M  V30 4976 H 484.752 3.79037 1.72395 0
M  V30 4977 H 487.349 3.0365 4.40114 0
M  V30 4978 H 487.692 1.39199 3.92338 0
M  V30 4979 H 488.225 2.73747 2.8863 0
M  V30 4980 H 484.964 5.7181 3.2049 0
M  V30 4981 H 484.484 4.30663 4.1748 0
M  V30 4982 H 486.163 4.89876 4.22647 0
M  V30 4983 N 486.295 -0.989507 1.22664 0
M  V30 4984 C 487.52 -1.77031 1.08051 0
M  V30 4985 C 487.945 -1.84535 -0.364483 0
M  V30 4986 O 487.303 -1.3003 -1.2634 0
M  V30 4987 C 487.351 -3.18 1.70024 0
M  V30 4988 O 486.455 -4.01161 0.956216 0
M  V30 4989 H 485.796 -0.545008 0.379292 0
M  V30 4990 H 488.326 -1.24277 1.62531 0
M  V30 4991 H 488.336 -3.68616 1.74888 0
M  V30 4992 H 487.011 -3.11853 2.75174 0
M  V30 4993 H 485.588 -3.59687 0.98384 0
M  V30 4994 N 487.773 -1.03688 -1.18687 0
M  V30 4995 C 489.022 -0.733235 -1.879 0
M  V30 4996 C 489.335 0.741745 -1.8099 0
M  V30 4997 O 490.541 1.15875 -2.4553 0
M  V30 4998 C 488.997 -1.26127 -3.37076 0
M  V30 4999 C 488.605 -2.76461 -3.52524 0
M  V30 5000 C 490.349 -1.03398 -4.11715 0
M  V30 5001 C 488.256 -3.22642 -4.95637 0
M  V30 5002 H 487.186 -0.270584 -0.703776 0
M  V30 5003 H 489.837 -1.25222 -1.34133 0
M  V30 5004 H 488.219 -0.670165 -3.90288 0
M  V30 5005 H 489.393 -3.41296 -3.09602 0
M  V30 5006 H 487.708 -2.97559 -2.91286 0
M  V30 5007 H 490.305 -1.3542 -5.17267 0
M  V30 5008 H 490.648 0.0289246 -4.1629 0
M  V30 5009 H 491.181 -1.5895 -3.64664 0
M  V30 5010 H 487.92 -4.28296 -4.96228 0
M  V30 5011 H 487.44 -2.62539 -5.39289 0
M  V30 5012 H 489.119 -3.16444 -5.64333 0
M  V30 5013 N 489.251 1.34841 -0.815825 0
M  V30 5014 C 490.199 2.31549 -0.220888 0
M  V30 5015 C 491.193 1.5707 0.634457 0
M  V30 5016 O 492.399 1.72125 0.526589 0
M  V30 5017 H 488.774 0.750153 -0.0526782 0
M  V30 5018 H 490.745 2.7926 -1.05149 0
M  V30 5019 C 489.494 3.42335 0.608427 0
M  V30 5020 H 488.817 3.9978 -0.0404121 0
M  V30 5021 H 490.257 4.12258 0.990931 0
M  V30 5022 C 488.716 2.86173 1.77782 0
M  V30 5023 O 489.246 2.80474 2.87571 0
M  V30 5024 N 487.452 2.43093 1.59229 0
M  V30 5025 H 486.999 2.47928 0.699237 0
M  V30 5026 H 486.957 2.05866 2.37627 0
M  V30 5027 N 490.729 0.570148 1.46925 0
M  V30 5028 C 491.954 0.0542592 2.07329 0
M  V30 5029 C 492.379 -1.23582 1.41806 0
M  V30 5030 O 491.737 -1.74341 0.497479 0
M  V30 5031 C 491.785 -0.111175 3.60429 0
M  V30 5032 O 490.889 -1.17071 3.95434 0
M  V30 5033 H 490.23 0.0571425 0.661537 0
M  V30 5034 H 492.76 0.789516 1.88753 0
M  V30 5035 H 492.77 -0.321315 4.06733 0
M  V30 5036 H 491.445 0.831012 4.07513 0
M  V30 5037 H 490.022 -0.940029 3.60857 0
M  V30 5038 N 492.207 -1.54576 0.307264 0
M  V30 5039 C 493.17 -2.22423 -0.553224 0
M  V30 5040 C 494.17 -1.21231 -1.05639 0
M  V30 5041 O 495.36 -1.45923 -0.951419 0
M  V30 5042 C 492.492 -2.91552 -1.76664 0
M  V30 5043 H 493.685 -2.99874 0.0396484 0
M  V30 5044 H 491.238 -1.56192 0.0581629 0
M  V30 5045 H 491.973 -2.18196 -2.39918 0
M  V30 5046 H 491.758 -3.65738 -1.41343 0
M  V30 5047 H 493.248 -3.43292 -2.37783 0
M  V30 5048 N 493.685 -0.035106 -1.57561 0
M  V30 5049 C 494.934 0.641604 -1.91223 0
M  V30 5050 C 495.247 1.72944 -0.913761 0
M  V30 5051 O 496.453 2.46321 -1.14185 0
M  V30 5052 C 494.909 1.19249 -3.3957 0
M  V30 5053 C 494.517 0.137616 -4.47789 0
M  V30 5054 C 496.261 1.84537 -3.82291 0
M  V30 5055 C 494.168 0.700478 -5.87237 0
M  V30 5056 H 493.098 0.243417 -0.713627 0
M  V30 5057 H 495.749 -0.101382 -1.8322 0
M  V30 5058 H 494.131 1.98728 -3.42525 0
M  V30 5059 H 495.305 -0.635153 -4.56402 0
M  V30 5060 H 493.62 -0.416855 -4.14308 0
M  V30 5061 H 496.217 2.27616 -4.83834 0
M  V30 5062 H 496.56 2.69054 -3.17672 0
M  V30 5063 H 497.093 1.11739 -3.81784 0
M  V30 5064 H 493.832 -0.106693 -6.55413 0
M  V30 5065 H 493.352 1.4416 -5.82218 0
M  V30 5066 H 495.031 1.18837 -6.35993 0
M  V30 5067 N 495.163 1.55791 0.238111 0
M  V30 5068 C 496.111 1.91885 1.31464 0
M  V30 5069 C 497.105 0.798929 1.49377 0
M  V30 5070 O 498.311 0.983626 1.50747 0
M  V30 5071 H 494.686 0.609551 0.440399 0
M  V30 5072 H 496.657 2.81747 0.982925 0
M  V30 5073 C 495.406 2.23763 2.6613 0
M  V30 5074 H 494.729 3.09444 2.53149 0
M  V30 5075 H 496.169 2.52915 3.40309 0
M  V30 5076 C 494.628 1.05699 3.1989 0
M  V30 5077 O 495.158 0.309524 4.00506 0
M  V30 5078 N 493.364 0.845251 2.78036 0
M  V30 5079 H 492.911 1.4548 2.12588 0
M  V30 5080 H 492.869 0.0569973 3.14348 0
M  V30 5081 N 496.642 -0.504142 1.49319 0
M  V30 5082 C 497.919 -1.26548 1.49147 0
M  V30 5083 C 498.299 -2.09977 0.21744 0
M  V30 5084 O 497.647 -2.14028 -0.800269 0
M  V30 5085 C 497.857 -2.12489 2.76857 0
M  V30 5086 C 499.205 -2.7178 3.26222 0
M  V30 5087 O 500.229 -2.22758 2.77952 0
M  V30 5088 O 499.088 -3.61015 4.10281 0
M  V30 5089 H 496.182 -0.572495 0.596806 0
M  V30 5090 H 498.728 -0.51867 1.61579 0
M  V30 5091 H 497.5 -1.50796 3.61077 0
M  V30 5092 H 497.123 -2.94368 2.6727 0
M  V30 5093 N 498.12 -1.38341 -0.754957 0
M  V30 5094 C 499.368 -1.34208 -1.51105 0
M  V30 5095 C 499.689 0.0677634 -1.94882 0
M  V30 5096 O 498.959 1.01517 -1.67544 0
M  V30 5097 H 497.539 -0.493819 -0.560493 0
M  V30 5098 H 500.201 -1.73005 -0.897507 0
M  V30 5099 H 499.297 -1.99203 -2.4026 0
M  V30 5100 N 499.598 0.982988 -1.23187 0
M  V30 5101 C 501.014 1.2487 -0.993967 0
M  V30 5102 C 501.214 1.99155 0.306498 0
M  V30 5103 O 500.27 2.30688 1.0266 0
M  V30 5104 C 501.583 2.05078 -2.19917 0
M  V30 5105 C 503.131 2.18227 -2.2438 0
M  V30 5106 C 503.606 3.01825 -3.44479 0
M  V30 5107 N 505.097 3.09411 -3.44702 0
M  V30 5108 C 505.832 3.74412 -4.34285 0
M  V30 5109 N 505.328 4.41259 -5.341 0
M  V30 5110 N 507.121 3.71273 -4.22035 0
M  V30 5111 H 499.272 0.485253 -2.06783 0
M  V30 5112 H 501.535 0.276979 -0.906635 0
M  V30 5113 H 501.241 1.57867 -3.14279 0
M  V30 5114 H 501.115 3.05829 -2.2079 0
M  V30 5115 H 503.502 2.64648 -1.30559 0
M  V30 5116 H 503.583 1.16873 -2.2754 0
M  V30 5117 H 503.227 2.56102 -4.38605 0
M  V30 5118 H 503.157 4.03342 -3.38559 0
M  V30 5119 H 505.648 2.61845 -2.7248 0
M  V30 5120 H 505.961 4.88629 -5.98717 0
M  V30 5121 H 504.306 4.39975 -5.38002 0
M  V30 5122 H 507.497 3.18217 -3.43301 0
M  V30 5123 H 507.67 4.21649 -4.92053 0
M  V30 5124 N 501.076 1.04316 1.18135 0
M  V30 5125 C 502.304 0.768117 1.92113 0
M  V30 5126 C 502.719 -0.675057 1.76319 0
M  V30 5127 O 502.076 -1.46038 1.09449 0
M  V30 5128 C 502.127 1.12808 3.43448 0
M  V30 5129 O 501.848 2.5146 3.58747 0
M  V30 5130 C 503.349 0.8779 4.3452 0
M  V30 5131 H 500.569 0.279937 0.609817 0
M  V30 5132 H 503.113 1.39149 1.49859 0
M  V30 5133 H 501.268 0.549623 3.83481 0
M  V30 5134 H 501.682 2.65313 4.52448 0
M  V30 5135 H 503.156 1.17959 5.39249 0
M  V30 5136 H 503.633 -0.187239 4.38801 0
M  V30 5137 H 504.239 1.43977 4.00188 0
M  V30 5138 N 502.554 -1.34406 0.822964 0
M  V30 5139 C 503.517 -2.2783 0.250271 0
M  V30 5140 C 504.517 -1.50288 -0.571854 0
M  V30 5141 O 505.707 -1.69825 -0.387952 0
M  V30 5142 C 502.839 -3.34663 -0.649137 0
M  V30 5143 H 504.032 -2.79992 1.07444 0
M  V30 5144 H 501.585 -1.44539 0.594829 0
M  V30 5145 H 502.32 -2.87714 -1.49637 0
M  V30 5146 H 502.105 -3.92052 -0.0611199 0
M  V30 5147 H 503.595 -4.04349 -1.04363 0
M  V30 5148 N 504.032 -0.577932 -1.46621 0
M  V30 5149 C 504.962 0.145917 -2.33044 0
M  V30 5150 C 505.943 0.888412 -1.45056 0
M  V30 5151 O 507.128 0.864812 -1.73881 0
M  V30 5152 C 504.258 1.16322 -3.27241 0
M  V30 5153 C 503.212 0.535868 -4.24632 0
M  V30 5154 C 502.538 1.65929 -5.08303 0
M  V30 5155 C 503.838 -0.523861 -5.19666 0
M  V30 5156 H 505.532 -0.575636 -2.93814 0
M  V30 5157 H 503.078 -0.278272 -1.41286 0
M  V30 5158 H 505.031 1.67793 -3.86553 0
M  V30 5159 H 503.755 1.91498 -2.64567 0
M  V30 5160 H 502.414 0.0422759 -3.66576 0
M  V30 5161 H 502.062 2.40061 -4.42018 0
M  V30 5162 H 501.762 1.2452 -5.74255 0
M  V30 5163 H 503.286 2.17686 -5.70478 0
M  V30 5164 H 504.7 -0.0944059 -5.73222 0
M  V30 5165 H 503.097 -0.858 -5.93935 0
M  V30 5166 H 504.167 -1.41197 -4.63887 0
M  V30 5167 N 505.51 1.54411 -0.315457 0
M  V30 5168 C 506.74 2.04536 0.291315 0
M  V30 5169 C 507.148 1.19162 1.4696 0
M  V30 5170 O 506.491 0.213199 1.82459 0
M  V30 5171 C 506.553 3.5056 0.796725 0
M  V30 5172 C 506.217 4.5627 -0.258178 0
M  V30 5173 C 507.214 5.08312 -1.09153 0
M  V30 5174 C 504.899 5.00672 -0.404036 0
M  V30 5175 C 506.893 6.03312 -2.05655 0
M  V30 5176 C 504.58 5.95488 -1.37248 0
M  V30 5177 C 505.578 6.46693 -2.19721 0
M  V30 5178 O 505.266 7.39648 -3.14921 0
M  V30 5179 H 504.998 0.672856 0.0651165 0
M  V30 5180 H 507.552 2.00244 -0.457308 0
M  V30 5181 H 505.782 3.52223 1.59612 0
M  V30 5182 H 507.471 3.83804 1.32096 0
M  V30 5183 H 508.237 4.74793 -0.98979 0
M  V30 5184 H 504.116 4.60436 0.22799 0
M  V30 5185 H 507.66 6.43203 -2.70067 0
M  V30 5186 H 503.557 6.28424 -1.47489 0
M  V30 5187 H 504.325 7.57496 -3.10067 0
M  V30 5188 N 506.988 0.0434614 1.5754 0
M  V30 5189 C 508.265 -0.671479 1.83713 0
M  V30 5190 C 508.645 -1.89495 0.930315 0
M  V30 5191 O 507.993 -2.28498 -0.0105639 0
M  V30 5192 C 508.203 -1.0361 3.33266 0
M  V30 5193 C 509.551 -1.42167 4.00092 0
M  V30 5194 O 510.575 -1.12866 3.37846 0
M  V30 5195 O 509.434 -1.96817 5.09829 0
M  V30 5196 H 506.528 -0.330726 0.75799 0
M  V30 5197 H 509.074 0.0722373 1.69546 0
M  V30 5198 H 507.846 -0.165938 3.90948 0
M  V30 5199 H 507.469 -1.83751 3.52592 0
M  V30 5200 N 508.466 -1.55915 -0.229846 0
M  V30 5201 C 509.376 -1.94891 -1.30593 0
M  V30 5202 C 510.392 -0.851604 -1.51736 0
M  V30 5203 O 511.568 -1.15447 -1.65027 0
M  V30 5204 C 508.633 -2.25052 -2.63728 0
M  V30 5205 C 507.694 -3.48306 -2.5096 0
M  V30 5206 C 506.927 -3.77019 -3.77747 0
M  V30 5207 O 507.15 -3.07534 -4.80395 0
M  V30 5208 O 506.084 -4.70523 -3.75356 0
M  V30 5209 H 509.91 -2.86581 -1.00525 0
M  V30 5210 H 507.495 -1.43017 -0.432025 0
M  V30 5211 H 509.377 -2.45682 -3.42372 0
M  V30 5212 H 508.052 -1.36538 -2.93495 0
M  V30 5213 H 506.959 -3.32964 -1.70546 0
M  V30 5214 H 508.292 -4.37177 -2.26136 0
M  V30 5215 N 509.944 0.496216 -1.49584 0
M  V30 5216 C 511.169 1.27865 -1.63295 0
M  V30 5217 C 511.594 1.85592 -0.306156 0
M  V30 5218 O 510.952 1.66092 0.726851 0
M  V30 5219 C 511 2.38128 -2.7079 0
M  V30 5220 O 510.104 3.42108 -2.30296 0
M  V30 5221 H 509.445 0.377279 -0.546403 0
M  V30 5222 H 511.975 0.593497 -1.95803 0
M  V30 5223 H 511.985 2.8382 -2.93104 0
M  V30 5224 H 510.66 1.95479 -3.67098 0
M  V30 5225 H 509.237 3.02301 -2.18331 0
M  V30 5226 N 511.423 1.38739 0.74761 0
M  V30 5227 C 512.663 1.36695 1.51966 0
M  V30 5228 C 513.027 -0.0411889 1.91956 0
M  V30 5229 O 514.228 -0.186543 2.68152 0
M  V30 5230 C 512.499 2.30119 2.73459 0
M  V30 5231 S 514.058 2.4615 3.63257 0
M  V30 5232 H 510.876 0.484929 0.519966 0
M  V30 5233 H 513.478 1.7472 0.877104 0
M  V30 5234 H 512.182 3.31312 2.422 0
M  V30 5235 H 511.713 1.93265 3.42655 0
M  V30 5236 H 513.728 1.69001 4.66533 0
M  V30 5237 N 512.901 -0.976442 1.23707 0
M  V30 5238 C 514.126 -1.75875 1.09922 0
M  V30 5239 C 514.551 -1.84911 -0.34489 0
M  V30 5240 O 513.909 -1.31363 -1.24954 0
M  V30 5241 C 513.957 -3.16179 1.73388 0
M  V30 5242 O 513.061 -4.00124 0.99871 0
M  V30 5243 H 512.402 -0.540954 0.385052 0
M  V30 5244 H 514.932 -1.22546 1.6384 0
M  V30 5245 H 514.942 -3.66741 1.78788 0
M  V30 5246 H 513.617 -3.08917 2.78466 0
M  V30 5247 H 512.194 -3.58624 1.02193 0
M  V30 5248 N 514.379 -1.04941 -1.1758 0
M  V30 5249 C 515.604 -0.778253 -1.92245 0
M  V30 5250 C 516.029 0.659707 -1.76152 0
M  V30 5251 O 515.387 1.45803 -1.07755 0
M  V30 5252 C 515.435 -1.16051 -3.41416 0
M  V30 5253 O 514.539 -0.291153 -4.11371 0
M  V30 5254 H 513.88 -0.285619 -0.599431 0
M  V30 5255 H 516.41 -1.40159 -1.49052 0
M  V30 5256 H 516.42 -1.12619 -3.92149 0
M  V30 5257 H 515.095 -2.208 -3.52449 0
M  V30 5258 H 513.672 -0.385851 -3.70898 0
M  V30 5259 N 515.857 1.33968 -0.830081 0
M  V30 5260 C 517.085 2.0228 -0.434773 0
M  V30 5261 C 517.5 1.62487 0.961419 0
M  V30 5262 O 516.857 0.833849 1.62337 0
M  V30 5263 C 516.908 3.5751 -0.535625 0
M  V30 5264 O 516.629 3.95864 -1.87679 0
M  V30 5265 C 518.13 4.43091 -0.136137 0
M  V30 5266 H 515.35 0.648151 -0.173613 0
M  V30 5267 H 517.894 1.71089 -1.12022 0
M  V30 5268 H 516.049 3.87266 0.101817 0
M  V30 5269 H 516.463 4.9056 -1.85609 0
M  V30 5270 H 517.937 5.51398 -0.257772 0
M  V30 5271 H 518.414 4.29433 0.921076 0
M  V30 5272 H 519.02 4.18677 -0.747662 0
M  V30 5273 N 517.335 0.585699 1.46312 0
M  V30 5274 C 518.265 -0.133556 2.33118 0
M  V30 5275 C 519.246 -0.880707 1.45525 0
M  V30 5276 O 520.431 -0.855579 1.74337 0
M  V30 5277 C 517.561 -1.14585 3.27853 0
M  V30 5278 C 516.515 -0.513341 4.2491 0
M  V30 5279 C 515.841 -1.63231 5.09175 0
M  V30 5280 C 517.141 0.551413 5.19381 0
M  V30 5281 H 518.835 0.59121 2.93505 0
M  V30 5282 H 516.381 0.285761 1.41136 0
M  V30 5283 H 518.334 -1.65741 3.87438 0
M  V30 5284 H 517.058 -1.90093 2.65579 0
M  V30 5285 H 515.717 -0.0228349 3.66593 0
M  V30 5286 H 515.365 -2.37713 4.43285 0
M  V30 5287 H 515.065 -1.21473 5.74907 0
M  V30 5288 H 516.589 -2.14658 5.71624 0
M  V30 5289 H 518.003 0.124804 5.73164 0
M  V30 5290 H 516.4 0.889486 5.93471 0
M  V30 5291 H 517.47 1.43655 4.63132 0
M  V30 5292 N 518.813 -1.54241 0.323641 0
M  V30 5293 C 519.776 -2.22997 -0.529602 0
M  V30 5294 C 520.776 -1.22345 -1.04347 0
M  V30 5295 O 521.966 -1.46924 -0.935889 0
M  V30 5296 C 519.098 -2.93409 -1.73562 0
M  V30 5297 H 520.291 -2.99815 0.0714518 0
M  V30 5298 H 517.844 -1.56121 0.0747258 0
M  V30 5299 H 518.579 -2.20729 -2.37591 0
M  V30 5300 H 518.364 -3.67217 -1.37456 0
M  V30 5301 H 519.854 -3.45794 -2.34128 0
M  V30 5302 N 520.291 -0.0518155 -1.57515 0
M  V30 5303 C 521.516 0.634896 -1.97443 0
M  V30 5304 C 521.941 1.63546 -0.929207 0
M  V30 5305 O 521.299 1.80981 0.107484 0
M  V30 5306 C 521.347 1.29765 -3.36442 0
M  V30 5307 O 520.451 2.41333 -3.34413 0
M  V30 5308 H 519.792 0.164994 -0.643174 0
M  V30 5309 H 522.322 -0.120407 -2.04245 0
M  V30 5310 H 522.332 1.64918 -3.73184 0
M  V30 5311 H 521.007 0.564361 -4.12053 0
M  V30 5312 H 519.584 2.08122 -3.09418 0
M  V30 5313 N 521.769 1.56035 0.221574 0
M  V30 5314 C 522.997 1.8313 0.962864 0
M  V30 5315 C 523.412 0.630934 1.77946 0
M  V30 5316 O 522.769 -0.400519 1.78051 0
M  V30 5317 C 522.82 3.08742 1.88045 0
M  V30 5318 O 522.541 4.24147 1.09686 0
M  V30 5319 C 524.042 3.48824 2.73563 0
M  V30 5320 H 521.262 0.608775 0.282194 0
M  V30 5321 H 523.806 2.03124 0.23681 0
M  V30 5322 H 521.961 2.90723 2.56045 0
M  V30 5323 H 522.375 4.95505 1.71974 0
M  V30 5324 H 523.849 4.39752 3.3365 0
M  V30 5325 H 524.326 2.70575 3.45956 0
M  V30 5326 H 524.932 3.69282 2.10976 0
M  V30 5327 N 523.247 -0.488276 1.49845 0
M  V30 5328 C 524.494 -1.24157 1.59973 0
M  V30 5329 C 524.822 -1.92293 0.292182 0
M  V30 5330 O 524.077 -1.81942 -0.720813 0
M  V30 5331 C 524.376 -2.32152 2.71735 0
M  V30 5332 C 524.042 -1.81387 4.12807 0
M  V30 5333 C 522.704 -1.67262 4.51195 0
M  V30 5334 C 525.056 -1.43537 5.01045 0
M  V30 5335 C 522.384 -1.13685 5.7558 0
M  V30 5336 C 524.736 -0.914081 6.25961 0
M  V30 5337 C 523.4 -0.759327 6.63167 0
M  V30 5338 H 522.67 -0.454322 0.585383 0
M  V30 5339 H 525.317 -0.540261 1.83721 0
M  V30 5340 H 523.622 -3.08122 2.42008 0
M  V30 5341 H 525.319 -2.90164 2.76778 0
M  V30 5342 H 521.909 -1.93344 3.82513 0
M  V30 5343 H 526.093 -1.53292 4.72033 0
M  V30 5344 H 521.349 -1.00426 6.03096 0
M  V30 5345 H 525.523 -0.612066 6.93705 0
M  V30 5346 H 523.15 -0.342002 7.5943 0
M  V30 5347 N 524.725 -1.39134 -0.740242 0
M  V30 5348 C 525.95 -1.39518 -1.53459 0
M  V30 5349 C 526.375 0.00968883 -1.88098 0
M  V30 5350 O 525.733 0.995312 -1.51536 0
M  V30 5351 C 525.781 -2.26981 -2.802 0
M  V30 5352 O 524.885 -1.69609 -3.75908 0
M  V30 5353 H 524.226 -0.475328 -0.463637 0
M  V30 5354 H 526.756 -1.83064 -0.913717 0
M  V30 5355 H 526.766 -2.41309 -3.28989 0
M  V30 5356 H 525.441 -3.29081 -2.5432 0
M  V30 5357 H 524.018 -1.64495 -3.34658 0
M  V30 5358 N 526.204 0.969867 -1.24223 0
M  V30 5359 C 527.152 2.08535 -1.03034 0
M  V30 5360 C 528.146 1.69366 0.0340379 0
M  V30 5361 O 529.352 1.79597 -0.12034 0
M  V30 5362 H 525.727 0.682313 -0.316154 0
M  V30 5363 H 527.698 2.23569 -1.97635 0
M  V30 5364 C 526.447 3.4158 -0.649509 0
M  V30 5365 H 525.77 3.72177 -1.46028 0
M  V30 5366 H 527.21 4.20536 -0.540841 0
M  V30 5367 C 525.669 3.30703 0.643194 0
M  V30 5368 O 526.199 3.64443 1.68951 0
M  V30 5369 N 524.405 2.83841 0.623095 0
M  V30 5370 H 523.952 2.56583 -0.228719 0
M  V30 5371 H 523.91 2.76946 1.48823 0
M  V30 5372 N 527.682 1.05563 1.17022 0
M  V30 5373 C 528.93 0.76642 1.87004 0
M  V30 5374 C 529.251 -0.708854 1.8166 0
M  V30 5375 O 528.521 -1.51242 1.2451 0
M  V30 5376 H 527.101 0.280516 0.692329 0
M  V30 5377 H 529.763 1.33557 1.41945 0
M  V30 5378 H 528.859 1.08472 2.92644 0
M  V30 5379 N 529.16 -1.33526 0.837174 0
M  V30 5380 C 530.576 -1.50727 0.524743 0
M  V30 5381 C 530.776 -1.77792 -0.948279 0
M  V30 5382 O 529.832 -1.83719 -1.73216 0
M  V30 5383 C 531.145 -2.66299 1.39661 0
M  V30 5384 C 532.693 -2.80183 1.39521 0
M  V30 5385 C 533.168 -3.98815 2.25189 0
M  V30 5386 N 534.659 -4.06047 2.2289 0
M  V30 5387 C 535.394 -4.97032 2.85915 0
M  V30 5388 N 534.89 -5.93143 3.57985 0
M  V30 5389 N 536.683 -4.90015 2.75394 0
M  V30 5390 H 528.834 -1.1422 1.79074 0
M  V30 5391 H 531.097 -0.561399 0.763894 0
M  V30 5392 H 530.803 -2.52974 2.4433 0
M  V30 5393 H 530.677 -3.61663 1.07145 0
M  V30 5394 H 533.064 -2.92942 0.356253 0
M  V30 5395 H 533.145 -1.85586 1.76044 0
M  V30 5396 H 532.789 -3.86817 3.29143 0
M  V30 5397 H 532.719 -4.92654 1.86009 0
M  V30 5398 H 535.21 -3.37262 1.70478 0
M  V30 5399 H 535.523 -6.59227 4.03286 0
M  V30 5400 H 533.868 -5.93223 3.62093 0
M  V30 5401 H 537.059 -4.13894 2.18654 0
M  V30 5402 H 537.232 -5.60724 3.24796 0
M  V30 5403 N 530.638 -0.59345 -1.46 0
M  V30 5404 C 531.585 0.133618 -2.30413 0
M  V30 5405 C 532.555 0.873736 -1.41262 0
M  V30 5406 O 533.74 0.862279 -1.70204 0
M  V30 5407 C 530.88 1.13434 -3.25924 0
M  V30 5408 C 529.993 0.39656 -4.30176 0
M  V30 5409 C 529.128 1.38575 -5.12806 0
M  V30 5410 C 528.167 0.634984 -6.08797 0
M  V30 5411 N 527.304 1.57276 -6.84258 0
M  V30 5412 H 532.144 -0.592252 -2.92055 0
M  V30 5413 H 529.681 -0.303874 -1.43927 0
M  V30 5414 H 531.639 1.72752 -3.79753 0
M  V30 5415 H 530.269 1.82779 -2.66067 0
M  V30 5416 H 529.321 -0.311861 -3.79119 0
M  V30 5417 H 530.633 -0.189869 -4.98438 0
M  V30 5418 H 529.787 2.05141 -5.70966 0
M  V30 5419 H 528.526 2.00611 -4.44529 0
M  V30 5420 H 527.531 -0.0443925 -5.49782 0
M  V30 5421 H 528.756 0.0198678 -6.79097 0
M  V30 5422 H 526.702 2.18103 -6.18682 0
M  V30 5423 H 526.619 1.03941 -7.48821 0
M  V30 5424 H 527.887 2.22844 -7.46968 0
M  V30 5425 N 532.116 1.54067 -0.331816 0
M  V30 5426 C 533.532 1.59587 0.0205388 0
M  V30 5427 C 533.732 1.34813 1.49759 0
M  V30 5428 O 532.788 1.13661 2.25471 0
M  V30 5429 C 534.101 2.97959 -0.405103 0
M  V30 5430 C 535.649 3.10964 -0.356454 0
M  V30 5431 C 536.124 4.51694 -0.757384 0
M  V30 5432 N 537.615 4.57709 -0.71111 0
M  V30 5433 C 538.35 5.64729 -0.993427 0
M  V30 5434 N 537.846 6.79652 -1.3433 0
M  V30 5435 N 539.639 5.54546 -0.918442 0
M  V30 5436 H 531.79 1.68426 -1.29407 0
M  V30 5437 H 534.053 0.78819 -0.526745 0
M  V30 5438 H 533.759 3.21115 -1.43451 0
M  V30 5439 H 533.633 3.76524 0.225692 0
M  V30 5440 H 536.02 2.87538 0.663763 0
M  V30 5441 H 536.101 2.34484 -1.02229 0
M  V30 5442 H 535.745 4.75853 -1.77555 0
M  V30 5443 H 535.675 5.26555 -0.0691444 0
M  V30 5444 H 538.166 3.75176 -0.452883 0
M  V30 5445 H 538.479 7.57221 -1.54388 0
M  V30 5446 H 536.824 6.81128 -1.38164 0
M  V30 5447 H 540.015 4.63641 -0.644536 0
M  V30 5448 H 540.188 6.37861 -1.14181 0
M  V30 5449 N 533.594 0.0601682 1.57485 0
M  V30 5450 C 534.542 -0.928899 2.13247 0
M  V30 5451 C 535.536 -1.31616 1.06647 0
M  V30 5452 O 536.742 -1.29476 1.25043 0
M  V30 5453 H 533.117 -0.317455 0.681708 0
M  V30 5454 H 535.088 -0.433566 2.95233 0
M  V30 5455 C 533.837 -2.19121 2.69965 0
M  V30 5456 H 533.16 -1.90204 3.51657 0
M  V30 5457 H 534.6 -2.86465 3.12592 0
M  V30 5458 C 533.059 -2.94195 1.64168 0
M  V30 5459 O 533.589 -3.87468 1.05978 0
M  V30 5460 N 531.795 -2.57089 1.35476 0
M  V30 5461 H 531.342 -1.81314 1.82984 0
M  V30 5462 H 531.3 -3.07624 0.649196 0
M  V30 5463 N 535.072 -1.5615 -0.213296 0
M  V30 5464 C 536.483 -1.69645 -0.779582 0
M  V30 5465 C 536.834 -0.663615 -1.84636 0
M  V30 5466 O 535.959 0.183633 -2.15619 0
M  V30 5467 C 536.554 -3.07567 -1.42084 0
M  V30 5468 C 535.113 -3.22889 -1.93442 0
M  V30 5469 C 534.26 -2.65581 -0.797612 0
M  V30 5470 H 537.211 -1.58696 0.0114951 0
M  V30 5471 H 537.232 -3.03884 -2.28986 0
M  V30 5472 H 536.744 -3.82716 -0.644187 0
M  V30 5473 H 534.845 -2.52623 -2.73884 0
M  V30 5474 H 534.958 -4.30197 -2.10872 0
M  V30 5475 H 533.322 -2.24278 -1.20712 0
M  V30 5476 H 534.105 -3.43284 -0.033494 0
M  V30 5477 N 536.55 0.480323 -1.50102 0
M  V30 5478 C 537.46 1.60547 -1.71061 0
M  V30 5479 C 538.476 1.63564 -0.593529 0
M  V30 5480 O 539.652 1.81604 -0.870751 0
M  V30 5481 C 536.717 2.96814 -1.79171 0
M  V30 5482 C 535.778 3.04259 -3.02861 0
M  V30 5483 C 535.011 4.34027 -3.10574 0
M  V30 5484 O 535.234 5.24009 -2.25323 0
M  V30 5485 O 534.168 4.46873 -4.03223 0
M  V30 5486 H 537.994 1.45788 -2.6642 0
M  V30 5487 H 535.579 0.658838 -1.34088 0
M  V30 5488 H 537.461 3.77765 -1.86738 0
M  V30 5489 H 536.136 3.11791 -0.869947 0
M  V30 5490 H 535.043 2.22419 -3.008 0
M  V30 5491 H 536.376 2.94216 -3.94586 0
M  V30 5492 N 538.028 1.39524 0.732853 0
M  V30 5493 C 538.991 1.38189 1.82857 0
M  V30 5494 C 539.991 0.278624 1.58368 0
M  V30 5495 O 541.181 0.536639 1.65728 0
M  V30 5496 C 538.313 1.15661 3.2068 0
M  V30 5497 H 539.506 2.35692 1.85444 0
M  V30 5498 H 537.059 1.2512 0.936728 0
M  V30 5499 H 537.794 0.188482 3.23752 0
M  V30 5500 H 537.579 1.95559 3.39852 0
M  V30 5501 H 539.069 1.17472 4.00737 0
M  V30 5502 N 539.506 -0.963266 1.24736 0
M  V30 5503 C 540.754 -1.70343 1.08755 0
M  V30 5504 C 541.075 -1.91387 -0.373619 0
M  V30 5505 O 540.345 -1.4948 -1.2662 0
M  V30 5506 H 538.925 -0.631224 0.399456 0
M  V30 5507 H 541.587 -1.15859 1.56725 0
M  V30 5508 H 540.683 -2.68616 1.58909 0
M  V30 5509 N 540.985 -1.06182 -1.16461 0
M  V30 5510 C 542.231 -0.779015 -1.87241 0
M  V30 5511 C 542.564 0.692715 -1.81425 0
M  V30 5512 O 541.839 1.5074 -1.22913 0
M  V30 5513 C 542.122 -1.2728 -3.36856 0
M  V30 5514 C 541.975 -2.80821 -3.51368 0
M  V30 5515 C 543.294 -0.879799 -4.31216 0
M  V30 5516 H 540.413 -0.284464 -0.679889 0
M  V30 5517 H 543.055 -1.31755 -1.36896 0
M  V30 5518 H 541.205 -0.814673 -3.79862 0
M  V30 5519 H 542.877 -3.34833 -3.17308 0
M  V30 5520 H 541.12 -3.19606 -2.93316 0
M  V30 5521 H 541.791 -3.10435 -4.56436 0
M  V30 5522 H 544.267 -1.27436 -3.96105 0
M  V30 5523 H 543.143 -1.25278 -5.34412 0
M  V30 5524 H 543.404 0.215372 -4.41575 0
M  V30 5525 N 542.463 1.3308 -0.844243 0
M  V30 5526 C 543.426 2.27403 -0.286485 0
M  V30 5527 C 544.426 1.51179 0.547872 0
M  V30 5528 O 545.616 1.70421 0.360886 0
M  V30 5529 C 542.748 3.35653 0.595813 0
M  V30 5530 H 543.941 2.78248 -1.11885 0
M  V30 5531 H 541.494 1.43574 -0.617749 0
M  V30 5532 H 542.229 2.90058 1.4504 0
M  V30 5533 H 542.014 3.921 -0.00125994 0
M  V30 5534 H 543.504 4.05958 0.979168 0
M  V30 5535 N 543.941 0.601185 1.45683 0
M  V30 5536 C 545.169 0.100054 2.06658 0
M  V30 5537 C 545.584 -1.21285 1.44691 0
M  V30 5538 O 544.941 -1.73735 0.558772 0
M  V30 5539 C 544.992 -0.0528579 3.61461 0
M  V30 5540 O 544.713 1.20809 4.21114 0
M  V30 5541 C 546.214 -0.586193 4.39407 0
M  V30 5542 H 543.434 0.065905 0.667756 0
M  V30 5543 H 545.978 0.827101 1.87028 0
M  V30 5544 H 544.133 -0.730203 3.80456 0
M  V30 5545 H 544.547 1.03368 5.14213 0
M  V30 5546 H 546.021 -0.642297 5.4825 0
M  V30 5547 H 546.498 -1.60713 4.0874 0
M  V30 5548 H 547.104 0.0568935 4.25262 0
M  V30 5549 N 545.419 -1.53889 0.339982 0
M  V30 5550 C 546.647 -2.05271 -0.259114 0
M  V30 5551 C 547.062 -1.21517 -1.44496 0
M  V30 5552 O 546.419 -0.24966 -1.80784 0
M  V30 5553 C 546.47 -3.55092 -0.677634 0
M  V30 5554 O 546.191 -4.35667 0.461051 0
M  V30 5555 C 547.692 -4.22631 -1.33782 0
M  V30 5556 H 544.912 -0.669085 -0.0506566 0
M  V30 5557 H 547.456 -1.9852 0.490935 0
M  V30 5558 H 545.611 -3.62077 -1.37763 0
M  V30 5559 H 546.025 -5.24343 0.128144 0
M  V30 5560 H 547.499 -5.28861 -1.58145 0
M  V30 5561 H 547.976 -3.74758 -2.29027 0
M  V30 5562 H 548.582 -4.19829 -0.679957 0
M  V30 5563 N 546.897 -0.0685191 -1.57451 0
M  V30 5564 C 548.174 0.642167 -1.84758 0
M  V30 5565 C 548.554 1.87991 -0.960344 0
M  V30 5566 O 547.902 2.28485 -0.0257894 0
M  V30 5567 C 548.112 0.982946 -3.34872 0
M  V30 5568 C 549.46 1.35784 -4.02303 0
M  V30 5569 O 550.484 1.07477 -3.39598 0
M  V30 5570 O 549.343 1.88681 -5.12895 0
M  V30 5571 H 546.437 0.318625 -0.763156 0
M  V30 5572 H 548.983 -0.0992015 -1.6941 0
M  V30 5573 H 547.755 0.10372 -3.91163 0
M  V30 5574 H 547.378 1.78119 -3.55471 0
M  V30 5575 N 548.375 1.56261 0.205012 0
M  V30 5576 C 549.305 1.96779 1.257 0
M  V30 5577 C 550.286 0.838309 1.48008 0
M  V30 5578 O 551.471 1.10189 1.59913 0
M  V30 5579 C 548.601 2.29876 2.60335 0
M  V30 5580 C 547.555 3.45469 2.52656 0
M  V30 5581 C 546.881 3.64215 3.91473 0
M  V30 5582 C 548.181 4.79954 2.06014 0
M  V30 5583 H 549.875 2.84904 0.920338 0
M  V30 5584 H 547.421 1.37072 0.441277 0
M  V30 5585 H 549.374 2.56814 3.34102 0
M  V30 5586 H 548.098 1.38622 2.95722 0
M  V30 5587 H 546.757 3.18605 1.81345 0
M  V30 5588 H 546.405 2.70309 4.24196 0
M  V30 5589 H 546.105 4.41973 3.87213 0
M  V30 5590 H 547.629 3.93519 4.66878 0
M  V30 5591 H 549.043 5.05989 2.69533 0
M  V30 5592 H 547.44 5.61111 2.12777 0
M  V30 5593 H 548.51 4.74201 1.01297 0
M  V30 5594 N 549.853 -0.472356 1.50355 0
M  V30 5595 C 551.083 -1.24603 1.64796 0
M  V30 5596 C 551.491 -1.86297 0.330156 0
M  V30 5597 O 550.834 -1.69934 -0.697728 0
M  V30 5598 C 550.896 -2.39578 2.68035 0
M  V30 5599 C 550.56 -1.98531 4.11624 0
M  V30 5600 C 551.557 -1.50856 4.97532 0
M  V30 5601 C 549.242 -2.0729 4.57532 0
M  V30 5602 C 551.236 -1.12481 6.27397 0
M  V30 5603 C 548.923 -1.68527 5.87403 0
M  V30 5604 C 549.921 -1.212 6.7216 0
M  V30 5605 O 549.609 -0.829728 7.99607 0
M  V30 5606 H 549.341 -0.383035 0.55701 0
M  V30 5607 H 551.895 -0.570392 1.97321 0
M  V30 5608 H 550.125 -3.10309 2.30749 0
M  V30 5609 H 551.814 -3.01544 2.71709 0
M  V30 5610 H 552.58 -1.43511 4.63281 0
M  V30 5611 H 548.459 -2.43076 3.91708 0
M  V30 5612 H 552.003 -0.754698 6.93506 0
M  V30 5613 H 547.9 -1.7553 6.21176 0
M  V30 5614 H 548.668 -0.958689 8.12866 0
M  V30 5615 N 551.331 -1.39911 -0.725443 0
M  V30 5616 C 552.579 -1.37382 -1.48224 0
M  V30 5617 C 552.9 0.0264107 -1.94982 0
M  V30 5618 O 552.17 0.979408 -1.6966 0
M  V30 5619 H 550.75 -0.505596 -0.549892 0
M  V30 5620 H 553.412 -1.7487 -0.860608 0
M  V30 5621 H 552.508 -2.04254 -2.3598 0
M  V30 5622 N 552.809 0.956637 -1.25245 0
M  V30 5623 C 553.757 2.0743 -1.0524 0
M  V30 5624 C 554.751 1.69392 0.0160725 0
M  V30 5625 O 555.957 1.7946 -0.139382 0
M  V30 5626 H 552.332 0.678921 -0.323373 0
M  V30 5627 H 554.303 2.2146 -1.99995 0
M  V30 5628 C 553.052 3.40872 -0.685702 0
M  V30 5629 H 552.375 3.70607 -1.49968 0
M  V30 5630 H 553.815 4.19939 -0.585415 0
M  V30 5631 C 552.274 3.31367 0.608082 0
M  V30 5632 O 552.804 3.66214 1.65076 0
M  V30 5633 N 551.01 2.84486 0.592955 0
M  V30 5634 H 550.557 2.56326 -0.25592 0
M  V30 5635 H 550.515 2.78509 1.45877 0
M  V30 5636 N 554.287 1.06798 1.15896 0
M  V30 5637 C 555.527 0.797041 1.8822 0
M  V30 5638 C 555.891 -0.664549 1.80133 0
M  V30 5639 O 557.092 -1.0503 2.47431 0
M  V30 5640 C 555.363 1.28431 3.33527 0
M  V30 5641 S 556.922 1.14319 4.23647 0
M  V30 5642 H 553.74 0.288988 0.649621 0
M  V30 5643 H 556.342 1.36594 1.39865 0
M  V30 5644 H 555.046 2.34286 3.36954 0
M  V30 5645 H 554.577 0.710371 3.86933 0
M  V30 5646 H 556.592 0.0772467 4.9614 0
M  V30 5647 N 555.766 -1.3263 0.851289 0
M  V30 5648 C 556.994 -2.01563 0.466899 0
M  V30 5649 C 557.409 -1.63996 -0.935447 0
M  V30 5650 O 556.766 -0.85957 -1.6099 0
M  V30 5651 C 556.817 -3.56613 0.592433 0
M  V30 5652 O 556.538 -3.92828 1.93954 0
M  V30 5653 C 558.039 -4.42818 0.206612 0
M  V30 5654 H 555.259 -0.645307 0.183902 0
M  V30 5655 H 557.803 -1.69285 1.1473 0
M  V30 5656 H 555.958 -3.87379 -0.0401936 0
M  V30 5657 H 556.372 -4.87545 1.9339 0
M  V30 5658 H 557.846 -5.50918 0.345462 0
M  V30 5659 H 558.323 -4.30844 -0.85264 0
M  V30 5660 H 558.929 -4.17434 0.814176 0
M  V30 5661 N 557.244 -0.608902 -1.45362 0
M  V30 5662 C 558.174 0.0964526 -2.33301 0
M  V30 5663 C 559.155 0.857444 -1.46908 0
M  V30 5664 O 560.34 0.827735 -1.75676 0
M  V30 5665 C 557.47 1.09354 -3.29635 0
M  V30 5666 C 556.424 0.445676 -4.25673 0
M  V30 5667 C 555.75 1.5511 -5.11708 0
M  V30 5668 C 557.05 -0.633972 -5.18438 0
M  V30 5669 H 558.744 -0.637829 -2.92527 0
M  V30 5670 H 556.29 -0.308178 -1.40664 0
M  V30 5671 H 558.243 1.59556 -3.90025 0
M  V30 5672 H 556.967 1.85843 -2.6857 0
M  V30 5673 H 555.626 -0.0354897 -3.66583 0
M  V30 5674 H 555.274 2.30631 -4.4701 0
M  V30 5675 H 554.974 1.12311 -5.76767 0
M  V30 5676 H 556.498 2.05537 -5.74967 0
M  V30 5677 H 557.912 -0.215974 -5.72893 0
M  V30 5678 H 556.309 -0.983789 -5.91981 0
M  V30 5679 H 557.379 -1.51005 -4.60788 0
M  V30 5680 N 558.722 1.53707 -0.348139 0
M  V30 5681 C 560.138 1.596 0.00361134 0
M  V30 5682 C 560.338 1.36394 1.4832 0
M  V30 5683 O 559.394 1.16046 2.24253 0
M  V30 5684 C 560.707 2.97512 -0.436682 0
M  V30 5685 C 562.255 3.10568 -0.389416 0
M  V30 5686 C 562.73 4.50866 -0.805249 0
M  V30 5687 N 564.221 4.56929 -0.759616 0
M  V30 5688 C 564.956 5.63643 -1.05327 0
M  V30 5689 N 564.452 6.78189 -1.41531 0
M  V30 5690 N 566.245 5.5354 -0.977207 0
M  V30 5691 H 558.396 1.67044 -1.31187 0
M  V30 5692 H 560.659 0.782559 -0.535075 0
M  V30 5693 H 560.365 3.19575 -1.46849 0
M  V30 5694 H 560.239 3.76742 0.185744 0
M  V30 5695 H 562.626 2.88226 0.633228 0
M  V30 5696 H 562.707 2.33387 -1.04711 0
M  V30 5697 H 562.351 4.73943 -1.82593 0
M  V30 5698 H 562.281 5.26452 -0.124989 0
M  V30 5699 H 564.772 3.74675 -0.49265 0
M  V30 5700 H 565.085 7.55541 -1.62411 0
M  V30 5701 H 563.43 6.79624 -1.45381 0
M  V30 5702 H 566.621 4.62932 -0.693675 0
M  V30 5703 H 566.794 6.36614 -1.2094 0
M  V30 5704 N 560.2 0.0768682 1.57412 0
M  V30 5705 C 561.15 -0.898795 2.09537 0
M  V30 5706 C 562.134 -1.25556 1.0062 0
M  V30 5707 O 563.326 -1.23369 1.26921 0
M  V30 5708 C 560.455 -2.16453 2.66464 0
M  V30 5709 C 559.541 -1.83401 3.82393 0
M  V30 5710 N 559.932 -1.20823 4.91157 0
M  V30 5711 C 558.23 -2.13121 3.91785 0
M  V30 5712 C 558.931 -1.05976 5.71965 0
M  V30 5713 N 557.907 -1.57113 5.204 0
M  V30 5714 H 561.709 -0.410718 2.91016 0
M  V30 5715 H 559.223 -0.126878 1.61904 0
M  V30 5716 H 561.22 -2.87274 3.02125 0
M  V30 5717 H 559.88 -2.65844 1.86433 0
M  V30 5718 H 560.891 -0.877249 5.10416 0
M  V30 5719 H 557.568 -2.64854 3.22736 0
M  V30 5720 H 558.958 -0.571809 6.69462 0
M  V30 5721 N 561.678 -1.56367 -0.196722 0
M  V30 5722 C 562.903 -1.84991 -0.937714 0
M  V30 5723 C 563.328 -0.660244 -1.76132 0
M  V30 5724 O 562.686 0.390967 -1.77034 0
M  V30 5725 C 562.734 -3.11828 -1.81096 0
M  V30 5726 O 561.838 -2.92266 -2.90955 0
M  V30 5727 H 561.179 -0.609193 -0.264159 0
M  V30 5728 H 563.709 -2.03595 -0.202529 0
M  V30 5729 H 563.719 -3.42579 -2.21594 0
M  V30 5730 H 562.394 -3.98037 -1.2058 0
M  V30 5731 H 560.971 -2.72809 -2.54224 0
M  V30 5732 N 563.156 0.464375 -1.50603 0
M  V30 5733 C 564.404 1.21356 -1.61608 0
M  V30 5734 C 564.725 1.92329 -0.321643 0
M  V30 5735 O 563.995 1.84403 0.661232 0
M  V30 5736 H 562.575 0.45094 -0.595535 0
M  V30 5737 H 565.237 0.535046 -1.87412 0
M  V30 5738 H 564.333 1.95783 -2.43054 0
M  V30 5739 N 564.634 1.40294 0.718013 0
M  V30 5740 C 565.862 1.4175 1.50714 0
M  V30 5741 C 566.277 0.0165366 1.88793 0
M  V30 5742 O 565.634 -0.958942 1.55276 0
M  V30 5743 C 565.685 2.30598 2.784 0
M  V30 5744 O 565.406 3.6524 2.41932 0
M  V30 5745 C 566.907 2.4062 3.72313 0
M  V30 5746 H 564.127 0.483565 0.465194 0
M  V30 5747 H 566.671 1.84316 0.885889 0
M  V30 5748 H 564.826 1.91401 3.36815 0
M  V30 5749 H 565.24 4.12402 3.24076 0
M  V30 5750 H 566.714 3.07001 4.58753 0
M  V30 5751 H 567.191 1.4305 4.15251 0
M  V30 5752 H 567.797 2.80359 3.19811 0
M  V30 5753 N 566.112 -0.949982 1.2575 0
M  V30 5754 C 567.337 -1.73503 1.13628 0
M  V30 5755 C 567.762 -1.85601 -0.30559 0
M  V30 5756 O 567.12 -1.33984 -1.22139 0
M  V30 5757 C 567.168 -3.1243 1.80055 0
M  V30 5758 O 566.272 -3.97916 1.08336 0
M  V30 5759 H 565.613 -0.532665 0.396439 0
M  V30 5760 H 568.143 -1.19043 1.66403 0
M  V30 5761 H 568.153 -3.62866 1.86527 0
M  V30 5762 H 566.828 -3.02941 2.84956 0
M  V30 5763 H 565.405 -3.56375 1.09777 0
M  V30 5764 N 567.59 -1.07411 -1.15328 0
M  V30 5765 C 568.553 -0.698914 -2.18284 0
M  V30 5766 C 569.553 0.261149 -1.58665 0
M  V30 5767 O 570.743 0.0420277 -1.74149 0
M  V30 5768 C 567.875 -0.0302427 -3.40887 0
M  V30 5769 H 569.068 -1.61045 -2.52991 0
M  V30 5770 H 566.621 -0.870724 -1.298 0
M  V30 5771 H 567.356 0.893505 -3.11748 0
M  V30 5772 H 567.141 -0.720759 -3.85419 0
M  V30 5773 H 568.631 0.21759 -4.17033 0
M  V30 5774 N 569.068 1.32177 -0.85831 0
M  V30 5775 C 570.031 2.27086 -0.310588 0
M  V30 5776 C 571.031 1.51751 0.531806 0
M  V30 5777 O 572.221 1.70794 0.34279 0
M  V30 5778 C 569.353 3.36266 0.560179 0
M  V30 5779 H 570.546 2.77045 -1.1483 0
M  V30 5780 H 568.099 1.42911 -0.632942 0
M  V30 5781 H 568.834 2.9158 1.41956 0
M  V30 5782 H 568.619 3.92077 -0.0428473 0
M  V30 5783 H 570.109 4.06974 0.936056 0
M  V30 5784 N 570.547 0.616602 1.45037 0
M  V30 5785 C 571.51 -0.0871112 2.29034 0
M  V30 5786 C 572.51 -0.786414 1.40258 0
M  V30 5787 O 573.7 -0.633207 1.62284 0
M  V30 5788 C 570.832 -1.13369 3.21497 0
M  V30 5789 H 572.025 0.651497 2.92738 0
M  V30 5790 H 569.578 0.376058 1.51709 0
M  V30 5791 H 570.313 -1.90277 2.62612 0
M  V30 5792 H 570.098 -0.636358 3.86902 0
M  V30 5793 H 571.588 -1.62627 3.84633 0
M  V30 5794 N 572.025 -1.5352 0.356285 0
M  V30 5795 C 573.436 -1.86282 -0.12492 0
M  V30 5796 C 573.787 -1.27717 -1.48939 0
M  V30 5797 O 572.912 -0.595614 -2.08042 0
M  V30 5798 C 573.507 -3.37995 -0.23345 0
M  V30 5799 C 572.066 -3.70588 -0.658899 0
M  V30 5800 C 571.213 -2.76581 0.199596 0
M  V30 5801 H 574.164 -1.47901 0.575423 0
M  V30 5802 H 574.185 -3.65475 -1.0587 0
M  V30 5803 H 573.697 -3.8059 0.759776 0
M  V30 5804 H 571.798 -3.33544 -1.66069 0
M  V30 5805 H 571.911 -4.77076 -0.439957 0
M  V30 5806 H 570.275 -2.52552 -0.330076 0
M  V30 5807 H 571.058 -3.22008 1.19019 0
M  V30 5808 N 573.503 -0.0852151 -1.57369 0
M  V30 5809 C 574.413 0.891712 -2.16992 0
M  V30 5810 C 575.429 1.3174 -1.13669 0
M  V30 5811 O 576.605 1.38735 -1.45995 0
M  V30 5812 C 573.67 2.13635 -2.73059 0
M  V30 5813 C 572.731 1.7658 -3.91303 0
M  V30 5814 C 571.964 2.95111 -4.44686 0
M  V30 5815 O 572.187 4.09539 -3.97032 0
M  V30 5816 O 571.121 2.74149 -5.35841 0
M  V30 5817 H 574.947 0.414477 -3.00858 0
M  V30 5818 H 572.532 0.138598 -1.48756 0
M  V30 5819 H 574.414 2.86595 -3.08935 0
M  V30 5820 H 573.089 2.6043 -1.92244 0
M  V30 5821 H 571.996 1.00831 -3.60255 0
M  V30 5822 H 573.329 1.34557 -4.7345 0
M  V30 5823 N 574.981 1.5647 0.188427 0
M  V30 5824 C 575.944 1.9421 1.21718 0
M  V30 5825 C 576.944 0.823901 1.38089 0
M  V30 5826 O 578.134 1.09122 1.35787 0
M  V30 5827 C 575.266 2.22197 2.58537 0
M  V30 5828 H 576.459 2.86252 0.894418 0
M  V30 5829 H 574.012 1.50263 0.430211 0
M  V30 5830 H 574.747 1.32814 2.95856 0
M  V30 5831 H 574.532 3.03688 2.48025 0
M  V30 5832 H 576.022 2.52376 3.3271 0
M  V30 5833 N 576.459 -0.456382 1.50847 0
M  V30 5834 C 577.422 -1.53493 1.70213 0
M  V30 5835 C 578.422 -1.50264 0.572481 0
M  V30 5836 O 579.612 -1.52623 0.839751 0
M  V30 5837 C 576.744 -2.93091 1.741 0
M  V30 5838 H 577.937 -1.37633 2.66453 0
M  V30 5839 H 575.49 -0.683776 1.4055 0
M  V30 5840 H 576.225 -3.14378 0.796063 0
M  V30 5841 H 576.01 -2.9684 2.5618 0
M  V30 5842 H 577.5 -3.71368 1.90987 0
M  V30 5843 N 577.937 -1.40673 -0.710563 0
M  V30 5844 C 579.185 -1.38947 -1.46759 0
M  V30 5845 C 579.506 0.00572879 -1.94999 0
M  V30 5846 O 578.776 0.961358 -1.70689 0
M  V30 5847 H 577.356 -0.5114 -0.544499 0
M  V30 5848 H 580.018 -1.75773 -0.842012 0
M  V30 5849 H 579.114 -2.06745 -2.33801 0
M  V30 5850 N 579.415 0.9433 -1.26252 0
M  V30 5851 C 580.661 1.69175 -1.11837 0
M  V30 5852 C 580.994 1.91238 0.337891 0
M  V30 5853 O 580.269 1.49152 1.24836 0
M  V30 5854 C 580.552 3.06783 -1.88563 0
M  V30 5855 C 580.405 2.9206 -3.42083 0
M  V30 5856 C 581.724 4.06865 -1.67776 0
M  V30 5857 H 578.843 0.61399 -0.407658 0
M  V30 5858 H 581.485 1.09572 -1.55222 0
M  V30 5859 H 579.635 3.57663 -1.51689 0
M  V30 5860 H 581.307 2.48419 -3.88698 0
M  V30 5861 H 579.55 2.27731 -3.69217 0
M  V30 5862 H 580.221 3.89651 -3.90994 0
M  V30 5863 H 582.697 3.64939 -1.99897 0
M  V30 5864 H 581.573 5.01168 -2.23879 0
M  V30 5865 H 581.834 4.37705 -0.621816 0
M  V30 5866 N 580.893 1.08022 1.14757 0
M  V30 5867 C 582.14 0.807509 1.85703 0
M  V30 5868 C 582.468 -0.666617 1.8272 0
M  V30 5869 O 581.723 -1.50562 1.25018 0
M  V30 5870 C 582.022 1.26964 3.34088 0
M  V30 5871 C 581.688 2.7509 3.57262 0
M  V30 5872 C 580.35 3.15547 3.63296 0
M  V30 5873 C 582.702 3.70667 3.66409 0
M  V30 5874 C 580.03 4.50384 3.75994 0
M  V30 5875 C 582.382 5.05274 3.80632 0
M  V30 5876 C 581.046 5.45342 3.84913 0
M  V30 5877 H 580.316 0.295488 0.679535 0
M  V30 5878 H 582.963 1.35245 1.35577 0
M  V30 5879 H 581.268 0.644216 3.86467 0
M  V30 5880 H 582.965 1.03544 3.87401 0
M  V30 5881 H 579.555 2.42775 3.53212 0
M  V30 5882 H 583.739 3.40533 3.61041 0
M  V30 5883 H 578.995 4.80886 3.77569 0
M  V30 5884 H 583.169 5.79201 3.86652 0
M  V30 5885 H 580.796 6.49823 3.94505 0
M  V30 5886 N 582.371 -1.3172 0.865308 0
M  V30 5887 C 583.334 -2.26918 0.322627 0
M  V30 5888 C 584.334 -1.52031 -0.523751 0
M  V30 5889 O 585.524 -1.70973 -0.333727 0
M  V30 5890 C 582.656 -3.36558 -0.542338 0
M  V30 5891 H 583.849 -2.76432 1.16298 0
M  V30 5892 H 581.402 -1.42573 0.640512 0
M  V30 5893 H 582.137 -2.92329 -1.40407 0
M  V30 5894 H 581.922 -3.92048 0.0636395 0
M  V30 5895 H 583.412 -4.07465 -0.91446 0
M  V30 5896 N 583.85 -0.624285 -1.44708 0
M  V30 5897 C 584.779 0.0717025 -2.3339 0
M  V30 5898 C 585.76 0.841814 -1.47809 0
M  V30 5899 O 586.946 0.809056 -1.76544 0
M  V30 5900 C 584.076 1.05852 -3.30776 0
M  V30 5901 C 583.029 0.400503 -4.26122 0
M  V30 5902 C 582.356 1.49674 -5.13324 0
M  V30 5903 C 583.656 -0.688924 -5.17737 0
M  V30 5904 H 585.35 -0.668819 -2.91834 0
M  V30 5905 H 582.896 -0.32308 -1.40329 0
M  V30 5906 H 584.849 1.5541 -3.91696 0
M  V30 5907 H 583.572 1.82984 -2.70526 0
M  V30 5908 H 582.231 -0.0743687 -3.66525 0
M  V30 5909 H 581.88 2.25877 -4.49431 0
M  V30 5910 H 581.58 1.06188 -5.77926 0
M  V30 5911 H 583.104 1.99427 -5.77115 0
M  V30 5912 H 584.518 -0.276724 -5.72632 0
M  V30 5913 H 582.915 -1.04652 -5.90904 0
M  V30 5914 H 583.985 -1.55884 -4.5916 0
M  V30 5915 N 585.328 1.53329 -0.364422 0
M  V30 5916 C 586.291 2.24323 0.470292 0
M  V30 5917 C 587.291 1.25068 1.01067 0
M  V30 5918 O 588.481 1.49354 0.896605 0
M  V30 5919 C 585.613 2.97908 1.65722 0
M  V30 5920 H 586.806 2.9952 -0.150917 0
M  V30 5921 H 584.359 1.55868 -0.116092 0
M  V30 5922 H 585.094 2.2695 2.31655 0
M  V30 5923 H 584.879 3.70732 1.27671 0
M  V30 5924 H 586.369 3.5188 2.24878 0
M  V30 5925 N 586.806 0.0935595 1.57322 0
M  V30 5926 C 587.736 -0.863062 2.16964 0
M  V30 5927 C 588.717 -1.29528 1.10256 0
M  V30 5928 O 589.902 -1.36245 1.38387 0
M  V30 5929 C 587.032 -2.12276 2.74875 0
M  V30 5930 C 585.986 -1.82921 3.86942 0
M  V30 5931 C 585.312 -3.15707 4.31548 0
M  V30 5932 C 586.612 -1.11737 5.10208 0
M  V30 5933 H 588.306 -0.366145 2.97153 0
M  V30 5934 H 585.852 -0.174673 1.42937 0
M  V30 5935 H 587.805 -2.79634 3.1525 0
M  V30 5936 H 586.529 -2.64248 1.91938 0
M  V30 5937 H 585.188 -1.17961 3.47103 0
M  V30 5938 H 584.836 -3.65563 3.45504 0
M  V30 5939 H 584.536 -2.96849 5.07104 0
M  V30 5940 H 586.06 -3.84226 4.74555 0
M  V30 5941 H 587.474 -1.69203 5.47762 0
M  V30 5942 H 585.871 -1.03064 5.91183 0
M  V30 5943 H 586.941 -0.0998818 4.84797 0
M  V30 5944 N 588.284 -1.56567 -0.180126 0
M  V30 5945 C 589.194 -1.98947 -1.24327 0
M  V30 5946 C 590.21 -0.899446 -1.4895 0
M  V30 5947 O 591.386 -1.20639 -1.61271 0
M  V30 5948 C 588.451 -2.33328 -2.56435 0
M  V30 5949 C 587.512 -3.56114 -2.39752 0
M  V30 5950 C 586.745 -3.88845 -3.65561 0
M  V30 5951 O 586.968 -3.22662 -4.70368 0
M  V30 5952 O 585.902 -4.82226 -3.60197 0
M  V30 5953 H 589.728 -2.89634 -0.913565 0
M  V30 5954 H 587.313 -1.44319 -0.386306 0
M  V30 5955 H 589.195 -2.5645 -3.34382 0
M  V30 5956 H 587.87 -1.45806 -2.89002 0
M  V30 5957 H 586.777 -3.38221 -1.59866 0
M  V30 5958 H 588.11 -4.4415 -2.12113 0
M  V30 5959 N 589.762 0.448376 -1.51087 0
M  V30 5960 C 590.725 1.52588 -1.71025 0
M  V30 5961 C 591.725 1.49958 -0.580442 0
M  V30 5962 O 592.915 1.52176 -0.847833 0
M  V30 5963 C 590.047 2.92163 -1.75652 0
M  V30 5964 H 591.24 1.36218 -2.67179 0
M  V30 5965 H 588.793 0.676313 -1.4091 0
M  V30 5966 H 589.528 3.13951 -0.812724 0
M  V30 5967 H 589.313 2.95478 -2.57751 0
M  V30 5968 H 590.803 3.70349 -1.92953 0
M  V30 5969 N 591.24 1.41047 0.703093 0
M  V30 5970 C 592.188 1.42494 1.83843 0
M  V30 5971 C 593.182 0.303885 1.66652 0
M  V30 5972 O 594.388 0.475544 1.73605 0
M  V30 5973 H 590.763 0.445685 0.605697 0
M  V30 5974 H 592.734 2.38194 1.79739 0
M  V30 5975 C 591.483 1.31666 3.21807 0
M  V30 5976 H 590.806 2.17212 3.35647 0
M  V30 5977 H 592.246 1.36738 4.01346 0
M  V30 5978 C 590.705 0.0281828 3.36888 0
M  V30 5979 O 591.235 -0.929995 3.90786 0
M  V30 5980 N 589.441 -0.0454322 2.90564 0
M  V30 5981 H 588.988 0.735046 2.4689 0
M  V30 5982 H 588.946 -0.906968 3.01034 0
M  V30 5983 N 592.718 -0.936591 1.26751 0
M  V30 5984 C 593.648 -2.05315 1.11212 0
M  V30 5985 C 594.629 -1.70092 0.0160262 0
M  V30 5986 O 595.814 -1.93279 0.188894 0
M  V30 5987 C 592.944 -3.39123 0.749171 0
M  V30 5988 C 591.898 -3.88425 1.79751 0
M  V30 5989 C 591.224 -5.18936 1.28876 0
M  V30 5990 C 592.524 -4.12798 3.19992 0
M  V30 5991 H 594.218 -2.18573 2.04613 0
M  V30 5992 H 591.764 -1.05027 0.985159 0
M  V30 5993 H 593.717 -4.16704 0.627323 0
M  V30 5994 H 592.441 -3.25855 -0.220543 0
M  V30 5995 H 591.1 -3.13028 1.90811 0
M  V30 5996 H 590.748 -5.02051 0.308757 0
M  V30 5997 H 590.448 -5.52892 1.98958 0
M  V30 5998 H 591.972 -5.99096 1.17967 0
M  V30 5999 H 593.386 -4.80977 3.11983 0
M  V30 6000 H 591.783 -4.58044 3.87705 0
M  V30 6001 H 592.853 -3.18412 3.65707 0
M  V30 6002 N 594.196 -1.08629 -1.14182 0
M  V30 6003 C 595.444 -0.815731 -1.84906 0
M  V30 6004 C 595.765 0.660441 -1.83475 0
M  V30 6005 O 595.035 1.47888 -1.28476 0
M  V30 6006 H 593.615 -0.298773 -0.684648 0
M  V30 6007 H 596.277 -1.37274 -1.38354 0
M  V30 6008 H 595.373 -1.16193 -2.89665 0
M  V30 6009 N 595.674 1.31259 -0.872281 0
M  V30 6010 C 596.604 2.30929 -0.345554 0
M  V30 6011 C 597.585 1.60449 0.5648 0
M  V30 6012 O 598.77 1.8814 0.481335 0
M  V30 6013 C 595.9 3.44348 0.451823 0
M  V30 6014 C 594.854 4.26435 -0.365641 0
M  V30 6015 C 594.18 5.31785 0.557562 0
M  V30 6016 C 595.48 4.97159 -1.60095 0
M  V30 6017 H 597.174 2.75234 -1.17841 0
M  V30 6018 H 594.72 1.3232 -0.568094 0
M  V30 6019 H 596.673 4.13128 0.830854 0
M  V30 6020 H 595.397 2.98816 1.31821 0
M  V30 6021 H 594.056 3.59326 -0.726649 0
M  V30 6022 H 593.704 4.82502 1.4213 0
M  V30 6023 H 593.404 5.87598 0.0144878 0
M  V30 6024 H 594.928 6.03424 0.933387 0
M  V30 6025 H 596.342 5.58523 -1.29323 0
M  V30 6026 H 594.739 5.62779 -2.08327 0
M  V30 6027 H 595.809 4.24012 -2.35249 0
M  V30 6028 N 597.152 0.631951 1.44375 0
M  V30 6029 C 598.38 0.143867 2.06399 0
M  V30 6030 C 598.795 -1.18188 1.47231 0
M  V30 6031 O 598.152 -1.72511 0.595498 0
M  V30 6032 C 598.203 0.0238253 3.61492 0
M  V30 6033 O 597.924 1.29715 4.18456 0
M  V30 6034 C 599.425 -0.492856 4.40552 0
M  V30 6035 H 596.645 0.0800542 0.666207 0
M  V30 6036 H 599.189 0.866586 1.85231 0
M  V30 6037 H 597.344 -0.649338 3.81919 0
M  V30 6038 H 597.758 1.14252 5.11905 0
M  V30 6039 H 599.232 -0.525861 5.49489 0
M  V30 6040 H 599.709 -1.52006 4.12057 0
M  V30 6041 H 600.315 0.147085 4.25046 0
M  V30 6042 N 598.631 -1.53133 0.372548 0
M  V30 6043 C 599.877 -2.02336 -0.207823 0
M  V30 6044 C 600.232 -1.25477 -1.45853 0
M  V30 6045 O 599.525 -0.341971 -1.88524 0
M  V30 6046 C 599.719 -3.53206 -0.545938 0
M  V30 6047 C 599.548 -4.44674 0.670454 0
M  V30 6048 C 598.318 -4.91217 1.18465 0
M  V30 6049 C 600.516 -4.90772 1.53777 0
M  V30 6050 N 598.498 -5.66711 2.36034 0
M  V30 6051 C 599.869 -5.64678 2.56004 0
M  V30 6052 C 601.924 -4.72836 1.55983 0
M  V30 6053 C 600.627 -6.22555 3.60303 0
M  V30 6054 C 602.653 -5.31583 2.59179 0
M  V30 6055 C 602.015 -6.05381 3.6013 0
M  V30 6056 H 598.114 -0.781048 -0.0385783 0
M  V30 6057 H 600.698 -1.87665 0.518664 0
M  V30 6058 H 598.869 -3.68024 -1.24149 0
M  V30 6059 H 600.601 -3.89123 -1.112 0
M  V30 6060 H 597.356 -4.67652 0.748205 0
M  V30 6061 H 597.78 -6.09117 2.95475 0
M  V30 6062 H 602.422 -4.15299 0.792877 0
M  V30 6063 H 600.14 -6.79183 4.37876 0
M  V30 6064 H 603.726 -5.19595 2.61749 0
M  V30 6065 H 602.606 -6.50028 4.38672 0
M  V30 6066 N 600.109 -0.101901 -1.5727 0
M  V30 6067 C 601.525 0.254739 -1.57554 0
M  V30 6068 C 601.725 1.67937 -1.11352 0
M  V30 6069 O 600.781 2.39722 -0.793081 0
M  V30 6070 C 602.094 0.036975 -3.00677 0
M  V30 6071 C 603.642 0.104199 -3.12827 0
M  V30 6072 C 604.117 -0.0856565 -4.5792 0
M  V30 6073 N 605.608 -0.0310498 -4.6319 0
M  V30 6074 C 606.343 -0.153099 -5.73196 0
M  V30 6075 N 605.839 -0.330364 -6.92012 0
M  V30 6076 N 607.632 -0.0938854 -5.62022 0
M  V30 6077 H 599.783 -1.03263 -1.85609 0
M  V30 6078 H 602.046 -0.405251 -0.857016 0
M  V30 6079 H 601.752 -0.947254 -3.38703 0
M  V30 6080 H 601.626 0.776335 -3.69124 0
M  V30 6081 H 604.013 1.07894 -2.74669 0
M  V30 6082 H 604.094 -0.666762 -2.46957 0
M  V30 6083 H 603.738 -1.05729 -4.96773 0
M  V30 6084 H 603.668 0.705082 -5.21858 0
M  V30 6085 H 606.159 0.103141 -3.77759 0
M  V30 6086 H 606.472 -0.41482 -7.71686 0
M  V30 6087 H 604.817 -0.366119 -6.94035 0
M  V30 6088 H 608.008 0.0435168 -4.6808 0
M  V30 6089 H 608.181 -0.19245 -6.47714 0
M  V30 6090 N 601.587 1.56661 0.17182 0
M  V30 6091 C 602.864 1.72838 0.915778 0
M  V30 6092 C 603.244 0.66316 2.00413 0
M  V30 6093 O 602.592 -0.322123 2.26218 0
M  V30 6094 C 602.802 3.16019 1.48097 0
M  V30 6095 C 604.15 3.76962 1.95408 0
M  V30 6096 O 605.174 3.19294 1.57892 0
M  V30 6097 O 604.033 4.78219 2.64516 0
M  V30 6098 H 601.127 0.705797 0.431021 0
M  V30 6099 H 603.673 1.68947 0.159689 0
M  V30 6100 H 602.445 3.85031 0.697618 0
M  V30 6101 H 602.068 3.24234 2.30126 0
M  V30 6102 N 603.065 -0.440357 1.51323 0
M  V30 6103 C 603.998 -1.55414 1.67098 0
M  V30 6104 C 604.976 -1.54108 0.518599 0
M  V30 6105 O 606.16 -1.7328 0.742054 0
M  V30 6106 C 603.287 -2.93996 1.68179 0
M  V30 6107 C 602.333 -3.13338 2.89347 0
M  V30 6108 S 603.166 -2.89957 4.50206 0
M  V30 6109 C 604.322 -4.30826 4.54027 0
M  V30 6110 H 604.555 -1.41798 2.61306 0
M  V30 6111 H 602.088 -0.629841 1.40969 0
M  V30 6112 H 604.046 -3.73878 1.69487 0
M  V30 6113 H 602.707 -3.04976 0.751542 0
M  V30 6114 H 601.9 -4.14652 2.86495 0
M  V30 6115 H 601.502 -2.41276 2.85766 0
M  V30 6116 H 603.794 -5.23977 4.29481 0
M  V30 6117 H 604.737 -4.38712 5.55822 0
M  V30 6118 H 605.145 -4.1434 3.83384 0
M  V30 6119 N 604.543 -1.41418 -0.695603 0
M  V30 6120 C 605.475 -1.39195 -1.82092 0
M  V30 6121 C 606.488 -0.294132 -1.60121 0
M  V30 6122 O 607.677 -0.555854 -1.69625 0
M  V30 6123 C 604.777 -1.14828 -3.18854 0
M  V30 6124 C 603.95 -2.36649 -3.67853 0
M  V30 6125 C 603.009 -2.08139 -4.83285 0
M  V30 6126 O 602.035 -2.81177 -4.94902 0
M  V30 6127 N 603.237 -1.07162 -5.70523 0
M  V30 6128 H 606.002 -2.36185 -1.84491 0
M  V30 6129 H 603.563 -1.3603 -0.877923 0
M  V30 6130 H 605.555 -0.937075 -3.93702 0
M  V30 6131 H 604.125 -0.264358 -3.1148 0
M  V30 6132 H 603.345 -2.73472 -2.83913 0
M  V30 6133 H 604.633 -3.17816 -3.97329 0
M  V30 6134 H 604.031 -0.467124 -5.63768 0
M  V30 6135 H 602.588 -0.920311 -6.4527 0
M  V30 6136 N 606.021 0.929856 -1.27246 0
M  V30 6137 C 606.971 2.01629 -1.06442 0
M  V30 6138 C 607.955 1.60899 0.00687842 0
M  V30 6139 O 609.147 1.75733 -0.211407 0
M  V30 6140 C 606.276 3.35849 -0.711361 0
M  V30 6141 C 605.362 3.8303 -1.82069 0
M  V30 6142 N 605.753 4.02743 -3.05993 0
M  V30 6143 C 604.051 4.12046 -1.70687 0
M  V30 6144 C 604.752 4.42001 -3.78167 0
M  V30 6145 N 603.728 4.4935 -3.05918 0
M  V30 6146 H 607.53 2.14898 -2.00489 0
M  V30 6147 H 605.044 1.11654 -1.17929 0
M  V30 6148 H 607.041 4.13343 -0.543442 0
M  V30 6149 H 605.701 3.23944 0.221517 0
M  V30 6150 H 606.712 3.89112 -3.41778 0
M  V30 6151 H 603.389 4.08866 -0.844681 0
M  V30 6152 H 604.779 4.6535 -4.84664 0
M  V30 6153 N 607.499 1.09233 1.13605 0
M  V30 6154 C 608.429 0.751738 2.21068 0
M  V30 6155 C 609.41 -0.269688 1.67948 0
M  V30 6156 O 610.595 -0.13819 1.93708 0
M  V30 6157 C 607.725 0.16935 3.46887 0
M  V30 6158 C 606.679 1.12007 4.13084 0
M  V30 6159 C 606.005 0.399483 5.33206 0
M  V30 6160 C 607.305 2.46168 4.6065 0
M  V30 6161 H 608.999 1.65024 2.49815 0
M  V30 6162 H 606.545 0.794905 1.20072 0
M  V30 6163 H 608.498 -0.0809824 4.21322 0
M  V30 6164 H 607.222 -0.764335 3.1753 0
M  V30 6165 H 605.881 1.35564 3.40614 0
M  V30 6166 H 605.529 -0.538277 5.00112 0
M  V30 6167 H 605.229 1.03337 5.78442 0
M  V30 6168 H 606.753 0.157403 6.10397 0
M  V30 6169 H 608.167 2.26829 5.26518 0
M  V30 6170 H 606.564 3.05326 5.1662 0
M  V30 6171 H 607.634 3.07076 3.75276 0
M  V30 6172 N 608.977 -1.30795 0.87923 0
M  V30 6173 C 610.205 -2.00527 0.509548 0
M  V30 6174 C 610.62 -1.65944 -0.90045 0
M  V30 6175 O 609.977 -0.893525 -1.5913 0
M  V30 6176 C 610.028 -3.55276 0.667943 0
M  V30 6177 O 609.749 -3.88625 2.02242 0
M  V30 6178 C 611.25 -4.4228 0.300494 0
M  V30 6179 H 608.47 -0.641261 0.197549 0
M  V30 6180 H 611.014 -1.66813 1.18295 0
M  V30 6181 H 609.169 -3.87377 0.0419843 0
M  V30 6182 H 609.583 -4.83334 2.03688 0
M  V30 6183 H 611.057 -5.50061 0.462242 0
M  V30 6184 H 611.534 -4.32556 -0.76106 0
M  V30 6185 H 612.14 -4.15613 0.902536 0
M  V30 6186 N 610.455 -0.639598 -1.44038 0
M  V30 6187 C 611.701 -0.147698 -2.02261 0
M  V30 6188 C 612.034 1.23031 -1.50256 0
M  V30 6189 O 611.309 1.81847 -0.690068 0
M  V30 6190 C 611.592 -0.14362 -3.59813 0
M  V30 6191 C 611.445 -1.55458 -4.22082 0
M  V30 6192 C 612.764 0.527317 -4.36929 0
M  V30 6193 H 609.883 -0.0551453 -0.734934 0
M  V30 6194 H 612.525 -0.817688 -1.71505 0
M  V30 6195 H 610.675 0.426898 -3.86147 0
M  V30 6196 H 612.347 -2.17464 -4.06826 0
M  V30 6197 H 610.59 -2.10594 -3.79253 0
M  V30 6198 H 611.261 -1.50369 -5.31124 0
M  V30 6199 H 613.737 0.0420504 -4.16079 0
M  V30 6200 H 612.613 0.499389 -5.46624 0
M  V30 6201 H 612.874 1.59914 -4.12165 0
M  V30 6202 N 611.933 1.52934 -0.380664 0
M  V30 6203 C 612.863 2.29118 0.450268 0
M  V30 6204 C 613.844 1.32153 1.07096 0
M  V30 6205 O 615.029 1.61038 1.08537 0
M  V30 6206 C 612.159 3.09161 1.58231 0
M  V30 6207 C 611.113 4.13938 1.0881 0
M  V30 6208 C 610.439 4.82153 2.31155 0
M  V30 6209 C 611.739 5.22048 0.162146 0
M  V30 6210 H 613.433 2.98826 -0.185361 0
M  V30 6211 H 610.979 1.43715 -0.0905886 0
M  V30 6212 H 612.932 3.61211 2.17036 0
M  V30 6213 H 611.656 2.3717 2.2454 0
M  V30 6214 H 610.315 3.62855 0.522633 0
M  V30 6215 H 609.963 4.06719 2.95953 0
M  V30 6216 H 609.663 5.52966 1.98752 0
M  V30 6217 H 611.187 5.37004 2.90618 0
M  V30 6218 H 612.601 5.6951 0.658126 0
M  V30 6219 H 610.998 6.00057 -0.0717122 0
M  V30 6220 H 612.068 4.78398 -0.791438 0
M  V30 6221 N 613.412 0.11024 1.57214 0
M  V30 6222 C 614.64 -0.557834 1.99238 0
M  V30 6223 C 615.055 -1.60778 0.989734 0
M  V30 6224 O 614.412 -1.82491 -0.0186092 0
M  V30 6225 C 614.463 -1.19189 3.41286 0
M  V30 6226 O 614.184 -0.183919 4.37714 0
M  V30 6227 C 615.685 -1.94413 3.98395 0
M  V30 6228 H 612.905 -0.148392 0.654386 0
M  V30 6229 H 615.449 0.193996 2.03578 0
M  V30 6230 H 613.604 -1.89456 3.37913 0
M  V30 6231 H 614.018 -0.643475 5.20538 0
M  V30 6232 H 615.492 -2.34116 4.99894 0
M  V30 6233 H 615.969 -2.81592 3.3705 0
M  V30 6234 H 616.575 -1.28928 4.05287 0
M  V30 6235 N 614.89 -1.56749 -0.16351 0
M  V30 6236 C 616.115 -1.86938 -0.898264 0
M  V30 6237 C 616.54 -0.697456 -1.74692 0
M  V30 6238 O 615.898 0.353327 -1.77824 0
M  V30 6239 C 615.946 -3.15599 -1.74441 0
M  V30 6240 O 615.05 -2.98371 -2.8469 0
M  V30 6241 H 614.391 -0.614659 -0.251178 0
M  V30 6242 H 616.921 -2.03979 -0.159298 0
M  V30 6243 H 616.931 -3.47202 -2.14277 0
M  V30 6244 H 615.606 -4.00505 -1.1211 0
M  V30 6245 H 614.183 -2.7814 -2.4838 0
M  V30 6246 N 616.368 0.432326 -1.51554 0
M  V30 6247 C 617.315 1.52512 -1.7323 0
M  V30 6248 C 618.285 1.55863 -0.5741 0
M  V30 6249 O 619.47 1.72796 -0.809093 0
M  V30 6250 C 616.61 2.90183 -1.86783 0
M  V30 6251 C 615.723 2.96322 -3.14352 0
M  V30 6252 C 614.858 4.25147 -3.18471 0
M  V30 6253 C 613.897 4.25172 -4.40335 0
M  V30 6254 N 613.034 5.45529 -4.41975 0
M  V30 6255 H 617.874 1.33332 -2.66508 0
M  V30 6256 H 615.411 0.647613 -1.32077 0
M  V30 6257 H 617.369 3.70071 -1.92623 0
M  V30 6258 H 615.999 3.0791 -0.969087 0
M  V30 6259 H 615.051 2.09066 -3.17798 0
M  V30 6260 H 616.363 2.92203 -4.04251 0
M  V30 6261 H 615.517 5.13411 -3.23255 0
M  V30 6262 H 614.256 4.31929 -2.2647 0
M  V30 6263 H 613.261 3.353 -4.35723 0
M  V30 6264 H 614.486 4.20049 -5.33606 0
M  V30 6265 H 612.432 5.53024 -3.52847 0
M  V30 6266 H 612.349 5.43311 -5.25689 0
M  V30 6267 H 613.617 6.35812 -4.50958 0
M  V30 6268 N 617.846 1.41785 0.688094 0
M  V30 6269 C 619.262 1.24419 0.999608 0
M  V30 6270 C 619.462 0.138868 2.01021 0
M  V30 6271 O 618.518 -0.494283 2.47615 0
M  V30 6272 C 619.831 2.59625 1.51709 0
M  V30 6273 C 621.379 2.66869 1.63554 0
M  V30 6274 C 621.854 4.0241 2.18702 0
M  V30 6275 N 623.345 4.04295 2.26053 0
M  V30 6276 C 624.08 5.05977 2.69768 0
M  V30 6277 N 623.576 6.18047 3.13033 0
M  V30 6278 N 625.369 4.93336 2.69398 0
M  V30 6279 H 617.52 2.12392 0.0187427 0
M  V30 6280 H 619.783 0.945347 0.0708673 0
M  V30 6281 H 619.489 3.41297 0.849059 0
M  V30 6282 H 619.363 2.82628 2.49803 0
M  V30 6283 H 621.75 1.8555 2.29467 0
M  V30 6284 H 621.831 2.47668 0.639857 0
M  V30 6285 H 621.475 4.8418 1.53402 0
M  V30 6286 H 621.405 4.18955 3.19037 0
M  V30 6287 H 623.896 3.23383 1.9553 0
M  V30 6288 H 624.209 6.91498 3.45038 0
M  V30 6289 H 622.554 6.21572 3.10923 0
M  V30 6290 H 625.745 4.04865 2.34952 0
M  V30 6291 H 625.918 5.72717 3.03148 0
M  V30 6292 N 619.324 -0.923095 1.27737 0
M  V30 6293 C 620.272 -2.04567 1.10703 0
M  V30 6294 C 621.266 -1.69375 0.0288445 0
M  V30 6295 O 622.472 -1.79027 0.186913 0
M  V30 6296 H 618.847 -0.670109 0.34126 0
M  V30 6297 H 620.818 -2.1608 2.05796 0
M  V30 6298 C 619.567 -3.38934 0.775837 0
M  V30 6299 H 618.89 -3.66501 1.59741 0
M  V30 6300 H 620.33 -4.18239 0.696548 0
M  V30 6301 C 618.789 -3.32863 -0.520012 0
M  V30 6302 O 619.319 -3.70462 -1.55308 0
M  V30 6303 N 617.525 -2.85958 -0.51732 0
M  V30 6304 H 617.072 -2.55557 0.32379 0
M  V30 6305 H 617.03 -2.82279 -1.38441 0
M  V30 6306 N 620.802 -1.09834 -1.13024 0
M  V30 6307 C 621.734 -0.699379 -2.18269 0
M  V30 6308 C 622.747 0.260841 -1.60697 0
M  V30 6309 O 623.936 0.0462538 -1.7844 0
M  V30 6310 C 621.036 -0.0104537 -3.38898 0
M  V30 6311 C 620.209 -0.993275 -4.25973 0
M  V30 6312 C 619.268 -0.336982 -5.2512 0
M  V30 6313 O 618.294 -0.985892 -5.60597 0
M  V30 6314 N 619.496 0.90716 -5.73368 0
M  V30 6315 H 622.261 -1.60486 -2.5311 0
M  V30 6316 H 619.822 -0.986337 -1.28386 0
M  V30 6317 H 621.814 0.43991 -4.02302 0
M  V30 6318 H 620.384 0.797335 -3.0226 0
M  V30 6319 H 619.604 -1.62208 -3.5928 0
M  V30 6320 H 620.892 -1.65876 -4.81002 0
M  V30 6321 H 620.29 1.45384 -5.46699 0
M  V30 6322 H 618.847 1.30077 -6.38689 0
M  V30 6323 N 622.28 1.30327 -0.886154 0
M  V30 6324 C 623.21 2.30549 -0.370028 0
M  V30 6325 C 624.191 1.61039 0.547751 0
M  V30 6326 O 625.376 1.8864 0.461353 0
M  V30 6327 C 622.506 3.44808 0.415275 0
M  V30 6328 C 621.46 4.26024 -0.41085 0
M  V30 6329 C 620.786 5.32347 0.501128 0
M  V30 6330 C 622.086 4.95433 -1.65359 0
M  V30 6331 H 623.78 2.73969 -1.20754 0
M  V30 6332 H 621.326 1.3171 -0.582097 0
M  V30 6333 H 623.279 4.13986 0.78699 0
M  V30 6334 H 622.003 3.00197 1.28644 0
M  V30 6335 H 620.662 3.58535 -0.764719 0
M  V30 6336 H 620.31 4.83982 1.37004 0
M  V30 6337 H 620.01 5.87581 -0.0478356 0
M  V30 6338 H 621.534 6.0438 0.869333 0
M  V30 6339 H 622.948 5.5712 -1.35239 0
M  V30 6340 H 621.345 5.60537 -2.14284 0
M  V30 6341 H 622.415 4.21493 -2.39733 0
M  V30 6342 N 623.758 0.647228 1.43697 0
M  V30 6343 C 624.708 -0.0702191 2.27892 0
M  V30 6344 C 625.692 -0.800601 1.39568 0
M  V30 6345 O 626.884 -0.684055 1.63247 0
M  V30 6346 C 624.013 -1.04008 3.27165 0
M  V30 6347 C 623.099 -0.308484 4.22977 0
M  V30 6348 N 623.49 0.671721 5.0132 0
M  V30 6349 C 621.788 -0.550751 4.42586 0
M  V30 6350 C 622.489 1.10543 5.711 0
M  V30 6351 N 621.465 0.440903 5.41809 0
M  V30 6352 H 625.267 0.682031 2.85877 0
M  V30 6353 H 622.781 0.474022 1.55328 0
M  V30 6354 H 624.778 -1.56881 3.86256 0
M  V30 6355 H 623.438 -1.79246 2.70742 0
M  V30 6356 H 624.449 1.0502 5.0714 0
M  V30 6357 H 621.126 -1.28476 3.97241 0
M  V30 6358 H 622.516 1.91614 6.43998 0
M  V30 6359 N 625.236 -1.5273 0.388769 0
M  V30 6360 C 626.513 -1.93981 -0.251133 0
M  V30 6361 C 626.893 -1.32418 -1.64404 0
M  V30 6362 O 626.241 -0.492074 -2.23139 0
M  V30 6363 C 626.451 -3.47891 -0.27802 0
M  V30 6364 C 627.799 -4.21559 -0.507229 0
M  V30 6365 O 628.823 -3.54394 -0.358252 0
M  V30 6366 O 627.682 -5.40626 -0.799094 0
M  V30 6367 H 624.776 -0.812157 -0.15598 0
M  V30 6368 H 627.322 -1.63809 0.443237 0
M  V30 6369 H 626.094 -3.8503 0.697669 0
M  V30 6370 H 625.717 -3.84364 -1.01733 0
M  V30 6371 N 626.714 -0.118576 -1.57153 0
M  V30 6372 C 627.624 0.845484 -2.18835 0
M  V30 6373 C 628.64 1.29299 -1.16438 0
M  V30 6374 O 629.816 1.35607 -1.48905 0
M  V30 6375 C 626.881 2.07795 -2.77529 0
M  V30 6376 C 625.942 1.6824 -3.9496 0
M  V30 6377 C 625.175 2.85612 -4.50845 0
M  V30 6378 O 625.398 4.01025 -4.05629 0
M  V30 6379 O 624.332 2.62721 -5.41536 0
M  V30 6380 H 628.158 0.350568 -3.0167 0
M  V30 6381 H 625.743 0.107013 -1.49016 0
M  V30 6382 H 627.625 2.79978 -3.14945 0
M  V30 6383 H 626.3 2.56294 -1.97725 0
M  V30 6384 H 625.207 0.931663 -3.62313 0
M  V30 6385 H 626.54 1.24484 -4.76198 0
M  V30 6386 N 628.193 1.56834 0.155195 0
M  V30 6387 C 629.439 1.83169 0.870467 0
M  V30 6388 C 629.772 0.698929 1.81187 0
M  V30 6389 O 629.047 -0.298035 1.92203 0
M  V30 6390 C 629.33 3.19965 1.65211 0
M  V30 6391 C 629.183 4.43792 0.732744 0
M  V30 6392 C 630.502 3.53885 2.61636 0
M  V30 6393 H 627.621 0.666288 0.315006 0
M  V30 6394 H 630.263 1.89513 0.135988 0
M  V30 6395 H 628.413 3.14687 2.27825 0
M  V30 6396 H 630.085 4.61148 0.118236 0
M  V30 6397 H 628.328 4.3378 0.0417906 0
M  V30 6398 H 628.999 5.36095 1.31552 0
M  V30 6399 H 631.475 3.5972 2.09143 0
M  V30 6400 H 630.351 4.50648 3.13381 0
M  V30 6401 H 630.612 2.79418 3.42605 0
M  V30 6402 N 629.671 -0.424282 1.51781 0
M  V30 6403 C 630.621 -1.51464 1.70419 0
M  V30 6404 C 631.605 -1.50911 0.558094 0
M  V30 6405 O 632.797 -1.57143 0.814552 0
M  V30 6406 C 629.926 -2.89539 1.84451 0
M  V30 6407 C 629.012 -2.94798 3.04886 0
M  V30 6408 N 629.403 -2.69778 4.27848 0
M  V30 6409 C 627.701 -3.25962 3.04408 0
M  V30 6410 C 628.402 -2.81216 5.09208 0
M  V30 6411 N 627.378 -3.13447 4.44131 0
M  V30 6412 H 631.18 -1.30892 2.63144 0
M  V30 6413 H 628.694 -0.631783 1.49607 0
M  V30 6414 H 630.691 -3.67998 1.95917 0
M  V30 6415 H 629.351 -3.11121 0.929168 0
M  V30 6416 H 630.362 -2.44458 4.56575 0
M  V30 6417 H 627.039 -3.53236 2.22555 0
M  V30 6418 H 628.429 -2.65715 6.17127 0
M  V30 6419 N 631.149 -1.42148 -0.680565 0
M  V30 6420 C 632.081 -1.41119 -1.80605 0
M  V30 6421 C 633.094 -0.311099 -1.598 0
M  V30 6422 O 634.283 -0.573813 -1.69026 0
M  V30 6423 C 631.383 -1.18204 -3.17618 0
M  V30 6424 C 630.556 -2.40537 -3.65322 0
M  V30 6425 C 629.615 -2.13254 -4.8105 0
M  V30 6426 O 628.641 -2.8641 -4.91892 0
M  V30 6427 N 629.843 -1.13208 -5.69354 0
M  V30 6428 H 632.608 -2.38128 -1.81975 0
M  V30 6429 H 630.169 -1.36953 -0.863446 0
M  V30 6430 H 632.161 -0.97878 -3.92686 0
M  V30 6431 H 630.731 -0.29738 -3.11182 0
M  V30 6432 H 629.951 -2.76468 -2.80996 0
M  V30 6433 H 631.239 -3.22012 -3.93936 0
M  V30 6434 H 630.637 -0.526893 -5.63241 0
M  V30 6435 H 629.194 -0.988699 -6.44258 0
M  V30 6436 N 632.627 0.916307 -1.28225 0
M  V30 6437 C 633.873 1.66794 -1.1641 0
M  V30 6438 C 634.228 1.90278 0.284986 0
M  V30 6439 O 633.521 1.49023 1.20427 0
M  V30 6440 C 633.715 3.03125 -1.8934 0
M  V30 6441 C 633.544 2.92947 -3.41192 0
M  V30 6442 C 632.314 2.9461 -4.10528 0
M  V30 6443 C 634.512 2.7121 -4.36978 0
M  V30 6444 N 632.494 2.74993 -5.48864 0
M  V30 6445 C 633.865 2.60411 -5.6266 0
M  V30 6446 C 635.92 2.56187 -4.26934 0
M  V30 6447 C 634.623 2.3612 -6.79441 0
M  V30 6448 C 636.649 2.33275 -5.43449 0
M  V30 6449 C 636.011 2.23228 -6.68093 0
M  V30 6450 H 632.11 0.616654 -0.480896 0
M  V30 6451 H 634.694 1.08237 -1.61842 0
M  V30 6452 H 632.865 3.59774 -1.46346 0
M  V30 6453 H 634.597 3.67294 -1.69932 0
M  V30 6454 H 631.352 3.0527 -3.62087 0
M  V30 6455 H 631.776 2.68284 -6.21573 0
M  V30 6456 H 636.418 2.62707 -3.31278 0
M  V30 6457 H 634.136 2.28339 -7.75169 0
M  V30 6458 H 637.722 2.22519 -5.37565 0
M  V30 6459 H 636.602 2.05741 -7.5673 0
M  V30 6460 N 634.105 1.10431 1.1244 0
M  V30 6461 C 635.521 0.836096 1.35947 0
M  V30 6462 C 635.721 -0.544475 1.94004 0
M  V30 6463 O 634.777 -1.29735 2.16622 0
M  V30 6464 C 636.09 1.93575 2.30107 0
M  V30 6465 C 637.638 1.9642 2.43697 0
M  V30 6466 C 638.113 3.05559 3.41171 0
M  V30 6467 N 639.604 3.04865 3.48728 0
M  V30 6468 C 640.339 3.85954 4.24061 0
M  V30 6469 N 639.835 4.76977 5.02458 0
M  V30 6470 N 641.628 3.74172 4.19466 0
M  V30 6471 H 633.779 1.9942 0.731124 0
M  V30 6472 H 636.042 0.866607 0.384312 0
M  V30 6473 H 635.748 2.92943 1.94621 0
M  V30 6474 H 635.622 1.8229 3.30227 0
M  V30 6475 H 638.009 0.97685 2.78463 0
M  V30 6476 H 638.09 2.11782 1.43465 0
M  V30 6477 H 637.734 4.04513 3.07135 0
M  V30 6478 H 637.664 2.87438 4.41234 0
M  V30 6479 H 640.155 2.38908 2.92799 0
M  V30 6480 H 640.468 5.35409 5.57277 0
M  V30 6481 H 638.813 4.81006 5.01655 0
M  V30 6482 H 642.004 3.02412 3.57302 0
M  V30 6483 H 642.177 4.37602 4.77921 0
M  V30 6484 N 635.583 -1.29855 0.893053 0
M  V30 6485 C 636.999 -1.48366 0.588199 0
M  V30 6486 C 637.199 -1.81654 -0.872018 0
M  V30 6487 O 636.255 -1.909 -1.65268 0
M  V30 6488 C 637.568 -2.60136 1.5083 0
M  V30 6489 C 639.116 -2.74014 1.51279 0
M  V30 6490 C 639.591 -3.88905 2.41902 0
M  V30 6491 N 641.082 -3.96228 2.39911 0
M  V30 6492 C 641.817 -4.84458 3.06738 0
M  V30 6493 N 641.313 -5.77426 3.8282 0
M  V30 6494 N 643.106 -4.77894 2.95929 0
M  V30 6495 H 635.257 -1.06522 1.83757 0
M  V30 6496 H 637.52 -0.528495 0.787018 0
M  V30 6497 H 637.226 -2.42383 2.54839 0
M  V30 6498 H 637.1 -3.56793 1.22388 0
M  V30 6499 H 639.487 -2.91167 0.480179 0
M  V30 6500 H 639.568 -1.77952 1.83757 0
M  V30 6501 H 639.212 -3.72508 3.45253 0
M  V30 6502 H 639.142 -4.84322 2.06737 0
M  V30 6503 H 641.633 -3.29728 1.84629 0
M  V30 6504 H 641.946 -6.41529 4.30883 0
M  V30 6505 H 640.291 -5.77332 3.86927 0
M  V30 6506 H 643.482 -4.04248 2.36012 0
M  V30 6507 H 643.655 -5.46444 3.48286 0
M  V30 6508 N 637.061 -0.65484 -1.43351 0
M  V30 6509 C 638.009 0.0476784 -2.32551 0
M  V30 6510 C 639.003 0.811403 -1.48703 0
M  V30 6511 O 640.209 0.721621 -1.64902 0
M  V30 6512 H 636.584 0.0342038 -0.751222 0
M  V30 6513 H 638.555 -0.722342 -2.89525 0
M  V30 6514 C 637.304 0.999251 -3.33032 0
M  V30 6515 H 636.627 0.421005 -3.97577 0
M  V30 6516 H 638.067 1.45986 -3.98076 0
M  V30 6517 C 636.526 2.09606 -2.63756 0
M  V30 6518 O 637.056 3.18004 -2.4543 0
M  V30 6519 N 635.262 1.86207 -2.23103 0
M  V30 6520 H 634.809 0.980555 -2.38208 0
M  V30 6521 H 634.767 2.59787 -1.77081 0
M  V30 6522 N 638.539 1.52521 -0.396863 0
M  V30 6523 C 639.787 2.01274 0.182536 0
M  V30 6524 C 640.108 1.28485 1.46685 0
M  V30 6525 O 639.378 0.407134 1.91623 0
M  V30 6526 H 637.958 0.743671 0.0704442 0
M  V30 6527 H 640.62 1.87547 -0.530289 0
M  V30 6528 H 639.716 3.09687 0.387385 0
M  V30 6529 N 640.017 0.126909 1.57088 0
M  V30 6530 C 641.263 -0.529952 1.95753 0
M  V30 6531 C 641.596 -1.65823 1.01077 0
M  V30 6532 O 640.871 -1.94437 0.0494162 0
M  V30 6533 C 641.154 -1.05517 3.44294 0
M  V30 6534 C 641.007 0.0702253 4.49745 0
M  V30 6535 C 642.326 -1.9435 3.94862 0
M  V30 6536 H 639.445 -0.191168 0.711775 0
M  V30 6537 H 642.087 0.204071 1.88901 0
M  V30 6538 H 640.237 -1.68069 3.50264 0
M  V30 6539 H 641.909 0.705834 4.55868 0
M  V30 6540 H 640.152 0.732259 4.27575 0
M  V30 6541 H 640.823 -0.338642 5.5096 0
M  V30 6542 H 643.299 -1.41658 3.91244 0
M  V30 6543 H 642.175 -2.28015 4.993 0
M  V30 6544 H 642.436 -2.87299 3.36024 0
M  V30 6545 N 641.495 -1.56914 -0.146875 0
M  V30 6546 C 642.743 -1.82994 -0.85777 0
M  V30 6547 C 643.064 -0.707814 -1.817 0
M  V30 6548 O 642.334 0.270521 -1.94023 0
M  V30 6549 H 640.914 -0.675106 -0.319751 0
M  V30 6550 H 643.576 -1.9439 -0.140849 0
M  V30 6551 H 642.672 -2.77928 -1.41994 0
M  V30 6552 N 642.974 0.416227 -1.52004 0
M  V30 6553 C 643.904 1.51365 -1.77795 0
M  V30 6554 C 644.885 1.58059 -0.628601 0
M  V30 6555 O 646.07 1.73447 -0.873478 0
M  V30 6556 C 643.2 2.89256 -1.92219 0
M  V30 6557 C 642.154 2.97415 -3.0778 0
M  V30 6558 C 641.48 4.37492 -3.07417 0
M  V30 6559 C 642.78 2.69551 -4.47369 0
M  V30 6560 H 644.474 1.30033 -2.69688 0
M  V30 6561 H 642.02 0.624112 -1.29772 0
M  V30 6562 H 643.973 3.66008 -2.08845 0
M  V30 6563 H 642.697 3.11866 -0.969917 0
M  V30 6564 H 641.356 2.23107 -2.90893 0
M  V30 6565 H 641.004 4.571 -2.09925 0
M  V30 6566 H 640.704 4.43877 -3.85029 0
M  V30 6567 H 642.228 5.16188 -3.26162 0
M  V30 6568 H 643.642 3.36028 -4.64497 0
M  V30 6569 H 642.039 2.87321 -5.26846 0
M  V30 6570 H 643.109 1.65029 -4.55953 0
M  V30 6571 N 644.452 1.42507 0.673017 0
M  V30 6572 C 645.362 1.4853 1.81593 0
M  V30 6573 C 646.378 0.373907 1.69935 0
M  V30 6574 O 647.554 0.625078 1.91454 0
M  V30 6575 C 644.619 1.387 3.17747 0
M  V30 6576 C 643.68 2.60346 3.41348 0
M  V30 6577 C 642.913 2.50975 4.71007 0
M  V30 6578 O 643.136 1.54659 5.49033 0
M  V30 6579 O 642.07 3.41138 4.95892 0
M  V30 6580 H 645.896 2.45001 1.79467 0
M  V30 6581 H 643.481 1.2429 0.82899 0
M  V30 6582 H 645.363 1.35586 3.98992 0
M  V30 6583 H 644.038 0.453555 3.20507 0
M  V30 6584 H 642.945 2.69034 2.59945 0
M  V30 6585 H 644.278 3.52595 3.43421 0
M  V30 6586 N 645.93 -0.909495 1.28709 0
M  V30 6587 C 647.177 -1.65905 1.16111 0
M  V30 6588 C 647.505 -1.92334 -0.289436 0
M  V30 6589 O 646.76 -1.52495 -1.22653 0
M  V30 6590 C 647.059 -3.02117 1.90945 0
M  V30 6591 C 646.725 -2.95332 3.40719 0
M  V30 6592 C 645.387 -2.93189 3.81567 0
M  V30 6593 C 647.739 -2.85264 4.36204 0
M  V30 6594 C 645.067 -2.78784 5.16233 0
M  V30 6595 C 647.419 -2.724 5.70948 0
M  V30 6596 C 646.083 -2.68617 6.11066 0
M  V30 6597 H 645.353 -0.60709 0.42488 0
M  V30 6598 H 648 -1.05932 1.59533 0
M  V30 6599 H 646.305 -3.65901 1.40085 0
M  V30 6600 H 648.002 -3.59026 1.7861 0
M  V30 6601 H 644.592 -2.97797 3.08245 0
M  V30 6602 H 648.776 -2.86005 4.05605 0
M  V30 6603 H 644.032 -2.74254 5.46438 0
M  V30 6604 H 648.206 -2.63579 6.44592 0
M  V30 6605 H 645.833 -2.57213 7.15364 0
M  V30 6606 N 647.408 -1.11026 -1.11852 0
M  V30 6607 C 648.356 -0.759643 -2.19846 0
M  V30 6608 C 649.35 0.246964 -1.6759 0
M  V30 6609 O 650.556 0.106693 -1.79684 0
M  V30 6610 H 646.931 -0.22775 -0.716683 0
M  V30 6611 H 648.902 -1.6792 -2.46669 0
M  V30 6612 C 647.651 -0.214364 -3.47039 0
M  V30 6613 H 646.974 -0.980175 -3.87599 0
M  V30 6614 H 648.414 -0.00717047 -4.23999 0
M  V30 6615 C 646.873 1.05436 -3.19976 0
M  V30 6616 O 647.403 2.13483 -3.40276 0
M  V30 6617 N 645.609 0.975436 -2.7374 0
M  V30 6618 H 645.156 0.0960853 -2.57421 0
M  V30 6619 H 645.114 1.82501 -2.5601 0
M  V30 6620 N 648.886 1.2938 -0.899927 0
M  V30 6621 C 649.836 2.25311 -0.349165 0
M  V30 6622 C 650.82 1.51889 0.530892 0
M  V30 6623 O 652.012 1.73028 0.372872 0
M  V30 6624 C 649.141 3.40696 0.422055 0
M  V30 6625 C 648.227 4.21455 -0.472935 0
M  V30 6626 N 648.618 4.8048 -1.58026 0
M  V30 6627 C 646.916 4.45177 -0.270767 0
M  V30 6628 C 647.617 5.41117 -2.13465 0
M  V30 6629 N 646.593 5.24518 -1.42766 0
M  V30 6630 H 650.395 2.68507 -1.19505 0
M  V30 6631 H 647.909 1.43992 -0.751006 0
M  V30 6632 H 649.906 4.08486 0.833369 0
M  V30 6633 H 648.566 2.99037 1.2652 0
M  V30 6634 H 649.577 4.79257 -1.96299 0
M  V30 6635 H 646.254 4.14071 0.533988 0
M  V30 6636 H 647.644 5.979 -3.06537 0
M  V30 6637 N 650.364 0.662433 1.43002 0
M  V30 6638 C 651.294 -0.00979809 2.33498 0
M  V30 6639 C 652.275 -0.802329 1.49989 0
M  V30 6640 O 653.46 -0.761964 1.78627 0
M  V30 6641 C 650.59 -0.970446 3.33466 0
M  V30 6642 C 649.544 -0.287383 4.27034 0
M  V30 6643 C 648.87 -1.36012 5.17112 0
M  V30 6644 C 650.17 0.82595 5.15728 0
M  V30 6645 H 651.864 0.745959 2.89958 0
M  V30 6646 H 649.41 0.360172 1.39423 0
M  V30 6647 H 651.363 -1.44971 3.95679 0
M  V30 6648 H 650.087 -1.75748 2.75282 0
M  V30 6649 H 648.746 0.17152 3.66199 0
M  V30 6650 H 648.394 -2.13882 4.55262 0
M  V30 6651 H 648.094 -0.908276 5.80538 0
M  V30 6652 H 649.618 -1.84056 5.82199 0
M  V30 6653 H 651.032 0.42845 5.71697 0
M  V30 6654 H 649.429 1.20282 5.87922 0
M  V30 6655 H 650.499 1.68003 4.54866 0
M  V30 6656 N 651.842 -1.52309 0.404946 0
M  V30 6657 C 653.089 -2.01767 -0.1722 0
M  V30 6658 C 653.417 -1.29075 -1.45498 0
M  V30 6659 O 652.672 -0.3843 -1.9189 0
M  V30 6660 C 652.971 -3.54284 -0.470895 0
M  V30 6661 C 652.637 -4.45079 0.722194 0
M  V30 6662 C 651.299 -4.69617 1.04946 0
M  V30 6663 C 653.651 -4.98555 1.51962 0
M  V30 6664 C 650.979 -5.44878 2.17543 0
M  V30 6665 C 653.331 -5.75049 2.63632 0
M  V30 6666 C 651.995 -5.9786 2.9685 0
M  V30 6667 H 651.265 -0.738316 -0.0630125 0
M  V30 6668 H 653.912 -1.83566 0.545506 0
M  V30 6669 H 652.217 -3.70642 -1.27012 0
M  V30 6670 H 653.914 -3.90058 -0.930346 0
M  V30 6671 H 650.504 -4.26155 0.457131 0
M  V30 6672 H 654.688 -4.79509 1.28002 0
M  V30 6673 H 649.944 -5.60762 2.43631 0
M  V30 6674 H 654.118 -6.15483 3.25813 0
M  V30 6675 H 651.745 -6.5596 3.84215 0
M  V30 6676 N 653.32 -0.135238 -1.57019 0
M  V30 6677 C 654.568 0.51777 -1.95355 0
M  V30 6678 C 654.889 1.6617 -1.02042 0
M  V30 6679 O 654.159 1.95738 -0.0797343 0
M  V30 6680 H 652.739 0.194264 -0.721298 0
M  V30 6681 H 655.401 -0.207983 -1.93787 0
M  V30 6682 H 654.497 0.901675 -2.98791 0
M  V30 6683 N 654.798 1.5699 0.138552 0
M  V30 6684 C 656.028 1.87704 0.863184 0
M  V30 6685 C 656.436 0.722411 1.74865 0
M  V30 6686 O 655.779 -0.316636 1.80951 0
M  V30 6687 C 655.841 3.13219 1.76449 0
M  V30 6688 C 655.505 4.44648 1.05532 0
M  V30 6689 C 656.502 5.18318 0.405252 0
M  V30 6690 C 654.187 4.91367 1.04231 0
M  V30 6691 C 656.181 6.36916 -0.24835 0
M  V30 6692 C 653.868 6.09887 0.384904 0
M  V30 6693 C 654.866 6.82508 -0.259292 0
M  V30 6694 O 654.554 7.98775 -0.906258 0
M  V30 6695 H 654.286 0.626255 0.254521 0
M  V30 6696 H 656.84 2.04966 0.133472 0
M  V30 6697 H 655.07 2.91988 2.53535 0
M  V30 6698 H 656.759 3.30111 2.36181 0
M  V30 6699 H 657.525 4.83289 0.407053 0
M  V30 6700 H 653.404 4.34759 1.53315 0
M  V30 6701 H 656.948 6.93538 -0.751755 0
M  V30 6702 H 652.845 6.44376 0.380799 0
M  V30 6703 H 653.613 8.14494 -0.80877 0
M  V30 6704 N 656.276 -0.40816 1.52223 0
M  V30 6705 C 657.524 -1.15274 1.66001 0
M  V30 6706 C 657.845 -1.91003 0.392803 0
M  V30 6707 O 657.115 -1.8673 -0.592336 0
M  V30 6708 H 655.695 -0.428526 0.611861 0
M  V30 6709 H 658.357 -0.46512 1.89269 0
M  V30 6710 H 657.453 -1.86628 2.50153 0
M  V30 6711 N 657.755 -1.42862 -0.66545 0
M  V30 6712 C 659.001 -1.44043 -1.42757 0
M  V30 6713 C 659.334 -0.0599629 -1.94107 0
M  V30 6714 O 658.609 0.917286 -1.71511 0
M  V30 6715 C 658.892 -2.47266 -2.61786 0
M  V30 6716 C 658.745 -3.94539 -2.16007 0
M  V30 6717 C 660.064 -2.47365 -3.64003 0
M  V30 6718 H 657.183 -0.524506 -0.517748 0
M  V30 6719 H 659.825 -1.74335 -0.755466 0
M  V30 6720 H 657.975 -2.21565 -3.19126 0
M  V30 6721 H 659.647 -4.31254 -1.63762 0
M  V30 6722 H 657.89 -4.07957 -1.47491 0
M  V30 6723 H 658.561 -4.62357 -3.01546 0
M  V30 6724 H 661.037 -2.70243 -3.16399 0
M  V30 6725 H 659.913 -3.21552 -4.44854 0
M  V30 6726 H 660.174 -1.50299 -4.15767 0
M  V30 6727 N 659.233 0.902656 -1.29189 0
M  V30 6728 C 660.163 2.02294 -1.16616 0
M  V30 6729 C 661.144 1.6999 -0.0611175 0
M  V30 6730 O 662.329 1.9271 -0.240072 0
M  V30 6731 C 659.459 3.37018 -0.83882 0
M  V30 6732 C 658.413 3.83522 -1.89986 0
M  V30 6733 C 657.739 5.15337 -1.42589 0
M  V30 6734 C 659.039 4.04169 -3.30824 0
M  V30 6735 H 660.733 2.13071 -2.10336 0
M  V30 6736 H 658.279 1.02378 -1.01266 0
M  V30 6737 H 660.232 4.14895 -0.737584 0
M  V30 6738 H 658.956 3.26325 0.134071 0
M  V30 6739 H 657.615 3.07859 -1.99043 0
M  V30 6740 H 657.263 5.01056 -0.441759 0
M  V30 6741 H 656.963 5.47423 -2.13547 0
M  V30 6742 H 658.487 5.95758 -1.3381 0
M  V30 6743 H 659.901 4.72537 -3.24626 0
M  V30 6744 H 658.298 4.47604 -3.99713 0
M  V30 6745 H 659.368 3.08604 -3.74021 0
M  V30 6746 N 660.711 1.11618 1.11262 0
M  V30 6747 C 661.988 0.777876 1.79467 0
M  V30 6748 C 662.368 -0.733774 1.97937 0
M  V30 6749 O 661.716 -1.66443 1.56554 0
M  V30 6750 C 661.926 1.5431 3.13032 0
M  V30 6751 C 663.274 1.72357 3.88044 0
M  V30 6752 O 664.298 1.5075 3.22727 0
M  V30 6753 O 663.157 2.08276 5.05256 0
M  V30 6754 H 660.251 0.282018 0.777428 0
M  V30 6755 H 662.797 1.21971 1.17988 0
M  V30 6756 H 661.569 2.57132 2.94956 0
M  V30 6757 H 661.192 1.09495 3.82226 0
M  V30 6758 N 662.189 -1.289 0.906776 0
M  V30 6759 C 663.152 -2.25777 0.394656 0
M  V30 6760 C 664.152 -1.53621 -0.475119 0
M  V30 6761 O 665.342 -1.71949 -0.279165 0
M  V30 6762 C 662.474 -3.38113 -0.43499 0
M  V30 6763 H 663.667 -2.72592 1.25033 0
M  V30 6764 H 661.22 -1.40463 0.685547 0
M  V30 6765 H 661.955 -2.96648 -1.31036 0
M  V30 6766 H 661.74 -3.91647 0.188334 0
M  V30 6767 H 663.23 -4.10168 -0.784365 0
M  V30 6768 N 663.667 -0.670007 -1.42649 0
M  V30 6769 C 664.915 -0.18991 -2.01206 0
M  V30 6770 C 665.236 1.20617 -1.53221 0
M  V30 6771 O 664.506 1.80898 -0.751856 0
M  V30 6772 H 663.086 -0.0672189 -0.743969 0
M  V30 6773 H 665.748 -0.865442 -1.74631 0
M  V30 6774 H 664.844 -0.187481 -3.11536 0
M  V30 6775 N 665.145 1.52092 -0.413018 0
M  V30 6776 C 666.108 2.25706 0.398687 0
M  V30 6777 C 667.108 1.28221 0.970368 0
M  V30 6778 O 668.298 1.52131 0.848635 0
M  V30 6779 C 665.43 3.03029 1.5616 0
M  V30 6780 H 666.623 2.98888 -0.246131 0
M  V30 6781 H 664.176 1.5542 -0.165622 0
M  V30 6782 H 664.911 2.34205 2.24317 0
M  V30 6783 H 664.696 3.74606 1.15812 0
M  V30 6784 H 666.186 3.58857 2.13569 0
M  V30 6785 N 666.623 0.143563 1.56945 0
M  V30 6786 C 667.556 -0.835367 2.1236 0
M  V30 6787 C 668.534 -1.24466 1.04627 0
M  V30 6788 O 669.718 -1.34138 1.32436 0
M  V30 6789 C 666.845 -2.12123 2.64048 0
M  V30 6790 C 665.891 -1.85812 3.83896 0
M  V30 6791 S 666.724 -1.05222 5.25061 0
M  V30 6792 C 667.88 -2.34935 5.80135 0
M  V30 6793 H 668.113 -0.364109 2.95062 0
M  V30 6794 H 665.646 -0.0706601 1.54238 0
M  V30 6795 H 667.604 -2.85993 2.94479 0
M  V30 6796 H 666.265 -2.56364 1.81483 0
M  V30 6797 H 665.458 -2.81151 4.18294 0
M  V30 6798 H 665.06 -1.20052 3.54208 0
M  V30 6799 H 667.352 -3.3061 5.91357 0
M  V30 6800 H 668.295 -2.05046 6.77762 0
M  V30 6801 H 668.703 -2.45426 5.08356 0
M  V30 6802 N 668.101 -1.57061 -0.130224 0
M  V30 6803 C 669.347 -1.8453 -0.841216 0
M  V30 6804 C 669.68 -0.727666 -1.80052 0
M  V30 6805 O 668.955 0.267419 -1.92653 0
M  V30 6806 C 669.238 -3.22553 -1.60099 0
M  V30 6807 C 669.091 -4.44901 -0.662048 0
M  V30 6808 C 670.41 -3.58003 -2.55973 0
M  V30 6809 H 667.529 -0.671215 -0.304366 0
M  V30 6810 H 670.171 -1.89705 -0.105821 0
M  V30 6811 H 668.321 -3.18272 -2.22789 0
M  V30 6812 H 669.993 -4.61278 -0.0448559 0
M  V30 6813 H 668.236 -4.33791 0.0272253 0
M  V30 6814 H 668.907 -5.3812 -1.23006 0
M  V30 6815 H 671.383 -3.63002 -2.03393 0
M  V30 6816 H 670.259 -4.55576 -3.06172 0
M  V30 6817 H 670.52 -2.84833 -3.38116 0
M  V30 6818 N 669.579 0.400081 -1.52437 0
M  V30 6819 C 670.526 1.48803 -1.76426 0
M  V30 6820 C 671.496 1.5461 -0.607032 0
M  V30 6821 O 672.681 1.71041 -0.845563 0
M  V30 6822 C 669.821 2.86156 -1.92896 0
M  V30 6823 C 668.934 2.89587 -3.20567 0
M  V30 6824 C 668.069 4.18296 -3.27417 0
M  V30 6825 C 667.108 4.15736 -4.49255 0
M  V30 6826 N 666.245 5.36032 -4.53447 0
M  V30 6827 H 671.085 1.27649 -2.69276 0
M  V30 6828 H 668.622 0.619451 -1.33421 0
M  V30 6829 H 670.58 3.65901 -2.00429 0
M  V30 6830 H 669.21 3.05785 -1.03418 0
M  V30 6831 H 668.262 2.02278 -3.22161 0
M  V30 6832 H 669.574 2.83562 -4.10358 0
M  V30 6833 H 668.728 5.06439 -3.34072 0
M  V30 6834 H 667.467 4.27028 -2.35581 0
M  V30 6835 H 666.472 3.25982 -4.42737 0
M  V30 6836 H 667.697 4.08636 -5.42396 0
M  V30 6837 H 665.643 5.45415 -3.64498 0
M  V30 6838 H 665.56 5.32038 -5.37096 0
M  V30 6839 H 666.828 6.26104 -4.64343 0
M  V30 6840 N 671.057 1.43213 0.657864 0
M  V30 6841 C 671.99 1.42456 1.78273 0
M  V30 6842 C 672.968 0.286598 1.60054 0
M  V30 6843 O 674.152 0.479467 1.823 0
M  V30 6844 C 671.279 1.23169 3.15511 0
M  V30 6845 C 670.325 2.40181 3.52442 0
M  V30 6846 S 671.158 4.02729 3.52944 0
M  V30 6847 C 672.314 3.85816 4.92846 0
M  V30 6848 H 672.547 2.37642 1.78644 0
M  V30 6849 H 670.08 1.30188 0.830084 0
M  V30 6850 H 672.038 1.12728 3.94719 0
M  V30 6851 H 670.699 0.295398 3.12708 0
M  V30 6852 H 669.892 2.22478 4.52239 0
M  V30 6853 H 669.494 2.47224 2.80636 0
M  V30 6854 H 671.786 3.47853 5.81381 0
M  V30 6855 H 672.729 4.85348 5.15599 0
M  V30 6856 H 673.137 3.18361 4.66162 0
M  V30 6857 N 672.536 -0.895792 1.29666 0
M  V30 6858 C 673.499 -1.98189 1.15124 0
M  V30 6859 C 674.499 -1.60572 0.0855717 0
M  V30 6860 O 675.689 -1.70991 0.332826 0
M  V30 6861 C 672.821 -3.32289 0.761372 0
M  V30 6862 H 674.014 -2.12518 2.11603 0
M  V30 6863 H 671.567 -1.0808 1.12908 0
M  V30 6864 H 672.302 -3.23662 -0.203393 0
M  V30 6865 H 672.087 -3.60958 1.53139 0
M  V30 6866 H 673.577 -4.1198 0.682792 0
M  V30 6867 N 674.014 -1.12206 -1.10668 0
M  V30 6868 C 674.961 -0.787716 -2.16942 0
M  V30 6869 C 675.931 0.244442 -1.64291 0
M  V30 6870 O 677.116 0.119558 -1.90425 0
M  V30 6871 C 674.256 -0.24584 -3.44223 0
M  V30 6872 C 673.369 -1.33552 -4.10838 0
M  V30 6873 C 672.504 -0.753337 -5.25831 0
M  V30 6874 C 671.543 -1.82231 -5.84344 0
M  V30 6875 N 670.68 -1.25902 -6.90719 0
M  V30 6876 H 675.52 -1.69809 -2.44885 0
M  V30 6877 H 673.057 -0.847862 -1.20207 0
M  V30 6878 H 675.015 0.0863639 -4.17111 0
M  V30 6879 H 673.645 0.627702 -3.16638 0
M  V30 6880 H 672.697 -1.78454 -3.35944 0
M  V30 6881 H 674.009 -2.14396 -4.50373 0
M  V30 6882 H 673.163 -0.37166 -6.05561 0
M  V30 6883 H 671.902 0.0863297 -4.87624 0
M  V30 6884 H 670.907 -2.2132 -5.03287 0
M  V30 6885 H 672.132 -2.66515 -6.24617 0
M  V30 6886 H 670.078 -0.44114 -6.54515 0
M  V30 6887 H 669.995 -2.00408 -7.28953 0
M  V30 6888 H 671.263 -0.904498 -7.74235 0
M  V30 6889 N 675.492 1.28418 -0.913599 0
M  V30 6890 C 676.769 1.89977 -0.465619 0
M  V30 6891 C 677.149 1.82813 1.05559 0
M  V30 6892 O 676.497 1.26397 1.90358 0
M  V30 6893 C 676.707 3.34492 -0.995813 0
M  V30 6894 C 678.055 4.11468 -1.04782 0
M  V30 6895 O 679.079 3.43451 -0.944445 0
M  V30 6896 O 677.938 5.33046 -1.20518 0
M  V30 6897 H 675.032 0.813734 -0.147532 0
M  V30 6898 H 677.578 1.36786 -1.00437 0
M  V30 6899 H 676.35 3.33929 -2.03978 0
M  V30 6900 H 675.973 3.95181 -0.437878 0
M  V30 6901 N 676.97 0.677563 1.42291 0
M  V30 6902 C 678.216 0.209962 2.02313 0
M  V30 6903 C 678.571 -1.1714 1.52631 0
M  V30 6904 O 677.864 -1.7756 0.719938 0
M  V30 6905 C 678.058 0.187229 3.56909 0
M  V30 6906 C 677.887 1.56484 4.21595 0
M  V30 6907 C 676.657 2.16329 4.56651 0
M  V30 6908 C 678.855 2.50805 4.49 0
M  V30 6909 N 676.837 3.46842 5.06531 0
M  V30 6910 C 678.208 3.65976 5.00461 0
M  V30 6911 C 680.263 2.493 4.30992 0
M  V30 6912 C 678.966 4.79899 5.35807 0
M  V30 6913 C 680.992 3.62322 4.67415 0
M  V30 6914 C 680.354 4.76221 5.19031 0
M  V30 6915 H 676.453 0.121815 0.772454 0
M  V30 6916 H 679.037 0.891148 1.73109 0
M  V30 6917 H 677.208 -0.46338 3.85626 0
M  V30 6918 H 678.94 -0.293512 4.03634 0
M  V30 6919 H 675.695 1.6879 4.42501 0
M  V30 6920 H 676.119 4.13694 5.35898 0
M  V30 6921 H 680.761 1.62467 3.90339 0
M  V30 6922 H 678.479 5.67406 5.75392 0
M  V30 6923 H 682.065 3.62388 4.55155 0
M  V30 6924 H 680.945 5.62228 5.46689 0
M  V30 6925 N 678.448 -1.51871 0.421078 0
M  V30 6926 C 679.395 -2.27334 -0.398508 0
M  V30 6927 C 680.365 -1.30241 -1.03085 0
M  V30 6928 O 681.55 -1.59121 -1.05285 0
M  V30 6929 C 678.69 -3.10664 -1.50272 0
M  V30 6930 C 677.803 -4.2273 -0.890122 0
M  V30 6931 C 676.938 -4.93399 -1.96803 0
M  V30 6932 C 675.977 -5.97409 -1.333 0
M  V30 6933 N 675.114 -6.61548 -2.35156 0
M  V30 6934 H 679.954 -2.96938 0.251411 0
M  V30 6935 H 677.491 -1.46472 0.135825 0
M  V30 6936 H 679.449 -3.57292 -2.15403 0
M  V30 6937 H 678.079 -2.43207 -2.1225 0
M  V30 6938 H 677.131 -3.80186 -0.127537 0
M  V30 6939 H 678.443 -4.97302 -0.386349 0
M  V30 6940 H 677.597 -5.43491 -2.69633 0
M  V30 6941 H 676.336 -4.18421 -2.50549 0
M  V30 6942 H 675.341 -5.46624 -0.59008 0
M  V30 6943 H 676.566 -6.74335 -0.803076 0
M  V30 6944 H 674.512 -5.89394 -2.88012 0
M  V30 6945 H 674.429 -7.31832 -1.89624 0
M  V30 6946 H 675.697 -7.16276 -3.0752 0
M  V30 6947 N 679.926 -0.151884 -1.56866 0
M  V30 6948 C 681.154 0.504813 -2.00647 0
M  V30 6949 C 681.569 1.58098 -1.03201 0
M  V30 6950 O 680.926 1.82476 -0.0297814 0
M  V30 6951 C 680.977 1.10099 -3.44326 0
M  V30 6952 O 680.698 0.0678021 -4.38048 0
M  V30 6953 C 682.199 1.83782 -4.03409 0
M  V30 6954 H 679.419 0.130989 -0.65809 0
M  V30 6955 H 681.963 -0.247903 -2.02992 0
M  V30 6956 H 680.118 1.8043 -3.42817 0
M  V30 6957 H 680.532 0.505237 -5.22061 0
M  V30 6958 H 682.006 2.2078 -5.05925 0
M  V30 6959 H 682.483 2.72557 -3.44397 0
M  V30 6960 H 683.089 1.18138 -4.08563 0
M  V30 6961 N 681.404 1.57128 0.121893 0
M  V30 6962 C 682.65 1.84974 0.831418 0
M  V30 6963 C 682.983 0.737204 1.79663 0
M  V30 6964 O 682.258 -0.257199 1.92792 0
M  V30 6965 C 682.541 3.23397 1.58386 0
M  V30 6966 C 682.394 4.45246 0.638445 0
M  V30 6967 C 683.713 3.59355 2.54071 0
M  V30 6968 H 680.832 0.67282 0.300803 0
M  V30 6969 H 683.474 1.89759 0.0957587 0
M  V30 6970 H 681.624 3.19449 2.21098 0
M  V30 6971 H 683.296 4.61295 0.0203925 0
M  V30 6972 H 681.539 4.33771 -0.05023 0
M  V30 6973 H 682.21 5.38765 1.20151 0
M  V30 6974 H 684.686 3.64075 2.01465 0
M  V30 6975 H 683.562 4.57193 3.03752 0
M  V30 6976 H 683.823 2.86622 3.36601 0
M  V30 6977 N 682.882 -0.391992 1.52647 0
M  V30 6978 C 684.293 -0.970064 1.5952 0
M  V30 6979 C 684.644 -1.91059 0.446207 0
M  V30 6980 O 683.769 -2.12062 -0.431125 0
M  V30 6981 C 684.364 -1.76614 2.89125 0
M  V30 6982 C 682.923 -2.29396 2.9842 0
M  V30 6983 C 682.07 -1.09864 2.54608 0
M  V30 6984 H 685.021 -0.171638 1.57769 0
M  V30 6985 H 685.042 -2.62511 2.75442 0
M  V30 6986 H 684.554 -1.08135 3.72731 0
M  V30 6987 H 682.655 -3.01196 2.19344 0
M  V30 6988 H 682.768 -2.59088 4.03002 0
M  V30 6989 H 681.132 -1.45777 2.08857 0
M  V30 6990 H 681.915 -0.429249 3.40606 0
M  V30 6991 N 684.36 -1.4356 -0.65026 0
M  V30 6992 C 685.27 -1.514 -1.79207 0
M  V30 6993 C 686.286 -0.400895 -1.69319 0
M  V30 6994 O 687.462 -0.655458 -1.90436 0
M  V30 6995 C 684.527 -1.43737 -3.155 0
M  V30 6996 C 683.588 -2.65743 -3.37163 0
M  V30 6997 C 682.821 -2.58436 -4.66954 0
M  V30 6998 O 683.044 -1.63374 -5.46503 0
M  V30 6999 O 681.978 -3.48984 -4.90402 0
M  V30 7000 H 685.804 -2.47825 -1.75547 0
M  V30 7001 H 683.389 -1.25594 -0.809111 0
M  V30 7002 H 685.271 -1.41916 -3.96784 0
M  V30 7003 H 683.946 -0.504488 -3.19745 0
M  V30 7004 H 682.853 -2.73136 -2.55632 0
M  V30 7005 H 684.186 -3.58014 -3.37768 0
M  V30 7006 N 685.838 0.888903 -1.30139 0
M  V30 7007 C 687.254 1.17153 -1.08385 0
M  V30 7008 C 687.454 2.0088 0.157925 0
M  V30 7009 O 686.51 2.37668 0.852652 0
M  V30 7010 C 687.823 1.882 -2.34523 0
M  V30 7011 C 689.371 2.00981 -2.39949 0
M  V30 7012 C 689.846 2.75441 -3.65918 0
M  V30 7013 N 691.337 2.82989 -3.66704 0
M  V30 7014 C 692.072 3.41167 -4.60861 0
M  V30 7015 N 691.568 4.00425 -5.6536 0
M  V30 7016 N 693.361 3.38944 -4.48412 0
M  V30 7017 H 685.512 0.33053 -2.09812 0
M  V30 7018 H 687.775 0.208964 -0.924683 0
M  V30 7019 H 687.481 1.34119 -3.25123 0
M  V30 7020 H 687.355 2.88609 -2.42868 0
M  V30 7021 H 689.742 2.54234 -1.4983 0
M  V30 7022 H 689.823 0.996725 -2.35582 0
M  V30 7023 H 689.467 2.22861 -4.56394 0
M  V30 7024 H 689.397 3.77118 -3.67546 0
M  V30 7025 H 691.888 2.40912 -2.91153 0
M  V30 7026 H 692.201 4.42871 -6.33313 0
M  V30 7027 H 690.546 3.98856 -5.69157 0
M  V30 7028 H 693.737 2.91875 -3.6596 0
M  V30 7029 H 693.91 3.83989 -5.21974 0
M  V30 7030 N 687.317 1.12792 1.10072 0
M  V30 7031 C 688.564 0.885545 1.82111 0
M  V30 7032 C 688.892 -0.588519 1.85383 0
M  V30 7033 O 688.147 -1.45124 1.31292 0
M  V30 7034 C 688.446 1.4102 3.28403 0
M  V30 7035 C 688.112 2.89995 3.45273 0
M  V30 7036 C 686.774 3.30671 3.49585 0
M  V30 7037 C 689.126 3.85874 3.50358 0
M  V30 7038 C 686.454 4.65925 3.56553 0
M  V30 7039 C 688.806 5.20963 3.58859 0
M  V30 7040 C 687.47 5.61177 3.61437 0
M  V30 7041 H 686.74 0.324044 0.666391 0
M  V30 7042 H 689.387 1.40874 1.29718 0
M  V30 7043 H 687.692 0.807551 3.83387 0
M  V30 7044 H 689.389 1.19882 3.82661 0
M  V30 7045 H 685.979 2.57537 3.42597 0
M  V30 7046 H 690.163 3.5554 3.46273 0
M  V30 7047 H 685.419 4.96468 3.56833 0
M  V30 7048 H 689.593 5.95079 3.61738 0
M  V30 7049 H 687.22 6.6597 3.66589 0
M  V30 7050 N 688.795 -1.27931 0.920396 0
M  V30 7051 C 689.745 -2.24727 0.384966 0
M  V30 7052 C 690.729 -1.52715 -0.506661 0
M  V30 7053 O 691.921 -1.73599 -0.345298 0
M  V30 7054 C 689.05 -3.41324 -0.3678 0
M  V30 7055 C 688.136 -4.20649 0.539925 0
M  V30 7056 N 688.527 -4.77906 1.6565 0
M  V30 7057 C 686.825 -4.4469 0.341557 0
M  V30 7058 C 687.526 -5.37652 2.22047 0
M  V30 7059 N 686.502 -5.2218 1.51093 0
M  V30 7060 H 690.304 -2.66572 1.23761 0
M  V30 7061 H 687.818 -1.42779 0.773819 0
M  V30 7062 H 689.815 -4.0976 -0.768277 0
M  V30 7063 H 688.475 -3.01012 -1.21746 0
M  V30 7064 H 689.486 -4.76073 2.03899 0
M  V30 7065 H 686.163 -4.14868 -0.468045 0
M  V30 7066 H 687.553 -5.92948 3.1601 0
M  V30 7067 N 690.273 -0.685099 -1.4193 0
M  V30 7068 C 691.513 -0.215676 -2.03259 0
M  V30 7069 C 691.877 1.15934 -1.53047 0
M  V30 7070 O 693.078 1.72401 -2.06231 0
M  V30 7071 C 691.349 -0.259649 -3.56456 0
M  V30 7072 S 692.908 0.137262 -4.38585 0
M  V30 7073 H 689.726 -0.0877362 -0.705566 0
M  V30 7074 H 692.328 -0.900547 -1.73523 0
M  V30 7075 H 691.032 -1.26256 -3.90497 0
M  V30 7076 H 690.563 0.444716 -3.90878 0
M  V30 7077 H 692.578 1.36787 -4.76973 0
M  V30 7078 N 691.751 1.51645 -0.429126 0
M  V30 7079 C 692.997 2.02314 0.140286 0
M  V30 7080 C 693.33 1.31314 1.43074 0
M  V30 7081 O 692.605 0.425531 1.89788 0
M  V30 7082 C 692.888 3.5822 0.36749 0
M  V30 7083 C 692.741 4.39846 -0.941039 0
M  V30 7084 C 694.06 4.25055 1.14089 0
M  V30 7085 H 691.179 0.735335 0.0495112 0
M  V30 7086 H 693.821 1.81358 -0.566514 0
M  V30 7087 H 691.971 3.76207 0.969556 0
M  V30 7088 H 693.643 4.33527 -1.57646 0
M  V30 7089 H 691.886 4.05259 -1.54751 0
M  V30 7090 H 692.557 5.47069 -0.73621 0
M  V30 7091 H 695.033 4.11288 0.630986 0
M  V30 7092 H 693.909 5.34038 1.26863 0
M  V30 7093 H 694.17 3.85358 2.16683 0
M  V30 7094 N 693.229 0.160201 1.56784 0
M  V30 7095 C 694.477 -0.486625 1.96154 0
M  V30 7096 C 694.798 -1.64525 1.04673 0
M  V30 7097 O 694.068 -1.95586 0.110864 0
M  V30 7098 H 692.648 -0.182764 0.724297 0
M  V30 7099 H 695.31 0.238787 1.93432 0
M  V30 7100 H 694.406 -0.854025 3.00188 0
M  V30 7101 N 694.707 -1.5719 -0.113559 0
M  V30 7102 C 695.955 -1.84772 -0.818761 0
M  V30 7103 C 696.276 -0.746196 -1.80158 0
M  V30 7104 O 695.546 0.229305 -1.94553 0
M  V30 7105 H 694.126 -0.681737 -0.305359 0
M  V30 7106 H 696.788 -1.94645 -0.0995845 0
M  V30 7107 H 695.884 -2.80878 -1.36067 0
M  V30 7108 N 696.185 0.383891 -1.52853 0
M  V30 7109 C 697.41 1.154 -1.7233 0
M  V30 7110 C 697.835 1.82809 -0.44298 0
M  V30 7111 O 697.193 1.71026 0.601645 0
M  V30 7112 C 697.241 2.17386 -2.87708 0
M  V30 7113 O 696.345 3.24082 -2.55038 0
M  V30 7114 H 695.686 0.335709 -0.572883 0
M  V30 7115 H 698.216 0.44662 -1.99666 0
M  V30 7116 H 698.226 2.61296 -3.1335 0
M  V30 7117 H 696.901 1.6771 -3.80587 0
M  V30 7118 H 695.478 2.85273 -2.40153 0
M  V30 7119 N 697.663 1.43903 0.642637 0
M  V30 7120 C 698.909 1.46296 1.40447 0
M  V30 7121 C 699.242 0.0908361 1.93987 0
M  V30 7122 O 698.517 -0.889884 1.72949 0
M  V30 7123 C 698.8 2.51399 2.57819 0
M  V30 7124 C 698.653 3.97926 2.09702 0
M  V30 7125 C 699.972 2.53125 3.60022 0
M  V30 7126 H 697.091 0.532676 0.509338 0
M  V30 7127 H 699.733 1.75515 0.727635 0
M  V30 7128 H 697.883 2.26614 3.1556 0
M  V30 7129 H 699.555 4.33804 1.5688 0
M  V30 7130 H 697.798 4.10252 1.40982 0
M  V30 7131 H 698.469 4.67096 2.94152 0
M  V30 7132 H 700.945 2.75242 3.12059 0
M  V30 7133 H 699.821 3.28589 4.39682 0
M  V30 7134 H 700.082 1.56895 4.13324 0
M  V30 7135 N 699.141 -0.881989 1.30609 0
M  V30 7136 C 700.073 -1.99375 1.13058 0
M  V30 7137 C 701.086 -1.62636 0.0729879 0
M  V30 7138 O 702.275 -1.75621 0.319301 0
M  V30 7139 C 699.375 -3.31536 0.702651 0
M  V30 7140 C 698.548 -3.96693 1.84265 0
M  V30 7141 C 697.607 -5.07158 1.40277 0
M  V30 7142 O 696.633 -5.28628 2.11048 0
M  V30 7143 N 697.835 -5.79808 0.283449 0
M  V30 7144 H 700.6 -2.14981 2.08814 0
M  V30 7145 H 698.161 -1.05526 1.22784 0
M  V30 7146 H 700.153 -4.02804 0.391331 0
M  V30 7147 H 698.723 -3.12175 -0.162954 0
M  V30 7148 H 697.943 -3.1856 2.32192 0
M  V30 7149 H 699.231 -4.36964 2.60653 0
M  V30 7150 H 698.629 -5.64871 -0.306189 0
M  V30 7151 H 697.186 -6.51792 0.0315985 0
M  V30 7152 N 700.619 -1.13374 -1.09472 0
M  V30 7153 C 701.896 -0.806329 -1.78207 0
M  V30 7154 C 702.276 0.702191 -1.99079 0
M  V30 7155 O 701.624 1.63931 -1.59182 0
M  V30 7156 C 701.834 -1.59271 -3.10538 0
M  V30 7157 C 703.182 -1.78509 -3.85253 0
M  V30 7158 O 704.206 -1.55866 -3.20288 0
M  V30 7159 O 703.065 -2.16287 -5.01879 0
M  V30 7160 H 700.159 -0.29435 -0.772843 0
M  V30 7161 H 702.705 -1.23833 -1.16033 0
M  V30 7162 H 701.477 -2.61792 -2.90828 0
M  V30 7163 H 701.1 -1.15562 -3.80436 0
M  V30 7164 N 702.098 1.27442 -0.927168 0
M  V30 7165 C 703.509 1.76385 -0.611979 0
M  V30 7166 C 703.86 1.75715 0.872853 0
M  V30 7167 O 702.985 1.3603 1.683 0
M  V30 7168 C 703.58 3.20303 -1.10414 0
M  V30 7169 C 702.139 3.66916 -0.839628 0
M  V30 7170 C 701.286 2.46859 -1.26317 0
M  V30 7171 H 704.237 1.13716 -1.107 0
M  V30 7172 H 704.258 3.77811 -0.451578 0
M  V30 7173 H 703.77 3.20759 -2.18484 0
M  V30 7174 H 701.871 3.71906 0.227292 0
M  V30 7175 H 701.984 4.56415 -1.45679 0
M  V30 7176 H 700.348 2.45407 -0.681723 0
M  V30 7177 H 701.131 2.50025 -2.3525 0
M  V30 7178 N 703.576 0.692616 1.41565 0
M  V30 7179 C 704.486 0.0258451 2.34586 0
M  V30 7180 C 705.502 -0.769324 1.56069 0
M  V30 7181 O 706.678 -0.707563 1.88562 0
M  V30 7182 C 703.743 -0.901289 3.3478 0
M  V30 7183 C 702.804 -0.0986579 4.29187 0
M  V30 7184 C 702.037 -0.981634 5.24595 0
M  V30 7185 O 702.26 -2.22115 5.25377 0
M  V30 7186 O 701.194 -0.432892 6.00341 0
M  V30 7187 H 705.02 0.792537 2.93177 0
M  V30 7188 H 702.605 0.452935 1.42369 0
M  V30 7189 H 704.487 -1.43302 3.96286 0
M  V30 7190 H 703.162 -1.64752 2.78637 0
M  V30 7191 H 702.069 0.477604 3.71039 0
M  V30 7192 H 703.402 0.608848 4.8842 0
M  V30 7193 N 705.054 -1.51416 0.437162 0
M  V30 7194 C 706.001 -2.27743 -0.374374 0
M  V30 7195 C 706.971 -1.31327 -1.01698 0
M  V30 7196 O 708.156 -1.60229 -1.03592 0
M  V30 7197 C 705.296 -3.12241 -1.46969 0
M  V30 7198 C 704.409 -4.23651 -0.845236 0
M  V30 7199 C 703.544 -4.95458 -1.91559 0
M  V30 7200 C 702.583 -5.98789 -1.26956 0
M  V30 7201 N 701.72 -6.64005 -2.28126 0
M  V30 7202 H 706.56 -2.96654 0.282892 0
M  V30 7203 H 704.097 -1.46319 0.151352 0
M  V30 7204 H 706.055 -3.59556 -2.11602 0
M  V30 7205 H 704.685 -2.45445 -2.09659 0
M  V30 7206 H 703.737 -3.803 -0.0872059 0
M  V30 7207 H 705.049 -4.97683 -0.333582 0
M  V30 7208 H 704.203 -5.46321 -2.63854 0
M  V30 7209 H 702.942 -4.21055 -2.46097 0
M  V30 7210 H 701.947 -5.47219 -0.53207 0
M  V30 7211 H 703.172 -6.75149 -0.731509 0
M  V30 7212 H 701.118 -5.92415 -2.81745 0
M  V30 7213 H 701.035 -7.33802 -1.81852 0
M  V30 7214 H 702.303 -7.19498 -2.99905 0
M  V30 7215 N 706.532 -0.168513 -1.56696 0
M  V30 7216 C 707.781 0.477233 -1.95973 0
M  V30 7217 C 708.094 1.64578 -1.05704 0
M  V30 7218 O 709.3 2.35758 -1.3465 0
M  V30 7219 C 707.756 0.900413 -3.48455 0
M  V30 7220 C 707.364 -0.242382 -4.47344 0
M  V30 7221 C 709.108 1.51474 -3.96555 0
M  V30 7222 C 707.015 0.200272 -5.91061 0
M  V30 7223 H 705.945 0.182061 -0.73169 0
M  V30 7224 H 708.596 -0.256297 -1.81701 0
M  V30 7225 H 706.978 1.68984 -3.58135 0
M  V30 7226 H 708.152 -1.01967 -4.49377 0
M  V30 7227 H 706.467 -0.766484 -4.09285 0
M  V30 7228 H 709.064 1.85792 -5.01384 0
M  V30 7229 H 709.407 2.41163 -3.39332 0
M  V30 7230 H 709.94 0.789802 -3.89881 0
M  V30 7231 H 706.679 -0.661775 -6.52151 0
M  V30 7232 H 706.199 0.942979 -5.92341 0
M  V30 7233 H 707.878 0.645088 -6.43776 0
M  V30 7234 N 708.01 1.57248 0.105221 0
M  V30 7235 C 709.421 1.74612 0.660865 0
M  V30 7236 C 709.772 0.789231 1.79626 0
M  V30 7237 O 708.897 -0.0346611 2.16372 0
M  V30 7238 C 709.492 3.16624 1.20559 0
M  V30 7239 C 708.051 3.35447 1.7074 0
M  V30 7240 C 707.198 2.70445 0.612764 0
M  V30 7241 H 710.149 1.5824 -0.12079 0
M  V30 7242 H 710.17 3.18937 2.07508 0
M  V30 7243 H 709.682 3.86245 0.379012 0
M  V30 7244 H 707.783 2.7089 2.5583 0
M  V30 7245 H 707.896 4.43702 1.80736 0
M  V30 7246 H 706.26 2.32061 1.04975 0
M  V30 7247 H 707.043 3.42699 -0.203066 0
M  V30 7248 N 709.488 -0.375779 1.53054 0
M  V30 7249 C 710.713 -1.14484 1.7294 0
M  V30 7250 C 711.138 -1.82572 0.452668 0
M  V30 7251 O 710.496 -1.71343 -0.592567 0
M  V30 7252 C 710.544 -2.15857 2.88857 0
M  V30 7253 O 709.648 -3.22725 2.56753 0
M  V30 7254 H 708.989 -0.332666 0.574656 0
M  V30 7255 H 711.519 -0.436025 1.999 0
M  V30 7256 H 711.529 -2.59631 3.14731 0
M  V30 7257 H 710.204 -1.65689 3.81471 0
M  V30 7258 H 708.781 -2.83996 2.41663 0
M  V30 7259 N 710.966 -1.44241 -0.634997 0
M  V30 7260 C 712.194 -1.50296 -1.42193 0
M  V30 7261 C 712.609 -0.12658 -1.88375 0
M  V30 7262 O 711.966 0.86678 -1.60603 0
M  V30 7263 C 712.017 -2.46437 -2.64482 0
M  V30 7264 O 711.738 -3.78724 -2.20226 0
M  V30 7265 C 713.239 -2.61918 -3.57651 0
M  V30 7266 H 710.459 -0.509865 -0.43621 0
M  V30 7267 H 713.003 -1.89167 -0.776921 0
M  V30 7268 H 711.158 -2.10712 -3.25083 0
M  V30 7269 H 711.572 -4.30595 -2.9948 0
M  V30 7270 H 713.046 -3.33225 -4.40074 0
M  V30 7271 H 713.523 -1.67017 -4.06204 0
M  V30 7272 H 714.129 -2.98528 -3.02921 0
M  V30 7273 N 712.444 0.87505 -1.31075 0
M  V30 7274 C 713.692 1.62447 -1.20231 0
M  V30 7275 C 714.013 1.93506 0.240888 0
M  V30 7276 O 713.283 1.57847 1.16022 0
M  V30 7277 H 711.863 0.602207 -0.441991 0
M  V30 7278 H 714.525 1.04788 -1.64334 0
M  V30 7279 H 713.621 2.57031 -1.77036 0
M  V30 7280 N 713.922 1.13953 1.08869 0
M  V30 7281 C 714.869 0.82213 2.15661 0
M  V30 7282 C 715.839 -0.218274 1.6466 0
M  V30 7283 O 717.024 -0.0892475 1.90591 0
M  V30 7284 C 714.164 0.300572 3.43789 0
M  V30 7285 C 713.277 1.40071 4.08661 0
M  V30 7286 C 712.412 0.836897 5.24566 0
M  V30 7287 C 711.451 1.91504 5.81371 0
M  V30 7288 N 710.588 1.36875 6.88629 0
M  V30 7289 H 715.428 1.73683 2.42153 0
M  V30 7290 H 712.965 0.866879 1.18843 0
M  V30 7291 H 714.923 -0.0199943 4.17195 0
M  V30 7292 H 713.553 -0.577248 3.17597 0
M  V30 7293 H 712.605 1.83776 3.33062 0
M  V30 7294 H 713.917 2.21534 4.46905 0
M  V30 7295 H 713.071 0.467953 6.04893 0
M  V30 7296 H 711.81 -0.00874207 4.87699 0
M  V30 7297 H 710.815 2.29299 4.99702 0
M  V30 7298 H 712.04 2.76419 6.20298 0
M  V30 7299 H 709.986 0.545211 6.5373 0
M  V30 7300 H 709.903 2.1198 7.25672 0
M  V30 7301 H 711.171 1.02756 7.72698 0
M  V30 7302 N 715.4 -1.26948 0.933913 0
M  V30 7303 C 716.33 -2.29017 0.45534 0
M  V30 7304 C 717.311 -1.62961 -0.487605 0
M  V30 7305 O 718.496 -1.90223 -0.391022 0
M  V30 7306 C 715.626 -3.46112 -0.287015 0
M  V30 7307 C 714.58 -4.24205 0.568682 0
M  V30 7308 C 713.906 -5.3384 -0.303206 0
M  V30 7309 C 715.206 -4.88954 1.83633 0
M  V30 7310 H 716.9 -2.69298 1.30839 0
M  V30 7311 H 714.446 -1.29459 0.630579 0
M  V30 7312 H 716.399 -4.16622 -0.6328 0
M  V30 7313 H 715.123 -3.04765 -1.17414 0
M  V30 7314 H 713.782 -3.5545 0.897261 0
M  V30 7315 H 713.43 -4.88734 -1.18947 0
M  V30 7316 H 713.13 -5.86998 0.265879 0
M  V30 7317 H 714.654 -6.0719 -0.644423 0
M  V30 7318 H 716.068 -5.51717 1.55823 0
M  V30 7319 H 714.465 -5.52198 2.34941 0
M  V30 7320 H 715.535 -4.12305 2.55211 0
M  V30 7321 N 716.879 -0.700114 -1.41195 0
M  V30 7322 C 718.125 -0.233351 -2.01453 0
M  V30 7323 C 718.458 1.16548 -1.55339 0
M  V30 7324 O 717.733 1.78756 -0.766575 0
M  V30 7325 C 718.016 -0.2961 -3.58881 0
M  V30 7326 C 717.869 -1.7322 -4.15108 0
M  V30 7327 C 719.188 0.341525 -4.38773 0
M  V30 7328 H 716.307 -0.0862667 -0.731934 0
M  V30 7329 H 718.949 -0.889693 -1.67882 0
M  V30 7330 H 717.099 0.262736 -3.87611 0
M  V30 7331 H 718.771 -2.34523 -3.97236 0
M  V30 7332 H 717.014 -2.2649 -3.69979 0
M  V30 7333 H 717.685 -1.7276 -5.24269 0
M  V30 7334 H 720.161 -0.134461 -4.15883 0
M  V30 7335 H 719.037 0.267098 -5.4825 0
M  V30 7336 H 719.298 1.42289 -4.18577 0
M  V30 7337 N 718.357 1.51182 -0.445186 0
M  V30 7338 C 719.287 2.30821 0.352686 0
M  V30 7339 C 720.268 1.36576 1.01395 0
M  V30 7340 O 721.453 1.65497 1.01609 0
M  V30 7341 C 718.583 3.15593 1.44976 0
M  V30 7342 C 717.537 4.1818 0.911553 0
M  V30 7343 C 716.863 4.91523 2.10497 0
M  V30 7344 C 718.163 5.22266 -0.059418 0
M  V30 7345 H 719.857 2.97771 -0.311936 0
M  V30 7346 H 717.403 1.43201 -0.151461 0
M  V30 7347 H 719.356 3.70091 2.01521 0
M  V30 7348 H 718.08 2.4648 2.14278 0
M  V30 7349 H 716.739 3.64746 0.368264 0
M  V30 7350 H 716.387 4.18906 2.78437 0
M  V30 7351 H 716.087 5.60898 1.7512 0
M  V30 7352 H 717.611 5.48847 2.6758 0
M  V30 7353 H 719.025 5.71789 0.415985 0
M  V30 7354 H 717.422 5.99213 -0.326152 0
M  V30 7355 H 718.492 4.7461 -0.993631 0
M  V30 7356 N 719.835 0.176821 1.56605 0
M  V30 7357 C 721.063 -0.472828 2.01425 0
M  V30 7358 C 721.478 -1.56436 1.05703 0
M  V30 7359 O 720.835 -1.82405 0.058808 0
M  V30 7360 C 720.886 -1.04607 3.46034 0
M  V30 7361 O 720.607 0.00189608 4.381 0
M  V30 7362 C 722.108 -1.7734 4.06282 0
M  V30 7363 H 719.328 -0.120503 0.660091 0
M  V30 7364 H 721.872 0.280166 2.02572 0
M  V30 7365 H 720.027 -1.74953 3.45645 0
M  V30 7366 H 720.441 -0.422118 5.22799 0
M  V30 7367 H 721.915 -2.12703 5.09374 0
M  V30 7368 H 722.392 -2.67043 3.4869 0
M  V30 7369 H 722.998 -1.11623 4.10391 0
M  V30 7370 N 721.313 -1.57302 -0.09688 0
M  V30 7371 C 722.243 -2.0497 -1.11846 0
M  V30 7372 C 723.224 -0.938278 -1.41882 0
M  V30 7373 O 724.409 -1.20943 -1.51942 0
M  V30 7374 C 721.539 -2.47264 -2.43881 0
M  V30 7375 C 720.493 -3.62053 -2.28257 0
M  V30 7376 C 719.819 -3.90318 -3.65453 0
M  V30 7377 C 721.119 -4.93005 -1.72461 0
M  V30 7378 H 722.813 -2.90567 -0.721888 0
M  V30 7379 H 720.359 -1.39786 -0.345803 0
M  V30 7380 H 722.312 -2.7922 -3.15617 0
M  V30 7381 H 721.036 -1.58664 -2.8547 0
M  V30 7382 H 719.695 -3.30341 -1.58967 0
M  V30 7383 H 719.343 -2.98889 -4.04567 0
M  V30 7384 H 719.043 -4.67597 -3.55846 0
M  V30 7385 H 720.567 -4.24747 -4.3866 0
M  V30 7386 H 721.981 -5.23354 -2.34036 0
M  V30 7387 H 720.378 -5.74436 -1.73618 0
M  V30 7388 H 721.448 -4.80053 -0.683898 0
M  V30 7389 N 722.791 0.367657 -1.53252 0
M  V30 7390 C 724.019 1.13119 -1.73239 0
M  V30 7391 C 724.434 1.831 -0.460404 0
M  V30 7392 O 723.791 1.73483 0.566557 0
M  V30 7393 C 723.842 2.16308 -2.89643 0
M  V30 7394 O 723.563 1.49175 -4.1192 0
M  V30 7395 C 725.064 3.05224 -3.21486 0
M  V30 7396 H 722.284 0.338318 -0.579467 0
M  V30 7397 H 724.828 0.42721 -1.99988 0
M  V30 7398 H 722.983 2.82307 -2.65295 0
M  V30 7399 H 723.397 2.17912 -4.7709 0
M  V30 7400 H 724.871 3.73613 -4.06346 0
M  V30 7401 H 725.348 3.69919 -2.36763 0
M  V30 7402 H 725.954 2.44843 -3.47753 0
M  V30 7403 N 724.269 1.44576 0.627338 0
M  V30 7404 C 725.497 1.51048 1.41394 0
M  V30 7405 C 725.912 0.136568 1.88305 0
M  V30 7406 O 725.269 -0.858251 1.6106 0
M  V30 7407 C 725.32 2.47837 2.63172 0
M  V30 7408 O 725.041 3.79887 2.18215 0
M  V30 7409 C 726.542 2.63811 3.56257 0
M  V30 7410 H 723.762 0.512171 0.4335 0
M  V30 7411 H 726.306 1.89576 0.766878 0
M  V30 7412 H 724.461 2.12433 3.23961 0
M  V30 7413 H 724.875 4.32177 2.97192 0
M  V30 7414 H 726.349 3.35554 4.38301 0
M  V30 7415 H 726.826 1.69169 4.05313 0
M  V30 7416 H 727.432 3.0013 3.01333 0
M  V30 7417 N 725.747 -0.868086 1.31537 0
M  V30 7418 C 727.024 -1.60384 1.11965 0
M  V30 7419 C 727.404 -2.08584 -0.324949 0
M  V30 7420 O 726.752 -1.86561 -1.31937 0
M  V30 7421 C 726.962 -2.76038 2.13551 0
M  V30 7422 C 728.31 -3.45954 2.46173 0
M  V30 7423 O 729.334 -2.86247 2.11993 0
M  V30 7424 O 728.193 -4.53666 3.04711 0
M  V30 7425 H 725.287 -0.705705 0.431172 0
M  V30 7426 H 727.833 -0.913385 1.43022 0
M  V30 7427 H 726.605 -2.37849 3.10714 0
M  V30 7428 H 726.228 -3.52769 1.83411 0
M  V30 7429 N 727.225 -1.14528 -1.08264 0
M  V30 7430 C 728.188 -0.83632 -2.13397 0
M  V30 7431 C 729.188 0.159715 -1.60005 0
M  V30 7432 O 730.378 -0.0688098 -1.74064 0
M  V30 7433 C 727.51 -0.246973 -3.40004 0
M  V30 7434 H 728.703 -1.76808 -2.42237 0
M  V30 7435 H 726.256 -0.951509 -1.24 0
M  V30 7436 H 726.991 0.693436 -3.168 0
M  V30 7437 H 726.776 -0.964412 -3.80055 0
M  V30 7438 H 728.266 -0.0480679 -4.17572 0
M  V30 7439 N 728.703 1.26451 -0.940633 0
M  V30 7440 C 729.943 1.95537 -0.595381 0
M  V30 7441 C 730.307 1.72175 0.849683 0
M  V30 7442 O 731.508 2.3506 1.30384 0
M  V30 7443 C 729.779 3.45151 -0.927669 0
M  V30 7444 S 731.338 4.33295 -0.69288 0
M  V30 7445 H 728.156 0.676331 -0.219311 0
M  V30 7446 H 730.758 1.53411 -1.21183 0
M  V30 7447 H 729.462 3.59654 -1.9768 0
M  V30 7448 H 728.993 3.92247 -0.300921 0
M  V30 7449 H 731.008 4.94217 0.443175 0
M  V30 7450 N 730.181 0.707592 1.40822 0
M  V30 7451 C 731.091 0.0507246 2.34545 0
M  V30 7452 C 732.107 -0.752727 1.56876 0
M  V30 7453 O 733.283 -0.687524 1.89302 0
M  V30 7454 C 730.348 -0.865731 3.35717 0
M  V30 7455 C 729.409 -0.0531313 4.29267 0
M  V30 7456 C 728.642 -0.925939 5.25606 0
M  V30 7457 O 728.865 -2.16531 5.27703 0
M  V30 7458 O 727.799 -0.369194 6.00767 0
M  V30 7459 H 731.625 0.823587 2.9232 0
M  V30 7460 H 729.21 0.46801 1.4188 0
M  V30 7461 H 731.092 -1.39091 3.97783 0
M  V30 7462 H 729.767 -1.61788 2.80368 0
M  V30 7463 H 728.674 0.516931 3.70511 0
M  V30 7464 H 730.007 0.660617 4.87747 0
M  V30 7465 N 731.66 -1.50943 0.453197 0
M  V30 7466 C 732.908 -2.01813 -0.107709 0
M  V30 7467 C 733.229 -1.33841 -1.41816 0
M  V30 7468 O 732.499 -0.477973 -1.8998 0
M  V30 7469 H 731.079 -0.745773 -0.0427948 0
M  V30 7470 H 733.741 -1.8545 0.599531 0
M  V30 7471 H 732.837 -3.10911 -0.27218 0
M  V30 7472 N 733.138 -0.185124 -1.56509 0
M  V30 7473 C 734.085 0.739729 -2.18624 0
M  V30 7474 C 735.055 1.217 -1.13042 0
M  V30 7475 O 736.24 1.28268 -1.41251 0
M  V30 7476 C 733.38 1.95787 -2.84186 0
M  V30 7477 C 732.493 1.52289 -4.04267 0
M  V30 7478 C 731.628 2.69576 -4.57714 0
M  V30 7479 C 730.667 2.22636 -5.70175 0
M  V30 7480 N 729.804 3.33065 -6.18071 0
M  V30 7481 H 734.644 0.203269 -2.97306 0
M  V30 7482 H 732.181 0.0885946 -1.46833 0
M  V30 7483 H 734.139 2.67253 -3.20361 0
M  V30 7484 H 732.769 2.4678 -2.08085 0
M  V30 7485 H 731.821 0.704458 -3.7382 0
M  V30 7486 H 733.133 1.13843 -4.85635 0
M  V30 7487 H 732.287 3.4918 -4.96143 0
M  V30 7488 H 731.026 3.1129 -3.75433 0
M  V30 7489 H 730.031 1.41483 -5.31284 0
M  V30 7490 H 731.256 1.81964 -6.54267 0
M  V30 7491 H 729.202 3.74328 -5.38715 0
M  V30 7492 H 729.119 2.98756 -6.94464 0
M  V30 7493 H 730.387 4.12912 -6.61153 0
M  V30 7494 N 734.616 1.57351 0.0885366 0
M  V30 7495 C 735.526 2.05858 1.12516 0
M  V30 7496 C 736.542 0.984758 1.43452 0
M  V30 7497 O 737.718 1.29836 1.53963 0
M  V30 7498 C 734.783 2.47882 2.42395 0
M  V30 7499 C 733.844 3.69487 2.18582 0
M  V30 7500 C 733.077 4.09497 3.42268 0
M  V30 7501 O 733.3 3.49536 4.50755 0
M  V30 7502 O 732.234 5.02406 3.31469 0
M  V30 7503 H 736.06 2.94467 0.743146 0
M  V30 7504 H 733.645 1.46326 0.301507 0
M  V30 7505 H 735.527 2.75509 3.18862 0
M  V30 7506 H 734.202 1.62408 2.8001 0
M  V30 7507 H 733.109 3.46967 1.39875 0
M  V30 7508 H 734.442 4.55761 1.85857 0
M  V30 7509 N 736.094 -0.359525 1.53444 0
M  V30 7510 C 737.042 -1.46104 1.80987 0
M  V30 7511 C 738.036 -1.55181 0.679351 0
M  V30 7512 O 739.242 -1.57995 0.862405 0
M  V30 7513 H 735.617 -0.486835 0.573145 0
M  V30 7514 H 737.588 -1.2008 2.73173 0
M  V30 7515 C 736.337 -2.82855 2.02208 0
M  V30 7516 H 735.66 -2.76631 2.88644 0
M  V30 7517 H 737.1 -3.59091 2.25455 0
M  V30 7518 C 735.559 -3.27192 0.802931 0
M  V30 7519 O 736.089 -4.017 -0.00544286 0
M  V30 7520 N 734.295 -2.83807 0.624657 0
M  V30 7521 H 733.842 -2.23339 1.28364 0
M  V30 7522 H 733.8 -3.13828 -0.189641 0
M  V30 7523 N 737.572 -1.44907 -0.619662 0
M  V30 7524 C 738.819 -1.48292 -1.37898 0
M  V30 7525 C 739.147 -0.119933 -1.9413 0
M  V30 7526 O 738.402 0.879834 -1.74807 0
M  V30 7527 C 738.701 -2.50002 -2.55409 0
M  V30 7528 C 738.367 -3.95031 -2.17397 0
M  V30 7529 C 737.029 -4.34524 -2.06743 0
M  V30 7530 C 739.381 -4.86287 -1.87548 0
M  V30 7531 C 736.709 -5.63183 -1.64445 0
M  V30 7532 C 739.061 -6.15346 -1.4674 0
M  V30 7533 C 737.725 -6.53781 -1.34636 0
M  V30 7534 H 736.995 -0.542638 -0.504603 0
M  V30 7535 H 739.642 -1.78186 -0.701581 0
M  V30 7536 H 737.947 -2.13634 -3.28433 0
M  V30 7537 H 739.644 -2.49864 -3.13639 0
M  V30 7538 H 736.234 -3.63793 -2.26611 0
M  V30 7539 H 740.418 -4.56522 -1.94682 0
M  V30 7540 H 735.674 -5.91769 -1.53687 0
M  V30 7541 H 739.848 -6.85508 -1.22685 0
M  V30 7542 H 737.475 -7.53375 -1.01634 0
M  V30 7543 N 739.05 0.861098 -1.31996 0
M  V30 7544 C 740.296 1.61721 -1.22369 0
M  V30 7545 C 740.629 1.93 0.215587 0
M  V30 7546 O 739.904 1.56789 1.15098 0
M  V30 7547 C 740.187 2.9417 -2.07691 0
M  V30 7548 C 740.04 2.69714 -3.59965 0
M  V30 7549 C 741.359 3.95372 -1.93312 0
M  V30 7550 H 738.478 0.586822 -0.44588 0
M  V30 7551 H 741.12 0.994788 -1.61876 0
M  V30 7552 H 739.27 3.47292 -1.74128 0
M  V30 7553 H 740.942 2.23196 -4.03709 0
M  V30 7554 H 739.185 2.03789 -3.82952 0
M  V30 7555 H 739.856 3.63996 -4.14983 0
M  V30 7556 H 742.332 3.51487 -2.22701 0
M  V30 7557 H 741.208 4.85916 -2.55298 0
M  V30 7558 H 741.469 4.32865 -0.898922 0
M  V30 7559 N 740.528 1.15101 1.07655 0
M  V30 7560 C 741.944 0.893004 1.32279 0
M  V30 7561 C 742.144 -0.461701 1.96139 0
M  V30 7562 O 741.2 -1.20431 2.21929 0
M  V30 7563 C 742.513 2.03161 2.21689 0
M  V30 7564 C 744.061 2.06579 2.35147 0
M  V30 7565 C 744.536 3.19754 3.27905 0
M  V30 7566 N 746.027 3.19382 3.35484 0
M  V30 7567 C 746.762 4.03592 4.07309 0
M  V30 7568 N 746.258 4.97859 4.81776 0
M  V30 7569 N 748.051 3.91626 4.03219 0
M  V30 7570 H 740.202 2.02341 0.645886 0
M  V30 7571 H 742.465 0.882127 0.347211 0
M  V30 7572 H 742.171 3.00934 1.82021 0
M  V30 7573 H 742.045 1.96132 3.22199 0
M  V30 7574 H 744.432 1.09408 2.74069 0
M  V30 7575 H 744.513 2.17676 1.34353 0
M  V30 7576 H 744.157 4.17175 2.89702 0
M  V30 7577 H 744.087 3.05893 4.28645 0
M  V30 7578 H 746.578 2.51112 2.82403 0
M  V30 7579 H 746.891 5.58563 5.34067 0
M  V30 7580 H 745.236 5.0185 4.80803 0
M  V30 7581 H 748.427 3.17295 3.44154 0
M  V30 7582 H 748.6 4.57479 4.5893 0
M  V30 7583 N 742.006 -1.2595 0.947325 0
M  V30 7584 C 743.236 -1.97258 0.614235 0
M  V30 7585 C 743.644 -1.70682 -0.816355 0
M  V30 7586 O 742.987 -0.97527 -1.55673 0
M  V30 7587 C 743.049 -3.50845 0.784081 0
M  V30 7588 C 742.713 -4.01084 2.19045 0
M  V30 7589 C 743.71 -4.12347 3.16648 0
M  V30 7590 C 741.395 -4.34936 2.51268 0
M  V30 7591 C 743.389 -4.56766 4.44572 0
M  V30 7592 C 741.076 -4.79043 3.79422 0
M  V30 7593 C 742.074 -4.89919 4.75887 0
M  V30 7594 O 741.762 -5.3305 6.01758 0
M  V30 7595 H 741.494 -0.635738 0.22981 0
M  V30 7596 H 744.048 -1.61268 1.27207 0
M  V30 7597 H 742.278 -3.86638 0.069101 0
M  V30 7598 H 743.967 -4.03363 0.453135 0
M  V30 7599 H 744.733 -3.86432 2.93079 0
M  V30 7600 H 740.612 -4.25702 1.76916 0
M  V30 7601 H 744.156 -4.6517 5.19868 0
M  V30 7602 H 740.053 -5.04402 4.02802 0
M  V30 7603 H 740.821 -5.51255 6.05029 0
M  V30 7604 N 743.484 -0.715051 -1.40445 0
M  V30 7605 C 744.414 -0.0768699 -2.33373 0
M  V30 7606 C 745.395 0.746109 -1.52863 0
M  V30 7607 O 746.58 0.695142 -1.81332 0
M  V30 7608 C 743.71 0.846014 -3.36838 0
M  V30 7609 C 742.664 0.128694 -4.27806 0
M  V30 7610 C 741.99 1.16726 -5.21804 0
M  V30 7611 C 743.29 -1.01679 -5.12307 0
M  V30 7612 H 744.984 -0.853061 -2.8699 0
M  V30 7613 H 742.53 -0.41167 -1.3799 0
M  V30 7614 H 744.483 1.30185 -4.00786 0
M  V30 7615 H 743.207 1.6541 -2.81615 0
M  V30 7616 H 741.866 -0.307314 -3.6531 0
M  V30 7617 H 741.514 1.96838 -4.62887 0
M  V30 7618 H 741.214 0.692188 -5.83509 0
M  V30 7619 H 742.738 1.62321 -5.88629 0
M  V30 7620 H 744.152 -0.640337 -5.69713 0
M  V30 7621 H 742.549 -1.4202 -5.83053 0
M  V30 7622 H 743.619 -1.84769 -4.48317 0
M  V30 7623 N 744.962 1.50701 -0.461195 0
M  V30 7624 C 745.872 2.32069 0.343661 0
M  V30 7625 C 746.888 1.42016 1.00535 0
M  V30 7626 O 748.064 1.75077 0.995498 0
M  V30 7627 C 745.129 3.16424 1.41692 0
M  V30 7628 C 744.19 4.22286 0.772869 0
M  V30 7629 C 743.423 5.02609 1.79499 0
M  V30 7630 O 743.646 4.83874 3.0203 0
M  V30 7631 O 742.58 5.86047 1.3723 0
M  V30 7632 H 746.406 3.01996 -0.321268 0
M  V30 7633 H 743.991 1.47723 -0.223235 0
M  V30 7634 H 745.873 3.68795 2.03883 0
M  V30 7635 H 744.548 2.49236 2.0655 0
M  V30 7636 H 743.455 3.73931 0.112277 0
M  V30 7637 H 744.788 4.91915 0.167399 0
M  V30 7638 N 746.441 0.193421 1.56409 0
M  V30 7639 C 747.391 -0.74089 2.15627 0
M  V30 7640 C 748.375 -1.17747 1.09656 0
M  V30 7641 O 749.567 -1.13615 1.35723 0
M  V30 7642 C 746.696 -1.96091 2.81786 0
M  V30 7643 C 745.782 -1.54531 3.94944 0
M  V30 7644 N 746.173 -0.840569 4.98767 0
M  V30 7645 C 744.471 -1.83473 4.06514 0
M  V30 7646 C 745.172 -0.632571 5.7825 0
M  V30 7647 N 744.148 -1.18078 5.30621 0
M  V30 7648 H 747.95 -0.193718 2.93261 0
M  V30 7649 H 745.464 -0.00643211 1.62399 0
M  V30 7650 H 747.461 -2.64071 3.22602 0
M  V30 7651 H 746.121 -2.51282 2.05639 0
M  V30 7652 H 747.132 -0.496218 5.15517 0
M  V30 7653 H 743.809 -2.40184 3.41493 0
M  V30 7654 H 745.199 -0.0736433 6.7186 0
M  V30 7655 N 747.919 -1.57396 -0.0801906 0
M  V30 7656 C 749.165 -1.87113 -0.782083 0
M  V30 7657 C 749.498 -0.78458 -1.77646 0
M  V30 7658 O 748.773 0.205993 -1.93406 0
M  V30 7659 C 749.056 -3.27483 -1.49756 0
M  V30 7660 C 748.909 -4.46782 -0.520171 0
M  V30 7661 C 750.228 -3.65965 -2.44454 0
M  V30 7662 H 747.347 -0.680559 -0.282858 0
M  V30 7663 H 749.989 -1.89946 -0.0454139 0
M  V30 7664 H 748.139 -3.25199 -2.12551 0
M  V30 7665 H 749.811 -4.61187 0.101919 0
M  V30 7666 H 748.054 -4.33485 0.165219 0
M  V30 7667 H 748.725 -5.41761 -1.05824 0
M  V30 7668 H 751.201 -3.69289 -1.91742 0
M  V30 7669 H 750.077 -4.65086 -2.91524 0
M  V30 7670 H 750.338 -2.95446 -3.28883 0
M  V30 7671 N 749.397 0.351382 -1.53633 0
M  V30 7672 C 750.329 1.45159 -1.77374 0
M  V30 7673 C 751.342 1.4905 -0.654826 0
M  V30 7674 O 752.531 1.52274 -0.931396 0
M  V30 7675 C 749.631 2.83858 -1.85143 0
M  V30 7676 C 748.804 3.03498 -3.14972 0
M  V30 7677 C 747.863 4.22393 -3.138 0
M  V30 7678 O 746.889 4.16885 -3.87551 0
M  V30 7679 N 748.091 5.30533 -2.35617 0
M  V30 7680 H 750.856 1.25167 -2.72311 0
M  V30 7681 H 748.417 0.54121 -1.52586 0
M  V30 7682 H 750.409 3.61557 -1.8182 0
M  V30 7683 H 748.979 2.9703 -0.974275 0
M  V30 7684 H 748.199 2.13336 -3.31484 0
M  V30 7685 H 749.487 3.13498 -4.00745 0
M  V30 7686 H 748.885 5.37875 -1.75235 0
M  V30 7687 H 747.442 6.06756 -2.38098 0
M  V30 7688 N 750.875 1.45233 0.611969 0
M  V30 7689 C 751.838 1.53189 1.70487 0
M  V30 7690 C 752.838 0.411839 1.55437 0
M  V30 7691 O 754.028 0.675164 1.60584 0
M  V30 7692 C 751.16 1.42422 3.09723 0
M  V30 7693 H 752.353 2.5056 1.64802 0
M  V30 7694 H 749.906 1.32609 0.827318 0
M  V30 7695 H 750.641 0.462185 3.2099 0
M  V30 7696 H 750.426 2.23658 3.22055 0
M  V30 7697 H 751.916 1.51012 3.89339 0
M  V30 7698 N 752.353 -0.854086 1.3245 0
M  V30 7699 C 753.599 -1.61069 1.23225 0
M  V30 7700 C 753.932 -1.93111 -0.205349 0
M  V30 7701 O 753.207 -1.57397 -1.14265 0
M  V30 7702 C 753.49 -2.93065 2.09249 0
M  V30 7703 C 753.343 -2.67801 3.6139 0
M  V30 7704 C 754.662 -3.94341 1.95406 0
M  V30 7705 H 751.781 -0.584449 0.448986 0
M  V30 7706 H 754.423 -0.986189 1.62402 0
M  V30 7707 H 752.573 -3.46364 1.75967 0
M  V30 7708 H 754.245 -2.21052 4.04887 0
M  V30 7709 H 752.488 -2.01756 3.84027 0
M  V30 7710 H 753.159 -3.6179 4.16907 0
M  V30 7711 H 755.635 -3.50301 2.24562 0
M  V30 7712 H 754.511 -4.84555 2.57872 0
M  V30 7713 H 754.772 -4.32382 0.921865 0
M  V30 7714 N 753.831 -1.1567 -1.07043 0
M  V30 7715 C 755.08 -0.928039 -1.79082 0
M  V30 7716 C 755.393 0.545968 -1.87826 0
M  V30 7717 O 756.599 0.892308 -2.56418 0
M  V30 7718 C 755.055 -1.61103 -3.21829 0
M  V30 7719 C 754.663 -3.12228 -3.21275 0
M  V30 7720 C 756.407 -1.46404 -3.98455 0
M  V30 7721 C 754.314 -3.733 -4.58695 0
M  V30 7722 H 753.244 -0.34357 -0.671175 0
M  V30 7723 H 755.895 -1.38718 -1.20123 0
M  V30 7724 H 754.277 -1.07958 -3.81 0
M  V30 7725 H 755.451 -3.72155 -2.71731 0
M  V30 7726 H 753.766 -3.26725 -2.58147 0
M  V30 7727 H 756.363 -1.8942 -5.00024 0
M  V30 7728 H 756.706 -0.41195 -4.14257 0
M  V30 7729 H 757.239 -1.96663 -3.45787 0
M  V30 7730 H 753.978 -4.78423 -4.48098 0
M  V30 7731 H 753.498 -3.18157 -5.08465 0
M  V30 7732 H 755.177 -3.7441 -5.27661 0
M  V30 7733 N 755.309 1.25446 -0.953992 0
M  V30 7734 C 756.537 1.97215 -0.625595 0
M  V30 7735 C 756.952 1.70911 0.802168 0
M  V30 7736 O 756.309 0.984782 1.5365 0
M  V30 7737 C 756.36 3.50777 -0.873943 0
M  V30 7738 O 756.081 3.76173 -2.24556 0
M  V30 7739 C 757.582 4.39776 -0.557845 0
M  V30 7740 H 754.802 0.628652 -0.2346 0
M  V30 7741 H 757.346 1.59632 -1.27819 0
M  V30 7742 H 755.501 3.86474 -0.267765 0
M  V30 7743 H 755.915 4.70636 -2.31522 0
M  V30 7744 H 757.389 5.46431 -0.782157 0
M  V30 7745 H 757.866 4.36257 0.507573 0
M  V30 7746 H 758.472 4.09644 -1.14332 0
M  V30 7747 N 756.787 0.722489 1.40064 0
M  V30 7748 C 758.033 0.265371 2.01056 0
M  V30 7749 C 758.366 -1.14062 1.57174 0
M  V30 7750 O 757.641 -1.77514 0.794916 0
M  V30 7751 C 757.924 0.353157 3.58364 0
M  V30 7752 C 757.777 1.79802 4.123 0
M  V30 7753 C 759.096 -0.271677 4.39261 0
M  V30 7754 H 756.215 0.0979002 0.730469 0
M  V30 7755 H 758.857 0.916289 1.66446 0
M  V30 7756 H 757.007 -0.201037 3.87979 0
M  V30 7757 H 758.679 2.40813 3.93455 0
M  V30 7758 H 756.922 2.32348 3.66329 0
M  V30 7759 H 757.593 1.81079 5.21454 0
M  V30 7760 H 760.069 0.200607 4.15616 0
M  V30 7761 H 758.945 -0.179843 5.48605 0
M  V30 7762 H 759.206 -1.35611 4.20787 0
M  V30 7763 N 758.265 -1.50454 0.469181 0
M  V30 7764 C 759.213 -2.30101 -0.340033 0
M  V30 7765 C 760.207 -1.37306 -0.992135 0
M  V30 7766 O 761.413 -1.54506 -0.923458 0
M  V30 7767 H 757.788 -0.740941 -0.128495 0
M  V30 7768 H 759.759 -2.96315 0.352144 0
M  V30 7769 C 758.508 -3.17804 -1.41052 0
M  V30 7770 H 757.831 -3.89115 -0.918124 0
M  V30 7771 H 759.271 -3.76533 -1.94934 0
M  V30 7772 C 757.73 -2.35272 -2.4114 0
M  V30 7773 O 758.26 -2.03448 -3.4637 0
M  V30 7774 N 756.466 -1.97889 -2.1281 0
M  V30 7775 H 756.013 -2.2397 -1.27261 0
M  V30 7776 H 755.971 -1.42971 -2.80012 0
M  V30 7777 N 759.743 -0.201713 -1.56304 0
M  V30 7778 C 760.706 0.702811 -2.18159 0
M  V30 7779 C 761.706 1.13619 -1.13787 0
M  V30 7780 O 762.896 1.0482 -1.39134 0
M  V30 7781 C 760.028 1.96032 -2.78898 0
M  V30 7782 H 761.221 0.163836 -2.99452 0
M  V30 7783 H 758.774 0.04791 -1.56227 0
M  V30 7784 H 759.509 2.54165 -2.01421 0
M  V30 7785 H 759.294 1.65824 -3.55309 0
M  V30 7786 H 760.784 2.60519 -3.26373 0
M  V30 7787 N 761.222 1.57436 0.0718424 0
M  V30 7788 C 762.45 1.91474 0.783932 0
M  V30 7789 C 762.865 0.797669 1.71122 0
M  V30 7790 O 762.222 -0.228989 1.81058 0
M  V30 7791 C 762.273 3.25259 1.57761 0
M  V30 7792 O 761.994 4.3267 0.687596 0
M  V30 7793 C 763.495 3.7331 2.3907 0
M  V30 7794 H 760.715 0.632901 0.222885 0
M  V30 7795 H 763.259 2.04457 0.0421262 0
M  V30 7796 H 761.414 3.13804 2.27169 0
M  V30 7797 H 761.828 5.09641 1.23962 0
M  V30 7798 H 763.302 4.69551 2.90216 0
M  V30 7799 H 763.779 3.02318 3.18591 0
M  V30 7800 H 764.385 3.8771 1.74818 0
M  V30 7801 N 762.7 -0.34323 1.53817 0
M  V30 7802 C 764.116 -0.686355 1.44088 0
M  V30 7803 C 764.316 -1.92426 0.597882 0
M  V30 7804 O 763.372 -2.52343 0.0889918 0
M  V30 7805 C 764.685 -0.878698 2.87575 0
M  V30 7806 C 766.233 -0.977296 2.97352 0
M  V30 7807 C 766.708 -1.20195 4.41947 0
M  V30 7808 N 768.199 -1.26915 4.45474 0
M  V30 7809 C 768.934 -1.46049 5.54488 0
M  V30 7810 N 768.43 -1.62354 6.73508 0
M  V30 7811 N 770.223 -1.48599 5.42102 0
M  V30 7812 H 762.374 0.470679 2.07119 0
M  V30 7813 H 764.637 0.148652 0.936273 0
M  V30 7814 H 764.343 -0.040602 3.51677 0
M  V30 7815 H 764.217 -1.78034 3.32541 0
M  V30 7816 H 766.604 -1.80591 2.3339 0
M  V30 7817 H 766.685 -0.0525498 2.55746 0
M  V30 7818 H 766.329 -0.378262 5.06489 0
M  V30 7819 H 766.259 -2.14027 4.81145 0
M  V30 7820 H 768.75 -1.15837 3.59708 0
M  V30 7821 H 769.063 -1.76591 7.52353 0
M  V30 7822 H 767.408 -1.5949 6.76453 0
M  V30 7823 H 770.599 -1.35443 4.48077 0
M  V30 7824 H 770.772 -1.6317 6.2712 0
M  V30 7825 N 764.178 -1.45556 -0.604258 0
M  V30 7826 C 765.594 -1.30035 -0.925368 0
M  V30 7827 C 765.794 -0.255833 -1.99869 0
M  V30 7828 O 764.85 0.349076 -2.50075 0
M  V30 7829 C 766.163 -2.68028 -1.36314 0
M  V30 7830 C 767.711 -2.75951 -1.47717 0
M  V30 7831 C 768.186 -4.14476 -1.94868 0
M  V30 7832 N 769.677 -4.16787 -2.02097 0
M  V30 7833 C 770.412 -5.20845 -2.39809 0
M  V30 7834 N 769.908 -6.35246 -2.76467 0
M  V30 7835 N 771.701 -5.08204 -2.40177 0
M  V30 7836 H 763.852 -2.1214 0.10512 0
M  V30 7837 H 766.115 -0.947871 -0.0156303 0
M  V30 7838 H 765.821 -3.45667 -0.648628 0
M  V30 7839 H 765.695 -2.96711 -2.329 0
M  V30 7840 H 768.082 -1.98613 -2.18258 0
M  V30 7841 H 768.163 -2.50977 -0.494371 0
M  V30 7842 H 767.807 -4.923 -1.24912 0
M  V30 7843 H 767.737 -4.36843 -2.94068 0
M  V30 7844 H 770.228 -3.34233 -1.76343 0
M  V30 7845 H 770.541 -7.10438 -3.04134 0
M  V30 7846 H 768.886 -6.38642 -2.74155 0
M  V30 7847 H 772.077 -4.17874 -2.10947 0
M  V30 7848 H 772.25 -5.89417 -2.69242 0
M  V30 7849 N 765.656 0.84705 -1.32902 0
M  V30 7850 C 766.904 1.5986 -1.2365 0
M  V30 7851 C 767.225 1.93974 0.199789 0
M  V30 7852 O 766.495 1.60273 1.12648 0
M  V30 7853 H 765.075 0.592696 -0.454665 0
M  V30 7854 H 767.737 1.01278 -1.66519 0
M  V30 7855 H 766.833 2.53218 -1.82448 0
M  V30 7856 N 767.134 1.16236 1.06428 0
M  V30 7857 C 768.411 0.853294 1.76006 0
M  V30 7858 C 768.791 -0.649162 2.00871 0
M  V30 7859 O 768.139 -1.59653 1.63472 0
M  V30 7860 C 768.349 1.67448 3.06206 0
M  V30 7861 C 769.697 1.8866 3.80385 0
M  V30 7862 O 770.721 1.64303 3.16043 0
M  V30 7863 O 769.58 2.29518 4.95968 0
M  V30 7864 H 766.674 0.314737 0.764767 0
M  V30 7865 H 769.22 1.26865 1.12709 0
M  V30 7866 H 767.992 2.69411 2.83784 0
M  V30 7867 H 767.615 1.25608 3.77238 0
M  V30 7868 N 768.612 -1.24939 0.960631 0
M  V30 7869 C 769.542 -2.28 0.503815 0
M  V30 7870 C 770.523 -1.63959 -0.452928 0
M  V30 7871 O 771.708 -1.91009 -0.350585 0
M  V30 7872 C 768.838 -3.46643 -0.213535 0
M  V30 7873 C 767.792 -4.22903 0.658535 0
M  V30 7874 C 767.118 -5.34363 -0.189902 0
M  V30 7875 C 768.418 -4.84949 1.93963 0
M  V30 7876 H 770.112 -2.66462 1.36521 0
M  V30 7877 H 767.658 -1.28093 0.657897 0
M  V30 7878 H 769.611 -4.1787 -0.544286 0
M  V30 7879 H 768.335 -3.07187 -1.10923 0
M  V30 7880 H 766.994 -3.53467 0.972455 0
M  V30 7881 H 766.642 -4.91147 -1.08553 0
M  V30 7882 H 766.342 -5.86302 0.390331 0
M  V30 7883 H 767.866 -6.0842 -0.515484 0
M  V30 7884 H 769.28 -5.48288 1.67491 0
M  V30 7885 H 767.677 -5.47091 2.46601 0
M  V30 7886 H 768.747 -4.06799 2.639 0
M  V30 7887 N 770.09 -0.729906 -1.39679 0
M  V30 7888 C 771.038 -0.0756589 -2.32477 0
M  V30 7889 C 772.032 0.731438 -1.52795 0
M  V30 7890 O 773.238 0.633195 -1.68495 0
M  V30 7891 H 769.613 -0.00566492 -0.751979 0
M  V30 7892 H 771.584 -0.874797 -2.85289 0
M  V30 7893 C 770.333 0.821313 -3.37861 0
M  V30 7894 H 769.656 0.209666 -3.9925 0
M  V30 7895 H 771.096 1.24679 -4.05254 0
M  V30 7896 C 769.555 1.9533 -2.74495 0
M  V30 7897 O 770.085 3.04548 -2.61942 0
M  V30 7898 N 768.291 1.74119 -2.3266 0
M  V30 7899 H 767.838 0.852908 -2.4307 0
M  V30 7900 H 767.796 2.50036 -1.90603 0
M  V30 7901 N 771.568 1.50203 -0.477153 0
M  V30 7902 C 772.817 2.01551 0.0774548 0
M  V30 7903 C 773.13 1.36359 1.40234 0
M  V30 7904 O 774.336 1.78898 2.04225 0
M  V30 7905 C 772.792 3.59406 0.188539 0
M  V30 7906 C 772.4 4.3356 -1.12828 0
M  V30 7907 C 774.144 4.18776 0.694782 0
M  V30 7908 C 772.051 5.83213 -0.98066 0
M  V30 7909 H 770.981 0.75329 0.0327212 0
M  V30 7910 H 773.632 1.72959 -0.612969 0
M  V30 7911 H 772.014 3.84611 0.942881 0
M  V30 7912 H 773.188 4.20074 -1.89405 0
M  V30 7913 H 771.503 3.85827 -1.5661 0
M  V30 7914 H 774.1 5.28338 0.822356 0
M  V30 7915 H 774.443 3.80557 1.68766 0
M  V30 7916 H 774.976 3.978 -0.00234519 0
M  V30 7917 H 771.715 6.25914 -1.94709 0
M  V30 7918 H 771.235 5.99256 -0.255375 0
M  V30 7919 H 772.914 6.4373 -0.649717 0
M  V30 7920 N 773.046 0.209999 1.56195 0
M  V30 7921 C 773.994 -0.721416 2.2113 0
M  V30 7922 C 774.988 -1.20852 1.18706 0
M  V30 7923 O 776.194 -1.16968 1.36815 0
M  V30 7924 H 772.569 -0.251033 0.708863 0
M  V30 7925 H 774.54 -0.150193 2.98022 0
M  V30 7926 C 773.289 -1.92392 2.89621 0
M  V30 7927 H 772.612 -1.5582 3.68185 0
M  V30 7928 H 774.052 -2.55367 3.38473 0
M  V30 7929 C 772.511 -2.77208 1.91461 0
M  V30 7930 O 773.041 -3.75603 1.42426 0
M  V30 7931 N 771.247 -2.43006 1.59363 0
M  V30 7932 H 770.794 -1.63047 1.99433 0
M  V30 7933 H 770.752 -3.00036 0.939449 0
M  V30 7934 N 774.524 -1.57472 -0.0634922 0
M  V30 7935 C 775.457 -1.99571 -1.10664 0
M  V30 7936 C 776.435 -0.874015 -1.37112 0
M  V30 7937 O 777.619 -1.13702 -1.50347 0
M  V30 7938 C 774.746 -2.3395 -2.44918 0
M  V30 7939 C 773.792 -3.56213 -2.34551 0
M  V30 7940 S 774.625 -5.06727 -1.73169 0
M  V30 7941 C 775.781 -5.44316 -3.08984 0
M  V30 7942 H 776.014 -2.87739 -0.747905 0
M  V30 7943 H 773.547 -1.5198 -0.272316 0
M  V30 7944 H 775.505 -2.54431 -3.22141 0
M  V30 7945 H 774.166 -1.46297 -2.7795 0
M  V30 7946 H 773.359 -3.77812 -3.33578 0
M  V30 7947 H 772.961 -3.35406 -1.65466 0
M  V30 7948 H 775.253 -5.42894 -4.05305 0
M  V30 7949 H 776.196 -6.4502 -2.92156 0
M  V30 7950 H 776.604 -4.71781 -3.09972 0
M  V30 7951 N 776.003 0.335068 -1.53997 0
M  V30 7952 C 777.231 1.09418 -1.756 0
M  V30 7953 C 777.646 1.82083 -0.499138 0
M  V30 7954 O 777.003 1.74646 0.529631 0
M  V30 7955 C 777.054 2.10115 -2.94166 0
M  V30 7956 O 776.775 1.40404 -4.14992 0
M  V30 7957 C 778.276 2.98336 -3.27888 0
M  V30 7958 H 775.496 0.32595 -0.586513 0
M  V30 7959 H 778.04 0.384693 -2.00849 0
M  V30 7960 H 776.195 2.76616 -2.71224 0
M  V30 7961 H 776.609 2.07743 -4.81605 0
M  V30 7962 H 778.083 3.6491 -4.1418 0
M  V30 7963 H 778.56 3.64814 -2.44556 0
M  V30 7964 H 779.166 2.37412 -3.52868 0
M  V30 7965 N 777.481 1.45874 0.596531 0
M  V30 7966 C 778.706 1.54247 1.38646 0
M  V30 7967 C 779.131 0.179571 1.87241 0
M  V30 7968 O 778.489 -0.837831 1.6078 0
M  V30 7969 C 778.537 2.54015 2.55946 0
M  V30 7970 O 777.641 2.06561 3.5694 0
M  V30 7971 H 776.982 0.519555 0.413471 0
M  V30 7972 H 779.512 1.91327 0.724936 0
M  V30 7973 H 779.522 2.73179 3.03047 0
M  V30 7974 H 778.197 3.52994 2.19928 0
M  V30 7975 H 776.774 1.97324 3.16414 0
M  V30 7976 N 778.959 -0.83999 1.33349 0
M  V30 7977 C 780.37 -1.41139 1.22216 0
M  V30 7978 C 780.721 -1.95551 -0.159398 0
M  V30 7979 O 779.846 -1.88721 -1.05893 0
M  V30 7980 C 780.441 -2.56564 2.21269 0
M  V30 7981 C 779 -3.09661 2.13979 0
M  V30 7982 C 778.147 -1.82457 2.08818 0
M  V30 7983 H 781.098 -0.645853 1.44964 0
M  V30 7984 H 781.119 -3.34163 1.81976 0
M  V30 7985 H 780.631 -2.16932 3.21811 0
M  V30 7986 H 778.732 -3.53841 1.16736 0
M  V30 7987 H 778.845 -3.6991 3.04472 0
M  V30 7988 H 777.209 -2.0266 1.54276 0
M  V30 7989 H 777.992 -1.45022 3.11165 0
M  V30 7990 N 780.437 -1.16799 -1.0581 0
M  V30 7991 C 781.37 -0.822491 -2.12862 0
M  V30 7992 C 782.348 0.208006 -1.61264 0
M  V30 7993 O 783.532 0.0909652 -1.8828 0
M  V30 7994 C 780.659 -0.225826 -3.37946 0
M  V30 7995 C 779.705 -1.23071 -4.08357 0
M  V30 7996 S 780.538 -2.77944 -4.5772 0
M  V30 7997 C 781.694 -2.19741 -5.86059 0
M  V30 7998 H 781.927 -1.72917 -2.41841 0
M  V30 7999 H 779.46 -0.991982 -1.18318 0
M  V30 8000 H 781.418 0.111955 -4.10347 0
M  V30 8001 H 780.079 0.658692 -3.07116 0
M  V30 8002 H 779.272 -0.761758 -4.9821 0
M  V30 8003 H 778.874 -1.51383 -3.41993 0
M  V30 8004 H 781.166 -1.5691 -6.59079 0
M  V30 8005 H 782.109 -3.07823 -6.37692 0
M  V30 8006 H 782.517 -1.63433 -5.40324 0
M  V30 8007 N 781.915 1.24427 -0.967243 0
M  V30 8008 C 783.163 1.92107 -0.627638 0
M  V30 8009 C 783.484 1.75991 0.83978 0
M  V30 8010 O 782.754 1.13118 1.59941 0
M  V30 8011 H 781.334 0.710986 -0.229145 0
M  V30 8012 H 783.996 1.51331 -1.22821 0
M  V30 8013 H 783.092 2.99791 -0.867844 0
M  V30 8014 N 783.393 0.737304 1.3929 0
M  V30 8015 C 784.621 0.296573 2.04763 0
M  V30 8016 C 785.036 -1.06941 1.55592 0
M  V30 8017 O 784.393 -1.67619 0.721822 0
M  V30 8018 C 784.444 0.291906 3.6032 0
M  V30 8019 O 784.165 1.60397 4.07682 0
M  V30 8020 C 785.666 -0.164708 4.42994 0
M  V30 8021 H 782.886 0.129251 0.658434 0
M  V30 8022 H 785.43 1.0016 1.78293 0
M  V30 8023 H 783.585 -0.364251 3.85684 0
M  V30 8024 H 783.999 1.51909 5.0202 0
M  V30 8025 H 785.473 -0.116814 5.51876 0
M  V30 8026 H 785.95 -1.21022 4.22197 0
M  V30 8027 H 786.556 0.461968 4.22784 0
M  V30 8028 N 784.871 -1.49948 0.485112 0
M  V30 8029 C 785.818 -2.28819 -0.301729 0
M  V30 8030 C 786.788 -1.34496 -0.974683 0
M  V30 8031 O 787.973 -1.63444 -0.984418 0
M  V30 8032 C 785.113 -3.16758 -1.36961 0
M  V30 8033 C 784.226 -4.26125 -0.710027 0
M  V30 8034 C 783.361 -5.01302 -1.75699 0
M  V30 8035 C 782.4 -6.02525 -1.07841 0
M  V30 8036 N 781.537 -6.70927 -2.06886 0
M  V30 8037 H 786.377 -2.95604 0.377127 0
M  V30 8038 H 783.914 -1.45764 0.197826 0
M  V30 8039 H 785.872 -3.66106 -2.00056 0
M  V30 8040 H 784.502 -2.51991 -2.01744 0
M  V30 8041 H 783.554 -3.80385 0.0338278 0
M  V30 8042 H 784.866 -4.98493 -0.175079 0
M  V30 8043 H 784.02 -5.54438 -2.46339 0
M  V30 8044 H 782.759 -4.28672 -2.32577 0
M  V30 8045 H 781.764 -5.48635 -0.357706 0
M  V30 8046 H 782.989 -6.77134 -0.516345 0
M  V30 8047 H 780.935 -6.01079 -2.62755 0
M  V30 8048 H 780.852 -7.39216 -1.58414 0
M  V30 8049 H 782.12 -7.28675 -2.76863 0
M  V30 8050 N 786.349 -0.21828 -1.56081 0
M  V30 8051 C 787.574 0.422302 -2.03055 0
M  V30 8052 C 787.999 1.5279 -1.09713 0
M  V30 8053 O 787.357 1.81102 -0.0847187 0
M  V30 8054 C 787.405 0.934177 -3.48289 0
M  V30 8055 O 786.509 2.04574 -3.58083 0
M  V30 8056 H 785.85 0.0959764 -0.657027 0
M  V30 8057 H 788.38 -0.335958 -2.01823 0
M  V30 8058 H 788.39 1.24484 -3.88546 0
M  V30 8059 H 787.065 0.124963 -4.15712 0
M  V30 8060 H 785.642 1.74196 -3.29712 0
M  V30 8061 N 787.827 1.57504 0.0551401 0
M  V30 8062 C 789.076 1.87237 0.750009 0
M  V30 8063 C 789.389 0.813268 1.77891 0
M  V30 8064 O 790.595 0.99898 2.52453 0
M  V30 8065 C 789.051 3.32187 1.38491 0
M  V30 8066 C 788.659 4.46267 0.393707 0
M  V30 8067 C 790.403 3.71101 2.06117 0
M  V30 8068 C 788.31 5.82265 1.03547 0
M  V30 8069 H 787.24 0.698524 0.283866 0
M  V30 8070 H 789.891 1.835 0.00365997 0
M  V30 8071 H 788.273 3.30588 2.18008 0
M  V30 8072 H 789.447 4.59289 -0.372865 0
M  V30 8073 H 787.762 4.16015 -0.17902 0
M  V30 8074 H 790.359 4.70012 2.54937 0
M  V30 8075 H 790.702 3.01751 2.86796 0
M  V30 8076 H 791.235 3.74762 1.33409 0
M  V30 8077 H 787.974 6.54949 0.268644 0
M  V30 8078 H 787.494 5.73012 1.7725 0
M  V30 8079 H 789.173 6.28148 1.55047 0
M  V30 8080 N 789.305 -0.326896 1.54172 0
M  V30 8081 C 790.235 -1.40741 1.86317 0
M  V30 8082 C 791.216 -1.54125 0.719684 0
M  V30 8083 O 792.401 -1.6806 0.973117 0
M  V30 8084 C 789.531 -2.77557 2.08757 0
M  V30 8085 C 788.485 -2.78965 3.24596 0
M  V30 8086 C 787.811 -4.18824 3.32401 0
M  V30 8087 C 789.111 -2.4301 4.62324 0
M  V30 8088 H 790.805 -1.14088 2.76811 0
M  V30 8089 H 788.351 -0.547389 1.3319 0
M  V30 8090 H 790.304 -3.53209 2.29829 0
M  V30 8091 H 789.028 -3.0568 1.15009 0
M  V30 8092 H 787.687 -2.05767 3.03406 0
M  V30 8093 H 787.335 -4.44083 2.36218 0
M  V30 8094 H 787.035 -4.20673 4.10253 0
M  V30 8095 H 788.559 -4.96294 3.55703 0
M  V30 8096 H 789.973 -3.08375 4.83299 0
M  V30 8097 H 788.37 -2.56116 5.42701 0
M  V30 8098 H 789.44 -1.38165 4.64799 0
M  V30 8099 N 790.784 -1.46188 -0.588786 0
M  V30 8100 C 791.714 -1.59148 -1.70863 0
M  V30 8101 C 792.695 -0.442083 -1.64255 0
M  V30 8102 O 793.88 -0.667575 -1.82365 0
M  V30 8103 C 791.01 -1.5757 -3.09498 0
M  V30 8104 C 789.964 -2.71418 -3.30932 0
M  V30 8105 C 789.29 -2.549 -4.70032 0
M  V30 8106 C 790.59 -4.1329 -3.19356 0
M  V30 8107 H 792.284 -2.52889 -1.60274 0
M  V30 8108 H 789.83 -1.21707 -0.769638 0
M  V30 8109 H 791.783 -1.65231 -3.87655 0
M  V30 8110 H 790.507 -0.603705 -3.20972 0
M  V30 8111 H 789.166 -2.63216 -2.55172 0
M  V30 8112 H 788.814 -1.55797 -4.78264 0
M  V30 8113 H 788.514 -3.31257 -4.85327 0
M  V30 8114 H 790.038 -2.64443 -5.50366 0
M  V30 8115 H 791.452 -4.22636 -3.87365 0
M  V30 8116 H 789.849 -4.90187 -3.46175 0
M  V30 8117 H 790.919 -4.33874 -2.16522 0
M  V30 8118 N 792.262 0.832906 -1.33792 0
M  V30 8119 C 793.487 1.62568 -1.28788 0
M  V30 8120 C 793.912 1.87599 0.137246 0
M  V30 8121 O 793.27 1.44436 1.0958 0
M  V30 8122 C 793.318 2.9495 -2.07453 0
M  V30 8123 O 792.422 3.86546 -1.43722 0
M  V30 8124 H 791.763 0.494809 -0.442787 0
M  V30 8125 H 794.293 1.03578 -1.76445 0
M  V30 8126 H 794.303 3.44599 -2.1844 0
M  V30 8127 H 792.978 2.76055 -3.11073 0
M  V30 8128 H 791.555 3.45044 -1.41417 0
M  V30 8129 N 793.74 1.17359 1.05189 0
M  V30 8130 C 795.156 0.920861 1.30355 0
M  V30 8131 C 795.356 -0.419993 1.97074 0
M  V30 8132 O 794.412 -1.15696 2.24434 0
M  V30 8133 C 795.725 2.07818 2.1733 0
M  V30 8134 C 797.273 2.1152 2.30712 0
M  V30 8135 C 797.748 3.26637 3.21048 0
M  V30 8136 N 799.239 3.26426 3.28634 0
M  V30 8137 C 799.974 4.12141 3.98657 0
M  V30 8138 N 799.47 5.07966 4.71107 0
M  V30 8139 N 801.263 4.00091 3.94821 0
M  V30 8140 H 793.414 2.03666 0.602821 0
M  V30 8141 H 795.677 0.889294 0.328421 0
M  V30 8142 H 795.383 3.04727 1.75597 0
M  V30 8143 H 795.257 2.02922 3.17966 0
M  V30 8144 H 797.644 1.15196 2.71687 0
M  V30 8145 H 797.725 2.20477 1.29706 0
M  V30 8146 H 797.369 4.23227 2.80788 0
M  V30 8147 H 797.299 3.14917 4.2206 0
M  V30 8148 H 799.79 2.57045 2.77013 0
M  V30 8149 H 800.103 5.69766 5.22099 0
M  V30 8150 H 798.448 5.11936 4.7005 0
M  V30 8151 H 801.639 3.24523 3.37346 0
M  V30 8152 H 801.812 4.6711 4.49123 0
M  V30 8153 N 795.218 -1.23913 0.973828 0
M  V30 8154 C 796.634 -1.44325 0.681363 0
M  V30 8155 C 796.834 -1.86832 -0.754728 0
M  V30 8156 O 795.89 -2.01024 -1.52793 0
M  V30 8157 C 797.203 -2.50017 1.67069 0
M  V30 8158 C 798.751 -2.63838 1.68399 0
M  V30 8159 C 799.226 -3.72734 2.66145 0
M  V30 8160 N 800.717 -3.80169 2.64624 0
M  V30 8161 C 801.452 -4.6397 3.36927 0
M  V30 8162 N 800.948 -5.51911 4.18767 0
M  V30 8163 N 802.741 -4.58106 3.25722 0
M  V30 8164 H 794.892 -0.946204 1.9016 0
M  V30 8165 H 797.155 -0.477374 0.819035 0
M  V30 8166 H 796.861 -2.25686 2.69738 0
M  V30 8167 H 796.735 -3.48287 1.4483 0
M  V30 8168 H 799.122 -2.87524 0.664379 0
M  V30 8169 H 799.203 -1.65906 1.94702 0
M  V30 8170 H 798.847 -3.49797 3.68245 0
M  V30 8171 H 798.777 -4.70193 2.3712 0
M  V30 8172 H 801.268 -3.17319 2.05224 0
M  V30 8173 H 801.581 -6.12828 4.70809 0
M  V30 8174 H 799.926 -5.51556 4.2286 0
M  V30 8175 H 803.117 -3.8842 2.61242 0
M  V30 8176 H 803.29 -5.23188 3.82333 0
M  V30 8177 N 796.696 -0.74468 -1.38897 0
M  V30 8178 C 798.107 -0.36568 -1.83084 0
M  V30 8179 C 798.458 1.10436 -1.62168 0
M  V30 8180 O 797.583 1.85281 -1.11804 0
M  V30 8181 C 798.178 -0.656946 -3.3237 0
M  V30 8182 C 796.737 -0.331329 -3.74939 0
M  V30 8183 C 795.884 -0.914661 -2.61781 0
M  V30 8184 H 798.835 -0.941551 -1.27752 0
M  V30 8185 H 798.856 0.0679546 -3.80439 0
M  V30 8186 H 798.368 -1.72693 -3.47561 0
M  V30 8187 H 796.469 0.732426 -3.6533 0
M  V30 8188 H 796.582 -0.820655 -4.72019 0
M  V30 8189 H 794.946 -0.34063 -2.52412 0
M  V30 8190 H 795.729 -1.98949 -2.79775 0
M  V30 8191 N 798.174 1.49689 -0.493057 0
M  V30 8192 C 799.59 1.58907 -0.148526 0
M  V30 8193 C 799.79 1.4991 1.34645 0
M  V30 8194 O 798.846 1.36893 2.12171 0
M  V30 8195 C 800.159 2.91996 -0.718265 0
M  V30 8196 C 801.707 3.05443 -0.683658 0
M  V30 8197 C 802.182 4.41138 -1.23132 0
M  V30 8198 N 803.673 4.47608 -1.19167 0
M  V30 8199 C 804.408 5.51038 -1.5857 0
M  V30 8200 N 803.904 6.61612 -2.05528 0
M  V30 8201 N 805.697 5.41706 -1.50036 0
M  V30 8202 H 797.848 1.5378 -1.46511 0
M  V30 8203 H 800.111 0.727996 -0.607228 0
M  V30 8204 H 799.817 3.04123 -1.7664 0
M  V30 8205 H 799.691 3.76798 -0.17419 0
M  V30 8206 H 802.078 2.92949 0.355626 0
M  V30 8207 H 802.159 2.22344 -1.26479 0
M  V30 8208 H 801.803 4.54382 -2.26935 0
M  V30 8209 H 801.733 5.22864 -0.626201 0
M  V30 8210 H 804.224 3.68274 -0.847524 0
M  V30 8211 H 804.537 7.36622 -2.33685 0
M  V30 8212 H 802.882 6.62674 -2.09497 0
M  V30 8213 H 806.073 4.54212 -1.13176 0
M  V30 8214 H 806.246 6.22188 -1.81068 0
M  V30 8215 N 799.652 0.226554 1.55963 0
M  V30 8216 C 800.929 -0.453058 1.90281 0
M  V30 8217 C 801.309 -1.77377 1.14458 0
M  V30 8218 O 800.657 -2.27067 0.255496 0
M  V30 8219 C 800.867 -0.641108 3.43061 0
M  V30 8220 C 802.215 -0.946265 4.13921 0
M  V30 8221 O 803.239 -0.727713 3.48687 0
M  V30 8222 O 802.098 -1.36131 5.29274 0
M  V30 8223 H 799.192 -0.240242 0.791336 0
M  V30 8224 H 801.738 0.26911 1.67553 0
M  V30 8225 H 800.51 0.290283 3.90222 0
M  V30 8226 H 800.133 -1.41458 3.71585 0
M  V30 8227 N 801.13 -1.57531 -0.0467866 0
M  V30 8228 C 802.407 -1.79568 -0.775536 0
M  V30 8229 C 802.787 -0.820322 -1.94509 0
M  V30 8230 O 802.135 0.14134 -2.28062 0
M  V30 8231 C 802.345 -3.26789 -1.22516 0
M  V30 8232 C 803.693 -3.91299 -1.64835 0
M  V30 8233 O 804.717 -3.30831 -1.3202 0
M  V30 8234 O 803.576 -4.97727 -2.25677 0
M  V30 8235 H 800.67 -0.737817 -0.373572 0
M  V30 8236 H 803.216 -1.69682 -0.0249302 0
M  V30 8237 H 801.988 -3.89357 -0.389446 0
M  V30 8238 H 801.611 -3.41496 -2.03633 0
M  V30 8239 N 802.608 0.318715 -1.54344 0
M  V30 8240 C 803.885 1.07461 -1.63437 0
M  V30 8241 C 804.265 2.05771 -0.47131 0
M  V30 8242 O 803.613 2.22175 0.53391 0
M  V30 8243 C 803.823 1.77224 -3.00654 0
M  V30 8244 C 805.171 2.30069 -3.56866 0
M  V30 8245 O 806.195 1.87284 -3.0299 0
M  V30 8246 O 805.054 3.08412 -4.51159 0
M  V30 8247 H 802.148 0.495627 -0.66203 0
M  V30 8248 H 804.694 0.318218 -1.6669 0
M  V30 8249 H 803.466 1.05742 -3.76742 0
M  V30 8250 H 803.089 2.59662 -3.01101 0
M  V30 8251 N 804.086 1.46499 0.581025 0
M  V30 8252 C 805.311 1.55708 1.37002 0
M  V30 8253 C 805.736 0.19942 1.8704 0
M  V30 8254 O 805.094 -0.820731 1.61659 0
M  V30 8255 C 805.142 2.56716 2.53238 0
M  V30 8256 O 804.246 2.10336 3.54729 0
M  V30 8257 H 803.587 0.523912 0.407937 0
M  V30 8258 H 806.117 1.92085 0.704602 0
M  V30 8259 H 806.127 2.76378 3.00132 0
M  V30 8260 H 804.802 3.55307 2.16171 0
M  V30 8261 H 803.379 2.00669 3.14303 0
M  V30 8262 N 805.565 -0.825799 1.34232 0
M  V30 8263 C 806.512 -1.93651 1.2557 0
M  V30 8264 C 807.482 -1.65578 0.131536 0
M  V30 8265 O 808.667 -1.88231 0.312027 0
M  V30 8266 C 805.807 -3.29862 1.01415 0
M  V30 8267 C 804.92 -3.70247 2.22579 0
M  V30 8268 C 804.055 -4.95392 1.91731 0
M  V30 8269 C 803.094 -5.28349 3.09053 0
M  V30 8270 N 802.231 -6.44671 2.78107 0
M  V30 8271 H 807.071 -2.00392 2.20561 0
M  V30 8272 H 804.608 -0.980441 1.09662 0
M  V30 8273 H 806.566 -4.08356 0.854485 0
M  V30 8274 H 805.196 -3.22642 0.100936 0
M  V30 8275 H 804.248 -2.87169 2.49476 0
M  V30 8276 H 805.56 -3.90575 3.10246 0
M  V30 8277 H 804.714 -5.81665 1.72484 0
M  V30 8278 H 803.453 -4.77059 1.0132 0
M  V30 8279 H 802.458 -4.40574 3.289 0
M  V30 8280 H 803.683 -5.48622 4.00239 0
M  V30 8281 H 801.629 -6.278 1.9027 0
M  V30 8282 H 801.546 -6.65158 3.59306 0
M  V30 8283 H 802.814 -7.34022 2.62358 0
M  V30 8284 N 807.043 -1.17915 -1.04565 0
M  V30 8285 C 808.289 -0.972863 -1.77942 0
M  V30 8286 C 808.622 0.496753 -1.87739 0
M  V30 8287 O 807.897 1.3688 -1.38181 0
M  V30 8288 C 808.18 -1.62227 -3.21488 0
M  V30 8289 C 808.033 -3.16441 -3.19664 0
M  V30 8290 C 809.352 -1.33137 -4.19479 0
M  V30 8291 H 806.471 -0.354843 -0.645953 0
M  V30 8292 H 809.113 -1.45508 -1.22178 0
M  V30 8293 H 807.263 -1.21224 -3.69103 0
M  V30 8294 H 808.935 -3.66544 -2.80077 0
M  V30 8295 H 807.178 -3.48863 -2.57832 0
M  V30 8296 H 807.849 -3.57012 -4.21006 0
M  V30 8297 H 810.325 -1.68654 -3.80388 0
M  V30 8298 H 809.201 -1.81151 -5.18146 0
M  V30 8299 H 809.462 -0.253319 -4.41374 0
M  V30 8300 N 808.521 1.23394 -0.980386 0
M  V30 8301 C 809.769 1.91431 -0.647978 0
M  V30 8302 C 810.09 1.76871 0.821066 0
M  V30 8303 O 809.36 1.14808 1.58732 0
M  V30 8304 H 807.94 0.708516 -0.236673 0
M  V30 8305 H 810.602 1.50019 -1.2442 0
M  V30 8306 H 809.698 2.98854 -0.899592 0
M  V30 8307 N 809.999 0.752036 1.385 0
M  V30 8308 C 811.246 0.307503 2.00152 0
M  V30 8309 C 811.574 -1.11033 1.59693 0
M  V30 8310 O 810.829 -1.77455 0.825125 0
M  V30 8311 C 811.128 0.376155 3.55415 0
M  V30 8312 C 810.794 1.74942 4.15579 0
M  V30 8313 C 809.456 2.12525 4.31725 0
M  V30 8314 C 811.808 2.65031 4.48785 0
M  V30 8315 C 809.136 3.39671 4.78373 0
M  V30 8316 C 811.488 3.91567 4.96848 0
M  V30 8317 C 810.152 4.2922 5.11201 0
M  V30 8318 H 809.422 0.112523 0.732407 0
M  V30 8319 H 812.069 0.962213 1.65571 0
M  V30 8320 H 810.374 -0.362121 3.90123 0
M  V30 8321 H 812.071 0.0138065 4.00998 0
M  V30 8322 H 808.661 1.44726 4.03426 0
M  V30 8323 H 812.845 2.3726 4.35914 0
M  V30 8324 H 808.101 3.68765 4.8767 0
M  V30 8325 H 812.275 4.61517 5.21512 0
M  V30 8326 H 809.902 5.27805 5.47107 0
M  V30 8327 N 811.477 -1.49425 0.500989 0
M  V30 8328 C 812.754 -1.9531 -0.106551 0
M  V30 8329 C 813.134 -1.44248 -1.54129 0
M  V30 8330 O 812.482 -0.656237 -2.18874 0
M  V30 8331 C 812.692 -3.48995 -0.0191972 0
M  V30 8332 C 814.04 -4.24161 -0.193129 0
M  V30 8333 O 815.064 -3.56075 -0.0943843 0
M  V30 8334 O 813.923 -5.45064 -0.395869 0
M  V30 8335 H 811.017 -0.82149 -0.0953068 0
M  V30 8336 H 813.563 -1.6007 0.563526 0
M  V30 8337 H 812.335 -3.78794 0.981353 0
M  V30 8338 H 811.958 -3.90852 -0.72942 0
M  V30 8339 N 812.955 -0.234822 -1.55841 0
M  V30 8340 C 813.902 0.6698 -2.20867 0
M  V30 8341 C 814.872 1.18042 -1.16856 0
M  V30 8342 O 816.057 1.23709 -1.45261 0
M  V30 8343 C 813.197 1.86646 -2.90271 0
M  V30 8344 C 812.31 1.39351 -4.08908 0
M  V30 8345 C 811.445 2.54878 -4.66059 0
M  V30 8346 C 810.484 2.04384 -5.76969 0
M  V30 8347 N 809.621 3.13233 -6.28355 0
M  V30 8348 H 814.461 0.10858 -2.97802 0
M  V30 8349 H 811.998 0.041836 -1.4704 0
M  V30 8350 H 813.956 2.56926 -3.28702 0
M  V30 8351 H 812.586 2.40035 -2.15831 0
M  V30 8352 H 811.638 0.585173 -3.75872 0
M  V30 8353 H 812.95 0.983356 -4.89011 0
M  V30 8354 H 812.104 3.33219 -5.07001 0
M  V30 8355 H 810.843 2.99188 -3.85146 0
M  V30 8356 H 809.848 1.24509 -5.35516 0
M  V30 8357 H 811.073 1.61057 -6.59725 0
M  V30 8358 H 809.019 3.57 -5.50352 0
M  V30 8359 H 808.936 2.76511 -7.03618 0
M  V30 8360 H 810.204 3.91669 -6.73955 0
M  V30 8361 N 814.433 1.57553 0.0384317 0
M  V30 8362 C 815.679 1.89973 0.726772 0
M  V30 8363 C 816.034 0.832381 1.73462 0
M  V30 8364 O 815.327 -0.159975 1.90931 0
M  V30 8365 C 815.521 3.26862 1.44554 0
M  V30 8366 C 815.35 4.46812 0.508814 0
M  V30 8367 C 814.12 5.05124 0.133323 0
M  V30 8368 C 816.318 5.13876 -0.20881 0
M  V30 8369 N 814.3 6.08591 -0.805636 0
M  V30 8370 C 815.671 6.11821 -1.00376 0
M  V30 8371 C 817.726 4.9713 -0.276749 0
M  V30 8372 C 816.429 6.94825 -1.86038 0
M  V30 8373 C 818.455 5.80689 -1.12047 0
M  V30 8374 C 817.817 6.78197 -1.90337 0
M  V30 8375 H 813.916 0.744153 0.240334 0
M  V30 8376 H 816.5 1.94696 -0.0128735 0
M  V30 8377 H 814.671 3.23085 2.1557 0
M  V30 8378 H 816.403 3.46826 2.08552 0
M  V30 8379 H 813.158 4.71022 0.493484 0
M  V30 8380 H 813.582 6.64994 -1.26935 0
M  V30 8381 H 818.224 4.21631 0.314222 0
M  V30 8382 H 815.942 7.69676 -2.46219 0
M  V30 8383 H 819.528 5.69782 -1.17645 0
M  V30 8384 H 818.408 7.41731 -2.54569 0
M  V30 8385 N 815.911 -0.310526 1.54511 0
M  V30 8386 C 817.322 -0.884142 1.64438 0
M  V30 8387 C 817.673 -1.88425 0.546855 0
M  V30 8388 O 816.798 -2.14049 -0.31811 0
M  V30 8389 C 817.393 -1.6104 2.9808 0
M  V30 8390 C 815.952 -2.13255 3.1016 0
M  V30 8391 C 815.099 -0.96213 2.60074 0
M  V30 8392 H 818.05 -0.0877666 1.58457 0
M  V30 8393 H 818.071 -2.47541 2.8897 0
M  V30 8394 H 817.583 -0.882255 3.77939 0
M  V30 8395 H 815.684 -2.89145 2.35002 0
M  V30 8396 H 815.797 -2.37361 4.16169 0
M  V30 8397 H 814.161 -1.34501 2.16291 0
M  V30 8398 H 814.944 -0.248098 3.42402 0
M  V30 8399 N 817.389 -1.46805 -0.573248 0
M  V30 8400 C 818.636 -1.52604 -1.3311 0
M  V30 8401 C 818.964 -0.181633 -1.9365 0
M  V30 8402 O 818.219 0.823775 -1.77517 0
M  V30 8403 C 818.518 -2.58001 -2.47326 0
M  V30 8404 C 818.184 -4.01747 -2.04719 0
M  V30 8405 C 816.846 -4.40881 -1.92814 0
M  V30 8406 C 819.198 -4.92008 -1.71982 0
M  V30 8407 C 816.526 -5.68129 -1.46445 0
M  V30 8408 C 818.878 -6.19703 -1.27089 0
M  V30 8409 C 817.542 -6.57733 -1.13768 0
M  V30 8410 H 816.812 -0.558417 -0.487084 0
M  V30 8411 H 819.459 -1.80327 -0.644538 0
M  V30 8412 H 817.764 -2.23974 -3.2147 0
M  V30 8413 H 819.461 -2.59715 -3.05531 0
M  V30 8414 H 816.051 -3.70819 -2.14922 0
M  V30 8415 H 820.235 -4.62485 -1.8006 0
M  V30 8416 H 815.491 -5.96359 -1.34783 0
M  V30 8417 H 819.665 -6.89064 -1.00814 0
M  V30 8418 H 817.292 -7.56228 -0.776142 0
M  V30 8419 N 818.867 0.818669 -1.34668 0
M  V30 8420 C 819.8 1.93516 -1.20941 0
M  V30 8421 C 820.778 1.62292 -0.100061 0
M  V30 8422 O 821.962 1.86614 -0.265983 0
M  V30 8423 C 819.089 3.27612 -0.859524 0
M  V30 8424 C 818.135 3.77794 -1.97923 0
M  V30 8425 S 818.968 3.97043 -3.59329 0
M  V30 8426 C 820.124 5.3406 -3.2639 0
M  V30 8427 H 820.357 2.04864 -2.15449 0
M  V30 8428 H 817.89 0.974716 -1.19744 0
M  V30 8429 H 819.848 4.05087 -0.664444 0
M  V30 8430 H 818.509 3.14028 0.0672835 0
M  V30 8431 H 817.702 4.74883 -1.68827 0
M  V30 8432 H 817.304 3.0728 -2.13202 0
M  V30 8433 H 819.596 6.17626 -2.78469 0
M  V30 8434 H 820.539 5.68143 -4.22634 0
M  V30 8435 H 820.947 4.99773 -2.62464 0
M  V30 8436 N 820.346 1.18468 1.03938 0
M  V30 8437 C 821.574 1.00576 1.80809 0
M  V30 8438 C 821.989 -0.445786 1.83462 0
M  V30 8439 O 821.346 -1.30964 1.27101 0
M  V30 8440 C 821.397 1.55491 3.26351 0
M  V30 8441 O 821.118 2.94963 3.23926 0
M  V30 8442 C 822.619 1.42236 4.19862 0
M  V30 8443 H 819.839 0.35508 0.56935 0
M  V30 8444 H 822.383 1.57046 1.30984 0
M  V30 8445 H 820.538 1.03195 3.73403 0
M  V30 8446 H 820.952 3.20598 4.15111 0
M  V30 8447 H 822.426 1.85455 5.19914 0
M  V30 8448 H 822.903 0.371267 4.37628 0
M  V30 8449 H 823.509 1.9361 3.78675 0
M  V30 8450 N 821.824 -1.22873 0.986916 0
M  V30 8451 C 823.052 -1.95487 0.677663 0
M  V30 8452 C 823.467 -1.72978 -0.756572 0
M  V30 8453 O 822.824 -1.02517 -1.50985 0
M  V30 8454 C 822.875 -3.48337 0.966638 0
M  V30 8455 O 822.596 -3.70087 2.34451 0
M  V30 8456 C 824.097 -4.38142 0.674248 0
M  V30 8457 H 821.317 -0.622211 0.251185 0
M  V30 8458 H 823.861 -1.56187 1.32007 0
M  V30 8459 H 822.016 -3.85628 0.370137 0
M  V30 8460 H 822.43 -4.64332 2.43918 0
M  V30 8461 H 823.904 -5.44165 0.926759 0
M  V30 8462 H 824.381 -4.3745 -0.391728 0
M  V30 8463 H 824.987 -4.06469 1.25152 0
M  V30 8464 N 823.302 -0.75937 -1.38099 0
M  V30 8465 C 824.252 -0.111098 -2.27729 0
M  V30 8466 C 825.236 0.687161 -1.45489 0
M  V30 8467 O 826.428 0.552167 -1.68167 0
M  V30 8468 C 823.557 0.776809 -3.34396 0
M  V30 8469 C 822.643 -0.0286108 -4.2409 0
M  V30 8470 N 823.034 -1.06797 -4.94397 0
M  V30 8471 C 821.332 0.197307 -4.45563 0
M  V30 8472 C 822.033 -1.55576 -5.6051 0
M  V30 8473 N 821.009 -0.870059 -5.36592 0
M  V30 8474 H 824.811 -0.907047 -2.79553 0
M  V30 8475 H 822.325 -0.595954 -1.5107 0
M  V30 8476 H 824.322 1.25691 -3.97502 0
M  V30 8477 H 822.982 1.57164 -2.84129 0
M  V30 8478 H 823.993 -1.44988 -4.97191 0
M  V30 8479 H 820.67 0.965028 -4.06194 0
M  V30 8480 H 822.06 -2.42184 -6.26735 0
M  V30 8481 N 824.78 1.49157 -0.508906 0
M  V30 8482 C 826.008 2.06879 0.0293734 0
M  V30 8483 C 826.423 1.36823 1.30095 0
M  V30 8484 O 825.78 0.449034 1.7689 0
M  V30 8485 C 825.831 3.60423 0.278791 0
M  V30 8486 O 825.552 4.27844 -0.942389 0
M  V30 8487 C 827.053 4.34881 0.859825 0
M  V30 8488 H 824.273 0.67057 -0.0240184 0
M  V30 8489 H 826.817 1.91834 -0.708526 0
M  V30 8490 H 824.972 3.75145 0.966689 0
M  V30 8491 H 825.386 5.19671 -0.710097 0
M  V30 8492 H 826.86 5.43161 0.983884 0
M  V30 8493 H 827.337 3.9789 1.85958 0
M  V30 8494 H 827.943 4.24785 0.209152 0
M  V30 8495 N 826.258 0.243083 1.55714 0
M  V30 8496 C 827.504 -0.376428 1.99886 0
M  V30 8497 C 827.859 -1.55843 1.12831 0
M  V30 8498 O 827.152 -1.90724 0.182996 0
M  V30 8499 C 827.346 -0.839621 3.47398 0
M  V30 8500 C 827.175 0.295954 4.48725 0
M  V30 8501 C 825.945 0.769392 4.99408 0
M  V30 8502 C 828.143 1.12165 5.0192 0
M  V30 8503 N 826.125 1.87778 5.84477 0
M  V30 8504 C 827.496 2.07848 5.84123 0
M  V30 8505 C 829.551 1.15864 4.84231 0
M  V30 8506 C 828.254 3.06937 6.50524 0
M  V30 8507 C 830.28 2.13782 5.51409 0
M  V30 8508 C 829.642 3.08202 6.33396 0
M  V30 8509 H 825.741 -0.103809 0.775079 0
M  V30 8510 H 828.325 0.359788 1.91347 0
M  V30 8511 H 826.496 -1.54514 3.56343 0
M  V30 8512 H 828.228 -1.43376 3.78451 0
M  V30 8513 H 824.983 0.354201 4.72274 0
M  V30 8514 H 825.407 2.43462 6.31708 0
M  V30 8515 H 830.049 0.442532 4.20478 0
M  V30 8516 H 827.767 3.79499 7.13447 0
M  V30 8517 H 831.353 2.17345 5.39678 0
M  V30 8518 H 830.233 3.82732 6.8446 0
M  V30 8519 N 827.736 -1.57571 -0.0300757 0
M  V30 8520 C 828.984 -1.88852 -0.719666 0
M  V30 8521 C 829.305 -0.840645 -1.75949 0
M  V30 8522 O 828.575 0.125854 -1.95495 0
M  V30 8523 H 827.155 -0.696965 -0.268792 0
M  V30 8524 H 829.817 -1.949 0.00373285 0
M  V30 8525 H 828.913 -2.87695 -1.20987 0
M  V30 8526 N 829.214 0.302327 -1.54673 0
M  V30 8527 C 830.124 1.39542 -1.88587 0
M  V30 8528 C 831.14 1.55543 -0.779895 0
M  V30 8529 O 832.316 1.70233 -1.07623 0
M  V30 8530 C 829.381 2.7394 -2.12504 0
M  V30 8531 C 828.442 2.66935 -3.3622 0
M  V30 8532 C 827.675 3.94923 -3.58987 0
M  V30 8533 O 827.898 4.94218 -2.84789 0
M  V30 8534 O 826.832 3.96896 -4.52501 0
M  V30 8535 H 830.658 1.13784 -2.81579 0
M  V30 8536 H 828.243 0.49827 -1.40846 0
M  V30 8537 H 830.125 3.5346 -2.29443 0
M  V30 8538 H 828.8 2.99544 -1.22698 0
M  V30 8539 H 827.707 1.85892 -3.24646 0
M  V30 8540 H 829.04 2.46283 -4.26152 0
M  V30 8541 N 830.692 1.47107 0.565454 0
M  V30 8542 C 831.969 1.43787 1.32607 0
M  V30 8543 C 832.349 0.130428 2.10697 0
M  V30 8544 O 831.697 -0.888086 2.10536 0
M  V30 8545 C 831.907 2.67833 2.23755 0
M  V30 8546 C 833.255 3.14704 2.85037 0
M  V30 8547 O 834.279 2.68503 2.34061 0
M  V30 8548 O 833.138 3.95002 3.77671 0
M  V30 8549 H 830.232 0.572623 0.596684 0
M  V30 8550 H 832.778 1.59296 0.58504 0
M  V30 8551 H 831.55 3.54532 1.65597 0
M  V30 8552 H 831.173 2.54869 3.05168 0
M  V30 8553 N 832.17 -0.811516 1.35101 0
M  V30 8554 C 833.133 -1.90467 1.27495 0
M  V30 8555 C 834.133 -1.59703 0.187516 0
M  V30 8556 O 835.323 -1.68528 0.440896 0
M  V30 8557 C 832.455 -3.26774 0.971154 0
M  V30 8558 H 833.648 -1.98631 2.2469 0
M  V30 8559 H 831.201 -1.00681 1.19553 0
M  V30 8560 H 831.936 -3.243 0.0028557 0
M  V30 8561 H 831.721 -3.50488 1.75785 0
M  V30 8562 H 833.211 -4.06804 0.943414 0
M  V30 8563 N 833.648 -1.19017 -1.03309 0
M  V30 8564 C 835.064 -0.941483 -1.28873 0
M  V30 8565 C 835.264 0.388587 -1.97718 0
M  V30 8566 O 834.32 1.12111 -2.26246 0
M  V30 8567 C 835.633 -2.11249 -2.13996 0
M  V30 8568 C 837.181 -2.15164 -2.27318 0
M  V30 8569 C 837.656 -3.31704 -3.15811 0
M  V30 8570 N 839.147 -3.31613 -3.23399 0
M  V30 8571 C 839.882 -4.18431 -3.9205 0
M  V30 8572 N 839.378 -5.15397 -4.62966 0
M  V30 8573 N 841.171 -4.06321 -3.88406 0
M  V30 8574 H 833.322 -2.04599 -0.570343 0
M  V30 8575 H 835.585 -0.894406 -0.314232 0
M  V30 8576 H 835.291 -3.07482 -1.70727 0
M  V30 8577 H 835.165 -2.07955 -3.14697 0
M  V30 8578 H 837.552 -1.19504 -2.6982 0
M  V30 8579 H 837.633 -2.22513 -1.26182 0
M  V30 8580 H 837.277 -4.2764 -2.74019 0
M  V30 8581 H 837.207 -3.21592 -4.16997 0
M  V30 8582 H 839.698 -2.6142 -2.72888 0
M  V30 8583 H 840.011 -5.78 -5.12968 0
M  V30 8584 H 838.356 -5.19349 -4.61846 0
M  V30 8585 H 841.547 -3.29849 -3.3214 0
M  V30 8586 H 841.72 -4.74196 -4.41635 0
M  V30 8587 N 835.127 1.22348 -0.993418 0
M  V30 8588 C 836.375 1.90733 -0.668246 0
M  V30 8589 C 836.696 1.77732 0.802261 0
M  V30 8590 O 835.966 1.16486 1.57505 0
M  V30 8591 H 834.546 0.705966 -0.244174 0
M  V30 8592 H 837.208 1.48691 -1.26004 0
M  V30 8593 H 836.304 2.97883 -0.931239 0
M  V30 8594 N 836.605 0.766683 1.37694 0
M  V30 8595 C 837.833 0.339939 2.04088 0
M  V30 8596 C 838.248 -1.03617 1.57826 0
M  V30 8597 O 837.605 -1.6605 0.757214 0
M  V30 8598 C 837.656 0.368269 3.59619 0
M  V30 8599 O 837.377 1.69009 4.04188 0
M  V30 8600 C 838.878 -0.0707053 4.43244 0
M  V30 8601 H 836.098 0.143189 0.655544 0
M  V30 8602 H 838.642 1.03919 1.76128 0
M  V30 8603 H 836.797 -0.282359 3.8637 0
M  V30 8604 H 837.211 1.62523 4.98685 0
M  V30 8605 H 838.685 0.000273538 5.52 0
M  V30 8606 H 839.162 -1.1204 4.24669 0
M  V30 8607 H 839.768 0.551543 4.21709 0
M  V30 8608 N 838.083 -1.48885 0.516809 0
M  V30 8609 C 839.329 -2.03395 -0.0140225 0
M  V30 8610 C 839.684 -1.38808 -1.33229 0
M  V30 8611 O 838.977 -0.520104 -1.84406 0
M  V30 8612 C 839.171 -3.56801 -0.206798 0
M  V30 8613 C 839 -4.36259 1.09124 0
M  V30 8614 C 837.77 -4.77689 1.64745 0
M  V30 8615 C 839.968 -4.73881 1.99854 0
M  V30 8616 N 837.95 -5.41634 2.88975 0
M  V30 8617 C 839.321 -5.37707 3.08661 0
M  V30 8618 C 841.376 -4.55816 2.00341 0
M  V30 8619 C 840.079 -5.85379 4.18001 0
M  V30 8620 C 842.105 -5.04459 3.08666 0
M  V30 8621 C 841.467 -5.68299 4.16191 0
M  V30 8622 H 837.566 -0.781169 0.036042 0
M  V30 8623 H 840.15 -1.81867 0.695173 0
M  V30 8624 H 838.321 -3.78181 -0.885064 0
M  V30 8625 H 840.053 -3.9795 -0.736053 0
M  V30 8626 H 836.808 -4.58392 1.19054 0
M  V30 8627 H 837.232 -5.78181 3.52187 0
M  V30 8628 H 841.874 -4.05851 1.18511 0
M  V30 8629 H 839.592 -6.34356 5.00618 0
M  V30 8630 H 843.178 -4.92281 3.10082 0
M  V30 8631 H 842.058 -6.05257 4.98631 0
M  V30 8632 N 839.561 -0.251338 -1.55583 0
M  V30 8633 C 840.789 0.376187 -2.03451 0
M  V30 8634 C 841.204 1.51215 -1.13047 0
M  V30 8635 O 840.561 1.81917 -0.145769 0
M  V30 8636 C 840.612 0.879779 -3.50631 0
M  V30 8637 O 840.333 -0.210917 -4.37592 0
M  V30 8638 C 841.834 1.57754 -4.14281 0
M  V30 8639 H 839.054 0.0888722 -0.665089 0
M  V30 8640 H 841.598 -0.376497 -2.01004 0
M  V30 8641 H 839.753 1.58263 -3.53598 0
M  V30 8642 H 840.167 0.172203 -5.24217 0
M  V30 8643 H 841.641 1.88158 -5.18942 0
M  V30 8644 H 842.118 2.50103 -3.61034 0
M  V30 8645 H 842.724 0.919154 -4.15249 0
M  V30 8646 N 841.039 1.57585 0.0217189 0
M  V30 8647 C 841.969 2.10073 1.01939 0
M  V30 8648 C 842.95 1.0049 1.37243 0
M  V30 8649 O 844.135 1.28055 1.45999 0
M  V30 8650 C 841.265 2.58618 2.31806 0
M  V30 8651 C 840.219 3.72531 2.10724 0
M  V30 8652 C 839.545 4.07309 3.46415 0
M  V30 8653 C 840.845 5.00672 1.48743 0
M  V30 8654 H 842.539 2.9368 0.582432 0
M  V30 8655 H 840.085 1.41277 0.278715 0
M  V30 8656 H 842.038 2.9396 3.01936 0
M  V30 8657 H 840.762 1.72104 2.77575 0
M  V30 8658 H 839.421 3.37549 1.43025 0
M  V30 8659 H 839.069 3.17851 3.89846 0
M  V30 8660 H 838.769 4.84042 3.33132 0
M  V30 8661 H 840.293 4.45192 4.17895 0
M  V30 8662 H 841.707 5.33925 2.088 0
M  V30 8663 H 840.104 5.82065 1.46013 0
M  V30 8664 H 841.174 4.82769 0.45408 0
M  V30 8665 N 842.517 -0.29412 1.54831 0
M  V30 8666 C 843.427 -1.3854 1.89325 0
M  V30 8667 C 844.443 -1.55127 0.788133 0
M  V30 8668 O 845.619 -1.6966 1.08524 0
M  V30 8669 C 842.684 -2.72809 2.13954 0
M  V30 8670 C 841.745 -2.65148 3.37631 0
M  V30 8671 C 840.978 -3.93014 3.61076 0
M  V30 8672 O 841.201 -4.927 2.87406 0
M  V30 8673 O 840.135 -3.94491 4.54599 0
M  V30 8674 H 843.961 -1.12289 2.82179 0
M  V30 8675 H 841.546 -0.490793 1.41108 0
M  V30 8676 H 843.428 -3.52238 2.31315 0
M  V30 8677 H 842.103 -2.9889 1.24285 0
M  V30 8678 H 841.01 -1.84168 3.25627 0
M  V30 8679 H 842.343 -2.4402 4.27452 0
M  V30 8680 N 843.995 -1.47404 -0.557645 0
M  V30 8681 C 844.925 -1.62736 -1.67449 0
M  V30 8682 C 845.906 -0.476824 -1.6328 0
M  V30 8683 O 847.091 -0.706108 -1.80908 0
M  V30 8684 C 844.221 -1.641 -3.06086 0
M  V30 8685 C 843.175 -2.78377 -3.25101 0
M  V30 8686 C 842.501 -2.64812 -4.6452 0
M  V30 8687 C 843.801 -4.19971 -3.10518 0
M  V30 8688 H 845.495 -2.56232 -1.54873 0
M  V30 8689 H 843.041 -1.23312 -0.743649 0
M  V30 8690 H 844.994 -1.73417 -3.84063 0
M  V30 8691 H 843.718 -0.671652 -3.19619 0
M  V30 8692 H 842.377 -2.6857 -2.49531 0
M  V30 8693 H 842.025 -1.65906 -4.74852 0
M  V30 8694 H 841.725 -3.41477 -4.78191 0
M  V30 8695 H 843.249 -2.76057 -5.44633 0
M  V30 8696 H 844.663 -4.30757 -3.78313 0
M  V30 8697 H 843.06 -4.97419 -3.35699 0
M  V30 8698 H 844.13 -4.38369 -2.0727 0
M  V30 8699 N 845.473 0.80434 -1.35529 0
M  V30 8700 C 846.721 1.55845 -1.28673 0
M  V30 8701 C 847.042 1.94511 0.137976 0
M  V30 8702 O 846.312 1.63775 1.07492 0
M  V30 8703 H 844.892 0.577931 -0.473291 0
M  V30 8704 H 847.554 0.959293 -1.69657 0
M  V30 8705 H 846.65 2.47285 -1.90411 0
M  V30 8706 N 846.951 1.19563 1.02676 0
M  V30 8707 C 848.198 0.999568 1.7611 0
M  V30 8708 C 848.526 -0.469432 1.8875 0
M  V30 8709 O 847.781 -1.36481 1.40255 0
M  V30 8710 C 848.08 1.61619 3.18769 0
M  V30 8711 C 847.746 3.11366 3.26132 0
M  V30 8712 C 846.408 3.52234 3.27848 0
M  V30 8713 C 848.76 4.07374 3.25109 0
M  V30 8714 C 846.088 4.87658 3.26201 0
M  V30 8715 C 848.44 5.42731 3.25002 0
M  V30 8716 C 847.104 5.83027 3.25017 0
M  V30 8717 H 846.374 0.365768 0.644434 0
M  V30 8718 H 849.021 1.48838 1.20497 0
M  V30 8719 H 847.326 1.04974 3.77476 0
M  V30 8720 H 849.023 1.43975 3.74262 0
M  V30 8721 H 845.613 2.78804 3.25525 0
M  V30 8722 H 849.797 3.76842 3.22961 0
M  V30 8723 H 845.053 5.18156 3.24537 0
M  V30 8724 H 849.227 6.16879 3.23161 0
M  V30 8725 H 846.854 6.87936 3.23494 0
M  V30 8726 N 848.429 -1.21819 0.999893 0
M  V30 8727 C 849.675 -1.91035 0.680701 0
M  V30 8728 C 850.008 -1.77582 -0.786021 0
M  V30 8729 O 849.283 -1.14917 -1.56921 0
M  V30 8730 C 849.566 -3.43013 1.0961 0
M  V30 8731 C 849.419 -3.65481 2.6219 0
M  V30 8732 C 850.738 -4.35204 0.654616 0
M  V30 8733 H 847.857 -0.693748 0.248763 0
M  V30 8734 H 850.499 -1.43555 1.24466 0
M  V30 8735 H 848.649 -3.83581 0.616253 0
M  V30 8736 H 850.321 -3.34273 3.17899 0
M  V30 8737 H 848.564 -3.09522 3.03938 0
M  V30 8738 H 849.235 -4.71945 2.86307 0
M  V30 8739 H 851.711 -4.0219 1.06688 0
M  V30 8740 H 850.587 -5.40198 0.973492 0
M  V30 8741 H 850.848 -4.3986 -0.444458 0
M  V30 8742 N 849.908 -0.773975 -1.37286 0
M  V30 8743 C 851.156 -0.338636 -1.99243 0
M  V30 8744 C 851.477 1.08919 -1.61746 0
M  V30 8745 O 850.747 1.74822 -0.88397 0
M  V30 8746 H 849.327 -0.12222 -0.736934 0
M  V30 8747 H 851.989 -0.992595 -1.67731 0
M  V30 8748 H 851.085 -0.418055 -3.09287 0
M  V30 8749 N 851.386 1.48609 -0.524698 0
M  V30 8750 C 852.611 2.07398 0.00952139 0
M  V30 8751 C 853.036 1.37939 1.27884 0
M  V30 8752 O 852.394 0.443633 1.75788 0
M  V30 8753 C 852.442 3.59916 0.221956 0
M  V30 8754 O 851.546 3.91647 1.29175 0
M  V30 8755 H 850.887 0.662981 -0.0367729 0
M  V30 8756 H 853.417 1.91092 -0.7311 0
M  V30 8757 H 853.427 4.05552 0.446236 0
M  V30 8758 H 852.102 4.09876 -0.705306 0
M  V30 8759 H 850.679 3.57796 1.05055 0
M  V30 8760 N 852.864 0.259585 1.55447 0
M  V30 8761 C 853.827 -0.621359 2.20617 0
M  V30 8762 C 854.827 -1.09317 1.17925 0
M  V30 8763 O 856.017 -0.995842 1.42929 0
M  V30 8764 C 853.149 -1.85546 2.85982 0
M  V30 8765 H 854.342 -0.0525833 2.99854 0
M  V30 8766 H 851.895 0.0101055 1.56297 0
M  V30 8767 H 852.63 -2.46515 2.10715 0
M  V30 8768 H 852.415 -1.52523 3.61219 0
M  V30 8769 H 853.905 -2.48227 3.35817 0
M  V30 8770 N 854.342 -1.57594 -0.0133615 0
M  V30 8771 C 855.753 -1.78168 -0.557937 0
M  V30 8772 C 856.104 -0.892616 -1.74719 0
M  V30 8773 O 855.229 -0.0915491 -2.16206 0
M  V30 8774 C 855.824 -3.23115 -1.01894 0
M  V30 8775 C 854.383 -3.44831 -1.50892 0
M  V30 8776 C 853.53 -2.73558 -0.454044 0
M  V30 8777 H 856.481 -1.57266 0.212843 0
M  V30 8778 H 856.502 -3.30493 -1.8856 0
M  V30 8779 H 856.014 -3.87798 -0.153175 0
M  V30 8780 H 854.115 -2.85345 -2.39602 0
M  V30 8781 H 854.228 -4.53485 -1.54559 0
M  V30 8782 H 852.592 -2.37787 -0.912666 0
M  V30 8783 H 853.375 -3.40932 0.402524 0
M  V30 8784 N 855.82 0.285905 -1.54985 0
M  V30 8785 C 856.752 1.37505 -1.83371 0
M  V30 8786 C 857.765 1.46138 -0.717454 0
M  V30 8787 O 858.954 1.48186 -0.995142 0
M  V30 8788 C 856.054 2.7575 -1.97016 0
M  V30 8789 C 855.227 2.89866 -3.27561 0
M  V30 8790 C 854.286 4.08704 -3.31433 0
M  V30 8791 O 853.312 4.00073 -4.04883 0
M  V30 8792 N 854.514 5.20062 -2.57907 0
M  V30 8793 H 857.279 1.13505 -2.77375 0
M  V30 8794 H 854.84 0.476006 -1.54744 0
M  V30 8795 H 856.832 3.5352 -1.96991 0
M  V30 8796 H 855.402 2.9263 -1.09938 0
M  V30 8797 H 854.622 1.99085 -3.40234 0
M  V30 8798 H 855.91 2.96219 -4.13681 0
M  V30 8799 H 855.308 5.29958 -1.97891 0
M  V30 8800 H 853.865 5.96111 -2.63619 0
M  V30 8801 N 857.298 1.47698 0.54982 0
M  V30 8802 C 858.245 1.60739 1.65625 0
M  V30 8803 C 859.215 0.450129 1.59884 0
M  V30 8804 O 860.4 0.671123 1.78607 0
M  V30 8805 C 857.54 1.63457 3.03934 0
M  V30 8806 C 856.653 2.90152 3.20056 0
M  V30 8807 C 855.788 2.84157 4.48807 0
M  V30 8808 C 854.827 4.05644 4.58387 0
M  V30 8809 N 853.964 3.97843 5.78503 0
M  V30 8810 H 858.804 2.55234 1.53817 0
M  V30 8811 H 856.341 1.26593 0.749173 0
M  V30 8812 H 858.299 1.63015 3.84034 0
M  V30 8813 H 856.929 0.724689 3.1456 0
M  V30 8814 H 855.981 3.00428 2.33339 0
M  V30 8815 H 857.293 3.80097 3.22998 0
M  V30 8816 H 856.447 2.82006 5.37175 0
M  V30 8817 H 855.186 1.91908 4.48356 0
M  V30 8818 H 854.191 4.08092 3.6843 0
M  V30 8819 H 855.416 4.9903 4.60593 0
M  V30 8820 H 853.362 3.08401 5.78986 0
M  V30 8821 H 853.279 4.81473 5.82855 0
M  V30 8822 H 854.547 3.99719 6.69212 0
M  V30 8823 N 858.776 -0.797141 1.35954 0
M  V30 8824 C 860.024 -1.55161 1.29497 0
M  V30 8825 C 860.345 -1.94582 -0.127659 0
M  V30 8826 O 859.615 -1.64343 -1.06622 0
M  V30 8827 H 858.195 -0.575413 0.47635 0
M  V30 8828 H 860.857 -0.950282 1.70164 0
M  V30 8829 H 859.953 -2.46272 1.9172 0
M  V30 8830 N 860.254 -1.20106 -1.0204 0
M  V30 8831 C 861.5 -1.01039 -1.75838 0
M  V30 8832 C 861.833 0.456819 -1.88751 0
M  V30 8833 O 861.108 1.33919 -1.41053 0
M  V30 8834 C 861.391 -1.69009 -3.17975 0
M  V30 8835 C 861.244 -3.2315 -3.1288 0
M  V30 8836 C 862.563 -1.42005 -4.16561 0
M  V30 8837 H 859.682 -0.368465 -0.638281 0
M  V30 8838 H 862.324 -1.48066 -1.19064 0
M  V30 8839 H 860.474 -1.29026 -3.66449 0
M  V30 8840 H 862.146 -3.72402 -2.72239 0
M  V30 8841 H 860.389 -3.54253 -2.50374 0
M  V30 8842 H 861.06 -3.65862 -4.13339 0
M  V30 8843 H 863.536 -1.76685 -3.76725 0
M  V30 8844 H 862.412 -1.92101 -5.14187 0
M  V30 8845 H 862.673 -0.346884 -4.40737 0
M  V30 8846 N 861.732 1.21287 -1.00634 0
M  V30 8847 C 862.662 2.25973 -0.588089 0
M  V30 8848 C 863.643 1.65527 0.391764 0
M  V30 8849 O 864.828 1.92179 0.279452 0
M  V30 8850 C 861.958 3.47197 0.0847336 0
M  V30 8851 C 860.912 4.20168 -0.815039 0
M  V30 8852 C 860.238 5.34699 -0.00855393 0
M  V30 8853 C 861.538 4.77416 -2.11828 0
M  V30 8854 H 863.232 2.61212 -1.46317 0
M  V30 8855 H 860.778 1.25563 -0.704985 0
M  V30 8856 H 862.731 4.19602 0.388821 0
M  V30 8857 H 861.455 3.11092 0.994456 0
M  V30 8858 H 860.114 3.49614 -1.10297 0
M  V30 8859 H 859.762 4.94837 0.902499 0
M  V30 8860 H 859.462 5.84449 -0.607664 0
M  V30 8861 H 860.986 6.09914 0.289317 0
M  V30 8862 H 862.4 5.41694 -1.87725 0
M  V30 8863 H 860.797 5.37561 -2.66736 0
M  V30 8864 H 861.867 3.96724 -2.78816 0
M  V30 8865 N 863.21 0.781244 1.36873 0
M  V30 8866 C 864.157 0.172146 2.30157 0
M  V30 8867 C 865.127 -0.679328 1.51573 0
M  V30 8868 O 866.312 -0.629713 1.80109 0
M  V30 8869 C 863.452 -0.693534 3.38059 0
M  V30 8870 C 862.565 0.175586 4.31643 0
M  V30 8871 C 861.7 -0.695695 5.26625 0
M  V30 8872 C 860.739 0.17538 6.11849 0
M  V30 8873 N 859.876 -0.654416 6.99043 0
M  V30 8874 H 864.716 0.973133 2.81663 0
M  V30 8875 H 862.253 0.491469 1.38647 0
M  V30 8876 H 864.211 -1.21035 3.99257 0
M  V30 8877 H 862.841 -1.46003 2.87894 0
M  V30 8878 H 861.893 0.810295 3.7167 0
M  V30 8879 H 863.205 0.847107 4.91554 0
M  V30 8880 H 862.359 -1.27863 5.93073 0
M  V30 8881 H 861.098 -1.40087 4.67148 0
M  V30 8882 H 860.103 0.77078 5.4437 0
M  V30 8883 H 861.328 0.87803 6.734 0
M  V30 8884 H 859.274 -1.34403 6.42084 0
M  V30 8885 H 859.191 -0.0403998 7.55989 0
M  V30 8886 H 860.459 -1.22144 7.69871 0
M  V30 8887 N 864.689 -1.48329 0.532571 0
M  V30 8888 C 865.599 -2.33445 -0.232546 0
M  V30 8889 C 866.615 -1.46651 -0.93645 0
M  V30 8890 O 867.791 -1.79627 -0.910834 0
M  V30 8891 C 864.856 -3.22824 -1.26434 0
M  V30 8892 C 863.917 -4.25492 -0.570511 0
M  V30 8893 C 863.15 -5.10601 -1.55315 0
M  V30 8894 O 863.373 -4.97733 -2.78599 0
M  V30 8895 O 862.307 -5.91927 -1.09112 0
M  V30 8896 H 866.133 -3.00119 0.464988 0
M  V30 8897 H 863.718 -1.46489 0.293462 0
M  V30 8898 H 865.6 -3.78103 -1.86055 0
M  V30 8899 H 864.275 -2.58807 -1.94424 0
M  V30 8900 H 863.182 -3.74041 0.0662587 0
M  V30 8901 H 864.515 -4.92154 0.0674904 0
M  V30 8902 N 866.167 -0.267825 -1.55308 0
M  V30 8903 C 867.413 0.34458 -2.0046 0
M  V30 8904 C 867.768 1.54028 -1.15296 0
M  V30 8905 O 867.061 1.90409 -0.213316 0
M  V30 8906 C 867.255 0.784247 -3.48689 0
M  V30 8907 C 867.084 -0.367304 -4.48197 0
M  V30 8908 C 865.854 -0.848746 -4.98121 0
M  V30 8909 C 868.052 -1.20136 -5.00072 0
M  V30 8910 N 866.034 -1.97052 -5.81415 0
M  V30 8911 C 867.405 -2.17115 -5.80742 0
M  V30 8912 C 869.46 -1.23553 -4.82327 0
M  V30 8913 C 868.163 -3.17248 -6.45559 0
M  V30 8914 C 870.189 -2.22527 -5.47938 0
M  V30 8915 C 869.551 -3.1824 -6.28413 0
M  V30 8916 H 865.65 0.091465 -0.776633 0
M  V30 8917 H 868.234 -0.390184 -1.9075 0
M  V30 8918 H 866.405 1.48825 -3.58756 0
M  V30 8919 H 868.137 1.37337 -3.80684 0
M  V30 8920 H 864.892 -0.429291 -4.7165 0
M  V30 8921 H 865.316 -2.53481 -6.27755 0
M  V30 8922 H 869.958 -0.50937 -4.1972 0
M  V30 8923 H 867.676 -3.90801 -7.07319 0
M  V30 8924 H 871.262 -2.25904 -5.36152 0
M  V30 8925 H 870.142 -3.93573 -6.78285 0
M  V30 8926 N 867.645 1.57599 0.00500368 0
M  V30 8927 C 868.873 1.94626 0.702016 0
M  V30 8928 C 869.288 0.86953 1.67585 0
M  V30 8929 O 868.645 -0.15199 1.81866 0
M  V30 8930 C 868.696 3.31658 1.43824 0
M  V30 8931 O 868.417 4.35197 0.503467 0
M  V30 8932 C 869.918 3.83114 2.23021 0
M  V30 8933 H 867.138 0.641785 0.195841 0
M  V30 8934 H 869.682 2.04451 -0.0446287 0
M  V30 8935 H 867.837 3.23156 2.13655 0
M  V30 8936 H 868.251 5.1444 1.02235 0
M  V30 8937 H 869.725 4.81438 2.7004 0
M  V30 8938 H 870.202 3.15559 3.05482 0
M  V30 8939 H 870.808 3.94775 1.58216 0
M  V30 8940 N 869.123 -0.277682 1.55134 0
M  V30 8941 C 870.053 -1.34742 1.90701 0
M  V30 8942 C 871.034 -1.51757 0.768354 0
M  V30 8943 O 872.219 -1.64879 1.02609 0
M  V30 8944 C 869.349 -2.70775 2.17481 0
M  V30 8945 C 868.303 -2.68497 3.33307 0
M  V30 8946 C 867.629 -4.08037 3.45557 0
M  V30 8947 C 868.929 -2.28178 4.69821 0
M  V30 8948 H 870.623 -1.05224 2.803 0
M  V30 8949 H 868.169 -0.504738 1.34864 0
M  V30 8950 H 870.122 -3.45719 2.40949 0
M  V30 8951 H 868.846 -3.01867 1.24676 0
M  V30 8952 H 867.505 -1.9601 3.09799 0
M  V30 8953 H 867.153 -4.36344 2.50226 0
M  V30 8954 H 866.853 -4.07409 4.23429 0
M  V30 8955 H 868.377 -4.84726 3.71312 0
M  V30 8956 H 869.791 -2.92843 4.92865 0
M  V30 8957 H 868.188 -2.3872 5.50575 0
M  V30 8958 H 869.258 -1.23308 4.6896 0
M  V30 8959 N 870.601 -1.47988 -0.541979 0
M  V30 8960 C 871.534 -1.56172 -1.66389 0
M  V30 8961 C 872.512 -0.412879 -1.57271 0
M  V30 8962 O 873.696 -0.622816 -1.77914 0
M  V30 8963 C 870.823 -1.47851 -3.04726 0
M  V30 8964 C 869.869 -2.67428 -3.32242 0
M  V30 8965 S 870.702 -4.29502 -3.19825 0
M  V30 8966 C 871.858 -4.2376 -4.60628 0
M  V30 8967 H 872.091 -2.51086 -1.59195 0
M  V30 8968 H 869.624 -1.36373 -0.724005 0
M  V30 8969 H 871.582 -1.43738 -3.84512 0
M  V30 8970 H 870.243 -0.542958 -3.09372 0
M  V30 8971 H 869.436 -2.57711 -4.33129 0
M  V30 8972 H 869.038 -2.68743 -2.60103 0
M  V30 8973 H 871.33 -3.92953 -5.51901 0
M  V30 8974 H 872.273 -5.24786 -4.75401 0
M  V30 8975 H 872.681 -3.54398 -4.39389 0
M  V30 8976 N 872.079 0.78992 -1.36375 0
M  V30 8977 C 873.009 1.91683 -1.33341 0
M  V30 8978 C 873.99 1.68861 -0.204965 0
M  V30 8979 O 875.175 1.89982 -0.402531 0
M  V30 8980 C 872.305 3.28696 -1.12143 0
M  V30 8981 C 871.259 3.66041 -2.21806 0
M  V30 8982 C 870.585 5.01399 -1.85751 0
M  V30 8983 C 871.885 3.74677 -3.63888 0
M  V30 8984 H 873.579 1.94478 -2.27637 0
M  V30 8985 H 871.125 0.934271 -1.09578 0
M  V30 8986 H 873.078 4.07151 -1.08656 0
M  V30 8987 H 871.802 3.26287 -0.142974 0
M  V30 8988 H 870.461 2.89883 -2.24418 0
M  V30 8989 H 870.109 4.9551 -0.864817 0
M  V30 8990 H 869.809 5.27355 -2.59173 0
M  V30 8991 H 871.333 5.82274 -1.83819 0
M  V30 8992 H 872.747 4.43324 -3.63506 0
M  V30 8993 H 871.144 4.12118 -4.3621 0
M  V30 8994 H 872.214 2.75795 -3.9883 0
M  V30 8995 N 873.557 1.20646 1.01402 0
M  V30 8996 C 874.507 0.925209 2.08384 0
M  V30 8997 C 875.491 -0.115994 1.60481 0
M  V30 8998 O 876.683 0.0917276 1.76762 0
M  V30 8999 C 873.812 0.48193 3.399 0
M  V30 9000 C 872.898 1.5567 3.94497 0
M  V30 9001 N 873.289 2.77971 4.2257 0
M  V30 9002 C 871.587 1.42347 4.22674 0
M  V30 9003 C 872.288 3.47317 4.66632 0
M  V30 9004 N 871.264 2.74736 4.69064 0
M  V30 9005 H 875.066 1.85452 2.28002 0
M  V30 9006 H 872.58 1.10084 1.19395 0
M  V30 9007 H 874.577 0.261835 4.16077 0
M  V30 9008 H 873.237 -0.440725 3.21695 0
M  V30 9009 H 874.248 3.14598 4.11398 0
M  V30 9010 H 870.925 0.565417 4.13654 0
M  V30 9011 H 872.315 4.51985 4.97151 0
M  V30 9012 N 875.035 -1.20752 1.01276 0
M  V30 9013 C 876.283 -1.89645 0.698505 0
M  V30 9014 C 876.604 -1.78986 -0.773883 0
M  V30 9015 O 875.874 -1.18977 -1.55632 0
M  V30 9016 H 874.454 -0.701992 0.255375 0
M  V30 9017 H 877.116 -1.46668 1.28353 0
M  V30 9018 H 876.212 -2.96364 0.978512 0
M  V30 9019 N 876.513 -0.788492 -1.36457 0
M  V30 9020 C 877.741 -0.372365 -2.03522 0
M  V30 9021 C 878.156 1.01093 -1.59454 0
M  V30 9022 O 877.513 1.64824 -0.783535 0
M  V30 9023 C 877.564 -0.425435 -3.58988 0
M  V30 9024 O 877.285 -1.75418 -4.01448 0
M  V30 9025 C 878.786 0.000180167 -4.433 0
M  V30 9026 H 876.006 -0.1536 -0.653183 0
M  V30 9027 H 878.55 -1.06708 -1.74452 0
M  V30 9028 H 876.705 0.220856 -3.8677 0
M  V30 9029 H 877.119 -1.70437 -4.96036 0
M  V30 9030 H 878.593 -0.0880919 -5.5193 0
M  V30 9031 H 879.07 1.05269 -4.26398 0
M  V30 9032 H 879.676 -0.618563 -4.20778 0
M  V30 9033 N 877.991 1.48044 -0.54043 0
M  V30 9034 C 878.923 2.2779 0.253854 0
M  V30 9035 C 879.936 1.35999 0.894883 0
M  V30 9036 O 881.125 1.60963 0.771563 0
M  V30 9037 C 878.225 3.09724 1.37566 0
M  V30 9038 C 877.398 4.29364 0.83459 0
M  V30 9039 C 876.457 4.93026 1.83881 0
M  V30 9040 O 875.483 5.51927 1.39159 0
M  V30 9041 N 876.685 4.86207 3.17149 0
M  V30 9042 H 879.45 2.96597 -0.430125 0
M  V30 9043 H 877.011 1.57487 -0.375423 0
M  V30 9044 H 879.003 3.49181 2.04584 0
M  V30 9045 H 877.573 2.43269 1.96314 0
M  V30 9046 H 876.793 3.94198 -0.0118878 0
M  V30 9047 H 878.081 5.06787 0.452155 0
M  V30 9048 H 877.479 4.39523 3.56141 0
M  V30 9049 H 876.036 5.29733 3.79771 0
M  V30 9050 N 879.47 0.276058 1.55163 0
M  V30 9051 C 880.695 -0.346648 2.04483 0
M  V30 9052 C 881.12 -1.48613 1.15308 0
M  V30 9053 O 880.478 -1.80663 0.151875 0
M  V30 9054 C 880.526 -0.804268 3.51517 0
M  V30 9055 O 879.63 -1.91143 3.65429 0
M  V30 9056 H 878.971 -0.0715251 0.660136 0
M  V30 9057 H 881.501 0.410631 2.00437 0
M  V30 9058 H 881.511 -1.09977 3.92898 0
M  V30 9059 H 880.186 0.0294123 4.1589 0
M  V30 9060 H 878.763 -1.61839 3.3595 0
M  V30 9061 N 880.948 -1.576 0.00335426 0
M  V30 9062 C 881.911 -2.07576 -0.971838 0
M  V30 9063 C 882.911 -0.985796 -1.27038 0
M  V30 9064 O 884.101 -1.24833 -1.21501 0
M  V30 9065 C 881.233 -2.52003 -2.29581 0
M  V30 9066 H 882.426 -2.95008 -0.539481 0
M  V30 9067 H 879.979 -1.54381 -0.244186 0
M  V30 9068 H 880.714 -1.67825 -2.77498 0
M  V30 9069 H 880.499 -3.31609 -2.09231 0
M  V30 9070 H 881.989 -2.90983 -2.99531 0
M  V30 9071 N 882.426 0.269451 -1.5528 0
M  V30 9072 C 883.837 0.840233 -1.66724 0
M  V30 9073 C 884.188 1.86909 -0.596621 0
M  V30 9074 O 883.313 2.14817 0.261246 0
M  V30 9075 C 883.908 1.5308 -3.02245 0
M  V30 9076 C 882.467 2.04957 -3.15705 0
M  V30 9077 C 881.614 0.892838 -2.62533 0
M  V30 9078 H 884.565 0.0457236 -1.58634 0
M  V30 9079 H 884.586 2.39792 -2.95432 0
M  V30 9080 H 884.098 0.781741 -3.80145 0
M  V30 9081 H 882.199 2.82813 -2.42585 0
M  V30 9082 H 882.312 2.26244 -4.22316 0
M  V30 9083 H 880.676 1.28719 -2.19781 0
M  V30 9084 H 881.459 0.157229 -3.4294 0
M  V30 9085 N 883.904 1.48273 0.534124 0
M  V30 9086 C 885.134 1.59503 1.31311 0
M  V30 9087 C 885.542 0.25284 1.87503 0
M  V30 9088 O 884.885 -0.767399 1.66903 0
M  V30 9089 C 884.947 2.57899 2.50456 0
M  V30 9090 C 884.611 4.03063 2.15382 0
M  V30 9091 C 885.608 4.90869 1.713 0
M  V30 9092 C 883.293 4.4857 2.26032 0
M  V30 9093 C 885.287 6.22209 1.38328 0
M  V30 9094 C 882.974 5.79932 1.92672 0
M  V30 9095 C 883.972 6.66574 1.4889 0
M  V30 9096 O 883.66 7.95492 1.15966 0
M  V30 9097 H 883.392 0.540695 0.405739 0
M  V30 9098 H 885.946 1.94794 0.651497 0
M  V30 9099 H 884.176 2.1772 3.19585 0
M  V30 9100 H 885.865 2.59008 3.12522 0
M  V30 9101 H 886.631 4.56951 1.62545 0
M  V30 9102 H 882.51 3.81321 2.59066 0
M  V30 9103 H 886.054 6.89792 1.04082 0
M  V30 9104 H 881.951 6.13386 2.01066 0
M  V30 9105 H 882.719 8.08207 1.29399 0
M  V30 9106 N 885.382 -0.782676 1.36792 0
M  V30 9107 C 886.631 -1.53605 1.30723 0
M  V30 9108 C 886.944 -1.95294 -0.109296 0
M  V30 9109 O 888.15 -2.69921 -0.292398 0
M  V30 9110 C 886.606 -2.77321 2.29393 0
M  V30 9111 C 886.214 -2.42774 3.76517 0
M  V30 9112 C 887.958 -3.55289 2.32314 0
M  V30 9113 C 885.865 -3.62926 4.66947 0
M  V30 9114 H 884.795 -0.576646 0.485794 0
M  V30 9115 H 887.446 -0.858255 1.62192 0
M  V30 9116 H 885.828 -3.46934 1.90927 0
M  V30 9117 H 887.002 -1.81014 4.23758 0
M  V30 9118 H 885.317 -1.78002 3.76436 0
M  V30 9119 H 887.914 -4.44573 2.97083 0
M  V30 9120 H 888.257 -3.94361 1.3336 0
M  V30 9121 H 888.79 -2.92662 2.69432 0
M  V30 9122 H 885.529 -3.28944 5.66989 0
M  V30 9123 H 885.049 -4.23828 4.24418 0
M  V30 9124 H 886.728 -4.29873 4.83548 0
M  V30 9125 N 886.86 -1.21182 -1.00761 0
M  V30 9126 C 888.137 -0.936297 -1.71735 0
M  V30 9127 C 888.517 0.552585 -2.03739 0
M  V30 9128 O 887.865 1.51672 -1.70903 0
M  V30 9129 C 888.075 -1.81867 -2.97868 0
M  V30 9130 C 889.423 -2.06594 -3.7095 0
M  V30 9131 O 890.447 -1.79194 -3.07844 0
M  V30 9132 O 889.306 -2.5292 -4.84452 0
M  V30 9133 H 886.4 -0.350867 -0.74888 0
M  V30 9134 H 888.946 -1.32098 -1.06527 0
M  V30 9135 H 887.718 -2.82643 -2.70607 0
M  V30 9136 H 887.341 -1.43463 -3.70815 0
M  V30 9137 N 888.338 1.20213 -1.01915 0
M  V30 9138 C 889.27 2.2251 -0.549725 0
M  V30 9139 C 890.283 1.58558 0.369235 0
M  V30 9140 O 891.472 1.77715 0.167176 0
M  V30 9141 C 888.572 3.38189 0.219432 0
M  V30 9142 C 887.745 4.31729 -0.702066 0
M  V30 9143 C 886.804 5.26196 0.0199624 0
M  V30 9144 O 885.83 5.65993 -0.60339 0
M  V30 9145 N 887.032 5.65895 1.29397 0
M  V30 9146 H 889.797 2.63412 -1.42948 0
M  V30 9147 H 887.358 1.3478 -0.896987 0
M  V30 9148 H 889.35 3.98392 0.711763 0
M  V30 9149 H 887.92 2.96156 1.00051 0
M  V30 9150 H 887.14 3.69455 -1.37466 0
M  V30 9151 H 888.428 4.91145 -1.3287 0
M  V30 9152 H 887.826 5.35579 1.8213 0
M  V30 9153 H 886.383 6.28395 1.73098 0
M  V30 9154 N 889.816 0.795718 1.36037 0
M  V30 9155 C 891.062 0.371574 1.99367 0
M  V30 9156 C 891.395 -1.0557 1.62999 0
M  V30 9157 O 890.67 -1.73051 0.887895 0
M  V30 9158 C 890.953 0.542622 3.55988 0
M  V30 9159 C 890.806 2.01404 4.0219 0
M  V30 9160 C 892.125 -0.0384527 4.40083 0
M  V30 9161 H 889.244 0.136483 0.724252 0
M  V30 9162 H 891.886 1.00323 1.61355 0
M  V30 9163 H 890.036 0.0049053 3.885 0
M  V30 9164 H 891.708 2.6133 3.80137 0
M  V30 9165 H 889.951 2.51439 3.53498 0
M  V30 9166 H 890.622 2.08466 5.11122 0
M  V30 9167 H 893.098 0.420634 4.13968 0
M  V30 9168 H 891.974 0.111214 5.48787 0
M  V30 9169 H 892.235 -1.13116 4.27384 0
M  V30 9170 N 891.294 -1.47756 0.548274 0
M  V30 9171 C 892.54 -2.02789 0.0209265 0
M  V30 9172 C 892.873 -1.42268 -1.32187 0
M  V30 9173 O 892.148 -0.575001 -1.85806 0
M  V30 9174 C 892.431 -3.60007 -0.0816674 0
M  V30 9175 C 892.284 -4.30977 1.28759 0
M  V30 9176 C 893.603 -4.32777 -0.799515 0
M  V30 9177 H 890.722 -0.736944 0.00907884 0
M  V30 9178 H 893.364 -1.76282 0.708839 0
M  V30 9179 H 891.514 -3.82722 -0.667537 0
M  V30 9180 H 893.186 -4.19629 1.91597 0
M  V30 9181 H 891.429 -3.9168 1.86466 0
M  V30 9182 H 892.1 -5.39488 1.16861 0
M  V30 9183 H 894.576 -4.15001 -0.30216 0
M  V30 9184 H 893.452 -5.42431 -0.840239 0
M  V30 9185 H 893.713 -4.01358 -1.85375 0
M  V30 9186 N 892.772 -0.284283 -1.55015 0
M  V30 9187 C 894.188 0.069603 -1.59448 0
M  V30 9188 C 894.388 1.53833 -1.30144 0
M  V30 9189 O 893.444 2.2886 -1.06674 0
M  V30 9190 C 894.757 -0.313287 -2.99064 0
M  V30 9191 C 896.305 -0.260662 -3.11913 0
M  V30 9192 C 896.78 -0.618127 -4.5381 0
M  V30 9193 N 898.271 -0.570026 -4.59679 0
M  V30 9194 C 899.006 -0.8193 -5.67517 0
M  V30 9195 N 898.502 -1.13367 -6.83462 0
M  V30 9196 N 900.295 -0.747482 -5.57108 0
M  V30 9197 H 892.446 -1.24167 -1.72326 0
M  V30 9198 H 894.709 -0.502259 -0.804015 0
M  V30 9199 H 894.415 -1.33509 -3.25374 0
M  V30 9200 H 894.289 0.341369 -3.75652 0
M  V30 9201 H 896.676 0.751869 -2.85361 0
M  V30 9202 H 896.757 -0.949706 -2.37517 0
M  V30 9203 H 896.401 -1.62839 -4.81088 0
M  V30 9204 H 896.331 0.092807 -5.26518 0
M  V30 9205 H 898.822 -0.3373 -3.76392 0
M  V30 9206 H 899.135 -1.3103 -7.61611 0
M  V30 9207 H 897.48 -1.17154 -6.85055 0
M  V30 9208 H 900.671 -0.501658 -4.65404 0
M  V30 9209 H 900.844 -0.945128 -6.4107 0
M  V30 9210 N 894.251 1.57596 -0.0117121 0
M  V30 9211 C 895.528 1.82323 0.708356 0
M  V30 9212 C 895.908 0.891947 1.91331 0
M  V30 9213 O 895.256 -0.0565984 2.2843 0
M  V30 9214 C 895.466 3.31111 1.10303 0
M  V30 9215 C 896.814 3.97147 1.50199 0
M  V30 9216 O 897.838 3.35503 1.1965 0
M  V30 9217 O 896.697 5.0576 2.07049 0
M  V30 9218 H 893.791 0.751173 0.345931 0
M  V30 9219 H 896.337 1.69657 -0.0380632 0
M  V30 9220 H 895.109 3.90534 0.24467 0
M  V30 9221 H 894.732 3.48818 1.90818 0
M  V30 9222 N 895.729 -0.261212 1.5542 0
M  V30 9223 C 896.959 -1.00769 1.80358 0
M  V30 9224 C 897.367 -1.79991 0.583085 0
M  V30 9225 O 896.71 -1.77911 -0.457534 0
M  V30 9226 C 896.772 -2.00463 2.9842 0
M  V30 9227 C 896.436 -1.4007 4.35005 0
M  V30 9228 C 897.433 -0.810388 5.13545 0
M  V30 9229 C 895.118 -1.42436 4.81682 0
M  V30 9230 C 897.112 -0.251784 6.36903 0
M  V30 9231 C 894.799 -0.861897 6.04991 0
M  V30 9232 C 895.797 -0.276622 6.8244 0
M  V30 9233 O 895.485 0.277194 8.03422 0
M  V30 9234 H 895.217 -0.302839 0.604371 0
M  V30 9235 H 897.771 -0.293763 2.03288 0
M  V30 9236 H 896.001 -2.75648 2.71211 0
M  V30 9237 H 897.69 -2.61336 3.10577 0
M  V30 9238 H 898.456 -0.784719 4.7861 0
M  V30 9239 H 894.335 -1.8693 4.214 0
M  V30 9240 H 897.879 0.205678 6.97297 0
M  V30 9241 H 893.776 -0.884846 6.39407 0
M  V30 9242 H 894.544 0.167682 8.18328 0
M  V30 9243 N 897.207 -1.48554 -0.526253 0
M  V30 9244 C 898.139 -1.59446 -1.6465 0
M  V30 9245 C 899.152 -0.478525 -1.55608 0
M  V30 9246 O 900.341 -0.74953 -1.62001 0
M  V30 9247 C 897.441 -1.51164 -3.03319 0
M  V30 9248 C 896.614 -2.77861 -3.37805 0
M  V30 9249 C 895.673 -2.62982 -4.5577 0
M  V30 9250 O 894.699 -3.36876 -4.58806 0
M  V30 9251 N 895.901 -1.72847 -5.5417 0
M  V30 9252 H 898.666 -2.56055 -1.55743 0
M  V30 9253 H 896.227 -1.45325 -0.713606 0
M  V30 9254 H 898.219 -1.389 -3.80117 0
M  V30 9255 H 896.789 -0.625147 -3.06285 0
M  V30 9256 H 896.009 -3.04663 -2.50149 0
M  V30 9257 H 897.297 -3.61908 -3.57632 0
M  V30 9258 H 896.695 -1.12022 -5.54498 0
M  V30 9259 H 895.252 -1.6652 -6.3017 0
M  V30 9260 N 898.685 0.775411 -1.37205 0
M  V30 9261 C 899.91 1.5696 -1.35567 0
M  V30 9262 C 900.335 1.88012 0.0575554 0
M  V30 9263 O 899.693 1.48954 1.03355 0
M  V30 9264 C 899.741 2.85886 -2.19776 0
M  V30 9265 O 898.845 3.80103 -1.59987 0
M  V30 9266 H 898.186 0.475583 -0.463375 0
M  V30 9267 H 900.716 0.96001 -1.80679 0
M  V30 9268 H 900.726 3.35024 -2.32859 0
M  V30 9269 H 899.401 2.62613 -3.22502 0
M  V30 9270 H 897.978 3.38736 -1.55924 0
M  V30 9271 N 900.163 1.21714 1.00117 0
M  V30 9272 C 901.11 0.979837 2.08968 0
M  V30 9273 C 902.08 -0.0955324 1.65825 0
M  V30 9274 O 903.265 0.0523742 1.90728 0
M  V30 9275 C 900.405 0.554758 3.40612 0
M  V30 9276 C 899.518 1.69999 3.97145 0
M  V30 9277 C 898.653 1.2237 5.16913 0
M  V30 9278 C 897.692 2.34101 5.65564 0
M  V30 9279 N 896.829 1.87579 6.76579 0
M  V30 9280 H 901.669 1.91167 2.28602 0
M  V30 9281 H 899.206 0.952645 1.12085 0
M  V30 9282 H 901.164 0.289526 4.16194 0
M  V30 9283 H 899.794 -0.340073 3.21004 0
M  V30 9284 H 898.846 2.07976 3.18512 0
M  V30 9285 H 900.158 2.54074 4.29241 0
M  V30 9286 H 899.312 0.915358 5.99755 0
M  V30 9287 H 898.051 0.353045 4.8642 0
M  V30 9288 H 897.056 2.65734 4.81316 0
M  V30 9289 H 898.281 3.21669 5.98085 0
M  V30 9290 H 896.227 1.02863 6.47885 0
M  V30 9291 H 896.144 2.65225 7.07949 0
M  V30 9292 H 897.412 1.5979 7.62947 0
M  V30 9293 N 901.641 -1.19671 1.02551 0
M  V30 9294 C 902.571 -2.25009 0.623965 0
M  V30 9295 C 903.552 -1.66129 -0.36538 0
M  V30 9296 O 904.737 -1.92599 -0.248842 0
M  V30 9297 C 901.867 -3.47287 -0.0294869 0
M  V30 9298 C 900.821 -4.18818 0.881781 0
M  V30 9299 C 900.147 -5.34618 0.0936189 0
M  V30 9300 C 901.447 -4.73986 2.19396 0
M  V30 9301 H 903.141 -2.58851 1.50454 0
M  V30 9302 H 900.687 -1.24425 0.724872 0
M  V30 9303 H 902.64 -4.20168 -0.322016 0
M  V30 9304 H 901.364 -3.12635 -0.944838 0
M  V30 9305 H 900.023 -3.47815 1.15845 0
M  V30 9306 H 899.671 -4.9621 -0.823661 0
M  V30 9307 H 899.371 -5.83409 0.700568 0
M  V30 9308 H 900.895 -6.10297 -0.192249 0
M  V30 9309 H 902.309 -5.38639 1.96319 0
M  V30 9310 H 900.706 -5.3325 2.75254 0
M  V30 9311 H 901.776 -3.92238 2.85092 0
M  V30 9312 N 903.119 -0.802921 -1.35613 0
M  V30 9313 C 904.082 -0.216422 -2.28176 0
M  V30 9314 C 905.082 0.594101 -1.49422 0
M  V30 9315 O 906.272 0.41312 -1.6923 0
M  V30 9316 C 903.404 0.698746 -3.33662 0
M  V30 9317 H 904.597 -1.03276 -2.81557 0
M  V30 9318 H 902.15 -0.573307 -1.45406 0
M  V30 9319 H 902.885 1.53891 -2.85461 0
M  V30 9320 H 902.67 0.119314 -3.91918 0
M  V30 9321 H 904.16 1.10354 -4.02755 0
M  V30 9322 N 904.597 1.47463 -0.556102 0
M  V30 9323 C 905.53 2.26934 0.240027 0
M  V30 9324 C 906.508 1.33981 0.921297 0
M  V30 9325 O 907.692 1.63361 0.940506 0
M  V30 9326 C 904.819 3.10982 1.34194 0
M  V30 9327 C 903.865 4.19504 0.769342 0
M  V30 9328 S 904.698 5.34127 -0.383209 0
M  V30 9329 C 905.854 6.21739 0.720548 0
M  V30 9330 H 906.087 2.9411 -0.434348 0
M  V30 9331 H 903.62 1.50556 -0.342402 0
M  V30 9332 H 905.578 3.59976 1.973 0
M  V30 9333 H 904.239 2.4317 1.98814 0
M  V30 9334 H 903.432 4.78036 1.59679 0
M  V30 9335 H 903.034 3.73385 0.214475 0
M  V30 9336 H 905.326 6.58021 1.61292 0
M  V30 9337 H 906.269 7.0789 0.172602 0
M  V30 9338 H 906.677 5.55342 1.01272 0
M  V30 9339 N 906.075 0.2925 1.54862 0
M  V30 9340 C 907.3 -0.32494 2.04839 0
M  V30 9341 C 907.725 -1.47381 1.16877 0
M  V30 9342 O 907.083 -1.80492 0.171028 0
M  V30 9343 C 907.131 -0.76694 3.5235 0
M  V30 9344 O 906.235 -1.87256 3.67436 0
M  V30 9345 H 905.576 -0.0645195 0.660858 0
M  V30 9346 H 908.106 0.431867 1.9999 0
M  V30 9347 H 908.116 -1.05804 3.94043 0
M  V30 9348 H 906.791 0.0735212 4.15835 0
M  V30 9349 H 905.368 -1.58266 3.37648 0
M  V30 9350 N 907.553 -1.57587 0.0200696 0
M  V30 9351 C 908.5 -2.09667 -0.964791 0
M  V30 9352 C 909.47 -0.99664 -1.32877 0
M  V30 9353 O 910.655 -1.2703 -1.42366 0
M  V30 9354 C 907.795 -2.62101 -2.24493 0
M  V30 9355 C 906.908 -3.8608 -1.93821 0
M  V30 9356 C 906.043 -4.26939 -3.16064 0
M  V30 9357 C 905.082 -5.43701 -2.81169 0
M  V30 9358 N 904.219 -5.79759 -3.9601 0
M  V30 9359 H 909.059 -2.93538 -0.513751 0
M  V30 9360 H 906.596 -1.45096 -0.242 0
M  V30 9361 H 908.554 -2.90587 -2.99358 0
M  V30 9362 H 907.184 -1.81074 -2.6723 0
M  V30 9363 H 906.236 -3.64378 -1.09237 0
M  V30 9364 H 907.548 -4.71028 -1.64115 0
M  V30 9365 H 906.702 -4.56814 -3.99257 0
M  V30 9366 H 905.441 -3.40739 -3.48924 0
M  V30 9367 H 904.446 -5.13529 -1.96387 0
M  V30 9368 H 905.671 -6.31593 -2.49535 0
M  V30 9369 H 903.617 -4.96516 -4.28729 0
M  V30 9370 H 903.534 -6.59327 -3.69896 0
M  V30 9371 H 904.802 -6.14235 -4.79933 0
M  V30 9372 N 909.032 0.252966 -1.55557 0
M  V30 9373 C 909.979 1.3131 -1.89806 0
M  V30 9374 C 910.949 1.48121 -0.751633 0
M  V30 9375 O 912.134 1.62202 -1.00474 0
M  V30 9376 C 909.274 2.66467 -2.19293 0
M  V30 9377 C 908.387 2.57714 -3.46709 0
M  V30 9378 C 907.522 3.85184 -3.65796 0
M  V30 9379 C 906.561 3.71023 -4.86835 0
M  V30 9380 N 905.698 4.90371 -5.02474 0
M  V30 9381 H 910.538 1.01402 -2.80217 0
M  V30 9382 H 908.075 0.489462 -1.38718 0
M  V30 9383 H 910.033 3.45132 -2.34392 0
M  V30 9384 H 908.663 2.94536 -1.32093 0
M  V30 9385 H 907.715 1.70651 -3.39974 0
M  V30 9386 H 909.027 2.43158 -4.35517 0
M  V30 9387 H 908.181 4.72292 -3.80822 0
M  V30 9388 H 906.92 4.0263 -2.7521 0
M  V30 9389 H 905.925 2.82299 -4.71792 0
M  V30 9390 H 907.15 3.55078 -5.78875 0
M  V30 9391 H 905.096 5.0819 -4.14824 0
M  V30 9392 H 905.013 4.78423 -5.85361 0
M  V30 9393 H 906.281 5.78995 -5.21905 0
M  V30 9394 N 910.51 1.48831 0.518367 0
M  V30 9395 C 911.42 1.6692 1.64848 0
M  V30 9396 C 912.436 0.551711 1.65022 0
M  V30 9397 O 913.612 0.824251 1.83761 0
M  V30 9398 C 910.677 1.71559 3.01278 0
M  V30 9399 C 909.738 2.9502 3.11868 0
M  V30 9400 C 908.971 2.99428 4.4179 0
M  V30 9401 O 909.194 2.11914 5.29574 0
M  V30 9402 O 908.128 3.91719 4.5699 0
M  V30 9403 H 911.954 2.62623 1.52521 0
M  V30 9404 H 909.539 1.32368 0.692749 0
M  V30 9405 H 911.421 1.77064 3.82396 0
M  V30 9406 H 910.096 0.790316 3.13904 0
M  V30 9407 H 909.003 2.95042 2.30003 0
M  V30 9408 H 910.336 3.8697 3.04163 0
M  V30 9409 N 911.988 -0.768124 1.37614 0
M  V30 9410 C 912.898 -1.91249 1.35871 0
M  V30 9411 C 913.914 -1.7208 0.257786 0
M  V30 9412 O 915.09 -1.95253 0.493782 0
M  V30 9413 C 912.155 -3.26423 1.16829 0
M  V30 9414 C 911.216 -3.5822 2.36594 0
M  V30 9415 C 910.449 -4.86945 2.1845 0
M  V30 9416 O 910.672 -5.58258 1.17064 0
M  V30 9417 O 909.606 -5.17888 3.06718 0
M  V30 9418 H 913.432 -1.95671 2.32264 0
M  V30 9419 H 911.017 -0.911382 1.18382 0
M  V30 9420 H 912.899 -4.07269 1.08212 0
M  V30 9421 H 911.574 -3.22845 0.235123 0
M  V30 9422 H 910.481 -2.77594 2.50783 0
M  V30 9423 H 911.814 -3.66545 3.2849 0
M  V30 9424 N 913.466 -1.22244 -0.994698 0
M  V30 9425 C 914.396 -1.01513 -2.10279 0
M  V30 9426 C 915.377 0.0633365 -1.69982 0
M  V30 9427 O 916.562 -0.0985268 -1.9395 0
M  V30 9428 C 913.692 -0.59016 -3.42249 0
M  V30 9429 C 912.646 -1.61436 -3.96387 0
M  V30 9430 C 911.972 -1.04528 -5.24383 0
M  V30 9431 C 913.272 -3.00388 -4.27276 0
M  V30 9432 H 914.966 -1.94194 -2.2788 0
M  V30 9433 H 912.512 -0.935094 -1.09508 0
M  V30 9434 H 914.465 -0.432254 -4.19177 0
M  V30 9435 H 913.189 0.372308 -3.24471 0
M  V30 9436 H 911.848 -1.76001 -3.21589 0
M  V30 9437 H 911.496 -0.0742225 -5.02945 0
M  V30 9438 H 911.196 -1.72949 -5.61571 0
M  V30 9439 H 912.72 -0.898922 -6.03947 0
M  V30 9440 H 914.134 -2.89207 -4.95007 0
M  V30 9441 H 912.531 -3.65916 -4.75631 0
M  V30 9442 H 913.601 -3.50456 -3.35125 0
M  V30 9443 N 914.944 1.19125 -1.03184 0
M  V30 9444 C 915.854 2.26112 -0.625329 0
M  V30 9445 C 916.87 1.7056 0.344298 0
M  V30 9446 O 918.046 2.0039 0.20144 0
M  V30 9447 C 915.111 3.46697 0.0145169 0
M  V30 9448 C 914.172 4.17419 -1.00299 0
M  V30 9449 C 913.405 5.32247 -0.393581 0
M  V30 9450 O 913.628 5.64724 0.802659 0
M  V30 9451 O 912.562 5.91428 -1.1179 0
M  V30 9452 H 916.388 2.63131 -1.51643 0
M  V30 9453 H 913.973 1.26036 -0.802197 0
M  V30 9454 H 915.855 4.19762 0.371139 0
M  V30 9455 H 914.53 3.11521 0.879581 0
M  V30 9456 H 913.437 3.4646 -1.41125 0
M  V30 9457 H 914.77 4.56573 -1.83852 0
M  V30 9458 N 916.422 0.810101 1.35185 0
M  V30 9459 C 917.332 0.224565 2.33523 0
M  V30 9460 C 918.348 -0.634287 1.62027 0
M  V30 9461 O 919.524 -0.545211 1.9388 0
M  V30 9462 C 916.589 -0.614319 3.41214 0
M  V30 9463 C 915.65 0.265435 4.28479 0
M  V30 9464 C 914.883 -0.533506 5.31027 0
M  V30 9465 O 915.106 -1.7679 5.42311 0
M  V30 9466 O 914.04 0.0774573 6.0185 0
M  V30 9467 H 917.866 1.03815 2.85405 0
M  V30 9468 H 915.451 0.571964 1.38018 0
M  V30 9469 H 917.333 -1.09201 4.07005 0
M  V30 9470 H 916.008 -1.40545 2.91597 0
M  V30 9471 H 914.915 0.790343 3.65656 0
M  V30 9472 H 916.248 1.0206 4.81503 0
M  V30 9473 N 917.9 -1.47166 0.563914 0
M  V30 9474 C 918.81 -2.33885 -0.182977 0
M  V30 9475 C 919.826 -1.48605 -0.905132 0
M  V30 9476 O 921.002 -1.81518 -0.872527 0
M  V30 9477 C 918.067 -3.25433 -1.19558 0
M  V30 9478 C 917.128 -4.26607 -0.480129 0
M  V30 9479 C 916.361 -5.1378 -1.44449 0
M  V30 9480 O 916.584 -5.03531 -2.67979 0
M  V30 9481 O 915.518 -5.94109 -0.965321 0
M  V30 9482 H 919.344 -2.99065 0.528544 0
M  V30 9483 H 916.929 -1.45834 0.324468 0
M  V30 9484 H 918.811 -3.81964 -1.77993 0
M  V30 9485 H 917.486 -2.62873 -1.8889 0
M  V30 9486 H 916.393 -3.73817 0.145583 0
M  V30 9487 H 917.726 -4.919 0.171868 0
M  V30 9488 N 919.378 -0.300708 -1.54705 0
M  V30 9489 C 920.308 0.568675 -2.26469 0
M  V30 9490 C 921.289 1.13817 -1.26411 0
M  V30 9491 O 922.474 1.16756 -1.55183 0
M  V30 9492 C 919.604 1.74077 -3.00524 0
M  V30 9493 C 918.558 1.30165 -4.07727 0
M  V30 9494 C 917.884 2.55888 -4.69495 0
M  V30 9495 C 919.184 0.433106 -5.20501 0
M  V30 9496 H 920.878 -0.0298851 -2.99385 0
M  V30 9497 H 918.424 -0.0158135 -1.43991 0
M  V30 9498 H 920.377 2.35506 -3.49449 0
M  V30 9499 H 919.101 2.36556 -2.25186 0
M  V30 9500 H 917.76 0.710414 -3.59651 0
M  V30 9501 H 917.408 3.16681 -3.90797 0
M  V30 9502 H 917.108 2.27207 -5.41895 0
M  V30 9503 H 918.632 3.18121 -5.21183 0
M  V30 9504 H 920.046 0.95307 -5.65322 0
M  V30 9505 H 918.443 0.240085 -5.9962 0
M  V30 9506 H 919.513 -0.541866 -4.81863 0
M  V30 9507 N 920.856 1.57574 -0.0284266 0
M  V30 9508 C 922.133 1.83064 0.688979 0
M  V30 9509 C 922.513 0.91219 1.90374 0
M  V30 9510 O 921.861 -0.0323672 2.28477 0
M  V30 9511 C 922.071 3.32262 1.06785 0
M  V30 9512 C 923.419 3.98717 1.45978 0
M  V30 9513 O 924.443 3.36753 1.16085 0
M  V30 9514 O 923.302 5.07927 2.01673 0
M  V30 9515 H 920.396 0.7548 0.337944 0
M  V30 9516 H 922.942 1.69607 -0.0560555 0
M  V30 9517 H 921.714 3.90772 0.203235 0
M  V30 9518 H 921.337 3.50823 1.87107 0
M  V30 9519 N 922.334 -0.244713 1.55689 0
M  V30 9520 C 923.244 -1.32447 1.93636 0
M  V30 9521 C 924.26 -1.52541 0.837086 0
M  V30 9522 O 925.436 -1.66121 1.13867 0
M  V30 9523 C 922.501 -2.65864 2.22525 0
M  V30 9524 C 921.562 -2.54273 3.45896 0
M  V30 9525 C 920.795 -3.81327 3.73397 0
M  V30 9526 O 921.018 -4.83307 3.02936 0
M  V30 9527 O 919.952 -3.79829 4.66919 0
M  V30 9528 H 923.778 -1.03255 2.85608 0
M  V30 9529 H 921.363 -0.445652 1.42598 0
M  V30 9530 H 923.245 -3.447 2.42404 0
M  V30 9531 H 921.92 -2.94784 1.33731 0
M  V30 9532 H 920.827 -1.73715 3.31321 0
M  V30 9533 H 922.16 -2.30297 4.34999 0
M  V30 9534 N 923.813 -1.49104 -0.510467 0
M  V30 9535 C 924.776 -1.64569 -1.59529 0
M  V30 9536 C 925.776 -0.517937 -1.5223 0
M  V30 9537 O 926.966 -0.784183 -1.55551 0
M  V30 9538 C 924.098 -1.6342 -2.99177 0
M  V30 9539 H 925.291 -2.61318 -1.4715 0
M  V30 9540 H 922.844 -1.37993 -0.734001 0
M  V30 9541 H 923.579 -0.68221 -3.17043 0
M  V30 9542 H 923.364 -2.45312 -3.05883 0
M  V30 9543 H 924.854 -1.77474 -3.78011 0
M  V30 9544 N 925.291 0.760815 -1.38019 0
M  V30 9545 C 926.537 1.52198 -1.34028 0
M  V30 9546 C 926.87 1.94067 0.0718309 0
M  V30 9547 O 926.145 1.64895 1.0315 0
M  V30 9548 C 926.428 2.77954 -2.2894 0
M  V30 9549 C 926.281 2.42269 -3.7898 0
M  V30 9550 C 927.6 3.79943 -2.22107 0
M  V30 9551 H 924.719 0.552131 -0.488181 0
M  V30 9552 H 927.361 0.871971 -1.6881 0
M  V30 9553 H 925.511 3.33419 -1.9941 0
M  V30 9554 H 927.183 1.92635 -4.19153 0
M  V30 9555 H 925.426 1.74822 -3.97014 0
M  V30 9556 H 926.097 3.32211 -4.4084 0
M  V30 9557 H 928.573 3.34 -2.4816 0
M  V30 9558 H 927.449 4.6564 -2.90639 0
M  V30 9559 H 927.71 4.25004 -1.21753 0
M  V30 9560 N 926.769 1.22769 0.988202 0
M  V30 9561 C 927.679 1.01844 2.11341 0
M  V30 9562 C 928.695 -0.0346937 1.73965 0
M  V30 9563 O 929.871 0.159061 2.00771 0
M  V30 9564 C 926.936 0.603837 3.41401 0
M  V30 9565 C 925.997 1.73113 3.92849 0
M  V30 9566 C 925.23 1.33621 5.16702 0
M  V30 9567 O 925.453 0.217041 5.69987 0
M  V30 9568 O 924.387 2.15444 5.62021 0
M  V30 9569 H 928.213 1.96127 2.31879 0
M  V30 9570 H 925.798 1.01405 1.09715 0
M  V30 9571 H 927.68 0.383196 4.19654 0
M  V30 9572 H 926.355 -0.310082 3.22211 0
M  V30 9573 H 925.262 2.00634 3.15748 0
M  V30 9574 H 926.595 2.62308 4.1648 0
M  V30 9575 N 928.247 -1.18576 1.03814 0
M  V30 9576 C 929.663 -1.4051 0.756909 0
M  V30 9577 C 929.863 -1.9057 -0.654631 0
M  V30 9578 O 928.919 -2.0884 -1.41922 0
M  V30 9579 C 930.232 -2.4081 1.80087 0
M  V30 9580 C 931.78 -2.54541 1.82148 0
M  V30 9581 C 932.255 -3.58102 2.85529 0
M  V30 9582 N 933.746 -3.65607 2.84404 0
M  V30 9583 C 934.481 -4.45458 3.61047 0
M  V30 9584 N 933.977 -5.28937 4.47434 0
M  V30 9585 N 935.77 -4.40196 3.49548 0
M  V30 9586 H 927.921 -0.844075 1.94908 0
M  V30 9587 H 930.184 -0.433287 0.843188 0
M  V30 9588 H 929.89 -2.1107 2.81322 0
M  V30 9589 H 929.764 -3.4012 1.63089 0
M  V30 9590 H 932.151 -2.83598 0.815855 0
M  V30 9591 H 932.232 -1.55352 2.03223 0
M  V30 9592 H 931.876 -3.29786 3.86269 0
M  V30 9593 H 931.806 -4.56963 2.6171 0
M  V30 9594 H 934.297 -3.05994 2.21756 0
M  V30 9595 H 934.61 -5.8701 5.02632 0
M  V30 9596 H 932.955 -5.28366 4.51503 0
M  V30 9597 H 936.146 -3.74026 2.81464 0
M  V30 9598 H 936.319 -5.02186 4.09528 0
M  V30 9599 N 929.725 -0.817259 -1.34754 0
M  V30 9600 C 930.95 -0.414423 -2.03217 0
M  V30 9601 C 931.375 0.970037 -1.61158 0
M  V30 9602 O 930.733 1.63016 -0.793436 0
M  V30 9603 C 930.781 -0.518087 -3.56859 0
M  V30 9604 O 929.885 0.464314 -4.09778 0
M  V30 9605 H 929.226 -0.171454 -0.641482 0
M  V30 9606 H 931.756 -1.10611 -1.72123 0
M  V30 9607 H 931.766 -0.391779 -4.06115 0
M  V30 9608 H 930.441 -1.52786 -3.86819 0
M  V30 9609 H 929.018 0.297361 -3.71712 0
M  V30 9610 N 931.203 1.46865 -0.571711 0
M  V30 9611 C 932.133 2.3298 0.155795 0
M  V30 9612 C 933.114 1.44678 0.894553 0
M  V30 9613 O 934.299 1.73513 0.872176 0
M  V30 9614 C 931.429 3.26745 1.17708 0
M  V30 9615 C 930.383 4.24401 0.553863 0
M  V30 9616 C 929.709 5.07595 1.68083 0
M  V30 9617 C 931.009 5.19884 -0.501827 0
M  V30 9618 H 932.703 2.94056 -0.563176 0
M  V30 9619 H 930.249 1.41402 -0.27228 0
M  V30 9620 H 932.202 3.85838 1.6943 0
M  V30 9621 H 930.926 2.63753 1.92618 0
M  V30 9622 H 929.585 3.66554 0.057815 0
M  V30 9623 H 929.233 4.40996 2.41933 0
M  V30 9624 H 928.933 5.73722 1.26953 0
M  V30 9625 H 930.457 5.6955 2.20103 0
M  V30 9626 H 931.871 5.73257 -0.0701057 0
M  V30 9627 H 930.268 5.94293 -0.832815 0
M  V30 9628 H 931.338 4.64482 -1.39229 0
M  V30 9629 N 932.681 0.308908 1.54543 0
M  V30 9630 C 933.628 -0.563659 2.23811 0
M  V30 9631 C 934.598 -1.12332 1.22355 0
M  V30 9632 O 935.783 -1.16638 1.50997 0
M  V30 9633 C 932.923 -1.72585 2.98845 0
M  V30 9634 C 932.036 -1.19682 4.1509 0
M  V30 9635 C 931.171 -2.32351 4.77688 0
M  V30 9636 C 930.21 -1.76623 5.86064 0
M  V30 9637 N 929.347 -2.82896 6.42584 0
M  V30 9638 H 934.187 0.0336288 2.97981 0
M  V30 9639 H 931.724 0.0283666 1.47073 0
M  V30 9640 H 933.682 -2.40951 3.40586 0
M  V30 9641 H 932.312 -2.29464 2.27037 0
M  V30 9642 H 931.364 -0.405173 3.78236 0
M  V30 9643 H 932.676 -0.748923 4.93146 0
M  V30 9644 H 931.83 -3.0865 5.22322 0
M  V30 9645 H 930.569 -2.80472 3.98982 0
M  V30 9646 H 929.574 -0.988171 5.40847 0
M  V30 9647 H 930.799 -1.29398 6.66658 0
M  V30 9648 H 928.745 -3.30336 5.66758 0
M  V30 9649 H 928.662 -2.42626 7.16009 0
M  V30 9650 H 929.93 -3.59068 6.91875 0
M  V30 9651 N 934.159 -1.57557 0.0367827 0
M  V30 9652 C 935.384 -1.96828 -0.653707 0
M  V30 9653 C 935.809 -0.913559 -1.64425 0
M  V30 9654 O 935.167 0.124749 -1.8087 0
M  V30 9655 C 935.215 -3.35189 -1.32969 0
M  V30 9656 O 934.319 -3.32095 -2.44513 0
M  V30 9657 H 933.66 -0.64157 -0.171124 0
M  V30 9658 H 936.19 -2.04351 0.100912 0
M  V30 9659 H 936.2 -3.71593 -1.68472 0
M  V30 9660 H 934.875 -4.11496 -0.603654 0
M  V30 9661 H 933.452 -3.07418 -2.11065 0
M  V30 9662 N 935.637 0.236453 -1.55816 0
M  V30 9663 C 936.886 0.960981 -1.77336 0
M  V30 9664 C 937.199 1.86085 -0.602641 0
M  V30 9665 O 938.405 2.62291 -0.701106 0
M  V30 9666 C 936.861 1.75884 -3.13995 0
M  V30 9667 C 936.469 0.905849 -4.38746 0
M  V30 9668 C 938.213 2.47548 -3.44848 0
M  V30 9669 C 936.12 1.7002 -5.66434 0
M  V30 9670 H 935.05 0.362547 -0.661117 0
M  V30 9671 H 937.701 0.215303 -1.82233 0
M  V30 9672 H 936.083 2.54687 -3.03234 0
M  V30 9673 H 937.257 0.159415 -4.60524 0
M  V30 9674 H 935.572 0.30205 -4.15303 0
M  V30 9675 H 938.169 3.07452 -4.37467 0
M  V30 9676 H 938.512 3.19689 -2.66655 0
M  V30 9677 H 939.045 1.75747 -3.56872 0
M  V30 9678 H 935.784 1.02234 -6.47479 0
M  V30 9679 H 935.304 2.42164 -5.48741 0
M  V30 9680 H 936.983 2.26469 -6.0607 0
M  V30 9681 N 937.115 1.49373 0.502552 0
M  V30 9682 C 938.045 1.68839 1.61294 0
M  V30 9683 C 939.026 0.537096 1.61398 0
M  V30 9684 O 940.211 0.772764 1.78163 0
M  V30 9685 C 937.341 1.75347 2.99784 0
M  V30 9686 C 936.295 2.90251 3.14545 0
M  V30 9687 C 935.621 2.8187 4.54371 0
M  V30 9688 C 936.921 4.31207 2.94717 0
M  V30 9689 H 938.615 2.61803 1.45257 0
M  V30 9690 H 936.161 1.25987 0.697371 0
M  V30 9691 H 938.114 1.87552 3.77362 0
M  V30 9692 H 936.838 0.789814 3.16906 0
M  V30 9693 H 935.497 2.77646 2.39392 0
M  V30 9694 H 935.145 1.83416 4.68367 0
M  V30 9695 H 934.845 3.5899 4.65188 0
M  V30 9696 H 936.369 2.96081 5.34012 0
M  V30 9697 H 937.783 4.44501 3.62065 0
M  V30 9698 H 936.18 5.09536 3.17007 0
M  V30 9699 H 937.25 4.45759 1.90857 0
M  V30 9700 N 938.594 -0.753485 1.38421 0
M  V30 9701 C 939.542 -1.8886 1.35774 0
M  V30 9702 C 940.536 -1.67639 0.243608 0
M  V30 9703 O 941.742 -1.75206 0.412649 0
M  V30 9704 H 938.117 -0.62137 0.42356 0
M  V30 9705 H 940.088 -1.88209 2.3156 0
M  V30 9706 C 938.837 -3.26344 1.19979 0
M  V30 9707 H 938.16 -3.43259 2.04971 0
M  V30 9708 H 939.6 -4.06015 1.22181 0
M  V30 9709 C 938.059 -3.36771 -0.0932867 0
M  V30 9710 O 938.589 -3.8718 -1.07027 0
M  V30 9711 N 936.795 -2.90212 -0.150154 0
M  V30 9712 H 936.342 -2.4938 0.645562 0
M  V30 9713 H 936.3 -2.97569 -1.0149 0
M  V30 9714 N 940.072 -1.23292 -0.981677 0
M  V30 9715 C 941.019 -1.01296 -2.07383 0
M  V30 9716 C 941.989 0.069139 -1.65956 0
M  V30 9717 O 943.174 -0.0827108 -1.90621 0
M  V30 9718 C 940.314 -0.608876 -3.39686 0
M  V30 9719 C 939.427 -1.76296 -3.9439 0
M  V30 9720 C 938.562 -1.30578 -5.14901 0
M  V30 9721 C 937.601 -2.4307 -5.61768 0
M  V30 9722 N 936.738 -1.98319 -6.73509 0
M  V30 9723 H 941.578 -1.9478 -2.25532 0
M  V30 9724 H 939.115 -0.970356 -1.10555 0
M  V30 9725 H 941.073 -0.355702 -4.15681 0
M  V30 9726 H 939.703 0.288961 -3.21504 0
M  V30 9727 H 938.755 -2.13017 -3.15163 0
M  V30 9728 H 940.067 -2.60871 -4.25145 0
M  V30 9729 H 939.221 -1.01066 -5.98223 0
M  V30 9730 H 937.96 -0.430386 -4.85797 0
M  V30 9731 H 936.965 -2.73358 -4.77028 0
M  V30 9732 H 938.19 -3.31144 -5.92892 0
M  V30 9733 H 936.136 -1.13157 -6.46167 0
M  V30 9734 H 936.053 -2.76454 -7.0364 0
M  V30 9735 H 937.321 -1.71907 -7.60308 0
M  V30 9736 N 941.55 1.18024 -1.04442 0
M  V30 9737 C 942.498 2.23834 -0.632557 0
M  V30 9738 C 943.492 1.65902 0.342488 0
M  V30 9739 O 944.698 1.78778 0.20937 0
M  V30 9740 H 941.073 0.728544 -0.186353 0
M  V30 9741 H 943.044 2.55876 -1.53526 0
M  V30 9742 C 941.793 3.47697 -0.0153661 0
M  V30 9743 H 941.116 3.92574 -0.756704 0
M  V30 9744 H 942.556 4.23345 0.235541 0
M  V30 9745 C 941.015 3.13416 1.23579 0
M  V30 9746 O 941.545 3.27499 2.3261 0
M  V30 9747 N 939.751 2.67708 1.13053 0
M  V30 9748 H 939.298 2.56449 0.243277 0
M  V30 9749 H 939.256 2.45143 1.96855 0
M  V30 9750 O 943.067 0.959562 1.29903 0
M  V30 9751 H 943.758 0.594984 1.84336 0
M  V30 END ATOM
M  V30 BEGIN BOND
M  V30 END BOND
M  V30 END CTAB
M  END
$$$$
