drugbank_target|P49411 Elongation factor Tu, mitochondrial (DB01593; DB04315; DB14487; DB14533; DB14548)
 OpenBabel12092120553D

  0  0  0     0  0            999 V3000
M  V30 BEGIN CTAB
M  V30 COUNTS 7063 7126 0 0 0
M  V30 BEGIN ATOM
M  V30 1 H -0.908 1.98254 -0.117106 0
M  V30 2 N 0 1.576 0 0
M  V30 3 C 0.933 2.03868 1.02534 0
M  V30 4 C 1.911 0.928543 1.3348 0
M  V30 5 O 3.095 1.19667 1.45644 0
M  V30 6 C 0.222 2.43627 2.35294 0
M  V30 7 C -0.732 3.65373 2.2001 0
M  V30 8 S 0.101 5.13292 1.52614 0
M  V30 9 C 1.257 5.56322 2.86805 0
M  V30 10 H 1.49 2.90518 0.631377 0
M  V30 11 H -0.977 1.52953 0.210867 0
M  V30 12 H 0.981 2.67203 3.11629 0
M  V30 13 H -0.358 1.57376 2.7183 0
M  V30 14 H -1.165 3.90944 3.18086 0
M  V30 15 H -1.563 3.418 1.51819 0
M  V30 16 H 0.729 5.58782 3.83104 0
M  V30 17 H 1.672 6.56266 2.65933 0
M  V30 18 H 2.08 4.83886 2.90714 0
M  V30 19 N 1.4781 -0.272755 1.55222 0
M  V30 20 C 2.4411 -1.32041 1.87344 0
M  V30 21 C 3.4411 -1.42342 0.74803 0
M  V30 22 O 4.6311 -1.41488 1.0162 0
M  V30 23 C 1.7631 -2.70173 2.07893 0
M  V30 24 H 2.9561 -1.04789 2.80997 0
M  V30 25 H 0.5091 -0.51083 1.47717 0
M  V30 26 H 1.2441 -3.02605 1.16622 0
M  V30 27 H 1.0291 -2.64082 2.89833 0
M  V30 28 H 2.5191 -3.45869 2.34017 0
M  V30 29 N 2.9562 -1.48159 -0.537278 0
M  V30 30 C 3.9192 -1.61665 -1.62472 0
M  V30 31 C 4.9192 -0.490395 -1.5314 0
M  V30 32 O 6.1092 -0.755998 -1.5694 0
M  V30 33 C 3.2412 -1.57997 -3.02076 0
M  V30 34 H 4.4342 -2.58621 -1.51839 0
M  V30 35 H 1.9872 -1.36647 -0.758771 0
M  V30 36 H 2.7222 -0.624913 -3.18222 0
M  V30 37 H 2.5072 -2.39755 -3.10258 0
M  V30 38 H 3.9972 -1.70627 -3.81151 0
M  V30 39 N 4.4343 0.785586 -1.36625 0
M  V30 40 C 5.3973 1.87999 -1.31107 0
M  V30 41 C 6.3973 1.59316 -0.217959 0
M  V30 42 O 7.5873 1.67656 -0.472977 0
M  V30 43 C 4.7193 3.24861 -1.03334 0
M  V30 44 H 5.9123 1.94307 -2.2844 0
M  V30 45 H 3.4653 0.983813 -1.21453 0
M  V30 46 H 4.2003 3.24235 -0.0647432 0
M  V30 47 H 3.9853 3.4707 -1.82441 0
M  V30 48 H 5.4753 4.04929 -1.02088 0
M  V30 49 N 5.9124 1.20967 1.01018 0
M  V30 50 C 7.1404 1.04956 1.78303 0
M  V30 51 C 7.5554 -0.400915 1.84494 0
M  V30 52 O 6.9124 -1.27826 1.30257 0
M  V30 53 C 6.9634 1.63403 3.22462 0
M  V30 54 O 6.6844 3.02775 3.16637 0
M  V30 55 C 8.1854 1.52432 4.16268 0
M  V30 56 H 5.4054 0.368858 0.560522 0
M  V30 57 H 7.9494 1.60193 1.27116 0
M  V30 58 H 6.1044 1.1227 3.70775 0
M  V30 59 H 6.5184 3.30626 4.07169 0
M  V30 60 H 7.9924 1.98078 5.15237 0
M  V30 61 H 8.4694 0.477875 4.36592 0
M  V30 62 H 9.0754 2.02787 3.73841 0
M  V30 63 N 7.3905 -1.2043 1.01659 0
M  V30 64 C 8.3205 -2.25466 0.607226 0
M  V30 65 C 9.3015 -1.65853 -0.377716 0
M  V30 66 O 10.4865 -1.92409 -0.263149 0
M  V30 67 C 7.6165 -3.47256 -0.0552949 0
M  V30 68 C 6.5705 -4.19462 0.850632 0
M  V30 69 C 5.8965 -5.34673 0.0538859 0
M  V30 70 C 7.1965 -4.75603 2.15868 0
M  V30 71 H 8.8905 -2.59962 1.48526 0
M  V30 72 H 6.4365 -1.2496 0.715605 0
M  V30 73 H 8.3895 -4.19917 -0.353233 0
M  V30 74 H 7.1135 -3.11924 -0.968045 0
M  V30 75 H 5.7725 -3.48667 1.13257 0
M  V30 76 H 5.4205 -4.95585 -0.860514 0
M  V30 77 H 5.1205 -5.83913 0.657192 0
M  V30 78 H 6.6445 -6.10138 -0.237598 0
M  V30 79 H 8.0585 -5.40083 1.92311 0
M  V30 80 H 6.4555 -5.3528 2.71284 0
M  V30 81 H 7.5255 -3.94346 2.82169 0
M  V30 82 N 8.8686 -0.792821 -1.36206 0
M  V30 83 C 9.7986 -0.207853 -2.32573 0
M  V30 84 C 10.7796 0.659055 -1.56813 0
M  V30 85 O 11.9646 0.592176 -1.84951 0
M  V30 86 C 9.0946 0.655449 -3.41059 0
M  V30 87 C 8.0486 -0.111842 -4.27854 0
M  V30 88 C 7.3746 0.872274 -5.27537 0
M  V30 89 C 8.6746 -1.30299 -5.05786 0
M  V30 90 H 10.3686 -1.01294 -2.81744 0
M  V30 91 H 7.9146 -0.48854 -1.3546 0
M  V30 92 H 9.8676 1.07464 -4.07467 0
M  V30 93 H 8.5916 1.49328 -2.90463 0
M  V30 94 H 7.2506 -0.512053 -3.63006 0
M  V30 95 H 6.8986 1.70523 -4.73214 0
M  V30 96 H 6.5986 0.363291 -5.86476 0
M  V30 97 H 8.1226 1.28996 -5.96818 0
M  V30 98 H 9.5366 -0.959379 -5.65216 0
M  V30 99 H 7.9336 -1.7455 -5.74154 0
M  V30 100 H 9.0036 -2.09663 -4.37229 0
M  V30 101 N 10.3467 1.47872 -0.545128 0
M  V30 102 C 11.7627 1.5829 -0.204032 0
M  V30 103 C 11.9627 1.54529 1.29317 0
M  V30 104 O 11.0187 1.44232 2.07252 0
M  V30 105 C 12.3317 2.89304 -0.819987 0
M  V30 106 C 13.8797 3.02864 -0.790105 0
M  V30 107 C 14.3547 4.3656 -1.38491 0
M  V30 108 N 15.8457 4.43165 -1.34755 0
M  V30 109 C 16.5807 5.45153 -1.77753 0
M  V30 110 N 16.0767 6.54016 -2.2855 0
M  V30 111 N 17.8697 5.36125 -1.68897 0
M  V30 112 H 10.0207 1.4856 -1.51802 0
M  V30 113 H 12.2837 0.706305 -0.632327 0
M  V30 114 H 11.9897 2.97757 -1.87173 0
M  V30 115 H 11.8637 3.75957 -0.305915 0
M  V30 116 H 14.2507 2.94014 0.252913 0
M  V30 117 H 14.3317 2.17782 -1.34181 0
M  V30 118 H 13.9757 4.46164 -2.42693 0
M  V30 119 H 13.9057 5.20353 -0.808754 0
M  V30 120 H 16.3967 3.65083 -0.975855 0
M  V30 121 H 16.7097 7.27994 -2.59314 0
M  V30 122 H 15.0547 6.54938 -2.32553 0
M  V30 123 H 18.2457 4.49975 -1.28998 0
M  V30 124 H 18.4187 6.15472 -2.02726 0
M  V30 125 N 11.8248 0.280983 1.55075 0
M  V30 126 C 12.7878 -0.590896 2.21452 0
M  V30 127 C 13.7878 -1.07682 1.19421 0
M  V30 128 O 14.9778 -0.97605 1.44288 0
M  V30 129 C 12.1098 -1.81587 2.88511 0
M  V30 130 H 13.3028 -0.0112554 2.99898 0
M  V30 131 H 10.8558 0.0316438 1.56268 0
M  V30 132 H 11.5908 -2.43587 2.14093 0
M  V30 133 H 11.3758 -1.4753 3.63287 0
M  V30 134 H 12.8658 -2.43575 3.39206 0
M  V30 135 N 13.3029 -1.57598 0.00835791 0
M  V30 136 C 14.5309 -1.95214 -0.68549 0
M  V30 137 C 14.9459 -0.883706 -1.66841 0
M  V30 138 O 14.3029 0.136565 -1.81988 0
M  V30 139 C 14.3539 -3.32865 -1.41007 0
M  V30 140 O 14.0749 -4.35609 -0.466552 0
M  V30 141 C 15.5759 -3.84991 -2.19765 0
M  V30 142 H 12.7959 -0.643422 -0.190392 0
M  V30 143 H 15.3399 -2.04406 0.0619607 0
M  V30 144 H 13.4949 -3.24956 -2.10908 0
M  V30 145 H 13.9089 -5.15288 -0.978699 0
M  V30 146 H 15.3829 -4.8371 -2.65948 0
M  V30 147 H 15.8599 -3.18137 -3.02796 0
M  V30 148 H 16.4659 -3.96103 -1.54864 0
M  V30 149 N 14.781 0.264519 -1.55364 0
M  V30 150 C 16.192 0.834936 -1.6699 0
M  V30 151 C 16.543 1.86718 -0.602552 0
M  V30 152 O 15.668 2.14899 0.254425 0
M  V30 153 C 16.263 1.5212 -3.02729 0
M  V30 154 C 14.822 2.03954 -3.16354 0
M  V30 155 C 13.969 0.884498 -2.62815 0
M  V30 156 H 16.92 0.0406869 -1.58648 0
M  V30 157 H 16.941 2.38853 -2.96191 0
M  V30 158 H 16.453 0.769668 -3.80392 0
M  V30 159 H 14.554 2.82041 -2.43482 0
M  V30 160 H 14.667 2.24902 -4.23032 0
M  V30 161 H 13.031 1.2802 -2.20188 0
M  V30 162 H 13.814 0.14634 -3.42988 0
M  V30 163 N 16.2591 1.48442 0.529413 0
M  V30 164 C 17.2091 1.59407 1.63014 0
M  V30 165 C 18.1931 0.451166 1.54445 0
M  V30 166 O 19.3851 0.702635 1.62456 0
M  V30 167 C 16.5141 1.63746 3.01732 0
M  V30 168 C 15.6001 2.83518 3.15402 0
M  V30 169 N 15.9911 4.07929 2.99045 0
M  V30 170 C 14.2891 2.80862 3.46457 0
M  V30 171 C 14.9901 4.8829 3.16146 0
M  V30 172 N 13.9661 4.21117 3.43746 0
M  V30 173 H 17.7681 2.53343 1.48978 0
M  V30 174 H 15.2821 1.44821 0.734885 0
M  V30 175 H 17.2791 1.69695 3.80801 0
M  V30 176 H 15.9391 0.709264 3.16859 0
M  V30 177 H 16.9501 4.38357 2.75796 0
M  V30 178 H 13.6271 1.97301 3.67938 0
M  V30 179 H 15.0171 5.97028 3.08232 0
M  V30 180 N 17.7372 -0.778329 1.37039 0
M  V30 181 C 18.9842 -1.53665 1.31884 0
M  V30 182 C 19.3122 -1.9425 -0.0986303 0
M  V30 183 O 18.5672 -1.63832 -1.07041 0
M  V30 184 C 18.8662 -2.81845 2.19768 0
M  V30 185 C 18.5322 -2.60345 3.68146 0
M  V30 186 C 17.1942 -2.5419 4.08584 0
M  V30 187 C 19.5462 -2.40923 4.62175 0
M  V30 188 C 16.8742 -2.26594 5.41177 0
M  V30 189 C 19.2262 -2.14852 5.94997 0
M  V30 190 C 17.8902 -2.07137 6.34547 0
M  V30 191 H 17.1602 -0.562299 0.482598 0
M  V30 192 H 19.8072 -0.897069 1.69189 0
M  V30 193 H 18.1122 -3.50328 1.75436 0
M  V30 194 H 19.8092 -3.39692 2.13097 0
M  V30 195 H 16.3992 -2.65996 3.36072 0
M  V30 196 H 20.5832 -2.44673 4.31797 0
M  V30 197 H 15.8392 -2.19111 5.70789 0
M  V30 198 H 20.0132 -1.98822 6.67415 0
M  V30 199 H 17.6402 -1.85518 7.37216 0
M  V30 200 N 19.2153 -1.21501 -1.00376 0
M  V30 201 C 20.4403 -1.05977 -1.78279 0
M  V30 202 C 20.8653 0.385994 -1.84097 0
M  V30 203 O 20.2233 1.27849 -1.28547 0
M  V30 204 C 20.2713 -1.66302 -3.19963 0
M  V30 205 O 19.3753 -0.909333 -4.0225 0
M  V30 206 H 18.7163 -0.372906 -0.549397 0
M  V30 207 H 21.2463 -1.6107 -1.26165 0
M  V30 208 H 21.2563 -1.70574 -3.70632 0
M  V30 209 H 19.9313 -2.71515 -3.15043 0
M  V30 210 H 18.5083 -0.941795 -3.60811 0
M  V30 211 N 20.6934 1.19889 -1.02296 0
M  V30 212 C 21.9414 1.89046 -0.714558 0
M  V30 213 C 22.2624 1.79636 0.758681 0
M  V30 214 O 21.5324 1.20292 1.54618 0
M  V30 215 H 20.1124 0.699802 -0.261317 0
M  V30 216 H 22.7744 1.45574 -1.29592 0
M  V30 217 H 21.8704 2.95524 -1.0036 0
M  V30 218 N 22.1715 0.800033 1.35784 0
M  V30 219 C 23.1015 0.220184 2.3246 0
M  V30 220 C 24.0825 -0.65073 1.57161 0
M  V30 221 O 25.2675 -0.582359 1.85263 0
M  V30 222 C 22.3975 -0.637353 3.41402 0
M  V30 223 C 21.3515 0.134531 4.27789 0
M  V30 224 C 20.6775 -0.844285 5.27992 0
M  V30 225 C 21.9775 1.32979 5.05088 0
M  V30 226 H 23.6715 1.02787 2.81203 0
M  V30 227 H 21.2175 0.495717 1.35199 0
M  V30 228 H 23.1705 -1.05302 4.08031 0
M  V30 229 H 21.8945 -1.47785 2.91251 0
M  V30 230 H 20.5535 0.531296 3.6273 0
M  V30 231 H 20.2015 -1.68011 4.74111 0
M  V30 232 H 19.9015 -0.332184 5.8666 0
M  V30 233 H 21.4255 -1.2583 5.97494 0
M  V30 234 H 22.8395 0.98934 5.64699 0
M  V30 235 H 21.2365 1.77593 5.7322 0
M  V30 236 H 22.3065 2.11978 4.36111 0
M  V30 237 N 23.6496 -1.47581 0.552962 0
M  V30 238 C 24.6126 -2.28439 -0.186605 0
M  V30 239 C 25.6126 -1.36706 -0.84665 0
M  V30 240 O 26.8026 -1.59378 -0.703164 0
M  V30 241 C 23.9346 -3.16264 -1.2724 0
M  V30 242 H 25.1276 -2.95294 0.523609 0
M  V30 243 H 22.6806 -1.532 0.309745 0
M  V30 244 H 23.4156 -2.54091 -2.01514 0
M  V30 245 H 23.2006 -3.83769 -0.803968 0
M  V30 246 H 24.6906 -3.77198 -1.79196 0
M  V30 247 N 25.1277 -0.289203 -1.54924 0
M  V30 248 C 26.0907 0.579144 -2.21762 0
M  V30 249 C 27.0907 1.07047 -1.1999 0
M  V30 250 O 28.2807 0.968384 -1.44803 0
M  V30 251 C 25.4127 1.80055 -2.8947 0
M  V30 252 H 26.6057 -0.00464908 -2.999 0
M  V30 253 H 24.1587 -0.0399306 -1.56249 0
M  V30 254 H 24.8937 2.42449 -2.15381 0
M  V30 255 H 24.6787 1.45602 -3.64064 0
M  V30 256 H 26.1687 2.41773 -3.40493 0
M  V30 257 N 26.6058 1.57591 -0.0167156 0
M  V30 258 C 27.8538 1.90906 0.663285 0
M  V30 259 C 28.1748 0.892509 1.73376 0
M  V30 260 O 27.4448 -0.0677623 1.95783 0
M  V30 261 H 26.0248 0.704637 0.247983 0
M  V30 262 H 28.6868 1.94803 -0.0615909 0
M  V30 263 H 27.7828 2.9116 1.12393 0
M  V30 264 N 28.0839 -0.256276 1.55502 0
M  V30 265 C 29.4999 -0.604325 1.47716 0
M  V30 266 C 29.6999 -1.88763 0.705039 0
M  V30 267 O 28.7559 -2.51445 0.230613 0
M  V30 268 C 30.0689 -0.715756 2.92057 0
M  V30 269 C 31.6169 -0.808706 3.02372 0
M  V30 270 C 32.0919 -0.951777 4.48001 0
M  V30 271 N 33.5829 -1.01688 4.519 0
M  V30 272 C 34.3179 -1.14668 5.61817 0
M  V30 273 N 33.8139 -1.24261 6.81565 0
M  V30 274 N 35.6069 -1.1791 5.49594 0
M  V30 275 H 27.7579 0.586291 2.04148 0
M  V30 276 H 30.0209 0.201015 0.926443 0
M  V30 277 H 29.7269 0.157027 3.51349 0
M  V30 278 H 29.6009 -1.59071 3.42018 0
M  V30 279 H 31.9879 -1.67195 2.43166 0
M  V30 280 H 32.0689 0.0912063 2.55637 0
M  V30 281 H 31.7129 -0.0931291 5.07815 0
M  V30 282 H 31.6429 -1.86659 4.92408 0
M  V30 283 H 34.1339 -0.954468 3.65648 0
M  V30 284 H 34.4469 -1.34046 7.61086 0
M  V30 285 H 32.7919 -1.21236 6.84344 0
M  V30 286 H 35.9829 -1.10057 4.54978 0
M  V30 287 H 36.1559 -1.27681 6.35296 0
M  V30 288 N 29.562 -1.4872 -0.521534 0
M  V30 289 C 30.79 -1.60843 -1.30142 0
M  V30 290 C 31.205 -0.271897 -1.86832 0
M  V30 291 O 30.562 0.739969 -1.66825 0
M  V30 292 C 30.613 -2.66155 -2.4463 0
M  V30 293 O 30.334 -3.94623 -1.90275 0
M  V30 294 C 31.835 -2.88795 -3.36322 0
M  V30 295 H 29.055 -0.542075 -0.395468 0
M  V30 296 H 31.599 -1.94609 -0.628285 0
M  V30 297 H 29.754 -2.35224 -3.07812 0
M  V30 298 H 30.168 -4.52468 -2.65279 0
M  V30 299 H 31.642 -3.66264 -4.12983 0
M  V30 300 H 32.119 -1.97934 -3.9207 0
M  V30 301 H 32.725 -3.21063 -2.78924 0
M  V30 302 N 31.0401 0.771051 -1.3745 0
M  V30 303 C 32.2871 1.52963 -1.32697 0
M  V30 304 C 32.6151 1.94299 0.0883274 0
M  V30 305 O 31.8701 1.64397 1.0617 0
M  V30 306 C 32.1691 2.80676 -2.2126 0
M  V30 307 C 31.8351 2.58389 -3.69521 0
M  V30 308 C 30.4971 2.52019 -4.09927 0
M  V30 309 C 32.8491 2.38469 -4.63446 0
M  V30 310 C 30.1771 2.23721 -5.42371 0
M  V30 311 C 32.5291 2.11694 -5.96128 0
M  V30 312 C 31.1931 2.03769 -6.35637 0
M  V30 313 H 30.4631 0.559732 -0.485573 0
M  V30 314 H 33.1101 0.888083 -1.69662 0
M  V30 315 H 31.4151 3.49392 -1.77291 0
M  V30 316 H 33.1121 3.38557 -2.14895 0
M  V30 317 H 29.7021 2.6421 -3.37478 0
M  V30 318 H 33.8861 2.4238 -4.33089 0
M  V30 319 H 29.1421 2.16081 -5.71943 0
M  V30 320 H 33.3161 1.9528 -6.6846 0
M  V30 321 H 30.9431 1.81606 -7.38189 0
M  V30 322 N 32.5182 1.22032 0.997298 0
M  V30 323 C 33.4482 1.01065 2.10495 0
M  V30 324 C 34.4292 -0.0669542 1.69968 0
M  V30 325 O 35.6142 0.0943987 1.9397 0
M  V30 326 C 32.7442 0.582874 3.42374 0
M  V30 327 C 31.6982 1.60592 3.96729 0
M  V30 328 C 31.0242 1.03412 5.24605 0
M  V30 329 C 32.3242 2.99478 4.27914 0
M  V30 330 H 34.0182 1.93708 2.28292 0
M  V30 331 H 31.5642 0.932761 1.09707 0
M  V30 332 H 33.5172 0.423332 4.19268 0
M  V30 333 H 32.2412 -0.379213 3.24391 0
M  V30 334 H 30.9002 1.75316 3.21963 0
M  V30 335 H 30.5482 0.063518 5.0296 0
M  V30 336 H 30.2482 1.71754 5.61938 0
M  V30 337 H 31.7722 0.886066 6.04137 0
M  V30 338 H 33.1862 2.88153 4.95622 0
M  V30 339 H 31.5832 3.64903 4.76409 0
M  V30 340 H 32.6532 3.49742 3.3587 0
M  V30 341 N 33.9963 -1.19345 1.0293 0
M  V30 342 C 34.9263 -2.2481 0.631105 0
M  V30 343 C 35.9073 -1.66245 -0.360104 0
M  V30 344 O 37.0923 -1.92677 -0.242726 0
M  V30 345 C 34.2223 -3.47295 -0.0184607 0
M  V30 346 C 33.1763 -4.18536 0.895073 0
M  V30 347 C 32.5023 -5.34586 0.110592 0
M  V30 348 C 33.8023 -4.73287 2.209 0
M  V30 349 H 35.4963 -2.58372 1.51275 0
M  V30 350 H 33.0423 -1.24194 0.728818 0
M  V30 351 H 34.9953 -4.20268 -0.308675 0
M  V30 352 H 33.7193 -3.12933 -0.934907 0
M  V30 353 H 32.3783 -3.47446 1.16949 0
M  V30 354 H 32.0263 -4.96469 -0.807902 0
M  V30 355 H 31.7263 -5.83183 0.719087 0
M  V30 356 H 33.2503 -6.10355 -0.172871 0
M  V30 357 H 34.6643 -5.38013 1.98028 0
M  V30 358 H 33.0613 -5.32373 2.76946 0
M  V30 359 H 34.1313 -3.91331 2.86336 0
M  V30 360 N 35.4744 -0.807222 -1.35358 0
M  V30 361 C 36.4064 -0.175717 -2.28525 0
M  V30 362 C 37.4194 0.625354 -1.5031 0
M  V30 363 O 38.6084 0.457611 -1.72535 0
M  V30 364 C 35.7084 0.773471 -3.29956 0
M  V30 365 C 34.8814 0.0186296 -4.37396 0
M  V30 366 C 33.9404 0.886395 -5.18681 0
M  V30 367 O 32.9664 0.337106 -5.68201 0
M  V30 368 N 34.1684 2.20839 -5.36852 0
M  V30 369 H 36.9334 -0.976091 -2.83359 0
M  V30 370 H 34.4944 -0.662737 -1.47714 0
M  V30 371 H 36.4864 1.35824 -3.81227 0
M  V30 372 H 35.0564 1.47465 -2.75632 0
M  V30 373 H 34.2764 -0.747349 -3.87051 0
M  V30 374 H 35.5644 -0.501577 -5.06322 0
M  V30 375 H 34.9624 2.67858 -4.98265 0
M  V30 376 H 33.5194 2.74237 -5.91301 0
M  V30 377 N 36.9525 1.47285 -0.560781 0
M  V30 378 C 38.2005 2.02064 -0.0379868 0
M  V30 379 C 38.5215 1.43711 1.31803 0
M  V30 380 O 37.7915 0.61362 1.86042 0
M  V30 381 H 36.3715 0.746918 -0.0110531 0
M  V30 382 H 39.0335 1.80648 -0.731598 0
M  V30 383 H 38.1295 3.12064 0.0474463 0
M  V30 384 N 38.4306 0.297415 1.54768 0
M  V30 385 C 39.3606 -0.573494 2.26348 0
M  V30 386 C 40.3416 -1.14085 1.26169 0
M  V30 387 O 41.5266 -1.17086 1.54934 0
M  V30 388 C 38.6566 -1.74716 3.00153 0
M  V30 389 C 37.6106 -1.31032 4.07449 0
M  V30 390 C 36.9366 -2.56887 4.68949 0
M  V30 391 C 38.2366 -0.444183 5.20408 0
M  V30 392 H 39.9306 0.0235131 2.99391 0
M  V30 393 H 37.4766 0.0127488 1.43994 0
M  V30 394 H 39.4296 -2.3625 3.48947 0
M  V30 395 H 38.1536 -2.37035 2.24682 0
M  V30 396 H 36.8126 -0.718066 3.59499 0
M  V30 397 H 36.4606 -3.17512 3.90122 0
M  V30 398 H 36.1606 -2.2836 5.41411 0
M  V30 399 H 37.6846 -3.19229 5.20505 0
M  V30 400 H 39.0986 -0.9651 5.65118 0
M  V30 401 H 37.4956 -0.252846 5.99567 0
M  V30 402 H 38.5656 0.531609 4.81977 0
M  V30 403 N 39.9087 -1.5758 0.0250728 0
M  V30 404 C 40.8387 -2.13007 -0.956575 0
M  V30 405 C 41.8197 -1.0452 -1.342 0
M  V30 406 O 43.0047 -1.32332 -1.42133 0
M  V30 407 C 40.1347 -2.65386 -2.24026 0
M  V30 408 C 39.0887 -3.78623 -1.99571 0
M  V30 409 C 38.4147 -4.17414 -3.3417 0
M  V30 410 C 39.7147 -5.04867 -1.33814 0
M  V30 411 H 41.4087 -2.9528 -0.494991 0
M  V30 412 H 38.9547 -1.42042 -0.236651 0
M  V30 413 H 40.9077 -3.02794 -2.93076 0
M  V30 414 H 39.6317 -1.80268 -2.72343 0
M  V30 415 H 38.2907 -3.41646 -1.32941 0
M  V30 416 H 37.9387 -3.29284 -3.80238 0
M  V30 417 H 37.6387 -4.93719 -3.18615 0
M  V30 418 H 39.1627 -4.57402 -4.04495 0
M  V30 419 H 40.5767 -5.39888 -1.92857 0
M  V30 420 H 38.9737 -5.86144 -1.28669 0
M  V30 421 H 40.0437 -4.83904 -0.310561 0
M  V30 422 N 41.3868 0.248026 -1.55636 0
M  V30 423 C 42.8028 0.596483 -1.48035 0
M  V30 424 C 43.0028 1.88386 -0.715039 0
M  V30 425 O 42.0588 2.51319 -0.243944 0
M  V30 426 C 43.3718 0.700258 -2.92433 0
M  V30 427 C 44.9198 0.792659 -3.02797 0
M  V30 428 C 45.3948 0.928005 -4.485 0
M  V30 429 N 46.8858 0.992903 -4.52433 0
M  V30 430 C 47.6208 1.11687 -5.62418 0
M  V30 431 N 47.1168 1.20645 -6.82214 0
M  V30 432 N 48.9098 1.14994 -5.50212 0
M  V30 433 H 41.0608 -0.597109 -2.03834 0
M  V30 434 H 43.3238 -0.205925 -0.925364 0
M  V30 435 H 43.0298 -0.175658 -3.51261 0
M  V30 436 H 42.9038 1.57255 -3.42857 0
M  V30 437 H 45.2908 1.65903 -2.4405 0
M  V30 438 H 45.3718 -0.104762 -2.55585 0
M  V30 439 H 45.0158 0.0661971 -5.07857 0
M  V30 440 H 44.9458 1.84045 -4.93391 0
M  V30 441 H 47.4368 0.935064 -3.66149 0
M  V30 442 H 47.7498 1.30008 -7.61786 0
M  V30 443 H 46.0948 1.17605 -6.84977 0
M  V30 444 H 49.2858 1.07643 -4.55555 0
M  V30 445 H 49.4588 1.24311 -6.35965 0
M  V30 446 N 42.8649 1.48995 0.513639 0
M  V30 447 C 43.7949 1.67636 1.62544 0
M  V30 448 C 44.7759 0.525087 1.61793 0
M  V30 449 O 45.9609 0.759502 1.78732 0
M  V30 450 C 43.0909 1.73114 3.01079 0
M  V30 451 C 42.0449 2.87905 3.16693 0
M  V30 452 C 41.3709 2.78486 4.56453 0
M  V30 453 C 42.6709 4.29005 2.97913 0
M  V30 454 H 44.3649 2.60716 1.47198 0
M  V30 455 H 41.9109 1.25465 0.706714 0
M  V30 456 H 43.8639 1.84742 3.78746 0
M  V30 457 H 42.5879 0.766241 3.17484 0
M  V30 458 H 41.2469 2.75859 2.41448 0
M  V30 459 H 40.8949 1.7993 4.69717 0
M  V30 460 H 40.5949 3.55523 4.67843 0
M  V30 461 H 42.1189 2.92104 5.36197 0
M  V30 462 H 43.5329 4.41798 3.65359 0
M  V30 463 H 41.9299 5.07166 3.20785 0
M  V30 464 H 42.9999 4.44329 1.94165 0
M  V30 465 N 44.343 -0.763751 1.37857 0
M  V30 466 C 45.273 -1.89103 1.36975 0
M  V30 467 C 46.254 -1.68439 0.237152 0
M  V30 468 O 47.439 -1.8918 0.438713 0
M  V30 469 C 44.569 -3.26496 1.18395 0
M  V30 470 C 43.523 -3.61741 2.28751 0
M  V30 471 C 42.849 -4.97762 1.95286 0
M  V30 472 C 44.149 -3.67665 3.70972 0
M  V30 473 H 45.843 -1.90099 2.31307 0
M  V30 474 H 43.389 -0.91319 1.11341 0
M  V30 475 H 45.342 -4.05003 1.16406 0
M  V30 476 H 44.066 -3.25955 0.205215 0
M  V30 477 H 42.725 -2.85547 2.29909 0
M  V30 478 H 42.373 -4.93769 0.959221 0
M  V30 479 H 42.073 -5.22313 2.69189 0
M  V30 480 H 43.597 -5.7866 1.94898 0
M  V30 481 H 45.011 -4.36307 3.719 0
M  V30 482 H 43.408 -4.03718 4.43995 0
M  V30 483 H 44.478 -2.68134 4.0402 0
M  V30 484 N 45.8211 -1.22559 -0.990812 0
M  V30 485 C 46.7681 -0.997519 -2.0813 0
M  V30 486 C 47.7381 0.0814702 -1.659 0
M  V30 487 O 48.9231 -0.0685424 -1.90677 0
M  V30 488 C 46.0631 -0.583615 -3.40129 0
M  V30 489 C 45.1761 -1.7336 -3.9569 0
M  V30 490 C 44.3111 -1.26748 -5.15857 0
M  V30 491 C 43.3501 -2.38888 -5.63559 0
M  V30 492 N 42.4871 -1.93308 -6.74964 0
M  V30 493 H 47.3271 -1.93099 -2.26973 0
M  V30 494 H 44.8641 -0.962114 -1.11273 0
M  V30 495 H 46.8221 -0.324801 -4.15934 0
M  V30 496 H 45.4521 0.312845 -3.2128 0
M  V30 497 H 44.5041 -2.10669 -3.16738 0
M  V30 498 H 45.8161 -2.57704 -4.27071 0
M  V30 499 H 44.9701 -0.966173 -5.98957 0
M  V30 500 H 43.7091 -0.394272 -4.86104 0
M  V30 501 H 42.7141 -2.69805 -4.79046 0
M  V30 502 H 43.9391 -3.26728 -5.95336 0
M  V30 503 H 41.8851 -1.08352 -6.4699 0
M  V30 504 H 41.8021 -2.71217 -7.05675 0
M  V30 505 H 43.0701 -1.66252 -7.61564 0
M  V30 506 N 47.2992 1.18797 -1.03562 0
M  V30 507 C 48.2622 2.20464 -0.626769 0
M  V30 508 C 49.2622 1.57721 0.313173 0
M  V30 509 O 50.4522 1.73917 0.0992615 0
M  V30 510 C 47.5842 3.40802 0.0818498 0
M  V30 511 H 48.7772 2.58149 -1.5264 0
M  V30 512 H 46.3302 1.32593 -0.827578 0
M  V30 513 H 47.0652 3.08642 0.995518 0
M  V30 514 H 46.8502 3.8758 -0.593652 0
M  V30 515 H 48.3402 4.16092 0.354584 0
M  V30 516 N 48.7773 0.814389 1.34928 0
M  V30 517 C 50.1883 0.458364 1.80986 0
M  V30 518 C 50.5393 -1.02042 1.67577 0
M  V30 519 O 49.6643 -1.79352 1.21086 0
M  V30 520 C 50.2593 0.825212 3.28597 0
M  V30 521 C 48.8183 0.521677 3.72767 0
M  V30 522 C 47.9653 1.04668 2.56788 0
M  V30 523 H 50.9163 1.00533 1.22795 0
M  V30 524 H 50.9373 0.12571 3.80292 0
M  V30 525 H 50.4493 1.90154 3.38324 0
M  V30 526 H 48.5503 -0.545589 3.68584 0
M  V30 527 H 48.6633 1.05977 4.67232 0
M  V30 528 H 47.0273 0.468622 2.50352 0
M  V30 529 H 47.8103 2.12927 2.6929 0
M  V30 530 N 50.2554 -1.46986 0.568584 0
M  V30 531 C 51.2184 -2.28624 -0.162366 0
M  V30 532 C 52.2184 -1.37596 -0.832103 0
M  V30 533 O 53.4084 -1.60115 -0.68622 0
M  V30 534 C 50.5404 -3.17596 -1.23878 0
M  V30 535 H 51.7334 -2.94722 0.554899 0
M  V30 536 H 49.2864 -1.52863 0.325976 0
M  V30 537 H 50.0214 -2.56214 -1.98808 0
M  V30 538 H 49.8064 -3.846 -0.763219 0
M  V30 539 H 51.2964 -3.79078 -1.75185 0
M  V30 540 N 51.7335 -0.305618 -1.54608 0
M  V30 541 C 52.6635 0.561482 -2.26649 0
M  V30 542 C 53.6445 1.13415 -1.26772 0
M  V30 543 O 54.8295 1.16262 -1.55553 0
M  V30 544 C 51.9595 1.73122 -3.01075 0
M  V30 545 C 50.9135 1.2887 -4.08138 0
M  V30 546 C 50.2395 2.54396 -4.70305 0
M  V30 547 C 51.5395 0.416578 -5.20636 0
M  V30 548 H 53.2335 -0.0393902 -2.99374 0
M  V30 549 H 50.7795 -0.020385 -1.43986 0
M  V30 550 H 52.7325 2.34396 -3.50195 0
M  V30 551 H 51.4565 2.3584 -2.25936 0
M  V30 552 H 50.1155 0.698991 -3.59875 0
M  V30 553 H 49.7635 3.15439 -3.918 0
M  V30 554 H 49.4635 2.25486 -5.42614 0
M  V30 555 H 50.9875 3.16464 -5.2219 0
M  V30 556 H 52.4015 0.935116 -5.65622 0
M  V30 557 H 50.7985 0.221046 -5.99693 0
M  V30 558 H 51.8685 -0.557162 -4.81688 0
M  V30 559 N 53.2116 1.57565 -0.0334293 0
M  V30 560 C 54.6226 1.79746 0.504798 0
M  V30 561 C 54.9736 0.944091 1.71992 0
M  V30 562 O 54.0986 0.155694 2.15839 0
M  V30 563 C 54.6936 3.25997 0.922567 0
M  V30 564 C 53.2526 3.49159 1.40588 0
M  V30 565 C 52.3996 2.74785 0.372633 0
M  V30 566 H 55.3506 1.56565 -0.259436 0
M  V30 567 H 55.3716 3.35945 1.78666 0
M  V30 568 H 54.8836 3.88081 0.0379825 0
M  V30 569 H 52.9846 2.92332 2.31025 0
M  V30 570 H 53.0976 4.57873 1.41028 0
M  V30 571 H 51.4616 2.40391 0.841672 0
M  V30 572 H 52.2446 3.39587 -0.503559 0
M  V30 573 N 54.6897 -0.239769 1.55765 0
M  V30 574 C 55.6197 -1.30052 1.9393 0
M  V30 575 C 56.6007 -1.49839 0.805132 0
M  V30 576 O 57.7857 -1.62328 1.06599 0
M  V30 577 C 54.9157 -2.65391 2.2402 0
M  V30 578 C 53.8697 -2.60289 3.39755 0
M  V30 579 C 53.1957 -3.99489 3.55405 0
M  V30 580 C 54.4957 -2.16654 4.75246 0
M  V30 581 H 56.1897 -0.983573 2.82783 0
M  V30 582 H 53.7357 -0.471701 1.36055 0
M  V30 583 H 55.6887 -3.3974 2.49308 0
M  V30 584 H 54.4127 -2.98736 1.32 0
M  V30 585 H 53.0717 -1.88398 3.14487 0
M  V30 586 H 52.7197 -4.30112 2.60793 0
M  V30 587 H 52.4197 -3.96962 4.33238 0
M  V30 588 H 53.9437 -4.75528 3.83022 0
M  V30 589 H 55.3577 -2.80737 4.99859 0
M  V30 590 H 53.7547 -2.25223 5.56232 0
M  V30 591 H 54.8247 -1.11835 4.71827 0
M  V30 592 N 56.1678 -1.49265 -0.50573 0
M  V30 593 C 57.0978 -1.68495 -1.61653 0
M  V30 594 C 58.0788 -0.53366 -1.61512 0
M  V30 595 O 59.2638 -0.76897 -1.78327 0
M  V30 596 C 56.3938 -1.74709 -3.00157 0
M  V30 597 C 55.3478 -2.89581 -3.15162 0
M  V30 598 C 54.6738 -2.80903 -4.5497 0
M  V30 599 C 55.9738 -4.30578 -2.95634 0
M  V30 600 H 57.6678 -2.61493 -1.45814 0
M  V30 601 H 55.2138 -1.25838 -0.70005 0
M  V30 602 H 57.1668 -1.86748 -3.77761 0
M  V30 603 H 55.8908 -0.783067 -3.17074 0
M  V30 604 H 54.5498 -2.77136 -2.39982 0
M  V30 605 H 54.1978 -1.82419 -4.68756 0
M  V30 606 H 53.8978 -3.57999 -4.65951 0
M  V30 607 H 55.4218 -2.94944 -5.34641 0
M  V30 608 H 56.8358 -4.4373 -3.63011 0
M  V30 609 H 55.2328 -5.0886 -3.18091 0
M  V30 610 H 56.3028 -4.45352 -1.91806 0
M  V30 611 N 57.6459 0.756429 -1.3826 0
M  V30 612 C 58.8859 1.52833 -1.35725 0
M  V30 613 C 59.2499 1.91926 0.0534106 0
M  V30 614 O 60.4509 2.68028 0.203613 0
M  V30 615 C 58.7219 2.74919 -2.28373 0
M  V30 616 S 60.2809 3.64817 -2.43832 0
M  V30 617 H 57.0989 0.523043 -0.481608 0
M  V30 618 H 59.7009 0.888212 -1.74158 0
M  V30 619 H 58.4049 2.44304 -3.29763 0
M  V30 620 H 57.9359 3.43878 -1.91079 0
M  V30 621 H 59.9509 4.676 -1.66027 0
M  V30 622 N 59.124 1.23083 0.984299 0
M  V30 623 C 60.54 0.992637 1.24975 0
M  V30 624 C 60.74 -0.308618 1.99123 0
M  V30 625 O 59.796 -1.02905 2.30579 0
M  V30 626 C 61.109 2.19698 2.05312 0
M  V30 627 C 62.657 2.24147 2.18465 0
M  V30 628 C 63.132 3.44157 3.02192 0
M  V30 629 N 64.623 3.44372 3.09777 0
M  V30 630 C 65.358 4.33886 3.74874 0
M  V30 631 N 64.854 5.3363 4.41827 0
M  V30 632 N 66.647 4.21639 3.71721 0
M  V30 633 H 58.798 2.06731 0.487453 0
M  V30 634 H 61.061 0.906339 0.277944 0
M  V30 635 H 60.767 3.1411 1.58201 0
M  V30 636 H 60.641 2.20465 3.06064 0
M  V30 637 H 63.028 1.30277 2.64786 0
M  V30 638 H 63.109 2.27415 1.17115 0
M  V30 639 H 62.753 4.38332 2.56568 0
M  V30 640 H 62.683 3.3813 4.03702 0
M  V30 641 H 65.174 2.72201 2.62135 0
M  V30 642 H 65.487 5.98196 4.89266 0
M  V30 643 H 63.832 5.37534 4.40548 0
M  V30 644 H 67.023 3.42962 3.18582 0
M  V30 645 H 67.196 4.91604 4.22173 0
M  V30 646 N 60.6021 -1.18246 1.0419 0
M  V30 647 C 61.8501 -1.87886 0.744543 0
M  V30 648 C 62.1711 -1.8082 -0.730006 0
M  V30 649 O 61.4411 -1.22736 -1.52685 0
M  V30 650 H 60.0211 -0.695556 0.272417 0
M  V30 651 H 62.6831 -1.43494 1.31892 0
M  V30 652 H 61.7791 -2.9389 1.05049 0
M  V30 653 N 62.0802 -0.821533 -1.34494 0
M  V30 654 C 63.0102 -0.257138 -2.3208 0
M  V30 655 C 63.9912 0.625645 -1.58176 0
M  V30 656 O 65.1762 0.552811 -1.86166 0
M  V30 657 C 62.3062 0.582958 -3.42372 0
M  V30 658 C 61.2602 -0.202571 -4.2752 0
M  V30 659 C 60.5862 0.760179 -5.29269 0
M  V30 660 C 61.8862 -1.40998 -5.02908 0
M  V30 661 H 63.5802 -1.07247 -2.79532 0
M  V30 662 H 61.1262 -0.517163 -1.34393 0
M  V30 663 H 63.0792 0.987972 -4.09655 0
M  V30 664 H 61.8032 1.43133 -2.93565 0
M  V30 665 H 60.4622 -0.588936 -3.61838 0
M  V30 666 H 60.1102 1.60447 -4.76724 0
M  V30 667 H 59.8102 0.238809 -5.87115 0
M  V30 668 H 61.3342 1.16308 -5.9942 0
M  V30 669 H 62.7482 -1.07905 -5.63054 0
M  V30 670 H 61.1452 -1.86689 -5.70322 0
M  V30 671 H 62.2152 -2.1889 -4.32684 0
M  V30 672 N 63.5583 1.46682 -0.576371 0
M  V30 673 C 64.5213 2.28707 0.150239 0
M  V30 674 C 65.5213 1.38035 0.824794 0
M  V30 675 O 66.7113 1.60476 0.677719 0
M  V30 676 C 63.8433 3.18248 1.22192 0
M  V30 677 H 65.0363 2.94423 -0.570521 0
M  V30 678 H 62.5893 1.52688 -0.334078 0
M  V30 679 H 63.3243 2.57265 1.97447 0
M  V30 680 H 63.1093 3.85 0.742812 0
M  V30 681 H 64.5993 3.80001 1.73172 0
M  V30 682 N 65.0364 0.313813 1.54444 0
M  V30 683 C 66.2824 -0.292108 2.00685 0
M  V30 684 C 66.6154 -1.52548 1.20177 0
M  V30 685 O 65.8904 -1.92452 0.281531 0
M  V30 686 C 66.1734 -0.635968 3.5444 0
M  V30 687 C 66.0264 0.607437 4.4568 0
M  V30 688 C 67.3454 -1.45747 4.15266 0
M  V30 689 H 64.4644 -0.104697 0.729526 0
M  V30 690 H 67.1064 0.428457 1.85106 0
M  V30 691 H 65.2564 -1.24986 3.67846 0
M  V30 692 H 66.9284 1.24581 4.44159 0
M  V30 693 H 65.1714 1.23822 4.15753 0
M  V30 694 H 65.8424 0.322515 5.51057 0
M  V30 695 H 68.3184 -0.938645 4.05375 0
M  V30 696 H 67.1944 -1.66683 5.2298 0
M  V30 697 H 67.4554 -2.45063 3.67963 0
M  V30 698 N 66.5145 -1.57545 0.0417849 0
M  V30 699 C 67.4245 -2.14451 -0.951213 0
M  V30 700 C 68.4405 -1.09992 -1.34825 0
M  V30 701 O 69.6165 -1.42114 -1.42708 0
M  V30 702 C 66.6815 -2.67063 -2.21084 0
M  V30 703 C 65.7425 -3.86284 -1.87304 0
M  V30 704 C 64.9755 -4.36378 -3.07261 0
M  V30 705 O 65.1985 -3.85587 -4.20332 0
M  V30 706 O 64.1325 -5.28077 -2.88822 0
M  V30 707 H 67.9585 -2.99601 -0.497287 0
M  V30 708 H 65.5435 -1.48317 -0.179567 0
M  V30 709 H 67.4255 -3.00914 -2.95006 0
M  V30 710 H 66.1005 -1.84989 -2.65633 0
M  V30 711 H 65.0075 -3.57338 -1.10727 0
M  V30 712 H 66.3405 -4.6956 -1.47562 0
M  V30 713 N 67.9926 0.231505 -1.5589 0
M  V30 714 C 68.9556 1.27028 -1.90779 0
M  V30 715 C 69.9556 1.40308 -0.785507 0
M  V30 716 O 71.1456 1.38744 -1.05336 0
M  V30 717 C 68.2776 2.64566 -2.14983 0
M  V30 718 H 69.4706 0.973017 -2.83677 0
M  V30 719 H 67.0236 0.471486 -1.49019 0
M  V30 720 H 67.7586 2.99406 -1.24604 0
M  V30 721 H 67.5436 2.56305 -2.96732 0
M  V30 722 H 69.0336 3.39543 -2.43105 0
M  V30 723 N 69.4707 1.49531 0.497807 0
M  V30 724 C 70.4177 1.66436 1.59899 0
M  V30 725 C 71.3877 0.505793 1.58212 0
M  V30 726 O 72.5727 0.733202 1.7615 0
M  V30 727 C 69.7127 1.7399 2.98029 0
M  V30 728 C 68.8257 3.01172 3.09708 0
M  V30 729 C 67.9607 2.99686 4.38591 0
M  V30 730 C 66.9997 4.21434 4.43914 0
M  V30 731 N 66.1367 4.1784 5.64229 0
M  V30 732 H 70.9767 2.60459 1.44793 0
M  V30 733 H 68.5137 1.29137 0.704423 0
M  V30 734 H 70.4717 1.76352 3.78095 0
M  V30 735 H 69.1017 0.834301 3.11832 0
M  V30 736 H 68.1537 3.08408 2.22685 0
M  V30 737 H 69.4657 3.91165 3.09502 0
M  V30 738 H 68.6197 3.00628 5.2698 0
M  V30 739 H 67.3587 2.07477 4.41367 0
M  V30 740 H 66.3637 4.20733 3.53926 0
M  V30 741 H 67.5887 5.14839 4.42851 0
M  V30 742 H 65.5347 3.28469 5.67841 0
M  V30 743 H 65.4517 5.01571 5.65652 0
M  V30 744 H 66.7197 4.22889 6.54817 0
M  V30 745 N 70.9488 -0.749086 1.3866 0
M  V30 746 C 71.8958 -1.86291 1.36251 0
M  V30 747 C 72.8658 -1.64578 0.224347 0
M  V30 748 O 74.0508 -1.86181 0.417279 0
M  V30 749 C 71.1908 -3.23644 1.19786 0
M  V30 750 C 70.3038 -3.57158 2.43027 0
M  V30 751 C 69.4388 -4.83838 2.19258 0
M  V30 752 C 68.4778 -5.10152 3.38247 0
M  V30 753 N 67.6148 -6.28029 3.13884 0
M  V30 754 H 72.4548 -1.87685 2.3147 0
M  V30 755 H 69.9918 -0.917287 1.14997 0
M  V30 756 H 71.9498 -4.0291 1.08254 0
M  V30 757 H 70.5798 -3.21566 0.282031 0
M  V30 758 H 69.6318 -2.72701 2.65214 0
M  V30 759 H 70.9438 -3.7253 3.31697 0
M  V30 760 H 70.0978 -5.71057 2.04888 0
M  V30 761 H 68.8368 -4.70614 1.2796 0
M  V30 762 H 67.8418 -4.21401 3.53131 0
M  V30 763 H 69.0668 -5.25271 4.30427 0
M  V30 764 H 67.0128 -6.1612 2.25238 0
M  V30 765 H 66.9298 -6.43922 3.96106 0
M  V30 766 H 68.1978 -7.18124 3.03179 0
M  V30 767 N 72.4269 -1.23603 -0.977757 0
M  V30 768 C 73.6549 -1.09646 -1.75458 0
M  V30 769 C 74.0699 0.351859 -1.85492 0
M  V30 770 O 73.4269 1.24327 -1.336 0
M  V30 771 C 73.4779 -1.71895 -3.18016 0
M  V30 772 O 73.1989 -3.11063 -3.08498 0
M  V30 773 C 74.6999 -1.63415 -4.12081 0
M  V30 774 H 71.9199 -0.38359 -0.550545 0
M  V30 775 H 74.4639 -1.63507 -1.22824 0
M  V30 776 H 72.6189 -1.22061 -3.67668 0
M  V30 777 H 73.0329 -3.41305 -3.9826 0
M  V30 778 H 74.5069 -2.11669 -5.09804 0
M  V30 779 H 74.9839 -0.593462 -4.35172 0
M  V30 780 H 75.5899 -2.12628 -3.68334 0
M  V30 781 N 73.905 1.17692 -1.04816 0
M  V30 782 C 75.135 1.91508 -0.775128 0
M  V30 783 C 75.543 1.76844 0.67253 0
M  V30 784 O 74.886 1.10057 1.47082 0
M  V30 785 C 74.948 3.43167 -1.0713 0
M  V30 786 C 74.612 3.81612 -2.51438 0
M  V30 787 C 75.609 3.84772 -3.49638 0
M  V30 788 C 73.294 4.12687 -2.86348 0
M  V30 789 C 75.288 4.18469 -4.80794 0
M  V30 790 C 72.975 4.46053 -4.17708 0
M  V30 791 C 73.973 4.48921 -5.14741 0
M  V30 792 O 73.661 4.81504 -6.43746 0
M  V30 793 H 73.393 0.614575 -0.281555 0
M  V30 794 H 75.947 1.50206 -1.40098 0
M  V30 795 H 74.177 3.84745 -0.388342 0
M  V30 796 H 75.866 3.98239 -0.784883 0
M  V30 797 H 76.632 3.60893 -3.24008 0
M  V30 798 H 72.511 4.09627 -2.11486 0
M  V30 799 H 76.055 4.20623 -5.56527 0
M  V30 800 H 71.952 4.69393 -4.43103 0
M  V30 801 H 72.72 4.99377 -6.4851 0
M  V30 802 N 75.3831 0.828654 1.34056 0
M  V30 803 C 76.6291 0.42008 1.98402 0
M  V30 804 C 76.9621 -1.01564 1.65525 0
M  V30 805 O 76.2371 -1.70834 0.929831 0
M  V30 806 C 76.5201 0.62927 3.54559 0
M  V30 807 C 76.3731 2.11152 3.97159 0
M  V30 808 C 77.6921 0.0688756 4.40046 0
M  V30 809 H 74.8111 0.154104 0.720709 0
M  V30 810 H 77.4531 1.04228 1.5886 0
M  V30 811 H 75.6031 0.0996418 3.88372 0
M  V30 812 H 77.2751 2.70522 3.73651 0
M  V30 813 H 75.5181 2.59985 3.47261 0
M  V30 814 H 76.1891 2.20868 5.05887 0
M  V30 815 H 78.6651 0.521458 4.1282 0
M  V30 816 H 77.5411 0.245006 5.48353 0
M  V30 817 H 77.8021 -1.0266 4.30015 0
M  V30 818 N 76.8612 -1.46375 0.584142 0
M  V30 819 C 78.2772 -1.57694 0.245929 0
M  V30 820 C 78.4772 -1.57903 -1.25175 0
M  V30 821 O 77.5332 -1.49676 -2.03355 0
M  V30 822 C 78.8462 -2.87028 0.896402 0
M  V30 823 C 80.3942 -3.00662 0.870127 0
M  V30 824 C 80.8692 -4.32734 1.50017 0
M  V30 825 N 82.3602 -4.39436 1.46458 0
M  V30 826 C 83.0952 -5.40248 1.92144 0
M  V30 827 N 82.5912 -6.47726 2.4581 0
M  V30 828 N 84.3842 -5.31459 1.83052 0
M  V30 829 H 76.5352 -1.44483 1.55687 0
M  V30 830 H 78.7982 -0.689291 0.650831 0
M  V30 831 H 78.5042 -2.9269 1.95002 0
M  V30 832 H 78.3782 -3.75014 0.405486 0
M  V30 833 H 80.7652 -2.94581 -0.174871 0
M  V30 834 H 80.8462 -2.14148 1.39908 0
M  V30 835 H 80.4902 -4.39573 2.54437 0
M  V30 836 H 80.4202 -5.18025 0.946432 0
M  V30 837 H 82.9112 -3.62367 1.07231 0
M  V30 838 H 83.2242 -7.20863 2.78525 0
M  V30 839 H 81.5692 -6.48542 2.49836 0
M  V30 840 H 84.7602 -4.46396 1.40883 0
M  V30 841 H 84.9332 -6.09881 2.18973 0
M  V30 842 N 78.3393 -0.321999 -1.54275 0
M  V30 843 C 79.6163 0.335232 -1.92706 0
M  V30 844 C 79.9963 1.70006 -1.25145 0
M  V30 845 O 79.3443 2.25067 -0.394596 0
M  V30 846 C 79.5543 0.429008 -3.46353 0
M  V30 847 C 80.9023 0.690029 -4.18956 0
M  V30 848 O 81.9263 0.511992 -3.52501 0
M  V30 849 O 80.7853 1.03338 -5.36641 0
M  V30 850 H 77.8793 0.191143 -0.804608 0
M  V30 851 H 80.4253 -0.3716 -1.65581 0
M  V30 852 H 79.1973 -0.529611 -3.87699 0
M  V30 853 H 78.8203 1.18348 -3.79578 0
M  V30 854 N 79.8174 1.5752 -0.0501392 0
M  V30 855 C 80.7644 2.1147 0.924603 0
M  V30 856 C 81.7344 1.02182 1.30951 0
M  V30 857 O 82.9194 1.29723 1.39916 0
M  V30 858 C 80.0594 2.66337 2.19451 0
M  V30 859 C 79.1724 3.89708 1.86418 0
M  V30 860 C 78.3074 4.32893 3.07859 0
M  V30 861 C 77.3464 5.48967 2.70742 0
M  V30 862 N 76.4834 5.87211 3.84874 0
M  V30 863 H 81.3234 2.94465 0.457639 0
M  V30 864 H 78.8604 1.45531 0.214266 0
M  V30 865 H 80.8184 2.96247 2.93758 0
M  V30 866 H 79.4484 1.86141 2.63726 0
M  V30 867 H 78.5004 3.66396 1.02264 0
M  V30 868 H 79.8124 4.74074 1.55096 0
M  V30 869 H 78.9664 4.6435 3.90466 0
M  V30 870 H 77.7054 3.47336 3.42358 0
M  V30 871 H 76.7104 5.17183 1.86551 0
M  V30 872 H 77.9354 6.3624 2.37436 0
M  V30 873 H 75.8814 5.04607 4.19175 0
M  V30 874 H 75.7984 6.66266 3.57247 0
M  V30 875 H 77.0664 6.23282 4.68123 0
M  V30 876 N 81.2955 -0.223234 1.56011 0
M  V30 877 C 82.7065 -0.790368 1.69145 0
M  V30 878 C 83.0575 -1.85055 0.651845 0
M  V30 879 O 82.1825 -2.15498 -0.197359 0
M  V30 880 C 82.7775 -1.4404 3.06656 0
M  V30 881 C 81.3365 -1.95494 3.2165 0
M  V30 882 C 80.4835 -0.814506 2.65068 0
M  V30 883 H 83.4345 0.00139011 1.587 0
M  V30 884 H 83.4555 -2.30916 3.0242 0
M  V30 885 H 82.9675 -0.668543 3.82298 0
M  V30 886 H 81.0685 -2.75487 2.50874 0
M  V30 887 H 81.1815 -2.13607 4.28846 0
M  V30 888 H 79.5455 -1.22137 2.23505 0
M  V30 889 H 80.3285 -0.0553515 3.43255 0
M  V30 890 N 82.7736 -1.49793 -0.48987 0
M  V30 891 C 83.7236 -1.63673 -1.5873 0
M  V30 892 C 84.7076 -0.491956 -1.53195 0
M  V30 893 O 85.8996 -0.745461 -1.60536 0
M  V30 894 C 83.0286 -1.71689 -2.97284 0
M  V30 895 C 82.1146 -2.91781 -3.07774 0
M  V30 896 N 82.5056 -4.15714 -2.88124 0
M  V30 897 C 80.8036 -2.89949 -3.38889 0
M  V30 898 C 81.5046 -4.965 -3.03088 0
M  V30 899 N 80.4806 -4.30083 -3.3246 0
M  V30 900 H 84.2826 -2.57204 -1.42208 0
M  V30 901 H 81.7966 -1.46719 -0.69623 0
M  V30 902 H 83.7936 -1.79732 -3.76168 0
M  V30 903 H 82.4536 -0.793024 -3.14867 0
M  V30 904 H 83.4646 -4.45515 -2.64077 0
M  V30 905 H 80.1416 -2.06987 -3.62578 0
M  V30 906 H 81.5316 -6.04991 -2.92294 0
M  V30 907 N 84.2517 0.741722 -1.39055 0
M  V30 908 C 85.4977 1.50336 -1.36113 0
M  V30 909 C 85.8307 1.94148 0.0450796 0
M  V30 910 O 85.1057 1.66301 1.00868 0
M  V30 911 C 85.3887 2.74773 -2.32749 0
M  V30 912 C 85.2417 2.37023 -3.82283 0
M  V30 913 C 86.5607 3.76846 -2.27322 0
M  V30 914 H 83.6797 0.545351 -0.495743 0
M  V30 915 H 86.3217 0.848624 -1.69995 0
M  V30 916 H 84.4717 3.30639 -2.03986 0
M  V30 917 H 86.1437 1.8684 -4.21768 0
M  V30 918 H 84.3867 1.69334 -3.99385 0
M  V30 919 H 85.0577 3.26104 -4.45376 0
M  V30 920 H 87.5337 3.30548 -2.5274 0
M  V30 921 H 86.4097 4.6159 -2.97028 0
M  V30 922 H 86.6707 4.23286 -1.27599 0
M  V30 923 N 85.7298 1.2412 0.971189 0
M  V30 924 C 86.6778 1.02812 2.08644 0
M  V30 925 C 87.6718 -0.0358403 1.69362 0
M  V30 926 O 88.8778 0.118429 1.7961 0
M  V30 927 H 85.2528 0.315428 0.682649 0
M  V30 928 H 87.2238 1.97397 2.23779 0
M  V30 929 C 85.9728 0.645874 3.41649 0
M  V30 930 H 85.2958 1.45632 3.72332 0
M  V30 931 H 86.7358 0.536366 4.20594 0
M  V30 932 C 85.1948 -0.646713 3.30635 0
M  V30 933 O 85.7248 -1.69338 3.64263 0
M  V30 934 N 83.9308 -0.626115 2.83775 0
M  V30 935 H 83.4778 0.225988 2.56607 0
M  V30 936 H 83.4358 -1.49117 2.76788 0
M  V30 937 N 87.2079 -1.17134 1.05439 0
M  V30 938 C 88.4539 -1.87733 0.767077 0
M  V30 939 C 88.7869 -1.8098 -0.704253 0
M  V30 940 O 88.0619 -1.21951 -1.5152 0
M  V30 941 C 88.3449 -3.37659 1.25133 0
M  V30 942 C 88.1979 -3.53149 2.78578 0
M  V30 943 C 89.5169 -4.31768 0.852324 0
M  V30 944 H 86.6359 -0.681687 0.280129 0
M  V30 945 H 89.2779 -1.37732 1.30881 0
M  V30 946 H 87.4279 -3.80373 0.790469 0
M  V30 947 H 89.0999 -3.19434 3.32806 0
M  V30 948 H 87.3429 -2.95345 3.17732 0
M  V30 949 H 88.0139 -4.58403 3.07523 0
M  V30 950 H 90.4899 -3.96909 1.24911 0
M  V30 951 H 89.3659 -5.35199 1.21873 0
M  V30 952 H 89.6269 -4.41429 -0.243485 0
M  V30 953 N 88.686 -0.835752 -1.33615 0
M  V30 954 C 89.934 -0.429109 -1.97492 0
M  V30 955 C 90.255 1.01433 -1.66543 0
M  V30 956 O 89.525 1.70611 -0.962744 0
M  V30 957 H 88.105 -0.155686 -0.730596 0
M  V30 958 H 90.767 -1.06802 -1.63031 0
M  V30 959 H 89.863 -0.55861 -3.0706 0
M  V30 960 N 90.1641 1.46063 -0.591896 0
M  V30 961 C 91.3921 2.06717 -0.0868936 0
M  V30 962 C 91.8071 1.43916 1.22203 0
M  V30 963 O 91.1641 0.547698 1.74088 0
M  V30 964 C 91.2151 3.6142 0.0758725 0
M  V30 965 O 90.9361 4.21874 -1.18126 0
M  V30 966 C 92.4371 4.39025 0.61416 0
M  V30 967 H 89.6571 0.668162 -0.0616518 0
M  V30 968 H 92.2011 1.8755 -0.815175 0
M  V30 969 H 90.3561 3.79983 0.754413 0
M  V30 970 H 90.7701 5.14861 -1.00092 0
M  V30 971 H 92.2441 5.4783 0.677193 0
M  V30 972 H 92.7211 4.07708 1.63312 0
M  V30 973 H 93.3271 4.2529 -0.0298142 0
M  V30 974 N 91.6422 0.330177 1.54103 0
M  V30 975 C 92.8912 -0.271336 1.99867 0
M  V30 976 C 93.2042 -1.52723 1.22209 0
M  V30 977 O 94.4102 -2.20515 1.58383 0
M  V30 978 C 92.8662 -0.534032 3.55916 0
M  V30 979 C 92.4742 0.705193 4.42415 0
M  V30 980 C 94.2182 -1.09514 4.1013 0
M  V30 981 C 92.1252 0.414035 5.89949 0
M  V30 982 H 91.0552 -0.105166 0.74663 0
M  V30 983 H 93.7062 0.443429 1.78062 0
M  V30 984 H 92.0882 -1.30915 3.73734 0
M  V30 985 H 93.2622 1.4804 4.36372 0
M  V30 986 H 91.5772 1.18698 3.99124 0
M  V30 987 H 94.1742 -1.3277 5.17954 0
M  V30 988 H 94.5172 -2.04656 3.62521 0
M  V30 989 H 95.0502 -0.381038 3.95971 0
M  V30 990 H 91.7892 1.33481 6.41766 0
M  V30 991 H 91.3092 -0.323336 5.98928 0
M  V30 992 H 92.9882 0.0263105 6.46995 0
M  V30 993 N 93.1203 -1.57491 0.0584922 0
M  V30 994 C 94.3683 -1.92597 -0.612436 0
M  V30 995 C 94.6893 -0.938162 -1.70949 0
M  V30 996 O 93.9593 0.0158301 -1.95894 0
M  V30 997 H 92.5393 -0.710964 -0.229214 0
M  V30 998 H 95.2013 -1.94571 0.113218 0
M  V30 999 H 94.2973 -2.94038 -1.04633 0
M  V30 1000 N 94.5984 0.214957 -1.56127 0
M  V30 1001 C 95.5484 1.27006 -1.8935 0
M  V30 1002 C 96.5324 1.41969 -0.757202 0
M  V30 1003 O 97.7244 1.44673 -1.01973 0
M  V30 1004 C 94.8534 2.61911 -2.2194 0
M  V30 1005 C 93.9394 2.50822 -3.41978 0
M  V30 1006 N 94.3304 2.09391 -4.60423 0
M  V30 1007 C 92.6284 2.81765 -3.45723 0
M  V30 1008 C 93.3294 2.09712 -5.42582 0
M  V30 1009 N 92.3054 2.50454 -4.82466 0
M  V30 1010 H 96.1074 0.940734 -2.78437 0
M  V30 1011 H 93.6214 0.423492 -1.56781 0
M  V30 1012 H 95.6184 3.38096 -2.43919 0
M  V30 1013 H 94.2784 2.95684 -1.34169 0
M  V30 1014 H 95.2894 1.80416 -4.85459 0
M  V30 1015 H 91.9664 3.19865 -2.68314 0
M  V30 1016 H 93.3564 1.79748 -6.4741 0
M  V30 1017 N 96.0765 1.50051 0.48192 0
M  V30 1018 C 97.3225 1.60736 1.2366 0
M  V30 1019 C 97.6555 0.301786 1.91841 0
M  V30 1020 O 96.9305 -0.696025 1.8162 0
M  V30 1021 C 97.2135 2.78009 2.28874 0
M  V30 1022 C 97.0665 4.18416 1.65069 0
M  V30 1023 C 98.3855 2.90867 3.30279 0
M  V30 1024 H 95.5045 0.585031 0.448228 0
M  V30 1025 H 98.1465 1.82402 0.531946 0
M  V30 1026 H 96.2965 2.59667 2.88973 0
M  V30 1027 H 97.9685 4.48322 1.0865 0
M  V30 1028 H 96.2115 4.23177 0.954148 0
M  V30 1029 H 96.8825 4.96381 2.41474 0
M  V30 1030 H 99.3585 3.07623 2.80191 0
M  V30 1031 H 98.2345 3.74566 4.01238 0
M  V30 1032 H 98.4955 2.01021 3.93755 0
M  V30 1033 N 97.5546 -0.734337 1.39446 0
M  V30 1034 C 98.8316 -1.48579 1.27215 0
M  V30 1035 C 99.2116 -2.1077 -0.117968 0
M  V30 1036 O 98.5596 -1.98646 -1.12924 0
M  V30 1037 C 98.7696 -2.53667 2.39696 0
M  V30 1038 C 100.118 -3.20031 2.79044 0
M  V30 1039 O 101.142 -2.6398 2.39151 0
M  V30 1040 O 100.001 -4.21455 3.47905 0
M  V30 1041 H 97.0946 -0.659816 0.49857 0
M  V30 1042 H 99.6406 -0.768106 1.51322 0
M  V30 1043 H 98.4126 -2.06096 3.32626 0
M  V30 1044 H 98.0356 -3.32994 2.17258 0
M  V30 1045 N 99.0327 -1.24633 -0.964593 0
M  V30 1046 C 99.9827 -1.00841 -2.04487 0
M  V30 1047 C 100.967 0.0512468 -1.60818 0
M  V30 1048 O 102.159 -0.162865 -1.76249 0
M  V30 1049 C 99.2877 -0.618474 -3.37683 0
M  V30 1050 C 98.3737 -1.71437 -3.87905 0
M  V30 1051 N 98.7647 -2.9477 -4.11029 0
M  V30 1052 C 97.0627 -1.5926 -4.16596 0
M  V30 1053 C 97.7637 -3.65834 -4.52261 0
M  V30 1054 N 96.7397 -2.9341 -4.57615 0
M  V30 1055 H 100.542 -1.94487 -2.20345 0
M  V30 1056 H 98.0557 -1.14805 -1.14863 0
M  V30 1057 H 100.053 -0.429247 -4.14684 0
M  V30 1058 H 98.7127 0.310766 -3.23209 0
M  V30 1059 H 99.7237 -3.30917 -3.9839 0
M  V30 1060 H 96.4007 -0.731606 -4.1104 0
M  V30 1061 H 97.7907 -4.71646 -4.78539 0
M  V30 1062 N 100.511 1.16574 -1.06058 0
M  V30 1063 C 101.759 1.86677 -0.77434 0
M  V30 1064 C 102.08 1.81959 0.701147 0
M  V30 1065 O 101.35 1.2515 1.50713 0
M  V30 1066 H 99.9298 0.691134 -0.283449 0
M  V30 1067 H 102.592 1.41378 -1.34158 0
M  V30 1068 H 101.688 2.92181 -1.09711 0
M  V30 1069 N 101.989 0.842826 1.3317 0
M  V30 1070 C 102.936 0.276885 2.29133 0
M  V30 1071 C 103.906 -0.609527 1.54512 0
M  V30 1072 O 105.091 -0.546955 1.82792 0
M  V30 1073 C 102.231 -0.538707 3.40869 0
M  V30 1074 C 101.344 0.372169 4.30394 0
M  V30 1075 C 100.479 -0.454908 5.29249 0
M  V30 1076 C 99.5179 0.45411 6.10413 0
M  V30 1077 N 98.6549 -0.335075 7.013 0
M  V30 1078 H 103.495 1.10052 2.76934 0
M  V30 1079 H 101.032 0.554161 1.36262 0
M  V30 1080 H 102.99 -1.02709 4.0436 0
M  V30 1081 H 101.62 -1.32727 2.9425 0
M  V30 1082 H 100.672 0.97888 3.6759 0
M  V30 1083 H 101.984 1.0703 4.87182 0
M  V30 1084 H 101.138 -1.00695 5.98285 0
M  V30 1085 H 99.8769 -1.18646 4.73048 0
M  V30 1086 H 98.8819 1.01813 5.40291 0
M  V30 1087 H 100.107 1.18409 6.68697 0
M  V30 1088 H 98.0529 -1.04994 6.47543 0
M  V30 1089 H 97.9699 0.304262 7.55387 0
M  V30 1090 H 99.2379 -0.869224 7.74638 0
M  V30 1091 N 103.467 -1.45747 0.599634 0
M  V30 1092 C 104.695 -2.06668 0.0978551 0
M  V30 1093 C 105.11 -1.44562 -1.21439 0
M  V30 1094 O 104.467 -0.556923 -1.73795 0
M  V30 1095 C 104.518 -3.61456 -0.0567044 0
M  V30 1096 O 104.239 -4.21242 1.20361 0
M  V30 1097 C 105.74 -4.39345 -0.590869 0
M  V30 1098 H 102.96 -0.667825 0.0651943 0
M  V30 1099 H 105.504 -1.87115 0.82511 0
M  V30 1100 H 103.659 -3.80378 -0.734251 0
M  V30 1101 H 104.073 -5.14323 1.02821 0
M  V30 1102 H 105.547 -5.48182 -0.648131 0
M  V30 1103 H 106.024 -4.08568 -1.61147 0
M  V30 1104 H 106.63 -4.25268 0.0523679 0
M  V30 1105 N 104.945 -0.338344 -1.53925 0
M  V30 1106 C 106.173 0.261298 -2.05243 0
M  V30 1107 C 106.588 1.44625 -1.21363 0
M  V30 1108 O 105.945 1.80811 -0.247736 0
M  V30 1109 C 105.996 0.681412 -3.5502 0
M  V30 1110 O 105.717 -0.456414 -4.35716 0
M  V30 1111 C 107.218 1.34232 -4.22489 0
M  V30 1112 H 104.438 0.0513685 -0.669031 0
M  V30 1113 H 106.982 -0.488822 -1.98572 0
M  V30 1114 H 105.137 1.38148 -3.61931 0
M  V30 1115 H 105.551 -0.122564 -5.24357 0
M  V30 1116 H 107.025 1.58708 -5.28693 0
M  V30 1117 H 107.502 2.29426 -3.74514 0
M  V30 1118 H 108.108 0.684424 -4.19757 0
M  V30 1119 N 106.423 1.57458 -0.0668435 0
M  V30 1120 C 107.353 2.15468 0.899764 0
M  V30 1121 C 108.334 1.08042 1.31381 0
M  V30 1122 O 109.519 1.36054 1.38574 0
M  V30 1123 C 106.649 2.71232 2.16911 0
M  V30 1124 C 105.603 3.83781 1.89463 0
M  V30 1125 C 104.929 4.26127 3.22986 0
M  V30 1126 C 106.229 5.08238 1.20381 0
M  V30 1127 H 107.923 2.96488 0.416529 0
M  V30 1128 H 105.469 1.4262 0.198908 0
M  V30 1129 H 107.422 3.10458 2.84945 0
M  V30 1130 H 106.146 1.87426 2.67468 0
M  V30 1131 H 104.805 3.45051 1.23836 0
M  V30 1132 H 104.453 3.39249 3.71374 0
M  V30 1133 H 104.153 5.01993 3.05413 0
M  V30 1134 H 105.677 4.67966 3.92225 0
M  V30 1135 H 107.091 5.44811 1.78475 0
M  V30 1136 H 105.488 5.89349 1.13083 0
M  V30 1137 H 106.558 4.84558 0.182153 0
M  V30 1138 N 107.901 -0.206675 1.56239 0
M  V30 1139 C 109.129 -0.945345 1.8404 0
M  V30 1140 C 109.544 -1.77336 0.647885 0
M  V30 1141 O 108.901 -1.78425 -0.383511 0
M  V30 1142 C 108.952 -1.8509 3.10522 0
M  V30 1143 O 108.673 -1.05634 4.25174 0
M  V30 1144 C 110.174 -2.70222 3.51418 0
M  V30 1145 H 107.394 -0.276372 0.61144 0
M  V30 1146 H 109.938 -0.217417 2.03341 0
M  V30 1147 H 108.093 -2.53259 2.93153 0
M  V30 1148 H 108.507 -1.67238 4.97124 0
M  V30 1149 H 109.981 -3.29438 4.42916 0
M  V30 1150 H 110.458 -3.43358 2.73864 0
M  V30 1151 H 111.064 -2.07443 3.71278 0
M  V30 1152 N 109.379 -1.50304 -0.473955 0
M  V30 1153 C 110.342 -1.6841 -1.55469 0
M  V30 1154 C 111.342 -0.554905 -1.50922 0
M  V30 1155 O 112.532 -0.821882 -1.53593 0
M  V30 1156 C 109.664 -1.70667 -2.95102 0
M  V30 1157 H 110.857 -2.64828 -1.40733 0
M  V30 1158 H 108.41 -1.39742 -0.700132 0
M  V30 1159 H 109.145 -0.75932 -3.15285 0
M  V30 1160 H 108.93 -2.52698 -2.9981 0
M  V30 1161 H 110.42 -1.8664 -3.73571 0
M  V30 1162 N 110.857 0.726932 -1.39834 0
M  V30 1163 C 111.82 1.82269 -1.38962 0
M  V30 1164 C 112.82 1.58248 -0.285334 0
M  V30 1165 O 114.01 1.65499 -0.54366 0
M  V30 1166 C 111.142 3.20186 -1.17019 0
M  V30 1167 H 112.335 1.84443 -2.36476 0
M  V30 1168 H 109.888 0.931416 -1.25516 0
M  V30 1169 H 110.623 3.23669 -0.202204 0
M  V30 1170 H 110.408 3.3902 -1.96998 0
M  V30 1171 H 111.898 4.00235 -1.1917 0
M  V30 1172 N 112.336 1.25143 0.95797 0
M  V30 1173 C 113.585 1.0909 1.69654 0
M  V30 1174 C 113.898 -0.368548 1.92097 0
M  V30 1175 O 115.104 -0.649455 2.63618 0
M  V30 1176 C 113.56 1.90395 3.05414 0
M  V30 1177 C 113.168 3.4081 2.90779 0
M  V30 1178 C 114.912 1.82901 3.83076 0
M  V30 1179 C 112.819 4.14423 4.21909 0
M  V30 1180 H 111.749 0.404625 0.636235 0
M  V30 1181 H 114.4 1.4931 1.06672 0
M  V30 1182 H 112.782 1.42996 3.69281 0
M  V30 1183 H 113.956 3.95859 2.35865 0
M  V30 1184 H 112.271 3.49361 2.26575 0
M  V30 1185 H 114.868 2.35196 4.80195 0
M  V30 1186 H 115.211 0.796224 4.08615 0
M  V30 1187 H 115.744 2.28033 3.25954 0
M  V30 1188 H 112.483 5.18102 4.01561 0
M  V30 1189 H 112.003 3.64159 4.76601 0
M  V30 1190 H 113.682 4.21956 4.90471 0
M  V30 1191 N 113.814 -1.1601 1.06675 0
M  V30 1192 C 115.042 -1.90527 0.806667 0
M  V30 1193 C 115.457 -1.77643 -0.639396 0
M  V30 1194 O 114.814 -1.12369 -1.43803 0
M  V30 1195 C 114.865 -3.41106 1.19705 0
M  V30 1196 O 114.586 -3.53608 2.58636 0
M  V30 1197 C 116.087 -4.32663 0.965266 0
M  V30 1198 H 113.307 -0.604053 0.292166 0
M  V30 1199 H 115.851 -1.47026 1.4214 0
M  V30 1200 H 114.006 -3.82296 0.626774 0
M  V30 1201 H 114.42 -4.47011 2.74375 0
M  V30 1202 H 115.894 -5.36763 1.288 0
M  V30 1203 H 116.371 -4.39089 -0.0987936 0
M  V30 1204 H 116.977 -3.97206 1.52011 0
M  V30 1205 N 115.292 -0.849877 -1.32721 0
M  V30 1206 C 116.239 -0.289033 -2.28983 0
M  V30 1207 C 117.209 0.601324 -1.54833 0
M  V30 1208 O 118.394 0.537253 -1.8308 0
M  V30 1209 C 115.534 0.520623 -3.4115 0
M  V30 1210 C 114.647 -0.394989 -4.3019 0
M  V30 1211 C 113.782 0.426834 -5.29482 0
M  V30 1212 C 112.821 -0.486476 -6.10164 0
M  V30 1213 N 111.958 0.297879 -7.01468 0
M  V30 1214 H 116.798 -1.11519 -2.76347 0
M  V30 1215 H 114.335 -0.56138 -1.35967 0
M  V30 1216 H 116.293 1.00563 -4.04899 0
M  V30 1217 H 114.923 1.31165 -2.9495 0
M  V30 1218 H 113.975 -0.99836 -3.67065 0
M  V30 1219 H 115.287 -1.09612 -4.86607 0
M  V30 1220 H 114.441 0.975205 -5.98811 0
M  V30 1221 H 113.18 1.16136 -4.73671 0
M  V30 1222 H 112.185 -1.04677 -5.39743 0
M  V30 1223 H 113.41 -1.21953 -6.6806 0
M  V30 1224 H 111.356 1.01558 -6.48091 0
M  V30 1225 H 111.273 -0.344318 -7.55216 0
M  V30 1226 H 112.541 0.828131 -7.75089 0
M  V30 1227 N 116.77 1.45427 -0.607355 0
M  V30 1228 C 118.019 2.01452 -0.100036 0
M  V30 1229 C 118.332 1.48159 1.27704 0
M  V30 1230 O 119.538 1.96159 1.87707 0
M  V30 1231 C 117.994 3.59672 -0.128158 0
M  V30 1232 C 117.602 4.21962 -1.50507 0
M  V30 1233 C 119.346 4.23262 0.323932 0
M  V30 1234 C 117.253 5.72333 -1.48959 0
M  V30 1235 H 116.183 0.75325 -0.0336299 0
M  V30 1236 H 118.834 1.66901 -0.76265 0
M  V30 1237 H 117.216 3.91411 0.601105 0
M  V30 1238 H 118.39 4.01796 -2.25602 0
M  V30 1239 H 116.705 3.70565 -1.89923 0
M  V30 1240 H 119.302 5.33522 0.354691 0
M  V30 1241 H 119.645 3.93921 1.34656 0
M  V30 1242 H 120.178 3.96239 -0.352056 0
M  V30 1243 H 116.917 6.06373 -2.48981 0
M  V30 1244 H 116.437 5.94691 -0.781214 0
M  V30 1245 H 118.116 6.35525 -1.21313 0
M  V30 1246 N 118.248 0.346503 1.53744 0
M  V30 1247 C 119.178 -0.501193 2.28058 0
M  V30 1248 C 120.159 -1.10014 1.29734 0
M  V30 1249 O 121.344 -1.12097 1.58581 0
M  V30 1250 C 118.474 -1.65078 3.05559 0
M  V30 1251 C 117.428 -1.18003 4.11411 0
M  V30 1252 C 116.754 -2.41837 4.76884 0
M  V30 1253 C 118.054 -0.278394 5.21558 0
M  V30 1254 H 119.748 0.11875 2.99164 0
M  V30 1255 H 117.294 0.0585531 1.43881 0
M  V30 1256 H 119.247 -2.25028 3.56287 0
M  V30 1257 H 117.971 -2.29767 2.32109 0
M  V30 1258 H 116.63 -0.603331 3.61601 0
M  V30 1259 H 116.278 -3.0494 4.00026 0
M  V30 1260 H 115.978 -2.1102 5.48402 0
M  V30 1261 H 117.502 -3.02508 5.30397 0
M  V30 1262 H 118.916 -0.784823 5.67903 0
M  V30 1263 H 117.313 -0.0619707 6.00068 0
M  V30 1264 H 118.383 0.684677 4.80042 0
M  V30 1265 N 119.726 -1.57421 0.075193 0
M  V30 1266 C 120.689 -2.11791 -0.876203 0
M  V30 1267 C 121.689 -1.04268 -1.22412 0
M  V30 1268 O 122.879 -1.30242 -1.15684 0
M  V30 1269 C 120.011 -2.62207 -2.17854 0
M  V30 1270 H 121.204 -2.9716 -0.40444 0
M  V30 1271 H 118.757 -1.55333 -0.173557 0
M  V30 1272 H 119.492 -1.803 -2.6956 0
M  V30 1273 H 119.277 -3.40802 -1.93897 0
M  V30 1274 H 120.767 -3.04335 -2.85955 0
M  V30 1275 N 121.204 0.198386 -1.56346 0
M  V30 1276 C 122.114 1.2664 -1.97483 0
M  V30 1277 C 123.13 1.49989 -0.882002 0
M  V30 1278 O 124.306 1.62668 -1.18748 0
M  V30 1279 C 121.371 2.59141 -2.30319 0
M  V30 1280 C 120.432 2.43892 -3.53292 0
M  V30 1281 C 119.665 3.70074 -3.84553 0
M  V30 1282 O 119.888 4.74101 -3.1715 0
M  V30 1283 O 118.822 3.658 -4.7799 0
M  V30 1284 H 122.648 0.947304 -2.88548 0
M  V30 1285 H 120.233 0.403123 -1.43859 0
M  V30 1286 H 122.115 3.37352 -2.5253 0
M  V30 1287 H 120.79 2.90684 -1.42423 0
M  V30 1288 H 119.697 1.63803 -3.36332 0
M  V30 1289 H 121.03 2.17282 -4.41644 0
M  V30 1290 N 122.682 1.50554 0.465978 0
M  V30 1291 C 123.93 1.61479 1.21528 0
M  V30 1292 C 124.251 0.319596 1.92363 0
M  V30 1293 O 123.521 -0.663194 1.84333 0
M  V30 1294 H 122.101 0.595055 0.451573 0
M  V30 1295 H 124.763 1.87355 0.53704 0
M  V30 1296 H 123.859 2.42846 1.96042 0
M  V30 1297 N 124.16 -0.719506 1.40217 0
M  V30 1298 C 125.408 -1.47641 1.3801 0
M  V30 1299 C 125.729 -1.94992 -0.018145 0
M  V30 1300 O 124.999 -1.70073 -0.972207 0
M  V30 1301 H 123.579 -0.547744 0.507923 0
M  V30 1302 H 126.241 -0.853187 1.75233 0
M  V30 1303 H 125.337 -2.35112 2.05253 0
M  V30 1304 N 125.638 -1.25649 -0.95132 0
M  V30 1305 C 126.886 -1.10375 -1.69298 0
M  V30 1306 C 127.207 0.355339 -1.91735 0
M  V30 1307 O 126.477 1.25188 -1.50681 0
M  V30 1308 H 125.057 -0.405461 -0.627384 0
M  V30 1309 H 127.719 -1.57823 -1.14358 0
M  V30 1310 H 126.815 -1.61465 -2.67087 0
M  V30 1311 N 127.117 1.15442 -1.07289 0
M  V30 1312 C 128.08 2.18358 -0.696591 0
M  V30 1313 C 129.08 1.58637 0.262837 0
M  V30 1314 O 130.27 1.74145 0.0438809 0
M  V30 1315 C 127.402 3.4089 -0.0266151 0
M  V30 1316 H 128.595 2.53162 -1.60776 0
M  V30 1317 H 126.148 1.29893 -0.869342 0
M  V30 1318 H 126.883 3.11653 0.896822 0
M  V30 1319 H 126.668 3.85495 -0.716657 0
M  V30 1320 H 128.158 4.17009 0.222028 0
M  V30 1321 N 128.595 0.856903 1.32268 0
M  V30 1322 C 129.542 0.301172 2.28827 0
M  V30 1323 C 130.512 -0.593104 1.5515 0
M  V30 1324 O 131.697 -0.527537 1.83362 0
M  V30 1325 C 128.837 -0.502523 3.41422 0
M  V30 1326 C 127.95 0.417797 4.29975 0
M  V30 1327 C 127.085 -0.398749 5.29701 0
M  V30 1328 C 126.124 0.518827 6.09897 0
M  V30 1329 N 125.261 -0.260674 7.01616 0
M  V30 1330 H 130.101 1.12983 2.75751 0
M  V30 1331 H 127.638 0.568582 1.35667 0
M  V30 1332 H 129.596 -0.984141 4.05426 0
M  V30 1333 H 128.226 -1.29599 2.95642 0
M  V30 1334 H 127.278 1.01781 3.66531 0
M  V30 1335 H 128.59 1.12191 4.86019 0
M  V30 1336 H 127.744 -0.943435 5.9932 0
M  V30 1337 H 126.483 -1.13622 4.7428 0
M  V30 1338 H 125.488 1.07538 5.39181 0
M  V30 1339 H 126.713 1.25495 6.67404 0
M  V30 1340 H 124.659 -0.981198 6.4862 0
M  V30 1341 H 124.576 0.384364 7.55022 0
M  V30 1342 H 125.844 -0.787014 7.75517 0
M  V30 1343 N 130.073 -1.45103 0.615059 0
M  V30 1344 C 131.32 -2.02183 0.113179 0
M  V30 1345 C 131.648 -1.48249 -1.25906 0
M  V30 1346 O 130.903 -0.650265 -1.84581 0
M  V30 1347 C 131.202 -3.57386 0.0318797 0
M  V30 1348 C 130.868 -4.30505 1.34077 0
M  V30 1349 C 129.53 -4.50197 1.69929 0
M  V30 1350 C 131.882 -4.72238 2.20546 0
M  V30 1351 C 129.21 -5.08881 2.91988 0
M  V30 1352 C 131.562 -5.32272 3.41861 0
M  V30 1353 C 130.226 -5.50187 3.77956 0
M  V30 1354 H 129.496 -0.739842 0.0414151 0
M  V30 1355 H 132.143 -1.74073 0.798168 0
M  V30 1356 H 130.448 -3.84817 -0.736409 0
M  V30 1357 H 132.145 -3.99264 -0.372712 0
M  V30 1358 H 128.735 -4.15496 1.05173 0
M  V30 1359 H 132.919 -4.56751 1.94146 0
M  V30 1360 H 128.175 -5.20939 3.2005 0
M  V30 1361 H 132.349 -5.63563 4.09109 0
M  V30 1362 H 129.976 -5.95427 4.72622 0
M  V30 1363 N 131.551 -0.354651 -1.53558 0
M  V30 1364 C 132.498 0.496968 -2.25386 0
M  V30 1365 C 133.468 1.0865 -1.25636 0
M  V30 1366 O 134.653 1.12104 -1.54394 0
M  V30 1367 C 131.793 1.63637 -3.03837 0
M  V30 1368 C 130.906 1.07307 -4.18461 0
M  V30 1369 C 130.041 2.18068 -4.84376 0
M  V30 1370 C 129.08 1.59147 -5.91049 0
M  V30 1371 N 128.217 2.63695 -6.50699 0
M  V30 1372 H 133.057 -0.122075 -2.9775 0
M  V30 1373 H 130.594 -0.0720154 -1.46924 0
M  V30 1374 H 132.552 2.30734 -3.47589 0
M  V30 1375 H 131.182 2.22623 -2.33749 0
M  V30 1376 H 130.234 0.292708 -3.79272 0
M  V30 1377 H 131.546 0.602193 -4.95152 0
M  V30 1378 H 130.7 2.93007 -5.31255 0
M  V30 1379 H 129.439 2.68504 -4.07133 0
M  V30 1380 H 128.444 0.827175 -5.43542 0
M  V30 1381 H 129.669 1.09549 -6.70206 0
M  V30 1382 H 127.615 3.13365 -5.76315 0
M  V30 1383 H 127.532 2.21263 -7.22896 0
M  V30 1384 H 128.8 3.3837 -7.02229 0
M  V30 1385 N 133.029 1.57378 -0.0835403 0
M  V30 1386 C 133.976 2.13384 0.879539 0
M  V30 1387 C 134.946 1.04936 1.28754 0
M  V30 1388 O 136.131 1.32662 1.37133 0
M  V30 1389 C 133.271 2.70932 2.13752 0
M  V30 1390 C 132.384 3.93575 1.7811 0
M  V30 1391 C 131.519 4.39326 2.98607 0
M  V30 1392 C 130.558 5.54587 2.59037 0
M  V30 1393 N 129.695 5.95243 3.72331 0
M  V30 1394 H 134.535 2.9537 0.395076 0
M  V30 1395 H 132.072 1.45953 0.183349 0
M  V30 1396 H 134.03 3.02411 2.87408 0
M  V30 1397 H 132.66 1.91693 2.59718 0
M  V30 1398 H 131.712 3.68483 0.94469 0
M  V30 1399 H 133.024 4.77258 1.45005 0
M  V30 1400 H 132.178 4.72528 3.80529 0
M  V30 1401 H 130.917 3.5452 3.34913 0
M  V30 1402 H 129.922 5.21024 1.75539 0
M  V30 1403 H 131.147 6.41133 2.23887 0
M  V30 1404 H 129.093 5.13385 4.08378 0
M  V30 1405 H 129.01 6.73694 3.43034 0
M  V30 1406 H 130.278 6.33072 4.54797 0
M  V30 1407 N 134.507 -0.190092 1.56449 0
M  V30 1408 C 135.737 -0.92443 1.84764 0
M  V30 1409 C 136.145 -1.77146 0.664529 0
M  V30 1410 O 135.488 -1.79812 -0.375957 0
M  V30 1411 C 135.55 -1.86651 3.07248 0
M  V30 1412 C 135.214 -1.20094 4.40938 0
M  V30 1413 C 136.211 -0.575445 5.16706 0
M  V30 1414 C 133.896 -1.2033 4.87674 0
M  V30 1415 C 135.89 0.0388111 6.37388 0
M  V30 1416 C 133.577 -0.585214 6.08291 0
M  V30 1417 C 134.575 0.0347578 6.82991 0
M  V30 1418 O 134.263 0.643147 8.01323 0
M  V30 1419 H 133.995 -0.274974 0.617548 0
M  V30 1420 H 136.549 -0.200788 2.04416 0
M  V30 1421 H 134.779 -2.62998 2.83494 0
M  V30 1422 H 136.468 -2.46907 3.22167 0
M  V30 1423 H 137.234 -0.565728 4.81689 0
M  V30 1424 H 133.113 -1.67526 4.29484 0
M  V30 1425 H 136.657 0.523329 6.95634 0
M  V30 1426 H 132.554 -0.592451 6.42775 0
M  V30 1427 H 133.322 0.540545 8.16713 0
M  V30 1428 N 135.985 -1.50799 -0.457987 0
M  V30 1429 C 136.895 -1.73426 -1.57989 0
M  V30 1430 C 137.911 -0.617745 -1.62665 0
M  V30 1431 O 139.087 -0.897614 -1.80291 0
M  V30 1432 C 136.152 -1.83557 -2.94122 0
M  V30 1433 C 135.213 -3.07345 -2.99729 0
M  V30 1434 C 134.446 -3.16983 -4.29368 0
M  V30 1435 O 134.669 -2.33077 -5.20607 0
M  V30 1436 O 133.603 -4.09812 -4.40837 0
M  V30 1437 H 137.429 -2.68555 -1.41817 0
M  V30 1438 H 135.014 -1.35052 -0.638859 0
M  V30 1439 H 136.896 -1.92326 -3.74952 0
M  V30 1440 H 135.571 -0.916137 -3.10465 0
M  V30 1441 H 134.478 -3.04068 -2.1793 0
M  V30 1442 H 135.811 -3.9891 -2.88326 0
M  V30 1443 N 137.463 0.71206 -1.40597 0
M  V30 1444 C 138.373 1.8562 -1.43466 0
M  V30 1445 C 139.389 1.70902 -0.326902 0
M  V30 1446 O 140.565 1.93105 -0.572043 0
M  V30 1447 C 137.63 3.21451 -1.29884 0
M  V30 1448 C 136.691 3.48398 -2.50833 0
M  V30 1449 C 135.924 4.77749 -2.3789 0
M  V30 1450 O 136.147 5.53089 -1.39459 0
M  V30 1451 O 135.081 5.05111 -3.27333 0
M  V30 1452 H 138.907 1.86155 -2.39958 0
M  V30 1453 H 136.492 0.86295 -1.21957 0
M  V30 1454 H 138.374 4.02579 -1.24531 0
M  V30 1455 H 137.049 3.21636 -0.364997 0
M  V30 1456 H 135.956 2.67265 -2.61763 0
M  V30 1457 H 137.289 3.53014 -3.4299 0
M  V30 1458 N 138.941 1.26152 0.944643 0
M  V30 1459 C 140.19 1.10883 1.68487 0
M  V30 1460 C 140.503 -0.348153 1.92477 0
M  V30 1461 O 141.709 -0.621459 2.64292 0
M  V30 1462 C 140.165 1.93624 3.03377 0
M  V30 1463 C 139.773 3.43875 2.87148 0
M  V30 1464 C 141.517 1.86954 3.81115 0
M  V30 1465 C 139.424 4.18875 4.1749 0
M  V30 1466 H 138.354 0.41135 0.631907 0
M  V30 1467 H 141.005 1.50433 1.05082 0
M  V30 1468 H 139.387 1.46904 3.67743 0
M  V30 1469 H 140.561 3.98338 2.31653 0
M  V30 1470 H 138.876 3.51744 2.22856 0
M  V30 1471 H 141.473 2.40275 4.77673 0
M  V30 1472 H 141.816 0.839518 4.07747 0
M  V30 1473 H 142.349 2.31477 3.23517 0
M  V30 1474 H 139.088 5.22332 3.96043 0
M  V30 1475 H 138.608 3.69193 4.72712 0
M  V30 1476 H 140.287 4.27134 4.85968 0
M  V30 1477 N 140.419 -1.14872 1.07899 0
M  V30 1478 C 141.696 -1.81928 0.71845 0
M  V30 1479 C 142.076 -1.95417 -0.798455 0
M  V30 1480 O 141.424 -1.50997 -1.715 0
M  V30 1481 C 141.634 -3.17937 1.43935 0
M  V30 1482 C 142.982 -3.93501 1.59506 0
M  V30 1483 O 144.006 -3.27509 1.40058 0
M  V30 1484 O 142.865 -5.1183 1.91551 0
M  V30 1485 H 139.959 -0.78628 0.256305 0
M  V30 1486 H 142.505 -1.21934 1.18026 0
M  V30 1487 H 141.277 -3.0325 2.47295 0
M  V30 1488 H 140.9 -3.85619 0.968687 0
M  V30 1489 N 141.898 -0.863906 -1.31812 0
M  V30 1490 C 142.846 -0.30422 -2.30602 0
M  V30 1491 C 143.84 0.577419 -1.59255 0
M  V30 1492 O 145.046 0.464194 -1.73912 0
M  V30 1493 H 141.421 -0.0796877 -0.747766 0
M  V30 1494 H 143.392 -1.15148 -2.75288 0
M  V30 1495 C 142.141 0.484617 -3.44306 0
M  V30 1496 H 141.464 -0.18451 -3.99374 0
M  V30 1497 H 142.904 0.841664 -4.15562 0
M  V30 1498 C 141.363 1.6735 -2.92396 0
M  V30 1499 O 141.893 2.77273 -2.90659 0
M  V30 1500 N 140.099 1.50362 -2.48676 0
M  V30 1501 H 139.646 0.609402 -2.50288 0
M  V30 1502 H 139.604 2.30051 -2.14299 0
M  V30 1503 N 143.376 1.44774 -0.622745 0
M  V30 1504 C 144.339 2.29069 0.0774015 0
M  V30 1505 C 145.339 1.4059 0.780461 0
M  V30 1506 O 146.529 1.62551 0.626322 0
M  V30 1507 C 143.661 3.21974 1.12006 0
M  V30 1508 H 144.854 2.92459 -0.663901 0
M  V30 1509 H 142.407 1.51548 -0.382486 0
M  V30 1510 H 143.142 2.63417 1.89162 0
M  V30 1511 H 142.927 3.87168 0.619951 0
M  V30 1512 H 144.417 3.85318 1.60995 0
M  V30 1513 N 144.854 0.36279 1.53368 0
M  V30 1514 C 146.265 -0.117022 1.86333 0
M  V30 1515 C 146.616 -1.48397 1.28347 0
M  V30 1516 O 145.741 -2.07787 0.604428 0
M  V30 1517 C 146.336 -0.21912 3.38091 0
M  V30 1518 C 144.895 -0.643184 3.70864 0
M  V30 1519 C 144.042 0.211318 2.76494 0
M  V30 1520 H 146.993 0.581687 1.47655 0
M  V30 1521 H 147.014 -1.04319 3.6592 0
M  V30 1522 H 146.526 0.775902 3.80265 0
M  V30 1523 H 144.627 -1.64654 3.34245 0
M  V30 1524 H 144.74 -0.41973 4.77258 0
M  V30 1525 H 143.104 -0.319367 2.5269 0
M  V30 1526 H 143.887 1.20383 3.21501 0
M  V30 1527 N 146.332 -1.57332 0.0918853 0
M  V30 1528 C 147.242 -2.17368 -0.882505 0
M  V30 1529 C 148.258 -1.14226 -1.31257 0
M  V30 1530 O 149.434 -1.46582 -1.38115 0
M  V30 1531 C 146.499 -2.73962 -2.12476 0
M  V30 1532 C 145.56 -3.92048 -1.7492 0
M  V30 1533 C 144.793 -4.45933 -2.93223 0
M  V30 1534 O 145.016 -3.98764 -4.07852 0
M  V30 1535 O 143.95 -5.36999 -2.71875 0
M  V30 1536 H 147.776 -3.01031 -0.40172 0
M  V30 1537 H 145.361 -1.48813 -0.132291 0
M  V30 1538 H 147.243 -3.10147 -2.85283 0
M  V30 1539 H 145.918 -1.93347 -2.59613 0
M  V30 1540 H 144.825 -3.6068 -0.993025 0
M  V30 1541 H 146.158 -4.74017 -1.32548 0
M  V30 1542 N 147.81 0.181792 -1.56548 0
M  V30 1543 C 148.72 1.24538 -1.98815 0
M  V30 1544 C 149.736 1.49045 -0.897861 0
M  V30 1545 O 150.912 1.61399 -1.20467 0
M  V30 1546 C 147.977 2.56683 -2.33055 0
M  V30 1547 C 147.038 2.40131 -3.55859 0
M  V30 1548 C 146.271 3.65975 -3.88456 0
M  V30 1549 O 146.494 4.70711 -3.22161 0
M  V30 1550 O 145.428 3.6071 -4.81842 0
M  V30 1551 H 149.254 0.916647 -2.89536 0
M  V30 1552 H 146.839 0.387842 -1.44278 0
M  V30 1553 H 148.721 3.34655 -2.56094 0
M  V30 1554 H 147.396 2.89157 -1.45498 0
M  V30 1555 H 146.303 1.60226 -3.38051 0
M  V30 1556 H 147.636 2.12585 -4.43924 0
M  V30 1557 N 149.288 1.51039 0.449983 0
M  V30 1558 C 150.704 1.38934 0.785462 0
M  V30 1559 C 150.904 0.461817 1.96136 0
M  V30 1560 O 149.96 -0.0877389 2.52348 0
M  V30 1561 C 151.273 2.80724 1.0777 0
M  V30 1562 C 152.821 2.89787 1.1829 0
M  V30 1563 C 153.296 4.32457 1.50815 0
M  V30 1564 N 154.787 4.35505 1.57764 0
M  V30 1565 C 155.522 5.42914 1.84477 0
M  V30 1566 N 155.018 6.60502 2.09068 0
M  V30 1567 N 156.811 5.3038 1.86155 0
M  V30 1568 H 148.962 2.09904 -0.324647 0
M  V30 1569 H 151.225 0.944378 -0.0827957 0
M  V30 1570 H 150.931 3.50531 0.286498 0
M  V30 1571 H 150.805 3.19273 2.00859 0
M  V30 1572 H 153.192 2.20186 1.96474 0
M  V30 1573 H 153.273 2.54752 0.231314 0
M  V30 1574 H 152.917 5.02603 0.731622 0
M  V30 1575 H 152.847 4.64995 2.47158 0
M  V30 1576 H 155.338 3.50724 1.40715 0
M  V30 1577 H 155.651 7.38158 2.28785 0
M  V30 1578 H 153.996 6.63639 2.06416 0
M  V30 1579 H 157.187 4.37505 1.66454 0
M  V30 1580 H 157.36 6.1417 2.06637 0
M  V30 1581 N 150.766 -0.704594 1.40972 0
M  V30 1582 C 151.729 -1.80035 1.41845 0
M  V30 1583 C 152.729 -1.57774 0.310474 0
M  V30 1584 O 153.919 -1.64613 0.56992 0
M  V30 1585 C 151.051 -3.18284 1.22098 0
M  V30 1586 H 152.244 -1.80658 2.3938 0
M  V30 1587 H 149.797 -0.911329 1.26982 0
M  V30 1588 H 150.532 -3.23306 0.253672 0
M  V30 1589 H 150.317 -3.35843 2.02366 0
M  V30 1590 H 151.807 -3.98289 1.25522 0
M  V30 1591 N 152.244 -1.26651 -0.937939 0
M  V30 1592 C 153.66 -1.03834 -1.21205 0
M  V30 1593 C 153.86 0.234502 -2.00131 0
M  V30 1594 O 152.916 0.942767 -2.3424 0
M  V30 1595 C 154.229 -2.27167 -1.97017 0
M  V30 1596 C 155.777 -2.32101 -2.09996 0
M  V30 1597 C 156.252 -3.55136 -2.8921 0
M  V30 1598 N 157.743 -3.55632 -2.96783 0
M  V30 1599 C 158.478 -4.475 -3.58512 0
M  V30 1600 N 157.974 -5.4966 -4.21717 0
M  V30 1601 N 159.767 -4.35145 -3.55816 0
M  V30 1602 H 151.918 -2.08398 -0.410391 0
M  V30 1603 H 154.181 -0.916031 -0.244114 0
M  V30 1604 H 153.887 -3.19765 -1.46434 0
M  V30 1605 H 153.761 -2.31672 -2.97671 0
M  V30 1606 H 156.148 -1.40015 -2.59769 0
M  V30 1607 H 156.229 -2.31605 -1.08594 0
M  V30 1608 H 155.873 -4.47553 -2.40123 0
M  V30 1609 H 155.803 -3.5288 -3.90875 0
M  V30 1610 H 158.294 -2.81743 -2.51852 0
M  V30 1611 H 158.607 -6.15943 -4.66727 0
M  V30 1612 H 156.952 -5.53514 -4.20294 0
M  V30 1613 H 160.143 -3.5455 -3.05634 0
M  V30 1614 H 160.316 -5.06934 -4.03636 0
M  V30 1615 N 153.722 1.14298 -1.08507 0
M  V30 1616 C 154.97 1.84993 -0.813763 0
M  V30 1617 C 155.291 1.83405 0.662393 0
M  V30 1618 O 154.561 1.28319 1.48024 0
M  V30 1619 H 153.141 0.684966 -0.298045 0
M  V30 1620 H 155.803 1.385 -1.37126 0
M  V30 1621 H 154.899 2.89788 -1.15884 0
M  V30 1622 N 155.201 0.870884 1.31352 0
M  V30 1623 C 156.45 0.478408 1.95944 0
M  V30 1624 C 156.763 -0.974493 1.69597 0
M  V30 1625 O 157.969 -1.47316 2.28058 0
M  V30 1626 C 156.425 0.804609 3.50791 0
M  V30 1627 C 156.033 2.27433 3.85977 0
M  V30 1628 C 157.777 0.480648 4.2177 0
M  V30 1629 C 155.684 2.5429 5.33939 0
M  V30 1630 H 154.614 0.175175 0.733369 0
M  V30 1631 H 157.265 1.06391 1.4951 0
M  V30 1632 H 155.647 0.148347 3.95722 0
M  V30 1633 H 156.821 2.97373 3.52002 0
M  V30 1634 H 155.136 2.56442 3.28065 0
M  V30 1635 H 157.733 0.658519 5.30629 0
M  V30 1636 H 158.076 -0.578979 4.12254 0
M  V30 1637 H 158.609 1.09349 3.82476 0
M  V30 1638 H 155.348 3.58939 5.48491 0
M  V30 1639 H 154.868 1.88945 5.69263 0
M  V30 1640 H 156.547 2.39066 6.01212 0
M  V30 1641 N 156.679 -1.44442 0.630414 0
M  V30 1642 C 157.907 -2.06414 0.141671 0
M  V30 1643 C 158.322 -1.47105 -1.18345 0
M  V30 1644 O 157.679 -0.593662 -1.72574 0
M  V30 1645 C 157.73 -3.61494 0.0199784 0
M  V30 1646 O 157.451 -4.18594 1.29269 0
M  V30 1647 C 158.952 -4.40499 -0.497544 0
M  V30 1648 H 156.172 -0.666292 0.0793452 0
M  V30 1649 H 158.716 -1.85323 0.864614 0
M  V30 1650 H 156.871 -3.8185 -0.653402 0
M  V30 1651 H 157.285 -5.12026 1.13707 0
M  V30 1652 H 158.759 -5.49433 -0.531708 0
M  V30 1653 H 159.236 -4.11895 -1.52445 0
M  V30 1654 H 159.842 -4.25061 0.142562 0
M  V30 1655 N 158.157 -0.370918 -1.53173 0
M  V30 1656 C 159.406 0.218249 -2.00516 0
M  V30 1657 C 159.719 1.49429 -1.26215 0
M  V30 1658 O 160.925 2.16239 -1.64174 0
M  V30 1659 C 159.381 0.43948 -3.57207 0
M  V30 1660 C 158.989 -0.822244 -4.4039 0
M  V30 1661 C 160.733 0.986012 -4.1289 0
M  V30 1662 C 158.64 -0.570304 -5.88644 0
M  V30 1663 H 157.57 0.0853333 -0.749156 0
M  V30 1664 H 160.221 -0.490483 -1.76823 0
M  V30 1665 H 158.603 1.20961 -3.77074 0
M  V30 1666 H 159.777 -1.59557 -4.32294 0
M  V30 1667 H 158.092 -1.29238 -3.95836 0
M  V30 1668 H 160.689 1.18991 -5.21292 0
M  V30 1669 H 161.032 1.94972 -3.6782 0
M  V30 1670 H 161.565 0.27592 -3.96842 0
M  V30 1671 H 158.304 -1.50449 -6.38001 0
M  V30 1672 H 157.824 0.164427 -5.99575 0
M  V30 1673 H 159.503 -0.19784 -6.46697 0
M  V30 1674 N 159.635 1.57281 -0.100228 0
M  V30 1675 C 160.583 2.15542 0.874328 0
M  V30 1676 C 161.577 1.09962 1.28859 0
M  V30 1677 O 162.783 1.28298 1.26252 0
M  V30 1678 H 159.158 0.689567 0.300003 0
M  V30 1679 H 161.129 2.96241 0.35829 0
M  V30 1680 C 159.878 2.75454 2.1218 0
M  V30 1681 H 159.201 3.56384 1.81193 0
M  V30 1682 H 160.641 3.19781 2.78417 0
M  V30 1683 C 159.1 1.71602 2.89921 0
M  V30 1684 O 159.63 1.15804 3.84646 0
M  V30 1685 N 157.836 1.41975 2.53558 0
M  V30 1686 H 157.383 1.87539 1.76598 0
M  V30 1687 H 157.341 0.727274 3.05873 0
M  V30 1688 N 161.113 -0.173488 1.56642 0
M  V30 1689 C 162.076 -1.19859 1.95362 0
M  V30 1690 C 163.076 -1.37296 0.83704 0
M  V30 1691 O 164.266 -1.34739 1.10413 0
M  V30 1692 C 161.398 -2.56405 2.24654 0
M  V30 1693 H 162.591 -0.867062 2.87092 0
M  V30 1694 H 160.144 -0.415853 1.50666 0
M  V30 1695 H 160.879 -2.94576 1.35631 0
M  V30 1696 H 160.664 -2.45115 3.06041 0
M  V30 1697 H 162.154 -3.30287 2.5554 0
M  V30 1698 N 162.591 -1.51276 -0.441967 0
M  V30 1699 C 163.554 -1.7167 -1.51862 0
M  V30 1700 C 164.554 -0.586793 -1.49711 0
M  V30 1701 O 165.744 -0.854276 -1.51815 0
M  V30 1702 C 162.876 -1.76889 -2.91416 0
M  V30 1703 H 164.069 -2.67754 -1.35084 0
M  V30 1704 H 161.622 -1.41196 -0.670333 0
M  V30 1705 H 162.357 -0.826026 -3.13604 0
M  V30 1706 H 162.142 -2.59001 -2.94382 0
M  V30 1707 H 163.632 -1.94522 -3.69528 0
M  V30 1708 N 164.069 0.697108 -1.41344 0
M  V30 1709 C 165.019 1.80313 -1.39539 0
M  V30 1710 C 166.003 1.58618 -0.270001 0
M  V30 1711 O 167.195 1.69477 -0.510551 0
M  V30 1712 C 164.324 3.18606 -1.27848 0
M  V30 1713 C 163.41 3.46001 -2.45244 0
M  V30 1714 N 163.801 3.44103 -3.70711 0
M  V30 1715 C 162.099 3.76542 -2.39023 0
M  V30 1716 C 162.8 3.7036 -4.48563 0
M  V30 1717 N 161.776 3.90027 -3.78655 0
M  V30 1718 H 165.578 1.77207 -2.34468 0
M  V30 1719 H 163.092 0.897031 -1.35378 0
M  V30 1720 H 165.089 3.97833 -1.24637 0
M  V30 1721 H 163.749 3.22925 -0.339032 0
M  V30 1722 H 164.76 3.2452 -4.03618 0
M  V30 1723 H 161.437 3.88241 -1.53542 0
M  V30 1724 H 162.827 3.75042 -5.57488 0
M  V30 1725 N 165.547 1.27147 0.931209 0
M  V30 1726 C 166.793 1.13446 1.68101 0
M  V30 1727 C 167.126 -0.319628 1.91552 0
M  V30 1728 O 166.401 -1.23407 1.50336 0
M  V30 1729 C 166.684 1.91482 3.0497 0
M  V30 1730 C 166.537 3.44855 2.88782 0
M  V30 1731 C 167.856 1.71651 4.05246 0
M  V30 1732 H 164.975 0.413498 0.610072 0
M  V30 1733 H 167.617 1.56261 1.08086 0
M  V30 1734 H 165.767 1.55095 3.56199 0
M  V30 1735 H 167.439 3.9105 2.44698 0
M  V30 1736 H 165.682 3.71373 2.24198 0
M  V30 1737 H 166.353 3.94694 3.85902 0
M  V30 1738 H 168.829 2.0337 3.63015 0
M  V30 1739 H 167.705 2.28651 4.99009 0
M  V30 1740 H 167.966 0.663555 4.37092 0
M  V30 1741 N 167.025 -1.13721 1.09112 0
M  V30 1742 C 167.935 -2.22638 0.73957 0
M  V30 1743 C 168.951 -1.72091 -0.257068 0
M  V30 1744 O 170.127 -2.01155 -0.0992154 0
M  V30 1745 C 167.192 -3.46322 0.16191 0
M  V30 1746 C 166.253 -4.11775 1.21408 0
M  V30 1747 C 165.486 -5.29555 0.663891 0
M  V30 1748 O 165.709 -5.68077 -0.514274 0
M  V30 1749 O 164.643 -5.84973 1.41738 0
M  V30 1750 H 168.469 -2.55074 1.64836 0
M  V30 1751 H 166.054 -1.21791 0.865289 0
M  V30 1752 H 167.936 -4.21107 -0.157073 0
M  V30 1753 H 166.611 -3.15593 -0.719932 0
M  V30 1754 H 165.518 -3.3883 1.58571 0
M  V30 1755 H 166.851 -4.46627 2.06845 0
M  V30 1756 N 168.503 -0.877838 -1.30888 0
M  V30 1757 C 169.733 -0.506678 -2.00291 0
M  V30 1758 C 170.141 0.907449 -1.66018 0
M  V30 1759 O 169.484 1.60719 -0.88967 0
M  V30 1760 C 169.546 -0.59323 -3.54572 0
M  V30 1761 C 169.21 -1.97038 -4.12341 0
M  V30 1762 C 170.207 -2.93889 -4.28865 0
M  V30 1763 C 167.892 -2.27383 -4.47886 0
M  V30 1764 C 169.886 -4.19224 -4.80136 0
M  V30 1765 C 167.573 -3.52965 -4.98857 0
M  V30 1766 C 168.571 -4.48701 -5.14934 0
M  V30 1767 O 168.259 -5.72056 -5.64808 0
M  V30 1768 H 167.991 -0.1951 -0.647234 0
M  V30 1769 H 170.545 -1.18301 -1.6791 0
M  V30 1770 H 168.775 0.140057 -3.86446 0
M  V30 1771 H 170.464 -0.234372 -4.05223 0
M  V30 1772 H 171.23 -2.71756 -4.01714 0
M  V30 1773 H 167.109 -1.53639 -4.34645 0
M  V30 1774 H 170.653 -4.93956 -4.92599 0
M  V30 1775 H 166.55 -3.74939 -5.25443 0
M  V30 1776 H 167.318 -5.74337 -5.83163 0
M  V30 1777 N 169.982 1.44106 -0.638065 0
M  V30 1778 C 171.207 2.0685 -0.150916 0
M  V30 1779 C 171.632 1.47417 1.16833 0
M  V30 1780 O 170.99 0.578264 1.71831 0
M  V30 1781 C 171.038 3.60555 -0.05708 0
M  V30 1782 O 170.142 4.00465 0.984972 0
M  V30 1783 H 169.483 0.658151 -0.0879399 0
M  V30 1784 H 172.013 1.84865 -0.876707 0
M  V30 1785 H 172.023 4.07789 0.131232 0
M  V30 1786 H 170.698 4.03193 -1.02021 0
M  V30 1787 H 169.275 3.64849 0.770672 0
M  V30 1788 N 171.46 0.379036 1.52974 0
M  V30 1789 C 172.688 -0.20679 2.05864 0
M  V30 1790 C 173.103 -1.41356 1.25155 0
M  V30 1791 O 172.46 -1.8009 0.295588 0
M  V30 1792 C 172.511 -0.587045 3.56702 0
M  V30 1793 O 172.232 0.571776 4.34353 0
M  V30 1794 C 173.733 -1.22983 4.25899 0
M  V30 1795 H 170.953 -0.0336123 0.670158 0
M  V30 1796 H 173.497 0.541298 1.97206 0
M  V30 1797 H 171.652 -1.28504 3.65466 0
M  V30 1798 H 172.066 0.261544 5.23847 0
M  V30 1799 H 173.54 -1.44635 5.32715 0
M  V30 1800 H 174.017 -2.19416 3.80465 0
M  V30 1801 H 174.623 -0.572892 4.21424 0
M  V30 1802 N 172.938 -1.57226 0.108567 0
M  V30 1803 C 173.901 -2.13602 -0.831082 0
M  V30 1804 C 174.901 -1.06841 -1.20173 0
M  V30 1805 O 176.091 -1.32666 -1.12895 0
M  V30 1806 C 173.223 -2.66769 -2.12243 0
M  V30 1807 H 174.416 -2.97951 -0.341317 0
M  V30 1808 H 171.969 -1.55667 -0.14057 0
M  V30 1809 H 172.704 -1.85977 -2.65675 0
M  V30 1810 H 172.489 -3.44839 -1.86625 0
M  V30 1811 H 173.979 -3.10332 -2.79435 0
M  V30 1812 N 174.416 0.165178 -1.56732 0
M  V30 1813 C 175.379 1.18822 -1.95995 0
M  V30 1814 C 176.379 1.3685 -0.84431 0
M  V30 1815 O 177.569 1.34152 -1.11126 0
M  V30 1816 C 174.701 2.5521 -2.26011 0
M  V30 1817 H 175.894 0.851825 -2.87548 0
M  V30 1818 H 173.447 0.407857 -1.50885 0
M  V30 1819 H 174.182 2.93852 -1.37191 0
M  V30 1820 H 173.967 2.43489 -3.07336 0
M  V30 1821 H 175.457 3.28927 -2.57288 0
M  V30 1822 N 175.894 1.51508 0.433938 0
M  V30 1823 C 177.31 1.39759 0.770682 0
M  V30 1824 C 177.51 0.482594 1.95636 0
M  V30 1825 O 176.566 -0.0609691 2.52426 0
M  V30 1826 C 177.879 2.81851 1.04787 0
M  V30 1827 C 179.427 2.91025 1.1521 0
M  V30 1828 C 179.902 4.34032 1.46219 0
M  V30 1829 N 181.393 4.37154 1.53136 0
M  V30 1830 C 182.128 5.4484 1.78709 0
M  V30 1831 N 181.624 6.62682 2.02051 0
M  V30 1832 N 183.417 5.32324 1.80519 0
M  V30 1833 H 175.568 2.09548 -0.346892 0
M  V30 1834 H 177.831 0.943446 -0.0928074 0
M  V30 1835 H 177.537 3.50815 0.249304 0
M  V30 1836 H 177.411 3.21386 1.97461 0
M  V30 1837 H 179.798 2.22257 1.94128 0
M  V30 1838 H 179.879 2.54983 0.204281 0
M  V30 1839 H 179.523 5.03351 0.678274 0
M  V30 1840 H 179.453 4.6759 2.42212 0
M  V30 1841 H 181.944 3.52197 1.36987 0
M  V30 1842 H 182.257 7.40543 2.20943 0
M  V30 1843 H 180.602 6.65791 1.99366 0
M  V30 1844 H 183.793 4.39246 1.61805 0
M  V30 1845 H 183.966 6.16328 2.00111 0
M  V30 1846 N 177.372 -0.689602 1.41712 0
M  V30 1847 C 178.322 -1.79571 1.40493 0
M  V30 1848 C 179.306 -1.58473 0.278409 0
M  V30 1849 O 180.498 -1.69204 0.519532 0
M  V30 1850 C 177.627 -3.17923 1.29536 0
M  V30 1851 C 176.713 -3.44695 2.47075 0
M  V30 1852 N 177.104 -3.42132 3.72531 0
M  V30 1853 C 175.402 -3.75269 2.41017 0
M  V30 1854 C 176.103 -3.67976 4.50521 0
M  V30 1855 N 175.079 -3.88014 3.80718 0
M  V30 1856 H 178.881 -1.75961 2.35404 0
M  V30 1857 H 176.395 -0.889839 1.35851 0
M  V30 1858 H 178.392 -3.97167 1.26745 0
M  V30 1859 H 177.052 -3.22741 0.356153 0
M  V30 1860 H 178.063 -3.22375 4.05333 0
M  V30 1861 H 174.74 -3.87421 1.55599 0
M  V30 1862 H 176.13 -3.7208 5.59469 0
M  V30 1863 N 178.85 -1.27639 -0.924453 0
M  V30 1864 C 180.08 -1.16819 -1.70402 0
M  V30 1865 C 180.488 0.277191 -1.87158 0
M  V30 1866 O 179.831 1.20025 -1.39067 0
M  V30 1867 C 179.893 -1.78305 -3.12166 0
M  V30 1868 C 179.557 -3.27502 -3.18734 0
M  V30 1869 C 180.554 -4.2409 -3.00738 0
M  V30 1870 C 178.239 -3.68269 -3.4159 0
M  V30 1871 C 180.233 -5.59422 -3.05492 0
M  V30 1872 C 177.92 -5.0373 -3.45977 0
M  V30 1873 C 178.918 -5.99116 -3.27946 0
M  V30 1874 O 178.606 -7.32108 -3.32074 0
M  V30 1875 H 178.338 -0.406931 -0.539799 0
M  V30 1876 H 180.892 -1.69078 -1.16626 0
M  V30 1877 H 179.122 -1.20528 -3.67437 0
M  V30 1878 H 180.811 -1.62154 -3.72103 0
M  V30 1879 H 181.577 -3.93931 -2.82919 0
M  V30 1880 H 177.456 -2.94496 -3.54673 0
M  V30 1881 H 181 -6.33852 -2.91337 0
M  V30 1882 H 176.897 -5.33543 -3.63321 0
M  V30 1883 H 177.665 -7.40598 -3.48507 0
M  V30 1884 N 180.328 1.1314 -1.09713 0
M  V30 1885 C 181.291 2.16831 -0.742751 0
M  V30 1886 C 182.291 1.59159 0.229129 0
M  V30 1887 O 183.481 1.74199 0.00693237 0
M  V30 1888 C 180.613 3.40756 -0.0989168 0
M  V30 1889 H 181.806 2.49695 -1.66109 0
M  V30 1890 H 179.359 1.2802 -0.896699 0
M  V30 1891 H 180.094 3.13485 0.830514 0
M  V30 1892 H 179.879 3.83888 -0.798265 0
M  V30 1893 H 181.369 4.17386 0.133524 0
M  V30 1894 N 181.806 0.884767 1.30421 0
M  V30 1895 C 182.756 0.322846 2.25703 0
M  V30 1896 C 183.74 -0.548582 1.51259 0
M  V30 1897 O 184.932 -0.39304 1.72581 0
M  V30 1898 C 182.061 -0.461787 3.4018 0
M  V30 1899 C 181.147 0.423717 4.21978 0
M  V30 1900 N 181.538 1.52408 4.82292 0
M  V30 1901 C 179.836 0.218795 4.45463 0
M  V30 1902 C 180.537 2.07136 5.43571 0
M  V30 1903 N 179.513 1.36635 5.26148 0
M  V30 1904 H 183.315 1.16363 2.69883 0
M  V30 1905 H 180.829 0.73415 1.44859 0
M  V30 1906 H 182.826 -0.880985 4.07485 0
M  V30 1907 H 181.486 -1.30001 2.9754 0
M  V30 1908 H 182.497 1.90693 4.81515 0
M  V30 1909 H 179.174 -0.582275 4.1342 0
M  V30 1910 H 180.564 2.99538 6.01437 0
M  V30 1911 N 183.284 -1.43765 0.645699 0
M  V30 1912 C 184.512 -2.06253 0.163556 0
M  V30 1913 C 184.927 -1.48352 -1.16778 0
M  V30 1914 O 184.284 -0.611932 -1.71935 0
M  V30 1915 C 184.335 -3.61453 0.0583186 0
M  V30 1916 O 184.056 -4.172 1.33702 0
M  V30 1917 C 185.557 -4.41002 -0.450795 0
M  V30 1918 H 182.777 -0.665413 0.0864077 0
M  V30 1919 H 185.321 -1.84396 0.884222 0
M  V30 1920 H 183.476 -3.82522 -0.612865 0
M  V30 1921 H 183.89 -5.10791 1.19131 0
M  V30 1922 H 185.364 -5.49966 -0.473403 0
M  V30 1923 H 185.841 -4.13488 -1.48068 0
M  V30 1924 H 186.447 -4.24886 0.187637 0
M  V30 1925 N 184.763 -0.387143 -1.52771 0
M  V30 1926 C 186.04 0.253197 -1.93954 0
M  V30 1927 C 186.42 1.64545 -1.32243 0
M  V30 1928 O 185.768 2.23191 -0.489699 0
M  V30 1929 C 185.978 0.281722 -3.47861 0
M  V30 1930 C 187.326 0.511715 -4.21505 0
M  V30 1931 O 188.35 0.362023 -3.54356 0
M  V30 1932 O 187.209 0.804847 -5.40541 0
M  V30 1933 H 184.303 0.156845 -0.811991 0
M  V30 1934 H 186.849 -0.441494 -1.63856 0
M  V30 1935 H 185.621 -0.693571 -3.85104 0
M  V30 1936 H 185.244 1.02142 -3.84256 0
M  V30 1937 N 186.241 1.57166 -0.116904 0
M  V30 1938 C 187.481 1.97008 0.544715 0
M  V30 1939 C 187.845 0.998713 1.63981 0
M  V30 1940 O 189.046 1.28644 2.36018 0
M  V30 1941 C 187.317 3.41145 1.06559 0
M  V30 1942 S 188.876 4.02998 1.73603 0
M  V30 1943 H 185.694 0.688587 0.177112 0
M  V30 1944 H 188.296 1.94459 -0.201487 0
M  V30 1945 H 187 4.09592 0.257374 0
M  V30 1946 H 186.531 3.4734 1.84712 0
M  V30 1947 H 188.546 3.93585 3.02168 0
M  V30 1948 N 187.719 -0.156864 1.56817 0
M  V30 1949 C 189.13 -0.717916 1.72345 0
M  V30 1950 C 189.481 -1.82124 0.729747 0
M  V30 1951 O 188.606 -2.16141 -0.105781 0
M  V30 1952 C 189.201 -1.30904 3.12489 0
M  V30 1953 C 187.76 -1.81676 3.29653 0
M  V30 1954 C 186.907 -0.701349 2.68284 0
M  V30 1955 H 189.858 0.0686989 1.58551 0
M  V30 1956 H 189.879 -2.17882 3.11942 0
M  V30 1957 H 189.391 -0.505796 3.8479 0
M  V30 1958 H 187.492 -2.64598 2.62333 0
M  V30 1959 H 187.605 -1.95226 4.3752 0
M  V30 1960 H 185.969 -1.12548 2.28484 0
M  V30 1961 H 186.752 0.0902846 3.43181 0
M  V30 1962 N 189.197 -1.51736 -0.425897 0
M  V30 1963 C 190.445 -1.64644 -1.17204 0
M  V30 1964 C 190.766 -0.370486 -1.91448 0
M  V30 1965 O 190.036 0.614088 -1.86026 0
M  V30 1966 H 188.616 -0.606819 -0.435638 0
M  V30 1967 H 191.278 -1.88713 -0.487177 0
M  V30 1968 H 190.374 -2.47958 -1.89534 0
M  V30 1969 N 190.675 0.682077 -1.42076 0
M  V30 1970 C 191.625 1.78823 -1.41444 0
M  V30 1971 C 192.609 1.58323 -0.28681 0
M  V30 1972 O 193.801 1.68926 -0.528498 0
M  V30 1973 C 190.93 3.17232 -1.3122 0
M  V30 1974 C 190.016 3.4338 -2.489 0
M  V30 1975 N 190.407 3.40152 -3.7434 0
M  V30 1976 C 188.705 3.73986 -2.43003 0
M  V30 1977 C 189.406 3.65581 -4.52466 0
M  V30 1978 N 188.382 3.85989 -3.8277 0
M  V30 1979 H 192.184 1.7471 -2.36334 0
M  V30 1980 H 189.698 0.882622 -1.36321 0
M  V30 1981 H 191.695 3.96489 -1.2885 0
M  V30 1982 H 190.355 3.22547 -0.373263 0
M  V30 1983 H 191.366 3.20221 -4.07037 0
M  V30 1984 H 188.043 3.86591 -1.57651 0
M  V30 1985 H 189.433 3.69108 -5.61435 0
M  V30 1986 N 192.153 1.28127 0.917671 0
M  V30 1987 C 193.116 1.11744 2.00115 0
M  V30 1988 C 194.116 0.0583052 1.60694 0
M  V30 1989 O 195.306 0.303755 1.71531 0
M  V30 1990 C 192.438 0.704862 3.33533 0
M  V30 1991 H 193.631 2.07966 2.16079 0
M  V30 1992 H 191.184 1.11058 1.09981 0
M  V30 1993 H 191.919 -0.258299 3.2327 0
M  V30 1994 H 191.704 1.4699 3.63505 0
M  V30 1995 H 193.194 0.612768 4.1308 0
M  V30 1996 N 193.631 -1.12557 1.10312 0
M  V30 1997 C 194.908 -1.80363 0.756878 0
M  V30 1998 C 195.288 -1.97067 -0.756824 0
M  V30 1999 O 194.636 -1.54601 -1.68259 0
M  V30 2000 C 194.846 -3.14812 1.50647 0
M  V30 2001 C 196.194 -3.90029 1.67817 0
M  V30 2002 O 197.218 -3.24464 1.46974 0
M  V30 2003 O 196.077 -5.07652 2.02365 0
M  V30 2004 H 193.171 -0.780667 0.272926 0
M  V30 2005 H 195.717 -1.19404 1.20586 0
M  V30 2006 H 194.489 -2.97936 2.53672 0
M  V30 2007 H 194.112 -3.83478 1.05026 0
M  V30 2008 N 195.109 -0.891671 -1.2995 0
M  V30 2009 C 196.339 -0.527893 -1.99742 0
M  V30 2010 C 196.747 0.88979 -1.66971 0
M  V30 2011 O 196.09 1.59766 -0.906667 0
M  V30 2012 C 196.152 -0.630804 -3.53922 0
M  V30 2013 C 195.816 -2.01401 -4.10228 0
M  V30 2014 C 196.813 -2.98422 -4.25724 0
M  V30 2015 C 194.498 -2.32121 -4.45449 0
M  V30 2016 C 196.492 -4.24293 -4.75662 0
M  V30 2017 C 194.179 -3.58237 -4.95086 0
M  V30 2018 C 195.177 -4.54137 -5.10146 0
M  V30 2019 O 194.865 -5.78014 -5.58708 0
M  V30 2020 H 194.597 -0.201953 -0.645129 0
M  V30 2021 H 197.151 -1.20076 -1.66646 0
M  V30 2022 H 195.381 0.0990616 -3.86573 0
M  V30 2023 H 197.07 -0.277338 -4.04951 0
M  V30 2024 H 197.836 -2.76001 -3.98809 0
M  V30 2025 H 193.715 -1.5824 -4.32991 0
M  V30 2026 H 197.259 -4.99153 -4.87332 0
M  V30 2027 H 193.156 -3.80491 -5.21437 0
M  V30 2028 H 193.924 -5.8049 -5.77039 0
M  V30 2029 N 196.587 1.43421 -0.653314 0
M  V30 2030 C 197.833 2.02111 -0.166992 0
M  V30 2031 C 198.166 1.51423 1.21592 0
M  V30 2032 O 197.441 0.707389 1.8118 0
M  V30 2033 C 197.724 3.5966 -0.177948 0
M  V30 2034 C 197.577 4.20579 -1.59478 0
M  V30 2035 C 198.896 4.37413 0.4856 0
M  V30 2036 H 196.015 0.734374 -0.0621557 0
M  V30 2037 H 198.657 1.70717 -0.834016 0
M  V30 2038 H 196.807 3.86537 0.390032 0
M  V30 2039 H 198.479 4.04732 -2.21336 0
M  V30 2040 H 196.722 3.77226 -2.14204 0
M  V30 2041 H 197.393 5.29665 -1.5543 0
M  V30 2042 H 199.869 4.161 0.00234528 0
M  V30 2043 H 198.745 5.47075 0.447207 0
M  V30 2044 H 199.006 4.13672 1.55974 0
M  V30 2045 N 198.065 0.39524 1.52563 0
M  V30 2046 C 199.012 -0.437036 2.26624 0
M  V30 2047 C 199.982 -1.05281 1.28472 0
M  V30 2048 O 201.167 -1.07971 1.57311 0
M  V30 2049 C 198.307 -1.55524 3.08069 0
M  V30 2050 C 197.42 -0.961745 4.21158 0
M  V30 2051 C 196.555 -2.05149 4.89987 0
M  V30 2052 C 195.594 -1.4342 5.95061 0
M  V30 2053 N 194.731 -2.46351 6.57462 0
M  V30 2054 H 199.571 0.200976 2.97322 0
M  V30 2055 H 197.108 0.110944 1.46681 0
M  V30 2056 H 199.066 -2.21437 3.53584 0
M  V30 2057 H 197.696 -2.16348 2.3957 0
M  V30 2058 H 196.748 -0.192048 3.79915 0
M  V30 2059 H 198.06 -0.470701 4.96574 0
M  V30 2060 H 197.214 -2.78819 5.38837 0
M  V30 2061 H 195.953 -2.57615 4.14109 0
M  V30 2062 H 194.958 -0.682774 5.45544 0
M  V30 2063 H 196.183 -0.917416 6.72875 0
M  V30 2064 H 194.129 -2.97975 5.8442 0
M  V30 2065 H 194.046 -2.02019 7.28508 0
M  V30 2066 H 195.314 -3.19633 7.10954 0
M  V30 2067 N 199.544 -1.57102 0.125237 0
M  V30 2068 C 200.492 -2.16905 -0.839927 0
M  V30 2069 C 201.486 -1.11998 -1.27094 0
M  V30 2070 O 202.692 -1.3029 -1.24195 0
M  V30 2071 H 199.067 -0.694252 -0.288995 0
M  V30 2072 H 201.038 -2.96774 -0.311115 0
M  V30 2073 C 199.787 -2.78795 -2.07771 0
M  V30 2074 H 199.11 -3.59221 -1.755 0
M  V30 2075 H 200.55 -3.2417 -2.73295 0
M  V30 2076 C 199.009 -1.76193 -2.87155 0
M  V30 2077 O 199.539 -1.21909 -3.82755 0
M  V30 2078 N 197.745 -1.45991 -2.51267 0
M  V30 2079 H 197.292 -1.90325 -1.73592 0
M  V30 2080 H 197.25 -0.775844 -3.04677 0
M  V30 2081 N 201.022 0.148545 -1.56898 0
M  V30 2082 C 201.955 1.21293 -1.93296 0
M  V30 2083 C 202.933 1.41637 -0.798599 0
M  V30 2084 O 204.117 1.56275 -1.05406 0
M  V30 2085 C 201.244 2.5721 -2.20365 0
M  V30 2086 C 200.29 2.53469 -3.4301 0
M  V30 2087 S 201.123 2.00315 -4.96623 0
M  V30 2088 C 202.279 3.37964 -5.26812 0
M  V30 2089 H 202.512 0.902393 -2.83274 0
M  V30 2090 H 200.045 0.354094 -1.50285 0
M  V30 2091 H 202.003 3.35427 -2.36641 0
M  V30 2092 H 200.664 2.85454 -1.31054 0
M  V30 2093 H 199.857 3.53518 -3.59223 0
M  V30 2094 H 199.459 1.83359 -3.25968 0
M  V30 2095 H 201.751 4.34066 -5.20185 0
M  V30 2096 H 202.694 3.26606 -6.28279 0
M  V30 2097 H 203.102 3.35028 -4.54331 0
M  V30 2098 N 202.5 1.5196 0.417844 0
M  V30 2099 C 203.749 1.6482 1.16264 0
M  V30 2100 C 204.062 0.379886 1.91876 0
M  V30 2101 O 205.268 0.388154 2.68711 0
M  V30 2102 C 203.724 2.91161 2.1155 0
M  V30 2103 C 203.332 4.25068 1.41495 0
M  V30 2104 C 205.076 3.13383 2.86341 0
M  V30 2105 C 202.983 5.42541 2.35379 0
M  V30 2106 H 201.913 0.613954 0.437694 0
M  V30 2107 H 204.564 1.78442 0.427871 0
M  V30 2108 H 202.946 2.71218 2.88543 0
M  V30 2109 H 204.12 4.55463 0.699263 0
M  V30 2110 H 202.435 4.0888 0.787792 0
M  V30 2111 H 205.032 3.98324 3.5671 0
M  V30 2112 H 205.375 2.27256 3.48798 0
M  V30 2113 H 205.908 3.33757 2.1645 0
M  V30 2114 H 202.647 6.30987 1.77582 0
M  V30 2115 H 202.167 5.16497 3.04945 0
M  V30 2116 H 203.846 5.75272 2.96093 0
M  V30 2117 N 203.978 -0.674533 1.42435 0
M  V30 2118 C 205.206 -1.46283 1.46317 0
M  V30 2119 C 205.621 -1.88653 0.0745836 0
M  V30 2120 O 204.978 -1.58151 -0.91074 0
M  V30 2121 C 205.029 -2.71178 2.3905 0
M  V30 2122 O 204.75 -2.30586 3.72507 0
M  V30 2123 C 206.251 -3.64738 2.51955 0
M  V30 2124 H 203.471 -0.450104 0.497642 0
M  V30 2125 H 206.015 -0.828792 1.86953 0
M  V30 2126 H 204.17 -3.3077 2.01667 0
M  V30 2127 H 204.584 -3.11241 4.22172 0
M  V30 2128 H 206.058 -4.49096 3.20962 0
M  V30 2129 H 206.535 -4.10656 1.55752 0
M  V30 2130 H 207.141 -3.11038 2.90061 0
M  V30 2131 N 205.456 -1.28612 -0.910864 0
M  V30 2132 C 206.704 -1.15705 -1.65701 0
M  V30 2133 C 207.025 0.29416 -1.92769 0
M  V30 2134 O 206.295 1.20331 -1.54588 0
M  V30 2135 H 204.875 -0.425216 -0.614167 0
M  V30 2136 H 207.537 -1.61381 -1.0928 0
M  V30 2137 H 206.633 -1.6988 -2.61815 0
M  V30 2138 N 206.934 1.1197 -1.10907 0
M  V30 2139 C 208.162 1.87402 -0.876824 0
M  V30 2140 C 208.577 1.79894 0.573025 0
M  V30 2141 O 207.934 1.17629 1.39534 0
M  V30 2142 C 207.985 3.36428 -1.32282 0
M  V30 2143 O 207.706 3.43765 -2.71582 0
M  V30 2144 C 209.207 4.28783 -1.12518 0
M  V30 2145 H 206.427 0.592793 -0.314384 0
M  V30 2146 H 208.971 1.41649 -1.47499 0
M  V30 2147 H 207.126 3.79706 -0.768229 0
M  V30 2148 H 207.54 4.3652 -2.90776 0
M  V30 2149 H 209.014 5.31613 -1.48633 0
M  V30 2150 H 209.491 4.39153 -0.0642394 0
M  V30 2151 H 210.097 3.91291 -1.66648 0
M  V30 2152 N 208.412 0.89855 1.29475 0
M  V30 2153 C 209.375 0.380272 2.26023 0
M  V30 2154 C 210.375 -0.484891 1.53315 0
M  V30 2155 O 211.565 -0.290108 1.71767 0
M  V30 2156 C 208.697 -0.45651 3.3783 0
M  V30 2157 H 209.89 1.23295 2.73383 0
M  V30 2158 H 207.443 0.676589 1.40897 0
M  V30 2159 H 208.178 -1.32922 2.95808 0
M  V30 2160 H 207.963 0.163393 3.91759 0
M  V30 2161 H 209.453 -0.810466 4.0966 0
M  V30 2162 N 209.89 -1.43072 0.660911 0
M  V30 2163 C 211.301 -1.84932 0.256348 0
M  V30 2164 C 211.652 -1.55325 -1.19868 0
M  V30 2165 O 210.777 -1.00607 -1.91591 0
M  V30 2166 C 211.372 -3.35684 0.458475 0
M  V30 2167 C 209.931 -3.76245 0.108161 0
M  V30 2168 C 209.078 -2.66749 0.757641 0
M  V30 2169 H 212.029 -1.33116 0.864051 0
M  V30 2170 H 212.05 -3.79365 -0.293683 0
M  V30 2171 H 211.562 -3.572 1.51755 0
M  V30 2172 H 209.663 -3.60338 -0.948014 0
M  V30 2173 H 209.776 -4.76058 0.538992 0
M  V30 2174 H 208.14 -2.53989 0.190185 0
M  V30 2175 H 208.923 -2.91092 1.81989 0
M  V30 2176 N 211.368 -0.403325 -1.52352 0
M  V30 2177 C 212.298 0.416205 -2.29761 0
M  V30 2178 C 213.279 1.05123 -1.33728 0
M  V30 2179 O 214.464 1.06134 -1.62632 0
M  V30 2180 C 211.594 1.53624 -3.11475 0
M  V30 2181 C 210.548 1.02653 -4.15507 0
M  V30 2182 C 209.874 2.23971 -4.85532 0
M  V30 2183 C 211.174 0.08463 -5.22231 0
M  V30 2184 H 212.868 -0.229701 -2.98518 0
M  V30 2185 H 210.414 -0.111913 -1.43564 0
M  V30 2186 H 212.367 2.1165 -3.64393 0
M  V30 2187 H 211.091 2.20994 -2.40477 0
M  V30 2188 H 209.75 0.46871 -3.63591 0
M  V30 2189 H 209.398 2.89883 -4.11068 0
M  V30 2190 H 209.098 1.90521 -5.55856 0
M  V30 2191 H 210.622 2.82614 -5.41259 0
M  V30 2192 H 212.036 0.573509 -5.70424 0
M  V30 2193 H 210.433 -0.160783 -5.99885 0
M  V30 2194 H 211.503 -0.86237 -4.7717 0
M  V30 2195 N 212.846 1.57033 -0.133567 0
M  V30 2196 C 214.123 1.87256 0.56522 0
M  V30 2197 C 214.503 1.03726 1.83859 0
M  V30 2198 O 213.851 0.120247 2.28183 0
M  V30 2199 C 214.061 3.3865 0.843636 0
M  V30 2200 C 215.409 4.07574 1.19032 0
M  V30 2201 O 216.433 3.43752 0.933429 0
M  V30 2202 O 215.292 5.20259 1.67312 0
M  V30 2203 H 212.386 0.775678 0.286796 0
M  V30 2204 H 214.932 1.68855 -0.169168 0
M  V30 2205 H 213.704 3.91257 -0.0581149 0
M  V30 2206 H 213.327 3.62532 1.63268 0
M  V30 2207 N 214.325 -0.140222 1.56975 0
M  V30 2208 C 215.573 -0.850005 1.83356 0
M  V30 2209 C 215.894 -1.81399 0.71551 0
M  V30 2210 O 215.164 -1.94136 -0.262294 0
M  V30 2211 H 213.744 -0.316886 0.676456 0
M  V30 2212 H 216.406 -0.132608 1.94448 0
M  V30 2213 H 215.502 -1.40814 2.78528 0
M  V30 2214 N 215.803 -1.52179 -0.40978 0
M  V30 2215 C 217.043 -1.67882 -1.16597 0
M  V30 2216 C 217.407 -0.399795 -1.87791 0
M  V30 2217 O 218.608 -0.43292 -2.65291 0
M  V30 2218 C 216.879 -2.86662 -2.13448 0
M  V30 2219 S 218.438 -3.22843 -2.97183 0
M  V30 2220 H 215.256 -0.59118 -0.395002 0
M  V30 2221 H 217.858 -1.9017 -0.453373 0
M  V30 2222 H 216.562 -3.77998 -1.59831 0
M  V30 2223 H 216.093 -2.66645 -2.89247 0
M  V30 2224 H 218.108 -2.71415 -4.15389 0
M  V30 2225 N 217.281 0.66697 -1.42791 0
M  V30 2226 C 218.53 1.42278 -1.42968 0
M  V30 2227 C 218.843 1.9553 -0.0524489 0
M  V30 2228 O 220.049 2.71414 0.068363 0
M  V30 2229 C 218.505 2.57418 -2.51524 0
M  V30 2230 C 218.113 2.10832 -3.9529 0
M  V30 2231 C 219.857 3.34878 -2.60877 0
M  V30 2232 C 217.764 3.23101 -4.95338 0
M  V30 2233 H 216.694 0.534533 -0.531781 0
M  V30 2234 H 219.345 0.721302 -1.68729 0
M  V30 2235 H 217.727 3.29971 -2.18941 0
M  V30 2236 H 218.901 1.4538 -4.37266 0
M  V30 2237 H 217.216 1.46289 -3.89857 0
M  V30 2238 H 219.813 4.18505 -3.32802 0
M  V30 2239 H 220.156 3.81993 -1.6549 0
M  V30 2240 H 220.689 2.69398 -2.92693 0
M  V30 2241 H 217.428 2.80969 -5.9223 0
M  V30 2242 H 216.948 3.87309 -4.57987 0
M  V30 2243 H 218.627 3.88447 -5.17415 0
M  V30 2244 N 218.759 1.29093 0.90403 0
M  V30 2245 C 219.689 1.16401 2.02418 0
M  V30 2246 C 220.67 0.0593085 1.69997 0
M  V30 2247 O 221.855 0.238021 1.92736 0
M  V30 2248 C 218.985 0.835233 3.37107 0
M  V30 2249 C 217.939 1.89578 3.83724 0
M  V30 2250 C 217.265 1.42041 5.15489 0
M  V30 2251 C 218.565 3.30394 4.04521 0
M  V30 2252 H 220.259 2.10109 2.13295 0
M  V30 2253 H 217.805 1.01157 1.02486 0
M  V30 2254 H 219.758 0.733169 4.14973 0
M  V30 2255 H 218.482 -0.137543 3.2631 0
M  V30 2256 H 217.141 1.98715 3.08071 0
M  V30 2257 H 216.789 0.436426 5.01103 0
M  V30 2258 H 216.489 2.12964 5.4765 0
M  V30 2259 H 218.013 1.33176 5.959 0
M  V30 2260 H 219.427 3.24123 4.72882 0
M  V30 2261 H 217.824 3.99237 4.48029 0
M  V30 2262 H 218.894 3.73692 3.09002 0
M  V30 2263 N 220.237 -1.11381 1.11499 0
M  V30 2264 C 221.483 -1.83403 0.865512 0
M  V30 2265 C 221.816 -1.84459 -0.607329 0
M  V30 2266 O 221.091 -1.29811 -1.44842 0
M  V30 2267 C 221.374 -3.30552 1.42855 0
M  V30 2268 C 221.227 -3.37886 2.96906 0
M  V30 2269 C 222.546 -4.26643 1.08 0
M  V30 2270 H 219.665 -0.665879 0.31587 0
M  V30 2271 H 222.307 -1.30601 1.37998 0
M  V30 2272 H 220.457 -3.75648 0.990985 0
M  V30 2273 H 222.129 -3.01343 3.49271 0
M  V30 2274 H 220.372 -2.78088 3.32941 0
M  V30 2275 H 221.043 -4.41458 3.31389 0
M  V30 2276 H 223.519 -3.89729 1.45775 0
M  V30 2277 H 222.395 -5.27986 1.50072 0
M  V30 2278 H 222.656 -4.42099 -0.00915037 0
M  V30 2279 N 221.715 -0.905404 -1.28997 0
M  V30 2280 C 222.961 -0.535039 -1.95615 0
M  V30 2281 C 223.294 0.917404 -1.71165 0
M  V30 2282 O 222.569 1.65123 -1.02785 0
M  V30 2283 C 222.852 -0.834918 -3.50287 0
M  V30 2284 C 222.705 -2.33948 -3.84172 0
M  V30 2285 C 224.024 -0.325318 -4.38896 0
M  V30 2286 H 221.143 -0.195861 -0.710498 0
M  V30 2287 H 223.785 -1.13313 -1.52513 0
M  V30 2288 H 221.935 -0.325904 -3.87131 0
M  V30 2289 H 223.607 -2.91847 -3.57243 0
M  V30 2290 H 221.85 -2.79789 -3.31513 0
M  V30 2291 H 222.521 -2.49987 -4.92149 0
M  V30 2292 H 224.997 -0.761256 -4.09077 0
M  V30 2293 H 223.873 -0.564295 -5.45992 0
M  V30 2294 H 224.134 0.774144 -4.35269 0
M  V30 2295 N 223.193 1.4272 -0.668489 0
M  V30 2296 C 224.156 2.292 0.00448567 0
M  V30 2297 C 225.156 1.43001 0.735339 0
M  V30 2298 O 226.346 1.64461 0.57429 0
M  V30 2299 C 223.478 3.25375 1.01705 0
M  V30 2300 H 224.671 2.90199 -0.756608 0
M  V30 2301 H 222.224 1.50254 -0.430506 0
M  V30 2302 H 222.959 2.69301 1.80686 0
M  V30 2303 H 222.744 3.88944 0.496463 0
M  V30 2304 H 224.234 3.90245 1.48655 0
M  V30 2305 N 224.671 0.411399 1.52136 0
M  V30 2306 C 225.634 -0.401089 2.25663 0
M  V30 2307 C 226.634 -0.971732 1.28117 0
M  V30 2308 O 227.824 -0.850254 1.52041 0
M  V30 2309 C 224.956 -1.56483 3.02863 0
M  V30 2310 H 226.149 0.24295 2.98914 0
M  V30 2311 H 223.702 0.163968 1.55438 0
M  V30 2312 H 224.437 -2.24567 2.33967 0
M  V30 2313 H 224.222 -1.16211 3.74483 0
M  V30 2314 H 225.712 -2.13951 3.58629 0
M  V30 2315 N 226.149 -1.5696 0.141893 0
M  V30 2316 C 227.097 -2.17784 -0.816874 0
M  V30 2317 C 228.091 -1.1334 -1.25899 0
M  V30 2318 O 229.297 -1.316 -1.22806 0
M  V30 2319 H 225.672 -0.697278 -0.281615 0
M  V30 2320 H 227.643 -2.97087 -0.279621 0
M  V30 2321 C 226.392 -2.80983 -2.04802 0
M  V30 2322 H 225.715 -3.61062 -1.7168 0
M  V30 2323 H 227.155 -3.2705 -2.69841 0
M  V30 2324 C 225.614 -1.79228 -2.8527 0
M  V30 2325 O 226.144 -1.25962 -3.8144 0
M  V30 2326 N 224.35 -1.48647 -2.49704 0
M  V30 2327 H 223.897 -1.92155 -1.71564 0
M  V30 2328 H 223.855 -0.808115 -3.03837 0
M  V30 2329 N 227.627 0.131896 -1.57047 0
M  V30 2330 C 228.904 0.871495 -1.75112 0
M  V30 2331 C 229.284 1.9866 -0.713949 0
M  V30 2332 O 228.632 2.26965 0.264447 0
M  V30 2333 C 228.842 1.40007 -3.19686 0
M  V30 2334 C 230.19 1.85752 -3.81813 0
M  V30 2335 O 231.214 1.49715 -3.23209 0
M  V30 2336 O 230.073 2.5226 -4.84796 0
M  V30 2337 H 227.167 0.412919 -0.716538 0
M  V30 2338 H 229.713 0.116641 -1.69299 0
M  V30 2339 H 228.485 0.599404 -3.86682 0
M  V30 2340 H 228.108 2.218 -3.29986 0
M  V30 2341 N 229.106 1.52395 0.401703 0
M  V30 2342 C 230.354 1.66488 1.14569 0
M  V30 2343 C 230.675 0.400897 1.90835 0
M  V30 2344 O 229.945 -0.584415 1.8698 0
M  V30 2345 H 228.525 0.613672 0.425929 0
M  V30 2346 H 231.187 1.89464 0.457093 0
M  V30 2347 H 230.283 2.50942 1.85566 0
M  V30 2348 N 230.584 -0.659388 1.43143 0
M  V30 2349 C 231.995 -1.24041 1.39537 0
M  V30 2350 C 232.346 -1.95963 0.0963364 0
M  V30 2351 O 231.471 -2.00892 -0.804438 0
M  V30 2352 C 232.066 -2.25601 2.52764 0
M  V30 2353 C 230.625 -2.79195 2.52443 0
M  V30 2354 C 229.772 -1.53743 2.30778 0
M  V30 2355 H 232.723 -0.451792 1.52133 0
M  V30 2356 H 232.744 -3.07651 2.23899 0
M  V30 2357 H 232.256 -1.73226 3.47296 0
M  V30 2358 H 230.357 -3.35649 1.61773 0
M  V30 2359 H 230.47 -3.2716 3.50004 0
M  V30 2360 H 228.834 -1.80869 1.79328 0
M  V30 2361 H 229.617 -1.03312 3.27386 0
M  V30 2362 N 232.062 -1.29571 -0.897171 0
M  V30 2363 C 232.995 -1.0924 -2.00354 0
M  V30 2364 C 233.973 -0.00354011 -1.626 0
M  V30 2365 O 235.157 -0.15473 -1.87864 0
M  V30 2366 C 232.284 -0.66352 -3.32137 0
M  V30 2367 C 231.33 -1.75146 -3.88878 0
M  V30 2368 S 232.163 -3.35124 -4.17674 0
M  V30 2369 C 233.319 -2.9411 -5.52494 0
M  V30 2370 H 233.552 -2.02907 -2.17292 0
M  V30 2371 H 231.085 -1.13746 -1.04408 0
M  V30 2372 H 233.043 -0.422791 -4.08317 0
M  V30 2373 H 231.704 0.253588 -3.13075 0
M  V30 2374 H 230.897 -1.40337 -4.84068 0
M  V30 2375 H 230.499 -1.94584 -3.19395 0
M  V30 2376 H 232.791 -2.41312 -6.33068 0
M  V30 2377 H 233.734 -3.88161 -5.9223 0
M  V30 2378 H 234.142 -2.32332 -5.14473 0
M  V30 2379 N 233.54 1.10788 -1.12088 0
M  V30 2380 C 234.951 1.64181 -0.88891 0
M  V30 2381 C 235.302 1.87508 0.577498 0
M  V30 2382 O 234.427 1.61434 1.44112 0
M  V30 2383 C 235.022 2.98257 -1.60712 0
M  V30 2384 C 233.581 3.4853 -1.42139 0
M  V30 2385 C 232.728 2.23208 -1.6454 0
M  V30 2386 H 235.679 0.943368 -1.27618 0
M  V30 2387 H 235.7 3.65552 -1.05604 0
M  V30 2388 H 235.212 2.81246 -2.67436 0
M  V30 2389 H 233.313 3.70692 -0.376552 0
M  V30 2390 H 233.426 4.26882 -2.17505 0
M  V30 2391 H 231.79 2.31169 -1.06925 0
M  V30 2392 H 232.573 2.08733 -2.72554 0
M  V30 2393 N 235.018 0.912232 1.28515 0
M  V30 2394 C 235.95 0.35676 2.26406 0
M  V30 2395 C 236.963 -0.503933 1.54804 0
M  V30 2396 O 238.152 -0.319059 1.75625 0
M  V30 2397 C 235.252 -0.508825 3.35058 0
M  V30 2398 C 234.425 0.329007 4.36161 0
M  V30 2399 C 233.484 -0.471422 5.24084 0
M  V30 2400 O 232.51 0.115482 5.69083 0
M  V30 2401 N 233.712 -1.77479 5.52704 0
M  V30 2402 H 236.477 1.19818 2.74707 0
M  V30 2403 H 234.038 0.778022 1.4198 0
M  V30 2404 H 236.03 -1.051 3.90815 0
M  V30 2405 H 234.6 -1.25095 2.86478 0
M  V30 2406 H 233.82 1.05256 3.79888 0
M  V30 2407 H 235.108 0.90234 5.00735 0
M  V30 2408 H 234.506 -2.27417 5.17975 0
M  V30 2409 H 233.063 -2.26382 6.11224 0
M  V30 2410 N 236.496 -1.42363 0.676048 0
M  V30 2411 C 237.724 -2.05859 0.207268 0
M  V30 2412 C 238.139 -1.50796 -1.13605 0
M  V30 2413 O 237.496 -0.648265 -1.70598 0
M  V30 2414 C 237.547 -3.61248 0.134975 0
M  V30 2415 O 237.268 -4.1427 1.42521 0
M  V30 2416 C 238.769 -4.41859 -0.357151 0
M  V30 2417 H 235.989 -0.663431 0.100503 0
M  V30 2418 H 238.533 -1.82479 0.923136 0
M  V30 2419 H 236.688 -3.83735 -0.531588 0
M  V30 2420 H 237.102 -5.0815 1.29939 0
M  V30 2421 H 238.576 -5.50847 -0.356641 0
M  V30 2422 H 239.053 -4.16536 -1.39264 0
M  V30 2423 H 239.659 -4.24392 0.27772 0
M  V30 2424 N 237.974 -0.419461 -1.51915 0
M  V30 2425 C 239.39 -0.0708431 -1.59443 0
M  V30 2426 C 239.59 1.41796 -1.43164 0
M  V30 2427 O 238.646 2.18596 -1.26381 0
M  V30 2428 C 239.959 -0.574991 -2.95151 0
M  V30 2429 C 241.507 -0.533867 -3.08413 0
M  V30 2430 C 241.982 -1.01469 -4.46618 0
M  V30 2431 N 243.473 -0.971939 -4.52888 0
M  V30 2432 C 244.208 -1.31505 -5.58116 0
M  V30 2433 N 243.704 -1.73014 -6.70849 0
M  V30 2434 N 245.497 -1.23436 -5.48379 0
M  V30 2435 H 237.648 -1.38836 -1.60743 0
M  V30 2436 H 239.911 -0.570998 -0.756747 0
M  V30 2437 H 239.617 -1.61597 -3.12377 0
M  V30 2438 H 239.491 0.00979777 -3.77199 0
M  V30 2439 H 241.878 0.498086 -2.90866 0
M  V30 2440 H 241.959 -1.15484 -2.28248 0
M  V30 2441 H 241.603 -2.04502 -4.6491 0
M  V30 2442 H 241.533 -0.370433 -5.25295 0
M  V30 2443 H 244.024 -0.666893 -3.71969 0
M  V30 2444 H 244.337 -1.97479 -7.47143 0
M  V30 2445 H 242.682 -1.76926 -6.72103 0
M  V30 2446 H 245.873 -0.908869 -4.59192 0
M  V30 2447 H 246.046 -1.50506 -6.30279 0
M  V30 2448 N 239.452 1.56882 -0.150215 0
M  V30 2449 C 240.362 2.20494 0.801222 0
M  V30 2450 C 241.378 1.19019 1.26927 0
M  V30 2451 O 242.554 1.51607 1.32579 0
M  V30 2452 C 239.619 2.81659 2.02161 0
M  V30 2453 C 238.68 3.9827 1.60249 0
M  V30 2454 C 237.913 4.56508 2.7647 0
M  V30 2455 O 238.136 4.13627 3.92771 0
M  V30 2456 O 237.07 5.46719 2.51757 0
M  V30 2457 H 240.896 3.02315 0.289717 0
M  V30 2458 H 238.481 1.49202 0.0769684 0
M  V30 2459 H 240.363 3.20522 2.73576 0
M  V30 2460 H 239.038 2.02849 2.52258 0
M  V30 2461 H 237.945 3.64117 0.858477 0
M  V30 2462 H 239.278 4.78609 1.14864 0
M  V30 2463 N 240.93 -0.123565 1.57115 0
M  V30 2464 C 241.88 -1.1575 1.96433 0
M  V30 2465 C 242.864 -1.37313 0.838686 0
M  V30 2466 O 244.056 -1.38482 1.10235 0
M  V30 2467 C 241.185 -2.48526 2.36833 0
M  V30 2468 C 240.271 -2.30457 3.5602 0
M  V30 2469 N 240.662 -1.8219 4.71848 0
M  V30 2470 C 238.96 -2.61129 3.61563 0
M  V30 2471 C 239.661 -1.77721 5.53886 0
M  V30 2472 N 238.637 -2.21899 4.96248 0
M  V30 2473 H 242.439 -0.776797 2.83449 0
M  V30 2474 H 239.953 -0.331364 1.58983 0
M  V30 2475 H 241.95 -3.233 2.63216 0
M  V30 2476 H 240.61 -2.87358 1.5118 0
M  V30 2477 H 241.621 -1.51805 4.95152 0
M  V30 2478 H 238.298 -3.03678 2.86507 0
M  V30 2479 H 239.688 -1.41697 6.56789 0
M  V30 2480 N 242.408 -1.52605 -0.393616 0
M  V30 2481 C 243.338 -1.80022 -1.48709 0
M  V30 2482 C 244.319 -0.651995 -1.57108 0
M  V30 2483 O 245.504 -0.89913 -1.72132 0
M  V30 2484 C 242.634 -1.96492 -2.86371 0
M  V30 2485 C 241.588 -3.12161 -2.92813 0
M  V30 2486 C 240.914 -3.13877 -4.3288 0
M  V30 2487 C 242.214 -4.51322 -2.6288 0
M  V30 2488 H 243.908 -2.71589 -1.26015 0
M  V30 2489 H 241.454 -1.30684 -0.604778 0
M  V30 2490 H 243.407 -2.14255 -3.62867 0
M  V30 2491 H 242.131 -1.01611 -3.10391 0
M  V30 2492 H 240.79 -2.94173 -2.18764 0
M  V30 2493 H 240.438 -2.16687 -4.53933 0
M  V30 2494 H 240.138 -3.91576 -4.38112 0
M  V30 2495 H 241.662 -3.33789 -5.1129 0
M  V30 2496 H 243.076 -4.69435 -3.29096 0
M  V30 2497 H 241.473 -5.31053 -2.79468 0
M  V30 2498 H 242.543 -4.58353 -1.58242 0
M  V30 2499 N 243.887 0.651787 -1.4349 0
M  V30 2500 C 244.817 1.77621 -1.51569 0
M  V30 2501 C 245.798 1.66022 -0.370253 0
M  V30 2502 O 246.983 1.85095 -0.587658 0
M  V30 2503 C 244.113 3.16056 -1.43966 0
M  V30 2504 C 243.067 3.4242 -2.56774 0
M  V30 2505 C 242.393 4.8067 -2.34223 0
M  V30 2506 C 243.693 3.37023 -3.99015 0
M  V30 2507 H 245.387 1.71117 -2.45681 0
M  V30 2508 H 242.933 0.821825 -1.18246 0
M  V30 2509 H 244.886 3.94472 -1.48221 0
M  V30 2510 H 243.61 3.23293 -0.463586 0
M  V30 2511 H 242.269 2.66375 -2.51873 0
M  V30 2512 H 241.917 4.84585 -1.34856 0
M  V30 2513 H 241.617 4.9927 -3.09844 0
M  V30 2514 H 243.141 5.61342 -2.40265 0
M  V30 2515 H 244.555 4.05374 -4.05395 0
M  V30 2516 H 242.952 3.67159 -4.74673 0
M  V30 2517 H 244.022 2.3518 -4.2405 0
M  V30 2518 N 245.365 1.30045 0.890287 0
M  V30 2519 C 246.295 1.18541 2.01172 0
M  V30 2520 C 247.276 0.0773356 1.69924 0
M  V30 2521 O 248.461 0.25845 1.92473 0
M  V30 2522 C 245.591 0.870941 3.36202 0
M  V30 2523 C 244.545 1.93637 3.81692 0
M  V30 2524 C 243.871 1.475 5.13953 0
M  V30 2525 C 245.171 3.34666 4.00994 0
M  V30 2526 H 246.865 2.12359 2.11054 0
M  V30 2527 H 244.411 1.02238 1.01407 0
M  V30 2528 H 246.364 0.777141 4.14172 0
M  V30 2529 H 245.088 -0.102926 3.26438 0
M  V30 2530 H 243.747 2.01972 3.05946 0
M  V30 2531 H 243.395 0.489551 5.00612 0
M  V30 2532 H 243.095 2.1876 5.4536 0
M  V30 2533 H 244.619 1.39489 5.94454 0
M  V30 2534 H 246.033 3.2912 4.69417 0
M  V30 2535 H 244.43 4.03966 4.43769 0
M  V30 2536 H 245.5 3.76949 3.05021 0
M  V30 2537 N 246.843 -1.10192 1.12674 0
M  V30 2538 C 247.806 -2.14786 0.799979 0
M  V30 2539 C 248.806 -1.59711 -0.18685 0
M  V30 2540 O 249.996 -1.74156 0.0392558 0
M  V30 2541 C 247.128 -3.40374 0.189228 0
M  V30 2542 H 248.321 -2.45203 1.72671 0
M  V30 2543 H 245.874 -1.25597 0.930326 0
M  V30 2544 H 246.609 -3.15577 -0.747107 0
M  V30 2545 H 246.394 -3.81637 0.899766 0
M  V30 2546 H 247.884 -4.17594 -0.0228143 0
M  V30 2547 N 248.321 -0.919034 -1.28029 0
M  V30 2548 C 249.737 -0.617972 -1.4715 0
M  V30 2549 C 249.937 0.835242 -1.83374 0
M  V30 2550 O 248.993 1.61388 -1.94191 0
M  V30 2551 C 250.306 -1.56041 -2.57044 0
M  V30 2552 C 251.854 -1.56769 -2.7091 0
M  V30 2553 C 252.329 -2.49688 -3.83953 0
M  V30 2554 N 253.82 -2.47845 -3.91314 0
M  V30 2555 C 254.555 -3.16437 -4.78179 0
M  V30 2556 N 254.051 -3.94376 -5.69596 0
M  V30 2557 N 255.844 -3.05498 -4.71834 0
M  V30 2558 H 247.995 -1.85866 -1.02798 0
M  V30 2559 H 250.258 -0.797506 -0.512531 0
M  V30 2560 H 249.964 -2.59671 -2.372 0
M  V30 2561 H 249.838 -1.29551 -3.54255 0
M  V30 2562 H 252.225 -0.538745 -2.90141 0
M  V30 2563 H 252.306 -1.87305 -1.74214 0
M  V30 2564 H 251.95 -3.52688 -3.65477 0
M  V30 2565 H 251.88 -2.16453 -4.80058 0
M  V30 2566 H 254.371 -1.91234 -3.25941 0
M  V30 2567 H 254.684 -4.43721 -6.32718 0
M  V30 2568 H 253.029 -3.98481 -5.69419 0
M  V30 2569 H 256.22 -2.44108 -3.99411 0
M  V30 2570 H 256.393 -3.59225 -5.39316 0
M  V30 2571 N 249.799 1.42003 -0.683588 0
M  V30 2572 C 250.731 2.29183 0.0283068 0
M  V30 2573 C 251.744 1.4415 0.756611 0
M  V30 2574 O 252.933 1.67779 0.609306 0
M  V30 2575 C 250.033 3.21765 1.06398 0
M  V30 2576 C 249.206 4.35496 0.407723 0
M  V30 2577 C 248.265 5.08737 1.34437 0
M  V30 2578 O 247.291 5.62948 0.841318 0
M  V30 2579 N 248.493 5.15075 2.67728 0
M  V30 2580 H 251.258 2.9092 -0.720105 0
M  V30 2581 H 248.819 1.53025 -0.528682 0
M  V30 2582 H 250.811 3.6763 1.69204 0
M  V30 2583 H 249.381 2.61418 1.71404 0
M  V30 2584 H 248.601 3.92165 -0.400012 0
M  V30 2585 H 249.889 5.08776 -0.0490956 0
M  V30 2586 H 249.287 4.72457 3.11129 0
M  V30 2587 H 247.844 5.64556 3.2576 0
M  V30 2588 N 251.277 0.427512 1.51691 0
M  V30 2589 C 252.526 -0.143679 2.01188 0
M  V30 2590 C 252.839 -1.44642 1.31674 0
M  V30 2591 O 254.045 -2.09997 1.72086 0
M  V30 2592 C 252.501 -0.306602 3.58592 0
M  V30 2593 C 252.109 0.985125 4.37035 0
M  V30 2594 C 253.853 -0.832091 4.16265 0
M  V30 2595 C 251.76 0.788382 5.86122 0
M  V30 2596 H 250.69 -0.0574701 0.751807 0
M  V30 2597 H 253.341 0.555772 1.74881 0
M  V30 2598 H 251.723 -1.06882 3.81303 0
M  V30 2599 H 252.897 1.75492 4.26074 0
M  V30 2600 H 251.212 1.4384 3.90767 0
M  V30 2601 H 253.809 -0.995617 5.25349 0
M  V30 2602 H 254.152 -1.81186 3.74803 0
M  V30 2603 H 254.685 -0.128444 3.97593 0
M  V30 2604 H 251.424 1.74025 6.31978 0
M  V30 2605 H 250.944 0.0582143 5.99772 0
M  V30 2606 H 252.623 0.437722 6.45518 0
M  V30 2607 N 252.755 -1.56801 0.158532 0
M  V30 2608 C 254.003 -1.96102 -0.488712 0
M  V30 2609 C 254.324 -1.04498 -1.64636 0
M  V30 2610 O 253.594 -0.108783 -1.95598 0
M  V30 2611 H 252.174 -0.724102 -0.183535 0
M  V30 2612 H 254.836 -1.93457 0.236728 0
M  V30 2613 H 253.932 -3.00097 -0.857219 0
M  V30 2614 N 254.233 0.115231 -1.57178 0
M  V30 2615 C 255.479 0.82357 -1.85325 0
M  V30 2616 C 255.812 1.79349 -0.744814 0
M  V30 2617 O 255.087 1.92899 0.249024 0
M  V30 2618 C 255.37 1.57014 -3.24066 0
M  V30 2619 C 255.223 0.619565 -4.45513 0
M  V30 2620 C 256.542 2.52545 -3.60429 0
M  V30 2621 H 253.661 0.297948 -0.674089 0
M  V30 2622 H 256.303 0.0877138 -1.89797 0
M  V30 2623 H 254.453 2.19742 -3.20383 0
M  V30 2624 H 256.125 0.000837639 -4.613 0
M  V30 2625 H 254.368 -0.0686174 -4.33746 0
M  V30 2626 H 255.039 1.17866 -5.3927 0
M  V30 2627 H 257.515 1.9992 -3.64926 0
M  V30 2628 H 256.391 3.01811 -4.58477 0
M  V30 2629 H 256.652 3.35383 -2.88047 0
M  V30 2630 N 255.711 1.52812 0.385517 0
M  V30 2631 C 256.621 1.80766 1.49535 0
M  V30 2632 C 257.637 0.694651 1.59532 0
M  V30 2633 O 258.813 0.982611 1.75803 0
M  V30 2634 C 255.878 1.97381 2.85029 0
M  V30 2635 C 254.939 3.21295 2.84724 0
M  V30 2636 C 254.172 3.37108 4.13756 0
M  V30 2637 O 254.395 2.5765 5.08893 0
M  V30 2638 O 253.329 4.30378 4.20783 0
M  V30 2639 H 257.155 2.75015 1.28842 0
M  V30 2640 H 254.74 1.37946 0.573697 0
M  V30 2641 H 256.622 2.09996 3.65349 0
M  V30 2642 H 255.297 1.06322 3.05741 0
M  V30 2643 H 254.204 3.1412 2.03174 0
M  V30 2644 H 255.537 4.12212 2.68965 0
M  V30 2645 N 257.189 -0.644168 1.43834 0
M  V30 2646 C 258.139 -1.7501 1.46135 0
M  V30 2647 C 259.123 -1.57507 0.328685 0
M  V30 2648 O 260.315 -1.67465 0.5731 0
M  V30 2649 C 257.444 -3.13641 1.39585 0
M  V30 2650 C 256.53 -3.3666 2.57916 0
M  V30 2651 N 256.921 -3.30107 3.83227 0
M  V30 2652 C 255.219 -3.67411 2.52834 0
M  V30 2653 C 255.92 -3.53456 4.61999 0
M  V30 2654 N 254.896 -3.75705 3.9287 0
M  V30 2655 H 258.698 -1.68382 2.40883 0
M  V30 2656 H 256.212 -0.846169 1.38614 0
M  V30 2657 H 258.209 -3.92933 1.39317 0
M  V30 2658 H 256.869 -3.21444 0.45865 0
M  V30 2659 H 257.88 -3.09316 4.15384 0
M  V30 2660 H 254.557 -3.82275 1.67845 0
M  V30 2661 H 255.947 -3.54093 5.71024 0
M  V30 2662 N 258.668 -1.30515 -0.883378 0
M  V30 2663 C 259.914 -1.19607 -1.63774 0
M  V30 2664 C 260.247 0.248314 -1.92606 0
M  V30 2665 O 259.522 1.17742 -1.54813 0
M  V30 2666 C 259.805 -2.02669 -2.97653 0
M  V30 2667 C 259.658 -3.55335 -2.75784 0
M  V30 2668 C 260.977 -1.86573 -3.98596 0
M  V30 2669 H 258.096 -0.435856 -0.594305 0
M  V30 2670 H 260.738 -1.60165 -1.02212 0
M  V30 2671 H 258.888 -1.68208 -3.50197 0
M  V30 2672 H 260.56 -3.99863 -2.30016 0
M  V30 2673 H 258.803 -3.79438 -2.1026 0
M  V30 2674 H 259.474 -4.08745 -3.70988 0
M  V30 2675 H 261.95 -2.16703 -3.55217 0
M  V30 2676 H 260.826 -2.47014 -4.90179 0
M  V30 2677 H 261.087 -0.825321 -4.34328 0
M  V30 2678 N 260.146 1.09593 -1.13257 0
M  V30 2679 C 261.392 1.82003 -0.89458 0
M  V30 2680 C 261.725 1.85402 0.577906 0
M  V30 2681 O 261 1.32099 1.42759 0
M  V30 2682 C 261.283 3.28237 -1.48096 0
M  V30 2683 C 261.136 3.3312 -3.02244 0
M  V30 2684 C 262.455 4.24871 -1.14774 0
M  V30 2685 H 259.574 0.66077 -0.326424 0
M  V30 2686 H 262.216 1.28389 -1.40058 0
M  V30 2687 H 260.366 3.74024 -1.05062 0
M  V30 2688 H 262.038 2.95748 -3.54021 0
M  V30 2689 H 260.281 2.72756 -3.37323 0
M  V30 2690 H 260.952 4.3613 -3.38371 0
M  V30 2691 H 263.428 3.87361 -1.51957 0
M  V30 2692 H 262.304 5.25532 -1.58452 0
M  V30 2693 H 262.565 4.42058 -0.0611849 0
M  V30 2694 N 261.624 0.925811 1.2754 0
M  V30 2695 C 262.87 0.566092 1.94739 0
M  V30 2696 C 263.203 -0.890057 1.72603 0
M  V30 2697 O 262.478 -1.63467 1.05399 0
M  V30 2698 C 262.761 0.89054 3.48915 0
M  V30 2699 C 262.614 2.4003 3.80402 0
M  V30 2700 C 263.933 0.395101 4.38323 0
M  V30 2701 H 261.052 0.20714 0.707292 0
M  V30 2702 H 263.694 1.15725 1.50691 0
M  V30 2703 H 261.844 0.387452 3.86563 0
M  V30 2704 H 263.516 2.97494 3.52555 0
M  V30 2705 H 261.759 2.85028 3.2702 0
M  V30 2706 H 262.43 2.57785 4.8811 0
M  V30 2707 H 264.906 0.826241 4.07814 0
M  V30 2708 H 263.782 0.651086 5.45025 0
M  V30 2709 H 264.043 -0.704798 4.36446 0
M  V30 2710 N 263.102 -1.41638 0.69111 0
M  V30 2711 C 264.332 -2.0533 0.228758 0
M  V30 2712 C 264.74 -1.52089 -1.12541 0
M  V30 2713 O 264.083 -0.662145 -1.71351 0
M  V30 2714 C 264.145 -3.59349 0.10407 0
M  V30 2715 C 263.809 -4.35362 1.38956 0
M  V30 2716 C 264.806 -4.64942 2.32648 0
M  V30 2717 C 262.491 -4.74714 1.64169 0
M  V30 2718 C 264.485 -5.32828 3.49818 0
M  V30 2719 C 262.172 -5.42338 2.81625 0
M  V30 2720 C 263.17 -5.71322 3.74273 0
M  V30 2721 O 262.858 -6.37554 4.89673 0
M  V30 2722 H 262.59 -0.667796 0.104997 0
M  V30 2723 H 265.144 -1.82477 0.942938 0
M  V30 2724 H 263.374 -3.80924 -0.665839 0
M  V30 2725 H 265.063 -4.04633 -0.320519 0
M  V30 2726 H 265.829 -4.35025 2.14425 0
M  V30 2727 H 261.708 -4.51538 0.929202 0
M  V30 2728 H 265.252 -5.55368 4.22152 0
M  V30 2729 H 261.149 -5.71673 2.99768 0
M  V30 2730 H 261.917 -6.56049 4.8943 0
M  V30 2731 N 264.58 -0.43555 -1.51462 0
M  V30 2732 C 265.826 0.131709 -2.02372 0
M  V30 2733 C 266.159 1.42516 -1.3192 0
M  V30 2734 O 265.434 1.89606 -0.433573 0
M  V30 2735 C 265.717 0.352301 -3.58373 0
M  V30 2736 C 265.57 -0.959676 -4.39443 0
M  V30 2737 C 266.889 1.12286 -4.25535 0
M  V30 2738 H 264.008 0.0463936 -0.735538 0
M  V30 2739 H 266.65 -0.574197 -1.81116 0
M  V30 2740 H 264.8 0.9536 -3.76615 0
M  V30 2741 H 266.472 -1.59482 -4.32855 0
M  V30 2742 H 264.715 -1.56468 -4.04599 0
M  V30 2743 H 265.386 -0.759394 -5.46752 0
M  V30 2744 H 267.862 0.613545 -4.11552 0
M  V30 2745 H 266.738 1.24598 -5.34571 0
M  V30 2746 H 266.999 2.15048 -3.86273 0
M  V30 2747 N 266.058 1.56714 -0.166846 0
M  V30 2748 C 267.006 2.19056 0.782123 0
M  V30 2749 C 268 1.15328 1.24079 0
M  V30 2750 O 269.206 1.33537 1.20697 0
M  V30 2751 H 265.581 0.70167 0.270486 0
M  V30 2752 H 267.552 2.97494 0.232322 0
M  V30 2753 C 266.301 2.84206 2.00306 0
M  V30 2754 H 265.624 3.63748 1.65914 0
M  V30 2755 H 267.064 3.31302 2.64604 0
M  V30 2756 C 265.523 1.83744 2.82382 0
M  V30 2757 O 266.053 1.32014 3.79388 0
M  V30 2758 N 264.259 1.52601 2.47308 0
M  V30 2759 H 263.806 1.9486 1.68485 0
M  V30 2760 H 263.764 0.856351 3.02513 0
M  V30 2761 N 267.536 -0.106894 1.57237 0
M  V30 2762 C 268.483 -1.13049 2.01217 0
M  V30 2763 C 269.453 -1.40471 0.886403 0
M  V30 2764 O 270.638 -1.52133 1.15153 0
M  V30 2765 C 267.778 -2.4487 2.43172 0
M  V30 2766 C 266.891 -2.24281 3.69218 0
M  V30 2767 C 266.026 -3.49417 4.00101 0
M  V30 2768 C 265.065 -3.24038 5.19294 0
M  V30 2769 N 264.202 -4.41409 5.45988 0
M  V30 2770 H 269.042 -0.748456 2.88448 0
M  V30 2771 H 266.579 -0.358054 1.42676 0
M  V30 2772 H 268.537 -3.21786 2.65537 0
M  V30 2773 H 267.167 -2.80944 1.58967 0
M  V30 2774 H 266.219 -1.38224 3.54398 0
M  V30 2775 H 267.531 -2.01512 4.56283 0
M  V30 2776 H 266.685 -4.34746 4.2318 0
M  V30 2777 H 265.424 -3.75229 3.11535 0
M  V30 2778 H 264.429 -2.37102 4.96047 0
M  V30 2779 H 265.654 -2.99584 6.09447 0
M  V30 2780 H 263.6 -4.67319 4.60379 0
M  V30 2781 H 263.517 -4.21788 6.274 0
M  V30 2782 H 264.785 -5.27836 5.73593 0
M  V30 2783 N 269.014 -1.53014 -0.377408 0
M  V30 2784 C 269.977 -1.77957 -1.44444 0
M  V30 2785 C 270.977 -0.649763 -1.47087 0
M  V30 2786 O 272.167 -0.917897 -1.48055 0
M  V30 2787 C 269.299 -1.89089 -2.83651 0
M  V30 2788 H 270.492 -2.73243 -1.23606 0
M  V30 2789 H 268.045 -1.43912 -0.609844 0
M  V30 2790 H 268.78 -0.958293 -3.09818 0
M  V30 2791 H 268.565 -2.71254 -2.83132 0
M  V30 2792 H 270.055 -2.1002 -3.60945 0
M  V30 2793 N 270.492 0.636531 -1.44174 0
M  V30 2794 C 271.769 1.39463 -1.37148 0
M  V30 2795 C 272.149 2.11082 -0.027507 0
M  V30 2796 O 271.497 2.05954 0.989716 0
M  V30 2797 C 271.707 2.36552 -2.56601 0
M  V30 2798 C 273.055 3.00048 -3.00427 0
M  V30 2799 O 274.079 2.46878 -2.56767 0
M  V30 2800 O 272.938 3.96488 -3.76111 0
M  V30 2801 H 270.032 0.623903 -0.542839 0
M  V30 2802 H 272.578 0.662039 -1.56253 0
M  V30 2803 H 271.35 1.82692 -3.46034 0
M  V30 2804 H 270.973 3.17236 -2.39681 0
M  V30 2805 N 271.97 1.30982 0.876444 0
M  V30 2806 C 272.933 1.18054 1.96459 0
M  V30 2807 C 273.933 0.109399 1.60427 0
M  V30 2808 O 275.123 0.358173 1.70478 0
M  V30 2809 C 272.255 0.810616 3.31122 0
M  V30 2810 H 273.448 2.14735 2.09354 0
M  V30 2811 H 271.001 1.145 1.06392 0
M  V30 2812 H 271.736 -0.155322 3.23928 0
M  V30 2813 H 271.521 1.58481 3.58645 0
M  V30 2814 H 273.011 0.743876 4.10921 0
M  V30 2815 N 273.449 -1.08991 1.13837 0
M  V30 2816 C 274.695 -1.81526 0.90422 0
M  V30 2817 C 275.028 -1.85706 -0.568066 0
M  V30 2818 O 274.303 -1.32855 -1.42056 0
M  V30 2819 C 274.586 -3.27447 1.49835 0
M  V30 2820 C 274.439 -3.31512 3.04006 0
M  V30 2821 C 275.758 -4.24256 1.17025 0
M  V30 2822 H 272.877 -0.659029 0.329923 0
M  V30 2823 H 275.519 -1.27644 1.40737 0
M  V30 2824 H 273.669 -3.73462 1.07044 0
M  V30 2825 H 275.341 -2.93867 3.55584 0
M  V30 2826 H 273.584 -2.70963 3.38765 0
M  V30 2827 H 274.255 -4.34329 3.40679 0
M  V30 2828 H 276.731 -3.86549 1.54009 0
M  V30 2829 H 275.607 -5.24684 1.61237 0
M  V30 2830 H 275.868 -4.42019 0.0846274 0
M  V30 2831 N 274.927 -0.932562 -1.27047 0
M  V30 2832 C 275.859 -0.392734 -2.2581 0
M  V30 2833 C 276.872 0.479241 -1.55586 0
M  V30 2834 O 278.061 0.291078 -1.76111 0
M  V30 2835 C 275.161 0.455456 -3.35826 0
M  V30 2836 C 274.334 -0.398355 -4.35582 0
M  V30 2837 C 273.393 0.387985 -5.24768 0
M  V30 2838 O 272.419 -0.206003 -5.68827 0
M  V30 2839 N 273.621 1.68664 -5.55457 0
M  V30 2840 H 276.386 -1.24173 -2.72766 0
M  V30 2841 H 273.947 -0.800511 -1.40725 0
M  V30 2842 H 275.939 0.988692 -3.92437 0
M  V30 2843 H 274.509 1.20522 -2.88432 0
M  V30 2844 H 273.729 -1.11286 -3.78165 0
M  V30 2845 H 275.017 -0.981889 -4.99236 0
M  V30 2846 H 274.415 2.19147 -5.21528 0
M  V30 2847 H 272.972 2.1663 -6.14748 0
M  V30 2848 N 276.405 1.4127 -0.698611 0
M  V30 2849 C 277.682 1.94955 -0.158762 0
M  V30 2850 C 278.062 1.63781 1.33188 0
M  V30 2851 O 277.41 0.946423 2.07979 0
M  V30 2852 C 277.62 3.46044 -0.453309 0
M  V30 2853 C 278.968 4.22872 -0.382707 0
M  V30 2854 O 279.992 3.54076 -0.388396 0
M  V30 2855 O 278.851 5.45407 -0.345463 0
M  V30 2856 H 275.945 0.82683 -0.0167505 0
M  V30 2857 H 278.491 1.50971 -0.77498 0
M  V30 2858 H 277.263 3.62028 -1.48498 0
M  V30 2859 H 276.886 3.97128 0.19373 0
M  V30 2860 N 277.883 0.443576 1.51229 0
M  V30 2861 C 279.108 -0.121648 2.07043 0
M  V30 2862 C 279.533 -1.35156 1.30823 0
M  V30 2863 O 278.891 -1.7793 0.347934 0
M  V30 2864 C 278.939 -0.41624 3.5819 0
M  V30 2865 O 278.043 -1.50163 3.8409 0
M  V30 2866 H 277.384 0.000871367 0.663999 0
M  V30 2867 H 279.914 0.626706 1.94765 0
M  V30 2868 H 279.924 -0.664867 4.02546 0
M  V30 2869 H 278.599 0.482653 4.1309 0
M  V30 2870 H 277.176 -1.24248 3.51592 0
M  V30 2871 N 279.361 -1.56624 0.175154 0
M  V30 2872 C 280.271 -2.21741 -0.766042 0
M  V30 2873 C 281.287 -1.21023 -1.25018 0
M  V30 2874 O 282.463 -1.53697 -1.3015 0
M  V30 2875 C 279.528 -2.84839 -1.97655 0
M  V30 2876 C 278.589 -4.00769 -1.53892 0
M  V30 2877 C 277.822 -4.60849 -2.69173 0
M  V30 2878 O 278.045 -4.19823 -3.86141 0
M  V30 2879 O 276.979 -5.50655 -2.43028 0
M  V30 2880 H 280.805 -3.02738 -0.241585 0
M  V30 2881 H 278.39 -1.49305 -0.053222 0
M  V30 2882 H 280.272 -3.24834 -2.68442 0
M  V30 2883 H 278.947 -2.06836 -2.48999 0
M  V30 2884 H 277.854 -3.65436 -0.80044 0
M  V30 2885 H 279.187 -4.80376 -1.07236 0
M  V30 2886 N 280.839 0.0985539 -1.57292 0
M  V30 2887 C 281.772 1.15082 -1.97057 0
M  V30 2888 C 282.75 1.39025 -0.843255 0
M  V30 2889 O 283.934 1.52842 -1.10325 0
M  V30 2890 C 281.061 2.50069 -2.28437 0
M  V30 2891 C 280.107 2.42428 -3.509 0
M  V30 2892 S 280.94 1.84414 -5.02744 0
M  V30 2893 C 282.096 3.21032 -5.37298 0
M  V30 2894 H 282.329 0.811815 -2.86002 0
M  V30 2895 H 279.862 0.306102 -1.51335 0
M  V30 2896 H 281.82 3.27729 -2.47192 0
M  V30 2897 H 280.481 2.8114 -1.40069 0
M  V30 2898 H 279.674 3.41911 -3.70288 0
M  V30 2899 H 279.276 1.72896 -3.31637 0
M  V30 2900 H 281.568 4.17297 -5.33731 0
M  V30 2901 H 282.511 3.06452 -6.38352 0
M  V30 2902 H 282.919 3.20404 -4.64759 0
M  V30 2903 N 282.317 1.53212 0.369288 0
M  V30 2904 C 283.563 1.69466 1.11397 0
M  V30 2905 C 283.896 0.443257 1.89074 0
M  V30 2906 O 283.171 -0.559386 1.86282 0
M  V30 2907 C 283.454 2.9422 2.07621 0
M  V30 2908 C 283.307 4.29508 1.33577 0
M  V30 2909 C 284.626 3.14565 3.07794 0
M  V30 2910 H 281.745 0.616667 0.403597 0
M  V30 2911 H 284.387 1.85845 0.395179 0
M  V30 2912 H 282.537 2.80387 2.68916 0
M  V30 2913 H 284.209 4.55147 0.750955 0
M  V30 2914 H 282.452 4.29088 0.637618 0
M  V30 2915 H 283.123 5.12926 2.03989 0
M  V30 2916 H 285.599 3.2756 2.56601 0
M  V30 2917 H 284.475 4.03297 3.72348 0
M  V30 2918 H 284.736 2.29675 3.77759 0
M  V30 2919 N 283.795 -0.628877 1.44509 0
M  V30 2920 C 284.705 -1.7694 1.54044 0
M  V30 2921 C 285.721 -1.68705 0.425987 0
M  V30 2922 O 286.897 -1.89442 0.683656 0
M  V30 2923 C 283.962 -3.13332 1.48405 0
M  V30 2924 C 283.023 -3.33181 2.70719 0
M  V30 2925 C 282.256 -4.63067 2.6534 0
M  V30 2926 O 282.479 -5.44017 1.71469 0
M  V30 2927 O 281.413 -4.85167 3.56226 0
M  V30 2928 H 285.239 -1.71848 2.50403 0
M  V30 2929 H 282.824 -0.790378 1.26781 0
M  V30 2930 H 284.706 -3.94634 1.47791 0
M  V30 2931 H 283.381 -3.1896 0.551898 0
M  V30 2932 H 282.288 -2.51549 2.769 0
M  V30 2933 H 283.621 -3.32416 3.62988 0
M  V30 2934 N 285.273 -1.31445 -0.869486 0
M  V30 2935 C 286.203 -1.21727 -1.99261 0
M  V30 2936 C 287.184 -0.104359 -1.6978 0
M  V30 2937 O 288.369 -0.289038 -1.92037 0
M  V30 2938 C 285.499 -0.924317 -3.34774 0
M  V30 2939 C 284.453 -1.99685 -3.78563 0
M  V30 2940 C 283.779 -1.55658 -5.11541 0
M  V30 2941 C 285.079 -3.41003 -3.95619 0
M  V30 2942 H 286.773 -2.1569 -2.07649 0
M  V30 2943 H 284.319 -1.03839 -0.997675 0
M  V30 2944 H 286.272 -0.842934 -4.12883 0
M  V30 2945 H 284.996 0.0509793 -3.2656 0
M  V30 2946 H 283.655 -2.06813 -3.02694 0
M  V30 2947 H 283.303 -0.569132 -4.9977 0
M  V30 2948 H 283.003 -2.27409 -5.41811 0
M  V30 2949 H 284.527 -1.48928 -5.92159 0
M  V30 2950 H 285.941 -3.36547 -4.64122 0
M  V30 2951 H 284.338 -4.10975 -4.37286 0
M  V30 2952 H 285.408 -3.81754 -2.98985 0
M  V30 2953 N 286.751 1.08385 -1.14413 0
M  V30 2954 C 287.997 1.81044 -0.913834 0
M  V30 2955 C 288.33 1.86004 0.558209 0
M  V30 2956 O 287.605 1.33606 1.4135 0
M  V30 2957 C 287.888 3.26648 -1.51569 0
M  V30 2958 C 287.741 3.29895 -3.0576 0
M  V30 2959 C 289.06 4.23629 -1.19273 0
M  V30 2960 H 286.179 0.65727 -0.333414 0
M  V30 2961 H 288.821 1.26896 -1.41412 0
M  V30 2962 H 286.971 3.72889 -1.09023 0
M  V30 2963 H 288.643 2.91977 -3.57137 0
M  V30 2964 H 286.886 2.69163 -3.40197 0
M  V30 2965 H 287.557 4.32516 -3.42977 0
M  V30 2966 H 290.033 3.85727 -1.56057 0
M  V30 2967 H 288.909 5.23822 -1.64017 0
M  V30 2968 H 289.17 4.41968 -0.108068 0
M  V30 2969 N 288.23 0.939286 1.26551 0
M  V30 2970 C 289.14 0.453432 2.30176 0
M  V30 2971 C 290.156 -0.471649 1.67486 0
M  V30 2972 O 291.332 -0.35164 1.98306 0
M  V30 2973 C 288.397 -0.275326 3.45605 0
M  V30 2974 C 287.458 0.686084 4.23782 0
M  V30 2975 C 286.691 -0.00798994 5.33699 0
M  V30 2976 O 286.914 -1.22528 5.57085 0
M  V30 2977 O 285.848 0.669746 5.98162 0
M  V30 2978 H 289.674 1.31416 2.73795 0
M  V30 2979 H 287.259 0.705095 1.31715 0
M  V30 2980 H 289.141 -0.685911 4.1578 0
M  V30 2981 H 287.816 -1.11147 3.0402 0
M  V30 2982 H 286.723 1.14658 3.56096 0
M  V30 2983 H 288.056 1.48979 4.69112 0
M  V30 2984 N 289.708 -1.40897 0.706093 0
M  V30 2985 C 290.638 -2.33418 0.0620085 0
M  V30 2986 C 291.619 -1.52385 -0.755827 0
M  V30 2987 O 292.804 -1.80886 -0.706674 0
M  V30 2988 C 289.934 -3.36293 -0.867445 0
M  V30 2989 C 288.888 -4.27716 -0.155932 0
M  V30 2990 C 288.214 -5.2105 -1.20046 0
M  V30 2991 C 289.514 -5.12944 0.984149 0
M  V30 2992 H 291.208 -2.87527 0.83477 0
M  V30 2993 H 288.754 -1.38249 0.402875 0
M  V30 2994 H 290.707 -3.99949 -1.32735 0
M  V30 2995 H 289.431 -2.80556 -1.67199 0
M  V30 2996 H 288.09 -3.65498 0.284047 0
M  V30 2997 H 287.738 -4.61624 -1.99781 0
M  V30 2998 H 287.438 -5.83056 -0.729328 0
M  V30 2999 H 288.962 -5.87584 -1.66066 0
M  V30 3000 H 290.376 -5.70109 0.604048 0
M  V30 3001 H 288.773 -5.83945 1.38304 0
M  V30 3002 H 289.843 -4.49485 1.81911 0
M  V30 3003 N 291.186 -0.45159 -1.50991 0
M  V30 3004 C 292.096 0.358431 -2.31846 0
M  V30 3005 C 293.112 1.01438 -1.41373 0
M  V30 3006 O 294.288 1.00663 -1.74439 0
M  V30 3007 C 291.353 1.43704 -3.15515 0
M  V30 3008 C 290.414 0.799742 -4.21785 0
M  V30 3009 C 289.647 1.82696 -5.01456 0
M  V30 3010 O 289.87 3.05105 -4.81941 0
M  V30 3011 O 288.804 1.40958 -5.85162 0
M  V30 3012 H 292.63 -0.302032 -3.02194 0
M  V30 3013 H 290.215 -0.213825 -1.47862 0
M  V30 3014 H 292.097 2.06227 -3.67489 0
M  V30 3015 H 290.772 2.08133 -2.47916 0
M  V30 3016 H 289.679 0.136084 -3.73852 0
M  V30 3017 H 291.012 0.198718 -4.91799 0
M  V30 3018 N 292.664 1.56529 -0.183458 0
M  V30 3019 C 293.913 1.96419 0.458511 0
M  V30 3020 C 294.226 1.0727 1.63562 0
M  V30 3021 O 295.432 1.36893 2.34462 0
M  V30 3022 C 293.888 3.49298 0.867122 0
M  V30 3023 C 293.496 4.47092 -0.285057 0
M  V30 3024 C 295.24 3.97983 1.47683 0
M  V30 3025 C 293.147 5.91225 0.143862 0
M  V30 3026 H 292.077 0.733394 0.175071 0
M  V30 3027 H 294.728 1.81448 -0.273624 0
M  V30 3028 H 293.11 3.59731 1.65559 0
M  V30 3029 H 294.284 4.48383 -1.0625 0
M  V30 3030 H 292.599 4.08535 -0.805503 0
M  V30 3031 H 295.196 5.03134 1.80999 0
M  V30 3032 H 295.539 3.41618 2.37914 0
M  V30 3033 H 296.072 3.90617 0.752562 0
M  V30 3034 H 292.811 6.5149 -0.723974 0
M  V30 3035 H 292.331 5.93214 0.886413 0
M  V30 3036 H 294.01 6.44362 0.583628 0
M  V30 3037 N 294.142 -0.090211 1.57342 0
M  V30 3038 C 295.558 -0.444547 1.53284 0
M  V30 3039 C 295.758 -1.80238 0.900914 0
M  V30 3040 O 294.814 -2.4759 0.495513 0
M  V30 3041 C 296.127 -0.402543 2.97993 0
M  V30 3042 C 297.675 -0.48405 3.09234 0
M  V30 3043 C 298.15 -0.472144 4.5556 0
M  V30 3044 N 299.641 -0.532757 4.60126 0
M  V30 3045 C 300.376 -0.545462 5.708 0
M  V30 3046 N 299.872 -0.514082 6.9089 0
M  V30 3047 N 301.665 -0.59064 5.58988 0
M  V30 3048 H 293.816 0.799121 1.96794 0
M  V30 3049 H 296.079 0.297965 0.899956 0
M  V30 3050 H 295.785 0.528106 3.47712 0
M  V30 3051 H 295.659 -1.21969 3.56936 0
M  V30 3052 H 298.046 -1.40512 2.595 0
M  V30 3053 H 298.127 0.361328 2.53235 0
M  V30 3054 H 297.771 0.445 5.05947 0
M  V30 3055 H 297.701 -1.3348 5.09402 0
M  V30 3056 H 300.192 -0.562006 3.73698 0
M  V30 3057 H 300.505 -0.527195 7.71 0
M  V30 3058 H 298.85 -0.481054 6.93333 0
M  V30 3059 H 302.041 -0.61272 4.64073 0
M  V30 3060 H 302.214 -0.597073 6.45243 0
M  V30 3061 N 295.62 -1.53406 -0.361157 0
M  V30 3062 C 296.53 -1.83122 -1.4664 0
M  V30 3063 C 297.546 -0.719943 -1.58407 0
M  V30 3064 O 298.722 -1.01046 -1.74218 0
M  V30 3065 C 295.787 -2.01891 -2.81853 0
M  V30 3066 C 294.848 -3.25784 -2.79577 0
M  V30 3067 C 294.081 -3.43648 -4.0834 0
M  V30 3068 O 294.304 -2.65714 -5.0473 0
M  V30 3069 O 293.238 -4.37018 -4.13883 0
M  V30 3070 H 297.064 -2.7703 -1.24451 0
M  V30 3071 H 294.649 -1.38841 -0.551678 0
M  V30 3072 H 296.531 -2.15782 -3.61962 0
M  V30 3073 H 295.206 -1.11173 -3.0401 0
M  V30 3074 H 294.113 -3.17312 -1.98151 0
M  V30 3075 H 295.446 -4.16439 -2.62373 0
M  V30 3076 N 297.098 0.621204 -1.44841 0
M  V30 3077 C 298.028 1.74366 -1.55303 0
M  V30 3078 C 299.009 1.65199 -0.405385 0
M  V30 3079 O 300.194 1.83807 -0.626787 0
M  V30 3080 C 297.324 3.12931 -1.50637 0
M  V30 3081 C 296.278 3.36896 -2.63979 0
M  V30 3082 C 295.604 4.75594 -2.44366 0
M  V30 3083 C 296.904 3.28483 -4.06074 0
M  V30 3084 H 298.598 1.65867 -2.49256 0
M  V30 3085 H 296.144 0.796558 -1.19962 0
M  V30 3086 H 298.097 3.9124 -1.56555 0
M  V30 3087 H 296.821 3.22237 -0.532057 0
M  V30 3088 H 295.48 2.60972 -2.57467 0
M  V30 3089 H 295.128 4.81616 -1.45105 0
M  V30 3090 H 294.828 4.92586 -3.20364 0
M  V30 3091 H 296.352 5.5612 -2.52117 0
M  V30 3092 H 297.766 3.96684 -4.13902 0
M  V30 3093 H 296.163 3.57008 -4.82354 0
M  V30 3094 H 297.233 2.26133 -4.28943 0
M  V30 3095 N 298.576 1.31904 0.862503 0
M  V30 3096 C 299.506 1.22782 1.98612 0
M  V30 3097 C 300.487 0.113362 1.69722 0
M  V30 3098 O 301.672 0.299218 1.91881 0
M  V30 3099 C 298.802 0.942058 3.34279 0
M  V30 3100 C 297.756 2.0169 3.77499 0
M  V30 3101 C 297.082 1.58369 5.10709 0
M  V30 3102 C 298.382 3.43096 3.93805 0
M  V30 3103 H 300.076 2.16788 2.06502 0
M  V30 3104 H 297.622 1.04366 0.992154 0
M  V30 3105 H 299.575 0.864818 4.1243 0
M  V30 3106 H 298.299 -0.0336603 3.26583 0
M  V30 3107 H 296.958 2.08416 3.01593 0
M  V30 3108 H 296.606 0.595628 4.99461 0
M  V30 3109 H 296.306 2.30279 5.40597 0
M  V30 3110 H 297.83 1.52067 5.91361 0
M  V30 3111 H 299.244 3.39003 4.62331 0
M  V30 3112 H 297.641 4.13288 4.35101 0
M  V30 3113 H 298.711 3.83334 2.96957 0
M  V30 3114 N 300.054 -1.07777 1.14986 0
M  V30 3115 C 301.282 -1.84018 0.945773 0
M  V30 3116 C 301.697 -1.81897 -0.505863 0
M  V30 3117 O 301.054 -1.22726 -1.35072 0
M  V30 3118 C 301.105 -3.31287 1.44677 0
M  V30 3119 O 300.826 -3.33449 2.84154 0
M  V30 3120 C 302.327 -4.24311 1.28355 0
M  V30 3121 H 299.547 -0.580716 0.336169 0
M  V30 3122 H 302.091 -1.36077 1.52654 0
M  V30 3123 H 300.246 -3.76594 0.908625 0
M  V30 3124 H 300.66 -4.25427 3.06777 0
M  V30 3125 H 302.134 -5.2573 1.68261 0
M  V30 3126 H 302.611 -4.38612 0.227184 0
M  V30 3127 H 303.217 -3.84836 1.81056 0
M  V30 3128 N 301.532 -0.945985 -1.26051 0
M  V30 3129 C 302.442 -0.465633 -2.29933 0
M  V30 3130 C 303.458 0.462761 -1.67733 0
M  V30 3131 O 304.634 0.341118 -1.9849 0
M  V30 3132 C 301.699 0.256994 -3.45746 0
M  V30 3133 C 300.76 -0.708549 -4.23412 0
M  V30 3134 C 299.993 -0.0203135 -5.33696 0
M  V30 3135 O 300.216 1.19571 -5.57726 0
M  V30 3136 O 299.15 -0.701459 -5.97799 0
M  V30 3137 H 302.976 -1.32866 -2.73094 0
M  V30 3138 H 300.561 -0.712071 -1.31339 0
M  V30 3139 H 302.443 0.663852 -4.16138 0
M  V30 3140 H 301.118 1.09533 -3.04605 0
M  V30 3141 H 300.025 -1.16545 -3.55483 0
M  V30 3142 H 301.358 -1.51465 -4.68315 0
M  V30 3143 N 303.011 1.40521 -0.713556 0
M  V30 3144 C 304.258 2.00923 -0.25219 0
M  V30 3145 C 304.586 1.56571 1.15395 0
M  V30 3146 O 303.841 0.775874 1.79663 0
M  V30 3147 C 304.14 3.56317 -0.278 0
M  V30 3148 C 303.806 4.20246 -1.63415 0
M  V30 3149 C 302.468 4.37422 -2.00538 0
M  V30 3150 C 304.82 4.55923 -2.52554 0
M  V30 3151 C 302.148 4.87558 -3.2635 0
M  V30 3152 C 304.5 5.07458 -3.77716 0
M  V30 3153 C 303.164 5.22843 -4.14959 0
M  V30 3154 H 302.434 0.735231 -0.0922829 0
M  V30 3155 H 305.081 1.68161 -0.916188 0
M  V30 3156 H 303.386 3.88976 0.469567 0
M  V30 3157 H 305.083 4.00883 0.0967819 0
M  V30 3158 H 301.673 4.07263 -1.33546 0
M  V30 3159 H 305.857 4.42291 -2.25149 0
M  V30 3160 H 301.113 4.97654 -3.55176 0
M  V30 3161 H 305.287 5.34041 -4.4696 0
M  V30 3162 H 302.914 5.61454 -5.12516 0
M  V30 3163 N 304.489 0.459591 1.5075 0
M  V30 3164 C 305.737 -0.0991532 2.01857 0
M  V30 3165 C 306.058 -1.41247 1.34441 0
M  V30 3166 O 305.328 -1.89775 0.486022 0
M  V30 3167 H 303.908 -0.039633 0.745948 0
M  V30 3168 H 306.57 0.607387 1.85194 0
M  V30 3169 H 305.666 -0.258998 3.11023 0
M  V30 3170 N 305.967 -1.56429 0.191757 0
M  V30 3171 C 307.197 -2.01574 -0.452928 0
M  V30 3172 C 307.605 -1.07107 -1.55964 0
M  V30 3173 O 306.948 -0.067534 -1.83576 0
M  V30 3174 C 307.01 -3.43121 -1.07278 0
M  V30 3175 C 306.674 -4.56879 -0.105214 0
M  V30 3176 C 307.671 -5.15379 0.684149 0
M  V30 3177 C 305.356 -5.023 0.00489824 0
M  V30 3178 C 307.35 -6.17746 1.57062 0
M  V30 3179 C 305.037 -6.04511 0.894935 0
M  V30 3180 C 306.035 -6.62108 1.67637 0
M  V30 3181 O 305.723 -7.62335 2.55149 0
M  V30 3182 H 305.455 -0.665554 -0.118379 0
M  V30 3183 H 308.009 -2.03245 0.296737 0
M  V30 3184 H 306.239 -3.38425 -1.87097 0
M  V30 3185 H 307.928 -3.72093 -1.62177 0
M  V30 3186 H 308.694 -4.81157 0.609365 0
M  V30 3187 H 304.573 -4.57168 -0.593156 0
M  V30 3188 H 308.117 -6.6263 2.181 0
M  V30 3189 H 304.014 -6.38157 0.970847 0
M  V30 3190 H 304.782 -7.79741 2.48892 0
M  V30 3191 N 307.445 0.0818655 -1.57387 0
M  V30 3192 C 308.392 1.09834 -2.0299 0
M  V30 3193 C 309.362 1.39043 -0.908639 0
M  V30 3194 O 310.547 1.50282 -1.17559 0
M  V30 3195 C 307.687 2.40971 -2.47037 0
M  V30 3196 C 306.8 2.18379 -3.7274 0
M  V30 3197 C 305.935 3.43008 -4.0561 0
M  V30 3198 C 304.974 3.15736 -5.24383 0
M  V30 3199 N 304.111 4.32667 -5.52941 0
M  V30 3200 H 308.951 0.702472 -2.89602 0
M  V30 3201 H 306.488 0.33531 -1.43227 0
M  V30 3202 H 308.446 3.1752 -2.70623 0
M  V30 3203 H 307.076 2.78379 -1.63417 0
M  V30 3204 H 306.128 1.32569 -3.56552 0
M  V30 3205 H 307.44 1.94227 -4.59431 0
M  V30 3206 H 306.594 4.27958 -4.30043 0
M  V30 3207 H 305.333 3.70225 -3.17466 0
M  V30 3208 H 304.338 2.2918 -4.99757 0
M  V30 3209 H 305.563 2.8985 -6.14136 0
M  V30 3210 H 303.509 4.59935 -4.67756 0
M  V30 3211 H 303.426 4.11753 -6.34031 0
M  V30 3212 H 304.694 5.18644 -5.81918 0
M  V30 3213 N 308.923 1.53595 0.353017 0
M  V30 3214 C 310.171 1.70049 1.09215 0
M  V30 3215 C 310.492 0.461406 1.89463 0
M  V30 3216 O 309.762 -0.524633 1.88744 0
M  V30 3217 H 308.342 0.626912 0.40619 0
M  V30 3218 H 311.004 1.90822 0.396585 0
M  V30 3219 H 310.1 2.56718 1.77488 0
M  V30 3220 N 310.401 -0.613514 1.45168 0
M  V30 3221 C 311.311 -1.75296 1.55912 0
M  V30 3222 C 312.327 -1.68244 0.443856 0
M  V30 3223 O 313.503 -1.88706 0.70371 0
M  V30 3224 C 310.568 -3.1174 1.5172 0
M  V30 3225 C 309.629 -3.30291 2.74238 0
M  V30 3226 C 308.862 -4.60226 2.70236 0
M  V30 3227 O 309.085 -5.42168 1.77229 0
M  V30 3228 O 308.019 -4.81361 3.61352 0
M  V30 3229 H 311.845 -1.69183 2.52212 0
M  V30 3230 H 309.43 -0.776886 1.27612 0
M  V30 3231 H 311.312 -3.93044 1.51968 0
M  V30 3232 H 309.987 -3.18357 0.585697 0
M  V30 3233 H 308.894 -2.48598 2.79553 0
M  V30 3234 H 310.227 -3.28547 3.66494 0
M  V30 3235 N 311.879 -1.3236 -0.855495 0
M  V30 3236 C 312.789 -1.23221 -1.99634 0
M  V30 3237 C 313.805 -0.145983 -1.73387 0
M  V30 3238 O 314.981 -0.366502 -1.98037 0
M  V30 3239 C 312.046 -0.954782 -3.33294 0
M  V30 3240 C 311.107 -2.12937 -3.72769 0
M  V30 3241 C 310.34 -1.86508 -5.00051 0
M  V30 3242 O 310.563 -0.807231 -5.64659 0
M  V30 3243 O 309.497 -2.72591 -5.36636 0
M  V30 3244 H 313.323 -2.19126 -2.1028 0
M  V30 3245 H 310.908 -1.12241 -0.986018 0
M  V30 3246 H 312.79 -0.816519 -4.13414 0
M  V30 3247 H 311.465 -0.0258854 -3.2369 0
M  V30 3248 H 310.372 -2.3231 -2.93228 0
M  V30 3249 H 311.705 -3.04102 -3.87018 0
M  V30 3250 N 313.357 1.07166 -1.15556 0
M  V30 3251 C 314.585 1.83514 -0.955519 0
M  V30 3252 C 315 1.82163 0.49621 0
M  V30 3253 O 314.357 1.23441 1.34419 0
M  V30 3254 C 314.408 3.30515 -1.46432 0
M  V30 3255 O 314.129 3.31937 -2.85918 0
M  V30 3256 C 315.63 4.23625 -1.30603 0
M  V30 3257 H 312.85 0.578926 -0.339244 0
M  V30 3258 H 315.394 1.35265 -1.53374 0
M  V30 3259 H 313.549 3.76106 -0.928584 0
M  V30 3260 H 313.963 4.23794 -3.09029 0
M  V30 3261 H 315.437 5.24831 -1.71047 0
M  V30 3262 H 315.914 4.38485 -0.250441 0
M  V30 3263 H 316.52 3.83871 -1.83094 0
M  V30 3264 N 314.835 0.952656 1.25548 0
M  V30 3265 C 316.246 0.647392 1.75116 0
M  V30 3266 C 316.597 -0.837274 1.77438 0
M  V30 3267 O 315.722 -1.65525 1.39393 0
M  V30 3268 C 316.317 1.16845 3.18014 0
M  V30 3269 C 314.876 0.913382 3.6515 0
M  V30 3270 C 314.023 1.31265 2.44264 0
M  V30 3271 H 316.974 1.12968 1.11462 0
M  V30 3272 H 316.995 0.527606 3.76824 0
M  V30 3273 H 316.507 2.24902 3.16292 0
M  V30 3274 H 314.608 -0.152316 3.72289 0
M  V30 3275 H 314.721 1.54845 4.53387 0
M  V30 3276 H 313.085 0.731028 2.43984 0
M  V30 3277 H 313.868 2.40239 2.45234 0
M  V30 3278 N 316.313 -1.40141 0.720998 0
M  V30 3279 C 317.559 -2.01084 0.263231 0
M  V30 3280 C 317.892 -1.57052 -1.14229 0
M  V30 3281 O 317.167 -0.793027 -1.77599 0
M  V30 3282 C 317.45 -3.58401 0.349344 0
M  V30 3283 C 317.303 -4.12491 1.79363 0
M  V30 3284 C 318.622 -4.39231 -0.276351 0
M  V30 3285 H 315.741 -0.730572 0.0971228 0
M  V30 3286 H 318.383 -1.66543 0.914518 0
M  V30 3287 H 316.533 -3.87958 -0.205165 0
M  V30 3288 H 318.205 -3.93711 2.40394 0
M  V30 3289 H 316.448 -3.66576 2.31958 0
M  V30 3290 H 317.119 -5.21646 1.80524 0
M  V30 3291 H 319.595 -4.15637 0.196184 0
M  V30 3292 H 318.471 -5.48586 -0.185681 0
M  V30 3293 H 318.732 -4.20643 -1.36059 0
M  V30 3294 N 317.792 -0.46758 -1.50504 0
M  V30 3295 C 319.041 0.0902868 -2.01498 0
M  V30 3296 C 319.354 1.411 -1.35463 0
M  V30 3297 O 320.56 2.0536 -1.77594 0
M  V30 3298 C 319.016 0.21142 -3.59278 0
M  V30 3299 C 318.624 -1.10065 -4.34269 0
M  V30 3300 C 320.368 0.721433 -4.18325 0
M  V30 3301 C 318.275 -0.943505 -5.83825 0
M  V30 3302 H 317.205 0.037517 -0.753066 0
M  V30 3303 H 319.856 -0.601943 -1.73346 0
M  V30 3304 H 318.238 0.967352 -3.84003 0
M  V30 3305 H 319.412 -1.86726 -4.21272 0
M  V30 3306 H 317.727 -1.5415 -3.86816 0
M  V30 3307 H 320.324 0.85598 -5.27804 0
M  V30 3308 H 320.667 1.71186 -3.79475 0
M  V30 3309 H 321.2 0.0229843 -3.97793 0
M  V30 3310 H 317.939 -1.90719 -6.27141 0
M  V30 3311 H 317.459 -0.217213 -5.99407 0
M  V30 3312 H 319.138 -0.608715 -6.4413 0
M  V30 3313 N 319.27 1.56325 -0.20005 0
M  V30 3314 C 320.516 1.98012 0.438059 0
M  V30 3315 C 320.849 1.08702 1.60927 0
M  V30 3316 O 320.124 0.140064 1.93995 0
M  V30 3317 C 320.407 3.48841 0.893419 0
M  V30 3318 C 320.26 4.48928 -0.279947 0
M  V30 3319 C 321.579 4.03498 1.75719 0
M  V30 3320 H 318.698 0.719918 0.157757 0
M  V30 3321 H 321.34 1.87743 -0.291968 0
M  V30 3322 H 319.49 3.57723 1.51547 0
M  V30 3323 H 321.162 4.52079 -0.91772 0
M  V30 3324 H 319.405 4.23694 -0.930919 0
M  V30 3325 H 320.076 5.5194 0.0812601 0
M  V30 3326 H 322.552 3.97427 1.23253 0
M  V30 3327 H 321.428 5.09393 2.04476 0
M  V30 3328 H 321.689 3.4906 2.71311 0
M  V30 3329 N 320.748 -0.0735177 1.57428 0
M  V30 3330 C 321.996 -0.771472 1.86796 0
M  V30 3331 C 322.317 -1.78201 0.791804 0
M  V30 3332 O 321.587 -1.95074 -0.179718 0
M  V30 3333 H 320.167 -0.28791 0.689287 0
M  V30 3334 H 322.829 -0.0500161 1.94836 0
M  V30 3335 H 321.925 -1.28874 2.8425 0
M  V30 3336 N 322.226 -1.5378 -0.344866 0
M  V30 3337 C 323.451 -1.75211 -1.10977 0
M  V30 3338 C 323.876 -0.48936 -1.81623 0
M  V30 3339 O 323.234 0.557925 -1.72502 0
M  V30 3340 C 323.282 -2.93147 -2.09993 0
M  V30 3341 O 322.386 -2.63203 -3.17487 0
M  V30 3342 H 321.727 -0.581241 -0.321021 0
M  V30 3343 H 324.257 -2.00738 -0.395661 0
M  V30 3344 H 324.267 -3.19898 -2.53237 0
M  V30 3345 H 322.942 -3.84731 -1.5797 0
M  V30 3346 H 321.519 -2.47336 -2.79069 0
M  V30 3347 N 323.704 0.605807 -1.45491 0
M  V30 3348 C 324.667 1.69836 -1.5391 0
M  V30 3349 C 325.667 1.55261 -0.418424 0
M  V30 3350 O 326.857 1.60296 -0.681965 0
M  V30 3351 C 323.989 3.09117 -1.43734 0
M  V30 3352 H 325.182 1.63738 -2.51257 0
M  V30 3353 H 322.735 0.821689 -1.32959 0
M  V30 3354 H 323.47 3.20791 -0.475788 0
M  V30 3355 H 323.255 3.21104 -2.25021 0
M  V30 3356 H 324.745 3.88696 -1.52661 0
M  V30 3357 N 325.182 1.32811 0.848464 0
M  V30 3358 C 326.112 1.24882 1.97299 0
M  V30 3359 C 327.093 0.131357 1.69592 0
M  V30 3360 O 328.278 0.319553 1.91553 0
M  V30 3361 C 325.408 0.97746 3.33261 0
M  V30 3362 C 324.362 2.05682 3.75338 0
M  V30 3363 C 323.688 1.63777 5.09 0
M  V30 3364 C 324.988 3.47254 3.90144 0
M  V30 3365 H 326.682 2.18966 2.04191 0
M  V30 3366 H 324.228 1.05413 0.981029 0
M  V30 3367 H 326.181 0.908513 4.1149 0
M  V30 3368 H 324.905 0.000980011 3.266 0
M  V30 3369 H 323.564 2.11603 2.99366 0
M  V30 3370 H 323.212 0.648569 4.98801 0
M  V30 3371 H 322.912 2.36 5.38124 0
M  V30 3372 H 324.436 1.5833 5.89715 0
M  V30 3373 H 325.85 3.43888 4.58709 0
M  V30 3374 H 324.247 4.1788 4.30693 0
M  V30 3375 H 325.317 3.86462 2.92874 0
M  V30 3376 N 326.66 -1.06551 1.16123 0
M  V30 3377 C 327.9 -1.80889 0.951766 0
M  V30 3378 C 328.264 -1.85062 -0.511465 0
M  V30 3379 O 329.465 -2.55353 -0.83954 0
M  V30 3380 C 327.736 -3.21609 1.55893 0
M  V30 3381 S 329.295 -4.12593 1.49373 0
M  V30 3382 H 326.113 -0.623156 0.342341 0
M  V30 3383 H 328.715 -1.27943 1.47821 0
M  V30 3384 H 327.419 -3.16165 2.61664 0
M  V30 3385 H 326.95 -3.79631 1.0317 0
M  V30 3386 H 328.965 -4.93753 0.492196 0
M  V30 3387 N 328.138 -0.959301 -1.25041 0
M  V30 3388 C 329.101 -0.487677 -2.23952 0
M  V30 3389 C 330.101 0.41119 -1.55454 0
M  V30 3390 O 331.291 0.207825 -1.72956 0
M  V30 3391 C 328.423 0.294807 -3.39623 0
M  V30 3392 H 329.616 -1.36198 -2.67189 0
M  V30 3393 H 327.169 -0.743042 -1.37508 0
M  V30 3394 H 327.904 1.18658 -3.01813 0
M  V30 3395 H 327.689 -0.35012 -3.90534 0
M  V30 3396 H 329.179 0.614089 -4.1306 0
M  V30 3397 N 329.616 1.39756 -0.72842 0
M  V30 3398 C 330.546 2.33289 -0.0991354 0
M  V30 3399 C 331.527 1.53568 0.731489 0
M  V30 3400 O 332.712 1.81987 0.677807 0
M  V30 3401 C 329.842 3.3763 0.813834 0
M  V30 3402 C 328.796 4.2791 0.0878663 0
M  V30 3403 C 328.122 5.22894 1.11741 0
M  V30 3404 C 329.422 5.11314 -1.06563 0
M  V30 3405 H 331.116 2.86163 -0.880408 0
M  V30 3406 H 328.662 1.37591 -0.424819 0
M  V30 3407 H 330.615 4.0201 1.26355 0
M  V30 3408 H 329.339 2.83181 1.62715 0
M  V30 3409 H 327.998 3.65 -0.342159 0
M  V30 3410 H 327.646 4.64744 1.92412 0
M  V30 3411 H 327.346 5.84143 0.636477 0
M  V30 3412 H 328.87 5.90151 1.56697 0
M  V30 3413 H 330.284 5.69076 -0.694671 0
M  V30 3414 H 328.681 5.81671 -1.47577 0
M  V30 3415 H 329.751 4.46534 -1.89038 0
M  V30 3416 N 331.094 0.475555 1.50254 0
M  V30 3417 C 332.004 -0.321501 2.32387 0
M  V30 3418 C 333.02 -0.991755 1.42969 0
M  V30 3419 O 334.196 -0.978747 1.76018 0
M  V30 3420 C 331.261 -1.38667 3.17762 0
M  V30 3421 C 330.322 -0.732538 4.23004 0
M  V30 3422 C 329.555 -1.74695 5.04299 0
M  V30 3423 O 329.778 -2.97399 4.86734 0
M  V30 3424 O 328.712 -1.31631 5.8733 0
M  V30 3425 H 332.538 0.350071 3.01676 0
M  V30 3426 H 330.123 0.237321 1.47503 0
M  V30 3427 H 332.005 -2.00354 3.70724 0
M  V30 3428 H 330.68 -2.04163 2.51196 0
M  V30 3429 H 329.587 -0.0765902 3.74022 0
M  V30 3430 H 330.92 -0.120452 4.92053 0
M  V30 3431 N 332.573 -1.56217 0.208337 0
M  V30 3432 C 333.821 -1.97558 -0.426076 0
M  V30 3433 C 334.142 -1.09683 -1.61229 0
M  V30 3434 O 333.412 -0.170956 -1.95153 0
M  V30 3435 H 331.992 -0.729575 -0.160405 0
M  V30 3436 H 334.654 -1.92606 0.298155 0
M  V30 3437 H 333.75 -3.02672 -0.761312 0
M  V30 3438 N 334.051 0.0651679 -1.57465 0
M  V30 3439 C 335.467 0.420105 -1.53972 0
M  V30 3440 C 335.667 1.78782 -0.929474 0
M  V30 3441 O 334.723 2.46771 -0.534839 0
M  V30 3442 C 336.036 0.355084 -2.98596 0
M  V30 3443 C 337.584 0.434792 -3.09965 0
M  V30 3444 C 338.059 0.399609 -4.56253 0
M  V30 3445 N 339.55 0.459488 -4.60915 0
M  V30 3446 C 340.285 0.454584 -5.71595 0
M  V30 3447 N 339.781 0.404102 -6.9162 0
M  V30 3448 N 341.574 0.501635 -5.59857 0
M  V30 3449 H 333.725 -0.830328 -1.95498 0
M  V30 3450 H 335.988 -0.312244 -0.895102 0
M  V30 3451 H 335.694 -0.583357 -3.46828 0
M  V30 3452 H 335.568 1.16275 -3.58831 0
M  V30 3453 H 337.955 1.36366 -2.61703 0
M  V30 3454 H 338.036 -0.40157 -2.52628 0
M  V30 3455 H 337.68 -0.525436 -5.05175 0
M  V30 3456 H 337.61 1.25359 -5.11461 0
M  V30 3457 H 340.101 0.502482 -3.74544 0
M  V30 3458 H 340.414 0.404468 -7.71741 0
M  V30 3459 H 338.759 0.37069 -6.94011 0
M  V30 3460 H 341.95 0.538812 -4.64989 0
M  V30 3461 H 342.123 0.494345 -6.46112 0
M  V30 3462 N 335.529 1.53961 0.336706 0
M  V30 3463 C 336.806 1.62171 1.09361 0
M  V30 3464 C 337.186 0.447263 2.06307 0
M  V30 3465 O 336.534 -0.559802 2.21537 0
M  V30 3466 C 336.744 2.98565 1.80721 0
M  V30 3467 C 338.092 3.54157 2.34218 0
M  V30 3468 O 339.116 3.00784 1.90807 0
M  V30 3469 O 337.975 4.47528 3.13657 0
M  V30 3470 H 335.069 0.6562 0.503319 0
M  V30 3471 H 337.615 1.66307 0.33765 0
M  V30 3472 H 336.387 3.75482 1.10132 0
M  V30 3473 H 336.01 2.9805 2.63158 0
M  V30 3474 N 337.007 -0.598083 1.45811 0
M  V30 3475 C 338.418 -1.18011 1.44673 0
M  V30 3476 C 338.769 -1.95378 0.179364 0
M  V30 3477 O 337.894 -2.04124 -0.718509 0
M  V30 3478 C 338.489 -2.14677 2.62105 0
M  V30 3479 C 337.048 -2.68236 2.64057 0
M  V30 3480 C 336.195 -1.43816 2.37091 0
M  V30 3481 H 339.146 -0.38686 1.53913 0
M  V30 3482 H 339.167 -2.97878 2.36746 0
M  V30 3483 H 338.679 -1.5834 3.5433 0
M  V30 3484 H 336.78 -3.28486 1.75864 0
M  V30 3485 H 336.893 -3.12021 3.63566 0
M  V30 3486 H 335.257 -1.731 1.86838 0
M  V30 3487 H 336.04 -0.893333 3.31473 0
M  V30 3488 N 338.485 -1.33259 -0.841409 0
M  V30 3489 C 339.395 -1.25332 -1.98316 0
M  V30 3490 C 340.411 -0.164364 -1.73222 0
M  V30 3491 O 341.587 -0.387486 -1.97637 0
M  V30 3492 C 338.652 -0.990078 -3.32262 0
M  V30 3493 C 337.713 -2.16879 -3.70489 0
M  V30 3494 C 336.946 -1.91801 -4.98044 0
M  V30 3495 O 337.169 -0.867075 -5.63771 0
M  V30 3496 O 336.103 -2.78267 -5.33714 0
M  V30 3497 H 339.929 -2.21344 -2.07944 0
M  V30 3498 H 337.514 -1.1328 -0.974058 0
M  V30 3499 H 339.396 -0.860321 -4.12524 0
M  V30 3500 H 338.071 -0.0602155 -3.23644 0
M  V30 3501 H 336.978 -2.35407 -2.90748 0
M  V30 3502 H 338.311 -3.0819 -3.8377 0
M  V30 3503 N 339.963 1.05934 -1.16686 0
M  V30 3504 C 340.893 2.1546 -0.899949 0
M  V30 3505 C 341.874 1.69391 0.155154 0
M  V30 3506 O 343.059 1.94199 0.00648693 0
M  V30 3507 C 340.189 3.44939 -0.404241 0
M  V30 3508 C 339.143 4.04536 -1.39767 0
M  V30 3509 C 338.469 5.29268 -0.760216 0
M  V30 3510 C 339.769 4.42893 -2.76845 0
M  V30 3511 H 341.463 2.38046 -1.81588 0
M  V30 3512 H 339.009 1.14404 -0.874514 0
M  V30 3513 H 340.962 4.20901 -0.204971 0
M  V30 3514 H 339.686 3.21983 0.547206 0
M  V30 3515 H 338.345 3.30635 -1.58355 0
M  V30 3516 H 337.993 5.02611 0.197831 0
M  V30 3517 H 337.693 5.70101 -1.42332 0
M  V30 3518 H 339.217 6.07924 -0.57105 0
M  V30 3519 H 340.631 5.09921 -2.62019 0
M  V30 3520 H 339.028 4.94721 -3.39663 0
M  V30 3521 H 340.098 3.53584 -3.31823 0
M  V30 3522 N 341.441 0.965919 1.2453 0
M  V30 3523 C 342.689 0.625593 1.92174 0
M  V30 3524 C 343.01 -0.841652 1.75901 0
M  V30 3525 O 342.28 -1.60061 1.12948 0
M  V30 3526 H 340.86 0.228388 0.71123 0
M  V30 3527 H 343.522 1.2266 1.51461 0
M  V30 3528 H 342.618 0.864653 2.99884 0
M  V30 3529 N 342.919 -1.39368 0.735821 0
M  V30 3530 C 343.849 -2.33234 0.111506 0
M  V30 3531 C 344.83 -1.53954 -0.723334 0
M  V30 3532 O 346.015 -1.82344 -0.668147 0
M  V30 3533 C 343.145 -3.38057 -0.795917 0
M  V30 3534 C 342.099 -4.2795 -0.065172 0
M  V30 3535 C 341.425 -5.23479 -1.08967 0
M  V30 3536 C 342.725 -5.10741 1.09273 0
M  V30 3537 H 344.419 -2.85692 0.895571 0
M  V30 3538 H 341.965 -1.37364 0.432109 0
M  V30 3539 H 343.918 -4.02675 -1.24221 0
M  V30 3540 H 342.642 -2.8404 -1.61211 0
M  V30 3541 H 341.301 -3.64813 0.361511 0
M  V30 3542 H 340.949 -4.65758 -1.89944 0
M  V30 3543 H 340.649 -5.84472 -0.605489 0
M  V30 3544 H 342.173 -5.90974 -1.53565 0
M  V30 3545 H 343.587 -5.68699 0.724841 0
M  V30 3546 H 341.984 -5.8088 1.50659 0
M  V30 3547 H 343.054 -4.45525 1.91404 0
M  V30 3548 N 344.397 -0.483516 -1.5 0
M  V30 3549 C 345.344 0.304164 -2.28787 0
M  V30 3550 C 346.314 0.976114 -1.34392 0
M  V30 3551 O 347.499 0.986156 -1.63339 0
M  V30 3552 C 344.639 1.37298 -3.16612 0
M  V30 3553 C 343.752 0.714561 -4.26049 0
M  V30 3554 C 342.887 1.76232 -5.01114 0
M  V30 3555 C 341.926 1.08483 -6.0241 0
M  V30 3556 N 341.063 2.076 -6.70706 0
M  V30 3557 H 345.903 -0.373981 -2.95644 0
M  V30 3558 H 343.44 -0.196275 -1.45785 0
M  V30 3559 H 345.398 2.00445 -3.65893 0
M  V30 3560 H 344.028 2.02012 -2.51776 0
M  V30 3561 H 343.08 -0.0297798 -3.80388 0
M  V30 3562 H 344.392 0.180383 -4.98474 0
M  V30 3563 H 343.546 2.46929 -5.54176 0
M  V30 3564 H 342.285 2.33033 -4.28424 0
M  V30 3565 H 341.29 0.363545 -5.48597 0
M  V30 3566 H 342.515 0.523551 -6.77079 0
M  V30 3567 H 340.461 2.63394 -6.00799 0
M  V30 3568 H 340.378 1.59201 -7.39047 0
M  V30 3569 H 341.646 2.77639 -7.2838 0
M  V30 3570 N 345.875 1.56104 -0.216619 0
M  V30 3571 C 347.1 2.0301 0.424462 0
M  V30 3572 C 347.525 1.0955 1.52907 0
M  V30 3573 O 346.883 0.0827914 1.81111 0
M  V30 3574 C 346.931 3.4819 0.937883 0
M  V30 3575 O 346.035 3.57865 2.04955 0
M  V30 3576 H 345.376 0.656925 0.0966755 0
M  V30 3577 H 347.906 2.01859 -0.33381 0
M  V30 3578 H 347.916 3.88413 1.24897 0
M  V30 3579 H 346.591 4.15699 0.129387 0
M  V30 3580 H 345.168 3.29527 1.74546 0
M  V30 3581 N 347.353 -0.0568162 1.57498 0
M  V30 3582 C 348.599 -0.75422 1.88253 0
M  V30 3583 C 348.932 -1.76461 0.810865 0
M  V30 3584 O 348.207 -1.93691 -0.177259 0
M  V30 3585 C 348.49 -1.44878 3.2967 0
M  V30 3586 C 348.343 -0.453789 4.47505 0
M  V30 3587 C 349.662 -2.38994 3.69554 0
M  V30 3588 H 346.781 -0.272724 0.684683 0
M  V30 3589 H 349.423 -0.0172113 1.89992 0
M  V30 3590 H 347.573 -2.077 3.28318 0
M  V30 3591 H 349.245 0.170371 4.60985 0
M  V30 3592 H 347.488 0.229552 4.33192 0
M  V30 3593 H 348.159 -0.977699 5.43273 0
M  V30 3594 H 350.635 -1.86239 3.72095 0
M  V30 3595 H 349.511 -2.84587 4.69363 0
M  V30 3596 H 349.772 -3.24461 3.00296 0
M  V30 3597 N 348.832 -1.54138 -0.328536 0
M  V30 3598 C 349.764 -1.79509 -1.4251 0
M  V30 3599 C 350.777 -0.67688 -1.48061 0
M  V30 3600 O 351.966 -0.953898 -1.50874 0
M  V30 3601 C 349.066 -1.89337 -2.81078 0
M  V30 3602 C 348.239 -3.19443 -2.98789 0
M  V30 3603 C 347.298 -3.20036 -4.17688 0
M  V30 3604 O 346.324 -3.93697 -4.11086 0
M  V30 3605 N 347.526 -2.43467 -5.26976 0
M  V30 3606 H 350.291 -2.74139 -1.21111 0
M  V30 3607 H 347.852 -1.53373 -0.518499 0
M  V30 3608 H 349.844 -1.87167 -3.58818 0
M  V30 3609 H 348.414 -1.01826 -2.95551 0
M  V30 3610 H 347.634 -3.34614 -2.08391 0
M  V30 3611 H 348.922 -4.05354 -3.07515 0
M  V30 3612 H 348.32 -1.83201 -5.35214 0
M  V30 3613 H 346.877 -2.4708 -6.03154 0
M  V30 3614 N 350.31 0.590341 -1.46126 0
M  V30 3615 C 351.257 1.69994 -1.56111 0
M  V30 3616 C 352.227 1.61065 -0.405867 0
M  V30 3617 O 353.412 1.8039 -0.621613 0
M  V30 3618 C 350.552 3.08326 -1.55013 0
M  V30 3619 C 349.665 3.27936 -2.81215 0
M  V30 3620 C 348.8 4.56473 -2.71673 0
M  V30 3621 C 347.839 4.694 -3.92849 0
M  V30 3622 N 346.976 5.89254 -3.81738 0
M  V30 3623 H 351.816 1.60797 -2.50895 0
M  V30 3624 H 349.353 0.783799 -1.24479 0
M  V30 3625 H 351.311 3.88383 -1.52362 0
M  V30 3626 H 349.941 3.16439 -0.637667 0
M  V30 3627 H 348.993 2.41536 -2.93879 0
M  V30 3628 H 350.305 3.33357 -3.71045 0
M  V30 3629 H 349.459 5.44748 -2.67085 0
M  V30 3630 H 348.198 4.53477 -1.7947 0
M  V30 3631 H 347.203 3.79544 -3.97777 0
M  V30 3632 H 348.428 4.7418 -4.86138 0
M  V30 3633 H 346.374 5.87271 -2.92317 0
M  V30 3634 H 346.291 5.95911 -4.65217 0
M  V30 3635 H 347.559 6.79981 -3.81112 0
M  V30 3636 N 351.788 1.33704 0.83433 0
M  V30 3637 C 352.718 1.26967 1.95963 0
M  V30 3638 C 353.699 0.149337 1.69443 0
M  V30 3639 O 354.884 0.339852 1.91203 0
M  V30 3640 C 352.014 1.01275 3.32206 0
M  V30 3641 C 350.968 2.09652 3.73136 0
M  V30 3642 C 350.294 1.69166 5.07235 0
M  V30 3643 C 351.594 3.51372 3.86439 0
M  V30 3644 H 353.288 2.2112 2.01857 0
M  V30 3645 H 350.834 1.06447 0.969793 0
M  V30 3646 H 352.787 0.952106 4.10503 0
M  V30 3647 H 351.511 0.0356203 3.26581 0
M  V30 3648 H 350.17 2.14766 2.97104 0
M  V30 3649 H 349.818 0.701437 4.98085 0
M  V30 3650 H 349.518 2.41694 5.35591 0
M  V30 3651 H 351.042 1.64576 5.88003 0
M  V30 3652 H 352.456 3.48734 4.55036 0
M  V30 3653 H 350.853 4.22425 4.26236 0
M  V30 3654 H 351.923 3.89546 2.88759 0
M  V30 3655 N 353.266 -1.05314 1.17247 0
M  V30 3656 C 354.196 -2.1498 0.911362 0
M  V30 3657 C 355.177 -1.69471 -0.146169 0
M  V30 3658 O 356.362 -1.942 0.003812 0
M  V30 3659 C 353.492 -3.4472 0.422528 0
M  V30 3660 C 352.446 -4.03789 1.4191 0
M  V30 3661 C 351.772 -5.28858 0.788274 0
M  V30 3662 C 353.072 -4.41418 2.7919 0
M  V30 3663 H 354.766 -2.3708 1.82848 0
M  V30 3664 H 352.312 -1.13938 0.880569 0
M  V30 3665 H 354.265 -4.20787 0.227289 0
M  V30 3666 H 352.989 -3.22269 -0.530123 0
M  V30 3667 H 351.648 -3.2979 1.60106 0
M  V30 3668 H 351.296 -5.02709 -0.171173 0
M  V30 3669 H 350.996 -5.69338 1.45353 0
M  V30 3670 H 352.52 -6.07612 0.603282 0
M  V30 3671 H 353.934 -5.08524 2.64719 0
M  V30 3672 H 352.331 -4.92913 3.42282 0
M  V30 3673 H 353.401 -3.51819 3.33693 0
M  V30 3674 N 354.744 -0.972509 -1.24016 0
M  V30 3675 C 356.021 -0.553733 -1.87598 0
M  V30 3676 C 356.401 0.969158 -1.87538 0
M  V30 3677 O 355.749 1.84255 -1.35139 0
M  V30 3678 C 355.959 -1.15076 -3.29482 0
M  V30 3679 C 357.307 -1.23862 -4.06132 0
M  V30 3680 O 358.331 -1.10363 -3.38672 0
M  V30 3681 O 357.19 -1.45252 -5.26844 0
M  V30 3682 H 354.284 -0.185331 -0.805966 0
M  V30 3683 H 356.83 -1.06709 -1.31952 0
M  V30 3684 H 355.602 -2.19333 -3.2405 0
M  V30 3685 H 355.225 -0.621746 -3.92709 0
M  V30 3686 N 356.222 1.38976 -0.743202 0
M  V30 3687 C 357.185 2.28901 -0.117014 0
M  V30 3688 C 358.185 1.46698 0.658503 0
M  V30 3689 O 359.375 1.67274 0.486305 0
M  V30 3690 C 356.507 3.30309 0.84315 0
M  V30 3691 H 357.7 2.8578 -0.909373 0
M  V30 3692 H 355.253 1.47761 -0.509547 0
M  V30 3693 H 355.988 2.785 1.66157 0
M  V30 3694 H 355.773 3.91029 0.289594 0
M  V30 3695 H 357.263 3.97577 1.2776 0
M  V30 3696 N 357.7 0.491464 1.49741 0
M  V30 3697 C 358.946 -0.0565092 2.02721 0
M  V30 3698 C 359.279 -1.37522 1.37118 0
M  V30 3699 O 358.554 -1.87866 0.503645 0
M  V30 3700 C 358.837 -0.219051 3.59433 0
M  V30 3701 C 358.69 1.12211 4.35579 0
M  V30 3702 C 360.009 -0.964157 4.29409 0
M  V30 3703 H 357.128 -0.0190627 0.736753 0
M  V30 3704 H 359.77 0.641021 1.7886 0
M  V30 3705 H 357.92 -0.813165 3.79895 0
M  V30 3706 H 359.592 1.75437 4.26637 0
M  V30 3707 H 357.835 1.71377 3.98513 0
M  V30 3708 H 358.506 0.961794 5.43556 0
M  V30 3709 H 360.982 -0.460378 4.13545 0
M  V30 3710 H 359.858 -1.04671 5.38828 0
M  V30 3711 H 360.119 -2.00563 3.93988 0
M  V30 3712 N 359.178 -1.55987 0.224894 0
M  V30 3713 C 360.455 -1.90232 -0.455083 0
M  V30 3714 C 360.835 -1.14269 -1.77499 0
M  V30 3715 O 360.183 -0.253079 -2.27094 0
M  V30 3716 C 360.393 -3.42993 -0.644758 0
M  V30 3717 C 361.741 -4.13821 -0.950669 0
M  V30 3718 O 362.765 -3.4861 -0.731423 0
M  V30 3719 O 361.624 -5.29128 -1.36695 0
M  V30 3720 H 358.718 -0.79108 -0.241084 0
M  V30 3721 H 361.264 -1.67581 0.267327 0
M  V30 3722 H 360.036 -3.90252 0.28613 0
M  V30 3723 H 359.659 -3.71434 -1.41853 0
M  V30 3724 N 360.656 0.0484629 -1.57525 0
M  V30 3725 C 361.884 0.755421 -1.92616 0
M  V30 3726 C 362.299 1.69919 -0.822984 0
M  V30 3727 O 361.656 1.81378 0.202085 0
M  V30 3728 C 361.707 1.52915 -3.27566 0
M  V30 3729 O 361.428 0.62329 -4.33644 0
M  V30 3730 C 362.929 2.33502 -3.76818 0
M  V30 3731 H 360.149 0.213465 -0.63614 0
M  V30 3732 H 362.693 0.0117698 -2.04497 0
M  V30 3733 H 360.848 2.22486 -3.17142 0
M  V30 3734 H 361.262 1.16383 -5.11425 0
M  V30 3735 H 362.736 2.83214 -4.73808 0
M  V30 3736 H 363.213 3.14068 -3.07014 0
M  V30 3737 H 363.819 1.69043 -3.90262 0
M  V30 3738 N 362.134 1.5431 0.320358 0
M  V30 3739 C 363.364 1.7638 1.07582 0
M  V30 3740 C 363.772 0.513944 1.82086 0
M  V30 3741 O 363.115 -0.525123 1.76035 0
M  V30 3742 C 363.177 2.9055 2.1171 0
M  V30 3743 C 362.841 4.2934 1.56575 0
M  V30 3744 C 363.838 5.10077 1.00586 0
M  V30 3745 C 361.523 4.75893 1.60722 0
M  V30 3746 C 363.517 6.35477 0.494756 0
M  V30 3747 C 361.204 6.0126 1.09224 0
M  V30 3748 C 362.202 6.80886 0.53696 0
M  V30 3749 O 361.89 8.03894 0.0297371 0
M  V30 3750 H 361.622 0.592369 0.325692 0
M  V30 3751 H 364.176 2.02019 0.37116 0
M  V30 3752 H 362.406 2.60489 2.85801 0
M  V30 3753 H 364.095 3.00373 2.73003 0
M  V30 3754 H 364.861 4.75265 0.966869 0
M  V30 3755 H 360.74 4.13957 2.02882 0
M  V30 3756 H 364.284 6.97574 0.0606842 0
M  V30 3757 H 360.181 6.35562 1.12831 0
M  V30 3758 H 360.949 8.18372 0.14486 0
M  V30 3759 N 363.613 -0.582584 1.46437 0
M  V30 3760 C 364.862 -1.337 1.5102 0
M  V30 3761 C 365.175 -1.94891 0.166359 0
M  V30 3762 O 366.381 -2.71351 0.0899954 0
M  V30 3763 C 364.837 -2.42315 2.66104 0
M  V30 3764 C 364.445 -1.87427 4.06909 0
M  V30 3765 C 366.189 -3.19099 2.79958 0
M  V30 3766 C 364.096 -2.93672 5.13333 0
M  V30 3767 H 363.026 -0.502619 0.562041 0
M  V30 3768 H 365.677 -0.621701 1.72647 0
M  V30 3769 H 364.059 -3.16645 2.37807 0
M  V30 3770 H 365.233 -1.19639 4.44998 0
M  V30 3771 H 363.548 -1.2331 3.97723 0
M  V30 3772 H 366.145 -3.9839 3.56636 0
M  V30 3773 H 366.488 -3.71695 1.87479 0
M  V30 3774 H 367.021 -2.51875 3.07902 0
M  V30 3775 H 363.76 -2.45962 6.07604 0
M  V30 3776 H 363.28 -3.59948 4.79789 0
M  V30 3777 H 364.959 -3.5762 5.39182 0
M  V30 3778 N 365.091 -1.34144 -0.827227 0
M  V30 3779 C 366.502 -1.23557 -1.39966 0
M  V30 3780 C 366.853 0.140731 -1.95695 0
M  V30 3781 O 365.978 1.04087 -1.89723 0
M  V30 3782 C 366.573 -2.23708 -2.54441 0
M  V30 3783 C 365.132 -2.16924 -3.07605 0
M  V30 3784 C 364.279 -2.10549 -1.80456 0
M  V30 3785 H 367.23 -1.45573 -0.631991 0
M  V30 3786 H 367.251 -1.85157 -3.32411 0
M  V30 3787 H 366.763 -3.23866 -2.13851 0
M  V30 3788 H 364.864 -1.20107 -3.52711 0
M  V30 3789 H 364.977 -3.07988 -3.66988 0
M  V30 3790 H 363.341 -1.56203 -2.01178 0
M  V30 3791 H 364.124 -3.12535 -1.42046 0
M  V30 3792 N 366.569 1.04691 -1.17803 0
M  V30 3793 C 367.815 1.78045 -0.970969 0
M  V30 3794 C 368.148 1.87686 0.498751 0
M  V30 3795 O 367.423 1.38035 1.37027 0
M  V30 3796 C 367.706 3.2166 -1.61884 0
M  V30 3797 C 367.559 3.20001 -3.161 0
M  V30 3798 C 368.878 4.1962 -1.3269 0
M  V30 3799 H 365.997 0.64633 -0.354155 0
M  V30 3800 H 368.639 1.22333 -1.45378 0
M  V30 3801 H 366.789 3.69232 -1.20831 0
M  V30 3802 H 368.461 2.80467 -3.66246 0
M  V30 3803 H 366.704 2.58203 -3.48588 0
M  V30 3804 H 367.375 4.21386 -3.56564 0
M  V30 3805 H 369.851 3.80567 -1.68249 0
M  V30 3806 H 368.727 5.18339 -1.80599 0
M  V30 3807 H 368.988 4.414 -0.248622 0
M  V30 3808 N 368.047 0.979072 1.23499 0
M  V30 3809 C 369.458 0.684391 1.73704 0
M  V30 3810 C 369.809 -0.799448 1.79174 0
M  V30 3811 O 368.934 -1.62531 1.42873 0
M  V30 3812 C 369.529 1.23564 3.15464 0
M  V30 3813 C 368.088 0.99063 3.6313 0
M  V30 3814 C 367.235 1.36416 2.41425 0
M  V30 3815 H 370.186 1.15307 1.09041 0
M  V30 3816 H 370.207 0.607417 3.7562 0
M  V30 3817 H 369.719 2.31561 3.1145 0
M  V30 3818 H 367.82 -0.0733136 3.72528 0
M  V30 3819 H 367.933 1.64427 4.5 0
M  V30 3820 H 366.297 0.782616 2.42378 0
M  V30 3821 H 367.08 2.45387 2.40083 0
M  V30 3822 N 369.525 -1.3858 0.750561 0
M  V30 3823 C 370.488 -2.28836 0.129152 0
M  V30 3824 C 371.488 -1.47045 -0.650714 0
M  V30 3825 O 372.678 -1.6753 -0.477428 0
M  V30 3826 C 369.81 -3.30751 -0.825622 0
M  V30 3827 H 371.003 -2.85294 0.924516 0
M  V30 3828 H 368.556 -1.47489 0.517376 0
M  V30 3829 H 369.291 -2.79378 -1.64677 0
M  V30 3830 H 369.076 -3.91177 -0.268852 0
M  V30 3831 H 370.566 -3.98249 -1.2565 0
M  V30 3832 N 371.003 -0.499398 -1.49478 0
M  V30 3833 C 372.419 -0.155261 -1.58843 0
M  V30 3834 C 372.619 1.34008 -1.50479 0
M  V30 3835 O 371.675 2.11589 -1.37791 0
M  V30 3836 C 372.988 -0.730636 -2.91689 0
M  V30 3837 C 374.536 -0.696599 -3.0515 0
M  V30 3838 C 375.011 -1.25001 -4.40612 0
M  V30 3839 N 376.502 -1.21064 -4.47099 0
M  V30 3840 C 377.237 -1.60905 -5.50361 0
M  V30 3841 N 376.733 -2.08331 -6.60735 0
M  V30 3842 N 378.526 -1.52331 -5.41065 0
M  V30 3843 H 370.677 -1.47162 -1.53158 0
M  V30 3844 H 372.94 -0.610309 -0.725415 0
M  V30 3845 H 372.646 -1.77928 -3.03372 0
M  V30 3846 H 372.52 -0.190161 -3.7672 0
M  V30 3847 H 374.907 0.343204 -2.93097 0
M  V30 3848 H 374.988 -1.2742 -2.21806 0
M  V30 3849 H 374.632 -2.28859 -4.53416 0
M  V30 3850 H 374.562 -0.64836 -5.22593 0
M  V30 3851 H 377.053 -0.863128 -3.67911 0
M  V30 3852 H 377.366 -2.36805 -7.35624 0
M  V30 3853 H 375.711 -2.12304 -6.6178 0
M  V30 3854 H 378.902 -1.151 -4.53729 0
M  V30 3855 H 379.075 -1.83704 -6.21415 0
M  V30 3856 N 372.481 1.55866 -0.233164 0
M  V30 3857 C 373.758 1.90471 0.444988 0
M  V30 3858 C 374.138 1.15209 1.7689 0
M  V30 3859 O 373.486 0.265119 2.26957 0
M  V30 3860 C 373.696 3.4333 0.626559 0
M  V30 3861 C 375.044 4.14319 0.92871 0
M  V30 3862 O 376.068 3.48993 0.712926 0
M  V30 3863 O 374.927 5.29846 1.33887 0
M  V30 3864 H 372.021 0.792347 0.236885 0
M  V30 3865 H 374.567 1.67437 -0.276211 0
M  V30 3866 H 373.339 3.90095 -0.306822 0
M  V30 3867 H 372.962 3.72181 1.39881 0
M  V30 3868 N 373.959 -0.0401083 1.57549 0
M  V30 3869 C 374.889 -1.04384 2.08869 0
M  V30 3870 C 375.87 -1.38407 0.988817 0
M  V30 3871 O 377.055 -1.47483 1.26342 0
M  V30 3872 C 374.185 -2.34808 2.55895 0
M  V30 3873 C 373.139 -2.15057 3.70047 0
M  V30 3874 C 372.465 -3.51145 4.03239 0
M  V30 3875 C 373.765 -1.54576 4.98902 0
M  V30 3876 H 375.459 -0.616666 2.92981 0
M  V30 3877 H 373.005 -0.295184 1.40942 0
M  V30 3878 H 374.958 -3.05346 2.90417 0
M  V30 3879 H 373.682 -2.79565 1.68853 0
M  V30 3880 H 372.341 -1.46954 3.35857 0
M  V30 3881 H 371.989 -3.93529 3.13279 0
M  V30 3882 H 371.689 -3.38758 4.80122 0
M  V30 3883 H 373.213 -4.23062 4.40285 0
M  V30 3884 H 374.627 -2.15017 5.31451 0
M  V30 3885 H 373.024 -1.52796 5.80322 0
M  V30 3886 H 374.094 -0.51039 4.82206 0
M  V30 3887 N 375.437 -1.54477 -0.31217 0
M  V30 3888 C 376.347 -1.87695 -1.4074 0
M  V30 3889 C 377.363 -0.769975 -1.56036 0
M  V30 3890 O 378.539 -1.06537 -1.70915 0
M  V30 3891 C 375.604 -2.10755 -2.75287 0
M  V30 3892 C 374.665 -3.34514 -2.69071 0
M  V30 3893 C 373.898 -3.56465 -3.97201 0
M  V30 3894 O 374.121 -2.81637 -4.96021 0
M  V30 3895 O 373.055 -4.49964 -3.9977 0
M  V30 3896 H 376.881 -2.80849 -1.15574 0
M  V30 3897 H 374.466 -1.40526 -0.507228 0
M  V30 3898 H 376.348 -2.27188 -3.54913 0
M  V30 3899 H 375.023 -1.20788 -3.0032 0
M  V30 3900 H 373.93 -3.23456 -1.87955 0
M  V30 3901 H 375.263 -4.24575 -2.48992 0
M  V30 3902 N 376.915 0.57481 -1.46744 0
M  V30 3903 C 377.862 1.68329 -1.57905 0
M  V30 3904 C 378.832 1.60625 -0.422927 0
M  V30 3905 O 380.017 1.79721 -0.640711 0
M  V30 3906 C 377.157 3.06665 -1.58274 0
M  V30 3907 C 376.27 3.24935 -2.84678 0
M  V30 3908 C 375.405 4.53566 -2.76499 0
M  V30 3909 C 374.444 4.65207 -3.97806 0
M  V30 3910 N 373.581 5.85172 -3.87967 0
M  V30 3911 H 378.421 1.58127 -2.52587 0
M  V30 3912 H 375.958 0.770552 -1.25303 0
M  V30 3913 H 377.916 3.86745 -1.56473 0
M  V30 3914 H 376.546 3.15745 -0.671194 0
M  V30 3915 H 375.598 2.38405 -2.96424 0
M  V30 3916 H 376.91 3.29403 -3.7456 0
M  V30 3917 H 376.064 5.41885 -2.72848 0
M  V30 3918 H 374.803 4.51548 -1.8427 0
M  V30 3919 H 373.808 3.75304 -4.0178 0
M  V30 3920 H 375.033 4.68997 -4.9114 0
M  V30 3921 H 372.979 5.84137 -2.98529 0
M  V30 3922 H 372.896 5.90943 -4.71511 0
M  V30 3923 H 374.164 6.759 -3.88303 0
M  V30 3924 N 378.394 1.34581 0.820102 0
M  V30 3925 C 379.805 1.24298 1.39309 0
M  V30 3926 C 380.156 -0.130351 1.95767 0
M  V30 3927 O 379.281 -1.0308 1.90272 0
M  V30 3928 C 379.876 2.25054 2.53251 0
M  V30 3929 C 378.435 2.18552 3.0645 0
M  V30 3930 C 377.582 2.11503 1.79337 0
M  V30 3931 H 380.533 1.45906 0.624262 0
M  V30 3932 H 380.554 1.86917 3.31425 0
M  V30 3933 H 380.066 3.24996 2.1213 0
M  V30 3934 H 378.167 1.21976 3.52069 0
M  V30 3935 H 378.28 3.0993 3.65349 0
M  V30 3936 H 376.644 1.57268 2.00347 0
M  V30 3937 H 377.427 3.13284 1.40386 0
M  V30 3938 N 379.872 -1.04064 1.18357 0
M  V30 3939 C 381.119 -1.77265 0.978947 0
M  V30 3940 C 381.447 -1.88189 -0.491428 0
M  V30 3941 O 380.702 -1.38653 -1.38108 0
M  V30 3942 C 381.001 -3.20634 1.57888 0
M  V30 3943 C 380.667 -3.29743 3.07539 0
M  V30 3944 C 379.329 -3.31937 3.48384 0
M  V30 3945 C 381.681 -3.29841 4.03552 0
M  V30 3946 C 379.009 -3.3187 4.83818 0
M  V30 3947 C 381.361 -3.31313 5.38901 0
M  V30 3948 C 380.025 -3.31799 5.79194 0
M  V30 3949 H 379.295 -0.648659 0.358222 0
M  V30 3950 H 381.942 -1.22225 1.47422 0
M  V30 3951 H 380.247 -3.78675 1.00561 0
M  V30 3952 H 381.944 -3.75917 1.39598 0
M  V30 3953 H 378.534 -3.28757 2.74986 0
M  V30 3954 H 382.718 -3.27337 3.73047 0
M  V30 3955 H 377.974 -3.30562 5.14333 0
M  V30 3956 H 382.148 -3.30338 6.13066 0
M  V30 3957 H 379.775 -3.315 6.84114 0
M  V30 3958 N 381.35 -0.985608 -1.22978 0
M  V30 3959 C 382.28 -0.549649 -2.26939 0
M  V30 3960 C 383.261 0.419803 -1.64838 0
M  V30 3961 O 384.446 0.31203 -1.91677 0
M  V30 3962 C 381.576 0.143652 -3.47003 0
M  V30 3963 C 380.53 -0.743606 -4.21491 0
M  V30 3964 C 379.856 0.0822027 -5.34637 0
M  V30 3965 C 381.156 -2.03694 -4.80943 0
M  V30 3966 H 382.85 -1.41862 -2.63658 0
M  V30 3967 H 380.396 -0.683571 -1.26741 0
M  V30 3968 H 382.349 0.459985 -4.18882 0
M  V30 3969 H 381.073 1.04711 -3.09359 0
M  V30 3970 H 379.732 -1.04347 -3.51436 0
M  V30 3971 H 379.38 0.986359 -4.93234 0
M  V30 3972 H 379.08 -0.508377 -5.85397 0
M  V30 3973 H 380.604 0.392797 -6.09335 0
M  V30 3974 H 382.018 -1.78504 -5.44802 0
M  V30 3975 H 380.415 -2.57573 -5.42011 0
M  V30 3976 H 381.485 -2.72042 -4.01399 0
M  V30 3977 N 382.828 1.3818 -0.7579 0
M  V30 3978 C 383.758 2.33027 -0.148597 0
M  V30 3979 C 384.739 1.55085 0.69875 0
M  V30 3980 O 385.924 1.83384 0.639053 0
M  V30 3981 C 383.054 3.3928 0.742034 0
M  V30 3982 C 382.008 4.28 -0.00291946 0
M  V30 3983 C 381.334 5.25146 1.00625 0
M  V30 3984 C 382.634 5.08938 -1.17385 0
M  V30 3985 H 384.328 2.84231 -0.940909 0
M  V30 3986 H 381.874 1.36659 -0.453908 0
M  V30 3987 H 383.827 4.046 1.17799 0
M  V30 3988 H 382.551 2.86569 1.56671 0
M  V30 3989 H 381.21 3.64192 -0.419504 0
M  V30 3990 H 380.858 4.68721 1.8251 0
M  V30 3991 H 380.558 5.85361 0.512428 0
M  V30 3992 H 382.082 5.93342 1.44143 0
M  V30 3993 H 383.496 5.67474 -0.815224 0
M  V30 3994 H 381.893 5.7841 -1.59882 0
M  V30 3995 H 382.963 4.42424 -1.98468 0
M  V30 3996 N 384.306 0.507319 1.49211 0
M  V30 3997 C 385.717 0.0611118 1.866 0
M  V30 3998 C 386.068 -1.35488 1.41907 0
M  V30 3999 O 385.193 -2.0108 0.799726 0
M  V30 4000 C 385.788 0.104125 3.3864 0
M  V30 4001 C 384.347 -0.28677 3.75306 0
M  V30 4002 C 383.494 0.473893 2.73221 0
M  V30 4003 H 386.445 0.719775 1.41439 0
M  V30 4004 H 386.466 -0.689672 3.74198 0
M  V30 4005 H 385.978 1.13482 3.71138 0
M  V30 4006 H 384.079 -1.32046 3.48417 0
M  V30 4007 H 384.192 0.0370745 4.79086 0
M  V30 4008 H 382.556 -0.0770644 2.54583 0
M  V30 4009 H 383.339 1.50478 3.08563 0
M  V30 4010 N 385.784 -1.5574 0.241426 0
M  V30 4011 C 387.03 -1.99104 -0.385406 0
M  V30 4012 C 387.363 -1.1293 -1.57988 0
M  V30 4013 O 386.638 -0.191449 -1.93555 0
M  V30 4014 C 386.921 -3.51087 -0.800616 0
M  V30 4015 C 386.774 -4.48028 0.398874 0
M  V30 4016 C 388.093 -4.08015 -1.64959 0
M  V30 4017 H 385.212 -0.723848 -0.138614 0
M  V30 4018 H 387.854 -1.86903 0.341642 0
M  V30 4019 H 386.004 -3.61615 -1.4201 0
M  V30 4020 H 387.676 -4.49487 1.03726 0
M  V30 4021 H 385.919 -4.21077 1.04293 0
M  V30 4022 H 386.59 -5.51962 0.0651056 0
M  V30 4023 H 389.066 -4.00555 -1.12672 0
M  V30 4024 H 387.942 -5.14635 -1.90898 0
M  V30 4025 H 388.203 -3.56131 -2.61961 0
M  V30 4026 N 387.262 0.0317525 -1.57568 0
M  V30 4027 C 388.172 1.05021 -2.0978 0
M  V30 4028 C 389.188 1.39809 -1.03583 0
M  V30 4029 O 390.364 1.49182 -1.35302 0
M  V30 4030 C 387.429 2.33301 -2.56459 0
M  V30 4031 C 386.49 2.0512 -3.77127 0
M  V30 4032 C 385.723 3.27283 -4.2157 0
M  V30 4033 O 385.946 4.37861 -3.65559 0
M  V30 4034 O 384.88 3.13141 -5.14029 0
M  V30 4035 H 388.706 0.636505 -2.96955 0
M  V30 4036 H 386.291 0.248559 -1.47318 0
M  V30 4037 H 388.173 3.08722 -2.86825 0
M  V30 4038 H 386.848 2.73973 -1.72397 0
M  V30 4039 H 385.755 1.27276 -3.51784 0
M  V30 4040 H 387.088 1.69305 -4.62165 0
M  V30 4041 N 388.74 1.54641 0.303973 0
M  V30 4042 C 389.703 1.84646 1.35789 0
M  V30 4043 C 390.703 0.7192 1.4382 0
M  V30 4044 O 391.893 0.987491 1.43507 0
M  V30 4045 C 389.025 2.02407 2.74307 0
M  V30 4046 H 390.218 2.78829 1.10429 0
M  V30 4047 H 387.771 1.46658 0.540487 0
M  V30 4048 H 388.506 1.10502 3.04893 0
M  V30 4049 H 388.291 2.84453 2.69868 0
M  V30 4050 H 389.781 2.27002 3.50514 0
M  V30 4051 N 390.218 -0.567019 1.47046 0
M  V30 4052 C 391.464 -1.32658 1.53394 0
M  V30 4053 C 391.797 -1.93254 0.19148 0
M  V30 4054 O 391.072 -1.77338 -0.798844 0
M  V30 4055 C 391.355 -2.44412 2.64452 0
M  V30 4056 C 391.208 -1.88749 4.08282 0
M  V30 4057 C 392.527 -3.46387 2.71485 0
M  V30 4058 H 389.646 -0.48098 0.558415 0
M  V30 4059 H 392.288 -0.635481 1.79058 0
M  V30 4060 H 390.438 -3.03363 2.427 0
M  V30 4061 H 392.11 -1.34134 4.41368 0
M  V30 4062 H 390.353 -1.19481 4.17021 0
M  V30 4063 H 391.024 -2.69491 4.81745 0
M  V30 4064 H 393.5 -2.9734 2.91081 0
M  V30 4065 H 392.376 -4.2202 3.50985 0
M  V30 4066 H 392.637 -4.04616 1.78153 0
M  V30 4067 N 391.696 -1.35014 -0.812953 0
M  V30 4068 C 392.926 -1.30841 -1.59888 0
M  V30 4069 C 393.334 0.117576 -1.88834 0
M  V30 4070 O 392.677 1.07807 -1.48739 0
M  V30 4071 C 392.739 -2.0412 -2.95931 0
M  V30 4072 C 392.403 -3.53336 -2.89832 0
M  V30 4073 C 393.4 -4.48052 -2.63714 0
M  V30 4074 C 391.085 -3.95894 -3.0915 0
M  V30 4075 C 393.079 -5.833 -2.56982 0
M  V30 4076 C 390.766 -5.31239 -3.0204 0
M  V30 4077 C 391.764 -6.24754 -2.75991 0
M  V30 4078 O 391.452 -7.57617 -2.68833 0
M  V30 4079 H 391.184 -0.451215 -0.50337 0
M  V30 4080 H 393.738 -1.78354 -1.01877 0
M  V30 4081 H 391.968 -1.51235 -3.559 0
M  V30 4082 H 393.657 -1.93107 -3.57022 0
M  V30 4083 H 394.423 -4.16492 -2.48515 0
M  V30 4084 H 390.302 -3.23495 -3.28438 0
M  V30 4085 H 393.846 -6.56263 -2.36569 0
M  V30 4086 H 389.743 -5.62415 -3.16796 0
M  V30 4087 H 390.511 -7.67469 -2.84487 0
M  V30 4088 N 393.175 1.03435 -1.18907 0
M  V30 4089 C 394.4 1.80919 -1.01406 0
M  V30 4090 C 394.825 1.83055 0.432721 0
M  V30 4091 O 394.183 1.25252 1.31079 0
M  V30 4092 C 394.231 3.24091 -1.58105 0
M  V30 4093 O 393.335 4.04434 -0.806669 0
M  V30 4094 H 392.676 0.558709 -0.358803 0
M  V30 4095 H 395.206 1.30223 -1.57807 0
M  V30 4096 H 395.216 3.74853 -1.61087 0
M  V30 4097 H 393.891 3.21851 -2.6341 0
M  V30 4098 H 392.468 3.63091 -0.849666 0
M  V30 4099 N 394.653 0.992116 1.22453 0
M  V30 4100 C 395.899 0.668523 1.91464 0
M  V30 4101 C 396.232 -0.797313 1.77078 0
M  V30 4102 O 395.507 -1.5765 1.13916 0
M  V30 4103 C 395.79 1.07424 3.43703 0
M  V30 4104 C 395.643 2.59857 3.67143 0
M  V30 4105 C 396.962 0.626891 4.35612 0
M  V30 4106 H 394.081 0.244341 0.695318 0
M  V30 4107 H 396.723 1.2355 1.44345 0
M  V30 4108 H 394.873 0.591816 3.83966 0
M  V30 4109 H 396.545 3.15764 3.3629 0
M  V30 4110 H 394.788 3.01961 3.11451 0
M  V30 4111 H 395.459 2.83296 4.73759 0
M  V30 4112 H 397.935 1.04125 4.02861 0
M  V30 4113 H 396.811 0.939076 5.40807 0
M  V30 4114 H 397.072 -0.472457 4.39568 0
M  V30 4115 N 396.131 -1.37776 0.765217 0
M  V30 4116 C 397.542 -1.82521 0.392819 0
M  V30 4117 C 397.893 -1.63789 -1.08017 0
M  V30 4118 O 397.018 -1.14542 -1.83601 0
M  V30 4119 C 397.613 -3.31358 0.706214 0
M  V30 4120 C 396.172 -3.74406 0.386952 0
M  V30 4121 C 395.319 -2.60394 0.953422 0
M  V30 4122 H 398.27 -1.2634 0.960412 0
M  V30 4123 H 398.291 -3.80498 -0.0114706 0
M  V30 4124 H 397.803 -3.44959 1.77833 0
M  V30 4125 H 395.904 -3.66377 -0.678112 0
M  V30 4126 H 396.017 -4.70749 0.890636 0
M  V30 4127 H 394.381 -2.51878 0.378064 0
M  V30 4128 H 395.164 -2.76791 2.03081 0
M  V30 4129 N 397.609 -0.515225 -1.4894 0
M  V30 4130 C 398.857 0.0241671 -2.02086 0
M  V30 4131 C 399.178 1.3616 -1.3959 0
M  V30 4132 O 398.448 1.87841 -0.556121 0
M  V30 4133 H 397.028 0.0119203 -0.746905 0
M  V30 4134 H 399.69 -0.675702 -1.82812 0
M  V30 4135 H 398.786 0.143385 -3.1177 0
M  V30 4136 N 399.087 1.5561 -0.249682 0
M  V30 4137 C 400.503 1.59254 0.105103 0
M  V30 4138 C 400.703 1.26685 1.56694 0
M  V30 4139 O 399.759 1.0155 2.31179 0
M  V30 4140 C 401.072 2.99687 -0.246592 0
M  V30 4141 C 402.62 3.12416 -0.191118 0
M  V30 4142 C 403.095 4.55074 -0.516885 0
M  V30 4143 N 404.586 4.60835 -0.467489 0
M  V30 4144 C 405.321 5.69201 -0.69268 0
M  V30 4145 N 404.817 6.85817 -0.981146 0
M  V30 4146 N 406.61 5.58635 -0.623198 0
M  V30 4147 H 398.761 1.75049 -1.20298 0
M  V30 4148 H 401.024 0.815003 -0.484225 0
M  V30 4149 H 400.73 3.28267 -1.26228 0
M  V30 4150 H 400.604 3.74798 0.424962 0
M  V30 4151 H 402.991 2.83615 0.815247 0
M  V30 4152 H 403.072 2.39573 -0.896563 0
M  V30 4153 H 402.716 4.84596 -1.52082 0
M  V30 4154 H 402.646 5.26181 0.210068 0
M  V30 4155 H 405.137 3.7705 -0.253373 0
M  V30 4156 H 405.45 7.64341 -1.14032 0
M  V30 4157 H 403.795 6.87494 -1.01865 0
M  V30 4158 H 406.986 4.66406 -0.397863 0
M  V30 4159 H 407.159 6.43017 -0.802093 0
M  V30 4160 N 400.565 -0.0233959 1.57583 0
M  V30 4161 C 401.813 -0.711654 1.89156 0
M  V30 4162 C 402.134 -1.75591 0.848096 0
M  V30 4163 O 401.404 -1.95547 -0.117566 0
M  V30 4164 H 399.984 -0.265835 0.698098 0
M  V30 4165 H 402.646 0.0119948 1.94896 0
M  V30 4166 H 401.742 -1.19766 2.88206 0
M  V30 4167 N 402.043 -1.548 -0.295768 0
M  V30 4168 C 403.271 -1.78327 -1.04914 0
M  V30 4169 C 403.686 -0.545316 -1.80753 0
M  V30 4170 O 403.043 0.485013 -1.75937 0
M  V30 4171 C 403.094 -2.99418 -2.02561 0
M  V30 4172 O 402.815 -4.18431 -1.29798 0
M  V30 4173 C 404.316 -3.35375 -2.89895 0
M  V30 4174 H 401.536 -0.594618 -0.310918 0
M  V30 4175 H 404.08 -2.01763 -0.333454 0
M  V30 4176 H 402.235 -2.78175 -2.69624 0
M  V30 4177 H 402.649 -4.86736 -1.95419 0
M  V30 4178 H 404.123 -4.23332 -3.54251 0
M  V30 4179 H 404.6 -2.53761 -3.58472 0
M  V30 4180 H 405.206 -3.58796 -2.28355 0
M  V30 4181 N 403.521 0.559213 -1.47345 0
M  V30 4182 C 404.767 1.31843 -1.54095 0
M  V30 4183 C 405.1 1.93149 -0.201726 0
M  V30 4184 O 404.375 1.77759 0.789428 0
M  V30 4185 C 404.658 2.43006 -2.65744 0
M  V30 4186 C 404.511 1.86581 -4.09277 0
M  V30 4187 C 405.83 3.44943 -2.73318 0
M  V30 4188 H 402.949 0.478012 -0.560957 0
M  V30 4189 H 405.591 0.625977 -1.79392 0
M  V30 4190 H 403.741 3.02072 -2.44305 0
M  V30 4191 H 405.413 1.31792 -4.42073 0
M  V30 4192 H 403.656 1.17268 -4.17649 0
M  V30 4193 H 404.327 2.66933 -4.83168 0
M  V30 4194 H 406.803 2.95793 -2.92653 0
M  V30 4195 H 405.679 4.20153 -3.53218 0
M  V30 4196 H 405.94 4.03665 -1.80296 0
M  V30 4197 N 404.999 1.35443 0.805782 0
M  V30 4198 C 406.245 1.28952 1.56522 0
M  V30 4199 C 406.578 -0.135597 1.93726 0
M  V30 4200 O 405.853 -1.08516 1.61414 0
M  V30 4201 C 406.136 2.19678 2.85331 0
M  V30 4202 C 405.989 3.7081 2.54598 0
M  V30 4203 C 407.308 2.09495 3.8704 0
M  V30 4204 H 404.427 0.469764 0.567883 0
M  V30 4205 H 407.069 1.65851 0.927001 0
M  V30 4206 H 405.219 1.8834 3.39795 0
M  V30 4207 H 406.891 4.12593 2.06312 0
M  V30 4208 H 405.134 3.91051 1.8778 0
M  V30 4209 H 405.805 4.29679 3.46525 0
M  V30 4210 H 408.281 2.37045 3.41978 0
M  V30 4211 H 407.157 2.75173 4.74943 0
M  V30 4212 H 407.418 1.07714 4.28777 0
M  V30 4213 N 406.477 -1.02803 1.19454 0
M  V30 4214 C 407.705 -1.79841 1.02297 0
M  V30 4215 C 408.12 -1.83879 -0.428259 0
M  V30 4216 O 407.477 -1.28345 -1.29745 0
M  V30 4217 C 407.528 -3.24852 1.58598 0
M  V30 4218 O 407.249 -3.21097 2.98041 0
M  V30 4219 C 408.75 -4.18485 1.46236 0
M  V30 4220 H 405.97 -0.565936 0.360496 0
M  V30 4221 H 408.514 -1.2948 1.58288 0
M  V30 4222 H 406.669 -3.72401 1.06753 0
M  V30 4223 H 407.083 -4.12033 3.24545 0
M  V30 4224 H 408.557 -5.18121 1.90407 0
M  V30 4225 H 409.034 -4.37254 0.41301 0
M  V30 4226 H 409.64 -3.76811 1.97215 0
M  V30 4227 N 407.956 -0.998596 -1.21925 0
M  V30 4228 C 409.204 -0.676325 -1.90448 0
M  V30 4229 C 409.525 0.794719 -1.78071 0
M  V30 4230 O 408.795 1.5701 -1.17152 0
M  V30 4231 H 407.375 -0.247165 -0.704925 0
M  V30 4232 H 410.037 -1.26633 -1.48156 0
M  V30 4233 H 409.133 -0.943858 -2.97486 0
M  V30 4234 N 409.434 1.37368 -0.772513 0
M  V30 4235 C 410.662 2.03942 -0.348588 0
M  V30 4236 C 411.077 1.58264 1.02947 0
M  V30 4237 O 410.434 0.764246 1.65727 0
M  V30 4238 C 410.485 3.5946 -0.38351 0
M  V30 4239 O 410.206 4.03468 -1.70721 0
M  V30 4240 C 411.707 4.4327 0.0519152 0
M  V30 4241 H 408.927 0.654931 -0.145966 0
M  V30 4242 H 411.471 1.75686 -1.04665 0
M  V30 4243 H 409.626 3.86486 0.265978 0
M  V30 4244 H 410.04 4.97991 -1.64636 0
M  V30 4245 H 411.514 5.51995 -0.0236733 0
M  V30 4246 H 411.991 4.2514 1.10238 0
M  V30 4247 H 412.597 4.21471 -0.569415 0
M  V30 4248 N 410.912 0.523116 1.48665 0
M  V30 4249 C 411.842 -0.23231 2.32342 0
M  V30 4250 C 412.823 -0.941637 1.41659 0
M  V30 4251 O 414.008 -0.928751 1.70552 0
M  V30 4252 C 411.138 -1.28387 3.22698 0
M  V30 4253 C 410.092 -0.693098 4.22351 0
M  V30 4254 C 409.418 -1.8468 5.01794 0
M  V30 4255 C 410.718 0.33063 5.21252 0
M  V30 4256 H 412.412 0.466192 2.95748 0
M  V30 4257 H 409.958 0.225643 1.42221 0
M  V30 4258 H 411.911 -1.82024 3.80059 0
M  V30 4259 H 410.635 -2.01186 2.57278 0
M  V30 4260 H 409.294 -0.178299 3.66166 0
M  V30 4261 H 408.942 -2.56301 4.32804 0
M  V30 4262 H 408.642 -1.45747 5.69238 0
M  V30 4263 H 410.166 -2.38709 5.62006 0
M  V30 4264 H 411.58 -0.118407 5.73178 0
M  V30 4265 H 409.977 0.636974 5.9671 0
M  V30 4266 H 411.047 1.23883 4.68808 0
M  V30 4267 N 412.39 -1.55475 0.257931 0
M  V30 4268 C 413.3 -2.2549 -0.647425 0
M  V30 4269 C 414.316 -1.2748 -1.18427 0
M  V30 4270 O 415.492 -1.6038 -1.2182 0
M  V30 4271 C 412.557 -2.94916 -1.82278 0
M  V30 4272 C 411.618 -4.08363 -1.32432 0
M  V30 4273 C 410.851 -4.74469 -2.44366 0
M  V30 4274 O 411.074 -4.39701 -3.63344 0
M  V30 4275 O 410.008 -5.62763 -2.13497 0
M  V30 4276 H 413.834 -3.03593 -0.0807707 0
M  V30 4277 H 411.419 -1.49377 0.0259962 0
M  V30 4278 H 413.301 -3.38606 -2.50846 0
M  V30 4279 H 411.976 -2.19744 -2.37685 0
M  V30 4280 H 410.883 -3.69166 -0.605605 0
M  V30 4281 H 412.216 -4.85385 -0.816211 0
M  V30 4282 N 413.868 0.0150385 -1.57593 0
M  V30 4283 C 415.284 0.370907 -1.5523 0
M  V30 4284 C 415.484 1.75735 -0.985882 0
M  V30 4285 O 414.54 2.44944 -0.613077 0
M  V30 4286 C 415.853 0.259908 -2.99575 0
M  V30 4287 C 417.401 0.335959 -3.11192 0
M  V30 4288 C 417.876 0.254253 -4.57294 0
M  V30 4289 N 419.367 0.312618 -4.62144 0
M  V30 4290 C 420.102 0.272505 -5.72752 0
M  V30 4291 N 419.598 0.183864 -6.92556 0
M  V30 4292 N 421.391 0.323267 -5.6117 0
M  V30 4293 H 413.542 -0.892104 -1.92757 0
M  V30 4294 H 415.805 -0.340563 -0.884715 0
M  V30 4295 H 415.511 -0.693403 -3.44797 0
M  V30 4296 H 415.385 1.048 -3.62349 0
M  V30 4297 H 417.772 1.27971 -2.65909 0
M  V30 4298 H 417.853 -0.481739 -2.51223 0
M  V30 4299 H 417.497 -0.685887 -5.03247 0
M  V30 4300 H 417.427 1.09024 -5.15191 0
M  V30 4301 H 419.918 0.38307 -3.75953 0
M  V30 4302 H 420.231 0.15874 -7.72637 0
M  V30 4303 H 418.576 0.149708 -6.94839 0
M  V30 4304 H 421.767 0.390607 -4.66467 0
M  V30 4305 H 421.94 0.288539 -6.47357 0
M  V30 4306 N 415.346 1.54954 0.287554 0
M  V30 4307 C 416.594 1.74528 1.01904 0
M  V30 4308 C 416.915 0.541349 1.87335 0
M  V30 4309 O 416.185 -0.444108 1.908 0
M  V30 4310 H 414.765 0.643576 0.379235 0
M  V30 4311 H 417.427 1.92333 0.315294 0
M  V30 4312 H 416.523 2.64015 1.6644 0
M  V30 4313 N 416.824 -0.551391 1.4764 0
M  V30 4314 C 418.073 -1.30467 1.53822 0
M  V30 4315 C 418.386 -1.94495 0.207661 0
M  V30 4316 O 419.592 -2.71099 0.147533 0
M  V30 4317 C 418.048 -2.36616 2.71184 0
M  V30 4318 C 417.656 -1.78754 4.10793 0
M  V30 4319 C 419.4 -3.13088 2.86663 0
M  V30 4320 C 417.307 -2.82717 5.19447 0
M  V30 4321 H 416.237 -0.490584 0.572576 0
M  V30 4322 H 418.888 -0.58494 1.73927 0
M  V30 4323 H 417.27 -3.11529 2.4447 0
M  V30 4324 H 418.444 -1.10173 4.47435 0
M  V30 4325 H 416.759 -1.14846 4.00249 0
M  V30 4326 H 419.356 -3.90736 3.65007 0
M  V30 4327 H 419.699 -3.67635 1.95321 0
M  V30 4328 H 420.232 -2.45288 3.13175 0
M  V30 4329 H 416.971 -2.33018 6.12685 0
M  V30 4330 H 416.491 -3.4969 4.87316 0
M  V30 4331 H 418.17 -3.46102 5.46646 0
M  V30 4332 N 418.302 -1.35869 -0.798587 0
M  V30 4333 C 419.232 -1.32118 -1.92528 0
M  V30 4334 C 420.213 -0.194209 -1.68988 0
M  V30 4335 O 421.398 -0.390426 -1.90235 0
M  V30 4336 C 418.528 -1.10047 -3.29404 0
M  V30 4337 C 417.482 -2.19471 -3.67446 0
M  V30 4338 C 416.808 -1.82555 -5.02571 0
M  V30 4339 C 418.108 -3.61495 -3.76987 0
M  V30 4340 H 419.802 -2.26394 -1.95924 0
M  V30 4341 H 417.348 -1.08981 -0.94123 0
M  V30 4342 H 419.301 -1.06061 -4.07835 0
M  V30 4343 H 418.025 -0.122195 -3.26371 0
M  V30 4344 H 416.684 -2.22568 -2.91306 0
M  V30 4345 H 416.332 -0.833249 -4.9605 0
M  V30 4346 H 416.032 -2.5581 -5.28995 0
M  V30 4347 H 417.556 -1.80108 -5.83432 0
M  V30 4348 H 418.97 -3.60676 -4.4563 0
M  V30 4349 H 417.367 -4.33577 -4.14887 0
M  V30 4350 H 418.437 -3.97065 -2.78329 0
M  V30 4351 N 419.78 1.02168 -1.19998 0
M  V30 4352 C 420.727 2.10601 -0.944228 0
M  V30 4353 C 421.697 1.65639 0.123664 0
M  V30 4354 O 422.882 1.9079 -0.0199941 0
M  V30 4355 C 420.022 3.41504 -0.496865 0
M  V30 4356 C 419.135 3.99973 -1.63234 0
M  V30 4357 C 418.27 5.18915 -1.13579 0
M  V30 4358 C 417.309 5.69456 -2.24468 0
M  V30 4359 N 416.446 6.79665 -1.76068 0
M  V30 4360 H 421.286 2.31814 -1.8726 0
M  V30 4361 H 418.823 1.13686 -0.933483 0
M  V30 4362 H 420.781 4.16626 -0.218843 0
M  V30 4363 H 419.411 3.2038 0.394508 0
M  V30 4364 H 418.463 3.21997 -2.0254 0
M  V30 4365 H 419.775 4.33492 -2.46752 0
M  V30 4366 H 418.929 6.01222 -0.813429 0
M  V30 4367 H 417.668 4.8695 -0.270434 0
M  V30 4368 H 416.673 4.85757 -2.57526 0
M  V30 4369 H 417.898 6.03459 -3.11472 0
M  V30 4370 H 415.844 6.49538 -0.918516 0
M  V30 4371 H 415.761 7.12349 -2.5317 0
M  V30 4372 H 417.029 7.65549 -1.46817 0
M  V30 4373 N 421.258 1.00505 1.21394 0
M  V30 4374 C 422.205 0.565496 2.23765 0
M  V30 4375 C 423.175 -0.408466 1.60999 0
M  V30 4376 O 424.36 -0.310503 1.88257 0
M  V30 4377 C 421.5 -0.101667 3.4495 0
M  V30 4378 C 420.613 0.915479 4.22188 0
M  V30 4379 C 419.748 0.220574 5.30742 0
M  V30 4380 C 418.787 1.22527 5.99711 0
M  V30 4381 N 417.924 0.557831 6.9988 0
M  V30 4382 H 422.764 1.44314 2.60725 0
M  V30 4383 H 420.301 0.722643 1.28126 0
M  V30 4384 H 422.259 -0.505504 4.14126 0
M  V30 4385 H 420.889 -0.94303 3.08718 0
M  V30 4386 H 419.941 1.43756 3.52191 0
M  V30 4387 H 421.253 1.68005 4.69655 0
M  V30 4388 H 420.407 -0.239368 6.06228 0
M  V30 4389 H 419.146 -0.576401 4.84282 0
M  V30 4390 H 418.151 1.69571 5.22997 0
M  V30 4391 H 419.376 2.02332 6.48258 0
M  V30 4392 H 417.322 -0.219486 6.55633 0
M  V30 4393 H 417.239 1.26065 7.45415 0
M  V30 4394 H 418.507 0.121095 7.79406 0
M  V30 4395 N 422.737 -1.36956 0.779787 0
M  V30 4396 C 423.985 -1.99097 0.347079 0
M  V30 4397 C 424.306 -1.62206 -1.08232 0
M  V30 4398 O 423.576 -0.891373 -1.74446 0
M  V30 4399 H 422.156 -0.736409 0.125342 0
M  V30 4400 H 424.818 -1.67308 0.999696 0
M  V30 4401 H 423.914 -3.09107 0.431162 0
M  V30 4402 N 424.215 -0.530993 -1.48385 0
M  V30 4403 C 425.492 0.0671788 -1.95485 0
M  V30 4404 C 425.872 1.51191 -1.47324 0
M  V30 4405 O 425.22 2.17507 -0.700202 0
M  V30 4406 C 425.43 -0.0511206 -3.48963 0
M  V30 4407 C 426.778 0.107632 -4.24464 0
M  V30 4408 O 427.802 0.0226248 -3.56193 0
M  V30 4409 O 426.661 0.285972 -5.45751 0
M  V30 4410 H 423.755 0.0787365 -0.823243 0
M  V30 4411 H 426.301 -0.595662 -1.58902 0
M  V30 4412 H 425.073 -1.05747 -3.7674 0
M  V30 4413 H 424.696 0.650525 -3.92242 0
M  V30 4414 N 425.693 1.55336 -0.266172 0
M  V30 4415 C 426.603 2.2583 0.635458 0
M  V30 4416 C 427.619 1.28106 1.17749 0
M  V30 4417 O 428.795 1.61024 1.20968 0
M  V30 4418 C 425.86 2.95879 1.80712 0
M  V30 4419 C 424.921 4.09059 1.30265 0
M  V30 4420 C 424.154 4.75759 2.41846 0
M  V30 4421 O 424.377 4.41622 3.61007 0
M  V30 4422 O 423.311 5.63888 2.1051 0
M  V30 4423 H 427.137 3.03631 0.0646693 0
M  V30 4424 H 424.722 1.49361 -0.0339177 0
M  V30 4425 H 426.604 3.39932 2.49047 0
M  V30 4426 H 425.279 2.21002 2.36516 0
M  V30 4427 H 424.186 3.69482 0.586019 0
M  V30 4428 H 425.519 4.85811 0.790458 0
M  V30 4429 N 427.171 -0.0066808 1.57599 0
M  V30 4430 C 428.411 -0.697501 1.92131 0
M  V30 4431 C 428.775 -1.71306 0.867071 0
M  V30 4432 O 429.976 -2.45377 1.09743 0
M  V30 4433 C 428.247 -1.32978 3.3174 0
M  V30 4434 S 429.806 -2.04665 3.88146 0
M  V30 4435 H 426.624 -0.230555 0.672581 0
M  V30 4436 H 429.226 0.0484026 1.9544 0
M  V30 4437 H 427.93 -0.57772 4.06313 0
M  V30 4438 H 427.461 -2.11376 3.31789 0
M  V30 4439 H 429.476 -3.32097 3.68682 0
M  V30 4440 N 428.649 -1.55105 -0.279332 0
M  V30 4441 C 429.559 -1.90638 -1.36727 0
M  V30 4442 C 430.575 -0.802899 -1.54368 0
M  V30 4443 O 431.751 -1.10138 -1.68616 0
M  V30 4444 C 428.816 -2.16547 -2.70755 0
M  V30 4445 C 427.877 -3.40146 -2.61915 0
M  V30 4446 C 427.11 -3.6481 -3.8955 0
M  V30 4447 O 427.333 -2.92095 -4.89935 0
M  V30 4448 O 426.267 -4.58343 -3.90135 0
M  V30 4449 H 430.093 -2.83237 -1.09591 0
M  V30 4450 H 427.678 -1.4157 -0.477306 0
M  V30 4451 H 429.56 -2.34665 -3.50014 0
M  V30 4452 H 428.235 -1.27131 -2.9769 0
M  V30 4453 H 427.142 -3.2737 -1.81052 0
M  V30 4454 H 428.475 -4.29761 -2.3993 0
M  V30 4455 N 430.127 0.543554 -1.4793 0
M  V30 4456 C 431.057 1.65888 -1.64327 0
M  V30 4457 C 432.038 1.62818 -0.492383 0
M  V30 4458 O 433.223 1.80226 -0.723338 0
M  V30 4459 C 430.353 3.04506 -1.67013 0
M  V30 4460 C 429.307 3.2243 -2.81466 0
M  V30 4461 C 428.633 4.61972 -2.69233 0
M  V30 4462 C 429.933 3.06496 -4.22915 0
M  V30 4463 H 431.627 1.52421 -2.57698 0
M  V30 4464 H 429.173 0.731849 -1.24016 0
M  V30 4465 H 431.126 3.82391 -1.77074 0
M  V30 4466 H 429.85 3.18964 -0.70212 0
M  V30 4467 H 428.509 2.46957 -2.70938 0
M  V30 4468 H 428.157 4.73247 -1.7043 0
M  V30 4469 H 427.857 4.74911 -3.46025 0
M  V30 4470 H 429.381 5.41974 -2.81242 0
M  V30 4471 H 430.795 3.74186 -4.34348 0
M  V30 4472 H 429.192 3.30938 -5.006 0
M  V30 4473 H 430.262 2.03077 -4.40327 0
M  V30 4474 N 431.605 1.3629 0.791371 0
M  V30 4475 C 432.535 1.33137 1.91825 0
M  V30 4476 C 433.516 0.203168 1.68882 0
M  V30 4477 O 434.701 0.400509 1.90025 0
M  V30 4478 C 431.831 1.11793 3.28816 0
M  V30 4479 C 430.785 2.21417 3.66277 0
M  V30 4480 C 430.111 1.85218 5.01596 0
M  V30 4481 C 431.411 3.63489 3.75064 0
M  V30 4482 H 433.105 2.2743 1.9472 0
M  V30 4483 H 430.651 1.09479 0.935437 0
M  V30 4484 H 432.604 1.08222 4.07266 0
M  V30 4485 H 431.328 0.139501 3.26302 0
M  V30 4486 H 429.987 2.2411 2.90121 0
M  V30 4487 H 429.635 0.859544 4.95602 0
M  V30 4488 H 429.335 2.58611 5.27631 0
M  V30 4489 H 430.859 1.832 5.82469 0
M  V30 4490 H 432.273 3.63034 4.43711 0
M  V30 4491 H 430.67 4.35771 4.12582 0
M  V30 4492 H 431.74 3.98536 2.76219 0
M  V30 4493 N 433.083 -1.0153 1.20538 0
M  V30 4494 C 434.331 -1.74803 1.01432 0
M  V30 4495 C 434.652 -1.8963 -0.454456 0
M  V30 4496 O 433.922 -1.43975 -1.32846 0
M  V30 4497 H 432.502 -0.647598 0.372324 0
M  V30 4498 H 435.164 -1.22402 1.5167 0
M  V30 4499 H 434.26 -2.75114 1.47373 0
M  V30 4500 N 434.561 -1.01147 -1.20859 0
M  V30 4501 C 435.511 -0.548247 -2.2131 0
M  V30 4502 C 436.495 0.393646 -1.5601 0
M  V30 4503 O 437.687 0.217445 -1.75659 0
M  V30 4504 C 434.816 0.117252 -3.431 0
M  V30 4505 C 433.902 -0.846043 -4.15575 0
M  V30 4506 N 434.293 -2.00149 -4.64515 0
M  V30 4507 C 432.591 -0.665783 -4.41003 0
M  V30 4508 C 433.292 -2.60764 -5.19978 0
M  V30 4509 N 432.268 -1.88868 -5.09735 0
M  V30 4510 H 436.07 -1.42921 -2.56809 0
M  V30 4511 H 433.584 -0.876142 -1.36739 0
M  V30 4512 H 435.581 0.46662 -4.1428 0
M  V30 4513 H 434.241 0.994115 -3.09107 0
M  V30 4514 H 435.252 -2.38162 -4.5989 0
M  V30 4515 H 431.929 0.163456 -4.1718 0
M  V30 4516 H 433.319 -3.58519 -5.68255 0
M  V30 4517 N 436.039 1.36541 -0.78704 0
M  V30 4518 C 437.264 2.0409 -0.369053 0
M  V30 4519 C 437.689 1.58957 1.00569 0
M  V30 4520 O 437.047 0.756926 1.64743 0
M  V30 4521 C 437.095 3.57924 -0.438466 0
M  V30 4522 O 436.199 4.08642 0.555479 0
M  V30 4523 H 435.54 0.645142 -0.157122 0
M  V30 4524 H 438.07 1.74545 -1.06749 0
M  V30 4525 H 438.08 4.06887 -0.301218 0
M  V30 4526 H 436.755 3.90127 -1.44132 0
M  V30 4527 H 435.332 3.70958 0.380088 0
M  V30 4528 N 437.518 0.538854 1.48102 0
M  V30 4529 C 438.465 -0.219042 2.29758 0
M  V30 4530 C 439.435 -0.925562 1.37922 0
M  V30 4531 O 440.62 -0.924855 1.66886 0
M  V30 4532 C 437.76 -1.25452 3.2149 0
M  V30 4533 C 436.873 -0.555943 4.28408 0
M  V30 4534 C 436.008 -1.57512 5.0731 0
M  V30 4535 C 435.047 -0.860498 6.06021 0
M  V30 4536 N 434.184 -1.82564 6.77949 0
M  V30 4537 H 439.024 0.483449 2.94052 0
M  V30 4538 H 436.561 0.250247 1.44956 0
M  V30 4539 H 438.519 -1.86727 3.7308 0
M  V30 4540 H 437.149 -1.92528 2.591 0
M  V30 4541 H 436.201 0.170938 3.80016 0
M  V30 4542 H 437.513 0.00474616 4.988 0
M  V30 4543 H 436.667 -2.26191 5.62959 0
M  V30 4544 H 435.406 -2.16972 4.36778 0
M  V30 4545 H 434.411 -0.159686 5.49568 0
M  V30 4546 H 435.636 -0.271897 6.78555 0
M  V30 4547 H 433.582 -2.40915 6.10161 0
M  V30 4548 H 433.499 -1.31662 7.44447 0
M  V30 4549 H 434.767 -2.50414 7.38182 0
M  V30 4550 N 438.996 -1.55193 0.274407 0
M  V30 4551 C 439.944 -2.23924 -0.629362 0
M  V30 4552 C 440.938 -1.23602 -1.1584 0
M  V30 4553 O 442.144 -1.41535 -1.11211 0
M  V30 4554 H 438.519 -0.718637 -0.221507 0
M  V30 4555 H 440.49 -2.98388 -0.0268322 0
M  V30 4556 C 439.239 -2.97329 -1.80252 0
M  V30 4557 H 438.562 -3.74313 -1.40462 0
M  V30 4558 H 440.002 -3.48743 -2.41152 0
M  V30 4559 C 438.461 -2.0276 -2.69054 0
M  V30 4560 O 438.991 -1.57836 -3.69392 0
M  V30 4561 N 437.197 -1.69275 -2.36208 0
M  V30 4562 H 436.744 -2.06004 -1.54661 0
M  V30 4563 H 436.702 -1.06271 -2.95895 0
M  V30 4564 N 440.474 -0.00167713 -1.576 0
M  V30 4565 C 441.723 0.682021 -1.89819 0
M  V30 4566 C 442.036 1.74844 -0.876871 0
M  V30 4567 O 443.242 2.48688 -1.08934 0
M  V30 4568 C 441.698 1.26425 -3.36964 0
M  V30 4569 C 441.306 0.232568 -4.47396 0
M  V30 4570 C 443.05 1.92604 -3.78291 0
M  V30 4571 C 440.957 0.824882 -5.85619 0
M  V30 4572 H 439.887 0.258499 -0.708304 0
M  V30 4573 H 442.538 -0.0624957 -1.83394 0
M  V30 4574 H 440.92 2.05949 -3.38232 0
M  V30 4575 H 442.094 -0.5382 -4.57646 0
M  V30 4576 H 440.409 -0.32888 -4.15099 0
M  V30 4577 H 443.006 2.37827 -4.78897 0
M  V30 4578 H 443.349 2.75732 -3.11894 0
M  V30 4579 H 443.882 1.19812 -3.79328 0
M  V30 4580 H 440.621 0.0323542 -6.55492 0
M  V30 4581 H 440.141 1.56477 -5.79029 0
M  V30 4582 H 441.82 1.32301 -6.33329 0
M  V30 4583 N 441.952 1.55251 0.271103 0
M  V30 4584 C 443.368 1.47133 0.618393 0
M  V30 4585 C 443.568 0.686994 1.89427 0
M  V30 4586 O 442.624 0.206609 2.51653 0
M  V30 4587 C 443.937 2.91361 0.743593 0
M  V30 4588 C 445.485 3.01587 0.837522 0
M  V30 4589 C 445.96 4.47073 0.994483 0
M  V30 4590 N 447.451 4.50909 1.05996 0
M  V30 4591 C 448.186 5.60698 1.20024 0
M  V30 4592 N 447.682 6.80348 1.30759 0
M  V30 4593 N 449.475 5.48444 1.23149 0
M  V30 4594 H 441.626 2.04698 -0.566784 0
M  V30 4595 H 443.889 0.928319 -0.192165 0
M  V30 4596 H 443.595 3.51483 -0.123493 0
M  V30 4597 H 443.469 3.40484 1.62328 0
M  V30 4598 H 445.856 2.4156 1.69507 0
M  V30 4599 H 445.937 2.55713 -0.0668086 0
M  V30 4600 H 445.581 5.07703 0.141582 0
M  V30 4601 H 445.511 4.90605 1.91349 0
M  V30 4602 H 448.002 3.6472 0.989316 0
M  V30 4603 H 448.315 7.59772 1.41303 0
M  V30 4604 H 446.66 6.83156 1.27761 0
M  V30 4605 H 449.851 4.53907 1.14394 0
M  V30 4606 H 450.024 6.34049 1.33738 0
M  V30 4607 N 443.43 -0.535701 1.48216 0
M  V30 4608 C 444.658 -1.31671 1.59594 0
M  V30 4609 C 445.073 -1.87083 0.254056 0
M  V30 4610 O 444.43 -1.66112 -0.755854 0
M  V30 4611 C 444.481 -2.47158 2.63809 0
M  V30 4612 O 444.202 -1.94032 3.92789 0
M  V30 4613 C 445.703 -3.39062 2.85573 0
M  V30 4614 H 442.923 -0.400623 0.538277 0
M  V30 4615 H 445.467 -0.646827 1.94001 0
M  V30 4616 H 443.622 -3.10043 2.32276 0
M  V30 4617 H 444.036 -2.69585 4.49916 0
M  V30 4618 H 445.51 -4.16459 3.62306 0
M  V30 4619 H 445.987 -3.93941 1.94184 0
M  V30 4620 H 446.593 -2.81975 3.18387 0
M  V30 4621 N 444.908 -1.36708 -0.784132 0
M  V30 4622 C 446.154 -1.31426 -1.54451 0
M  V30 4623 C 446.487 0.10476 -1.93917 0
M  V30 4624 O 445.762 1.05934 -1.6312 0
M  V30 4625 C 446.045 -2.24189 -2.818 0
M  V30 4626 C 445.898 -3.74813 -2.48667 0
M  V30 4627 C 447.217 -2.15626 -3.83658 0
M  V30 4628 H 444.336 -0.478739 -0.560337 0
M  V30 4629 H 446.978 -1.67305 -0.900498 0
M  V30 4630 H 445.128 -1.93722 -3.36755 0
M  V30 4631 H 446.8 -4.15823 -1.99722 0
M  V30 4632 H 445.043 -3.93989 -1.81535 0
M  V30 4633 H 445.714 -4.35138 -3.39646 0
M  V30 4634 H 448.19 -2.42456 -3.38163 0
M  V30 4635 H 447.066 -2.82694 -4.70506 0
M  V30 4636 H 447.327 -1.14522 -4.27009 0
M  V30 4637 N 446.386 1.0089 -1.21074 0
M  V30 4638 C 447.632 1.74866 -1.02712 0
M  V30 4639 C 447.965 1.89178 0.438787 0
M  V30 4640 O 447.24 1.42325 1.32567 0
M  V30 4641 C 447.523 3.16347 -1.72036 0
M  V30 4642 C 447.376 3.09782 -3.26121 0
M  V30 4643 C 448.695 4.15187 -1.45973 0
M  V30 4644 H 445.814 0.634736 -0.374539 0
M  V30 4645 H 448.456 1.17646 -1.49196 0
M  V30 4646 H 446.606 3.65201 -1.32517 0
M  V30 4647 H 448.278 2.68673 -3.74983 0
M  V30 4648 H 446.521 2.46982 -3.56626 0
M  V30 4649 H 447.192 4.09829 -3.6979 0
M  V30 4650 H 449.668 3.75022 -1.80272 0
M  V30 4651 H 448.544 5.12331 -1.96999 0
M  V30 4652 H 448.805 4.40386 -0.388924 0
M  V30 4653 N 447.864 1.01787 1.20321 0
M  V30 4654 C 449.092 0.727194 1.937 0
M  V30 4655 C 449.507 -0.712305 1.74848 0
M  V30 4656 O 448.864 -1.48327 1.06327 0
M  V30 4657 C 448.915 1.05497 3.45764 0
M  V30 4658 O 448.636 2.43794 3.64 0
M  V30 4659 C 450.137 0.785534 4.36285 0
M  V30 4660 H 447.357 0.266939 0.615617 0
M  V30 4661 H 449.901 1.35939 1.52777 0
M  V30 4662 H 448.056 0.468158 3.84561 0
M  V30 4663 H 448.47 2.55656 4.57974 0
M  V30 4664 H 449.944 1.06495 5.4163 0
M  V30 4665 H 450.421 -0.280273 4.38305 0
M  V30 4666 H 451.027 1.35456 4.03152 0
M  V30 4667 N 449.342 -1.36122 0.79427 0
M  V30 4668 C 450.59 -1.98718 0.368177 0
M  V30 4669 C 450.911 -1.63345 -1.06506 0
M  V30 4670 O 450.181 -0.909825 -1.73491 0
M  V30 4671 H 448.761 -0.735038 0.133146 0
M  V30 4672 H 451.423 -1.66239 1.01739 0
M  V30 4673 H 450.519 -3.08633 0.463923 0
M  V30 4674 N 450.82 -0.546701 -1.47814 0
M  V30 4675 C 452.069 -0.0166497 -2.01693 0
M  V30 4676 C 452.382 1.33721 -1.42752 0
M  V30 4677 O 453.588 1.95658 -1.8823 0
M  V30 4678 C 452.044 0.0206769 -3.59894 0
M  V30 4679 C 451.652 -1.3293 -4.27824 0
M  V30 4680 C 453.396 0.498674 -4.21561 0
M  V30 4681 C 451.303 -1.25165 -5.78003 0
M  V30 4682 H 450.233 -0.0024541 -0.753996 0
M  V30 4683 H 452.884 -0.692984 -1.69912 0
M  V30 4684 H 451.266 0.76244 -3.88591 0
M  V30 4685 H 452.44 -2.08795 -4.10781 0
M  V30 4686 H 450.755 -1.74438 -3.78101 0
M  V30 4687 H 453.352 0.575 -5.31599 0
M  V30 4688 H 453.695 1.5083 -3.88016 0
M  V30 4689 H 454.228 -0.18791 -3.97356 0
M  V30 4690 H 450.967 -2.23695 -6.1615 0
M  V30 4691 H 450.487 -0.53464 -5.97412 0
M  V30 4692 H 452.166 -0.949299 -6.39998 0
M  V30 4693 N 452.299 1.55045 -0.282633 0
M  V30 4694 C 453.209 2.26491 0.61147 0
M  V30 4695 C 454.225 1.29348 1.16384 0
M  V30 4696 O 455.401 1.62298 1.19253 0
M  V30 4697 C 452.466 2.97779 1.77563 0
M  V30 4698 C 451.527 4.10418 1.25919 0
M  V30 4699 C 450.76 4.78297 2.36786 0
M  V30 4700 O 450.983 4.45426 3.56303 0
M  V30 4701 O 449.917 5.66089 2.04517 0
M  V30 4702 H 453.743 3.03683 0.0324615 0
M  V30 4703 H 451.328 1.49317 -0.0497576 0
M  V30 4704 H 453.21 3.42554 2.45427 0
M  V30 4705 H 451.885 2.23498 2.34159 0
M  V30 4706 H 450.792 3.70082 0.546797 0
M  V30 4707 H 452.125 4.86622 0.738887 0
M  V30 4708 N 453.777 0.010035 1.57597 0
M  V30 4709 C 454.71 -1.01234 2.04516 0
M  V30 4710 C 455.688 -1.32886 0.937024 0
M  V30 4711 O 456.872 -1.44879 1.20592 0
M  V30 4712 C 453.999 -2.33738 2.45121 0
M  V30 4713 C 453.045 -2.17679 3.66767 0
M  V30 4714 S 453.878 -1.49343 5.14254 0
M  V30 4715 C 455.034 -2.83256 5.58137 0
M  V30 4716 H 455.267 -0.612866 2.90914 0
M  V30 4717 H 452.8 -0.201124 1.53084 0
M  V30 4718 H 454.758 -3.09922 2.69182 0
M  V30 4719 H 453.419 -2.70823 1.59103 0
M  V30 4720 H 452.612 -3.1559 3.92962 0
M  V30 4721 H 452.214 -1.4964 3.42759 0
M  V30 4722 H 454.506 -3.79538 5.6121 0
M  V30 4723 H 455.449 -2.61749 6.57946 0
M  V30 4724 H 455.857 -2.87627 4.85727 0
M  V30 4725 N 455.255 -1.55392 -0.262866 0
M  V30 4726 C 456.502 -1.76476 -0.993109 0
M  V30 4727 C 456.83 -0.571479 -1.85915 0
M  V30 4728 O 456.085 0.445733 -1.90556 0
M  V30 4729 C 456.384 -3.02889 -1.89718 0
M  V30 4730 C 456.05 -4.34974 -1.18781 0
M  V30 4731 C 454.712 -4.7087 -0.991699 0
M  V30 4732 C 457.064 -5.16695 -0.683798 0
M  V30 4733 C 454.392 -5.86036 -0.279024 0
M  V30 4734 C 456.744 -6.32598 0.0153327 0
M  V30 4735 C 455.408 -6.67127 0.223062 0
M  V30 4736 H 454.678 -0.64577 -0.363404 0
M  V30 4737 H 457.325 -1.89664 -0.264525 0
M  V30 4738 H 455.63 -2.84644 -2.6923 0
M  V30 4739 H 457.327 -3.16399 -2.46359 0
M  V30 4740 H 453.917 -4.06765 -1.35058 0
M  V30 4741 H 458.101 -4.8943 -0.8229 0
M  V30 4742 H 453.357 -6.11306 -0.107456 0
M  V30 4743 H 457.531 -6.95171 0.413584 0
M  V30 4744 H 455.158 -7.56216 0.777265 0
M  V30 4745 N 456.733 0.527833 -1.48498 0
M  V30 4746 C 457.683 1.62844 -1.5958 0
M  V30 4747 C 458.667 1.54397 -0.452809 0
M  V30 4748 O 459.859 1.62381 -0.704364 0
M  V30 4749 C 456.988 3.01557 -1.64067 0
M  V30 4750 C 456.074 3.151 -2.83853 0
M  V30 4751 N 456.465 2.9861 -4.08247 0
M  V30 4752 C 454.763 3.46158 -2.8123 0
M  V30 4753 C 455.464 3.15626 -4.88626 0
M  V30 4754 N 454.44 3.43298 -4.21483 0
M  V30 4755 H 458.242 1.48708 -2.53502 0
M  V30 4756 H 455.756 0.733343 -1.44899 0
M  V30 4757 H 457.753 3.8062 -1.70101 0
M  V30 4758 H 456.413 3.16783 -0.712636 0
M  V30 4759 H 457.424 2.75329 -4.3865 0
M  V30 4760 H 454.101 3.67728 -1.97692 0
M  V30 4761 H 455.491 3.07596 -5.97356 0
M  V30 4762 N 458.211 1.37122 0.776871 0
M  V30 4763 C 459.158 1.3247 1.88998 0
M  V30 4764 C 460.128 0.191143 1.64997 0
M  V30 4765 O 461.313 0.379683 1.86984 0
M  V30 4766 C 458.453 1.13241 3.25992 0
M  V30 4767 C 457.566 2.35782 3.61982 0
M  V30 4768 C 456.701 2.09465 4.88158 0
M  V30 4769 C 455.74 3.279 5.16864 0
M  V30 4770 N 454.877 3.01167 6.34226 0
M  V30 4771 H 459.717 2.27642 1.9231 0
M  V30 4772 H 457.254 1.13125 0.94027 0
M  V30 4773 H 459.212 1.00115 4.0501 0
M  V30 4774 H 457.842 0.217186 3.22069 0
M  V30 4775 H 456.894 2.59666 2.77989 0
M  V30 4776 H 458.206 3.24125 3.79137 0
M  V30 4777 H 457.36 1.93341 5.75069 0
M  V30 4778 H 456.099 1.18452 4.73097 0
M  V30 4779 H 455.104 3.44569 4.2843 0
M  V30 4780 H 456.329 4.19757 5.33836 0
M  V30 4781 H 454.275 2.12779 6.20533 0
M  V30 4782 H 454.192 3.83052 6.51772 0
M  V30 4783 H 455.46 2.88649 7.24087 0
M  V30 4784 N 459.689 -1.00246 1.21608 0
M  V30 4785 C 460.914 -1.78167 1.06167 0
M  V30 4786 C 461.339 -1.84138 -0.384035 0
M  V30 4787 O 460.697 -1.28683 -1.27712 0
M  V30 4788 C 460.745 -3.19786 1.66642 0
M  V30 4789 O 459.849 -4.02153 0.913613 0
M  V30 4790 H 459.19 -0.549 0.37349 0
M  V30 4791 H 461.72 -1.25994 1.61204 0
M  V30 4792 H 461.73 -3.70451 1.70969 0
M  V30 4793 H 460.405 -3.14754 2.7185 0
M  V30 4794 H 458.982 -3.60711 0.945635 0
M  V30 4795 N 461.167 -1.02423 -1.1978 0
M  V30 4796 C 462.097 -0.62157 -2.25075 0
M  V30 4797 C 463.078 0.367148 -1.6609 0
M  V30 4798 O 464.263 0.250892 -1.92573 0
M  V30 4799 C 461.393 0.0331826 -3.47284 0
M  V30 4800 C 460.347 -0.877323 -4.18912 0
M  V30 4801 C 459.673 -0.0879296 -5.34628 0
M  V30 4802 C 460.973 -2.18892 -4.74219 0
M  V30 4803 H 462.667 -1.50179 -2.59011 0
M  V30 4804 H 460.213 -0.723547 -1.24502 0
M  V30 4805 H 462.166 0.326488 -4.20133 0
M  V30 4806 H 460.89 0.948164 -3.12534 0
M  V30 4807 H 459.549 -1.15475 -3.47938 0
M  V30 4808 H 459.197 0.828941 -4.96123 0
M  V30 4809 H 458.897 -0.694359 -5.83483 0
M  V30 4810 H 460.421 0.198743 -6.10276 0
M  V30 4811 H 461.835 -1.95746 -5.38847 0
M  V30 4812 H 460.232 -2.74686 -5.33542 0
M  V30 4813 H 461.302 -2.84674 -3.92541 0
M  V30 4814 N 462.645 1.35699 -0.801477 0
M  V30 4815 C 463.555 2.33661 -0.209691 0
M  V30 4816 C 464.571 1.6162 0.644591 0
M  V30 4817 O 465.747 1.93529 0.557545 0
M  V30 4818 C 462.812 3.40816 0.636033 0
M  V30 4819 C 461.873 4.28639 -0.238147 0
M  V30 4820 C 461.106 5.30676 0.567307 0
M  V30 4821 O 461.329 5.41174 1.8024 0
M  V30 4822 O 460.263 6.01887 -0.0391336 0
M  V30 4823 H 464.089 2.8606 -1.01996 0
M  V30 4824 H 461.674 1.38379 -0.563164 0
M  V30 4825 H 463.556 4.06301 1.11791 0
M  V30 4826 H 462.231 2.90696 1.42399 0
M  V30 4827 H 461.138 3.66152 -0.767044 0
M  V30 4828 H 462.471 4.82143 -0.989915 0
M  V30 4829 N 464.123 0.554532 1.47522 0
M  V30 4830 C 465.539 0.214107 1.58157 0
M  V30 4831 C 465.739 -1.28331 1.55349 0
M  V30 4832 O 464.795 -2.06329 1.45549 0
M  V30 4833 C 466.108 0.838391 2.88776 0
M  V30 4834 C 467.656 0.809374 3.02354 0
M  V30 4835 C 468.131 1.41268 4.35669 0
M  V30 4836 N 469.622 1.37574 4.42298 0
M  V30 4837 C 470.357 1.8122 5.4401 0
M  V30 4838 N 469.853 2.3271 6.52547 0
M  V30 4839 N 471.646 1.72307 5.35039 0
M  V30 4840 H 463.797 1.52744 1.4759 0
M  V30 4841 H 466.06 0.636812 0.702264 0
M  V30 4842 H 465.766 1.89065 2.96559 0
M  V30 4843 H 465.64 0.329847 3.75755 0
M  V30 4844 H 468.027 -0.234187 2.94169 0
M  V30 4845 H 468.108 1.35565 2.16924 0
M  V30 4846 H 467.752 2.45529 4.4461 0
M  V30 4847 H 467.682 0.841871 5.19827 0
M  V30 4848 H 470.173 0.999081 3.64454 0
M  V30 4849 H 470.486 2.63944 7.26329 0
M  V30 4850 H 468.831 2.36719 6.53444 0
M  V30 4851 H 472.022 1.3186 4.49144 0
M  V30 4852 H 472.195 2.06641 6.14169 0
M  V30 4853 N 465.601 -1.54893 0.290851 0
M  V30 4854 C 466.564 -2.21824 -0.576784 0
M  V30 4855 C 467.564 -1.20104 -1.06919 0
M  V30 4856 O 468.754 -1.44906 -0.966843 0
M  V30 4857 C 465.886 -2.89662 -1.79747 0
M  V30 4858 H 467.079 -2.99899 0.00784051 0
M  V30 4859 H 464.632 -1.56245 0.0415934 0
M  V30 4860 H 465.367 -2.15639 -2.42219 0
M  V30 4861 H 465.152 -3.64219 -1.45214 0
M  V30 4862 H 466.642 -3.4075 -2.4141 0
M  V30 4863 N 467.08 -0.0183926 -1.57589 0
M  V30 4864 C 467.99 0.982943 -2.13015 0
M  V30 4865 C 469.006 1.36443 -1.07979 0
M  V30 4866 O 470.182 1.44802 -1.3998 0
M  V30 4867 C 467.247 2.25024 -2.63752 0
M  V30 4868 C 466.308 1.93018 -3.83461 0
M  V30 4869 C 465.541 3.13706 -4.31769 0
M  V30 4870 O 465.764 4.2601 -3.79305 0
M  V30 4871 O 464.698 2.96629 -5.23732 0
M  V30 4872 H 468.524 0.541709 -2.9883 0
M  V30 4873 H 466.109 0.201565 -1.48034 0
M  V30 4874 H 467.991 2.99441 -2.96502 0
M  V30 4875 H 466.666 2.68349 -1.81026 0
M  V30 4876 H 465.573 1.16019 -3.55655 0
M  V30 4877 H 466.906 1.54516 -4.67317 0
M  V30 4878 N 468.558 1.5553 0.254621 0
M  V30 4879 C 469.521 1.88872 1.29846 0
M  V30 4880 C 470.521 0.764591 1.41459 0
M  V30 4881 O 471.711 1.03265 1.40293 0
M  V30 4882 C 468.843 2.11032 2.67728 0
M  V30 4883 H 470.036 2.82201 1.01502 0
M  V30 4884 H 467.589 1.48303 0.493556 0
M  V30 4885 H 468.324 1.20146 3.01223 0
M  V30 4886 H 468.109 2.92895 2.60682 0
M  V30 4887 H 469.599 2.38038 3.43115 0
M  V30 4888 N 470.036 -0.519951 1.48776 0
M  V30 4889 C 471.284 -1.2727 1.56993 0
M  V30 4890 C 471.605 -1.9339 0.25004 0
M  V30 4891 O 470.875 -1.81822 -0.729216 0
M  V30 4892 H 469.455 -0.472732 0.578389 0
M  V30 4893 H 472.117 -0.604234 1.85297 0
M  V30 4894 H 471.213 -2.04669 2.3562 0
M  V30 4895 N 471.514 -1.37532 -0.769588 0
M  V30 4896 C 472.791 -1.23392 -1.51768 0
M  V30 4897 C 473.171 0.17157 -2.10402 0
M  V30 4898 O 472.519 1.17943 -1.95708 0
M  V30 4899 C 472.729 -2.33163 -2.59685 0
M  V30 4900 C 474.077 -2.70809 -3.27028 0
M  V30 4901 O 475.101 -2.32355 -2.69981 0
M  V30 4902 O 473.96 -3.37066 -4.30173 0
M  V30 4903 H 471.054 -0.481617 -0.67229 0
M  V30 4904 H 473.6 -1.49318 -0.806368 0
M  V30 4905 H 472.372 -3.27273 -2.14494 0
M  V30 4906 H 471.995 -2.08713 -3.38415 0
M  V30 4907 N 472.992 0.995999 -1.22138 0
M  V30 4908 C 473.94 2.10673 -0.985876 0
M  V30 4909 C 474.934 1.69255 0.0699553 0
M  V30 4910 O 476.14 1.79812 -0.0822176 0
M  V30 4911 H 472.515 0.688865 -0.30161 0
M  V30 4912 H 474.486 2.27711 -1.92848 0
M  V30 4913 C 473.235 3.42881 -0.576909 0
M  V30 4914 H 472.558 3.75191 -1.38101 0
M  V30 4915 H 473.998 4.21589 -0.451518 0
M  V30 4916 C 472.457 3.29265 0.713196 0
M  V30 4917 O 472.987 3.60777 1.76643 0
M  V30 4918 N 471.193 2.82456 0.683162 0
M  V30 4919 H 470.74 2.5701 -0.174242 0
M  V30 4920 H 470.698 2.73727 1.54663 0
M  V30 4921 N 474.47 1.03057 1.19235 0
M  V30 4922 C 475.4 0.633497 2.24742 0
M  V30 4923 C 476.381 -0.358335 1.66283 0
M  V30 4924 O 477.566 -0.240676 1.92703 0
M  V30 4925 C 474.696 -0.0147648 3.47297 0
M  V30 4926 C 473.65 0.899527 4.18441 0
M  V30 4927 C 472.976 0.116281 5.34574 0
M  V30 4928 C 474.276 2.21404 4.73051 0
M  V30 4929 H 475.97 1.5155 2.58211 0
M  V30 4930 H 473.516 0.73014 1.24117 0
M  V30 4931 H 475.469 -0.304202 4.20301 0
M  V30 4932 H 474.193 -0.931577 3.13032 0
M  V30 4933 H 472.852 1.17319 3.47321 0
M  V30 4934 H 472.5 -0.802619 4.96555 0
M  V30 4935 H 472.2 0.725293 5.83107 0
M  V30 4936 H 473.724 -0.166376 6.10373 0
M  V30 4937 H 475.138 1.98601 5.37802 0
M  V30 4938 H 473.535 2.77512 5.32078 0
M  V30 4939 H 474.605 2.86752 3.91026 0
M  V30 4940 N 475.948 -1.35272 0.808662 0
M  V30 4941 C 477.196 -1.98316 0.389233 0
M  V30 4942 C 477.517 -1.64465 -1.04767 0
M  V30 4943 O 476.787 -0.928175 -1.72516 0
M  V30 4944 H 475.367 -0.733585 0.140935 0
M  V30 4945 H 478.029 -1.6515 1.03496 0
M  V30 4946 H 477.125 -3.08123 0.496631 0
M  V30 4947 N 477.426 -0.562348 -1.47226 0
M  V30 4948 C 478.389 0.172056 -2.28553 0
M  V30 4949 C 479.389 0.837928 -1.37242 0
M  V30 4950 O 480.579 0.693001 -1.59822 0
M  V30 4951 C 477.711 1.25223 -3.17068 0
M  V30 4952 H 478.904 -0.542401 -2.94954 0
M  V30 4953 H 476.457 -0.319493 -1.53 0
M  V30 4954 H 477.192 1.99892 -2.55369 0
M  V30 4955 H 476.977 0.779515 -3.84273 0
M  V30 4956 H 478.467 1.76791 -3.78332 0
M  V30 4957 N 478.904 1.54736 -0.299062 0
M  V30 4958 C 479.834 2.26409 0.571085 0
M  V30 4959 C 480.815 1.2629 1.13951 0
M  V30 4960 O 482 1.55059 1.16921 0
M  V30 4961 C 479.13 3.00338 1.74396 0
M  V30 4962 C 478.084 4.07588 1.30599 0
M  V30 4963 C 477.41 4.69222 2.56387 0
M  V30 4964 C 478.71 5.20455 0.438645 0
M  V30 4965 H 480.404 2.99388 -0.0266991 0
M  V30 4966 H 477.95 1.43993 -0.0142812 0
M  V30 4967 H 479.903 3.49198 2.35878 0
M  V30 4968 H 478.627 2.24934 2.36796 0
M  V30 4969 H 477.286 3.59575 0.71424 0
M  V30 4970 H 476.934 3.9046 3.17097 0
M  V30 4971 H 476.634 5.41653 2.27784 0
M  V30 4972 H 478.158 5.20844 3.18675 0
M  V30 4973 H 479.572 5.65221 0.959085 0
M  V30 4974 H 477.969 5.99594 0.246466 0
M  V30 4975 H 479.039 4.8192 -0.536738 0
M  V30 4976 N 480.382 0.0267497 1.57577 0
M  V30 4977 C 481.628 -0.653371 1.91987 0
M  V30 4978 C 481.961 -1.71915 0.903263 0
M  V30 4979 O 481.236 -1.94358 -0.0743387 0
M  V30 4980 C 481.519 -1.272 3.36886 0
M  V30 4981 C 481.372 -0.215938 4.49281 0
M  V30 4982 C 482.691 -2.19069 3.81703 0
M  V30 4983 H 479.81 -0.236047 0.698177 0
M  V30 4984 H 482.452 0.0835236 1.89816 0
M  V30 4985 H 480.602 -1.90005 3.38866 0
M  V30 4986 H 482.274 0.41449 4.59434 0
M  V30 4987 H 480.517 0.458855 4.31366 0
M  V30 4988 H 481.188 -0.688347 5.47691 0
M  V30 4989 H 483.664 -1.66253 3.81444 0
M  V30 4990 H 482.54 -2.59307 4.83788 0
M  V30 4991 H 482.801 -3.08087 3.17072 0
M  V30 4992 N 481.861 -1.55662 -0.24637 0
M  V30 4993 C 483.277 -1.48098 -0.594907 0
M  V30 4994 C 483.477 -0.717044 -1.8831 0
M  V30 4995 O 482.533 -0.246618 -2.51293 0
M  V30 4996 C 483.846 -2.92507 -0.697146 0
M  V30 4997 C 485.394 -3.02881 -0.789436 0
M  V30 4998 C 485.869 -4.48598 -0.923232 0
M  V30 4999 N 487.36 -4.52538 -0.988088 0
M  V30 5000 C 488.095 -5.62536 -1.11089 0
M  V30 5001 N 487.591 -6.82342 -1.19919 0
M  V30 5002 N 489.384 -5.50334 -1.14408 0
M  V30 5003 H 481.535 -2.0377 0.599278 0
M  V30 5004 H 483.798 -0.925145 0.20691 0
M  V30 5005 H 483.504 -3.51242 0.179396 0
M  V30 5006 H 483.378 -3.43024 -1.5689 0
M  V30 5007 H 485.765 -2.44226 -1.65643 0
M  V30 5008 H 485.846 -2.55574 0.107482 0
M  V30 5009 H 485.49 -5.07864 -0.0607927 0
M  V30 5010 H 485.42 -4.93587 -1.8352 0
M  V30 5011 H 487.911 -3.66248 -0.931167 0
M  V30 5012 H 488.224 -7.61924 -1.29197 0
M  V30 5013 H 486.569 -6.85102 -1.16876 0
M  V30 5014 H 489.76 -4.5567 -1.07158 0
M  V30 5015 H 489.933 -6.36096 -1.23634 0
M  V30 5016 N 483.339 0.512053 -1.4905 0
M  V30 5017 C 484.587 1.26436 -1.57665 0
M  V30 5018 C 484.908 1.93255 -0.260293 0
M  V30 5019 O 484.178 1.82206 0.719564 0
M  V30 5020 H 482.758 0.469658 -0.580888 0
M  V30 5021 H 485.42 0.594398 -1.85615 0
M  V30 5022 H 484.516 2.03417 -2.36702 0
M  V30 5023 N 484.817 1.37938 0.762283 0
M  V30 5024 C 485.747 1.37176 1.88958 0
M  V30 5025 C 486.728 0.238945 1.68413 0
M  V30 5026 O 487.913 0.440726 1.89133 0
M  V30 5027 C 485.043 1.18742 3.2637 0
M  V30 5028 C 483.997 2.29136 3.61498 0
M  V30 5029 C 483.323 1.95816 4.97554 0
M  V30 5030 C 484.623 3.71363 3.6727 0
M  V30 5031 H 486.317 2.31509 1.89853 0
M  V30 5032 H 483.863 1.11438 0.912005 0
M  V30 5033 H 485.816 1.16837 4.04879 0
M  V30 5034 H 484.54 0.208683 3.25933 0
M  V30 5035 H 483.199 2.30213 2.85303 0
M  V30 5036 H 482.847 0.964475 4.93667 0
M  V30 5037 H 482.547 2.69745 5.22026 0
M  V30 5038 H 484.071 1.95513 5.78452 0
M  V30 5039 H 485.485 3.72364 4.35911 0
M  V30 5040 H 483.882 4.44425 4.03245 0
M  V30 5041 H 484.952 4.04305 2.67704 0
M  V30 5042 N 486.295 -0.989507 1.22664 0
M  V30 5043 C 487.242 -2.08024 0.999733 0
M  V30 5044 C 488.212 -1.65909 -0.0797047 0
M  V30 5045 O 489.397 -1.90669 0.0705715 0
M  V30 5046 C 486.537 -3.40067 0.587234 0
M  V30 5047 C 485.65 -3.95505 1.73781 0
M  V30 5048 C 484.785 -5.15722 1.27297 0
M  V30 5049 C 483.824 -5.63305 2.39488 0
M  V30 5050 N 482.961 -6.74758 1.94026 0
M  V30 5051 H 487.801 -2.26768 1.9334 0
M  V30 5052 H 485.338 -1.11171 0.963297 0
M  V30 5053 H 487.296 -4.15899 0.329227 0
M  V30 5054 H 485.926 -3.21314 -0.309426 0
M  V30 5055 H 484.978 -3.16513 2.11006 0
M  V30 5056 H 486.29 -4.26797 2.58158 0
M  V30 5057 H 485.444 -5.98854 0.972546 0
M  V30 5058 H 484.183 -4.86061 0.399445 0
M  V30 5059 H 483.188 -4.78759 2.70315 0
M  V30 5060 H 484.413 -5.94988 3.27362 0
M  V30 5061 H 482.359 -6.46874 1.09041 0
M  V30 5062 H 482.276 -7.05386 2.71968 0
M  V30 5063 H 483.544 -7.61387 1.67062 0
M  V30 5064 N 487.773 -1.03688 -1.18687 0
M  V30 5065 C 489.189 -0.755413 -1.4059 0
M  V30 5066 C 489.389 0.656659 -1.905 0
M  V30 5067 O 488.445 1.42144 -2.08689 0
M  V30 5068 C 489.758 -1.7983 -2.41001 0
M  V30 5069 C 491.306 -1.81877 -2.54735 0
M  V30 5070 C 491.781 -2.85148 -3.58406 0
M  V30 5071 N 493.272 -2.84015 -3.6591 0
M  V30 5072 C 494.007 -3.60573 -4.45841 0
M  V30 5073 N 493.503 -4.46871 -5.29413 0
M  V30 5074 N 495.296 -3.49079 -4.40568 0
M  V30 5075 H 487.447 -1.94818 -0.846148 0
M  V30 5076 H 489.71 -0.842727 -0.434184 0
M  V30 5077 H 489.416 -2.81097 -2.1137 0
M  V30 5078 H 489.29 -1.62727 -3.40294 0
M  V30 5079 H 491.677 -0.812836 -2.83685 0
M  V30 5080 H 491.758 -2.03057 -1.55568 0
M  V30 5081 H 491.402 -3.85918 -3.30197 0
M  V30 5082 H 491.332 -2.61224 -4.57241 0
M  V30 5083 H 493.823 -2.21431 -3.0623 0
M  V30 5084 H 494.136 -5.02007 -5.87545 0
M  V30 5085 H 492.481 -4.5094 -5.28846 0
M  V30 5086 H 495.672 -2.81066 -3.74325 0
M  V30 5087 H 495.845 -4.08994 -5.02621 0
M  V30 5088 N 489.251 1.34841 -0.815825 0
M  V30 5089 C 490.161 2.33425 -0.234462 0
M  V30 5090 C 491.177 1.62295 0.627413 0
M  V30 5091 O 492.353 1.94109 0.536987 0
M  V30 5092 C 489.418 3.41471 0.599849 0
M  V30 5093 C 488.479 4.28362 -0.283596 0
M  V30 5094 C 487.712 5.31248 0.51099 0
M  V30 5095 O 487.935 5.43056 1.7449 0
M  V30 5096 O 486.869 6.01812 -0.10297 0
M  V30 5097 H 490.695 2.84962 -1.05024 0
M  V30 5098 H 488.28 1.37774 -0.577809 0
M  V30 5099 H 490.162 4.07464 1.07475 0
M  V30 5100 H 488.837 2.9219 1.39308 0
M  V30 5101 H 487.744 3.65318 -0.805836 0
M  V30 5102 H 489.077 4.81066 -1.041 0
M  V30 5103 N 490.729 0.570148 1.46925 0
M  V30 5104 C 492.006 -0.0153259 1.95594 0
M  V30 5105 C 492.386 -1.47232 1.51281 0
M  V30 5106 O 491.734 -2.15574 0.757624 0
M  V30 5107 C 491.944 0.143624 3.48704 0
M  V30 5108 C 493.292 0.00494484 4.246 0
M  V30 5109 O 494.316 0.0718214 3.56128 0
M  V30 5110 O 493.175 -0.141175 5.46318 0
M  V30 5111 H 490.269 -0.0568819 0.825041 0
M  V30 5112 H 492.815 0.637583 1.57267 0
M  V30 5113 H 491.587 1.15699 3.73804 0
M  V30 5114 H 491.21 -0.5463 3.93829 0
M  V30 5115 N 492.207 -1.54576 0.307264 0
M  V30 5116 C 493.137 -2.26708 -0.55907 0
M  V30 5117 C 494.118 -1.26893 -1.1328 0
M  V30 5118 O 495.303 -1.55677 -1.16097 0
M  V30 5119 C 492.433 -3.01259 -1.72801 0
M  V30 5120 C 491.387 -4.08275 -1.28435 0
M  V30 5121 C 490.713 -4.70575 -2.53895 0
M  V30 5122 C 492.013 -5.2068 -0.411038 0
M  V30 5123 H 493.707 -2.9937 0.042576 0
M  V30 5124 H 491.253 -1.43983 0.0219173 0
M  V30 5125 H 493.206 -3.50444 -2.34023 0
M  V30 5126 H 491.93 -2.26187 -2.356 0
M  V30 5127 H 490.589 -3.59949 -0.695161 0
M  V30 5128 H 490.237 -3.92136 -3.15021 0
M  V30 5129 H 489.937 -5.42854 -2.24908 0
M  V30 5130 H 491.461 -5.22527 -3.15908 0
M  V30 5131 H 492.875 -5.65721 -0.929097 0
M  V30 5132 H 491.272 -5.99716 -0.214664 0
M  V30 5133 H 492.342 -4.81629 0.562287 0
M  V30 5134 N 493.685 -0.035106 -1.57561 0
M  V30 5135 C 495.101 0.321334 -1.56332 0
M  V30 5136 C 495.301 1.72509 -1.04129 0
M  V30 5137 O 494.357 2.4287 -0.690694 0
M  V30 5138 C 495.67 0.164469 -3.0025 0
M  V30 5139 C 497.218 0.236786 -3.12103 0
M  V30 5140 C 497.693 0.10864 -4.57871 0
M  V30 5141 N 499.184 0.165433 -4.62904 0
M  V30 5142 C 499.919 0.0901506 -5.73329 0
M  V30 5143 N 499.415 -0.0365606 -6.9279 0
M  V30 5144 N 501.208 0.144572 -5.61914 0
M  V30 5145 H 493.359 -0.952976 -1.89821 0
M  V30 5146 H 495.622 -0.368537 -0.873432 0
M  V30 5147 H 495.328 -0.802746 -3.42416 0
M  V30 5148 H 495.202 0.932194 -3.655 0
M  V30 5149 H 497.589 1.19446 -2.69845 0
M  V30 5150 H 497.67 -0.561419 -2.49563 0
M  V30 5151 H 497.314 -0.845644 -5.00811 0
M  V30 5152 H 497.244 0.925786 -5.18398 0
M  V30 5153 H 499.735 0.263269 -3.76982 0
M  V30 5154 H 500.048 -0.0871487 -7.72751 0
M  V30 5155 H 498.393 -0.0714256 -6.94963 0
M  V30 5156 H 501.584 0.242006 -4.67474 0
M  V30 5157 H 501.757 0.0824413 -6.47948 0
M  V30 5158 N 495.163 1.55791 0.238111 0
M  V30 5159 C 496.579 1.48411 0.587045 0
M  V30 5160 C 496.779 0.72702 1.87927 0
M  V30 5161 O 495.835 0.259942 2.51158 0
M  V30 5162 C 497.148 2.92873 0.681623 0
M  V30 5163 C 498.696 3.03295 0.773363 0
M  V30 5164 C 499.171 4.49082 0.899428 0
M  V30 5165 N 500.662 4.53056 0.964075 0
M  V30 5166 C 501.397 5.63117 1.08104 0
M  V30 5167 N 500.893 6.82969 1.16299 0
M  V30 5168 N 502.686 5.50933 1.11488 0
M  V30 5169 H 494.837 2.0345 -0.610076 0
M  V30 5170 H 497.1 0.924034 -0.211813 0
M  V30 5171 H 496.806 3.51142 -0.19802 0
M  V30 5172 H 496.68 3.43851 1.55069 0
M  V30 5173 H 499.067 2.45101 1.64346 0
M  V30 5174 H 499.148 2.55513 -0.121034 0
M  V30 5175 H 498.792 5.07889 0.0338586 0
M  V30 5176 H 498.722 4.94553 1.809 0
M  V30 5177 H 501.213 3.66737 0.91173 0
M  V30 5178 H 501.526 7.62598 1.25155 0
M  V30 5179 H 499.871 6.85712 1.13241 0
M  V30 5180 H 503.062 4.56231 1.0474 0
M  V30 5181 H 503.235 6.36743 1.20259 0
M  V30 5182 N 496.642 -0.504142 1.49319 0
M  V30 5183 C 497.89 -1.25598 1.58334 0
M  V30 5184 C 498.211 -1.93114 0.270538 0
M  V30 5185 O 497.481 -1.82585 -0.709891 0
M  V30 5186 H 496.061 -0.466571 0.58337 0
M  V30 5187 H 498.723 -0.584547 1.85928 0
M  V30 5188 H 497.819 -2.02159 2.37778 0
M  V30 5189 N 498.12 -1.38341 -0.754957 0
M  V30 5190 C 499.05 -1.38176 -1.88227 0
M  V30 5191 C 500.031 -0.247873 -1.68284 0
M  V30 5192 O 501.216 -0.45075 -1.88896 0
M  V30 5193 C 498.346 -1.20471 -3.25736 0
M  V30 5194 C 497.3 -2.3105 -3.60278 0
M  V30 5195 C 496.626 -1.98452 -4.96509 0
M  V30 5196 C 497.926 -3.73305 -3.65295 0
M  V30 5197 H 499.62 -2.32512 -1.88622 0
M  V30 5198 H 497.166 -1.1192 -0.906082 0
M  V30 5199 H 499.119 -1.18982 -4.04254 0
M  V30 5200 H 497.843 -0.225965 -3.25817 0
M  V30 5201 H 496.502 -2.31723 -2.84078 0
M  V30 5202 H 496.15 -0.990641 -4.93148 0
M  V30 5203 H 495.85 -2.7251 -5.20588 0
M  V30 5204 H 497.374 -1.98578 -5.77407 0
M  V30 5205 H 498.788 -3.7467 -4.3393 0
M  V30 5206 H 497.185 -4.46557 -4.00883 0
M  V30 5207 H 498.255 -4.05719 -2.65556 0
M  V30 5208 N 499.598 0.982988 -1.23187 0
M  V30 5209 C 500.844 1.72648 -1.06398 0
M  V30 5210 C 501.177 1.90066 0.398561 0
M  V30 5211 O 500.452 1.45105 1.29518 0
M  V30 5212 C 500.735 3.12627 -1.78707 0
M  V30 5213 C 500.588 3.02795 -3.32618 0
M  V30 5214 C 501.907 4.11997 -1.54747 0
M  V30 5215 H 499.026 0.626649 -0.387918 0
M  V30 5216 H 501.668 1.14455 -1.51658 0
M  V30 5217 H 499.818 3.62308 -1.40234 0
M  V30 5218 H 501.49 2.60659 -3.80598 0
M  V30 5219 H 499.733 2.39362 -3.61785 0
M  V30 5220 H 500.404 4.01893 -3.78399 0
M  V30 5221 H 502.88 3.71114 -1.88186 0
M  V30 5222 H 501.756 5.08037 -2.07821 0
M  V30 5223 H 502.017 4.39462 -0.482249 0
M  V30 5224 N 501.076 1.04316 1.18135 0
M  V30 5225 C 502.009 0.580823 2.20685 0
M  V30 5226 C 502.987 -0.385943 1.57953 0
M  V30 5227 O 504.171 -0.299654 1.86103 0
M  V30 5228 C 501.298 -0.151162 3.38363 0
M  V30 5229 C 500.344 0.769247 4.19505 0
M  V30 5230 S 501.177 2.25352 4.85774 0
M  V30 5231 C 502.333 1.53246 6.0685 0
M  V30 5232 H 502.566 1.44968 2.5956 0
M  V30 5233 H 500.099 0.85434 1.28609 0
M  V30 5234 H 502.057 -0.567315 4.06561 0
M  V30 5235 H 500.718 -0.995936 2.97892 0
M  V30 5236 H 499.911 0.203335 5.0359 0
M  V30 5237 H 499.513 1.12436 3.56699 0
M  V30 5238 H 501.805 0.82689 6.72435 0
M  V30 5239 H 502.748 2.35044 6.67952 0
M  V30 5240 H 503.156 1.0237 5.5514 0
M  V30 5241 N 502.554 -1.34406 0.822964 0
M  V30 5242 C 503.8 -1.98578 0.411666 0
M  V30 5243 C 504.133 -1.65093 -1.02264 0
M  V30 5244 O 503.408 -0.92258 -1.71227 0
M  V30 5245 C 503.691 -3.54823 0.614235 0
M  V30 5246 C 503.544 -3.9805 2.09466 0
M  V30 5247 C 504.863 -4.40071 0.050221 0
M  V30 5248 H 501.982 -0.721355 0.151047 0
M  V30 5249 H 504.624 -1.59301 1.03554 0
M  V30 5250 H 502.774 -3.88411 0.0831774 0
M  V30 5251 H 504.446 -3.74795 2.68936 0
M  V30 5252 H 502.689 -3.4836 2.5851 0
M  V30 5253 H 503.36 -5.06819 2.18721 0
M  V30 5254 H 505.836 -4.13037 0.503953 0
M  V30 5255 H 504.712 -5.48452 0.221759 0
M  V30 5256 H 504.973 -4.29576 -1.04482 0
M  V30 5257 N 504.032 -0.577932 -1.46621 0
M  V30 5258 C 504.979 0.158048 -2.30258 0
M  V30 5259 C 505.949 0.888669 -1.40328 0
M  V30 5260 O 507.134 0.880283 -1.6928 0
M  V30 5261 C 504.274 1.16884 -3.24703 0
M  V30 5262 C 503.387 0.442163 -4.29731 0
M  V30 5263 C 502.522 1.44007 -5.11308 0
M  V30 5264 C 501.561 0.69952 -6.0809 0
M  V30 5265 N 500.698 1.64525 -6.82551 0
M  V30 5266 H 505.538 -0.561242 -2.92667 0
M  V30 5267 H 503.075 -0.288591 -1.44241 0
M  V30 5268 H 505.033 1.7677 -3.779 0
M  V30 5269 H 503.663 1.85591 -2.64113 0
M  V30 5270 H 502.715 -0.271632 -3.79429 0
M  V30 5271 H 504.027 -0.136992 -4.98612 0
M  V30 5272 H 503.181 2.11186 -5.68758 0
M  V30 5273 H 501.92 2.05315 -4.42377 0
M  V30 5274 H 500.925 0.0139217 -5.49798 0
M  V30 5275 H 502.15 0.091894 -6.79038 0
M  V30 5276 H 500.096 2.24653 -6.16334 0
M  V30 5277 H 500.013 1.11878 -7.47676 0
M  V30 5278 H 501.281 2.30754 -7.44562 0
M  V30 5279 N 505.51 1.54411 -0.315457 0
M  V30 5280 C 506.921 1.85885 0.174265 0
M  V30 5281 C 507.272 1.23723 1.52273 0
M  V30 5282 O 506.397 0.540246 2.09548 0
M  V30 5283 C 506.992 3.37257 0.322981 0
M  V30 5284 C 505.551 3.68711 0.756922 0
M  V30 5285 C 504.698 2.77013 -0.126195 0
M  V30 5286 H 507.649 1.49374 -0.536007 0
M  V30 5287 H 507.67 3.62539 1.15522 0
M  V30 5288 H 507.182 3.82471 -0.658602 0
M  V30 5289 H 505.283 3.29024 1.74854 0
M  V30 5290 H 505.396 4.75741 0.566291 0
M  V30 5291 H 503.76 2.51588 0.39692 0
M  V30 5292 H 504.543 3.25051 -1.1044 0
M  V30 5293 N 506.988 0.0434614 1.5754 0
M  V30 5294 C 508.236 -0.630786 1.92004 0
M  V30 5295 C 508.557 -1.71836 0.921807 0
M  V30 5296 O 507.827 -1.9587 -0.034522 0
M  V30 5297 H 506.407 -0.235988 0.708745 0
M  V30 5298 H 509.069 0.0946462 1.9467 0
M  V30 5299 H 508.165 -1.07434 2.93026 0
M  V30 5300 N 508.466 -1.55915 -0.229846 0
M  V30 5301 C 509.691 -1.8296 -0.976743 0
M  V30 5302 C 510.116 -0.622735 -1.77493 0
M  V30 5303 O 509.474 0.428431 -1.76165 0
M  V30 5304 C 509.522 -3.07916 -1.8767 0
M  V30 5305 O 508.626 -2.86028 -2.97088 0
M  V30 5306 H 507.967 -0.603453 -0.277021 0
M  V30 5307 H 510.497 -2.0312 -0.245669 0
M  V30 5308 H 510.507 -3.37802 -2.2881 0
M  V30 5309 H 509.182 -3.95389 -1.28996 0
M  V30 5310 H 507.759 -2.67355 -2.59954 0
M  V30 5311 N 509.944 0.496216 -1.49584 0
M  V30 5312 C 511.193 1.24668 -1.58558 0
M  V30 5313 C 511.506 1.9359 -0.279703 0
M  V30 5314 O 512.712 2.70365 -0.248048 0
M  V30 5315 C 511.168 2.26388 -2.79779 0
M  V30 5316 C 510.776 1.63384 -4.17145 0
M  V30 5317 C 512.52 3.02233 -2.98086 0
M  V30 5318 C 510.427 2.63243 -5.29582 0
M  V30 5319 H 509.357 0.468995 -0.590389 0
M  V30 5320 H 512.008 0.519985 -1.75978 0
M  V30 5321 H 510.39 3.02241 -2.55863 0
M  V30 5322 H 511.564 0.93491 -4.51216 0
M  V30 5323 H 509.879 0.999121 -4.04236 0
M  V30 5324 H 512.476 3.76919 -3.79257 0
M  V30 5325 H 512.819 3.60132 -2.08831 0
M  V30 5326 H 513.352 2.33495 -3.22063 0
M  V30 5327 H 510.091 2.10119 -6.20911 0
M  V30 5328 H 509.611 3.31363 -4.99959 0
M  V30 5329 H 511.29 3.25575 -5.59115 0
M  V30 5330 N 511.423 1.38739 0.74761 0
M  V30 5331 C 512.37 1.36449 1.86146 0
M  V30 5332 C 513.34 0.226098 1.64554 0
M  V30 5333 O 514.525 0.41926 1.86137 0
M  V30 5334 C 511.665 1.2013 3.23516 0
M  V30 5335 C 510.778 2.43407 3.56899 0
M  V30 5336 C 509.913 2.19773 4.83605 0
M  V30 5337 C 508.952 3.3879 5.09792 0
M  V30 5338 N 508.089 3.14553 6.27695 0
M  V30 5339 H 512.929 2.3167 1.87438 0
M  V30 5340 H 510.466 1.15094 0.916063 0
M  V30 5341 H 512.424 1.08683 4.02795 0
M  V30 5342 H 511.054 0.285453 3.21535 0
M  V30 5343 H 510.106 2.65504 2.72418 0
M  V30 5344 H 511.418 3.32094 3.72176 0
M  V30 5345 H 510.572 2.05496 5.70838 0
M  V30 5346 H 509.311 1.28461 4.70478 0
M  V30 5347 H 508.316 3.53579 4.21025 0
M  V30 5348 H 509.541 4.30986 5.24812 0
M  V30 5349 H 507.487 2.25893 6.1588 0
M  V30 5350 H 507.404 3.96791 6.435 0
M  V30 5351 H 508.672 3.03943 7.17801 0
M  V30 5352 N 512.901 -0.976442 1.23707 0
M  V30 5353 C 514.312 -1.53284 1.06587 0
M  V30 5354 C 514.663 -1.92765 -0.365526 0
M  V30 5355 O 513.788 -1.7645 -1.25277 0
M  V30 5356 C 514.383 -2.78548 1.92864 0
M  V30 5357 C 512.942 -3.30574 1.79994 0
M  V30 5358 C 512.089 -2.03538 1.88328 0
M  V30 5359 H 515.04 -0.795692 1.37311 0
M  V30 5360 H 515.061 -3.5155 1.45577 0
M  V30 5361 H 514.573 -2.49782 2.97037 0
M  V30 5362 H 512.674 -3.64211 0.786202 0
M  V30 5363 H 512.787 -4.00065 2.636 0
M  V30 5364 H 511.151 -2.17853 1.31954 0
M  V30 5365 H 511.934 -1.77149 2.94063 0
M  V30 5366 N 514.379 -1.04941 -1.1758 0
M  V30 5367 C 515.329 -0.618378 -2.19454 0
M  V30 5368 C 516.313 0.343813 -1.57184 0
M  V30 5369 O 517.505 0.16145 -1.76262 0
M  V30 5370 C 514.634 0.00803847 -3.43299 0
M  V30 5371 C 513.72 -0.977827 -4.12673 0
M  V30 5372 N 514.111 -2.14826 -4.57912 0
M  V30 5373 C 512.409 -0.805748 -4.38661 0
M  V30 5374 C 513.11 -2.77174 -5.11419 0
M  V30 5375 N 512.086 -2.04989 -5.03468 0
M  V30 5376 H 515.888 -1.51018 -2.52132 0
M  V30 5377 H 513.402 -0.919201 -1.33882 0
M  V30 5378 H 515.399 0.334584 -4.15555 0
M  V30 5379 H 514.059 0.895272 -3.12114 0
M  V30 5380 H 515.07 -2.52673 -4.52081 0
M  V30 5381 H 511.747 0.0306506 -4.17489 0
M  V30 5382 H 513.137 -3.76416 -5.56562 0
M  V30 5383 N 515.857 1.33968 -0.830081 0
M  V30 5384 C 516.789 2.28194 -0.21448 0
M  V30 5385 C 517.802 1.5135 0.599752 0
M  V30 5386 O 518.991 1.73286 0.42826 0
M  V30 5387 C 516.091 3.31221 0.717356 0
M  V30 5388 C 515.264 4.37365 -0.055613 0
M  V30 5389 C 514.323 5.2011 0.798231 0
M  V30 5390 O 513.349 5.68691 0.240616 0
M  V30 5391 N 514.551 5.40523 2.11695 0
M  V30 5392 H 517.316 2.81662 -1.02405 0
M  V30 5393 H 514.877 1.46568 -0.687713 0
M  V30 5394 H 516.869 3.83477 1.29334 0
M  V30 5395 H 515.439 2.78095 1.42765 0
M  V30 5396 H 514.659 3.85727 -0.812936 0
M  V30 5397 H 515.947 5.05397 -0.587444 0
M  V30 5398 H 515.345 5.0274 2.59363 0
M  V30 5399 H 513.902 5.95871 2.64162 0
M  V30 5400 N 517.335 0.585699 1.46312 0
M  V30 5401 C 518.282 -0.145835 2.30339 0
M  V30 5402 C 519.252 -0.881215 1.40797 0
M  V30 5403 O 520.437 -0.871293 1.69744 0
M  V30 5404 C 517.577 -1.15161 3.25318 0
M  V30 5405 C 516.69 -0.419367 4.2996 0
M  V30 5406 C 515.825 -1.41293 5.12064 0
M  V30 5407 C 514.864 -0.667261 6.08452 0
M  V30 5408 N 514.001 -1.60903 6.83414 0
M  V30 5409 H 518.841 0.576755 2.92365 0
M  V30 5410 H 516.378 0.296237 1.44086 0
M  V30 5411 H 518.336 -1.74763 3.78832 0
M  V30 5412 H 516.966 -1.84188 2.65094 0
M  V30 5413 H 516.018 0.291751 3.7928 0
M  V30 5414 H 517.33 0.163433 4.98532 0
M  V30 5415 H 516.484 -2.08167 5.6987 0
M  V30 5416 H 515.223 -2.02966 4.43459 0
M  V30 5417 H 514.228 0.0152356 5.49798 0
M  V30 5418 H 515.453 -0.0558817 6.79077 0
M  V30 5419 H 513.399 -2.21381 6.17516 0
M  V30 5420 H 513.316 -1.07911 7.48259 0
M  V30 5421 H 514.584 -2.26802 7.45775 0
M  V30 5422 N 518.813 -1.54241 0.323641 0
M  V30 5423 C 520.059 -2.00867 -0.279323 0
M  V30 5424 C 520.392 -1.21146 -1.5178 0
M  V30 5425 O 519.667 -0.29378 -1.92269 0
M  V30 5426 C 519.95 -3.54837 -0.613387 0
M  V30 5427 C 519.803 -4.45284 0.635803 0
M  V30 5428 C 521.122 -4.16186 -1.43099 0
M  V30 5429 H 518.241 -0.730177 -0.100049 0
M  V30 5430 H 520.883 -1.84829 0.440235 0
M  V30 5431 H 519.033 -3.68634 -1.22641 0
M  V30 5432 H 520.705 -4.43357 1.27406 0
M  V30 5433 H 518.948 -4.14956 1.26466 0
M  V30 5434 H 519.619 -5.5084 0.357597 0
M  V30 5435 H 522.095 -4.05964 -0.912814 0
M  V30 5436 H 520.971 -5.24031 -1.6335 0
M  V30 5437 H 521.232 -3.69516 -2.42715 0
M  V30 5438 N 520.291 -0.0518155 -1.57515 0
M  V30 5439 C 521.201 0.937539 -2.15052 0
M  V30 5440 C 522.217 1.34121 -1.10849 0
M  V30 5441 O 523.393 1.418 -1.4302 0
M  V30 5442 C 520.458 2.19379 -2.68466 0
M  V30 5443 C 519.519 1.84841 -3.87469 0
M  V30 5444 C 518.752 3.04477 -4.38326 0
M  V30 5445 O 518.975 4.17868 -3.88256 0
M  V30 5446 O 517.909 2.85453 -5.29906 0
M  V30 5447 H 521.735 0.478201 -2.99912 0
M  V30 5448 H 519.32 0.17012 -1.48428 0
M  V30 5449 H 521.202 2.93084 -3.02787 0
M  V30 5450 H 519.877 2.64449 -1.86677 0
M  V30 5451 H 518.784 1.08449 -3.58036 0
M  V30 5452 H 520.117 1.44569 -4.7049 0
M  V30 5453 N 521.769 1.56035 0.221574 0
M  V30 5454 C 522.732 1.91584 1.2581 0
M  V30 5455 C 523.732 0.794425 1.39805 0
M  V30 5456 O 524.922 1.06217 1.38071 0
M  V30 5457 C 522.054 2.16663 2.63192 0
M  V30 5458 H 523.247 2.8429 0.954935 0
M  V30 5459 H 520.8 1.49316 0.461988 0
M  V30 5460 H 521.535 1.26508 2.98607 0
M  V30 5461 H 521.32 2.98358 2.5441 0
M  V30 5462 H 522.81 2.45262 3.37988 0
M  V30 5463 N 523.247 -0.488276 1.49845 0
M  V30 5464 C 524.179 -1.60539 1.63584 0
M  V30 5465 C 525.192 -1.5434 0.517972 0
M  V30 5466 O 526.381 -1.60041 0.790516 0
M  V30 5467 C 523.481 -2.99374 1.58835 0
M  V30 5468 C 522.654 -3.30624 2.86368 0
M  V30 5469 C 521.713 -4.4893 2.74496 0
M  V30 5470 O 520.739 -4.50085 3.48443 0
M  V30 5471 N 521.941 -5.49591 1.86894 0
M  V30 5472 H 524.706 -1.49176 2.59936 0
M  V30 5473 H 522.267 -0.67639 1.47094 0
M  V30 5474 H 524.259 -3.76459 1.48529 0
M  V30 5475 H 522.829 -3.04595 0.702892 0
M  V30 5476 H 522.049 -2.42314 3.1093 0
M  V30 5477 H 523.337 -3.48305 3.70892 0
M  V30 5478 H 522.735 -5.51467 1.26097 0
M  V30 5479 H 521.292 -6.25728 1.82503 0
M  V30 5480 N 524.725 -1.39134 -0.740242 0
M  V30 5481 C 525.971 -1.36273 -1.50192 0
M  V30 5482 C 526.304 0.0430136 -1.94152 0
M  V30 5483 O 525.579 1.00691 -1.66408 0
M  V30 5484 C 525.862 -2.33041 -2.74525 0
M  V30 5485 C 525.715 -3.82535 -2.36617 0
M  V30 5486 C 527.034 -2.27723 -3.76604 0
M  V30 5487 H 524.153 -0.496323 -0.544823 0
M  V30 5488 H 526.795 -1.70085 -0.846815 0
M  V30 5489 H 524.945 -2.04337 -3.30422 0
M  V30 5490 H 526.617 -4.21967 -1.86391 0
M  V30 5491 H 524.86 -3.99565 -1.68909 0
M  V30 5492 H 525.531 -4.45723 -3.2563 0
M  V30 5493 H 528.007 -2.53091 -3.30279 0
M  V30 5494 H 526.883 -2.97519 -4.61274 0
M  V30 5495 H 527.144 -1.28049 -4.2315 0
M  V30 5496 N 526.204 0.969867 -1.24223 0
M  V30 5497 C 527.434 1.74502 -1.106 0
M  V30 5498 C 527.842 1.86038 0.344483 0
M  V30 5499 O 527.185 1.3465 1.24961 0
M  V30 5500 C 527.247 3.18391 -1.66935 0
M  V30 5501 C 526.911 3.30334 -3.15798 0
M  V30 5502 C 527.908 3.15832 -4.12973 0
M  V30 5503 C 525.593 3.54644 -3.55715 0
M  V30 5504 C 527.587 3.25461 -5.48045 0
M  V30 5505 C 525.274 3.63912 -4.90929 0
M  V30 5506 C 526.272 3.49332 -5.86904 0
M  V30 5507 O 525.96 3.58251 -7.1966 0
M  V30 5508 H 525.692 0.554119 -0.387206 0
M  V30 5509 H 528.246 1.22646 -1.64764 0
M  V30 5510 H 526.476 3.71543 -1.07203 0
M  V30 5511 H 528.165 3.77707 -1.48634 0
M  V30 5512 H 528.931 2.96937 -3.83476 0
M  V30 5513 H 524.81 3.65059 -2.81519 0
M  V30 5514 H 528.354 3.13998 -6.22937 0
M  V30 5515 H 524.251 3.82319 -5.20098 0
M  V30 5516 H 525.019 3.7498 -7.27552 0
M  V30 5517 N 527.682 1.05563 1.17022 0
M  V30 5518 C 528.931 0.763036 1.8671 0
M  V30 5519 C 529.244 -0.712857 1.82147 0
M  V30 5520 O 530.45 -1.11955 2.47343 0
M  V30 5521 C 528.906 1.31474 3.35026 0
M  V30 5522 C 528.514 2.82034 3.48081 0
M  V30 5523 C 530.258 1.09935 4.10018 0
M  V30 5524 C 528.165 3.30486 4.90442 0
M  V30 5525 H 527.095 0.281747 0.699382 0
M  V30 5526 H 529.746 1.2734 1.32124 0
M  V30 5527 H 528.128 0.732171 3.89173 0
M  V30 5528 H 529.302 3.46178 3.04133 0
M  V30 5529 H 527.617 3.02156 2.86515 0
M  V30 5530 H 530.214 1.43632 5.15048 0
M  V30 5531 H 530.557 0.0373072 4.16283 0
M  V30 5532 H 531.09 1.64732 3.62089 0
M  V30 5533 H 527.829 4.36137 4.89352 0
M  V30 5534 H 527.349 2.71086 5.35044 0
M  V30 5535 H 529.028 3.25382 5.59227 0
M  V30 5536 N 529.16 -1.33526 0.837174 0
M  V30 5537 C 530.09 -2.31764 0.284206 0
M  V30 5538 C 531.071 -1.58896 -0.607142 0
M  V30 5539 O 532.256 -1.86798 -0.531047 0
M  V30 5540 C 529.386 -3.43029 -0.542962 0
M  V30 5541 C 528.34 -4.27255 0.252451 0
M  V30 5542 C 527.666 -5.3012 -0.69836 0
M  V30 5543 C 528.966 -5.01229 1.46858 0
M  V30 5544 H 530.66 -2.78262 1.10502 0
M  V30 5545 H 528.206 -1.3378 0.532812 0
M  V30 5546 H 530.159 -4.1078 -0.940096 0
M  V30 5547 H 528.883 -2.95216 -1.39697 0
M  V30 5548 H 527.542 -3.61127 0.631124 0
M  V30 5549 H 527.19 -4.78564 -1.54872 0
M  V30 5550 H 526.89 -5.87353 -0.170274 0
M  V30 5551 H 528.414 -6.00737 -1.09305 0
M  V30 5552 H 529.828 -5.61756 1.14469 0
M  V30 5553 H 528.225 -5.68104 1.93333 0
M  V30 5554 H 529.295 -4.301 2.23924 0
M  V30 5555 N 530.638 -0.59345 -1.46 0
M  V30 5556 C 531.863 -0.0872365 -2.07216 0
M  V30 5557 C 532.288 1.2131 -1.43755 0
M  V30 5558 O 531.646 1.73528 -0.525152 0
M  V30 5559 C 531.694 0.0538197 -3.6056 0
M  V30 5560 O 530.798 1.10765 -3.97247 0
M  V30 5561 H 530.139 -0.0676598 -0.660544 0
M  V30 5562 H 532.669 -0.819445 -1.87473 0
M  V30 5563 H 532.679 0.256567 -4.07193 0
M  V30 5564 H 531.354 -0.895739 -4.0614 0
M  V30 5565 H 529.931 0.882501 -3.62307 0
M  V30 5566 N 532.116 1.54067 -0.331816 0
M  V30 5567 C 533.063 2.24623 0.530372 0
M  V30 5568 C 534.033 1.24009 1.10503 0
M  V30 5569 O 535.218 1.52712 1.14384 0
M  V30 5570 C 532.358 3.01374 1.68129 0
M  V30 5571 C 531.471 4.16821 1.13507 0
M  V30 5572 C 530.606 4.81085 2.25234 0
M  V30 5573 C 529.645 5.88621 1.67903 0
M  V30 5574 N 528.782 6.46713 2.73326 0
M  V30 5575 H 533.622 2.97898 -0.0778607 0
M  V30 5576 H 531.159 1.47014 -0.0501965 0
M  V30 5577 H 533.117 3.44125 2.35868 0
M  V30 5578 H 531.747 2.30419 2.26069 0
M  V30 5579 H 530.799 3.78796 0.348979 0
M  V30 5580 H 532.111 4.94203 0.675633 0
M  V30 5581 H 531.265 5.26846 3.00862 0
M  V30 5582 H 530.004 4.03102 2.74518 0
M  V30 5583 H 529.009 5.42254 0.907773 0
M  V30 5584 H 530.234 6.68506 1.19487 0
M  V30 5585 H 528.18 5.71599 3.21886 0
M  V30 5586 H 528.097 7.19532 2.3197 0
M  V30 5587 H 529.365 6.97129 3.48758 0
M  V30 5588 N 533.594 0.0601682 1.57485 0
M  V30 5589 C 534.504 -0.926121 2.15546 0
M  V30 5590 C 535.52 -1.33532 1.11558 0
M  V30 5591 O 536.696 -1.4104 1.4377 0
M  V30 5592 C 533.761 -2.17952 2.69625 0
M  V30 5593 C 532.822 -1.82783 3.88444 0
M  V30 5594 C 532.055 -3.02148 4.39935 0
M  V30 5595 O 532.278 -4.15803 3.90466 0
M  V30 5596 O 531.212 -2.82639 5.31412 0
M  V30 5597 H 535.038 -0.462289 3.00161 0
M  V30 5598 H 532.623 -0.162246 1.48516 0
M  V30 5599 H 534.505 -2.91474 3.04337 0
M  V30 5600 H 533.18 -2.63456 1.88077 0
M  V30 5601 H 532.087 -1.06549 3.58606 0
M  V30 5602 H 533.42 -1.42072 4.7125 0
M  V30 5603 N 535.072 -1.5615 -0.213296 0
M  V30 5604 C 535.982 -1.96265 -1.28519 0
M  V30 5605 C 536.998 -0.86765 -1.50824 0
M  V30 5606 O 538.174 -1.17191 -1.63793 0
M  V30 5607 C 535.239 -2.27836 -2.61327 0
M  V30 5608 C 534.3 -3.50949 -2.47252 0
M  V30 5609 C 533.533 -3.81004 -3.73727 0
M  V30 5610 O 533.756 -3.12612 -4.77106 0
M  V30 5611 O 532.69 -4.74477 -3.70344 0
M  V30 5612 H 536.516 -2.87631 -0.974795 0
M  V30 5613 H 534.101 -1.43467 -0.416832 0
M  V30 5614 H 535.983 -2.49299 -3.39747 0
M  V30 5615 H 534.658 -1.39643 -2.9203 0
M  V30 5616 H 533.565 -3.34754 -1.67004 0
M  V30 5617 H 534.898 -4.39551 -2.21486 0
M  V30 5618 N 536.55 0.480323 -1.50102 0
M  V30 5619 C 537.798 1.23063 -1.60312 0
M  V30 5620 C 538.119 1.92659 -0.301226 0
M  V30 5621 O 537.389 1.83691 0.680753 0
M  V30 5622 H 535.969 0.457231 -0.590719 0
M  V30 5623 H 538.631 0.554893 -1.86834 0
M  V30 5624 H 537.727 1.9835 -2.40964 0
M  V30 5625 N 538.028 1.39524 0.732853 0
M  V30 5626 C 539.276 1.36594 1.48951 0
M  V30 5627 C 539.597 -0.0367507 1.94965 0
M  V30 5628 O 538.867 -0.988391 1.69138 0
M  V30 5629 H 537.447 0.502673 0.552566 0
M  V30 5630 H 540.109 1.74411 0.869869 0
M  V30 5631 H 539.205 2.03 2.3706 0
M  V30 5632 N 539.506 -0.963266 1.24736 0
M  V30 5633 C 540.922 -1.23273 1.01371 0
M  V30 5634 C 541.122 -1.99618 -0.274776 0
M  V30 5635 O 540.178 -2.32293 -0.989769 0
M  V30 5636 C 541.491 -2.01554 2.23152 0
M  V30 5637 C 543.039 -2.14629 2.27823 0
M  V30 5638 C 543.514 -2.96307 3.49237 0
M  V30 5639 N 545.005 -3.03887 3.49581 0
M  V30 5640 C 545.74 -3.67456 4.40186 0
M  V30 5641 N 545.236 -4.32706 5.41052 0
M  V30 5642 N 547.029 -3.64511 4.27888 0
M  V30 5643 H 539.18 -0.452294 2.07528 0
M  V30 5644 H 541.443 -0.262521 0.910926 0
M  V30 5645 H 541.149 -1.52847 3.1675 0
M  V30 5646 H 541.023 -3.02278 2.25628 0
M  V30 5647 H 543.41 -2.62537 1.34753 0
M  V30 5648 H 543.491 -1.13238 2.2937 0
M  V30 5649 H 543.135 -2.49091 4.42624 0
M  V30 5650 H 543.065 -3.97905 3.44933 0
M  V30 5651 H 545.556 -2.57477 2.76611 0
M  V30 5652 H 545.869 -4.79042 6.06415 0
M  V30 5653 H 544.214 -4.31361 5.44934 0
M  V30 5654 H 547.405 -3.12715 3.4832 0
M  V30 5655 H 547.578 -4.13768 4.98698 0
M  V30 5656 N 540.985 -1.06182 -1.16461 0
M  V30 5657 C 541.935 -0.641619 -2.18786 0
M  V30 5658 C 542.919 0.327122 -1.5754 0
M  V30 5659 O 544.111 0.142746 -1.76423 0
M  V30 5660 C 541.24 -0.0283734 -3.43288 0
M  V30 5661 C 540.326 -1.02154 -4.11613 0
M  V30 5662 N 540.717 -2.19671 -4.55608 0
M  V30 5663 C 539.015 -0.852229 -4.37782 0
M  V30 5664 C 539.716 -2.82583 -5.0845 0
M  V30 5665 N 538.692 -2.10318 -5.01266 0
M  V30 5666 H 542.494 -1.53684 -2.50516 0
M  V30 5667 H 540.008 -0.933349 -1.329 0
M  V30 5668 H 542.005 0.29049 -4.15887 0
M  V30 5669 H 540.665 0.862118 -3.13046 0
M  V30 5670 H 541.676 -2.57453 -4.49375 0
M  V30 5671 H 538.353 -0.0136314 -4.17498 0
M  V30 5672 H 539.743 -3.82298 -5.52538 0
M  V30 5673 N 542.463 1.3308 -0.844243 0
M  V30 5674 C 543.41 2.29104 -0.279323 0
M  V30 5675 C 544.38 1.54577 0.607882 0
M  V30 5676 O 545.565 1.8285 0.545009 0
M  V30 5677 C 542.705 3.40927 0.53508 0
M  V30 5678 C 541.818 4.30354 -0.376749 0
M  V30 5679 C 540.953 5.29297 0.449276 0
M  V30 5680 C 539.992 6.10365 -0.460606 0
M  V30 5681 N 539.129 7.01335 0.327612 0
M  V30 5682 H 543.969 2.76817 -1.10346 0
M  V30 5683 H 541.506 1.36203 -0.555611 0
M  V30 5684 H 543.464 4.04469 1.02278 0
M  V30 5685 H 542.094 2.94391 1.32414 0
M  V30 5686 H 541.146 3.67485 -0.982791 0
M  V30 5687 H 542.458 4.87067 -1.07549 0
M  V30 5688 H 541.612 5.98392 1.00058 0
M  V30 5689 H 540.351 4.73174 1.18143 0
M  V30 5690 H 539.356 5.40182 -1.02388 0
M  V30 5691 H 540.581 6.68571 -1.1912 0
M  V30 5692 H 538.527 6.47655 1.04305 0
M  V30 5693 H 538.444 7.55355 -0.3123 0
M  V30 5694 H 539.712 7.74731 0.86098 0
M  V30 5695 N 543.941 0.601185 1.45683 0
M  V30 5696 C 545.352 0.179659 1.85834 0
M  V30 5697 C 545.703 -1.26189 1.50236 0
M  V30 5698 O 544.828 -1.95587 0.925987 0
M  V30 5699 C 545.423 0.319277 3.37292 0
M  V30 5700 C 543.982 -0.0475092 3.7637 0
M  V30 5701 C 543.129 0.646692 2.69654 0
M  V30 5702 H 546.08 0.808268 1.36575 0
M  V30 5703 H 546.101 -0.4503 3.77826 0
M  V30 5704 H 545.613 1.36855 3.6317 0
M  V30 5705 H 543.714 -1.0962 3.5611 0
M  V30 5706 H 543.827 0.34168 4.7788 0
M  V30 5707 H 542.191 0.0849971 2.54558 0
M  V30 5708 H 542.974 1.69797 2.98369 0
M  V30 5709 N 545.419 -1.53889 0.339982 0
M  V30 5710 C 546.666 -2.00855 -0.257621 0
M  V30 5711 C 546.994 -1.22788 -1.50842 0
M  V30 5712 O 546.249 -0.302567 -1.93347 0
M  V30 5713 C 546.548 -3.51968 -0.620735 0
M  V30 5714 C 546.214 -4.47741 0.532771 0
M  V30 5715 C 544.876 -4.73645 0.849339 0
M  V30 5716 C 547.228 -5.04551 1.3068 0
M  V30 5717 C 544.556 -5.53614 1.94237 0
M  V30 5718 C 546.908 -5.85713 2.39005 0
M  V30 5719 C 545.572 -6.09912 2.71225 0
M  V30 5720 H 544.842 -0.734979 -0.0942703 0
M  V30 5721 H 547.489 -1.85714 0.467159 0
M  V30 5722 H 545.794 -3.64921 -1.42618 0
M  V30 5723 H 547.491 -3.85762 -1.09495 0
M  V30 5724 H 544.081 -4.27711 0.275973 0
M  V30 5725 H 548.265 -4.84507 1.07549 0
M  V30 5726 H 543.521 -5.7059 2.19628 0
M  V30 5727 H 547.695 -6.28748 2.99415 0
M  V30 5728 H 545.322 -6.71665 3.56047 0
M  V30 5729 N 546.897 -0.0685191 -1.57451 0
M  V30 5730 C 548.143 0.602239 -1.93652 0
M  V30 5731 C 548.476 1.6946 -0.948526 0
M  V30 5732 O 547.751 1.94487 0.022782 0
M  V30 5733 C 548.034 1.18223 -3.4014 0
M  V30 5734 C 547.887 0.0967431 -4.49696 0
M  V30 5735 C 549.206 2.08872 -3.87377 0
M  V30 5736 H 546.325 0.217453 -0.70419 0
M  V30 5737 H 548.967 -0.133821 -1.89528 0
M  V30 5738 H 547.117 1.80953 -3.43785 0
M  V30 5739 H 548.789 -0.536155 -4.58174 0
M  V30 5740 H 547.032 -0.573063 -4.29998 0
M  V30 5741 H 547.703 0.542894 -5.49324 0
M  V30 5742 H 550.179 1.56081 -3.85717 0
M  V30 5743 H 549.055 2.46389 -4.90493 0
M  V30 5744 H 549.316 2.99572 -3.25129 0
M  V30 5745 N 548.375 1.56261 0.205012 0
M  V30 5746 C 549.6 1.84491 0.947512 0
M  V30 5747 C 550.025 0.650894 1.76479 0
M  V30 5748 O 549.383 -0.40035 1.76824 0
M  V30 5749 C 549.431 3.10863 1.82747 0
M  V30 5750 O 548.535 2.90719 2.925 0
M  V30 5751 H 547.876 0.607783 0.267386 0
M  V30 5752 H 550.406 2.03485 0.213323 0
M  V30 5753 H 550.416 3.41399 2.23407 0
M  V30 5754 H 549.091 3.97392 1.2269 0
M  V30 5755 H 547.668 2.71457 2.55667 0
M  V30 5756 N 549.853 -0.472356 1.50355 0
M  V30 5757 C 550.803 -1.56809 1.65514 0
M  V30 5758 C 551.787 -1.5261 0.509801 0
M  V30 5759 O 552.979 -1.59655 0.764145 0
M  V30 5760 C 550.108 -2.9526 1.75146 0
M  V30 5761 C 549.194 -3.04348 2.95353 0
M  V30 5762 N 549.585 -2.83253 4.19048 0
M  V30 5763 C 547.883 -3.35482 2.93884 0
M  V30 5764 C 548.584 -2.97273 5.00003 0
M  V30 5765 N 547.56 -3.27418 4.33934 0
M  V30 5766 H 551.362 -1.39197 2.58846 0
M  V30 5767 H 548.876 -0.67906 1.47521 0
M  V30 5768 H 550.873 -3.74044 1.8411 0
M  V30 5769 H 549.533 -3.1392 0.829717 0
M  V30 5770 H 550.544 -2.5886 4.48567 0
M  V30 5771 H 547.221 -3.60138 2.11204 0
M  V30 5772 H 548.611 -2.85214 6.08361 0
M  V30 5773 N 551.331 -1.39911 -0.725443 0
M  V30 5774 C 552.578 -1.37654 -1.48518 0
M  V30 5775 C 552.906 0.0243982 -1.94485 0
M  V30 5776 O 552.161 1.00708 -1.67799 0
M  V30 5777 C 552.46 -2.30368 -2.7325 0
M  V30 5778 C 552.126 -3.77817 -2.461 0
M  V30 5779 C 550.788 -4.17991 -2.38405 0
M  V30 5780 C 553.14 -4.71036 -2.23103 0
M  V30 5781 C 550.468 -5.49433 -2.05768 0
M  V30 5782 C 552.82 -6.02766 -1.9198 0
M  V30 5783 C 551.484 -6.41993 -1.82761 0
M  V30 5784 H 550.754 -0.503713 -0.543465 0
M  V30 5785 H 553.401 -1.7249 -0.831822 0
M  V30 5786 H 551.706 -1.88683 -3.43375 0
M  V30 5787 H 553.403 -2.2591 -3.31309 0
M  V30 5788 H 549.993 -3.45982 -2.52972 0
M  V30 5789 H 554.177 -4.40823 -2.2801 0
M  V30 5790 H 549.433 -5.78738 -1.9716 0
M  V30 5791 H 553.607 -6.74519 -1.73197 0
M  V30 5792 H 551.234 -7.43761 -1.57237 0
M  V30 5793 N 552.809 0.956637 -1.25245 0
M  V30 5794 C 553.742 2.05232 -0.99775 0
M  V30 5795 C 554.72 1.62439 0.0723137 0
M  V30 5796 O 555.904 1.88381 -0.066926 0
M  V30 5797 C 553.031 3.34871 -0.507861 0
M  V30 5798 C 552.077 3.96625 -1.56815 0
M  V30 5799 S 552.91 4.32853 -3.15276 0
M  V30 5800 C 554.066 5.65613 -2.68017 0
M  V30 5801 H 554.299 2.26521 -1.9255 0
M  V30 5802 H 551.832 1.09601 -1.08752 0
M  V30 5803 H 553.79 4.09845 -0.231858 0
M  V30 5804 H 552.451 3.11551 0.399356 0
M  V30 5805 H 551.644 4.90087 -1.17604 0
M  V30 5806 H 551.246 3.28124 -1.79473 0
M  V30 5807 H 553.538 6.43635 -2.11518 0
M  V30 5808 H 554.481 6.09693 -3.60112 0
M  V30 5809 H 554.889 5.24751 -2.0808 0
M  V30 5810 N 554.287 1.06798 1.15896 0
M  V30 5811 C 555.698 0.811355 1.68149 0
M  V30 5812 C 556.049 -0.664339 1.8461 0
M  V30 5813 O 555.174 -1.51485 1.54535 0
M  V30 5814 C 555.769 1.46624 3.05429 0
M  V30 5815 C 554.328 1.25726 3.54781 0
M  V30 5816 C 553.475 1.53949 2.3064 0
M  V30 5817 H 556.426 1.23078 1.00187 0
M  V30 5818 H 556.447 0.88437 3.7008 0
M  V30 5819 H 555.959 2.54025 2.93416 0
M  V30 5820 H 554.06 0.20322 3.72045 0
M  V30 5821 H 554.173 1.97354 4.36564 0
M  V30 5822 H 552.537 0.96025 2.35905 0
M  V30 5823 H 553.32 2.6252 2.2122 0
M  V30 5824 N 555.766 -1.3263 0.851289 0
M  V30 5825 C 557.012 -1.9766 0.453694 0
M  V30 5826 C 557.345 -1.67225 -0.987396 0
M  V30 5827 O 556.62 -0.958693 -1.69232 0
M  V30 5828 C 556.903 -3.5344 0.68936 0
M  V30 5829 C 556.756 -3.93517 2.17862 0
M  V30 5830 C 558.075 -4.39866 0.143555 0
M  V30 5831 H 555.194 -0.717989 0.166314 0
M  V30 5832 H 557.836 -1.57068 1.06909 0
M  V30 5833 H 555.986 -3.88147 0.165546 0
M  V30 5834 H 557.658 -3.69006 2.76826 0
M  V30 5835 H 555.901 -3.42798 2.65841 0
M  V30 5836 H 556.572 -5.02065 2.29422 0
M  V30 5837 H 559.048 -4.11875 0.591451 0
M  V30 5838 H 557.924 -5.47858 0.338043 0
M  V30 5839 H 558.185 -4.31696 -0.953466 0
M  V30 5840 N 557.244 -0.608902 -1.45362 0
M  V30 5841 C 558.177 0.158059 -2.27652 0
M  V30 5842 C 559.155 0.872397 -1.37215 0
M  V30 5843 O 560.339 0.881002 -1.66645 0
M  V30 5844 C 557.466 1.22896 -3.15617 0
M  V30 5845 C 556.512 0.617607 -4.22005 0
M  V30 5846 S 557.345 -0.575518 -5.32398 0
M  V30 5847 C 558.501 0.495938 -6.23932 0
M  V30 5848 H 558.734 -0.540095 -2.92353 0
M  V30 5849 H 556.267 -0.396456 -1.49223 0
M  V30 5850 H 558.225 1.84195 -3.66855 0
M  V30 5851 H 556.886 1.89919 -2.50179 0
M  V30 5852 H 556.079 1.42341 -4.83482 0
M  V30 5853 H 555.681 0.0797273 -3.73915 0
M  V30 5854 H 557.973 1.37465 -6.63408 0
M  V30 5855 H 558.916 -0.0827108 -7.08052 0
M  V30 5856 H 559.324 0.811856 -5.58631 0
M  V30 5857 N 558.722 1.53707 -0.348139 0
M  V30 5858 C 559.969 2.00988 0.246966 0
M  V30 5859 C 560.297 1.23586 1.50189 0
M  V30 5860 O 559.552 0.312817 1.93184 0
M  V30 5861 C 559.851 3.52292 0.602061 0
M  V30 5862 C 559.517 4.47453 -0.556509 0
M  V30 5863 C 558.179 4.73188 -0.874446 0
M  V30 5864 C 560.531 5.03851 -1.33354 0
M  V30 5865 C 557.859 5.52577 -1.9717 0
M  V30 5866 C 560.211 5.84437 -2.42108 0
M  V30 5867 C 558.875 6.08465 -2.74456 0
M  V30 5868 H 558.145 0.735469 0.0903712 0
M  V30 5869 H 560.792 1.85464 -0.477001 0
M  V30 5870 H 559.097 3.65672 1.40681 0
M  V30 5871 H 560.794 3.86337 1.07447 0
M  V30 5872 H 557.384 4.27558 -0.298652 0
M  V30 5873 H 561.568 4.8393 -1.10117 0
M  V30 5874 H 556.824 5.69418 -2.22651 0
M  V30 5875 H 560.998 6.27151 -3.02745 0
M  V30 5876 H 558.625 6.69768 -3.59604 0
M  V30 5877 N 560.2 0.0768682 1.57412 0
M  V30 5878 C 561.425 -0.603404 1.98428 0
M  V30 5879 C 561.85 -1.62047 0.955108 0
M  V30 5880 O 561.208 -1.81129 -0.0786778 0
M  V30 5881 C 561.256 -1.24396 3.38464 0
M  V30 5882 O 560.36 -2.35982 3.3821 0
M  V30 5883 H 559.701 -0.154741 0.645718 0
M  V30 5884 H 562.231 0.152885 2.04028 0
M  V30 5885 H 562.241 -1.5896 3.7576 0
M  V30 5886 H 560.916 -0.498735 4.12899 0
M  V30 5887 H 559.493 -2.03173 3.1269 0
M  V30 5888 N 561.678 -1.56367 -0.196722 0
M  V30 5889 C 562.608 -1.97442 -1.24655 0
M  V30 5890 C 563.589 -0.846147 -1.47561 0
M  V30 5891 O 564.774 -1.11035 -1.59326 0
M  V30 5892 C 561.904 -2.31253 -2.59112 0
M  V30 5893 C 560.858 -3.46804 -2.50821 0
M  V30 5894 C 560.184 -3.66286 -3.89536 0
M  V30 5895 C 561.484 -4.8104 -2.03465 0
M  V30 5896 H 563.178 -2.85388 -0.905216 0
M  V30 5897 H 560.724 -1.37304 -0.434002 0
M  V30 5898 H 562.677 -2.58583 -3.32736 0
M  V30 5899 H 561.401 -1.40188 -2.94983 0
M  V30 5900 H 560.06 -3.19563 -1.79653 0
M  V30 5901 H 559.708 -2.72555 -4.22756 0
M  V30 5902 H 559.408 -4.4402 -3.84864 0
M  V30 5903 H 560.932 -3.9599 -4.64784 0
M  V30 5904 H 562.346 -5.07411 -2.66846 0
M  V30 5905 H 560.743 -5.62232 -2.09798 0
M  V30 5906 H 561.813 -4.74732 -0.98781 0
M  V30 5907 N 563.156 0.464375 -1.50603 0
M  V30 5908 C 564.384 1.23907 -1.65695 0
M  V30 5909 C 564.799 1.85658 -0.343027 0
M  V30 5910 O 564.156 1.69529 0.675739 0
M  V30 5911 C 564.207 2.3429 -2.75301 0
M  V30 5912 O 563.928 1.7507 -4.01599 0
M  V30 5913 C 565.429 3.25051 -3.01424 0
M  V30 5914 H 562.649 0.374485 -0.556778 0
M  V30 5915 H 565.193 0.55353 -1.96866 0
M  V30 5916 H 563.348 2.98607 -2.46804 0
M  V30 5917 H 563.762 2.47812 -4.62266 0
M  V30 5918 H 565.236 3.98699 -3.81763 0
M  V30 5919 H 565.713 3.84227 -2.12758 0
M  V30 5920 H 566.319 2.66463 -3.31477 0
M  V30 5921 N 564.634 1.40294 0.718013 0
M  V30 5922 C 565.88 1.39648 1.47885 0
M  V30 5923 C 566.235 -0.0023879 1.924 0
M  V30 5924 O 565.528 -0.972304 1.65096 0
M  V30 5925 C 565.722 2.31814 2.72024 0
M  V30 5926 C 565.551 3.80523 2.3965 0
M  V30 5927 C 564.321 4.49351 2.3111 0
M  V30 5928 C 566.519 4.72077 2.04079 0
M  V30 5929 N 564.501 5.83305 1.91385 0
M  V30 5930 C 565.872 5.94809 1.74935 0
M  V30 5931 C 567.927 4.59935 1.90694 0
M  V30 5932 C 566.63 7.06755 1.33753 0
M  V30 5933 C 568.656 5.7182 1.50915 0
M  V30 5934 C 568.018 6.93637 1.22668 0
M  V30 5935 H 564.117 0.566263 0.539324 0
M  V30 5936 H 566.701 1.75986 0.832891 0
M  V30 5937 H 564.872 1.97607 3.34374 0
M  V30 5938 H 566.604 2.22042 3.38348 0
M  V30 5939 H 563.359 4.03002 2.4877 0
M  V30 5940 H 563.783 6.54239 1.74068 0
M  V30 5941 H 568.425 3.66274 2.11194 0
M  V30 5942 H 566.143 8.00302 1.11995 0
M  V30 5943 H 569.729 5.64421 1.4114 0
M  V30 5944 H 568.609 7.78743 0.923502 0
M  V30 5945 N 566.112 -0.949982 1.2575 0
M  V30 5946 C 567.389 -1.6718 1.01539 0
M  V30 5947 C 567.769 -2.06095 -0.456942 0
M  V30 5948 O 567.117 -1.77792 -1.43534 0
M  V30 5949 C 567.327 -2.8906 1.95564 0
M  V30 5950 C 568.675 -3.60909 2.23673 0
M  V30 5951 O 569.699 -2.9915 1.9336 0
M  V30 5952 O 568.558 -4.72127 2.75243 0
M  V30 5953 H 565.652 -0.731697 0.385419 0
M  V30 5954 H 568.198 -1.00249 1.36924 0
M  V30 5955 H 566.97 -2.57128 2.94959 0
M  V30 5956 H 566.593 -3.63719 1.60605 0
M  V30 5957 N 567.59 -1.07411 -1.15328 0
M  V30 5958 C 568.523 -0.63913 -2.19067 0
M  V30 5959 C 569.501 0.343929 -1.58921 0
M  V30 5960 O 570.685 0.250207 -1.86832 0
M  V30 5961 C 567.812 0.0613977 -3.38644 0
M  V30 5962 C 566.858 -0.880201 -4.17318 0
M  V30 5963 S 567.691 -2.38152 -4.79629 0
M  V30 5964 C 568.847 -1.69281 -6.02573 0
M  V30 5965 H 569.08 -1.51799 -2.55626 0
M  V30 5966 H 566.613 -0.888138 -1.26299 0
M  V30 5967 H 568.571 0.459323 -4.07922 0
M  V30 5968 H 567.232 0.916605 -3.00428 0
M  V30 5969 H 566.425 -0.336781 -5.02874 0
M  V30 5970 H 566.027 -1.21854 -3.53592 0
M  V30 5971 H 568.319 -1.00488 -6.70006 0
M  V30 5972 H 569.262 -2.52671 -6.61485 0
M  V30 5973 H 569.67 -1.17053 -5.52231 0
M  V30 5974 N 569.068 1.32177 -0.85831 0
M  V30 5975 C 570.031 2.27086 -0.310588 0
M  V30 5976 C 571.031 1.51751 0.531806 0
M  V30 5977 O 572.221 1.70794 0.34279 0
M  V30 5978 C 569.353 3.36266 0.560179 0
M  V30 5979 H 570.546 2.77045 -1.1483 0
M  V30 5980 H 568.099 1.42911 -0.632942 0
M  V30 5981 H 568.834 2.9158 1.41956 0
M  V30 5982 H 568.619 3.92077 -0.0428473 0
M  V30 5983 H 570.109 4.06974 0.936056 0
M  V30 5984 N 570.547 0.616602 1.45037 0
M  V30 5985 C 571.787 0.118453 2.04056 0
M  V30 5986 C 572.151 -1.23104 1.47341 0
M  V30 5987 O 573.352 -1.82044 1.97771 0
M  V30 5988 C 571.623 0.0892842 3.57288 0
M  V30 5989 S 573.182 -0.346361 4.37431 0
M  V30 5990 H 570 0.0539728 0.708948 0
M  V30 5991 H 572.602 0.816731 1.77623 0
M  V30 5992 H 571.306 1.07481 3.96076 0
M  V30 5993 H 570.837 -0.630703 3.88311 0
M  V30 5994 H 572.852 -1.59389 4.69904 0
M  V30 5995 N 572.025 -1.5352 0.356285 0
M  V30 5996 C 573.441 -1.59599 0.00485267 0
M  V30 5997 C 573.641 -1.37179 -1.47595 0
M  V30 5998 O 572.697 -1.17234 -2.23635 0
M  V30 5999 C 574.01 -2.97277 0.452454 0
M  V30 6000 C 575.558 -3.10357 0.405881 0
M  V30 6001 C 576.033 -4.50432 0.829148 0
M  V30 6002 N 577.524 -4.5652 0.783838 0
M  V30 6003 C 578.259 -5.63077 1.08315 0
M  V30 6004 N 577.755 -6.77429 1.45126 0
M  V30 6005 N 579.548 -5.53014 1.00655 0
M  V30 6006 H 571.699 -1.66346 1.32071 0
M  V30 6007 H 573.962 -0.77971 0.539218 0
M  V30 6008 H 573.668 -3.18792 1.48542 0
M  V30 6009 H 573.542 -3.76836 -0.165762 0
M  V30 6010 H 575.929 -2.88558 -0.617934 0
M  V30 6011 H 576.01 -2.32828 1.05947 0
M  V30 6012 H 575.654 -4.72968 1.85103 0
M  V30 6013 H 575.584 -5.26378 0.152906 0
M  V30 6014 H 578.075 -3.74408 0.512513 0
M  V30 6015 H 578.388 -7.54669 1.66415 0
M  V30 6016 H 576.733 -6.78844 1.48983 0
M  V30 6017 H 579.924 -4.62557 0.718215 0
M  V30 6018 H 580.097 -6.35964 1.24315 0
M  V30 6019 N 573.503 -0.0852151 -1.57369 0
M  V30 6020 C 574.752 0.580443 -1.93168 0
M  V30 6021 C 575.065 1.6995 -0.968319 0
M  V30 6022 O 576.271 2.42564 -1.21963 0
M  V30 6023 C 574.727 1.08386 -3.43192 0
M  V30 6024 C 574.335 -0.00491388 -4.48 0
M  V30 6025 C 576.079 1.72281 -3.87968 0
M  V30 6026 C 573.986 0.513299 -5.89168 0
M  V30 6027 H 572.916 0.22059 -0.72101 0
M  V30 6028 H 575.567 -0.159621 -1.82804 0
M  V30 6029 H 573.949 1.8773 -3.48674 0
M  V30 6030 H 575.123 -0.780032 -4.5415 0
M  V30 6031 H 573.438 -0.548453 -4.12772 0
M  V30 6032 H 576.035 2.12108 -4.9083 0
M  V30 6033 H 576.378 2.58811 -3.26071 0
M  V30 6034 H 576.911 0.995359 -3.85146 0
M  V30 6035 H 573.65 -0.315153 -6.54742 0
M  V30 6036 H 573.17 1.25564 -5.8651 0
M  V30 6037 H 574.849 0.985433 -6.39451 0
M  V30 6038 N 574.981 1.5647 0.188427 0
M  V30 6039 C 576.23 1.80207 0.905995 0
M  V30 6040 C 576.543 0.659579 1.84144 0
M  V30 6041 O 577.749 0.781431 2.60011 0
M  V30 6042 C 576.205 3.19255 1.66145 0
M  V30 6043 C 575.813 4.41324 0.770504 0
M  V30 6044 C 577.557 3.52298 2.36826 0
M  V30 6045 C 575.464 5.71394 1.52521 0
M  V30 6046 H 574.394 0.671953 0.342045 0
M  V30 6047 H 577.045 1.82808 0.159164 0
M  V30 6048 H 575.427 3.10922 2.45242 0
M  V30 6049 H 576.601 4.60797 0.0177261 0
M  V30 6050 H 574.916 4.16035 0.174199 0
M  V30 6051 H 577.513 4.46715 2.93854 0
M  V30 6052 H 577.856 2.76359 3.11338 0
M  V30 6053 H 578.389 3.62108 1.6469 0
M  V30 6054 H 575.128 6.50316 0.82275 0
M  V30 6055 H 574.648 5.55928 2.25175 0
M  V30 6056 H 576.327 6.12747 2.07725 0
M  V30 6057 N 576.459 -0.456382 1.50847 0
M  V30 6058 C 577.389 -1.56025 1.73719 0
M  V30 6059 C 578.37 -1.5967 0.586473 0
M  V30 6060 O 579.555 -1.75702 0.827185 0
M  V30 6061 C 576.685 -2.94251 1.84483 0
M  V30 6062 C 575.639 -3.05471 2.99786 0
M  V30 6063 C 574.965 -4.45489 2.95709 0
M  V30 6064 C 576.265 -2.81318 4.40065 0
M  V30 6065 H 577.959 -1.37138 2.66146 0
M  V30 6066 H 575.505 -0.658299 1.28072 0
M  V30 6067 H 577.458 -3.71417 1.99067 0
M  V30 6068 H 576.182 -3.14328 0.886891 0
M  V30 6069 H 574.841 -2.30741 2.84876 0
M  V30 6070 H 574.489 -4.62505 1.97732 0
M  V30 6071 H 574.189 -4.53929 3.73125 0
M  V30 6072 H 575.713 -5.24655 3.12362 0
M  V30 6073 H 577.127 -3.48226 4.55425 0
M  V30 6074 H 575.524 -3.01188 5.19043 0
M  V30 6075 H 576.594 -1.7706 4.51418 0
M  V30 6076 N 577.937 -1.40673 -0.710563 0
M  V30 6077 C 579.348 -1.34975 -1.28991 0
M  V30 6078 C 579.699 -0.0256272 -1.96183 0
M  V30 6079 O 578.824 0.876339 -1.97862 0
M  V30 6080 C 579.419 -2.44467 -2.34567 0
M  V30 6081 C 577.978 -2.42213 -2.88114 0
M  V30 6082 C 577.125 -2.25085 -1.61963 0
M  V30 6083 H 580.076 -1.50406 -0.506343 0
M  V30 6084 H 580.097 -2.12663 -3.15523 0
M  V30 6085 H 579.609 -3.40825 -1.85634 0
M  V30 6086 H 577.71 -1.49568 -3.41263 0
M  V30 6087 H 577.823 -3.37983 -3.39565 0
M  V30 6088 H 576.187 -1.72691 -1.87216 0
M  V30 6089 H 576.97 -3.23449 -1.15047 0
M  V30 6090 N 579.415 0.9433 -1.26252 0
M  V30 6091 C 580.826 1.50404 -1.10614 0
M  V30 6092 C 581.177 1.93666 0.31429 0
M  V30 6093 O 580.302 1.79709 1.20555 0
M  V30 6094 C 580.897 2.73336 -2.00182 0
M  V30 6095 C 579.456 3.25686 -1.88695 0
M  V30 6096 C 578.603 1.98474 -1.93658 0
M  V30 6097 H 581.554 0.759006 -1.39373 0
M  V30 6098 H 581.575 3.47567 -1.54847 0
M  V30 6099 H 581.087 2.41818 -3.03555 0
M  V30 6100 H 579.188 3.61998 -0.882489 0
M  V30 6101 H 579.301 3.92935 -2.74115 0
M  V30 6102 H 577.665 2.14278 -1.37684 0
M  V30 6103 H 578.448 1.6929 -2.98657 0
M  V30 6104 N 580.893 1.08022 1.14757 0
M  V30 6105 C 581.803 0.718292 2.23333 0
M  V30 6106 C 582.819 -0.273477 1.71837 0
M  V30 6107 O 583.995 -0.118406 2.01052 0
M  V30 6108 C 581.06 0.128855 3.4646 0
M  V30 6109 C 580.121 1.17473 4.12915 0
M  V30 6110 C 579.354 0.61333 5.30164 0
M  V30 6111 O 579.577 -0.568458 5.6756 0
M  V30 6112 O 578.511 1.3615 5.86299 0
M  V30 6113 H 582.337 1.62394 2.56636 0
M  V30 6114 H 579.922 0.853628 1.22611 0
M  V30 6115 H 581.804 -0.197249 4.20938 0
M  V30 6116 H 580.479 -0.750014 3.14891 0
M  V30 6117 H 579.386 1.5533 3.40328 0
M  V30 6118 H 580.719 2.02574 4.48581 0
M  V30 6119 N 582.371 -1.3172 0.865308 0
M  V30 6120 C 583.318 -2.2863 0.315736 0
M  V30 6121 C 584.288 -1.55524 -0.583213 0
M  V30 6122 O 585.473 -1.83694 -0.51585 0
M  V30 6123 C 582.613 -3.41735 -0.480773 0
M  V30 6124 C 581.726 -4.297 0.445167 0
M  V30 6125 C 580.861 -5.29944 -0.365012 0
M  V30 6126 C 579.9 -6.09554 0.557651 0
M  V30 6127 N 579.037 -7.01768 -0.215994 0
M  V30 6128 H 583.877 -2.75026 1.14736 0
M  V30 6129 H 581.414 -1.35302 0.577209 0
M  V30 6130 H 583.372 -4.06045 -0.958306 0
M  V30 6131 H 582.002 -2.96461 -1.27714 0
M  V30 6132 H 581.054 -3.65875 1.04113 0
M  V30 6133 H 582.366 -4.85295 1.15284 0
M  V30 6134 H 581.52 -5.99908 -0.905255 0
M  V30 6135 H 580.259 -4.74994 -1.106 0
M  V30 6136 H 579.264 -5.38485 1.10969 0
M  V30 6137 H 580.489 -6.66591 1.29742 0
M  V30 6138 H 578.435 -6.49232 -0.939878 0
M  V30 6139 H 578.352 -7.54762 0.432431 0
M  V30 6140 H 579.62 -7.76002 -0.737618 0
M  V30 6141 N 583.85 -0.624285 -1.44708 0
M  V30 6142 C 584.76 0.0861083 -2.34442 0
M  V30 6143 C 585.776 0.84291 -1.5222 0
M  V30 6144 O 586.952 0.796723 -1.84971 0
M  V30 6145 C 584.017 1.05999 -3.30099 0
M  V30 6146 C 583.077 0.303316 -4.28227 0
M  V30 6147 C 582.311 1.23081 -5.19314 0
M  V30 6148 O 582.534 2.46929 -5.14181 0
M  V30 6149 O 581.468 0.71883 -5.97592 0
M  V30 6150 H 585.293 -0.651756 -2.96624 0
M  V30 6151 H 582.879 -0.384493 -1.44368 0
M  V30 6152 H 584.76 1.62046 -3.88997 0
M  V30 6153 H 583.436 1.77859 -2.70459 0
M  V30 6154 H 582.343 -0.300033 -3.72895 0
M  V30 6155 H 583.676 -0.375123 -4.90768 0
M  V30 6156 N 585.328 1.53329 -0.364422 0
M  V30 6157 C 586.258 2.28627 0.474543 0
M  V30 6158 C 587.239 1.31009 1.08492 0
M  V30 6159 O 588.424 1.59878 1.10239 0
M  V30 6160 C 585.554 3.07465 1.61501 0
M  V30 6161 C 584.508 4.1276 1.13194 0
M  V30 6162 C 583.834 4.79674 2.36255 0
M  V30 6163 C 585.134 5.21847 0.217507 0
M  V30 6164 H 586.828 2.99005 -0.153656 0
M  V30 6165 H 584.374 1.43803 -0.0753406 0
M  V30 6166 H 586.327 3.58889 2.20855 0
M  V30 6167 H 585.051 2.34775 2.27042 0
M  V30 6168 H 583.71 3.62281 0.56109 0
M  V30 6169 H 583.358 4.03557 3.00251 0
M  V30 6170 H 583.058 5.50827 2.04606 0
M  V30 6171 H 584.582 5.33892 2.96297 0
M  V30 6172 H 585.996 5.6878 0.718493 0
M  V30 6173 H 584.393 6.00099 -0.00806408 0
M  V30 6174 H 585.463 4.7921 -0.740653 0
M  V30 6175 N 586.806 0.0935595 1.57322 0
M  V30 6176 C 587.769 -0.851426 2.12799 0
M  V30 6177 C 588.769 -1.21187 1.0569 0
M  V30 6178 O 589.959 -1.14156 1.31583 0
M  V30 6179 C 587.091 -2.14779 2.64731 0
M  V30 6180 H 588.284 -0.369733 2.97612 0
M  V30 6181 H 585.837 -0.155417 1.55525 0
M  V30 6182 H 586.572 -2.67437 1.83434 0
M  V30 6183 H 586.357 -1.89907 3.43042 0
M  V30 6184 H 587.847 -2.82383 3.07651 0
M  V30 6185 N 588.284 -1.56567 -0.180126 0
M  V30 6186 C 589.217 -1.90813 -1.25163 0
M  V30 6187 C 590.195 -0.7699 -1.43218 0
M  V30 6188 O 591.379 -1.02236 -1.58367 0
M  V30 6189 C 588.506 -2.15138 -2.61597 0
M  V30 6190 C 587.552 -3.37834 -2.60328 0
M  V30 6191 S 588.385 -4.92486 -2.1028 0
M  V30 6192 C 589.541 -5.19896 -3.48509 0
M  V30 6193 H 589.774 -2.81398 -0.959283 0
M  V30 6194 H 587.307 -1.49541 -0.3843 0
M  V30 6195 H 589.265 -2.29835 -3.40127 0
M  V30 6196 H 587.926 -1.25276 -2.88036 0
M  V30 6197 H 587.119 -3.52027 -3.60684 0
M  V30 6198 H 586.721 -3.22208 -1.8989 0
M  V30 6199 H 589.013 -5.11334 -4.44459 0
M  V30 6200 H 589.956 -6.21571 -3.39198 0
M  V30 6201 H 590.364 -4.47489 -3.44114 0
M  V30 6202 N 589.762 0.448376 -1.51087 0
M  V30 6203 C 591.173 1.0286 -1.5581 0
M  V30 6204 C 591.524 1.92583 -0.374989 0
M  V30 6205 O 590.649 2.10316 0.509533 0
M  V30 6206 C 591.244 1.87223 -2.8237 0
M  V30 6207 C 589.803 2.40314 -2.897 0
M  V30 6208 C 588.95 1.19238 -2.50355 0
M  V30 6209 H 591.901 0.230075 -1.57023 0
M  V30 6210 H 591.922 2.72553 -2.6551 0
M  V30 6211 H 591.434 1.21894 -3.68461 0
M  V30 6212 H 589.535 3.09129 -2.08014 0
M  V30 6213 H 589.648 2.73866 -3.93108 0
M  V30 6214 H 588.012 1.53428 -2.03303 0
M  V30 6215 H 588.795 0.555367 -3.38778 0
M  V30 6216 N 591.24 1.41047 0.703093 0
M  V30 6217 C 592.488 1.39723 1.4602 0
M  V30 6218 C 592.809 0.00461257 1.94999 0
M  V30 6219 O 592.079 -0.952292 1.71196 0
M  V30 6220 H 590.659 0.514281 0.541779 0
M  V30 6221 H 593.321 1.76217 0.832678 0
M  V30 6222 H 592.417 2.07982 2.32701 0
M  V30 6223 N 592.718 -0.936591 1.26751 0
M  V30 6224 C 593.628 -2.06949 1.10496 0
M  V30 6225 C 594.644 -1.7396 0.037271 0
M  V30 6226 O 595.82 -1.99941 0.241944 0
M  V30 6227 C 592.885 -3.38612 0.744491 0
M  V30 6228 C 591.946 -3.85355 1.89209 0
M  V30 6229 C 591.179 -5.10735 1.54873 0
M  V30 6230 O 591.402 -5.68602 0.452546 0
M  V30 6231 O 590.336 -5.52632 2.38499 0
M  V30 6232 H 594.162 -2.23571 2.05547 0
M  V30 6233 H 591.747 -1.05428 1.05855 0
M  V30 6234 H 593.629 -4.17711 0.556396 0
M  V30 6235 H 592.304 -3.23218 -0.176582 0
M  V30 6236 H 591.211 -3.07182 2.13518 0
M  V30 6237 H 592.544 -4.05277 2.79305 0
M  V30 6238 N 594.196 -1.08629 -1.14182 0
M  V30 6239 C 595.473 -0.73002 -1.81466 0
M  V30 6240 C 595.853 0.785996 -1.95922 0
M  V30 6241 O 595.201 1.70535 -1.52086 0
M  V30 6242 C 595.411 -1.45957 -3.17014 0
M  V30 6243 C 596.759 -1.62008 -3.92477 0
M  V30 6244 O 597.783 -1.42141 -3.26611 0
M  V30 6245 O 596.642 -1.94806 -5.106 0
M  V30 6246 H 593.736 -0.261307 -0.784632 0
M  V30 6247 H 596.282 -1.188 -1.2118 0
M  V30 6248 H 595.054 -2.49221 -3.01669 0
M  V30 6249 H 594.677 -0.993222 -3.84995 0
M  V30 6250 N 595.674 1.31259 -0.872281 0
M  V30 6251 C 596.604 2.30929 -0.345554 0
M  V30 6252 C 597.585 1.60449 0.5648 0
M  V30 6253 O 598.77 1.8814 0.481335 0
M  V30 6254 C 595.9 3.44348 0.451823 0
M  V30 6255 C 594.854 4.26435 -0.365641 0
M  V30 6256 C 594.18 5.31785 0.557562 0
M  V30 6257 C 595.48 4.97159 -1.60095 0
M  V30 6258 H 597.174 2.75234 -1.17841 0
M  V30 6259 H 594.72 1.3232 -0.568094 0
M  V30 6260 H 596.673 4.13128 0.830854 0
M  V30 6261 H 595.397 2.98816 1.31821 0
M  V30 6262 H 594.056 3.59326 -0.726649 0
M  V30 6263 H 593.704 4.82502 1.4213 0
M  V30 6264 H 593.404 5.87598 0.0144878 0
M  V30 6265 H 594.928 6.03424 0.933387 0
M  V30 6266 H 596.342 5.58523 -1.29323 0
M  V30 6267 H 594.739 5.62779 -2.08327 0
M  V30 6268 H 595.809 4.24012 -2.35249 0
M  V30 6269 N 597.152 0.631951 1.44375 0
M  V30 6270 C 598.099 -0.0724807 2.30686 0
M  V30 6271 C 599.069 -0.835975 1.43529 0
M  V30 6272 O 600.254 -0.816849 1.7243 0
M  V30 6273 C 597.394 -1.04753 3.28817 0
M  V30 6274 C 596.507 -0.282367 4.31076 0
M  V30 6275 C 595.642 -1.2493 5.163 0
M  V30 6276 C 594.681 -0.473349 6.10267 0
M  V30 6277 N 593.818 -1.39079 6.88187 0
M  V30 6278 H 598.658 0.669477 2.90383 0
M  V30 6279 H 596.195 0.341927 1.43071 0
M  V30 6280 H 598.153 -1.62623 3.842 0
M  V30 6281 H 596.783 -1.75661 2.70819 0
M  V30 6282 H 595.835 0.412268 3.78159 0
M  V30 6283 H 597.147 0.321955 4.9776 0
M  V30 6284 H 596.301 -1.89931 5.76204 0
M  V30 6285 H 595.04 -1.88755 4.49692 0
M  V30 6286 H 594.045 0.190142 5.49471 0
M  V30 6287 H 595.27 0.16019 6.78911 0
M  V30 6288 H 593.216 -2.01623 6.24247 0
M  V30 6289 H 593.133 -0.840513 7.51313 0
M  V30 6290 H 594.401 -2.02961 7.52613 0
M  V30 6291 N 598.631 -1.53133 0.372548 0
M  V30 6292 C 599.878 -2.01356 -0.214959 0
M  V30 6293 C 600.206 -1.2596 -1.48204 0
M  V30 6294 O 599.461 -0.343511 -1.92662 0
M  V30 6295 C 599.76 -3.53206 -0.545938 0
M  V30 6296 C 599.426 -4.46511 0.627624 0
M  V30 6297 C 598.088 -4.71737 0.949615 0
M  V30 6298 C 600.44 -5.01666 1.41353 0
M  V30 6299 C 597.768 -5.4937 2.05936 0
M  V30 6300 C 600.12 -5.80511 2.51375 0
M  V30 6301 C 598.784 -6.04022 2.84101 0
M  V30 6302 H 598.054 -0.736813 -0.078659 0
M  V30 6303 H 600.701 -1.84682 0.506447 0
M  V30 6304 H 599.006 -3.67864 -1.34845 0
M  V30 6305 H 600.703 -3.87997 -1.01287 0
M  V30 6306 H 597.293 -4.27029 0.366635 0
M  V30 6307 H 601.477 -4.82117 1.17802 0
M  V30 6308 H 596.733 -5.65803 2.31682 0
M  V30 6309 H 600.907 -6.22255 3.12684 0
M  V30 6310 H 598.534 -6.63962 3.70214 0
M  V30 6311 N 600.109 -0.101901 -1.5727 0
M  V30 6312 C 601.057 0.872034 -2.15635 0
M  V30 6313 C 602.051 1.28742 -1.10099 0
M  V30 6314 O 603.257 1.26116 -1.28432 0
M  V30 6315 H 599.632 0.299269 -0.689886 0
M  V30 6316 H 601.603 0.355137 -2.96279 0
M  V30 6317 C 600.352 2.11886 -2.7568 0
M  V30 6318 H 599.675 1.80813 -3.56576 0
M  V30 6319 H 601.115 2.78077 -3.20077 0
M  V30 6320 C 599.574 2.89739 -1.7191 0
M  V30 6321 O 600.104 3.84522 -1.16213 0
M  V30 6322 N 598.31 2.53407 -1.42245 0
M  V30 6323 H 597.857 1.76398 -1.87727 0
M  V30 6324 H 597.815 3.05795 -0.730529 0
M  V30 6325 N 601.587 1.56661 0.17182 0
M  V30 6326 C 602.517 1.99401 1.21498 0
M  V30 6327 C 603.498 0.869516 1.46197 0
M  V30 6328 O 604.683 1.13556 1.57539 0
M  V30 6329 C 601.813 2.35346 2.55401 0
M  V30 6330 C 600.767 3.5075 2.45272 0
M  V30 6331 C 600.093 3.72437 3.8366 0
M  V30 6332 C 601.393 4.84216 1.95787 0
M  V30 6333 H 603.087 2.86792 0.859699 0
M  V30 6334 H 600.633 1.37977 0.412103 0
M  V30 6335 H 602.586 2.63843 3.2858 0
M  V30 6336 H 601.31 1.44864 2.92715 0
M  V30 6337 H 599.969 3.2238 1.74547 0
M  V30 6338 H 599.617 2.79246 4.18367 0
M  V30 6339 H 599.317 4.50087 3.77751 0
M  V30 6340 H 600.841 4.03334 4.58426 0
M  V30 6341 H 602.255 5.11592 2.5874 0
M  V30 6342 H 600.652 5.65498 2.00827 0
M  V30 6343 H 601.722 4.76243 0.912159 0
M  V30 6344 N 603.065 -0.440357 1.51323 0
M  V30 6345 C 604.314 -1.18697 1.63076 0
M  V30 6346 C 604.627 -1.92418 0.35136 0
M  V30 6347 O 605.833 -2.69258 0.348221 0
M  V30 6348 C 604.289 -2.15849 2.87988 0
M  V30 6349 C 603.897 -1.47789 4.22921 0
M  V30 6350 C 605.641 -2.90962 3.09098 0
M  V30 6351 C 603.548 -2.43407 5.38987 0
M  V30 6352 H 602.478 -0.44676 0.607389 0
M  V30 6353 H 605.129 -0.454313 1.77787 0
M  V30 6354 H 603.511 -2.92537 2.66905 0
M  V30 6355 H 604.685 -0.7668 4.54375 0
M  V30 6356 H 603 -0.848404 4.07665 0
M  V30 6357 H 605.597 -3.62584 3.92985 0
M  V30 6358 H 605.94 -3.52133 2.22053 0
M  V30 6359 H 606.473 -2.21381 3.30507 0
M  V30 6360 H 603.212 -1.86929 6.28282 0
M  V30 6361 H 602.732 -3.12579 5.11913 0
M  V30 6362 H 604.411 -3.046 5.70813 0
M  V30 6363 N 604.543 -1.41418 -0.695603 0
M  V30 6364 C 605.473 -1.46035 -1.82197 0
M  V30 6365 C 606.454 -0.319025 -1.67082 0
M  V30 6366 O 607.639 -0.530462 -1.86815 0
M  V30 6367 C 604.769 -1.34179 -3.20333 0
M  V30 6368 C 603.723 -2.46123 -3.50154 0
M  V30 6369 C 603.049 -2.19332 -4.87645 0
M  V30 6370 C 604.349 -3.88463 -3.49133 0
M  V30 6371 H 606.043 -2.40303 -1.78591 0
M  V30 6372 H 603.589 -1.15663 -0.857797 0
M  V30 6373 H 605.542 -1.36021 -3.98844 0
M  V30 6374 H 604.266 -0.363952 -3.24566 0
M  V30 6375 H 602.925 -2.43563 -2.73994 0
M  V30 6376 H 602.573 -1.19891 -4.88503 0
M  V30 6377 H 602.273 -2.94344 -5.08562 0
M  V30 6378 H 603.797 -2.22889 -5.68465 0
M  V30 6379 H 605.211 -3.92738 -4.17648 0
M  V30 6380 H 603.608 -4.63158 -3.81582 0
M  V30 6381 H 604.678 -4.16617 -2.48109 0
M  V30 6382 N 606.021 0.929856 -1.27246 0
M  V30 6383 C 607.437 1.20542 -1.04603 0
M  V30 6384 C 607.637 2.00276 0.221754 0
M  V30 6385 O 606.693 2.34835 0.927833 0
M  V30 6386 C 608.006 1.95566 -2.28417 0
M  V30 6387 C 609.554 2.08513 -2.33433 0
M  V30 6388 C 610.029 2.86943 -3.5697 0
M  V30 6389 N 611.52 2.94512 -3.57515 0
M  V30 6390 C 612.255 3.55656 -4.49774 0
M  V30 6391 N 611.751 4.18209 -5.52334 0
M  V30 6392 N 613.544 3.53038 -4.37402 0
M  V30 6393 H 605.695 0.397113 -2.08655 0
M  V30 6394 H 607.958 0.238277 -0.917566 0
M  V30 6395 H 607.664 1.44395 -3.20691 0
M  V30 6396 H 607.538 2.9619 -2.33563 0
M  V30 6397 H 609.925 2.58872 -1.41666 0
M  V30 6398 H 610.006 1.07117 -2.32292 0
M  V30 6399 H 609.65 2.37268 -4.49072 0
M  V30 6400 H 609.58 3.8862 -3.55362 0
M  V30 6401 H 612.071 2.50053 -2.83341 0
M  V30 6402 H 612.384 4.62796 -6.18902 0
M  V30 6403 H 610.729 4.16761 -5.56179 0
M  V30 6404 H 613.92 3.0337 -3.56489 0
M  V30 6405 H 614.093 4.004 -5.09493 0
M  V30 6406 N 607.499 1.09233 1.13605 0
M  V30 6407 C 608.431 0.687794 2.18637 0
M  V30 6408 C 609.444 -0.26936 1.60556 0
M  V30 6409 O 610.633 -0.0557162 1.78413 0
M  V30 6410 C 607.733 -0.00751901 3.38899 0
M  V30 6411 C 606.906 0.97067 4.26494 0
M  V30 6412 C 605.965 0.309129 5.25291 0
M  V30 6413 O 604.991 0.956149 5.61112 0
M  V30 6414 N 606.193 -0.937555 5.72879 0
M  V30 6415 H 608.958 1.59141 2.53957 0
M  V30 6416 H 606.519 0.979515 1.28907 0
M  V30 6417 H 608.511 -0.461238 4.02063 0
M  V30 6418 H 607.081 -0.813353 3.01833 0
M  V30 6419 H 606.301 1.603 3.60135 0
M  V30 6420 H 607.589 1.63323 4.81875 0
M  V30 6421 H 606.987 -1.48281 5.4592 0
M  V30 6422 H 605.544 -1.33463 6.3799 0
M  V30 6423 N 608.977 -1.30795 0.87923 0
M  V30 6424 C 610.388 -1.78535 0.546093 0
M  V30 6425 C 610.739 -1.72354 -0.937467 0
M  V30 6426 O 609.864 -1.2969 -1.73233 0
M  V30 6427 C 610.459 -3.24181 0.9845 0
M  V30 6428 C 609.018 -3.69779 0.702871 0
M  V30 6429 C 608.165 -2.51377 1.17068 0
M  V30 6430 H 611.116 -1.17746 1.06403 0
M  V30 6431 H 611.137 -3.79227 0.311045 0
M  V30 6432 H 610.649 -3.28647 2.06429 0
M  V30 6433 H 608.75 -3.70806 -0.365166 0
M  V30 6434 H 608.863 -4.61507 1.28639 0
M  V30 6435 H 607.227 -2.47768 0.590172 0
M  V30 6436 H 608.01 -2.58584 2.25808 0
M  V30 6437 N 610.455 -0.639598 -1.44038 0
M  V30 6438 C 611.388 0.109736 -2.27936 0
M  V30 6439 C 612.366 0.843095 -1.39035 0
M  V30 6440 O 613.55 0.845456 -1.68476 0
M  V30 6441 C 610.677 1.16173 -3.18153 0
M  V30 6442 C 609.723 0.527954 -4.2322 0
M  V30 6443 S 610.556 -0.688318 -5.31058 0
M  V30 6444 C 611.712 0.363481 -6.24844 0
M  V30 6445 H 611.945 -0.601986 -2.91142 0
M  V30 6446 H 609.478 -0.42802 -1.48349 0
M  V30 6447 H 611.436 1.76372 -3.7068 0
M  V30 6448 H 610.097 1.84569 -2.54151 0
M  V30 6449 H 609.29 1.32054 -4.86393 0
M  V30 6450 H 608.892 0.000396444 -3.74 0
M  V30 6451 H 611.184 1.23362 -6.66174 0
M  V30 6452 H 612.127 -0.23288 -7.07717 0
M  V30 6453 H 612.535 0.693179 -5.60228 0
M  V30 6454 N 611.933 1.52934 -0.380664 0
M  V30 6455 C 613.182 2.00651 0.205477 0
M  V30 6456 C 613.495 1.27164 1.48623 0
M  V30 6457 O 614.701 1.65547 2.15189 0
M  V30 6458 C 613.157 3.57479 0.416726 0
M  V30 6459 C 612.765 4.39857 -0.850268 0
M  V30 6460 C 614.509 4.13509 0.959702 0
M  V30 6461 C 612.416 5.88269 -0.607773 0
M  V30 6462 H 611.346 0.749684 0.0805614 0
M  V30 6463 H 613.997 1.76508 -0.501732 0
M  V30 6464 H 612.379 3.77836 1.18557 0
M  V30 6465 H 613.553 4.31269 -1.62307 0
M  V30 6466 H 611.868 3.95005 -1.31756 0
M  V30 6467 H 614.465 5.22039 1.15669 0
M  V30 6468 H 614.808 3.69054 1.92626 0
M  V30 6469 H 615.341 3.9701 0.250645 0
M  V30 6470 H 612.08 6.3703 -1.54509 0
M  V30 6471 H 611.6 5.99667 0.126247 0
M  V30 6472 H 613.279 6.46558 -0.239014 0
M  V30 6473 N 613.412 0.11024 1.57214 0
M  V30 6474 C 614.342 -0.840002 2.17867 0
M  V30 6475 C 615.323 -1.28352 1.11624 0
M  V30 6476 O 616.508 -1.3477 1.39824 0
M  V30 6477 C 613.638 -2.09349 2.77111 0
M  V30 6478 C 612.592 -1.78807 3.8886 0
M  V30 6479 C 611.918 -3.11112 4.34872 0
M  V30 6480 C 613.218 -1.0632 5.11364 0
M  V30 6481 H 614.912 -0.334608 2.97524 0
M  V30 6482 H 612.458 -0.159502 1.43114 0
M  V30 6483 H 614.411 -2.76275 3.18198 0
M  V30 6484 H 613.135 -2.62198 1.9473 0
M  V30 6485 H 611.794 -1.14273 3.48335 0
M  V30 6486 H 611.442 -3.61877 3.49362 0
M  V30 6487 H 611.142 -2.91453 5.10224 0
M  V30 6488 H 612.666 -3.79171 4.78604 0
M  V30 6489 H 614.08 -1.63383 5.49526 0
M  V30 6490 H 612.477 -0.967876 5.92243 0
M  V30 6491 H 613.547 -0.0484569 4.84876 0
M  V30 6492 N 614.89 -1.56749 -0.16351 0
M  V30 6493 C 615.8 -2.00255 -1.2221 0
M  V30 6494 C 616.816 -0.915194 -1.47987 0
M  V30 6495 O 617.992 -1.22342 -1.59982 0
M  V30 6496 C 615.057 -2.36035 -2.53946 0
M  V30 6497 C 614.118 -3.58637 -2.35962 0
M  V30 6498 C 613.351 -3.92701 -3.61416 0
M  V30 6499 O 613.574 -3.27632 -4.66919 0
M  V30 6500 O 612.508 -4.86019 -3.55062 0
M  V30 6501 H 616.334 -2.90586 -0.882794 0
M  V30 6502 H 613.919 -1.44721 -0.370978 0
M  V30 6503 H 615.801 -2.59982 -3.31643 0
M  V30 6504 H 614.476 -1.48863 -2.8744 0
M  V30 6505 H 613.383 -3.39898 -1.5627 0
M  V30 6506 H 614.716 -4.46374 -2.0739 0
M  V30 6507 N 616.368 0.432326 -1.51554 0
M  V30 6508 C 617.315 1.52512 -1.7323 0
M  V30 6509 C 618.285 1.55863 -0.5741 0
M  V30 6510 O 619.47 1.72796 -0.809093 0
M  V30 6511 C 616.61 2.90183 -1.86783 0
M  V30 6512 C 615.723 2.96322 -3.14352 0
M  V30 6513 C 614.858 4.25147 -3.18471 0
M  V30 6514 C 613.897 4.25172 -4.40335 0
M  V30 6515 N 613.034 5.45529 -4.41975 0
M  V30 6516 H 617.874 1.33332 -2.66508 0
M  V30 6517 H 615.411 0.647613 -1.32077 0
M  V30 6518 H 617.369 3.70071 -1.92623 0
M  V30 6519 H 615.999 3.0791 -0.969087 0
M  V30 6520 H 615.051 2.09066 -3.17798 0
M  V30 6521 H 616.363 2.92203 -4.04251 0
M  V30 6522 H 615.517 5.13411 -3.23255 0
M  V30 6523 H 614.256 4.31929 -2.2647 0
M  V30 6524 H 613.261 3.353 -4.35723 0
M  V30 6525 H 614.486 4.20049 -5.33606 0
M  V30 6526 H 612.432 5.53024 -3.52847 0
M  V30 6527 H 612.349 5.43311 -5.25689 0
M  V30 6528 H 613.617 6.35812 -4.50958 0
M  V30 6529 N 617.846 1.41785 0.688094 0
M  V30 6530 C 619.094 1.41264 1.4453 0
M  V30 6531 C 619.415 0.0252946 1.94984 0
M  V30 6532 O 618.685 -0.934081 1.72197 0
M  V30 6533 H 617.265 0.519998 0.536294 0
M  V30 6534 H 619.927 1.7709 0.813941 0
M  V30 6535 H 619.023 2.10439 2.30482 0
M  V30 6536 N 619.324 -0.923095 1.27737 0
M  V30 6537 C 620.256 -2.02871 1.06658 0
M  V30 6538 C 621.269 -1.62786 0.0212095 0
M  V30 6539 O 622.458 -1.76548 0.263267 0
M  V30 6540 C 619.558 -3.33603 0.59682 0
M  V30 6541 C 618.731 -4.02354 1.71551 0
M  V30 6542 C 617.79 -5.11364 1.24071 0
M  V30 6543 O 616.816 -5.35075 1.94123 0
M  V30 6544 N 618.018 -5.80416 0.0988444 0
M  V30 6545 H 620.783 -2.21515 2.01869 0
M  V30 6546 H 618.344 -1.09378 1.19365 0
M  V30 6547 H 620.336 -4.03845 0.262984 0
M  V30 6548 H 618.906 -3.11499 -0.262187 0
M  V30 6549 H 618.126 -3.25786 2.2194 0
M  V30 6550 H 619.414 -4.45035 2.46619 0
M  V30 6551 H 618.812 -5.63611 -0.485743 0
M  V30 6552 H 617.369 -6.51563 -0.17578 0
M  V30 6553 N 620.802 -1.09834 -1.13024 0
M  V30 6554 C 622.218 -0.828875 -1.36388 0
M  V30 6555 C 622.418 0.554756 -1.93713 0
M  V30 6556 O 621.474 1.30882 -2.15931 0
M  V30 6557 C 622.787 -1.92352 -2.3113 0
M  V30 6558 C 624.335 -1.95124 -2.44735 0
M  V30 6559 C 624.81 -3.03745 -3.42787 0
M  V30 6560 N 626.301 -3.03012 -3.5034 0
M  V30 6561 C 627.036 -3.83699 -4.26101 0
M  V30 6562 N 626.532 -4.74306 -5.04981 0
M  V30 6563 N 628.325 -3.71942 -4.21445 0
M  V30 6564 H 620.476 -1.99029 -0.74169 0
M  V30 6565 H 622.739 -0.864557 -0.388903 0
M  V30 6566 H 622.445 -2.91906 -1.96172 0
M  V30 6567 H 622.319 -1.80536 -3.3119 0
M  V30 6568 H 624.706 -0.962069 -2.78977 0
M  V30 6569 H 624.787 -2.11018 -1.44586 0
M  V30 6570 H 624.431 -4.02878 -3.09276 0
M  V30 6571 H 624.361 -2.85094 -4.42752 0
M  V30 6572 H 626.852 -2.37352 -2.94062 0
M  V30 6573 H 627.165 -5.32446 -5.60108 0
M  V30 6574 H 625.51 -4.78339 -5.04199 0
M  V30 6575 H 628.701 -3.00513 -3.589 0
M  V30 6576 H 628.874 -4.35062 -4.80235 0
M  V30 6577 N 622.28 1.30327 -0.886154 0
M  V30 6578 C 623.527 1.96097 -0.505192 0
M  V30 6579 C 623.855 1.69952 0.945868 0
M  V30 6580 O 623.11 0.997653 1.68361 0
M  V30 6581 C 623.409 3.49906 -0.728042 0
M  V30 6582 C 623.075 3.96103 -2.15437 0
M  V30 6583 C 621.737 4.08428 -2.5444 0
M  V30 6584 C 624.089 4.20177 -3.08384 0
M  V30 6585 C 621.417 4.42189 -3.85598 0
M  V30 6586 C 623.769 4.55407 -4.39075 0
M  V30 6587 C 622.433 4.65941 -4.7797 0
M  V30 6588 H 621.703 0.71757 -0.184863 0
M  V30 6589 H 624.35 1.55171 -1.12223 0
M  V30 6590 H 622.655 3.9179 -0.027978 0
M  V30 6591 H 624.352 3.98869 -0.412862 0
M  V30 6592 H 620.942 3.87017 -1.84162 0
M  V30 6593 H 625.126 4.10134 -2.7947 0
M  V30 6594 H 620.382 4.48544 -4.15473 0
M  V30 6595 H 624.556 4.72986 -5.11133 0
M  V30 6596 H 622.183 4.91856 -5.79639 0
M  V30 6597 N 623.758 0.647228 1.43697 0
M  V30 6598 C 624.986 0.16575 2.06235 0
M  V30 6599 C 625.401 -1.1662 1.48476 0
M  V30 6600 O 624.758 -1.7187 0.613762 0
M  V30 6601 C 624.809 0.0621651 3.61447 0
M  V30 6602 O 624.53 1.34146 4.17057 0
M  V30 6603 C 626.031 -0.446102 4.4105 0
M  V30 6604 H 623.251 0.0871158 0.665321 0
M  V30 6605 H 625.795 0.886183 1.84301 0
M  V30 6606 H 623.95 -0.608794 3.82587 0
M  V30 6607 H 624.364 1.19675 5.10664 0
M  V30 6608 H 625.838 -0.46755 5.50016 0
M  V30 6609 H 626.315 -1.47627 4.13646 0
M  V30 6610 H 626.921 0.192159 4.24866 0
M  V30 6611 N 625.236 -1.5273 0.388769 0
M  V30 6612 C 626.166 -2.29353 -0.438111 0
M  V30 6613 C 627.147 -1.32719 -1.06394 0
M  V30 6614 O 628.332 -1.61612 -1.07681 0
M  V30 6615 C 625.462 -3.09995 -1.56589 0
M  V30 6616 C 624.416 -4.14509 -1.06613 0
M  V30 6617 C 623.742 -4.83372 -2.28594 0
M  V30 6618 C 625.042 -5.22127 -0.134459 0
M  V30 6619 H 626.736 -2.98723 0.201206 0
M  V30 6620 H 624.282 -1.43665 0.0982089 0
M  V30 6621 H 626.235 -3.62357 -2.15118 0
M  V30 6622 H 624.959 -2.38357 -2.23279 0
M  V30 6623 H 623.618 -3.63128 -0.503383 0
M  V30 6624 H 623.266 -4.08283 -2.93792 0
M  V30 6625 H 622.966 -5.54012 -1.95817 0
M  V30 6626 H 624.49 -5.38538 -2.87766 0
M  V30 6627 H 625.904 -5.69851 -0.627914 0
M  V30 6628 H 624.301 -6.00011 0.103534 0
M  V30 6629 H 625.371 -4.77971 0.816798 0
M  V30 6630 N 626.714 -0.118576 -1.57153 0
M  V30 6631 C 628.13 0.238014 -1.57815 0
M  V30 6632 C 628.33 1.66747 -1.13127 0
M  V30 6633 O 627.386 2.38867 -0.818462 0
M  V30 6634 C 628.699 0.00508207 -3.007 0
M  V30 6635 C 630.247 0.0710139 -3.12919 0
M  V30 6636 C 630.722 -0.13422 -4.57803 0
M  V30 6637 N 632.213 -0.0801755 -4.63131 0
M  V30 6638 C 632.948 -0.213885 -5.73001 0
M  V30 6639 N 632.444 -0.403742 -6.91623 0
M  V30 6640 N 634.237 -0.15349 -5.6189 0
M  V30 6641 H 626.388 -1.05226 -1.84503 0
M  V30 6642 H 628.651 -0.414318 -0.852669 0
M  V30 6643 H 628.357 -0.983125 -3.3768 0
M  V30 6644 H 628.231 0.73714 -3.69927 0
M  V30 6645 H 630.618 1.04975 -2.75798 0
M  V30 6646 H 630.699 -0.692918 -2.46236 0
M  V30 6647 H 630.343 -1.10992 -4.95624 0
M  V30 6648 H 630.273 0.649692 -5.22577 0
M  V30 6649 H 632.764 0.0630689 -3.77847 0
M  V30 6650 H 633.077 -0.496645 -7.71202 0
M  V30 6651 H 631.422 -0.43971 -6.93608 0
M  V30 6652 H 634.613 -0.00613174 -4.681 0
M  V30 6653 H 634.786 -0.261138 -6.47474 0
M  V30 6654 N 628.193 1.56834 0.155195 0
M  V30 6655 C 629.47 1.73799 0.897395 0
M  V30 6656 C 629.85 0.684379 1.99698 0
M  V30 6657 O 629.198 -0.298111 2.26547 0
M  V30 6658 C 629.408 3.17572 1.44737 0
M  V30 6659 C 630.756 3.79014 1.91399 0
M  V30 6660 O 631.78 3.20951 1.54496 0
M  V30 6661 O 630.639 4.80998 2.59429 0
M  V30 6662 H 627.733 0.710329 0.423511 0
M  V30 6663 H 630.279 1.69107 0.141761 0
M  V30 6664 H 629.051 3.85749 0.656741 0
M  V30 6665 H 628.674 3.26657 2.26674 0
M  V30 6666 N 629.671 -0.424282 1.51781 0
M  V30 6667 C 630.919 -1.17028 1.64769 0
M  V30 6668 C 631.24 -1.91409 0.372523 0
M  V30 6669 O 630.51 -1.86091 -0.612108 0
M  V30 6670 H 629.09 -0.434992 0.607282 0
M  V30 6671 H 631.752 -0.485169 1.88765 0
M  V30 6672 H 630.848 -1.8927 2.4816 0
M  V30 6673 N 631.149 -1.42148 -0.680565 0
M  V30 6674 C 632.097 -1.45401 -1.81552 0
M  V30 6675 C 633.091 -0.33036 -1.66147 0
M  V30 6676 O 634.297 -0.503103 -1.72826 0
M  V30 6677 H 630.672 -0.455265 -0.59853 0
M  V30 6678 H 632.643 -2.41024 -1.75926 0
M  V30 6679 C 631.392 -1.36769 -3.19671 0
M  V30 6680 H 630.715 -2.22525 -3.32149 0
M  V30 6681 H 632.155 -1.43106 -3.9912 0
M  V30 6682 C 630.614 -0.0817752 -3.36801 0
M  V30 6683 O 631.144 0.867707 -3.92216 0
M  V30 6684 N 629.35 -0.000799811 -2.906 0
M  V30 6685 H 628.897 -0.774231 -2.4569 0
M  V30 6686 H 628.855 0.858961 -3.02439 0
M  V30 6687 N 632.627 0.916307 -1.28225 0
M  V30 6688 C 634.043 1.19425 -1.05876 0
M  V30 6689 C 634.243 2.005 0.2005 0
M  V30 6690 O 633.299 2.35806 0.902873 0
M  V30 6691 C 634.612 1.93133 -2.30478 0
M  V30 6692 C 636.16 2.06026 -2.35632 0
M  V30 6693 C 636.635 2.83141 -3.59994 0
M  V30 6694 N 638.126 2.90704 -3.60618 0
M  V30 6695 C 638.861 3.50865 -4.53521 0
M  V30 6696 N 638.357 4.12327 -5.56739 0
M  V30 6697 N 640.15 3.48379 -4.41122 0
M  V30 6698 H 632.301 0.37496 -2.09064 0
M  V30 6699 H 634.564 0.228531 -0.920042 0
M  V30 6700 H 634.27 1.40985 -3.22205 0
M  V30 6701 H 634.144 2.93696 -2.36691 0
M  V30 6702 H 636.531 2.57355 -1.44404 0
M  V30 6703 H 636.612 1.04647 -2.33415 0
M  V30 6704 H 636.256 2.32492 -4.51564 0
M  V30 6705 H 636.186 3.84829 -3.59464 0
M  V30 6706 H 638.677 2.47034 -2.85977 0
M  V30 6707 H 638.99 4.56205 -6.23776 0
M  V30 6708 H 637.335 4.10839 -5.60568 0
M  V30 6709 H 640.526 2.99572 -3.59686 0
M  V30 6710 H 640.699 3.94974 -5.13712 0
M  V30 6711 N 634.105 1.10431 1.1244 0
M  V30 6712 C 635.333 0.868872 1.87772 0
M  V30 6713 C 635.748 -0.580645 1.7965 0
M  V30 6714 O 635.105 -1.40031 1.17036 0
M  V30 6715 C 635.156 1.30855 3.36986 0
M  V30 6716 O 634.877 2.70123 3.44914 0
M  V30 6717 C 636.378 1.107 4.29256 0
M  V30 6718 H 633.598 0.311868 0.59412 0
M  V30 6719 H 636.142 1.46897 1.42273 0
M  V30 6720 H 634.297 0.752126 3.80029 0
M  V30 6721 H 634.711 2.88923 4.37748 0
M  V30 6722 H 636.185 1.46378 5.32238 0
M  V30 6723 H 636.662 0.0456228 4.39176 0
M  V30 6724 H 637.268 1.64988 3.91994 0
M  V30 6725 N 635.583 -1.29855 0.893053 0
M  V30 6726 C 636.832 -1.95104 0.511597 0
M  V30 6727 C 637.145 -1.71226 -0.945567 0
M  V30 6728 O 638.351 -2.30525 -1.43424 0
M  V30 6729 C 636.807 -3.49374 0.864034 0
M  V30 6730 C 636.415 -3.82061 2.33952 0
M  V30 6731 C 638.159 -4.20894 0.552167 0
M  V30 6732 C 636.066 -5.29546 2.63316 0
M  V30 6733 H 634.996 -0.73029 0.187597 0
M  V30 6734 H 637.647 -1.47682 1.08914 0
M  V30 6735 H 636.029 -3.95413 0.215493 0
M  V30 6736 H 637.203 -3.46904 3.03305 0
M  V30 6737 H 635.518 -3.23665 2.61973 0
M  V30 6738 H 638.115 -5.29435 0.748489 0
M  V30 6739 H 638.458 -4.13178 -0.508924 0
M  V30 6740 H 638.991 -3.80564 1.15825 0
M  V30 6741 H 635.73 -5.4232 3.68197 0
M  V30 6742 H 635.25 -5.65974 1.9858 0
M  V30 6743 H 636.929 -5.97068 2.49236 0
M  V30 6744 N 637.061 -0.65484 -1.43351 0
M  V30 6745 C 638.309 -0.168559 -2.01396 0
M  V30 6746 C 638.63 1.22235 -1.51933 0
M  V30 6747 O 637.9 1.81685 -0.732627 0
M  V30 6748 H 636.48 -0.0593244 -0.744641 0
M  V30 6749 H 639.142 -0.846871 -1.75539 0
M  V30 6750 H 638.238 -0.154428 -3.11718 0
M  V30 6751 N 638.539 1.52521 -0.396863 0
M  V30 6752 C 639.767 2.06091 0.18275 0
M  V30 6753 C 640.182 1.26796 1.39886 0
M  V30 6754 O 639.539 0.316585 1.79733 0
M  V30 6755 C 639.59 3.57362 0.545377 0
M  V30 6756 O 639.311 4.33656 -0.622428 0
M  V30 6757 C 640.812 4.27305 1.18004 0
M  V30 6758 H 638.032 0.670504 0.025789 0
M  V30 6759 H 640.576 1.96561 -0.564276 0
M  V30 6760 H 638.731 3.66941 1.2423 0
M  V30 6761 H 639.145 5.23507 -0.322662 0
M  V30 6762 H 640.619 5.34366 1.38408 0
M  V30 6763 H 641.096 3.83 2.1496 0
M  V30 6764 H 641.702 4.22064 0.523671 0
M  V30 6765 N 640.017 0.126909 1.57088 0
M  V30 6766 C 641.265 -0.528123 1.95078 0
M  V30 6767 C 641.586 -1.66708 1.0116 0
M  V30 6768 O 640.856 -1.95777 0.0693527 0
M  V30 6769 H 639.436 -0.198087 0.720257 0
M  V30 6770 H 642.098 0.197703 1.93895 0
M  V30 6771 H 641.194 -0.917507 2.98309 0
M  V30 6772 N 641.495 -1.56914 -0.146875 0
M  V30 6773 C 642.425 -2.01308 -1.1831 0
M  V30 6774 C 643.406 -0.892664 -1.44795 0
M  V30 6775 O 644.591 -1.16048 -1.55713 0
M  V30 6776 C 641.721 -2.3938 -2.51624 0
M  V30 6777 C 640.675 -3.54608 -2.3966 0
M  V30 6778 C 640.001 -3.78493 -3.77686 0
M  V30 6779 C 641.301 -4.87269 -1.88058 0
M  V30 6780 H 642.995 -2.88123 -0.813964 0
M  V30 6781 H 640.541 -1.38615 -0.3901 0
M  V30 6782 H 642.494 -2.69037 -3.24341 0
M  V30 6783 H 641.218 -1.49502 -2.90373 0
M  V30 6784 H 639.877 -3.25116 -1.69396 0
M  V30 6785 H 639.525 -2.85866 -4.13871 0
M  V30 6786 H 639.225 -4.56039 -3.70543 0
M  V30 6787 H 640.749 -4.10576 -4.51951 0
M  V30 6788 H 642.163 -5.15644 -2.50568 0
M  V30 6789 H 640.56 -5.68622 -1.91805 0
M  V30 6790 H 641.63 -4.77634 -0.836277 0
M  V30 6791 N 642.974 0.416227 -1.52004 0
M  V30 6792 C 644.22 1.16555 -1.6596 0
M  V30 6793 C 644.553 1.90347 -0.384906 0
M  V30 6794 O 643.828 1.84474 0.616405 0
M  V30 6795 C 644.111 2.1657 -2.87696 0
M  V30 6796 C 643.964 1.46722 -4.25197 0
M  V30 6797 C 645.283 3.17321 -3.04951 0
M  V30 6798 H 642.402 0.422369 -0.603965 0
M  V30 6799 H 645.044 0.452141 -1.84542 0
M  V30 6800 H 643.194 2.77411 -2.71985 0
M  V30 6801 H 644.866 0.89056 -4.52622 0
M  V30 6802 H 643.109 0.769263 -4.26925 0
M  V30 6803 H 643.78 2.19665 -5.0641 0
M  V30 6804 H 646.256 2.66552 -3.19514 0
M  V30 6805 H 645.132 3.84573 -3.91656 0
M  V30 6806 H 645.393 3.84643 -2.17951 0
M  V30 6807 N 644.452 1.42507 0.673017 0
M  V30 6808 C 645.68 1.46473 1.46128 0
M  V30 6809 C 646.095 0.0765912 1.88645 0
M  V30 6810 O 645.452 -0.909057 1.58248 0
M  V30 6811 C 645.503 2.39339 2.70923 0
M  V30 6812 O 645.224 3.72752 2.3019 0
M  V30 6813 C 646.725 2.52343 3.64469 0
M  V30 6814 H 643.945 0.49812 0.449575 0
M  V30 6815 H 646.489 1.87041 0.826802 0
M  V30 6816 H 644.644 2.02019 3.30556 0
M  V30 6817 H 645.058 4.22503 3.10791 0
M  V30 6818 H 646.532 3.2144 4.48754 0
M  V30 6819 H 647.009 1.56189 4.1049 0
M  V30 6820 H 647.615 2.90392 3.10729 0
M  V30 6821 N 645.93 -0.909495 1.28709 0
M  V30 6822 C 646.878 -2.03381 1.12866 0
M  V30 6823 C 647.872 -1.69335 0.0468074 0
M  V30 6824 O 649.078 -1.78819 0.205891 0
M  V30 6825 H 645.453 -0.666452 0.348348 0
M  V30 6826 H 647.424 -2.13885 2.08077 0
M  V30 6827 C 646.173 -3.38092 0.811742 0
M  V30 6828 H 645.496 -3.64786 1.63619 0
M  V30 6829 H 646.936 -4.17477 0.740869 0
M  V30 6830 C 645.395 -3.33395 -0.484679 0
M  V30 6831 O 645.925 -3.72089 -1.5137 0
M  V30 6832 N 644.131 -2.86491 -0.486961 0
M  V30 6833 H 643.678 -2.55199 0.350877 0
M  V30 6834 H 643.636 -2.83731 -1.3544 0
M  V30 6835 N 647.408 -1.11026 -1.11852 0
M  V30 6836 C 648.636 -0.878818 -1.87308 0
M  V30 6837 C 649.051 0.57111 -1.79955 0
M  V30 6838 O 648.408 1.39409 -1.17777 0
M  V30 6839 C 648.459 -1.3264 -3.36287 0
M  V30 6840 O 648.18 -2.71948 -3.43476 0
M  V30 6841 C 649.681 -1.12974 -4.28663 0
M  V30 6842 H 646.901 -0.315015 -0.592458 0
M  V30 6843 H 649.445 -1.47649 -1.41492 0
M  V30 6844 H 647.6 -0.772269 -3.79625 0
M  V30 6845 H 648.014 -2.91241 -4.3621 0
M  V30 6846 H 649.488 -1.49198 -5.31454 0
M  V30 6847 H 649.965 -0.0689127 -4.39146 0
M  V30 6848 H 650.571 -1.67064 -3.91113 0
M  V30 6849 N 648.886 1.2938 -0.899927 0
M  V30 6850 C 649.816 2.30144 -0.39446 0
M  V30 6851 C 650.797 1.61611 0.530639 0
M  V30 6852 O 651.982 1.89119 0.441319 0
M  V30 6853 C 649.112 3.45229 0.37868 0
M  V30 6854 C 648.066 4.25564 -0.456012 0
M  V30 6855 C 647.392 5.32848 0.444637 0
M  V30 6856 C 648.692 4.93651 -1.70605 0
M  V30 6857 H 650.386 2.72673 -1.23653 0
M  V30 6858 H 647.932 1.31086 -0.596034 0
M  V30 6859 H 649.885 4.14797 0.743037 0
M  V30 6860 H 648.609 3.01545 1.25453 0
M  V30 6861 H 647.268 3.57704 -0.802704 0
M  V30 6862 H 646.916 4.85408 1.31863 0
M  V30 6863 H 646.616 5.87497 -0.110154 0
M  V30 6864 H 648.14 6.05268 0.805182 0
M  V30 6865 H 649.554 5.55655 -1.41141 0
M  V30 6866 H 647.951 5.58233 -2.20217 0
M  V30 6867 H 649.021 4.18926 -2.4419 0
M  V30 6868 N 650.364 0.662433 1.43002 0
M  V30 6869 C 651.327 -0.0142016 2.29196 0
M  V30 6870 C 652.327 -0.741394 1.42688 0
M  V30 6871 O 653.517 -0.581257 1.64216 0
M  V30 6872 C 650.649 -1.03084 3.24941 0
M  V30 6873 H 651.842 0.7443 2.90517 0
M  V30 6874 H 649.395 0.424133 1.50435 0
M  V30 6875 H 650.13 -1.81826 2.68533 0
M  V30 6876 H 649.915 -0.512946 3.8873 0
M  V30 6877 H 651.405 -1.50308 3.89612 0
M  V30 6878 N 651.842 -1.52309 0.404946 0
M  V30 6879 C 652.775 -2.23369 -0.467087 0
M  V30 6880 C 653.753 -1.24034 -1.0514 0
M  V30 6881 O 654.937 -1.53071 -1.10006 0
M  V30 6882 C 652.064 -2.95906 -1.64795 0
M  V30 6883 C 651.11 -4.09637 -1.18743 0
M  V30 6884 S 651.943 -5.35273 -0.156022 0
M  V30 6885 C 653.099 -6.11337 -1.34231 0
M  V30 6886 H 653.332 -2.96987 0.136294 0
M  V30 6887 H 650.865 -1.53236 0.189219 0
M  V30 6888 H 652.823 -3.38304 -2.3251 0
M  V30 6889 H 651.484 -2.21937 -2.22267 0
M  V30 6890 H 650.677 -4.59549 -2.06955 0
M  V30 6891 H 650.279 -3.69333 -0.588981 0
M  V30 6892 H 652.571 -6.38458 -2.26665 0
M  V30 6893 H 653.514 -7.02563 -0.883804 0
M  V30 6894 H 653.922 -5.42338 -1.56621 0
M  V30 6895 N 653.32 -0.135238 -1.57019 0
M  V30 6896 C 654.548 0.526066 -2.001 0
M  V30 6897 C 654.963 1.59184 -1.01519 0
M  V30 6898 O 654.32 1.82497 -0.0104258 0
M  V30 6899 C 654.371 1.13744 -3.43139 0
M  V30 6900 O 654.092 0.114259 -4.37951 0
M  V30 6901 C 655.593 1.8805 -4.01438 0
M  V30 6902 H 652.813 0.137962 -0.656664 0
M  V30 6903 H 655.357 -0.226359 -2.03243 0
M  V30 6904 H 653.512 1.84056 -3.40885 0
M  V30 6905 H 653.926 0.56058 -5.21496 0
M  V30 6906 H 655.4 2.26133 -5.03555 0
M  V30 6907 H 655.877 2.76194 -3.41487 0
M  V30 6908 H 656.483 1.22464 -4.07287 0
M  V30 6909 N 654.798 1.5699 0.138552 0
M  V30 6910 C 655.708 2.02174 1.19008 0
M  V30 6911 C 656.724 0.938622 1.46512 0
M  V30 6912 O 657.9 1.24872 1.58016 0
M  V30 6913 C 654.965 2.40045 2.50159 0
M  V30 6914 C 654.026 3.62346 2.30226 0
M  V30 6915 C 653.259 3.98401 3.55123 0
M  V30 6916 O 653.482 3.35019 4.61647 0
M  V30 6917 O 652.416 4.91606 3.47285 0
M  V30 6918 H 656.242 2.91954 0.836452 0
M  V30 6919 H 653.827 1.45293 0.347907 0
M  V30 6920 H 655.709 2.65225 3.27465 0
M  V30 6921 H 654.384 1.53417 2.85035 0
M  V30 6922 H 653.291 3.42341 1.50843 0
M  V30 6923 H 654.624 4.49617 2.00262 0
M  V30 6924 N 656.276 -0.40816 1.52223 0
M  V30 6925 C 657.186 -1.52202 1.78526 0
M  V30 6926 C 658.202 -1.60546 0.670892 0
M  V30 6927 O 659.378 -1.77242 0.956404 0
M  V30 6928 C 656.443 -2.87928 1.93128 0
M  V30 6929 C 655.504 -2.89463 3.17033 0
M  V30 6930 C 654.737 -4.18715 3.30929 0
M  V30 6931 O 654.96 -5.12662 2.50067 0
M  V30 6932 O 653.894 -4.27125 4.24084 0
M  V30 6933 H 657.72 -1.32911 2.73072 0
M  V30 6934 H 655.305 -0.594112 1.37079 0
M  V30 6935 H 657.187 -3.68426 2.04549 0
M  V30 6936 H 655.862 -3.07285 1.01772 0
M  V30 6937 H 654.769 -2.07815 3.11069 0
M  V30 6938 H 656.102 -2.75055 4.08174 0
M  V30 6939 N 657.755 -1.42862 -0.66545 0
M  V30 6940 C 658.665 -1.49491 -1.80803 0
M  V30 6941 C 659.681 -0.382914 -1.69734 0
M  V30 6942 O 660.857 -0.635223 -1.9112 0
M  V30 6943 C 657.922 -1.40383 -3.17007 0
M  V30 6944 C 656.983 -2.62152 -3.39963 0
M  V30 6945 C 656.216 -2.53469 -4.69669 0
M  V30 6946 O 656.439 -1.57568 -5.48205 0
M  V30 6947 O 655.373 -3.43763 -4.94075 0
M  V30 6948 H 659.199 -2.45949 -1.78165 0
M  V30 6949 H 656.784 -1.24728 -0.822387 0
M  V30 6950 H 658.666 -1.377 -3.98267 0
M  V30 6951 H 657.341 -0.470546 -3.20262 0
M  V30 6952 H 656.248 -2.70409 -2.58515 0
M  V30 6953 H 657.581 -3.54411 -3.41546 0
M  V30 6954 N 659.233 0.902656 -1.29189 0
M  V30 6955 C 660.18 2.00643 -1.14066 0
M  V30 6956 C 661.15 1.66064 -0.0347756 0
M  V30 6957 O 662.335 1.8973 -0.201752 0
M  V30 6958 C 659.475 3.35214 -0.820104 0
M  V30 6959 C 658.588 3.82594 -2.00614 0
M  V30 6960 C 657.723 5.05727 -1.62522 0
M  V30 6961 C 656.762 5.45469 -2.77724 0
M  V30 6962 N 655.899 6.59789 -2.40048 0
M  V30 6963 H 660.739 2.1291 -2.08502 0
M  V30 6964 H 658.276 1.04271 -1.03759 0
M  V30 6965 H 660.234 4.12643 -0.614949 0
M  V30 6966 H 658.864 3.22682 0.0873452 0
M  V30 6967 H 657.916 3.01226 -2.32308 0
M  V30 6968 H 659.228 4.07999 -2.86946 0
M  V30 6969 H 658.382 5.90732 -1.38277 0
M  V30 6970 H 657.121 4.82155 -0.733333 0
M  V30 6971 H 656.126 4.59 -3.02653 0
M  V30 6972 H 657.351 5.71024 -3.67572 0
M  V30 6973 H 655.297 6.37826 -1.53343 0
M  V30 6974 H 655.214 6.84975 -3.19914 0
M  V30 6975 H 656.482 7.4807 -2.19116 0
M  V30 6976 N 660.711 1.11618 1.11262 0
M  V30 6977 C 661.659 0.771291 2.1944 0
M  V30 6978 C 662.653 -0.238073 1.67719 0
M  V30 6979 O 663.859 -0.0971628 1.79738 0
M  V30 6980 H 660.234 0.231548 0.715465 0
M  V30 6981 H 662.205 1.69226 2.45775 0
M  V30 6982 C 660.954 0.232765 3.4692 0
M  V30 6983 H 660.277 1.00072 3.87073 0
M  V30 6984 H 661.717 0.0296561 4.2399 0
M  V30 6985 C 660.176 -1.03738 3.20531 0
M  V30 6986 O 660.706 -2.11675 3.41404 0
M  V30 6987 N 658.912 -0.960906 2.74253 0
M  V30 6988 H 658.459 -0.0824323 2.57468 0
M  V30 6989 H 658.417 -1.8114 2.56974 0
M  V30 6990 N 662.189 -1.289 0.906776 0
M  V30 6991 C 663.438 -1.9455 0.532262 0
M  V30 6992 C 663.751 -1.72219 -0.927353 0
M  V30 6993 O 664.957 -2.32033 -1.40971 0
M  V30 6994 C 663.413 -3.48438 0.901041 0
M  V30 6995 C 663.021 -3.79558 2.37991 0
M  V30 6996 C 664.765 -4.20284 0.596777 0
M  V30 6997 C 662.672 -5.26723 2.68918 0
M  V30 6998 H 661.602 -0.728259 0.195333 0
M  V30 6999 H 664.253 -1.46519 1.10474 0
M  V30 7000 H 662.635 -3.95162 0.257419 0
M  V30 7001 H 663.809 -3.43668 3.06967 0
M  V30 7002 H 662.124 -3.20868 2.65391 0
M  V30 7003 H 664.721 -5.28612 0.8046 0
M  V30 7004 H 665.064 -4.13694 -0.465072 0
M  V30 7005 H 665.597 -3.79315 1.19855 0
M  V30 7006 H 662.336 -5.38384 3.73928 0
M  V30 7007 H 661.856 -5.63836 2.04571 0
M  V30 7008 H 663.535 -5.94391 2.55555 0
M  V30 7009 N 663.667 -0.670007 -1.42649 0
M  V30 7010 C 664.614 0.0112928 -2.30797 0
M  V30 7011 C 665.584 0.797627 -1.45695 0
M  V30 7012 O 666.769 0.770845 -1.74535 0
M  V30 7013 C 663.909 0.95998 -3.31479 0
M  V30 7014 C 663.022 0.167975 -4.31673 0
M  V30 7015 C 662.157 1.11198 -5.19431 0
M  V30 7016 C 661.196 0.311381 -6.11307 0
M  V30 7017 N 660.333 1.20784 -6.91633 0
M  V30 7018 H 665.173 -0.746231 -2.88505 0
M  V30 7019 H 662.71 -0.379739 -1.42114 0
M  V30 7020 H 664.668 1.52379 -3.88377 0
M  V30 7021 H 663.298 1.68419 -2.75382 0
M  V30 7022 H 662.35 -0.512385 -3.76933 0
M  V30 7023 H 663.662 -0.453814 -4.96731 0
M  V30 7024 H 662.816 1.74587 -5.81037 0
M  V30 7025 H 661.555 1.76766 -4.54538 0
M  V30 7026 H 660.56 -0.335758 -5.48774 0
M  V30 7027 H 661.785 -0.340135 -6.78248 0
M  V30 7028 H 659.731 1.85001 -6.29373 0
M  V30 7029 H 659.648 0.64102 -7.53277 0
M  V30 7030 H 660.916 1.82936 -7.5773 0
M  V30 7031 N 665.145 1.52092 -0.413018 0
M  V30 7032 C 666.391 2.02815 0.154104 0
M  V30 7033 C 666.746 1.293 1.42475 0
M  V30 7034 O 666.039 0.391835 1.87551 0
M  V30 7035 C 666.233 3.54529 0.4521 0
M  V30 7036 C 666.062 4.4274 -0.788116 0
M  V30 7037 C 664.832 4.87903 -1.31447 0
M  V30 7038 C 667.03 4.86522 -1.66735 0
M  V30 7039 N 665.012 5.60254 -2.50976 0
M  V30 7040 C 666.383 5.57692 -2.70886 0
M  V30 7041 C 668.438 4.68534 -1.68465 0
M  V30 7042 C 667.141 6.12783 -3.76682 0
M  V30 7043 C 669.167 5.24524 -2.73182 0
M  V30 7044 C 668.529 5.9562 -3.76054 0
M  V30 7045 H 664.628 0.781796 0.0178567 0
M  V30 7046 H 667.212 1.86223 -0.568237 0
M  V30 7047 H 665.383 3.71186 1.14348 0
M  V30 7048 H 667.115 3.91934 1.00844 0
M  V30 7049 H 663.87 4.65504 -0.871931 0
M  V30 7050 H 664.294 6.01069 -3.11521 0
M  V30 7051 H 668.936 4.13051 -0.902708 0
M  V30 7052 H 666.654 6.67335 -4.55729 0
M  V30 7053 H 670.24 5.12473 -2.75433 0
M  V30 7054 H 669.12 6.38169 -4.55752 0
M  V30 7055 N 666.623 0.143563 1.56945 0
M  V30 7056 C 667.871 -0.507402 1.95627 0
M  V30 7057 C 668.192 -1.65626 1.02922 0
M  V30 7058 O 667.462 -1.95693 0.0901136 0
M  V30 7059 H 666.042 -0.190436 0.722318 0
M  V30 7060 H 668.704 0.218257 1.93674 0
M  V30 7061 H 667.8 -0.885816 2.99265 0
M  V30 7062 O 668.14 -1.61499 0.00487092 0
M  V30 7063 H 668.831 -1.83807 -0.611124 0
M  V30 END ATOM
M  V30 BEGIN BOND
M  V30 END BOND
M  V30 END CTAB
M  END
$$$$
