drugbank_target|P27693 Alkaline protease (DB01973)
 OpenBabel12092119543D

  0  0  0     0  0            999 V3000
M  V30 BEGIN CTAB
M  V30 COUNTS 5404 5449 0 0 0
M  V30 BEGIN ATOM
M  V30 1 H -0.908 1.98254 -0.117106 0
M  V30 2 N 0 1.576 0 0
M  V30 3 C 0.933 2.03868 1.02534 0
M  V30 4 C 1.911 0.928543 1.3348 0
M  V30 5 O 3.095 1.19667 1.45644 0
M  V30 6 C 0.222 2.43627 2.35294 0
M  V30 7 C -0.732 3.65373 2.2001 0
M  V30 8 S 0.101 5.13292 1.52614 0
M  V30 9 C 1.257 5.56322 2.86805 0
M  V30 10 H 1.49 2.90518 0.631377 0
M  V30 11 H -0.977 1.52953 0.210867 0
M  V30 12 H 0.981 2.67203 3.11629 0
M  V30 13 H -0.358 1.57376 2.7183 0
M  V30 14 H -1.165 3.90944 3.18086 0
M  V30 15 H -1.563 3.418 1.51819 0
M  V30 16 H 0.729 5.58782 3.83104 0
M  V30 17 H 1.672 6.56266 2.65933 0
M  V30 18 H 2.08 4.83886 2.90714 0
M  V30 19 N 1.4781 -0.272755 1.55222 0
M  V30 20 C 2.4251 -1.33716 1.88119 0
M  V30 21 C 3.3951 -1.49066 0.73271 0
M  V30 22 O 4.5801 -1.63469 0.984002 0
M  V30 23 C 1.7201 -2.69238 2.15882 0
M  V30 24 C 0.8331 -2.62108 3.43399 0
M  V30 25 C -0.0319 -3.89811 3.60861 0
M  V30 26 C -0.9929 -3.77193 4.8207 0
M  V30 27 N -1.8559 -4.9673 4.96189 0
M  V30 28 H 2.9841 -1.04962 2.78903 0
M  V30 29 H 0.5211 -0.507088 1.38083 0
M  V30 30 H 2.4791 -3.48089 2.29978 0
M  V30 31 H 1.1091 -2.96194 1.28331 0
M  V30 32 H 0.1611 -1.74967 3.37773 0
M  V30 33 H 1.4731 -2.48685 4.32386 0
M  V30 34 H 0.6271 -4.77103 3.74777 0
M  V30 35 H -0.6339 -4.06102 2.7006 0
M  V30 36 H -1.6289 -2.88284 4.68159 0
M  V30 37 H -0.4039 -3.62421 5.74307 0
M  V30 38 H -2.4579 -5.13431 4.08319 0
M  V30 39 H -2.5409 -4.85839 5.79221 0
M  V30 40 H -1.2729 -5.85594 5.1449 0
M  V30 41 N 2.9562 -1.48159 -0.537278 0
M  V30 42 C 3.9032 -1.62138 -1.64256 0
M  V30 43 C 4.8732 -0.463668 -1.59497 0
M  V30 44 O 6.0582 -0.686241 -1.78032 0
M  V30 45 C 3.1982 -1.66028 -3.02537 0
M  V30 46 C 2.3112 -2.92855 -3.17585 0
M  V30 47 C 1.4462 -2.87952 -4.46382 0
M  V30 48 C 0.4852 -4.09516 -4.54932 0
M  V30 49 N -0.3778 -4.02733 -5.75109 0
M  V30 50 H 4.4622 -2.56529 -1.51647 0
M  V30 51 H 1.9992 -1.27224 -0.738414 0
M  V30 52 H 3.9572 -1.66265 -3.82638 0
M  V30 53 H 2.5872 -0.751331 -3.13934 0
M  V30 54 H 1.6392 -3.02395 -2.30784 0
M  V30 55 H 2.9512 -3.82822 -3.19764 0
M  V30 56 H 2.1052 -2.8655 -5.34765 0
M  V30 57 H 0.8442 -1.95702 -4.46712 0
M  V30 58 H -0.1508 -4.11201 -3.64957 0
M  V30 59 H 1.0742 -5.02917 -4.56346 0
M  V30 60 H -0.9798 -3.13299 -5.76351 0
M  V30 61 H -1.0628 -4.86397 -5.78752 0
M  V30 62 H 0.2052 -4.05379 -6.65799 0
M  V30 63 N 4.4343 0.785586 -1.36625 0
M  V30 64 C 5.8453 1.36101 -1.27803 0
M  V30 65 C 6.1963 1.96035 0.0804875 0
M  V30 66 O 5.3213 1.92834 0.982042 0
M  V30 67 C 5.9163 2.47442 -2.31426 0
M  V30 68 C 4.4753 3.00789 -2.26281 0
M  V30 69 C 3.6223 1.73896 -2.15999 0
M  V30 70 H 6.5733 0.586928 -1.47448 0
M  V30 71 H 6.5943 3.2656 -1.95291 0
M  V30 72 H 6.1063 2.03791 -3.30289 0
M  V30 73 H 4.2073 3.48851 -1.30896 0
M  V30 74 H 4.3203 3.57343 -3.19128 0
M  V30 75 H 2.6843 1.9628 -1.62316 0
M  V30 76 H 3.4673 1.32368 -3.16755 0
M  V30 77 N 5.9124 1.20967 1.01018 0
M  V30 78 C 6.8424 0.988272 2.11555 0
M  V30 79 C 7.8234 -0.0849778 1.69888 0
M  V30 80 O 9.0084 0.0738202 1.9406 0
M  V30 81 C 6.1384 0.546528 3.42973 0
M  V30 82 C 5.0924 1.56375 3.9841 0
M  V30 83 C 4.4184 0.97842 5.25672 0
M  V30 84 C 5.7184 2.94922 4.31066 0
M  V30 85 H 7.4124 1.91276 2.30334 0
M  V30 86 H 4.9584 0.921073 1.1069 0
M  V30 87 H 6.9114 0.378839 4.19694 0
M  V30 88 H 5.6354 -0.413598 3.23971 0
M  V30 89 H 4.2944 1.71891 3.23804 0
M  V30 90 H 3.9424 0.0101688 5.02999 0
M  V30 91 H 3.6424 1.65784 5.63728 0
M  V30 92 H 5.1664 0.821939 6.05043 0
M  V30 93 H 6.5804 2.8288 4.9865 0
M  V30 94 H 4.9774 3.5983 4.80253 0
M  V30 95 H 6.0474 3.4616 3.39561 0
M  V30 96 N 7.3905 -1.2043 1.01659 0
M  V30 97 C 8.6385 -1.89423 0.704522 0
M  V30 98 C 8.9595 -1.79231 -0.768197 0
M  V30 99 O 8.2295 -1.1947 -1.55254 0
M  V30 100 H 6.8095 -0.701178 0.257602 0
M  V30 101 H 9.4715 -1.4626 1.28818 0
M  V30 102 H 8.5675 -2.96052 0.987916 0
M  V30 103 N 8.8686 -0.792821 -1.36206 0
M  V30 104 C 9.8156 -0.191653 -2.30003 0
M  V30 105 C 10.7856 0.666453 -1.52143 0
M  V30 106 O 11.9706 0.61442 -1.80636 0
M  V30 107 C 9.1106 0.664848 -3.38635 0
M  V30 108 C 8.2236 -0.212175 -4.31479 0
M  V30 109 C 7.3586 0.651022 -5.27196 0
M  V30 110 C 6.3976 -0.227247 -6.11678 0
M  V30 111 N 5.5346 0.595127 -6.99573 0
M  V30 112 H 10.3746 -0.996978 -2.80828 0
M  V30 113 H 7.9116 -0.503206 -1.38225 0
M  V30 114 H 9.8696 1.17645 -4.00269 0
M  V30 115 H 8.4996 1.43557 -2.89122 0
M  V30 116 H 7.5516 -0.841777 -3.70969 0
M  V30 117 H 8.8636 -0.888751 -4.90818 0
M  V30 118 H 8.0176 1.2283 -5.94136 0
M  V30 119 H 6.7566 1.36121 -4.68319 0
M  V30 120 H 5.7616 -0.816904 -5.43697 0
M  V30 121 H 6.9866 -0.93509 -6.72631 0
M  V30 122 H 4.9326 1.28955 -6.432 0
M  V30 123 H 4.8496 -0.0236952 -7.55996 0
M  V30 124 H 6.1176 1.15613 -7.70879 0
M  V30 125 N 10.3467 1.47872 -0.545128 0
M  V30 126 C 11.5957 2.01695 -0.0145033 0
M  V30 127 C 11.9087 1.42609 1.33873 0
M  V30 128 O 13.1147 1.88021 1.95858 0
M  V30 129 C 11.5707 3.59892 0.0245068 0
M  V30 130 C 11.1787 4.27966 -1.32475 0
M  V30 131 C 12.9227 4.21507 0.50316 0
M  V30 132 C 10.8297 5.78136 -1.2455 0
M  V30 133 H 9.7597 0.753998 -0.00165172 0
M  V30 134 H 12.4107 1.69985 -0.691175 0
M  V30 135 H 10.7927 3.88509 0.766575 0
M  V30 136 H 11.9667 4.11003 -2.08357 0
M  V30 137 H 10.2817 3.78286 -1.74036 0
M  V30 138 H 12.8787 5.31538 0.580656 0
M  V30 139 H 13.2217 3.87855 1.51243 0
M  V30 140 H 13.7547 3.97376 -0.183681 0
M  V30 141 H 10.4937 6.16388 -2.23039 0
M  V30 142 H 10.0137 5.97469 -0.528282 0
M  V30 143 H 11.6927 6.40099 -0.942488 0
M  V30 144 N 11.8248 0.280983 1.55075 0
M  V30 145 C 13.0708 -0.33461 2.00021 0
M  V30 146 C 13.4038 -1.55063 1.16915 0
M  V30 147 O 12.6788 -1.93006 0.240646 0
M  V30 148 C 12.9618 -0.711007 3.53011 0
M  V30 149 C 12.8148 0.512766 4.46868 0
M  V30 150 C 14.1338 -1.54522 4.12081 0
M  V30 151 H 11.2528 -0.120147 0.727141 0
M  V30 152 H 13.8948 0.389097 1.85973 0
M  V30 153 H 12.0448 -1.32761 3.65112 0
M  V30 154 H 13.7168 1.15131 4.46702 0
M  V30 155 H 11.9598 1.14975 4.18286 0
M  V30 156 H 12.6308 0.205556 5.51617 0
M  V30 157 H 15.1068 -1.02442 4.03293 0
M  V30 158 H 13.9828 -1.77739 5.19327 0
M  V30 159 H 14.2438 -2.52813 3.62682 0
M  V30 160 N 13.3029 -1.57598 0.00835791 0
M  V30 161 C 14.2659 -2.07884 -0.965242 0
M  V30 162 C 15.2659 -0.989825 -1.26725 0
M  V30 163 O 16.4559 -1.25218 -1.21104 0
M  V30 164 C 13.5879 -2.52731 -2.28779 0
M  V30 165 H 14.7809 -2.95178 -0.530112 0
M  V30 166 H 12.3339 -1.54458 -0.239283 0
M  V30 167 H 13.0689 -1.68705 -2.76964 0
M  V30 168 H 12.8539 -3.32272 -2.08177 0
M  V30 169 H 14.3439 -2.91933 -2.98605 0
M  V30 170 N 14.781 0.264519 -1.55364 0
M  V30 171 C 16.006 1.01726 -1.80739 0
M  V30 172 C 16.431 1.78836 -0.583044 0
M  V30 173 O 15.789 1.75167 0.467566 0
M  V30 174 C 15.837 1.94482 -3.03659 0
M  V30 175 O 14.941 3.03386 -2.7934 0
M  V30 176 H 14.282 0.290395 -0.597132 0
M  V30 177 H 16.812 0.290854 -2.02522 0
M  V30 178 H 16.822 2.36278 -3.32621 0
M  V30 179 H 15.497 1.37772 -3.92418 0
M  V30 180 H 14.074 2.65844 -2.61498 0
M  V30 181 N 16.2591 1.48442 0.529413 0
M  V30 182 C 17.4871 1.60151 1.30994 0
M  V30 183 C 17.9021 0.261985 1.86973 0
M  V30 184 O 17.2591 -0.748805 1.66431 0
M  V30 185 C 17.3101 2.64854 2.46038 0
M  V30 186 O 17.0311 3.93608 1.92365 0
M  V30 187 C 18.5321 2.87007 3.37849 0
M  V30 188 H 15.7521 0.539971 0.398338 0
M  V30 189 H 18.2961 1.94273 0.638597 0
M  V30 190 H 16.4511 2.33589 3.09055 0
M  V30 191 H 16.8651 4.51055 2.67675 0
M  V30 192 H 18.3391 3.64068 4.14919 0
M  V30 193 H 18.8161 1.95852 3.93114 0
M  V30 194 H 19.4221 3.19579 2.80623 0
M  V30 195 N 17.7372 -0.778329 1.37039 0
M  V30 196 C 18.7002 -1.87301 1.32102 0
M  V30 197 C 19.7002 -1.59198 0.226405 0
M  V30 198 O 20.8902 -1.67403 0.481861 0
M  V30 199 C 18.0222 -3.24309 1.05055 0
M  V30 200 H 19.2152 -1.93093 2.29467 0
M  V30 201 H 16.7682 -0.977358 1.21973 0
M  V30 202 H 17.5032 -3.24196 0.0819373 0
M  V30 203 H 17.2882 -3.46098 1.84279 0
M  V30 204 H 18.7782 -4.04382 1.04234 0
M  V30 205 N 19.2153 -1.21501 -1.00376 0
M  V30 206 C 20.1453 -0.999478 -2.11028 0
M  V30 207 C 21.1263 0.0759671 -1.6993 0
M  V30 208 O 22.3113 -0.0841106 -1.94018 0
M  V30 209 C 19.4413 -0.564709 -3.42678 0
M  V30 210 C 18.3953 -1.58486 -3.97576 0
M  V30 211 C 17.7213 -1.00628 -5.25146 0
M  V30 212 C 19.0213 -2.97204 -4.29496 0
M  V30 213 H 20.7153 -1.92495 -2.29317 0
M  V30 214 H 18.2613 -0.92693 -1.102 0
M  V30 215 H 20.2143 -0.401091 -4.19487 0
M  V30 216 H 18.9383 0.396411 -3.24185 0
M  V30 217 H 17.5973 -1.73606 -3.22888 0
M  V30 218 H 17.2453 -0.0368439 -5.02987 0
M  V30 219 H 16.9453 -1.68771 -5.62841 0
M  V30 220 H 18.4693 -0.854015 -6.04598 0
M  V30 221 H 19.8833 -2.8552 -4.97143 0
M  V30 222 H 18.2803 -3.62372 -4.78338 0
M  V30 223 H 19.3503 -3.47956 -3.3772 0
M  V30 224 N 20.6934 1.19889 -1.02296 0
M  V30 225 C 21.6234 2.25141 -0.619174 0
M  V30 226 C 22.6044 1.66051 0.368915 0
M  V30 227 O 23.7894 1.92546 0.252941 0
M  V30 228 C 20.9194 3.4728 0.0368783 0
M  V30 229 C 19.8734 4.19005 -0.872865 0
M  V30 230 C 19.1994 5.34637 -0.0822402 0
M  V30 231 C 20.4994 4.74452 -2.18387 0
M  V30 232 H 22.1934 2.59171 -1.49903 0
M  V30 233 H 19.7394 1.24579 -0.722222 0
M  V30 234 H 21.6924 4.20098 0.330958 0
M  V30 235 H 20.4164 3.12433 0.95149 0
M  V30 236 H 19.0754 3.48061 -1.15105 0
M  V30 237 H 18.7234 4.96034 0.83422 0
M  V30 238 H 18.4234 5.83557 -0.688149 0
M  V30 239 H 19.9474 6.10255 0.205238 0
M  V30 240 H 21.3614 5.39055 -1.95172 0
M  V30 241 H 19.7584 5.33834 -2.74119 0
M  V30 242 H 20.8284 3.92844 -2.84257 0
M  V30 243 N 22.1715 0.800033 1.35784 0
M  V30 244 C 23.4205 0.37387 1.98205 0
M  V30 245 C 23.7335 -1.06302 1.64193 0
M  V30 246 O 24.9395 -1.59198 2.19928 0
M  V30 247 C 23.3955 0.617532 3.54562 0
M  V30 248 C 23.0035 2.06654 3.9749 0
M  V30 249 C 24.7475 0.256401 4.23725 0
M  V30 250 C 22.6545 2.2563 5.46667 0
M  V30 251 H 21.5845 0.136055 0.741623 0
M  V30 252 H 24.2355 0.983166 1.54939 0
M  V30 253 H 22.6175 -0.0616248 3.95952 0
M  V30 254 H 23.7915 2.78296 3.67271 0
M  V30 255 H 22.1065 2.38691 3.41197 0
M  V30 256 H 24.7035 0.376318 5.33374 0
M  V30 257 H 25.0465 -0.796692 4.08606 0
M  V30 258 H 25.5795 0.889214 3.87734 0
M  V30 259 H 22.3185 3.2936 5.66747 0
M  V30 260 H 21.8385 1.58504 5.78478 0
M  V30 261 H 23.5175 2.06861 6.1304 0
M  V30 262 N 23.6496 -1.47581 0.552962 0
M  V30 263 C 24.8746 -2.07378 0.0300593 0
M  V30 264 C 25.2996 -1.40355 -1.25229 0
M  V30 265 O 24.6576 -0.477099 -1.7491 0
M  V30 266 C 24.7056 -3.60274 -0.153231 0
M  V30 267 O 23.8096 -3.94041 -1.21678 0
M  V30 268 H 23.1506 -0.662158 0.0494182 0
M  V30 269 H 25.6806 -1.89662 0.767434 0
M  V30 270 H 25.6906 -4.0633 -0.368761 0
M  V30 271 H 24.3656 -4.08455 0.783397 0
M  V30 272 H 22.9426 -3.59735 -0.982079 0
M  V30 273 N 25.1277 -0.289203 -1.54924 0
M  V30 274 C 26.3737 0.323998 -2.00195 0
M  V30 275 C 26.7067 1.54441 -1.17735 0
M  V30 276 O 25.9817 1.92875 -0.250878 0
M  V30 277 C 26.2647 0.692276 -3.53383 0
M  V30 278 C 26.1177 -0.536457 -4.46589 0
M  V30 279 C 27.4367 1.52335 -4.12895 0
M  V30 280 H 24.5557 0.116289 -0.727768 0
M  V30 281 H 27.1977 -0.398954 -1.85764 0
M  V30 282 H 25.3477 1.30822 -3.65811 0
M  V30 283 H 27.0197 -1.17499 -4.46085 0
M  V30 284 H 25.2627 -1.17192 -4.1767 0
M  V30 285 H 25.9337 -0.234806 -5.515 0
M  V30 286 H 28.4097 1.00302 -4.0383 0
M  V30 287 H 27.2857 1.74982 -5.20262 0
M  V30 288 H 27.5467 2.50886 -3.64018 0
M  V30 289 N 26.6058 1.57591 -0.0167156 0
M  V30 290 C 27.5688 2.08393 0.954204 0
M  V30 291 C 28.5688 0.996531 1.26198 0
M  V30 292 O 29.7588 1.25858 1.20438 0
M  V30 293 C 26.8908 2.5394 2.27436 0
M  V30 294 H 28.0838 2.95455 0.514451 0
M  V30 295 H 25.6368 1.54582 0.231089 0
M  V30 296 H 26.3718 1.70171 2.76066 0
M  V30 297 H 26.1568 3.33371 2.06412 0
M  V30 298 H 27.6468 2.93512 2.97053 0
M  V30 299 N 28.0839 -0.256276 1.55502 0
M  V30 300 C 29.3309 -0.985619 1.76895 0
M  V30 301 C 29.6589 -1.85671 0.579355 0
M  V30 302 O 28.9139 -1.90744 -0.437651 0
M  V30 303 C 29.2129 -1.88432 3.03691 0
M  V30 304 C 28.8789 -1.16936 4.35473 0
M  V30 305 C 27.5409 -0.97173 4.71286 0
M  V30 306 C 29.8929 -0.661889 5.1698 0
M  V30 307 C 27.2209 -0.254179 5.86149 0
M  V30 308 C 29.5729 0.042149 6.32586 0
M  V30 309 C 28.2369 0.25134 6.67027 0
M  V30 310 H 27.5069 -0.360663 0.647304 0
M  V30 311 H 30.1539 -0.256483 1.89775 0
M  V30 312 H 28.4589 -2.68021 2.85783 0
M  V30 313 H 30.1559 -2.45015 3.1744 0
M  V30 314 H 26.7459 -1.33332 4.07333 0
M  V30 315 H 30.9299 -0.802145 4.89775 0
M  V30 316 H 26.1859 -0.0815408 6.11346 0
M  V30 317 H 30.3599 0.443049 6.94989 0
M  V30 318 H 27.9869 0.809314 7.5588 0
M  V30 319 N 29.562 -1.4872 -0.521534 0
M  V30 320 C 30.787 -1.61101 -1.30618 0
M  V30 321 C 31.212 -0.274611 -1.86085 0
M  V30 322 O 30.57 0.754937 -1.64834 0
M  V30 323 C 30.618 -2.66709 -2.4269 0
M  V30 324 O 29.722 -2.24456 -3.45967 0
M  V30 325 H 29.063 -0.539921 -0.386499 0
M  V30 326 H 31.593 -1.94767 -0.626645 0
M  V30 327 H 31.603 -2.88245 -2.88754 0
M  V30 328 H 30.278 -3.63727 -2.01682 0
M  V30 329 H 28.855 -2.13168 -3.05964 0
M  V30 330 N 31.0401 0.771051 -1.3745 0
M  V30 331 C 32.2651 1.56529 -1.36065 0
M  V30 332 C 32.6901 1.88029 0.0515859 0
M  V30 333 O 32.0481 1.49282 1.02882 0
M  V30 334 C 32.0961 2.85187 -2.20683 0
M  V30 335 O 31.2001 3.79593 -1.61193 0
M  V30 336 H 30.5411 0.47411 -0.464883 0
M  V30 337 H 33.0711 0.954269 -1.80983 0
M  V30 338 H 33.0811 3.34283 -2.33921 0
M  V30 339 H 31.7561 2.61588 -3.23334 0
M  V30 340 H 30.3331 3.38239 -1.56999 0
M  V30 341 N 32.5182 1.22032 0.997298 0
M  V30 342 C 33.7432 1.06921 1.77715 0
M  V30 343 C 34.1682 -0.376226 1.84299 0
M  V30 344 O 33.5262 -1.27165 1.29223 0
M  V30 345 C 33.5742 1.67996 3.19076 0
M  V30 346 O 32.6782 0.930653 4.01762 0
M  V30 347 H 32.0192 0.375814 0.547412 0
M  V30 348 H 34.5492 1.61737 1.25309 0
M  V30 349 H 34.5592 1.72538 3.69723 0
M  V30 350 H 33.2342 2.73182 3.13599 0
M  V30 351 H 31.8112 0.960917 3.60307 0
M  V30 352 N 33.9963 -1.19345 1.0293 0
M  V30 353 C 35.2453 -1.88363 0.721256 0
M  V30 354 C 35.5583 -1.80514 -0.753254 0
M  V30 355 O 36.7643 -2.44788 -1.17436 0
M  V30 356 C 35.2203 -3.37872 1.23978 0
M  V30 357 C 34.8283 -3.54278 2.74211 0
M  V30 358 C 36.5723 -4.12365 1.00775 0
M  V30 359 C 34.4793 -4.97682 3.19479 0
M  V30 360 H 33.4093 -0.705484 0.266098 0
M  V30 361 H 36.0603 -1.34928 1.24365 0
M  V30 362 H 34.4423 -3.90707 0.6453 0
M  V30 363 H 35.6163 -3.11769 3.39318 0
M  V30 364 H 33.9313 -2.93174 2.95699 0
M  V30 365 H 36.5283 -5.18119 1.32123 0
M  V30 366 H 36.8713 -4.16263 -0.0554308 0
M  V30 367 H 37.4043 -3.65668 1.56625 0
M  V30 368 H 34.1433 -4.98945 4.25128 0
M  V30 369 H 33.6633 -5.4095 2.591 0
M  V30 370 H 35.3423 -5.66337 3.12845 0
M  V30 371 N 35.4744 -0.807222 -1.35358 0
M  V30 372 C 36.4374 -0.223665 -2.28106 0
M  V30 373 C 37.4374 0.589354 -1.4961 0
M  V30 374 O 38.6274 0.407745 -1.69361 0
M  V30 375 C 35.7594 0.688149 -3.33882 0
M  V30 376 H 36.9524 -1.04169 -2.81227 0
M  V30 377 H 34.5054 -0.577921 -1.45223 0
M  V30 378 H 35.2404 1.52984 -2.85948 0
M  V30 379 H 35.0254 0.10687 -3.91954 0
M  V30 380 H 36.5154 1.09075 -4.03104 0
M  V30 381 N 36.9525 1.47285 -0.560781 0
M  V30 382 C 38.1775 2.07359 -0.0410566 0
M  V30 383 C 38.6025 1.41017 1.24483 0
M  V30 384 O 37.9605 0.486368 1.74654 0
M  V30 385 C 38.0085 3.6035 0.134123 0
M  V30 386 O 37.1125 3.94681 1.19587 0
M  V30 387 H 36.4535 0.661887 -0.0529291 0
M  V30 388 H 38.9835 1.89252 -0.777482 0
M  V30 389 H 38.9935 4.0652 0.347207 0
M  V30 390 H 37.6685 4.08034 -0.805047 0
M  V30 391 H 36.2455 3.60251 0.962987 0
M  V30 392 N 38.4306 0.297415 1.54768 0
M  V30 393 C 39.3936 -0.567375 2.22066 0
M  V30 394 C 40.3936 -1.06409 1.20556 0
M  V30 395 O 41.5836 -0.960691 1.45315 0
M  V30 396 C 38.7156 -1.78517 2.90421 0
M  V30 397 H 39.9086 0.0205534 2.99893 0
M  V30 398 H 37.4616 0.0482163 1.56226 0
M  V30 399 H 38.1966 -2.41303 2.16664 0
M  V30 400 H 37.9816 -1.43669 3.64831 0
M  V30 401 H 39.4716 -2.39964 3.41771 0
M  V30 402 N 39.9087 -1.5758 0.0250728 0
M  V30 403 C 40.8717 -2.08896 -0.943139 0
M  V30 404 C 41.8717 -1.00321 -1.25668 0
M  V30 405 O 43.0617 -1.26495 -1.19769 0
M  V30 406 C 40.1937 -2.55143 -2.26086 0
M  V30 407 H 41.3867 -2.95723 -0.498775 0
M  V30 408 H 38.9397 -1.54703 -0.222888 0
M  V30 409 H 39.6747 -1.71633 -2.75159 0
M  V30 410 H 39.4597 -3.34461 -2.04641 0
M  V30 411 H 40.9497 -2.95083 -2.95492 0
M  V30 412 N 41.3868 0.248026 -1.55636 0
M  V30 413 C 42.2968 1.32859 -1.93354 0
M  V30 414 C 43.3128 1.52719 -0.833838 0
M  V30 415 O 44.4888 1.66363 -1.13513 0
M  V30 416 C 41.5538 2.66337 -2.21958 0
M  V30 417 C 40.6148 2.55008 -3.45354 0
M  V30 418 C 39.8478 3.82121 -3.72584 0
M  V30 419 O 40.0708 4.83951 -3.01907 0
M  V30 420 O 39.0048 3.80822 -4.6611 0
M  V30 421 H 42.8308 1.03862 -2.85388 0
M  V30 422 H 40.4158 0.448686 -1.42503 0
M  V30 423 H 42.2978 3.45216 -2.4167 0
M  V30 424 H 40.9728 2.95068 -1.33103 0
M  V30 425 H 39.8798 1.7442 -3.30951 0
M  V30 426 H 41.2128 2.31222 -4.34508 0
M  V30 427 N 42.8649 1.48995 0.513639 0
M  V30 428 C 43.7749 1.67443 1.64317 0
M  V30 429 C 44.7909 0.556947 1.64846 0
M  V30 430 O 45.9669 0.830082 1.83498 0
M  V30 431 C 43.0319 1.72515 3.00732 0
M  V30 432 C 42.0929 2.96009 3.1093 0
M  V30 433 C 41.3259 3.00829 4.40837 0
M  V30 434 O 41.5489 2.13594 5.28898 0
M  V30 435 O 40.4829 3.93168 4.55744 0
M  V30 436 H 44.3089 2.63106 1.51687 0
M  V30 437 H 41.8939 1.32588 0.688543 0
M  V30 438 H 43.7759 1.78277 3.81831 0
M  V30 439 H 42.4509 0.800278 3.13651 0
M  V30 440 H 41.3579 2.9577 2.29065 0
M  V30 441 H 42.6909 3.87934 3.02933 0
M  V30 442 N 44.343 -0.763751 1.37857 0
M  V30 443 C 45.306 -1.85889 1.34081 0
M  V30 444 C 46.306 -1.58949 0.243277 0
M  V30 445 O 47.496 -1.66882 0.499589 0
M  V30 446 C 44.628 -3.23176 1.08489 0
M  V30 447 H 45.821 -1.90648 2.31502 0
M  V30 448 H 43.374 -0.964367 1.23003 0
M  V30 449 H 44.109 -3.24091 0.116318 0
M  V30 450 H 43.894 -3.44124 1.8794 0
M  V30 451 H 45.384 -4.03254 1.08517 0
M  V30 452 N 45.8211 -1.22559 -0.990812 0
M  V30 453 C 46.7681 -0.997519 -2.0813 0
M  V30 454 C 47.7381 0.0814702 -1.659 0
M  V30 455 O 48.9231 -0.0685424 -1.90677 0
M  V30 456 C 46.0631 -0.583615 -3.40129 0
M  V30 457 C 45.1761 -1.7336 -3.9569 0
M  V30 458 C 44.3111 -1.26748 -5.15857 0
M  V30 459 C 43.3501 -2.38888 -5.63559 0
M  V30 460 N 42.4871 -1.93308 -6.74964 0
M  V30 461 H 47.3271 -1.93099 -2.26973 0
M  V30 462 H 44.8641 -0.962114 -1.11273 0
M  V30 463 H 46.8221 -0.324801 -4.15934 0
M  V30 464 H 45.4521 0.312845 -3.2128 0
M  V30 465 H 44.5041 -2.10669 -3.16738 0
M  V30 466 H 45.8161 -2.57704 -4.27071 0
M  V30 467 H 44.9701 -0.966173 -5.98957 0
M  V30 468 H 43.7091 -0.394272 -4.86104 0
M  V30 469 H 42.7141 -2.69805 -4.79046 0
M  V30 470 H 43.9391 -3.26728 -5.95336 0
M  V30 471 H 41.8851 -1.08352 -6.4699 0
M  V30 472 H 41.8021 -2.71217 -7.05675 0
M  V30 473 H 43.0701 -1.66252 -7.61564 0
M  V30 474 N 47.2992 1.18797 -1.03562 0
M  V30 475 C 48.2092 2.25913 -0.632505 0
M  V30 476 C 49.2252 1.70668 0.338882 0
M  V30 477 O 50.4012 2.00453 0.195076 0
M  V30 478 C 47.4662 3.467 0.00350942 0
M  V30 479 C 46.5272 4.17098 -1.01624 0
M  V30 480 C 45.7602 5.32119 -0.410478 0
M  V30 481 O 45.9832 5.64976 0.784725 0
M  V30 482 O 44.9172 5.9107 -1.13667 0
M  V30 483 H 48.7432 2.62648 -1.52478 0
M  V30 484 H 46.3282 1.25781 -0.806195 0
M  V30 485 H 48.2102 4.19878 0.35781 0
M  V30 486 H 46.8852 3.11798 0.869686 0
M  V30 487 H 45.7922 3.4601 -1.42224 0
M  V30 488 H 47.1252 4.55987 -1.85301 0
M  V30 489 N 48.7773 0.814389 1.34928 0
M  V30 490 C 49.7243 0.22822 2.29669 0
M  V30 491 C 50.6943 -0.642164 1.53184 0
M  V30 492 O 51.8793 -0.585605 1.81591 0
M  V30 493 C 49.0193 -0.61089 3.3965 0
M  V30 494 C 48.1323 0.280792 4.31086 0
M  V30 495 C 47.2673 -0.567067 5.28165 0
M  V30 496 C 46.3063 0.324531 6.11239 0
M  V30 497 N 45.4433 -0.483756 7.00431 0
M  V30 498 H 50.2833 1.04153 2.79206 0
M  V30 499 H 47.8203 0.525133 1.37407 0
M  V30 500 H 49.7783 -1.11263 4.0209 0
M  V30 501 H 48.4083 -1.38939 2.91369 0
M  V30 502 H 47.4603 0.900688 3.69583 0
M  V30 503 H 48.7723 0.966723 4.89342 0
M  V30 504 H 47.9263 -1.13363 5.96015 0
M  V30 505 H 46.6653 -1.28654 4.70425 0
M  V30 506 H 45.6703 0.903298 5.42329 0
M  V30 507 H 46.8953 1.04198 6.71059 0
M  V30 508 H 44.8413 -1.18706 6.45171 0
M  V30 509 H 44.7583 0.143965 7.55863 0
M  V30 510 H 46.0263 -1.03334 7.7262 0
M  V30 511 N 50.2554 -1.46986 0.568584 0
M  V30 512 C 51.4854 -2.0653 0.0539173 0
M  V30 513 C 51.8934 -1.42004 -1.25026 0
M  V30 514 O 51.2364 -0.514541 -1.76347 0
M  V30 515 C 51.2984 -3.58938 -0.200854 0
M  V30 516 C 50.9624 -4.45572 1.01559 0
M  V30 517 C 51.9594 -4.82986 1.92407 0
M  V30 518 C 49.6444 -4.8692 1.23346 0
M  V30 519 C 51.6384 -5.60559 3.03402 0
M  V30 520 C 49.3254 -5.64255 2.34649 0
M  V30 521 C 50.3234 -6.00986 3.24507 0
M  V30 522 O 50.0114 -6.76761 4.33878 0
M  V30 523 H 49.7434 -0.674292 0.0480234 0
M  V30 524 H 52.2974 -1.89812 0.784896 0
M  V30 525 H 50.5274 -3.73911 -0.986279 0
M  V30 526 H 52.2164 -4.0046 -0.662294 0
M  V30 527 H 52.9824 -4.51633 1.76785 0
M  V30 528 H 48.8614 -4.57789 0.543178 0
M  V30 529 H 52.4054 -5.89147 3.73565 0
M  V30 530 H 48.3024 -5.95021 2.5024 0
M  V30 531 H 49.0704 -6.95168 4.32068 0
M  V30 532 N 51.7335 -0.305618 -1.54608 0
M  V30 533 C 52.6635 0.561482 -2.26649 0
M  V30 534 C 53.6445 1.13415 -1.26772 0
M  V30 535 O 54.8295 1.16262 -1.55553 0
M  V30 536 C 51.9595 1.73122 -3.01075 0
M  V30 537 C 50.9135 1.2887 -4.08138 0
M  V30 538 C 50.2395 2.54396 -4.70305 0
M  V30 539 C 51.5395 0.416578 -5.20636 0
M  V30 540 H 53.2335 -0.0393902 -2.99374 0
M  V30 541 H 50.7795 -0.020385 -1.43986 0
M  V30 542 H 52.7325 2.34396 -3.50195 0
M  V30 543 H 51.4565 2.3584 -2.25936 0
M  V30 544 H 50.1155 0.698991 -3.59875 0
M  V30 545 H 49.7635 3.15439 -3.918 0
M  V30 546 H 49.4635 2.25486 -5.42614 0
M  V30 547 H 50.9875 3.16464 -5.2219 0
M  V30 548 H 52.4015 0.935116 -5.65622 0
M  V30 549 H 50.7985 0.221046 -5.99693 0
M  V30 550 H 51.8685 -0.557162 -4.81688 0
M  V30 551 N 53.2116 1.57565 -0.0334293 0
M  V30 552 C 54.4606 1.91155 0.643639 0
M  V30 553 C 54.7736 0.91192 1.73042 0
M  V30 554 O 55.9796 1.13923 2.46442 0
M  V30 555 C 54.4356 3.39443 1.1961 0
M  V30 556 C 54.0436 4.47774 0.142381 0
M  V30 557 C 55.7876 3.82094 1.84944 0
M  V30 558 C 53.6946 5.87162 0.706727 0
M  V30 559 H 52.6246 0.713368 0.244176 0
M  V30 560 H 55.2756 1.8323 -0.0994323 0
M  V30 561 H 53.6576 3.42313 1.99092 0
M  V30 562 H 54.8316 4.56469 -0.630296 0
M  V30 563 H 53.1466 4.14352 -0.412446 0
M  V30 564 H 55.7436 4.83591 2.2813 0
M  V30 565 H 56.0866 3.17386 2.69392 0
M  V30 566 H 56.6196 3.81665 1.12145 0
M  V30 567 H 53.3586 6.55424 -0.0997178 0
M  V30 568 H 52.8786 5.82064 1.44779 0
M  V30 569 H 54.5576 6.35866 1.19514 0
M  V30 570 N 54.6897 -0.239769 1.55765 0
M  V30 571 C 55.9377 -0.964892 1.77579 0
M  V30 572 C 56.2587 -1.85582 0.598699 0
M  V30 573 O 55.5287 -1.92075 -0.385226 0
M  V30 574 H 54.1087 -0.359265 0.654933 0
M  V30 575 H 56.7707 -0.256001 1.93211 0
M  V30 576 H 55.8667 -1.58243 2.69009 0
M  V30 577 N 56.1678 -1.49265 -0.50573 0
M  V30 578 C 57.4148 -1.58513 -1.26015 0
M  V30 579 C 57.7428 -0.26972 -1.92621 0
M  V30 580 O 56.9978 0.741997 -1.81088 0
M  V30 581 C 57.2968 -2.69008 -2.35308 0
M  V30 582 C 56.9628 -4.10662 -1.86192 0
M  V30 583 C 55.6248 -4.49212 -1.72516 0
M  V30 584 C 57.9768 -4.99336 -1.49375 0
M  V30 585 C 55.3048 -5.74214 -1.20394 0
M  V30 586 C 57.6568 -6.24852 -0.987072 0
M  V30 587 C 56.3208 -6.62236 -0.836669 0
M  V30 588 H 55.5908 -0.580041 -0.461122 0
M  V30 589 H 58.2378 -1.83078 -0.561665 0
M  V30 590 H 56.5428 -2.38396 -3.10926 0
M  V30 591 H 58.2398 -2.73373 -2.93374 0
M  V30 592 H 54.8298 -3.8023 -1.97795 0
M  V30 593 H 59.0138 -4.70212 -1.5879 0
M  V30 594 H 54.2698 -6.01883 -1.07458 0
M  V30 595 H 58.4438 -6.92944 -0.692983 0
M  V30 596 H 56.0708 -7.58979 -0.430607 0
M  V30 597 N 57.6459 0.756429 -1.3826 0
M  V30 598 C 58.5939 1.89149 -1.35372 0
M  V30 599 C 59.5879 1.67691 -0.24004 0
M  V30 600 O 60.7939 1.75294 -0.408919 0
M  V30 601 H 57.1689 0.622271 -0.422236 0
M  V30 602 H 59.1399 1.88701 -2.31159 0
M  V30 603 C 57.8889 3.26599 -1.19284 0
M  V30 604 H 57.2119 3.43695 -2.0424 0
M  V30 605 H 58.6519 4.06274 -1.21316 0
M  V30 606 C 57.1109 3.3675 0.100454 0
M  V30 607 O 57.6409 3.86951 1.07851 0
M  V30 608 N 55.8469 2.90179 0.15633 0
M  V30 609 H 55.3939 2.49517 -0.640253 0
M  V30 610 H 55.3519 2.97352 1.02123 0
M  V30 611 N 59.124 1.23083 0.984299 0
M  V30 612 C 60.034 1.02515 2.11016 0
M  V30 613 C 61.05 -0.0291702 1.73976 0
M  V30 614 O 62.226 0.165434 2.00719 0
M  V30 615 C 59.291 0.614673 3.41208 0
M  V30 616 C 58.352 1.74359 3.92297 0
M  V30 617 C 57.585 1.35261 5.16275 0
M  V30 618 O 57.808 0.235136 5.69915 0
M  V30 619 O 56.742 2.17227 5.61334 0
M  V30 620 H 60.568 1.96862 2.31255 0
M  V30 621 H 58.153 1.01753 1.09392 0
M  V30 622 H 60.035 0.396518 4.1953 0
M  V30 623 H 58.71 -0.299851 3.22308 0
M  V30 624 H 57.617 2.01635 3.1511 0
M  V30 625 H 58.95 2.63629 4.15645 0
M  V30 626 N 60.6021 -1.18246 1.0419 0
M  V30 627 C 61.5341 -2.2142 0.592088 0
M  V30 628 C 62.5471 -1.59233 -0.338909 0
M  V30 629 O 63.7361 -1.78002 -0.133231 0
M  V30 630 C 60.8361 -3.38546 -0.154854 0
M  V30 631 C 60.0091 -4.3031 0.784328 0
M  V30 632 C 59.0681 -5.26138 0.0804583 0
M  V30 633 O 58.0941 -5.64738 0.711292 0
M  V30 634 N 59.2961 -5.68261 -1.18574 0
M  V30 635 H 62.0611 -2.60636 1.47949 0
M  V30 636 H 59.6221 -1.33044 0.922544 0
M  V30 637 H 61.6141 -3.99678 -0.635606 0
M  V30 638 H 60.1841 -2.98012 -0.943811 0
M  V30 639 H 59.4041 -3.66764 1.44491 0
M  V30 640 H 60.6921 -4.8852 1.42218 0
M  V30 641 H 60.0901 -5.38957 -1.71876 0
M  V30 642 H 58.6471 -6.31584 -1.61074 0
M  V30 643 N 62.0802 -0.821533 -1.34494 0
M  V30 644 C 62.9902 -0.244355 -2.33324 0
M  V30 645 C 64.0062 0.620527 -1.62559 0
M  V30 646 O 65.1822 0.528754 -1.94335 0
M  V30 647 C 62.2472 0.585368 -3.41723 0
M  V30 648 C 61.3082 -0.301752 -4.28238 0
M  V30 649 C 60.5412 0.488466 -5.3146 0
M  V30 650 O 60.7642 1.72186 -5.4379 0
M  V30 651 O 59.6982 -0.12848 -6.01763 0
M  V30 652 H 63.5242 -1.06231 -2.84515 0
M  V30 653 H 61.1092 -0.583645 -1.37528 0
M  V30 654 H 62.9912 1.05747 -4.07916 0
M  V30 655 H 61.6662 1.38068 -2.92778 0
M  V30 656 H 60.5732 -0.821315 -3.64973 0
M  V30 657 H 61.9062 -1.06138 -4.8062 0
M  V30 658 N 63.5583 1.46682 -0.576371 0
M  V30 659 C 64.5213 2.28707 0.150239 0
M  V30 660 C 65.5213 1.38035 0.824794 0
M  V30 661 O 66.7113 1.60476 0.677719 0
M  V30 662 C 63.8433 3.18248 1.22192 0
M  V30 663 H 65.0363 2.94423 -0.570521 0
M  V30 664 H 62.5893 1.52688 -0.334078 0
M  V30 665 H 63.3243 2.57265 1.97447 0
M  V30 666 H 63.1093 3.85 0.742812 0
M  V30 667 H 64.5993 3.80001 1.73172 0
M  V30 668 N 65.0364 0.313813 1.54444 0
M  V30 669 C 66.2824 -0.292108 2.00685 0
M  V30 670 C 66.6154 -1.52548 1.20177 0
M  V30 671 O 65.8904 -1.92452 0.281531 0
M  V30 672 C 66.1734 -0.635968 3.5444 0
M  V30 673 C 66.0264 0.607437 4.4568 0
M  V30 674 C 67.3454 -1.45747 4.15266 0
M  V30 675 H 64.4644 -0.104697 0.729526 0
M  V30 676 H 67.1064 0.428457 1.85106 0
M  V30 677 H 65.2564 -1.24986 3.67846 0
M  V30 678 H 66.9284 1.24581 4.44159 0
M  V30 679 H 65.1714 1.23822 4.15753 0
M  V30 680 H 65.8424 0.322515 5.51057 0
M  V30 681 H 68.3184 -0.938645 4.05375 0
M  V30 682 H 67.1944 -1.66683 5.2298 0
M  V30 683 H 67.4554 -2.45063 3.67963 0
M  V30 684 N 66.5145 -1.57545 0.0417849 0
M  V30 685 C 67.7395 -1.97035 -0.647455 0
M  V30 686 C 68.1645 -0.918775 -1.64135 0
M  V30 687 O 67.5225 0.119006 -1.80909 0
M  V30 688 C 67.5705 -3.35609 -1.31905 0
M  V30 689 O 66.6745 -3.3287 -2.43457 0
M  V30 690 H 66.0155 -0.64211 -0.169086 0
M  V30 691 H 68.5455 -2.04318 0.107399 0
M  V30 692 H 68.5555 -3.72126 -1.67291 0
M  V30 693 H 67.2305 -4.11685 -0.590586 0
M  V30 694 H 65.8075 -3.08087 -2.10088 0
M  V30 695 N 67.9926 0.231505 -1.5589 0
M  V30 696 C 68.9026 1.308 -1.94752 0
M  V30 697 C 69.9186 1.51826 -0.849989 0
M  V30 698 O 71.0946 1.6515 -1.15271 0
M  V30 699 C 68.1596 2.63968 -2.24771 0
M  V30 700 C 67.2206 2.51331 -3.48039 0
M  V30 701 C 66.4536 3.78148 -3.76616 0
M  V30 702 O 66.6766 4.80722 -3.07022 0
M  V30 703 O 65.6106 3.75857 -4.70123 0
M  V30 704 H 69.4366 1.0083 -2.86474 0
M  V30 705 H 67.0216 0.433547 -1.42971 0
M  V30 706 H 68.9036 3.42633 -2.45318 0
M  V30 707 H 67.5786 2.9364 -1.36225 0
M  V30 708 H 66.4856 1.709 -3.32782 0
M  V30 709 H 67.8186 2.26601 -4.36936 0
M  V30 710 N 69.4707 1.49531 0.497807 0
M  V30 711 C 70.7177 1.59179 1.25173 0
M  V30 712 C 71.0457 0.279932 1.92475 0
M  V30 713 O 70.3007 -0.732383 1.81479 0
M  V30 714 C 70.5997 2.70252 2.33878 0
M  V30 715 C 70.2657 4.11644 1.84012 0
M  V30 716 C 68.9277 4.50121 1.70132 0
M  V30 717 C 71.2797 5.00121 1.46725 0
M  V30 718 C 68.6077 5.74845 1.17348 0
M  V30 719 C 70.9597 6.25366 0.95392 0
M  V30 720 C 69.6237 6.6267 0.801538 0
M  V30 721 H 68.8937 0.582478 0.45804 0
M  V30 722 H 71.5407 1.83373 0.551948 0
M  V30 723 H 69.8457 2.40041 3.09657 0
M  V30 724 H 71.5427 2.74925 2.9192 0
M  V30 725 H 68.1327 3.81274 1.95775 0
M  V30 726 H 72.3167 4.71048 1.56294 0
M  V30 727 H 67.5727 6.02444 1.04264 0
M  V30 728 H 71.7467 6.93301 0.656225 0
M  V30 729 H 69.3737 7.59197 0.390351 0
M  V30 730 N 70.9488 -0.749086 1.3866 0
M  V30 731 C 72.1948 -1.51056 1.35314 0
M  V30 732 C 72.5278 -1.94121 -0.0553751 0
M  V30 733 O 71.8028 -1.65763 -1.01749 0
M  V30 734 C 72.0858 -2.76003 2.31288 0
M  V30 735 C 71.9388 -2.39047 3.8102 0
M  V30 736 C 73.2578 -3.78046 2.2532 0
M  V30 737 H 70.3768 -0.547972 0.492844 0
M  V30 738 H 73.0188 -0.857628 1.69543 0
M  V30 739 H 71.1688 -3.31716 2.02229 0
M  V30 740 H 72.8408 -1.89074 4.20771 0
M  V30 741 H 71.0838 -1.71449 3.98482 0
M  V30 742 H 71.7548 -3.28462 4.4364 0
M  V30 743 H 74.2308 -3.31884 2.50983 0
M  V30 744 H 73.1068 -4.63159 2.94576 0
M  V30 745 H 73.3678 -4.23957 1.25352 0
M  V30 746 N 72.4269 -1.23603 -0.977757 0
M  V30 747 C 73.3369 -1.03632 -2.1047 0
M  V30 748 C 74.3529 0.0199435 -1.73989 0
M  V30 749 O 75.5289 -0.176076 -2.00629 0
M  V30 750 C 72.5939 -0.63276 -3.40877 0
M  V30 751 C 71.6549 -1.76437 -3.91367 0
M  V30 752 C 70.8879 -1.37997 -5.15551 0
M  V30 753 O 71.1109 -0.265357 -5.69782 0
M  V30 754 O 70.0449 -2.20201 -5.60174 0
M  V30 755 H 73.8709 -1.98086 -2.30208 0
M  V30 756 H 71.4559 -1.02332 -1.08851 0
M  V30 757 H 73.3379 -0.418761 -4.19314 0
M  V30 758 H 72.0129 0.282754 -3.22463 0
M  V30 759 H 70.9199 -2.03304 -3.14036 0
M  V30 760 H 72.2529 -2.6583 -4.14241 0
M  V30 761 N 73.905 1.17692 -1.04816 0
M  V30 762 C 74.837 2.21103 -0.603822 0
M  V30 763 C 75.85 1.59411 0.33046 0
M  V30 764 O 77.039 1.7807 0.12379 0
M  V30 765 C 74.139 3.38623 0.136898 0
M  V30 766 C 73.312 4.29888 -0.807137 0
M  V30 767 C 72.371 5.26088 -0.10836 0
M  V30 768 O 71.397 5.64353 -0.741232 0
M  V30 769 N 72.599 5.68882 1.15558 0
M  V30 770 H 75.364 2.59848 -1.49329 0
M  V30 771 H 72.925 1.32553 -0.929587 0
M  V30 772 H 74.917 4.00009 0.614401 0
M  V30 773 H 73.487 2.98508 0.927993 0
M  V30 774 H 72.707 3.65993 -1.46434 0
M  V30 775 H 73.995 4.87759 -1.44807 0
M  V30 776 H 73.393 5.39861 1.69015 0
M  V30 777 H 71.95 6.32429 1.57722 0
M  V30 778 N 75.3831 0.828654 1.34056 0
M  V30 779 C 76.6291 0.42008 1.98402 0
M  V30 780 C 76.9621 -1.01564 1.65525 0
M  V30 781 O 76.2371 -1.70834 0.929831 0
M  V30 782 C 76.5201 0.62927 3.54559 0
M  V30 783 C 76.3731 2.11152 3.97159 0
M  V30 784 C 77.6921 0.0688756 4.40046 0
M  V30 785 H 74.8111 0.154104 0.720709 0
M  V30 786 H 77.4531 1.04228 1.5886 0
M  V30 787 H 75.6031 0.0996418 3.88372 0
M  V30 788 H 77.2751 2.70522 3.73651 0
M  V30 789 H 75.5181 2.59985 3.47261 0
M  V30 790 H 76.1891 2.20868 5.05887 0
M  V30 791 H 78.6651 0.521458 4.1282 0
M  V30 792 H 77.5411 0.245006 5.48353 0
M  V30 793 H 77.8021 -1.0266 4.30015 0
M  V30 794 N 76.8612 -1.46375 0.584142 0
M  V30 795 C 77.7712 -2.34115 -0.150728 0
M  V30 796 C 78.7872 -1.49838 -0.884567 0
M  V30 797 O 79.9632 -1.82704 -0.847429 0
M  V30 798 C 77.0282 -3.2705 -1.15062 0
M  V30 799 C 76.0892 -4.27228 -0.421293 0
M  V30 800 C 75.3222 -5.15722 -1.37355 0
M  V30 801 O 75.5452 -5.07176 -2.61014 0
M  V30 802 O 74.4792 -5.95383 -0.883355 0
M  V30 803 H 78.3052 -2.98309 0.569708 0
M  V30 804 H 75.8902 -1.45373 0.344535 0
M  V30 805 H 77.7722 -3.84381 -1.72712 0
M  V30 806 H 76.4472 -2.65451 -1.8525 0
M  V30 807 H 75.3542 -3.7358 0.197085 0
M  V30 808 H 76.6872 -4.91616 0.239641 0
M  V30 809 N 78.3393 -0.321999 -1.54275 0
M  V30 810 C 79.3023 0.531975 -2.22941 0
M  V30 811 C 80.3023 1.04478 -1.22234 0
M  V30 812 O 81.4923 0.937452 -1.46825 0
M  V30 813 C 78.6243 1.73874 -2.93224 0
M  V30 814 H 79.8173 -0.0682612 -2.99822 0
M  V30 815 H 77.3703 -0.0730644 -1.56129 0
M  V30 816 H 78.1053 2.37825 -2.20476 0
M  V30 817 H 77.8903 1.37847 -3.6707 0
M  V30 818 H 79.3803 2.34496 -3.45545 0
M  V30 819 N 79.8174 1.5752 -0.0501392 0
M  V30 820 C 80.7654 2.12651 0.942459 0
M  V30 821 C 81.7594 1.05807 1.32292 0
M  V30 822 O 82.9654 1.24217 1.3027 0
M  V30 823 H 79.3404 0.679673 0.321789 0
M  V30 824 H 81.3114 2.94951 0.452356 0
M  V30 825 C 80.0604 2.68565 2.20836 0
M  V30 826 H 79.3834 3.50439 1.92439 0
M  V30 827 H 80.8234 3.10761 2.8845 0
M  V30 828 C 79.2824 1.62291 2.95234 0
M  V30 829 O 79.8124 1.03508 3.88135 0
M  V30 830 N 78.0184 1.33836 2.57946 0
M  V30 831 H 77.5654 1.81826 1.82475 0
M  V30 832 H 77.5234 0.629595 3.08032 0
M  V30 833 N 81.2955 -0.223234 1.56011 0
M  V30 834 C 82.5725 -0.972108 1.69733 0
M  V30 835 C 82.9525 -2.02485 0.59691 0
M  V30 836 O 82.3005 -2.25037 -0.396324 0
M  V30 837 C 82.5105 -1.58407 3.10979 0
M  V30 838 C 83.8585 -2.07696 3.70334 0
M  V30 839 O 84.8825 -1.68304 3.1393 0
M  V30 840 O 83.7415 -2.80096 4.69264 0
M  V30 841 H 80.8355 -0.453993 0.691245 0
M  V30 842 H 83.3815 -0.215149 1.68331 0
M  V30 843 H 82.1535 -0.823831 3.82529 0
M  V30 844 H 81.7765 -2.40661 3.16493 0
M  V30 845 N 82.7736 -1.49793 -0.48987 0
M  V30 846 C 83.6836 -1.70036 -1.61632 0
M  V30 847 C 84.6996 -0.583102 -1.63939 0
M  V30 848 O 85.8756 -0.859169 -1.82154 0
M  V30 849 C 82.9406 -1.77277 -2.97949 0
M  V30 850 C 82.0016 -3.00918 -3.06181 0
M  V30 851 C 81.2346 -3.07804 -4.35996 0
M  V30 852 O 81.4576 -2.21982 -5.25433 0
M  V30 853 O 80.3916 -4.00369 -4.49431 0
M  V30 854 H 84.2176 -2.65486 -1.47482 0
M  V30 855 H 81.8026 -1.33666 -0.667362 0
M  V30 856 H 83.6846 -1.84329 -3.78947 0
M  V30 857 H 82.3596 -0.850076 -3.12339 0
M  V30 858 H 81.2666 -2.99377 -2.2433 0
M  V30 859 H 82.5996 -3.92704 -2.96723 0
M  V30 860 N 84.2517 0.741722 -1.39055 0
M  V30 861 C 85.4977 1.50336 -1.36113 0
M  V30 862 C 85.8307 1.94148 0.0450796 0
M  V30 863 O 85.1057 1.66301 1.00868 0
M  V30 864 C 85.3887 2.74773 -2.32749 0
M  V30 865 C 85.2417 2.37023 -3.82283 0
M  V30 866 C 86.5607 3.76846 -2.27322 0
M  V30 867 H 83.6797 0.545351 -0.495743 0
M  V30 868 H 86.3217 0.848624 -1.69995 0
M  V30 869 H 84.4717 3.30639 -2.03986 0
M  V30 870 H 86.1437 1.8684 -4.21768 0
M  V30 871 H 84.3867 1.69334 -3.99385 0
M  V30 872 H 85.0577 3.26104 -4.45376 0
M  V30 873 H 87.5337 3.30548 -2.5274 0
M  V30 874 H 86.4097 4.6159 -2.97028 0
M  V30 875 H 86.6707 4.23286 -1.27599 0
M  V30 876 N 85.7298 1.2412 0.971189 0
M  V30 877 C 86.6928 1.03156 2.04674 0
M  V30 878 C 87.6928 -0.00990322 1.60797 0
M  V30 879 O 88.8828 0.230729 1.72665 0
M  V30 880 C 86.0148 0.562765 3.36223 0
M  V30 881 H 87.2078 1.98614 2.24705 0
M  V30 882 H 84.7608 1.06293 1.14593 0
M  V30 883 H 85.4958 -0.395176 3.21883 0
M  V30 884 H 85.2808 1.31441 3.69413 0
M  V30 885 H 86.7708 0.437015 4.15307 0
M  V30 886 N 87.2079 -1.17134 1.05439 0
M  V30 887 C 88.4569 -1.86791 0.761049 0
M  V30 888 C 88.7699 -1.82072 -0.714795 0
M  V30 889 O 89.9759 -2.47223 -1.12218 0
M  V30 890 C 88.4319 -3.35166 1.31117 0
M  V30 891 C 88.0399 -3.48381 2.81664 0
M  V30 892 C 89.7839 -4.10134 1.09499 0
M  V30 893 C 87.6909 -4.90793 3.29964 0
M  V30 894 H 86.6209 -0.699681 0.281002 0
M  V30 895 H 89.2719 -1.3226 1.27199 0
M  V30 896 H 87.6539 -3.8925 0.72803 0
M  V30 897 H 88.8279 -3.04502 3.45855 0
M  V30 898 H 87.1429 -2.86836 3.01851 0
M  V30 899 H 89.7399 -5.152 1.43084 0
M  V30 900 H 90.0829 -4.16287 0.0328772 0
M  V30 901 H 90.6159 -3.62264 1.64346 0
M  V30 902 H 87.3549 -4.89816 4.35616 0
M  V30 903 H 86.8749 -5.35333 2.70516 0
M  V30 904 H 88.5539 -5.59573 3.24787 0
M  V30 905 N 88.686 -0.835752 -1.33615 0
M  V30 906 C 89.616 -0.281739 -2.31794 0
M  V30 907 C 90.597 0.608833 -1.58831 0
M  V30 908 O 91.782 0.533035 -1.86741 0
M  V30 909 C 88.912 0.546612 -3.42971 0
M  V30 910 C 87.866 -0.247904 -4.27281 0
M  V30 911 C 87.192 0.704001 -5.30045 0
M  V30 912 C 88.492 -1.46324 -5.01385 0
M  V30 913 H 90.186 -1.10206 -2.78379 0
M  V30 914 H 87.732 -0.531388 -1.33837 0
M  V30 915 H 89.685 0.944467 -4.1068 0
M  V30 916 H 88.409 1.40011 -2.95067 0
M  V30 917 H 87.068 -0.627281 -3.61194 0
M  V30 918 H 86.716 1.55381 -4.78399 0
M  V30 919 H 86.416 0.176524 -5.87335 0
M  V30 920 H 87.94 1.09944 -6.0062 0
M  V30 921 H 89.354 -1.13871 -5.61877 0
M  V30 922 H 87.751 -1.92728 -5.6831 0
M  V30 923 H 88.821 -2.23467 -4.30338 0
M  V30 924 N 90.1641 1.46063 -0.591896 0
M  V30 925 C 91.3891 2.07226 -0.0850314 0
M  V30 926 C 91.8141 1.43625 1.21463 0
M  V30 927 O 91.1721 0.523305 1.73583 0
M  V30 928 C 91.2201 3.60554 0.0576567 0
M  V30 929 O 90.3241 3.97128 1.11188 0
M  V30 930 H 89.6651 0.660615 -0.0669568 0
M  V30 931 H 92.1951 1.8756 -0.81745 0
M  V30 932 H 92.2051 4.07165 0.2609 0
M  V30 933 H 90.8801 4.06235 -0.891416 0
M  V30 934 H 89.4571 3.62213 0.886356 0
M  V30 935 N 91.6422 0.330177 1.54103 0
M  V30 936 C 92.5522 -0.541534 2.28264 0
M  V30 937 C 93.5682 -1.12351 1.32866 0
M  V30 938 O 94.7442 -1.14206 1.65888 0
M  V30 939 C 91.8092 -1.68322 3.03098 0
M  V30 940 C 90.8702 -1.13238 4.14096 0
M  V30 941 C 90.1032 -2.21966 4.85352 0
M  V30 942 O 90.3262 -3.42437 4.56172 0
M  V30 943 O 89.2602 -1.87013 5.7211 0
M  V30 944 H 93.0862 0.060938 3.03639 0
M  V30 945 H 90.6712 0.09565 1.49093 0
M  V30 946 H 92.5532 -2.34777 3.49939 0
M  V30 947 H 91.2282 -2.27176 2.30593 0
M  V30 948 H 90.1352 -0.432736 3.71589 0
M  V30 949 H 91.4682 -0.588898 4.88664 0
M  V30 950 N 93.1203 -1.57491 0.0584922 0
M  V30 951 C 94.0303 -2.15448 -0.928414 0
M  V30 952 C 95.0463 -1.11416 -1.3365 0
M  V30 953 O 96.2223 -1.4362 -1.41193 0
M  V30 954 C 93.2873 -2.69393 -2.18239 0
M  V30 955 C 92.3483 -3.88249 -1.83196 0
M  V30 956 C 91.5813 -4.39613 -3.02616 0
M  V30 957 O 91.8043 -3.90023 -4.16219 0
M  V30 958 O 90.7383 -5.31111 -2.83204 0
M  V30 959 H 94.5643 -3.00112 -0.465483 0
M  V30 960 H 92.1493 -1.48499 -0.163826 0
M  V30 961 H 94.0313 -3.04026 -2.91798 0
M  V30 962 H 92.7063 -1.87796 -2.63656 0
M  V30 963 H 91.6133 -3.58492 -1.06931 0
M  V30 964 H 92.9463 -4.71098 -1.42573 0
M  V30 965 N 94.5984 0.214957 -1.56127 0
M  V30 966 C 95.5084 1.28727 -1.96129 0
M  V30 967 C 96.5244 1.50916 -0.866044 0
M  V30 968 O 97.7004 1.63918 -1.17016 0
M  V30 969 C 94.7654 2.61569 -2.27558 0
M  V30 970 C 93.8264 2.47625 -3.50685 0
M  V30 971 C 93.0594 3.74132 -3.80606 0
M  V30 972 O 93.2824 4.77438 -3.12104 0
M  V30 973 O 92.2164 3.70849 -4.74083 0
M  V30 974 H 96.0424 0.977855 -2.87527 0
M  V30 975 H 93.6274 0.418358 -1.43423 0
M  V30 976 H 95.5094 3.40012 -2.48938 0
M  V30 977 H 94.1844 2.92178 -1.39332 0
M  V30 978 H 93.0914 1.67361 -3.34576 0
M  V30 979 H 94.4244 2.21954 -4.39315 0
M  V30 980 N 96.0765 1.50051 0.48192 0
M  V30 981 C 96.9865 1.7089 1.60728 0
M  V30 982 C 98.0025 0.591788 1.63627 0
M  V30 983 O 99.1785 0.868817 1.81696 0
M  V30 984 C 96.2435 1.78855 2.97005 0
M  V30 985 C 95.3045 3.02537 3.04581 0
M  V30 986 C 94.5375 3.10112 4.34357 0
M  V30 987 O 94.7605 2.24765 5.24249 0
M  V30 988 O 93.6945 4.02747 4.47301 0
M  V30 989 H 97.5205 2.66264 1.46072 0
M  V30 990 H 95.1055 1.34018 0.660264 0
M  V30 991 H 96.9875 1.86336 3.77964 0
M  V30 992 H 95.6625 0.866628 3.11883 0
M  V30 993 H 94.5695 3.00563 2.22739 0
M  V30 994 H 95.9025 3.94272 2.94636 0
M  V30 995 N 97.5546 -0.734337 1.39446 0
M  V30 996 C 98.8006 -1.49613 1.36908 0
M  V30 997 C 99.1336 -1.94169 -0.0347829 0
M  V30 998 O 98.4086 -1.66833 -0.999847 0
M  V30 999 C 98.6916 -2.73534 2.34203 0
M  V30 1000 C 98.5446 -2.34993 3.83534 0
M  V30 1001 C 99.8636 -3.75635 2.29317 0
M  V30 1002 H 96.9826 -0.542714 0.498629 0
M  V30 1003 H 99.6246 -0.839597 1.70443 0
M  V30 1004 H 97.7746 -3.29553 2.05736 0
M  V30 1005 H 99.4466 -1.84601 4.22753 0
M  V30 1006 H 97.6896 -1.67213 4.00278 0
M  V30 1007 H 98.3606 -3.23738 4.47099 0
M  V30 1008 H 100.837 -3.29203 2.54489 0
M  V30 1009 H 99.7126 -4.60008 2.99472 0
M  V30 1010 H 99.9736 -4.22603 1.29842 0
M  V30 1011 N 99.0327 -1.24633 -0.964593 0
M  V30 1012 C 99.9427 -1.05859 -2.09359 0
M  V30 1013 C 100.959 0.00148855 -1.74 0
M  V30 1014 O 102.135 -0.197346 -2.00431 0
M  V30 1015 C 99.1997 -0.668879 -3.40187 0
M  V30 1016 C 98.2607 -1.80578 -3.89474 0
M  V30 1017 C 97.4937 -1.43457 -5.14058 0
M  V30 1018 O 97.7167 -0.325775 -5.69469 0
M  V30 1019 O 96.6507 -2.2613 -5.57807 0
M  V30 1020 H 100.477 -2.00516 -2.28094 0
M  V30 1021 H 98.0617 -1.03481 -1.0776 0
M  V30 1022 H 99.9437 -0.463211 -4.18846 0
M  V30 1023 H 98.6187 0.248536 -3.22744 0
M  V30 1024 H 97.5257 -2.06623 -3.11862 0
M  V30 1025 H 98.8587 -2.70208 -4.11398 0
M  V30 1026 N 100.511 1.16574 -1.06058 0
M  V30 1027 C 101.76 1.86385 -0.770944 0
M  V30 1028 C 102.073 1.82448 0.705129 0
M  V30 1029 O 103.279 2.47815 1.10905 0
M  V30 1030 C 101.735 3.34466 -1.32893 0
M  V30 1031 C 101.343 3.46883 -2.83507 0
M  V30 1032 C 103.087 4.09548 -1.11672 0
M  V30 1033 C 100.994 4.89036 -3.32562 0
M  V30 1034 H 99.9238 0.698181 -0.284709 0
M  V30 1035 H 102.575 1.31583 -1.27899 0
M  V30 1036 H 100.957 3.88859 -0.748662 0
M  V30 1037 H 102.131 3.02663 -3.47465 0
M  V30 1038 H 100.446 2.85232 -3.03368 0
M  V30 1039 H 103.043 5.14434 -1.45814 0
M  V30 1040 H 103.386 4.16264 -0.0549535 0
M  V30 1041 H 103.919 3.61387 -1.66265 0
M  V30 1042 H 100.658 4.87499 -4.38207 0
M  V30 1043 H 100.178 5.3389 -2.73351 0
M  V30 1044 H 101.857 5.57843 -3.2775 0
M  V30 1045 N 101.989 0.842826 1.3317 0
M  V30 1046 C 102.899 0.281444 2.32906 0
M  V30 1047 C 103.915 -0.594587 1.63526 0
M  V30 1048 O 105.091 -0.49777 1.95152 0
M  V30 1049 C 102.156 -0.530929 3.42611 0
M  V30 1050 C 101.217 0.369843 4.27704 0
M  V30 1051 C 100.45 -0.403853 5.3217 0
M  V30 1052 O 100.673 -1.63513 5.46461 0
M  V30 1053 O 99.6069 0.224199 6.01482 0
M  V30 1054 H 103.433 1.10744 2.82789 0
M  V30 1055 H 101.018 0.60545 1.36582 0
M  V30 1056 H 102.9 -0.992437 4.09547 0
M  V30 1057 H 101.575 -1.33392 2.94938 0
M  V30 1058 H 100.482 0.879275 3.6362 0
M  V30 1059 H 101.815 1.13771 4.78871 0
M  V30 1060 N 103.467 -1.45747 0.599634 0
M  V30 1061 C 104.397 -2.33235 -0.111306 0
M  V30 1062 C 105.378 -1.46359 -0.866781 0
M  V30 1063 O 106.563 -1.75146 -0.838904 0
M  V30 1064 C 103.693 -3.28932 -1.11451 0
M  V30 1065 C 102.647 -4.25381 -0.472772 0
M  V30 1066 C 101.973 -5.1071 -1.58365 0
M  V30 1067 C 103.273 -5.18831 0.600948 0
M  V30 1068 H 104.967 -2.92927 0.61919 0
M  V30 1069 H 102.513 -1.40857 0.299215 0
M  V30 1070 H 104.466 -3.89002 -1.62036 0
M  V30 1071 H 103.19 -2.67381 -1.8755 0
M  V30 1072 H 101.849 -3.66598 0.0121472 0
M  V30 1073 H 101.497 -4.45533 -2.33473 0
M  V30 1074 H 101.197 -5.7604 -1.15982 0
M  V30 1075 H 102.721 -5.73647 -2.09194 0
M  V30 1076 H 104.135 -5.73019 0.179491 0
M  V30 1077 H 102.532 -5.92595 0.946076 0
M  V30 1078 H 103.602 -4.6174 1.48068 0
M  V30 1079 N 104.945 -0.338344 -1.53925 0
M  V30 1080 C 105.875 0.51328 -2.27789 0
M  V30 1081 C 106.856 1.107 -1.29149 0
M  V30 1082 O 108.041 1.12937 -1.57984 0
M  V30 1083 C 105.171 1.66697 -3.04679 0
M  V30 1084 C 104.125 1.20183 -4.1078 0
M  V30 1085 C 103.451 2.44363 -4.75595 0
M  V30 1086 C 104.751 0.30605 -5.21403 0
M  V30 1087 H 106.445 -0.102883 -2.99223 0
M  V30 1088 H 103.991 -0.0509219 -1.4391 0
M  V30 1089 H 105.944 2.26915 -3.55088 0
M  V30 1090 H 104.668 2.30995 -2.30887 0
M  V30 1091 H 103.327 0.622499 -3.61276 0
M  V30 1092 H 102.975 3.07057 -3.98403 0
M  V30 1093 H 102.675 2.13925 -5.47275 0
M  V30 1094 H 104.199 3.05317 -5.28786 0
M  V30 1095 H 105.613 0.814929 -5.67478 0
M  V30 1096 H 104.01 0.0937929 -6.00027 0
M  V30 1097 H 105.08 -0.65921 -4.80398 0
M  V30 1098 N 106.423 1.57458 -0.0668435 0
M  V30 1099 C 107.373 2.0896 0.912119 0
M  V30 1100 C 108.357 0.998186 1.26195 0
M  V30 1101 O 109.549 1.26133 1.24175 0
M  V30 1102 C 106.678 2.6508 2.18145 0
M  V30 1103 C 105.764 3.81218 1.85832 0
M  V30 1104 N 106.155 4.90378 1.23948 0
M  V30 1105 C 104.453 3.9042 2.15612 0
M  V30 1106 C 105.154 5.71279 1.09616 0
M  V30 1107 N 104.13 5.19389 1.60423 0
M  V30 1108 H 107.932 2.90749 0.42924 0
M  V30 1109 H 105.446 1.6182 0.137184 0
M  V30 1110 H 107.443 3.0029 2.89192 0
M  V30 1111 H 106.103 1.84736 2.67025 0
M  V30 1112 H 107.114 5.09847 0.909731 0
M  V30 1113 H 103.791 3.21043 2.66903 0
M  V30 1114 H 105.181 6.69085 0.614425 0
M  V30 1115 N 107.901 -0.206675 1.56239 0
M  V30 1116 C 108.811 -1.27686 1.96808 0
M  V30 1117 C 109.827 -1.50455 0.874035 0
M  V30 1118 O 111.003 -1.63295 1.17884 0
M  V30 1119 C 108.068 -2.60358 2.28942 0
M  V30 1120 C 107.129 -2.45762 3.51994 0
M  V30 1121 C 106.362 -3.72108 3.82585 0
M  V30 1122 O 106.585 -4.75776 3.14631 0
M  V30 1123 O 105.519 -3.6833 4.76043 0
M  V30 1124 H 109.345 -0.962593 2.88041 0
M  V30 1125 H 106.93 -0.410746 1.43643 0
M  V30 1126 H 108.812 -3.38687 2.50737 0
M  V30 1127 H 107.487 -2.91435 1.4088 0
M  V30 1128 H 106.394 -1.65584 3.35459 0
M  V30 1129 H 107.727 -2.19621 4.40486 0
M  V30 1130 N 109.379 -1.50304 -0.473955 0
M  V30 1131 C 110.626 -1.6115 -1.22625 0
M  V30 1132 C 110.954 -0.310517 -1.92005 0
M  V30 1133 O 110.209 0.703419 -1.82621 0
M  V30 1134 C 110.508 -2.73938 -2.29549 0
M  V30 1135 C 110.174 -4.14519 -1.7744 0
M  V30 1136 C 108.836 -4.5277 -1.62949 0
M  V30 1137 C 111.188 -5.02392 -1.3875 0
M  V30 1138 C 108.516 -5.76639 -1.08187 0
M  V30 1139 C 110.868 -6.26805 -0.854309 0
M  V30 1140 C 109.532 -6.63861 -0.696011 0
M  V30 1141 H 108.802 -0.589691 -0.448715 0
M  V30 1142 H 111.449 -1.84228 -0.522705 0
M  V30 1143 H 109.754 -2.44937 -3.05799 0
M  V30 1144 H 111.451 -2.79534 -2.87509 0
M  V30 1145 H 108.041 -3.8434 -1.89685 0
M  V30 1146 H 112.225 -4.73474 -1.4878 0
M  V30 1147 H 107.481 -6.04027 -0.946666 0
M  V30 1148 H 111.655 -6.94258 -0.545843 0
M  V30 1149 H 109.282 -7.59722 -0.26952 0
M  V30 1150 N 110.857 0.726932 -1.39834 0
M  V30 1151 C 111.767 1.87131 -1.41489 0
M  V30 1152 C 112.783 1.71239 -0.308757 0
M  V30 1153 O 113.959 1.93701 -0.551529 0
M  V30 1154 C 111.024 3.22811 -1.26468 0
M  V30 1155 C 110.085 3.51039 -2.47124 0
M  V30 1156 C 109.318 4.80245 -2.3281 0
M  V30 1157 O 109.541 5.54537 -1.33585 0
M  V30 1158 O 108.475 5.08554 -3.21957 0
M  V30 1159 H 112.301 1.8869 -2.3797 0
M  V30 1160 H 109.886 0.875837 -1.21035 0
M  V30 1161 H 111.768 4.03877 -1.20255 0
M  V30 1162 H 110.443 3.22005 -0.330862 0
M  V30 1163 H 109.35 2.70027 -2.58914 0
M  V30 1164 H 110.683 3.56632 -3.39227 0
M  V30 1165 N 112.336 1.25143 0.95797 0
M  V30 1166 C 113.564 1.12424 1.73691 0
M  V30 1167 C 113.979 -0.322304 1.86029 0
M  V30 1168 O 113.336 -1.22186 1.35561 0
M  V30 1169 C 113.387 1.76933 3.15241 0
M  V30 1170 O 113.108 3.15932 3.03511 0
M  V30 1171 C 114.609 1.6995 4.09429 0
M  V30 1172 H 111.829 0.3923 0.544373 0
M  V30 1173 H 114.373 1.6544 1.20207 0
M  V30 1174 H 112.528 1.27895 3.6568 0
M  V30 1175 H 112.942 3.47598 3.9278 0
M  V30 1176 H 114.416 2.19753 5.06372 0
M  V30 1177 H 114.893 0.662619 4.34173 0
M  V30 1178 H 115.499 2.18461 3.64904 0
M  V30 1179 N 113.814 -1.1601 1.06675 0
M  V30 1180 C 115.063 -1.85973 0.780818 0
M  V30 1181 C 115.376 -1.82819 -0.695444 0
M  V30 1182 O 116.582 -2.484 -1.09589 0
M  V30 1183 C 115.038 -3.33757 1.34665 0
M  V30 1184 C 114.646 -3.45374 2.85343 0
M  V30 1185 C 116.39 -4.0895 1.13843 0
M  V30 1186 C 114.297 -4.87266 3.35151 0
M  V30 1187 H 113.227 -0.696661 0.288407 0
M  V30 1188 H 115.878 -1.30903 1.28595 0
M  V30 1189 H 114.26 -3.88456 0.769274 0
M  V30 1190 H 115.434 -3.00816 3.49065 0
M  V30 1191 H 113.749 -2.83619 3.04876 0
M  V30 1192 H 116.346 -5.13654 1.4854 0
M  V30 1193 H 116.689 -4.16229 0.0770282 0
M  V30 1194 H 117.222 -3.605 1.68179 0
M  V30 1195 H 113.961 -4.85168 4.40786 0
M  V30 1196 H 113.481 -5.32433 2.76179 0
M  V30 1197 H 115.16 -5.56097 3.30704 0
M  V30 1198 N 115.292 -0.849877 -1.32721 0
M  V30 1199 C 116.703 -0.506188 -1.79707 0
M  V30 1200 C 117.054 0.975627 -1.70223 0
M  V30 1201 O 116.179 1.76078 -1.25799 0
M  V30 1202 C 116.774 -0.912044 -3.26293 0
M  V30 1203 C 115.333 -0.620326 -3.71253 0
M  V30 1204 C 114.48 -1.11439 -2.53922 0
M  V30 1205 H 117.431 -1.03754 -1.20087 0
M  V30 1206 H 117.452 -0.226493 -3.79825 0
M  V30 1207 H 116.964 -1.99057 -3.33164 0
M  V30 1208 H 115.065 0.447674 -3.69901 0
M  V30 1209 H 115.178 -1.18327 -4.64258 0
M  V30 1210 H 113.542 -0.534834 -2.49021 0
M  V30 1211 H 114.325 -2.19992 -2.6355 0
M  V30 1212 N 116.77 1.45427 -0.607355 0
M  V30 1213 C 118.016 2.0254 -0.102607 0
M  V30 1214 C 118.349 1.47478 1.26348 0
M  V30 1215 O 117.624 0.64939 1.83339 0
M  V30 1216 C 117.907 3.60044 -0.0634347 0
M  V30 1217 C 117.76 4.2544 -1.46017 0
M  V30 1218 C 119.079 4.35646 0.624514 0
M  V30 1219 H 116.198 0.73598 -0.0387607 0
M  V30 1220 H 118.84 1.73284 -0.779282 0
M  V30 1221 H 116.99 3.85101 0.512808 0
M  V30 1222 H 118.662 4.11569 -2.08347 0
M  V30 1223 H 116.905 3.83849 -2.02094 0
M  V30 1224 H 117.576 5.34342 -1.385 0
M  V30 1225 H 120.052 4.15882 0.134723 0
M  V30 1226 H 118.928 5.45376 0.621028 0
M  V30 1227 H 119.189 4.08501 1.69055 0
M  V30 1228 N 118.248 0.346503 1.53744 0
M  V30 1229 C 119.178 -0.501193 2.28058 0
M  V30 1230 C 120.159 -1.10014 1.29734 0
M  V30 1231 O 121.344 -1.12097 1.58581 0
M  V30 1232 C 118.474 -1.65078 3.05559 0
M  V30 1233 C 117.428 -1.18003 4.11411 0
M  V30 1234 C 116.754 -2.41837 4.76884 0
M  V30 1235 C 118.054 -0.278394 5.21558 0
M  V30 1236 H 119.748 0.11875 2.99164 0
M  V30 1237 H 117.294 0.0585531 1.43881 0
M  V30 1238 H 119.247 -2.25028 3.56287 0
M  V30 1239 H 117.971 -2.29767 2.32109 0
M  V30 1240 H 116.63 -0.603331 3.61601 0
M  V30 1241 H 116.278 -3.0494 4.00026 0
M  V30 1242 H 115.978 -2.1102 5.48402 0
M  V30 1243 H 117.502 -3.02508 5.30397 0
M  V30 1244 H 118.916 -0.784823 5.67903 0
M  V30 1245 H 117.313 -0.0619707 6.00068 0
M  V30 1246 H 118.383 0.684677 4.80042 0
M  V30 1247 N 119.726 -1.57421 0.075193 0
M  V30 1248 C 120.951 -1.98364 -0.605515 0
M  V30 1249 C 121.376 -0.953383 -1.62149 0
M  V30 1250 O 120.734 0.0806053 -1.81121 0
M  V30 1251 C 120.782 -3.38332 -1.24756 0
M  V30 1252 O 119.886 -3.37959 -2.36342 0
M  V30 1253 H 119.227 -0.645553 -0.155428 0
M  V30 1254 H 121.757 -2.04044 0.150714 0
M  V30 1255 H 121.767 -3.75591 -1.5936 0
M  V30 1256 H 120.442 -4.12846 -0.503129 0
M  V30 1257 H 119.019 -3.12474 -2.03506 0
M  V30 1258 N 121.204 0.198386 -1.56346 0
M  V30 1259 C 122.45 0.920648 -1.80698 0
M  V30 1260 C 122.783 1.83045 -0.648697 0
M  V30 1261 O 122.058 1.91308 0.350925 0
M  V30 1262 C 122.341 1.73971 -3.15287 0
M  V30 1263 C 122.194 0.85485 -4.41602 0
M  V30 1264 C 123.513 2.71296 -3.46535 0
M  V30 1265 H 120.632 0.333261 -0.657348 0
M  V30 1266 H 123.274 0.188198 -1.89066 0
M  V30 1267 H 121.424 2.36416 -3.08285 0
M  V30 1268 H 123.096 0.245362 -4.60647 0
M  V30 1269 H 121.339 0.161398 -4.335 0
M  V30 1270 H 122.01 1.46286 -5.32264 0
M  V30 1271 H 124.486 2.18983 -3.53816 0
M  V30 1272 H 123.362 3.2569 -4.41834 0
M  V30 1273 H 123.623 3.5018 -2.69864 0
M  V30 1274 N 122.682 1.50554 0.465978 0
M  V30 1275 C 123.592 1.72585 1.58907 0
M  V30 1276 C 124.608 0.60911 1.6299 0
M  V30 1277 O 125.784 0.88804 1.80765 0
M  V30 1278 C 122.849 1.81995 2.95091 0
M  V30 1279 C 121.91 3.05751 3.01355 0
M  V30 1280 C 121.143 3.14702 4.31043 0
M  V30 1281 O 121.366 2.30313 5.21835 0
M  V30 1282 O 120.3 4.07468 4.43005 0
M  V30 1283 H 124.126 2.67799 1.43239 0
M  V30 1284 H 121.711 1.34711 0.646013 0
M  V30 1285 H 123.593 1.90335 3.75966 0
M  V30 1286 H 122.268 0.899659 3.10947 0
M  V30 1287 H 121.175 3.02908 2.19539 0
M  V30 1288 H 122.508 3.97375 2.90437 0
M  V30 1289 N 124.16 -0.719506 1.40217 0
M  V30 1290 C 125.09 -1.8465 1.42922 0
M  V30 1291 C 126.071 -1.67599 0.29062 0
M  V30 1292 O 127.256 -1.87688 0.498677 0
M  V30 1293 C 124.386 -3.22565 1.28722 0
M  V30 1294 C 123.34 -3.54281 2.40144 0
M  V30 1295 C 122.666 -4.91298 2.11023 0
M  V30 1296 C 123.966 -3.55676 3.82481 0
M  V30 1297 H 125.66 -1.82644 2.37237 0
M  V30 1298 H 123.206 -0.877305 1.1419 0
M  V30 1299 H 125.159 -4.01095 1.29232 0
M  V30 1300 H 123.883 -3.25137 0.308811 0
M  V30 1301 H 122.542 -2.78088 2.38877 0
M  V30 1302 H 122.19 -4.90468 1.11582 0
M  V30 1303 H 121.89 -5.13485 2.8567 0
M  V30 1304 H 123.414 -5.72166 2.13209 0
M  V30 1305 H 124.828 -4.24254 3.85592 0
M  V30 1306 H 123.225 -3.89388 4.56614 0
M  V30 1307 H 124.295 -2.55144 4.12346 0
M  V30 1308 N 125.638 -1.25649 -0.95132 0
M  V30 1309 C 126.863 -1.13443 -1.73624 0
M  V30 1310 C 127.288 0.307565 -1.85568 0
M  V30 1311 O 126.646 1.22282 -1.33854 0
M  V30 1312 C 126.694 -1.79723 -3.12621 0
M  V30 1313 O 125.798 -1.07912 -3.98031 0
M  V30 1314 H 125.139 -0.395872 -0.533086 0
M  V30 1315 H 127.669 -1.66276 -1.1922 0
M  V30 1316 H 127.679 -1.86141 -3.63064 0
M  V30 1317 H 126.354 -2.84633 -3.03244 0
M  V30 1318 H 124.931 -1.09398 -3.56492 0
M  V30 1319 N 127.117 1.15442 -1.07289 0
M  V30 1320 C 128.528 1.67803 -0.818475 0
M  V30 1321 C 128.879 1.8489 0.656507 0
M  V30 1322 O 128.004 1.55176 1.50829 0
M  V30 1323 C 128.599 3.04805 -1.47917 0
M  V30 1324 C 127.158 3.54245 -1.27229 0
M  V30 1325 C 126.305 2.29986 -1.54925 0
M  V30 1326 H 129.256 0.996646 -1.23502 0
M  V30 1327 H 129.277 3.69702 -0.90005 0
M  V30 1328 H 128.789 2.92336 -2.55267 0
M  V30 1329 H 126.89 3.71956 -0.21899 0
M  V30 1330 H 127.003 4.35723 -1.99203 0
M  V30 1331 H 125.367 2.35496 -0.970242 0
M  V30 1332 H 126.15 2.20105 -2.63455 0
M  V30 1333 N 128.595 0.856903 1.32268 0
M  V30 1334 C 129.505 0.306131 2.32594 0
M  V30 1335 C 130.521 -0.577209 1.64147 0
M  V30 1336 O 131.697 -0.477043 1.95669 0
M  V30 1337 C 128.762 -0.494561 3.43154 0
M  V30 1338 C 127.823 0.415186 4.27288 0
M  V30 1339 C 127.056 -0.347387 5.32568 0
M  V30 1340 O 127.279 -1.57708 5.48165 0
M  V30 1341 O 126.213 0.287982 6.01211 0
M  V30 1342 H 130.039 1.13737 2.81598 0
M  V30 1343 H 127.624 0.619902 1.35932 0
M  V30 1344 H 129.506 -0.948944 4.10576 0
M  V30 1345 H 128.181 -1.30257 2.96336 0
M  V30 1346 H 127.088 0.917793 3.62667 0
M  V30 1347 H 128.421 1.18844 4.77637 0
M  V30 1348 N 130.073 -1.45103 0.615059 0
M  V30 1349 C 131.35 -1.95549 0.0448276 0
M  V30 1350 C 131.73 -1.55737 -1.4251 0
M  V30 1351 O 131.078 -0.823556 -2.13143 0
M  V30 1352 C 131.288 -3.48098 0.250785 0
M  V30 1353 C 132.636 -4.24384 0.135509 0
M  V30 1354 O 133.66 -3.55738 0.181299 0
M  V30 1355 O 132.519 -5.46493 0.0268878 0
M  V30 1356 H 129.613 -0.8264 -0.0314845 0
M  V30 1357 H 132.159 -1.55232 0.685642 0
M  V30 1358 H 130.931 -3.7007 1.27139 0
M  V30 1359 H 130.554 -3.95323 -0.424937 0
M  V30 1360 N 131.551 -0.354651 -1.53558 0
M  V30 1361 C 132.797 0.238797 -2.01389 0
M  V30 1362 C 133.13 1.49309 -1.2418 0
M  V30 1363 O 132.405 1.91638 -0.332457 0
M  V30 1364 C 132.688 0.541771 -3.56001 0
M  V30 1365 C 132.541 -0.725388 -4.43912 0
M  V30 1366 C 133.86 1.34685 -4.18984 0
M  V30 1367 H 130.979 0.0853177 -0.732045 0
M  V30 1368 H 133.621 -0.477384 -1.83905 0
M  V30 1369 H 131.771 1.15189 -3.71031 0
M  V30 1370 H 133.443 -1.36313 -4.407 0
M  V30 1371 H 131.686 -1.34801 -4.12324 0
M  V30 1372 H 132.357 -0.468505 -5.50008 0
M  V30 1373 H 134.833 0.830837 -4.07721 0
M  V30 1374 H 133.709 1.52759 -5.27215 0
M  V30 1375 H 133.97 2.35221 -3.74331 0
M  V30 1376 N 133.029 1.57378 -0.0835403 0
M  V30 1377 C 134.306 1.85363 0.624507 0
M  V30 1378 C 134.686 0.978239 1.87066 0
M  V30 1379 O 134.034 0.0475908 2.2845 0
M  V30 1380 C 134.244 3.35795 0.950947 0
M  V30 1381 C 135.592 4.03581 1.31939 0
M  V30 1382 O 136.616 3.40609 1.04232 0
M  V30 1383 O 135.475 5.14672 1.83779 0
M  V30 1384 H 132.569 0.766162 0.311329 0
M  V30 1385 H 135.115 1.69307 -0.115362 0
M  V30 1386 H 133.887 3.91244 0.0663899 0
M  V30 1387 H 133.51 3.57154 1.74719 0
M  V30 1388 N 134.507 -0.190092 1.56449 0
M  V30 1389 C 135.47 -1.21925 1.9408 0
M  V30 1390 C 136.47 -1.38176 0.822431 0
M  V30 1391 O 137.66 -1.35903 1.08977 0
M  V30 1392 C 134.792 -2.58773 2.21922 0
M  V30 1393 H 135.985 -0.897464 2.86157 0
M  V30 1394 H 133.538 -0.43181 1.50217 0
M  V30 1395 H 134.273 -2.95998 1.32499 0
M  V30 1396 H 134.058 -2.48348 3.03424 0
M  V30 1397 H 135.548 -3.32978 2.52022 0
M  V30 1398 N 135.985 -1.50799 -0.457987 0
M  V30 1399 C 136.915 -1.73553 -1.5621 0
M  V30 1400 C 137.896 -0.584774 -1.59732 0
M  V30 1401 O 139.081 -0.825314 -1.7579 0
M  V30 1402 C 136.211 -1.84169 -2.94447 0
M  V30 1403 C 135.165 -2.99461 -3.0579 0
M  V30 1404 C 134.491 -2.95235 -4.45803 0
M  V30 1405 C 135.791 -4.39766 -2.81786 0
M  V30 1406 H 137.485 -2.66 -1.37421 0
M  V30 1407 H 135.031 -1.28002 -0.659662 0
M  V30 1408 H 136.984 -1.98672 -3.71628 0
M  V30 1409 H 135.708 -0.883545 -3.14422 0
M  V30 1410 H 134.367 -2.8463 -2.31044 0
M  V30 1411 H 134.015 -1.97239 -4.62715 0
M  V30 1412 H 133.715 -3.72642 -4.54326 0
M  V30 1413 H 135.239 -3.11803 -5.24987 0
M  V30 1414 H 136.653 -4.55054 -3.4871 0
M  V30 1415 H 135.05 -5.18722 -3.0174 0
M  V30 1416 H 136.12 -4.51229 -1.7754 0
M  V30 1417 N 137.463 0.71206 -1.40597 0
M  V30 1418 C 138.373 1.8562 -1.43466 0
M  V30 1419 C 139.389 1.70902 -0.326902 0
M  V30 1420 O 140.565 1.93105 -0.572043 0
M  V30 1421 C 137.63 3.21451 -1.29884 0
M  V30 1422 C 136.691 3.48398 -2.50833 0
M  V30 1423 C 135.924 4.77749 -2.3789 0
M  V30 1424 O 136.147 5.53089 -1.39459 0
M  V30 1425 O 135.081 5.05111 -3.27333 0
M  V30 1426 H 138.907 1.86155 -2.39958 0
M  V30 1427 H 136.492 0.86295 -1.21957 0
M  V30 1428 H 138.374 4.02579 -1.24531 0
M  V30 1429 H 137.049 3.21636 -0.364997 0
M  V30 1430 H 135.956 2.67265 -2.61763 0
M  V30 1431 H 137.289 3.53014 -3.4299 0
M  V30 1432 N 138.941 1.26152 0.944643 0
M  V30 1433 C 139.871 1.09902 2.06019 0
M  V30 1434 C 140.852 0.00519538 1.70099 0
M  V30 1435 O 142.037 0.176583 1.93396 0
M  V30 1436 C 139.167 0.727562 3.39594 0
M  V30 1437 C 138.121 1.77274 3.89561 0
M  V30 1438 C 137.447 1.25569 5.19747 0
M  V30 1439 C 138.747 3.17357 4.14827 0
M  V30 1440 H 140.441 2.03217 2.19871 0
M  V30 1441 H 137.987 0.978452 1.05652 0
M  V30 1442 H 139.94 0.600777 4.17095 0
M  V30 1443 H 138.664 -0.241287 3.25707 0
M  V30 1444 H 137.323 1.88814 3.14237 0
M  V30 1445 H 136.971 0.276783 5.02238 0
M  V30 1446 H 136.671 1.95433 5.54148 0
M  V30 1447 H 138.195 1.1415 5.99835 0
M  V30 1448 H 139.609 3.08914 4.82954 0
M  V30 1449 H 138.006 3.84781 4.60504 0
M  V30 1450 H 139.076 3.63673 3.20734 0
M  V30 1451 N 140.419 -1.14872 1.07899 0
M  V30 1452 C 141.696 -1.81928 0.71845 0
M  V30 1453 C 142.076 -1.95417 -0.798455 0
M  V30 1454 O 141.424 -1.50997 -1.715 0
M  V30 1455 C 141.634 -3.17937 1.43935 0
M  V30 1456 C 142.982 -3.93501 1.59506 0
M  V30 1457 O 144.006 -3.27509 1.40058 0
M  V30 1458 O 142.865 -5.1183 1.91551 0
M  V30 1459 H 139.959 -0.78628 0.256305 0
M  V30 1460 H 142.505 -1.21934 1.18026 0
M  V30 1461 H 141.277 -3.0325 2.47295 0
M  V30 1462 H 140.9 -3.85619 0.968687 0
M  V30 1463 N 141.898 -0.863906 -1.31812 0
M  V30 1464 C 143.309 -0.52522 -1.7916 0
M  V30 1465 C 143.66 0.957518 -1.71248 0
M  V30 1466 O 142.785 1.74734 -1.27659 0
M  V30 1467 C 143.38 -0.9466 -3.25307 0
M  V30 1468 C 141.939 -0.659668 -3.70574 0
M  V30 1469 C 141.086 -1.14126 -2.52726 0
M  V30 1470 H 144.037 -1.05022 -1.1898 0
M  V30 1471 H 144.058 -0.266766 -3.79564 0
M  V30 1472 H 143.57 -2.02579 -3.31034 0
M  V30 1473 H 141.671 0.408416 -3.70355 0
M  V30 1474 H 141.784 -1.23245 -4.62977 0
M  V30 1475 H 140.148 -0.561216 -2.4844 0
M  V30 1476 H 140.931 -2.22775 -2.61201 0
M  V30 1477 N 143.376 1.44774 -0.622745 0
M  V30 1478 C 144.339 2.29069 0.0774015 0
M  V30 1479 C 145.339 1.4059 0.780461 0
M  V30 1480 O 146.529 1.62551 0.626322 0
M  V30 1481 C 143.661 3.21974 1.12006 0
M  V30 1482 H 144.854 2.92459 -0.663901 0
M  V30 1483 H 142.407 1.51548 -0.382486 0
M  V30 1484 H 143.142 2.63417 1.89162 0
M  V30 1485 H 142.927 3.87168 0.619951 0
M  V30 1486 H 144.417 3.85318 1.60995 0
M  V30 1487 N 144.854 0.36279 1.53368 0
M  V30 1488 C 146.103 -0.22888 2.00397 0
M  V30 1489 C 146.416 -1.50096 1.25421 0
M  V30 1490 O 147.622 -2.17106 1.63025 0
M  V30 1491 C 146.078 -0.458417 3.56969 0
M  V30 1492 C 145.686 0.798877 4.4082 0
M  V30 1493 C 147.43 -1.00789 4.12361 0
M  V30 1494 C 145.337 0.539078 5.88938 0
M  V30 1495 H 144.267 -0.089305 0.748693 0
M  V30 1496 H 146.918 0.481099 1.77081 0
M  V30 1497 H 145.3 -1.22959 3.76427 0
M  V30 1498 H 146.474 1.57262 4.33134 0
M  V30 1499 H 144.789 1.27137 3.96516 0
M  V30 1500 H 147.386 -1.21754 5.20653 0
M  V30 1501 H 147.729 -1.9692 3.66781 0
M  V30 1502 H 148.262 -0.296961 3.9669 0
M  V30 1503 H 145.001 1.47064 6.3879 0
M  V30 1504 H 144.521 -0.196222 5.99479 0
M  V30 1505 H 146.2 0.163542 6.46793 0
M  V30 1506 N 146.332 -1.57332 0.0918853 0
M  V30 1507 C 147.557 -1.98995 -0.584442 0
M  V30 1508 C 147.982 -0.970528 -1.61128 0
M  V30 1509 O 147.34 0.0613904 -1.81196 0
M  V30 1510 C 147.388 -3.39636 -1.21161 0
M  V30 1511 O 146.492 -3.40447 -2.32744 0
M  V30 1512 H 145.833 -0.647165 -0.148572 0
M  V30 1513 H 148.363 -2.03873 0.172347 0
M  V30 1514 H 148.373 -3.7726 -1.55367 0
M  V30 1515 H 147.048 -4.13356 -0.459313 0
M  V30 1516 H 145.625 -3.14614 -2.0018 0
M  V30 1517 N 147.81 0.181792 -1.56548 0
M  V30 1518 C 149.04 0.914618 -1.85252 0
M  V30 1519 C 149.448 1.76791 -0.673914 0
M  V30 1520 O 148.791 1.80009 0.366416 0
M  V30 1521 C 148.853 1.85019 -3.08234 0
M  V30 1522 C 148.517 1.17754 -4.41569 0
M  V30 1523 C 149.514 0.548035 -5.17003 0
M  V30 1524 C 147.199 1.17742 -4.88305 0
M  V30 1525 C 149.193 -0.0726128 -6.37359 0
M  V30 1526 C 146.88 0.552946 -6.08593 0
M  V30 1527 C 147.878 -0.070978 -6.82963 0
M  V30 1528 O 147.566 -0.685635 -8.00971 0
M  V30 1529 H 147.298 0.271695 -0.618998 0
M  V30 1530 H 149.852 0.189944 -2.0452 0
M  V30 1531 H 148.082 2.61491 -2.84885 0
M  V30 1532 H 149.771 2.45195 -3.23472 0
M  V30 1533 H 150.537 0.540174 -4.81982 0
M  V30 1534 H 146.416 1.65246 -4.30366 0
M  V30 1535 H 149.96 -0.560213 -6.95347 0
M  V30 1536 H 145.857 0.558354 -6.43081 0
M  V30 1537 H 146.625 -0.58385 -8.16415 0
M  V30 1538 N 149.288 1.51039 0.449983 0
M  V30 1539 C 150.537 1.62317 1.19733 0
M  V30 1540 C 150.85 0.339101 1.92638 0
M  V30 1541 O 152.056 0.331069 2.69474 0
M  V30 1542 C 150.512 2.86608 2.17678 0
M  V30 1543 C 150.12 4.21972 1.50479 0
M  V30 1544 C 151.864 3.07239 2.92924 0
M  V30 1545 C 149.771 5.37426 2.46834 0
M  V30 1546 H 148.701 0.604532 0.450619 0
M  V30 1547 H 151.352 1.77494 0.465625 0
M  V30 1548 H 149.734 2.65037 2.94231 0
M  V30 1549 H 150.908 4.53878 0.795716 0
M  V30 1550 H 149.223 4.07117 0.874344 0
M  V30 1551 H 151.82 3.90668 3.65079 0
M  V30 1552 H 152.163 2.19807 3.5354 0
M  V30 1553 H 152.696 3.29091 2.23481 0
M  V30 1554 H 149.435 6.27079 1.90926 0
M  V30 1555 H 148.955 5.09912 3.15832 0
M  V30 1556 H 150.634 5.68862 3.08228 0
M  V30 1557 N 150.766 -0.704594 1.40972 0
M  V30 1558 C 151.676 -1.84856 1.44448 0
M  V30 1559 C 152.692 -1.70726 0.335961 0
M  V30 1560 O 153.868 -1.92799 0.582276 0
M  V30 1561 C 150.933 -3.20758 1.31587 0
M  V30 1562 C 149.994 -3.47063 2.52677 0
M  V30 1563 C 149.227 -4.76481 2.4042 0
M  V30 1564 O 149.45 -5.52341 1.42391 0
M  V30 1565 O 148.384 -5.03367 3.30007 0
M  V30 1566 H 152.21 -1.8488 2.40942 0
M  V30 1567 H 149.795 -0.85647 1.22413 0
M  V30 1568 H 151.677 -4.01913 1.26665 0
M  V30 1569 H 150.352 -3.21438 0.382049 0
M  V30 1570 H 149.259 -2.65873 2.63177 0
M  V30 1571 H 150.592 -3.5119 3.44858 0
M  V30 1572 N 152.244 -1.26651 -0.937939 0
M  V30 1573 C 153.154 -1.10276 -2.07066 0
M  V30 1574 C 154.17 -0.0354197 -1.73964 0
M  V30 1575 O 155.346 -0.239816 -1.99967 0
M  V30 1576 C 152.411 -0.740887 -3.38691 0
M  V30 1577 C 151.472 -1.88799 -3.85556 0
M  V30 1578 C 150.705 -1.54329 -5.10899 0
M  V30 1579 O 150.928 -0.446494 -5.6865 0
M  V30 1580 O 149.862 -2.37911 -5.52885 0
M  V30 1581 H 153.688 -2.05309 -2.23789 0
M  V30 1582 H 151.273 -1.05743 -1.0554 0
M  V30 1583 H 153.155 -0.55195 -4.1777 0
M  V30 1584 H 151.83 0.180022 -3.23199 0
M  V30 1585 H 150.737 -2.13191 -3.07409 0
M  V30 1586 H 152.07 -2.78874 -4.05574 0
M  V30 1587 N 153.722 1.14298 -1.08507 0
M  V30 1588 C 154.999 1.81544 -0.728088 0
M  V30 1589 C 155.379 1.95838 0.78808 0
M  V30 1590 O 154.727 1.51904 1.70697 0
M  V30 1591 C 154.937 3.17169 -1.45619 0
M  V30 1592 C 156.285 3.9265 -1.61591 0
M  V30 1593 O 157.309 3.26762 -1.41793 0
M  V30 1594 O 156.168 5.10807 -1.94263 0
M  V30 1595 H 153.262 0.78491 -0.260471 0
M  V30 1596 H 155.808 1.21307 -1.18671 0
M  V30 1597 H 154.58 3.01934 -2.489 0
M  V30 1598 H 154.203 3.851 -0.989124 0
M  V30 1599 N 155.201 0.870884 1.31352 0
M  V30 1600 C 156.164 0.332243 2.26779 0
M  V30 1601 C 157.164 -0.517302 1.52252 0
M  V30 1602 O 158.354 -0.326477 1.71113 0
M  V30 1603 C 155.486 -0.528066 3.36785 0
M  V30 1604 H 156.679 1.17469 2.75937 0
M  V30 1605 H 154.232 0.64655 1.423 0
M  V30 1606 H 154.967 -1.39167 2.92922 0
M  V30 1607 H 154.752 0.0802582 3.92018 0
M  V30 1608 H 156.242 -0.897179 4.07849 0
M  V30 1609 N 156.679 -1.44442 0.630414 0
M  V30 1610 C 157.589 -2.34476 -0.0761693 0
M  V30 1611 C 158.605 -1.52576 -0.836449 0
M  V30 1612 O 159.781 -1.85307 -0.788874 0
M  V30 1613 C 156.846 -3.30545 -1.04599 0
M  V30 1614 C 155.907 -4.28352 -0.28516 0
M  V30 1615 C 155.14 -5.19831 -1.20878 0
M  V30 1616 O 155.363 -5.15223 -2.44747 0
M  V30 1617 O 154.297 -5.97892 -0.693491 0
M  V30 1618 H 158.123 -2.96345 0.664324 0
M  V30 1619 H 155.708 -1.44203 0.39061 0
M  V30 1620 H 157.59 -3.89681 -1.60396 0
M  V30 1621 H 156.265 -2.7121 -1.76711 0
M  V30 1622 H 155.172 -3.72764 0.315837 0
M  V30 1623 H 156.505 -4.90605 0.395924 0
M  V30 1624 N 158.157 -0.370918 -1.53173 0
M  V30 1625 C 159.403 0.217423 -2.01631 0
M  V30 1626 C 159.736 1.47983 -1.25756 0
M  V30 1627 O 159.011 1.91274 -0.352764 0
M  V30 1628 C 159.294 0.503982 -3.56556 0
M  V30 1629 C 159.147 -0.77243 -4.43118 0
M  V30 1630 C 160.466 1.30234 -4.20389 0
M  V30 1631 H 157.585 0.0775486 -0.732909 0
M  V30 1632 H 160.227 -0.496863 -1.83388 0
M  V30 1633 H 158.377 1.11248 -3.72231 0
M  V30 1634 H 160.049 -1.4098 -4.39229 0
M  V30 1635 H 158.292 -1.39167 -4.10871 0
M  V30 1636 H 158.963 -0.526815 -5.4948 0
M  V30 1637 H 161.439 0.787546 -4.08579 0
M  V30 1638 H 160.315 1.47158 -5.28806 0
M  V30 1639 H 160.576 2.31237 -3.76805 0
M  V30 1640 N 159.635 1.57281 -0.100228 0
M  V30 1641 C 160.863 1.98879 0.570509 0
M  V30 1642 C 161.278 0.979476 1.61405 0
M  V30 1643 O 160.635 -0.0302288 1.82475 0
M  V30 1644 C 160.686 3.4052 1.2136 0
M  V30 1645 O 160.407 4.37588 0.211786 0
M  V30 1646 C 161.908 3.97149 1.96945 0
M  V30 1647 H 159.128 0.653428 0.152555 0
M  V30 1648 H 161.672 2.03697 -0.18103 0
M  V30 1649 H 159.827 3.367 1.91603 0
M  V30 1650 H 160.241 5.20118 0.676607 0
M  V30 1651 H 161.715 4.98393 2.37294 0
M  V30 1652 H 162.192 3.3525 2.83733 0
M  V30 1653 H 162.798 4.04458 1.31506 0
M  V30 1654 N 161.113 -0.173488 1.56642 0
M  V30 1655 C 162.341 -0.906095 1.86004 0
M  V30 1656 C 162.756 -1.75921 0.685355 0
M  V30 1657 O 162.113 -1.79198 -0.345578 0
M  V30 1658 C 162.164 -1.78462 3.14378 0
M  V30 1659 O 161.885 -0.965914 4.27319 0
M  V30 1660 C 163.386 -2.62707 3.57071 0
M  V30 1661 H 160.606 -0.263341 0.617165 0
M  V30 1662 H 163.15 -0.174236 2.03756 0
M  V30 1663 H 161.305 -2.46984 2.98459 0
M  V30 1664 H 161.719 -1.56655 5.00559 0
M  V30 1665 H 163.193 -3.19969 4.49804 0
M  V30 1666 H 163.67 -3.37472 2.81086 0
M  V30 1667 H 164.276 -1.99521 3.75595 0
M  V30 1668 N 162.591 -1.51276 -0.441967 0
M  V30 1669 C 163.524 -1.66933 -1.55591 0
M  V30 1670 C 164.502 -0.516958 -1.54163 0
M  V30 1671 O 165.686 -0.740209 -1.73358 0
M  V30 1672 C 162.813 -1.67866 -2.94174 0
M  V30 1673 C 161.859 -2.89013 -3.13646 0
M  V30 1674 S 162.692 -4.49897 -2.90436 0
M  V30 1675 C 163.848 -4.53568 -4.31308 0
M  V30 1676 H 164.081 -2.61155 -1.42076 0
M  V30 1677 H 161.614 -1.40902 -0.631341 0
M  V30 1678 H 163.572 -1.69089 -3.74058 0
M  V30 1679 H 162.233 -0.748296 -3.05056 0
M  V30 1680 H 161.426 -2.86054 -4.14957 0
M  V30 1681 H 161.028 -2.85509 -2.4158 0
M  V30 1682 H 163.32 -4.28924 -5.24434 0
M  V30 1683 H 164.263 -5.55355 -4.39303 0
M  V30 1684 H 164.671 -3.82943 -4.14747 0
M  V30 1685 N 164.069 0.697108 -1.41344 0
M  V30 1686 C 165.032 1.79281 -1.42797 0
M  V30 1687 C 166.032 1.57607 -0.318837 0
M  V30 1688 O 167.222 1.64309 -0.578642 0
M  V30 1689 C 164.354 3.17632 -1.23785 0
M  V30 1690 H 165.547 1.79385 -2.40335 0
M  V30 1691 H 163.1 0.904582 -1.27464 0
M  V30 1692 H 163.835 3.23167 -0.270814 0
M  V30 1693 H 163.62 3.34765 -2.04144 0
M  V30 1694 H 165.11 3.97617 -1.27633 0
M  V30 1695 N 165.547 1.27147 0.931209 0
M  V30 1696 C 166.479 1.05364 2.03546 0
M  V30 1697 C 167.492 0.0108438 1.62796 0
M  V30 1698 O 168.681 0.25202 1.76712 0
M  V30 1699 C 165.781 0.575566 3.33977 0
M  V30 1700 C 164.954 1.68985 4.03439 0
M  V30 1701 C 164.013 1.20813 5.12143 0
M  V30 1702 O 163.039 1.90712 5.363 0
M  V30 1703 N 164.241 0.0618851 5.80467 0
M  V30 1704 H 167.006 2.00454 2.22796 0
M  V30 1705 H 164.567 1.18666 1.10136 0
M  V30 1706 H 166.559 0.237264 4.04004 0
M  V30 1707 H 165.129 -0.282016 3.11325 0
M  V30 1708 H 164.349 2.19861 3.27192 0
M  V30 1709 H 165.637 2.4378 4.46597 0
M  V30 1710 H 165.035 -0.521621 5.6329 0
M  V30 1711 H 163.592 -0.217264 6.51438 0
M  V30 1712 N 167.025 -1.13721 1.09112 0
M  V30 1713 C 168.25 -1.89314 0.847053 0
M  V30 1714 C 168.675 -1.78416 -0.595774 0
M  V30 1715 O 168.033 -1.12942 -1.41823 0
M  V30 1716 C 168.081 -3.3701 1.28284 0
M  V30 1717 O 167.185 -4.10054 0.439267 0
M  V30 1718 H 166.526 -0.588745 0.307044 0
M  V30 1719 H 169.056 -1.43902 1.45442 0
M  V30 1720 H 169.066 -3.87834 1.26683 0
M  V30 1721 H 167.741 -3.4426 2.33363 0
M  V30 1722 H 166.318 -3.69266 0.519312 0
M  V30 1723 N 168.503 -0.877838 -1.30888 0
M  V30 1724 C 169.749 -0.493426 -1.96706 0
M  V30 1725 C 170.082 0.953504 -1.6918 0
M  V30 1726 O 169.357 1.67266 -0.992594 0
M  V30 1727 C 169.64 -0.760429 -3.51979 0
M  V30 1728 C 169.493 -2.25747 -3.89048 0
M  V30 1729 C 170.812 -0.232148 -4.39487 0
M  V30 1730 H 167.931 -0.180746 -0.714493 0
M  V30 1731 H 170.573 -1.10052 -1.54882 0
M  V30 1732 H 168.723 -0.243715 -3.87735 0
M  V30 1733 H 170.395 -2.84204 -3.63354 0
M  V30 1734 H 168.638 -2.72694 -3.37373 0
M  V30 1735 H 169.309 -2.39491 -4.97341 0
M  V30 1736 H 171.785 -0.674314 -4.106 0
M  V30 1737 H 170.661 -0.448355 -5.47066 0
M  V30 1738 H 170.922 0.866297 -4.33529 0
M  V30 1739 N 169.982 1.44106 -0.638065 0
M  V30 1740 C 171.393 1.85316 -0.226894 0
M  V30 1741 C 171.744 1.53399 1.22324 0
M  V30 1742 O 170.869 0.975463 1.93167 0
M  V30 1743 C 171.464 3.3637 -0.405013 0
M  V30 1744 C 170.023 3.76369 -0.0482902 0
M  V30 1745 C 169.17 2.67921 -0.715108 0
M  V30 1746 H 172.121 1.34474 -0.842764 0
M  V30 1747 H 172.142 3.7885 0.354 0
M  V30 1748 H 171.654 3.59569 -1.46053 0
M  V30 1749 H 169.755 3.58784 1.00522 0
M  V30 1750 H 169.868 4.76856 -0.463187 0
M  V30 1751 H 168.232 2.54259 -0.149753 0
M  V30 1752 H 169.015 2.93951 -1.77335 0
M  V30 1753 N 171.46 0.379036 1.52974 0
M  V30 1754 C 172.706 -0.199244 2.02422 0
M  V30 1755 C 173.061 -1.4532 1.26095 0
M  V30 1756 O 172.354 -1.88377 0.34996 0
M  V30 1757 C 172.548 -0.53096 3.53434 0
M  V30 1758 C 172.377 0.689298 4.44386 0
M  V30 1759 C 171.147 1.20546 4.9071 0
M  V30 1760 C 173.345 1.55856 4.90116 0
M  V30 1761 N 171.327 2.38434 5.65705 0
M  V30 1762 C 172.698 2.58396 5.63588 0
M  V30 1763 C 174.753 1.57986 4.7217 0
M  V30 1764 C 173.456 3.62939 6.21022 0
M  V30 1765 C 175.482 2.6143 5.30479 0
M  V30 1766 C 174.844 3.62693 6.03849 0
M  V30 1767 H 170.943 -0.0352671 0.781204 0
M  V30 1768 H 173.527 0.526614 1.87443 0
M  V30 1769 H 171.698 -1.22588 3.68547 0
M  V30 1770 H 173.43 -1.0955 3.89591 0
M  V30 1771 H 170.185 0.768022 4.67331 0
M  V30 1772 H 170.609 2.98055 6.07859 0
M  V30 1773 H 175.251 0.810475 4.14959 0
M  V30 1774 H 172.969 4.40751 6.77321 0
M  V30 1775 H 176.555 2.63949 5.18481 0
M  V30 1776 H 175.435 4.41424 6.48163 0
M  V30 1777 N 172.938 -1.57226 0.108567 0
M  V30 1778 C 174.186 -1.94448 -0.550853 0
M  V30 1779 C 174.507 -0.992074 -1.67878 0
M  V30 1780 O 173.777 -0.0465 -1.95845 0
M  V30 1781 H 172.357 -0.717897 -0.206479 0
M  V30 1782 H 175.019 -1.94112 0.175062 0
M  V30 1783 H 174.115 -2.97218 -0.952259 0
M  V30 1784 N 174.416 0.165178 -1.56732 0
M  V30 1785 C 175.665 0.879143 -1.81532 0
M  V30 1786 C 175.978 1.83144 -0.686842 0
M  V30 1787 O 177.184 2.58823 -0.819944 0
M  V30 1788 C 175.64 1.61388 -3.21686 0
M  V30 1789 C 175.248 0.704904 -4.4242 0
M  V30 1790 C 176.992 2.3157 -3.55774 0
M  V30 1791 C 174.899 1.44022 -5.73595 0
M  V30 1792 H 173.829 0.332033 -0.676957 0
M  V30 1793 H 176.48 0.132008 -1.83025 0
M  V30 1794 H 174.862 2.40599 -3.14529 0
M  V30 1795 H 176.036 -0.0506815 -4.60772 0
M  V30 1796 H 174.351 0.112419 -4.16248 0
M  V30 1797 H 176.948 2.8719 -4.51028 0
M  V30 1798 H 177.291 3.07201 -2.8095 0
M  V30 1799 H 177.824 1.59297 -3.64513 0
M  V30 1800 H 174.563 0.72612 -6.51466 0
M  V30 1801 H 174.083 2.16898 -5.5921 0
M  V30 1802 H 175.762 1.98606 -6.15764 0
M  V30 1803 N 175.894 1.51508 0.433938 0
M  V30 1804 C 177.119 1.68443 1.21003 0
M  V30 1805 C 177.544 0.382636 1.84167 0
M  V30 1806 O 176.902 -0.65755 1.68956 0
M  V30 1807 C 176.95 2.80405 2.26727 0
M  V30 1808 O 176.054 2.44245 3.32292 0
M  V30 1809 H 175.395 0.561536 0.354363 0
M  V30 1810 H 177.925 1.9809 0.512024 0
M  V30 1811 H 177.935 3.0459 2.71457 0
M  V30 1812 H 176.61 3.74867 1.80132 0
M  V30 1813 H 175.187 2.30644 2.93015 0
M  V30 1814 N 177.372 -0.689602 1.41712 0
M  V30 1815 C 178.788 -1.00093 1.24312 0
M  V30 1816 C 178.988 -2.01036 0.136729 0
M  V30 1817 O 178.044 -2.47562 -0.496918 0
M  V30 1818 C 179.357 -1.51985 2.59463 0
M  V30 1819 C 180.905 -1.63838 2.66695 0
M  V30 1820 C 181.38 -2.1913 4.02177 0
M  V30 1821 N 182.871 -2.26483 4.04054 0
M  V30 1822 C 183.606 -2.70306 5.0569 0
M  V30 1823 N 183.102 -3.13691 6.17713 0
M  V30 1824 N 184.895 -2.69923 4.9305 0
M  V30 1825 H 177.046 -0.0210029 2.1239 0
M  V30 1826 H 179.309 -0.0718733 0.945272 0
M  V30 1827 H 179.015 -0.85269 3.41207 0
M  V30 1828 H 178.889 -2.50103 2.82362 0
M  V30 1829 H 181.276 -2.29664 1.85306 0
M  V30 1830 H 181.357 -0.642492 2.476 0
M  V30 1831 H 181.001 -1.53918 4.84016 0
M  V30 1832 H 180.931 -3.19482 4.18615 0
M  V30 1833 H 183.422 -1.95874 3.23174 0
M  V30 1834 H 183.735 -3.45773 6.9113 0
M  V30 1835 H 182.08 -3.11585 6.21241 0
M  V30 1836 H 185.271 -2.35382 4.04614 0
M  V30 1837 H 185.444 -3.03758 5.72394 0
M  V30 1838 N 178.85 -1.27639 -0.924453 0
M  V30 1839 C 180.096 -1.14336 -1.67497 0
M  V30 1840 C 180.429 0.309465 -1.91718 0
M  V30 1841 O 179.704 1.22608 -1.50989 0
M  V30 1842 C 179.987 -1.93096 -3.0395 0
M  V30 1843 C 179.84 -3.46381 -2.8695 0
M  V30 1844 C 181.159 -1.73798 -4.0433 0
M  V30 1845 H 178.278 -0.416728 -0.607871 0
M  V30 1846 H 180.92 -1.56832 -1.07256 0
M  V30 1847 H 179.07 -1.56982 -3.55372 0
M  V30 1848 H 180.742 -3.92343 -2.42621 0
M  V30 1849 H 178.985 -3.72557 -2.22225 0
M  V30 1850 H 179.656 -3.96735 -3.83804 0
M  V30 1851 H 182.132 -2.05293 -3.61931 0
M  V30 1852 H 181.008 -2.31294 -4.97789 0
M  V30 1853 H 181.269 -0.686725 -4.36734 0
M  V30 1854 N 180.328 1.1314 -1.09713 0
M  V30 1855 C 181.26 2.18343 -0.697056 0
M  V30 1856 C 182.273 1.60669 0.262551 0
M  V30 1857 O 183.462 1.78435 0.0481527 0
M  V30 1858 C 180.562 3.38899 -0.00684728 0
M  V30 1859 C 179.735 4.26078 -0.988741 0
M  V30 1860 C 178.794 5.25155 -0.331394 0
M  V30 1861 O 177.82 5.60701 -0.979926 0
M  V30 1862 N 179.022 5.73271 0.913261 0
M  V30 1863 H 181.787 2.5328 -1.60216 0
M  V30 1864 H 179.348 1.28491 -0.984971 0
M  V30 1865 H 181.34 4.02255 0.444191 0
M  V30 1866 H 179.91 3.02175 0.800551 0
M  V30 1867 H 179.13 3.59453 -1.61826 0
M  V30 1868 H 180.418 4.81178 -1.65364 0
M  V30 1869 H 179.816 5.46544 1.45966 0
M  V30 1870 H 178.373 6.3855 1.30757 0
M  V30 1871 N 181.806 0.884767 1.30421 0
M  V30 1872 C 182.769 0.356277 2.26414 0
M  V30 1873 C 183.769 -0.501124 1.52792 0
M  V30 1874 O 184.959 -0.30831 1.7145 0
M  V30 1875 C 182.091 -0.492316 3.37326 0
M  V30 1876 H 183.284 1.20389 2.74675 0
M  V30 1877 H 180.837 0.661607 1.41607 0
M  V30 1878 H 181.572 -1.36052 2.94381 0
M  V30 1879 H 181.357 0.121832 3.91911 0
M  V30 1880 H 182.847 -0.853871 4.08777 0
M  V30 1881 N 183.284 -1.43765 0.645699 0
M  V30 1882 C 184.695 -1.85193 0.236719 0
M  V30 1883 C 185.046 -1.54045 -1.21509 0
M  V30 1884 O 184.171 -0.985694 -1.92647 0
M  V30 1885 C 184.766 -3.36151 0.422845 0
M  V30 1886 C 183.325 -3.76338 0.0682492 0
M  V30 1887 C 182.472 -2.67538 0.729306 0
M  V30 1888 H 185.423 -1.34025 0.849883 0
M  V30 1889 H 185.444 -3.79032 -0.333904 0
M  V30 1890 H 184.956 -3.5879 1.47958 0
M  V30 1891 H 183.057 -3.59312 -0.986179 0
M  V30 1892 H 183.17 -4.76603 0.488469 0
M  V30 1893 H 181.534 -2.54176 0.163235 0
M  V30 1894 H 182.317 -2.93006 1.78892 0
M  V30 1895 N 184.763 -0.387143 -1.52771 0
M  V30 1896 C 185.726 0.436939 -2.24997 0
M  V30 1897 C 186.726 0.991991 -1.26555 0
M  V30 1898 O 187.916 0.874335 -1.50669 0
M  V30 1899 C 185.048 1.61281 -3.00335 0
M  V30 1900 H 186.241 -0.195365 -2.99263 0
M  V30 1901 H 183.794 -0.139218 -1.55679 0
M  V30 1902 H 184.529 2.2826 -2.30364 0
M  V30 1903 H 184.314 1.22154 -3.72587 0
M  V30 1904 H 185.804 2.19629 -3.5518 0
M  V30 1905 N 186.241 1.57166 -0.116904 0
M  V30 1906 C 187.204 2.14039 0.819742 0
M  V30 1907 C 188.204 1.07477 1.19605 0
M  V30 1908 O 189.394 1.33263 1.1219 0
M  V30 1909 C 186.526 2.67891 2.10826 0
M  V30 1910 H 187.719 2.98128 0.325511 0
M  V30 1911 H 185.272 1.55739 0.132312 0
M  V30 1912 H 186.007 1.87384 2.64685 0
M  V30 1913 H 185.792 3.45823 1.84793 0
M  V30 1914 H 187.282 3.11809 2.77785 0
M  V30 1915 N 187.719 -0.156864 1.56817 0
M  V30 1916 C 188.669 -1.19891 1.93934 0
M  V30 1917 C 189.653 -1.39061 0.809372 0
M  V30 1918 O 190.845 -1.40789 1.07273 0
M  V30 1919 C 187.974 -2.53493 2.31508 0
M  V30 1920 C 187.06 -2.37957 3.51052 0
M  V30 1921 N 187.451 -1.92158 4.67877 0
M  V30 1922 C 185.749 -2.68739 3.55943 0
M  V30 1923 C 186.45 -1.8943 5.49992 0
M  V30 1924 N 185.426 -2.32375 4.91429 0
M  V30 1925 H 189.228 -0.836746 2.81737 0
M  V30 1926 H 186.742 -0.365012 1.58245 0
M  V30 1927 H 188.739 -3.28811 2.56299 0
M  V30 1928 H 187.399 -2.905 1.45051 0
M  V30 1929 H 188.41 -1.62274 4.91821 0
M  V30 1930 H 185.087 -3.09687 2.80001 0
M  V30 1931 H 186.477 -1.55596 6.53636 0
M  V30 1932 N 189.197 -1.51736 -0.425897 0
M  V30 1933 C 190.145 -1.74464 -1.53834 0
M  V30 1934 C 191.139 -0.611241 -1.57988 0
M  V30 1935 O 192.345 -0.792899 -1.61596 0
M  V30 1936 H 188.72 -0.551437 -0.511293 0
M  V30 1937 H 190.691 -2.67694 -1.31843 0
M  V30 1938 C 189.44 -1.8972 -2.91379 0
M  V30 1939 H 188.763 -2.76344 -2.88919 0
M  V30 1940 H 190.203 -2.09629 -3.68553 0
M  V30 1941 C 188.662 -0.65992 -3.30374 0
M  V30 1942 O 189.192 0.180083 -4.01296 0
M  V30 1943 N 187.398 -0.500677 -2.86254 0
M  V30 1944 H 186.945 -1.18532 -2.28709 0
M  V30 1945 H 186.903 0.325903 -3.12706 0
M  V30 1946 N 190.675 0.682077 -1.42076 0
M  V30 1947 C 192.091 0.994324 -1.24841 0
M  V30 1948 C 192.291 2.0096 -0.147389 0
M  V30 1949 O 191.347 2.47822 0.483782 0
M  V30 1950 C 192.66 1.50607 -2.60265 0
M  V30 1951 C 194.208 1.62421 -2.6756 0
M  V30 1952 C 194.683 2.16994 -4.03333 0
M  V30 1953 N 196.174 2.24337 -4.0525 0
M  V30 1954 C 196.909 2.67621 -5.07116 0
M  V30 1955 N 196.405 3.1041 -6.19368 0
M  V30 1956 N 198.198 2.67305 -4.94474 0
M  V30 1957 H 190.349 0.00973908 -2.12398 0
M  V30 1958 H 192.612 0.0668593 -0.945639 0
M  V30 1959 H 192.318 0.834583 -3.41654 0
M  V30 1960 H 192.192 2.48602 -2.83684 0
M  V30 1961 H 194.579 2.28678 -1.86521 0
M  V30 1962 H 194.66 0.629352 -2.47937 0
M  V30 1963 H 194.304 1.51349 -4.84826 0
M  V30 1964 H 194.234 3.17258 -4.20304 0
M  V30 1965 H 196.725 1.94158 -3.24209 0
M  V30 1966 H 197.038 3.42103 -6.92954 0
M  V30 1967 H 195.383 3.08286 -6.22884 0
M  V30 1968 H 198.574 2.33233 -4.05857 0
M  V30 1969 H 198.747 3.00718 -5.73997 0
M  V30 1970 N 192.153 1.28127 0.917671 0
M  V30 1971 C 193.401 1.14825 1.66312 0
M  V30 1972 C 193.722 -0.304379 1.9261 0
M  V30 1973 O 192.992 -1.21149 1.53947 0
M  V30 1974 H 191.572 0.421953 0.616413 0
M  V30 1975 H 194.234 1.608 1.10134 0
M  V30 1976 H 193.33 1.68489 2.62712 0
M  V30 1977 N 193.631 -1.12557 1.10312 0
M  V30 1978 C 194.561 -2.20341 0.772798 0
M  V30 1979 C 195.542 -1.68198 -0.25365 0
M  V30 1980 O 196.727 -1.93831 -0.119699 0
M  V30 1981 C 193.857 -3.46709 0.202443 0
M  V30 1982 C 192.811 -4.11996 1.15943 0
M  V30 1983 C 192.137 -5.328 0.450345 0
M  V30 1984 C 193.437 -4.5828 2.50552 0
M  V30 1985 H 195.131 -2.48229 1.674 0
M  V30 1986 H 192.677 -1.19308 0.806326 0
M  V30 1987 H 194.63 -4.2138 -0.0407752 0
M  V30 1988 H 193.354 -3.18245 -0.734001 0
M  V30 1989 H 192.013 -3.39305 1.38808 0
M  V30 1990 H 191.661 -5.00602 -0.490531 0
M  V30 1991 H 191.361 -5.7743 1.08851 0
M  V30 1992 H 192.885 -6.10219 0.215642 0
M  V30 1993 H 194.299 -5.2433 2.31843 0
M  V30 1994 H 192.696 -5.13683 3.10242 0
M  V30 1995 H 193.766 -3.72329 3.10643 0
M  V30 1996 N 195.109 -0.891671 -1.2995 0
M  V30 1997 C 196.337 -0.52866 -2.00032 0
M  V30 1998 C 196.752 0.884574 -1.66795 0
M  V30 1999 O 196.109 1.5827 -0.908669 0
M  V30 2000 C 196.16 -0.701814 -3.54622 0
M  V30 2001 O 195.881 -2.05942 -3.86678 0
M  V30 2002 C 197.382 -0.342683 -4.41973 0
M  V30 2003 H 194.602 -0.203659 -0.639347 0
M  V30 2004 H 197.146 -1.19881 -1.65677 0
M  V30 2005 H 195.301 -0.0789468 -3.8732 0
M  V30 2006 H 195.715 -2.08291 -4.81368 0
M  V30 2007 H 197.189 -0.514709 -5.49595 0
M  V30 2008 H 197.666 0.71975 -4.33262 0
M  V30 2009 H 198.272 -0.942154 -4.14733 0
M  V30 2010 N 196.587 1.43421 -0.653314 0
M  V30 2011 C 197.835 2.01414 -0.166415 0
M  V30 2012 C 198.156 1.51803 1.22397 0
M  V30 2013 O 197.426 0.730693 1.81763 0
M  V30 2014 H 196.006 0.744703 -0.0585319 0
M  V30 2015 H 198.668 1.75629 -0.845003 0
M  V30 2016 H 197.764 3.11734 -0.151111 0
M  V30 2017 N 198.065 0.39524 1.52563 0
M  V30 2018 C 199.29 -0.187456 2.06551 0
M  V30 2019 C 199.715 -1.39249 1.26457 0
M  V30 2020 O 199.073 -1.78947 0.291151 0
M  V30 2021 C 199.121 -0.529985 3.56684 0
M  V30 2022 O 198.225 -1.62307 3.79118 0
M  V30 2023 H 197.566 -0.0202537 0.663691 0
M  V30 2024 H 200.096 0.564426 1.96661 0
M  V30 2025 H 200.106 -0.792598 4.00227 0
M  V30 2026 H 198.781 0.350987 4.14416 0
M  V30 2027 H 197.358 -1.3537 3.47461 0
M  V30 2028 N 199.544 -1.57102 0.125237 0
M  V30 2029 C 200.792 -1.95021 -0.530198 0
M  V30 2030 C 201.113 -1.00982 -1.66816 0
M  V30 2031 O 200.383 -0.0672693 -1.95784 0
M  V30 2032 H 198.963 -0.720046 -0.198853 0
M  V30 2033 H 201.625 -1.93916 0.19564 0
M  V30 2034 H 200.721 -2.98211 -0.920681 0
M  V30 2035 N 201.022 0.148545 -1.56898 0
M  V30 2036 C 202.268 0.862694 -1.83536 0
M  V30 2037 C 202.601 1.80889 -0.706604 0
M  V30 2038 O 201.876 1.92328 0.289885 0
M  V30 2039 C 202.159 1.63853 -3.20662 0
M  V30 2040 C 202.012 0.713925 -4.44098 0
M  V30 2041 C 203.331 2.60133 -3.54991 0
M  V30 2042 H 200.45 0.312179 -0.667618 0
M  V30 2043 H 203.092 0.127953 -1.89569 0
M  V30 2044 H 201.242 2.26489 -3.1565 0
M  V30 2045 H 202.914 0.098686 -4.61194 0
M  V30 2046 H 201.157 0.0234019 -4.33794 0
M  V30 2047 H 201.828 1.29278 -5.36648 0
M  V30 2048 H 204.304 2.07616 -3.60603 0
M  V30 2049 H 203.18 3.11468 -4.51972 0
M  V30 2050 H 203.441 3.41417 -2.80868 0
M  V30 2051 N 202.5 1.5196 0.417844 0
M  V30 2052 C 203.447 1.74678 1.50852 0
M  V30 2053 C 204.417 0.588947 1.55308 0
M  V30 2054 O 205.602 0.825544 1.72016 0
M  V30 2055 C 202.742 1.89544 2.88387 0
M  V30 2056 C 201.855 3.17166 2.93309 0
M  V30 2057 C 200.99 3.22513 4.22088 0
M  V30 2058 C 200.029 4.44372 4.20951 0
M  V30 2059 N 199.166 4.47161 5.41287 0
M  V30 2060 H 204.006 2.67768 1.30783 0
M  V30 2061 H 201.543 1.32689 0.63498 0
M  V30 2062 H 203.501 1.96146 3.68216 0
M  V30 2063 H 202.131 0.998424 3.06971 0
M  V30 2064 H 201.183 3.19778 2.06024 0
M  V30 2065 H 202.495 4.07021 2.88332 0
M  V30 2066 H 201.649 3.28139 5.10303 0
M  V30 2067 H 200.388 2.30581 4.29748 0
M  V30 2068 H 199.393 4.38902 3.31127 0
M  V30 2069 H 200.618 5.3759 4.14938 0
M  V30 2070 H 198.564 3.58108 5.49632 0
M  V30 2071 H 198.481 5.3085 5.3827 0
M  V30 2072 H 199.749 4.57005 6.3148 0
M  V30 2073 N 203.978 -0.674533 1.42435 0
M  V30 2074 C 205.224 -1.43671 1.43131 0
M  V30 2075 C 205.557 -1.94142 0.0476021 0
M  V30 2076 O 204.832 -1.70924 -0.928188 0
M  V30 2077 C 205.115 -2.63355 2.45594 0
M  V30 2078 C 204.968 -2.18514 3.93156 0
M  V30 2079 C 206.287 -3.65571 2.45043 0
M  V30 2080 H 203.406 -0.521077 0.521198 0
M  V30 2081 H 206.048 -0.766551 1.7385 0
M  V30 2082 H 204.198 -3.2053 2.19528 0
M  V30 2083 H 205.87 -1.66504 4.30202 0
M  V30 2084 H 204.113 -1.50086 4.07009 0
M  V30 2085 H 204.784 -3.04484 4.60428 0
M  V30 2086 H 207.26 -3.18113 2.68223 0
M  V30 2087 H 206.136 -4.46893 3.18713 0
M  V30 2088 H 206.397 -4.16716 1.47649 0
M  V30 2089 N 205.456 -1.28612 -0.910864 0
M  V30 2090 C 206.419 -1.12803 -1.9952 0
M  V30 2091 C 207.419 -0.0668264 -1.60661 0
M  V30 2092 O 208.609 -0.312847 -1.71368 0
M  V30 2093 C 205.741 -0.72254 -3.33155 0
M  V30 2094 H 206.934 -2.09109 -2.14973 0
M  V30 2095 H 204.487 -1.11639 -1.09391 0
M  V30 2096 H 205.222 0.241152 -3.23402 0
M  V30 2097 H 205.007 -1.48916 -3.62721 0
M  V30 2098 H 206.497 -0.634666 -4.12749 0
M  V30 2099 N 206.934 1.1197 -1.10907 0
M  V30 2100 C 208.18 1.8386 -0.855773 0
M  V30 2101 C 208.513 1.84134 0.617103 0
M  V30 2102 O 207.788 1.29041 1.45529 0
M  V30 2103 C 208.071 3.31305 -1.411 0
M  V30 2104 C 207.924 3.39456 -2.9511 0
M  V30 2105 C 209.243 4.2721 -1.05736 0
M  V30 2106 H 206.362 0.667545 -0.312334 0
M  V30 2107 H 209.004 1.31331 -1.37303 0
M  V30 2108 H 207.154 3.76169 -0.97105 0
M  V30 2109 H 208.826 3.03191 -3.47668 0
M  V30 2110 H 207.069 2.79849 -3.31462 0
M  V30 2111 H 207.74 4.43209 -3.29044 0
M  V30 2112 H 210.216 3.90497 -1.43706 0
M  V30 2113 H 209.092 5.28775 -1.47269 0
M  V30 2114 H 209.353 4.42088 0.0325958 0
M  V30 2115 N 208.412 0.89855 1.29475 0
M  V30 2116 C 209.342 0.39201 2.30186 0
M  V30 2117 C 210.323 -0.532359 1.61555 0
M  V30 2118 O 211.508 -0.443331 1.89072 0
M  V30 2119 C 208.638 -0.382353 3.45189 0
M  V30 2120 C 207.592 0.451483 4.25612 0
M  V30 2121 C 206.918 -0.450307 5.328 0
M  V30 2122 C 208.218 1.70079 4.93832 0
M  V30 2123 H 209.912 1.23362 2.72804 0
M  V30 2124 H 207.458 0.594638 1.31149 0
M  V30 2125 H 209.411 -0.747451 4.14718 0
M  V30 2126 H 208.135 -1.25774 3.01411 0
M  V30 2127 H 206.794 0.798897 3.57789 0
M  V30 2128 H 206.442 -1.32379 4.85268 0
M  V30 2129 H 206.142 0.103902 5.87508 0
M  V30 2130 H 207.666 -0.811623 6.05182 0
M  V30 2131 H 209.08 1.40549 5.55805 0
M  V30 2132 H 207.477 2.19623 5.58467 0
M  V30 2133 H 208.547 2.43744 4.19186 0
M  V30 2134 N 209.89 -1.43072 0.660911 0
M  V30 2135 C 211.167 -1.95307 0.107017 0
M  V30 2136 C 211.547 -1.60192 -1.37484 0
M  V30 2137 O 210.895 -0.890949 -2.10415 0
M  V30 2138 C 211.105 -3.47124 0.361402 0
M  V30 2139 C 212.453 -4.23738 0.270455 0
M  V30 2140 O 213.477 -3.54981 0.294382 0
M  V30 2141 O 212.336 -5.46131 0.200737 0
M  V30 2142 H 209.43 -0.826984 -0.00517729 0
M  V30 2143 H 211.976 -1.52972 0.734681 0
M  V30 2144 H 210.748 -3.65837 1.38848 0
M  V30 2145 H 210.371 -3.96475 -0.298953 0
M  V30 2146 N 211.368 -0.403325 -1.52352 0
M  V30 2147 C 212.596 0.174012 -2.06167 0
M  V30 2148 C 213.011 1.39347 -1.27388 0
M  V30 2149 O 212.368 1.79597 -0.324201 0
M  V30 2150 C 212.419 0.530223 -3.5759 0
M  V30 2151 O 212.14 -0.640806 -4.33388 0
M  V30 2152 C 213.641 1.16192 -4.27802 0
M  V30 2153 H 210.861 0.0229464 -0.670608 0
M  V30 2154 H 213.405 -0.572604 -1.9632 0
M  V30 2155 H 211.56 1.22673 -3.67464 0
M  V30 2156 H 211.974 -0.344851 -5.23365 0
M  V30 2157 H 213.448 1.36141 -5.34948 0
M  V30 2158 H 213.925 2.13335 -3.83907 0
M  V30 2159 H 214.531 0.505775 -4.22282 0
M  V30 2160 N 212.846 1.57033 -0.133567 0
M  V30 2161 C 214.094 1.953 0.519848 0
M  V30 2162 C 214.415 1.01866 1.66278 0
M  V30 2163 O 213.685 0.0776513 1.95746 0
M  V30 2164 H 212.265 0.721091 0.195032 0
M  V30 2165 H 214.927 1.93809 -0.205921 0
M  V30 2166 H 214.023 2.98695 0.904854 0
M  V30 2167 N 214.325 -0.140222 1.56975 0
M  V30 2168 C 215.574 -0.850152 1.82908 0
M  V30 2169 C 215.887 -1.82028 0.715892 0
M  V30 2170 O 217.093 -2.57485 0.861016 0
M  V30 2171 C 215.549 -1.5625 3.24213 0
M  V30 2172 C 215.157 -0.63443 4.43485 0
M  V30 2173 C 216.901 -2.25881 3.59413 0
M  V30 2174 C 214.808 -1.34879 5.75814 0
M  V30 2175 H 213.738 -0.321221 0.682153 0
M  V30 2176 H 216.389 -0.102874 1.83211 0
M  V30 2177 H 214.771 -2.35565 3.18316 0
M  V30 2178 H 215.945 0.12398 4.60633 0
M  V30 2179 H 214.26 -0.0461836 4.16374 0
M  V30 2180 H 216.857 -2.79978 4.5554 0
M  V30 2181 H 217.2 -3.02693 2.85802 0
M  V30 2182 H 217.733 -1.53477 3.67001 0
M  V30 2183 H 214.472 -0.622385 6.52539 0
M  V30 2184 H 213.992 -2.07974 5.6259 0
M  V30 2185 H 215.671 -1.88784 6.18845 0
M  V30 2186 N 215.803 -1.52179 -0.40978 0
M  V30 2187 C 217.028 -1.70347 -1.18308 0
M  V30 2188 C 217.453 -0.411887 -1.83535 0
M  V30 2189 O 216.811 0.630587 -1.6998 0
M  V30 2190 C 216.859 -2.83977 -2.22238 0
M  V30 2191 O 215.963 -2.495 -3.28365 0
M  V30 2192 H 215.304 -0.567103 -0.345384 0
M  V30 2193 H 217.834 -1.98879 -0.480445 0
M  V30 2194 H 217.844 -3.0887 -2.66577 0
M  V30 2195 H 216.519 -3.77685 -1.74146 0
M  V30 2196 H 215.096 -2.35277 -2.89308 0
M  V30 2197 N 217.281 0.66697 -1.42791 0
M  V30 2198 C 218.509 1.45505 -1.47091 0
M  V30 2199 C 218.924 1.8861 -0.0845873 0
M  V30 2200 O 218.281 1.58632 0.90234 0
M  V30 2201 C 218.332 2.69906 -2.40485 0
M  V30 2202 O 218.053 2.28608 -3.73725 0
M  V30 2203 C 219.554 3.63396 -2.53886 0
M  V30 2204 H 216.774 0.447459 -0.500022 0
M  V30 2205 H 219.318 0.818866 -1.8739 0
M  V30 2206 H 217.473 3.29696 -2.03419 0
M  V30 2207 H 217.887 3.08997 -4.23817 0
M  V30 2208 H 219.361 4.47387 -3.2334 0
M  V30 2209 H 219.838 4.09824 -1.57927 0
M  V30 2210 H 220.444 3.09495 -2.91706 0
M  V30 2211 N 218.759 1.29093 0.90403 0
M  V30 2212 C 219.709 1.10482 1.99443 0
M  V30 2213 C 220.693 0.0255401 1.6088 0
M  V30 2214 O 221.885 0.24677 1.75271 0
M  V30 2215 C 219.014 0.778882 3.34348 0
M  V30 2216 C 218.1 1.89749 3.79284 0
M  V30 2217 N 218.491 3.14045 3.96497 0
M  V30 2218 C 216.789 1.78955 4.08523 0
M  V30 2219 C 217.49 3.86996 4.34292 0
M  V30 2220 N 216.466 3.14909 4.43095 0
M  V30 2221 H 220.268 2.04778 2.10815 0
M  V30 2222 H 217.782 1.20155 1.09255 0
M  V30 2223 H 219.779 0.62661 4.12164 0
M  V30 2224 H 218.439 -0.156205 3.24324 0
M  V30 2225 H 219.45 3.49548 3.82148 0
M  V30 2226 H 216.127 0.926886 4.07081 0
M  V30 2227 H 217.517 4.93941 4.55491 0
M  V30 2228 N 220.237 -1.11381 1.11499 0
M  V30 2229 C 221.648 -1.6465 0.880191 0
M  V30 2230 C 221.999 -1.87199 -0.587434 0
M  V30 2231 O 221.124 -1.60667 -1.44966 0
M  V30 2232 C 221.719 -2.99105 1.59128 0
M  V30 2233 C 220.278 -3.49279 1.40289 0
M  V30 2234 C 219.425 -2.24077 1.63354 0
M  V30 2235 H 222.376 -0.950123 1.27116 0
M  V30 2236 H 222.397 -3.66107 1.03664 0
M  V30 2237 H 221.909 -2.82661 2.65941 0
M  V30 2238 H 220.01 -3.70887 0.356888 0
M  V30 2239 H 220.123 -4.2803 2.15238 0
M  V30 2240 H 218.487 -2.31733 1.05698 0
M  V30 2241 H 219.27 -2.10175 2.71443 0
M  V30 2242 N 221.715 -0.905404 -1.28997 0
M  V30 2243 C 222.992 -0.453513 -1.9027 0
M  V30 2244 C 223.372 1.06721 -1.82137 0
M  V30 2245 O 222.72 1.91159 -1.25182 0
M  V30 2246 C 222.93 -0.974494 -3.35119 0
M  V30 2247 C 224.278 -1.0216 -4.12127 0
M  V30 2248 O 225.302 -0.922557 -3.44046 0
M  V30 2249 O 224.161 -1.17121 -5.33802 0
M  V30 2250 H 221.255 -0.142347 -0.814657 0
M  V30 2251 H 223.801 -0.995642 -1.37423 0
M  V30 2252 H 222.573 -2.01848 -3.35221 0
M  V30 2253 H 222.196 -0.412706 -3.95452 0
M  V30 2254 N 223.193 1.4272 -0.668489 0
M  V30 2255 C 224.123 2.335 -0.000100175 0
M  V30 2256 C 225.104 1.50328 0.795964 0
M  V30 2257 O 226.289 1.78949 0.754385 0
M  V30 2258 C 223.419 3.33874 0.956302 0
M  V30 2259 C 222.373 4.27152 0.269278 0
M  V30 2260 C 221.699 5.17684 1.33818 0
M  V30 2261 C 222.999 5.15373 -0.847805 0
M  V30 2262 H 224.693 2.89639 -0.758244 0
M  V30 2263 H 222.239 1.39269 -0.366079 0
M  V30 2264 H 224.192 3.9629 1.43292 0
M  V30 2265 H 222.916 2.76025 1.74579 0
M  V30 2266 H 221.575 3.66123 -0.187042 0
M  V30 2267 H 221.223 4.56165 2.1195 0
M  V30 2268 H 220.923 5.80918 0.883659 0
M  V30 2269 H 222.447 5.82974 1.81586 0
M  V30 2270 H 223.861 5.7151 -0.452681 0
M  V30 2271 H 222.258 5.87407 -1.22773 0
M  V30 2272 H 223.328 4.5415 -1.69929 0
M  V30 2273 N 224.671 0.411399 1.52136 0
M  V30 2274 C 225.619 -0.427633 2.28635 0
M  V30 2275 C 226.613 -1.04383 1.33419 0
M  V30 2276 O 227.819 -0.981772 1.50868 0
M  V30 2277 H 224.194 -0.156689 0.735495 0
M  V30 2278 H 226.165 0.238761 2.97443 0
M  V30 2279 C 224.914 -1.53082 3.12188 0
M  V30 2280 H 224.237 -1.06601 3.85326 0
M  V30 2281 H 225.677 -2.09167 3.68816 0
M  V30 2282 C 224.136 -2.49946 2.25895 0
M  V30 2283 O 224.666 -3.53884 1.90076 0
M  V30 2284 N 222.872 -2.2021 1.8962 0
M  V30 2285 H 222.419 -1.35719 2.18948 0
M  V30 2286 H 222.377 -2.85266 1.32176 0
M  V30 2287 N 226.149 -1.5696 0.141893 0
M  V30 2288 C 227.398 -1.95135 -0.510427 0
M  V30 2289 C 227.711 -1.02896 -1.66348 0
M  V30 2290 O 228.917 -1.30629 -2.38009 0
M  V30 2291 C 227.373 -3.46876 -0.959427 0
M  V30 2292 C 226.981 -4.47691 0.166419 0
M  V30 2293 C 228.725 -3.93927 -1.58183 0
M  V30 2294 C 226.632 -5.90636 -0.300565 0
M  V30 2295 H 225.562 -0.728494 -0.194454 0
M  V30 2296 H 228.213 -1.8211 0.22542 0
M  V30 2297 H 226.595 -3.55215 -1.75038 0
M  V30 2298 H 227.769 -4.51043 0.94325 0
M  V30 2299 H 226.084 -4.10527 0.696905 0
M  V30 2300 H 228.681 -4.98158 -1.94275 0
M  V30 2301 H 229.024 -3.3519 -2.46888 0
M  V30 2302 H 229.557 -3.88484 -0.855863 0
M  V30 2303 H 226.296 -6.5318 0.550989 0
M  V30 2304 H 225.816 -5.90655 -1.04338 0
M  V30 2305 H 227.495 -6.42588 -0.754265 0
M  V30 2306 N 227.627 0.131896 -1.57047 0
M  V30 2307 C 229.043 0.485031 -1.52051 0
M  V30 2308 C 229.243 1.82563 -0.85281 0
M  V30 2309 O 228.299 2.48817 -0.429694 0
M  V30 2310 C 229.612 0.481409 -2.96821 0
M  V30 2311 C 231.16 0.565868 -3.07842 0
M  V30 2312 C 231.635 0.592762 -4.54148 0
M  V30 2313 N 233.126 0.654564 -4.58552 0
M  V30 2314 C 233.861 0.696608 -5.69153 0
M  V30 2315 N 233.357 0.697078 -6.89284 0
M  V30 2316 N 235.15 0.738639 -5.57226 0
M  V30 2317 H 227.301 -0.746664 -1.98843 0
M  V30 2318 H 229.564 -0.273999 -0.90754 0
M  V30 2319 H 229.27 -0.435731 -3.4899 0
M  V30 2320 H 229.144 1.3139 -3.53577 0
M  V30 2321 H 231.531 1.47343 -2.55684 0
M  V30 2322 H 231.612 -0.29406 -2.54104 0
M  V30 2323 H 231.256 -0.310701 -5.06949 0
M  V30 2324 H 231.186 1.46939 -5.05684 0
M  V30 2325 H 233.677 0.660887 -3.72076 0
M  V30 2326 H 233.99 0.731426 -7.69331 0
M  V30 2327 H 232.335 0.66471 -6.91814 0
M  V30 2328 H 235.526 0.735545 -4.62285 0
M  V30 2329 H 235.699 0.767938 -6.43434 0
M  V30 2330 N 229.106 1.52395 0.401703 0
M  V30 2331 C 230.354 1.66488 1.14569 0
M  V30 2332 C 230.675 0.400897 1.90835 0
M  V30 2333 O 229.945 -0.584415 1.8698 0
M  V30 2334 H 228.525 0.613672 0.425929 0
M  V30 2335 H 231.187 1.89464 0.457093 0
M  V30 2336 H 230.283 2.50942 1.85566 0
M  V30 2337 N 230.584 -0.659388 1.43143 0
M  V30 2338 C 231.832 -1.41654 1.44147 0
M  V30 2339 C 232.153 -1.94893 0.0645739 0
M  V30 2340 O 231.423 -1.74044 -0.899198 0
M  V30 2341 H 230.003 -0.525708 0.530697 0
M  V30 2342 H 232.665 -0.778097 1.78694 0
M  V30 2343 H 231.761 -2.26195 2.1504 0
M  V30 2344 N 232.062 -1.29571 -0.897171 0
M  V30 2345 C 233.025 -1.14913 -1.98312 0
M  V30 2346 C 234.025 -0.0838629 -1.60581 0
M  V30 2347 O 235.215 -0.331006 -1.71026 0
M  V30 2348 C 232.347 -0.757835 -3.3237 0
M  V30 2349 H 233.54 -2.11377 -2.12743 0
M  V30 2350 H 231.093 -1.12793 -1.08201 0
M  V30 2351 H 231.828 0.206837 -3.2364 0
M  V30 2352 H 231.613 -1.52755 -3.61121 0
M  V30 2353 H 233.103 -0.678408 -4.12053 0
M  V30 2354 N 233.54 1.10788 -1.12088 0
M  V30 2355 C 234.765 1.87002 -0.896949 0
M  V30 2356 C 235.19 1.79933 0.548261 0
M  V30 2357 O 234.548 1.16662 1.38779 0
M  V30 2358 C 234.596 3.3349 -1.37174 0
M  V30 2359 O 233.7 4.08745 -0.547831 0
M  V30 2360 H 233.041 0.580397 -0.322545 0
M  V30 2361 H 235.571 1.39996 -1.49206 0
M  V30 2362 H 235.581 3.84339 -1.36922 0
M  V30 2363 H 234.256 3.37951 -2.42408 0
M  V30 2364 H 232.833 3.6776 -0.617034 0
M  V30 2365 N 235.018 0.912232 1.28515 0
M  V30 2366 C 236.265 0.544599 1.95039 0
M  V30 2367 C 236.593 -0.911435 1.71823 0
M  V30 2368 O 235.848 -1.66317 1.03137 0
M  V30 2369 C 236.147 0.798392 3.48368 0
M  V30 2370 C 235.813 2.23374 3.91682 0
M  V30 2371 C 234.475 2.62617 4.03219 0
M  V30 2372 C 236.827 3.16786 4.13879 0
M  V30 2373 C 234.155 3.94429 4.3433 0
M  V30 2374 C 236.507 4.48161 4.46469 0
M  V30 2375 C 235.171 4.8726 4.56217 0
M  V30 2376 H 234.441 0.199283 0.7137 0
M  V30 2377 H 237.088 1.15327 1.52879 0
M  V30 2378 H 235.393 0.106908 3.91654 0
M  V30 2379 H 237.09 0.493141 3.97956 0
M  V30 2380 H 233.68 1.91922 3.83228 0
M  V30 2381 H 237.864 2.87677 4.0442 0
M  V30 2382 H 233.12 4.24426 4.40082 0
M  V30 2383 H 237.294 5.20559 4.62592 0
M  V30 2384 H 234.921 5.89431 4.80078 0
M  V30 2385 N 236.496 -1.42363 0.676048 0
M  V30 2386 C 237.742 -2.0182 0.199125 0
M  V30 2387 C 238.075 -1.53339 -1.19168 0
M  V30 2388 O 237.35 -0.736124 -1.80032 0
M  V30 2389 C 237.633 -3.59331 0.235144 0
M  V30 2390 C 237.486 -4.17989 1.66149 0
M  V30 2391 C 238.805 -4.3813 -0.41595 0
M  V30 2392 H 235.924 -0.733293 0.0738311 0
M  V30 2393 H 238.566 -1.69368 0.86107 0
M  V30 2394 H 236.716 -3.87109 -0.328487 0
M  V30 2395 H 238.388 -4.0116 2.27747 0
M  V30 2396 H 236.631 -3.7377 2.20178 0
M  V30 2397 H 237.302 -5.27126 1.63837 0
M  V30 2398 H 239.778 -4.16051 0.0638529 0
M  V30 2399 H 238.654 -5.47717 -0.360115 0
M  V30 2400 H 238.915 -4.16101 -1.49373 0
M  V30 2401 N 237.974 -0.419461 -1.51915 0
M  V30 2402 C 239.385 0.0477853 -1.86639 0
M  V30 2403 C 239.736 1.43531 -1.33766 0
M  V30 2404 O 238.861 2.05401 -0.68113 0
M  V30 2405 C 239.456 0.0934885 -3.38671 0
M  V30 2406 C 238.015 0.505097 -3.72996 0
M  V30 2407 C 237.162 -0.313792 -2.75519 0
M  V30 2408 H 240.113 -0.636088 -1.45395 0
M  V30 2409 H 240.134 0.906667 -3.6954 0
M  V30 2410 H 239.646 -0.916501 -3.77123 0
M  V30 2411 H 237.747 1.52135 -3.40126 0
M  V30 2412 H 237.86 0.242309 -4.78487 0
M  V30 2413 H 236.224 0.225363 -2.53701 0
M  V30 2414 H 237.007 -1.32232 -3.16812 0
M  V30 2415 N 239.452 1.56882 -0.150215 0
M  V30 2416 C 240.7 1.9584 0.499105 0
M  V30 2417 C 241.021 1.03623 1.65188 0
M  V30 2418 O 240.291 0.0984084 1.95653 0
M  V30 2419 H 238.871 0.723119 0.187373 0
M  V30 2420 H 241.533 1.9358 -0.226466 0
M  V30 2421 H 240.629 2.99638 0.873122 0
M  V30 2422 N 240.93 -0.123565 1.57115 0
M  V30 2423 C 241.84 -1.17074 2.033 0
M  V30 2424 C 242.856 -1.4561 0.952559 0
M  V30 2425 O 244.032 -1.56817 1.26374 0
M  V30 2426 C 241.097 -2.47857 2.42421 0
M  V30 2427 C 240.158 -2.26758 3.64526 0
M  V30 2428 C 239.391 -3.51305 4.01771 0
M  V30 2429 O 239.614 -4.5843 3.39409 0
M  V30 2430 O 238.548 -3.42578 4.94898 0
M  V30 2431 H 242.374 -0.808555 2.92739 0
M  V30 2432 H 239.959 -0.334027 1.45618 0
M  V30 2433 H 241.841 -3.2492 2.68338 0
M  V30 2434 H 240.516 -2.83558 1.5613 0
M  V30 2435 H 239.423 -1.47569 3.43765 0
M  V30 2436 H 240.756 -1.95963 4.51508 0
M  V30 2437 N 242.408 -1.52605 -0.393616 0
M  V30 2438 C 243.819 -1.59417 -0.971761 0
M  V30 2439 C 244.17 -0.444173 -1.91106 0
M  V30 2440 O 243.295 0.433382 -2.12016 0
M  V30 2441 C 243.89 -2.88936 -1.76921 0
M  V30 2442 C 242.449 -2.98175 -2.29714 0
M  V30 2443 C 241.596 -2.54491 -1.10135 0
M  V30 2444 H 244.547 -1.57751 -0.173317 0
M  V30 2445 H 244.568 -2.75163 -2.62804 0
M  V30 2446 H 244.08 -3.72616 -1.08532 0
M  V30 2447 H 242.181 -2.19024 -3.01429 0
M  V30 2448 H 242.294 -4.02726 -2.59517 0
M  V30 2449 H 240.658 -2.08702 -1.45999 0
M  V30 2450 H 241.441 -3.4056 -0.432874 0
M  V30 2451 N 243.887 0.651787 -1.4349 0
M  V30 2452 C 245.112 1.44434 -1.48841 0
M  V30 2453 C 245.537 1.8779 -0.107955 0
M  V30 2454 O 244.895 1.57464 0.898602 0
M  V30 2455 C 244.943 2.65458 -2.44059 0
M  V30 2456 O 244.047 3.64566 -1.92784 0
M  V30 2457 H 243.388 0.433005 -0.503391 0
M  V30 2458 H 245.918 0.797451 -1.88419 0
M  V30 2459 H 245.928 3.13255 -2.6141 0
M  V30 2460 H 244.603 2.33244 -3.4434 0
M  V30 2461 H 243.18 3.23716 -1.851 0
M  V30 2462 N 245.365 1.30045 0.890287 0
M  V30 2463 C 246.593 1.21472 1.67487 0
M  V30 2464 C 247.008 -0.223241 1.87476 0
M  V30 2465 O 246.365 -1.14828 1.41847 0
M  V30 2466 C 246.416 1.93394 3.05419 0
M  V30 2467 O 246.137 3.31576 2.86337 0
M  V30 2468 C 247.638 1.91414 3.99844 0
M  V30 2469 H 244.858 0.420604 0.522813 0
M  V30 2470 H 247.402 1.7158 1.11268 0
M  V30 2471 H 245.557 1.47099 3.58386 0
M  V30 2472 H 245.971 3.67929 3.73802 0
M  V30 2473 H 247.445 2.46285 4.94012 0
M  V30 2474 H 247.922 0.891833 4.3005 0
M  V30 2475 H 248.528 2.37496 3.52811 0
M  V30 2476 N 246.843 -1.10192 1.12674 0
M  V30 2477 C 247.775 -2.16418 0.754701 0
M  V30 2478 C 248.788 -1.61309 -0.21986 0
M  V30 2479 O 249.977 -1.785 -0.000826841 0
M  V30 2480 C 247.077 -3.38762 0.096698 0
M  V30 2481 C 246.25 -4.23307 1.10136 0
M  V30 2482 C 245.309 -5.24092 0.470513 0
M  V30 2483 O 244.335 -5.57906 1.12824 0
M  V30 2484 N 245.537 -5.75491 -0.760948 0
M  V30 2485 H 248.302 -2.48943 1.66875 0
M  V30 2486 H 245.863 -1.25834 1.01869 0
M  V30 2487 H 247.855 -4.03291 -0.337384 0
M  V30 2488 H 246.425 -3.04192 -0.720153 0
M  V30 2489 H 245.645 -3.55036 1.71299 0
M  V30 2490 H 246.933 -4.76624 1.78064 0
M  V30 2491 H 246.331 -5.50222 -1.31424 0
M  V30 2492 H 244.888 -6.41792 -1.13781 0
M  V30 2493 N 248.321 -0.919034 -1.28029 0
M  V30 2494 C 249.598 -0.473668 -1.89778 0
M  V30 2495 C 249.978 1.04783 -1.83259 0
M  V30 2496 O 249.326 1.8982 -1.27202 0
M  V30 2497 C 249.536 -1.00998 -3.34066 0
M  V30 2498 C 250.884 -1.06525 -4.1102 0
M  V30 2499 O 251.908 -0.958996 -3.43048 0
M  V30 2500 O 250.767 -1.22776 -5.3253 0
M  V30 2501 H 247.861 -0.15098 -0.813101 0
M  V30 2502 H 250.407 -1.01016 -1.36359 0
M  V30 2503 H 249.179 -2.05392 -3.33061 0
M  V30 2504 H 248.802 -0.454626 -3.94992 0
M  V30 2505 N 249.799 1.42003 -0.683588 0
M  V30 2506 C 251.047 2.01015 -0.209101 0
M  V30 2507 C 251.368 1.54365 1.19149 0
M  V30 2508 O 250.638 0.769083 1.80172 0
M  V30 2509 H 249.218 0.743294 -0.074315 0
M  V30 2510 H 251.88 1.73798 -0.882066 0
M  V30 2511 H 250.976 3.11343 -0.2172 0
M  V30 2512 N 251.277 0.427512 1.51691 0
M  V30 2513 C 252.225 -0.403359 2.29076 0
M  V30 2514 C 253.219 -1.02962 1.34518 0
M  V30 2515 O 254.425 -0.965715 1.51901 0
M  V30 2516 H 250.8 -0.148879 0.737115 0
M  V30 2517 H 252.771 0.270295 2.97173 0
M  V30 2518 C 251.52 -1.49763 3.13794 0
M  V30 2519 H 250.843 -1.02508 3.86435 0
M  V30 2520 H 252.283 -2.05244 3.71014 0
M  V30 2521 C 250.742 -2.47536 2.28533 0
M  V30 2522 O 251.272 -3.51848 1.93819 0
M  V30 2523 N 249.478 -2.18187 1.91945 0
M  V30 2524 H 249.025 -1.33389 2.20375 0
M  V30 2525 H 248.983 -2.83848 1.35195 0
M  V30 2526 N 252.755 -1.56801 0.158532 0
M  V30 2527 C 254.003 -1.96102 -0.488712 0
M  V30 2528 C 254.324 -1.04498 -1.64636 0
M  V30 2529 O 253.594 -0.108783 -1.95598 0
M  V30 2530 H 252.174 -0.724102 -0.183535 0
M  V30 2531 H 254.836 -1.93457 0.236728 0
M  V30 2532 H 253.932 -3.00097 -0.857219 0
M  V30 2533 N 254.233 0.115231 -1.57178 0
M  V30 2534 C 255.183 1.14707 -1.97044 0
M  V30 2535 C 256.167 1.36866 -0.845957 0
M  V30 2536 O 257.359 1.37895 -1.10968 0
M  V30 2537 C 254.488 2.47266 -2.38148 0
M  V30 2538 C 253.574 2.28566 -3.57237 0
M  V30 2539 N 253.965 1.79685 -4.72807 0
M  V30 2540 C 252.263 2.59208 -3.62943 0
M  V30 2541 C 252.964 1.74781 -5.54821 0
M  V30 2542 N 251.94 2.19264 -4.97417 0
M  V30 2543 H 255.742 0.761754 -2.83857 0
M  V30 2544 H 253.256 0.322928 -1.59157 0
M  V30 2545 H 255.253 3.219 -2.64927 0
M  V30 2546 H 253.913 2.86552 -1.52702 0
M  V30 2547 H 254.924 1.49177 -4.9595 0
M  V30 2548 H 251.601 3.02154 -2.88113 0
M  V30 2549 H 252.991 1.38212 -6.57531 0
M  V30 2550 N 255.711 1.52812 0.385517 0
M  V30 2551 C 256.959 1.67694 1.12797 0
M  V30 2552 C 257.28 0.421115 1.90399 0
M  V30 2553 O 256.55 -0.564551 1.87589 0
M  V30 2554 H 255.13 0.618155 0.419396 0
M  V30 2555 H 257.792 1.89938 0.436972 0
M  V30 2556 H 256.888 2.52896 1.82894 0
M  V30 2557 N 257.189 -0.644168 1.43834 0
M  V30 2558 C 258.417 -1.43147 1.49387 0
M  V30 2559 C 258.832 -1.88452 0.114583 0
M  V30 2560 O 258.189 -1.60047 -0.876989 0
M  V30 2561 C 258.24 -2.66046 2.44748 0
M  V30 2562 O 257.961 -2.22633 3.77314 0
M  V30 2563 C 259.462 -3.59311 2.59635 0
M  V30 2564 H 256.682 -0.439447 0.507077 0
M  V30 2565 H 259.226 -0.78895 1.88669 0
M  V30 2566 H 257.381 -3.26418 2.08638 0
M  V30 2567 H 257.795 -3.02216 4.28679 0
M  V30 2568 H 259.269 -4.42187 3.30416 0
M  V30 2569 H 259.746 -4.07259 1.64427 0
M  V30 2570 H 260.352 -3.04816 2.96593 0
M  V30 2571 N 258.668 -1.30515 -0.883378 0
M  V30 2572 C 259.618 -1.13641 -1.9766 0
M  V30 2573 C 260.602 -0.0511314 -1.60819 0
M  V30 2574 O 261.794 -0.274623 -1.74857 0
M  V30 2575 C 258.923 -0.831976 -3.33066 0
M  V30 2576 C 258.009 -1.95759 -3.76217 0
M  V30 2577 N 258.4 -3.20313 -3.9145 0
M  V30 2578 C 256.698 -1.85431 -4.05625 0
M  V30 2579 C 257.399 -3.93856 -4.2808 0
M  V30 2580 N 256.375 -3.21919 -4.38029 0
M  V30 2581 H 260.177 -2.08106 -2.07531 0
M  V30 2582 H 257.691 -1.21877 -1.0733 0
M  V30 2583 H 259.688 -0.692102 -4.11115 0
M  V30 2584 H 258.348 0.104588 -3.24532 0
M  V30 2585 H 259.359 -3.55583 -3.76538 0
M  V30 2586 H 256.036 -0.991531 -4.05555 0
M  V30 2587 H 257.426 -5.01125 -4.47575 0
M  V30 2588 N 260.146 1.09593 -1.13257 0
M  V30 2589 C 261.392 1.82003 -0.89458 0
M  V30 2590 C 261.725 1.85402 0.577906 0
M  V30 2591 O 261 1.32099 1.42759 0
M  V30 2592 C 261.283 3.28237 -1.48096 0
M  V30 2593 C 261.136 3.3312 -3.02244 0
M  V30 2594 C 262.455 4.24871 -1.14774 0
M  V30 2595 H 259.574 0.66077 -0.326424 0
M  V30 2596 H 262.216 1.28389 -1.40058 0
M  V30 2597 H 260.366 3.74024 -1.05062 0
M  V30 2598 H 262.038 2.95748 -3.54021 0
M  V30 2599 H 260.281 2.72756 -3.37323 0
M  V30 2600 H 260.952 4.3613 -3.38371 0
M  V30 2601 H 263.428 3.87361 -1.51957 0
M  V30 2602 H 262.304 5.25532 -1.58452 0
M  V30 2603 H 262.565 4.42058 -0.0611849 0
M  V30 2604 N 261.624 0.925811 1.2754 0
M  V30 2605 C 262.587 0.428129 2.25166 0
M  V30 2606 C 263.587 -0.452261 1.54309 0
M  V30 2607 O 264.777 -0.253608 1.72344 0
M  V30 2608 C 261.909 -0.384749 3.38722 0
M  V30 2609 H 263.102 1.29066 2.70706 0
M  V30 2610 H 260.655 0.706323 1.3943 0
M  V30 2611 H 261.39 -1.26618 2.98561 0
M  V30 2612 H 261.175 0.246454 3.91325 0
M  V30 2613 H 262.665 -0.723389 4.11287 0
M  V30 2614 N 263.102 -1.41638 0.69111 0
M  V30 2615 C 264.35 -2.00902 0.219758 0
M  V30 2616 C 264.671 -1.54994 -1.18329 0
M  V30 2617 O 263.941 -0.778628 -1.79762 0
M  V30 2618 H 262.521 -0.74289 0.0782558 0
M  V30 2619 H 265.183 -1.73327 0.891271 0
M  V30 2620 H 264.279 -3.11224 0.233708 0
M  V30 2621 N 264.58 -0.43555 -1.51462 0
M  V30 2622 C 265.808 0.130242 -2.0649 0
M  V30 2623 C 266.223 1.36614 -1.30315 0
M  V30 2624 O 265.58 1.78869 -0.362223 0
M  V30 2625 C 265.631 0.454253 -3.58635 0
M  V30 2626 O 265.352 -0.73259 -4.31931 0
M  V30 2627 C 266.853 1.07091 -4.3017 0
M  V30 2628 H 264.073 0.00871669 -0.670943 0
M  V30 2629 H 266.617 -0.614117 -1.95061 0
M  V30 2630 H 264.772 1.14851 -3.69984 0
M  V30 2631 H 265.186 -0.455787 -5.22516 0
M  V30 2632 H 266.66 1.24764 -5.37716 0
M  V30 2633 H 267.137 2.05144 -3.88346 0
M  V30 2634 H 267.743 0.416089 -4.2326 0
M  V30 2635 N 266.058 1.56714 -0.166846 0
M  V30 2636 C 267.307 1.95922 0.479318 0
M  V30 2637 C 267.62 1.05529 1.6469 0
M  V30 2638 O 268.826 1.34399 2.35901 0
M  V30 2639 C 267.282 3.48359 0.90412 0
M  V30 2640 C 266.89 4.47369 -0.237621 0
M  V30 2641 C 268.634 3.96394 1.51896 0
M  V30 2642 C 266.541 5.91039 0.206561 0
M  V30 2643 H 265.471 0.731495 0.18284 0
M  V30 2644 H 268.122 1.81728 -0.254363 0
M  V30 2645 H 266.504 3.57955 1.69365 0
M  V30 2646 H 267.678 4.49485 -1.01489 0
M  V30 2647 H 265.993 4.09366 -0.762128 0
M  V30 2648 H 268.59 5.01186 1.86325 0
M  V30 2649 H 268.933 3.39075 2.41524 0
M  V30 2650 H 269.466 3.89796 0.79395 0
M  V30 2651 H 266.205 6.52221 -0.654834 0
M  V30 2652 H 265.725 5.9224 0.949282 0
M  V30 2653 H 267.404 6.43707 0.651939 0
M  V30 2654 N 267.536 -0.106894 1.57237 0
M  V30 2655 C 268.499 -1.11466 2.0027 0
M  V30 2656 C 269.499 -1.33623 0.894519 0
M  V30 2657 O 270.689 -1.29935 1.16028 0
M  V30 2658 C 267.821 -2.46646 2.35327 0
M  V30 2659 H 269.014 -0.744516 2.90512 0
M  V30 2660 H 266.567 -0.351576 1.52295 0
M  V30 2661 H 267.302 -2.88558 1.48003 0
M  V30 2662 H 267.087 -2.31915 3.16161 0
M  V30 2663 H 268.577 -3.19151 2.69318 0
M  V30 2664 N 269.014 -1.53014 -0.377408 0
M  V30 2665 C 269.977 -1.77957 -1.44444 0
M  V30 2666 C 270.977 -0.649763 -1.47087 0
M  V30 2667 O 272.167 -0.917897 -1.48055 0
M  V30 2668 C 269.299 -1.89089 -2.83651 0
M  V30 2669 H 270.492 -2.73243 -1.23606 0
M  V30 2670 H 268.045 -1.43912 -0.609844 0
M  V30 2671 H 268.78 -0.958293 -3.09818 0
M  V30 2672 H 268.565 -2.71254 -2.83132 0
M  V30 2673 H 270.055 -2.1002 -3.60945 0
M  V30 2674 N 270.492 0.636531 -1.44174 0
M  V30 2675 C 271.422 1.76003 -1.53444 0
M  V30 2676 C 272.403 1.65619 -0.387841 0
M  V30 2677 O 273.588 1.84461 -0.607257 0
M  V30 2678 C 270.718 3.14511 -1.4731 0
M  V30 2679 C 269.672 3.39677 -2.60391 0
M  V30 2680 C 268.998 4.78159 -2.39308 0
M  V30 2681 C 270.298 3.32772 -4.02567 0
M  V30 2682 H 271.992 1.68501 -2.47483 0
M  V30 2683 H 269.538 0.809237 -1.19111 0
M  V30 2684 H 271.491 3.92878 -1.52397 0
M  V30 2685 H 270.215 3.22783 -0.49785 0
M  V30 2686 H 268.874 2.63688 -2.54684 0
M  V30 2687 H 268.522 4.83128 -1.39988 0
M  V30 2688 H 268.222 4.95956 -3.15122 0
M  V30 2689 H 269.746 5.58762 -2.46205 0
M  V30 2690 H 271.16 4.01051 -4.09672 0
M  V30 2691 H 269.557 3.62104 -4.7854 0
M  V30 2692 H 270.627 2.30669 -4.2652 0
M  V30 2693 N 271.97 1.30982 0.876444 0
M  V30 2694 C 272.918 1.18006 2.00443 0
M  V30 2695 C 273.912 0.0898871 1.69161 0
M  V30 2696 O 275.118 0.251333 1.78237 0
M  V30 2697 H 271.493 0.365196 0.65737 0
M  V30 2698 H 273.464 2.13453 2.0852 0
M  V30 2699 C 272.213 0.897521 3.35916 0
M  V30 2700 H 271.536 1.7285 3.60504 0
M  V30 2701 H 272.976 0.846874 4.15456 0
M  V30 2702 C 271.435 -0.399674 3.34521 0
M  V30 2703 O 271.965 -1.41852 3.7582 0
M  V30 2704 N 270.171 -0.413893 2.87637 0
M  V30 2705 H 269.718 0.41571 2.54224 0
M  V30 2706 H 269.676 -1.28175 2.87086 0
M  V30 2707 N 273.449 -1.08991 1.13837 0
M  V30 2708 C 274.397 -2.17841 0.815347 0
M  V30 2709 C 275.391 -1.68164 -0.204233 0
M  V30 2710 O 276.597 -1.79897 -0.0609304 0
M  V30 2711 H 272.972 -0.710654 0.245915 0
M  V30 2712 H 274.943 -2.42315 1.74143 0
M  V30 2713 C 273.692 -3.46381 0.302614 0
M  V30 2714 H 273.015 -3.84979 1.0785 0
M  V30 2715 H 274.455 -4.23844 0.115074 0
M  V30 2716 C 272.914 -3.22556 -0.972591 0
M  V30 2717 O 273.444 -3.45599 -2.04754 0
M  V30 2718 N 271.65 -2.76134 -0.905455 0
M  V30 2719 H 271.197 -2.57582 -0.0305421 0
M  V30 2720 H 271.155 -2.60571 -1.75926 0
M  V30 2721 N 274.927 -0.932562 -1.27047 0
M  V30 2722 C 276.152 -0.591474 -1.98787 0
M  V30 2723 C 276.577 0.824601 -1.69062 0
M  V30 2724 O 275.935 1.5541 -0.933677 0
M  V30 2725 C 275.983 -0.829808 -3.50922 0
M  V30 2726 O 275.087 0.102266 -4.12273 0
M  V30 2727 H 274.428 -0.227185 -0.623926 0
M  V30 2728 H 276.958 -1.25314 -1.61733 0
M  V30 2729 H 276.968 -0.747292 -4.01098 0
M  V30 2730 H 275.643 -1.86201 -3.7189 0
M  V30 2731 H 274.22 -0.0305761 -3.72887 0
M  V30 2732 N 276.405 1.4127 -0.698611 0
M  V30 2733 C 277.654 2.00408 -0.227949 0
M  V30 2734 C 277.967 1.55981 1.18023 0
M  V30 2735 O 279.173 2.07699 1.74852 0
M  V30 2736 C 277.629 3.58129 -0.356636 0
M  V30 2737 C 277.237 4.11536 -1.77037 0
M  V30 2738 C 278.981 4.24466 0.0540969 0
M  V30 2739 C 276.888 5.61701 -1.85055 0
M  V30 2740 H 275.818 0.749586 -0.0814657 0
M  V30 2741 H 278.469 1.61713 -0.867249 0
M  V30 2742 H 276.851 3.94442 0.350965 0
M  V30 2743 H 278.025 3.86636 -2.50698 0
M  V30 2744 H 276.34 3.57736 -2.13105 0
M  V30 2745 H 278.937 5.34698 0.0146723 0
M  V30 2746 H 279.28 4.01687 1.09332 0
M  V30 2747 H 279.813 3.93198 -0.603337 0
M  V30 2748 H 276.552 5.89312 -2.8704 0
M  V30 2749 H 276.072 5.88519 -1.15783 0
M  V30 2750 H 277.751 6.26524 -1.61484 0
M  V30 2751 N 277.883 0.443576 1.51229 0
M  V30 2752 C 279.131 -0.120557 2.0174 0
M  V30 2753 C 279.452 -1.42665 1.32935 0
M  V30 2754 O 278.722 -1.9028 0.465866 0
M  V30 2755 H 277.302 -0.0475426 0.745486 0
M  V30 2756 H 279.964 0.587711 1.85828 0
M  V30 2757 H 279.06 -0.291972 3.10731 0
M  V30 2758 N 279.361 -1.56624 0.175154 0
M  V30 2759 C 280.607 -1.9729 -0.469506 0
M  V30 2760 C 280.94 -1.06128 -1.62636 0
M  V30 2761 O 280.215 -0.109183 -1.94193 0
M  V30 2762 C 280.498 -3.47375 -0.948804 0
M  V30 2763 C 280.351 -4.49317 0.208491 0
M  V30 2764 C 281.67 -4.00652 -1.82116 0
M  V30 2765 H 278.789 -0.717317 -0.16919 0
M  V30 2766 H 281.431 -1.88184 0.262062 0
M  V30 2767 H 279.581 -3.55267 -1.57219 0
M  V30 2768 H 281.253 -4.53482 0.845682 0
M  V30 2769 H 279.496 -4.25121 0.863395 0
M  V30 2770 H 280.167 -5.51741 -0.169059 0
M  V30 2771 H 282.643 -3.95416 -1.2956 0
M  V30 2772 H 281.519 -5.06075 -2.12554 0
M  V30 2773 H 281.78 -3.44699 -2.7683 0
M  V30 2774 N 280.839 0.0985539 -1.57292 0
M  V30 2775 C 281.769 1.12064 -2.04851 0
M  V30 2776 C 282.75 1.41981 -0.936767 0
M  V30 2777 O 283.935 1.52071 -1.20781 0
M  V30 2778 C 281.065 2.44144 -2.47004 0
M  V30 2779 C 280.019 2.28643 -3.6181 0
M  V30 2780 C 279.345 3.65869 -3.89929 0
M  V30 2781 C 280.645 1.72986 -4.92822 0
M  V30 2782 H 282.339 0.724979 -2.9049 0
M  V30 2783 H 279.885 0.34729 -1.39749 0
M  V30 2784 H 281.838 3.15914 -2.78884 0
M  V30 2785 H 280.562 2.85639 -1.5836 0
M  V30 2786 H 279.221 1.59318 -3.30172 0
M  V30 2787 H 278.869 4.04885 -2.98458 0
M  V30 2788 H 278.569 3.56344 -4.67218 0
M  V30 2789 H 280.093 4.39112 -4.2428 0
M  V30 2790 H 281.507 2.34593 -5.23105 0
M  V30 2791 H 279.904 1.74229 -5.74251 0
M  V30 2792 H 280.974 0.689007 -4.7998 0
M  V30 2793 N 282.317 1.53212 0.369288 0
M  V30 2794 C 283.565 1.68881 1.11012 0
M  V30 2795 C 283.886 0.441285 1.89941 0
M  V30 2796 O 283.156 -0.544623 1.88177 0
M  V30 2797 H 281.736 0.622569 0.412816 0
M  V30 2798 H 284.398 1.90391 0.416802 0
M  V30 2799 H 283.494 2.54822 1.80201 0
M  V30 2800 N 283.795 -0.628877 1.44509 0
M  V30 2801 C 285.041 -1.39045 1.47629 0
M  V30 2802 C 285.374 -1.93892 0.109343 0
M  V30 2803 O 284.649 -1.7379 -0.87334 0
M  V30 2804 C 284.932 -2.55408 2.53848 0
M  V30 2805 C 284.785 -2.05896 3.99909 0
M  V30 2806 C 286.104 -3.5759 2.56549 0
M  V30 2807 H 283.223 -0.504232 0.537512 0
M  V30 2808 H 285.865 -0.710854 1.76201 0
M  V30 2809 H 284.015 -3.13384 2.29615 0
M  V30 2810 H 285.687 -1.52734 4.35282 0
M  V30 2811 H 283.93 -1.37061 4.11578 0
M  V30 2812 H 284.601 -2.89681 4.69882 0
M  V30 2813 H 287.077 -3.09419 2.78207 0
M  V30 2814 H 285.953 -4.36527 3.32769 0
M  V30 2815 H 286.214 -4.11808 1.60832 0
M  V30 2816 N 285.273 -1.31445 -0.869486 0
M  V30 2817 C 286.236 -1.19094 -1.9583 0
M  V30 2818 C 287.236 -0.117906 -1.60367 0
M  V30 2819 O 288.426 -0.367208 -1.70286 0
M  V30 2820 C 285.558 -0.828165 -3.30688 0
M  V30 2821 H 286.751 -2.15842 -2.08212 0
M  V30 2822 H 284.304 -1.15063 -1.05784 0
M  V30 2823 H 285.039 0.138142 -3.24006 0
M  V30 2824 H 284.824 -1.6038 -3.578 0
M  V30 2825 H 286.314 -0.765658 -4.10521 0
M  V30 2826 N 286.751 1.08385 -1.14413 0
M  V30 2827 C 288.162 1.62258 -0.923535 0
M  V30 2828 C 288.513 1.88691 0.537595 0
M  V30 2829 O 287.638 1.64454 1.40655 0
M  V30 2830 C 288.233 2.94781 -1.67002 0
M  V30 2831 C 286.792 3.45437 -1.495 0
M  V30 2832 C 285.939 2.19668 -1.69238 0
M  V30 2833 H 288.89 0.916086 -1.2959 0
M  V30 2834 H 288.911 3.63229 -1.13334 0
M  V30 2835 H 288.423 2.7551 -2.73342 0
M  V30 2836 H 286.524 3.6981 -0.455097 0
M  V30 2837 H 286.637 4.22173 -2.2651 0
M  V30 2838 H 285.001 2.28849 -1.11804 0
M  V30 2839 H 285.784 2.02905 -2.7692 0
M  V30 2840 N 288.23 0.939286 1.26551 0
M  V30 2841 C 289.178 0.43815 2.28436 0
M  V30 2842 C 290.172 -0.483587 1.62351 0
M  V30 2843 O 291.378 -0.362009 1.76322 0
M  V30 2844 H 287.753 0.123149 0.741848 0
M  V30 2845 H 289.724 1.31002 2.68106 0
M  V30 2846 C 288.473 -0.283052 3.46546 0
M  V30 2847 H 287.796 0.417043 3.97619 0
M  V30 2848 H 289.236 -0.597948 4.19763 0
M  V30 2849 C 287.695 -1.50018 3.01656 0
M  V30 2850 O 288.225 -2.59855 3.0633 0
M  V30 2851 N 286.431 -1.35608 2.57019 0
M  V30 2852 H 285.978 -0.46244 2.53415 0
M  V30 2853 H 285.936 -2.17165 2.27347 0
M  V30 2854 N 289.708 -1.40897 0.706093 0
M  V30 2855 C 290.671 -2.29131 0.0562841 0
M  V30 2856 C 291.671 -1.44901 -0.697166 0
M  V30 2857 O 292.861 -1.65926 -0.530484 0
M  V30 2858 C 289.993 -3.27957 -0.93043 0
M  V30 2859 H 291.186 -2.88091 0.833284 0
M  V30 2860 H 288.739 -1.4906 0.470192 0
M  V30 2861 H 289.474 -2.73997 -1.73482 0
M  V30 2862 H 289.259 -3.90124 -0.393166 0
M  V30 2863 H 290.749 -3.94049 -1.38256 0
M  V30 2864 N 291.186 -0.45159 -1.50991 0
M  V30 2865 C 292.096 0.358431 -2.31846 0
M  V30 2866 C 293.112 1.01438 -1.41373 0
M  V30 2867 O 294.288 1.00663 -1.74439 0
M  V30 2868 C 291.353 1.43704 -3.15515 0
M  V30 2869 C 290.414 0.799742 -4.21785 0
M  V30 2870 C 289.647 1.82696 -5.01456 0
M  V30 2871 O 289.87 3.05105 -4.81941 0
M  V30 2872 O 288.804 1.40958 -5.85162 0
M  V30 2873 H 292.63 -0.302032 -3.02194 0
M  V30 2874 H 290.215 -0.213825 -1.47862 0
M  V30 2875 H 292.097 2.06227 -3.67489 0
M  V30 2876 H 290.772 2.08133 -2.47916 0
M  V30 2877 H 289.679 0.136084 -3.73852 0
M  V30 2878 H 291.012 0.198718 -4.91799 0
M  V30 2879 N 292.664 1.56529 -0.183458 0
M  V30 2880 C 293.594 2.21549 0.737456 0
M  V30 2881 C 294.575 1.17489 1.23005 0
M  V30 2882 O 295.76 1.45959 1.281 0
M  V30 2883 C 292.89 2.86575 1.96194 0
M  V30 2884 C 291.844 3.96778 1.60473 0
M  V30 2885 C 291.17 4.48911 2.90487 0
M  V30 2886 C 292.47 5.15767 0.823497 0
M  V30 2887 H 294.164 2.98761 0.195453 0
M  V30 2888 H 291.71 1.43702 0.0925686 0
M  V30 2889 H 293.663 3.30739 2.61131 0
M  V30 2890 H 292.387 2.06749 2.52828 0
M  V30 2891 H 291.046 3.53286 0.978997 0
M  V30 2892 H 290.694 3.65862 3.45186 0
M  V30 2893 H 290.394 5.23265 2.67335 0
M  V30 2894 H 291.918 4.95771 3.56432 0
M  V30 2895 H 293.332 5.56549 1.37571 0
M  V30 2896 H 291.729 5.96114 0.690551 0
M  V30 2897 H 292.799 4.84574 -0.177782 0
M  V30 2898 N 294.142 -0.090211 1.57342 0
M  V30 2899 C 295.372 -0.805055 1.90269 0
M  V30 2900 C 295.78 -1.72561 0.775842 0
M  V30 2901 O 295.123 -1.81839 -0.260843 0
M  V30 2902 C 295.185 -1.66734 3.18497 0
M  V30 2903 C 294.849 -0.918092 4.47683 0
M  V30 2904 C 295.846 -0.245674 5.19319 0
M  V30 2905 C 293.531 -0.890724 4.94339 0
M  V30 2906 C 295.525 0.444088 6.35851 0
M  V30 2907 C 293.212 -0.197179 6.10782 0
M  V30 2908 C 294.21 0.469044 6.81388 0
M  V30 2909 O 293.898 1.15146 7.95611 0
M  V30 2910 H 293.63 -0.235143 0.633785 0
M  V30 2911 H 296.184 -0.0703805 2.05279 0
M  V30 2912 H 294.414 -2.44437 2.99646 0
M  V30 2913 H 296.103 -2.25919 3.37217 0
M  V30 2914 H 296.869 -0.258246 4.84312 0
M  V30 2915 H 292.748 -1.39873 4.39268 0
M  V30 2916 H 296.292 0.964667 6.90898 0
M  V30 2917 H 292.189 -0.18247 6.45242 0
M  V30 2918 H 292.957 1.05885 8.11622 0
M  V30 2919 N 295.62 -1.53406 -0.361157 0
M  V30 2920 C 296.583 -1.79479 -1.42548 0
M  V30 2921 C 297.583 -0.665327 -1.4639 0
M  V30 2922 O 298.773 -0.933549 -1.47073 0
M  V30 2923 C 295.905 -1.92087 -2.8163 0
M  V30 2924 H 297.098 -2.74538 -1.20701 0
M  V30 2925 H 294.651 -1.4455 -0.594546 0
M  V30 2926 H 295.386 -0.991099 -3.08784 0
M  V30 2927 H 295.171 -2.74241 -2.80239 0
M  V30 2928 H 296.661 -2.13836 -3.58697 0
M  V30 2929 N 297.098 0.621204 -1.44841 0
M  V30 2930 C 298.344 1.3826 -1.48365 0
M  V30 2931 C 298.677 1.93831 -0.119624 0
M  V30 2932 O 297.952 1.74251 0.864111 0
M  V30 2933 C 298.235 2.54058 -2.55199 0
M  V30 2934 C 298.088 2.03772 -4.00995 0
M  V30 2935 C 299.407 3.56225 -2.58442 0
M  V30 2936 H 296.526 0.501374 -0.540179 0
M  V30 2937 H 299.168 0.7015 -1.76576 0
M  V30 2938 H 297.318 3.12162 -2.31274 0
M  V30 2939 H 298.99 1.50423 -4.36086 0
M  V30 2940 H 297.233 1.34876 -4.12299 0
M  V30 2941 H 297.904 2.87185 -4.71411 0
M  V30 2942 H 300.38 3.07939 -2.79844 0
M  V30 2943 H 299.256 4.34756 -3.3508 0
M  V30 2944 H 299.517 4.10949 -1.63013 0
M  V30 2945 N 298.576 1.31904 0.862503 0
M  V30 2946 C 299.523 1.20182 1.9704 0
M  V30 2947 C 300.493 0.0858247 1.65878 0
M  V30 2948 O 301.678 0.26 1.8902 0
M  V30 2949 C 298.818 0.922797 3.32533 0
M  V30 2950 C 297.931 2.12284 3.76244 0
M  V30 2951 C 297.066 1.77996 5.00491 0
M  V30 2952 C 296.105 2.94366 5.36671 0
M  V30 2953 N 295.242 2.60223 6.52095 0
M  V30 2954 H 300.082 2.14951 2.06398 0
M  V30 2955 H 297.619 1.06917 1.01031 0
M  V30 2956 H 299.577 0.741548 4.10557 0
M  V30 2957 H 298.207 0.0119227 3.22798 0
M  V30 2958 H 297.259 2.41461 2.9394 0
M  V30 2959 H 298.571 2.99357 3.98982 0
M  V30 2960 H 297.725 1.56377 5.862 0
M  V30 2961 H 296.464 0.881252 4.79672 0
M  V30 2962 H 295.469 3.16625 4.49476 0
M  V30 2963 H 296.694 3.84957 5.59451 0
M  V30 2964 H 294.64 1.72884 6.32809 0
M  V30 2965 H 294.557 3.40827 6.74814 0
M  V30 2966 H 295.825 2.42016 7.40978 0
M  V30 2967 N 300.054 -1.07777 1.14986 0
M  V30 2968 C 301.3 -1.80557 0.923422 0
M  V30 2969 C 301.633 -1.86298 -0.548337 0
M  V30 2970 O 300.908 -1.34354 -1.40639 0
M  V30 2971 C 301.191 -3.25839 1.53299 0
M  V30 2972 C 301.044 -3.28269 3.07505 0
M  V30 2973 C 302.363 -4.22991 1.21518 0
M  V30 2974 H 299.482 -0.655493 0.336894 0
M  V30 2975 H 302.124 -1.26144 1.42083 0
M  V30 2976 H 300.274 -3.72306 1.10999 0
M  V30 2977 H 301.946 -2.90079 3.58681 0
M  V30 2978 H 300.189 -2.67355 3.4162 0
M  V30 2979 H 300.86 -4.30691 3.45266 0
M  V30 2980 H 303.336 -3.84894 1.581 0
M  V30 2981 H 302.212 -5.22945 1.66793 0
M  V30 2982 H 302.473 -4.41904 0.131505 0
M  V30 2983 N 301.532 -0.945985 -1.26051 0
M  V30 2984 C 302.462 -0.477172 -2.28572 0
M  V30 2985 C 303.443 0.472032 -1.63419 0
M  V30 2986 O 304.628 0.372853 -1.90587 0
M  V30 2987 C 301.758 0.253975 -3.4637 0
M  V30 2988 C 300.712 -0.609135 -4.23643 0
M  V30 2989 C 300.038 0.252252 -5.34105 0
M  V30 2990 C 301.338 -1.8829 -4.8718 0
M  V30 2991 H 303.032 -1.33402 -2.68038 0
M  V30 2992 H 300.578 -0.642904 -1.28852 0
M  V30 2993 H 302.531 0.593016 -4.17207 0
M  V30 2994 H 301.255 1.145 -3.05871 0
M  V30 2995 H 299.914 -0.931138 -3.54578 0
M  V30 2996 H 299.562 1.14278 -4.89846 0
M  V30 2997 H 299.262 -0.32188 -5.86718 0
M  V30 2998 H 300.786 0.586454 -6.07777 0
M  V30 2999 H 302.2 -1.61081 -5.50205 0
M  V30 3000 H 300.597 -2.40199 -5.49931 0
M  V30 3001 H 301.667 -2.59134 -4.09851 0
M  V30 3002 N 303.011 1.40521 -0.713556 0
M  V30 3003 C 304.259 2.00527 -0.251692 0
M  V30 3004 C 304.58 1.56857 1.15848 0
M  V30 3005 O 303.85 0.807127 1.785 0
M  V30 3006 H 302.43 0.741551 -0.0900646 0
M  V30 3007 H 305.092 1.71887 -0.918733 0
M  V30 3008 H 304.188 3.10813 -0.283192 0
M  V30 3009 N 304.489 0.459591 1.5075 0
M  V30 3010 C 305.452 -0.329093 2.26825 0
M  V30 3011 C 306.452 -0.930481 1.31144 0
M  V30 3012 O 307.642 -0.801453 1.54669 0
M  V30 3013 C 304.774 -1.46768 3.07688 0
M  V30 3014 H 305.967 0.337924 2.9799 0
M  V30 3015 H 303.52 0.213336 1.54837 0
M  V30 3016 H 304.255 -2.17009 2.40993 0
M  V30 3017 H 304.04 -1.04238 3.77991 0
M  V30 3018 H 305.53 -2.02433 3.65254 0
M  V30 3019 N 305.967 -1.56429 0.191757 0
M  V30 3020 C 307.192 -2.02309 -0.456706 0
M  V30 3021 C 307.617 -1.07103 -1.5463 0
M  V30 3022 O 306.975 -0.0539677 -1.8122 0
M  V30 3023 C 307.023 -3.46654 -0.993159 0
M  V30 3024 O 306.127 -3.54559 -2.10622 0
M  V30 3025 H 305.468 -0.655303 -0.107114 0
M  V30 3026 H 307.998 -2.02364 0.301653 0
M  V30 3027 H 308.008 -3.86377 -1.31061 0
M  V30 3028 H 306.683 -4.1544 -0.195504 0
M  V30 3029 H 305.26 -3.26708 -1.79767 0
M  V30 3030 N 307.445 0.0818655 -1.57387 0
M  V30 3031 C 308.693 0.781368 -1.86384 0
M  V30 3032 C 309.014 1.78618 -0.782342 0
M  V30 3033 O 308.284 1.94976 0.190061 0
M  V30 3034 H 306.864 0.291562 -0.687751 0
M  V30 3035 H 309.526 0.060348 -1.94807 0
M  V30 3036 H 308.622 1.3038 -2.83562 0
M  V30 3037 N 308.923 1.53595 0.353017 0
M  V30 3038 C 310.148 1.7462 1.11904 0
M  V30 3039 C 310.573 0.479721 1.8188 0
M  V30 3040 O 309.931 -0.567066 1.72204 0
M  V30 3041 C 309.979 2.92029 2.11545 0
M  V30 3042 O 309.083 2.61516 3.18878 0
M  V30 3043 H 308.424 0.579531 0.324099 0
M  V30 3044 H 310.954 2.00525 0.406301 0
M  V30 3045 H 310.964 3.18551 2.5493 0
M  V30 3046 H 309.639 3.83888 1.60008 0
M  V30 3047 H 308.216 2.45852 2.80377 0
M  V30 3048 N 310.401 -0.613514 1.45168 0
M  V30 3049 C 311.649 -1.36997 1.48581 0
M  V30 3050 C 311.97 -1.94589 0.126545 0
M  V30 3051 O 311.24 -1.76816 -0.843372 0
M  V30 3052 H 309.82 -0.508558 0.547154 0
M  V30 3053 H 312.482 -0.720853 1.81079 0
M  V30 3054 H 311.578 -2.1924 2.22127 0
M  V30 3055 N 311.879 -1.3236 -0.855495 0
M  V30 3056 C 313.104 -1.2601 -1.64731 0
M  V30 3057 C 313.529 0.169068 -1.87339 0
M  V30 3058 O 312.887 1.12016 -1.42556 0
M  V30 3059 C 312.935 -2.02417 -2.98429 0
M  V30 3060 O 312.039 -1.3714 -3.8893 0
M  V30 3061 H 311.38 -0.434325 -0.502253 0
M  V30 3062 H 313.91 -1.74661 -1.06558 0
M  V30 3063 H 313.92 -2.12559 -3.48257 0
M  V30 3064 H 312.595 -3.06343 -2.81295 0
M  V30 3065 H 311.172 -1.3554 -3.47395 0
M  V30 3066 N 313.357 1.07166 -1.15556 0
M  V30 3067 C 314.603 1.80065 -0.932984 0
M  V30 3068 C 314.936 1.86586 0.53845 0
M  V30 3069 O 314.211 1.35098 1.39924 0
M  V30 3070 C 314.494 3.25022 -1.55025 0
M  V30 3071 C 314.347 3.26634 -3.09242 0
M  V30 3072 C 315.666 4.22341 -1.2376 0
M  V30 3073 H 312.785 0.653697 -0.340366 0
M  V30 3074 H 315.427 1.25389 -1.4275 0
M  V30 3075 H 313.577 3.71712 -1.12972 0
M  V30 3076 H 315.249 2.88173 -3.60214 0
M  V30 3077 H 313.492 2.65539 -3.43033 0
M  V30 3078 H 314.163 4.28854 -3.47546 0
M  V30 3079 H 316.639 3.8405 -1.60139 0
M  V30 3080 H 315.515 5.22053 -1.69564 0
M  V30 3081 H 315.776 4.41828 -0.154938 0
M  V30 3082 N 314.835 0.952656 1.25548 0
M  V30 3083 C 316.06 0.623025 1.97821 0
M  V30 3084 C 316.485 -0.7976 1.70352 0
M  V30 3085 O 315.843 -1.53905 0.958283 0
M  V30 3086 C 315.891 0.885532 3.49558 0
M  V30 3087 O 314.995 -0.0366641 4.12384 0
M  V30 3088 H 314.336 0.237082 0.620232 0
M  V30 3089 H 316.866 1.27871 1.59719 0
M  V30 3090 H 316.876 0.811009 3.99858 0
M  V30 3091 H 315.551 1.92094 3.6888 0
M  V30 3092 H 314.128 0.0898954 3.72792 0
M  V30 3093 N 316.313 -1.40141 0.720998 0
M  V30 3094 C 317.538 -2.05618 0.271258 0
M  V30 3095 C 317.963 -1.53978 -1.08039 0
M  V30 3096 O 317.321 -0.677463 -1.68167 0
M  V30 3097 C 317.369 -3.59609 0.267197 0
M  V30 3098 O 316.473 -4.05526 -0.749814 0
M  V30 3099 H 315.814 -0.651904 0.126162 0
M  V30 3100 H 318.344 -1.79439 0.982997 0
M  V30 3101 H 318.354 -4.0786 0.106744 0
M  V30 3102 H 317.029 -3.96559 1.25354 0
M  V30 3103 H 315.606 -3.68722 -0.556644 0
M  V30 3104 N 317.792 -0.46758 -1.50504 0
M  V30 3105 C 319.041 0.0902868 -2.01498 0
M  V30 3106 C 319.354 1.411 -1.35463 0
M  V30 3107 O 320.56 2.0536 -1.77594 0
M  V30 3108 C 319.016 0.21142 -3.59278 0
M  V30 3109 C 318.624 -1.10065 -4.34269 0
M  V30 3110 C 320.368 0.721433 -4.18325 0
M  V30 3111 C 318.275 -0.943505 -5.83825 0
M  V30 3112 H 317.205 0.037517 -0.753066 0
M  V30 3113 H 319.856 -0.601943 -1.73346 0
M  V30 3114 H 318.238 0.967352 -3.84003 0
M  V30 3115 H 319.412 -1.86726 -4.21272 0
M  V30 3116 H 317.727 -1.5415 -3.86816 0
M  V30 3117 H 320.324 0.85598 -5.27804 0
M  V30 3118 H 320.667 1.71186 -3.79475 0
M  V30 3119 H 321.2 0.0229843 -3.97793 0
M  V30 3120 H 317.939 -1.90719 -6.27141 0
M  V30 3121 H 317.459 -0.217213 -5.99407 0
M  V30 3122 H 319.138 -0.608715 -6.4413 0
M  V30 3123 N 319.27 1.56325 -0.20005 0
M  V30 3124 C 320.233 2.18084 0.705132 0
M  V30 3125 C 321.233 1.13666 1.1374 0
M  V30 3126 O 322.423 1.39023 1.04968 0
M  V30 3127 C 319.555 2.78689 1.96329 0
M  V30 3128 H 320.748 2.99435 0.167023 0
M  V30 3129 H 318.301 1.56221 0.0495725 0
M  V30 3130 H 319.036 2.0115 2.5438 0
M  V30 3131 H 318.821 3.55133 1.66202 0
M  V30 3132 H 320.311 3.26096 2.60866 0
M  V30 3133 N 320.748 -0.0735177 1.57428 0
M  V30 3134 C 321.68 -1.11423 2.00294 0
M  V30 3135 C 322.693 -1.35084 0.908637 0
M  V30 3136 O 323.882 -1.33355 1.18654 0
M  V30 3137 C 320.982 -2.46548 2.32523 0
M  V30 3138 C 320.155 -2.42867 3.63778 0
M  V30 3139 C 319.214 -3.60087 3.83697 0
M  V30 3140 O 318.24 -3.41595 4.55304 0
M  V30 3141 N 319.442 -4.80372 3.25919 0
M  V30 3142 H 322.207 -0.749206 2.90184 0
M  V30 3143 H 319.768 -0.262195 1.59763 0
M  V30 3144 H 321.76 -3.23607 2.43024 0
M  V30 3145 H 320.33 -2.75059 1.48531 0
M  V30 3146 H 319.55 -1.51206 3.64047 0
M  V30 3147 H 320.838 -2.37506 4.49965 0
M  V30 3148 H 320.236 -4.983 2.67795 0
M  V30 3149 H 318.793 -5.54948 3.41871 0
M  V30 3150 N 322.226 -1.5378 -0.344866 0
M  V30 3151 C 323.474 -1.70625 -1.08311 0
M  V30 3152 C 323.795 -0.471447 -1.89215 0
M  V30 3153 O 323.065 0.514616 -1.8902 0
M  V30 3154 H 321.645 -0.629058 -0.402859 0
M  V30 3155 H 324.307 -1.9103 -0.386459 0
M  V30 3156 H 323.403 -2.57656 -1.76124 0
M  V30 3157 N 323.704 0.605807 -1.45491 0
M  V30 3158 C 324.634 1.72709 -1.57143 0
M  V30 3159 C 325.615 1.6476 -0.422884 0
M  V30 3160 O 326.8 1.83132 -0.646247 0
M  V30 3161 C 323.93 3.11316 -1.53948 0
M  V30 3162 C 322.884 3.34077 -2.67537 0
M  V30 3163 C 322.21 4.72975 -2.49397 0
M  V30 3164 C 323.51 3.24158 -4.09535 0
M  V30 3165 H 325.204 1.63214 -2.51001 0
M  V30 3166 H 322.75 0.78379 -1.208 0
M  V30 3167 H 324.703 3.89557 -1.60696 0
M  V30 3168 H 323.427 3.21655 -0.566205 0
M  V30 3169 H 322.086 2.58227 -2.6022 0
M  V30 3170 H 321.734 4.8005 -1.50205 0
M  V30 3171 H 321.434 4.8916 -3.25571 0
M  V30 3172 H 322.958 5.53414 -2.58002 0
M  V30 3173 H 324.372 3.92271 -4.18086 0
M  V30 3174 H 322.769 3.51872 -4.86113 0
M  V30 3175 H 323.839 2.2157 -4.31317 0
M  V30 3176 N 325.182 1.32811 0.848464 0
M  V30 3177 C 326.092 1.24278 1.98978 0
M  V30 3178 C 327.108 0.155176 1.73307 0
M  V30 3179 O 328.284 0.376999 1.9784 0
M  V30 3180 C 325.349 0.972444 3.32783 0
M  V30 3181 C 324.41 2.14911 3.71634 0
M  V30 3182 C 323.643 1.89157 4.99054 0
M  V30 3183 O 323.866 0.837165 5.64223 0
M  V30 3184 O 322.8 2.75433 5.35183 0
M  V30 3185 H 326.626 2.20238 2.09115 0
M  V30 3186 H 324.211 1.12762 0.980052 0
M  V30 3187 H 326.093 0.838432 4.12975 0
M  V30 3188 H 324.768 0.043051 3.23671 0
M  V30 3189 H 323.675 2.33862 2.91992 0
M  V30 3190 H 325.008 3.06151 3.85399 0
M  V30 3191 N 326.66 -1.06551 1.16123 0
M  V30 3192 C 327.906 -1.79719 0.952505 0
M  V30 3193 C 328.261 -1.85396 -0.514385 0
M  V30 3194 O 327.554 -1.33263 -1.37665 0
M  V30 3195 C 327.748 -3.23911 1.51052 0
M  V30 3196 C 327.577 -3.32284 3.03013 0
M  V30 3197 C 326.347 -3.42371 3.71632 0
M  V30 3198 C 328.545 -3.22363 4.00732 0
M  V30 3199 N 326.527 -3.39732 5.11327 0
M  V30 3200 C 327.898 -3.26937 5.26794 0
M  V30 3201 C 329.953 -3.0623 3.92591 0
M  V30 3202 C 328.656 -3.17035 6.45663 0
M  V30 3203 C 330.682 -2.97665 5.11028 0
M  V30 3204 C 330.044 -3.02858 6.35969 0
M  V30 3205 H 326.143 -0.670585 0.402293 0
M  V30 3206 H 328.727 -1.27125 1.4747 0
M  V30 3207 H 326.898 -3.74907 1.01484 0
M  V30 3208 H 328.63 -3.85242 1.2398 0
M  V30 3209 H 325.385 -3.47058 3.22254 0
M  V30 3210 H 325.809 -3.41919 5.84312 0
M  V30 3211 H 330.451 -3.01063 2.96852 0
M  V30 3212 H 328.169 -3.2096 7.41627 0
M  V30 3213 H 331.755 -2.86273 5.06497 0
M  V30 3214 H 330.635 -2.96286 7.26075 0
M  V30 3215 N 328.138 -0.959301 -1.25041 0
M  V30 3216 C 329.101 -0.487677 -2.23952 0
M  V30 3217 C 330.101 0.41119 -1.55454 0
M  V30 3218 O 331.291 0.207825 -1.72956 0
M  V30 3219 C 328.423 0.294807 -3.39623 0
M  V30 3220 H 329.616 -1.36198 -2.67189 0
M  V30 3221 H 327.169 -0.743042 -1.37508 0
M  V30 3222 H 327.904 1.18658 -3.01813 0
M  V30 3223 H 327.689 -0.35012 -3.90534 0
M  V30 3224 H 329.179 0.614089 -4.1306 0
M  V30 3225 N 329.616 1.39756 -0.72842 0
M  V30 3226 C 330.864 2.00248 -0.272946 0
M  V30 3227 C 331.185 1.58077 1.14178 0
M  V30 3228 O 330.455 0.826014 1.77634 0
M  V30 3229 H 329.035 0.740554 -0.0979247 0
M  V30 3230 H 331.697 1.70903 -0.936912 0
M  V30 3231 H 330.793 3.10495 -0.316142 0
M  V30 3232 N 331.094 0.475555 1.50254 0
M  V30 3233 C 332.042 -0.330276 2.30243 0
M  V30 3234 C 333.036 -0.986306 1.37726 0
M  V30 3235 O 334.242 -0.9169 1.54897 0
M  V30 3236 H 330.617 -0.125353 0.741479 0
M  V30 3237 H 332.588 0.364702 2.96163 0
M  V30 3238 C 331.337 -1.39704 3.18399 0
M  V30 3239 H 330.66 -0.901621 3.89501 0
M  V30 3240 H 332.1 -1.93336 3.77355 0
M  V30 3241 C 330.559 -2.4014 2.36293 0
M  V30 3242 O 331.089 -3.45504 2.04914 0
M  V30 3243 N 329.295 -2.1197 1.98789 0
M  V30 3244 H 328.842 -1.2631 2.24507 0
M  V30 3245 H 328.8 -2.79403 1.44157 0
M  V30 3246 N 332.573 -1.56217 0.208337 0
M  V30 3247 C 333.521 -2.21053 -0.723769 0
M  V30 3248 C 334.515 -1.18578 -1.20978 0
M  V30 3249 O 335.721 -1.36691 -1.17114 0
M  V30 3250 H 332.096 -0.708595 -0.251788 0
M  V30 3251 H 334.067 -2.98006 -0.153365 0
M  V30 3252 C 332.816 -2.89417 -1.927 0
M  V30 3253 H 332.139 -3.68019 -1.56212 0
M  V30 3254 H 333.579 -3.38201 -2.55727 0
M  V30 3255 C 332.038 -1.91166 -2.77411 0
M  V30 3256 O 332.568 -1.42026 -3.75754 0
M  V30 3257 N 330.774 -1.59105 -2.43175 0
M  V30 3258 H 330.321 -1.99259 -1.63259 0
M  V30 3259 H 330.279 -0.936255 -3.00136 0
M  V30 3260 N 334.051 0.0651679 -1.57465 0
M  V30 3261 C 335.299 0.761555 -1.87202 0
M  V30 3262 C 335.62 1.77778 -0.801243 0
M  V30 3263 O 334.89 1.95166 0.16937 0
M  V30 3264 H 333.47 0.284251 -0.690804 0
M  V30 3265 H 336.132 0.0396827 -1.9486 0
M  V30 3266 H 335.228 1.27365 -2.84929 0
M  V30 3267 N 335.529 1.53961 0.336706 0
M  V30 3268 C 336.462 1.77255 1.43722 0
M  V30 3269 C 337.44 0.62193 1.50236 0
M  V30 3270 O 338.624 0.857874 1.67847 0
M  V30 3271 C 335.751 1.87733 2.81912 0
M  V30 3272 C 334.797 3.09933 2.92991 0
M  V30 3273 S 335.63 4.68836 2.58753 0
M  V30 3274 C 336.786 4.82202 3.99039 0
M  V30 3275 H 337.019 2.70322 1.23748 0
M  V30 3276 H 334.552 1.44917 0.532777 0
M  V30 3277 H 336.51 1.94455 3.61521 0
M  V30 3278 H 335.171 0.956666 2.99177 0
M  V30 3279 H 334.364 3.1396 3.94265 0
M  V30 3280 H 333.966 3.01472 2.21338 0
M  V30 3281 H 336.258 4.64032 4.9364 0
M  V30 3282 H 337.201 5.84298 4.00002 0
M  V30 3283 H 337.609 4.10604 3.87382 0
M  V30 3284 N 337.007 -0.598083 1.45811 0
M  V30 3285 C 337.957 -1.70272 1.51629 0
M  V30 3286 C 338.941 -1.56382 0.378629 0
M  V30 3287 O 340.133 -1.65557 0.626087 0
M  V30 3288 C 337.262 -3.09042 1.49493 0
M  V30 3289 C 336.348 -3.28284 2.68496 0
M  V30 3290 N 336.739 -3.17748 3.93535 0
M  V30 3291 C 335.037 -3.59182 2.64394 0
M  V30 3292 C 335.738 -3.38579 4.7301 0
M  V30 3293 N 334.714 -3.63016 4.04624 0
M  V30 3294 H 338.516 -1.60634 2.46118 0
M  V30 3295 H 336.03 -0.801642 1.41235 0
M  V30 3296 H 338.027 -3.88302 1.51747 0
M  V30 3297 H 336.687 -3.19823 0.560683 0
M  V30 3298 H 337.698 -2.95944 4.25014 0
M  V30 3299 H 334.375 -3.76742 1.79922 0
M  V30 3300 H 335.765 -3.35747 5.82 0
M  V30 3301 N 338.485 -1.33259 -0.841409 0
M  V30 3302 C 339.731 -1.24757 -1.59886 0
M  V30 3303 C 340.064 0.186913 -1.93298 0
M  V30 3304 O 339.339 1.12757 -1.5848 0
M  V30 3305 C 339.622 -2.12036 -2.91055 0
M  V30 3306 C 339.475 -3.63929 -2.6434 0
M  V30 3307 C 340.794 -1.9916 -3.92458 0
M  V30 3308 H 337.913 -0.454542 -0.580138 0
M  V30 3309 H 340.555 -1.63335 -0.970647 0
M  V30 3310 H 338.705 -1.79265 -3.44669 0
M  V30 3311 H 340.377 -4.06978 -2.17178 0
M  V30 3312 H 338.62 -3.85935 -1.98082 0
M  V30 3313 H 339.291 -4.20341 -3.57796 0
M  V30 3314 H 341.767 -2.27895 -3.48143 0
M  V30 3315 H 340.643 -2.62484 -4.82072 0
M  V30 3316 H 340.904 -0.963082 -4.31482 0
M  V30 3317 N 339.963 1.05934 -1.16686 0
M  V30 3318 C 340.926 2.11669 -0.879144 0
M  V30 3319 C 341.926 1.60294 0.127445 0
M  V30 3320 O 343.116 1.7389 -0.103865 0
M  V30 3321 C 340.248 3.39438 -0.315425 0
M  V30 3322 H 341.441 2.38626 -1.81653 0
M  V30 3323 H 338.994 1.22058 -0.976299 0
M  V30 3324 H 339.729 3.18132 0.629468 0
M  V30 3325 H 339.514 3.78034 -1.04079 0
M  V30 3326 H 341.004 4.17391 -0.132189 0
M  V30 3327 N 341.441 0.965919 1.2453 0
M  V30 3328 C 342.389 0.486506 2.27455 0
M  V30 3329 C 343.383 -0.449041 1.6334 0
M  V30 3330 O 344.589 -0.324527 1.7705 0
M  V30 3331 H 340.964 0.138857 0.739069 0
M  V30 3332 H 342.935 1.3666 2.65267 0
M  V30 3333 C 341.684 -0.209481 3.47068 0
M  V30 3334 H 341.007 0.50129 3.96645 0
M  V30 3335 H 342.447 -0.508775 4.20936 0
M  V30 3336 C 340.906 -1.43586 3.0477 0
M  V30 3337 O 341.436 -2.53299 3.11773 0
M  V30 3338 N 339.642 -1.30126 2.59838 0
M  V30 3339 H 339.189 -0.408583 2.54339 0
M  V30 3340 H 339.147 -2.12294 2.31902 0
M  V30 3341 N 342.919 -1.39368 0.735821 0
M  V30 3342 C 343.849 -2.33234 0.111506 0
M  V30 3343 C 344.83 -1.53954 -0.723334 0
M  V30 3344 O 346.015 -1.82344 -0.668147 0
M  V30 3345 C 343.145 -3.38057 -0.795917 0
M  V30 3346 C 342.099 -4.2795 -0.065172 0
M  V30 3347 C 341.425 -5.23479 -1.08967 0
M  V30 3348 C 342.725 -5.10741 1.09273 0
M  V30 3349 H 344.419 -2.85692 0.895571 0
M  V30 3350 H 341.965 -1.37364 0.432109 0
M  V30 3351 H 343.918 -4.02675 -1.24221 0
M  V30 3352 H 342.642 -2.8404 -1.61211 0
M  V30 3353 H 341.301 -3.64813 0.361511 0
M  V30 3354 H 340.949 -4.65758 -1.89944 0
M  V30 3355 H 340.649 -5.84472 -0.605489 0
M  V30 3356 H 342.173 -5.90974 -1.53565 0
M  V30 3357 H 343.587 -5.68699 0.724841 0
M  V30 3358 H 341.984 -5.8088 1.50659 0
M  V30 3359 H 343.054 -4.45525 1.91404 0
M  V30 3360 N 344.397 -0.483516 -1.5 0
M  V30 3361 C 345.622 0.0667119 -2.07293 0
M  V30 3362 C 346.047 1.3164 -1.3436 0
M  V30 3363 O 345.405 1.76945 -0.394987 0
M  V30 3364 C 345.453 0.321126 -3.59167 0
M  V30 3365 O 344.557 1.39927 -3.87936 0
M  V30 3366 H 343.898 -0.0184758 -0.663743 0
M  V30 3367 H 346.428 -0.678125 -1.93035 0
M  V30 3368 H 346.438 0.557906 -4.04168 0
M  V30 3369 H 345.113 -0.592007 -4.11665 0
M  V30 3370 H 343.69 1.14882 -3.54763 0
M  V30 3371 N 345.875 1.56104 -0.216619 0
M  V30 3372 C 346.805 2.23063 0.690296 0
M  V30 3373 C 347.786 1.20072 1.20485 0
M  V30 3374 O 348.971 1.48643 1.24976 0
M  V30 3375 C 346.101 2.90672 1.90072 0
M  V30 3376 C 345.055 4.00092 1.5202 0
M  V30 3377 C 344.381 4.54972 2.80899 0
M  V30 3378 C 345.681 5.17398 0.71391 0
M  V30 3379 H 347.375 2.99109 0.132038 0
M  V30 3380 H 344.921 1.43866 0.0620664 0
M  V30 3381 H 346.874 3.36204 2.54057 0
M  V30 3382 H 345.598 2.12066 2.48386 0
M  V30 3383 H 344.257 3.55283 0.903839 0
M  V30 3384 H 343.905 3.73102 3.37348 0
M  V30 3385 H 343.605 5.28817 2.56176 0
M  V30 3386 H 345.129 5.0322 3.45836 0
M  V30 3387 H 346.543 5.59342 1.25735 0
M  V30 3388 H 344.94 5.97444 0.563951 0
M  V30 3389 H 346.01 4.84088 -0.280527 0
M  V30 3390 N 347.353 -0.0568162 1.57498 0
M  V30 3391 C 348.601 -0.751617 1.87604 0
M  V30 3392 C 348.922 -1.77351 0.81066 0
M  V30 3393 O 348.192 -1.95254 -0.159018 0
M  V30 3394 H 346.772 -0.280583 0.692302 0
M  V30 3395 H 349.434 -0.0293483 1.94878 0
M  V30 3396 H 348.53 -1.25852 2.856 0
M  V30 3397 N 348.832 -1.54138 -0.328536 0
M  V30 3398 C 350.057 -1.76378 -1.09112 0
M  V30 3399 C 350.482 -0.508596 -1.81094 0
M  V30 3400 O 349.84 0.539598 -1.73084 0
M  V30 3401 C 349.888 -2.95358 -2.06872 0
M  V30 3402 O 348.992 -2.66556 -3.14677 0
M  V30 3403 H 348.333 -0.584614 -0.314838 0
M  V30 3404 H 350.863 -2.01146 -0.374348 0
M  V30 3405 H 350.873 -3.22566 -2.4983 0
M  V30 3406 H 349.548 -3.86385 -1.5388 0
M  V30 3407 H 348.125 -2.50282 -2.7643 0
M  V30 3408 N 350.31 0.590341 -1.46126 0
M  V30 3409 C 351.721 1.17243 -1.45296 0
M  V30 3410 C 352.072 1.95281 -0.189723 0
M  V30 3411 O 351.197 2.04502 0.707674 0
M  V30 3412 C 351.792 2.13284 -2.6324 0
M  V30 3413 C 350.351 2.66832 -2.65476 0
M  V30 3414 C 349.498 1.42557 -2.3785 0
M  V30 3415 H 352.449 0.378692 -1.54116 0
M  V30 3416 H 352.47 2.96619 -2.38323 0
M  V30 3417 H 351.982 1.56459 -3.55165 0
M  V30 3418 H 350.083 3.27548 -1.77603 0
M  V30 3419 H 350.196 3.10088 -3.65215 0
M  V30 3420 H 348.56 1.72107 -1.87753 0
M  V30 3421 H 349.343 0.875741 -3.31942 0
M  V30 3422 N 351.788 1.33704 0.83433 0
M  V30 3423 C 353.013 1.28615 1.62705 0
M  V30 3424 C 353.438 -0.139242 1.87584 0
M  V30 3425 O 352.796 -1.09734 1.4432 0
M  V30 3426 C 352.844 2.07139 2.95171 0
M  V30 3427 O 351.948 1.4331 3.86699 0
M  V30 3428 H 351.289 0.44226 0.49528 0
M  V30 3429 H 353.819 1.76335 1.03766 0
M  V30 3430 H 353.829 2.18073 3.44831 0
M  V30 3431 H 352.504 3.10779 2.76386 0
M  V30 3432 H 351.081 1.4105 3.45195 0
M  V30 3433 N 353.266 -1.05314 1.17247 0
M  V30 3434 C 354.677 -1.59753 0.96623 0
M  V30 3435 C 355.028 -1.9005 -0.487378 0
M  V30 3436 O 354.153 -1.68126 -1.36245 0
M  V30 3437 C 354.748 -2.90249 1.74759 0
M  V30 3438 C 353.307 -3.41352 1.58606 0
M  V30 3439 C 352.454 -2.15103 1.75002 0
M  V30 3440 H 355.405 -0.881406 1.31973 0
M  V30 3441 H 355.426 -3.60097 1.22925 0
M  V30 3442 H 354.938 -2.68166 2.8055 0
M  V30 3443 H 353.039 -3.68474 0.552985 0
M  V30 3444 H 353.152 -4.16019 2.37624 0
M  V30 3445 H 351.516 -2.25804 1.17833 0
M  V30 3446 H 352.299 -1.95491 2.82202 0
M  V30 3447 N 354.744 -0.972509 -1.24016 0
M  V30 3448 C 355.969 -0.654417 -1.96805 0
M  V30 3449 C 356.394 0.770398 -1.716 0
M  V30 3450 O 355.752 1.52361 -0.982647 0
M  V30 3451 C 355.8 -0.941031 -3.48105 0
M  V30 3452 O 354.904 -0.0289472 -4.1239 0
M  V30 3453 H 354.245 -0.24692 -0.616382 0
M  V30 3454 H 356.775 -1.30396 -1.57664 0
M  V30 3455 H 356.785 -0.87452 -3.98517 0
M  V30 3456 H 355.46 -1.97939 -3.65777 0
M  V30 3457 H 354.037 -0.149192 -3.72601 0
M  V30 3458 N 356.222 1.38976 -0.743202 0
M  V30 3459 C 357.185 2.28901 -0.117014 0
M  V30 3460 C 358.185 1.46698 0.658503 0
M  V30 3461 O 359.375 1.67274 0.486305 0
M  V30 3462 C 356.507 3.30309 0.84315 0
M  V30 3463 H 357.7 2.8578 -0.909373 0
M  V30 3464 H 355.253 1.47761 -0.509547 0
M  V30 3465 H 355.988 2.785 1.66157 0
M  V30 3466 H 355.773 3.91029 0.289594 0
M  V30 3467 H 357.263 3.97577 1.2776 0
M  V30 3468 N 357.7 0.491464 1.49741 0
M  V30 3469 C 358.928 -0.0535151 2.06831 0
M  V30 3470 C 359.343 -1.31683 1.35296 0
M  V30 3471 O 358.7 -1.77402 0.42836 0
M  V30 3472 C 358.751 -0.320835 3.60073 0
M  V30 3473 O 358.472 0.892394 4.28915 0
M  V30 3474 C 359.973 -0.910519 4.33848 0
M  V30 3475 H 357.193 0.0161909 0.670805 0
M  V30 3476 H 359.737 0.68609 1.92647 0
M  V30 3477 H 357.892 -1.0104 3.73991 0
M  V30 3478 H 358.306 0.649401 5.20464 0
M  V30 3479 H 359.78 -1.04721 5.41976 0
M  V30 3480 H 360.257 -1.90589 3.95692 0
M  V30 3481 H 360.863 -0.258712 4.24512 0
M  V30 3482 N 359.178 -1.55987 0.224894 0
M  V30 3483 C 360.108 -2.23426 -0.678457 0
M  V30 3484 C 361.089 -1.20709 -1.19847 0
M  V30 3485 O 362.274 -1.49304 -1.24186 0
M  V30 3486 C 359.404 -2.91676 -1.88527 0
M  V30 3487 C 358.358 -4.00893 -1.49896 0
M  V30 3488 C 357.684 -4.56455 -2.78483 0
M  V30 3489 C 358.984 -5.17769 -0.686461 0
M  V30 3490 H 360.678 -2.99175 -0.116173 0
M  V30 3491 H 358.224 -1.43897 -0.054436 0
M  V30 3492 H 360.177 -3.37547 -2.5227 0
M  V30 3493 H 358.901 -2.1338 -2.47258 0
M  V30 3494 H 357.56 -3.55758 -0.884985 0
M  V30 3495 H 357.208 -3.74886 -3.35365 0
M  V30 3496 H 356.908 -5.30169 -2.53368 0
M  V30 3497 H 358.432 -5.05047 -3.43162 0
M  V30 3498 H 359.846 -5.60001 -1.22767 0
M  V30 3499 H 358.243 -5.97735 -0.532259 0
M  V30 3500 H 359.313 -4.83932 0.306196 0
M  V30 3501 N 360.656 0.0484629 -1.57525 0
M  V30 3502 C 361.566 1.07241 -2.08654 0
M  V30 3503 C 362.582 1.409 -1.02095 0
M  V30 3504 O 363.758 1.50609 -1.33712 0
M  V30 3505 C 360.823 2.36008 -2.5397 0
M  V30 3506 C 359.884 2.09108 -3.7493 0
M  V30 3507 C 359.117 3.31736 -4.18075 0
M  V30 3508 O 359.34 4.41714 -3.60895 0
M  V30 3509 O 358.274 3.18576 -5.10679 0
M  V30 3510 H 362.1 0.667965 -2.96263 0
M  V30 3511 H 359.685 0.26417 -1.47046 0
M  V30 3512 H 361.567 3.11747 -2.83535 0
M  V30 3513 H 360.242 2.75786 -1.69481 0
M  V30 3514 H 359.149 1.31 -3.50414 0
M  V30 3515 H 360.482 1.74198 -4.60343 0
M  V30 3516 N 362.134 1.5431 0.320358 0
M  V30 3517 C 363.066 1.80262 1.41556 0
M  V30 3518 C 364.079 0.684723 1.477 0
M  V30 3519 O 365.268 0.961886 1.50366 0
M  V30 3520 C 362.368 1.90825 2.8007 0
M  V30 3521 C 361.541 3.21023 2.97091 0
M  V30 3522 C 360.6 3.22247 4.15985 0
M  V30 3523 O 359.626 3.95871 4.08992 0
M  V30 3524 N 360.828 2.46258 5.25678 0
M  V30 3525 H 363.593 2.74778 1.19655 0
M  V30 3526 H 361.154 1.53646 0.510358 0
M  V30 3527 H 363.146 1.89067 3.57821 0
M  V30 3528 H 361.716 1.03392 2.95006 0
M  V30 3529 H 360.936 3.35715 2.06614 0
M  V30 3530 H 362.224 4.0698 3.05361 0
M  V30 3531 H 361.622 1.86037 5.34235 0
M  V30 3532 H 360.179 2.50275 6.01835 0
M  V30 3533 N 363.613 -0.582584 1.46437 0
M  V30 3534 C 364.576 -1.67366 1.56592 0
M  V30 3535 C 365.576 -1.54575 0.443072 0
M  V30 3536 O 366.766 -1.59191 0.707381 0
M  V30 3537 C 363.898 -3.06791 1.48634 0
M  V30 3538 H 365.091 -1.5972 2.5383 0
M  V30 3539 H 362.644 -0.800432 1.34249 0
M  V30 3540 H 363.379 -3.19993 0.526763 0
M  V30 3541 H 363.164 -3.17484 2.30101 0
M  V30 3542 H 364.654 -3.86218 1.58826 0
M  V30 3543 N 365.091 -1.34144 -0.827227 0
M  V30 3544 C 366.337 -1.26446 -1.58554 0
M  V30 3545 C 366.67 0.1664 -1.93486 0
M  V30 3546 O 365.945 1.1107 -1.59667 0
M  V30 3547 C 366.228 -2.15111 -2.8879 0
M  V30 3548 C 366.081 -3.66712 -2.60465 0
M  V30 3549 C 367.4 -2.03311 -3.90324 0
M  V30 3550 H 364.519 -0.46067 -0.575284 0
M  V30 3551 H 367.161 -1.64356 -0.953269 0
M  V30 3552 H 365.311 -1.8291 -3.42748 0
M  V30 3553 H 366.983 -4.09259 -2.1285 0
M  V30 3554 H 365.226 -3.88014 -1.93978 0
M  V30 3555 H 365.897 -4.24112 -3.53317 0
M  V30 3556 H 368.373 -2.31574 -3.45706 0
M  V30 3557 H 367.249 -2.67582 -4.79261 0
M  V30 3558 H 367.51 -1.00879 -4.30437 0
M  V30 3559 N 366.569 1.04691 -1.17803 0
M  V30 3560 C 367.517 2.14665 -0.895635 0
M  V30 3561 C 368.511 1.68806 0.141679 0
M  V30 3562 O 369.717 1.79999 -0.00587914 0
M  V30 3563 H 366.092 0.701038 -0.272121 0
M  V30 3564 H 368.063 2.35685 -1.83017 0
M  V30 3565 C 366.812 3.45019 -0.430962 0
M  V30 3566 H 366.135 3.8071 -1.22064 0
M  V30 3567 H 367.575 4.23125 -0.272301 0
M  V30 3568 C 366.034 3.25943 0.852207 0
M  V30 3569 O 366.564 3.5296 1.91786 0
M  V30 3570 N 364.77 2.79304 0.802346 0
M  V30 3571 H 364.317 2.57518 -0.0650788 0
M  V30 3572 H 364.275 2.66921 1.66134 0
M  V30 3573 N 368.047 0.979072 1.23499 0
M  V30 3574 C 369.272 0.664845 1.96455 0
M  V30 3575 C 369.697 -0.761287 1.72006 0
M  V30 3576 O 369.055 -1.51837 0.990713 0
M  V30 3577 C 369.103 0.959479 3.47601 0
M  V30 3578 O 368.207 0.0508168 4.12369 0
M  V30 3579 H 367.548 0.250185 0.615064 0
M  V30 3580 H 370.078 1.31231 1.5697 0
M  V30 3581 H 370.088 0.895642 3.98048 0
M  V30 3582 H 368.763 1.99876 3.64723 0
M  V30 3583 H 367.34 0.16895 3.72517 0
M  V30 3584 N 369.525 -1.3858 0.750561 0
M  V30 3585 C 370.488 -2.28836 0.129152 0
M  V30 3586 C 371.488 -1.47045 -0.650714 0
M  V30 3587 O 372.678 -1.6753 -0.477428 0
M  V30 3588 C 369.81 -3.30751 -0.825622 0
M  V30 3589 H 371.003 -2.85294 0.924516 0
M  V30 3590 H 368.556 -1.47489 0.517376 0
M  V30 3591 H 369.291 -2.79378 -1.64677 0
M  V30 3592 H 369.076 -3.91177 -0.268852 0
M  V30 3593 H 370.566 -3.98249 -1.2565 0
M  V30 3594 N 371.003 -0.499398 -1.49478 0
M  V30 3595 C 372.231 0.0425456 -2.06856 0
M  V30 3596 C 372.646 1.30964 -1.35992 0
M  V30 3597 O 372.003 1.77172 -0.437762 0
M  V30 3598 C 372.054 0.301735 -3.60239 0
M  V30 3599 O 371.775 -0.915127 -4.28436 0
M  V30 3600 C 373.276 0.887499 -4.34325 0
M  V30 3601 H 370.496 -0.0197482 -0.670709 0
M  V30 3602 H 373.04 -0.696297 -1.92281 0
M  V30 3603 H 371.195 0.990556 -3.74522 0
M  V30 3604 H 371.609 -0.676993 -5.20113 0
M  V30 3605 H 373.083 1.01845 -5.42523 0
M  V30 3606 H 373.56 1.88488 -3.96698 0
M  V30 3607 H 374.166 0.236196 -4.24644 0
M  V30 3608 N 372.481 1.55866 -0.233164 0
M  V30 3609 C 373.706 2.03449 0.402906 0
M  V30 3610 C 374.131 1.11166 1.51736 0
M  V30 3611 O 373.489 0.101996 1.81013 0
M  V30 3612 C 373.537 3.49165 0.9009 0
M  V30 3613 O 372.641 3.60019 2.01147 0
M  V30 3614 H 371.982 0.657913 0.0897025 0
M  V30 3615 H 374.512 2.01493 -0.355201 0
M  V30 3616 H 374.522 3.89716 1.2077 0
M  V30 3617 H 373.197 4.15813 0.0852889 0
M  V30 3618 H 371.774 3.3136 1.71042 0
M  V30 3619 N 373.959 -0.0401083 1.57549 0
M  V30 3620 C 375.375 -0.395556 1.54621 0
M  V30 3621 C 375.575 -1.77281 0.957799 0
M  V30 3622 O 374.631 -2.45888 0.574031 0
M  V30 3623 C 375.944 -0.307535 2.99123 0
M  V30 3624 C 377.492 -0.385425 3.10618 0
M  V30 3625 C 377.967 -0.326973 4.56831 0
M  V30 3626 N 379.458 -0.386102 4.61588 0
M  V30 3627 C 380.193 -0.363591 5.72246 0
M  V30 3628 N 379.689 -0.29402 6.92176 0
M  V30 3629 N 381.482 -0.412503 5.60584 0
M  V30 3630 H 373.633 0.861325 1.94152 0
M  V30 3631 H 375.896 0.326445 0.890021 0
M  V30 3632 H 375.602 0.638461 3.45856 0
M  V30 3633 H 375.476 -1.10552 3.60636 0
M  V30 3634 H 377.863 -1.32185 2.63839 0
M  V30 3635 H 377.944 0.44171 2.51957 0
M  V30 3636 H 377.588 0.605738 5.04275 0
M  V30 3637 H 377.518 -1.17207 5.13391 0
M  V30 3638 H 380.009 -0.442832 3.75296 0
M  V30 3639 H 380.322 -0.28164 7.72287 0
M  V30 3640 H 378.667 -0.260232 6.94513 0
M  V30 3641 H 381.858 -0.464769 4.65787 0
M  V30 3642 H 382.031 -0.391492 6.46816 0
M  V30 3643 N 375.437 -1.54477 -0.31217 0
M  V30 3644 C 376.685 -1.72884 -1.04668 0
M  V30 3645 C 377.006 -0.511477 -1.88173 0
M  V30 3646 O 376.276 0.474407 -1.90069 0
M  V30 3647 H 374.856 -0.637461 -0.389425 0
M  V30 3648 H 377.518 -1.91807 -0.345852 0
M  V30 3649 H 376.614 -2.61334 -1.70619 0
M  V30 3650 N 376.915 0.57481 -1.46744 0
M  V30 3651 C 378.161 1.3347 -1.52688 0
M  V30 3652 C 378.494 1.93353 -0.181229 0
M  V30 3653 O 377.769 1.76912 0.808237 0
M  V30 3654 C 378.052 2.45811 -2.63152 0
M  V30 3655 C 377.905 1.90912 -4.07275 0
M  V30 3656 C 379.224 3.47822 -2.69644 0
M  V30 3657 H 376.343 0.483935 -0.555856 0
M  V30 3658 H 378.985 0.644968 -1.78718 0
M  V30 3659 H 377.135 3.04646 -2.41088 0
M  V30 3660 H 378.807 1.36473 -4.4065 0
M  V30 3661 H 377.05 1.21691 -4.16382 0
M  V30 3662 H 377.721 2.72042 -4.80309 0
M  V30 3663 H 380.197 2.9888 -2.895 0
M  V30 3664 H 379.073 4.23876 -3.48742 0
M  V30 3665 H 379.334 4.05555 -1.76005 0
M  V30 3666 N 378.394 1.34581 0.820102 0
M  V30 3667 C 379.324 1.29038 1.94606 0
M  V30 3668 C 380.305 0.1673 1.69275 0
M  V30 3669 O 381.49 0.360112 1.90832 0
M  V30 3670 C 378.62 1.04793 3.31113 0
M  V30 3671 C 377.574 2.13597 3.70891 0
M  V30 3672 C 376.9 1.74537 5.05412 0
M  V30 3673 C 378.2 3.55451 3.8269 0
M  V30 3674 H 379.894 2.23248 1.99501 0
M  V30 3675 H 377.44 1.0747 0.958449 0
M  V30 3676 H 379.393 0.995592 4.0947 0
M  V30 3677 H 378.117 0.0702565 3.26524 0
M  V30 3678 H 376.776 2.17905 2.9481 0
M  V30 3679 H 376.424 0.754226 4.97313 0
M  V30 3680 H 376.124 2.47361 5.32997 0
M  V30 3681 H 377.648 1.70803 5.86224 0
M  V30 3682 H 379.062 3.5354 4.51312 0
M  V30 3683 H 377.459 4.26922 4.21732 0
M  V30 3684 H 378.529 3.92587 2.84611 0
M  V30 3685 N 379.872 -1.04064 1.18357 0
M  V30 3686 C 381.118 -1.77528 0.980397 0
M  V30 3687 C 381.451 -1.87948 -0.48879 0
M  V30 3688 O 380.726 -1.3876 -1.36293 0
M  V30 3689 C 381.009 -3.20797 1.63588 0
M  V30 3690 C 380.862 -3.1832 3.17793 0
M  V30 3691 C 382.181 -4.18911 1.34914 0
M  V30 3692 H 379.3 -0.644443 0.357578 0
M  V30 3693 H 381.942 -1.2156 1.46024 0
M  V30 3694 H 380.092 -3.68586 1.22788 0
M  V30 3695 H 381.764 -2.78521 3.67728 0
M  V30 3696 H 380.007 -2.56351 3.49952 0
M  V30 3697 H 380.678 -4.19489 3.58794 0
M  V30 3698 H 383.154 -3.7967 1.70265 0
M  V30 3699 H 382.03 -5.17374 1.83346 0
M  V30 3700 H 382.291 -4.41262 0.272027 0
M  V30 3701 N 381.35 -0.985608 -1.22978 0
M  V30 3702 C 382.596 -0.65836 -1.91816 0
M  V30 3703 C 382.929 0.806692 -1.76653 0
M  V30 3704 O 382.204 1.58252 -1.13078 0
M  V30 3705 C 382.487 -1.056 -3.44268 0
M  V30 3706 C 382.34 -2.57906 -3.68516 0
M  V30 3707 C 383.659 -0.603781 -4.35939 0
M  V30 3708 H 380.778 -0.24065 -0.696604 0
M  V30 3709 H 383.42 -1.22783 -1.44998 0
M  V30 3710 H 381.57 -0.571445 -3.84274 0
M  V30 3711 H 383.242 -3.13976 -3.3796 0
M  V30 3712 H 381.485 -3.00305 -3.13048 0
M  V30 3713 H 382.156 -2.80779 -4.75255 0
M  V30 3714 H 384.632 -1.01987 -4.03408 0
M  V30 3715 H 383.508 -0.910383 -5.41298 0
M  V30 3716 H 383.769 0.495761 -4.39312 0
M  V30 3717 N 382.828 1.3818 -0.7579 0
M  V30 3718 C 383.791 2.28764 -0.141286 0
M  V30 3719 C 384.791 1.47388 0.642907 0
M  V30 3720 O 385.981 1.67781 0.468536 0
M  V30 3721 C 383.113 3.31184 0.808069 0
M  V30 3722 H 384.306 2.848 -0.939633 0
M  V30 3723 H 381.859 1.47212 -0.525191 0
M  V30 3724 H 382.594 2.80247 1.63193 0
M  V30 3725 H 382.379 3.91314 0.248104 0
M  V30 3726 H 383.869 3.98909 1.23536 0
M  V30 3727 N 384.306 0.507319 1.49211 0
M  V30 3728 C 385.269 -0.256763 2.27757 0
M  V30 3729 C 386.269 -0.888287 1.34038 0
M  V30 3730 O 387.459 -0.751841 1.5714 0
M  V30 3731 C 384.591 -1.36905 3.12202 0
M  V30 3732 H 385.784 0.432557 2.96764 0
M  V30 3733 H 383.337 0.262488 1.5408 0
M  V30 3734 H 384.072 -2.09233 2.47775 0
M  V30 3735 H 383.857 -0.921599 3.81115 0
M  V30 3736 H 385.347 -1.9071 3.7151 0
M  V30 3737 N 385.784 -1.5574 0.241426 0
M  V30 3738 C 387.009 -2.0366 -0.392111 0
M  V30 3739 C 387.434 -1.11969 -1.51144 0
M  V30 3740 O 386.792 -0.111594 -1.80956 0
M  V30 3741 C 386.84 -3.49638 -0.882371 0
M  V30 3742 O 385.944 -3.6108 -1.99235 0
M  V30 3743 H 385.285 -0.658379 -0.0862122 0
M  V30 3744 H 387.815 -2.01302 0.365881 0
M  V30 3745 H 387.825 -3.90351 -1.18702 0
M  V30 3746 H 386.5 -4.15852 -0.0632361 0
M  V30 3747 H 385.077 -3.32262 -1.69282 0
M  V30 3748 N 387.262 0.0317525 -1.57568 0
M  V30 3749 C 388.51 0.721676 -1.88776 0
M  V30 3750 C 388.831 1.76039 -0.838772 0
M  V30 3751 O 388.101 1.95482 0.127935 0
M  V30 3752 H 386.681 0.269534 -0.696678 0
M  V30 3753 H 389.343 -0.00165879 -1.949 0
M  V30 3754 H 388.439 1.21293 -2.87566 0
M  V30 3755 N 388.74 1.54641 0.303973 0
M  V30 3756 C 389.688 1.86137 1.39484 0
M  V30 3757 C 390.682 0.734854 1.52631 0
M  V30 3758 O 391.888 0.918803 1.54784 0
M  V30 3759 H 388.263 0.590324 0.465856 0
M  V30 3760 H 390.234 2.77324 1.10154 0
M  V30 3761 C 388.983 2.12274 2.75382 0
M  V30 3762 H 388.306 2.98429 2.66046 0
M  V30 3763 H 389.746 2.38254 3.5073 0
M  V30 3764 C 388.205 0.920365 3.24085 0
M  V30 3765 O 388.735 0.139377 4.01458 0
M  V30 3766 N 386.941 0.726566 2.81371 0
M  V30 3767 H 386.488 1.36332 2.18567 0
M  V30 3768 H 386.446 -0.0763799 3.14307 0
M  V30 3769 N 390.218 -0.567019 1.47046 0
M  V30 3770 C 391.443 -1.3551 1.57009 0
M  V30 3771 C 391.868 -1.86841 0.217259 0
M  V30 3772 O 391.226 -1.62435 -0.805268 0
M  V30 3773 C 391.274 -2.50777 2.5912 0
M  V30 3774 O 390.378 -3.52706 2.13711 0
M  V30 3775 H 389.719 -0.402919 0.52778 0
M  V30 3776 H 392.249 -0.686241 1.92748 0
M  V30 3777 H 392.259 -2.97481 2.79229 0
M  V30 3778 H 390.934 -2.12771 3.57353 0
M  V30 3779 H 389.511 -3.12374 2.03659 0
M  V30 3780 N 391.696 -1.35014 -0.812953 0
M  V30 3781 C 392.944 -1.27678 -1.56661 0
M  V30 3782 C 393.265 0.150359 -1.94419 0
M  V30 3783 O 392.535 1.08532 -1.63088 0
M  V30 3784 H 391.115 -0.469602 -0.580933 0
M  V30 3785 H 393.777 -1.69043 -0.970076 0
M  V30 3786 H 392.873 -1.88833 -2.48492 0
M  V30 3787 N 393.175 1.03435 -1.18907 0
M  V30 3788 C 394.138 2.09756 -0.923844 0
M  V30 3789 C 395.138 1.60528 0.093416 0
M  V30 3790 O 396.328 1.73631 -0.140727 0
M  V30 3791 C 393.46 3.38692 -0.387354 0
M  V30 3792 H 394.653 2.34719 -1.86674 0
M  V30 3793 H 392.206 1.19959 -1.00197 0
M  V30 3794 H 392.941 3.19396 0.561845 0
M  V30 3795 H 392.726 3.75742 -1.12074 0
M  V30 3796 H 394.216 4.17016 -0.220694 0
M  V30 3797 N 394.653 0.992116 1.22453 0
M  V30 3798 C 395.901 0.666215 1.90804 0
M  V30 3799 C 396.222 -0.804152 1.77647 0
M  V30 3800 O 395.492 -1.57629 1.16318 0
M  V30 3801 H 394.072 0.243423 0.706225 0
M  V30 3802 H 396.734 1.25845 1.48825 0
M  V30 3803 H 395.83 0.928069 2.97982 0
M  V30 3804 N 396.131 -1.37776 0.765217 0
M  V30 3805 C 397.356 -2.04651 0.336537 0
M  V30 3806 C 397.781 -1.57337 -1.03086 0
M  V30 3807 O 397.139 -0.730621 -1.65927 0
M  V30 3808 C 397.187 -3.58577 0.381468 0
M  V30 3809 O 396.291 -4.07706 -0.62042 0
M  V30 3810 H 395.632 -0.64756 0.146838 0
M  V30 3811 H 398.162 -1.76221 1.03959 0
M  V30 3812 H 398.172 -4.07314 0.236448 0
M  V30 3813 H 396.847 -3.9237 1.37907 0
M  V30 3814 H 395.424 -3.70306 -0.439056 0
M  V30 3815 N 397.609 -0.515225 -1.4894 0
M  V30 3816 C 398.858 0.0261361 -2.01683 0
M  V30 3817 C 399.171 1.36719 -1.39883 0
M  V30 3818 O 400.377 1.99606 -1.84037 0
M  V30 3819 C 398.833 0.0970111 -3.59769 0
M  V30 3820 C 398.441 -1.23825 -4.30548 0
M  V30 3821 C 400.185 0.587981 -4.20408 0
M  V30 3822 C 398.092 -1.12877 -5.80528 0
M  V30 3823 H 397.022 0.0135398 -0.753878 0
M  V30 3824 H 399.673 -0.656787 -1.71343 0
M  V30 3825 H 398.055 0.844694 -3.86886 0
M  V30 3826 H 399.229 -2.00034 -4.15118 0
M  V30 3827 H 397.544 -1.66379 -3.81716 0
M  V30 3828 H 400.141 0.68763 -5.3026 0
M  V30 3829 H 400.484 1.59026 -3.84729 0
M  V30 3830 H 401.017 -0.103582 -3.97665 0
M  V30 3831 H 397.756 -2.10575 -6.20756 0
M  V30 3832 H 397.276 -0.407799 -5.98412 0
M  V30 3833 H 398.955 -0.813332 -6.41868 0
M  V30 3834 N 399.087 1.5561 -0.249682 0
M  V30 3835 C 400.312 2.03865 0.381305 0
M  V30 3836 C 400.737 1.12769 1.50548 0
M  V30 3837 O 400.095 0.121189 1.80895 0
M  V30 3838 C 400.143 3.50101 0.863816 0
M  V30 3839 O 399.247 3.62132 1.97318 0
M  V30 3840 H 398.588 0.658827 0.0827194 0
M  V30 3841 H 401.118 2.01105 -0.376552 0
M  V30 3842 H 401.128 3.90975 1.1663 0
M  V30 3843 H 399.803 4.1588 0.0411816 0
M  V30 3844 H 398.38 3.33155 1.67517 0
M  V30 3845 N 400.565 -0.0233959 1.57583 0
M  V30 3846 C 401.795 -0.723631 1.93513 0
M  V30 3847 C 402.203 -1.69115 0.848333 0
M  V30 3848 O 401.546 -1.82781 -0.183484 0
M  V30 3849 C 401.608 -1.53075 3.25282 0
M  V30 3850 C 401.272 -0.727388 4.51174 0
M  V30 3851 C 402.269 -0.0251924 5.19894 0
M  V30 3852 C 399.954 -0.680256 4.97672 0
M  V30 3853 C 401.948 0.713374 6.33395 0
M  V30 3854 C 399.635 0.0620523 6.11068 0
M  V30 3855 C 400.633 0.757622 6.78785 0
M  V30 3856 O 400.321 1.48787 7.90011 0
M  V30 3857 H 400.053 -0.208051 0.643188 0
M  V30 3858 H 402.607 0.0167489 2.05393 0
M  V30 3859 H 400.837 -2.31508 3.09744 0
M  V30 3860 H 402.526 -2.11413 3.46496 0
M  V30 3861 H 403.292 -0.0526003 4.84971 0
M  V30 3862 H 399.171 -1.21116 4.44805 0
M  V30 3863 H 402.715 1.25683 6.86185 0
M  V30 3864 H 398.612 0.0913634 6.45435 0
M  V30 3865 H 399.38 1.40213 8.06401 0
M  V30 3866 N 402.043 -1.548 -0.295768 0
M  V30 3867 C 403.454 -1.65274 -0.868411 0
M  V30 3868 C 403.805 -0.56481 -1.87894 0
M  V30 3869 O 402.93 0.29767 -2.14343 0
M  V30 3870 C 403.525 -2.99603 -1.58188 0
M  V30 3871 C 402.084 -3.12181 -2.10286 0
M  V30 3872 C 401.231 -2.6098 -0.93727 0
M  V30 3873 H 404.182 -1.58534 -0.0726422 0
M  V30 3874 H 404.203 -2.91319 -2.44772 0
M  V30 3875 H 403.715 -3.78764 -0.846151 0
M  V30 3876 H 401.816 -2.3775 -2.8689 0
M  V30 3877 H 401.929 -4.18415 -2.33379 0
M  V30 3878 H 400.293 -2.17564 -1.32431 0
M  V30 3879 H 401.076 -3.42623 -0.215414 0
M  V30 3880 N 403.521 0.559213 -1.47345 0
M  V30 3881 C 404.484 1.64854 -1.59235 0
M  V30 3882 C 405.484 1.53851 -0.467607 0
M  V30 3883 O 406.674 1.58045 -0.732617 0
M  V30 3884 C 403.806 3.04388 -1.53496 0
M  V30 3885 H 404.999 1.55662 -2.56339 0
M  V30 3886 H 402.552 0.778973 -1.35505 0
M  V30 3887 H 403.287 3.19115 -0.577604 0
M  V30 3888 H 403.072 3.13783 -2.35123 0
M  V30 3889 H 404.562 3.83642 -1.6495 0
M  V30 3890 N 404.999 1.35443 0.805782 0
M  V30 3891 C 406.415 1.15499 1.10146 0
M  V30 3892 C 406.615 -0.0319975 2.01475 0
M  V30 3893 O 405.671 -0.70236 2.42535 0
M  V30 3894 C 406.984 2.45833 1.73166 0
M  V30 3895 C 408.532 2.52047 1.85583 0
M  V30 3896 C 409.007 3.82427 2.52019 0
M  V30 3897 N 410.498 3.83682 2.59504 0
M  V30 3898 C 411.233 4.81294 3.11679 0
M  V30 3899 N 410.729 5.89294 3.64287 0
M  V30 3900 N 412.522 4.6873 3.1024 0
M  V30 3901 H 404.673 2.11469 0.198678 0
M  V30 3902 H 406.936 0.93594 0.150731 0
M  V30 3903 H 406.642 3.32874 1.13526 0
M  V30 3904 H 406.516 2.6044 2.72857 0
M  V30 3905 H 408.903 1.65435 2.44367 0
M  V30 3906 H 408.984 2.41354 0.847455 0
M  V30 3907 H 408.628 4.69437 1.93885 0
M  V30 3908 H 408.558 3.90409 3.53395 0
M  V30 3909 H 411.049 3.05648 2.22234 0
M  V30 3910 H 411.362 6.59768 4.02401 0
M  V30 3911 H 409.707 5.92985 3.62483 0
M  V30 3912 H 412.898 3.83496 2.68419 0
M  V30 3913 H 413.071 5.44965 3.50596 0
M  V30 3914 N 406.477 -1.02803 1.19454 0
M  V30 3915 C 407.707 -1.79581 1.02149 0
M  V30 3916 C 408.115 -1.84182 -0.432851 0
M  V30 3917 O 407.458 -1.28534 -1.31243 0
M  V30 3918 C 407.52 -3.25993 1.51554 0
M  V30 3919 C 407.184 -3.45025 2.99678 0
M  V30 3920 C 408.181 -3.35175 3.97434 0
M  V30 3921 C 405.866 -3.71212 3.38389 0
M  V30 3922 C 407.86 -3.51238 5.31893 0
M  V30 3923 C 405.547 -3.8692 4.73008 0
M  V30 3924 C 406.545 -3.76936 5.69569 0
M  V30 3925 O 406.233 -3.92179 7.01748 0
M  V30 3926 H 405.965 -0.571962 0.360327 0
M  V30 3927 H 408.519 -1.30367 1.58725 0
M  V30 3928 H 406.749 -3.76235 0.893543 0
M  V30 3929 H 408.438 -3.84368 1.30444 0
M  V30 3930 H 409.204 -3.14895 3.68872 0
M  V30 3931 H 405.083 -3.78075 2.6378 0
M  V30 3932 H 408.627 -3.43362 6.07247 0
M  V30 3933 H 404.524 -4.06699 5.01265 0
M  V30 3934 H 405.292 -4.09265 7.08833 0
M  V30 3935 N 407.956 -0.998596 -1.21925 0
M  V30 3936 C 408.919 -0.558679 -2.22287 0
M  V30 3937 C 409.919 0.361525 -1.56683 0
M  V30 3938 O 411.109 0.152695 -1.73529 0
M  V30 3939 C 408.241 0.18661 -3.40389 0
M  V30 3940 H 409.434 -1.4463 -2.62721 0
M  V30 3941 H 406.987 -0.786413 -1.35075 0
M  V30 3942 H 407.722 1.08996 -3.05435 0
M  V30 3943 H 407.507 -0.474188 -3.89222 0
M  V30 3944 H 408.997 0.482367 -4.14805 0
M  V30 3945 N 409.434 1.37368 -0.772513 0
M  V30 3946 C 410.382 2.32134 -0.147111 0
M  V30 3947 C 411.376 1.54972 0.684106 0
M  V30 3948 O 412.582 1.70363 0.581083 0
M  V30 3949 H 408.957 0.751449 -0.028786 0
M  V30 3950 H 410.928 2.82464 -0.962112 0
M  V30 3951 C 409.677 3.40226 0.71703 0
M  V30 3952 H 409 3.99706 0.0867951 0
M  V30 3953 H 410.44 4.08897 1.12159 0
M  V30 3954 C 408.899 2.80372 1.86797 0
M  V30 3955 O 409.429 2.71183 2.96349 0
M  V30 3956 N 407.635 2.37904 1.66883 0
M  V30 3957 H 407.182 2.45578 0.777759 0
M  V30 3958 H 407.14 1.98202 2.44056 0
M  V30 3959 N 410.912 0.523116 1.48665 0
M  V30 3960 C 411.875 -0.232592 2.28017 0
M  V30 3961 C 412.875 -0.874021 1.34972 0
M  V30 3962 O 414.065 -0.735132 1.57929 0
M  V30 3963 C 411.197 -1.33586 3.13636 0
M  V30 3964 H 412.39 0.464008 2.96289 0
M  V30 3965 H 409.943 0.278816 1.53793 0
M  V30 3966 H 410.678 -2.06593 2.4998 0
M  V30 3967 H 410.463 -0.881125 3.82071 0
M  V30 3968 H 411.953 -1.86759 3.73511 0
M  V30 3969 N 412.39 -1.55475 0.257931 0
M  V30 3970 C 413.323 -2.179 -0.677862 0
M  V30 3971 C 414.301 -1.13448 -1.16483 0
M  V30 3972 O 415.485 -1.41889 -1.24095 0
M  V30 3973 C 412.612 -2.78851 -1.92249 0
M  V30 3974 C 411.658 -3.96454 -1.57246 0
M  V30 3975 S 412.491 -5.31349 -0.665501 0
M  V30 3976 C 413.647 -5.9576 -1.91889 0
M  V30 3977 H 413.88 -2.96934 -0.147396 0
M  V30 3978 H 411.413 -1.54342 0.0423023 0
M  V30 3979 H 413.371 -3.14602 -2.63697 0
M  V30 3980 H 412.032 -1.99742 -2.42409 0
M  V30 3981 H 411.225 -4.37731 -2.49814 0
M  V30 3982 H 410.827 -3.62038 -0.938325 0
M  V30 3983 H 413.119 -6.13947 -2.86487 0
M  V30 3984 H 414.062 -6.9094 -1.54942 0
M  V30 3985 H 414.47 -5.2494 -2.076 0
M  V30 3986 N 413.868 0.0150385 -1.57593 0
M  V30 3987 C 414.831 0.995996 -2.06428 0
M  V30 3988 C 415.831 1.2818 -0.970903 0
M  V30 3989 O 417.021 1.22949 -1.23406 0
M  V30 3990 C 414.153 2.32506 -2.49307 0
M  V30 3991 H 415.346 0.573873 -2.94358 0
M  V30 3992 H 412.899 0.262186 -1.54085 0
M  V30 3993 H 413.634 2.79438 -1.64575 0
M  V30 3994 H 413.419 2.13087 -3.29145 0
M  V30 3995 H 414.909 3.02906 -2.87468 0
M  V30 3996 N 415.346 1.54954 0.287554 0
M  V30 3997 C 416.592 1.75132 1.02257 0
M  V30 3998 C 416.925 0.542858 1.86458 0
M  V30 3999 O 416.2 -0.459856 1.88986 0
M  V30 4000 C 416.483 3.04812 1.91733 0
M  V30 4001 C 416.336 4.35985 1.10622 0
M  V30 4002 C 417.655 3.30438 2.90687 0
M  V30 4003 H 414.774 0.637194 0.370341 0
M  V30 4004 H 417.416 1.87678 0.296111 0
M  V30 4005 H 415.566 2.94247 2.53675 0
M  V30 4006 H 417.238 4.58487 0.508636 0
M  V30 4007 H 415.481 4.31865 0.409271 0
M  V30 4008 H 416.152 5.23017 1.76513 0
M  V30 4009 H 418.628 3.40701 2.38877 0
M  V30 4010 H 417.504 4.22467 3.50447 0
M  V30 4011 H 417.765 2.49377 3.65053 0
M  V30 4012 N 416.824 -0.551391 1.4764 0
M  V30 4013 C 418.072 -1.30572 1.54258 0
M  V30 4014 C 418.393 -1.93877 0.208963 0
M  V30 4015 O 417.663 -1.80234 -0.767619 0
M  V30 4016 H 416.243 -0.484894 0.568231 0
M  V30 4017 H 418.905 -0.643402 1.83974 0
M  V30 4018 H 418.001 -2.09621 2.31226 0
M  V30 4019 N 418.302 -1.35869 -0.798587 0
M  V30 4020 C 419.265 -1.29307 -1.89242 0
M  V30 4021 C 420.265 -0.202747 -1.59517 0
M  V30 4022 O 421.455 -0.456957 -1.681 0
M  V30 4023 C 418.587 -1.00229 -3.25833 0
M  V30 4024 H 419.78 -2.26576 -1.96478 0
M  V30 4025 H 417.333 -1.20509 -0.995358 0
M  V30 4026 H 418.068 -0.033801 -3.24282 0
M  V30 4027 H 417.853 -1.79121 -3.48795 0
M  V30 4028 H 419.343 -0.98219 -4.05885 0
M  V30 4029 N 419.78 1.02168 -1.19998 0
M  V30 4030 C 421.008 1.79296 -1.03249 0
M  V30 4031 C 421.423 1.84103 0.418502 0
M  V30 4032 O 420.78 1.29031 1.29063 0
M  V30 4033 C 420.831 3.24007 -1.60319 0
M  V30 4034 O 420.552 3.19512 -2.99739 0
M  V30 4035 C 422.053 4.17704 -1.48453 0
M  V30 4036 H 419.273 0.564016 -0.363493 0
M  V30 4037 H 421.817 1.28639 -1.58973 0
M  V30 4038 H 419.972 3.7183 -1.08727 0
M  V30 4039 H 420.386 4.10306 -3.26725 0
M  V30 4040 H 421.86 5.17104 -1.93153 0
M  V30 4041 H 422.337 4.37029 -0.436193 0
M  V30 4042 H 422.943 3.7576 -1.99211 0
M  V30 4043 N 421.258 1.00505 1.21394 0
M  V30 4044 C 422.535 0.603277 1.86064 0
M  V30 4045 C 422.915 -0.919095 1.90042 0
M  V30 4046 O 422.263 -1.80607 1.39977 0
M  V30 4047 C 422.473 1.23772 3.26315 0
M  V30 4048 C 423.821 1.34586 4.02705 0
M  V30 4049 O 424.845 1.19304 3.35626 0
M  V30 4050 O 423.704 1.59169 5.22807 0
M  V30 4051 H 420.798 0.206634 0.800769 0
M  V30 4052 H 423.344 1.1017 1.29076 0
M  V30 4053 H 422.116 2.27848 3.18121 0
M  V30 4054 H 421.739 0.725648 3.90922 0
M  V30 4055 N 422.737 -1.36956 0.779787 0
M  V30 4056 C 423.669 -2.28833 0.129639 0
M  V30 4057 C 424.682 -1.4902 -0.655511 0
M  V30 4058 O 425.871 -1.71578 -0.492279 0
M  V30 4059 C 422.971 -3.2833 -0.839792 0
M  V30 4060 C 422.144 -4.3727 -0.10675 0
M  V30 4061 C 421.203 -5.16789 -0.990717 0
M  V30 4062 O 420.229 -5.67406 -0.451516 0
M  V30 4063 N 421.431 -5.32294 -2.3161 0
M  V30 4064 H 424.196 -2.85268 0.918803 0
M  V30 4065 H 421.757 -1.49019 0.632841 0
M  V30 4066 H 423.749 -3.78413 -1.43477 0
M  V30 4067 H 422.319 -2.72605 -1.52988 0
M  V30 4068 H 421.539 -3.88478 0.669216 0
M  V30 4069 H 422.827 -5.07229 0.399464 0
M  V30 4070 H 422.225 -4.92768 -2.77843 0
M  V30 4071 H 420.782 -5.85656 -2.86095 0
M  V30 4072 N 424.215 -0.530993 -1.48385 0
M  V30 4073 C 425.163 0.244595 -2.3131 0
M  V30 4074 C 426.157 0.93451 -1.41291 0
M  V30 4075 O 427.363 0.85878 -1.58193 0
M  V30 4076 H 423.738 0.0977472 -0.74562 0
M  V30 4077 H 425.709 -0.474369 -2.94605 0
M  V30 4078 C 424.458 1.2779 -3.23365 0
M  V30 4079 H 423.781 0.756439 -3.92579 0
M  V30 4080 H 425.221 1.79198 -3.84271 0
M  V30 4081 C 423.68 2.31205 -2.45042 0
M  V30 4082 O 424.21 3.37661 -2.17596 0
M  V30 4083 N 422.416 2.04446 -2.0652 0
M  V30 4084 H 421.963 1.17891 -2.2904 0
M  V30 4085 H 421.921 2.73861 -1.54427 0
M  V30 4086 N 425.693 1.55336 -0.266172 0
M  V30 4087 C 426.641 2.23587 0.641228 0
M  V30 4088 C 427.635 1.22986 1.16494 0
M  V30 4089 O 428.841 1.40943 1.1196 0
M  V30 4090 H 425.216 0.717452 0.225315 0
M  V30 4091 H 427.187 2.9837 0.0426561 0
M  V30 4092 C 425.936 2.96369 1.81826 0
M  V30 4093 H 425.259 3.73563 1.42445 0
M  V30 4094 H 426.699 3.47459 2.42998 0
M  V30 4095 C 425.158 2.0133 2.70125 0
M  V30 4096 O 425.688 1.55875 3.70224 0
M  V30 4097 N 423.894 1.6802 2.37102 0
M  V30 4098 H 423.441 2.05181 1.55751 0
M  V30 4099 H 423.399 1.047 2.96454 0
M  V30 4100 N 427.171 -0.0066808 1.57599 0
M  V30 4101 C 428.119 -1.01851 2.09115 0
M  V30 4102 C 429.113 -1.36021 1.00969 0
M  V30 4103 O 430.319 -1.34663 1.19439 0
M  V30 4104 H 426.694 -0.346083 0.667631 0
M  V30 4105 H 428.665 -0.558394 2.93129 0
M  V30 4106 C 427.414 -2.30374 2.60429 0
M  V30 4107 H 426.737 -2.04947 3.43273 0
M  V30 4108 H 428.177 -2.99466 3.00161 0
M  V30 4109 C 426.636 -3.00893 1.51542 0
M  V30 4110 O 427.166 -3.91614 0.894484 0
M  V30 4111 N 425.372 -2.62603 1.2445 0
M  V30 4112 H 424.919 -1.88911 1.75129 0
M  V30 4113 H 424.877 -3.10101 0.518137 0
M  V30 4114 N 428.649 -1.55105 -0.279332 0
M  V30 4115 C 430.065 -1.46803 -0.626187 0
M  V30 4116 C 430.265 -0.676939 -1.89789 0
M  V30 4117 O 429.321 -0.19326 -2.51759 0
M  V30 4118 C 430.634 -2.90962 -0.759034 0
M  V30 4119 C 432.182 -3.01138 -0.853504 0
M  V30 4120 C 432.657 -4.46539 -1.01818 0
M  V30 4121 N 434.148 -4.50341 -1.08386 0
M  V30 4122 C 434.883 -5.60053 -1.22996 0
M  V30 4123 N 434.379 -6.79645 -1.34366 0
M  V30 4124 N 436.172 -5.47783 -1.26056 0
M  V30 4125 H 428.323 -2.04996 0.555921 0
M  V30 4126 H 430.586 -0.929325 0.187239 0
M  V30 4127 H 430.292 -3.51544 0.104852 0
M  V30 4128 H 430.166 -3.39619 -1.64131 0
M  V30 4129 H 432.553 -2.40658 -1.70786 0
M  V30 4130 H 432.634 -2.55745 0.0532466 0
M  V30 4131 H 432.278 -5.0762 -0.168504 0
M  V30 4132 H 432.208 -4.89583 -1.93948 0
M  V30 4133 H 434.699 -3.64191 -1.00864 0
M  V30 4134 H 435.012 -7.59012 -1.4533 0
M  V30 4135 H 433.357 -6.82469 -1.31382 0
M  V30 4136 H 436.548 -4.53294 -1.168 0
M  V30 4137 H 436.721 -6.33331 -1.37098 0
M  V30 4138 N 430.127 0.543554 -1.4793 0
M  V30 4139 C 431.09 1.63156 -1.60975 0
M  V30 4140 C 432.09 1.53346 -0.483899 0
M  V30 4141 O 433.28 1.5726 -0.749339 0
M  V30 4142 C 430.412 3.02743 -1.56716 0
M  V30 4143 H 431.605 1.52934 -2.57975 0
M  V30 4144 H 429.158 0.764557 -1.36324 0
M  V30 4145 H 429.893 3.18484 -0.611418 0
M  V30 4146 H 429.678 3.11272 -2.38438 0
M  V30 4147 H 431.168 3.81871 -1.6901 0
M  V30 4148 N 431.605 1.3629 0.791371 0
M  V30 4149 C 432.83 1.33726 1.58531 0
M  V30 4150 C 433.255 -0.0794933 1.87932 0
M  V30 4151 O 432.613 -1.05087 1.47738 0
M  V30 4152 C 432.661 2.16425 2.88431 0
M  V30 4153 O 431.765 1.5554 3.81944 0
M  V30 4154 H 431.106 0.457793 0.480959 0
M  V30 4155 H 433.636 1.79547 0.981031 0
M  V30 4156 H 433.646 2.28933 3.37718 0
M  V30 4157 H 432.321 3.19415 2.66359 0
M  V30 4158 H 430.898 1.51961 3.40532 0
M  V30 4159 N 433.083 -1.0153 1.20538 0
M  V30 4160 C 434.33 -1.75149 1.01633 0
M  V30 4161 C 434.658 -1.89189 -0.451399 0
M  V30 4162 O 433.913 -1.41551 -1.35136 0
M  V30 4163 C 434.212 -3.17213 1.64654 0
M  V30 4164 C 433.878 -3.23146 3.14464 0
M  V30 4165 C 432.54 -3.24472 3.55347 0
M  V30 4166 C 434.892 -3.21207 4.10458 0
M  V30 4167 C 432.22 -3.21532 4.90748 0
M  V30 4168 C 434.572 -3.19808 5.45807 0
M  V30 4169 C 433.236 -3.19439 5.86102 0
M  V30 4170 H 432.506 -0.640914 0.3719 0
M  V30 4171 H 435.153 -1.19071 1.49981 0
M  V30 4172 H 433.458 -3.76457 1.08571 0
M  V30 4173 H 435.155 -3.72871 1.4754 0
M  V30 4174 H 431.745 -3.2285 2.81897 0
M  V30 4175 H 435.929 -3.19351 3.79906 0
M  V30 4176 H 431.185 -3.19578 5.21229 0
M  V30 4177 H 435.359 -3.1726 6.19935 0
M  V30 4178 H 432.986 -3.16915 6.90991 0
M  V30 4179 N 434.561 -1.01147 -1.20859 0
M  V30 4180 C 435.786 -0.716698 -1.94623 0
M  V30 4181 C 436.211 0.715415 -1.73964 0
M  V30 4182 O 435.569 1.49157 -1.03062 0
M  V30 4183 C 435.617 -1.0513 -3.44935 0
M  V30 4184 O 434.721 -0.160131 -4.12089 0
M  V30 4185 H 434.062 -0.266404 -0.608214 0
M  V30 4186 H 436.592 -1.35346 -1.53436 0
M  V30 4187 H 436.602 -1.00086 -3.95533 0
M  V30 4188 H 435.277 -2.09475 -3.59295 0
M  V30 4189 H 433.854 -0.267657 -3.71938 0
M  V30 4190 N 436.039 1.36541 -0.78704 0
M  V30 4191 C 436.971 2.28761 -0.141773 0
M  V30 4192 C 437.984 1.49365 0.647599 0
M  V30 4193 O 439.173 1.71836 0.483173 0
M  V30 4194 C 436.273 3.28771 0.822368 0
M  V30 4195 C 435.446 4.3732 0.0835594 0
M  V30 4196 C 434.505 5.17307 0.963296 0
M  V30 4197 O 433.531 5.67638 0.421419 0
M  V30 4198 N 434.733 5.33515 2.28784 0
M  V30 4199 H 437.498 2.84777 -0.933919 0
M  V30 4200 H 435.059 1.48682 -0.640735 0
M  V30 4201 H 437.051 3.79169 1.41468 0
M  V30 4202 H 435.621 2.73412 1.5154 0
M  V30 4203 H 434.841 3.88118 -0.689809 0
M  V30 4204 H 436.129 5.0701 -0.426358 0
M  V30 4205 H 435.527 4.94234 2.75226 0
M  V30 4206 H 434.084 5.87165 2.82985 0
M  V30 4207 N 437.518 0.538854 1.48102 0
M  V30 4208 C 438.748 0.0122958 2.06596 0
M  V30 4209 C 439.156 -1.27861 1.39457 0
M  V30 4210 O 438.499 -1.77348 0.478907 0
M  V30 4211 C 438.561 -0.273131 3.58461 0
M  V30 4212 C 438.225 0.92561 4.47528 0
M  V30 4213 C 439.222 1.82637 4.86765 0
M  V30 4214 C 436.907 1.13511 4.89306 0
M  V30 4215 C 438.901 2.92047 5.66558 0
M  V30 4216 C 436.588 2.23233 5.68868 0
M  V30 4217 C 437.586 3.12333 6.07402 0
M  V30 4218 O 437.274 4.20155 6.85365 0
M  V30 4219 H 437.006 0.0344283 0.675123 0
M  V30 4220 H 439.56 0.746494 1.91355 0
M  V30 4221 H 437.79 -1.06141 3.71848 0
M  V30 4222 H 439.479 -0.742842 3.99045 0
M  V30 4223 H 440.245 1.67649 4.55103 0
M  V30 4224 H 436.124 0.450835 4.5879 0
M  V30 4225 H 439.668 3.6162 5.96554 0
M  V30 4226 H 435.565 2.38201 5.99942 0
M  V30 4227 H 436.333 4.17975 7.03732 0
M  V30 4228 N 438.996 -1.55193 0.274407 0
M  V30 4229 C 440.244 -1.99187 -0.341902 0
M  V30 4230 C 440.565 -1.16422 -1.56431 0
M  V30 4231 O 439.835 -0.253573 -1.94252 0
M  V30 4232 H 438.415 -0.735721 -0.129317 0
M  V30 4233 H 441.077 -1.91168 0.379578 0
M  V30 4234 H 440.173 -3.05629 -0.632253 0
M  V30 4235 N 440.474 -0.00167713 -1.576 0
M  V30 4236 C 441.437 0.974046 -2.07473 0
M  V30 4237 C 442.437 1.27143 -0.984444 0
M  V30 4238 O 443.627 1.21633 -1.24703 0
M  V30 4239 C 440.759 2.29849 -2.51759 0
M  V30 4240 H 441.952 0.54262 -2.9495 0
M  V30 4241 H 439.505 0.245829 -1.54355 0
M  V30 4242 H 440.24 2.77677 -1.67529 0
M  V30 4243 H 440.025 2.09584 -3.31386 0
M  V30 4244 H 441.515 2.9984 -2.90664 0
M  V30 4245 N 441.952 1.55251 0.271103 0
M  V30 4246 C 443.2 1.75599 1.00047 0
M  V30 4247 C 443.521 0.561188 1.8675 0
M  V30 4248 O 442.791 -0.423846 1.9126 0
M  V30 4249 H 441.371 0.647562 0.372387 0
M  V30 4250 H 444.033 1.92656 0.294876 0
M  V30 4251 H 443.129 2.65766 1.6363 0
M  V30 4252 N 443.43 -0.535701 1.48216 0
M  V30 4253 C 444.36 -1.65014 1.65204 0
M  V30 4254 C 445.341 -1.62554 0.501011 0
M  V30 4255 O 446.526 -1.7984 0.732886 0
M  V30 4256 C 443.656 -3.03616 1.68626 0
M  V30 4257 C 442.61 -3.20932 2.83172 0
M  V30 4258 C 441.936 -4.60537 2.71679 0
M  V30 4259 C 443.236 -3.04249 4.24535 0
M  V30 4260 H 444.93 -1.51053 2.58502 0
M  V30 4261 H 442.476 -0.725262 1.24402 0
M  V30 4262 H 444.429 -3.81446 1.79099 0
M  V30 4263 H 443.153 -3.18587 0.719026 0
M  V30 4264 H 441.812 -2.45517 2.72244 0
M  V30 4265 H 441.46 -4.72336 1.72937 0
M  V30 4266 H 441.16 -4.73069 3.48538 0
M  V30 4267 H 442.684 -5.40475 2.84112 0
M  V30 4268 H 444.098 -3.71877 4.36326 0
M  V30 4269 H 442.495 -3.28278 5.02348 0
M  V30 4270 H 443.565 -2.00739 4.41397 0
M  V30 4271 N 444.908 -1.36708 -0.784132 0
M  V30 4272 C 446.185 -1.21776 -1.53069 0
M  V30 4273 C 446.565 0.193876 -2.10208 0
M  V30 4274 O 445.913 1.20012 -1.94446 0
M  V30 4275 C 446.123 -2.30395 -2.62143 0
M  V30 4276 C 447.471 -2.67325 -3.29882 0
M  V30 4277 O 448.495 -2.29478 -2.7243 0
M  V30 4278 O 447.354 -3.32485 -4.33724 0
M  V30 4279 H 444.448 -0.474459 -0.677361 0
M  V30 4280 H 446.994 -1.48454 -0.82216 0
M  V30 4281 H 445.766 -3.2498 -2.17953 0
M  V30 4282 H 445.389 -2.05112 -3.40609 0
M  V30 4283 N 446.386 1.0089 -1.21074 0
M  V30 4284 C 447.635 1.74019 -1.01981 0
M  V30 4285 C 447.948 1.90408 0.447665 0
M  V30 4286 O 449.154 2.60707 0.757906 0
M  V30 4287 C 447.61 3.13026 -1.77603 0
M  V30 4288 C 447.218 3.04623 -3.28495 0
M  V30 4289 C 448.962 3.90312 -1.66904 0
M  V30 4290 C 446.869 4.38685 -3.96623 0
M  V30 4291 H 445.799 0.652422 -0.377971 0
M  V30 4292 H 448.45 1.12755 -1.44771 0
M  V30 4293 H 446.832 3.74878 -1.27604 0
M  V30 4294 H 448.006 2.52032 -3.85767 0
M  V30 4295 H 446.321 2.40827 -3.39693 0
M  V30 4296 H 448.918 4.8951 -2.15138 0
M  V30 4297 H 449.261 4.11558 -0.62658 0
M  V30 4298 H 449.794 3.35104 -2.14359 0
M  V30 4299 H 446.533 4.22641 -5.01054 0
M  V30 4300 H 446.053 4.91252 -3.4414 0
M  V30 4301 H 447.732 5.075 -4.01314 0
M  V30 4302 N 447.864 1.01787 1.20321 0
M  V30 4303 C 449.11 0.708985 1.90003 0
M  V30 4304 C 449.443 -0.759572 1.78729 0
M  V30 4305 O 448.718 -1.55198 1.17234 0
M  V30 4306 C 449.001 1.1469 3.41348 0
M  V30 4307 C 448.854 2.67586 3.61549 0
M  V30 4308 C 450.173 0.71915 4.34185 0
M  V30 4309 H 447.292 0.259034 0.689978 0
M  V30 4310 H 449.934 1.26584 1.41692 0
M  V30 4311 H 448.084 0.673128 3.82624 0
M  V30 4312 H 449.756 3.22826 3.29517 0
M  V30 4313 H 447.999 3.085 3.04976 0
M  V30 4314 H 448.67 2.93281 4.67643 0
M  V30 4315 H 451.146 1.12647 4.00562 0
M  V30 4316 H 450.022 1.05358 5.38694 0
M  V30 4317 H 450.283 -0.379111 4.40472 0
M  V30 4318 N 449.342 -1.36122 0.79427 0
M  V30 4319 C 450.305 -2.28309 0.201889 0
M  V30 4320 C 451.305 -1.49041 -0.603603 0
M  V30 4321 O 452.495 -1.68964 -0.423888 0
M  V30 4322 C 449.627 -3.3321 -0.719978 0
M  V30 4323 H 450.82 -2.82208 1.01481 0
M  V30 4324 H 448.373 -1.45768 0.564037 0
M  V30 4325 H 449.108 -2.84475 -1.55706 0
M  V30 4326 H 448.893 -3.91835 -0.144266 0
M  V30 4327 H 450.383 -4.02044 -1.12916 0
M  V30 4328 N 450.82 -0.546701 -1.47814 0
M  V30 4329 C 452.231 -0.110564 -1.86372 0
M  V30 4330 C 452.582 1.31678 -1.45449 0
M  V30 4331 O 451.707 1.98889 -0.852758 0
M  V30 4332 C 452.302 -0.193873 -3.38245 0
M  V30 4333 C 450.861 0.187164 -3.75934 0
M  V30 4334 C 450.008 -0.546166 -2.71868 0
M  V30 4335 H 452.959 -0.757022 -1.39481 0
M  V30 4336 H 452.98 0.590218 -3.75895 0
M  V30 4337 H 452.492 -1.23282 -3.67999 0
M  V30 4338 H 450.593 1.22762 -3.51796 0
M  V30 4339 H 450.706 -0.164083 -4.78819 0
M  V30 4340 H 449.07 0.00953904 -2.54698 0
M  V30 4341 H 449.853 -1.58606 -3.04465 0
M  V30 4342 N 452.299 1.55045 -0.282633 0
M  V30 4343 C 453.547 1.99365 0.331334 0
M  V30 4344 C 453.868 1.1725 1.55812 0
M  V30 4345 O 453.138 0.263871 1.94115 0
M  V30 4346 H 451.718 0.736397 0.125414 0
M  V30 4347 H 454.38 1.90964 -0.389711 0
M  V30 4348 H 453.476 3.0596 0.616036 0
M  V30 4349 N 453.777 0.010035 1.57597 0
M  V30 4350 C 455.023 -0.673697 1.91283 0
M  V30 4351 C 455.356 -1.72863 0.884979 0
M  V30 4352 O 454.631 -1.94268 -0.0949487 0
M  V30 4353 C 454.914 -1.30766 3.35518 0
M  V30 4354 C 454.767 -0.263578 4.49027 0
M  V30 4355 C 456.086 -2.23105 3.79358 0
M  V30 4356 H 453.205 -0.243439 0.695634 0
M  V30 4357 H 455.847 0.0633864 1.89894 0
M  V30 4358 H 453.997 -1.93588 3.36832 0
M  V30 4359 H 455.669 0.365738 4.59848 0
M  V30 4360 H 453.912 0.413077 4.31829 0
M  V30 4361 H 454.583 -0.746398 5.4693 0
M  V30 4362 H 457.059 -1.70289 3.79659 0
M  V30 4363 H 455.935 -2.64424 4.81011 0
M  V30 4364 H 456.196 -3.11433 3.13787 0
M  V30 4365 N 455.255 -1.55392 -0.262866 0
M  V30 4366 C 456.203 -1.8977 -1.345 0
M  V30 4367 C 457.197 -0.775063 -1.50629 0
M  V30 4368 O 458.403 -0.959519 -1.52293 0
M  V30 4369 H 454.778 -0.602467 -0.450041 0
M  V30 4370 H 456.749 -2.80147 -1.02762 0
M  V30 4371 C 455.498 -2.19501 -2.69657 0
M  V30 4372 H 454.821 -3.05378 -2.5804 0
M  V30 4373 H 456.261 -2.47469 -3.44289 0
M  V30 4374 C 454.72 -1.00597 -3.21531 0
M  V30 4375 O 455.25 -0.245768 -4.00947 0
M  V30 4376 N 453.456 -0.800911 -2.79345 0
M  V30 4377 H 453.003 -1.42079 -2.14875 0
M  V30 4378 H 452.961 -0.00697996 -3.14399 0
M  V30 4379 N 456.733 0.527833 -1.48498 0
M  V30 4380 C 457.979 1.28545 -1.56857 0
M  V30 4381 C 458.312 1.92678 -0.242651 0
M  V30 4382 O 457.587 1.79394 0.751545 0
M  V30 4383 C 457.87 2.37314 -2.70839 0
M  V30 4384 C 457.723 1.77858 -4.13142 0
M  V30 4385 C 459.042 3.39068 -2.80573 0
M  V30 4386 H 456.161 0.466006 -0.570971 0
M  V30 4387 H 458.803 0.587784 -1.8068 0
M  V30 4388 H 456.953 2.96821 -2.50658 0
M  V30 4389 H 458.625 1.22385 -4.44769 0
M  V30 4390 H 456.868 1.08383 -4.20042 0
M  V30 4391 H 457.539 2.56624 -4.88721 0
M  V30 4392 H 460.015 2.89518 -2.98862 0
M  V30 4393 H 458.891 4.12566 -3.6205 0
M  V30 4394 H 459.152 3.9975 -1.88818 0
M  V30 4395 N 458.211 1.37122 0.776871 0
M  V30 4396 C 459.143 1.28342 1.89897 0
M  V30 4397 C 460.156 0.200277 1.61563 0
M  V30 4398 O 461.345 0.456012 1.72577 0
M  V30 4399 C 458.445 0.960427 3.25006 0
M  V30 4400 C 457.618 2.148 3.81025 0
M  V30 4401 C 456.677 1.79608 4.94598 0
M  V30 4402 O 455.703 2.51845 5.10454 0
M  V30 4403 N 456.905 0.737171 5.758 0
M  V30 4404 H 459.67 2.25027 1.97947 0
M  V30 4405 H 457.231 1.3068 0.955739 0
M  V30 4406 H 459.223 0.705942 3.98495 0
M  V30 4407 H 457.793 0.0823066 3.12492 0
M  V30 4408 H 457.013 2.56454 2.99374 0
M  V30 4409 H 458.301 2.9411 4.15183 0
M  V30 4410 H 457.699 0.137637 5.65533 0
M  V30 4411 H 456.256 0.542534 6.49538 0
M  V30 4412 N 459.689 -1.00246 1.21608 0
M  V30 4413 C 460.914 -1.78167 1.06167 0
M  V30 4414 C 461.339 -1.84138 -0.384035 0
M  V30 4415 O 460.697 -1.28683 -1.27712 0
M  V30 4416 C 460.745 -3.19786 1.66642 0
M  V30 4417 O 459.849 -4.02153 0.913613 0
M  V30 4418 H 459.19 -0.549 0.37349 0
M  V30 4419 H 461.72 -1.25994 1.61204 0
M  V30 4420 H 461.73 -3.70451 1.70969 0
M  V30 4421 H 460.405 -3.14754 2.7185 0
M  V30 4422 H 458.982 -3.60711 0.945635 0
M  V30 4423 N 461.167 -1.02423 -1.1978 0
M  V30 4424 C 462.395 -0.737456 -1.93311 0
M  V30 4425 C 462.81 0.703023 -1.75223 0
M  V30 4426 O 462.167 1.47761 -1.07112 0
M  V30 4427 C 462.218 -1.0733 -3.45199 0
M  V30 4428 O 461.939 -2.4572 -3.62702 0
M  V30 4429 C 463.44 -0.80866 -4.35862 0
M  V30 4430 H 460.66 -0.2702 -0.614193 0
M  V30 4431 H 463.204 -1.36747 -1.52054 0
M  V30 4432 H 461.359 -0.488545 -3.84307 0
M  V30 4433 H 461.773 -2.58081 -4.56612 0
M  V30 4434 H 463.247 -1.09365 -5.41057 0
M  V30 4435 H 463.724 0.257025 -4.38447 0
M  V30 4436 H 464.33 -1.37592 -4.02428 0
M  V30 4437 N 462.645 1.35699 -0.801477 0
M  V30 4438 C 463.875 2.02862 -0.3912 0
M  V30 4439 C 464.283 1.60552 1.00099 0
M  V30 4440 O 463.626 0.796215 1.65548 0
M  V30 4441 C 463.688 3.57386 -0.389299 0
M  V30 4442 C 463.352 4.22943 -1.73113 0
M  V30 4443 C 464.349 4.44984 -2.68859 0
M  V30 4444 C 462.034 4.60167 -2.01373 0
M  V30 4445 C 464.028 5.03345 -3.91053 0
M  V30 4446 C 461.715 5.18243 -3.23832 0
M  V30 4447 C 462.713 5.39773 -4.1849 0
M  V30 4448 O 462.401 5.96626 -5.38788 0
M  V30 4449 H 462.133 0.657341 -0.157732 0
M  V30 4450 H 464.687 1.74407 -1.08496 0
M  V30 4451 H 462.917 3.85011 0.361031 0
M  V30 4452 H 464.606 4.059 -0.0020365 0
M  V30 4453 H 465.372 4.1661 -2.48316 0
M  V30 4454 H 461.251 4.42726 -1.28508 0
M  V30 4455 H 464.795 5.20065 -4.64949 0
M  V30 4456 H 460.692 5.46044 -3.44248 0
M  V30 4457 H 461.46 6.15082 -5.40015 0
M  V30 4458 N 464.123 0.554532 1.47522 0
M  V30 4459 C 465.534 0.120446 1.86311 0
M  V30 4460 C 465.885 -1.30904 1.46145 0
M  V30 4461 O 465.01 -1.98434 0.863294 0
M  V30 4462 C 465.605 0.211808 3.38137 0
M  V30 4463 C 464.164 -0.167224 3.76028 0
M  V30 4464 C 463.311 0.560576 2.71575 0
M  V30 4465 H 466.262 0.764408 1.39077 0
M  V30 4466 H 466.283 -0.570275 3.76202 0
M  V30 4467 H 465.795 1.25232 3.6734 0
M  V30 4468 H 463.896 -1.20894 3.52442 0
M  V30 4469 H 464.009 0.189473 4.78725 0
M  V30 4470 H 462.373 0.00396836 2.547 0
M  V30 4471 H 463.156 1.60219 3.0362 0
M  V30 4472 N 465.601 -1.54893 0.290851 0
M  V30 4473 C 466.849 -1.99538 -0.320756 0
M  V30 4474 C 467.17 -1.18075 -1.55188 0
M  V30 4475 O 466.44 -0.274162 -1.93972 0
M  V30 4476 H 465.02 -0.737052 -0.121507 0
M  V30 4477 H 467.682 -1.90755 0.399832 0
M  V30 4478 H 466.778 -3.06282 -0.599802 0
M  V30 4479 N 467.08 -0.0183926 -1.57589 0
M  V30 4480 C 468.305 0.676634 -1.96052 0
M  V30 4481 C 468.73 1.6548 -0.894307 0
M  V30 4482 O 468.088 1.80712 0.145849 0
M  V30 4483 C 468.136 1.36872 -3.33614 0
M  V30 4484 O 467.24 2.48372 -3.29219 0
M  V30 4485 H 466.581 0.1786 -0.63953 0
M  V30 4486 H 469.111 -0.077056 -2.04455 0
M  V30 4487 H 469.121 1.72797 -3.69601 0
M  V30 4488 H 467.796 0.651636 -4.10763 0
M  V30 4489 H 466.373 2.14639 -3.04934 0
M  V30 4490 N 468.558 1.5553 0.254621 0
M  V30 4491 C 469.786 1.81046 1.00149 0
M  V30 4492 C 470.201 0.593047 1.79244 0
M  V30 4493 O 469.558 -0.438196 1.77161 0
M  V30 4494 C 469.609 3.04684 1.94551 0
M  V30 4495 O 469.33 4.21725 1.18658 0
M  V30 4496 C 470.831 3.42943 2.80901 0
M  V30 4497 H 468.051 0.602653 0.295044 0
M  V30 4498 H 470.595 2.02576 0.279842 0
M  V30 4499 H 468.75 2.85226 2.62154 0
M  V30 4500 H 469.164 4.91746 1.82445 0
M  V30 4501 H 470.638 4.32576 3.42902 0
M  V30 4502 H 471.115 2.63176 3.51617 0
M  V30 4503 H 471.721 3.64724 2.18762 0
M  V30 4504 N 470.036 -0.519951 1.48776 0
M  V30 4505 C 471.266 -1.29783 1.60748 0
M  V30 4506 C 471.674 -1.87253 0.27072 0
M  V30 4507 O 471.017 -1.67628 -0.751438 0
M  V30 4508 C 471.079 -2.47984 2.60277 0
M  V30 4509 C 470.743 -2.11526 4.051 0
M  V30 4510 C 471.74 -1.66608 4.92481 0
M  V30 4511 C 469.425 -2.21742 4.50706 0
M  V30 4512 C 471.419 -1.32384 6.23501 0
M  V30 4513 C 469.106 -1.87129 5.81744 0
M  V30 4514 C 470.104 -1.42523 6.67964 0
M  V30 4515 O 469.792 -1.0837 7.96562 0
M  V30 4516 H 469.524 -0.400562 0.544542 0
M  V30 4517 H 472.078 -0.632879 1.95407 0
M  V30 4518 H 470.308 -3.17493 2.2076 0
M  V30 4519 H 471.997 -3.10036 2.61978 0
M  V30 4520 H 472.763 -1.58178 4.58481 0
M  V30 4521 H 468.642 -2.55415 3.83776 0
M  V30 4522 H 472.186 -0.974949 6.90754 0
M  V30 4523 H 468.083 -1.95204 6.15277 0
M  V30 4524 H 468.851 -1.21681 8.09405 0
M  V30 4525 N 471.514 -1.37532 -0.769588 0
M  V30 4526 C 472.477 -1.33292 -1.86456 0
M  V30 4527 C 473.477 -0.236537 -1.59051 0
M  V30 4528 O 474.667 -0.492511 -1.67093 0
M  V30 4529 C 471.799 -1.07118 -3.23633 0
M  V30 4530 H 472.992 -2.30692 -1.91628 0
M  V30 4531 H 470.545 -1.22593 -0.969572 0
M  V30 4532 H 471.28 -0.102578 -3.24138 0
M  V30 4533 H 471.065 -1.86479 -3.44917 0
M  V30 4534 H 472.555 -1.06806 -4.03711 0
M  V30 4535 N 472.992 0.995999 -1.22138 0
M  V30 4536 C 474.217 1.77601 -1.0711 0
M  V30 4537 C 474.642 1.84339 0.374264 0
M  V30 4538 O 474 1.29359 1.27028 0
M  V30 4539 C 474.048 3.18897 -1.68336 0
M  V30 4540 O 473.152 4.01663 -0.934928 0
M  V30 4541 H 472.493 0.547011 -0.376397 0
M  V30 4542 H 475.023 1.25137 -1.6187 0
M  V30 4543 H 475.033 3.69539 -1.72931 0
M  V30 4544 H 473.708 3.13308 -2.73516 0
M  V30 4545 H 472.285 3.60204 -0.964751 0
M  V30 4546 N 474.47 1.03057 1.19235 0
M  V30 4547 C 475.4 0.633497 2.24742 0
M  V30 4548 C 476.381 -0.358335 1.66283 0
M  V30 4549 O 477.566 -0.240676 1.92703 0
M  V30 4550 C 474.696 -0.0147648 3.47297 0
M  V30 4551 C 473.65 0.899527 4.18441 0
M  V30 4552 C 472.976 0.116281 5.34574 0
M  V30 4553 C 474.276 2.21404 4.73051 0
M  V30 4554 H 475.97 1.5155 2.58211 0
M  V30 4555 H 473.516 0.73014 1.24117 0
M  V30 4556 H 475.469 -0.304202 4.20301 0
M  V30 4557 H 474.193 -0.931577 3.13032 0
M  V30 4558 H 472.852 1.17319 3.47321 0
M  V30 4559 H 472.5 -0.802619 4.96555 0
M  V30 4560 H 472.2 0.725293 5.83107 0
M  V30 4561 H 473.724 -0.166376 6.10373 0
M  V30 4562 H 475.138 1.98601 5.37802 0
M  V30 4563 H 473.535 2.77512 5.32078 0
M  V30 4564 H 474.605 2.86752 3.91026 0
M  V30 4565 N 475.948 -1.35272 0.808662 0
M  V30 4566 C 476.896 -2.31663 0.208606 0
M  V30 4567 C 477.89 -1.56731 -0.642778 0
M  V30 4568 O 479.096 -1.71843 -0.53571 0
M  V30 4569 H 475.471 -0.750421 0.0486993 0
M  V30 4570 H 477.442 -2.79814 1.03666 0
M  V30 4571 C 476.191 -3.42008 -0.626573 0
M  V30 4572 H 475.514 -3.99795 0.0192103 0
M  V30 4573 H 476.954 -4.11727 -1.01278 0
M  V30 4574 C 475.413 -2.85226 -1.79298 0
M  V30 4575 O 475.943 -2.78945 -2.89055 0
M  V30 4576 N 474.149 -2.42245 -1.60516 0
M  V30 4577 H 473.696 -2.47554 -0.712375 0
M  V30 4578 H 473.654 -2.04603 -2.38715 0
M  V30 4579 N 477.426 -0.562348 -1.47226 0
M  V30 4580 C 478.674 -0.0401371 -2.0206 0
M  V30 4581 C 478.995 1.3165 -1.43852 0
M  V30 4582 O 478.265 1.85976 -0.615599 0
M  V30 4583 H 476.845 -0.0118479 -0.746906 0
M  V30 4584 H 479.507 -0.73352 -1.8057 0
M  V30 4585 H 478.603 0.0441254 -3.12069 0
M  V30 4586 N 478.904 1.54736 -0.299062 0
M  V30 4587 C 480.132 2.04512 0.313447 0
M  V30 4588 C 480.547 1.17643 1.47667 0
M  V30 4589 O 479.904 0.20164 1.81383 0
M  V30 4590 C 479.955 3.53171 0.771542 0
M  V30 4591 O 479.676 4.36736 -0.345379 0
M  V30 4592 C 481.177 4.18936 1.4494 0
M  V30 4593 H 478.397 0.667507 0.0683784 0
M  V30 4594 H 480.941 1.99752 -0.438129 0
M  V30 4595 H 479.096 3.58298 1.47314 0
M  V30 4596 H 479.51 5.24499 0.0109219 0
M  V30 4597 H 480.984 5.24482 1.72111 0
M  V30 4598 H 481.461 3.68554 2.38883 0
M  V30 4599 H 482.067 4.17879 0.791028 0
M  V30 4600 N 480.382 0.0267497 1.57577 0
M  V30 4601 C 481.607 -0.666227 1.96408 0
M  V30 4602 C 482.032 -1.65004 0.903071 0
M  V30 4603 O 481.39 -1.80787 -0.136263 0
M  V30 4604 C 481.438 -1.35101 3.34335 0
M  V30 4605 O 480.542 -2.46623 3.30531 0
M  V30 4606 H 479.883 -0.175206 0.640468 0
M  V30 4607 H 482.413 0.0878977 2.04411 0
M  V30 4608 H 482.423 -1.70834 3.70513 0
M  V30 4609 H 481.098 -0.629844 4.11103 0
M  V30 4610 H 479.675 -2.13019 3.06068 0
M  V30 4611 N 481.861 -1.55662 -0.24637 0
M  V30 4612 C 482.794 -1.85332 -1.33143 0
M  V30 4613 C 483.772 -0.708464 -1.46354 0
M  V30 4614 O 484.956 -0.954274 -1.6256 0
M  V30 4615 C 482.083 -2.0385 -2.70487 0
M  V30 4616 C 481.129 -3.26488 -2.74423 0
M  V30 4617 S 481.962 -4.83124 -2.30979 0
M  V30 4618 C 483.118 -5.04647 -3.70246 0
M  V30 4619 H 483.351 -2.77077 -1.07777 0
M  V30 4620 H 480.884 -1.47776 -0.44738 0
M  V30 4621 H 482.842 -2.15202 -3.49569 0
M  V30 4622 H 481.503 -1.12947 -2.9309 0
M  V30 4623 H 480.696 -3.36413 -3.7529 0
M  V30 4624 H 480.298 -3.13864 -2.03385 0
M  V30 4625 H 482.59 -4.92023 -4.65746 0
M  V30 4626 H 483.533 -6.06625 -3.65255 0
M  V30 4627 H 483.941 -4.32491 -3.62784 0
M  V30 4628 N 483.339 0.512053 -1.4905 0
M  V30 4629 C 484.302 1.59704 -1.64399 0
M  V30 4630 C 485.302 1.52285 -0.516317 0
M  V30 4631 O 486.492 1.55635 -0.782527 0
M  V30 4632 C 483.624 2.9935 -1.63102 0
M  V30 4633 H 484.817 1.47428 -2.61161 0
M  V30 4634 H 482.37 0.735469 -1.37915 0
M  V30 4635 H 483.105 3.17116 -0.678836 0
M  V30 4636 H 482.89 3.06144 -2.44986 0
M  V30 4637 H 484.38 3.782 -1.77072 0
M  V30 4638 N 484.817 1.37938 0.762283 0
M  V30 4639 C 486.045 1.36883 1.55147 0
M  V30 4640 C 486.46 -0.0435348 1.8875 0
M  V30 4641 O 485.817 -1.00786 1.52146 0
M  V30 4642 C 485.868 2.21624 2.85596 0
M  V30 4643 O 485.589 3.57358 2.5343 0
M  V30 4644 C 487.09 2.28653 3.7978 0
M  V30 4645 H 484.31 0.468521 0.480343 0
M  V30 4646 H 486.854 1.81404 0.944079 0
M  V30 4647 H 485.009 1.80588 3.42734 0
M  V30 4648 H 485.423 4.01883 3.37032 0
M  V30 4649 H 486.897 2.9225 4.68288 0
M  V30 4650 H 487.374 1.29767 4.19592 0
M  V30 4651 H 487.98 2.70043 3.28568 0
M  V30 4652 N 486.295 -0.989507 1.22664 0
M  V30 4653 C 487.706 -1.54406 1.04955 0
M  V30 4654 C 488.057 -1.92366 -0.385951 0
M  V30 4655 O 487.182 -1.75111 -1.27142 0
M  V30 4656 C 487.777 -2.80578 1.89899 0
M  V30 4657 C 486.336 -3.32464 1.76478 0
M  V30 4658 C 485.483 -2.05524 1.86159 0
M  V30 4659 H 488.434 -0.810211 1.3646 0
M  V30 4660 H 488.455 -3.53075 1.4184 0
M  V30 4661 H 487.967 -2.52918 2.94371 0
M  V30 4662 H 486.068 -3.65024 0.747528 0
M  V30 4663 H 486.181 -4.02838 2.59342 0
M  V30 4664 H 484.545 -2.19241 1.29636 0
M  V30 4665 H 485.328 -1.80258 2.92168 0
M  V30 4666 N 487.773 -1.03688 -1.18687 0
M  V30 4667 C 488.723 -0.595067 -2.20098 0
M  V30 4668 C 489.707 0.360465 -1.5681 0
M  V30 4669 O 490.899 0.180136 -1.76081 0
M  V30 4670 C 488.028 0.0444495 -3.43271 0
M  V30 4671 C 487.114 -0.934002 -4.13687 0
M  V30 4672 N 487.505 -2.09957 -4.60165 0
M  V30 4673 C 485.803 -0.759177 -4.39491 0
M  V30 4674 C 486.504 -2.71735 -5.1433 0
M  V30 4675 N 485.48 -1.99638 -5.05614 0
M  V30 4676 H 489.282 -1.48336 -2.5372 0
M  V30 4677 H 486.796 -0.904949 -1.3485 0
M  V30 4678 H 488.793 0.37864 -4.15177 0
M  V30 4679 H 487.453 0.928325 -3.11147 0
M  V30 4680 H 488.464 -2.47863 -4.54735 0
M  V30 4681 H 485.141 0.0749292 -4.17433 0
M  V30 4682 H 486.531 -3.70492 -5.60523 0
M  V30 4683 N 489.251 1.34841 -0.815825 0
M  V30 4684 C 490.497 1.98793 -0.401129 0
M  V30 4685 C 490.83 1.64548 1.03139 0
M  V30 4686 O 490.105 0.913487 1.71714 0
M  V30 4687 C 490.388 3.55143 -0.595409 0
M  V30 4688 C 490.241 3.99155 -2.07352 0
M  V30 4689 C 491.56 4.40092 -0.0268823 0
M  V30 4690 H 488.679 0.722146 -0.14722 0
M  V30 4691 H 491.321 1.59847 -1.02707 0
M  V30 4692 H 489.471 3.8845 -0.0625779 0
M  V30 4693 H 491.143 3.76216 -2.66945 0
M  V30 4694 H 489.386 3.49726 -2.56659 0
M  V30 4695 H 490.057 5.07971 -2.1603 0
M  V30 4696 H 492.533 4.13298 -0.482042 0
M  V30 4697 H 491.409 5.48562 -0.19267 0
M  V30 4698 H 491.67 4.29016 1.06759 0
M  V30 4699 N 490.729 0.570148 1.46925 0
M  V30 4700 C 491.692 -0.159933 2.28641 0
M  V30 4701 C 492.692 -0.830638 1.37685 0
M  V30 4702 O 493.882 -0.684516 1.60187 0
M  V30 4703 C 491.014 -1.2354 3.17727 0
M  V30 4704 H 492.207 0.558035 2.94662 0
M  V30 4705 H 489.76 0.327603 1.52828 0
M  V30 4706 H 490.495 -1.98535 2.56426 0
M  V30 4707 H 490.28 -0.759125 3.84681 0
M  V30 4708 H 491.77 -1.74782 3.79264 0
M  V30 4709 N 492.207 -1.54576 0.307264 0
M  V30 4710 C 493.455 -1.99867 -0.299574 0
M  V30 4711 C 493.776 -1.19714 -1.53927 0
M  V30 4712 O 493.046 -0.29472 -1.9367 0
M  V30 4713 H 491.626 -0.738299 -0.113683 0
M  V30 4714 H 494.288 -1.9032 0.420042 0
M  V30 4715 H 493.384 -3.06901 -0.567283 0
M  V30 4716 N 493.685 -0.035106 -1.57561 0
M  V30 4717 C 494.648 0.929819 -2.09492 0
M  V30 4718 C 495.648 1.25026 -1.01119 0
M  V30 4719 O 496.838 1.18961 -1.27255 0
M  V30 4720 C 493.97 2.24457 -2.56577 0
M  V30 4721 H 495.163 0.479935 -2.96035 0
M  V30 4722 H 492.716 0.213033 -1.54841 0
M  V30 4723 H 493.451 2.74061 -1.73382 0
M  V30 4724 H 493.236 2.02508 -3.35757 0
M  V30 4725 H 494.726 2.93607 -2.96959 0
M  V30 4726 N 495.163 1.55791 0.238111 0
M  V30 4727 C 496.126 1.90239 1.27835 0
M  V30 4728 C 497.126 0.779552 1.4064 0
M  V30 4729 O 498.316 1.04747 1.3919 0
M  V30 4730 C 495.448 2.13859 2.65475 0
M  V30 4731 H 496.641 2.83262 0.985034 0
M  V30 4732 H 494.194 1.48818 0.477799 0
M  V30 4733 H 494.929 1.23334 2.99932 0
M  V30 4734 H 494.714 2.95643 2.57561 0
M  V30 4735 H 496.204 2.41664 3.40571 0
M  V30 4736 N 496.642 -0.504142 1.49319 0
M  V30 4737 C 497.605 -1.5883 1.65244 0
M  V30 4738 C 498.605 -1.52009 0.524386 0
M  V30 4739 O 499.795 -1.55218 0.79077 0
M  V30 4740 C 496.927 -2.98481 1.64687 0
M  V30 4741 H 498.12 -1.4604 2.61939 0
M  V30 4742 H 495.673 -0.728144 1.38303 0
M  V30 4743 H 496.408 -3.16751 0.695644 0
M  V30 4744 H 496.193 -3.0484 2.46607 0
M  V30 4745 H 497.683 -3.77256 1.79075 0
M  V30 4746 N 498.12 -1.38341 -0.754957 0
M  V30 4747 C 499.05 -1.38176 -1.88227 0
M  V30 4748 C 500.031 -0.247873 -1.68284 0
M  V30 4749 O 501.216 -0.45075 -1.88896 0
M  V30 4750 C 498.346 -1.20471 -3.25736 0
M  V30 4751 C 497.3 -2.3105 -3.60278 0
M  V30 4752 C 496.626 -1.98452 -4.96509 0
M  V30 4753 C 497.926 -3.73305 -3.65295 0
M  V30 4754 H 499.62 -2.32512 -1.88622 0
M  V30 4755 H 497.166 -1.1192 -0.906082 0
M  V30 4756 H 499.119 -1.18982 -4.04254 0
M  V30 4757 H 497.843 -0.225965 -3.25817 0
M  V30 4758 H 496.502 -2.31723 -2.84078 0
M  V30 4759 H 496.15 -0.990641 -4.93148 0
M  V30 4760 H 495.85 -2.7251 -5.20588 0
M  V30 4761 H 497.374 -1.98578 -5.77407 0
M  V30 4762 H 498.788 -3.7467 -4.3393 0
M  V30 4763 H 497.185 -4.46557 -4.00883 0
M  V30 4764 H 498.255 -4.05719 -2.65556 0
M  V30 4765 N 499.598 0.982988 -1.23187 0
M  V30 4766 C 500.844 1.72648 -1.06398 0
M  V30 4767 C 501.177 1.90066 0.398561 0
M  V30 4768 O 500.452 1.45105 1.29518 0
M  V30 4769 C 500.735 3.12627 -1.78707 0
M  V30 4770 C 500.588 3.02795 -3.32618 0
M  V30 4771 C 501.907 4.11997 -1.54747 0
M  V30 4772 H 499.026 0.626649 -0.387918 0
M  V30 4773 H 501.668 1.14455 -1.51658 0
M  V30 4774 H 499.818 3.62308 -1.40234 0
M  V30 4775 H 501.49 2.60659 -3.80598 0
M  V30 4776 H 499.733 2.39362 -3.61785 0
M  V30 4777 H 500.404 4.01893 -3.78399 0
M  V30 4778 H 502.88 3.71114 -1.88186 0
M  V30 4779 H 501.756 5.08037 -2.07821 0
M  V30 4780 H 502.017 4.39462 -0.482249 0
M  V30 4781 N 501.076 1.04316 1.18135 0
M  V30 4782 C 502.023 0.636398 2.21853 0
M  V30 4783 C 502.993 -0.357039 1.62217 0
M  V30 4784 O 504.178 -0.250453 1.89149 0
M  V30 4785 C 501.318 0.00812779 3.45099 0
M  V30 4786 C 500.431 1.04933 4.19062 0
M  V30 4787 C 499.566 0.389313 5.29771 0
M  V30 4788 C 498.605 1.41544 5.9551 0
M  V30 4789 N 497.742 0.78021 6.97751 0
M  V30 4790 H 502.582 1.52536 2.56002 0
M  V30 4791 H 500.119 0.76304 1.25762 0
M  V30 4792 H 502.077 -0.373497 4.15525 0
M  V30 4793 H 500.707 -0.844336 3.11562 0
M  V30 4794 H 499.759 1.54888 3.47439 0
M  V30 4795 H 501.071 1.82862 4.64072 0
M  V30 4796 H 500.225 -0.0463805 6.06682 0
M  V30 4797 H 498.964 -0.422038 4.8587 0
M  V30 4798 H 497.969 1.86124 5.17337 0
M  V30 4799 H 499.194 2.22854 6.41493 0
M  V30 4800 H 497.14 -0.0107899 6.55999 0
M  V30 4801 H 497.057 1.49716 7.41027 0
M  V30 4802 H 498.325 0.368996 7.78626 0
M  V30 4803 N 502.554 -1.34406 0.822964 0
M  V30 4804 C 503.486 -2.28305 0.202375 0
M  V30 4805 C 504.499 -1.5103 -0.60777 0
M  V30 4806 O 505.688 -1.73057 -0.437444 0
M  V30 4807 C 502.788 -3.30836 -0.734911 0
M  V30 4808 C 501.961 -4.37388 0.0324177 0
M  V30 4809 C 501.02 -5.1968 -0.825803 0
M  V30 4810 O 500.046 -5.68556 -0.270771 0
M  V30 4811 N 501.248 -5.39393 -2.14558 0
M  V30 4812 H 504.013 -2.82201 1.00909 0
M  V30 4813 H 501.574 -1.4693 0.67993 0
M  V30 4814 H 503.566 -3.82786 -1.31365 0
M  V30 4815 H 502.136 -2.77334 -1.44238 0
M  V30 4816 H 501.356 -3.86152 0.792469 0
M  V30 4817 H 502.644 -5.05702 0.560633 0
M  V30 4818 H 502.042 -5.01357 -2.62025 0
M  V30 4819 H 500.599 -5.94461 -2.67318 0
M  V30 4820 N 504.032 -0.577932 -1.46621 0
M  V30 4821 C 504.979 0.158048 -2.30258 0
M  V30 4822 C 505.949 0.888669 -1.40328 0
M  V30 4823 O 507.134 0.880283 -1.6928 0
M  V30 4824 C 504.274 1.16884 -3.24703 0
M  V30 4825 C 503.387 0.442163 -4.29731 0
M  V30 4826 C 502.522 1.44007 -5.11308 0
M  V30 4827 C 501.561 0.69952 -6.0809 0
M  V30 4828 N 500.698 1.64525 -6.82551 0
M  V30 4829 H 505.538 -0.561242 -2.92667 0
M  V30 4830 H 503.075 -0.288591 -1.44241 0
M  V30 4831 H 505.033 1.7677 -3.779 0
M  V30 4832 H 503.663 1.85591 -2.64113 0
M  V30 4833 H 502.715 -0.271632 -3.79429 0
M  V30 4834 H 504.027 -0.136992 -4.98612 0
M  V30 4835 H 503.181 2.11186 -5.68758 0
M  V30 4836 H 501.92 2.05315 -4.42377 0
M  V30 4837 H 500.925 0.0139217 -5.49798 0
M  V30 4838 H 502.15 0.091894 -6.79038 0
M  V30 4839 H 500.096 2.24653 -6.16334 0
M  V30 4840 H 500.013 1.11878 -7.47676 0
M  V30 4841 H 501.281 2.30754 -7.44562 0
M  V30 4842 N 505.51 1.54411 -0.315457 0
M  V30 4843 C 506.458 2.25514 0.569771 0
M  V30 4844 C 507.452 1.2663 1.12522 0
M  V30 4845 O 508.658 1.44434 1.07419 0
M  V30 4846 H 505.033 0.724257 0.202376 0
M  V30 4847 H 507.004 2.98354 -0.0522895 0
M  V30 4848 C 505.753 3.02004 1.72305 0
M  V30 4849 H 505.076 3.77906 1.30488 0
M  V30 4850 H 506.516 3.55014 2.31821 0
M  V30 4851 C 504.975 2.09822 2.63583 0
M  V30 4852 O 505.505 1.67574 3.65078 0
M  V30 4853 N 503.711 1.75478 2.31637 0
M  V30 4854 H 503.258 2.10032 1.49145 0
M  V30 4855 H 503.216 1.14079 2.92973 0
M  V30 4856 N 506.988 0.0434614 1.5754 0
M  V30 4857 C 508.399 -0.493343 1.80064 0
M  V30 4858 C 508.75 -1.71388 0.955023 0
M  V30 4859 O 507.875 -2.15736 0.169434 0
M  V30 4860 C 508.47 -0.90179 3.26578 0
M  V30 4861 C 507.029 -1.38362 3.50047 0
M  V30 4862 C 506.176 -0.355129 2.75017 0
M  V30 4863 H 509.127 0.2694 1.56397 0
M  V30 4864 H 509.148 -1.76523 3.37075 0
M  V30 4865 H 508.66 -0.013271 3.88098 0
M  V30 4866 H 506.761 -2.29159 2.93798 0
M  V30 4867 H 506.874 -1.3811 4.58762 0
M  V30 4868 H 505.238 -0.826348 2.40922 0
M  V30 4869 H 506.021 0.525172 3.39259 0
M  V30 4870 N 508.466 -1.55915 -0.229846 0
M  V30 4871 C 509.691 -1.8296 -0.976743 0
M  V30 4872 C 510.116 -0.622735 -1.77493 0
M  V30 4873 O 509.474 0.428431 -1.76165 0
M  V30 4874 C 509.522 -3.07916 -1.8767 0
M  V30 4875 O 508.626 -2.86028 -2.97088 0
M  V30 4876 H 507.967 -0.603453 -0.277021 0
M  V30 4877 H 510.497 -2.0312 -0.245669 0
M  V30 4878 H 510.507 -3.37802 -2.2881 0
M  V30 4879 H 509.182 -3.95389 -1.28996 0
M  V30 4880 H 507.759 -2.67355 -2.59954 0
M  V30 4881 N 509.944 0.496216 -1.49584 0
M  V30 4882 C 511.19 1.24918 -1.60521 0
M  V30 4883 C 511.545 1.90197 -0.290352 0
M  V30 4884 O 510.838 1.77967 0.709813 0
M  V30 4885 C 511.032 2.3359 -2.705 0
M  V30 4886 C 510.861 1.78969 -4.12553 0
M  V30 4887 C 509.631 1.60057 -4.79281 0
M  V30 4888 C 511.829 1.29883 -4.97629 0
M  V30 4889 N 509.811 1.00415 -6.05632 0
M  V30 4890 C 511.182 0.824057 -6.14499 0
M  V30 4891 C 513.237 1.18501 -4.83593 0
M  V30 4892 C 511.94 0.246721 -7.18877 0
M  V30 4893 C 513.966 0.621634 -5.88124 0
M  V30 4894 C 513.328 0.157116 -7.04225 0
M  V30 4895 H 509.427 0.446896 -0.641722 0
M  V30 4896 H 512.011 0.555456 -1.86609 0
M  V30 4897 H 510.182 3.00418 -2.46178 0
M  V30 4898 H 511.914 3.00628 -2.70933 0
M  V30 4899 H 508.669 1.84562 -4.36158 0
M  V30 4900 H 509.093 0.725074 -6.73106 0
M  V30 4901 H 513.735 1.53012 -3.94141 0
M  V30 4902 H 511.453 -0.110651 -8.08024 0
M  V30 4903 H 515.039 0.536279 -5.79323 0
M  V30 4904 H 513.919 -0.272009 -7.83728 0
M  V30 4905 N 511.423 1.38739 0.74761 0
M  V30 4906 C 512.648 1.38702 1.54197 0
M  V30 4907 C 513.073 -0.019664 1.8809 0
M  V30 4908 O 512.431 -1.00333 1.51006 0
M  V30 4909 C 512.479 2.25492 2.814 0
M  V30 4910 O 511.583 1.67613 3.76802 0
M  V30 4911 H 510.924 0.472863 0.466151 0
M  V30 4912 H 513.454 1.82577 0.923413 0
M  V30 4913 H 513.464 2.39561 3.30264 0
M  V30 4914 H 512.139 3.27727 2.56062 0
M  V30 4915 H 510.716 1.62718 3.35526 0
M  V30 4916 N 512.901 -0.976442 1.23707 0
M  V30 4917 C 513.849 -2.09078 1.01927 0
M  V30 4918 C 514.843 -1.69345 -0.0430193 0
M  V30 4919 O 516.049 -1.79659 0.110814 0
M  V30 4920 H 512.424 -0.68398 0.312531 0
M  V30 4921 H 514.395 -2.24614 1.96447 0
M  V30 4922 C 513.144 -3.41919 0.631385 0
M  V30 4923 H 512.467 -3.72946 1.44053 0
M  V30 4924 H 513.907 -4.20817 0.518532 0
M  V30 4925 C 512.366 -3.30357 -0.660723 0
M  V30 4926 O 512.896 -3.63542 -1.70881 0
M  V30 4927 N 511.102 -2.83507 -0.638139 0
M  V30 4928 H 510.649 -2.567 0.215108 0
M  V30 4929 H 510.607 -2.76153 -1.50289 0
M  V30 4930 N 514.379 -1.04941 -1.1758 0
M  V30 4931 C 515.625 -0.759112 -1.88057 0
M  V30 4932 C 515.958 0.711918 -1.8068 0
M  V30 4933 O 515.233 1.52035 -1.21308 0
M  V30 4934 C 515.516 -1.237 -3.38187 0
M  V30 4935 C 515.369 -2.77078 -3.54327 0
M  V30 4936 C 516.688 -0.834014 -4.32125 0
M  V30 4937 H 513.807 -0.277237 -0.682868 0
M  V30 4938 H 516.449 -1.30296 -1.38286 0
M  V30 4939 H 514.599 -0.774337 -3.80705 0
M  V30 4940 H 516.271 -3.31449 -3.20842 0
M  V30 4941 H 514.514 -3.16477 -2.96689 0
M  V30 4942 H 515.185 -3.05577 -4.59703 0
M  V30 4943 H 517.661 -1.23228 -3.97434 0
M  V30 4944 H 516.537 -1.19603 -5.35711 0
M  V30 4945 H 516.798 0.262195 -4.41322 0
M  V30 4946 N 515.857 1.33968 -0.830081 0
M  V30 4947 C 516.789 2.28194 -0.21448 0
M  V30 4948 C 517.802 1.5135 0.599752 0
M  V30 4949 O 518.991 1.73286 0.42826 0
M  V30 4950 C 516.091 3.31221 0.717356 0
M  V30 4951 C 515.264 4.37365 -0.055613 0
M  V30 4952 C 514.323 5.2011 0.798231 0
M  V30 4953 O 513.349 5.68691 0.240616 0
M  V30 4954 N 514.551 5.40523 2.11695 0
M  V30 4955 H 517.316 2.81662 -1.02405 0
M  V30 4956 H 514.877 1.46568 -0.687713 0
M  V30 4957 H 516.869 3.83477 1.29334 0
M  V30 4958 H 515.439 2.78095 1.42765 0
M  V30 4959 H 514.659 3.85727 -0.812936 0
M  V30 4960 H 515.947 5.05397 -0.587444 0
M  V30 4961 H 515.345 5.0274 2.59363 0
M  V30 4962 H 513.902 5.95871 2.64162 0
M  V30 4963 N 517.335 0.585699 1.46312 0
M  V30 4964 C 518.584 0.0701192 2.01578 0
M  V30 4965 C 518.897 -1.29889 1.46247 0
M  V30 4966 O 520.103 -1.90598 1.93351 0
M  V30 4967 C 518.559 0.0747499 3.59822 0
M  V30 4968 C 518.167 1.44226 4.24149 0
M  V30 4969 C 519.911 -0.38673 4.22735 0
M  V30 4970 C 517.818 1.40446 5.74481 0
M  V30 4971 H 516.748 0.0224441 0.753666 0
M  V30 4972 H 519.399 0.737789 1.68015 0
M  V30 4973 H 517.781 -0.659144 3.90476 0
M  V30 4974 H 518.955 2.19612 4.05101 0
M  V30 4975 H 517.27 1.84401 3.73343 0
M  V30 4976 H 519.867 -0.433853 5.32937 0
M  V30 4977 H 520.21 -1.40489 3.91878 0
M  V30 4978 H 520.743 0.293195 3.96718 0
M  V30 4979 H 517.482 2.39952 6.10003 0
M  V30 4980 H 517.002 0.692845 5.95785 0
M  V30 4981 H 518.681 1.11865 6.37256 0
M  V30 4982 N 518.813 -1.54241 0.323641 0
M  V30 4983 C 520.229 -1.59574 -0.0290018 0
M  V30 4984 C 520.429 -1.34017 -1.50472 0
M  V30 4985 O 519.485 -1.12464 -2.26071 0
M  V30 4986 C 520.798 -2.98169 0.389295 0
M  V30 4987 C 522.346 -3.11148 0.339958 0
M  V30 4988 C 522.821 -4.5209 0.733418 0
M  V30 4989 N 524.312 -4.5808 0.686827 0
M  V30 4990 C 525.047 -5.65248 0.963464 0
M  V30 4991 N 524.543 -6.80355 1.30724 0
M  V30 4992 N 526.336 -5.55025 0.88902 0
M  V30 4993 H 518.487 -1.6911 1.28512 0
M  V30 4994 H 520.75 -0.790972 0.522558 0
M  V30 4995 H 520.456 -3.21871 1.41746 0
M  V30 4996 H 520.33 -3.76399 -0.245657 0
M  V30 4997 H 522.717 -2.87182 -0.679002 0
M  V30 4998 H 522.798 -2.35023 1.00985 0
M  V30 4999 H 522.442 -4.76788 1.75029 0
M  V30 5000 H 522.372 -5.26584 0.0412189 0
M  V30 5001 H 524.863 -3.75411 0.43298 0
M  V30 5002 H 525.176 -7.58029 1.5037 0
M  V30 5003 H 523.521 -6.81851 1.3455 0
M  V30 5004 H 526.712 -4.63977 0.619939 0
M  V30 5005 H 526.885 -6.38458 1.10797 0
M  V30 5006 N 520.291 -0.0518155 -1.57515 0
M  V30 5007 C 521.239 0.940195 -2.12751 0
M  V30 5008 C 522.233 1.3218 -1.05948 0
M  V30 5009 O 523.439 1.30138 -1.24355 0
M  V30 5010 H 519.814 0.321066 -0.680015 0
M  V30 5011 H 521.785 0.449217 -2.94999 0
M  V30 5012 C 520.534 2.2055 -2.68799 0
M  V30 5013 H 519.857 1.92066 -3.50643 0
M  V30 5014 H 521.297 2.88119 -3.11068 0
M  V30 5015 C 519.756 2.95061 -1.62605 0
M  V30 5016 O 520.286 3.88025 -1.03921 0
M  V30 5017 N 518.492 2.57804 -1.34111 0
M  V30 5018 H 518.039 1.82281 -1.8202 0
M  V30 5019 H 517.997 3.07964 -0.632872 0
M  V30 5020 N 521.769 1.56035 0.221574 0
M  V30 5021 C 522.719 1.8881 1.27807 0
M  V30 5022 C 523.703 0.751177 1.42289 0
M  V30 5023 O 524.895 1.01359 1.45104 0
M  V30 5024 C 522.024 2.20828 2.6285 0
M  V30 5025 C 521.11 3.40912 2.52269 0
M  V30 5026 N 521.501 4.59531 2.1134 0
M  V30 5027 C 519.799 3.44526 2.83228 0
M  V30 5028 C 520.5 5.41689 2.1201 0
M  V30 5029 N 519.476 4.814 2.52497 0
M  V30 5030 H 523.278 2.78036 0.952529 0
M  V30 5031 H 520.792 1.566 0.430134 0
M  V30 5032 H 522.789 2.42483 3.39127 0
M  V30 5033 H 521.449 1.32914 2.9625 0
M  V30 5034 H 522.46 4.8469 1.82472 0
M  V30 5035 H 519.137 2.66956 3.21 0
M  V30 5036 H 520.527 6.46643 1.82491 0
M  V30 5037 N 523.247 -0.488276 1.49845 0
M  V30 5038 C 524.177 -1.59675 1.70371 0
M  V30 5039 C 525.158 -1.60878 0.552473 0
M  V30 5040 O 526.343 -1.77417 0.78973 0
M  V30 5041 C 523.473 -2.98098 1.782 0
M  V30 5042 C 522.427 -3.11761 2.93239 0
M  V30 5043 C 521.753 -4.51661 2.86193 0
M  V30 5044 C 523.053 -2.90589 4.33999 0
M  V30 5045 H 524.747 -1.42752 2.63177 0
M  V30 5046 H 522.293 -0.685317 1.26647 0
M  V30 5047 H 524.246 -3.75555 1.91144 0
M  V30 5048 H 522.97 -3.16138 0.820018 0
M  V30 5049 H 521.629 -2.36732 2.79917 0
M  V30 5050 H 521.277 -4.66595 1.87877 0
M  V30 5051 H 520.977 -4.61742 3.63412 0
M  V30 5052 H 522.501 -5.31162 3.01163 0
M  V30 5053 H 523.915 -3.57807 4.47936 0
M  V30 5054 H 522.312 -3.1213 5.12538 0
M  V30 5055 H 523.382 -1.86595 4.4756 0
M  V30 5056 N 524.725 -1.39134 -0.740242 0
M  V30 5057 C 525.672 -1.37434 -1.8542 0
M  V30 5058 C 526.642 -0.234822 -1.64432 0
M  V30 5059 O 527.827 -0.429125 -1.85912 0
M  V30 5060 C 524.967 -1.21844 -3.22875 0
M  V30 5061 C 524.08 -2.45296 -3.55603 0
M  V30 5062 C 523.215 -2.22334 -4.82432 0
M  V30 5063 C 522.254 -3.41488 -5.07988 0
M  V30 5064 N 521.391 -3.17877 -6.26018 0
M  V30 5065 H 526.231 -2.3266 -1.86207 0
M  V30 5066 H 523.768 -1.15578 -0.909946 0
M  V30 5067 H 525.726 -1.10818 -4.02213 0
M  V30 5068 H 524.356 -0.3025 -3.21379 0
M  V30 5069 H 523.408 -2.66945 -2.71006 0
M  V30 5070 H 524.72 -3.34063 -3.7041 0
M  V30 5071 H 523.874 -2.0852 -5.69741 0
M  V30 5072 H 522.613 -1.30954 -4.6979 0
M  V30 5073 H 521.618 -3.55807 -4.19144 0
M  V30 5074 H 522.843 -4.33763 -5.22519 0
M  V30 5075 H 520.789 -2.29156 -6.14673 0
M  V30 5076 H 520.706 -4.00198 -6.41387 0
M  V30 5077 H 521.974 -3.07746 -7.16179 0
M  V30 5078 N 526.204 0.969867 -1.24223 0
M  V30 5079 C 527.152 2.08535 -1.03034 0
M  V30 5080 C 528.146 1.69366 0.0340379 0
M  V30 5081 O 529.352 1.79597 -0.12034 0
M  V30 5082 H 525.727 0.682313 -0.316154 0
M  V30 5083 H 527.698 2.23569 -1.97635 0
M  V30 5084 C 526.447 3.4158 -0.649509 0
M  V30 5085 H 525.77 3.72177 -1.46028 0
M  V30 5086 H 527.21 4.20536 -0.540841 0
M  V30 5087 C 525.669 3.30703 0.643194 0
M  V30 5088 O 526.199 3.64443 1.68951 0
M  V30 5089 N 524.405 2.83841 0.623095 0
M  V30 5090 H 523.952 2.56583 -0.228719 0
M  V30 5091 H 523.91 2.76946 1.48823 0
M  V30 5092 N 527.682 1.05563 1.17022 0
M  V30 5093 C 528.91 0.78845 1.91288 0
M  V30 5094 C 529.325 -0.656318 1.77025 0
M  V30 5095 O 528.682 -1.44869 1.10992 0
M  V30 5096 C 528.733 1.16444 3.42232 0
M  V30 5097 O 528.454 2.5525 3.5606 0
M  V30 5098 C 529.955 0.923937 4.33565 0
M  V30 5099 H 527.175 0.286389 0.606813 0
M  V30 5100 H 529.719 1.4073 1.48375 0
M  V30 5101 H 527.874 0.590266 3.82877 0
M  V30 5102 H 528.288 2.70097 4.49609 0
M  V30 5103 H 529.762 1.23672 5.37968 0
M  V30 5104 H 530.239 -0.140688 4.38975 0
M  V30 5105 H 530.845 1.48214 3.98639 0
M  V30 5106 N 529.16 -1.33526 0.837174 0
M  V30 5107 C 530.123 -2.27551 0.274421 0
M  V30 5108 C 531.123 -1.50886 -0.555881 0
M  V30 5109 O 532.313 -1.70227 -0.369918 0
M  V30 5110 C 529.445 -3.35332 -0.613605 0
M  V30 5111 H 530.638 -2.78837 1.10408 0
M  V30 5112 H 528.191 -1.439 0.610126 0
M  V30 5113 H 528.926 -2.89285 -1.46577 0
M  V30 5114 H 528.711 -3.92095 -0.0195341 0
M  V30 5115 H 530.201 -4.05433 -1.00068 0
M  V30 5116 N 530.638 -0.59345 -1.46 0
M  V30 5117 C 531.866 -0.0890934 -2.06708 0
M  V30 5118 C 532.281 1.2205 -1.44046 0
M  V30 5119 O 531.638 1.74029 -0.549551 0
M  V30 5120 C 531.689 0.0720263 -3.61428 0
M  V30 5121 O 531.41 -1.18574 -4.21748 0
M  V30 5122 C 532.911 0.609487 -4.3909 0
M  V30 5123 H 530.131 -0.0623628 -0.668096 0
M  V30 5124 H 532.675 -0.817171 -1.87464 0
M  V30 5125 H 530.83 0.750369 -3.80063 0
M  V30 5126 H 531.244 -1.0064 -5.14754 0
M  V30 5127 H 532.718 0.671363 -5.47902 0
M  V30 5128 H 533.195 1.62878 -4.07882 0
M  V30 5129 H 533.801 -0.03434 -4.25286 0
M  V30 5130 N 532.116 1.54067 -0.331816 0
M  V30 5131 C 533.341 2.05599 0.272705 0
M  V30 5132 C 533.766 1.2059 1.44359 0
M  V30 5133 O 533.124 0.216907 1.79998 0
M  V30 5134 C 533.172 3.54188 0.677021 0
M  V30 5135 O 532.276 3.72082 1.77844 0
M  V30 5136 H 531.617 0.662286 0.0476801 0
M  V30 5137 H 534.147 1.98826 -0.482624 0
M  V30 5138 H 534.157 3.96608 0.957415 0
M  V30 5139 H 532.832 4.15513 -0.179325 0
M  V30 5140 H 531.409 3.41566 1.49622 0
M  V30 5141 N 533.594 0.0601682 1.57485 0
M  V30 5142 C 534.524 -0.90889 2.15085 0
M  V30 5143 C 535.505 -1.31838 1.07484 0
M  V30 5144 O 536.69 -1.3915 1.35466 0
M  V30 5145 C 533.82 -2.18059 2.7031 0
M  V30 5146 C 532.774 -1.91088 3.82974 0
M  V30 5147 C 532.1 -3.24789 4.24754 0
M  V30 5148 C 533.4 -1.22535 5.07723 0
M  V30 5149 H 535.094 -0.429093 2.96309 0
M  V30 5150 H 532.64 -0.204952 1.42534 0
M  V30 5151 H 534.593 -2.86258 3.09248 0
M  V30 5152 H 533.317 -2.6826 1.8629 0
M  V30 5153 H 531.976 -1.25297 3.44523 0
M  V30 5154 H 531.624 -3.72809 3.37672 0
M  V30 5155 H 531.324 -3.07538 5.00694 0
M  V30 5156 H 532.848 -3.94205 4.66299 0
M  V30 5157 H 534.262 -1.80783 5.4405 0
M  V30 5158 H 532.659 -1.1558 5.88864 0
M  V30 5159 H 533.729 -0.202692 4.84476 0
M  V30 5160 N 535.072 -1.5615 -0.213296 0
M  V30 5161 C 536.32 -1.79191 -0.934612 0
M  V30 5162 C 536.641 -0.630112 -1.84539 0
M  V30 5163 O 535.911 0.35257 -1.92701 0
M  V30 5164 H 534.491 -0.660937 -0.348097 0
M  V30 5165 H 537.153 -1.93618 -0.22317 0
M  V30 5166 H 536.249 -2.71656 -1.53654 0
M  V30 5167 N 536.55 0.480323 -1.50102 0
M  V30 5168 C 537.775 1.26126 -1.64642 0
M  V30 5169 C 538.2 1.85257 -0.325823 0
M  V30 5170 O 537.558 1.66854 0.709194 0
M  V30 5171 C 537.606 2.35243 -2.73301 0
M  V30 5172 O 536.71 3.39646 -2.33911 0
M  V30 5173 H 536.051 0.371463 -0.550374 0
M  V30 5174 H 538.581 0.572696 -1.96421 0
M  V30 5175 H 538.591 2.80695 -2.96098 0
M  V30 5176 H 537.266 1.91574 -3.6915 0
M  V30 5177 H 535.843 2.99969 -2.21525 0
M  V30 5178 N 538.028 1.39524 0.732853 0
M  V30 5179 C 539.256 1.40143 1.52209 0
M  V30 5180 C 539.671 -0.00348836 1.888 0
M  V30 5181 O 539.028 -0.975357 1.5425 0
M  V30 5182 C 539.079 2.27632 2.8083 0
M  V30 5183 O 538.8 3.62654 2.45792 0
M  V30 5184 C 540.301 2.36658 3.74844 0
M  V30 5185 H 537.521 0.478604 0.470297 0
M  V30 5186 H 540.065 1.83366 0.905388 0
M  V30 5187 H 538.22 1.87818 3.38826 0
M  V30 5188 H 538.634 4.08941 3.28431 0
M  V30 5189 H 540.108 3.02118 4.61984 0
M  V30 5190 H 540.585 1.38638 4.16745 0
M  V30 5191 H 541.191 2.76951 3.22766 0
M  V30 5192 N 539.506 -0.963266 1.24736 0
M  V30 5193 C 540.454 -2.07985 1.04139 0
M  V30 5194 C 541.448 -1.69381 -0.0250556 0
M  V30 5195 O 542.654 -1.79531 0.129863 0
M  V30 5196 H 539.029 -0.680627 0.319768 0
M  V30 5197 H 541 -2.22517 1.98818 0
M  V30 5198 C 539.749 -3.4123 0.667615 0
M  V30 5199 H 539.072 -3.71397 1.48 0
M  V30 5200 H 540.512 -4.20244 0.563136 0
M  V30 5201 C 538.971 -3.3104 -0.625647 0
M  V30 5202 O 539.501 -3.65334 -1.67016 0
M  V30 5203 N 537.707 -2.84168 -0.608033 0
M  V30 5204 H 537.254 -2.56458 0.242323 0
M  V30 5205 H 537.212 -2.77732 -1.47352 0
M  V30 5206 N 540.985 -1.06182 -1.16461 0
M  V30 5207 C 541.915 -0.692861 -2.22984 0
M  V30 5208 C 542.896 0.314122 -1.67174 0
M  V30 5209 O 544.081 0.189499 -1.93273 0
M  V30 5210 C 541.211 -0.07732 -3.47214 0
M  V30 5211 C 540.165 -1.01015 -4.15909 0
M  V30 5212 C 539.491 -0.257973 -5.34077 0
M  V30 5213 C 540.791 -2.33868 -4.67015 0
M  V30 5214 H 542.485 -1.58343 -2.54102 0
M  V30 5215 H 540.031 -0.76279 -1.22137 0
M  V30 5216 H 541.984 0.19266 -4.20959 0
M  V30 5217 H 540.708 0.848254 -3.15392 0
M  V30 5218 H 539.367 -1.26486 -3.44088 0
M  V30 5219 H 539.015 0.670684 -4.98509 0
M  V30 5220 H 538.715 -0.879638 -5.80979 0
M  V30 5221 H 540.239 0.00448788 -6.106 0
M  V30 5222 H 541.653 -2.1279 -5.32347 0
M  V30 5223 H 540.05 -2.91522 -5.24533 0
M  V30 5224 H 541.12 -2.97019 -3.83286 0
M  V30 5225 N 542.463 1.3308 -0.844243 0
M  V30 5226 C 543.693 2.01515 -0.455541 0
M  V30 5227 C 544.101 1.63655 0.949406 0
M  V30 5228 O 543.444 0.84848 1.62931 0
M  V30 5229 C 543.506 3.55967 -0.502801 0
M  V30 5230 C 543.17 4.17222 -1.86481 0
M  V30 5231 C 544.167 4.36205 -2.8288 0
M  V30 5232 C 541.852 4.53528 -2.15911 0
M  V30 5233 C 543.846 4.90649 -4.06869 0
M  V30 5234 C 541.533 5.07679 -3.40155 0
M  V30 5235 C 542.531 5.26186 -4.35451 0
M  V30 5236 O 542.219 5.79183 -5.57496 0
M  V30 5237 H 541.951 0.65199 -0.178565 0
M  V30 5238 H 544.505 1.70867 -1.1399 0
M  V30 5239 H 542.735 3.85965 0.23836 0
M  V30 5240 H 544.424 4.05688 -0.131169 0
M  V30 5241 H 545.19 4.085 -2.61444 0
M  V30 5242 H 541.069 4.38414 -1.42528 0
M  V30 5243 H 544.613 5.0501 -4.81259 0
M  V30 5244 H 540.51 5.34815 -3.61446 0
M  V30 5245 H 541.278 5.97591 -5.5931 0
M  V30 5246 N 543.941 0.601185 1.45683 0
M  V30 5247 C 545.189 0.0936957 2.01883 0
M  V30 5248 C 545.51 -1.2779 1.47291 0
M  V30 5249 O 544.78 -1.84279 0.664691 0
M  V30 5250 H 543.36 0.0316466 0.746329 0
M  V30 5251 H 546.022 0.781137 1.78562 0
M  V30 5252 H 545.118 0.0386297 3.12076 0
M  V30 5253 N 545.419 -1.53889 0.339982 0
M  V30 5254 C 546.644 -2.05741 -0.261798 0
M  V30 5255 C 547.069 -1.21354 -1.43718 0
M  V30 5256 O 546.427 -0.22645 -1.7988 0
M  V30 5257 C 546.475 -3.54542 -0.658228 0
M  V30 5258 O 545.579 -3.7302 -1.75869 0
M  V30 5259 H 544.92 -0.662529 -0.0441672 0
M  V30 5260 H 547.45 -1.98568 0.493161 0
M  V30 5261 H 547.46 -3.9711 -0.936368 0
M  V30 5262 H 546.135 -4.15412 0.201358 0
M  V30 5263 H 544.712 -3.42355 -1.47809 0
M  V30 5264 N 546.897 -0.0685191 -1.57451 0
M  V30 5265 C 548.145 0.60016 -1.92983 0
M  V30 5266 C 548.466 1.70348 -0.949028 0
M  V30 5267 O 547.736 1.959 0.00335647 0
M  V30 5268 H 546.316 0.224682 -0.712409 0
M  V30 5269 H 548.978 -0.125605 -1.94495 0
M  V30 5270 H 548.074 1.02759 -2.94698 0
M  V30 5271 N 548.375 1.56261 0.205012 0
M  V30 5272 C 549.305 1.96779 1.257 0
M  V30 5273 C 550.286 0.838309 1.48008 0
M  V30 5274 O 551.471 1.10189 1.59913 0
M  V30 5275 C 548.601 2.29876 2.60335 0
M  V30 5276 C 547.555 3.45469 2.52656 0
M  V30 5277 C 546.881 3.64215 3.91473 0
M  V30 5278 C 548.181 4.79954 2.06014 0
M  V30 5279 H 549.875 2.84904 0.920338 0
M  V30 5280 H 547.421 1.37072 0.441277 0
M  V30 5281 H 549.374 2.56814 3.34102 0
M  V30 5282 H 548.098 1.38622 2.95722 0
M  V30 5283 H 546.757 3.18605 1.81345 0
M  V30 5284 H 546.405 2.70309 4.24196 0
M  V30 5285 H 546.105 4.41973 3.87213 0
M  V30 5286 H 547.629 3.93519 4.66878 0
M  V30 5287 H 549.043 5.05989 2.69533 0
M  V30 5288 H 547.44 5.61111 2.12777 0
M  V30 5289 H 548.51 4.74201 1.01297 0
M  V30 5290 N 549.853 -0.472356 1.50355 0
M  V30 5291 C 551.099 -1.22634 1.6152 0
M  V30 5292 C 551.432 -1.91645 0.313995 0
M  V30 5293 O 550.707 -1.82059 -0.684446 0
M  V30 5294 C 550.99 -2.27099 2.7946 0
M  V30 5295 C 550.843 -1.62402 4.19459 0
M  V30 5296 C 552.162 -3.28421 2.92964 0
M  V30 5297 H 549.281 -0.444494 0.587873 0
M  V30 5298 H 551.923 -0.520321 1.82737 0
M  V30 5299 H 550.073 -2.87314 2.61501 0
M  V30 5300 H 551.745 -1.05793 4.49005 0
M  V30 5301 H 549.988 -0.927184 4.23776 0
M  V30 5302 H 550.659 -2.38309 4.97909 0
M  V30 5303 H 553.135 -2.78227 3.09401 0
M  V30 5304 H 552.011 -3.98845 3.77113 0
M  V30 5305 H 552.272 -3.92467 2.03525 0
M  V30 5306 N 551.331 -1.39911 -0.725443 0
M  V30 5307 C 552.279 -1.39552 -1.86086 0
M  V30 5308 C 553.273 -0.277334 -1.67114 0
M  V30 5309 O 554.479 -0.447865 -1.74339 0
M  V30 5310 H 550.854 -0.435993 -0.612711 0
M  V30 5311 H 552.825 -2.35305 -1.83505 0
M  V30 5312 C 551.574 -1.26529 -3.2386 0
M  V30 5313 H 550.897 -2.11845 -3.3906 0
M  V30 5314 H 552.337 -1.30336 -4.03471 0
M  V30 5315 C 550.796 0.0254168 -3.3689 0
M  V30 5316 O 551.326 0.992048 -3.89257 0
M  V30 5317 N 549.532 0.0916528 -2.90455 0
M  V30 5318 H 549.079 -0.695675 -2.48028 0
M  V30 5319 H 549.037 0.954745 -2.99553 0
M  V30 5320 N 552.809 0.956637 -1.25245 0
M  V30 5321 C 553.772 2.03457 -1.05537 0
M  V30 5322 C 554.772 1.60798 -0.00886317 0
M  V30 5323 O 555.962 1.72384 -0.250865 0
M  V30 5324 C 553.094 3.35543 -0.601965 0
M  V30 5325 H 554.287 2.22372 -2.01223 0
M  V30 5326 H 551.84 1.13344 -1.07623 0
M  V30 5327 H 552.575 3.22323 0.357584 0
M  V30 5328 H 552.36 3.67854 -1.35743 0
M  V30 5329 H 553.85 4.14769 -0.485454 0
M  V30 5330 N 554.287 1.06798 1.15896 0
M  V30 5331 C 555.197 0.694564 2.24083 0
M  V30 5332 C 556.213 -0.291687 1.71538 0
M  V30 5333 O 557.389 -0.139723 2.00915 0
M  V30 5334 C 554.454 0.0921014 3.46578 0
M  V30 5335 C 553.515 1.13087 4.14137 0
M  V30 5336 C 552.748 0.557064 5.30785 0
M  V30 5337 O 552.971 -0.628623 5.66925 0
M  V30 5338 O 551.905 1.29924 5.8771 0
M  V30 5339 H 555.731 1.59663 2.58344 0
M  V30 5340 H 553.316 0.840575 1.2351 0
M  V30 5341 H 555.198 -0.241884 4.20705 0
M  V30 5342 H 553.873 -0.78337 3.14078 0
M  V30 5343 H 552.78 1.51712 3.41957 0
M  V30 5344 H 554.113 1.97805 4.50704 0
M  V30 5345 N 555.766 -1.3263 0.851289 0
M  V30 5346 C 556.729 -2.27247 0.298541 0
M  V30 5347 C 557.729 -1.51467 -0.539847 0
M  V30 5348 O 558.919 -1.7061 -0.351843 0
M  V30 5349 C 556.051 -3.35964 -0.578004 0
M  V30 5350 H 557.244 -2.7765 1.13359 0
M  V30 5351 H 554.797 -1.43245 0.625354 0
M  V30 5352 H 555.532 -2.90823 -1.435 0
M  V30 5353 H 555.317 -3.92094 0.0220539 0
M  V30 5354 H 556.807 -4.06472 -0.957626 0
M  V30 5355 N 557.244 -0.608902 -1.45362 0
M  V30 5356 C 558.207 0.0992563 -2.28985 0
M  V30 5357 C 559.207 0.793841 -1.39838 0
M  V30 5358 O 560.397 0.641804 -1.61946 0
M  V30 5359 C 557.529 1.15073 -3.20891 0
M  V30 5360 H 558.722 -0.635964 -2.93079 0
M  V30 5361 H 556.275 -0.368007 -1.51906 0
M  V30 5362 H 557.01 1.91667 -2.616 0
M  V30 5363 H 556.795 0.656867 -3.86559 0
M  V30 5364 H 558.285 1.64665 -3.83765 0
M  V30 5365 N 558.722 1.53707 -0.348139 0
M  V30 5366 C 559.95 2.05406 0.248224 0
M  V30 5367 C 560.365 1.22282 1.43849 0
M  V30 5368 O 559.722 0.259244 1.80649 0
M  V30 5369 C 559.773 3.55446 0.658793 0
M  V30 5370 O 559.494 4.35417 -0.484149 0
M  V30 5371 C 560.995 4.23335 1.31539 0
M  V30 5372 H 558.215 0.669344 0.0471075 0
M  V30 5373 H 560.759 1.98257 -0.501456 0
M  V30 5374 H 558.914 3.62803 1.35841 0
M  V30 5375 H 559.328 5.24268 -0.155949 0
M  V30 5376 H 560.802 5.29692 1.55338 0
M  V30 5377 H 561.279 3.75967 2.27036 0
M  V30 5378 H 561.885 4.20184 0.657683 0
M  V30 5379 N 560.2 0.0768682 1.57412 0
M  V30 5380 C 561.616 -0.279772 1.57129 0
M  V30 5381 C 561.816 -1.69688 1.08666 0
M  V30 5382 O 560.872 -2.40953 0.754843 0
M  V30 5383 C 562.185 -0.0848055 3.0058 0
M  V30 5384 C 563.733 -0.153954 3.12621 0
M  V30 5385 C 564.208 0.0127946 4.57998 0
M  V30 5386 N 565.699 -0.0426435 4.6318 0
M  V30 5387 C 566.434 0.0618892 5.73367 0
M  V30 5388 N 565.93 0.220229 6.9245 0
M  V30 5389 N 567.723 0.00446072 5.621 0
M  V30 5390 H 559.874 1.00297 1.87228 0
M  V30 5391 H 562.137 0.391565 0.863354 0
M  V30 5392 H 561.843 0.89325 3.40168 0
M  V30 5393 H 561.717 -0.834961 3.67843 0
M  V30 5394 H 564.104 -1.1225 2.72917 0
M  V30 5395 H 564.185 0.627389 2.47987 0
M  V30 5396 H 563.829 0.978128 4.98392 0
M  V30 5397 H 563.759 -0.788016 5.20671 0
M  V30 5398 H 566.25 -0.163226 3.77547 0
M  V30 5399 H 566.563 0.291999 7.72248 0
M  V30 5400 H 564.908 0.255658 6.9453 0
M  V30 5401 H 568.099 -0.117979 4.67951 0
M  V30 5402 H 568.272 0.0893796 6.47938 0
M  V30 5403 O 561.717 -1.61375 -0.0636308 0
M  V30 5404 H 562.408 -1.81049 -0.688533 0
M  V30 END ATOM
M  V30 BEGIN BOND
M  V30 END BOND
M  V30 END CTAB
M  END
$$$$
