drugbank_target|P12758 Uridine phosphorylase (DB01629; DB02256; DB02681; DB03101; DB04485; DB06872; DB06873; DB07437; DB07439)
 OpenBabel12092119503D

  0  0  0     0  0            999 V3000
M  V30 BEGIN CTAB
M  V30 COUNTS 3818 3850 0 0 0
M  V30 BEGIN ATOM
M  V30 1 H -0.908 1.98254 -0.117106 0
M  V30 2 N 0 1.576 0 0
M  V30 3 C 0.933 2.03868 1.02534 0
M  V30 4 C 1.911 0.928543 1.3348 0
M  V30 5 O 3.095 1.19667 1.45644 0
M  V30 6 C 0.222 2.43627 2.35294 0
M  V30 7 C -0.732 3.65373 2.2001 0
M  V30 8 S 0.101 5.13292 1.52614 0
M  V30 9 C 1.257 5.56322 2.86805 0
M  V30 10 H 1.49 2.90518 0.631377 0
M  V30 11 H -0.977 1.52953 0.210867 0
M  V30 12 H 0.981 2.67203 3.11629 0
M  V30 13 H -0.358 1.57376 2.7183 0
M  V30 14 H -1.165 3.90944 3.18086 0
M  V30 15 H -1.563 3.418 1.51819 0
M  V30 16 H 0.729 5.58782 3.83104 0
M  V30 17 H 1.672 6.56266 2.65933 0
M  V30 18 H 2.08 4.83886 2.90714 0
M  V30 19 N 1.4781 -0.272755 1.55222 0
M  V30 20 C 2.7031 -1.02683 1.80197 0
M  V30 21 C 3.1281 -1.79142 0.573551 0
M  V30 22 O 2.4861 -1.74917 -0.476849 0
M  V30 23 C 2.5341 -1.9609 3.02624 0
M  V30 24 O 1.6381 -3.04863 2.77727 0
M  V30 25 H 0.9791 -0.293557 0.595584 0
M  V30 26 H 3.5091 -0.30159 2.02365 0
M  V30 27 H 3.5191 -2.38039 3.31363 0
M  V30 28 H 2.1941 -1.39851 3.91682 0
M  V30 29 H 0.7711 -2.67228 2.60084 0
M  V30 30 N 2.9562 -1.48159 -0.537278 0
M  V30 31 C 3.9032 -1.62138 -1.64256 0
M  V30 32 C 4.8732 -0.463668 -1.59497 0
M  V30 33 O 6.0582 -0.686241 -1.78032 0
M  V30 34 C 3.1982 -1.66028 -3.02537 0
M  V30 35 C 2.3112 -2.92855 -3.17585 0
M  V30 36 C 1.4462 -2.87952 -4.46382 0
M  V30 37 C 0.4852 -4.09516 -4.54932 0
M  V30 38 N -0.3778 -4.02733 -5.75109 0
M  V30 39 H 4.4622 -2.56529 -1.51647 0
M  V30 40 H 1.9992 -1.27224 -0.738414 0
M  V30 41 H 3.9572 -1.66265 -3.82638 0
M  V30 42 H 2.5872 -0.751331 -3.13934 0
M  V30 43 H 1.6392 -3.02395 -2.30784 0
M  V30 44 H 2.9512 -3.82822 -3.19764 0
M  V30 45 H 2.1052 -2.8655 -5.34765 0
M  V30 46 H 0.8442 -1.95702 -4.46712 0
M  V30 47 H -0.1508 -4.11201 -3.64957 0
M  V30 48 H 1.0742 -5.02917 -4.56346 0
M  V30 49 H -0.9798 -3.13299 -5.76351 0
M  V30 50 H -1.0628 -4.86397 -5.78752 0
M  V30 51 H 0.2052 -4.05379 -6.65799 0
M  V30 52 N 4.4343 0.785586 -1.36625 0
M  V30 53 C 5.6593 1.57963 -1.34397 0
M  V30 54 C 6.0843 1.87964 0.071526 0
M  V30 55 O 5.4423 1.48182 1.0446 0
M  V30 56 C 5.4903 2.87511 -2.17646 0
M  V30 57 O 4.5943 3.81281 -1.57158 0
M  V30 58 H 3.9353 0.479014 -0.459828 0
M  V30 59 H 6.4653 0.973411 -1.79961 0
M  V30 60 H 6.4753 3.36745 -2.30362 0
M  V30 61 H 5.1503 2.65002 -3.20541 0
M  V30 62 H 3.7273 3.39885 -1.53403 0
M  V30 63 N 5.9124 1.20967 1.01018 0
M  V30 64 C 7.1894 0.93264 1.71934 0
M  V30 65 C 7.5694 -0.55692 2.03621 0
M  V30 66 O 6.9174 -1.52035 1.7058 0
M  V30 67 C 7.1274 1.81233 2.98254 0
M  V30 68 C 8.4754 2.05804 3.71389 0
M  V30 69 O 9.4994 1.78539 3.08225 0
M  V30 70 O 8.3584 2.51888 4.84989 0
M  V30 71 H 5.4524 0.349272 0.749625 0
M  V30 72 H 7.9984 1.31871 1.06808 0
M  V30 73 H 6.7704 2.82067 2.71208 0
M  V30 74 H 6.3934 1.42674 3.7112 0
M  V30 75 N 7.3905 -1.2043 1.01659 0
M  V30 76 C 8.6365 -1.90079 0.706963 0
M  V30 77 C 8.9695 -1.78648 -0.761474 0
M  V30 78 O 8.2445 -1.17069 -1.55323 0
M  V30 79 C 8.5275 -3.41469 1.14327 0
M  V30 80 C 8.3805 -3.61833 2.67201 0
M  V30 81 C 9.6995 -4.34261 0.714529 0
M  V30 82 H 6.8185 -0.690254 0.2583 0
M  V30 83 H 9.4605 -1.41826 1.26433 0
M  V30 84 H 7.6105 -3.82696 0.669056 0
M  V30 85 H 9.2825 -3.2986 3.22475 0
M  V30 86 H 7.5255 -3.05304 3.08175 0
M  V30 87 H 8.1965 -4.67955 2.92783 0
M  V30 88 H 10.6725 -4.00682 1.12221 0
M  V30 89 H 9.5485 -5.38806 1.04784 0
M  V30 90 H 9.8095 -4.40431 -0.383799 0
M  V30 91 N 8.8686 -0.792821 -1.36206 0
M  V30 92 C 10.1156 -0.366786 -1.99151 0
M  V30 93 C 10.4436 1.06243 -1.62919 0
M  V30 94 O 9.6986 1.74927 -0.877442 0
M  V30 95 C 9.9976 -0.481501 -3.54142 0
M  V30 96 C 9.6636 -1.87202 -4.10203 0
M  V30 97 C 8.3256 -2.25248 -4.25226 0
M  V30 98 C 10.6776 -2.78237 -4.40719 0
M  V30 99 C 8.0056 -3.53723 -4.68078 0
M  V30 100 C 10.3576 -4.06144 -4.85005 0
M  V30 101 C 9.0216 -4.44207 -4.98234 0
M  V30 102 H 8.2916 -0.134217 -0.728743 0
M  V30 103 H 10.9386 -1.01094 -1.62641 0
M  V30 104 H 9.2436 0.246146 -3.91026 0
M  V30 105 H 10.9406 -0.132844 -4.0078 0
M  V30 106 H 7.5306 -1.56639 -3.98951 0
M  V30 107 H 11.7146 -2.50097 -4.28679 0
M  V30 108 H 6.9706 -3.8308 -4.76508 0
M  V30 109 H 11.1446 -4.76796 -5.07581 0
M  V30 110 H 8.7716 -5.43814 -5.31197 0
M  V30 111 N 10.3467 1.47872 -0.545128 0
M  V30 112 C 11.2967 2.26842 0.229456 0
M  V30 113 C 12.2807 1.33626 0.896267 0
M  V30 114 O 13.4727 1.58063 0.79657 0
M  V30 115 C 10.6017 3.19089 1.26638 0
M  V30 116 C 9.6877 4.19783 0.603598 0
M  V30 117 N 10.0787 5.0479 -0.319405 0
M  V30 118 C 8.3767 4.3765 0.858989 0
M  V30 119 C 9.0777 5.77433 -0.703241 0
M  V30 120 N 8.0537 5.43566 -0.0608309 0
M  V30 121 H 11.8557 2.89947 -0.480391 0
M  V30 122 H 9.3697 1.58263 -0.364209 0
M  V30 123 H 11.3667 3.74337 1.83515 0
M  V30 124 H 10.0267 2.5754 1.97745 0
M  V30 125 H 11.0377 5.13244 -0.692889 0
M  V30 126 H 7.7147 3.87281 1.55948 0
M  V30 127 H 9.1047 6.55824 -1.46098 0
M  V30 128 N 11.8248 0.280983 1.55075 0
M  V30 129 C 12.7548 -0.597469 2.25727 0
M  V30 130 C 13.7358 -1.15417 1.24952 0
M  V30 131 O 14.9208 -1.18722 1.53684 0
M  V30 132 C 12.0508 -1.7789 2.98283 0
M  V30 133 C 11.0048 -1.35347 4.06036 0
M  V30 134 C 10.3308 -2.61846 4.66198 0
M  V30 135 C 11.6308 -0.499354 5.19907 0
M  V30 136 H 13.3248 -0.00824265 2.99399 0
M  V30 137 H 10.8708 -0.0025244 1.44 0
M  V30 138 H 12.8238 -2.39937 3.46422 0
M  V30 139 H 11.5478 -2.39405 2.22155 0
M  V30 140 H 10.2068 -0.756156 3.58717 0
M  V30 141 H 9.8548 -3.21632 3.86732 0
M  V30 142 H 9.5548 -2.3409 5.38958 0
M  V30 143 H 11.0788 -3.24732 5.1709 0
M  V30 144 H 12.4928 -1.02498 5.64063 0
M  V30 145 H 10.8898 -0.316424 5.99265 0
M  V30 146 H 11.9598 0.480459 4.82514 0
M  V30 147 N 13.3029 -1.57598 0.00835791 0
M  V30 148 C 14.5509 -1.90551 -0.6734 0
M  V30 149 C 14.8719 -0.883301 -1.73847 0
M  V30 150 O 14.1419 0.0781442 -1.95744 0
M  V30 151 H 12.7219 -0.703312 -0.251717 0
M  V30 152 H 15.3839 -1.94833 0.0512592 0
M  V30 153 H 14.4799 -2.9056 -1.13935 0
M  V30 154 N 14.781 0.264519 -1.55364 0
M  V30 155 C 15.711 1.33121 -1.91836 0
M  V30 156 C 16.692 1.51101 -0.781192 0
M  V30 157 O 17.877 1.64003 -1.04003 0
M  V30 158 C 15.007 2.68921 -2.19769 0
M  V30 159 C 13.961 2.65661 -3.35571 0
M  V30 160 C 13.287 4.05093 -3.49004 0
M  V30 161 C 14.587 2.24187 -4.71739 0
M  V30 162 H 16.281 1.02844 -2.81182 0
M  V30 163 H 13.827 0.493286 -1.35287 0
M  V30 164 H 15.78 3.43663 -2.43872 0
M  V30 165 H 14.504 3.00799 -1.27231 0
M  V30 166 H 13.163 1.93377 -3.1145 0
M  V30 167 H 12.811 4.34206 -2.53917 0
M  V30 168 H 12.511 4.03804 -4.26868 0
M  V30 169 H 14.035 4.81561 -3.75408 0
M  V30 170 H 15.449 2.88654 -4.9533 0
M  V30 171 H 13.846 2.34044 -5.52579 0
M  V30 172 H 14.916 1.19327 -4.69988 0
M  V30 173 N 16.2591 1.48442 0.529413 0
M  V30 174 C 17.4871 1.60151 1.30994 0
M  V30 175 C 17.9021 0.261985 1.86973 0
M  V30 176 O 17.2591 -0.748805 1.66431 0
M  V30 177 C 17.3101 2.64854 2.46038 0
M  V30 178 O 17.0311 3.93608 1.92365 0
M  V30 179 C 18.5321 2.87007 3.37849 0
M  V30 180 H 15.7521 0.539971 0.398338 0
M  V30 181 H 18.2961 1.94273 0.638597 0
M  V30 182 H 16.4511 2.33589 3.09055 0
M  V30 183 H 16.8651 4.51055 2.67675 0
M  V30 184 H 18.3391 3.64068 4.14919 0
M  V30 185 H 18.8161 1.95852 3.93114 0
M  V30 186 H 19.4221 3.19579 2.80623 0
M  V30 187 N 17.7372 -0.778329 1.37039 0
M  V30 188 C 18.6842 -1.89139 1.32269 0
M  V30 189 C 19.6542 -1.65017 0.189387 0
M  V30 190 O 20.8392 -1.87024 0.377693 0
M  V30 191 C 17.9792 -3.26112 1.12894 0
M  V30 192 C 17.0922 -3.62233 2.35396 0
M  V30 193 C 16.2272 -4.8838 2.08946 0
M  V30 194 C 15.2662 -5.17212 3.2735 0
M  V30 195 N 14.4032 -6.34546 3.00492 0
M  V30 196 H 19.2432 -1.92552 2.27437 0
M  V30 197 H 16.7802 -0.941473 1.13025 0
M  V30 198 H 18.7382 -4.05116 0.996835 0
M  V30 199 H 17.3682 -3.22091 0.213758 0
M  V30 200 H 16.4202 -2.78265 2.5937 0
M  V30 201 H 17.7322 -3.79481 3.23721 0
M  V30 202 H 16.8862 -5.75274 1.92729 0
M  V30 203 H 15.6252 -4.73222 1.17949 0
M  V30 204 H 14.6302 -4.28796 3.44113 0
M  V30 205 H 15.8552 -5.34283 4.19188 0
M  V30 206 H 13.8012 -6.20759 2.12118 0
M  V30 207 H 13.7182 -6.52179 3.82358 0
M  V30 208 H 14.9862 -7.24394 2.87879 0
M  V30 209 N 19.2153 -1.21501 -1.00376 0
M  V30 210 C 20.1633 -0.972442 -2.11297 0
M  V30 211 C 21.1573 0.080731 -1.69208 0
M  V30 212 O 22.3633 -0.0707666 -1.79861 0
M  V30 213 H 18.7383 -0.297218 -0.690772 0
M  V30 214 H 20.7093 -1.91394 -2.28934 0
M  V30 215 C 19.4583 -0.555065 -3.43241 0
M  V30 216 H 18.7813 -1.35709 -3.76062 0
M  V30 217 H 20.2213 -0.424664 -4.21868 0
M  V30 218 C 18.6803 0.734147 -3.28804 0
M  V30 219 O 19.2103 1.78937 -3.59645 0
M  V30 220 N 17.4163 0.701133 -2.82015 0
M  V30 221 H 16.9633 -0.157874 -2.57116 0
M  V30 222 H 16.9213 1.56403 -2.72737 0
M  V30 223 N 20.6934 1.19889 -1.02296 0
M  V30 224 C 21.9704 1.85148 -0.630832 0
M  V30 225 C 22.3504 1.91385 0.890782 0
M  V30 226 O 21.6984 1.42642 1.78509 0
M  V30 227 C 21.9084 3.24442 -1.28602 0
M  V30 228 C 23.2564 4.00663 -1.4055 0
M  V30 229 O 24.2804 3.33818 -1.24273 0
M  V30 230 O 23.1394 5.20387 -1.66913 0
M  V30 231 H 20.2334 0.797613 -0.218499 0
M  V30 232 H 22.7794 1.27427 -1.12074 0
M  V30 233 H 21.5514 3.14704 -2.32545 0
M  V30 234 H 21.1744 3.89802 -0.7836 0
M  V30 235 N 22.1715 0.800033 1.35784 0
M  V30 236 C 23.1015 0.220184 2.3246 0
M  V30 237 C 24.0825 -0.65073 1.57161 0
M  V30 238 O 25.2675 -0.582359 1.85263 0
M  V30 239 C 22.3975 -0.637353 3.41402 0
M  V30 240 C 21.3515 0.134531 4.27789 0
M  V30 241 C 20.6775 -0.844285 5.27992 0
M  V30 242 C 21.9775 1.32979 5.05088 0
M  V30 243 H 23.6715 1.02787 2.81203 0
M  V30 244 H 21.2175 0.495717 1.35199 0
M  V30 245 H 23.1705 -1.05302 4.08031 0
M  V30 246 H 21.8945 -1.47785 2.91251 0
M  V30 247 H 20.5535 0.531296 3.6273 0
M  V30 248 H 20.2015 -1.68011 4.74111 0
M  V30 249 H 19.9015 -0.332184 5.8666 0
M  V30 250 H 21.4255 -1.2583 5.97494 0
M  V30 251 H 22.8395 0.98934 5.64699 0
M  V30 252 H 21.2365 1.77593 5.7322 0
M  V30 253 H 22.3065 2.11978 4.36111 0
M  V30 254 N 23.6496 -1.47581 0.552962 0
M  V30 255 C 24.5816 -2.27997 -0.234533 0
M  V30 256 C 25.5946 -1.36753 -0.883321 0
M  V30 257 O 26.7836 -1.61612 -0.757889 0
M  V30 258 C 23.8836 -3.10879 -1.34935 0
M  V30 259 C 23.0566 -4.30056 -0.798158 0
M  V30 260 C 22.1156 -4.94567 -1.79694 0
M  V30 261 O 21.1416 -5.53087 -1.34474 0
M  V30 262 N 22.3436 -4.88878 -3.13015 0
M  V30 263 H 25.1086 -2.96222 0.455255 0
M  V30 264 H 22.6696 -1.57163 0.388761 0
M  V30 265 H 24.6616 -3.50903 -2.01616 0
M  V30 266 H 23.2316 -2.44924 -1.94244 0
M  V30 267 H 22.4516 -3.94174 0.0453079 0
M  V30 268 H 23.7396 -5.07152 -0.409173 0
M  V30 269 H 23.1376 -4.42526 -3.52402 0
M  V30 270 H 21.6946 -5.32934 -3.75266 0
M  V30 271 N 25.1277 -0.289203 -1.54924 0
M  V30 272 C 26.3757 0.322879 -1.99504 0
M  V30 273 C 26.6967 1.55313 -1.1791 0
M  V30 274 O 25.9667 1.94001 -0.272097 0
M  V30 275 H 24.5467 0.122291 -0.736922 0
M  V30 276 H 27.2087 -0.397802 -1.90797 0
M  V30 277 H 26.3047 0.603061 -3.06218 0
M  V30 278 N 26.6058 1.57591 -0.0167156 0
M  V30 279 C 27.5688 2.08393 0.954204 0
M  V30 280 C 28.5688 0.996531 1.26198 0
M  V30 281 O 29.7588 1.25858 1.20438 0
M  V30 282 C 26.8908 2.5394 2.27436 0
M  V30 283 H 28.0838 2.95455 0.514451 0
M  V30 284 H 25.6368 1.54582 0.231089 0
M  V30 285 H 26.3718 1.70171 2.76066 0
M  V30 286 H 26.1568 3.33371 2.06412 0
M  V30 287 H 27.6468 2.93512 2.97053 0
M  V30 288 N 28.0839 -0.256276 1.55502 0
M  V30 289 C 29.3119 -1.00342 1.8094 0
M  V30 290 C 29.7269 -1.79307 0.59114 0
M  V30 291 O 29.0839 -1.77114 -0.440081 0
M  V30 292 C 29.1349 -1.94875 3.04476 0
M  V30 293 O 28.8559 -1.19107 4.21598 0
M  V30 294 C 30.3569 -2.81266 3.42644 0
M  V30 295 H 27.5769 -0.295685 0.602338 0
M  V30 296 H 30.1209 -0.281998 2.02546 0
M  V30 297 H 28.2759 -2.62457 2.84947 0
M  V30 298 H 28.6899 -1.82969 4.91551 0
M  V30 299 H 30.1639 -3.43362 4.32211 0
M  V30 300 H 30.6409 -3.51897 2.62802 0
M  V30 301 H 31.2469 -2.1915 3.64491 0
M  V30 302 N 29.562 -1.4872 -0.521534 0
M  V30 303 C 30.492 -1.66771 -1.63431 0
M  V30 304 C 31.473 -0.516499 -1.62069 0
M  V30 305 O 32.658 -0.750013 -1.79132 0
M  V30 306 C 29.788 -1.71515 -3.01993 0
M  V30 307 C 28.742 -2.86222 -3.18216 0
M  V30 308 C 28.068 -2.76061 -4.57924 0
M  V30 309 C 29.368 -4.27419 -3.00184 0
M  V30 310 H 31.062 -2.59932 -1.48579 0
M  V30 311 H 28.608 -1.25089 -0.713358 0
M  V30 312 H 30.561 -1.82731 -3.7972 0
M  V30 313 H 29.285 -0.749393 -3.17886 0
M  V30 314 H 27.944 -2.74575 -2.42908 0
M  V30 315 H 27.592 -1.77437 -4.70665 0
M  V30 316 H 27.292 -3.53037 -4.69722 0
M  V30 317 H 28.816 -2.89256 -5.37739 0
M  V30 318 H 30.23 -4.39855 -3.67697 0
M  V30 319 H 28.627 -5.05458 -3.2347 0
M  V30 320 H 29.697 -4.43293 -1.96518 0
M  V30 321 N 31.0401 0.771051 -1.3745 0
M  V30 322 C 32.0031 1.86598 -1.33093 0
M  V30 323 C 33.0031 1.59076 -0.234845 0
M  V30 324 O 34.1931 1.67145 -0.490732 0
M  V30 325 C 31.3251 3.23747 -1.06773 0
M  V30 326 H 32.5181 1.91873 -2.30488 0
M  V30 327 H 30.0711 0.970876 -1.2249 0
M  V30 328 H 30.8061 3.24148 -0.099129 0
M  V30 329 H 30.5911 3.45115 -1.86112 0
M  V30 330 H 32.0811 4.03824 -1.06377 0
M  V30 331 N 32.5182 1.22032 0.997298 0
M  V30 332 C 33.7672 1.03637 1.73038 0
M  V30 333 C 34.0802 -0.429475 1.90827 0
M  V30 334 O 35.2862 -0.732995 2.61418 0
M  V30 335 C 33.7422 1.80582 3.11317 0
M  V30 336 C 33.3502 3.31387 3.01474 0
M  V30 337 C 35.0942 1.70621 3.88701 0
M  V30 338 C 33.0012 4.00791 4.3488 0
M  V30 339 H 31.9312 0.384179 0.648785 0
M  V30 340 H 34.5822 1.4584 1.11368 0
M  V30 341 H 32.9642 1.31175 3.73643 0
M  V30 342 H 34.1382 3.88155 2.4834 0
M  V30 343 H 32.4532 3.41976 2.37575 0
M  V30 344 H 35.0502 2.19799 4.87434 0
M  V30 345 H 35.3932 0.665823 4.10941 0
M  V30 346 H 35.9262 2.17547 3.33044 0
M  V30 347 H 32.6652 5.05064 4.1784 0
M  V30 348 H 32.1852 3.48811 4.87945 0
M  V30 349 H 33.8642 4.06139 5.03647 0
M  V30 350 N 33.9963 -1.19345 1.0293 0
M  V30 351 C 35.2423 -1.89318 0.727083 0
M  V30 352 C 35.5753 -1.79446 -0.742483 0
M  V30 353 O 34.8503 -1.1871 -1.54072 0
M  V30 354 C 35.1333 -3.40238 1.17942 0
M  V30 355 C 34.9863 -3.58979 2.71024 0
M  V30 356 C 36.3053 -4.33479 0.760548 0
M  V30 357 H 33.4243 -0.687475 0.265606 0
M  V30 358 H 36.0663 -1.40477 1.2793 0
M  V30 359 H 34.2163 -3.81964 0.709608 0
M  V30 360 H 35.8883 -3.26421 3.25955 0
M  V30 361 H 34.1313 -3.02018 3.11396 0
M  V30 362 H 34.8023 -4.64823 2.9773 0
M  V30 363 H 37.2783 -3.99469 1.16464 0
M  V30 364 H 36.1543 -5.37664 1.10493 0
M  V30 365 H 36.4153 -4.40813 -0.337063 0
M  V30 366 N 35.4744 -0.807222 -1.35358 0
M  V30 367 C 36.8854 -0.44876 -1.81226 0
M  V30 368 C 37.2364 1.02929 -1.67033 0
M  V30 369 O 36.3614 1.79991 -1.20133 0
M  V30 370 C 36.9564 -0.807774 -3.2903 0
M  V30 371 C 35.5154 -0.501901 -3.73039 0
M  V30 372 C 34.6624 -1.03304 -2.57339 0
M  V30 373 H 37.6134 -0.998808 -1.23327 0
M  V30 374 H 37.6344 -0.10554 -3.80354 0
M  V30 375 H 37.1464 -1.88357 -3.39328 0
M  V30 376 H 35.2474 0.565128 -3.68289 0
M  V30 377 H 35.3604 -1.03497 -4.67787 0
M  V30 378 H 33.7244 -0.455339 -2.50597 0
M  V30 379 H 34.5074 -2.11496 -2.70415 0
M  V30 380 N 36.9525 1.47285 -0.560781 0
M  V30 381 C 38.2005 2.02064 -0.0379868 0
M  V30 382 C 38.5215 1.43711 1.31803 0
M  V30 383 O 37.7915 0.61362 1.86042 0
M  V30 384 H 36.3715 0.746918 -0.0110531 0
M  V30 385 H 39.0335 1.80648 -0.731598 0
M  V30 386 H 38.1295 3.12064 0.0474463 0
M  V30 387 N 38.4306 0.297415 1.54768 0
M  V30 388 C 39.7076 -0.365847 1.92148 0
M  V30 389 C 40.0876 -1.71975 1.22424 0
M  V30 390 O 39.4356 -2.25666 0.358739 0
M  V30 391 C 39.6456 -0.484056 3.45627 0
M  V30 392 C 40.9936 -0.756594 4.17805 0
M  V30 393 O 42.0176 -0.568007 3.51642 0
M  V30 394 O 40.8766 -1.11863 5.34929 0
M  V30 395 H 37.9706 -0.203919 0.801465 0
M  V30 396 H 40.5166 0.34521 1.66152 0
M  V30 397 H 39.2886 0.467865 3.88493 0
M  V30 398 H 38.9116 -1.24372 3.77647 0
M  V30 399 N 39.9087 -1.5758 0.0250728 0
M  V30 400 C 41.3197 -1.79476 -0.514323 0
M  V30 401 C 41.6707 -0.934956 -1.72491 0
M  V30 402 O 40.7957 -0.144245 -2.15919 0
M  V30 403 C 41.3907 -3.25503 -0.939842 0
M  V30 404 C 39.9497 -3.48408 -1.42438 0
M  V30 405 C 39.0967 -2.74583 -0.387201 0
M  V30 406 H 42.0477 -1.567 0.25113 0
M  V30 407 H 42.0687 -3.34992 -1.80445 0
M  V30 408 H 41.5807 -3.88056 -0.0585628 0
M  V30 409 H 39.6817 -2.91103 -2.32572 0
M  V30 410 H 39.7947 -4.57119 -1.43455 0
M  V30 411 H 38.1587 -2.39942 -0.854409 0
M  V30 412 H 38.9417 -3.39849 0.485543 0
M  V30 413 N 41.3868 0.248026 -1.55636 0
M  V30 414 C 42.6638 0.998988 -1.68165 0
M  V30 415 C 43.0438 2.03409 -0.564621 0
M  V30 416 O 42.3918 2.24378 0.432076 0
M  V30 417 C 42.6018 1.63334 -3.0842 0
M  V30 418 C 43.9498 2.13562 -3.66983 0
M  V30 419 O 44.9738 1.73277 -3.11213 0
M  V30 420 O 43.8328 2.87526 -4.64749 0
M  V30 421 H 40.9268 0.464933 -0.683935 0
M  V30 422 H 43.4728 0.241902 -1.67967 0
M  V30 423 H 42.2448 0.884583 -3.8117 0
M  V30 424 H 41.8678 2.45666 -3.12624 0
M  V30 425 N 42.8649 1.48995 0.513639 0
M  V30 426 C 44.2809 1.35478 0.843682 0
M  V30 427 C 44.4809 0.378213 1.97919 0
M  V30 428 O 43.5369 -0.194689 2.51748 0
M  V30 429 C 44.8499 2.75901 1.1958 0
M  V30 430 C 46.3979 2.84509 1.30474 0
M  V30 431 C 46.8729 4.25671 1.69021 0
M  V30 432 N 48.3639 4.28422 1.76094 0
M  V30 433 C 49.0989 5.34601 2.07338 0
M  V30 434 N 48.5949 6.5104 2.36894 0
M  V30 435 N 50.3879 5.22007 2.08483 0
M  V30 436 H 42.5389 2.11092 -0.235328 0
M  V30 437 H 44.8019 0.947039 -0.0426669 0
M  V30 438 H 44.5079 3.49001 0.434913 0
M  V30 439 H 44.3819 3.10467 2.1422 0
M  V30 440 H 46.7689 2.11655 2.05637 0
M  V30 441 H 46.8499 2.53542 0.339155 0
M  V30 442 H 46.4939 4.99048 0.944135 0
M  V30 443 H 46.4239 4.54094 2.66658 0
M  V30 444 H 48.9149 3.44441 1.55464 0
M  V30 445 H 49.2279 7.2779 2.59887 0
M  V30 446 H 47.5729 6.54287 2.34378 0
M  V30 447 H 50.7639 4.30051 1.84861 0
M  V30 448 H 50.9369 6.04854 2.325 0
M  V30 449 N 44.343 -0.763751 1.37857 0
M  V30 450 C 45.589 -1.52483 1.33704 0
M  V30 451 C 45.922 -1.94051 -0.0759612 0
M  V30 452 O 45.197 -1.64675 -1.03501 0
M  V30 453 C 45.48 -2.78441 2.28348 0
M  V30 454 C 45.333 -2.43075 3.78463 0
M  V30 455 C 46.652 -3.80415 2.21298 0
M  V30 456 H 43.771 -0.553169 0.487005 0
M  V30 457 H 46.413 -0.875562 1.68624 0
M  V30 458 H 44.563 -3.33842 1.987 0
M  V30 459 H 46.235 -1.93527 4.18742 0
M  V30 460 H 44.478 -1.75666 3.96641 0
M  V30 461 H 45.149 -3.33149 4.40132 0
M  V30 462 H 47.625 -3.34527 2.47449 0
M  V30 463 H 46.501 -4.66257 2.89647 0
M  V30 464 H 46.762 -4.25262 1.20849 0
M  V30 465 N 45.8211 -1.22559 -0.990812 0
M  V30 466 C 46.7311 -1.01394 -2.11557 0
M  V30 467 C 47.7471 0.0383962 -1.73958 0
M  V30 468 O 48.9231 -0.154787 -2.00804 0
M  V30 469 C 45.9881 -0.596569 -3.41529 0
M  V30 470 C 45.0491 -1.72276 -3.93217 0
M  V30 471 C 44.2821 -1.32521 -5.16985 0
M  V30 472 O 44.5051 -0.204909 -5.70032 0
M  V30 473 O 43.4391 -2.14247 -5.62478 0
M  V30 474 H 47.2651 -1.95633 -2.32296 0
M  V30 475 H 44.8501 -1.01172 -1.0993 0
M  V30 476 H 46.7321 -0.374263 -4.19735 0
M  V30 477 H 45.4071 0.316939 -3.22145 0
M  V30 478 H 44.3141 -1.99961 -3.16174 0
M  V30 479 H 45.6471 -2.61421 -4.17037 0
M  V30 480 N 47.2992 1.18797 -1.03562 0
M  V30 481 C 48.2462 2.22253 -0.622259 0
M  V30 482 C 49.2162 1.61987 0.36736 0
M  V30 483 O 50.4012 1.88986 0.262492 0
M  V30 484 C 47.5412 3.45097 0.0138462 0
M  V30 485 C 46.6542 4.19722 -1.02263 0
M  V30 486 C 45.7892 5.30009 -0.355573 0
M  V30 487 C 44.8282 5.96399 -1.37749 0
M  V30 488 N 43.9652 6.98234 -0.735766 0
M  V30 489 H 48.8052 2.56968 -1.50903 0
M  V30 490 H 46.3422 1.26245 -0.755017 0
M  V30 491 H 48.3002 4.15279 0.399948 0
M  V30 492 H 46.9302 3.11018 0.864158 0
M  V30 493 H 45.9822 3.48418 -1.52673 0
M  V30 494 H 47.2942 4.65227 -1.79903 0
M  V30 495 H 46.4482 6.0664 0.0850095 0
M  V30 496 H 45.1872 4.85592 0.452967 0
M  V30 497 H 44.1922 5.18512 -1.82826 0
M  V30 498 H 45.4172 6.42899 -2.18764 0
M  V30 499 H 43.3632 6.55979 0.0525597 0
M  V30 500 H 43.2802 7.41965 -1.44995 0
M  V30 501 H 44.5482 7.78845 -0.31941 0
M  V30 502 N 48.7773 0.814389 1.34928 0
M  V30 503 C 50.0263 0.394871 1.97797 0
M  V30 504 C 50.3393 -1.04555 1.65311 0
M  V30 505 O 51.5453 -1.56856 2.21604 0
M  V30 506 C 50.0013 0.655103 3.53888 0
M  V30 507 C 49.6093 2.10858 3.95276 0
M  V30 508 C 51.3533 0.301329 4.23429 0
M  V30 509 C 49.2603 2.31415 5.44244 0
M  V30 510 H 48.1903 0.143913 0.740139 0
M  V30 511 H 50.8413 0.999544 1.53888 0
M  V30 512 H 49.2233 -0.0196253 3.95995 0
M  V30 513 H 50.3973 2.82176 3.64298 0
M  V30 514 H 48.7123 2.42297 3.38646 0
M  V30 515 H 51.3093 0.432869 5.32945 0
M  V30 516 H 51.6523 -0.75331 4.09428 0
M  V30 517 H 52.1853 0.930288 3.86769 0
M  V30 518 H 48.9243 3.35353 5.63222 0
M  V30 519 H 48.4443 1.6463 5.76764 0
M  V30 520 H 50.1233 2.13352 6.10811 0
M  V30 521 N 50.2554 -1.46986 0.568584 0
M  V30 522 C 51.2184 -2.28624 -0.162366 0
M  V30 523 C 52.2184 -1.37596 -0.832103 0
M  V30 524 O 53.4084 -1.60115 -0.68622 0
M  V30 525 C 50.5404 -3.17596 -1.23878 0
M  V30 526 H 51.7334 -2.94722 0.554899 0
M  V30 527 H 49.2864 -1.52863 0.325976 0
M  V30 528 H 50.0214 -2.56214 -1.98808 0
M  V30 529 H 49.8064 -3.846 -0.763219 0
M  V30 530 H 51.2964 -3.79078 -1.75185 0
M  V30 531 N 51.7335 -0.305618 -1.54608 0
M  V30 532 C 52.6965 0.555591 -2.22364 0
M  V30 533 C 53.6965 1.05768 -1.21119 0
M  V30 534 O 54.8865 0.952972 -1.45822 0
M  V30 535 C 52.0185 1.76974 -2.91364 0
M  V30 536 H 53.2115 -0.0364572 -2.99878 0
M  V30 537 H 50.7645 -0.0565007 -1.56198 0
M  V30 538 H 51.4995 2.40151 -2.17941 0
M  V30 539 H 51.2845 1.41732 -3.65588 0
M  V30 540 H 52.7745 2.38148 -3.43038 0
M  V30 541 N 53.2116 1.57565 -0.0334293 0
M  V30 542 C 54.1416 2.13511 0.945265 0
M  V30 543 C 55.1226 1.05231 1.33643 0
M  V30 544 O 56.3076 1.33084 1.41429 0
M  V30 545 C 53.4376 2.6657 2.22616 0
M  V30 546 C 52.3916 3.79676 1.97561 0
M  V30 547 C 51.7176 4.1918 3.31952 0
M  V30 548 C 53.0176 5.0557 1.31135 0
M  V30 549 H 54.7116 2.95538 0.479325 0
M  V30 550 H 52.2576 1.42166 0.229115 0
M  V30 551 H 54.2106 3.04344 2.91466 0
M  V30 552 H 52.9346 1.8171 2.71384 0
M  V30 553 H 51.5936 3.42347 1.31127 0
M  V30 554 H 51.2416 3.31296 3.78487 0
M  V30 555 H 50.9416 4.95402 3.15992 0
M  V30 556 H 52.4656 4.59541 4.02063 0
M  V30 557 H 53.8796 5.40903 1.89992 0
M  V30 558 H 52.2766 5.86818 1.25559 0
M  V30 559 H 53.3466 4.84062 0.284894 0
M  V30 560 N 54.6897 -0.239769 1.55765 0
M  V30 561 C 55.6227 -1.32356 1.85895 0
M  V30 562 C 56.6007 -1.46053 0.714662 0
M  V30 563 O 57.7847 -1.62154 0.961157 0
M  V30 564 C 54.9117 -2.6962 2.04994 0
M  V30 565 C 53.9577 -2.73036 3.27648 0
M  V30 566 S 54.7907 -2.28929 4.84099 0
M  V30 567 C 55.9467 -3.68103 5.06212 0
M  V30 568 H 56.1797 -1.06601 2.77531 0
M  V30 569 H 53.7127 -0.441112 1.47965 0
M  V30 570 H 55.6707 -3.48653 2.16682 0
M  V30 571 H 54.3317 -2.92609 1.14188 0
M  V30 572 H 53.5247 -3.7386 3.38 0
M  V30 573 H 53.1267 -2.02052 3.14723 0
M  V30 574 H 55.4187 -4.63656 4.93993 0
M  V30 575 H 56.3617 -3.6268 6.08168 0
M  V30 576 H 56.7697 -3.60947 4.34025 0
M  V30 577 N 56.1678 -1.49265 -0.50573 0
M  V30 578 C 57.4448 -1.49012 -1.26707 0
M  V30 579 C 57.8248 -0.215205 -2.1 0
M  V30 580 O 57.1728 0.802547 -2.13943 0
M  V30 581 C 57.3828 -2.7663 -2.12783 0
M  V30 582 C 58.7308 -3.25932 -2.72127 0
M  V30 583 O 59.7548 -2.77715 -2.23054 0
M  V30 584 O 58.6138 -4.09897 -3.61451 0
M  V30 585 H 55.7078 -0.596197 -0.57313 0
M  V30 586 H 58.2538 -1.61524 -0.52039 0
M  V30 587 H 57.0258 -3.60916 -1.5118 0
M  V30 588 H 56.6488 -2.66956 -2.94653 0
M  V30 589 N 57.6459 0.756429 -1.3826 0
M  V30 590 C 58.5929 1.87011 -1.35261 0
M  V30 591 C 59.5629 1.64695 -0.215616 0
M  V30 592 O 60.7479 1.864 -0.407399 0
M  V30 593 C 57.8879 3.24275 -1.18068 0
M  V30 594 C 57.0009 3.58442 -2.41129 0
M  V30 595 C 56.1359 4.84994 -2.16689 0
M  V30 596 C 55.1749 5.11939 -3.35537 0
M  V30 597 N 54.3119 6.29685 -3.10549 0
M  V30 598 H 59.1519 1.8891 -2.30472 0
M  V30 599 H 56.6889 0.923373 -1.14509 0
M  V30 600 H 58.6469 4.03479 -1.06116 0
M  V30 601 H 57.2769 3.21711 -0.264973 0
M  V30 602 H 56.3289 2.74103 -2.63764 0
M  V30 603 H 57.6409 3.74283 -3.29717 0
M  V30 604 H 56.7949 5.72135 -2.01857 0
M  V30 605 H 55.5339 4.71286 -1.25462 0
M  V30 606 H 54.5389 4.23268 -3.50891 0
M  V30 607 H 55.7639 5.27546 -4.27635 0
M  V30 608 H 53.7099 6.17306 -2.21967 0
M  V30 609 H 53.6269 6.46014 -3.92686 0
M  V30 610 H 54.8949 7.19722 -2.99367 0
M  V30 611 N 59.124 1.23083 0.984299 0
M  V30 612 C 60.535 1.05609 1.5396 0
M  V30 613 C 60.886 -0.377793 1.92528 0
M  V30 614 O 60.011 -1.26398 1.75649 0
M  V30 615 C 60.606 1.91087 2.7977 0
M  V30 616 C 59.165 1.77885 3.31713 0
M  V30 617 C 58.312 1.87028 2.04733 0
M  V30 618 H 61.263 1.36802 0.804419 0
M  V30 619 H 61.284 1.43336 3.5247 0
M  V30 620 H 60.796 2.9544 2.51668 0
M  V30 621 H 58.897 0.762995 3.64704 0
M  V30 622 H 59.01 2.61047 4.01735 0
M  V30 623 H 57.374 1.30565 2.18689 0
M  V30 624 H 58.157 2.92929 1.79017 0
M  V30 625 N 60.6021 -1.18246 1.0419 0
M  V30 626 C 61.8481 -1.88536 0.747122 0
M  V30 627 C 62.1811 -1.80223 -0.723409 0
M  V30 628 O 61.4561 -1.20337 -1.52804 0
M  V30 629 C 61.7391 -3.38968 1.21544 0
M  V30 630 C 61.5921 -3.56084 2.74816 0
M  V30 631 C 62.9111 -4.32648 0.806482 0
M  V30 632 H 60.0301 -0.684619 0.272883 0
M  V30 633 H 62.6721 -1.39113 1.29413 0
M  V30 634 H 60.8221 -3.8119 0.750081 0
M  V30 635 H 62.4941 -3.22946 3.29399 0
M  V30 636 H 60.7371 -2.98699 3.14582 0
M  V30 637 H 61.4081 -4.61639 3.02644 0
M  V30 638 H 63.8841 -3.98211 1.20695 0
M  V30 639 H 62.7601 -5.36462 1.1619 0
M  V30 640 H 63.0211 -4.41146 -0.29029 0
M  V30 641 N 62.0802 -0.821533 -1.34494 0
M  V30 642 C 63.0272 -0.240397 -2.29545 0
M  V30 643 C 63.9972 0.634031 -1.53523 0
M  V30 644 O 65.1822 0.575966 -1.81899 0
M  V30 645 C 62.3222 0.592869 -3.39969 0
M  V30 646 C 61.4352 -0.30365 -4.30932 0
M  V30 647 C 60.5702 0.539049 -5.28458 0
M  V30 648 C 59.6092 -0.356942 -6.11058 0
M  V30 649 N 58.7462 0.446603 -7.00678 0
M  V30 650 H 63.5862 -1.05632 -2.7865 0
M  V30 651 H 61.1232 -0.532413 -1.37127 0
M  V30 652 H 63.0812 1.09129 -4.02675 0
M  V30 653 H 61.7112 1.37392 -2.92102 0
M  V30 654 H 60.7632 -0.920276 -3.691 0
M  V30 655 H 62.0752 -0.992661 -4.88823 0
M  V30 656 H 61.2292 1.102 -5.96608 0
M  V30 657 H 59.9682 1.26157 -4.71101 0
M  V30 658 H 58.9732 -0.932047 -5.41842 0
M  V30 659 H 60.1982 -1.07755 -6.70497 0
M  V30 660 H 58.1442 1.15282 -6.45791 0
M  V30 661 H 58.0612 -0.184048 -7.55776 0
M  V30 662 H 59.3292 0.992352 -7.73158 0
M  V30 663 N 63.5583 1.46682 -0.576371 0
M  V30 664 C 64.4883 2.33028 0.148397 0
M  V30 665 C 65.4693 1.44961 0.889956 0
M  V30 666 O 66.6543 1.73789 0.866662 0
M  V30 667 C 63.7843 3.27117 1.1667 0
M  V30 668 C 62.7383 4.24575 0.540386 0
M  V30 669 C 62.0643 5.08126 1.6647 0
M  V30 670 C 63.3643 5.19722 -0.518331 0
M  V30 671 H 65.0583 2.93875 -0.572509 0
M  V30 672 H 62.6043 1.41315 -0.276768 0
M  V30 673 H 64.5573 3.86374 1.68204 0
M  V30 674 H 63.2813 2.64364 1.9178 0
M  V30 675 H 61.9403 3.66571 0.0461769 0
M  V30 676 H 61.5883 4.41762 2.40531 0
M  V30 677 H 61.2883 5.74122 1.25131 0
M  V30 678 H 62.8123 5.70246 2.18293 0
M  V30 679 H 64.2263 5.73232 -0.0883058 0
M  V30 680 H 62.6233 5.94026 -0.851679 0
M  V30 681 H 63.6933 4.64037 -1.40703 0
M  V30 682 N 65.0364 0.313813 1.54444 0
M  V30 683 C 65.9994 -0.54379 2.22656 0
M  V30 684 C 66.9994 -1.05124 1.21678 0
M  V30 685 O 68.1894 -0.945225 1.46325 0
M  V30 686 C 65.3214 -1.75427 2.92298 0
M  V30 687 H 66.5144 0.0523599 2.99854 0
M  V30 688 H 64.0674 0.0647834 1.56166 0
M  V30 689 H 64.8024 -2.38991 2.19211 0
M  V30 690 H 64.5874 -1.39791 3.66334 0
M  V30 691 H 66.0774 -2.36325 3.44297 0
M  V30 692 N 66.5145 -1.57545 0.0417849 0
M  V30 693 C 67.7395 -1.97035 -0.647455 0
M  V30 694 C 68.1645 -0.918775 -1.64135 0
M  V30 695 O 67.5225 0.119006 -1.80909 0
M  V30 696 C 67.5705 -3.35609 -1.31905 0
M  V30 697 O 66.6745 -3.3287 -2.43457 0
M  V30 698 H 66.0155 -0.64211 -0.169086 0
M  V30 699 H 68.5455 -2.04318 0.107399 0
M  V30 700 H 68.5555 -3.72126 -1.67291 0
M  V30 701 H 67.2305 -4.11685 -0.590586 0
M  V30 702 H 65.8075 -3.08087 -2.10088 0
M  V30 703 N 67.9926 0.231505 -1.5589 0
M  V30 704 C 68.9426 1.29007 -1.87993 0
M  V30 705 C 69.9266 1.42764 -0.742102 0
M  V30 706 O 71.1186 1.45747 -1.00433 0
M  V30 707 C 68.2476 2.6425 -2.1915 0
M  V30 708 C 67.3336 2.54435 -3.39299 0
M  V30 709 N 67.7246 2.14262 -4.58176 0
M  V30 710 C 66.0226 2.85416 -3.42715 0
M  V30 711 C 66.7236 2.15455 -5.40328 0
M  V30 712 N 65.6996 2.55558 -4.79783 0
M  V30 713 H 69.5016 0.970213 -2.77424 0
M  V30 714 H 67.0156 0.440097 -1.56323 0
M  V30 715 H 69.0126 3.40665 -2.40319 0
M  V30 716 H 67.6726 2.9709 -1.31025 0
M  V30 717 H 68.6836 1.85554 -4.83518 0
M  V30 718 H 65.3606 3.22693 -2.64906 0
M  V30 719 H 66.7506 1.86605 -6.45467 0
M  V30 720 N 69.4707 1.49531 0.497807 0
M  V30 721 C 70.8867 1.36365 0.829266 0
M  V30 722 C 71.0867 0.399184 1.97506 0
M  V30 723 O 70.1427 -0.167977 2.51941 0
M  V30 724 C 71.4557 2.77153 1.16647 0
M  V30 725 C 73.0037 2.85877 1.27449 0
M  V30 726 C 73.4787 4.2744 1.64497 0
M  V30 727 N 74.9697 4.30265 1.7154 0
M  V30 728 C 75.7047 5.3677 2.01656 0
M  V30 729 N 75.2007 6.53516 2.29976 0
M  V30 730 N 76.9937 5.24189 2.02934 0
M  V30 731 H 69.1447 2.10831 -0.257703 0
M  V30 732 H 71.4077 0.946534 -0.0527091 0
M  V30 733 H 71.1137 3.49442 0.397872 0
M  V30 734 H 70.9877 3.12722 2.10915 0
M  V30 735 H 73.3747 2.13824 2.0338 0
M  V30 736 H 73.4557 2.53887 0.312244 0
M  V30 737 H 73.0997 5.00021 0.891151 0
M  V30 738 H 73.0297 4.56896 2.61827 0
M  V30 739 H 75.5207 3.4607 1.51802 0
M  V30 740 H 75.8337 7.30506 2.52153 0
M  V30 741 H 74.1787 6.56737 2.27425 0
M  V30 742 H 77.3697 4.31988 1.80289 0
M  V30 743 H 77.5427 6.07286 2.26071 0
M  V30 744 N 70.9488 -0.749086 1.3866 0
M  V30 745 C 71.8588 -1.89358 1.38494 0
M  V30 746 C 72.8748 -1.71708 0.281476 0
M  V30 747 O 74.0508 -1.94554 0.520643 0
M  V30 748 C 71.1158 -3.24782 1.21316 0
M  V30 749 C 70.1768 -3.54926 2.41508 0
M  V30 750 C 69.4098 -4.83888 2.2514 0
M  V30 751 O 69.6328 -5.56592 1.24746 0
M  V30 752 O 68.5668 -5.13612 3.13826 0
M  V30 753 H 72.3928 -1.92452 2.34938 0
M  V30 754 H 69.9778 -0.894981 1.19626 0
M  V30 755 H 71.8598 -4.05739 1.13814 0
M  V30 756 H 70.5348 -3.2249 0.279592 0
M  V30 757 H 69.4418 -2.74112 2.54585 0
M  V30 758 H 70.7748 -3.61983 3.3351 0
M  V30 759 N 72.4269 -1.23603 -0.977757 0
M  V30 760 C 73.6739 -1.06971 -1.71941 0
M  V30 761 C 74.0019 0.393009 -1.90488 0
M  V30 762 O 73.2569 1.30719 -1.4564 0
M  V30 763 C 73.5559 -1.7433 -3.11999 0
M  V30 764 C 73.2219 -3.24252 -3.13323 0
M  V30 765 C 71.8839 -3.65156 -3.13392 0
M  V30 766 C 74.2359 -4.20141 -3.08433 0
M  V30 767 C 71.5639 -5.00403 -3.0629 0
M  V30 768 C 73.9159 -5.55384 -3.02873 0
M  V30 769 C 72.5799 -5.95647 -3.01265 0
M  V30 770 H 71.8499 -0.391433 -0.629175 0
M  V30 771 H 74.4969 -1.53572 -1.14403 0
M  V30 772 H 72.8019 -1.20096 -3.7294 0
M  V30 773 H 74.4989 -1.58936 -3.68158 0
M  V30 774 H 71.0889 -2.91692 -3.14029 0
M  V30 775 H 75.2729 -3.89547 -3.07517 0
M  V30 776 H 70.5289 -5.3081 -3.03399 0
M  V30 777 H 74.7029 -6.29398 -2.98046 0
M  V30 778 H 72.3299 -7.0041 -2.95516 0
M  V30 779 N 73.905 1.17692 -1.04816 0
M  V30 780 C 75.133 1.91786 -0.776254 0
M  V30 781 C 75.548 1.76604 0.667577 0
M  V30 782 O 74.905 1.10067 1.45573 0
M  V30 783 C 74.956 3.42967 -1.14263 0
M  V30 784 O 74.677 3.57678 -2.52978 0
M  V30 785 C 76.178 4.34144 -0.896311 0
M  V30 786 H 73.398 0.608624 -0.282519 0
M  V30 787 H 75.942 1.49268 -1.39783 0
M  V30 788 H 74.097 3.83245 -0.565874 0
M  V30 789 H 74.511 4.51319 -2.67229 0
M  V30 790 H 75.985 5.38744 -1.20244 0
M  V30 791 H 76.462 4.38876 0.168636 0
M  V30 792 H 77.068 3.99574 -1.45672 0
M  V30 793 N 75.3831 0.828654 1.34056 0
M  V30 794 C 76.6111 0.43262 2.02326 0
M  V30 795 C 77.0261 -0.963147 1.62385 0
M  V30 796 O 76.3831 -1.62425 0.832121 0
M  V30 797 C 76.4341 0.53182 3.57567 0
M  V30 798 O 76.1551 1.87258 3.96063 0
M  V30 799 C 77.6561 0.131422 4.43105 0
M  V30 800 H 74.8761 0.172923 0.648335 0
M  V30 801 H 77.4201 1.1184 1.71208 0
M  V30 802 H 75.5751 -0.105938 3.87255 0
M  V30 803 H 75.9891 1.85087 4.90758 0
M  V30 804 H 77.4631 0.251904 5.51425 0
M  V30 805 H 77.9401 -0.925645 4.29335 0
M  V30 806 H 78.5461 0.743207 4.18756 0
M  V30 807 N 76.8612 -1.46375 0.584142 0
M  V30 808 C 78.1072 -2.03248 0.0787103 0
M  V30 809 C 78.4622 -1.44737 -1.26763 0
M  V30 810 O 77.7552 -0.603625 -1.81843 0
M  V30 811 C 77.9492 -3.57373 -0.0439342 0
M  V30 812 C 77.7782 -4.30831 1.28897 0
M  V30 813 C 76.5482 -4.69683 1.8635 0
M  V30 814 C 78.7462 -4.64278 2.21248 0
M  V30 815 N 76.7282 -5.27898 3.13365 0
M  V30 816 C 78.0992 -5.23078 3.32851 0
M  V30 817 C 80.1542 -4.46209 2.20911 0
M  V30 818 C 78.8572 -5.65715 4.44251 0
M  V30 819 C 80.8832 -4.89864 3.31341 0
M  V30 820 C 80.2452 -5.48736 4.41665 0
M  V30 821 H 76.3442 -0.778714 0.0716144 0
M  V30 822 H 78.9282 -1.78509 0.777355 0
M  V30 823 H 77.0992 -3.81823 -0.711749 0
M  V30 824 H 78.8312 -4.00892 -0.553881 0
M  V30 825 H 75.5862 -4.52488 1.39826 0
M  V30 826 H 76.0102 -5.61525 3.78178 0
M  V30 827 H 80.6522 -4.00027 1.36888 0
M  V30 828 H 78.3702 -6.10875 5.29015 0
M  V30 829 H 81.9562 -4.77634 3.322 0
M  V30 830 H 80.8362 -5.81898 5.25704 0
M  V30 831 N 78.3393 -0.321999 -1.54275 0
M  V30 832 C 79.7553 0.0306999 -1.5957 0
M  V30 833 C 79.9553 1.50614 -1.33857 0
M  V30 834 O 79.0113 2.2619 -1.12223 0
M  V30 835 C 80.3243 -0.386122 -2.98211 0
M  V30 836 C 81.8723 -0.336647 -3.11184 0
M  V30 837 C 82.3473 -0.728607 -4.52167 0
M  V30 838 N 83.8383 -0.681952 -4.58152 0
M  V30 839 C 84.5733 -0.957449 -5.6535 0
M  V30 840 N 84.0693 -1.3 -6.80494 0
M  V30 841 N 85.8623 -0.883113 -5.55119 0
M  V30 842 H 78.0133 -1.28332 -1.69247 0
M  V30 843 H 80.2763 -0.521716 -0.791528 0
M  V30 844 H 79.9823 -1.41404 -3.22022 0
M  V30 845 H 79.8563 0.249662 -3.76373 0
M  V30 846 H 82.2433 0.682058 -2.8711 0
M  V30 847 H 82.3243 -1.00734 -2.3513 0
M  V30 848 H 81.9683 -1.74522 -4.76974 0
M  V30 849 H 81.8983 -0.0356152 -5.26588 0
M  V30 850 H 84.3893 -0.428985 -3.75457 0
M  V30 851 H 84.7023 -1.49563 -7.58189 0
M  V30 852 H 83.0473 -1.33824 -6.81994 0
M  V30 853 H 86.2383 -0.615001 -4.64042 0
M  V30 854 H 86.4113 -1.10118 -6.38575 0
M  V30 855 N 79.8174 1.5752 -0.0501392 0
M  V30 856 C 80.7804 2.1037 0.909786 0
M  V30 857 C 81.7804 1.02308 1.24056 0
M  V30 858 O 82.9704 1.28385 1.17741 0
M  V30 859 C 80.1024 2.58708 2.21998 0
M  V30 860 H 81.2954 2.96479 0.451665 0
M  V30 861 H 78.8484 1.55038 0.198248 0
M  V30 862 H 79.5834 1.75989 2.72394 0
M  V30 863 H 79.3684 3.37675 1.99295 0
M  V30 864 H 80.8584 2.99747 2.9076 0
M  V30 865 N 81.2955 -0.223234 1.56011 0
M  V30 866 C 82.2055 -1.29766 1.95443 0
M  V30 867 C 83.2215 -1.51373 0.858028 0
M  V30 868 O 84.3975 -1.64536 1.16146 0
M  V30 869 C 81.4625 -2.62772 2.26167 0
M  V30 870 C 80.5235 -2.49482 3.49367 0
M  V30 871 C 79.7565 -3.76145 3.78616 0
M  V30 872 O 79.9795 -4.79087 3.09568 0
M  V30 873 O 78.9135 -3.73358 4.72109 0
M  V30 874 H 82.7395 -0.99309 2.87004 0
M  V30 875 H 80.3245 -0.425958 1.43199 0
M  V30 876 H 82.2065 -3.41327 2.47131 0
M  V30 877 H 80.8815 -2.92913 1.37781 0
M  V30 878 H 79.7885 -1.69133 3.33684 0
M  V30 879 H 81.1215 -2.2428 4.38131 0
M  V30 880 N 82.7736 -1.49793 -0.48987 0
M  V30 881 C 83.7036 -1.70201 -1.59856 0
M  V30 882 C 84.6846 -0.55076 -1.60937 0
M  V30 883 O 85.8696 -0.787841 -1.77501 0
M  V30 884 C 82.9996 -1.77882 -2.98287 0
M  V30 885 C 81.9536 -2.92907 -3.12073 0
M  V30 886 C 81.2796 -2.85712 -4.51965 0
M  V30 887 C 82.5796 -4.3369 -2.91051 0
M  V30 888 H 84.2736 -2.63025 -1.43032 0
M  V30 889 H 81.8196 -1.26574 -0.686664 0
M  V30 890 H 83.7726 -1.90744 -3.75759 0
M  V30 891 H 82.4966 -0.816653 -3.16225 0
M  V30 892 H 81.1556 -2.79665 -2.37029 0
M  V30 893 H 80.8036 -1.8738 -4.66795 0
M  V30 894 H 80.5036 -3.62921 -4.62128 0
M  V30 895 H 82.0276 -3.00598 -5.31482 0
M  V30 896 H 83.4416 -4.47555 -3.58284 0
M  V30 897 H 81.8386 -5.12205 -3.12675 0
M  V30 898 H 82.9086 -4.47362 -1.87071 0
M  V30 899 N 84.2517 0.741722 -1.39055 0
M  V30 900 C 85.5287 1.49252 -1.26425 0
M  V30 901 C 85.9087 2.10705 0.129144 0
M  V30 902 O 85.2567 1.98045 1.13976 0
M  V30 903 C 85.4667 2.54934 -2.38347 0
M  V30 904 C 86.8147 3.21506 -2.77343 0
M  V30 905 O 87.8387 2.65245 -2.37747 0
M  V30 906 O 86.6977 4.23294 -3.45665 0
M  V30 907 H 83.7917 0.662451 -0.495064 0
M  V30 908 H 86.3377 0.776121 -1.50912 0
M  V30 909 H 85.1097 2.07857 -3.31529 0
M  V30 910 H 84.7327 3.34141 -2.15489 0
M  V30 911 N 85.7298 1.2412 0.971189 0
M  V30 912 C 86.9778 1.07668 1.71032 0
M  V30 913 C 87.2988 -0.385797 1.91146 0
M  V30 914 O 86.5688 -1.27569 1.4867 0
M  V30 915 H 85.1488 0.395429 0.633755 0
M  V30 916 H 87.8108 1.55984 1.16855 0
M  V30 917 H 86.9068 1.57195 2.69622 0
M  V30 918 N 87.2079 -1.17134 1.05439 0
M  V30 919 C 88.1549 -2.21235 0.657539 0
M  V30 920 C 89.1249 -1.62551 -0.341543 0
M  V30 921 O 90.3099 -1.89379 -0.232393 0
M  V30 922 C 87.4499 -3.45076 0.0410575 0
M  V30 923 C 86.5629 -4.18042 1.08927 0
M  V30 924 C 85.6979 -5.29376 0.439848 0
M  V30 925 C 84.7369 -5.94132 1.4722 0
M  V30 926 N 83.8739 -6.96975 0.846756 0
M  V30 927 H 88.7139 -2.54534 1.54972 0
M  V30 928 H 86.2509 -1.25028 0.775006 0
M  V30 929 H 88.2089 -4.15862 -0.33383 0
M  V30 930 H 86.8389 -3.12353 -0.814568 0
M  V30 931 H 85.8909 -3.45945 1.58196 0
M  V30 932 H 87.2029 -4.62306 1.87282 0
M  V30 933 H 86.3569 -6.06699 0.0115125 0
M  V30 934 H 85.0959 -4.86251 -0.375656 0
M  V30 935 H 84.1009 -5.15538 1.91052 0
M  V30 936 H 85.3259 -6.39337 2.28965 0
M  V30 937 H 83.2719 -6.5598 0.0518075 0
M  V30 938 H 83.1889 -7.39565 1.5678 0
M  V30 939 H 84.4569 -7.78239 0.443277 0
M  V30 940 N 88.686 -0.835752 -1.33615 0
M  V30 941 C 90.097 -0.487099 -1.80234 0
M  V30 942 C 90.448 0.993627 -1.69179 0
M  V30 943 O 89.573 1.77403 -1.23924 0
M  V30 944 C 90.168 -0.877385 -3.27242 0
M  V30 945 C 88.727 -0.580915 -3.7189 0
M  V30 946 C 87.874 -1.0874 -2.5509 0
M  V30 947 H 90.825 -1.02474 -1.2118 0
M  V30 948 H 90.846 -0.186195 -3.80044 0
M  V30 949 H 90.358 -1.95512 -3.35256 0
M  V30 950 H 88.459 0.486881 -3.69405 0
M  V30 951 H 88.572 -1.13396 -4.65487 0
M  V30 952 H 86.936 -0.508392 -2.49575 0
M  V30 953 H 87.719 -2.17184 -2.65868 0
M  V30 954 N 90.1641 1.46063 -0.591896 0
M  V30 955 C 91.4101 2.02638 -0.0811191 0
M  V30 956 C 91.7431 1.4613 1.27905 0
M  V30 957 O 91.0181 0.629908 1.84017 0
M  V30 958 C 91.3011 3.60091 -0.0252436 0
M  V30 959 C 91.1541 4.26965 -1.41496 0
M  V30 960 C 92.4731 4.3496 0.670685 0
M  V30 961 H 89.5921 0.73635 -0.0309524 0
M  V30 962 H 92.2341 1.741 -0.760859 0
M  V30 963 H 90.3841 3.84535 0.553624 0
M  V30 964 H 92.0561 4.13756 -2.0397 0
M  V30 965 H 90.2991 3.85971 -1.98011 0
M  V30 966 H 90.9701 5.35781 -1.32825 0
M  V30 967 H 93.4461 4.15716 0.178825 0
M  V30 968 H 92.3221 5.44686 0.678837 0
M  V30 969 H 92.5831 4.06685 1.73379 0
M  V30 970 N 91.6422 0.330177 1.54103 0
M  V30 971 C 92.8912 -0.271336 1.99867 0
M  V30 972 C 93.2042 -1.52723 1.22209 0
M  V30 973 O 94.4102 -2.20515 1.58383 0
M  V30 974 C 92.8662 -0.534032 3.55916 0
M  V30 975 C 92.4742 0.705193 4.42415 0
M  V30 976 C 94.2182 -1.09514 4.1013 0
M  V30 977 C 92.1252 0.414035 5.89949 0
M  V30 978 H 91.0552 -0.105166 0.74663 0
M  V30 979 H 93.7062 0.443429 1.78062 0
M  V30 980 H 92.0882 -1.30915 3.73734 0
M  V30 981 H 93.2622 1.4804 4.36372 0
M  V30 982 H 91.5772 1.18698 3.99124 0
M  V30 983 H 94.1742 -1.3277 5.17954 0
M  V30 984 H 94.5172 -2.04656 3.62521 0
M  V30 985 H 95.0502 -0.381038 3.95971 0
M  V30 986 H 91.7892 1.33481 6.41766 0
M  V30 987 H 91.3092 -0.323336 5.98928 0
M  V30 988 H 92.9882 0.0263105 6.46995 0
M  V30 989 N 93.1203 -1.57491 0.0584922 0
M  V30 990 C 94.3663 -1.93264 -0.614558 0
M  V30 991 C 94.6993 -0.937717 -1.7006 0
M  V30 992 O 93.9743 0.0351652 -1.94468 0
M  V30 993 C 94.2573 -3.3938 -1.20386 0
M  V30 994 C 94.1103 -4.49625 -0.125375 0
M  V30 995 C 95.4293 -3.86039 -2.11334 0
M  V30 996 H 92.5483 -0.702791 -0.221933 0
M  V30 997 H 95.1903 -1.8961 0.12175 0
M  V30 998 H 93.3403 -3.42626 -1.83139 0
M  V30 999 H 95.0123 -4.58506 0.506971 0
M  V30 1000 H 93.2553 -4.30354 0.545672 0
M  V30 1001 H 93.9263 -5.48967 -0.577861 0
M  V30 1002 H 96.4023 -3.84716 -1.58534 0
M  V30 1003 H 95.2783 -4.88914 -2.49507 0
M  V30 1004 H 95.5393 -3.23215 -3.01636 0
M  V30 1005 N 94.5984 0.214957 -1.56127 0
M  V30 1006 C 95.8384 0.945364 -1.81224 0
M  V30 1007 C 96.2024 1.81265 -0.633005 0
M  V30 1008 O 97.4034 2.57731 -0.763423 0
M  V30 1009 C 95.6744 1.75665 -3.1125 0
M  V30 1010 S 97.2334 2.54179 -3.57685 0
M  V30 1011 H 94.0514 0.317443 -0.6362 0
M  V30 1012 H 96.6534 0.210381 -1.94365 0
M  V30 1013 H 95.3574 1.10977 -3.9511 0
M  V30 1014 H 94.8884 2.53381 -3.00934 0
M  V30 1015 H 96.9034 3.7792 -3.21545 0
M  V30 1016 N 96.0765 1.50051 0.48192 0
M  V30 1017 C 97.3015 1.64508 1.26301 0
M  V30 1018 C 97.7265 0.323851 1.85291 0
M  V30 1019 O 97.0845 -0.710969 1.66778 0
M  V30 1020 C 97.1325 2.7305 2.35533 0
M  V30 1021 O 96.2365 2.3355 3.39895 0
M  V30 1022 H 95.5775 0.549978 0.372048 0
M  V30 1023 H 98.1075 1.9636 0.574786 0
M  V30 1024 H 98.1175 2.95799 2.8101 0
M  V30 1025 H 96.7925 3.68946 1.91967 0
M  V30 1026 H 95.3695 2.21205 3.00204 0
M  V30 1027 N 97.5546 -0.734337 1.39446 0
M  V30 1028 C 98.7826 -1.52358 1.39981 0
M  V30 1029 C 99.1976 -1.88799 -0.0054975 0
M  V30 1030 O 98.5546 -1.54146 -0.976998 0
M  V30 1031 C 98.6056 -2.81072 2.27333 0
M  V30 1032 O 98.3266 -2.46178 3.62392 0
M  V30 1033 C 99.8276 -3.75096 2.36259 0
M  V30 1034 H 97.0476 -0.470806 0.478103 0
M  V30 1035 H 99.5916 -0.907339 1.83269 0
M  V30 1036 H 97.7466 -3.39026 1.87457 0
M  V30 1037 H 98.1606 -3.28866 4.08592 0
M  V30 1038 H 99.6346 -4.62305 3.01626 0
M  V30 1039 H 100.112 -4.16892 1.38194 0
M  V30 1040 H 100.718 -3.23061 2.76608 0
M  V30 1041 N 99.0327 -1.24633 -0.964593 0
M  V30 1042 C 100.281 -1.08573 -1.70459 0
M  V30 1043 C 100.602 0.375655 -1.91347 0
M  V30 1044 O 99.8717 1.26779 -1.49345 0
M  V30 1045 H 98.4517 -0.398784 -0.631649 0
M  V30 1046 H 101.114 -1.56601 -1.16026 0
M  V30 1047 H 100.21 -1.58623 -2.68785 0
M  V30 1048 N 100.511 1.16574 -1.06058 0
M  V30 1049 C 101.76 1.86385 -0.770944 0
M  V30 1050 C 102.073 1.82448 0.705129 0
M  V30 1051 O 103.279 2.47815 1.10905 0
M  V30 1052 C 101.735 3.34466 -1.32893 0
M  V30 1053 C 101.343 3.46883 -2.83507 0
M  V30 1054 C 103.087 4.09548 -1.11672 0
M  V30 1055 C 100.994 4.89036 -3.32562 0
M  V30 1056 H 99.9238 0.698181 -0.284709 0
M  V30 1057 H 102.575 1.31583 -1.27899 0
M  V30 1058 H 100.957 3.88859 -0.748662 0
M  V30 1059 H 102.131 3.02663 -3.47465 0
M  V30 1060 H 100.446 2.85232 -3.03368 0
M  V30 1061 H 103.043 5.14434 -1.45814 0
M  V30 1062 H 103.386 4.16264 -0.0549535 0
M  V30 1063 H 103.919 3.61387 -1.66265 0
M  V30 1064 H 100.658 4.87499 -4.38207 0
M  V30 1065 H 100.178 5.3389 -2.73351 0
M  V30 1066 H 101.857 5.57843 -3.2775 0
M  V30 1067 N 101.989 0.842826 1.3317 0
M  V30 1068 C 103.237 0.439577 1.97262 0
M  V30 1069 C 103.558 -1.00548 1.67078 0
M  V30 1070 O 102.828 -1.70098 0.971779 0
M  V30 1071 H 101.408 0.159558 0.72976 0
M  V30 1072 H 104.07 1.07665 1.62463 0
M  V30 1073 H 103.166 0.574886 3.0676 0
M  V30 1074 N 103.467 -1.45747 0.599634 0
M  V30 1075 C 104.715 -2.01893 0.0915472 0
M  V30 1076 C 105.036 -1.47155 -1.27946 0
M  V30 1077 O 104.306 -0.66273 -1.84349 0
M  V30 1078 H 102.886 -0.746363 0.0308524 0
M  V30 1079 H 105.548 -1.78645 0.779237 0
M  V30 1080 H 104.644 -3.1208 0.0353086 0
M  V30 1081 N 104.945 -0.338344 -1.53925 0
M  V30 1082 C 106.356 0.146651 -1.86123 0
M  V30 1083 C 106.707 1.5042 -1.2597 0
M  V30 1084 O 105.832 2.08723 -0.571294 0
M  V30 1085 C 106.427 0.272879 -3.37699 0
M  V30 1086 C 104.986 0.702103 -3.69794 0
M  V30 1087 C 104.133 -0.167304 -2.76795 0
M  V30 1088 H 107.084 -0.558123 -1.48562 0
M  V30 1089 H 107.105 1.10128 -3.64214 0
M  V30 1090 H 106.617 -0.715307 -3.81451 0
M  V30 1091 H 104.718 1.6995 -3.31584 0
M  V30 1092 H 104.831 0.495604 -4.7653 0
M  V30 1093 H 103.195 0.359527 -2.5215 0
M  V30 1094 H 103.978 -1.15253 -3.23375 0
M  V30 1095 N 106.423 1.57458 -0.0668435 0
M  V30 1096 C 107.648 1.9804 0.616027 0
M  V30 1097 C 108.073 0.944771 1.62652 0
M  V30 1098 O 107.431 -0.0902094 1.81075 0
M  V30 1099 C 107.479 3.37665 1.26549 0
M  V30 1100 O 106.583 3.36701 2.38131 0
M  V30 1101 H 105.924 0.644719 0.158849 0
M  V30 1102 H 108.454 2.04121 -0.139891 0
M  V30 1103 H 108.464 3.7474 1.6135 0
M  V30 1104 H 107.139 4.12573 0.525016 0
M  V30 1105 H 105.716 3.1139 2.0516 0
M  V30 1106 N 107.901 -0.206675 1.56239 0
M  V30 1107 C 109.129 -0.945345 1.8404 0
M  V30 1108 C 109.544 -1.77336 0.647885 0
M  V30 1109 O 108.901 -1.78425 -0.383511 0
M  V30 1110 C 108.952 -1.8509 3.10522 0
M  V30 1111 O 108.673 -1.05634 4.25174 0
M  V30 1112 C 110.174 -2.70222 3.51418 0
M  V30 1113 H 107.394 -0.276372 0.61144 0
M  V30 1114 H 109.938 -0.217417 2.03341 0
M  V30 1115 H 108.093 -2.53259 2.93153 0
M  V30 1116 H 108.507 -1.67238 4.97124 0
M  V30 1117 H 109.981 -3.29438 4.42916 0
M  V30 1118 H 110.458 -3.43358 2.73864 0
M  V30 1119 H 111.064 -2.07443 3.71278 0
M  V30 1120 N 109.379 -1.50304 -0.473955 0
M  V30 1121 C 110.604 -1.65175 -1.25427 0
M  V30 1122 C 111.029 -0.333673 -1.85117 0
M  V30 1123 O 110.387 0.702114 -1.67153 0
M  V30 1124 C 110.435 -2.74295 -2.34082 0
M  V30 1125 O 109.539 -2.35349 -3.38651 0
M  V30 1126 H 108.88 -0.551944 -0.369126 0
M  V30 1127 H 111.41 -1.96662 -0.564364 0
M  V30 1128 H 111.42 -2.97285 -2.79438 0
M  V30 1129 H 110.095 -3.69959 -1.90008 0
M  V30 1130 H 108.672 -2.22794 -2.99027 0
M  V30 1131 N 110.857 0.726932 -1.39834 0
M  V30 1132 C 112.106 1.48214 -1.36805 0
M  V30 1133 C 112.419 1.95576 0.0305291 0
M  V30 1134 O 113.625 2.7088 0.183417 0
M  V30 1135 C 112.081 2.67854 -2.40379 0
M  V30 1136 C 111.689 2.27408 -3.85992 0
M  V30 1137 C 113.433 3.45641 -2.46439 0
M  V30 1138 C 111.34 3.43819 -4.81189 0
M  V30 1139 H 110.27 0.556606 -0.508631 0
M  V30 1140 H 112.921 0.792216 -1.65518 0
M  V30 1141 H 111.303 3.3896 -2.04749 0
M  V30 1142 H 112.477 1.63795 -4.30706 0
M  V30 1143 H 110.792 1.62692 -3.83302 0
M  V30 1144 H 113.389 4.32244 -3.14753 0
M  V30 1145 H 113.732 3.88669 -1.49139 0
M  V30 1146 H 114.265 2.8157 -2.81004 0
M  V30 1147 H 111.004 3.05834 -5.79781 0
M  V30 1148 H 110.524 4.06385 -4.41148 0
M  V30 1149 H 112.203 4.10043 -5.00474 0
M  V30 1150 N 112.336 1.25143 0.95797 0
M  V30 1151 C 113.299 1.05321 2.03569 0
M  V30 1152 C 114.299 0.007152 1.60798 0
M  V30 1153 O 115.489 0.24903 1.72411 0
M  V30 1154 C 112.621 0.598394 3.35607 0
M  V30 1155 H 113.814 2.00986 2.22586 0
M  V30 1156 H 111.367 1.07502 1.13459 0
M  V30 1157 H 112.102 -0.361014 3.22284 0
M  V30 1158 H 111.887 1.35351 3.67998 0
M  V30 1159 H 113.377 0.48104 4.1482 0
M  V30 1160 N 113.814 -1.1601 1.06675 0
M  V30 1161 C 115.06 -1.86909 0.786945 0
M  V30 1162 C 115.393 -1.81717 -0.685018 0
M  V30 1163 O 114.668 -1.23551 -1.50218 0
M  V30 1164 C 114.951 -3.36313 1.28707 0
M  V30 1165 C 114.804 -3.50175 2.82308 0
M  V30 1166 C 116.123 -4.3084 0.898071 0
M  V30 1167 H 113.242 -0.678677 0.287343 0
M  V30 1168 H 115.884 -1.36336 1.32334 0
M  V30 1169 H 114.034 -3.79513 0.830768 0
M  V30 1170 H 115.706 -3.15886 3.36175 0
M  V30 1171 H 113.949 -2.91959 3.20847 0
M  V30 1172 H 114.62 -4.55116 3.12368 0
M  V30 1173 H 117.096 -3.95561 1.29114 0
M  V30 1174 H 115.972 -5.33876 1.27543 0
M  V30 1175 H 116.233 -4.41662 -0.196651 0
M  V30 1176 N 115.292 -0.849877 -1.32721 0
M  V30 1177 C 116.202 -0.293791 -2.32753 0
M  V30 1178 C 117.218 0.585906 -1.63839 0
M  V30 1179 O 118.394 0.487413 -1.95413 0
M  V30 1180 C 115.459 0.512752 -3.42887 0
M  V30 1181 C 114.52 -0.39252 -4.27502 0
M  V30 1182 C 113.753 0.375625 -5.32377 0
M  V30 1183 O 113.976 1.60613 -5.4732 0
M  V30 1184 O 112.91 -0.256094 -6.01355 0
M  V30 1185 H 116.736 -1.12242 -2.82197 0
M  V30 1186 H 114.321 -0.612685 -1.36259 0
M  V30 1187 H 116.203 0.970704 -4.10067 0
M  V30 1188 H 114.878 1.31826 -2.95641 0
M  V30 1189 H 113.785 -0.898547 -3.63149 0
M  V30 1190 H 115.118 -1.16309 -4.7826 0
M  V30 1191 N 116.77 1.45427 -0.607355 0
M  V30 1192 C 117.68 2.34325 0.113463 0
M  V30 1193 C 118.696 1.51226 0.860617 0
M  V30 1194 O 119.872 1.84029 0.818255 0
M  V30 1195 C 116.937 3.28839 1.09844 0
M  V30 1196 C 115.998 4.27844 0.353271 0
M  V30 1197 C 115.231 5.17842 1.29133 0
M  V30 1198 O 115.454 5.11264 2.52913 0
M  V30 1199 O 114.388 5.96713 0.788523 0
M  V30 1200 H 118.214 2.97364 -0.617094 0
M  V30 1201 H 115.799 1.44807 -0.367619 0
M  V30 1202 H 117.681 3.8708 1.66575 0
M  V30 1203 H 116.356 2.68365 1.81003 0
M  V30 1204 H 115.263 3.7322 -0.256494 0
M  V30 1205 H 116.596 4.91173 -0.317822 0
M  V30 1206 N 118.248 0.346503 1.53744 0
M  V30 1207 C 119.178 -0.501193 2.28058 0
M  V30 1208 C 120.159 -1.10014 1.29734 0
M  V30 1209 O 121.344 -1.12097 1.58581 0
M  V30 1210 C 118.474 -1.65078 3.05559 0
M  V30 1211 C 117.428 -1.18003 4.11411 0
M  V30 1212 C 116.754 -2.41837 4.76884 0
M  V30 1213 C 118.054 -0.278394 5.21558 0
M  V30 1214 H 119.748 0.11875 2.99164 0
M  V30 1215 H 117.294 0.0585531 1.43881 0
M  V30 1216 H 119.247 -2.25028 3.56287 0
M  V30 1217 H 117.971 -2.29767 2.32109 0
M  V30 1218 H 116.63 -0.603331 3.61601 0
M  V30 1219 H 116.278 -3.0494 4.00026 0
M  V30 1220 H 115.978 -2.1102 5.48402 0
M  V30 1221 H 117.502 -3.02508 5.30397 0
M  V30 1222 H 118.916 -0.784823 5.67903 0
M  V30 1223 H 117.313 -0.0619707 6.00068 0
M  V30 1224 H 118.383 0.684677 4.80042 0
M  V30 1225 N 119.726 -1.57421 0.075193 0
M  V30 1226 C 120.689 -2.11791 -0.876203 0
M  V30 1227 C 121.689 -1.04268 -1.22412 0
M  V30 1228 O 122.879 -1.30242 -1.15684 0
M  V30 1229 C 120.011 -2.62207 -2.17854 0
M  V30 1230 H 121.204 -2.9716 -0.40444 0
M  V30 1231 H 118.757 -1.55333 -0.173557 0
M  V30 1232 H 119.492 -1.803 -2.6956 0
M  V30 1233 H 119.277 -3.40802 -1.93897 0
M  V30 1234 H 120.767 -3.04335 -2.85955 0
M  V30 1235 N 121.204 0.198386 -1.56346 0
M  V30 1236 C 122.136 1.26987 -1.90806 0
M  V30 1237 C 123.149 1.41877 -0.798419 0
M  V30 1238 O 124.338 1.42362 -1.07682 0
M  V30 1239 C 121.438 2.64246 -2.12196 0
M  V30 1240 C 120.611 2.71007 -3.43328 0
M  V30 1241 C 119.67 3.89439 -3.5387 0
M  V30 1242 O 118.696 3.76695 -4.26719 0
M  V30 1243 N 119.898 5.04752 -2.86715 0
M  V30 1244 H 122.663 0.977433 -2.83313 0
M  V30 1245 H 120.224 0.388322 -1.57174 0
M  V30 1246 H 122.216 3.41896 -2.1654 0
M  V30 1247 H 120.786 2.85992 -1.26204 0
M  V30 1248 H 120.006 1.79657 -3.50881 0
M  V30 1249 H 121.294 2.72512 -4.29668 0
M  V30 1250 H 120.692 5.18004 -2.2735 0
M  V30 1251 H 119.249 5.8036 -2.96691 0
M  V30 1252 N 122.682 1.50554 0.465978 0
M  V30 1253 C 123.612 1.72722 1.57128 0
M  V30 1254 C 124.593 0.576294 1.6004 0
M  V30 1255 O 125.778 0.81598 1.76225 0
M  V30 1256 C 122.908 1.82605 2.95419 0
M  V30 1257 C 121.862 2.97835 3.07373 0
M  V30 1258 C 121.188 2.92867 4.47363 0
M  V30 1259 C 122.488 4.38265 2.84114 0
M  V30 1260 H 124.182 2.65267 1.38829 0
M  V30 1261 H 121.728 1.2765 0.666441 0
M  V30 1262 H 123.681 1.96698 3.72677 0
M  V30 1263 H 122.405 0.866858 3.14886 0
M  V30 1264 H 121.064 2.83401 2.3255 0
M  V30 1265 H 120.712 1.94783 4.63755 0
M  V30 1266 H 120.412 3.70227 4.56296 0
M  V30 1267 H 121.936 3.09015 5.26633 0
M  V30 1268 H 123.35 4.53198 3.51118 0
M  V30 1269 H 121.747 5.17115 3.04487 0
M  V30 1270 H 122.817 4.50281 1.7993 0
M  V30 1271 N 124.16 -0.719506 1.40217 0
M  V30 1272 C 125.408 -1.47641 1.3801 0
M  V30 1273 C 125.729 -1.94992 -0.018145 0
M  V30 1274 O 124.999 -1.70073 -0.972207 0
M  V30 1275 H 123.579 -0.547744 0.507923 0
M  V30 1276 H 126.241 -0.853187 1.75233 0
M  V30 1277 H 125.337 -2.35112 2.05253 0
M  V30 1278 N 125.638 -1.25649 -0.95132 0
M  V30 1279 C 126.887 -1.09988 -1.69073 0
M  V30 1280 C 127.2 0.358355 -1.92289 0
M  V30 1281 O 128.406 0.635466 -2.63958 0
M  V30 1282 C 126.862 -1.92012 -3.044 0
M  V30 1283 C 126.47 -3.42347 -2.88968 0
M  V30 1284 C 128.214 -1.8493 -3.82101 0
M  V30 1285 C 126.121 -4.16655 -4.19705 0
M  V30 1286 H 125.051 -0.407993 -0.63408 0
M  V30 1287 H 127.702 -1.49873 -1.05879 0
M  V30 1288 H 126.084 -1.44952 -3.68517 0
M  V30 1289 H 127.258 -3.97104 -2.33762 0
M  V30 1290 H 125.573 -3.50557 -2.24719 0
M  V30 1291 H 128.17 -2.37739 -4.78941 0
M  V30 1292 H 128.513 -0.817883 -4.08187 0
M  V30 1293 H 129.046 -2.29758 -3.2474 0
M  V30 1294 H 125.785 -5.20224 -3.98807 0
M  V30 1295 H 125.305 -3.66681 -4.74663 0
M  V30 1296 H 126.984 -4.24551 -4.88227 0
M  V30 1297 N 127.117 1.15442 -1.07289 0
M  V30 1298 C 128.533 1.38201 -0.798288 0
M  V30 1299 C 128.733 1.92429 0.597769 0
M  V30 1300 O 127.789 2.12962 1.3566 0
M  V30 1301 C 129.102 2.35357 -1.87156 0
M  V30 1302 C 130.65 2.49021 -1.89624 0
M  V30 1303 C 131.125 3.49468 -2.96034 0
M  V30 1304 N 132.616 3.57003 -2.95132 0
M  V30 1305 C 133.351 4.34543 -3.74112 0
M  V30 1306 N 132.847 5.15421 -4.6294 0
M  V30 1307 N 134.64 4.29625 -3.62462 0
M  V30 1308 H 126.791 0.78584 -1.97328 0
M  V30 1309 H 129.054 0.408065 -0.855679 0
M  V30 1310 H 128.76 2.02626 -2.87464 0
M  V30 1311 H 128.634 3.35129 -1.73114 0
M  V30 1312 H 131.021 2.81051 -0.899687 0
M  V30 1313 H 131.102 1.4925 -2.07745 0
M  V30 1314 H 130.746 3.18173 -3.95889 0
M  V30 1315 H 130.676 4.48992 -2.75161 0
M  V30 1316 H 133.167 2.99276 -2.30743 0
M  V30 1317 H 133.48 5.7183 -5.19837 0
M  V30 1318 H 131.825 5.14729 -4.66989 0
M  V30 1319 H 135.016 3.65505 -2.92444 0
M  V30 1320 H 135.189 4.89807 -4.24256 0
M  V30 1321 N 128.595 0.856903 1.32268 0
M  V30 1322 C 129.823 0.475439 2.01363 0
M  V30 1323 C 130.238 -0.928486 1.64392 0
M  V30 1324 O 129.595 -1.60624 0.866387 0
M  V30 1325 C 129.646 0.607545 3.56358 0
M  V30 1326 O 129.367 1.95617 3.92002 0
M  V30 1327 C 130.868 0.225382 4.42727 0
M  V30 1328 H 128.088 0.186636 0.644521 0
M  V30 1329 H 130.632 1.15446 1.68797 0
M  V30 1330 H 128.787 -0.0237719 3.87393 0
M  V30 1331 H 129.201 1.95455 4.86721 0
M  V30 1332 H 130.675 0.368813 5.50767 0
M  V30 1333 H 131.152 -0.834369 4.31202 0
M  V30 1334 H 131.758 0.831864 4.17085 0
M  V30 1335 N 130.073 -1.45103 0.615059 0
M  V30 1336 C 131.32 -2.02183 0.113179 0
M  V30 1337 C 131.648 -1.48249 -1.25906 0
M  V30 1338 O 130.903 -0.650265 -1.84581 0
M  V30 1339 C 131.202 -3.57386 0.0318797 0
M  V30 1340 C 130.868 -4.30505 1.34077 0
M  V30 1341 C 129.53 -4.50197 1.69929 0
M  V30 1342 C 131.882 -4.72238 2.20546 0
M  V30 1343 C 129.21 -5.08881 2.91988 0
M  V30 1344 C 131.562 -5.32272 3.41861 0
M  V30 1345 C 130.226 -5.50187 3.77956 0
M  V30 1346 H 129.496 -0.739842 0.0414151 0
M  V30 1347 H 132.143 -1.74073 0.798168 0
M  V30 1348 H 130.448 -3.84817 -0.736409 0
M  V30 1349 H 132.145 -3.99264 -0.372712 0
M  V30 1350 H 128.735 -4.15496 1.05173 0
M  V30 1351 H 132.919 -4.56751 1.94146 0
M  V30 1352 H 128.175 -5.20939 3.2005 0
M  V30 1353 H 132.349 -5.63563 4.09109 0
M  V30 1354 H 129.976 -5.95427 4.72622 0
M  V30 1355 N 131.551 -0.354651 -1.53558 0
M  V30 1356 C 132.481 0.489091 -2.2832 0
M  V30 1357 C 133.462 1.09324 -1.30316 0
M  V30 1358 O 134.647 1.11255 -1.59173 0
M  V30 1359 C 131.777 1.63456 -3.0643 0
M  V30 1360 C 130.731 1.1582 -4.12031 0
M  V30 1361 C 130.057 2.39305 -4.7816 0
M  V30 1362 C 131.357 0.250731 -5.21698 0
M  V30 1363 H 133.051 -0.134614 -2.99097 0
M  V30 1364 H 130.597 -0.0661826 -1.43848 0
M  V30 1365 H 132.55 2.23136 -3.57475 0
M  V30 1366 H 131.274 2.28533 -2.33325 0
M  V30 1367 H 129.933 0.584146 -3.61916 0
M  V30 1368 H 129.581 3.02814 -4.01637 0
M  V30 1369 H 129.281 2.08109 -5.49513 0
M  V30 1370 H 130.805 2.99691 -5.31994 0
M  V30 1371 H 132.219 0.754695 -5.68311 0
M  V30 1372 H 130.616 0.0301468 -6.00092 0
M  V30 1373 H 131.686 -0.710125 -4.79672 0
M  V30 1374 N 133.029 1.57378 -0.0835403 0
M  V30 1375 C 134.445 1.57246 0.273109 0
M  V30 1376 C 134.645 1.09385 1.69225 0
M  V30 1377 O 133.701 0.765051 2.40631 0
M  V30 1378 C 135.014 3.00614 0.0720628 0
M  V30 1379 C 136.562 3.12684 0.1407 0
M  V30 1380 C 137.037 4.57989 -0.0322094 0
M  V30 1381 N 138.528 4.63194 0.0230085 0
M  V30 1382 C 139.263 5.73335 -0.0861941 0
M  V30 1383 N 138.759 6.9235 -0.24958 0
M  V30 1384 N 140.552 5.62093 -0.0282886 0
M  V30 1385 H 132.703 1.86801 -1.0109 0
M  V30 1386 H 134.966 0.861687 -0.395222 0
M  V30 1387 H 134.672 3.39786 -0.907662 0
M  V30 1388 H 134.546 3.68193 0.81936 0
M  V30 1389 H 136.933 2.73391 1.11092 0
M  V30 1390 H 137.014 2.47719 -0.637896 0
M  V30 1391 H 136.658 4.97973 -0.999247 0
M  V30 1392 H 136.588 5.21 0.765937 0
M  V30 1393 H 139.079 3.77613 0.14722 0
M  V30 1394 H 139.392 7.72117 -0.324733 0
M  V30 1395 H 137.737 6.94415 -0.285097 0
M  V30 1396 H 140.928 4.67997 0.0981408 0
M  V30 1397 H 141.101 6.47895 -0.116845 0
M  V30 1398 N 134.507 -0.190092 1.56449 0
M  V30 1399 C 135.756 -0.907912 1.80111 0
M  V30 1400 C 136.069 -1.84214 0.657619 0
M  V30 1401 O 137.275 -2.60094 0.778663 0
M  V30 1402 C 135.731 -1.66485 3.19078 0
M  V30 1403 C 135.339 -0.7752 4.41242 0
M  V30 1404 C 137.083 -2.37201 3.52045 0
M  V30 1405 C 134.99 -1.53129 5.71231 0
M  V30 1406 H 133.92 -0.34276 0.671589 0
M  V30 1407 H 136.571 -0.161109 1.82791 0
M  V30 1408 H 134.953 -2.45572 3.10661 0
M  V30 1409 H 136.127 -0.0226298 4.60794 0
M  V30 1410 H 134.442 -0.178627 4.16017 0
M  V30 1411 H 137.039 -2.94329 4.46402 0
M  V30 1412 H 137.382 -3.11632 2.76028 0
M  V30 1413 H 137.915 -1.65075 3.61932 0
M  V30 1414 H 134.654 -0.82967 6.50228 0
M  V30 1415 H 134.174 -2.25767 5.55688 0
M  V30 1416 H 135.853 -2.08377 6.12526 0
M  V30 1417 N 135.985 -1.50799 -0.457987 0
M  V30 1418 C 137.233 -1.62121 -1.2067 0
M  V30 1419 C 137.554 -0.329793 -1.92191 0
M  V30 1420 O 136.824 0.653409 -1.84682 0
M  V30 1421 H 135.404 -0.597441 -0.448411 0
M  V30 1422 H 138.066 -1.87637 -0.527096 0
M  V30 1423 H 137.162 -2.43882 -1.94751 0
M  V30 1424 N 137.463 0.71206 -1.40597 0
M  V30 1425 C 138.691 1.50111 -1.42388 0
M  V30 1426 C 139.106 1.88784 -0.0245395 0
M  V30 1427 O 138.463 1.55681 0.952351 0
M  V30 1428 C 138.514 2.7742 -2.31776 0
M  V30 1429 O 138.235 2.40382 -3.66262 0
M  V30 1430 C 139.736 3.7129 -2.42196 0
M  V30 1431 H 136.956 0.46314 -0.485533 0
M  V30 1432 H 139.5 0.878068 -1.8469 0
M  V30 1433 H 137.655 3.36001 -1.92827 0
M  V30 1434 H 138.069 3.22324 -4.13772 0
M  V30 1435 H 139.543 4.57448 -3.08943 0
M  V30 1436 H 140.02 4.14641 -1.44809 0
M  V30 1437 H 140.626 3.18619 -2.81712 0
M  V30 1438 N 138.941 1.26152 0.944643 0
M  V30 1439 C 140.169 1.14259 1.72489 0
M  V30 1440 C 140.584 -0.302555 1.8636 0
M  V30 1441 O 139.941 -1.20741 1.36849 0
M  V30 1442 C 139.992 1.80266 3.13347 0
M  V30 1443 O 139.713 3.19133 3.00143 0
M  V30 1444 C 141.214 1.74283 4.07603 0
M  V30 1445 H 138.434 0.398051 0.540181 0
M  V30 1446 H 140.978 1.66706 1.18446 0
M  V30 1447 H 139.133 1.31766 3.64303 0
M  V30 1448 H 139.547 3.51744 3.89071 0
M  V30 1449 H 141.021 2.25111 5.04013 0
M  V30 1450 H 141.498 0.708631 4.33446 0
M  V30 1451 H 142.104 2.22319 3.62567 0
M  V30 1452 N 140.419 -1.14872 1.07899 0
M  V30 1453 C 141.667 -1.85422 0.803941 0
M  V30 1454 C 141.988 -1.83051 -0.67211 0
M  V30 1455 O 141.258 -1.27532 -1.48703 0
M  V30 1456 H 139.838 -0.686537 0.294408 0
M  V30 1457 H 142.5 -1.39226 1.3639 0
M  V30 1458 H 141.596 -2.90399 1.14346 0
M  V30 1459 N 141.898 -0.863906 -1.31812 0
M  V30 1460 C 142.861 -0.320212 -2.26952 0
M  V30 1461 C 143.861 0.525369 -1.51975 0
M  V30 1462 O 145.051 0.335547 -1.70938 0
M  V30 1463 C 142.183 0.545919 -3.365 0
M  V30 1464 H 143.376 -1.16004 -2.76556 0
M  V30 1465 H 140.929 -0.638995 -1.42641 0
M  V30 1466 H 141.664 1.40718 -2.92179 0
M  V30 1467 H 141.449 -0.0594674 -3.92055 0
M  V30 1468 H 142.939 0.918796 -4.07367 0
M  V30 1469 N 143.376 1.44774 -0.622745 0
M  V30 1470 C 144.625 2.01334 -0.121397 0
M  V30 1471 C 144.938 1.49505 1.26125 0
M  V30 1472 O 146.144 1.98139 1.85616 0
M  V30 1473 C 144.6 3.59516 -0.166298 0
M  V30 1474 C 144.208 4.20342 -1.54974 0
M  V30 1475 C 145.952 4.23582 0.279021 0
M  V30 1476 C 143.859 5.70721 -1.55021 0
M  V30 1477 H 142.789 0.752851 -0.0416172 0
M  V30 1478 H 145.44 1.66083 -0.780309 0
M  V30 1479 H 143.822 3.92027 0.559557 0
M  V30 1480 H 144.996 3.99381 -2.29851 0
M  V30 1481 H 143.311 3.68529 -1.93843 0
M  V30 1482 H 145.908 5.33868 0.298083 0
M  V30 1483 H 146.251 3.95327 1.30471 0
M  V30 1484 H 146.784 3.95843 -0.394063 0
M  V30 1485 H 143.523 6.03698 -2.55399 0
M  V30 1486 H 143.043 5.93829 -0.844245 0
M  V30 1487 H 144.722 6.34203 -1.28047 0
M  V30 1488 N 144.854 0.36279 1.53368 0
M  V30 1489 C 145.786 -0.519668 2.23231 0
M  V30 1490 C 146.799 -1.04844 1.24546 0
M  V30 1491 O 147.988 -0.955296 1.50786 0
M  V30 1492 C 145.088 -1.72995 2.9142 0
M  V30 1493 C 144.261 -1.33316 4.16588 0
M  V30 1494 C 143.32 -2.40521 4.68013 0
M  V30 1495 O 142.346 -2.03027 5.3176 0
M  V30 1496 N 143.548 -3.72065 4.45587 0
M  V30 1497 H 146.313 0.078751 2.99597 0
M  V30 1498 H 143.874 0.187833 1.60807 0
M  V30 1499 H 145.866 -2.44184 3.22733 0
M  V30 1500 H 144.436 -2.2353 2.18525 0
M  V30 1501 H 143.656 -0.451236 3.91609 0
M  V30 1502 H 144.944 -1.04432 4.97967 0
M  V30 1503 H 144.342 -4.05304 3.94646 0
M  V30 1504 H 142.899 -4.39366 4.81457 0
M  V30 1505 N 146.332 -1.57332 0.0918853 0
M  V30 1506 C 147.743 -1.81496 -0.437739 0
M  V30 1507 C 148.094 -1.00727 -1.6837 0
M  V30 1508 O 147.219 -0.235694 -2.15113 0
M  V30 1509 C 147.814 -3.29197 -0.800939 0
M  V30 1510 C 146.373 -3.54136 -1.27532 0
M  V30 1511 C 145.52 -2.75979 -0.270392 0
M  V30 1512 H 148.471 -1.55494 0.317366 0
M  V30 1513 H 148.492 -3.42344 -1.66074 0
M  V30 1514 H 148.004 -3.87955 0.106078 0
M  V30 1515 H 146.105 -3.00705 -2.20016 0
M  V30 1516 H 146.218 -4.62792 -1.23938 0
M  V30 1517 H 144.582 -2.43349 -0.751872 0
M  V30 1518 H 145.365 -3.37484 0.629248 0
M  V30 1519 N 147.81 0.181792 -1.56548 0
M  V30 1520 C 148.76 1.22961 -1.92002 0
M  V30 1521 C 149.744 1.40331 -0.787146 0
M  V30 1522 O 150.936 1.42478 -1.05019 0
M  V30 1523 C 148.065 2.57144 -2.27446 0
M  V30 1524 C 147.151 2.43512 -3.47222 0
M  V30 1525 N 147.542 1.99577 -4.64761 0
M  V30 1526 C 145.84 2.74368 -3.51622 0
M  V30 1527 C 146.541 1.98156 -5.46909 0
M  V30 1528 N 145.517 2.40164 -4.8767 0
M  V30 1529 H 149.319 0.881462 -2.8037 0
M  V30 1530 H 146.833 0.390141 -1.57644 0
M  V30 1531 H 148.83 3.32847 -2.51035 0
M  V30 1532 H 147.49 2.92771 -1.40411 0
M  V30 1533 H 148.501 1.70078 -4.89177 0
M  V30 1534 H 145.178 3.14102 -2.75038 0
M  V30 1535 H 146.568 1.65975 -6.51077 0
M  V30 1536 N 149.288 1.51039 0.449983 0
M  V30 1537 C 150.537 1.62317 1.19733 0
M  V30 1538 C 150.85 0.339101 1.92638 0
M  V30 1539 O 152.056 0.331069 2.69474 0
M  V30 1540 C 150.512 2.86608 2.17678 0
M  V30 1541 C 150.12 4.21972 1.50479 0
M  V30 1542 C 151.864 3.07239 2.92924 0
M  V30 1543 C 149.771 5.37426 2.46834 0
M  V30 1544 H 148.701 0.604532 0.450619 0
M  V30 1545 H 151.352 1.77494 0.465625 0
M  V30 1546 H 149.734 2.65037 2.94231 0
M  V30 1547 H 150.908 4.53878 0.795716 0
M  V30 1548 H 149.223 4.07117 0.874344 0
M  V30 1549 H 151.82 3.90668 3.65079 0
M  V30 1550 H 152.163 2.19807 3.5354 0
M  V30 1551 H 152.696 3.29091 2.23481 0
M  V30 1552 H 149.435 6.27079 1.90926 0
M  V30 1553 H 148.955 5.09912 3.15832 0
M  V30 1554 H 150.634 5.68862 3.08228 0
M  V30 1555 N 150.766 -0.704594 1.40972 0
M  V30 1556 C 151.714 -1.83994 1.42299 0
M  V30 1557 C 152.708 -1.66684 0.302111 0
M  V30 1558 O 153.914 -1.73655 0.473697 0
M  V30 1559 H 150.289 -0.606171 0.44504 0
M  V30 1560 H 152.26 -1.79992 2.38003 0
M  V30 1561 C 151.009 -3.21946 1.31323 0
M  V30 1562 H 150.332 -3.35878 2.16855 0
M  V30 1563 H 151.772 -4.01491 1.36311 0
M  V30 1564 C 150.231 -3.36891 0.0245977 0
M  V30 1565 O 150.761 -3.90687 -0.934153 0
M  V30 1566 N 148.967 -2.90559 -0.0485243 0
M  V30 1567 H 148.514 -2.46968 0.732419 0
M  V30 1568 H 148.472 -3.00937 -0.910171 0
M  V30 1569 N 152.244 -1.26651 -0.937939 0
M  V30 1570 C 153.49 -1.12553 -1.687 0
M  V30 1571 C 153.823 0.329782 -1.91379 0
M  V30 1572 O 153.098 1.24202 -1.4968 0
M  V30 1573 C 153.381 -1.89862 -3.05981 0
M  V30 1574 C 153.234 -3.43318 -2.90607 0
M  V30 1575 C 154.553 -1.69499 -4.0615 0
M  V30 1576 H 151.672 -0.410257 -0.612257 0
M  V30 1577 H 154.314 -1.55685 -1.08913 0
M  V30 1578 H 152.464 -1.53204 -3.57017 0
M  V30 1579 H 154.136 -3.89747 -2.46769 0
M  V30 1580 H 152.379 -3.70179 -2.26164 0
M  V30 1581 H 153.05 -3.92642 -3.8799 0
M  V30 1582 H 155.526 -2.01442 -3.64088 0
M  V30 1583 H 154.402 -2.26002 -5.00214 0
M  V30 1584 H 154.663 -0.640365 -4.37438 0
M  V30 1585 N 153.722 1.14298 -1.08507 0
M  V30 1586 C 154.97 1.84993 -0.813763 0
M  V30 1587 C 155.291 1.83405 0.662393 0
M  V30 1588 O 154.561 1.28319 1.48024 0
M  V30 1589 H 153.141 0.684966 -0.298045 0
M  V30 1590 H 155.803 1.385 -1.37126 0
M  V30 1591 H 154.899 2.89788 -1.15884 0
M  V30 1592 N 155.201 0.870884 1.31352 0
M  V30 1593 C 156.478 0.402907 1.91405 0
M  V30 1594 C 156.858 -1.11512 1.79244 0
M  V30 1595 O 156.206 -1.94411 1.2007 0
M  V30 1596 C 156.416 0.885301 3.37585 0
M  V30 1597 C 157.764 0.911971 4.14691 0
M  V30 1598 O 158.788 0.831016 3.46371 0
M  V30 1599 O 157.647 1.02927 5.3672 0
M  V30 1600 H 154.741 0.120698 0.818145 0
M  V30 1601 H 157.287 0.958857 1.40014 0
M  V30 1602 H 156.059 1.92889 3.40455 0
M  V30 1603 H 155.682 0.307714 3.96407 0
M  V30 1604 N 156.679 -1.44442 0.630414 0
M  V30 1605 C 157.925 -2.02351 0.134816 0
M  V30 1606 C 158.258 -1.4947 -1.23986 0
M  V30 1607 O 157.533 -0.678475 -1.82283 0
M  V30 1608 C 157.816 -3.59898 0.120707 0
M  V30 1609 C 157.669 -4.23063 1.52767 0
M  V30 1610 C 158.988 -4.36585 -0.555127 0
M  V30 1611 H 156.107 -0.73527 0.0504646 0
M  V30 1612 H 158.749 -1.72022 0.806751 0
M  V30 1613 H 156.899 -3.85868 -0.451477 0
M  V30 1614 H 158.571 -4.08202 2.14869 0
M  V30 1615 H 156.814 -3.80586 2.08175 0
M  V30 1616 H 157.485 -5.32071 1.46984 0
M  V30 1617 H 159.961 -4.16044 -0.0685429 0
M  V30 1618 H 158.837 -5.46294 -0.534185 0
M  V30 1619 H 159.098 -4.11138 -1.62535 0
M  V30 1620 N 158.157 -0.370918 -1.53173 0
M  V30 1621 C 159.087 0.464847 -2.28826 0
M  V30 1622 C 160.068 1.07936 -1.31468 0
M  V30 1623 O 161.253 1.0956 -1.60344 0
M  V30 1624 C 158.383 1.60196 -3.08147 0
M  V30 1625 C 157.337 1.11443 -4.13237 0
M  V30 1626 C 156.663 2.3422 -4.80672 0
M  V30 1627 C 157.963 0.195384 -5.21934 0
M  V30 1628 H 159.657 -0.166329 -2.98938 0
M  V30 1629 H 157.203 -0.0814359 -1.4377 0
M  V30 1630 H 159.156 2.19332 -3.59822 0
M  V30 1631 H 157.88 2.26045 -2.35735 0
M  V30 1632 H 156.539 0.545727 -3.62515 0
M  V30 1633 H 156.187 2.98537 -4.04827 0
M  V30 1634 H 155.887 2.02269 -5.51689 0
M  V30 1635 H 157.411 2.94032 -5.35143 0
M  V30 1636 H 158.825 0.694375 -5.69079 0
M  V30 1637 H 157.222 -0.0335027 -6.00091 0
M  V30 1638 H 158.292 -0.760961 -4.78892 0
M  V30 1639 N 159.635 1.57281 -0.100228 0
M  V30 1640 C 160.881 1.94826 0.563101 0
M  V30 1641 C 161.214 0.982475 1.67514 0
M  V30 1642 O 160.489 0.0164069 1.94493 0
M  V30 1643 C 160.772 3.42453 1.11346 0
M  V30 1644 C 160.625 4.498 0.00612081 0
M  V30 1645 C 161.944 3.91506 2.01024 0
M  V30 1646 H 159.063 0.708428 0.203221 0
M  V30 1647 H 161.705 1.8922 -0.171979 0
M  V30 1648 H 159.855 3.47361 1.7399 0
M  V30 1649 H 161.527 4.57 -0.628357 0
M  V30 1650 H 159.77 4.28756 -0.659581 0
M  V30 1651 H 160.441 5.50306 0.432109 0
M  V30 1652 H 162.917 3.88784 1.48278 0
M  V30 1653 H 161.793 4.95358 2.36457 0
M  V30 1654 H 162.054 3.31099 2.92961 0
M  V30 1655 N 161.113 -0.173488 1.56642 0
M  V30 1656 C 162.341 -0.906095 1.86004 0
M  V30 1657 C 162.756 -1.75921 0.685355 0
M  V30 1658 O 162.113 -1.79198 -0.345578 0
M  V30 1659 C 162.164 -1.78462 3.14378 0
M  V30 1660 O 161.885 -0.965914 4.27319 0
M  V30 1661 C 163.386 -2.62707 3.57071 0
M  V30 1662 H 160.606 -0.263341 0.617165 0
M  V30 1663 H 163.15 -0.174236 2.03756 0
M  V30 1664 H 161.305 -2.46984 2.98459 0
M  V30 1665 H 161.719 -1.56655 5.00559 0
M  V30 1666 H 163.193 -3.19969 4.49804 0
M  V30 1667 H 163.67 -3.37472 2.81086 0
M  V30 1668 H 164.276 -1.99521 3.75595 0
M  V30 1669 N 162.591 -1.51276 -0.441967 0
M  V30 1670 C 163.819 -1.67516 -1.21434 0
M  V30 1671 C 164.234 -0.37055 -1.85128 0
M  V30 1672 O 163.591 0.650498 -1.70513 0
M  V30 1673 C 163.642 -2.78748 -2.30177 0
M  V30 1674 O 163.363 -4.04154 -1.69089 0
M  V30 1675 C 164.864 -3.06217 -3.20541 0
M  V30 1676 H 162.084 -0.562276 -0.366178 0
M  V30 1677 H 164.628 -1.97666 -0.524244 0
M  V30 1678 H 162.783 -2.5121 -2.94911 0
M  V30 1679 H 163.197 -4.65894 -2.40922 0
M  V30 1680 H 164.671 -3.8764 -3.92987 0
M  V30 1681 H 165.148 -2.18439 -3.81026 0
M  V30 1682 H 165.754 -3.35397 -2.61513 0
M  V30 1683 N 164.069 0.697108 -1.41344 0
M  V30 1684 C 165.032 1.79281 -1.42797 0
M  V30 1685 C 166.032 1.57607 -0.318837 0
M  V30 1686 O 167.222 1.64309 -0.578642 0
M  V30 1687 C 164.354 3.17632 -1.23785 0
M  V30 1688 H 165.547 1.79385 -2.40335 0
M  V30 1689 H 163.1 0.904582 -1.27464 0
M  V30 1690 H 163.835 3.23167 -0.270814 0
M  V30 1691 H 163.62 3.34765 -2.04144 0
M  V30 1692 H 165.11 3.97617 -1.27633 0
M  V30 1693 N 165.547 1.27147 0.931209 0
M  V30 1694 C 166.772 1.16191 1.71797 0
M  V30 1695 C 167.197 -0.278004 1.86034 0
M  V30 1696 O 166.555 -1.20137 1.35782 0
M  V30 1697 C 166.603 1.84673 3.09723 0
M  V30 1698 O 165.707 1.14231 3.96264 0
M  V30 1699 H 165.048 0.404303 0.526721 0
M  V30 1700 H 167.578 1.68152 1.1656 0
M  V30 1701 H 167.588 1.91893 3.60057 0
M  V30 1702 H 166.263 2.89421 2.98677 0
M  V30 1703 H 164.84 1.15056 3.54706 0
M  V30 1704 N 167.025 -1.13721 1.09112 0
M  V30 1705 C 168.271 -1.85198 0.826414 0
M  V30 1706 C 168.604 -1.83129 -0.646319 0
M  V30 1707 O 167.879 -1.2671 -1.47563 0
M  V30 1708 C 168.162 -3.33507 1.35812 0
M  V30 1709 C 168.015 -3.44108 2.89672 0
M  V30 1710 C 169.334 -4.28838 0.989256 0
M  V30 1711 H 166.453 -0.67243 0.301675 0
M  V30 1712 H 169.095 -1.33499 1.35197 0
M  V30 1713 H 167.245 -3.77666 0.911082 0
M  V30 1714 H 168.917 -3.08684 3.428 0
M  V30 1715 H 167.16 -2.85087 3.26967 0
M  V30 1716 H 167.831 -4.48388 3.21951 0
M  V30 1717 H 170.307 -3.92734 1.37475 0
M  V30 1718 H 169.183 -5.31051 1.38838 0
M  V30 1719 H 169.444 -4.4198 -0.102924 0
M  V30 1720 N 168.503 -0.877838 -1.30888 0
M  V30 1721 C 169.919 -0.570844 -1.49042 0
M  V30 1722 C 170.119 0.893159 -1.80624 0
M  V30 1723 O 169.175 1.67485 -1.88958 0
M  V30 1724 C 170.488 -1.47784 -2.61878 0
M  V30 1725 C 172.036 -1.48071 -2.75761 0
M  V30 1726 C 172.511 -2.37347 -3.91702 0
M  V30 1727 N 174.002 -2.35271 -3.99001 0
M  V30 1728 C 174.737 -3.01063 -4.88004 0
M  V30 1729 N 174.233 -3.76055 -5.81854 0
M  V30 1730 N 176.026 -2.90332 -4.81315 0
M  V30 1731 H 168.177 -1.82502 -1.0866 0
M  V30 1732 H 170.44 -0.780797 -0.537644 0
M  V30 1733 H 170.146 -2.51993 -2.45341 0
M  V30 1734 H 170.02 -1.18215 -3.58197 0
M  V30 1735 H 172.407 -0.446166 -2.91708 0
M  V30 1736 H 172.488 -1.81668 -1.80085 0
M  V30 1737 H 172.132 -3.40883 -3.76512 0
M  V30 1738 H 172.062 -2.01071 -4.86701 0
M  V30 1739 H 174.553 -1.80768 -3.3186 0
M  V30 1740 H 174.866 -4.23366 -6.46514 0
M  V30 1741 H 173.211 -3.80163 -5.81808 0
M  V30 1742 H 176.402 -2.31278 -4.06974 0
M  V30 1743 H 176.575 -3.41885 -5.50471 0
M  V30 1744 N 169.982 1.44106 -0.638065 0
M  V30 1745 C 170.912 2.33448 0.0494287 0
M  V30 1746 C 171.893 1.48606 0.827672 0
M  V30 1747 O 173.078 1.77308 0.792173 0
M  V30 1748 C 170.208 3.31771 1.02691 0
M  V30 1749 C 169.162 4.26485 0.359823 0
M  V30 1750 C 168.488 5.14729 1.44769 0
M  V30 1751 C 169.788 5.17056 -0.738296 0
M  V30 1752 H 171.482 2.91183 -0.696636 0
M  V30 1753 H 169.028 1.40014 -0.336456 0
M  V30 1754 H 170.981 3.93161 1.51666 0
M  V30 1755 H 169.705 2.7226 1.80395 0
M  V30 1756 H 168.364 3.66437 -0.10934 0
M  V30 1757 H 168.012 4.51566 2.21578 0
M  V30 1758 H 167.712 5.78913 1.00668 0
M  V30 1759 H 169.236 5.78991 1.93911 0
M  V30 1760 H 170.65 5.72342 -0.331354 0
M  V30 1761 H 169.047 5.89879 -1.10286 0
M  V30 1762 H 170.117 4.57652 -1.60258 0
M  V30 1763 N 171.46 0.379036 1.52974 0
M  V30 1764 C 172.737 -0.263479 1.93817 0
M  V30 1765 C 173.117 -1.65244 1.31368 0
M  V30 1766 O 172.465 -2.23448 0.477856 0
M  V30 1767 C 172.675 -0.300166 3.47707 0
M  V30 1768 C 174.023 -0.534061 4.21228 0
M  V30 1769 O 175.047 -0.38081 3.54159 0
M  V30 1770 O 173.906 -0.833501 5.40106 0
M  V30 1771 H 171 -0.161149 0.811147 0
M  V30 1772 H 173.546 0.432798 1.64088 0
M  V30 1773 H 172.318 0.673138 3.85467 0
M  V30 1774 H 171.941 -1.04179 3.83709 0
M  V30 1775 N 172.938 -1.57226 0.108567 0
M  V30 1776 C 174.186 -1.94448 -0.550853 0
M  V30 1777 C 174.507 -0.992074 -1.67878 0
M  V30 1778 O 173.777 -0.0465 -1.95845 0
M  V30 1779 H 172.357 -0.717897 -0.206479 0
M  V30 1780 H 175.019 -1.94112 0.175062 0
M  V30 1781 H 174.115 -2.97218 -0.952259 0
M  V30 1782 N 174.416 0.165178 -1.56732 0
M  V30 1783 C 175.379 1.18822 -1.95995 0
M  V30 1784 C 176.379 1.3685 -0.84431 0
M  V30 1785 O 177.569 1.34152 -1.11126 0
M  V30 1786 C 174.701 2.5521 -2.26011 0
M  V30 1787 H 175.894 0.851825 -2.87548 0
M  V30 1788 H 173.447 0.407857 -1.50885 0
M  V30 1789 H 174.182 2.93852 -1.37191 0
M  V30 1790 H 173.967 2.43489 -3.07336 0
M  V30 1791 H 175.457 3.28927 -2.57288 0
M  V30 1792 N 175.894 1.51508 0.433938 0
M  V30 1793 C 177.119 1.68443 1.21003 0
M  V30 1794 C 177.544 0.382636 1.84167 0
M  V30 1795 O 176.902 -0.65755 1.68956 0
M  V30 1796 C 176.95 2.80405 2.26727 0
M  V30 1797 O 176.054 2.44245 3.32292 0
M  V30 1798 H 175.395 0.561536 0.354363 0
M  V30 1799 H 177.925 1.9809 0.512024 0
M  V30 1800 H 177.935 3.0459 2.71457 0
M  V30 1801 H 176.61 3.74867 1.80132 0
M  V30 1802 H 175.187 2.30644 2.93015 0
M  V30 1803 N 177.372 -0.689602 1.41712 0
M  V30 1804 C 178.302 -1.81577 1.46806 0
M  V30 1805 C 179.283 -1.66945 0.326105 0
M  V30 1806 O 180.468 -1.86588 0.538377 0
M  V30 1807 C 177.598 -3.19762 1.35535 0
M  V30 1808 C 176.552 -3.49107 2.47605 0
M  V30 1809 C 175.878 -4.86711 2.21397 0
M  V30 1810 C 177.178 -3.47483 3.89939 0
M  V30 1811 H 178.872 -1.7757 2.41058 0
M  V30 1812 H 176.418 -0.852887 1.16025 0
M  V30 1813 H 178.371 -3.98263 1.3771 0
M  V30 1814 H 177.095 -3.24409 0.377708 0
M  V30 1815 H 175.754 -2.72959 2.44722 0
M  V30 1816 H 175.402 -4.8799 1.21961 0
M  V30 1817 H 175.102 -5.0731 2.96497 0
M  V30 1818 H 176.626 -5.67515 2.25297 0
M  V30 1819 H 178.04 -4.1598 3.94505 0
M  V30 1820 H 176.437 -3.79615 4.64771 0
M  V30 1821 H 177.507 -2.46341 4.17665 0
M  V30 1822 N 178.85 -1.27639 -0.924453 0
M  V30 1823 C 179.8 -1.07295 -2.01176 0
M  V30 1824 C 180.784 5.77352e-05 -1.609 0
M  V30 1825 O 181.976 -0.218855 -1.75642 0
M  V30 1826 C 179.105 -0.725592 -3.35544 0
M  V30 1827 C 178.191 -1.83691 -3.82254 0
M  V30 1828 N 178.582 -3.07697 -4.01443 0
M  V30 1829 C 176.88 -1.72433 -4.11319 0
M  V30 1830 C 177.581 -3.80037 -4.40394 0
M  V30 1831 N 176.557 -3.0782 -4.48049 0
M  V30 1832 H 180.359 -2.01399 -2.14046 0
M  V30 1833 H 177.873 -1.18401 -1.11153 0
M  V30 1834 H 179.87 -0.560959 -4.13109 0
M  V30 1835 H 178.53 0.207782 -3.24034 0
M  V30 1836 H 179.541 -3.43424 -3.8766 0
M  V30 1837 H 176.218 -0.862005 -4.08504 0
M  V30 1838 H 177.608 -4.86632 -4.63291 0
M  V30 1839 N 180.328 1.1314 -1.09713 0
M  V30 1840 C 181.575 1.84484 -0.834987 0
M  V30 1841 C 181.903 1.83689 0.639418 0
M  V30 1842 O 181.158 1.2724 1.4869 0
M  V30 1843 C 181.457 3.32167 -1.3191 0
M  V30 1844 C 181.123 3.53139 -2.80363 0
M  V30 1845 C 179.785 3.58571 -3.20905 0
M  V30 1846 C 182.137 3.60866 -3.76065 0
M  V30 1847 C 179.465 3.69267 -4.55916 0
M  V30 1848 C 181.817 3.73089 -5.10869 0
M  V30 1849 C 180.481 3.76775 -5.50996 0
M  V30 1850 H 179.751 0.675073 -0.305544 0
M  V30 1851 H 182.398 1.33554 -1.37243 0
M  V30 1852 H 180.703 3.85469 -0.701517 0
M  V30 1853 H 182.4 3.85821 -1.09284 0
M  V30 1854 H 178.99 3.49569 -2.47991 0
M  V30 1855 H 183.174 3.55946 -3.45855 0
M  V30 1856 H 178.43 3.70388 -4.86438 0
M  V30 1857 H 182.604 3.78011 -5.84877 0
M  V30 1858 H 180.231 3.84815 -6.55608 0
M  V30 1859 N 181.806 0.884767 1.30421 0
M  V30 1860 C 182.769 0.356277 2.26414 0
M  V30 1861 C 183.769 -0.501124 1.52792 0
M  V30 1862 O 184.959 -0.30831 1.7145 0
M  V30 1863 C 182.091 -0.492316 3.37326 0
M  V30 1864 H 183.284 1.20389 2.74675 0
M  V30 1865 H 180.837 0.661607 1.41607 0
M  V30 1866 H 181.572 -1.36052 2.94381 0
M  V30 1867 H 181.357 0.121832 3.91911 0
M  V30 1868 H 182.847 -0.853871 4.08777 0
M  V30 1869 N 183.284 -1.43765 0.645699 0
M  V30 1870 C 184.695 -1.85193 0.236719 0
M  V30 1871 C 185.046 -1.54045 -1.21509 0
M  V30 1872 O 184.171 -0.985694 -1.92647 0
M  V30 1873 C 184.766 -3.36151 0.422845 0
M  V30 1874 C 183.325 -3.76338 0.0682492 0
M  V30 1875 C 182.472 -2.67538 0.729306 0
M  V30 1876 H 185.423 -1.34025 0.849883 0
M  V30 1877 H 185.444 -3.79032 -0.333904 0
M  V30 1878 H 184.956 -3.5879 1.47958 0
M  V30 1879 H 183.057 -3.59312 -0.986179 0
M  V30 1880 H 183.17 -4.76603 0.488469 0
M  V30 1881 H 181.534 -2.54176 0.163235 0
M  V30 1882 H 182.317 -2.93006 1.78892 0
M  V30 1883 N 184.763 -0.387143 -1.52771 0
M  V30 1884 C 185.693 0.440551 -2.29306 0
M  V30 1885 C 186.674 1.06535 -1.32606 0
M  V30 1886 O 187.859 1.07853 -1.61497 0
M  V30 1887 C 184.989 1.56919 -3.09829 0
M  V30 1888 C 183.943 1.07054 -4.14395 0
M  V30 1889 C 183.269 2.29109 -4.83129 0
M  V30 1890 C 184.569 0.140015 -5.22112 0
M  V30 1891 H 186.263 -0.198026 -2.98744 0
M  V30 1892 H 183.809 -0.09668 -1.43675 0
M  V30 1893 H 185.762 2.15503 -3.62128 0
M  V30 1894 H 184.486 2.23532 -2.3812 0
M  V30 1895 H 183.145 0.507247 -3.63074 0
M  V30 1896 H 182.793 2.94227 -4.0797 0
M  V30 1897 H 182.493 1.96406 -5.53804 0
M  V30 1898 H 184.017 2.88339 -5.38231 0
M  V30 1899 H 185.431 0.633978 -5.69784 0
M  V30 1900 H 183.828 -0.0971485 -6.00021 0
M  V30 1901 H 184.898 -0.811711 -4.78058 0
M  V30 1902 N 186.241 1.57166 -0.116904 0
M  V30 1903 C 187.151 2.18745 0.847812 0
M  V30 1904 C 188.167 1.163 1.29423 0
M  V30 1905 O 189.343 1.48761 1.35765 0
M  V30 1906 C 186.408 2.77307 2.0809 0
M  V30 1907 C 185.469 3.94781 1.68661 0
M  V30 1908 C 184.702 4.50541 2.86091 0
M  V30 1909 O 184.925 4.05202 4.01456 0
M  V30 1910 O 183.859 5.41256 2.63298 0
M  V30 1911 H 187.685 3.01632 0.353778 0
M  V30 1912 H 185.27 1.49005 0.108599 0
M  V30 1913 H 187.152 3.14647 2.80313 0
M  V30 1914 H 185.827 1.97452 2.56504 0
M  V30 1915 H 184.734 3.62214 0.935518 0
M  V30 1916 H 186.067 4.76065 1.24991 0
M  V30 1917 N 187.719 -0.156864 1.56817 0
M  V30 1918 C 188.966 -0.871125 1.82805 0
M  V30 1919 C 189.294 -1.81611 0.696262 0
M  V30 1920 O 188.549 -1.93141 -0.315459 0
M  V30 1921 C 188.848 -1.68737 3.1506 0
M  V30 1922 C 188.514 -0.890045 4.42028 0
M  V30 1923 C 187.176 -0.670042 4.76512 0
M  V30 1924 C 189.528 -0.331769 5.20143 0
M  V30 1925 C 186.856 0.119104 5.86579 0
M  V30 1926 C 189.208 0.444365 6.31037 0
M  V30 1927 C 187.872 0.675035 6.64078 0
M  V30 1928 H 187.142 -0.318767 0.668931 0
M  V30 1929 H 189.789 -0.135274 1.91022 0
M  V30 1930 H 188.094 -2.49304 3.0225 0
M  V30 1931 H 189.791 -2.24331 3.3238 0
M  V30 1932 H 186.381 -1.07157 4.14988 0
M  V30 1933 H 190.565 -0.489043 4.93885 0
M  V30 1934 H 185.821 0.307417 6.10627 0
M  V30 1935 H 189.995 0.884139 6.90765 0
M  V30 1936 H 187.622 1.28839 7.49203 0
M  V30 1937 N 189.197 -1.51736 -0.425897 0
M  V30 1938 C 190.608 -1.5732 -1.00536 0
M  V30 1939 C 190.959 -0.403537 -1.92005 0
M  V30 1940 O 190.084 0.478256 -2.11049 0
M  V30 1941 C 190.679 -2.85119 -1.8301 0
M  V30 1942 C 189.238 -2.93236 -2.35987 0
M  V30 1943 C 188.385 -2.52098 -1.15508 0
M  V30 1944 H 191.336 -1.57348 -0.206739 0
M  V30 1945 H 191.357 -2.69526 -2.68581 0
M  V30 1946 H 190.869 -3.7023 -1.16411 0
M  V30 1947 H 188.97 -2.12581 -3.06007 0
M  V30 1948 H 189.083 -3.9713 -2.68001 0
M  V30 1949 H 187.447 -2.05558 -1.50393 0
M  V30 1950 H 188.23 -3.39565 -0.505014 0
M  V30 1951 N 190.675 0.682077 -1.42076 0
M  V30 1952 C 191.638 1.77756 -1.44691 0
M  V30 1953 C 192.638 1.5726 -0.335535 0
M  V30 1954 O 193.828 1.63686 -0.596037 0
M  V30 1955 C 190.96 3.16301 -1.27146 0
M  V30 1956 H 192.153 1.76826 -2.42224 0
M  V30 1957 H 189.706 0.891012 -1.28416 0
M  V30 1958 H 190.441 3.22862 -0.305075 0
M  V30 1959 H 190.226 3.32581 -2.07683 0
M  V30 1960 H 191.716 3.96241 -1.31843 0
M  V30 1961 N 192.153 1.28127 0.917671 0
M  V30 1962 C 193.399 1.15223 1.66888 0
M  V30 1963 C 193.732 -0.299293 1.9188 0
M  V30 1964 O 193.007 -1.21805 1.51637 0
M  V30 1965 C 193.29 1.94706 3.02922 0
M  V30 1966 C 193.143 3.47898 2.85109 0
M  V30 1967 C 194.462 1.75939 4.03402 0
M  V30 1968 H 191.581 0.419946 0.605652 0
M  V30 1969 H 194.223 1.57398 1.06423 0
M  V30 1970 H 192.373 1.58864 3.54534 0
M  V30 1971 H 194.045 3.93624 2.40537 0
M  V30 1972 H 192.288 3.7373 2.20246 0
M  V30 1973 H 192.959 3.98765 3.81694 0
M  V30 1974 H 195.435 2.07209 3.60837 0
M  V30 1975 H 194.311 2.33931 4.96556 0
M  V30 1976 H 194.572 0.709877 4.36364 0
M  V30 1977 N 193.631 -1.12557 1.10312 0
M  V30 1978 C 194.594 -2.16434 0.75424 0
M  V30 1979 C 195.594 -1.59278 -0.220685 0
M  V30 1980 O 196.784 -1.742 0.00230591 0
M  V30 1981 C 193.916 -3.40699 0.116987 0
M  V30 1982 H 195.109 -2.48811 1.67431 0
M  V30 1983 H 192.662 -1.27542 0.903475 0
M  V30 1984 H 193.397 -3.13921 -0.813877 0
M  V30 1985 H 193.182 -3.83459 0.818613 0
M  V30 1986 H 194.672 -4.17451 -0.111387 0
M  V30 1987 N 195.109 -0.891671 -1.2995 0
M  V30 1988 C 196.386 -0.433307 -1.9074 0
M  V30 1989 C 196.766 1.08646 -1.80995 0
M  V30 1990 O 196.114 1.92476 -1.23147 0
M  V30 1991 C 196.324 -0.938895 -3.36134 0
M  V30 1992 C 197.672 -0.977829 -4.13187 0
M  V30 1993 O 198.696 -0.886015 -3.45005 0
M  V30 1994 O 197.555 -1.11453 -5.35015 0
M  V30 1995 H 194.649 -0.133699 -0.816121 0
M  V30 1996 H 197.195 -0.981011 -1.38471 0
M  V30 1997 H 195.967 -1.98281 -3.37343 0
M  V30 1998 H 195.59 -0.37074 -3.95868 0
M  V30 1999 N 196.587 1.43421 -0.653314 0
M  V30 2000 C 197.834 2.01812 -0.166745 0
M  V30 2001 C 198.162 1.51535 1.21931 0
M  V30 2002 O 197.417 0.698975 1.82792 0
M  V30 2003 C 197.716 3.57176 -0.126623 0
M  V30 2004 C 197.382 4.26798 -1.45444 0
M  V30 2005 C 196.044 4.45534 -1.81805 0
M  V30 2006 C 198.396 4.66225 -2.32989 0
M  V30 2007 C 195.724 5.00961 -3.05377 0
M  V30 2008 C 198.076 5.23021 -3.55853 0
M  V30 2009 C 196.74 5.39973 -3.9241 0
M  V30 2010 H 196.01 0.738484 -0.0610162 0
M  V30 2011 H 198.657 1.71896 -0.84404 0
M  V30 2012 H 196.962 3.86634 0.634123 0
M  V30 2013 H 198.659 4.00112 0.266723 0
M  V30 2014 H 195.249 4.12561 -1.16153 0
M  V30 2015 H 199.433 4.51443 -2.06187 0
M  V30 2016 H 194.689 5.12271 -3.3375 0
M  V30 2017 H 198.863 5.52518 -4.23907 0
M  V30 2018 H 196.49 5.82687 -4.88242 0
M  V30 2019 N 198.065 0.39524 1.52563 0
M  V30 2020 C 198.975 -0.444232 2.30356 0
M  V30 2021 C 199.991 -1.06615 1.37511 0
M  V30 2022 O 201.167 -1.07067 1.70583 0
M  V30 2023 C 198.232 -1.55315 3.09964 0
M  V30 2024 C 197.293 -0.955734 4.18526 0
M  V30 2025 C 196.526 -2.01181 4.9433 0
M  V30 2026 O 196.749 -3.22781 4.70285 0
M  V30 2027 O 195.683 -1.62579 5.79527 0
M  V30 2028 H 199.509 0.189667 3.03107 0
M  V30 2029 H 197.094 0.1588 1.48554 0
M  V30 2030 H 198.976 -2.19724 3.59582 0
M  V30 2031 H 197.651 -2.17191 2.4002 0
M  V30 2032 H 196.558 -0.274743 3.7309 0
M  V30 2033 H 197.891 -0.381109 4.90722 0
M  V30 2034 N 199.544 -1.57102 0.125237 0
M  V30 2035 C 200.784 -1.97294 -0.534259 0
M  V30 2036 C 201.148 -1.0074 -1.63449 0
M  V30 2037 O 202.349 -1.29893 -2.35332 0
M  V30 2038 C 200.62 -3.41705 -1.04748 0
M  V30 2039 S 202.179 -4.03913 -1.71463 0
M  V30 2040 H 198.997 -0.689517 -0.173458 0
M  V30 2041 H 201.599 -1.94349 0.211797 0
M  V30 2042 H 200.303 -4.09723 -0.235649 0
M  V30 2043 H 199.834 -3.48315 -1.82867 0
M  V30 2044 H 201.849 -3.95182 -3.00077 0
M  V30 2045 N 201.022 0.148545 -1.56898 0
M  V30 2046 C 202.25 0.876389 -1.87422 0
M  V30 2047 C 202.665 1.74809 -0.713256 0
M  V30 2048 O 202.022 1.79725 0.317025 0
M  V30 2049 C 202.073 1.73438 -3.17178 0
M  V30 2050 O 201.794 0.897809 -4.28802 0
M  V30 2051 C 203.295 2.56993 -3.61205 0
M  V30 2052 H 200.515 0.253489 -0.621277 0
M  V30 2053 H 203.059 0.141798 -2.04008 0
M  V30 2054 H 201.214 2.42205 -3.0235 0
M  V30 2055 H 201.628 1.48672 -5.02988 0
M  V30 2056 H 203.102 3.12773 -4.54838 0
M  V30 2057 H 203.579 3.32958 -2.86419 0
M  V30 2058 H 204.185 1.9352 -3.78722 0
M  V30 2059 N 202.5 1.5196 0.417844 0
M  V30 2060 C 203.728 1.69426 1.18753 0
M  V30 2061 C 204.143 0.399955 1.84515 0
M  V30 2062 O 203.5 -0.623288 1.71527 0
M  V30 2063 C 203.551 2.82375 2.25714 0
M  V30 2064 O 203.272 4.06793 1.62638 0
M  V30 2065 C 204.773 3.11277 3.15628 0
M  V30 2066 H 201.993 0.568031 0.357186 0
M  V30 2067 H 204.537 1.98475 0.49273 0
M  V30 2068 H 202.692 2.5587 2.90877 0
M  V30 2069 H 203.106 4.69667 2.3348 0
M  V30 2070 H 204.58 3.93843 3.86771 0
M  V30 2071 H 205.057 2.24473 3.77503 0
M  V30 2072 H 205.663 3.39515 2.56144 0
M  V30 2073 N 203.978 -0.674533 1.42435 0
M  V30 2074 C 204.941 -1.76986 1.45632 0
M  V30 2075 C 205.941 -1.5708 0.343871 0
M  V30 2076 O 207.131 -1.63367 0.604709 0
M  V30 2077 C 204.263 -3.15623 1.28822 0
M  V30 2078 H 205.456 -1.75539 2.43158 0
M  V30 2079 H 203.009 -0.884189 1.28887 0
M  V30 2080 H 203.744 -3.22696 0.322193 0
M  V30 2081 H 203.529 -3.31475 2.09444 0
M  V30 2082 H 205.019 -3.95537 1.33942 0
M  V30 2083 N 205.456 -1.28612 -0.910864 0
M  V30 2084 C 206.386 -1.15326 -2.03032 0
M  V30 2085 C 207.367 -0.0502924 -1.70026 0
M  V30 2086 O 208.552 -0.227797 -1.92859 0
M  V30 2087 C 205.682 -0.817343 -3.37545 0
M  V30 2088 C 204.636 -1.8754 -3.84724 0
M  V30 2089 C 203.962 -1.39305 -5.16235 0
M  V30 2090 C 205.262 -3.28244 -4.06267 0
M  V30 2091 H 206.956 -2.08975 -2.14406 0
M  V30 2092 H 204.502 -1.00612 -1.03021 0
M  V30 2093 H 206.455 -0.711151 -4.15356 0
M  V30 2094 H 205.179 0.154846 -3.26233 0
M  V30 2095 H 203.838 -1.97079 -3.09121 0
M  V30 2096 H 203.486 -0.409846 -5.01328 0
M  V30 2097 H 203.186 -2.10057 -5.48771 0
M  V30 2098 H 204.71 -1.30014 -5.96598 0
M  V30 2099 H 206.124 -3.21611 -4.74594 0
M  V30 2100 H 204.521 -3.96855 -4.5014 0
M  V30 2101 H 205.591 -3.72048 -3.10979 0
M  V30 2102 N 206.934 1.1197 -1.10907 0
M  V30 2103 C 208.18 1.8386 -0.855773 0
M  V30 2104 C 208.513 1.84134 0.617103 0
M  V30 2105 O 207.788 1.29041 1.45529 0
M  V30 2106 C 208.071 3.31305 -1.411 0
M  V30 2107 C 207.924 3.39456 -2.9511 0
M  V30 2108 C 209.243 4.2721 -1.05736 0
M  V30 2109 H 206.362 0.667545 -0.312334 0
M  V30 2110 H 209.004 1.31331 -1.37303 0
M  V30 2111 H 207.154 3.76169 -0.97105 0
M  V30 2112 H 208.826 3.03191 -3.47668 0
M  V30 2113 H 207.069 2.79849 -3.31462 0
M  V30 2114 H 207.74 4.43209 -3.29044 0
M  V30 2115 H 210.216 3.90497 -1.43706 0
M  V30 2116 H 209.092 5.28775 -1.47269 0
M  V30 2117 H 209.353 4.42088 0.0325958 0
M  V30 2118 N 208.412 0.89855 1.29475 0
M  V30 2119 C 209.322 0.379974 2.31502 0
M  V30 2120 C 210.338 -0.524695 1.659 0
M  V30 2121 O 211.514 -0.414551 1.97087 0
M  V30 2122 C 208.579 -0.385138 3.44554 0
M  V30 2123 C 207.64 0.550914 4.2575 0
M  V30 2124 C 206.873 -0.177778 5.33404 0
M  V30 2125 O 207.096 -1.40189 5.52904 0
M  V30 2126 O 206.03 0.479106 5.9999 0
M  V30 2127 H 209.856 1.22639 2.77837 0
M  V30 2128 H 207.441 0.662834 1.33891 0
M  V30 2129 H 209.323 -0.817841 4.13388 0
M  V30 2130 H 207.998 -1.20763 3.0033 0
M  V30 2131 H 206.905 1.03271 3.59564 0
M  V30 2132 H 208.238 1.33979 4.73614 0
M  V30 2133 N 209.89 -1.43072 0.660911 0
M  V30 2134 C 210.853 -2.29194 -0.0166406 0
M  V30 2135 C 211.853 -1.42609 -0.742912 0
M  V30 2136 O 213.043 -1.64155 -0.583004 0
M  V30 2137 C 210.175 -3.24831 -1.0343 0
M  V30 2138 H 211.368 -2.90596 0.741208 0
M  V30 2139 H 208.921 -1.5048 0.422532 0
M  V30 2140 H 209.656 -2.68339 -1.82111 0
M  V30 2141 H 209.441 -3.88676 -0.517082 0
M  V30 2142 H 210.931 -3.89451 -1.50723 0
M  V30 2143 N 211.368 -0.403325 -1.52352 0
M  V30 2144 C 212.331 0.413051 -2.25447 0
M  V30 2145 C 213.331 0.978513 -1.276 0
M  V30 2146 O 214.521 0.858305 -1.51587 0
M  V30 2147 C 211.653 1.58087 -3.02029 0
M  V30 2148 H 212.846 -0.227094 -2.99039 0
M  V30 2149 H 210.399 -0.155722 -1.55522 0
M  V30 2150 H 211.134 2.25804 -2.32772 0
M  V30 2151 H 210.919 1.18195 -3.73861 0
M  V30 2152 H 212.409 2.1585 -3.57489 0
M  V30 2153 N 212.846 1.57033 -0.133567 0
M  V30 2154 C 213.793 2.16074 0.811208 0
M  V30 2155 C 214.763 1.08979 1.2535 0
M  V30 2156 O 215.948 1.36958 1.32843 0
M  V30 2157 C 213.088 2.77595 2.05024 0
M  V30 2158 C 212.201 3.99042 1.65498 0
M  V30 2159 C 211.336 4.48603 2.84479 0
M  V30 2160 C 210.375 5.62547 2.41262 0
M  V30 2161 N 209.512 6.06787 3.53206 0
M  V30 2162 H 214.352 2.96477 0.300906 0
M  V30 2163 H 211.889 1.46462 0.136822 0
M  V30 2164 H 213.847 3.11402 2.77642 0
M  V30 2165 H 212.477 1.99859 2.53488 0
M  V30 2166 H 211.529 3.71302 0.826981 0
M  V30 2167 H 212.841 4.81629 1.29748 0
M  V30 2168 H 211.995 4.84395 3.65303 0
M  V30 2169 H 210.734 3.64995 3.23465 0
M  V30 2170 H 209.739 5.26345 1.58874 0
M  V30 2171 H 210.964 6.47931 2.03377 0
M  V30 2172 H 208.91 5.26117 3.91838 0
M  V30 2173 H 208.827 6.84266 3.21427 0
M  V30 2174 H 210.095 6.4722 4.34427 0
M  V30 2175 N 214.325 -0.140222 1.56975 0
M  V30 2176 C 215.55 -0.870414 1.88251 0
M  V30 2177 C 215.975 -1.73637 0.723312 0
M  V30 2178 O 215.333 -1.78329 -0.32689 0
M  V30 2179 C 215.381 -1.69737 3.18154 0
M  V30 2180 O 214.485 -2.80229 3.02565 0
M  V30 2181 H 213.826 -0.242025 0.61832 0
M  V30 2182 H 216.356 -0.128999 2.04193 0
M  V30 2183 H 216.366 -2.09099 3.50345 0
M  V30 2184 H 215.041 -1.06152 4.02125 0
M  V30 2185 H 213.618 -2.44224 2.81796 0
M  V30 2186 N 215.803 -1.52179 -0.40978 0
M  V30 2187 C 217.052 -1.65434 -1.15388 0
M  V30 2188 C 217.365 -0.390056 -1.91671 0
M  V30 2189 O 218.571 -0.402399 -2.68501 0
M  V30 2190 C 217.027 -2.92279 -2.10003 0
M  V30 2191 C 216.635 -4.25813 -1.39239 0
M  V30 2192 C 218.379 -3.14897 -2.84675 0
M  V30 2193 C 216.286 -5.43782 -2.32498 0
M  V30 2194 H 215.216 -0.616267 -0.434432 0
M  V30 2195 H 217.867 -1.78666 -0.418401 0
M  V30 2196 H 216.249 -2.72744 -2.871 0
M  V30 2197 H 217.423 -4.55828 -0.675099 0
M  V30 2198 H 215.738 -4.09292 -0.766097 0
M  V30 2199 H 218.335 -4.0021 -3.54593 0
M  V30 2200 H 218.678 -2.29103 -3.47588 0
M  V30 2201 H 219.211 -3.34901 -2.14677 0
M  V30 2202 H 215.95 -6.3192 -1.74233 0
M  V30 2203 H 215.47 -5.18106 -3.02201 0
M  V30 2204 H 217.149 -5.76834 -2.93038 0
M  V30 2205 N 217.281 0.66697 -1.42791 0
M  V30 2206 C 218.529 1.42417 -1.43394 0
M  V30 2207 C 218.85 1.94925 -0.0542373 0
M  V30 2208 O 218.12 1.73564 0.908415 0
M  V30 2209 H 216.7 0.528515 -0.527902 0
M  V30 2210 H 219.362 0.787562 -1.78279 0
M  V30 2211 H 218.458 2.27333 -2.13837 0
M  V30 2212 N 218.759 1.29093 0.90403 0
M  V30 2213 C 219.722 1.1386 1.98919 0
M  V30 2214 C 220.722 0.0753457 1.60623 0
M  V30 2215 O 221.912 0.321931 1.71199 0
M  V30 2216 C 219.044 0.740198 3.32767 0
M  V30 2217 H 220.237 2.10246 2.13861 0
M  V30 2218 H 217.79 1.12218 1.08797 0
M  V30 2219 H 218.525 -0.223997 3.23525 0
M  V30 2220 H 218.31 1.50838 3.61926 0
M  V30 2221 H 219.8 0.656546 4.12407 0
M  V30 2222 N 220.237 -1.11381 1.11499 0
M  V30 2223 C 221.465 -1.86934 0.88675 0
M  V30 2224 C 221.88 -1.80195 -0.563476 0
M  V30 2225 O 221.237 -1.18367 -1.38908 0
M  V30 2226 C 221.288 -3.35722 1.34064 0
M  V30 2227 O 221.009 -3.4232 2.73401 0
M  V30 2228 C 222.51 -4.2818 1.14791 0
M  V30 2229 H 219.73 -0.591117 0.317523 0
M  V30 2230 H 222.274 -1.40865 1.48248 0
M  V30 2231 H 220.429 -3.79294 0.788355 0
M  V30 2232 H 220.843 -4.34971 2.93087 0
M  V30 2233 H 222.317 -5.30817 1.5145 0
M  V30 2234 H 222.794 -4.39113 0.0875279 0
M  V30 2235 H 223.4 -3.90402 1.68721 0
M  V30 2236 N 221.715 -0.905404 -1.28997 0
M  V30 2237 C 222.943 -0.549846 -1.9946 0
M  V30 2238 C 223.358 0.866834 -1.67724 0
M  V30 2239 O 222.715 1.57298 -0.925404 0
M  V30 2240 C 222.766 -0.739387 -3.53858 0
M  V30 2241 O 222.487 -2.10031 -3.84472 0
M  V30 2242 C 223.988 -0.389541 -4.41585 0
M  V30 2243 H 221.208 -0.210429 -0.637151 0
M  V30 2244 H 223.752 -1.21632 -1.64396 0
M  V30 2245 H 221.907 -0.120023 -3.87214 0
M  V30 2246 H 222.321 -2.13385 -4.79132 0
M  V30 2247 H 223.795 -0.572972 -5.49018 0
M  V30 2248 H 224.272 0.673756 -4.34001 0
M  V30 2249 H 224.878 -0.986089 -4.1371 0
M  V30 2250 N 223.193 1.4272 -0.668489 0
M  V30 2251 C 224.143 2.27971 0.0363806 0
M  V30 2252 C 225.127 1.40741 0.779794 0
M  V30 2253 O 226.319 1.64245 0.659745 0
M  V30 2254 C 223.448 3.28673 0.991398 0
M  V30 2255 C 222.534 4.23388 0.245658 0
M  V30 2256 N 222.925 5.00267 -0.746069 0
M  V30 2257 C 221.223 4.43355 0.484988 0
M  V30 2258 C 221.924 5.69396 -1.19009 0
M  V30 2259 N 220.9 5.41095 -0.521287 0
M  V30 2260 H 224.702 2.84833 -0.724394 0
M  V30 2261 H 222.216 1.54607 -0.497028 0
M  V30 2262 H 224.213 3.88543 1.51129 0
M  V30 2263 H 222.873 2.73373 1.75207 0
M  V30 2264 H 223.884 5.05525 -1.12537 0
M  V30 2265 H 220.561 3.99104 1.22565 0
M  V30 2266 H 221.951 6.41083 -2.01153 0
M  V30 2267 N 224.671 0.411399 1.52136 0
M  V30 2268 C 225.917 -0.163888 2.02137 0
M  V30 2269 C 226.25 -1.44597 1.29636 0
M  V30 2270 O 225.525 -1.90272 0.403353 0
M  V30 2271 C 225.808 -0.40927 3.57767 0
M  V30 2272 C 225.661 0.889643 4.40914 0
M  V30 2273 C 226.98 -1.19042 4.23694 0
M  V30 2274 H 224.099 -0.0580896 0.734707 0
M  V30 2275 H 226.741 0.54531 1.82007 0
M  V30 2276 H 224.891 -1.0134 3.7505 0
M  V30 2277 H 226.563 1.52575 4.35337 0
M  V30 2278 H 224.806 1.50011 4.07037 0
M  V30 2279 H 225.477 0.672314 5.4789 0
M  V30 2280 H 227.953 -0.678942 4.10524 0
M  V30 2281 H 226.829 -1.33086 5.32522 0
M  V30 2282 H 227.09 -2.21166 3.82803 0
M  V30 2283 N 226.149 -1.5696 0.141893 0
M  V30 2284 C 227.397 -1.95573 -0.509484 0
M  V30 2285 C 227.718 -1.02746 -1.65736 0
M  V30 2286 O 226.988 -0.0880311 -1.95702 0
M  V30 2287 H 225.568 -0.722115 -0.191205 0
M  V30 2288 H 228.23 -1.93697 0.216196 0
M  V30 2289 H 227.326 -2.99171 -0.889 0
M  V30 2290 N 227.627 0.131896 -1.57047 0
M  V30 2291 C 228.873 0.843179 -1.84441 0
M  V30 2292 C 229.206 1.80129 -0.725749 0
M  V30 2293 O 228.481 1.92624 0.269469 0
M  V30 2294 C 228.764 1.60442 -3.22382 0
M  V30 2295 C 228.617 0.666782 -4.4483 0
M  V30 2296 C 229.936 2.56354 -3.5773 0
M  V30 2297 H 227.055 0.305081 -0.670891 0
M  V30 2298 H 229.697 0.107839 -1.89694 0
M  V30 2299 H 227.847 2.23128 -3.18035 0
M  V30 2300 H 229.519 0.0497646 -4.61273 0
M  V30 2301 H 227.762 -0.022609 -4.33794 0
M  V30 2302 H 228.433 1.23579 -5.37989 0
M  V30 2303 H 230.909 2.0378 -3.62785 0
M  V30 2304 H 229.785 3.06657 -4.5525 0
M  V30 2305 H 230.046 3.38419 -2.84473 0
M  V30 2306 N 229.106 1.52395 0.401703 0
M  V30 2307 C 230.334 1.70676 1.16949 0
M  V30 2308 C 230.749 0.419503 1.8408 0
M  V30 2309 O 230.106 -0.605061 1.72178 0
M  V30 2310 C 230.157 2.84753 2.22706 0
M  V30 2311 O 229.878 4.08495 1.58314 0
M  V30 2312 C 231.379 3.14608 3.12309 0
M  V30 2313 H 228.599 0.571787 0.351142 0
M  V30 2314 H 231.143 1.98987 0.471652 0
M  V30 2315 H 229.298 2.58941 2.88147 0
M  V30 2316 H 229.712 4.72117 2.28485 0
M  V30 2317 H 231.186 3.97923 3.82572 0
M  V30 2318 H 231.663 2.28464 3.75101 0
M  V30 2319 H 232.269 3.42212 2.52529 0
M  V30 2320 N 230.584 -0.659388 1.43143 0
M  V30 2321 C 231.547 -1.75432 1.47501 0
M  V30 2322 C 232.547 -1.56707 0.360512 0
M  V30 2323 O 233.737 -1.62717 0.622002 0
M  V30 2324 C 230.869 -3.14239 1.32162 0
M  V30 2325 H 232.062 -1.7295 2.45006 0
M  V30 2326 H 229.615 -0.870469 1.29817 0
M  V30 2327 H 230.35 -3.22336 0.356401 0
M  V30 2328 H 230.135 -3.29235 2.12948 0
M  V30 2329 H 231.625 -3.94094 1.3813 0
M  V30 2330 N 232.062 -1.29571 -0.897171 0
M  V30 2331 C 233.287 -1.20705 -1.68656 0
M  V30 2332 C 233.712 0.228582 -1.86706 0
M  V30 2333 O 233.07 1.16494 -1.3892 0
M  V30 2334 C 233.118 -1.9282 -3.04717 0
M  V30 2335 O 232.222 -1.24697 -3.93096 0
M  V30 2336 H 231.563 -0.418126 -0.515816 0
M  V30 2337 H 234.093 -1.71183 -1.12061 0
M  V30 2338 H 234.103 -2.01372 -3.54843 0
M  V30 2339 H 232.778 -2.97239 -2.90899 0
M  V30 2340 H 231.355 -1.2442 -3.51531 0
M  V30 2341 N 233.54 1.10788 -1.12088 0
M  V30 2342 C 234.765 1.87002 -0.896949 0
M  V30 2343 C 235.19 1.79933 0.548261 0
M  V30 2344 O 234.548 1.16662 1.38779 0
M  V30 2345 C 234.596 3.3349 -1.37174 0
M  V30 2346 O 233.7 4.08745 -0.547831 0
M  V30 2347 H 233.041 0.580397 -0.322545 0
M  V30 2348 H 235.571 1.39996 -1.49206 0
M  V30 2349 H 235.581 3.84339 -1.36922 0
M  V30 2350 H 234.256 3.37951 -2.42408 0
M  V30 2351 H 232.833 3.6776 -0.617034 0
M  V30 2352 N 235.018 0.912232 1.28515 0
M  V30 2353 C 236.295 0.463597 1.90027 0
M  V30 2354 C 236.675 -1.05753 1.82701 0
M  V30 2355 O 236.023 -1.90492 1.26194 0
M  V30 2356 C 236.233 0.992253 3.34597 0
M  V30 2357 C 237.581 1.04344 4.11579 0
M  V30 2358 O 238.605 0.94079 3.43551 0
M  V30 2359 O 237.464 1.1995 5.33174 0
M  V30 2360 H 234.558 0.146666 0.813891 0
M  V30 2361 H 237.104 1.00292 1.36893 0
M  V30 2362 H 235.876 2.03623 3.34146 0
M  V30 2363 H 235.499 0.433672 3.95228 0
M  V30 2364 N 236.496 -1.42363 0.676048 0
M  V30 2365 C 237.724 -2.05859 0.207268 0
M  V30 2366 C 238.139 -1.50796 -1.13605 0
M  V30 2367 O 237.496 -0.648265 -1.70598 0
M  V30 2368 C 237.547 -3.61248 0.134975 0
M  V30 2369 O 237.268 -4.1427 1.42521 0
M  V30 2370 C 238.769 -4.41859 -0.357151 0
M  V30 2371 H 235.989 -0.663431 0.100503 0
M  V30 2372 H 238.533 -1.82479 0.923136 0
M  V30 2373 H 236.688 -3.83735 -0.531588 0
M  V30 2374 H 237.102 -5.0815 1.29939 0
M  V30 2375 H 238.576 -5.50847 -0.356641 0
M  V30 2376 H 239.053 -4.16536 -1.39264 0
M  V30 2377 H 239.659 -4.24392 0.27772 0
M  V30 2378 N 237.974 -0.419461 -1.51915 0
M  V30 2379 C 239.221 0.152939 -2.01922 0
M  V30 2380 C 239.549 1.4426 -1.30458 0
M  V30 2381 O 238.804 1.91514 -0.402593 0
M  V30 2382 C 239.103 0.437067 -3.54717 0
M  V30 2383 C 238.769 -0.764632 -4.44369 0
M  V30 2384 C 237.431 -1.09423 -4.68594 0
M  V30 2385 C 239.783 -1.56713 -4.97082 0
M  V30 2386 C 237.111 -2.22732 -5.42777 0
M  V30 2387 C 239.463 -2.69107 -5.72507 0
M  V30 2388 C 238.127 -3.02541 -5.95 0
M  V30 2389 H 237.397 0.0559644 -0.738884 0
M  V30 2390 H 240.044 -0.562998 -1.83037 0
M  V30 2391 H 238.349 1.23469 -3.71837 0
M  V30 2392 H 240.046 0.893083 -3.90928 0
M  V30 2393 H 236.636 -0.497775 -4.257 0
M  V30 2394 H 240.82 -1.32571 -4.78266 0
M  V30 2395 H 236.076 -2.48971 -5.58411 0
M  V30 2396 H 240.25 -3.31671 -6.12346 0
M  V30 2397 H 237.877 -3.90457 -6.52264 0
M  V30 2398 N 239.452 1.56882 -0.150215 0
M  V30 2399 C 240.682 2.00302 0.506213 0
M  V30 2400 C 241.09 1.02934 1.58749 0
M  V30 2401 O 240.433 0.0188384 1.8369 0
M  V30 2402 C 240.495 3.40156 1.16337 0
M  V30 2403 C 240.159 4.56439 0.226311 0
M  V30 2404 C 241.156 5.17012 -0.547265 0
M  V30 2405 C 238.841 5.02136 0.128279 0
M  V30 2406 C 240.835 6.21693 -1.40629 0
M  V30 2407 C 238.522 6.06672 -0.734345 0
M  V30 2408 C 239.52 6.6632 -1.50023 0
M  V30 2409 O 239.208 7.68831 -2.34848 0
M  V30 2410 H 238.94 0.662182 0.135984 0
M  V30 2411 H 241.494 2.03961 -0.242746 0
M  V30 2412 H 239.724 3.33346 1.96004 0
M  V30 2413 H 241.413 3.67663 1.71985 0
M  V30 2414 H 242.179 4.82603 -0.48158 0
M  V30 2415 H 238.058 4.55435 0.714157 0
M  V30 2416 H 241.602 6.68179 -2.00455 0
M  V30 2417 H 237.499 6.40507 -0.801309 0
M  V30 2418 H 238.267 7.86065 -2.28131 0
M  V30 2419 N 240.93 -0.123565 1.57115 0
M  V30 2420 C 242.341 -0.681198 1.73829 0
M  V30 2421 C 242.692 -1.80535 0.768214 0
M  V30 2422 O 241.817 -2.16317 -0.0599103 0
M  V30 2423 C 242.412 -1.24246 3.15196 0
M  V30 2424 C 240.971 -1.74643 3.33432 0
M  V30 2425 C 240.118 -0.644284 2.69711 0
M  V30 2426 H 243.069 0.102315 1.5837 0
M  V30 2427 H 243.09 -2.11216 3.16493 0
M  V30 2428 H 242.602 -0.424062 3.85776 0
M  V30 2429 H 240.703 -2.58974 2.67886 0
M  V30 2430 H 240.816 -1.85902 4.41562 0
M  V30 2431 H 239.18 -1.07676 2.3082 0
M  V30 2432 H 239.963 0.163058 3.42913 0
M  V30 2433 N 242.408 -1.52605 -0.393616 0
M  V30 2434 C 243.656 -1.67093 -1.13685 0
M  V30 2435 C 243.977 -0.411011 -1.90619 0
M  V30 2436 O 243.247 0.574491 -1.87287 0
M  V30 2437 H 241.827 -0.615923 -0.422668 0
M  V30 2438 H 244.489 -1.89704 -0.447039 0
M  V30 2439 H 243.585 -2.51922 -1.84232 0
M  V30 2440 N 243.887 0.651787 -1.4349 0
M  V30 2441 C 244.819 1.77725 -1.44729 0
M  V30 2442 C 245.832 1.59141 -0.343231 0
M  V30 2443 O 247.021 1.67835 -0.607751 0
M  V30 2444 C 244.121 3.15172 -1.24579 0
M  V30 2445 C 243.294 3.60402 -2.47849 0
M  V30 2446 C 242.353 4.76656 -2.22902 0
M  V30 2447 O 241.379 4.86022 -2.96263 0
M  V30 2448 N 242.581 5.66958 -1.24656 0
M  V30 2449 H 245.346 1.77141 -2.41746 0
M  V30 2450 H 242.907 0.835678 -1.38665 0
M  V30 2451 H 244.899 3.90634 -1.0577 0
M  V30 2452 H 243.469 3.1052 -0.360015 0
M  V30 2453 H 242.689 2.75369 -2.82073 0
M  V30 2454 H 243.977 3.87368 -3.29884 0
M  V30 2455 H 243.375 5.62065 -0.640265 0
M  V30 2456 H 241.932 6.42135 -1.1183 0
M  V30 2457 N 245.365 1.30045 0.890287 0
M  V30 2458 C 246.275 1.17885 2.02831 0
M  V30 2459 C 247.291 0.0999609 1.73713 0
M  V30 2460 O 248.467 0.313867 1.98939 0
M  V30 2461 C 245.532 0.866079 3.35708 0
M  V30 2462 C 244.593 2.02979 3.78283 0
M  V30 2463 C 243.826 1.73184 5.0482 0
M  V30 2464 O 244.049 0.657237 5.66601 0
M  V30 2465 O 242.983 2.58267 5.43674 0
M  V30 2466 H 246.809 2.13474 2.16015 0
M  V30 2467 H 244.394 1.09587 1.01543 0
M  V30 2468 H 246.276 0.706623 4.15433 0
M  V30 2469 H 244.951 -0.0599443 3.23644 0
M  V30 2470 H 243.858 2.24454 2.99285 0
M  V30 2471 H 245.191 2.93734 3.94944 0
M  V30 2472 N 246.843 -1.10192 1.12674 0
M  V30 2473 C 248.259 -1.34235 0.863317 0
M  V30 2474 C 248.459 -1.95062 -0.505277 0
M  V30 2475 O 247.515 -2.19192 -1.25345 0
M  V30 2476 C 248.828 -2.2616 1.98172 0
M  V30 2477 C 250.376 -2.3969 2.0129 0
M  V30 2478 C 250.851 -3.34946 3.1237 0
M  V30 2479 N 252.342 -3.42515 3.11829 0
M  V30 2480 C 253.077 -4.16199 3.94419 0
M  V30 2481 N 252.573 -4.92747 4.87004 0
M  V30 2482 N 254.366 -4.11843 3.82547 0
M  V30 2483 H 246.517 -0.690798 2.00853 0
M  V30 2484 H 248.78 -0.366774 0.874174 0
M  V30 2485 H 248.486 -1.8868 2.96804 0
M  V30 2486 H 248.36 -3.26488 1.88906 0
M  V30 2487 H 250.747 -2.76438 1.03276 0
M  V30 2488 H 250.828 -1.39169 2.14629 0
M  V30 2489 H 250.472 -2.98923 4.10619 0
M  V30 2490 H 250.402 -4.35353 2.96269 0
M  V30 2491 H 252.893 -2.87926 2.44759 0
M  V30 2492 H 253.206 -5.46376 5.46528 0
M  V30 2493 H 251.551 -4.91862 4.91016 0
M  V30 2494 H 254.742 -3.51136 3.0955 0
M  V30 2495 H 254.915 -4.69007 4.47142 0
M  V30 2496 N 248.321 -0.919034 -1.28029 0
M  V30 2497 C 249.551 -0.570143 -1.98577 0
M  V30 2498 C 249.959 0.854172 -1.68821 0
M  V30 2499 O 249.302 1.57807 -0.940351 0
M  V30 2500 C 249.364 -0.705734 -3.52505 0
M  V30 2501 C 249.028 -2.10057 -4.05863 0
M  V30 2502 C 250.025 -3.07385 -4.19298 0
M  V30 2503 C 247.71 -2.41517 -4.40426 0
M  V30 2504 C 249.704 -4.34287 -4.66555 0
M  V30 2505 C 247.391 -3.68657 -4.87376 0
M  V30 2506 C 248.389 -4.64856 -5.00398 0
M  V30 2507 O 248.077 -5.89735 -5.46322 0
M  V30 2508 H 247.809 -0.215592 -0.6407 0
M  V30 2509 H 250.363 -1.23583 -1.64062 0
M  V30 2510 H 248.593 0.0170414 -3.86696 0
M  V30 2511 H 250.282 -0.363172 -4.04272 0
M  V30 2512 H 251.048 -2.84398 -3.92865 0
M  V30 2513 H 246.927 -1.67389 -4.29537 0
M  V30 2514 H 250.471 -5.09377 -4.76635 0
M  V30 2515 H 246.368 -3.91466 -5.13249 0
M  V30 2516 H 247.136 -5.92599 -5.64596 0
M  V30 2517 N 249.799 1.42003 -0.683588 0
M  V30 2518 C 251.076 1.95112 -0.138075 0
M  V30 2519 C 251.456 1.62359 1.34918 0
M  V30 2520 O 250.804 0.924311 2.08971 0
M  V30 2521 C 251.014 3.46505 -0.416581 0
M  V30 2522 C 252.362 4.23254 -0.337834 0
M  V30 2523 O 253.386 3.54468 -0.35082 0
M  V30 2524 O 252.245 5.45743 -0.287596 0
M  V30 2525 H 249.339 0.826961 -0.00797996 0
M  V30 2526 H 251.885 1.51784 -0.758924 0
M  V30 2527 H 250.657 3.63582 -1.4465 0
M  V30 2528 H 250.28 3.969 0.235839 0
M  V30 2529 N 251.277 0.427512 1.51691 0
M  V30 2530 C 252.505 -0.141191 2.06418 0
M  V30 2531 C 252.92 -1.37303 1.29589 0
M  V30 2532 O 252.277 -1.79059 0.352732 0
M  V30 2533 C 252.328 -0.473266 3.58389 0
M  V30 2534 O 252.049 0.709673 4.32314 0
M  V30 2535 C 253.55 -1.09371 4.29596 0
M  V30 2536 H 250.77 -0.0122747 0.670888 0
M  V30 2537 H 253.314 0.603764 1.95384 0
M  V30 2538 H 251.469 -1.16812 3.69369 0
M  V30 2539 H 251.883 0.42807 5.2275 0
M  V30 2540 H 253.357 -1.27613 5.37046 0
M  V30 2541 H 253.834 -2.072 3.87253 0
M  V30 2542 H 254.44 -0.43853 4.23033 0
M  V30 2543 N 252.755 -1.56801 0.158532 0
M  V30 2544 C 253.985 -2.00568 -0.495583 0
M  V30 2545 C 254.393 -1.03774 -1.58201 0
M  V30 2546 O 253.736 -0.0285797 -1.83678 0
M  V30 2547 C 253.798 -3.40768 -1.14532 0
M  V30 2548 C 253.462 -4.56553 -0.202101 0
M  V30 2549 C 254.459 -5.16714 0.574675 0
M  V30 2550 C 252.144 -5.02197 -0.101648 0
M  V30 2551 C 254.138 -6.20939 1.43924 0
M  V30 2552 C 251.825 -6.06274 0.766508 0
M  V30 2553 C 252.823 -6.65515 1.53555 0
M  V30 2554 O 252.511 -7.67575 2.38922 0
M  V30 2555 H 252.243 -0.662893 -0.13247 0
M  V30 2556 H 254.797 -2.03829 0.253559 0
M  V30 2557 H 253.027 -3.34381 -1.94233 0
M  V30 2558 H 254.716 -3.6857 -1.70033 0
M  V30 2559 H 255.482 -4.82341 0.507167 0
M  V30 2560 H 251.361 -4.55807 -0.689994 0
M  V30 2561 H 254.905 -6.67107 2.03996 0
M  V30 2562 H 250.802 -6.40073 0.835266 0
M  V30 2563 H 251.57 -7.84844 2.32296 0
M  V30 2564 N 254.233 0.115231 -1.57178 0
M  V30 2565 C 255.458 0.840354 -1.89612 0
M  V30 2566 C 255.883 1.72464 -0.750845 0
M  V30 2567 O 255.241 1.78826 0.298478 0
M  V30 2568 C 255.289 1.64654 -3.20814 0
M  V30 2569 O 254.393 2.7538 -3.06985 0
M  V30 2570 H 253.734 0.232158 -0.622092 0
M  V30 2571 H 256.264 0.0964977 -2.04372 0
M  V30 2572 H 256.274 2.03499 -3.53627 0
M  V30 2573 H 254.949 0.997416 -4.03763 0
M  V30 2574 H 253.526 2.3971 -2.85646 0
M  V30 2575 N 255.711 1.52812 0.385517 0
M  V30 2576 C 256.959 1.67694 1.12797 0
M  V30 2577 C 257.28 0.421115 1.90399 0
M  V30 2578 O 256.55 -0.564551 1.87589 0
M  V30 2579 H 255.13 0.618155 0.419396 0
M  V30 2580 H 257.792 1.89938 0.436972 0
M  V30 2581 H 256.888 2.52896 1.82894 0
M  V30 2582 N 257.189 -0.644168 1.43834 0
M  V30 2583 C 258.605 -0.960875 1.27434 0
M  V30 2584 C 258.805 -2.00499 0.200618 0
M  V30 2585 O 257.861 -2.49018 -0.417906 0
M  V30 2586 C 259.174 -1.43653 2.64167 0
M  V30 2587 C 260.722 -1.55271 2.71772 0
M  V30 2588 C 261.197 -2.06224 4.08944 0
M  V30 2589 N 262.688 -2.13513 4.11055 0
M  V30 2590 C 263.423 -2.54081 5.14033 0
M  V30 2591 N 262.919 -2.9388 6.27381 0
M  V30 2592 N 264.712 -2.54101 5.01387 0
M  V30 2593 H 256.863 0.0465779 2.12349 0
M  V30 2594 H 259.126 -0.0417638 0.94708 0
M  V30 2595 H 258.832 -0.743706 3.43747 0
M  V30 2596 H 258.706 -2.40993 2.90176 0
M  V30 2597 H 261.093 -2.23653 1.92519 0
M  V30 2598 H 261.174 -0.563395 2.49519 0
M  V30 2599 H 260.818 -1.38441 4.88668 0
M  V30 2600 H 260.748 -3.06003 4.28567 0
M  V30 2601 H 263.239 -1.85493 3.29242 0
M  V30 2602 H 263.552 -3.2361 7.01781 0
M  V30 2603 H 261.897 -2.91663 6.30839 0
M  V30 2604 H 265.088 -2.22391 4.11898 0
M  V30 2605 H 265.261 -2.85394 5.81768 0
M  V30 2606 N 258.668 -1.30515 -0.883378 0
M  V30 2607 C 259.914 -1.19607 -1.63774 0
M  V30 2608 C 260.247 0.248314 -1.92606 0
M  V30 2609 O 259.522 1.17742 -1.54813 0
M  V30 2610 C 259.805 -2.02669 -2.97653 0
M  V30 2611 C 259.658 -3.55335 -2.75784 0
M  V30 2612 C 260.977 -1.86573 -3.98596 0
M  V30 2613 H 258.096 -0.435856 -0.594305 0
M  V30 2614 H 260.738 -1.60165 -1.02212 0
M  V30 2615 H 258.888 -1.68208 -3.50197 0
M  V30 2616 H 260.56 -3.99863 -2.30016 0
M  V30 2617 H 258.803 -3.79438 -2.1026 0
M  V30 2618 H 259.474 -4.08745 -3.70988 0
M  V30 2619 H 261.95 -2.16703 -3.55217 0
M  V30 2620 H 260.826 -2.47014 -4.90179 0
M  V30 2621 H 261.087 -0.825321 -4.34328 0
M  V30 2622 N 260.146 1.09593 -1.13257 0
M  V30 2623 C 261.392 1.82003 -0.89458 0
M  V30 2624 C 261.725 1.85402 0.577906 0
M  V30 2625 O 261 1.32099 1.42759 0
M  V30 2626 C 261.283 3.28237 -1.48096 0
M  V30 2627 C 261.136 3.3312 -3.02244 0
M  V30 2628 C 262.455 4.24871 -1.14774 0
M  V30 2629 H 259.574 0.66077 -0.326424 0
M  V30 2630 H 262.216 1.28389 -1.40058 0
M  V30 2631 H 260.366 3.74024 -1.05062 0
M  V30 2632 H 262.038 2.95748 -3.54021 0
M  V30 2633 H 260.281 2.72756 -3.37323 0
M  V30 2634 H 260.952 4.3613 -3.38371 0
M  V30 2635 H 263.428 3.87361 -1.51957 0
M  V30 2636 H 262.304 5.25532 -1.58452 0
M  V30 2637 H 262.565 4.42058 -0.0611849 0
M  V30 2638 N 261.624 0.925811 1.2754 0
M  V30 2639 C 263.04 0.625767 1.46821 0
M  V30 2640 C 263.24 -0.825506 1.83814 0
M  V30 2641 O 262.296 -1.60356 1.95044 0
M  V30 2642 C 263.609 1.57402 2.56213 0
M  V30 2643 C 265.157 1.58204 2.70075 0
M  V30 2644 C 265.632 2.51721 3.82623 0
M  V30 2645 N 267.123 2.49917 3.89994 0
M  V30 2646 C 267.858 3.18968 4.76494 0
M  V30 2647 N 267.354 3.97391 5.67496 0
M  V30 2648 N 269.147 3.07996 4.70208 0
M  V30 2649 H 261.298 1.86409 1.01811 0
M  V30 2650 H 263.561 0.800213 0.508295 0
M  V30 2651 H 263.267 2.60925 2.35819 0
M  V30 2652 H 263.141 1.31428 3.53563 0
M  V30 2653 H 265.528 0.554124 2.89851 0
M  V30 2654 H 265.609 1.88226 1.73218 0
M  V30 2655 H 265.253 3.54622 3.63601 0
M  V30 2656 H 265.183 2.18996 4.78903 0
M  V30 2657 H 267.674 1.9296 3.24923 0
M  V30 2658 H 267.987 4.4707 6.30356 0
M  V30 2659 H 266.332 4.01495 5.67298 0
M  V30 2660 H 269.523 2.46223 3.9811 0
M  V30 2661 H 269.696 3.6208 5.37403 0
M  V30 2662 N 263.102 -1.41638 0.69111 0
M  V30 2663 C 264.052 -2.28 -0.000107832 0
M  V30 2664 C 265.036 -1.41964 -0.757304 0
M  V30 2665 O 266.228 -1.65274 -0.633532 0
M  V30 2666 C 263.357 -3.30209 -0.938983 0
M  V30 2667 C 262.443 -4.23725 -0.17827 0
M  V30 2668 N 262.834 -4.99017 0.825563 0
M  V30 2669 C 261.132 -4.44071 -0.414392 0
M  V30 2670 C 261.833 -5.67431 1.28052 0
M  V30 2671 N 260.809 -5.40197 0.607304 0
M  V30 2672 H 264.611 -2.83644 0.769617 0
M  V30 2673 H 262.125 -1.53797 0.521562 0
M  V30 2674 H 264.122 -3.90898 -1.44929 0
M  V30 2675 H 262.782 -2.76126 -1.70836 0
M  V30 2676 H 263.793 -5.03671 1.20566 0
M  V30 2677 H 260.47 -4.01004 -1.162 0
M  V30 2678 H 261.86 -6.37801 2.11327 0
M  V30 2679 N 264.58 -0.43555 -1.51462 0
M  V30 2680 C 265.827 0.131514 -2.02072 0
M  V30 2681 C 266.155 1.42868 -1.31981 0
M  V30 2682 O 265.41 1.91076 -0.422883 0
M  V30 2683 C 265.709 0.39942 -3.55161 0
M  V30 2684 C 265.375 -0.81172 -4.43533 0
M  V30 2685 C 264.037 -1.14387 -4.67407 0
M  V30 2686 C 266.389 -1.61976 -4.95392 0
M  V30 2687 C 263.717 -2.28477 -5.40384 0
M  V30 2688 C 266.069 -2.75164 -5.6962 0
M  V30 2689 C 264.733 -3.08835 -5.91758 0
M  V30 2690 H 264.003 0.0481244 -0.739436 0
M  V30 2691 H 266.65 -0.58238 -1.8243 0
M  V30 2692 H 264.955 1.19519 -3.73125 0
M  V30 2693 H 266.652 0.85157 -3.91854 0
M  V30 2694 H 263.242 -0.542898 -4.25148 0
M  V30 2695 H 267.426 -1.37637 -4.76833 0
M  V30 2696 H 262.682 -2.5488 -5.55739 0
M  V30 2697 H 266.856 -3.38147 -6.08793 0
M  V30 2698 H 264.483 -3.97353 -6.48086 0
M  V30 2699 N 266.058 1.56714 -0.166846 0
M  V30 2700 C 267.005 2.17746 0.765193 0
M  V30 2701 C 267.975 1.11614 1.23011 0
M  V30 2702 O 269.16 1.39745 1.29908 0
M  V30 2703 C 266.3 2.81882 1.9909 0
M  V30 2704 C 265.413 4.02462 1.56997 0
M  V30 2705 C 264.548 4.54537 2.749 0
M  V30 2706 C 263.587 5.67538 2.29275 0
M  V30 2707 N 262.724 6.14142 3.40255 0
M  V30 2708 H 267.564 2.97048 0.237952 0
M  V30 2709 H 265.101 1.4672 0.105725 0
M  V30 2710 H 267.059 3.17221 2.70974 0
M  V30 2711 H 265.689 2.05191 2.49192 0
M  V30 2712 H 264.741 3.72973 0.748037 0
M  V30 2713 H 266.053 4.84273 1.19503 0
M  V30 2714 H 265.207 4.92035 3.54946 0
M  V30 2715 H 263.946 3.71774 3.1565 0
M  V30 2716 H 262.951 5.29597 1.47674 0
M  V30 2717 H 264.176 6.52099 1.89588 0
M  V30 2718 H 262.122 5.3431 3.8059 0
M  V30 2719 H 262.039 6.9093 3.06841 0
M  V30 2720 H 263.307 6.56289 4.206 0
M  V30 2721 N 267.536 -0.106894 1.57237 0
M  V30 2722 C 268.784 -0.810921 1.85117 0
M  V30 2723 C 269.105 -1.7984 0.753827 0
M  V30 2724 O 268.375 -1.94649 -0.221056 0
M  V30 2725 H 266.955 -0.302466 0.683025 0
M  V30 2726 H 269.617 -0.0913324 1.94686 0
M  V30 2727 H 268.713 -1.34875 2.81452 0
M  V30 2728 N 269.014 -1.53014 -0.377408 0
M  V30 2729 C 270.239 -1.72818 -1.14668 0
M  V30 2730 C 270.664 -0.450725 -1.8262 0
M  V30 2731 O 270.022 0.59439 -1.7128 0
M  V30 2732 C 270.07 -2.88627 -2.16164 0
M  V30 2733 O 269.174 -2.56409 -3.22998 0
M  V30 2734 H 268.515 -0.574301 -0.333278 0
M  V30 2735 H 271.045 -1.99853 -0.438152 0
M  V30 2736 H 271.055 -3.14455 -2.59966 0
M  V30 2737 H 269.73 -3.81294 -1.66095 0
M  V30 2738 H 268.307 -2.4136 -2.84253 0
M  V30 2739 N 270.492 0.636531 -1.44174 0
M  V30 2740 C 271.425 1.76139 -1.45087 0
M  V30 2741 C 272.403 1.59611 -0.310326 0
M  V30 2742 O 273.587 1.81568 -0.506477 0
M  V30 2743 C 270.714 3.13648 -1.27839 0
M  V30 2744 C 269.76 3.48838 -2.45386 0
M  V30 2745 S 270.593 3.46927 -4.07924 0
M  V30 2746 C 271.749 4.87064 -3.9309 0
M  V30 2747 H 271.982 1.75096 -2.40268 0
M  V30 2748 H 269.515 0.810666 -1.31406 0
M  V30 2749 H 271.473 3.93002 -1.18575 0
M  V30 2750 H 270.134 3.12235 -0.341787 0
M  V30 2751 H 269.327 4.48886 -2.29167 0
M  V30 2752 H 268.929 2.76935 -2.51362 0
M  V30 2753 H 271.221 5.76153 -3.56446 0
M  V30 2754 H 272.164 5.08337 -4.92949 0
M  V30 2755 H 272.572 4.61384 -3.25246 0
M  V30 2756 N 271.97 1.30982 0.876444 0
M  V30 2757 C 272.88 1.2003 2.01569 0
M  V30 2758 C 273.896 0.11838 1.73597 0
M  V30 2759 O 275.072 0.33495 1.98595 0
M  V30 2760 C 272.137 0.901637 3.34771 0
M  V30 2761 C 271.198 2.06979 3.76109 0
M  V30 2762 C 270.431 1.78529 5.02954 0
M  V30 2763 O 270.654 0.717296 5.65872 0
M  V30 2764 O 269.588 2.64019 5.40905 0
M  V30 2765 H 273.414 2.15753 2.13739 0
M  V30 2766 H 270.999 1.10658 1.00375 0
M  V30 2767 H 272.881 0.750645 4.1466 0
M  V30 2768 H 271.556 -0.0256141 3.2369 0
M  V30 2769 H 270.463 2.27616 2.96887 0
M  V30 2770 H 271.796 2.97907 3.91807 0
M  V30 2771 N 273.449 -1.08991 1.13837 0
M  V30 2772 C 274.359 -2.19301 0.833333 0
M  V30 2773 C 275.375 -1.73026 -0.183847 0
M  V30 2774 O 276.551 -2.01395 -0.0138092 0
M  V30 2775 C 273.616 -3.45323 0.308651 0
M  V30 2776 C 272.677 -4.06255 1.38764 0
M  V30 2777 C 271.91 -5.26262 0.887896 0
M  V30 2778 O 272.133 -5.69747 -0.27287 0
M  V30 2779 O 271.067 -5.78435 1.66421 0
M  V30 2780 H 274.893 -2.47854 1.75506 0
M  V30 2781 H 272.478 -1.18012 0.916166 0
M  V30 2782 H 274.36 -4.21394 0.0216739 0
M  V30 2783 H 273.035 -3.18362 -0.585431 0
M  V30 2784 H 271.942 -3.318 1.72799 0
M  V30 2785 H 273.275 -4.37452 2.25602 0
M  V30 2786 N 274.927 -0.932562 -1.27047 0
M  V30 2787 C 276.173 -0.585913 -1.94778 0
M  V30 2788 C 276.528 0.864142 -1.71902 0
M  V30 2789 O 275.821 1.60894 -1.04037 0
M  V30 2790 C 276.015 -0.853713 -3.47054 0
M  V30 2791 C 275.844 -2.32825 -3.84737 0
M  V30 2792 C 274.614 -2.98184 -4.07939 0
M  V30 2793 C 276.812 -3.30612 -3.93954 0
M  V30 2794 N 274.794 -4.3574 -4.3244 0
M  V30 2795 C 276.165 -4.53395 -4.22887 0
M  V30 2796 C 278.22 -3.25755 -3.76548 0
M  V30 2797 C 276.923 -5.71927 -4.36224 0
M  V30 2798 C 278.949 -4.43604 -3.91113 0
M  V30 2799 C 278.311 -5.65166 -4.20437 0
M  V30 2800 H 274.41 -0.264617 -0.735868 0
M  V30 2801 H 276.994 -1.20019 -1.53309 0
M  V30 2802 H 275.165 -0.268557 -3.8747 0
M  V30 2803 H 276.897 -0.469202 -4.01971 0
M  V30 2804 H 273.652 -2.48835 -4.02961 0
M  V30 2805 H 274.076 -5.06915 -4.48738 0
M  V30 2806 H 278.718 -2.32835 -3.52913 0
M  V30 2807 H 276.436 -6.65308 -4.58683 0
M  V30 2808 H 280.022 -4.41368 -3.79059 0
M  V30 2809 H 278.902 -6.54836 -4.31462 0
M  V30 2810 N 276.405 1.4127 -0.698611 0
M  V30 2811 C 277.337 2.292 0.00399731 0
M  V30 2812 C 278.35 1.44944 0.741279 0
M  V30 2813 O 279.539 1.68416 0.591477 0
M  V30 2814 C 276.639 3.22875 1.02979 0
M  V30 2815 C 275.812 4.35904 0.36151 0
M  V30 2816 C 274.871 5.10134 1.29033 0
M  V30 2817 O 273.897 5.63809 0.781562 0
M  V30 2818 N 275.099 5.17885 2.6225 0
M  V30 2819 H 277.864 2.9014 -0.750921 0
M  V30 2820 H 275.425 1.52455 -0.544882 0
M  V30 2821 H 277.417 3.69404 1.65296 0
M  V30 2822 H 275.987 2.63221 1.68622 0
M  V30 2823 H 275.207 3.91719 -0.441584 0
M  V30 2824 H 276.495 5.08696 -0.103055 0
M  V30 2825 H 275.893 4.7573 3.061 0
M  V30 2826 H 274.45 5.6798 3.19754 0
M  V30 2827 N 277.883 0.443576 1.51229 0
M  V30 2828 C 278.846 -0.353132 2.26463 0
M  V30 2829 C 279.846 -0.944338 1.3015 0
M  V30 2830 O 281.036 -0.817813 1.5381 0
M  V30 2831 C 278.168 -1.50023 3.06114 0
M  V30 2832 H 279.361 0.3063 2.98332 0
M  V30 2833 H 276.914 0.196902 1.55055 0
M  V30 2834 H 277.649 -2.19553 2.38677 0
M  V30 2835 H 277.434 -1.08241 3.76864 0
M  V30 2836 H 278.924 -2.06296 3.63087 0
M  V30 2837 N 279.361 -1.56624 0.175154 0
M  V30 2838 C 280.294 -2.14 -0.792412 0
M  V30 2839 C 281.272 -1.07114 -1.22333 0
M  V30 2840 O 282.456 -1.35112 -1.31442 0
M  V30 2841 C 279.583 -2.68268 -2.0676 0
M  V30 2842 C 278.629 -3.87562 -1.7804 0
M  V30 2843 S 279.462 -5.27074 -0.946222 0
M  V30 2844 C 280.618 -5.8475 -2.23199 0
M  V30 2845 H 280.851 -2.95736 -0.304588 0
M  V30 2846 H 278.384 -1.54349 -0.0395705 0
M  V30 2847 H 280.342 -3.00182 -2.80002 0
M  V30 2848 H 279.003 -1.86612 -2.52656 0
M  V30 2849 H 278.196 -4.23874 -2.72666 0
M  V30 2850 H 277.798 -3.56555 -1.12891 0
M  V30 2851 H 280.09 -5.97898 -3.18629 0
M  V30 2852 H 281.033 -6.81756 -1.91349 0
M  V30 2853 H 281.441 -5.13198 -2.35134 0
M  V30 2854 N 280.839 0.0985539 -1.57292 0
M  V30 2855 C 282.087 0.801092 -1.85545 0
M  V30 2856 C 282.408 1.79438 -0.763353 0
M  V30 2857 O 281.678 1.94763 0.21073 0
M  V30 2858 H 280.258 0.29884 -0.684619 0
M  V30 2859 H 282.92 0.0810064 -1.94732 0
M  V30 2860 H 282.016 1.3338 -2.82163 0
M  V30 2861 N 282.317 1.53212 0.369288 0
M  V30 2862 C 283.563 1.69466 1.11397 0
M  V30 2863 C 283.896 0.443257 1.89074 0
M  V30 2864 O 283.171 -0.559386 1.86282 0
M  V30 2865 C 283.454 2.9422 2.07621 0
M  V30 2866 C 283.307 4.29508 1.33577 0
M  V30 2867 C 284.626 3.14565 3.07794 0
M  V30 2868 H 281.745 0.616667 0.403597 0
M  V30 2869 H 284.387 1.85845 0.395179 0
M  V30 2870 H 282.537 2.80387 2.68916 0
M  V30 2871 H 284.209 4.55147 0.750955 0
M  V30 2872 H 282.452 4.29088 0.637618 0
M  V30 2873 H 283.123 5.12926 2.03989 0
M  V30 2874 H 285.599 3.2756 2.56601 0
M  V30 2875 H 284.475 4.03297 3.72348 0
M  V30 2876 H 284.736 2.29675 3.77759 0
M  V30 2877 N 283.795 -0.628877 1.44509 0
M  V30 2878 C 284.728 -1.75367 1.46019 0
M  V30 2879 C 285.706 -1.59444 0.318787 0
M  V30 2880 O 286.89 -1.81297 0.516099 0
M  V30 2881 C 284.017 -3.12965 1.29501 0
M  V30 2882 C 283.063 -3.47532 2.47233 0
M  V30 2883 S 283.896 -3.44758 4.09758 0
M  V30 2884 C 285.052 -4.84973 3.95667 0
M  V30 2885 H 285.285 -1.7382 2.41193 0
M  V30 2886 H 282.818 -0.803686 1.31834 0
M  V30 2887 H 284.776 -3.92367 1.20658 0
M  V30 2888 H 283.437 -3.12049 0.358341 0
M  V30 2889 H 282.63 -4.47664 2.31544 0
M  V30 2890 H 282.232 -2.75598 2.52828 0
M  V30 2891 H 284.524 -5.74255 3.59496 0
M  V30 2892 H 285.467 -5.05716 4.95638 0
M  V30 2893 H 285.875 -4.59653 3.27688 0
M  V30 2894 N 285.273 -1.31445 -0.869486 0
M  V30 2895 C 286.221 -1.19067 -1.99814 0
M  V30 2896 C 287.215 -0.0988569 -1.69111 0
M  V30 2897 O 288.421 -0.260781 -1.78101 0
M  V30 2898 H 284.796 -0.368677 -0.655425 0
M  V30 2899 H 286.767 -2.14555 -2.07385 0
M  V30 2900 C 285.516 -0.915323 -3.35436 0
M  V30 2901 H 284.839 -1.74759 -3.59582 0
M  V30 2902 H 286.279 -0.868895 -4.15001 0
M  V30 2903 C 284.738 0.381928 -3.34728 0
M  V30 2904 O 285.268 1.39857 -3.76567 0
M  V30 2905 N 283.474 0.398633 -2.87853 0
M  V30 2906 H 283.021 -0.429186 -2.54 0
M  V30 2907 H 282.979 1.26651 -2.87762 0
M  V30 2908 N 286.751 1.08385 -1.14413 0
M  V30 2909 C 287.981 1.8425 -0.934644 0
M  V30 2910 C 288.389 1.81907 0.520234 0
M  V30 2911 O 287.732 1.22126 1.37226 0
M  V30 2912 C 287.794 3.32853 -1.35828 0
M  V30 2913 C 287.458 3.5893 -2.82875 0
M  V30 2914 C 288.455 3.53756 -3.80989 0
M  V30 2915 C 286.14 3.86934 -3.20293 0
M  V30 2916 C 288.134 3.76216 -5.14529 0
M  V30 2917 C 285.821 4.09047 -4.54008 0
M  V30 2918 C 286.819 4.03682 -5.50936 0
M  V30 2919 O 286.507 4.25214 -6.82238 0
M  V30 2920 H 286.239 0.588502 -0.332628 0
M  V30 2921 H 288.793 1.37792 -1.52324 0
M  V30 2922 H 287.023 3.8007 -0.713019 0
M  V30 2923 H 288.712 3.90154 -1.11957 0
M  V30 2924 H 289.478 3.32135 -3.53428 0
M  V30 2925 H 285.357 3.9023 -2.45442 0
M  V30 2926 H 288.901 3.71943 -5.90173 0
M  V30 2927 H 284.798 4.30151 -4.8129 0
M  V30 2928 H 285.566 4.42619 -6.88499 0
M  V30 2929 N 288.23 0.939286 1.26551 0
M  V30 2930 C 289.14 0.453432 2.30176 0
M  V30 2931 C 290.156 -0.471649 1.67486 0
M  V30 2932 O 291.332 -0.35164 1.98306 0
M  V30 2933 C 288.397 -0.275326 3.45605 0
M  V30 2934 C 287.458 0.686084 4.23782 0
M  V30 2935 C 286.691 -0.00798994 5.33699 0
M  V30 2936 O 286.914 -1.22528 5.57085 0
M  V30 2937 O 285.848 0.669746 5.98162 0
M  V30 2938 H 289.674 1.31416 2.73795 0
M  V30 2939 H 287.259 0.705095 1.31715 0
M  V30 2940 H 289.141 -0.685911 4.1578 0
M  V30 2941 H 287.816 -1.11147 3.0402 0
M  V30 2942 H 286.723 1.14658 3.56096 0
M  V30 2943 H 288.056 1.48979 4.69112 0
M  V30 2944 N 289.708 -1.40897 0.706093 0
M  V30 2945 C 290.641 -2.282 -0.00328781 0
M  V30 2946 C 291.619 -1.42816 -0.77732 0
M  V30 2947 O 292.803 -1.72237 -0.765944 0
M  V30 2948 C 289.93 -3.23226 -1.01205 0
M  V30 2949 C 288.976 -4.25222 -0.329955 0
M  V30 2950 S 289.809 -5.27269 0.935298 0
M  V30 2951 C 290.965 -6.25859 -0.0716061 0
M  V30 2952 H 291.198 -2.88016 0.737143 0
M  V30 2953 H 288.731 -1.46191 0.496756 0
M  V30 2954 H 290.689 -3.78503 -1.58888 0
M  V30 2955 H 289.35 -2.62485 -1.72513 0
M  V30 2956 H 288.543 -4.92023 -1.09221 0
M  V30 2957 H 288.145 -3.73595 0.174069 0
M  V30 2958 H 290.437 -6.71204 -0.921521 0
M  V30 2959 H 291.38 -7.0586 0.562765 0
M  V30 2960 H 291.788 -5.62852 -0.431088 0
M  V30 2961 N 291.186 -0.45159 -1.50991 0
M  V30 2962 C 292.096 0.358431 -2.31846 0
M  V30 2963 C 293.112 1.01438 -1.41373 0
M  V30 2964 O 294.288 1.00663 -1.74439 0
M  V30 2965 C 291.353 1.43704 -3.15515 0
M  V30 2966 C 290.414 0.799742 -4.21785 0
M  V30 2967 C 289.647 1.82696 -5.01456 0
M  V30 2968 O 289.87 3.05105 -4.81941 0
M  V30 2969 O 288.804 1.40958 -5.85162 0
M  V30 2970 H 292.63 -0.302032 -3.02194 0
M  V30 2971 H 290.215 -0.213825 -1.47862 0
M  V30 2972 H 292.097 2.06227 -3.67489 0
M  V30 2973 H 290.772 2.08133 -2.47916 0
M  V30 2974 H 289.679 0.136084 -3.73852 0
M  V30 2975 H 291.012 0.198718 -4.91799 0
M  V30 2976 N 292.664 1.56529 -0.183458 0
M  V30 2977 C 293.889 2.02064 0.467428 0
M  V30 2978 C 294.314 1.06282 1.55196 0
M  V30 2979 O 293.672 0.0443565 1.81246 0
M  V30 2980 C 293.72 3.46122 1.01153 0
M  V30 2981 O 292.824 3.53437 2.12499 0
M  V30 2982 H 292.165 0.654726 0.110588 0
M  V30 2983 H 294.695 2.02521 -0.290917 0
M  V30 2984 H 294.705 3.85676 1.33108 0
M  V30 2985 H 293.38 4.15331 0.217533 0
M  V30 2986 H 291.957 3.2575 1.81497 0
M  V30 2987 N 294.142 -0.090211 1.57342 0
M  V30 2988 C 295.105 -1.09335 2.01441 0
M  V30 2989 C 296.105 -1.32666 0.908641 0
M  V30 2990 O 297.295 -1.28697 1.174 0
M  V30 2991 C 294.427 -2.44136 2.3793 0
M  V30 2992 H 295.62 -0.713662 2.91285 0
M  V30 2993 H 293.173 -0.335404 1.52659 0
M  V30 2994 H 293.908 -2.86972 1.51055 0
M  V30 2995 H 293.693 -2.28548 3.18603 0
M  V30 2996 H 295.183 -3.16277 2.72688 0
M  V30 2997 N 295.62 -1.53406 -0.361157 0
M  V30 2998 C 296.848 -1.73717 -1.12383 0
M  V30 2999 C 297.263 -0.468161 -1.82904 0
M  V30 3000 O 296.62 0.559198 -1.73722 0
M  V30 3001 C 296.671 -2.90558 -2.15078 0
M  V30 3002 O 296.392 -4.12549 -1.47428 0
M  V30 3003 C 297.893 -3.22777 -3.03858 0
M  V30 3004 H 295.113 -0.580896 -0.335858 0
M  V30 3005 H 297.657 -2.00167 -0.418728 0
M  V30 3006 H 295.812 -2.66489 -2.8118 0
M  V30 3007 H 296.226 -4.78009 -2.15887 0
M  V30 3008 H 297.7 -4.07927 -3.71887 0
M  V30 3009 H 298.177 -2.38329 -3.68912 0
M  V30 3010 H 298.783 -3.48787 -2.43367 0
M  V30 3011 N 297.098 0.621204 -1.44841 0
M  V30 3012 C 298.028 1.74366 -1.55303 0
M  V30 3013 C 299.009 1.65199 -0.405385 0
M  V30 3014 O 300.194 1.83807 -0.626787 0
M  V30 3015 C 297.324 3.12931 -1.50637 0
M  V30 3016 C 296.278 3.36896 -2.63979 0
M  V30 3017 C 295.604 4.75594 -2.44366 0
M  V30 3018 C 296.904 3.28483 -4.06074 0
M  V30 3019 H 298.598 1.65867 -2.49256 0
M  V30 3020 H 296.144 0.796558 -1.19962 0
M  V30 3021 H 298.097 3.9124 -1.56555 0
M  V30 3022 H 296.821 3.22237 -0.532057 0
M  V30 3023 H 295.48 2.60972 -2.57467 0
M  V30 3024 H 295.128 4.81616 -1.45105 0
M  V30 3025 H 294.828 4.92586 -3.20364 0
M  V30 3026 H 296.352 5.5612 -2.52117 0
M  V30 3027 H 297.766 3.96684 -4.13902 0
M  V30 3028 H 296.163 3.57008 -4.82354 0
M  V30 3029 H 297.233 2.26133 -4.28943 0
M  V30 3030 N 298.576 1.31904 0.862503 0
M  V30 3031 C 299.506 1.22782 1.98612 0
M  V30 3032 C 300.487 0.113362 1.69722 0
M  V30 3033 O 301.672 0.299218 1.91881 0
M  V30 3034 C 298.802 0.942058 3.34279 0
M  V30 3035 C 297.756 2.0169 3.77499 0
M  V30 3036 C 297.082 1.58369 5.10709 0
M  V30 3037 C 298.382 3.43096 3.93805 0
M  V30 3038 H 300.076 2.16788 2.06502 0
M  V30 3039 H 297.622 1.04366 0.992154 0
M  V30 3040 H 299.575 0.864818 4.1243 0
M  V30 3041 H 298.299 -0.0336603 3.26583 0
M  V30 3042 H 296.958 2.08416 3.01593 0
M  V30 3043 H 296.606 0.595628 4.99461 0
M  V30 3044 H 296.306 2.30279 5.40597 0
M  V30 3045 H 297.83 1.52067 5.91361 0
M  V30 3046 H 299.244 3.39003 4.62331 0
M  V30 3047 H 297.641 4.13288 4.35101 0
M  V30 3048 H 298.711 3.83334 2.96957 0
M  V30 3049 N 300.054 -1.07777 1.14986 0
M  V30 3050 C 301.282 -1.84018 0.945773 0
M  V30 3051 C 301.697 -1.81897 -0.505863 0
M  V30 3052 O 301.054 -1.22726 -1.35072 0
M  V30 3053 C 301.105 -3.31287 1.44677 0
M  V30 3054 O 300.826 -3.33449 2.84154 0
M  V30 3055 C 302.327 -4.24311 1.28355 0
M  V30 3056 H 299.547 -0.580716 0.336169 0
M  V30 3057 H 302.091 -1.36077 1.52654 0
M  V30 3058 H 300.246 -3.76594 0.908625 0
M  V30 3059 H 300.66 -4.25427 3.06777 0
M  V30 3060 H 302.134 -5.2573 1.68261 0
M  V30 3061 H 302.611 -4.38612 0.227184 0
M  V30 3062 H 303.217 -3.84836 1.81056 0
M  V30 3063 N 301.532 -0.945985 -1.26051 0
M  V30 3064 C 302.465 -0.403619 -2.24602 0
M  V30 3065 C 303.443 0.510241 -1.54387 0
M  V30 3066 O 304.627 0.446593 -1.83133 0
M  V30 3067 C 301.754 0.419564 -3.36091 0
M  V30 3068 C 300.8 -0.433454 -4.24292 0
M  V30 3069 S 301.633 -1.86037 -5.02146 0
M  V30 3070 C 302.789 -1.04538 -6.17108 0
M  V30 3071 H 303.022 -1.23883 -2.7026 0
M  V30 3072 H 300.555 -0.749438 -1.34992 0
M  V30 3073 H 302.513 0.888595 -4.00767 0
M  V30 3074 H 301.174 1.22951 -2.89036 0
M  V30 3075 H 300.367 0.197486 -5.03613 0
M  V30 3076 H 299.969 -0.837357 -3.64506 0
M  V30 3077 H 302.261 -0.289923 -6.76879 0
M  V30 3078 H 303.204 -1.81222 -6.84518 0
M  V30 3079 H 303.612 -0.579319 -5.61519 0
M  V30 3080 N 303.011 1.40521 -0.713556 0
M  V30 3081 C 304.251 2.02783 -0.256584 0
M  V30 3082 C 304.615 1.55352 1.12827 0
M  V30 3083 O 305.816 2.09663 1.68211 0
M  V30 3084 C 304.087 3.5586 -0.331414 0
M  V30 3085 S 305.646 4.38773 0.0488703 0
M  V30 3086 H 302.464 0.703655 -0.101934 0
M  V30 3087 H 305.066 1.71674 -0.935325 0
M  V30 3088 H 303.77 3.87874 -1.34098 0
M  V30 3089 H 303.301 3.91695 0.365873 0
M  V30 3090 H 305.316 4.79633 1.2715 0
M  V30 3091 N 304.489 0.459591 1.5075 0
M  V30 3092 C 305.452 -0.329093 2.26825 0
M  V30 3093 C 306.452 -0.930481 1.31144 0
M  V30 3094 O 307.642 -0.801453 1.54669 0
M  V30 3095 C 304.774 -1.46768 3.07688 0
M  V30 3096 H 305.967 0.337924 2.9799 0
M  V30 3097 H 303.52 0.213336 1.54837 0
M  V30 3098 H 304.255 -2.17009 2.40993 0
M  V30 3099 H 304.04 -1.04238 3.77991 0
M  V30 3100 H 305.53 -2.02433 3.65254 0
M  V30 3101 N 305.967 -1.56429 0.191757 0
M  V30 3102 C 307.192 -2.02309 -0.456706 0
M  V30 3103 C 307.617 -1.07103 -1.5463 0
M  V30 3104 O 306.975 -0.0539677 -1.8122 0
M  V30 3105 C 307.023 -3.46654 -0.993159 0
M  V30 3106 O 306.127 -3.54559 -2.10622 0
M  V30 3107 H 305.468 -0.655303 -0.107114 0
M  V30 3108 H 307.998 -2.02364 0.301653 0
M  V30 3109 H 308.008 -3.86377 -1.31061 0
M  V30 3110 H 306.683 -4.1544 -0.195504 0
M  V30 3111 H 305.26 -3.26708 -1.79767 0
M  V30 3112 N 307.445 0.0818655 -1.57387 0
M  V30 3113 C 308.377 1.12484 -1.997 0
M  V30 3114 C 309.39 1.35564 -0.90146 0
M  V30 3115 O 310.579 1.33982 -1.17945 0
M  V30 3116 C 307.679 2.47778 -2.31213 0
M  V30 3117 C 306.852 2.44793 -3.62485 0
M  V30 3118 C 305.911 3.62117 -3.81782 0
M  V30 3119 O 304.937 3.44005 -4.53486 0
M  V30 3120 N 306.139 4.82094 -3.23367 0
M  V30 3121 H 308.904 0.764585 -2.89783 0
M  V30 3122 H 306.465 0.270664 -1.59621 0
M  V30 3123 H 308.457 3.24891 -2.41304 0
M  V30 3124 H 307.027 2.75843 -1.4707 0
M  V30 3125 H 306.247 1.53134 -3.6324 0
M  V30 3126 H 307.535 2.39889 -4.48699 0
M  V30 3127 H 306.933 4.99713 -2.65148 0
M  V30 3128 H 305.49 5.56753 -3.38923 0
M  V30 3129 N 308.923 1.53595 0.353017 0
M  V30 3130 C 310.171 1.70049 1.09215 0
M  V30 3131 C 310.492 0.461406 1.89463 0
M  V30 3132 O 309.762 -0.524633 1.88744 0
M  V30 3133 H 308.342 0.626912 0.40619 0
M  V30 3134 H 311.004 1.90822 0.396585 0
M  V30 3135 H 310.1 2.56718 1.77488 0
M  V30 3136 N 310.401 -0.613514 1.45168 0
M  V30 3137 C 311.331 -1.7354 1.56225 0
M  V30 3138 C 312.312 -1.64981 0.41414 0
M  V30 3139 O 313.497 -1.83472 0.636526 0
M  V30 3140 C 310.627 -3.12128 1.52295 0
M  V30 3141 C 309.581 -3.35491 2.65762 0
M  V30 3142 C 308.907 -4.74291 2.46885 0
M  V30 3143 C 310.207 -3.26325 4.0781 0
M  V30 3144 H 311.901 -1.64543 2.50132 0
M  V30 3145 H 309.447 -0.790185 1.20383 0
M  V30 3146 H 311.4 -3.90404 1.58628 0
M  V30 3147 H 310.124 -3.2195 0.549139 0
M  V30 3148 H 308.783 -2.59603 2.58847 0
M  V30 3149 H 308.431 -4.80839 1.47657 0
M  V30 3150 H 308.131 -4.9088 3.22972 0
M  V30 3151 H 309.655 -5.54775 2.55063 0
M  V30 3152 H 311.069 -3.94483 4.16 0
M  V30 3153 H 309.466 -3.54445 4.8424 0
M  V30 3154 H 310.536 -2.23855 4.30136 0
M  V30 3155 N 311.879 -1.3236 -0.855495 0
M  V30 3156 C 313.295 -1.11332 -1.14356 0
M  V30 3157 C 313.495 0.106751 -2.01217 0
M  V30 3158 O 312.551 0.791891 -2.39761 0
M  V30 3159 C 313.864 -2.39237 -1.82171 0
M  V30 3160 C 315.412 -2.44986 -1.9481 0
M  V30 3161 C 315.887 -3.7281 -2.66039 0
M  V30 3162 N 317.378 -3.73787 -2.73565 0
M  V30 3163 C 318.113 -4.69394 -3.29327 0
M  V30 3164 N 317.609 -5.75367 -3.85907 0
M  V30 3165 N 319.402 -4.56893 -3.27423 0
M  V30 3166 H 311.553 -2.10586 -0.277027 0
M  V30 3167 H 313.816 -0.929701 -0.185364 0
M  V30 3168 H 313.522 -3.28431 -1.25802 0
M  V30 3169 H 313.396 -2.50134 -2.82335 0
M  V30 3170 H 315.783 -1.56252 -2.50338 0
M  V30 3171 H 315.864 -2.38043 -0.936448 0
M  V30 3172 H 315.508 -4.61918 -2.11174 0
M  V30 3173 H 315.438 -3.77024 -3.67642 0
M  V30 3174 H 317.929 -2.97189 -2.33424 0
M  V30 3175 H 318.242 -6.44378 -4.26611 0
M  V30 3176 H 316.587 -5.79123 -3.84242 0
M  V30 3177 H 319.778 -3.73269 -2.82467 0
M  V30 3178 H 319.951 -5.31577 -3.7058 0
M  V30 3179 N 313.357 1.07166 -1.15556 0
M  V30 3180 C 314.32 2.12589 -0.856644 0
M  V30 3181 C 315.32 1.6015 0.14444 0
M  V30 3182 O 316.51 1.7399 -0.0854163 0
M  V30 3183 C 313.642 3.39753 -0.279405 0
M  V30 3184 H 314.835 2.40539 -1.79112 0
M  V30 3185 H 312.388 1.23086 -0.963298 0
M  V30 3186 H 313.123 3.17447 0.663174 0
M  V30 3187 H 312.908 3.79117 -1.00063 0
M  V30 3188 H 314.398 4.17507 -0.0879113 0
M  V30 3189 N 314.835 0.952656 1.25548 0
M  V30 3190 C 316.083 0.605176 1.92826 0
M  V30 3191 C 316.404 -0.860261 1.74999 0
M  V30 3192 O 315.674 -1.6125 1.11244 0
M  V30 3193 H 314.254 0.220832 0.713612 0
M  V30 3194 H 316.916 1.21047 1.52754 0
M  V30 3195 H 316.012 0.832798 3.00784 0
M  V30 3196 N 316.313 -1.40141 0.720998 0
M  V30 3197 C 317.246 -2.2819 0.020916 0
M  V30 3198 C 318.224 -1.43633 -0.762129 0
M  V30 3199 O 319.408 -1.7304 -0.747633 0
M  V30 3200 C 316.535 -3.24281 -0.977715 0
M  V30 3201 C 315.581 -4.25548 -0.284836 0
M  V30 3202 S 316.414 -5.26247 0.991169 0
M  V30 3203 C 317.57 -6.259 -0.0052214 0
M  V30 3204 H 317.803 -2.87218 0.767649 0
M  V30 3205 H 315.336 -1.45656 0.512233 0
M  V30 3206 H 317.294 -3.80167 -1.54865 0
M  V30 3207 H 315.955 -2.643 -1.69719 0
M  V30 3208 H 315.148 -4.93154 -1.03996 0
M  V30 3209 H 314.75 -3.73389 0.213684 0
M  V30 3210 H 317.042 -6.72143 -0.850279 0
M  V30 3211 H 317.985 -7.05224 0.637599 0
M  V30 3212 H 318.393 -5.63277 -0.371366 0
M  V30 3213 N 317.792 -0.46758 -1.50504 0
M  V30 3214 C 319.038 0.0887532 -2.02606 0
M  V30 3215 C 319.371 1.39686 -1.34913 0
M  V30 3216 O 318.646 1.88644 -0.473694 0
M  V30 3217 C 318.929 0.276206 -3.59039 0
M  V30 3218 C 318.782 -1.05267 -4.37309 0
M  V30 3219 C 320.101 1.03235 -4.27821 0
M  V30 3220 H 317.22 0.0307814 -0.736357 0
M  V30 3221 H 319.862 -0.612485 -1.79857 0
M  V30 3222 H 318.012 0.8735 -3.78553 0
M  V30 3223 H 319.684 -1.68628 -4.29374 0
M  V30 3224 H 317.927 -1.65015 -4.01189 0
M  V30 3225 H 318.598 -0.875197 -5.45018 0
M  V30 3226 H 321.074 0.526111 -4.12761 0
M  V30 3227 H 319.95 1.1323 -5.37094 0
M  V30 3228 H 320.211 2.06806 -3.90748 0
M  V30 3229 N 319.27 1.56325 -0.20005 0
M  V30 3230 C 320.233 2.18084 0.705132 0
M  V30 3231 C 321.233 1.13666 1.1374 0
M  V30 3232 O 322.423 1.39023 1.04968 0
M  V30 3233 C 319.555 2.78689 1.96329 0
M  V30 3234 H 320.748 2.99435 0.167023 0
M  V30 3235 H 318.301 1.56221 0.0495725 0
M  V30 3236 H 319.036 2.0115 2.5438 0
M  V30 3237 H 318.821 3.55133 1.66202 0
M  V30 3238 H 320.311 3.26096 2.60866 0
M  V30 3239 N 320.748 -0.0735177 1.57428 0
M  V30 3240 C 321.996 -0.771472 1.86796 0
M  V30 3241 C 322.317 -1.78201 0.791804 0
M  V30 3242 O 321.587 -1.95074 -0.179718 0
M  V30 3243 H 320.167 -0.28791 0.689287 0
M  V30 3244 H 322.829 -0.0500161 1.94836 0
M  V30 3245 H 321.925 -1.28874 2.8425 0
M  V30 3246 N 322.226 -1.5378 -0.344866 0
M  V30 3247 C 323.472 -1.71216 -1.08687 0
M  V30 3248 C 323.805 -0.473281 -1.88345 0
M  V30 3249 O 323.08 0.52968 -1.87149 0
M  V30 3250 C 323.363 -2.97486 -2.02914 0
M  V30 3251 C 323.216 -4.31579 -1.26727 0
M  V30 3252 C 324.535 -3.19422 -3.0275 0
M  V30 3253 H 321.654 -0.62301 -0.393735 0
M  V30 3254 H 324.296 -1.8645 -0.365563 0
M  V30 3255 H 322.446 -2.84629 -2.64421 0
M  V30 3256 H 324.118 -4.56284 -0.67845 0
M  V30 3257 H 322.361 -4.30049 -0.569273 0
M  V30 3258 H 323.032 -5.16106 -1.95803 0
M  V30 3259 H 325.508 -3.316 -2.51357 0
M  V30 3260 H 324.384 -4.09169 -3.65885 0
M  V30 3261 H 324.645 -2.35656 -3.74057 0
M  V30 3262 N 323.704 0.605807 -1.45491 0
M  V30 3263 C 324.953 1.36086 -1.48874 0
M  V30 3264 C 325.266 1.95131 -0.135333 0
M  V30 3265 O 326.472 2.7146 -0.0468144 0
M  V30 3266 C 324.928 2.46518 -2.62215 0
M  V30 3267 C 324.536 1.93877 -4.03876 0
M  V30 3268 C 326.28 3.23512 -2.74846 0
M  V30 3269 C 324.187 3.01801 -5.08596 0
M  V30 3270 H 323.117 0.511497 -0.553974 0
M  V30 3271 H 325.768 0.649089 -1.71636 0
M  V30 3272 H 324.15 3.20388 -2.32739 0
M  V30 3273 H 325.324 1.26704 -4.43038 0
M  V30 3274 H 323.639 1.29622 -3.95711 0
M  V30 3275 H 326.236 4.04013 -3.50253 0
M  V30 3276 H 326.579 3.74631 -1.81542 0
M  V30 3277 H 327.112 2.56742 -3.03856 0
M  V30 3278 H 323.851 2.55597 -6.03614 0
M  V30 3279 H 323.371 3.67535 -4.74002 0
M  V30 3280 H 325.05 3.66152 -5.33424 0
M  V30 3281 N 325.182 1.32811 0.848464 0
M  V30 3282 C 326.428 1.23907 1.60546 0
M  V30 3283 C 326.761 -0.197161 1.93197 0
M  V30 3284 O 326.036 -1.13596 1.5788 0
M  V30 3285 C 326.319 2.10489 2.92175 0
M  V30 3286 C 326.172 3.62522 2.66266 0
M  V30 3287 C 327.491 1.97075 3.93509 0
M  V30 3288 H 324.61 0.451459 0.58254 0
M  V30 3289 H 327.252 1.62818 0.979296 0
M  V30 3290 H 325.402 1.77434 3.45614 0
M  V30 3291 H 327.074 4.05821 2.19334 0
M  V30 3292 H 325.317 3.84879 2.00126 0
M  V30 3293 H 325.988 4.18437 3.6002 0
M  V30 3294 H 328.464 2.26045 3.49346 0
M  V30 3295 H 327.34 2.59923 4.83457 0
M  V30 3296 H 327.601 0.940186 4.31987 0
M  V30 3297 N 326.66 -1.06551 1.16123 0
M  V30 3298 C 327.608 -2.16063 0.861371 0
M  V30 3299 C 328.602 -1.6856 -0.168517 0
M  V30 3300 O 329.808 -1.79986 -0.0227579 0
M  V30 3301 H 326.183 -0.705278 0.260934 0
M  V30 3302 H 328.154 -2.38567 1.79244 0
M  V30 3303 C 326.903 -3.45661 0.376018 0
M  V30 3304 H 326.226 -3.82604 1.15992 0
M  V30 3305 H 327.666 -4.23504 0.204951 0
M  V30 3306 C 326.125 -3.24546 -0.903954 0
M  V30 3307 O 326.655 -3.49865 -1.97377 0
M  V30 3308 N 324.861 -2.77992 -0.846679 0
M  V30 3309 H 324.408 -2.57589 0.0241017 0
M  V30 3310 H 324.366 -2.64244 -1.70359 0
M  V30 3311 N 328.138 -0.959301 -1.25041 0
M  V30 3312 C 329.554 -0.664474 -1.4511 0
M  V30 3313 C 329.754 0.776481 -1.85938 0
M  V30 3314 O 328.81 1.55128 -1.99227 0
M  V30 3315 C 330.123 -1.64139 -2.5195 0
M  V30 3316 C 331.671 -1.65309 -2.65786 0
M  V30 3317 C 332.146 -2.61777 -3.75815 0
M  V30 3318 N 333.637 -2.60169 -3.83231 0
M  V30 3319 C 334.372 -3.31489 -4.6787 0
M  V30 3320 N 333.868 -4.12298 -5.56761 0
M  V30 3321 N 335.661 -3.20354 -4.61876 0
M  V30 3322 H 327.812 -1.89043 -0.968332 0
M  V30 3323 H 330.075 -0.813408 -0.4869 0
M  V30 3324 H 329.781 -2.67086 -2.28819 0
M  V30 3325 H 329.655 -1.40756 -3.49954 0
M  V30 3326 H 332.042 -0.630778 -2.8828 0
M  V30 3327 H 332.123 -1.92753 -1.68167 0
M  V30 3328 H 331.767 -3.64137 -3.54071 0
M  V30 3329 H 331.697 -2.31616 -4.72929 0
M  V30 3330 H 334.188 -2.01507 -3.19692 0
M  V30 3331 H 334.501 -4.63625 -6.18281 0
M  V30 3332 H 332.846 -4.16395 -5.56454 0
M  V30 3333 H 336.037 -2.56692 -3.91442 0
M  V30 3334 H 336.21 -3.76201 -5.27614 0
M  V30 3335 N 329.616 1.39756 -0.72842 0
M  V30 3336 C 330.844 2.04948 -0.283528 0
M  V30 3337 C 331.259 1.54908 1.0793 0
M  V30 3338 O 330.616 0.711135 1.68075 0
M  V30 3339 C 330.667 3.60498 -0.268957 0
M  V30 3340 O 330.388 4.08695 -1.57798 0
M  V30 3341 C 331.889 4.4288 0.192912 0
M  V30 3342 H 329.109 0.659243 -0.125056 0
M  V30 3343 H 331.653 1.78927 -0.990226 0
M  V30 3344 H 329.808 3.85444 0.388801 0
M  V30 3345 H 330.222 5.02977 -1.48709 0
M  V30 3346 H 331.696 5.51791 0.151952 0
M  V30 3347 H 332.173 4.21418 1.23708 0
M  V30 3348 H 332.779 4.23069 -0.435039 0
M  V30 3349 N 331.094 0.475555 1.50254 0
M  V30 3350 C 332.026 -0.352649 2.26471 0
M  V30 3351 C 333.039 -0.953165 1.3198 0
M  V30 3352 O 334.228 -0.840815 1.57457 0
M  V30 3353 C 331.328 -1.50902 3.0345 0
M  V30 3354 C 330.501 -1.02047 4.25329 0
M  V30 3355 C 329.56 -2.05142 4.84565 0
M  V30 3356 O 328.586 -1.63023 5.45355 0
M  V30 3357 N 329.788 -3.37987 4.71959 0
M  V30 3358 H 332.553 0.300767 2.98187 0
M  V30 3359 H 330.114 0.306598 1.5897 0
M  V30 3360 H 332.106 -2.19572 3.39956 0
M  V30 3361 H 330.676 -2.06705 2.34504 0
M  V30 3362 H 329.896 -0.159507 3.93877 0
M  V30 3363 H 331.184 -0.672061 5.04342 0
M  V30 3364 H 330.582 -3.74913 4.23623 0
M  V30 3365 H 329.139 -4.02443 5.12721 0
M  V30 3366 N 332.573 -1.56217 0.208337 0
M  V30 3367 C 333.505 -2.1695 -0.739276 0
M  V30 3368 C 334.518 -1.13492 -1.1672 0
M  V30 3369 O 335.707 -1.40529 -1.10063 0
M  V30 3370 C 332.807 -2.72755 -2.01142 0
M  V30 3371 C 331.98 -4.0125 -1.74118 0
M  V30 3372 C 331.039 -4.41749 -2.85909 0
M  V30 3373 O 330.065 -5.08912 -2.54946 0
M  V30 3374 N 331.267 -4.06342 -4.14568 0
M  V30 3375 H 334.032 -2.98893 -0.219837 0
M  V30 3376 H 331.593 -1.61878 0.0268445 0
M  V30 3377 H 333.585 -2.96826 -2.75094 0
M  V30 3378 H 332.155 -1.95191 -2.4417 0
M  V30 3379 H 331.375 -3.85173 -0.838775 0
M  V30 3380 H 332.663 -4.851 -1.53477 0
M  V30 3381 H 332.061 -3.52345 -4.42571 0
M  V30 3382 H 330.618 -4.35335 -4.85105 0
M  V30 3383 N 334.051 0.0651679 -1.57465 0
M  V30 3384 C 334.961 1.09448 -2.07505 0
M  V30 3385 C 335.977 1.41974 -1.00595 0
M  V30 3386 O 337.153 1.52018 -1.32107 0
M  V30 3387 C 334.218 2.38689 -2.51453 0
M  V30 3388 C 333.279 2.13073 -3.72691 0
M  V30 3389 C 332.512 3.36152 -4.14533 0
M  V30 3390 O 332.735 4.45517 -3.56189 0
M  V30 3391 O 331.669 3.23974 -5.07272 0
M  V30 3392 H 335.495 0.69935 -2.95538 0
M  V30 3393 H 333.08 0.279752 -1.46757 0
M  V30 3394 H 334.962 3.14736 -2.80212 0
M  V30 3395 H 333.637 2.77568 -1.66546 0
M  V30 3396 H 332.544 1.34709 -3.49005 0
M  V30 3397 H 333.877 1.79071 -4.5847 0
M  V30 3398 N 335.529 1.53961 0.336706 0
M  V30 3399 C 336.778 1.70751 1.07363 0
M  V30 3400 C 337.091 0.481061 1.89592 0
M  V30 3401 O 338.297 0.530046 2.66276 0
M  V30 3402 C 336.753 3.01965 1.95818 0
M  V30 3403 C 336.361 4.31971 1.18764 0
M  V30 3404 C 338.105 3.28121 2.69327 0
M  V30 3405 C 336.012 5.54255 2.06289 0
M  V30 3406 H 334.942 0.636292 0.404535 0
M  V30 3407 H 337.593 1.80459 0.332681 0
M  V30 3408 H 335.975 2.86132 2.7376 0
M  V30 3409 H 337.149 4.5853 0.456849 0
M  V30 3410 H 335.464 4.12481 0.569946 0
M  V30 3411 H 338.061 4.16673 3.35094 0
M  V30 3412 H 338.404 2.45426 3.36261 0
M  V30 3413 H 338.937 3.44762 1.98454 0
M  V30 3414 H 335.676 6.39513 1.43885 0
M  V30 3415 H 335.196 5.31935 2.77138 0
M  V30 3416 H 336.875 5.90159 2.65182 0
M  V30 3417 N 337.007 -0.598083 1.45811 0
M  V30 3418 C 338.418 -1.18011 1.44673 0
M  V30 3419 C 338.769 -1.95378 0.179364 0
M  V30 3420 O 337.894 -2.04124 -0.718509 0
M  V30 3421 C 338.489 -2.14677 2.62105 0
M  V30 3422 C 337.048 -2.68236 2.64057 0
M  V30 3423 C 336.195 -1.43816 2.37091 0
M  V30 3424 H 339.146 -0.38686 1.53913 0
M  V30 3425 H 339.167 -2.97878 2.36746 0
M  V30 3426 H 338.679 -1.5834 3.5433 0
M  V30 3427 H 336.78 -3.28486 1.75864 0
M  V30 3428 H 336.893 -3.12021 3.63566 0
M  V30 3429 H 335.257 -1.731 1.86838 0
M  V30 3430 H 336.04 -0.893333 3.31473 0
M  V30 3431 N 338.485 -1.33259 -0.841409 0
M  V30 3432 C 339.433 -1.23279 -1.97244 0
M  V30 3433 C 340.427 -0.134706 -1.68864 0
M  V30 3434 O 341.633 -0.298501 -1.77508 0
M  V30 3435 H 338.008 -0.382497 -0.647457 0
M  V30 3436 H 339.979 -2.18906 -2.02787 0
M  V30 3437 C 338.728 -0.986268 -3.33419 0
M  V30 3438 H 338.051 -1.82347 -3.55794 0
M  V30 3439 H 339.491 -0.956728 -4.13065 0
M  V30 3440 C 337.95 0.310842 -3.35463 0
M  V30 3441 O 338.48 1.31838 -3.79449 0
M  V30 3442 N 336.686 0.337485 -2.88634 0
M  V30 3443 H 336.233 -0.482967 -2.53032 0
M  V30 3444 H 336.191 1.20518 -2.90384 0
M  V30 3445 N 339.963 1.05934 -1.16686 0
M  V30 3446 C 340.926 2.11669 -0.879144 0
M  V30 3447 C 341.926 1.60294 0.127445 0
M  V30 3448 O 343.116 1.7389 -0.103865 0
M  V30 3449 C 340.248 3.39438 -0.315425 0
M  V30 3450 H 341.441 2.38626 -1.81653 0
M  V30 3451 H 338.994 1.22058 -0.976299 0
M  V30 3452 H 339.729 3.18132 0.629468 0
M  V30 3453 H 339.514 3.78034 -1.04079 0
M  V30 3454 H 341.004 4.17391 -0.132189 0
M  V30 3455 N 341.441 0.965919 1.2453 0
M  V30 3456 C 342.351 0.502154 2.29163 0
M  V30 3457 C 343.367 -0.436017 1.68448 0
M  V30 3458 O 344.543 -0.309497 1.99008 0
M  V30 3459 C 341.608 -0.201956 3.46111 0
M  V30 3460 C 340.669 0.775821 4.22232 0
M  V30 3461 C 339.902 0.105217 5.33596 0
M  V30 3462 O 340.125 -1.10683 5.59558 0
M  V30 3463 O 339.059 0.796475 5.96607 0
M  V30 3464 H 342.885 1.37194 2.70946 0
M  V30 3465 H 340.47 0.732875 1.30189 0
M  V30 3466 H 342.352 -0.597564 4.17142 0
M  V30 3467 H 341.027 -1.04673 3.06309 0
M  V30 3468 H 339.934 1.22185 3.53584 0
M  V30 3469 H 341.267 1.58896 4.65846 0
M  V30 3470 N 342.919 -1.39368 0.735821 0
M  V30 3471 C 344.147 -2.04795 0.294393 0
M  V30 3472 C 344.562 -1.55478 -1.07107 0
M  V30 3473 O 343.919 -0.720038 -1.67695 0
M  V30 3474 C 343.97 -3.6035 0.288071 0
M  V30 3475 O 343.691 -4.07852 1.59963 0
M  V30 3476 C 345.192 -4.42976 -0.169422 0
M  V30 3477 H 342.412 -0.658571 0.128551 0
M  V30 3478 H 344.956 -1.78399 0.999701 0
M  V30 3479 H 343.111 -3.85645 -0.368355 0
M  V30 3480 H 343.525 -5.02181 1.51375 0
M  V30 3481 H 344.999 -5.51864 -0.122687 0
M  V30 3482 H 345.476 -4.22068 -1.21472 0
M  V30 3483 H 346.082 -4.22832 0.457469 0
M  V30 3484 N 344.397 -0.483516 -1.5 0
M  V30 3485 C 345.33 0.350427 -2.25493 0
M  V30 3486 C 346.308 0.985549 -1.29328 0
M  V30 3487 O 347.492 1.01906 -1.58579 0
M  V30 3488 C 344.619 1.49202 -3.04066 0
M  V30 3489 C 343.665 0.973036 -4.15252 0
M  V30 3490 S 344.498 -0.122237 -5.3536 0
M  V30 3491 C 345.654 1.02294 -6.17484 0
M  V30 3492 H 345.887 -0.290381 -2.95878 0
M  V30 3493 H 343.42 -0.268562 -1.52046 0
M  V30 3494 H 345.378 2.14623 -3.49925 0
M  V30 3495 H 344.039 2.10438 -2.33183 0
M  V30 3496 H 343.232 1.82804 -4.69679 0
M  V30 3497 H 342.834 0.396335 -3.71894 0
M  V30 3498 H 345.126 1.93195 -6.49371 0
M  V30 3499 H 346.069 0.517664 -7.06205 0
M  V30 3500 H 346.477 1.28238 -5.49741 0
M  V30 3501 N 345.875 1.56104 -0.216619 0
M  V30 3502 C 346.822 2.2007 0.695531 0
M  V30 3503 C 347.792 1.15471 1.19397 0
M  V30 3504 O 348.977 1.43807 1.25396 0
M  V30 3505 C 346.117 2.88073 1.90021 0
M  V30 3506 C 345.23 4.07253 1.44113 0
M  V30 3507 C 344.365 4.63052 2.603 0
M  V30 3508 C 343.404 5.74545 2.11103 0
M  V30 3509 N 342.541 6.24656 3.20545 0
M  V30 3510 H 347.381 2.97655 0.143327 0
M  V30 3511 H 344.918 1.46982 0.0589934 0
M  V30 3512 H 346.876 3.25681 2.60745 0
M  V30 3513 H 345.506 2.13015 2.42538 0
M  V30 3514 H 344.558 3.75164 0.628999 0
M  V30 3515 H 345.87 4.8783 1.04036 0
M  V30 3516 H 345.024 5.03078 3.39113 0
M  V30 3517 H 343.763 3.81628 3.03663 0
M  V30 3518 H 342.768 5.34027 1.3075 0
M  V30 3519 H 343.993 6.57801 1.68746 0
M  V30 3520 H 341.939 5.46148 3.63399 0
M  V30 3521 H 341.856 7.00343 2.84704 0
M  V30 3522 H 343.124 6.69338 3.99508 0
M  V30 3523 N 347.353 -0.0568162 1.57498 0
M  V30 3524 C 348.285 -1.09292 2.01464 0
M  V30 3525 C 349.298 -1.34112 0.922913 0
M  V30 3526 O 350.487 -1.32089 1.20062 0
M  V30 3527 C 347.587 -2.44068 2.35125 0
M  V30 3528 C 346.76 -2.38995 3.66333 0
M  V30 3529 C 345.819 -3.55997 3.87495 0
M  V30 3530 O 344.845 -3.36746 4.58901 0
M  V30 3531 N 346.047 -4.76888 3.30996 0
M  V30 3532 H 348.812 -0.718386 2.90963 0
M  V30 3533 H 346.373 -0.245235 1.60032 0
M  V30 3534 H 348.365 -3.21011 2.46443 0
M  V30 3535 H 346.935 -2.73468 1.5144 0
M  V30 3536 H 346.155 -1.47336 3.65631 0
M  V30 3537 H 347.443 -2.3272 4.52458 0
M  V30 3538 H 346.841 -4.95431 2.73065 0
M  V30 3539 H 345.398 -5.51291 3.47738 0
M  V30 3540 N 348.832 -1.54138 -0.328536 0
M  V30 3541 C 350.06 -1.76062 -1.08673 0
M  V30 3542 C 350.475 -0.506852 -1.81869 0
M  V30 3543 O 349.832 0.522223 -1.74869 0
M  V30 3544 C 349.883 -2.95054 -2.08866 0
M  V30 3545 O 349.604 -4.15583 -1.38644 0
M  V30 3546 C 351.105 -3.2915 -2.96943 0
M  V30 3547 H 348.325 -0.587889 -0.323461 0
M  V30 3548 H 350.869 -2.0101 -0.376175 0
M  V30 3549 H 349.024 -2.72394 -2.75464 0
M  V30 3550 H 349.438 -4.82481 -2.05699 0
M  V30 3551 H 350.912 -4.15723 -3.63151 0
M  V30 3552 H 351.389 -2.461 -3.63774 0
M  V30 3553 H 351.995 -3.53871 -2.35914 0
M  V30 3554 N 350.31 0.590341 -1.46126 0
M  V30 3555 C 351.22 1.72793 -1.58681 0
M  V30 3556 C 352.236 1.67516 -0.470566 0
M  V30 3557 O 353.412 1.87562 -0.733642 0
M  V30 3558 C 350.477 3.09287 -1.5666 0
M  V30 3559 C 349.538 3.25886 -2.79458 0
M  V30 3560 C 348.771 4.55869 -2.77524 0
M  V30 3561 O 348.994 5.3928 -1.85832 0
M  V30 3562 O 347.928 4.75552 -3.68964 0
M  V30 3563 H 351.754 1.65149 -2.54872 0
M  V30 3564 H 349.339 0.756486 -1.28832 0
M  V30 3565 H 351.221 3.90577 -1.58202 0
M  V30 3566 H 349.896 3.17385 -0.636271 0
M  V30 3567 H 348.803 2.44119 -2.83472 0
M  V30 3568 H 350.136 3.22675 -3.71674 0
M  V30 3569 N 351.788 1.33704 0.83433 0
M  V30 3570 C 353.013 1.28615 1.62705 0
M  V30 3571 C 353.438 -0.139242 1.87584 0
M  V30 3572 O 352.796 -1.09734 1.4432 0
M  V30 3573 C 352.844 2.07139 2.95171 0
M  V30 3574 O 351.948 1.4331 3.86699 0
M  V30 3575 H 351.289 0.44226 0.49528 0
M  V30 3576 H 353.819 1.76335 1.03766 0
M  V30 3577 H 353.829 2.18073 3.44831 0
M  V30 3578 H 352.504 3.10779 2.76386 0
M  V30 3579 H 351.081 1.4105 3.45195 0
M  V30 3580 N 353.266 -1.05314 1.17247 0
M  V30 3581 C 354.216 -2.11313 0.856196 0
M  V30 3582 C 355.2 -1.60013 -0.168694 0
M  V30 3583 O 356.392 -1.76968 0.0335624 0
M  V30 3584 C 353.521 -3.41301 0.369917 0
M  V30 3585 C 352.607 -3.99401 1.42616 0
M  V30 3586 N 352.998 -4.31481 2.63928 0
M  V30 3587 C 351.296 -4.27126 1.28373 0
M  V30 3588 C 351.997 -4.77799 3.31787 0
M  V30 3589 N 350.973 -4.77843 2.59166 0
M  V30 3590 H 354.775 -2.33976 1.77856 0
M  V30 3591 H 352.289 -1.2295 1.06099 0
M  V30 3592 H 354.286 -4.16713 0.124897 0
M  V30 3593 H 352.946 -3.20072 -0.546253 0
M  V30 3594 H 353.957 -4.21519 3.00902 0
M  V30 3595 H 350.634 -4.15289 0.429111 0
M  V30 3596 H 352.024 -5.11743 4.35395 0
M  V30 3597 N 354.744 -0.972509 -1.24016 0
M  V30 3598 C 355.707 -0.511403 -2.23422 0
M  V30 3599 C 356.707 0.394679 -1.55881 0
M  V30 3600 O 357.897 0.189469 -1.73167 0
M  V30 3601 C 355.029 0.258769 -3.39916 0
M  V30 3602 H 356.222 -1.39024 -2.6573 0
M  V30 3603 H 353.775 -0.757585 -1.36713 0
M  V30 3604 H 354.51 1.1545 -3.03054 0
M  V30 3605 H 354.295 -0.391522 -3.9014 0
M  V30 3606 H 355.785 0.570244 -4.13688 0
M  V30 3607 N 356.222 1.38976 -0.743202 0
M  V30 3608 C 357.468 2.0064 -0.295189 0
M  V30 3609 C 357.801 1.5885 1.11716 0
M  V30 3610 O 357.076 0.821181 1.76315 0
M  V30 3611 C 357.359 3.578 -0.406318 0
M  V30 3612 C 357.212 4.09586 -1.85903 0
M  V30 3613 C 358.531 4.39616 0.206439 0
M  V30 3614 H 355.65 0.728935 -0.108733 0
M  V30 3615 H 358.292 1.65067 -0.940897 0
M  V30 3616 H 356.442 3.88235 0.143419 0
M  V30 3617 H 358.114 3.89837 -2.46627 0
M  V30 3618 H 356.357 3.6284 -2.3776 0
M  V30 3619 H 357.028 5.18708 -1.888 0
M  V30 3620 H 359.504 4.15273 -0.262283 0
M  V30 3621 H 358.38 5.48812 0.0983819 0
M  V30 3622 H 358.641 4.22754 1.2935 0
M  V30 3623 N 357.7 0.491464 1.49741 0
M  V30 3624 C 358.647 -0.292027 2.28945 0
M  V30 3625 C 359.617 -0.968973 1.34908 0
M  V30 3626 O 360.802 -0.97748 1.6386 0
M  V30 3627 C 357.942 -1.35617 3.17336 0
M  V30 3628 C 357.055 -0.691957 4.26422 0
M  V30 3629 C 356.19 -1.73572 5.02042 0
M  V30 3630 C 355.229 -1.05286 6.02977 0
M  V30 3631 N 354.366 -2.0404 6.71798 0
M  V30 3632 H 359.206 0.389654 2.95442 0
M  V30 3633 H 356.743 0.204003 1.45679 0
M  V30 3634 H 358.701 -1.98502 3.66951 0
M  V30 3635 H 357.331 -2.00674 2.52844 0
M  V30 3636 H 356.383 0.0499523 3.80367 0
M  V30 3637 H 357.695 -0.153946 4.98562 0
M  V30 3638 H 356.849 -2.43987 5.55478 0
M  V30 3639 H 355.588 -2.30757 4.29654 0
M  V30 3640 H 354.593 -0.334446 5.48782 0
M  V30 3641 H 355.818 -0.487636 6.77347 0
M  V30 3642 H 353.764 -2.60205 6.02187 0
M  V30 3643 H 353.681 -1.55279 7.39881 0
M  V30 3644 H 354.949 -2.73772 7.29842 0
M  V30 3645 N 359.178 -1.55987 0.224894 0
M  V30 3646 C 360.427 -1.97566 -0.406273 0
M  V30 3647 C 360.74 -1.11569 -1.6066 0
M  V30 3648 O 361.946 -1.43062 -2.3075 0
M  V30 3649 C 360.402 -3.51474 -0.774207 0
M  V30 3650 C 360.01 -4.46179 0.403496 0
M  V30 3651 C 361.754 -4.01758 -1.37079 0
M  V30 3652 C 359.661 -5.91399 0.0129412 0
M  V30 3653 H 358.591 -0.737777 -0.155565 0
M  V30 3654 H 361.242 -1.80659 0.321635 0
M  V30 3655 H 359.624 -3.63994 -1.55963 0
M  V30 3656 H 360.798 -4.45409 1.18101 0
M  V30 3657 H 359.113 -4.06255 0.913536 0
M  V30 3658 H 361.71 -5.07756 -1.67596 0
M  V30 3659 H 362.053 -3.47805 -2.28773 0
M  V30 3660 H 362.586 -3.92475 -0.648733 0
M  V30 3661 H 359.325 -6.49341 0.896451 0
M  V30 3662 H 358.845 -5.95356 -0.728821 0
M  V30 3663 H 360.524 -6.45683 -0.412582 0
M  V30 3664 N 360.656 0.0484629 -1.57525 0
M  V30 3665 C 361.902 0.744226 -1.88651 0
M  V30 3666 C 362.235 1.76029 -0.820212 0
M  V30 3667 O 361.51 1.93782 0.166985 0
M  V30 3668 C 361.793 1.43128 -3.30434 0
M  V30 3669 C 361.646 0.43005 -4.47739 0
M  V30 3670 C 362.965 2.37031 -3.70816 0
M  V30 3671 H 360.084 0.269089 -0.68612 0
M  V30 3672 H 362.726 0.00713532 -1.89999 0
M  V30 3673 H 360.876 2.05956 -3.29415 0
M  V30 3674 H 362.548 -0.194816 -4.60888 0
M  V30 3675 H 360.791 -0.252522 -4.33064 0
M  V30 3676 H 361.462 0.948874 -5.43783 0
M  V30 3677 H 363.938 1.84263 -3.73077 0
M  V30 3678 H 362.814 2.82094 -4.70865 0
M  V30 3679 H 363.075 3.22864 -3.02012 0
M  V30 3680 N 362.134 1.5431 0.320358 0
M  V30 3681 C 363.38 1.72924 1.05949 0
M  V30 3682 C 363.713 0.503185 1.87568 0
M  V30 3683 O 362.988 -0.499839 1.87968 0
M  V30 3684 C 363.271 3.00676 1.98156 0
M  V30 3685 C 363.124 4.3354 1.19845 0
M  V30 3686 C 364.443 3.24198 2.9763 0
M  V30 3687 H 361.562 0.629195 0.383774 0
M  V30 3688 H 364.204 1.87008 0.335854 0
M  V30 3689 H 362.354 2.888 2.59859 0
M  V30 3690 H 364.026 4.57305 0.605773 0
M  V30 3691 H 362.269 4.309 0.500784 0
M  V30 3692 H 362.94 5.19156 1.87567 0
M  V30 3693 H 365.416 3.35557 2.4605 0
M  V30 3694 H 364.292 4.14938 3.59329 0
M  V30 3695 H 364.553 2.41577 3.7026 0
M  V30 3696 N 363.613 -0.582584 1.46437 0
M  V30 3697 C 364.523 -1.71949 1.59595 0
M  V30 3698 C 365.539 -1.67264 0.479443 0
M  V30 3699 O 366.715 -1.87171 0.743579 0
M  V30 3700 C 363.78 -3.08452 1.58298 0
M  V30 3701 C 362.841 -3.244 2.81182 0
M  V30 3702 C 362.074 -4.54391 2.79937 0
M  V30 3703 O 362.297 -5.38287 1.8869 0
M  V30 3704 O 361.231 -4.73588 3.71481 0
M  V30 3705 H 365.057 -1.63795 2.55744 0
M  V30 3706 H 362.642 -0.749643 1.29231 0
M  V30 3707 H 364.524 -3.89732 1.60271 0
M  V30 3708 H 363.199 -3.17043 0.653094 0
M  V30 3709 H 362.106 -2.42613 2.84763 0
M  V30 3710 H 363.439 -3.20699 3.7338 0
M  V30 3711 N 365.091 -1.34144 -0.827227 0
M  V30 3712 C 366.054 -1.25264 -1.91942 0
M  V30 3713 C 367.054 -0.168866 -1.59911 0
M  V30 3714 O 368.244 -0.421198 -1.69031 0
M  V30 3715 C 365.376 -0.932952 -3.27885 0
M  V30 3716 H 366.569 -2.22357 -2.0124 0
M  V30 3717 H 364.122 -1.1837 -1.0207 0
M  V30 3718 H 364.857 0.0349917 -3.24281 0
M  V30 3719 H 364.642 -1.71682 -3.52516 0
M  V30 3720 H 366.132 -0.895874 -4.07877 0
M  V30 3721 N 366.569 1.04691 -1.17803 0
M  V30 3722 C 367.532 2.10724 -0.901545 0
M  V30 3723 C 368.532 1.6042 0.110437 0
M  V30 3724 O 369.722 1.7377 -0.122303 0
M  V30 3725 C 366.854 3.39084 -0.351409 0
M  V30 3726 H 368.047 2.36686 -1.84174 0
M  V30 3727 H 365.6 1.21015 -0.98919 0
M  V30 3728 H 366.335 3.18782 0.59569 0
M  V30 3729 H 366.12 3.76909 -1.08083 0
M  V30 3730 H 367.61 4.17227 -0.176451 0
M  V30 3731 N 368.047 0.979072 1.23499 0
M  V30 3732 C 369.463 0.687475 1.44034 0
M  V30 3733 C 369.663 -0.746801 1.8715 0
M  V30 3734 O 368.719 -1.51939 2.0167 0
M  V30 3735 C 370.032 1.68127 2.49307 0
M  V30 3736 C 371.58 1.69516 2.63122 0
M  V30 3737 C 372.055 2.67723 3.71603 0
M  V30 3738 N 373.546 2.66233 3.79044 0
M  V30 3739 C 374.281 3.38891 4.62537 0
M  V30 3740 N 373.777 4.21103 5.50131 0
M  V30 3741 N 375.57 3.27661 4.56721 0
M  V30 3742 H 367.721 1.90559 0.938135 0
M  V30 3743 H 369.984 0.821051 0.473897 0
M  V30 3744 H 369.69 2.70693 2.2454 0
M  V30 3745 H 369.564 1.46306 3.4767 0
M  V30 3746 H 371.951 0.676561 2.8724 0
M  V30 3747 H 372.032 1.95404 1.65079 0
M  V30 3748 H 371.676 3.69724 3.48233 0
M  V30 3749 H 371.606 2.39111 4.69184 0
M  V30 3750 H 374.097 2.06568 3.16446 0
M  V30 3751 H 374.41 4.73403 6.10827 0
M  V30 3752 H 372.755 4.25195 5.49759 0
M  V30 3753 H 375.946 2.62887 3.87309 0
M  V30 3754 H 376.119 3.84547 5.21562 0
M  V30 3755 N 369.525 -1.3858 0.750561 0
M  V30 3756 C 370.941 -1.53759 0.427824 0
M  V30 3757 C 371.141 -1.71401 -1.05943 0
M  V30 3758 O 370.197 -1.72331 -1.84549 0
M  V30 3759 C 371.51 -2.74642 1.22443 0
M  V30 3760 C 373.058 -2.88489 1.2142 0
M  V30 3761 C 373.533 -4.12329 1.9937 0
M  V30 3762 N 375.024 -4.194 1.96616 0
M  V30 3763 C 375.759 -5.14209 2.53727 0
M  V30 3764 N 375.255 -6.14709 3.19539 0
M  V30 3765 N 377.048 -5.06537 2.43673 0
M  V30 3766 H 369.199 -1.25377 1.71447 0
M  V30 3767 H 371.462 -0.608844 0.726645 0
M  V30 3768 H 371.168 -2.68 2.27747 0
M  V30 3769 H 371.042 -3.67745 0.839273 0
M  V30 3770 H 373.429 -2.94614 0.169232 0
M  V30 3771 H 373.51 -1.96406 1.63885 0
M  V30 3772 H 373.154 -4.06966 3.03877 0
M  V30 3773 H 373.084 -5.03486 1.54302 0
M  V30 3774 H 375.575 -3.47421 1.48684 0
M  V30 3775 H 375.888 -6.8354 3.60545 0
M  V30 3776 H 374.233 -6.1505 3.23633 0
M  V30 3777 H 377.424 -4.26962 1.91889 0
M  V30 3778 H 377.597 -5.80245 2.88479 0
M  V30 3779 N 371.003 -0.499398 -1.49478 0
M  V30 3780 C 371.933 0.269244 -2.31943 0
M  V30 3781 C 372.914 0.964054 -1.40143 0
M  V30 3782 O 374.099 0.955767 -1.69052 0
M  V30 3783 C 371.229 1.33504 -3.20615 0
M  V30 3784 C 370.183 0.760202 -4.21195 0
M  V30 3785 C 369.509 1.9264 -4.98792 0
M  V30 3786 C 370.809 -0.247661 -5.21712 0
M  V30 3787 H 372.503 -0.419082 -2.96452 0
M  V30 3788 H 370.049 -0.202988 -1.42562 0
M  V30 3789 H 372.002 1.88048 -3.77115 0
M  V30 3790 H 370.726 2.05253 -2.54045 0
M  V30 3791 H 369.385 0.23653 -3.65836 0
M  V30 3792 H 369.033 2.63154 -4.28671 0
M  V30 3793 H 368.733 1.54785 -5.66847 0
M  V30 3794 H 370.257 2.4762 -5.58137 0
M  V30 3795 H 371.671 0.209579 -5.72917 0
M  V30 3796 H 370.068 -0.541962 -5.97648 0
M  V30 3797 H 371.138 -1.16409 -4.7072 0
M  V30 3798 N 372.481 1.55866 -0.233164 0
M  V30 3799 C 373.411 2.23783 0.666599 0
M  V30 3800 C 374.392 1.21343 1.19205 0
M  V30 3801 O 375.577 1.4996 1.23392 0
M  V30 3802 C 372.707 2.92671 1.86978 0
M  V30 3803 C 371.661 4.01682 1.47768 0
M  V30 3804 C 370.987 4.57926 2.76058 0
M  V30 3805 C 372.287 5.18126 0.658993 0
M  V30 3806 H 373.981 2.99232 0.100306 0
M  V30 3807 H 371.527 1.43924 0.046804 0
M  V30 3808 H 373.48 3.3888 2.50476 0
M  V30 3809 H 372.204 2.14688 2.46123 0
M  V30 3810 H 370.863 3.56222 0.866106 0
M  V30 3811 H 370.511 3.76659 3.33372 0
M  V30 3812 H 370.211 5.31505 2.50552 0
M  V30 3813 H 371.735 5.06859 3.40479 0
M  V30 3814 H 373.149 5.60644 1.19795 0
M  V30 3815 H 371.546 5.98009 0.500552 0
M  V30 3816 H 372.616 4.83763 -0.331856 0
M  V30 3817 O 373.998 0.0973059 1.61207 0
M  V30 3818 H 374.689 -0.50491 1.87004 0
M  V30 END ATOM
M  V30 BEGIN BOND
M  V30 END BOND
M  V30 END CTAB
M  END
$$$$
