drugbank_target|Q00613 Heat shock factor protein 1 (DB06258)
 OpenBabel12092120333D

  0  0  0     0  0            999 V3000
M  V30 BEGIN CTAB
M  V30 COUNTS 7993 8089 0 0 0
M  V30 BEGIN ATOM
M  V30 1 H -0.908 1.98254 -0.117106 0
M  V30 2 N 0 1.576 0 0
M  V30 3 C 0.933 2.03868 1.02534 0
M  V30 4 C 1.911 0.928543 1.3348 0
M  V30 5 O 3.095 1.19667 1.45644 0
M  V30 6 C 0.222 2.43627 2.35294 0
M  V30 7 C -0.732 3.65373 2.2001 0
M  V30 8 S 0.101 5.13292 1.52614 0
M  V30 9 C 1.257 5.56322 2.86805 0
M  V30 10 H 1.49 2.90518 0.631377 0
M  V30 11 H -0.977 1.52953 0.210867 0
M  V30 12 H 0.981 2.67203 3.11629 0
M  V30 13 H -0.358 1.57376 2.7183 0
M  V30 14 H -1.165 3.90944 3.18086 0
M  V30 15 H -1.563 3.418 1.51819 0
M  V30 16 H 0.729 5.58782 3.83104 0
M  V30 17 H 1.672 6.56266 2.65933 0
M  V30 18 H 2.08 4.83886 2.90714 0
M  V30 19 N 1.4781 -0.272755 1.55222 0
M  V30 20 C 2.7551 -1.02562 1.66555 0
M  V30 21 C 3.1351 -2.04282 0.532189 0
M  V30 22 O 2.4831 -2.23662 -0.467717 0
M  V30 23 C 2.6931 -1.6822 3.05782 0
M  V30 24 C 4.0411 -2.19373 3.63539 0
M  V30 25 O 5.0651 -1.78206 3.08417 0
M  V30 26 O 3.9241 -2.94883 4.60115 0
M  V30 27 H 1.0181 -0.475755 0.676451 0
M  V30 28 H 3.5641 -0.268593 1.67561 0
M  V30 29 H 2.3361 -0.945112 3.79715 0
M  V30 30 H 1.9591 -2.50609 3.08676 0
M  V30 31 N 2.9562 -1.48159 -0.537278 0
M  V30 32 C 3.8862 -1.65029 -1.6519 0
M  V30 33 C 4.8672 -0.499281 -1.62607 0
M  V30 34 O 6.0522 -0.730972 -1.79918 0
M  V30 35 C 3.1822 -1.68303 -3.03795 0
M  V30 36 C 2.1362 -2.8283 -3.21234 0
M  V30 37 C 1.4622 -2.71189 -4.60826 0
M  V30 38 C 2.7622 -4.24211 -3.04701 0
M  V30 39 H 4.4562 -2.58341 -1.51328 0
M  V30 40 H 2.0022 -1.24325 -0.726585 0
M  V30 41 H 3.9552 -1.78693 -3.81637 0
M  V30 42 H 2.6792 -0.715635 -3.18663 0
M  V30 43 H 1.3382 -2.71983 -2.45807 0
M  V30 44 H 0.9862 -1.72435 -4.7252 0
M  V30 45 H 0.6862 -3.48035 -4.7344 0
M  V30 46 H 2.2102 -2.83537 -5.40777 0
M  V30 47 H 3.6242 -4.3593 -3.72341 0
M  V30 48 H 2.0212 -5.01998 -3.28813 0
M  V30 49 H 3.0912 -4.41184 -2.01209 0
M  V30 50 N 4.4343 0.785586 -1.36625 0
M  V30 51 C 5.8453 1.36101 -1.27803 0
M  V30 52 C 6.1963 1.96035 0.0804875 0
M  V30 53 O 5.3213 1.92834 0.982042 0
M  V30 54 C 5.9163 2.47442 -2.31426 0
M  V30 55 C 4.4753 3.00789 -2.26281 0
M  V30 56 C 3.6223 1.73896 -2.15999 0
M  V30 57 H 6.5733 0.586928 -1.47448 0
M  V30 58 H 6.5943 3.2656 -1.95291 0
M  V30 59 H 6.1063 2.03791 -3.30289 0
M  V30 60 H 4.2073 3.48851 -1.30896 0
M  V30 61 H 4.3203 3.57343 -3.19128 0
M  V30 62 H 2.6843 1.9628 -1.62316 0
M  V30 63 H 3.4673 1.32368 -3.16755 0
M  V30 64 N 5.9124 1.20967 1.01018 0
M  V30 65 C 7.1584 1.02526 1.74975 0
M  V30 66 C 7.4914 -0.4408 1.89131 0
M  V30 67 O 6.7664 -1.32718 1.42184 0
M  V30 68 C 7.0494 1.71699 3.1653 0
M  V30 69 C 6.9024 3.25791 3.10129 0
M  V30 70 C 8.2214 1.45531 4.15342 0
M  V30 71 H 5.3404 0.373863 0.635134 0
M  V30 72 H 7.9824 1.49071 1.17805 0
M  V30 73 H 6.1324 1.32128 3.65341 0
M  V30 74 H 7.8044 3.74697 2.69072 0
M  V30 75 H 6.0474 3.56363 2.47362 0
M  V30 76 H 6.7184 3.69353 4.10222 0
M  V30 77 H 9.1944 1.79872 3.75213 0
M  V30 78 H 8.0704 1.96453 5.1254 0
M  V30 79 H 8.3314 0.384237 4.40427 0
M  V30 80 N 7.3905 -1.2043 1.01659 0
M  V30 81 C 8.6385 -1.89423 0.704522 0
M  V30 82 C 8.9595 -1.79231 -0.768197 0
M  V30 83 O 8.2295 -1.1947 -1.55254 0
M  V30 84 H 6.8095 -0.701178 0.257602 0
M  V30 85 H 9.4715 -1.4626 1.28818 0
M  V30 86 H 8.5675 -2.96052 0.987916 0
M  V30 87 N 8.8686 -0.792821 -1.36206 0
M  V30 88 C 10.2796 -0.429513 -1.81692 0
M  V30 89 C 10.6306 1.04695 -1.65932 0
M  V30 90 O 9.7556 1.81256 -1.18218 0
M  V30 91 C 10.3506 -0.772831 -3.29868 0
M  V30 92 C 8.9096 -0.462307 -3.7355 0
M  V30 93 C 8.0566 -1.00569 -2.5842 0
M  V30 94 H 11.0076 -0.985672 -1.24379 0
M  V30 95 H 11.0286 -0.0651928 -3.80444 0
M  V30 96 H 10.5406 -1.84747 -3.41307 0
M  V30 97 H 8.6416 0.604158 -3.67669 0
M  V30 98 H 8.7546 -0.985299 -4.68859 0
M  V30 99 H 7.1186 -0.428734 -2.51066 0
M  V30 100 H 7.9016 -2.08616 -2.72643 0
M  V30 101 N 10.3467 1.47872 -0.545128 0
M  V30 102 C 11.5947 2.02093 -0.016553 0
M  V30 103 C 11.9157 1.42305 1.3332 0
M  V30 104 O 11.1857 0.593853 1.86682 0
M  V30 105 H 9.7657 0.746993 -0.00313038 0
M  V30 106 H 12.4277 1.81414 -0.712397 0
M  V30 107 H 11.5237 3.11996 0.0805422 0
M  V30 108 N 11.8248 0.280983 1.55075 0
M  V30 109 C 12.7878 -0.590896 2.21452 0
M  V30 110 C 13.7878 -1.07682 1.19421 0
M  V30 111 O 14.9778 -0.97605 1.44288 0
M  V30 112 C 12.1098 -1.81587 2.88511 0
M  V30 113 H 13.3028 -0.0112554 2.99898 0
M  V30 114 H 10.8558 0.0316438 1.56268 0
M  V30 115 H 11.5908 -2.43587 2.14093 0
M  V30 116 H 11.3758 -1.4753 3.63287 0
M  V30 117 H 12.8658 -2.43575 3.39206 0
M  V30 118 N 13.3029 -1.57598 0.00835791 0
M  V30 119 C 14.2659 -2.07884 -0.965242 0
M  V30 120 C 15.2659 -0.989825 -1.26725 0
M  V30 121 O 16.4559 -1.25218 -1.21104 0
M  V30 122 C 13.5879 -2.52731 -2.28779 0
M  V30 123 H 14.7809 -2.95178 -0.530112 0
M  V30 124 H 12.3339 -1.54458 -0.239283 0
M  V30 125 H 13.0689 -1.68705 -2.76964 0
M  V30 126 H 12.8539 -3.32272 -2.08177 0
M  V30 127 H 14.3439 -2.91933 -2.98605 0
M  V30 128 N 14.781 0.264519 -1.55364 0
M  V30 129 C 16.029 0.993021 -1.76021 0
M  V30 130 C 16.35 1.86511 -0.569099 0
M  V30 131 O 15.62 1.91438 0.415735 0
M  V30 132 H 14.2 0.369639 -0.649135 0
M  V30 133 H 16.862 0.286707 -1.9278 0
M  V30 134 H 15.958 1.62502 -2.66457 0
M  V30 135 N 16.2591 1.48442 0.529413 0
M  V30 136 C 17.6701 1.5002 1.11134 0
M  V30 137 C 18.0211 0.27031 1.94329 0
M  V30 138 O 17.1461 -0.622507 2.07253 0
M  V30 139 C 17.7411 2.71834 2.02217 0
M  V30 140 C 16.3001 2.76283 2.55627 0
M  V30 141 C 15.4471 2.43542 1.326 0
M  V30 142 H 18.3981 1.5555 0.314641 0
M  V30 143 H 18.4191 2.50384 2.8651 0
M  V30 144 H 17.9311 3.61331 1.41639 0
M  V30 145 H 16.0321 1.90995 3.19924 0
M  V30 146 H 16.1451 3.77725 2.94721 0
M  V30 147 H 14.5091 1.94709 1.64196 0
M  V30 148 H 15.2921 3.3528 0.737734 0
M  V30 149 N 17.7372 -0.778329 1.37039 0
M  V30 150 C 18.9622 -1.57248 1.35233 0
M  V30 151 C 19.3872 -1.87999 -0.0615568 0
M  V30 152 O 18.7452 -1.48734 -1.03672 0
M  V30 153 C 18.7932 -2.86353 2.19167 0
M  V30 154 O 17.8972 -3.80442 1.59178 0
M  V30 155 H 17.2382 -0.476569 0.462362 0
M  V30 156 H 19.7682 -0.963853 1.80474 0
M  V30 157 H 19.7782 -3.35519 2.32145 0
M  V30 158 H 18.4532 -2.63299 3.21942 0
M  V30 159 H 17.0302 -3.39067 1.55203 0
M  V30 160 N 19.2153 -1.21501 -1.00376 0
M  V30 161 C 20.1633 -0.972442 -2.11297 0
M  V30 162 C 21.1573 0.080731 -1.69208 0
M  V30 163 O 22.3633 -0.0707666 -1.79861 0
M  V30 164 H 18.7383 -0.297218 -0.690772 0
M  V30 165 H 20.7093 -1.91394 -2.28934 0
M  V30 166 C 19.4583 -0.555065 -3.43241 0
M  V30 167 H 18.7813 -1.35709 -3.76062 0
M  V30 168 H 20.2213 -0.424664 -4.21868 0
M  V30 169 C 18.6803 0.734147 -3.28804 0
M  V30 170 O 19.2103 1.78937 -3.59645 0
M  V30 171 N 17.4163 0.701133 -2.82015 0
M  V30 172 H 16.9633 -0.157874 -2.57116 0
M  V30 173 H 16.9213 1.56403 -2.72737 0
M  V30 174 N 20.6934 1.19889 -1.02296 0
M  V30 175 C 21.9394 1.89701 -0.717033 0
M  V30 176 C 22.2724 1.7905 0.751989 0
M  V30 177 O 21.5474 1.17891 1.547 0
M  V30 178 C 21.8304 3.40858 -1.16136 0
M  V30 179 C 21.6834 3.60411 -2.69117 0
M  V30 180 C 23.0024 4.33876 -0.737549 0
M  V30 181 H 20.1214 0.688874 -0.261957 0
M  V30 182 H 22.7634 1.41154 -1.27183 0
M  V30 183 H 20.9134 3.82335 -0.689342 0
M  V30 184 H 22.5854 3.28145 -3.2422 0
M  V30 185 H 20.8284 3.03665 -3.0979 0
M  V30 186 H 21.4994 4.66396 -2.95261 0
M  V30 187 H 23.9754 4.00081 -1.14344 0
M  V30 188 H 22.8514 5.38242 -1.0764 0
M  V30 189 H 23.1124 4.40628 0.360436 0
M  V30 190 N 22.1715 0.800033 1.35784 0
M  V30 191 C 23.5825 0.439142 1.81462 0
M  V30 192 C 23.9335 -1.03813 1.66485 0
M  V30 193 O 23.0585 -1.80626 1.19177 0
M  V30 194 C 23.6535 0.790314 3.29453 0
M  V30 195 C 22.2125 0.482111 3.733 0
M  V30 196 C 21.3595 1.01938 2.57883 0
M  V30 197 H 24.3105 0.992254 1.23855 0
M  V30 198 H 24.3315 0.0853677 3.80404 0
M  V30 199 H 23.8435 1.86554 3.40322 0
M  V30 200 H 21.9445 -0.584652 3.67984 0
M  V30 201 H 22.0575 1.01015 4.6833 0
M  V30 202 H 20.4215 0.442043 2.50835 0
M  V30 203 H 21.2045 2.10059 2.71533 0
M  V30 204 N 23.6496 -1.47581 0.552962 0
M  V30 205 C 24.6126 -2.28439 -0.186605 0
M  V30 206 C 25.6126 -1.36706 -0.84665 0
M  V30 207 O 26.8026 -1.59378 -0.703164 0
M  V30 208 C 23.9346 -3.16264 -1.2724 0
M  V30 209 H 25.1276 -2.95294 0.523609 0
M  V30 210 H 22.6806 -1.532 0.309745 0
M  V30 211 H 23.4156 -2.54091 -2.01514 0
M  V30 212 H 23.2006 -3.83769 -0.803968 0
M  V30 213 H 24.6906 -3.77198 -1.79196 0
M  V30 214 N 25.1277 -0.289203 -1.54924 0
M  V30 215 C 26.3747 0.323519 -1.99899 0
M  V30 216 C 26.7027 1.54797 -1.17762 0
M  V30 217 O 25.9577 1.94237 -0.238835 0
M  V30 218 C 26.2567 0.736119 -3.49737 0
M  V30 219 C 25.9227 -0.385276 -4.49251 0
M  V30 220 C 24.5847 -0.693156 -4.76181 0
M  V30 221 C 26.9367 -1.14021 -5.08575 0
M  V30 222 C 24.2647 -1.7593 -5.59701 0
M  V30 223 C 26.6167 -2.19619 -5.93254 0
M  V30 224 C 25.2807 -2.51026 -6.185 0
M  V30 225 H 24.5507 0.118384 -0.731482 0
M  V30 226 H 27.1977 -0.405847 -1.8715 0
M  V30 227 H 25.5027 1.54539 -3.60035 0
M  V30 228 H 27.1997 1.22118 -3.81953 0
M  V30 229 H 23.7897 -0.135202 -4.28387 0
M  V30 230 H 27.9737 -0.915611 -4.87781 0
M  V30 231 H 23.2297 -2.0075 -5.77503 0
M  V30 232 H 27.4037 -2.78581 -6.38252 0
M  V30 233 H 25.0307 -3.33772 -6.83008 0
M  V30 234 N 26.6058 1.57591 -0.0167156 0
M  V30 235 C 27.5358 2.12496 0.967858 0
M  V30 236 C 28.5168 1.03807 1.34752 0
M  V30 237 O 29.7018 1.31577 1.42833 0
M  V30 238 C 26.8318 2.64194 2.25431 0
M  V30 239 C 25.7858 3.77559 2.01576 0
M  V30 240 C 25.1118 4.15636 3.36379 0
M  V30 241 C 26.4118 5.04151 1.36489 0
M  V30 242 H 28.1058 2.95013 0.510643 0
M  V30 243 H 25.6518 1.41915 0.244181 0
M  V30 244 H 27.6048 3.01236 2.94678 0
M  V30 245 H 26.3288 1.78821 2.73296 0
M  V30 246 H 24.9878 3.40937 1.34751 0
M  V30 247 H 24.6358 3.27263 3.81979 0
M  V30 248 H 24.3358 4.92022 3.21229 0
M  V30 249 H 25.8598 4.5525 4.06915 0
M  V30 250 H 27.2738 5.38857 1.95718 0
M  V30 251 H 25.6708 5.85453 1.31776 0
M  V30 252 H 26.7408 4.83733 0.336219 0
M  V30 253 N 28.0839 -0.256276 1.55502 0
M  V30 254 C 29.3119 -1.00342 1.8094 0
M  V30 255 C 29.7269 -1.79307 0.59114 0
M  V30 256 O 29.0839 -1.77114 -0.440081 0
M  V30 257 C 29.1349 -1.94875 3.04476 0
M  V30 258 O 28.8559 -1.19107 4.21598 0
M  V30 259 C 30.3569 -2.81266 3.42644 0
M  V30 260 H 27.5769 -0.295685 0.602338 0
M  V30 261 H 30.1209 -0.281998 2.02546 0
M  V30 262 H 28.2759 -2.62457 2.84947 0
M  V30 263 H 28.6899 -1.82969 4.91551 0
M  V30 264 H 30.1639 -3.43362 4.32211 0
M  V30 265 H 30.6409 -3.51897 2.62802 0
M  V30 266 H 31.2469 -2.1915 3.64491 0
M  V30 267 N 29.562 -1.4872 -0.521534 0
M  V30 268 C 30.509 -1.63871 -1.62527 0
M  V30 269 C 31.479 -0.480559 -1.58996 0
M  V30 270 O 32.664 -0.705085 -1.77294 0
M  V30 271 C 29.804 -1.69227 -3.00759 0
M  V30 272 C 28.917 -2.96207 -3.14461 0
M  V30 273 C 28.052 -2.92671 -4.43303 0
M  V30 274 C 27.091 -4.14318 -4.50563 0
M  V30 275 N 26.228 -4.0881 -5.70805 0
M  V30 276 H 31.068 -2.58123 -1.48918 0
M  V30 277 H 28.605 -1.28 -0.724878 0
M  V30 278 H 30.563 -1.70314 -3.80853 0
M  V30 279 H 29.193 -0.784586 -3.1312 0
M  V30 280 H 28.245 -3.04826 -2.27564 0
M  V30 281 H 29.557 -3.86192 -3.15686 0
M  V30 282 H 28.711 -2.92206 -5.31696 0
M  V30 283 H 27.45 -2.00429 -4.44612 0
M  V30 284 H 26.455 -4.15049 -3.60575 0
M  V30 285 H 27.68 -5.07729 -4.50986 0
M  V30 286 H 25.626 -3.19394 -5.72995 0
M  V30 287 H 25.543 -4.92509 -5.7356 0
M  V30 288 H 26.811 -4.12418 -6.61462 0
M  V30 289 N 31.0401 0.771051 -1.3745 0
M  V30 290 C 31.9701 1.89827 -1.3597 0
M  V30 291 C 32.9511 1.68562 -0.228216 0
M  V30 292 O 34.1361 1.8941 -0.428675 0
M  V30 293 C 31.2661 3.2712 -1.16662 0
M  V30 294 C 30.2201 3.6295 -2.2683 0
M  V30 295 C 29.5461 4.98791 -1.92644 0
M  V30 296 C 30.8461 3.69627 -3.69017 0
M  V30 297 H 32.5401 1.91323 -2.30295 0
M  V30 298 H 30.0861 0.919082 -1.10855 0
M  V30 299 H 32.0391 4.05615 -1.14256 0
M  V30 300 H 30.7631 3.26059 -0.187926 0
M  V30 301 H 29.4221 2.86763 -2.28392 0
M  V30 302 H 29.0701 4.94271 -0.933021 0
M  V30 303 H 28.7701 5.23733 -2.66416 0
M  V30 304 H 30.2941 5.79685 -1.91826 0
M  V30 305 H 31.7081 4.38273 -3.69581 0
M  V30 306 H 30.1051 4.06067 -4.41848 0
M  V30 307 H 31.1751 2.70273 -4.02592 0
M  V30 308 N 32.5182 1.22032 0.997298 0
M  V30 309 C 33.7642 1.05382 1.73972 0
M  V30 310 C 34.1192 -0.407419 1.88037 0
M  V30 311 O 33.4122 -1.29811 1.40924 0
M  V30 312 C 33.6062 1.69345 3.14733 0
M  V30 313 C 33.4352 3.21537 3.14395 0
M  V30 314 C 32.2052 3.9062 3.20537 0
M  V30 315 C 34.4032 4.18527 2.98897 0
M  V30 316 N 32.3852 5.29935 3.09906 0
M  V30 317 C 33.7562 5.44645 2.96247 0
M  V30 318 C 35.8112 4.09476 2.83255 0
M  V30 319 C 34.5142 6.62752 2.79557 0
M  V30 320 C 36.5402 5.27228 2.67926 0
M  V30 321 C 35.9022 6.52262 2.65959 0
M  V30 322 H 32.0012 0.440018 0.646458 0
M  V30 323 H 34.5852 1.54505 1.18475 0
M  V30 324 H 32.7562 1.22778 3.68484 0
M  V30 325 H 34.4882 1.45828 3.77513 0
M  V30 326 H 31.2432 3.41592 3.28043 0
M  V30 327 H 31.6672 6.02926 3.07912 0
M  V30 328 H 36.3092 3.13598 2.83577 0
M  V30 329 H 34.0272 7.58783 2.77982 0
M  V30 330 H 37.6132 5.22053 2.56812 0
M  V30 331 H 36.4932 7.41844 2.54239 0
M  V30 332 N 33.9963 -1.19345 1.0293 0
M  V30 333 C 35.2243 -1.92997 0.745644 0
M  V30 334 C 35.6393 -1.75519 -0.695589 0
M  V30 335 O 34.9963 -1.07737 -1.47306 0
M  V30 336 C 35.0473 -3.44741 1.08792 0
M  V30 337 O 34.7683 -3.61658 2.47256 0
M  V30 338 C 36.2693 -4.35515 0.827129 0
M  V30 339 H 33.4893 -0.613042 0.272801 0
M  V30 340 H 36.0333 -1.51473 1.3739 0
M  V30 341 H 34.1883 -3.84097 0.504832 0
M  V30 342 H 34.6023 -4.55514 2.60015 0
M  V30 343 H 36.0763 -5.40589 1.11658 0
M  V30 344 H 36.5533 -4.38552 -0.238436 0
M  V30 345 H 37.1593 -4.01841 1.39297 0
M  V30 346 N 35.4744 -0.807222 -1.35358 0
M  V30 347 C 36.4044 -0.232509 -2.3234 0
M  V30 348 C 37.3854 0.642386 -1.57504 0
M  V30 349 O 38.5704 0.572526 -1.85569 0
M  V30 350 C 35.7004 0.619238 -3.41735 0
M  V30 351 C 34.6544 -0.157215 -4.27711 0
M  V30 352 C 33.9804 0.816273 -5.28433 0
M  V30 353 C 35.2804 -1.35656 -5.04376 0
M  V30 354 H 36.9744 -1.04276 -2.80654 0
M  V30 355 H 34.5204 -0.50288 -1.34934 0
M  V30 356 H 36.4734 1.03137 -4.08584 0
M  V30 357 H 35.1974 1.46239 -2.92031 0
M  V30 358 H 33.8564 -0.550525 -3.62443 0
M  V30 359 H 33.5044 1.65494 -4.74996 0
M  V30 360 H 33.2044 0.301067 -5.86828 0
M  V30 361 H 34.7284 1.22659 -5.98153 0
M  V30 362 H 36.1424 -1.01927 -5.64166 0
M  V30 363 H 34.5394 -1.8063 -5.7227 0
M  V30 364 H 35.6094 -2.14288 -4.34981 0
M  V30 365 N 36.9525 1.47285 -0.560781 0
M  V30 366 C 38.1985 2.02764 -0.0381184 0
M  V30 367 C 38.5315 1.43384 1.30976 0
M  V30 368 O 37.8065 0.590733 1.85312 0
M  V30 369 C 38.0895 3.60064 0.0511427 0
M  V30 370 C 37.9425 4.2987 -1.32408 0
M  V30 371 C 39.2615 4.33439 0.762795 0
M  V30 372 H 36.3805 0.736841 -0.0153264 0
M  V30 373 H 39.0225 1.75675 -0.723759 0
M  V30 374 H 37.1725 3.83274 0.635065 0
M  V30 375 H 38.8445 4.17989 -1.95148 0
M  V30 376 H 37.0875 3.90085 -1.8978 0
M  V30 377 H 37.7585 5.38478 -1.21431 0
M  V30 378 H 40.2345 4.15243 0.266965 0
M  V30 379 H 39.1105 5.43124 0.794221 0
M  V30 380 H 39.3715 4.02915 1.81966 0
M  V30 381 N 38.4306 0.297415 1.54768 0
M  V30 382 C 39.6556 -0.318435 2.04941 0
M  V30 383 C 40.0806 -1.4701 1.17345 0
M  V30 384 O 39.4386 -1.80436 0.176758 0
M  V30 385 C 39.4866 -0.755749 3.52592 0
M  V30 386 O 38.5906 -1.86088 3.68028 0
M  V30 387 H 37.9316 -0.062421 0.661059 0
M  V30 388 H 40.4616 0.438215 1.99852 0
M  V30 389 H 40.4716 -1.04552 3.94376 0
M  V30 390 H 39.1466 0.0867233 4.1581 0
M  V30 391 H 37.7236 -1.57193 3.38149 0
M  V30 392 N 39.9087 -1.5758 0.0250728 0
M  V30 393 C 41.1857 -1.82917 -0.692873 0
M  V30 394 C 41.5657 -0.908137 -1.90568 0
M  V30 395 O 40.9137 0.0372298 -2.2847 0
M  V30 396 C 41.1237 -3.32034 -1.07492 0
M  V30 397 C 42.4717 -3.98406 -1.46826 0
M  V30 398 O 43.4957 -3.36505 -1.16801 0
M  V30 399 O 42.3547 -5.07497 -2.02754 0
M  V30 400 H 39.4487 -0.754079 -0.33955 0
M  V30 401 H 41.9947 -1.69619 0.0524456 0
M  V30 402 H 40.7667 -3.90728 -0.211552 0
M  V30 403 H 40.3897 -3.50424 -1.87854 0
M  V30 404 N 41.3868 0.248026 -1.55636 0
M  V30 405 C 42.7978 0.817177 -1.67866 0
M  V30 406 C 43.1488 1.86069 -0.622322 0
M  V30 407 O 42.2738 2.15157 0.231618 0
M  V30 408 C 42.8688 1.489 -3.04326 0
M  V30 409 C 41.4278 2.00587 -3.185 0
M  V30 410 C 40.5748 0.856573 -2.63739 0
M  V30 411 H 43.5258 0.0238579 -1.58682 0
M  V30 412 H 43.5468 2.35698 -2.98708 0
M  V30 413 H 43.0588 0.729279 -3.81186 0
M  V30 414 H 41.1598 2.79443 -2.4646 0
M  V30 415 H 41.2728 2.20402 -4.25393 0
M  V30 416 H 39.6368 1.25678 -2.21534 0
M  V30 417 H 40.4198 0.109953 -3.43124 0
M  V30 418 N 42.8649 1.48995 0.513639 0
M  V30 419 C 44.1419 1.48338 1.27495 0
M  V30 420 C 44.5219 0.204065 2.10111 0
M  V30 421 O 43.8699 -0.813881 2.13514 0
M  V30 422 C 44.0799 2.75498 2.14247 0
M  V30 423 C 45.4279 3.24484 2.73852 0
M  V30 424 O 46.4519 2.76528 2.24523 0
M  V30 425 O 45.3109 4.07974 3.6362 0
M  V30 426 H 42.4049 0.593149 0.576284 0
M  V30 427 H 44.9509 1.61246 0.528948 0
M  V30 428 H 43.7229 3.60109 1.53092 0
M  V30 429 H 43.3459 2.6539 2.96064 0
M  V30 430 N 44.343 -0.763751 1.37857 0
M  V30 431 C 45.571 -1.55293 1.36718 0
M  V30 432 C 45.986 -1.88745 -0.0455434 0
M  V30 433 O 45.343 -1.52039 -1.00947 0
M  V30 434 C 45.394 -2.85831 2.2132 0
M  V30 435 O 45.115 -2.5381 3.57089 0
M  V30 436 C 46.616 -3.80023 2.28249 0
M  V30 437 H 43.836 -0.480841 0.468009 0
M  V30 438 H 46.38 -0.946009 1.81303 0
M  V30 439 H 44.535 -3.42926 1.80223 0
M  V30 440 H 44.949 -3.37459 4.01524 0
M  V30 441 H 46.423 -4.68599 2.91752 0
M  V30 442 H 46.9 -4.1973 1.2932 0
M  V30 443 H 47.506 -3.28855 2.69693 0
M  V30 444 N 45.8211 -1.22559 -0.990812 0
M  V30 445 C 47.0981 -0.959875 -1.70428 0
M  V30 446 C 47.4781 0.524455 -2.04481 0
M  V30 447 O 46.8261 1.49302 -1.72977 0
M  V30 448 C 47.0361 -1.85955 -2.95333 0
M  V30 449 C 48.3841 -2.11687 -3.68068 0
M  V30 450 O 49.4081 -1.8342 -3.05345 0
M  V30 451 O 48.2671 -2.59572 -4.80921 0
M  V30 452 H 45.3611 -0.361154 -0.743974 0
M  V30 453 H 47.9071 -1.33554 -1.04697 0
M  V30 454 H 46.6791 -2.86346 -2.66687 0
M  V30 455 H 46.3021 -1.4856 -3.68803 0
M  V30 456 N 47.2992 1.18797 -1.03562 0
M  V30 457 C 48.2622 2.20464 -0.626769 0
M  V30 458 C 49.2622 1.57721 0.313173 0
M  V30 459 O 50.4522 1.73917 0.0992615 0
M  V30 460 C 47.5842 3.40802 0.0818498 0
M  V30 461 H 48.7772 2.58149 -1.5264 0
M  V30 462 H 46.3302 1.32593 -0.827578 0
M  V30 463 H 47.0652 3.08642 0.995518 0
M  V30 464 H 46.8502 3.8758 -0.593652 0
M  V30 465 H 48.3402 4.16092 0.354584 0
M  V30 466 N 48.7773 0.814389 1.34928 0
M  V30 467 C 49.7073 0.244827 2.32213 0
M  V30 468 C 50.6883 -0.634024 1.57842 0
M  V30 469 O 51.8733 -0.562676 1.8587 0
M  V30 470 C 49.0033 -0.601106 3.42058 0
M  V30 471 C 47.9573 0.179896 4.27622 0
M  V30 472 C 47.2833 -0.788237 5.28858 0
M  V30 473 C 48.5833 1.38329 5.03649 0
M  V30 474 H 50.2773 1.05763 2.80097 0
M  V30 475 H 47.8233 0.510029 1.34665 0
M  V30 476 H 49.7763 -1.00968 4.09125 0
M  V30 477 H 48.5003 -1.44688 2.92802 0
M  V30 478 H 47.1593 0.569739 3.62146 0
M  V30 479 H 46.8073 -1.62973 4.75866 0
M  V30 480 H 46.5073 -0.269942 5.8698 0
M  V30 481 H 48.0313 -1.19485 5.98795 0
M  V30 482 H 49.4453 1.04918 5.63618 0
M  V30 483 H 47.8423 1.83662 5.71304 0
M  V30 484 H 48.9123 2.16592 4.33839 0
M  V30 485 N 50.2554 -1.46986 0.568584 0
M  V30 486 C 51.5044 -2.01646 0.0465894 0
M  V30 487 C 51.8174 -1.44721 -1.31587 0
M  V30 488 O 53.0234 -1.91113 -1.92842 0
M  V30 489 C 51.4794 -3.59885 0.032752 0
M  V30 490 C 51.0874 -4.25804 1.39266 0
M  V30 491 C 52.8314 -4.22255 -0.436038 0
M  V30 492 C 50.7384 -5.76081 1.33732 0
M  V30 493 H 49.6684 -0.753876 0.013647 0
M  V30 494 H 52.3194 -1.68864 0.718131 0
M  V30 495 H 50.7014 -3.8968 -0.704669 0
M  V30 496 H 51.8754 -4.07637 2.1487 0
M  V30 497 H 50.1904 -3.7547 1.80032 0
M  V30 498 H 52.7874 -5.32394 -0.49602 0
M  V30 499 H 53.1304 -3.90212 -1.45053 0
M  V30 500 H 53.6634 -3.97033 0.246877 0
M  V30 501 H 50.4024 -6.12761 2.32817 0
M  V30 502 H 49.9224 -5.96553 0.623267 0
M  V30 503 H 51.6014 -6.38518 1.0442 0
M  V30 504 N 51.7335 -0.305618 -1.54608 0
M  V30 505 C 52.9735 0.303114 -2.0214 0
M  V30 506 C 53.3375 1.50737 -1.18921 0
M  V30 507 O 54.5385 2.18778 -1.56172 0
M  V30 508 C 52.8095 0.646332 -3.51507 0
M  V30 509 S 54.3685 1.23727 -4.20995 0
M  V30 510 H 51.1865 0.0927643 -0.704923 0
M  V30 511 H 53.7885 -0.434566 -1.90609 0
M  V30 512 H 52.4925 -0.238541 -4.09706 0
M  V30 513 H 52.0235 1.41468 -3.67084 0
M  V30 514 H 54.0385 2.52489 -4.27158 0
M  V30 515 N 53.2116 1.57565 -0.0334293 0
M  V30 516 C 54.4576 1.93088 0.639417 0
M  V30 517 C 54.8126 0.910589 1.69488 0
M  V30 518 O 54.1056 -0.0727725 1.91462 0
M  V30 519 C 54.2996 3.33112 1.29504 0
M  V30 520 C 54.1286 4.48667 0.304604 0
M  V30 521 C 52.8986 5.05207 -0.0970777 0
M  V30 522 C 55.0966 5.1239 -0.442845 0
M  V30 523 N 53.0786 6.04286 -1.08223 0
M  V30 524 C 54.4496 6.06609 -1.28161 0
M  V30 525 C 56.5046 4.95352 -0.50308 0
M  V30 526 C 55.2076 6.85622 -2.17519 0
M  V30 527 C 57.2336 5.74978 -1.38401 0
M  V30 528 C 56.5956 6.68816 -2.21054 0
M  V30 529 H 52.6946 0.754335 0.206161 0
M  V30 530 H 55.2786 1.94435 -0.101613 0
M  V30 531 H 53.4496 3.32576 2.00618 0
M  V30 532 H 55.1816 3.55972 1.92525 0
M  V30 533 H 51.9366 4.72782 0.278255 0
M  V30 534 H 52.3606 6.58516 -1.57117 0
M  V30 535 H 57.0026 4.22625 0.121694 0
M  V30 536 H 54.7206 7.57652 -2.81049 0
M  V30 537 H 58.3066 5.63826 -1.43496 0
M  V30 538 H 57.1866 7.29355 -2.88116 0
M  V30 539 N 54.6897 -0.239769 1.55765 0
M  V30 540 C 55.9147 -0.988373 1.82335 0
M  V30 541 C 56.3397 -1.77886 0.611421 0
M  V30 542 O 55.6977 -1.75889 -0.439639 0
M  V30 543 C 55.7457 -1.89627 3.06715 0
M  V30 544 O 54.8497 -2.98904 2.84131 0
M  V30 545 H 54.1907 -0.280858 0.601677 0
M  V30 546 H 56.7207 -0.258597 2.02959 0
M  V30 547 H 56.7307 -2.30957 3.36338 0
M  V30 548 H 55.4057 -1.31511 3.9456 0
M  V30 549 H 53.9827 -2.61651 2.65694 0
M  V30 550 N 56.1678 -1.49265 -0.50573 0
M  V30 551 C 57.5788 -1.51769 -1.08734 0
M  V30 552 C 57.9298 -0.301192 -1.93874 0
M  V30 553 O 57.0548 0.589456 -2.08217 0
M  V30 554 C 57.6498 -2.75017 -1.97867 0
M  V30 555 C 56.2088 -2.80314 -2.51199 0
M  V30 556 C 55.3558 -2.4562 -1.28709 0
M  V30 557 H 58.3068 -1.56031 -0.289855 0
M  V30 558 H 58.3278 -2.5491 -2.82491 0
M  V30 559 H 57.8398 -3.63539 -1.35873 0
M  V30 560 H 55.9408 -1.96061 -3.16845 0
M  V30 561 H 56.0538 -3.82366 -2.88675 0
M  V30 562 H 54.4178 -1.97297 -1.61078 0
M  V30 563 H 55.2008 -3.36411 -0.6843 0
M  V30 564 N 57.6459 0.756429 -1.3826 0
M  V30 565 C 58.8709 1.55077 -1.37717 0
M  V30 566 C 59.2959 1.88073 0.03164 0
M  V30 567 O 58.6539 1.50364 1.01293 0
M  V30 568 C 58.7019 2.8283 -2.23695 0
M  V30 569 O 57.8059 3.77862 -1.6521 0
M  V30 570 H 57.1469 0.469152 -0.469885 0
M  V30 571 H 59.6769 0.935019 -1.81985 0
M  V30 572 H 59.6869 3.31783 -2.37453 0
M  V30 573 H 58.3619 2.58144 -3.2609 0
M  V30 574 H 56.9389 3.36555 -1.60578 0
M  V30 575 N 59.124 1.23083 0.984299 0
M  V30 576 C 60.372 1.05848 1.72165 0
M  V30 577 C 60.693 -0.406049 1.90726 0
M  V30 578 O 59.963 -1.29139 1.47309 0
M  V30 579 H 58.543 0.388685 0.637913 0
M  V30 580 H 61.205 1.54736 1.18503 0
M  V30 581 H 60.301 1.54327 2.71274 0
M  V30 582 N 60.6021 -1.18246 1.0419 0
M  V30 583 C 61.5501 -2.23968 0.627792 0
M  V30 584 C 62.5441 -1.65828 -0.346019 0
M  V30 585 O 63.7501 -1.78733 -0.213175 0
M  V30 586 H 60.1251 -0.728939 0.184802 0
M  V30 587 H 62.0961 -2.56202 1.52981 0
M  V30 588 C 60.8451 -3.47699 0.00796591 0
M  V30 589 H 60.1681 -3.92734 0.748347 0
M  V30 590 H 61.6081 -4.23294 -0.24455 0
M  V30 591 C 60.0671 -3.13153 -1.24246 0
M  V30 592 O 60.5971 -3.27003 -2.33307 0
M  V30 593 N 58.8031 -2.67467 -1.13622 0
M  V30 594 H 58.3501 -2.56396 -0.248734 0
M  V30 595 H 58.3081 -2.44724 -1.97377 0
M  V30 596 N 62.0802 -0.821533 -1.34494 0
M  V30 597 C 63.3052 -0.420873 -2.03085 0
M  V30 598 C 63.7302 0.964915 -1.61465 0
M  V30 599 O 63.0882 1.62763 -0.798607 0
M  V30 600 C 63.1362 -0.529414 -3.56693 0
M  V30 601 O 62.2402 0.451302 -4.09923 0
M  V30 602 H 61.5812 -0.173489 -0.640935 0
M  V30 603 H 64.1112 -1.11157 -1.71771 0
M  V30 604 H 64.1212 -0.404671 -4.05988 0
M  V30 605 H 62.7962 -1.54014 -3.86332 0
M  V30 606 H 61.3732 0.285558 -3.71805 0
M  V30 607 N 63.5583 1.46682 -0.576371 0
M  V30 608 C 64.8053 2.02412 -0.0595339 0
M  V30 609 C 65.1333 1.44859 1.29793 0
M  V30 610 O 64.3883 0.601099 1.8624 0
M  V30 611 C 64.6873 3.57345 0.062886 0
M  V30 612 C 64.3533 4.33908 -1.22616 0
M  V30 613 C 63.0153 4.54544 -1.57933 0
M  V30 614 C 65.3673 4.77919 -2.07948 0
M  V30 615 C 62.6953 5.16444 -2.78393 0
M  V30 616 C 65.0473 5.41149 -3.27629 0
M  V30 617 C 63.7113 5.60014 -3.63236 0
M  V30 618 H 62.9813 0.74068 -0.021785 0
M  V30 619 H 65.6283 1.76128 -0.751735 0
M  V30 620 H 63.9333 3.82729 0.838178 0
M  V30 621 H 65.6303 3.98136 0.478439 0
M  V30 622 H 62.2203 4.18138 -0.941202 0
M  V30 623 H 66.4043 4.61738 -1.81967 0
M  V30 624 H 61.6603 5.29242 -3.06126 0
M  V30 625 H 65.8343 5.74211 -3.94023 0
M  V30 626 H 63.4613 6.07748 -4.56669 0
M  V30 627 N 65.0364 0.313813 1.54444 0
M  V30 628 C 65.9864 -0.571898 2.20711 0
M  V30 629 C 66.9704 -1.08913 1.18435 0
M  V30 630 O 68.1624 -1.02777 1.44104 0
M  V30 631 C 65.2914 -1.7371 2.96108 0
M  V30 632 C 64.3774 -1.23522 4.05713 0
M  V30 633 N 64.7684 -0.452288 5.03774 0
M  V30 634 C 63.0664 -1.51482 4.19487 0
M  V30 635 C 63.7674 -0.183438 5.81411 0
M  V30 636 N 62.7434 -0.766845 5.38164 0
M  V30 637 H 66.5454 0.0336802 2.93881 0
M  V30 638 H 64.0594 0.119192 1.61962 0
M  V30 639 H 66.0564 -2.38329 3.4206 0
M  V30 640 H 64.7164 -2.34625 2.24458 0
M  V30 641 H 65.7274 -0.0960131 5.17811 0
M  V30 642 H 62.4044 -2.13053 3.59047 0
M  V30 643 H 63.7944 0.446216 6.70417 0
M  V30 644 N 66.5145 -1.57545 0.0417849 0
M  V30 645 C 67.7605 -1.92601 -0.635021 0
M  V30 646 C 68.0935 -0.919627 -1.71045 0
M  V30 647 O 67.3685 0.0557892 -1.9442 0
M  V30 648 C 67.6515 -3.38085 -1.23979 0
M  V30 649 C 67.5045 -4.49467 -0.173057 0
M  V30 650 C 68.8235 -3.83776 -2.15416 0
M  V30 651 H 65.9425 -0.700397 -0.229374 0
M  V30 652 H 68.5845 -1.89728 0.101633 0
M  V30 653 H 66.7345 -3.40664 -1.86762 0
M  V30 654 H 68.4065 -4.59018 0.458312 0
M  V30 655 H 66.6495 -4.30909 0.499996 0
M  V30 656 H 67.3205 -5.48323 -0.636054 0
M  V30 657 H 69.7965 -3.83013 -1.62605 0
M  V30 658 H 68.6725 -4.8624 -2.54679 0
M  V30 659 H 68.9335 -3.19998 -3.05047 0
M  V30 660 N 67.9926 0.231505 -1.5589 0
M  V30 661 C 69.2396 0.957352 -1.78441 0
M  V30 662 C 69.5676 1.84726 -0.60882 0
M  V30 663 O 68.8226 1.91416 0.40725 0
M  V30 664 C 69.1216 1.83577 -3.0665 0
M  V30 665 C 68.7876 1.09993 -4.37278 0
M  V30 666 C 67.4496 0.896629 -4.72773 0
M  V30 667 C 69.8016 0.579558 -5.17968 0
M  V30 668 C 67.1296 0.160896 -5.86479 0
M  V30 669 C 69.4816 -0.142783 -6.32439 0
M  V30 670 C 68.1456 -0.357427 -6.66542 0
M  V30 671 H 67.4156 0.35032 -0.65296 0
M  V30 672 H 70.0626 0.226259 -1.90159 0
M  V30 673 H 68.3676 2.63441 -2.90011 0
M  V30 674 H 70.0646 2.39934 -3.21298 0
M  V30 675 H 66.6546 1.26835 -4.09403 0
M  V30 676 H 70.8386 0.724125 -4.90989 0
M  V30 677 H 66.0946 -0.0157293 -6.11398 0
M  V30 678 H 70.2686 -0.553559 -6.94196 0
M  V30 679 H 67.8956 -0.929466 -7.54497 0
M  V30 680 N 69.4707 1.49531 0.497807 0
M  V30 681 C 70.7477 1.49682 1.25915 0
M  V30 682 C 71.1277 0.226339 2.09883 0
M  V30 683 O 70.4757 -0.791189 2.14365 0
M  V30 684 C 70.6857 2.77755 2.11313 0
M  V30 685 C 72.0337 3.27371 2.70395 0
M  V30 686 O 73.0577 2.78894 2.21578 0
M  V30 687 O 71.9167 4.11808 3.59272 0
M  V30 688 H 69.0107 0.599228 0.56996 0
M  V30 689 H 71.5567 1.61798 0.511816 0
M  V30 690 H 70.3287 3.61713 1.49264 0
M  V30 691 H 69.9517 2.68515 2.93233 0
M  V30 692 N 70.9488 -0.749086 1.3866 0
M  V30 693 C 71.8808 -1.87273 1.32142 0
M  V30 694 C 72.8938 -1.61127 0.232787 0
M  V30 695 O 74.0828 -1.71623 0.49069 0
M  V30 696 C 71.1828 -3.23005 1.02571 0
M  V30 697 C 70.3558 -3.7662 2.22433 0
M  V30 698 C 69.4148 -4.90879 1.89537 0
M  V30 699 O 68.4408 -5.05276 2.62078 0
M  V30 700 N 69.6428 -5.74198 0.853031 0
M  V30 701 H 72.4078 -1.93373 2.28969 0
M  V30 702 H 69.9688 -0.929216 1.32579 0
M  V30 703 H 71.9608 -3.96992 0.786085 0
M  V30 704 H 70.5308 -3.12262 0.145249 0
M  V30 705 H 69.7508 -2.94147 2.62434 0
M  V30 706 H 71.0388 -4.09173 3.02415 0
M  V30 707 H 70.4368 -5.6514 0.25155 0
M  V30 708 H 68.9938 -6.48313 0.67329 0
M  V30 709 N 72.4269 -1.23603 -0.977757 0
M  V30 710 C 73.6749 -1.06759 -1.71601 0
M  V30 711 C 73.9959 0.395929 -1.90938 0
M  V30 712 O 73.2659 1.28356 -1.47992 0
M  V30 713 H 71.8459 -0.392062 -0.635843 0
M  V30 714 H 74.5079 -1.55362 -1.1768 0
M  V30 715 H 73.6039 -1.55763 -2.70452 0
M  V30 716 N 73.905 1.17692 -1.04816 0
M  V30 717 C 74.837 2.21103 -0.603822 0
M  V30 718 C 75.85 1.59411 0.33046 0
M  V30 719 O 77.039 1.7807 0.12379 0
M  V30 720 C 74.139 3.38623 0.136898 0
M  V30 721 C 73.312 4.29888 -0.807137 0
M  V30 722 C 72.371 5.26088 -0.10836 0
M  V30 723 O 71.397 5.64353 -0.741232 0
M  V30 724 N 72.599 5.68882 1.15558 0
M  V30 725 H 75.364 2.59848 -1.49329 0
M  V30 726 H 72.925 1.32553 -0.929587 0
M  V30 727 H 74.917 4.00009 0.614401 0
M  V30 728 H 73.487 2.98508 0.927993 0
M  V30 729 H 72.707 3.65993 -1.46434 0
M  V30 730 H 73.995 4.87759 -1.44807 0
M  V30 731 H 73.393 5.39861 1.69015 0
M  V30 732 H 71.95 6.32429 1.57722 0
M  V30 733 N 75.3831 0.828654 1.34056 0
M  V30 734 C 76.6301 0.419458 1.98108 0
M  V30 735 C 76.9581 -1.01886 1.65679 0
M  V30 736 O 76.2131 -1.72539 0.923512 0
M  V30 737 C 76.5121 0.575226 3.52741 0
M  V30 738 C 76.1781 1.98012 4.05095 0
M  V30 739 C 74.8401 2.36442 4.19104 0
M  V30 740 C 77.1921 2.89824 4.33188 0
M  V30 741 C 74.5201 3.66009 4.58535 0
M  V30 742 C 76.8721 4.1886 4.74066 0
M  V30 743 C 75.5361 4.5726 4.86281 0
M  V30 744 H 74.8061 0.153491 0.724929 0
M  V30 745 H 77.4531 1.05371 1.59904 0
M  V30 746 H 75.7581 -0.142385 3.91541 0
M  V30 747 H 77.4551 0.239057 4.00287 0
M  V30 748 H 74.0451 1.67162 3.94658 0
M  V30 749 H 78.2291 2.61375 4.21897 0
M  V30 750 H 73.4851 3.95579 4.66184 0
M  V30 751 H 77.6591 4.90086 4.94761 0
M  V30 752 H 75.2861 5.57707 5.16592 0
M  V30 753 N 76.8612 -1.46375 0.584142 0
M  V30 754 C 77.8242 -2.28784 -0.138108 0
M  V30 755 C 78.8242 -1.38471 -0.817462 0
M  V30 756 O 80.0142 -1.60833 -0.669199 0
M  V30 757 C 77.1462 -3.18892 -1.20503 0
M  V30 758 H 78.3392 -2.94117 0.586127 0
M  V30 759 H 75.8922 -1.52509 0.342171 0
M  V30 760 H 76.6272 -2.58309 -1.96079 0
M  V30 761 H 76.4122 -3.85388 -0.722384 0
M  V30 762 H 77.9022 -3.80914 -1.71155 0
M  V30 763 N 78.3393 -0.321999 -1.54275 0
M  V30 764 C 79.2863 0.544664 -2.24281 0
M  V30 765 C 80.2563 1.1129 -1.23303 0
M  V30 766 O 81.4413 1.15354 -1.51981 0
M  V30 767 C 78.5813 1.70045 -3.00298 0
M  V30 768 C 77.6943 1.16159 -4.1609 0
M  V30 769 C 76.8293 2.28293 -4.79641 0
M  V30 770 C 75.8683 1.71648 -5.8754 0
M  V30 771 N 75.0053 2.77438 -6.44959 0
M  V30 772 H 79.8453 -0.0588907 -2.97942 0
M  V30 773 H 77.3823 -0.0408345 -1.47043 0
M  V30 774 H 79.3403 2.38054 -3.42616 0
M  V30 775 H 77.9703 2.27531 -2.28975 0
M  V30 776 H 77.0223 0.373092 -3.78566 0
M  V30 777 H 78.3343 0.707087 -4.93763 0
M  V30 778 H 77.4883 3.0421 -5.2492 0
M  V30 779 H 76.2273 2.77079 -4.01346 0
M  V30 780 H 75.2323 0.942282 -5.41665 0
M  V30 781 H 76.4573 1.23741 -6.67731 0
M  V30 782 H 74.4033 3.25519 -5.69538 0
M  V30 783 H 74.3203 2.36547 -7.1804 0
M  V30 784 H 75.5883 3.53189 -6.94894 0
M  V30 785 N 79.8174 1.5752 -0.0501392 0
M  V30 786 C 80.7274 2.14952 0.939827 0
M  V30 787 C 81.7434 1.10706 1.34239 0
M  V30 788 O 82.9194 1.42869 1.41952 0
M  V30 789 C 79.9844 2.68232 2.19665 0
M  V30 790 C 79.0454 3.87272 1.85253 0
M  V30 791 C 78.2784 4.38002 3.04943 0
M  V30 792 O 78.5014 3.87811 4.18281 0
M  V30 793 O 77.4354 5.29602 2.86017 0
M  V30 794 H 81.2614 2.9986 0.481392 0
M  V30 795 H 78.8464 1.4841 0.171699 0
M  V30 796 H 80.7284 3.02475 2.93406 0
M  V30 797 H 79.4034 1.86395 2.64648 0
M  V30 798 H 78.3104 3.5792 1.0883 0
M  V30 799 H 79.6434 4.70336 1.4507 0
M  V30 800 N 81.2955 -0.223234 1.56011 0
M  V30 801 C 82.5415 -0.949279 1.79211 0
M  V30 802 C 82.8745 -1.84054 0.619494 0
M  V30 803 O 82.1495 -1.90726 -0.381317 0
M  V30 804 C 82.4325 -1.78965 3.12479 0
M  V30 805 C 82.2855 -0.924997 4.40186 0
M  V30 806 C 83.6045 -2.76774 3.42175 0
M  V30 807 H 80.7235 -0.343676 0.651963 0
M  V30 808 H 83.3655 -0.218253 1.88742 0
M  V30 809 H 81.5155 -2.41291 3.04485 0
M  V30 810 H 83.1875 -0.318615 4.60198 0
M  V30 811 H 81.4305 -0.230344 4.33188 0
M  V30 812 H 82.1015 -1.54735 5.29869 0
M  V30 813 H 84.5775 -2.24584 3.50287 0
M  V30 814 H 83.4535 -3.32678 4.36597 0
M  V30 815 H 83.7145 -3.54429 2.64258 0
M  V30 816 N 82.7736 -1.49793 -0.48987 0
M  V30 817 C 83.7036 -1.70201 -1.59856 0
M  V30 818 C 84.6846 -0.55076 -1.60937 0
M  V30 819 O 85.8696 -0.787841 -1.77501 0
M  V30 820 C 82.9996 -1.77882 -2.98287 0
M  V30 821 C 81.9536 -2.92907 -3.12073 0
M  V30 822 C 81.2796 -2.85712 -4.51965 0
M  V30 823 C 82.5796 -4.3369 -2.91051 0
M  V30 824 H 84.2736 -2.63025 -1.43032 0
M  V30 825 H 81.8196 -1.26574 -0.686664 0
M  V30 826 H 83.7726 -1.90744 -3.75759 0
M  V30 827 H 82.4966 -0.816653 -3.16225 0
M  V30 828 H 81.1556 -2.79665 -2.37029 0
M  V30 829 H 80.8036 -1.8738 -4.66795 0
M  V30 830 H 80.5036 -3.62921 -4.62128 0
M  V30 831 H 82.0276 -3.00598 -5.31482 0
M  V30 832 H 83.4416 -4.47555 -3.58284 0
M  V30 833 H 81.8386 -5.12205 -3.12675 0
M  V30 834 H 82.9086 -4.47362 -1.87071 0
M  V30 835 N 84.2517 0.741722 -1.39055 0
M  V30 836 C 85.6627 1.31966 -1.32068 0
M  V30 837 C 86.0137 1.96192 0.0180797 0
M  V30 838 O 85.1387 1.95861 0.920196 0
M  V30 839 C 85.7337 2.39954 -2.39181 0
M  V30 840 C 84.2927 2.93438 -2.35735 0
M  V30 841 C 83.4397 1.66936 -2.21422 0
M  V30 842 H 86.3907 0.539721 -1.4924 0
M  V30 843 H 86.4117 3.20182 -2.05581 0
M  V30 844 H 85.9237 1.9318 -3.36605 0
M  V30 845 H 84.0247 3.4451 -1.41929 0
M  V30 846 H 84.1377 3.4701 -3.30335 0
M  V30 847 H 82.5017 1.91016 -1.68478 0
M  V30 848 H 83.2847 1.22224 -3.20806 0
M  V30 849 N 85.7298 1.2412 0.971189 0
M  V30 850 C 86.6768 1.0305 2.06517 0
M  V30 851 C 87.6468 -0.0550666 1.66009 0
M  V30 852 O 88.8318 0.0988688 1.90544 0
M  V30 853 C 85.9718 0.637653 3.39158 0
M  V30 854 C 85.0848 1.79633 3.92882 0
M  V30 855 C 84.2198 1.34939 5.13775 0
M  V30 856 C 83.2588 2.47823 5.59687 0
M  V30 857 N 82.3958 2.04022 6.71803 0
M  V30 858 H 87.2358 1.96685 2.23873 0
M  V30 859 H 84.7728 0.979694 1.09729 0
M  V30 860 H 86.7308 0.390931 4.15364 0
M  V30 861 H 85.3608 -0.261693 3.21737 0
M  V30 862 H 84.4128 2.15681 3.13346 0
M  V30 863 H 85.7248 2.64466 4.22918 0
M  V30 864 H 84.8788 1.06134 5.97345 0
M  V30 865 H 83.6178 0.471557 4.85415 0
M  V30 866 H 82.6228 2.77392 4.74693 0
M  V30 867 H 83.8478 3.36158 5.90063 0
M  V30 868 H 81.7938 1.18632 6.45184 0
M  V30 869 H 81.7108 2.82409 7.01271 0
M  V30 870 H 82.9788 1.78347 7.58823 0
M  V30 871 N 87.2079 -1.17134 1.05439 0
M  V30 872 C 88.4379 -1.91094 0.785274 0
M  V30 873 C 88.8459 -1.77198 -0.663142 0
M  V30 874 O 88.1889 -1.10835 -1.46497 0
M  V30 875 C 88.2509 -3.42594 1.08949 0
M  V30 876 C 87.9149 -3.80274 2.53458 0
M  V30 877 C 88.9119 -3.82912 3.51673 0
M  V30 878 C 86.5969 -4.11162 2.88532 0
M  V30 879 C 88.5909 -4.15913 4.83006 0
M  V30 880 C 86.2779 -4.43831 4.20068 0
M  V30 881 C 87.2759 -4.46185 5.17115 0
M  V30 882 O 86.9639 -4.78083 6.46291 0
M  V30 883 H 86.6959 -0.613073 0.284811 0
M  V30 884 H 89.2499 -1.49461 1.40893 0
M  V30 885 H 87.4799 -3.84534 0.408741 0
M  V30 886 H 89.1689 -3.97817 0.805991 0
M  V30 887 H 89.9349 -3.5917 3.25917 0
M  V30 888 H 85.8139 -4.085 2.13656 0
M  V30 889 H 89.3579 -4.17665 5.5875 0
M  V30 890 H 85.2549 -4.67037 4.45586 0
M  V30 891 H 86.0229 -4.9593 6.51149 0
M  V30 892 N 88.686 -0.835752 -1.33615 0
M  V30 893 C 89.933 -0.429959 -1.97883 0
M  V30 894 C 90.261 1.01006 -1.66217 0
M  V30 895 O 89.516 1.72047 -0.93265 0
M  V30 896 C 89.815 -0.593925 -3.52431 0
M  V30 897 C 89.481 -2.00158 -4.04039 0
M  V30 898 C 88.143 -2.38662 -4.17844 0
M  V30 899 C 90.495 -2.92117 -4.31644 0
M  V30 900 C 87.823 -3.68435 -4.56588 0
M  V30 901 C 90.175 -4.21368 -4.71838 0
M  V30 902 C 88.839 -4.59833 -4.83849 0
M  V30 903 H 88.109 -0.157333 -0.724104 0
M  V30 904 H 90.756 -1.06217 -1.59343 0
M  V30 905 H 89.061 0.121619 -3.91611 0
M  V30 906 H 90.758 -0.260282 -4.00154 0
M  V30 907 H 87.348 -1.69252 -3.93766 0
M  V30 908 H 91.532 -2.63608 -4.20505 0
M  V30 909 H 86.788 -3.98046 -4.64079 0
M  V30 910 H 90.962 -4.92703 -4.92155 0
M  V30 911 H 88.589 -5.60438 -5.13627 0
M  V30 912 N 90.1641 1.46063 -0.591896 0
M  V30 913 C 91.1111 2.30399 0.136069 0
M  V30 914 C 92.0811 1.41169 0.875238 0
M  V30 915 O 93.2661 1.70112 0.86409 0
M  V30 916 C 90.4061 3.25804 1.13781 0
M  V30 917 C 89.5191 4.30134 0.401137 0
M  V30 918 C 88.6541 5.12659 1.39121 0
M  V30 919 C 87.6931 6.0873 0.641462 0
M  V30 920 N 86.8301 6.8409 1.58004 0
M  V30 921 H 91.6701 2.92118 -0.589144 0
M  V30 922 H 89.2071 1.43959 -0.302342 0
M  V30 923 H 91.1651 3.79569 1.73156 0
M  V30 924 H 89.7951 2.65872 1.83062 0
M  V30 925 H 88.8471 3.79152 -0.307826 0
M  V30 926 H 90.1591 4.98458 -0.184565 0
M  V30 927 H 89.3131 5.70747 2.05749 0
M  V30 928 H 88.0521 4.44316 2.01084 0
M  V30 929 H 87.0571 5.49786 -0.0385419 0
M  V30 930 H 88.2821 6.79095 0.0270945 0
M  V30 931 H 86.2281 6.18449 2.18761 0
M  V30 932 H 86.1451 7.48709 1.04738 0
M  V30 933 H 87.4131 7.4673 2.23639 0
M  V30 934 N 91.6422 0.330177 1.54103 0
M  V30 935 C 92.5922 -0.548456 2.21305 0
M  V30 936 C 93.5762 -1.07651 1.19583 0
M  V30 937 O 94.7682 -1.01243 1.45186 0
M  V30 938 C 91.8972 -1.70559 2.97934 0
M  V30 939 C 90.9832 -1.19212 4.07 0
M  V30 940 N 91.3742 -0.398831 5.04225 0
M  V30 941 C 89.6722 -1.47024 4.2107 0
M  V30 942 C 90.3732 -0.121761 5.81573 0
M  V30 943 N 89.3492 -0.709722 5.38947 0
M  V30 944 H 93.1512 0.0648483 2.93828 0
M  V30 945 H 90.6652 0.136363 1.61826 0
M  V30 946 H 92.6622 -2.34688 3.44568 0
M  V30 947 H 91.3222 -2.32231 2.26934 0
M  V30 948 H 92.3332 -0.0410869 5.17884 0
M  V30 949 H 89.0102 -2.09232 3.61287 0
M  V30 950 H 90.4002 0.517298 6.69906 0
M  V30 951 N 93.1203 -1.57491 0.0584922 0
M  V30 952 C 94.0683 -2.13148 -0.931168 0
M  V30 953 C 95.0623 -1.06507 -1.31729 0
M  V30 954 O 96.2683 -1.24906 -1.29609 0
M  V30 955 H 92.6433 -0.68137 -0.31818 0
M  V30 956 H 94.6143 -2.95187 -0.436707 0
M  V30 957 C 93.3633 -2.69732 -2.19408 0
M  V30 958 H 92.6863 -3.51454 -1.90578 0
M  V30 959 H 94.1263 -3.12287 -2.86798 0
M  V30 960 C 92.5853 -1.63855 -2.94369 0
M  V30 961 O 93.1153 -1.05565 -3.87581 0
M  V30 962 N 91.3213 -1.35202 -2.57233 0
M  V30 963 H 90.8683 -1.82791 -1.81508 0
M  V30 964 H 90.8263 -0.645922 -3.07693 0
M  V30 965 N 94.5984 0.214957 -1.56127 0
M  V30 966 C 95.5464 1.28601 -1.93816 0
M  V30 967 C 96.5404 1.48175 -0.821016 0
M  V30 968 O 97.7464 1.49271 -1.0059 0
M  V30 969 H 94.1214 0.431302 -0.616022 0
M  V30 970 H 96.0924 0.940991 -2.83175 0
M  V30 971 C 94.8414 2.62779 -2.27689 0
M  V30 972 H 94.1644 2.48527 -3.13168 0
M  V30 973 H 95.6044 3.36517 -2.57939 0
M  V30 974 C 94.0634 3.18285 -1.10436 0
M  V30 975 O 94.5934 4.00002 -0.368945 0
M  V30 976 N 92.7994 2.7675 -0.886433 0
M  V30 977 H 92.3464 2.10404 -1.48619 0
M  V30 978 H 92.3044 3.14229 -0.103656 0
M  V30 979 N 96.0765 1.50051 0.48192 0
M  V30 980 C 97.0095 1.62749 1.59963 0
M  V30 981 C 97.9875 0.475903 1.5548 0
M  V30 982 O 99.1715 0.693986 1.7526 0
M  V30 983 C 96.2985 1.60008 2.98522 0
M  V30 984 C 95.3445 2.80596 3.21198 0
M  V30 985 S 96.1775 4.42038 3.02262 0
M  V30 986 C 97.3335 4.41973 4.43182 0
M  V30 987 H 97.5665 2.57296 1.4895 0
M  V30 988 H 95.0995 1.39179 0.668477 0
M  V30 989 H 97.0575 1.59112 3.78409 0
M  V30 990 H 95.7185 0.667153 3.06933 0
M  V30 991 H 94.9115 2.74952 4.22395 0
M  V30 992 H 94.5135 2.79003 2.49065 0
M  V30 993 H 96.8055 4.14868 5.35622 0
M  V30 994 H 97.7485 5.43512 4.53873 0
M  V30 995 H 98.1565 3.71812 4.24755 0
M  V30 996 N 97.5546 -0.734337 1.39446 0
M  V30 997 C 98.5176 -1.83004 1.37994 0
M  V30 998 C 99.5176 -1.58397 0.276938 0
M  V30 999 O 100.708 -1.65785 0.534875 0
M  V30 1000 C 97.8396 -3.20802 1.1532 0
M  V30 1001 H 99.0326 -1.85694 2.35494 0
M  V30 1002 H 96.5856 -0.938059 1.25021 0
M  V30 1003 H 97.3206 -3.23772 0.185036 0
M  V30 1004 H 97.1056 -3.4006 1.95197 0
M  V30 1005 H 98.5956 -4.00862 1.17046 0
M  V30 1006 N 99.0327 -1.24633 -0.964593 0
M  V30 1007 C 100.258 -1.11596 -1.74818 0
M  V30 1008 C 100.683 0.32723 -1.85232 0
M  V30 1009 O 100.041 1.23695 -1.32549 0
M  V30 1010 C 100.089 -1.76397 -3.1451 0
M  V30 1011 O 99.1927 -1.03685 -3.99153 0
M  V30 1012 H 98.5337 -0.390196 -0.537255 0
M  V30 1013 H 101.064 -1.65002 -1.20977 0
M  V30 1014 H 101.074 -1.8228 -3.65018 0
M  V30 1015 H 99.7487 -2.81401 -3.06246 0
M  V30 1016 H 98.3257 -1.05611 -3.57632 0
M  V30 1017 N 100.511 1.16574 -1.06058 0
M  V30 1018 C 101.758 1.87047 -0.775873 0
M  V30 1019 C 102.086 1.81562 0.697534 0
M  V30 1020 O 101.341 1.22445 1.52662 0
M  V30 1021 C 101.64 3.36195 -1.21275 0
M  V30 1022 C 101.306 3.6188 -2.68986 0
M  V30 1023 C 99.9678 3.68599 -3.09335 0
M  V30 1024 C 102.32 3.72648 -3.64394 0
M  V30 1025 C 99.6478 3.83584 -4.43937 0
M  V30 1026 C 102 3.89154 -4.98741 0
M  V30 1027 C 100.664 3.94114 -5.3873 0
M  V30 1028 H 99.9338 0.684452 -0.283912 0
M  V30 1029 H 102.581 1.37853 -1.32925 0
M  V30 1030 H 100.886 3.87505 -0.578528 0
M  V30 1031 H 102.583 3.89103 -0.969542 0
M  V30 1032 H 99.1728 3.57281 -2.36744 0
M  V30 1033 H 103.357 3.66769 -3.34356 0
M  V30 1034 H 98.6128 3.85677 -4.74409 0
M  V30 1035 H 102.787 3.96427 -5.72554 0
M  V30 1036 H 100.414 4.05478 -6.43033 0
M  V30 1037 N 101.989 0.842826 1.3317 0
M  V30 1038 C 103.235 0.441099 1.97945 0
M  V30 1039 C 103.568 -0.998024 1.66593 0
M  V30 1040 O 102.843 -1.69839 0.947898 0
M  V30 1041 C 103.126 0.666841 3.53872 0
M  V30 1042 C 102.979 2.15352 3.94897 0
M  V30 1043 C 104.298 0.115544 4.39948 0
M  V30 1044 H 101.417 0.161739 0.719034 0
M  V30 1045 H 104.059 1.05907 1.57746 0
M  V30 1046 H 102.209 0.140828 3.88245 0
M  V30 1047 H 103.881 2.7447 3.70761 0
M  V30 1048 H 102.124 2.63653 3.44484 0
M  V30 1049 H 102.795 2.26221 5.03516 0
M  V30 1050 H 105.271 0.565213 4.12243 0
M  V30 1051 H 104.147 0.303152 5.48062 0
M  V30 1052 H 104.408 -0.980935 4.3108 0
M  V30 1053 N 103.467 -1.45747 0.599634 0
M  V30 1054 C 104.883 -1.57424 0.26264 0
M  V30 1055 C 105.083 -1.59222 -1.23493 0
M  V30 1056 O 104.139 -1.51825 -2.01756 0
M  V30 1057 C 105.452 -2.86061 0.926795 0
M  V30 1058 C 107 -2.99722 0.901967 0
M  V30 1059 C 107.475 -4.31119 1.54598 0
M  V30 1060 N 108.966 -4.37858 1.5111 0
M  V30 1061 C 109.701 -5.3818 1.97863 0
M  V30 1062 N 109.197 -6.45083 2.52666 0
M  V30 1063 N 110.99 -5.29487 1.88679 0
M  V30 1064 H 103.141 -1.42823 1.57211 0
M  V30 1065 H 105.404 -0.68235 0.658105 0
M  V30 1066 H 105.11 -2.90605 1.98095 0
M  V30 1067 H 104.984 -3.74563 0.445238 0
M  V30 1068 H 107.371 -2.9475 -0.143617 0
M  V30 1069 H 107.452 -2.12652 1.42171 0
M  V30 1070 H 107.096 -4.36849 2.59085 0
M  V30 1071 H 107.026 -5.16992 1.00132 0
M  V30 1072 H 109.517 -3.61209 1.11068 0
M  V30 1073 H 109.83 -7.17869 2.86155 0
M  V30 1074 H 108.175 -6.45856 2.56701 0
M  V30 1075 H 111.366 -4.44877 1.4561 0
M  V30 1076 H 111.539 -6.07524 2.25429 0
M  V30 1077 N 104.945 -0.338344 -1.53925 0
M  V30 1078 C 105.877 0.555117 -2.22376 0
M  V30 1079 C 106.89 1.06812 -1.22862 0
M  V30 1080 O 108.079 0.979163 -1.49247 0
M  V30 1081 C 105.179 1.77609 -2.88631 0
M  V30 1082 C 104.352 1.39927 -4.14414 0
M  V30 1083 C 103.411 2.47936 -4.64127 0
M  V30 1084 O 102.437 2.11461 -5.28463 0
M  V30 1085 N 103.639 3.79107 -4.39612 0
M  V30 1086 H 106.404 -0.0310778 -2.99684 0
M  V30 1087 H 103.965 -0.162226 -1.61085 0
M  V30 1088 H 105.957 2.49287 -3.18807 0
M  V30 1089 H 104.527 2.26978 -2.14941 0
M  V30 1090 H 103.747 0.513481 -3.90841 0
M  V30 1091 H 105.035 1.12341 -4.96243 0
M  V30 1092 H 104.433 4.11531 -3.88148 0
M  V30 1093 H 102.99 4.4697 -4.74406 0
M  V30 1094 N 106.423 1.57458 -0.0668435 0
M  V30 1095 C 107.353 2.15468 0.899764 0
M  V30 1096 C 108.334 1.08042 1.31381 0
M  V30 1097 O 109.519 1.36054 1.38574 0
M  V30 1098 C 106.649 2.71232 2.16911 0
M  V30 1099 C 105.603 3.83781 1.89463 0
M  V30 1100 C 104.929 4.26127 3.22986 0
M  V30 1101 C 106.229 5.08238 1.20381 0
M  V30 1102 H 107.923 2.96488 0.416529 0
M  V30 1103 H 105.469 1.4262 0.198908 0
M  V30 1104 H 107.422 3.10458 2.84945 0
M  V30 1105 H 106.146 1.87426 2.67468 0
M  V30 1106 H 104.805 3.45051 1.23836 0
M  V30 1107 H 104.453 3.39249 3.71374 0
M  V30 1108 H 104.153 5.01993 3.05413 0
M  V30 1109 H 105.677 4.67966 3.92225 0
M  V30 1110 H 107.091 5.44811 1.78475 0
M  V30 1111 H 105.488 5.89349 1.13083 0
M  V30 1112 H 106.558 4.84558 0.182153 0
M  V30 1113 N 107.901 -0.206675 1.56239 0
M  V30 1114 C 108.849 -1.27571 1.94495 0
M  V30 1115 C 109.843 -1.47737 0.828862 0
M  V30 1116 O 111.049 -1.48735 1.0138 0
M  V30 1117 H 107.424 -0.428029 0.6183 0
M  V30 1118 H 109.395 -0.925961 2.8367 0
M  V30 1119 C 108.144 -2.61568 2.29079 0
M  V30 1120 H 107.467 -2.46863 3.14482 0
M  V30 1121 H 108.907 -3.35144 2.5972 0
M  V30 1122 C 107.366 -3.17695 1.12123 0
M  V30 1123 O 107.896 -3.99801 0.390153 0
M  V30 1124 N 106.102 -2.76276 0.901097 0
M  V30 1125 H 105.649 -2.09613 1.49733 0
M  V30 1126 H 105.607 -3.1417 0.120319 0
M  V30 1127 N 109.379 -1.50304 -0.473955 0
M  V30 1128 C 110.312 -1.63595 -1.59097 0
M  V30 1129 C 111.29 -0.484142 -1.55225 0
M  V30 1130 O 112.474 -0.703271 -1.7489 0
M  V30 1131 C 109.601 -1.61589 -2.97669 0
M  V30 1132 C 108.647 -2.82295 -3.19705 0
M  V30 1133 S 109.48 -4.43635 -2.99913 0
M  V30 1134 C 110.636 -4.44317 -4.40832 0
M  V30 1135 H 110.869 -2.58082 -1.47583 0
M  V30 1136 H 108.402 -1.39531 -0.661087 0
M  V30 1137 H 110.36 -1.61116 -3.7756 0
M  V30 1138 H 109.021 -0.683421 -3.06575 0
M  V30 1139 H 108.214 -2.77188 -4.20931 0
M  V30 1140 H 107.816 -2.8032 -2.47582 0
M  V30 1141 H 110.108 -4.17703 -5.33414 0
M  V30 1142 H 111.051 -5.45911 -4.50984 0
M  V30 1143 H 111.459 -3.74059 -4.22777 0
M  V30 1144 N 110.857 0.726932 -1.39834 0
M  V30 1145 C 112.087 1.51393 -1.40583 0
M  V30 1146 C 112.495 1.892 -0.000740625 0
M  V30 1147 O 111.838 1.55189 0.982951 0
M  V30 1148 C 111.9 2.82588 -2.22226 0
M  V30 1149 C 111.564 2.67169 -3.70769 0
M  V30 1150 C 112.561 2.3518 -4.63666 0
M  V30 1151 C 110.246 2.83788 -4.14451 0
M  V30 1152 C 112.24 2.20002 -5.98229 0
M  V30 1153 C 109.927 2.68229 -5.49087 0
M  V30 1154 C 110.925 2.36382 -6.4079 0
M  V30 1155 O 110.613 2.2093 -7.72946 0
M  V30 1156 H 110.345 0.474168 -0.48181 0
M  V30 1157 H 112.899 0.905247 -1.84376 0
M  V30 1158 H 111.129 3.45746 -1.73195 0
M  V30 1159 H 112.818 3.44247 -2.15055 0
M  V30 1160 H 113.584 2.21984 -4.31217 0
M  V30 1161 H 109.463 3.07566 -3.43401 0
M  V30 1162 H 113.007 1.95067 -6.69772 0
M  V30 1163 H 108.904 2.81006 -5.81125 0
M  V30 1164 H 109.672 2.35937 -7.83757 0
M  V30 1165 N 112.336 1.25143 0.95797 0
M  V30 1166 C 113.584 1.09476 1.69881 0
M  V30 1167 C 113.905 -0.365502 1.91544 0
M  V30 1168 O 113.175 -1.25985 1.50015 0
M  V30 1169 H 111.755 0.402128 0.629525 0
M  V30 1170 H 114.417 1.57214 1.15194 0
M  V30 1171 H 113.513 1.60046 2.6794 0
M  V30 1172 N 113.814 -1.1601 1.06675 0
M  V30 1173 C 115.061 -1.86633 0.785781 0
M  V30 1174 C 115.389 -1.81929 -0.687896 0
M  V30 1175 O 114.644 -1.23253 -1.52011 0
M  V30 1176 C 114.943 -3.35547 1.23057 0
M  V30 1177 C 114.609 -3.60448 2.70902 0
M  V30 1178 C 113.271 -3.66954 3.11285 0
M  V30 1179 C 115.623 -3.7071 3.66365 0
M  V30 1180 C 112.951 -3.81225 4.45965 0
M  V30 1181 C 115.303 -3.86503 5.00797 0
M  V30 1182 C 113.967 -3.91252 5.40813 0
M  V30 1183 H 113.237 -0.682937 0.287538 0
M  V30 1184 H 115.884 -1.37146 1.33654 0
M  V30 1185 H 114.189 -3.87193 0.59907 0
M  V30 1186 H 115.886 -3.88583 0.990163 0
M  V30 1187 H 112.476 -3.56021 2.38636 0
M  V30 1188 H 116.66 -3.64991 3.36296 0
M  V30 1189 H 111.916 -3.83155 4.76447 0
M  V30 1190 H 116.09 -3.93385 5.74649 0
M  V30 1191 H 113.717 -4.02062 6.45174 0
M  V30 1192 N 115.292 -0.849877 -1.32721 0
M  V30 1193 C 116.708 -0.539102 -1.50219 0
M  V30 1194 C 116.908 0.931271 -1.78689 0
M  V30 1195 O 115.964 1.71455 -1.85363 0
M  V30 1196 C 117.277 -1.42196 -2.64954 0
M  V30 1197 C 118.825 -1.42189 -2.78839 0
M  V30 1198 C 119.3 -2.28985 -3.96648 0
M  V30 1199 N 120.791 -2.26754 -4.03902 0
M  V30 1200 C 121.526 -2.90644 -4.94281 0
M  V30 1201 N 121.022 -3.63629 -5.897 0
M  V30 1202 N 122.815 -2.80057 -4.87365 0
M  V30 1203 H 114.966 -1.80156 -1.12506 0
M  V30 1204 H 117.229 -0.769217 -0.554085 0
M  V30 1205 H 116.935 -2.46733 -2.50631 0
M  V30 1206 H 116.809 -1.10591 -3.60624 0
M  V30 1207 H 119.196 -0.38419 -2.92588 0
M  V30 1208 H 119.277 -1.77807 -1.83898 0
M  V30 1209 H 118.921 -3.32819 -3.83658 0
M  V30 1210 H 118.851 -1.90702 -4.90857 0
M  V30 1211 H 121.342 -1.73688 -3.3562 0
M  V30 1212 H 121.655 -4.09558 -6.55349 0
M  V30 1213 H 120 -3.67737 -5.89741 0
M  V30 1214 H 123.191 -2.22593 -4.11789 0
M  V30 1215 H 123.364 -3.30132 -5.57599 0
M  V30 1216 N 116.77 1.45427 -0.607355 0
M  V30 1217 C 117.717 2.3053 0.111625 0
M  V30 1218 C 118.687 1.4209 0.860216 0
M  V30 1219 O 119.872 1.71019 0.845998 0
M  V30 1220 C 117.012 3.26992 1.10319 0
M  V30 1221 C 116.125 4.30535 0.355493 0
M  V30 1222 C 115.26 5.14105 1.33676 0
M  V30 1223 C 114.299 6.09376 0.576862 0
M  V30 1224 N 113.436 6.85727 1.5074 0
M  V30 1225 H 118.276 2.91477 -0.620093 0
M  V30 1226 H 115.813 1.43631 -0.317594 0
M  V30 1227 H 117.771 3.81385 1.6912 0
M  V30 1228 H 116.401 2.67799 1.80232 0
M  V30 1229 H 115.453 3.78805 -0.348023 0
M  V30 1230 H 116.765 4.98235 -0.237423 0
M  V30 1231 H 115.919 5.72897 1.99684 0
M  V30 1232 H 114.658 4.46423 1.9636 0
M  V30 1233 H 113.663 5.49715 -0.0968519 0
M  V30 1234 H 114.888 6.79085 -0.0449341 0
M  V30 1235 H 112.834 6.20735 2.12189 0
M  V30 1236 H 112.751 7.49778 0.967913 0
M  V30 1237 H 114.019 7.4906 2.15706 0
M  V30 1238 N 118.248 0.346503 1.53744 0
M  V30 1239 C 119.494 -0.249473 2.0126 0
M  V30 1240 C 119.827 -1.49965 1.23386 0
M  V30 1241 O 119.102 -1.91811 0.32229 0
M  V30 1242 C 119.385 -0.560643 3.55709 0
M  V30 1243 C 119.238 0.701836 4.44291 0
M  V30 1244 C 120.557 -1.36905 4.18264 0
M  V30 1245 H 117.676 -0.0891987 0.731582 0
M  V30 1246 H 120.318 0.467624 1.84156 0
M  V30 1247 H 118.468 -1.17156 3.70414 0
M  V30 1248 H 120.14 1.33974 4.41417 0
M  V30 1249 H 118.383 1.32612 4.13033 0
M  V30 1250 H 119.054 0.43933 5.50249 0
M  V30 1251 H 121.53 -0.852448 4.07275 0
M  V30 1252 H 120.406 -1.55553 5.26398 0
M  V30 1253 H 120.667 -2.37203 3.73078 0
M  V30 1254 N 119.726 -1.57421 0.075193 0
M  V30 1255 C 120.972 -1.93905 -0.594025 0
M  V30 1256 C 121.305 -0.955701 -1.69056 0
M  V30 1257 O 120.58 0.0145373 -1.94495 0
M  V30 1258 C 120.863 -3.40638 -1.1678 0
M  V30 1259 C 120.716 -4.49733 -0.0776792 0
M  V30 1260 C 122.035 -3.88259 -2.07228 0
M  V30 1261 H 119.154 -0.705105 -0.214466 0
M  V30 1262 H 121.796 -1.8947 0.141854 0
M  V30 1263 H 119.946 -3.44549 -1.79494 0
M  V30 1264 H 121.618 -4.57942 0.555573 0
M  V30 1265 H 119.861 -4.29751 0.591286 0
M  V30 1266 H 120.532 -5.49549 -0.519603 0
M  V30 1267 H 123.008 -3.86376 -1.54445 0
M  V30 1268 H 121.884 -4.91533 -2.44308 0
M  V30 1269 H 122.145 -3.26396 -2.98191 0
M  V30 1270 N 121.204 0.198386 -1.56346 0
M  V30 1271 C 122.154 1.2499 -1.90687 0
M  V30 1272 C 123.138 1.41158 -0.772217 0
M  V30 1273 O 124.33 1.43584 -1.03502 0
M  V30 1274 C 121.459 2.59542 -2.24706 0
M  V30 1275 C 120.545 2.47181 -3.44619 0
M  V30 1276 N 120.936 2.04495 -4.62618 0
M  V30 1277 C 119.234 2.78082 -3.48692 0
M  V30 1278 C 119.935 2.03945 -5.44776 0
M  V30 1279 N 118.911 2.45323 -4.85095 0
M  V30 1280 H 122.713 0.911149 -2.7942 0
M  V30 1281 H 120.227 0.40684 -1.57221 0
M  V30 1282 H 122.224 3.3549 -2.47491 0
M  V30 1283 H 120.884 2.94244 -1.37298 0
M  V30 1284 H 121.895 1.75256 -4.87345 0
M  V30 1285 H 118.572 3.17002 -2.71691 0
M  V30 1286 H 119.962 1.72872 -6.4928 0
M  V30 1287 N 122.682 1.50554 0.465978 0
M  V30 1288 C 123.931 1.61038 1.21448 0
M  V30 1289 C 124.244 0.31865 1.92987 0
M  V30 1290 O 125.45 0.302469 2.6981 0
M  V30 1291 C 123.906 2.84283 2.20706 0
M  V30 1292 C 123.514 4.20352 1.54946 0
M  V30 1293 C 125.258 3.04115 2.96166 0
M  V30 1294 C 123.165 5.34778 2.5252 0
M  V30 1295 H 122.095 0.599718 0.457005 0
M  V30 1296 H 124.746 1.7699 0.484424 0
M  V30 1297 H 123.128 2.61901 2.97025 0
M  V30 1298 H 124.302 4.53008 0.843811 0
M  V30 1299 H 122.617 4.06167 0.917475 0
M  V30 1300 H 125.214 3.86774 3.69202 0
M  V30 1301 H 125.557 2.16045 3.55852 0
M  V30 1302 H 126.09 3.26702 2.26959 0
M  V30 1303 H 122.829 6.25018 1.97566 0
M  V30 1304 H 122.349 5.06534 3.21222 0
M  V30 1305 H 124.028 5.65561 3.14245 0
M  V30 1306 N 124.16 -0.719506 1.40217 0
M  V30 1307 C 125.07 -1.86378 1.42479 0
M  V30 1308 C 126.086 -1.71073 0.317834 0
M  V30 1309 O 127.262 -1.93406 0.561794 0
M  V30 1310 C 124.327 -3.22136 1.28178 0
M  V30 1311 C 123.388 -3.49723 2.48982 0
M  V30 1312 C 122.621 -4.79004 2.35353 0
M  V30 1313 O 122.844 -5.53821 1.36524 0
M  V30 1314 O 121.778 -5.06839 3.2465 0
M  V30 1315 H 125.604 -1.87425 2.38968 0
M  V30 1316 H 123.189 -0.869405 1.21498 0
M  V30 1317 H 125.071 -4.03234 1.22395 0
M  V30 1318 H 123.746 -3.21825 0.347934 0
M  V30 1319 H 122.653 -2.6865 2.60342 0
M  V30 1320 H 123.986 -3.54828 3.41113 0
M  V30 1321 N 125.638 -1.25649 -0.95132 0
M  V30 1322 C 126.57 -1.02112 -2.05197 0
M  V30 1323 C 127.583 0.0150571 -1.62793 0
M  V30 1324 O 128.772 -0.223874 -1.77091 0
M  V30 1325 C 125.872 -0.522361 -3.3485 0
M  V30 1326 C 125.045 -1.62546 -4.06076 0
M  V30 1327 C 124.104 -1.12649 -5.14001 0
M  V30 1328 O 123.13 -1.82156 -5.39266 0
M  V30 1329 N 124.332 0.03047 -5.80492 0
M  V30 1330 H 127.097 -1.96885 -2.25957 0
M  V30 1331 H 124.658 -1.16899 -1.1201 0
M  V30 1332 H 126.65 -0.172961 -4.0433 0
M  V30 1333 H 125.22 0.33151 -3.10837 0
M  V30 1334 H 124.44 -2.14628 -3.30649 0
M  V30 1335 H 125.728 -2.36644 -4.50419 0
M  V30 1336 H 125.126 0.611169 -5.62389 0
M  V30 1337 H 123.683 0.320875 -6.5101 0
M  V30 1338 N 127.117 1.15442 -1.07289 0
M  V30 1339 C 128.365 1.85845 -0.794096 0
M  V30 1340 C 128.686 1.82692 0.681809 0
M  V30 1341 O 127.956 1.26741 1.49377 0
M  V30 1342 H 126.536 0.688089 -0.290763 0
M  V30 1343 H 129.198 1.39947 -1.3565 0
M  V30 1344 H 128.294 2.91001 -1.12804 0
M  V30 1345 N 128.595 0.856903 1.32268 0
M  V30 1346 C 129.843 0.460474 1.96784 0
M  V30 1347 C 130.164 -0.987701 1.68135 0
M  V30 1348 O 129.434 -1.69058 0.989765 0
M  V30 1349 H 128.014 0.167289 0.728027 0
M  V30 1350 H 130.676 1.09383 1.61312 0
M  V30 1351 H 129.772 0.60739 3.06133 0
M  V30 1352 N 130.073 -1.45103 0.615059 0
M  V30 1353 C 131.003 -2.33339 -0.0865619 0
M  V30 1354 C 131.984 -1.4727 -0.851209 0
M  V30 1355 O 133.169 -1.76026 -0.820281 0
M  V30 1356 C 130.299 -3.30095 -1.07956 0
M  V30 1357 C 129.253 -4.25858 -0.427628 0
M  V30 1358 C 128.579 -5.12361 -1.5294 0
M  V30 1359 C 129.879 -5.18165 0.655944 0
M  V30 1360 H 131.573 -2.92254 0.650224 0
M  V30 1361 H 129.119 -1.40532 0.314138 0
M  V30 1362 H 131.072 -3.90698 -1.57901 0
M  V30 1363 H 129.796 -2.69355 -1.84703 0
M  V30 1364 H 128.455 -3.66564 0.0510292 0
M  V30 1365 H 128.103 -4.47984 -2.28734 0
M  V30 1366 H 127.803 -5.77238 -1.09865 0
M  V30 1367 H 129.327 -5.75833 -2.03098 0
M  V30 1368 H 130.741 -5.72796 0.240257 0
M  V30 1369 H 129.138 -5.91559 1.00888 0
M  V30 1370 H 130.208 -4.60144 1.52957 0
M  V30 1371 N 131.551 -0.354651 -1.53558 0
M  V30 1372 C 132.797 0.238797 -2.01389 0
M  V30 1373 C 133.13 1.49309 -1.2418 0
M  V30 1374 O 132.405 1.91638 -0.332457 0
M  V30 1375 C 132.688 0.541771 -3.56001 0
M  V30 1376 C 132.541 -0.725388 -4.43912 0
M  V30 1377 C 133.86 1.34685 -4.18984 0
M  V30 1378 H 130.979 0.0853177 -0.732045 0
M  V30 1379 H 133.621 -0.477384 -1.83905 0
M  V30 1380 H 131.771 1.15189 -3.71031 0
M  V30 1381 H 133.443 -1.36313 -4.407 0
M  V30 1382 H 131.686 -1.34801 -4.12324 0
M  V30 1383 H 132.357 -0.468505 -5.50008 0
M  V30 1384 H 134.833 0.830837 -4.07721 0
M  V30 1385 H 133.709 1.52759 -5.27215 0
M  V30 1386 H 133.97 2.35221 -3.74331 0
M  V30 1387 N 133.029 1.57378 -0.0835403 0
M  V30 1388 C 133.976 2.13384 0.879539 0
M  V30 1389 C 134.946 1.04936 1.28754 0
M  V30 1390 O 136.131 1.32662 1.37133 0
M  V30 1391 C 133.271 2.70932 2.13752 0
M  V30 1392 C 132.384 3.93575 1.7811 0
M  V30 1393 C 131.519 4.39326 2.98607 0
M  V30 1394 C 130.558 5.54587 2.59037 0
M  V30 1395 N 129.695 5.95243 3.72331 0
M  V30 1396 H 134.535 2.9537 0.395076 0
M  V30 1397 H 132.072 1.45953 0.183349 0
M  V30 1398 H 134.03 3.02411 2.87408 0
M  V30 1399 H 132.66 1.91693 2.59718 0
M  V30 1400 H 131.712 3.68483 0.94469 0
M  V30 1401 H 133.024 4.77258 1.45005 0
M  V30 1402 H 132.178 4.72528 3.80529 0
M  V30 1403 H 130.917 3.5452 3.34913 0
M  V30 1404 H 129.922 5.21024 1.75539 0
M  V30 1405 H 131.147 6.41133 2.23887 0
M  V30 1406 H 129.093 5.13385 4.08378 0
M  V30 1407 H 129.01 6.73694 3.43034 0
M  V30 1408 H 130.278 6.33072 4.54797 0
M  V30 1409 N 134.507 -0.190092 1.56449 0
M  V30 1410 C 135.918 -0.754312 1.70784 0
M  V30 1411 C 136.269 -1.83631 0.690951 0
M  V30 1412 O 135.394 -2.15868 -0.151604 0
M  V30 1413 C 135.989 -1.37503 3.09642 0
M  V30 1414 C 134.548 -1.88628 3.25725 0
M  V30 1415 C 133.695 -0.758098 2.66736 0
M  V30 1416 H 136.646 0.0350524 1.58661 0
M  V30 1417 H 136.667 -2.2445 3.0725 0
M  V30 1418 H 136.179 -0.587302 3.83631 0
M  V30 1419 H 134.28 -2.70103 2.56661 0
M  V30 1420 H 134.393 -2.04462 4.3328 0
M  V30 1421 H 132.757 -1.17369 2.26046 0
M  V30 1422 H 133.54 0.0174705 3.43296 0
M  V30 1423 N 135.985 -1.50799 -0.457987 0
M  V30 1424 C 136.895 -1.73426 -1.57989 0
M  V30 1425 C 137.911 -0.617745 -1.62665 0
M  V30 1426 O 139.087 -0.897614 -1.80291 0
M  V30 1427 C 136.152 -1.83557 -2.94122 0
M  V30 1428 C 135.213 -3.07345 -2.99729 0
M  V30 1429 C 134.446 -3.16983 -4.29368 0
M  V30 1430 O 134.669 -2.33077 -5.20607 0
M  V30 1431 O 133.603 -4.09812 -4.40837 0
M  V30 1432 H 137.429 -2.68555 -1.41817 0
M  V30 1433 H 135.014 -1.35052 -0.638859 0
M  V30 1434 H 136.896 -1.92326 -3.74952 0
M  V30 1435 H 135.571 -0.916137 -3.10465 0
M  V30 1436 H 134.478 -3.04068 -2.1793 0
M  V30 1437 H 135.811 -3.9891 -2.88326 0
M  V30 1438 N 137.463 0.71206 -1.40597 0
M  V30 1439 C 138.879 1.02058 -1.22704 0
M  V30 1440 C 139.079 2.01228 -0.104729 0
M  V30 1441 O 138.135 2.4674 0.53624 0
M  V30 1442 C 139.448 1.56094 -2.57012 0
M  V30 1443 C 140.996 1.6806 -2.64054 0
M  V30 1444 C 141.471 2.25501 -3.9864 0
M  V30 1445 N 142.962 2.32882 -4.004 0
M  V30 1446 C 143.697 2.78317 -5.01325 0
M  V30 1447 N 143.193 3.23478 -6.12645 0
M  V30 1448 N 144.986 2.77733 -4.88693 0
M  V30 1449 H 137.137 0.0547896 -2.12329 0
M  V30 1450 H 139.4 0.0869027 -0.944008 0
M  V30 1451 H 139.106 0.906865 -3.39807 0
M  V30 1452 H 138.98 2.54564 -2.78347 0
M  V30 1453 H 141.367 2.32583 -1.81629 0
M  V30 1454 H 141.448 0.681802 -2.46546 0
M  V30 1455 H 141.092 1.61598 -4.81506 0
M  V30 1456 H 141.022 3.26102 -4.13479 0
M  V30 1457 H 143.513 2.00991 -3.20017 0
M  V30 1458 H 143.826 3.56725 -6.85542 0
M  V30 1459 H 142.171 3.21429 -6.16205 0
M  V30 1460 H 145.362 2.4179 -4.00818 0
M  V30 1461 H 145.535 3.12826 -5.67489 0
M  V30 1462 N 138.941 1.26152 0.944643 0
M  V30 1463 C 140.218 1.02247 1.66748 0
M  V30 1464 C 140.598 -0.448202 2.06287 0
M  V30 1465 O 139.946 -1.42779 1.78399 0
M  V30 1466 C 140.156 1.96788 2.88228 0
M  V30 1467 C 141.504 2.25201 3.59958 0
M  V30 1468 O 142.528 1.94626 2.98327 0
M  V30 1469 O 141.387 2.77242 4.70956 0
M  V30 1470 H 138.481 0.388517 0.730057 0
M  V30 1471 H 141.027 1.37348 0.99668 0
M  V30 1472 H 139.799 2.96047 2.55875 0
M  V30 1473 H 139.422 1.62145 3.63035 0
M  V30 1474 N 140.419 -1.14872 1.07899 0
M  V30 1475 C 141.696 -1.81928 0.71845 0
M  V30 1476 C 142.076 -1.95417 -0.798455 0
M  V30 1477 O 141.424 -1.50997 -1.715 0
M  V30 1478 C 141.634 -3.17937 1.43935 0
M  V30 1479 C 142.982 -3.93501 1.59506 0
M  V30 1480 O 144.006 -3.27509 1.40058 0
M  V30 1481 O 142.865 -5.1183 1.91551 0
M  V30 1482 H 139.959 -0.78628 0.256305 0
M  V30 1483 H 142.505 -1.21934 1.18026 0
M  V30 1484 H 141.277 -3.0325 2.47295 0
M  V30 1485 H 140.9 -3.85619 0.968687 0
M  V30 1486 N 141.898 -0.863906 -1.31812 0
M  V30 1487 C 143.126 -0.486111 -2.01108 0
M  V30 1488 C 143.541 0.919755 -1.64882 0
M  V30 1489 O 142.898 1.60162 -0.874893 0
M  V30 1490 C 142.949 -0.626435 -3.56031 0
M  V30 1491 O 142.67 -1.97693 -3.90959 0
M  V30 1492 C 144.171 -0.248857 -4.42601 0
M  V30 1493 H 141.391 -0.190052 -0.643523 0
M  V30 1494 H 143.935 -1.1634 -1.68182 0
M  V30 1495 H 142.09 0.00322717 -3.874 0
M  V30 1496 H 142.504 -1.98034 -4.85678 0
M  V30 1497 H 143.978 -0.398016 -5.50563 0
M  V30 1498 H 144.455 0.811489 -4.31638 0
M  V30 1499 H 145.061 -0.853971 -4.16638 0
M  V30 1500 N 143.376 1.44774 -0.622745 0
M  V30 1501 C 144.286 2.34433 0.0886031 0
M  V30 1502 C 145.302 1.52131 0.844529 0
M  V30 1503 O 146.478 1.84886 0.798691 0
M  V30 1504 C 143.543 3.29986 1.0635 0
M  V30 1505 C 142.604 4.28195 0.307873 0
M  V30 1506 C 141.837 5.19183 1.23633 0
M  V30 1507 O 142.06 5.13918 2.47476 0
M  V30 1508 O 140.994 5.97515 0.725189 0
M  V30 1509 H 144.82 2.96693 -0.648599 0
M  V30 1510 H 142.405 1.44408 -0.382957 0
M  V30 1511 H 144.287 3.88825 1.6246 0
M  V30 1512 H 142.962 2.70269 1.78146 0
M  V30 1513 H 141.869 3.72927 -0.296064 0
M  V30 1514 H 143.202 4.90808 -0.3699 0
M  V30 1515 N 144.854 0.36279 1.53368 0
M  V30 1516 C 146.101 -0.227776 2.01215 0
M  V30 1517 C 146.429 -1.49003 1.25014 0
M  V30 1518 O 145.684 -1.92876 0.331236 0
M  V30 1519 C 145.983 -0.568417 3.52851 0
M  V30 1520 C 145.649 0.59918 4.46901 0
M  V30 1521 C 144.311 0.919559 4.72332 0
M  V30 1522 C 146.663 1.38156 5.02556 0
M  V30 1523 C 143.991 2.02434 5.5067 0
M  V30 1524 C 146.343 2.47674 5.821 0
M  V30 1525 C 145.007 2.8025 6.05819 0
M  V30 1526 H 144.277 -0.083349 0.736297 0
M  V30 1527 H 146.924 0.494677 1.85001 0
M  V30 1528 H 145.229 -1.37185 3.66998 0
M  V30 1529 H 146.926 -1.03756 3.87344 0
M  V30 1530 H 143.516 0.339437 4.27254 0
M  V30 1531 H 147.7 1.14729 4.82857 0
M  V30 1532 H 142.956 2.28075 5.67267 0
M  V30 1533 H 147.13 3.08716 6.24234 0
M  V30 1534 H 144.757 3.65979 6.66306 0
M  V30 1535 N 146.332 -1.57332 0.0918853 0
M  V30 1536 C 147.264 -2.10869 -0.898168 0
M  V30 1537 C 148.277 -1.04521 -1.24817 0
M  V30 1538 O 149.466 -1.31977 -1.20184 0
M  V30 1539 C 146.566 -2.57083 -2.2082 0
M  V30 1540 C 145.739 -3.87229 -2.03402 0
M  V30 1541 C 144.798 -4.19324 -3.17889 0
M  V30 1542 O 143.824 -4.88598 -2.91994 0
M  V30 1543 N 145.026 -3.74471 -4.43567 0
M  V30 1544 H 147.791 -2.96439 -0.440943 0
M  V30 1545 H 145.352 -1.61631 -0.0933064 0
M  V30 1546 H 147.344 -2.75602 -2.96354 0
M  V30 1547 H 145.914 -1.76541 -2.57977 0
M  V30 1548 H 145.134 -3.7789 -1.12218 0
M  V30 1549 H 146.422 -4.72379 -1.89038 0
M  V30 1550 H 145.82 -3.18546 -4.67488 0
M  V30 1551 H 144.377 -3.98151 -5.16061 0
M  V30 1552 N 147.81 0.181792 -1.56548 0
M  V30 1553 C 148.76 1.22961 -1.92002 0
M  V30 1554 C 149.744 1.40331 -0.787146 0
M  V30 1555 O 150.936 1.42478 -1.05019 0
M  V30 1556 C 148.065 2.57144 -2.27446 0
M  V30 1557 C 147.151 2.43512 -3.47222 0
M  V30 1558 N 147.542 1.99577 -4.64761 0
M  V30 1559 C 145.84 2.74368 -3.51622 0
M  V30 1560 C 146.541 1.98156 -5.46909 0
M  V30 1561 N 145.517 2.40164 -4.8767 0
M  V30 1562 H 149.319 0.881462 -2.8037 0
M  V30 1563 H 146.833 0.390141 -1.57644 0
M  V30 1564 H 148.83 3.32847 -2.51035 0
M  V30 1565 H 147.49 2.92771 -1.40411 0
M  V30 1566 H 148.501 1.70078 -4.89177 0
M  V30 1567 H 145.178 3.14102 -2.75038 0
M  V30 1568 H 146.568 1.65975 -6.51077 0
M  V30 1569 N 149.288 1.51039 0.449983 0
M  V30 1570 C 150.699 1.557 1.03026 0
M  V30 1571 C 151.05 0.372939 1.92623 0
M  V30 1572 O 150.175 -0.511771 2.10261 0
M  V30 1573 C 150.77 2.82171 1.87523 0
M  V30 1574 C 149.329 2.89444 2.40622 0
M  V30 1575 C 148.476 2.50228 1.19504 0
M  V30 1576 H 151.427 1.56999 0.231745 0
M  V30 1577 H 151.448 2.65219 2.72835 0
M  V30 1578 H 150.96 3.68331 1.22286 0
M  V30 1579 H 149.061 2.07685 3.0935 0
M  V30 1580 H 149.174 3.92816 2.74285 0
M  V30 1581 H 147.538 2.03139 1.53644 0
M  V30 1582 H 148.321 3.38719 0.558972 0
M  V30 1583 N 150.766 -0.704594 1.40972 0
M  V30 1584 C 152.006 -1.47691 1.41304 0
M  V30 1585 C 152.37 -1.91992 0.0178582 0
M  V30 1586 O 153.571 -2.68599 -0.103996 0
M  V30 1587 C 151.842 -2.66254 2.38419 0
M  V30 1588 S 153.401 -3.55516 2.57204 0
M  V30 1589 H 150.219 -0.504808 0.500689 0
M  V30 1590 H 152.821 -0.822962 1.77335 0
M  V30 1591 H 151.525 -2.31897 3.38603 0
M  V30 1592 H 151.056 -3.3655 2.03711 0
M  V30 1593 H 153.071 -4.61115 1.83268 0
M  V30 1594 N 152.244 -1.26651 -0.937939 0
M  V30 1595 C 153.491 -1.12387 -1.6845 0
M  V30 1596 C 153.819 0.332208 -1.91642 0
M  V30 1597 O 153.074 1.2602 -1.49725 0
M  V30 1598 C 153.373 -1.84168 -3.06295 0
M  V30 1599 C 153.039 -3.34056 -3.02849 0
M  V30 1600 C 151.701 -3.74942 -3.01616 0
M  V30 1601 C 154.053 -4.29741 -2.9491 0
M  V30 1602 C 151.381 -5.09894 -2.90215 0
M  V30 1603 C 153.733 -5.64738 -2.8505 0
M  V30 1604 C 152.397 -6.0493 -2.82162 0
M  V30 1605 H 151.667 -0.411252 -0.616403 0
M  V30 1606 H 154.314 -1.57134 -1.09459 0
M  V30 1607 H 152.619 -1.319 -3.6893 0
M  V30 1608 H 154.316 -1.70569 -3.62915 0
M  V30 1609 H 150.906 -3.01534 -3.0459 0
M  V30 1610 H 155.09 -3.99133 -2.94969 0
M  V30 1611 H 150.346 -5.40194 -2.86358 0
M  V30 1612 H 154.52 -6.38561 -2.77872 0
M  V30 1613 H 152.147 -7.09457 -2.73084 0
M  V30 1614 N 153.722 1.14298 -1.08507 0
M  V30 1615 C 154.652 2.21542 -0.737646 0
M  V30 1616 C 155.633 1.67773 0.280377 0
M  V30 1617 O 156.818 1.93616 0.150521 0
M  V30 1618 C 153.948 3.46988 -0.147259 0
M  V30 1619 C 152.902 4.13789 -1.09374 0
M  V30 1620 C 152.228 5.33449 -0.365524 0
M  V30 1621 C 153.528 4.62208 -2.4323 0
M  V30 1622 H 155.222 2.5086 -1.6343 0
M  V30 1623 H 152.768 1.20576 -0.787243 0
M  V30 1624 H 154.721 4.21262 0.107808 0
M  V30 1625 H 153.445 3.17037 0.784538 0
M  V30 1626 H 152.104 3.4147 -1.33393 0
M  V30 1627 H 151.752 4.99759 0.57011 0
M  V30 1628 H 151.452 5.79088 -0.996512 0
M  V30 1629 H 152.976 6.10485 -0.118534 0
M  V30 1630 H 154.39 5.27952 -2.23472 0
M  V30 1631 H 152.787 5.18553 -3.02031 0
M  V30 1632 H 153.857 3.77224 -3.04681 0
M  V30 1633 N 155.201 0.870884 1.31352 0
M  V30 1634 C 156.617 0.562932 1.49343 0
M  V30 1635 C 156.817 -0.902725 1.80148 0
M  V30 1636 O 155.873 -1.68484 1.88067 0
M  V30 1637 C 157.186 1.46393 2.62659 0
M  V30 1638 C 158.734 1.46607 2.76542 0
M  V30 1639 C 159.209 2.35266 3.92955 0
M  V30 1640 N 160.7 2.33151 4.00243 0
M  V30 1641 C 161.435 2.98471 4.89594 0
M  V30 1642 N 160.931 3.72964 5.8384 0
M  V30 1643 N 162.724 2.87775 4.82848 0
M  V30 1644 H 154.875 1.81923 1.09626 0
M  V30 1645 H 157.138 0.777934 0.541777 0
M  V30 1646 H 156.844 2.50689 2.46674 0
M  V30 1647 H 156.718 1.16314 3.58819 0
M  V30 1648 H 159.105 0.43069 2.9194 0
M  V30 1649 H 159.186 1.8071 1.81046 0
M  V30 1650 H 158.83 3.38881 3.78315 0
M  V30 1651 H 158.76 1.98487 4.87761 0
M  V30 1652 H 161.251 1.79006 3.32814 0
M  V30 1653 H 161.564 4.19932 6.4875 0
M  V30 1654 H 159.909 3.77073 5.83816 0
M  V30 1655 H 163.1 2.29116 4.08195 0
M  V30 1656 H 163.273 3.38961 5.52277 0
M  V30 1657 N 156.679 -1.44442 0.630414 0
M  V30 1658 C 157.927 -2.01653 0.134351 0
M  V30 1659 C 158.248 -1.49836 -1.24796 0
M  V30 1660 O 157.518 -0.701684 -1.82902 0
M  V30 1661 H 156.098 -0.74554 0.0466769 0
M  V30 1662 H 158.76 -1.76952 0.816955 0
M  V30 1663 H 157.856 -3.11935 0.101498 0
M  V30 1664 N 158.157 -0.370918 -1.53173 0
M  V30 1665 C 159.089 0.507823 -2.23503 0
M  V30 1666 C 160.102 1.04182 -1.251 0
M  V30 1667 O 161.291 0.947286 -1.5129 0
M  V30 1668 C 158.391 1.71447 -2.92334 0
M  V30 1669 C 157.564 1.31105 -4.17289 0
M  V30 1670 C 156.623 2.38035 -4.69282 0
M  V30 1671 O 155.649 2.00204 -5.32829 0
M  V30 1672 N 156.851 3.69697 -4.47554 0
M  V30 1673 H 159.616 -0.0946382 -2.99551 0
M  V30 1674 H 157.177 -0.196358 -1.60705 0
M  V30 1675 H 159.169 2.42469 -3.24023 0
M  V30 1676 H 157.739 2.22368 -2.19707 0
M  V30 1677 H 156.959 0.430462 -3.91843 0
M  V30 1678 H 158.247 1.0179 -4.98514 0
M  V30 1679 H 157.645 4.03205 -3.9679 0
M  V30 1680 H 156.202 4.36807 -4.8378 0
M  V30 1681 N 159.635 1.57281 -0.100228 0
M  V30 1682 C 160.545 2.17833 0.870965 0
M  V30 1683 C 161.561 1.14921 1.30649 0
M  V30 1684 O 162.737 1.47313 1.37335 0
M  V30 1685 C 159.802 2.75085 2.1102 0
M  V30 1686 C 158.863 3.9297 1.72838 0
M  V30 1687 C 158.096 4.47482 2.90854 0
M  V30 1688 O 158.319 4.00922 4.05731 0
M  V30 1689 O 157.253 5.38433 2.69023 0
M  V30 1690 H 161.079 3.0124 0.38575 0
M  V30 1691 H 158.664 1.48881 0.124397 0
M  V30 1692 H 160.546 3.11656 2.83634 0
M  V30 1693 H 159.221 1.94721 2.58584 0
M  V30 1694 H 158.128 3.61201 0.973883 0
M  V30 1695 H 159.461 4.74713 1.30033 0
M  V30 1696 N 161.113 -0.173488 1.56642 0
M  V30 1697 C 162.045 -1.23935 1.92802 0
M  V30 1698 C 163.058 -1.40589 0.820889 0
M  V30 1699 O 164.247 -1.40631 1.09933 0
M  V30 1700 C 161.347 -2.60837 2.16373 0
M  V30 1701 C 160.52 -2.6551 3.47596 0
M  V30 1702 C 159.579 -3.8376 3.60021 0
M  V30 1703 O 158.605 -3.69859 4.32658 0
M  V30 1704 N 159.807 -5.00127 2.94709 0
M  V30 1705 H 162.572 -0.932236 2.84832 0
M  V30 1706 H 160.133 -0.363268 1.57772 0
M  V30 1707 H 162.125 -3.38407 2.21952 0
M  V30 1708 H 160.695 -2.83948 1.30738 0
M  V30 1709 H 159.915 -1.74052 3.53694 0
M  V30 1710 H 161.203 -2.65641 4.33949 0
M  V30 1711 H 160.601 -5.14322 2.35563 0
M  V30 1712 H 159.158 -5.75567 3.05886 0
M  V30 1713 N 162.591 -1.51276 -0.441967 0
M  V30 1714 C 163.521 -1.752 -1.54361 0
M  V30 1715 C 164.502 -0.601682 -1.59103 0
M  V30 1716 O 165.687 -0.843913 -1.74905 0
M  V30 1717 C 162.817 -1.87282 -2.92477 0
M  V30 1718 C 161.771 -3.02687 -3.02596 0
M  V30 1719 C 161.097 -2.99947 -4.42647 0
M  V30 1720 C 162.397 -4.4273 -2.77106 0
M  V30 1721 H 164.091 -2.67442 -1.34592 0
M  V30 1722 H 161.637 -1.28694 -0.646048 0
M  V30 1723 H 163.59 -2.02602 -3.695 0
M  V30 1724 H 162.314 -0.916844 -3.13467 0
M  V30 1725 H 160.973 -2.87065 -2.28012 0
M  V30 1726 H 160.621 -2.02136 -4.60597 0
M  V30 1727 H 160.321 -3.77439 -4.50348 0
M  V30 1728 H 161.845 -3.17354 -5.2165 0
M  V30 1729 H 163.259 -4.58727 -3.43864 0
M  V30 1730 H 161.656 -5.21893 -2.96222 0
M  V30 1731 H 162.726 -4.53087 -1.72744 0
M  V30 1732 N 164.069 0.697108 -1.41344 0
M  V30 1733 C 164.999 1.82353 -1.45841 0
M  V30 1734 C 165.98 1.67115 -0.317247 0
M  V30 1735 O 167.165 1.86871 -0.528474 0
M  V30 1736 C 164.295 3.20476 -1.33838 0
M  V30 1737 C 163.249 3.50415 -2.4575 0
M  V30 1738 C 162.575 4.87878 -2.18813 0
M  V30 1739 C 163.875 3.49546 -3.88091 0
M  V30 1740 H 165.569 1.78846 -2.40113 0
M  V30 1741 H 163.115 0.859028 -1.15571 0
M  V30 1742 H 165.068 3.98988 -1.35596 0
M  V30 1743 H 163.792 3.24604 -0.360498 0
M  V30 1744 H 162.451 2.74253 -2.43271 0
M  V30 1745 H 162.099 4.8863 -1.19371 0
M  V30 1746 H 161.799 5.08875 -2.93803 0
M  V30 1747 H 163.323 5.68702 -2.22284 0
M  V30 1748 H 164.737 4.18066 -3.92293 0
M  V30 1749 H 163.134 3.82075 -4.62751 0
M  V30 1750 H 164.204 2.48552 -4.16353 0
M  V30 1751 N 165.547 1.27147 0.931209 0
M  V30 1752 C 166.457 1.11372 2.06478 0
M  V30 1753 C 167.473 0.044645 1.73943 0
M  V30 1754 O 168.649 0.250417 1.99837 0
M  V30 1755 C 165.714 0.758838 3.38294 0
M  V30 1756 C 164.775 1.90841 3.84549 0
M  V30 1757 C 164.008 1.57036 5.10074 0
M  V30 1758 O 164.231 0.476645 5.68405 0
M  V30 1759 O 163.165 2.40839 5.51616 0
M  V30 1760 H 166.991 2.06493 2.22698 0
M  V30 1761 H 164.576 1.06301 1.04978 0
M  V30 1762 H 166.458 0.574098 4.17471 0
M  V30 1763 H 165.133 -0.162879 3.2329 0
M  V30 1764 H 164.04 2.14819 3.06274 0
M  V30 1765 H 165.373 2.81021 4.04089 0
M  V30 1766 N 167.025 -1.13721 1.09112 0
M  V30 1767 C 167.973 -2.21103 0.722219 0
M  V30 1768 C 168.967 -1.67147 -0.275374 0
M  V30 1769 O 170.173 -1.79477 -0.137176 0
M  V30 1770 H 166.548 -0.720445 0.215553 0
M  V30 1771 H 168.519 -2.49483 1.63709 0
M  V30 1772 C 167.268 -3.47352 0.15543 0
M  V30 1773 H 166.591 -3.89206 0.914246 0
M  V30 1774 H 168.031 -4.2395 -0.0647967 0
M  V30 1775 C 166.49 -3.1814 -1.10852 0
M  V30 1776 O 167.02 -3.36604 -2.19227 0
M  V30 1777 N 165.226 -2.72045 -1.02176 0
M  V30 1778 H 164.773 -2.57221 -0.139764 0
M  V30 1779 H 164.731 -2.52875 -1.8682 0
M  V30 1780 N 168.503 -0.877838 -1.30888 0
M  V30 1781 C 169.752 -0.488793 -1.95688 0
M  V30 1782 C 170.065 0.965485 -1.70111 0
M  V30 1783 O 171.271 1.46104 -2.28836 0
M  V30 1784 C 169.727 -0.823201 -3.50359 0
M  V30 1785 C 169.335 -2.29477 -3.84765 0
M  V30 1786 C 171.079 -0.503009 -4.21509 0
M  V30 1787 C 168.986 -2.57118 -5.32583 0
M  V30 1788 H 167.916 -0.179062 -0.732429 0
M  V30 1789 H 170.567 -1.07183 -1.48943 0
M  V30 1790 H 168.949 -0.169331 -3.95638 0
M  V30 1791 H 170.123 -2.99236 -3.5042 0
M  V30 1792 H 168.438 -2.58178 -3.267 0
M  V30 1793 H 171.035 -0.68665 -5.30273 0
M  V30 1794 H 171.378 0.557109 -4.12555 0
M  V30 1795 H 171.911 -1.11376 -3.8189 0
M  V30 1796 H 168.65 -3.61843 -5.4658 0
M  V30 1797 H 168.17 -1.91961 -5.68253 0
M  V30 1798 H 169.849 -2.42251 -5.99936 0
M  V30 1799 N 169.982 1.44106 -0.638065 0
M  V30 1800 C 170.929 2.30715 0.062701 0
M  V30 1801 C 171.899 1.43882 0.829883 0
M  V30 1802 O 173.084 1.72775 0.809532 0
M  V30 1803 C 170.224 3.29258 1.03358 0
M  V30 1804 C 169.337 4.31192 0.26409 0
M  V30 1805 C 168.472 5.16825 1.22741 0
M  V30 1806 C 167.511 6.10462 0.447475 0
M  V30 1807 N 166.648 6.8877 1.36161 0
M  V30 1808 H 171.488 2.90096 -0.681781 0
M  V30 1809 H 169.025 1.42925 -0.347988 0
M  V30 1810 H 170.983 3.84886 1.60992 0
M  V30 1811 H 169.613 2.71562 1.74511 0
M  V30 1812 H 168.665 3.77981 -0.428295 0
M  V30 1813 H 169.977 4.97619 -0.343052 0
M  V30 1814 H 169.131 5.77004 1.87487 0
M  V30 1815 H 167.87 4.50488 1.86847 0
M  V30 1816 H 166.875 5.49386 -0.213433 0
M  V30 1817 H 168.1 6.78837 -0.188968 0
M  V30 1818 H 166.046 6.25096 1.98975 0
M  V30 1819 H 165.963 7.51663 0.808656 0
M  V30 1820 H 167.231 7.53467 1.99769 0
M  V30 1821 N 171.46 0.379036 1.52974 0
M  V30 1822 C 172.876 0.0285448 1.59574 0
M  V30 1823 C 173.076 -1.45542 1.39355 0
M  V30 1824 O 172.132 -2.2187 1.20541 0
M  V30 1825 C 173.445 0.496535 2.96572 0
M  V30 1826 C 174.993 0.451909 3.0972 0
M  V30 1827 C 175.468 0.895924 4.49152 0
M  V30 1828 N 176.959 0.851522 4.55306 0
M  V30 1829 C 177.694 1.16661 5.61407 0
M  V30 1830 N 177.19 1.55166 6.752 0
M  V30 1831 N 178.983 1.08853 5.51459 0
M  V30 1832 H 171.134 1.34525 1.64367 0
M  V30 1833 H 173.397 0.550733 0.771619 0
M  V30 1834 H 173.103 1.53258 3.16552 0
M  V30 1835 H 172.977 -0.109802 3.7704 0
M  V30 1836 H 175.364 -0.575029 2.89443 0
M  V30 1837 H 175.445 1.09392 2.3123 0
M  V30 1838 H 175.089 1.92104 4.70168 0
M  V30 1839 H 175.019 0.23103 5.26093 0
M  V30 1840 H 177.51 0.568038 3.73606 0
M  V30 1841 H 177.823 1.776 7.52116 0
M  V30 1842 H 176.168 1.59044 6.76557 0
M  V30 1843 H 179.359 0.786803 4.6144 0
M  V30 1844 H 179.532 1.33742 6.34048 0
M  V30 1845 N 172.938 -1.57226 0.108567 0
M  V30 1846 C 173.885 -2.14756 -0.845481 0
M  V30 1847 C 174.855 -1.06971 -1.27068 0
M  V30 1848 O 176.04 -1.34827 -1.35005 0
M  V30 1849 C 173.18 -2.74298 -2.09415 0
M  V30 1850 C 172.293 -3.96358 -1.71826 0
M  V30 1851 C 171.428 -4.44021 -2.9158 0
M  V30 1852 C 170.467 -5.58637 -2.50181 0
M  V30 1853 N 169.604 -6.01091 -3.62814 0
M  V30 1854 H 174.444 -2.95961 -0.348035 0
M  V30 1855 H 171.981 -1.46226 -0.160106 0
M  V30 1856 H 173.939 -3.06945 -2.82561 0
M  V30 1857 H 172.569 -1.95801 -2.56636 0
M  V30 1858 H 171.621 -3.69939 -0.885947 0
M  V30 1859 H 172.933 -4.79504 -1.37394 0
M  V30 1860 H 172.087 -4.78522 -3.72963 0
M  V30 1861 H 170.826 -3.59803 -3.29231 0
M  V30 1862 H 169.831 -5.23751 -1.67228 0
M  V30 1863 H 171.056 -6.44613 -2.13659 0
M  V30 1864 H 169.002 -5.19817 -4.00158 0
M  V30 1865 H 168.919 -6.79066 -3.32273 0
M  V30 1866 H 170.187 -6.40227 -4.44668 0
M  V30 1867 N 174.416 0.165178 -1.56732 0
M  V30 1868 C 175.662 0.882112 -1.82611 0
M  V30 1869 C 175.995 1.81628 -0.687378 0
M  V30 1870 O 175.27 1.92009 0.310267 0
M  V30 1871 C 175.553 1.67245 -3.18906 0
M  V30 1872 C 175.406 0.760987 -4.43316 0
M  V30 1873 C 176.725 2.63884 -3.52212 0
M  V30 1874 H 173.844 0.319242 -0.664269 0
M  V30 1875 H 176.486 0.148052 -1.89422 0
M  V30 1876 H 174.636 2.29824 -3.1323 0
M  V30 1877 H 176.308 0.147596 -4.61064 0
M  V30 1878 H 174.551 0.0694102 -4.33744 0
M  V30 1879 H 175.222 1.34962 -5.35247 0
M  V30 1880 H 177.698 2.11429 -3.58381 0
M  V30 1881 H 176.574 3.16245 -4.48643 0
M  V30 1882 H 176.835 3.44377 -2.77231 0
M  V30 1883 N 175.894 1.51508 0.433938 0
M  V30 1884 C 177.122 1.68157 1.20543 0
M  V30 1885 C 177.537 0.380362 1.84929 0
M  V30 1886 O 176.894 -0.641446 1.70856 0
M  V30 1887 C 176.945 2.79965 2.28696 0
M  V30 1888 O 176.666 4.05045 1.66943 0
M  V30 1889 C 178.167 3.07912 3.18912 0
M  V30 1890 H 175.387 0.56421 0.363191 0
M  V30 1891 H 177.931 1.97941 0.513754 0
M  V30 1892 H 176.086 2.5277 2.93574 0
M  V30 1893 H 176.5 4.67165 2.38448 0
M  V30 1894 H 177.974 3.89719 3.90926 0
M  V30 1895 H 178.451 2.20456 3.79863 0
M  V30 1896 H 179.057 3.36779 2.59731 0
M  V30 1897 N 177.372 -0.689602 1.41712 0
M  V30 1898 C 178.597 -1.48329 1.44959 0
M  V30 1899 C 179.022 -1.8801 0.0581283 0
M  V30 1900 O 178.38 -1.55026 -0.940035 0
M  V30 1901 C 178.428 -2.71835 2.36935 0
M  V30 1902 O 177.532 -3.69549 1.8305 0
M  V30 1903 H 176.873 -0.446199 0.491734 0
M  V30 1904 H 179.403 -0.847127 1.86239 0
M  V30 1905 H 179.413 -3.20076 2.53013 0
M  V30 1906 H 178.088 -2.42291 3.38035 0
M  V30 1907 H 176.665 -3.2851 1.76452 0
M  V30 1908 N 178.85 -1.27639 -0.924453 0
M  V30 1909 C 180.096 -1.14336 -1.67497 0
M  V30 1910 C 180.429 0.309465 -1.91718 0
M  V30 1911 O 179.704 1.22608 -1.50989 0
M  V30 1912 C 179.987 -1.93096 -3.0395 0
M  V30 1913 C 179.84 -3.46381 -2.8695 0
M  V30 1914 C 181.159 -1.73798 -4.0433 0
M  V30 1915 H 178.278 -0.416728 -0.607871 0
M  V30 1916 H 180.92 -1.56832 -1.07256 0
M  V30 1917 H 179.07 -1.56982 -3.55372 0
M  V30 1918 H 180.742 -3.92343 -2.42621 0
M  V30 1919 H 178.985 -3.72557 -2.22225 0
M  V30 1920 H 179.656 -3.96735 -3.83804 0
M  V30 1921 H 182.132 -2.05293 -3.61931 0
M  V30 1922 H 181.008 -2.31294 -4.97789 0
M  V30 1923 H 181.269 -0.686725 -4.36734 0
M  V30 1924 N 180.328 1.1314 -1.09713 0
M  V30 1925 C 181.553 1.88862 -0.857081 0
M  V30 1926 C 181.978 1.78729 0.586304 0
M  V30 1927 O 181.336 1.13692 1.41222 0
M  V30 1928 C 181.384 3.36325 -1.30069 0
M  V30 1929 O 180.488 4.09815 -0.461007 0
M  V30 1930 H 179.829 0.587108 -0.310162 0
M  V30 1931 H 182.359 1.43129 -1.46203 0
M  V30 1932 H 182.369 3.87157 -1.28738 0
M  V30 1933 H 181.044 3.43017 -2.35185 0
M  V30 1934 H 179.621 3.68986 -0.538888 0
M  V30 1935 N 181.806 0.884767 1.30421 0
M  V30 1936 C 183.034 0.518044 2.0031 0
M  V30 1937 C 183.449 -0.893408 1.66324 0
M  V30 1938 O 182.806 -1.5875 0.900262 0
M  V30 1939 C 182.857 0.682997 3.54989 0
M  V30 1940 O 182.578 2.03888 3.87764 0
M  V30 1941 C 184.079 0.31924 4.42149 0
M  V30 1942 H 181.299 0.200265 0.640418 0
M  V30 1943 H 183.843 1.19001 1.6631 0
M  V30 1944 H 181.998 0.0584052 3.87356 0
M  V30 1945 H 182.412 2.05735 4.82466 0
M  V30 1946 H 183.886 0.485555 5.4986 0
M  V30 1947 H 184.363 -0.742717 4.32875 0
M  V30 1948 H 184.969 0.920147 4.15227 0
M  V30 1949 N 183.284 -1.43765 0.645699 0
M  V30 1950 C 184.214 -2.33471 -0.0370477 0
M  V30 1951 C 185.195 -1.49042 -0.819779 0
M  V30 1952 O 186.38 -1.77726 -0.782758 0
M  V30 1953 C 183.51 -3.32311 -1.0093 0
M  V30 1954 C 182.464 -4.2667 -0.337201 0
M  V30 1955 C 181.79 -5.1549 -1.42037 0
M  V30 1956 C 183.09 -5.16657 0.765706 0
M  V30 1957 H 184.784 -2.90809 0.712069 0
M  V30 1958 H 182.33 -1.39834 0.343876 0
M  V30 1959 H 184.283 -3.9396 -1.49578 0
M  V30 1960 H 183.007 -2.73213 -1.78948 0
M  V30 1961 H 181.666 -3.66374 0.128771 0
M  V30 1962 H 181.314 -4.52735 -2.1918 0
M  V30 1963 H 181.014 -5.79438 -0.975966 0
M  V30 1964 H 182.538 -5.80012 -1.90838 0
M  V30 1965 H 183.952 -5.72158 0.361702 0
M  V30 1966 H 182.349 -5.89286 1.13413 0
M  V30 1967 H 183.419 -4.56796 1.62683 0
M  V30 1968 N 184.763 -0.387143 -1.52771 0
M  V30 1969 C 185.71 0.449048 -2.26389 0
M  V30 1970 C 186.68 1.05961 -1.27912 0
M  V30 1971 O 187.865 1.08804 -1.56737 0
M  V30 1972 C 185.005 1.57155 -3.0724 0
M  V30 1973 C 184.118 0.984066 -4.20643 0
M  V30 1974 C 183.253 2.07745 -4.88892 0
M  V30 1975 C 182.292 1.46574 -5.94292 0
M  V30 1976 N 181.429 2.49834 -6.56146 0
M  V30 1977 H 186.269 -0.185205 -2.97424 0
M  V30 1978 H 183.806 -0.103164 -1.46738 0
M  V30 1979 H 185.764 2.23309 -3.52405 0
M  V30 1980 H 184.394 2.17615 -2.38419 0
M  V30 1981 H 183.446 0.212193 -3.79808 0
M  V30 1982 H 184.758 0.497029 -4.96318 0
M  V30 1983 H 183.912 2.81673 -5.3735 0
M  V30 1984 H 182.651 2.59807 -4.12737 0
M  V30 1985 H 181.656 0.711696 -5.45174 0
M  V30 1986 H 182.881 0.953088 -6.72379 0
M  V30 1987 H 180.827 3.0107 -5.82832 0
M  V30 1988 H 180.744 2.05879 -7.27427 0
M  V30 1989 H 182.012 3.23399 -7.09249 0
M  V30 1990 N 186.241 1.57166 -0.116904 0
M  V30 1991 C 187.466 1.999 0.55271 0
M  V30 1992 C 187.891 0.996039 1.59564 0
M  V30 1993 O 187.249 -0.032556 1.81271 0
M  V30 1994 C 187.297 3.4152 1.15742 0
M  V30 1995 O 186.401 3.44106 2.27299 0
M  V30 1996 H 185.742 0.649447 0.138258 0
M  V30 1997 H 188.272 2.03573 -0.204759 0
M  V30 1998 H 188.282 3.79684 1.49346 0
M  V30 1999 H 186.957 4.14034 0.393493 0
M  V30 2000 H 185.534 3.17759 1.9515 0
M  V30 2001 N 187.719 -0.156864 1.56817 0
M  V30 2002 C 188.629 -1.2136 2.00771 0
M  V30 2003 C 189.645 -1.47598 0.921459 0
M  V30 2004 O 190.821 -1.59462 1.2302 0
M  V30 2005 C 187.886 -2.52943 2.37109 0
M  V30 2006 C 186.947 -2.34439 3.59634 0
M  V30 2007 C 186.18 -3.59748 3.94229 0
M  V30 2008 O 186.403 -4.65526 3.29609 0
M  V30 2009 O 185.337 -3.52998 4.8752 0
M  V30 2010 H 189.163 -0.870468 2.90958 0
M  V30 2011 H 186.748 -0.36484 1.44877 0
M  V30 2012 H 188.63 -3.30538 2.61386 0
M  V30 2013 H 187.305 -2.86806 1.5008 0
M  V30 2014 H 186.212 -1.54828 3.40557 0
M  V30 2015 H 187.545 -2.05496 4.4725 0
M  V30 2016 N 189.197 -1.51736 -0.425897 0
M  V30 2017 C 190.474 -1.55519 -1.1863 0
M  V30 2018 C 190.854 -0.326219 -2.08564 0
M  V30 2019 O 190.202 0.688012 -2.17896 0
M  V30 2020 C 190.412 -2.87521 -1.9782 0
M  V30 2021 C 191.76 -3.39899 -2.54468 0
M  V30 2022 O 192.784 -2.89148 -2.08019 0
M  V30 2023 O 191.643 -4.2848 -3.39215 0
M  V30 2024 H 188.737 -0.625739 -0.540721 0
M  V30 2025 H 191.283 -1.64055 -0.434038 0
M  V30 2026 H 190.055 -3.68422 -1.31836 0
M  V30 2027 H 189.678 -2.822 -2.80088 0
M  V30 2028 N 190.675 0.682077 -1.42076 0
M  V30 2029 C 191.924 1.43786 -1.41451 0
M  V30 2030 C 192.237 1.95574 -0.0317074 0
M  V30 2031 O 193.443 2.71326 0.0971462 0
M  V30 2032 C 191.899 2.60071 -2.48779 0
M  V30 2033 C 191.507 2.15013 -3.93031 0
M  V30 2034 C 193.251 3.37626 -2.57311 0
M  V30 2035 C 191.158 3.28336 -4.91883 0
M  V30 2036 H 190.088 0.540143 -0.526082 0
M  V30 2037 H 192.739 0.739157 -1.67955 0
M  V30 2038 H 191.121 3.32275 -2.15429 0
M  V30 2039 H 192.295 1.5001 -4.35699 0
M  V30 2040 H 190.61 1.50416 -3.88284 0
M  V30 2041 H 193.207 4.22012 -3.28345 0
M  V30 2042 H 193.55 3.83727 -1.61429 0
M  V30 2043 H 194.083 2.72488 -2.89819 0
M  V30 2044 H 190.822 2.87234 -5.89217 0
M  V30 2045 H 190.342 3.92145 -4.53853 0
M  V30 2046 H 192.021 3.93913 -5.13265 0
M  V30 2047 N 192.153 1.28127 0.917671 0
M  V30 2048 C 193.1 1.11717 2.0196 0
M  V30 2049 C 194.07 0.0153929 1.66093 0
M  V30 2050 O 195.255 0.179596 1.89953 0
M  V30 2051 C 192.395 0.780927 3.36148 0
M  V30 2052 C 191.508 1.96135 3.84909 0
M  V30 2053 C 190.643 1.56609 5.0759 0
M  V30 2054 C 189.682 2.71339 5.48673 0
M  V30 2055 N 188.819 2.32332 6.62545 0
M  V30 2056 H 193.659 2.06003 2.15329 0
M  V30 2057 H 191.196 1.02535 1.05475 0
M  V30 2058 H 193.154 0.56675 4.13333 0
M  V30 2059 H 191.784 -0.124998 3.22558 0
M  V30 2060 H 190.836 2.28777 3.03916 0
M  V30 2061 H 192.148 2.82165 4.1132 0
M  V30 2062 H 191.302 1.31374 5.92305 0
M  V30 2063 H 190.041 0.677014 4.82978 0
M  V30 2064 H 189.046 2.97276 4.62501 0
M  V30 2065 H 190.271 3.60882 5.75274 0
M  V30 2066 H 188.217 1.45889 6.39572 0
M  V30 2067 H 188.134 3.11899 6.88662 0
M  V30 2068 H 189.402 2.10371 7.50576 0
M  V30 2069 N 193.631 -1.12557 1.10312 0
M  V30 2070 C 194.88 -1.83395 0.839588 0
M  V30 2071 C 195.193 -1.84939 -0.636929 0
M  V30 2072 O 196.399 -2.51761 -1.01631 0
M  V30 2073 C 194.855 -3.29303 1.45215 0
M  V30 2074 C 194.463 -3.36122 2.96186 0
M  V30 2075 C 196.207 -4.05121 1.26796 0
M  V30 2076 C 194.114 -4.76357 3.50483 0
M  V30 2077 H 193.044 -0.687133 0.310425 0
M  V30 2078 H 195.695 -1.26746 1.32694 0
M  V30 2079 H 194.077 -3.85812 0.892469 0
M  V30 2080 H 195.251 -2.89559 3.58458 0
M  V30 2081 H 193.566 -2.73776 3.13745 0
M  V30 2082 H 196.163 -5.08668 1.64806 0
M  V30 2083 H 196.506 -4.15773 0.209409 0
M  V30 2084 H 197.039 -3.54967 1.79563 0
M  V30 2085 H 193.778 -4.70899 4.55998 0
M  V30 2086 H 193.298 -5.23377 2.92978 0
M  V30 2087 H 194.977 -5.45294 3.48228 0
M  V30 2088 N 195.109 -0.891671 -1.2995 0
M  V30 2089 C 196.525 -0.58662 -1.48428 0
M  V30 2090 C 196.725 0.873951 -1.81561 0
M  V30 2091 O 195.781 1.65471 -1.90724 0
M  V30 2092 C 197.094 -1.50553 -2.60296 0
M  V30 2093 C 198.642 -1.50988 -2.74175 0
M  V30 2094 C 199.117 -2.41488 -3.89163 0
M  V30 2095 N 200.608 -2.39489 -3.96483 0
M  V30 2096 C 201.343 -3.06223 -4.84784 0
M  V30 2097 N 200.839 -3.82206 -5.77833 0
M  V30 2098 N 202.632 -2.95421 -4.78208 0
M  V30 2099 H 194.783 -1.83644 -1.06718 0
M  V30 2100 H 197.046 -0.786455 -0.529332 0
M  V30 2101 H 196.752 -2.54581 -2.42654 0
M  V30 2102 H 196.626 -1.22008 -3.56923 0
M  V30 2103 H 199.013 -0.47708 -2.91218 0
M  V30 2104 H 199.094 -1.83567 -1.78148 0
M  V30 2105 H 198.738 -3.44857 -3.72876 0
M  V30 2106 H 198.668 -2.06222 -4.84541 0
M  V30 2107 H 201.159 -1.84278 -3.29924 0
M  V30 2108 H 201.472 -4.302 -6.41988 0
M  V30 2109 H 199.817 -3.86313 -5.77743 0
M  V30 2110 H 203.008 -2.35581 -4.04499 0
M  V30 2111 H 203.181 -3.47704 -5.46814 0
M  V30 2112 N 196.587 1.43421 -0.653314 0
M  V30 2113 C 197.519 2.29071 0.0769134 0
M  V30 2114 C 198.532 1.42513 0.787017 0
M  V30 2115 O 199.721 1.66449 0.644757 0
M  V30 2116 C 196.821 3.19436 1.13199 0
M  V30 2117 C 195.994 4.34533 0.500006 0
M  V30 2118 C 195.053 5.05771 1.45198 0
M  V30 2119 O 194.079 5.61037 0.960538 0
M  V30 2120 N 195.281 5.0928 2.78594 0
M  V30 2121 H 198.046 2.92382 -0.658235 0
M  V30 2122 H 195.607 1.54112 -0.496104 0
M  V30 2123 H 197.599 3.63958 1.76964 0
M  V30 2124 H 196.169 2.57724 1.7691 0
M  V30 2125 H 195.389 3.92925 -0.316738 0
M  V30 2126 H 196.677 5.08766 0.0588345 0
M  V30 2127 H 196.075 4.65751 3.2108 0
M  V30 2128 H 194.632 5.57519 3.37662 0
M  V30 2129 N 198.065 0.39524 1.52563 0
M  V30 2130 C 199.342 -0.242908 1.94086 0
M  V30 2131 C 199.722 -1.63841 1.33114 0
M  V30 2132 O 199.07 -2.22928 0.501529 0
M  V30 2133 C 199.28 -0.26327 3.48006 0
M  V30 2134 C 200.628 -0.489354 4.21771 0
M  V30 2135 O 201.652 -0.343226 3.54543 0
M  V30 2136 O 200.511 -0.776169 5.4096 0
M  V30 2137 H 197.605 -0.152536 0.812811 0
M  V30 2138 H 200.151 0.450178 1.6362 0
M  V30 2139 H 198.923 0.713985 3.84731 0
M  V30 2140 H 198.546 -1.00103 3.84792 0
M  V30 2141 N 199.544 -1.57102 0.125237 0
M  V30 2142 C 200.769 -2.0019 -0.542101 0
M  V30 2143 C 201.194 -1.00449 -1.59034 0
M  V30 2144 O 200.552 0.0229423 -1.81285 0
M  V30 2145 C 200.6 -3.42129 -1.13929 0
M  V30 2146 O 199.704 -3.45307 -2.2547 0
M  V30 2147 H 199.045 -0.650171 -0.134812 0
M  V30 2148 H 201.575 -2.03461 0.215553 0
M  V30 2149 H 201.585 -3.80471 -1.4733 0
M  V30 2150 H 200.26 -4.14237 -0.371531 0
M  V30 2151 H 198.837 -3.1879 -1.93462 0
M  V30 2152 N 201.022 0.148545 -1.56898 0
M  V30 2153 C 202.268 0.862694 -1.83536 0
M  V30 2154 C 202.601 1.80889 -0.706604 0
M  V30 2155 O 201.876 1.92328 0.289885 0
M  V30 2156 C 202.159 1.63853 -3.20662 0
M  V30 2157 C 202.012 0.713925 -4.44098 0
M  V30 2158 C 203.331 2.60133 -3.54991 0
M  V30 2159 H 200.45 0.312179 -0.667618 0
M  V30 2160 H 203.092 0.127953 -1.89569 0
M  V30 2161 H 201.242 2.26489 -3.1565 0
M  V30 2162 H 202.914 0.098686 -4.61194 0
M  V30 2163 H 201.157 0.0234019 -4.33794 0
M  V30 2164 H 201.828 1.29278 -5.36648 0
M  V30 2165 H 204.304 2.07616 -3.60603 0
M  V30 2166 H 203.18 3.11468 -4.51972 0
M  V30 2167 H 203.441 3.41417 -2.80868 0
M  V30 2168 N 202.5 1.5196 0.417844 0
M  V30 2169 C 203.728 1.69426 1.18753 0
M  V30 2170 C 204.143 0.399955 1.84515 0
M  V30 2171 O 203.5 -0.623288 1.71527 0
M  V30 2172 C 203.551 2.82375 2.25714 0
M  V30 2173 O 203.272 4.06793 1.62638 0
M  V30 2174 C 204.773 3.11277 3.15628 0
M  V30 2175 H 201.993 0.568031 0.357186 0
M  V30 2176 H 204.537 1.98475 0.49273 0
M  V30 2177 H 202.692 2.5587 2.90877 0
M  V30 2178 H 203.106 4.69667 2.3348 0
M  V30 2179 H 204.58 3.93843 3.86771 0
M  V30 2180 H 205.057 2.24473 3.77503 0
M  V30 2181 H 205.663 3.39515 2.56144 0
M  V30 2182 N 203.978 -0.674533 1.42435 0
M  V30 2183 C 204.925 -1.78807 1.45934 0
M  V30 2184 C 205.895 -1.63157 0.311271 0
M  V30 2185 O 207.08 -1.83707 0.515383 0
M  V30 2186 C 204.22 -3.16839 1.36773 0
M  V30 2187 C 203.333 -3.43774 2.61617 0
M  V30 2188 C 202.468 -4.71536 2.44597 0
M  V30 2189 C 201.507 -4.91505 3.64814 0
M  V30 2190 N 200.644 -6.10508 3.46734 0
M  V30 2191 H 205.484 -1.75151 2.41093 0
M  V30 2192 H 203.021 -0.85504 1.19697 0
M  V30 2193 H 204.979 -3.96606 1.29459 0
M  V30 2194 H 203.609 -3.19619 0.452089 0
M  V30 2195 H 202.661 -2.58259 2.79297 0
M  V30 2196 H 203.973 -3.54423 3.50978 0
M  V30 2197 H 203.127 -5.59393 2.3487 0
M  V30 2198 H 201.866 -4.6317 1.52726 0
M  V30 2199 H 200.871 -4.0209 3.74972 0
M  V30 2200 H 202.096 -5.01716 4.57665 0
M  V30 2201 H 200.042 -6.03315 2.5758 0
M  V30 2202 H 199.959 -6.2202 4.29682 0
M  V30 2203 H 201.227 -7.01044 3.40819 0
M  V30 2204 N 205.456 -1.28612 -0.910864 0
M  V30 2205 C 206.386 -1.15326 -2.03032 0
M  V30 2206 C 207.367 -0.0502924 -1.70026 0
M  V30 2207 O 208.552 -0.227797 -1.92859 0
M  V30 2208 C 205.682 -0.817343 -3.37545 0
M  V30 2209 C 204.636 -1.8754 -3.84724 0
M  V30 2210 C 203.962 -1.39305 -5.16235 0
M  V30 2211 C 205.262 -3.28244 -4.06267 0
M  V30 2212 H 206.956 -2.08975 -2.14406 0
M  V30 2213 H 204.502 -1.00612 -1.03021 0
M  V30 2214 H 206.455 -0.711151 -4.15356 0
M  V30 2215 H 205.179 0.154846 -3.26233 0
M  V30 2216 H 203.838 -1.97079 -3.09121 0
M  V30 2217 H 203.486 -0.409846 -5.01328 0
M  V30 2218 H 203.186 -2.10057 -5.48771 0
M  V30 2219 H 204.71 -1.30014 -5.96598 0
M  V30 2220 H 206.124 -3.21611 -4.74594 0
M  V30 2221 H 204.521 -3.96855 -4.5014 0
M  V30 2222 H 205.591 -3.72048 -3.10979 0
M  V30 2223 N 206.934 1.1197 -1.10907 0
M  V30 2224 C 207.864 2.19928 -0.784473 0
M  V30 2225 C 208.845 1.6833 0.244726 0
M  V30 2226 O 210.03 1.93892 0.109418 0
M  V30 2227 C 207.16 3.46597 -0.220827 0
M  V30 2228 C 206.114 4.11376 -1.18127 0
M  V30 2229 C 205.44 5.32554 -0.478594 0
M  V30 2230 C 206.74 4.56945 -2.52979 0
M  V30 2231 H 208.434 2.47337 -1.68715 0
M  V30 2232 H 205.98 1.18879 -0.812642 0
M  V30 2233 H 207.933 4.21396 0.0184278 0
M  V30 2234 H 206.657 3.1863 0.717113 0
M  V30 2235 H 205.316 3.38564 -1.40606 0
M  V30 2236 H 204.964 5.00856 0.463976 0
M  V30 2237 H 204.664 5.76844 -1.11912 0
M  V30 2238 H 206.188 6.10096 -0.248 0
M  V30 2239 H 207.602 5.23093 -2.3462 0
M  V30 2240 H 205.999 5.1203 -3.12962 0
M  V30 2241 H 207.069 3.70676 -3.12614 0
M  V30 2242 N 208.412 0.89855 1.29475 0
M  V30 2243 C 209.64 0.539261 1.99749 0
M  V30 2244 C 210.055 -0.875716 1.67262 0
M  V30 2245 O 209.412 -1.57786 0.917049 0
M  V30 2246 C 209.463 0.72061 3.54245 0
M  V30 2247 O 209.184 2.07989 3.8558 0
M  V30 2248 C 210.685 0.366118 4.41786 0
M  V30 2249 H 207.905 0.207047 0.638258 0
M  V30 2250 H 210.449 1.20758 1.65039 0
M  V30 2251 H 208.604 0.0994862 3.87272 0
M  V30 2252 H 209.018 2.10841 4.80257 0
M  V30 2253 H 210.492 0.543848 5.49314 0
M  V30 2254 H 210.969 -0.696763 4.33638 0
M  V30 2255 H 211.575 0.964135 4.14228 0
M  V30 2256 N 209.89 -1.43072 0.660911 0
M  V30 2257 C 211.167 -1.95307 0.107017 0
M  V30 2258 C 211.547 -1.60192 -1.37484 0
M  V30 2259 O 210.895 -0.890949 -2.10415 0
M  V30 2260 C 211.105 -3.47124 0.361402 0
M  V30 2261 C 212.453 -4.23738 0.270455 0
M  V30 2262 O 213.477 -3.54981 0.294382 0
M  V30 2263 O 212.336 -5.46131 0.200737 0
M  V30 2264 H 209.43 -0.826984 -0.00517729 0
M  V30 2265 H 211.976 -1.52972 0.734681 0
M  V30 2266 H 210.748 -3.65837 1.38848 0
M  V30 2267 H 210.371 -3.96475 -0.298953 0
M  V30 2268 N 211.368 -0.403325 -1.52352 0
M  V30 2269 C 212.614 0.174605 -2.02047 0
M  V30 2270 C 212.947 1.45282 -1.28867 0
M  V30 2271 O 212.222 1.90483 -0.393257 0
M  V30 2272 C 212.505 0.428238 -3.57545 0
M  V30 2273 C 212.358 -0.866248 -4.4138 0
M  V30 2274 C 213.677 1.21287 -4.23057 0
M  V30 2275 H 210.796 0.0619851 -0.734389 0
M  V30 2276 H 213.438 -0.53565 -1.82293 0
M  V30 2277 H 211.588 1.03327 -3.74507 0
M  V30 2278 H 213.26 -1.50265 -4.3614 0
M  V30 2279 H 211.503 -1.47851 -4.07827 0
M  V30 2280 H 212.174 -0.643249 -5.48239 0
M  V30 2281 H 214.65 0.700703 -4.10158 0
M  V30 2282 H 213.526 1.35909 -5.31808 0
M  V30 2283 H 213.787 2.23193 -3.81625 0
M  V30 2284 N 212.846 1.57033 -0.133567 0
M  V30 2285 C 213.778 2.13176 0.841944 0
M  V30 2286 C 214.791 1.07794 1.22001 0
M  V30 2287 O 215.98 1.35117 1.16643 0
M  V30 2288 C 213.08 2.62847 2.13926 0
M  V30 2289 C 212.253 3.92486 1.93064 0
M  V30 2290 C 211.312 4.27605 3.0666 0
M  V30 2291 O 210.338 4.96168 2.78937 0
M  V30 2292 N 211.54 3.861 4.33483 0
M  V30 2293 H 214.305 2.97503 0.362192 0
M  V30 2294 H 211.866 1.61821 0.05042 0
M  V30 2295 H 213.858 2.83363 2.88942 0
M  V30 2296 H 212.428 1.83319 2.53205 0
M  V30 2297 H 211.648 3.80732 1.02159 0
M  V30 2298 H 212.936 4.77225 1.76447 0
M  V30 2299 H 212.334 3.30828 4.58878 0
M  V30 2300 H 210.891 4.11694 5.05323 0
M  V30 2301 N 214.325 -0.140222 1.56975 0
M  V30 2302 C 215.255 -1.17456 2.01808 0
M  V30 2303 C 216.236 -1.44415 0.898794 0
M  V30 2304 O 217.421 -1.5522 1.16707 0
M  V30 2305 C 214.551 -2.50607 2.40444 0
M  V30 2306 C 213.505 -2.38155 3.55621 0
M  V30 2307 C 212.831 -3.76078 3.80091 0
M  V30 2308 C 214.131 -1.85991 4.88062 0
M  V30 2309 H 215.825 -0.801743 2.88466 0
M  V30 2310 H 213.371 -0.38422 1.38779 0
M  V30 2311 H 215.324 -3.23197 2.7041 0
M  V30 2312 H 214.048 -2.89737 1.50732 0
M  V30 2313 H 212.707 -1.68016 3.25832 0
M  V30 2314 H 212.355 -4.12656 2.87618 0
M  V30 2315 H 212.055 -3.68606 4.57606 0
M  V30 2316 H 213.579 -4.50206 4.12488 0
M  V30 2317 H 214.993 -2.4838 5.16701 0
M  V30 2318 H 213.39 -1.89393 5.6943 0
M  V30 2319 H 214.46 -0.816023 4.77984 0
M  V30 2320 N 215.803 -1.52179 -0.40978 0
M  V30 2321 C 216.736 -1.70196 -1.52015 0
M  V30 2322 C 217.714 -0.549542 -1.53032 0
M  V30 2323 O 218.898 -0.776815 -1.71749 0
M  V30 2324 C 216.025 -1.74069 -2.90547 0
M  V30 2325 C 215.071 -2.95601 -3.07445 0
M  V30 2326 S 215.904 -4.55956 -2.80827 0
M  V30 2327 C 217.06 -4.62614 -4.21591 0
M  V30 2328 H 217.293 -2.64109 -1.36504 0
M  V30 2329 H 214.826 -1.4221 -0.601312 0
M  V30 2330 H 216.784 -1.76985 -3.70387 0
M  V30 2331 H 215.445 -0.812835 -3.034 0
M  V30 2332 H 214.638 -2.94791 -4.08796 0
M  V30 2333 H 214.24 -2.90569 -2.35469 0
M  V30 2334 H 216.532 -4.39951 -5.15218 0
M  V30 2335 H 217.475 -5.64548 -4.27424 0
M  V30 2336 H 217.883 -3.91654 -4.06531 0
M  V30 2337 N 217.281 0.66697 -1.42791 0
M  V30 2338 C 218.228 1.7803 -1.4688 0
M  V30 2339 C 219.198 1.6299 -0.319919 0
M  V30 2340 O 220.383 1.83432 -0.525118 0
M  V30 2341 C 217.523 3.1611 -1.38451 0
M  V30 2342 C 216.636 3.42381 -2.63437 0
M  V30 2343 C 215.771 4.70232 -2.47094 0
M  V30 2344 C 214.81 4.89564 -3.67415 0
M  V30 2345 N 213.947 6.08661 -3.49966 0
M  V30 2346 H 218.787 1.7387 -2.42019 0
M  V30 2347 H 216.324 0.84868 -1.20149 0
M  V30 2348 H 218.282 3.95914 -1.31561 0
M  V30 2349 H 216.912 3.19374 -0.469033 0
M  V30 2350 H 215.964 2.56774 -2.80662 0
M  V30 2351 H 217.276 3.52557 -3.52853 0
M  V30 2352 H 216.43 5.5814 -2.37834 0
M  V30 2353 H 215.169 4.62353 -1.5518 0
M  V30 2354 H 214.174 4.00096 -3.77099 0
M  V30 2355 H 215.399 4.99282 -4.6032 0
M  V30 2356 H 213.345 6.0194 -2.60776 0
M  V30 2357 H 213.262 6.19733 -4.32975 0
M  V30 2358 H 214.53 6.99226 -3.44532 0
M  V30 2359 N 218.759 1.29093 0.90403 0
M  V30 2360 C 220.007 1.16583 1.65085 0
M  V30 2361 C 220.328 -0.283933 1.92922 0
M  V30 2362 O 219.598 -1.19509 1.55224 0
M  V30 2363 H 218.178 0.428467 0.611903 0
M  V30 2364 H 220.84 1.61959 1.08422 0
M  V30 2365 H 219.936 1.71266 2.6091 0
M  V30 2366 N 220.237 -1.11381 1.11499 0
M  V30 2367 C 221.184 -2.17439 0.773887 0
M  V30 2368 C 222.154 -1.64132 -0.254899 0
M  V30 2369 O 223.339 -1.90345 -0.13168 0
M  V30 2370 C 220.479 -3.44373 0.223917 0
M  V30 2371 C 219.592 -4.1168 1.30934 0
M  V30 2372 C 218.727 -5.263 0.71984 0
M  V30 2373 C 217.766 -5.85493 1.78507 0
M  V30 2374 N 216.903 -6.91507 1.21502 0
M  V30 2375 H 221.743 -2.45962 1.68246 0
M  V30 2376 H 219.28 -1.20744 0.840191 0
M  V30 2377 H 221.238 -4.17047 -0.112921 0
M  V30 2378 H 219.868 -3.16232 -0.647851 0
M  V30 2379 H 218.92 -3.37073 1.76312 0
M  V30 2380 H 220.232 -4.51729 2.11524 0
M  V30 2381 H 219.386 -6.05785 0.333094 0
M  V30 2382 H 218.125 -4.87559 -0.117377 0
M  V30 2383 H 217.13 -5.04686 2.18111 0
M  V30 2384 H 218.355 -6.26301 2.62533 0
M  V30 2385 H 216.301 -6.54783 0.399455 0
M  V30 2386 H 216.218 -7.30214 1.95763 0
M  V30 2387 H 217.486 -7.74795 0.855181 0
M  V30 2388 N 221.715 -0.905404 -1.28997 0
M  V30 2389 C 222.647 -0.344748 -2.26592 0
M  V30 2390 C 223.66 0.512135 -1.54535 0
M  V30 2391 O 224.849 0.328368 -1.75454 0
M  V30 2392 C 221.949 0.526587 -3.34784 0
M  V30 2393 C 221.122 -0.305871 -4.36329 0
M  V30 2394 C 220.181 0.499209 -5.23827 0
M  V30 2395 O 219.207 -0.0853004 -5.69136 0
M  V30 2396 N 220.409 1.80408 -5.51755 0
M  V30 2397 H 223.174 -1.18359 -2.75338 0
M  V30 2398 H 220.735 -0.770481 -1.42391 0
M  V30 2399 H 222.727 1.07171 -3.90252 0
M  V30 2400 H 221.297 1.26613 -2.85811 0
M  V30 2401 H 220.517 -1.0324 -3.80441 0
M  V30 2402 H 221.805 -0.875773 -5.01206 0
M  V30 2403 H 221.203 2.3016 -5.16762 0
M  V30 2404 H 219.76 2.29621 -6.10014 0
M  V30 2405 N 223.193 1.4272 -0.668489 0
M  V30 2406 C 224.103 2.34596 0.0139753 0
M  V30 2407 C 225.119 1.5474 0.795703 0
M  V30 2408 O 226.295 1.87334 0.739466 0
M  V30 2409 C 223.36 3.33202 0.957982 0
M  V30 2410 C 222.421 4.28957 0.17149 0
M  V30 2411 C 221.654 5.22853 1.07053 0
M  V30 2412 O 221.877 5.21531 2.31001 0
M  V30 2413 O 220.811 5.9952 0.534727 0
M  V30 2414 H 224.637 2.9448 -0.742661 0
M  V30 2415 H 222.222 1.43117 -0.428705 0
M  V30 2416 H 224.104 3.93796 1.50008 0
M  V30 2417 H 222.779 2.758 1.69458 0
M  V30 2418 H 221.686 3.71796 -0.414558 0
M  V30 2419 H 223.019 4.89383 -0.52586 0
M  V30 2420 N 224.671 0.411399 1.52136 0
M  V30 2421 C 225.911 -0.163143 2.03748 0
M  V30 2422 C 226.275 -1.42187 1.29022 0
M  V30 2423 O 227.476 -2.075 1.70872 0
M  V30 2424 C 225.747 -0.402651 3.55125 0
M  V30 2425 S 227.306 -0.944315 4.28519 0
M  V30 2426 H 224.124 -0.0439833 0.709638 0
M  V30 2427 H 226.726 0.56484 1.87163 0
M  V30 2428 H 225.43 0.520212 4.0709 0
M  V30 2429 H 224.961 -1.15844 3.75957 0
M  V30 2430 H 226.976 -2.22463 4.43536 0
M  V30 2431 N 226.149 -1.5696 0.141893 0
M  V30 2432 C 227.082 -2.12271 -0.837627 0
M  V30 2433 C 228.06 -1.04495 -1.24578 0
M  V30 2434 O 229.244 -1.32293 -1.34278 0
M  V30 2435 C 226.371 -2.63822 -2.12404 0
M  V30 2436 C 225.417 -3.83698 -1.86221 0
M  V30 2437 S 226.25 -5.24948 -1.05781 0
M  V30 2438 C 227.406 -5.79884 -2.35552 0
M  V30 2439 H 227.639 -2.95023 -0.367249 0
M  V30 2440 H 225.172 -1.54231 -0.0723014 0
M  V30 2441 H 227.13 -2.94175 -2.86307 0
M  V30 2442 H 225.791 -1.8121 -2.56557 0
M  V30 2443 H 224.984 -4.17995 -2.81596 0
M  V30 2444 H 224.586 -3.5408 -1.20429 0
M  V30 2445 H 226.878 -5.91005 -3.31239 0
M  V30 2446 H 227.821 -6.77544 -2.05767 0
M  V30 2447 H 228.229 -5.08095 -2.45967 0
M  V30 2448 N 227.627 0.131896 -1.57047 0
M  V30 2449 C 228.904 0.871495 -1.75112 0
M  V30 2450 C 229.284 1.9866 -0.713949 0
M  V30 2451 O 228.632 2.26965 0.264447 0
M  V30 2452 C 228.842 1.40007 -3.19686 0
M  V30 2453 C 230.19 1.85752 -3.81813 0
M  V30 2454 O 231.214 1.49715 -3.23209 0
M  V30 2455 O 230.073 2.5226 -4.84796 0
M  V30 2456 H 227.167 0.412919 -0.716538 0
M  V30 2457 H 229.713 0.116641 -1.69299 0
M  V30 2458 H 228.485 0.599404 -3.86682 0
M  V30 2459 H 228.108 2.218 -3.29986 0
M  V30 2460 N 229.106 1.52395 0.401703 0
M  V30 2461 C 230.331 1.70972 1.17403 0
M  V30 2462 C 230.756 0.421615 1.83314 0
M  V30 2463 O 230.114 -0.621564 1.70312 0
M  V30 2464 C 230.162 2.85151 2.20728 0
M  V30 2465 O 229.266 2.51238 3.27037 0
M  V30 2466 H 228.607 0.568927 0.342372 0
M  V30 2467 H 231.137 1.99131 0.469891 0
M  V30 2468 H 231.147 3.10279 2.64936 0
M  V30 2469 H 229.822 3.78603 1.7214 0
M  V30 2470 H 228.399 2.36808 2.88057 0
M  V30 2471 N 230.584 -0.659388 1.43143 0
M  V30 2472 C 231.531 -1.77249 1.47822 0
M  V30 2473 C 232.501 -1.62818 0.328558 0
M  V30 2474 O 233.686 -1.83151 0.534838 0
M  V30 2475 C 230.826 -3.15371 1.40126 0
M  V30 2476 C 229.939 -3.4098 2.65249 0
M  V30 2477 C 229.074 -4.68915 2.49584 0
M  V30 2478 C 228.113 -4.87608 3.70006 0
M  V30 2479 N 227.25 -6.06796 3.53189 0
M  V30 2480 H 232.09 -1.72584 2.42938 0
M  V30 2481 H 229.627 -0.842297 1.20598 0
M  V30 2482 H 231.585 -3.9521 1.33659 0
M  V30 2483 H 230.215 -3.19121 0.485964 0
M  V30 2484 H 229.267 -2.55282 2.8202 0
M  V30 2485 H 230.579 -3.50681 3.54717 0
M  V30 2486 H 229.733 -5.56871 2.4079 0
M  V30 2487 H 228.472 -4.61524 1.5763 0
M  V30 2488 H 227.477 -3.9809 3.79215 0
M  V30 2489 H 228.702 -4.96834 4.62961 0
M  V30 2490 H 226.648 -6.00549 2.63965 0
M  V30 2491 H 226.565 -6.17428 4.36255 0
M  V30 2492 H 227.833 -6.9739 3.48236 0
M  V30 2493 N 232.062 -1.29571 -0.897171 0
M  V30 2494 C 232.992 -1.17473 -2.01798 0
M  V30 2495 C 233.973 -0.068323 -1.69963 0
M  V30 2496 O 235.158 -0.248239 -1.92607 0
M  V30 2497 C 232.288 -0.853099 -3.36659 0
M  V30 2498 C 231.242 -1.9161 -3.82713 0
M  V30 2499 C 230.568 -1.44773 -5.14728 0
M  V30 2500 C 231.868 -3.32535 -4.02763 0
M  V30 2501 H 233.562 -2.11237 -2.12177 0
M  V30 2502 H 231.108 -1.01699 -1.01948 0
M  V30 2503 H 233.061 -0.755165 -4.14578 0
M  V30 2504 H 231.785 0.120236 -3.26379 0
M  V30 2505 H 230.444 -2.00346 -3.07013 0
M  V30 2506 H 230.092 -0.462995 -5.00865 0
M  V30 2507 H 229.792 -2.15865 -5.46513 0
M  V30 2508 H 231.316 -1.36334 -5.95185 0
M  V30 2509 H 232.73 -3.26626 -4.71156 0
M  V30 2510 H 231.127 -4.01607 -4.45905 0
M  V30 2511 H 232.197 -3.75326 -3.07016 0
M  V30 2512 N 233.54 1.10788 -1.12088 0
M  V30 2513 C 234.47 2.19083 -0.807755 0
M  V30 2514 C 235.451 1.6858 0.226859 0
M  V30 2515 O 236.636 1.93997 0.0888475 0
M  V30 2516 C 233.766 3.46344 -0.257576 0
M  V30 2517 C 232.72 4.101 -1.22483 0
M  V30 2518 C 232.046 5.32016 -0.535052 0
M  V30 2519 C 233.346 4.54236 -2.57811 0
M  V30 2520 H 235.04 2.45534 -1.71328 0
M  V30 2521 H 232.586 1.1801 -0.825205 0
M  V30 2522 H 234.539 4.21392 -0.0262679 0
M  V30 2523 H 233.263 3.19373 0.683278 0
M  V30 2524 H 231.922 3.37054 -1.44189 0
M  V30 2525 H 231.57 5.01319 0.410827 0
M  V30 2526 H 231.27 5.75625 -1.18024 0
M  V30 2527 H 232.794 6.09799 -0.312695 0
M  V30 2528 H 234.208 5.20575 -2.40155 0
M  V30 2529 H 232.605 5.08682 -3.18375 0
M  V30 2530 H 233.675 3.6734 -3.16528 0
M  V30 2531 N 235.018 0.912232 1.28515 0
M  V30 2532 C 235.981 0.404223 2.25607 0
M  V30 2533 C 236.981 -0.468602 1.53821 0
M  V30 2534 O 238.171 -0.271873 1.72065 0
M  V30 2535 C 235.303 -0.420653 3.38295 0
M  V30 2536 H 236.496 1.26188 2.7206 0
M  V30 2537 H 234.049 0.691495 1.40171 0
M  V30 2538 H 234.784 -1.29777 2.97201 0
M  V30 2539 H 234.569 0.204935 3.91564 0
M  V30 2540 H 236.059 -0.766971 4.10496 0
M  V30 2541 N 236.496 -1.42363 0.676048 0
M  V30 2542 C 237.429 -2.28141 -0.0516916 0
M  V30 2543 C 238.407 -1.41135 -0.807439 0
M  V30 2544 O 239.591 -1.70573 -0.802305 0
M  V30 2545 C 236.718 -3.21007 -1.08039 0
M  V30 2546 C 235.764 -4.24426 -0.420076 0
M  V30 2547 S 236.597 -5.29134 0.823246 0
M  V30 2548 C 237.753 -6.25566 -0.204344 0
M  V30 2549 H 237.986 -2.89515 0.675884 0
M  V30 2550 H 235.519 -1.47211 0.465635 0
M  V30 2551 H 237.477 -3.75048 -1.66881 0
M  V30 2552 H 236.138 -2.58766 -1.78042 0
M  V30 2553 H 235.331 -4.89596 -1.19633 0
M  V30 2554 H 234.933 -3.7388 0.0947845 0
M  V30 2555 H 237.225 -6.69098 -1.06369 0
M  V30 2556 H 238.168 -7.06895 0.412915 0
M  V30 2557 H 238.576 -5.61811 -0.55038 0
M  V30 2558 N 237.974 -0.419461 -1.51915 0
M  V30 2559 C 238.921 0.400927 -2.27291 0
M  V30 2560 C 239.891 1.03224 -1.30131 0
M  V30 2561 O 241.076 1.05455 -1.59009 0
M  V30 2562 C 238.216 1.50603 -3.10504 0
M  V30 2563 C 237.329 0.89462 -4.22635 0
M  V30 2564 C 236.464 1.97328 -4.93189 0
M  V30 2565 C 235.503 1.33935 -5.97267 0
M  V30 2566 N 234.64 2.3586 -6.61298 0
M  V30 2567 H 239.48 -0.248251 -2.96964 0
M  V30 2568 H 237.017 -0.134266 -1.46486 0
M  V30 2569 H 238.975 2.15783 -3.57062 0
M  V30 2570 H 237.605 2.12509 -2.42981 0
M  V30 2571 H 236.657 0.131583 -3.80172 0
M  V30 2572 H 237.969 0.391641 -4.9726 0
M  V30 2573 H 237.123 2.70211 -5.43204 0
M  V30 2574 H 235.862 2.50994 -4.18155 0
M  V30 2575 H 234.867 0.595896 -5.46561 0
M  V30 2576 H 236.092 0.810252 -6.74249 0
M  V30 2577 H 234.038 2.88639 -5.89087 0
M  V30 2578 H 233.955 1.90403 -7.3163 0
M  V30 2579 H 235.223 3.08282 -7.15949 0
M  V30 2580 N 239.452 1.56882 -0.150215 0
M  V30 2581 C 240.402 2.13501 0.800071 0
M  V30 2582 C 241.386 1.06368 1.20726 0
M  V30 2583 O 242.578 1.32538 1.17314 0
M  V30 2584 C 239.707 2.76271 2.03787 0
M  V30 2585 C 238.793 3.90533 1.65364 0
M  V30 2586 N 239.184 4.96259 0.977794 0
M  V30 2587 C 237.482 4.013 1.94613 0
M  V30 2588 C 238.183 5.76286 0.791794 0
M  V30 2589 N 237.159 5.27163 1.32666 0
M  V30 2590 H 240.961 2.92615 0.274517 0
M  V30 2591 H 238.475 1.62319 0.0512144 0
M  V30 2592 H 240.472 3.15197 2.72867 0
M  V30 2593 H 239.132 1.98631 2.56857 0
M  V30 2594 H 240.143 5.13953 0.638193 0
M  V30 2595 H 236.82 3.3474 2.4951 0
M  V30 2596 H 238.21 6.71401 0.258894 0
M  V30 2597 N 240.93 -0.123565 1.57115 0
M  V30 2598 C 241.84 -1.17074 2.033 0
M  V30 2599 C 242.856 -1.4561 0.952559 0
M  V30 2600 O 244.032 -1.56817 1.26374 0
M  V30 2601 C 241.097 -2.47857 2.42421 0
M  V30 2602 C 240.158 -2.26758 3.64526 0
M  V30 2603 C 239.391 -3.51305 4.01771 0
M  V30 2604 O 239.614 -4.5843 3.39409 0
M  V30 2605 O 238.548 -3.42578 4.94898 0
M  V30 2606 H 242.374 -0.808555 2.92739 0
M  V30 2607 H 239.959 -0.334027 1.45618 0
M  V30 2608 H 241.841 -3.2492 2.68338 0
M  V30 2609 H 240.516 -2.83558 1.5613 0
M  V30 2610 H 239.423 -1.47569 3.43765 0
M  V30 2611 H 240.756 -1.95963 4.51508 0
M  V30 2612 N 242.408 -1.52605 -0.393616 0
M  V30 2613 C 243.356 -1.77688 -1.50099 0
M  V30 2614 C 244.35 -0.644615 -1.56656 0
M  V30 2615 O 245.556 -0.826997 -1.59877 0
M  V30 2616 H 241.931 -0.562159 -0.499481 0
M  V30 2617 H 243.902 -2.7043 -1.26135 0
M  V30 2618 C 242.651 -1.95858 -2.87289 0
M  V30 2619 H 241.974 -2.8241 -2.82992 0
M  V30 2620 H 243.414 -2.174 -3.64024 0
M  V30 2621 C 241.873 -0.729848 -3.28899 0
M  V30 2622 O 242.403 0.0949217 -4.01588 0
M  V30 2623 N 240.609 -0.561283 -2.85128 0
M  V30 2624 H 240.156 -1.23357 -2.26143 0
M  V30 2625 H 240.114 0.2595 -3.13327 0
M  V30 2626 N 243.887 0.651787 -1.4349 0
M  V30 2627 C 244.797 1.79368 -1.5121 0
M  V30 2628 C 245.813 1.69361 -0.399093 0
M  V30 2629 O 246.989 1.90505 -0.653431 0
M  V30 2630 C 244.054 3.15653 -1.43401 0
M  V30 2631 C 243.115 3.37446 -2.65384 0
M  V30 2632 C 242.348 4.67229 -2.57939 0
M  V30 2633 O 242.571 5.46676 -1.62792 0
M  V30 2634 O 241.505 4.90773 -3.48462 0
M  V30 2635 H 245.331 1.7581 -2.47638 0
M  V30 2636 H 242.916 0.810447 -1.25507 0
M  V30 2637 H 244.798 3.96935 -1.41494 0
M  V30 2638 H 243.473 3.19798 -0.501085 0
M  V30 2639 H 242.38 2.55923 -2.72863 0
M  V30 2640 H 243.713 3.38148 -3.57654 0
M  V30 2641 N 245.365 1.30045 0.890287 0
M  V30 2642 C 246.328 1.15963 1.977 0
M  V30 2643 C 247.328 0.0923777 1.60534 0
M  V30 2644 O 248.518 0.340071 1.70848 0
M  V30 2645 C 245.65 0.775451 3.31963 0
M  V30 2646 H 246.843 2.12502 2.11619 0
M  V30 2647 H 244.396 1.13366 1.07601 0
M  V30 2648 H 245.131 -0.189671 3.23745 0
M  V30 2649 H 244.916 1.54668 3.60306 0
M  V30 2650 H 246.406 0.700251 4.11687 0
M  V30 2651 N 246.843 -1.10192 1.12674 0
M  V30 2652 C 247.773 -2.18652 0.819362 0
M  V30 2653 C 248.754 -1.68698 -0.217915 0
M  V30 2654 O 249.939 -1.94041 -0.0785581 0
M  V30 2655 C 247.069 -3.46202 0.27594 0
M  V30 2656 C 246.023 -4.09444 1.24656 0
M  V30 2657 C 245.349 -5.31725 0.563258 0
M  V30 2658 C 246.649 -4.52863 2.60217 0
M  V30 2659 H 248.343 -2.44622 1.72628 0
M  V30 2660 H 245.889 -1.17571 0.831451 0
M  V30 2661 H 247.842 -4.21372 0.0486149 0
M  V30 2662 H 246.566 -3.1973 -0.666331 0
M  V30 2663 H 245.225 -3.36284 1.45974 0
M  V30 2664 H 244.873 -5.0153 -0.384235 0
M  V30 2665 H 244.573 -5.74991 1.21075 0
M  V30 2666 H 246.097 -6.09624 0.34503 0
M  V30 2667 H 247.511 -5.19294 2.42913 0
M  V30 2668 H 245.908 -5.06986 3.21068 0
M  V30 2669 H 246.978 -3.65656 3.18471 0
M  V30 2670 N 248.321 -0.919034 -1.28029 0
M  V30 2671 C 249.567 -0.565221 -1.95389 0
M  V30 2672 C 249.922 0.882325 -1.70976 0
M  V30 2673 O 249.215 1.61988 -1.02325 0
M  V30 2674 C 249.409 -0.816855 -3.4794 0
M  V30 2675 C 249.238 -2.28731 -3.87185 0
M  V30 2676 C 248.008 -2.93841 -4.11079 0
M  V30 2677 C 250.206 -3.26415 -3.97439 0
M  V30 2678 N 248.188 -4.31129 -4.37037 0
M  V30 2679 C 249.559 -4.48884 -4.27672 0
M  V30 2680 C 251.614 -3.21742 -3.79982 0
M  V30 2681 C 250.317 -5.67268 -4.42266 0
M  V30 2682 C 252.343 -4.39431 -3.95796 0
M  V30 2683 C 251.705 -5.60675 -4.26407 0
M  V30 2684 H 247.804 -0.256797 -0.738633 0
M  V30 2685 H 250.388 -1.18386 -1.54573 0
M  V30 2686 H 248.559 -0.227445 -3.87733 0
M  V30 2687 H 250.291 -0.426542 -4.02446 0
M  V30 2688 H 247.046 -2.44547 -4.05578 0
M  V30 2689 H 247.47 -5.02127 -4.5409 0
M  V30 2690 H 252.112 -2.29079 -3.55363 0
M  V30 2691 H 249.83 -6.60406 -4.65714 0
M  V30 2692 H 253.416 -4.37323 -3.83719 0
M  V30 2693 H 252.296 -6.50223 -4.38383 0
M  V30 2694 N 249.799 1.42003 -0.683588 0
M  V30 2695 C 251.215 1.55625 -0.353976 0
M  V30 2696 C 251.415 1.66151 1.14 0
M  V30 2697 O 250.471 1.63329 1.92561 0
M  V30 2698 C 251.784 2.80171 -1.092 0
M  V30 2699 C 253.332 2.93954 -1.07518 0
M  V30 2700 C 253.807 4.21372 -1.79471 0
M  V30 2701 N 255.298 4.28303 -1.76381 0
M  V30 2702 C 256.033 5.25729 -2.28904 0
M  V30 2703 N 255.529 6.29254 -2.89846 0
M  V30 2704 N 257.322 5.17586 -2.19228 0
M  V30 2705 H 249.473 1.33415 -1.6527 0
M  V30 2706 H 251.736 0.64282 -0.696769 0
M  V30 2707 H 251.442 2.78561 -2.14701 0
M  V30 2708 H 251.316 3.7133 -0.662862 0
M  V30 2709 H 253.703 2.95086 -0.028475 0
M  V30 2710 H 253.784 2.04002 -1.54328 0
M  V30 2711 H 253.428 4.21001 -2.84114 0
M  V30 2712 H 253.358 5.10275 -1.30104 0
M  V30 2713 H 255.849 3.54119 -1.31939 0
M  V30 2714 H 256.162 6.99964 -3.27522 0
M  V30 2715 H 254.507 6.29791 -2.93919 0
M  V30 2716 H 257.698 4.35631 -1.71299 0
M  V30 2717 H 257.871 5.93348 -2.60466 0
M  V30 2718 N 251.277 0.427512 1.51691 0
M  V30 2719 C 252.187 -0.39527 2.31246 0
M  V30 2720 C 253.203 -1.03674 1.39742 0
M  V30 2721 O 254.379 -1.03425 1.72816 0
M  V30 2722 C 251.444 -1.48706 3.13189 0
M  V30 2723 C 250.505 -0.866743 4.20459 0
M  V30 2724 C 249.738 -1.90651 4.98486 0
M  V30 2725 O 249.961 -3.12733 4.77026 0
M  V30 2726 O 248.895 -1.5025 5.82845 0
M  V30 2727 H 252.721 0.253918 3.02637 0
M  V30 2728 H 250.306 0.190274 1.48183 0
M  V30 2729 H 252.188 -2.12047 3.64162 0
M  V30 2730 H 250.863 -2.12051 2.44573 0
M  V30 2731 H 249.77 -0.195544 3.73589 0
M  V30 2732 H 251.103 -0.276934 4.9142 0
M  V30 2733 N 252.755 -1.56801 0.158532 0
M  V30 2734 C 254.001 -1.96781 -0.490405 0
M  V30 2735 C 254.334 -1.04397 -1.63753 0
M  V30 2736 O 253.609 -0.0885805 -1.94298 0
M  V30 2737 C 253.892 -3.4635 -0.985594 0
M  V30 2738 C 253.745 -4.49512 0.160824 0
M  V30 2739 C 255.064 -3.98697 -1.86355 0
M  V30 2740 H 252.183 -0.715482 -0.176788 0
M  V30 2741 H 254.825 -1.88451 0.242088 0
M  V30 2742 H 252.975 -3.53579 -1.60978 0
M  V30 2743 H 254.647 -4.54353 0.797537 0
M  V30 2744 H 252.89 -4.26013 0.818256 0
M  V30 2745 H 253.561 -5.51531 -0.227569 0
M  V30 2746 H 256.037 -3.94019 -1.33746 0
M  V30 2747 H 254.913 -5.03792 -2.17909 0
M  V30 2748 H 255.174 -3.41744 -2.8047 0
M  V30 2749 N 254.233 0.115231 -1.57178 0
M  V30 2750 C 255.196 1.12526 -1.99676 0
M  V30 2751 C 256.196 1.34095 -0.88742 0
M  V30 2752 O 257.386 1.30548 -1.15337 0
M  V30 2753 C 254.518 2.4789 -2.34015 0
M  V30 2754 H 255.711 0.759912 -2.90113 0
M  V30 2755 H 253.264 0.359648 -1.52106 0
M  V30 2756 H 253.999 2.89339 -1.4647 0
M  V30 2757 H 253.784 2.33588 -3.14927 0
M  V30 2758 H 255.274 3.20575 -2.67622 0
M  V30 2759 N 255.711 1.52812 0.385517 0
M  V30 2760 C 256.936 1.72207 1.15583 0
M  V30 2761 C 257.361 0.441034 1.82857 0
M  V30 2762 O 256.719 -0.603465 1.70962 0
M  V30 2763 C 256.767 2.87476 2.17692 0
M  V30 2764 O 255.871 2.54693 3.24354 0
M  V30 2765 H 255.212 0.572526 0.336319 0
M  V30 2766 H 257.742 1.99618 0.448744 0
M  V30 2767 H 257.752 3.13072 2.6163 0
M  V30 2768 H 256.427 3.80408 1.68115 0
M  V30 2769 H 255.004 2.3985 2.85529 0
M  V30 2770 N 257.189 -0.644168 1.43834 0
M  V30 2771 C 258.119 -1.76814 1.52509 0
M  V30 2772 C 259.1 -1.65823 0.379052 0
M  V30 2773 O 260.285 -1.84781 0.597466 0
M  V30 2774 C 257.415 -3.15288 1.4564 0
M  V30 2775 C 256.369 -3.41053 2.58586 0
M  V30 2776 C 255.695 -4.79421 2.36769 0
M  V30 2777 C 256.995 -3.34902 4.00797 0
M  V30 2778 H 258.689 -1.69812 2.46586 0
M  V30 2779 H 256.235 -0.815542 1.1868 0
M  V30 2780 H 258.188 -3.93681 1.50311 0
M  V30 2781 H 256.912 -3.23043 0.480725 0
M  V30 2782 H 255.571 -2.65035 2.53282 0
M  V30 2783 H 255.219 -4.83863 1.37424 0
M  V30 2784 H 254.919 -4.9762 3.12487 0
M  V30 2785 H 256.443 -5.6006 2.43238 0
M  V30 2786 H 257.857 -4.03218 4.07539 0
M  V30 2787 H 256.254 -3.64637 4.76613 0
M  V30 2788 H 257.324 -2.32928 4.25291 0
M  V30 2789 N 258.668 -1.30515 -0.883378 0
M  V30 2790 C 260.084 -1.08881 -1.16692 0
M  V30 2791 C 260.284 0.149409 -2.00945 0
M  V30 2792 O 259.34 0.84257 -2.38027 0
M  V30 2793 C 260.653 -2.35319 -1.87204 0
M  V30 2794 C 262.201 -2.40799 -1.99962 0
M  V30 2795 C 262.676 -3.67083 -2.73887 0
M  V30 2796 N 264.167 -3.679 -2.81432 0
M  V30 2797 C 264.902 -4.62303 -3.3921 0
M  V30 2798 N 264.398 -5.67052 -3.98025 0
M  V30 2799 N 266.191 -4.49845 -3.3704 0
M  V30 2800 H 258.342 -2.09951 -0.321633 0
M  V30 2801 H 260.605 -0.92556 -0.205043 0
M  V30 2802 H 260.311 -3.25689 -1.3274 0
M  V30 2803 H 260.185 -2.44089 -2.87577 0
M  V30 2804 H 262.572 -1.50907 -2.53597 0
M  V30 2805 H 262.653 -2.36003 -0.98673 0
M  V30 2806 H 262.297 -4.57334 -2.20925 0
M  V30 2807 H 262.227 -3.69141 -3.75556 0
M  V30 2808 H 264.718 -2.92171 -2.39676 0
M  V30 2809 H 265.031 -6.35184 -4.40183 0
M  V30 2810 H 263.376 -5.70842 -3.96439 0
M  V30 2811 H 266.567 -3.67194 -2.90321 0
M  V30 2812 H 266.74 -5.23597 -3.81772 0
M  V30 2813 N 260.146 1.09593 -1.13257 0
M  V30 2814 C 261.078 2.16015 -0.766167 0
M  V30 2815 C 262.091 1.61423 0.211303 0
M  V30 2816 O 263.28 1.78498 -0.00863946 0
M  V30 2817 C 260.38 3.38706 -0.114662 0
M  V30 2818 C 259.553 4.22717 -1.12379 0
M  V30 2819 C 258.612 5.23835 -0.498301 0
M  V30 2820 O 257.638 5.573 -1.15781 0
M  V30 2821 N 258.84 5.75886 0.730417 0
M  V30 2822 H 261.605 2.48055 -1.68193 0
M  V30 2823 H 259.166 1.25292 -1.02535 0
M  V30 2824 H 261.158 4.03464 0.315991 0
M  V30 2825 H 259.728 3.04569 0.704011 0
M  V30 2826 H 258.948 3.54122 -1.73179 0
M  V30 2827 H 260.236 4.75673 -1.80589 0
M  V30 2828 H 259.634 5.50911 1.28504 0
M  V30 2829 H 258.191 6.42387 1.10376 0
M  V30 2830 N 261.624 0.925811 1.2754 0
M  V30 2831 C 262.571 0.422045 2.26908 0
M  V30 2832 C 263.541 -0.510029 1.58076 0
M  V30 2833 O 264.726 -0.429599 1.85901 0
M  V30 2834 C 261.866 -0.320837 3.43605 0
M  V30 2835 C 260.979 0.64513 4.27156 0
M  V30 2836 C 260.114 -0.117405 5.3107 0
M  V30 2837 C 259.153 0.841391 6.0629 0
M  V30 2838 N 258.29 0.111604 7.02011 0
M  V30 2839 H 263.13 1.27441 2.69375 0
M  V30 2840 H 260.667 0.639697 1.32462 0
M  V30 2841 H 262.625 -0.76785 4.10073 0
M  V30 2842 H 261.255 -1.13745 3.02096 0
M  V30 2843 H 260.307 1.21067 3.6062 0
M  V30 2844 H 261.619 1.37797 4.79389 0
M  V30 2845 H 260.773 -0.624422 6.03478 0
M  V30 2846 H 259.512 -0.883219 4.79636 0
M  V30 2847 H 258.517 1.35967 5.32722 0
M  V30 2848 H 259.742 1.60696 6.59813 0
M  V30 2849 H 257.688 -0.635999 6.5291 0
M  V30 2850 H 257.605 0.784044 7.51923 0
M  V30 2851 H 258.873 -0.374823 7.78598 0
M  V30 2852 N 263.102 -1.41638 0.69111 0
M  V30 2853 C 264.052 -2.28 -0.000107832 0
M  V30 2854 C 265.036 -1.41964 -0.757304 0
M  V30 2855 O 266.228 -1.65274 -0.633532 0
M  V30 2856 C 263.357 -3.30209 -0.938983 0
M  V30 2857 C 262.443 -4.23725 -0.17827 0
M  V30 2858 N 262.834 -4.99017 0.825563 0
M  V30 2859 C 261.132 -4.44071 -0.414392 0
M  V30 2860 C 261.833 -5.67431 1.28052 0
M  V30 2861 N 260.809 -5.40197 0.607304 0
M  V30 2862 H 264.611 -2.83644 0.769617 0
M  V30 2863 H 262.125 -1.53797 0.521562 0
M  V30 2864 H 264.122 -3.90898 -1.44929 0
M  V30 2865 H 262.782 -2.76126 -1.70836 0
M  V30 2866 H 263.793 -5.03671 1.20566 0
M  V30 2867 H 260.47 -4.01004 -1.162 0
M  V30 2868 H 261.86 -6.37801 2.11327 0
M  V30 2869 N 264.58 -0.43555 -1.51462 0
M  V30 2870 C 265.543 0.365137 -2.26273 0
M  V30 2871 C 266.543 0.951227 -1.29647 0
M  V30 2872 O 267.733 0.825958 -1.53374 0
M  V30 2873 C 264.865 1.51645 -3.05314 0
M  V30 2874 H 266.058 -0.290474 -2.9849 0
M  V30 2875 H 263.611 -0.188676 -1.55157 0
M  V30 2876 H 264.346 2.20816 -2.3751 0
M  V30 2877 H 264.131 1.10238 -3.76284 0
M  V30 2878 H 265.621 2.08218 -3.61987 0
M  V30 2879 N 266.058 1.56714 -0.166846 0
M  V30 2880 C 266.99 2.14914 0.796537 0
M  V30 2881 C 268.003 1.10357 1.19688 0
M  V30 2882 O 269.192 1.37561 1.13751 0
M  V30 2883 C 266.292 2.67326 2.08303 0
M  V30 2884 C 265.465 3.96493 1.84696 0
M  V30 2885 C 264.524 4.34014 2.97521 0
M  V30 2886 O 263.55 5.01973 2.6835 0
M  V30 2887 N 264.752 3.95208 4.25196 0
M  V30 2888 H 267.517 2.98205 0.299006 0
M  V30 2889 H 265.078 1.61892 0.0160839 0
M  V30 2890 H 267.07 2.89428 2.82867 0
M  V30 2891 H 265.64 1.88649 2.4926 0
M  V30 2892 H 264.86 3.82814 0.940602 0
M  V30 2893 H 266.148 4.8086 1.66285 0
M  V30 2894 H 265.546 3.40487 4.51758 0
M  V30 2895 H 264.103 4.2232 4.96477 0
M  V30 2896 N 267.536 -0.106894 1.57237 0
M  V30 2897 C 268.468 -1.15646 1.97885 0
M  V30 2898 C 269.481 -1.36981 0.879779 0
M  V30 2899 O 270.67 -1.35841 1.15799 0
M  V30 2900 C 267.77 -2.51425 2.27241 0
M  V30 2901 C 266.943 -2.50529 3.58545 0
M  V30 2902 C 266.002 -3.68145 3.75973 0
M  V30 2903 O 265.028 -3.51176 4.47956 0
M  V30 2904 N 266.23 -4.87177 3.15656 0
M  V30 2905 H 268.995 -0.81059 2.8853 0
M  V30 2906 H 266.556 -0.296024 1.59171 0
M  V30 2907 H 268.548 -3.28689 2.36105 0
M  V30 2908 H 267.118 -2.78147 1.42663 0
M  V30 2909 H 266.338 -1.58894 3.60758 0
M  V30 2910 H 267.626 -2.46997 4.44826 0
M  V30 2911 H 267.024 -5.03868 2.57165 0
M  V30 2912 H 265.581 -5.62075 3.30023 0
M  V30 2913 N 269.014 -1.53014 -0.377408 0
M  V30 2914 C 269.946 -1.74884 -1.48149 0
M  V30 2915 C 270.959 -0.629433 -1.5014 0
M  V30 2916 O 272.148 -0.905416 -1.53833 0
M  V30 2917 C 269.248 -1.80299 -2.86959 0
M  V30 2918 C 268.421 -3.09776 -3.08801 0
M  V30 2919 C 267.48 -3.06586 -4.27658 0
M  V30 2920 O 266.506 -3.80419 -4.23403 0
M  V30 2921 N 267.708 -2.26578 -5.34455 0
M  V30 2922 H 270.473 -2.70147 -1.29771 0
M  V30 2923 H 268.034 -1.51646 -0.56703 0
M  V30 2924 H 270.026 -1.75657 -3.64591 0
M  V30 2925 H 268.596 -0.92372 -2.98641 0
M  V30 2926 H 267.816 -3.27815 -2.18931 0
M  V30 2927 H 269.104 -3.95366 -3.20255 0
M  V30 2928 H 268.502 -1.66081 -5.40771 0
M  V30 2929 H 267.059 -2.27766 -6.10709 0
M  V30 2930 N 270.492 0.636531 -1.44174 0
M  V30 2931 C 271.439 1.74875 -1.50624 0
M  V30 2932 C 272.409 1.62275 -0.35442 0
M  V30 2933 O 273.594 1.82276 -0.563908 0
M  V30 2934 C 270.734 3.13102 -1.45125 0
M  V30 2935 C 269.847 3.36717 -2.7064 0
M  V30 2936 C 268.982 4.64885 -2.57013 0
M  V30 2937 C 268.021 4.8166 -3.77717 0
M  V30 2938 N 267.158 6.01101 -3.62798 0
M  V30 2939 H 271.998 1.68697 -2.45653 0
M  V30 2940 H 269.535 0.823004 -1.21922 0
M  V30 2941 H 271.493 3.93034 -1.39929 0
M  V30 2942 H 270.123 3.18308 -0.536671 0
M  V30 2943 H 269.175 2.50763 -2.86046 0
M  V30 2944 H 270.487 3.44993 -3.60252 0
M  V30 2945 H 269.641 5.52969 -2.49619 0
M  V30 2946 H 268.38 4.58957 -1.64953 0
M  V30 2947 H 267.385 3.92007 -3.85501 0
M  V30 2948 H 268.61 4.89406 -4.70807 0
M  V30 2949 H 266.556 5.96273 -2.73486 0
M  V30 2950 H 266.473 6.10409 -4.46023 0
M  V30 2951 H 267.741 6.91761 -3.59286 0
M  V30 2952 N 271.97 1.30982 0.876444 0
M  V30 2953 C 273.216 1.20474 1.63138 0
M  V30 2954 C 273.549 -0.238096 1.92735 0
M  V30 2955 O 272.824 -1.1692 1.55435 0
M  V30 2956 C 273.107 2.04244 2.96574 0
M  V30 2957 C 272.96 3.56793 2.73896 0
M  V30 2958 C 274.279 1.88684 3.97601 0
M  V30 2959 H 271.398 0.439001 0.591985 0
M  V30 2960 H 274.04 1.60704 1.01361 0
M  V30 2961 H 272.19 1.70063 3.493 0
M  V30 2962 H 273.862 4.01077 2.27892 0
M  V30 2963 H 272.105 3.80548 2.08245 0
M  V30 2964 H 272.776 4.10706 3.68815 0
M  V30 2965 H 275.252 2.18584 3.54062 0
M  V30 2966 H 274.128 2.4961 4.88862 0
M  V30 2967 H 274.389 0.848343 4.33884 0
M  V30 2968 N 273.449 -1.08991 1.13837 0
M  V30 2969 C 274.695 -1.81526 0.90422 0
M  V30 2970 C 275.028 -1.85706 -0.568066 0
M  V30 2971 O 274.303 -1.32855 -1.42056 0
M  V30 2972 C 274.586 -3.27447 1.49835 0
M  V30 2973 C 274.439 -3.31512 3.04006 0
M  V30 2974 C 275.758 -4.24256 1.17025 0
M  V30 2975 H 272.877 -0.659029 0.329923 0
M  V30 2976 H 275.519 -1.27644 1.40737 0
M  V30 2977 H 273.669 -3.73462 1.07044 0
M  V30 2978 H 275.341 -2.93867 3.55584 0
M  V30 2979 H 273.584 -2.70963 3.38765 0
M  V30 2980 H 274.255 -4.34329 3.40679 0
M  V30 2981 H 276.731 -3.86549 1.54009 0
M  V30 2982 H 275.607 -5.24684 1.61237 0
M  V30 2983 H 275.868 -4.42019 0.0846274 0
M  V30 2984 N 274.927 -0.932562 -1.27047 0
M  V30 2985 C 275.875 -0.42603 -2.28665 0
M  V30 2986 C 276.869 0.49219 -1.62092 0
M  V30 2987 O 278.075 0.371355 -1.76128 0
M  V30 2988 H 274.45 -0.119213 -0.742491 0
M  V30 2989 H 276.421 -1.29579 -2.68797 0
M  V30 2990 C 275.17 0.301426 -3.46391 0
M  V30 2991 H 274.493 -0.39595 -3.97834 0
M  V30 2992 H 275.933 0.6202 -4.1944 0
M  V30 2993 C 274.392 1.51616 -3.00856 0
M  V30 2994 O 274.922 2.61476 -3.04948 0
M  V30 2995 N 273.128 1.36969 -2.56296 0
M  V30 2996 H 272.675 0.475873 -2.53166 0
M  V30 2997 H 272.633 2.18368 -2.26192 0
M  V30 2998 N 276.405 1.4127 -0.698611 0
M  V30 2999 C 277.352 2.30773 -0.0352094 0
M  V30 3000 C 278.322 1.47273 0.768111 0
M  V30 3001 O 279.507 1.76053 0.735524 0
M  V30 3002 C 276.647 3.33346 0.893 0
M  V30 3003 C 275.76 4.31924 0.0809695 0
M  V30 3004 C 274.895 5.21566 1.0071 0
M  V30 3005 C 273.934 6.11811 0.188155 0
M  V30 3006 N 273.071 6.93926 1.06825 0
M  V30 3007 H 277.911 2.86943 -0.804207 0
M  V30 3008 H 275.448 1.4132 -0.408294 0
M  V30 3009 H 277.406 3.91368 1.44523 0
M  V30 3010 H 276.036 2.78719 1.62836 0
M  V30 3011 H 275.088 3.75825 -0.588224 0
M  V30 3012 H 276.4 4.95716 -0.553801 0
M  V30 3013 H 275.554 5.84437 1.62845 0
M  V30 3014 H 274.293 4.58008 1.67572 0
M  V30 3015 H 273.298 5.47986 -0.446254 0
M  V30 3016 H 274.523 6.77425 -0.476716 0
M  V30 3017 H 272.469 6.32973 1.72283 0
M  V30 3018 H 272.386 7.54416 0.489123 0
M  V30 3019 H 273.654 7.61262 1.67632 0
M  V30 3020 N 277.883 0.443576 1.51229 0
M  V30 3021 C 278.813 -0.355142 2.30783 0
M  V30 3022 C 279.794 -1.0154 1.36468 0
M  V30 3023 O 280.979 -1.01785 1.65389 0
M  V30 3024 C 278.109 -1.45312 3.15439 0
M  V30 3025 C 277.063 -0.916002 4.18083 0
M  V30 3026 C 276.389 -2.1102 4.91299 0
M  V30 3027 C 277.689 0.0538602 5.22272 0
M  V30 3028 H 279.383 0.308767 2.97804 0
M  V30 3029 H 276.929 0.149937 1.43217 0
M  V30 3030 H 278.882 -2.01914 3.69876 0
M  V30 3031 H 277.606 -2.14541 2.46252 0
M  V30 3032 H 276.265 -0.372145 3.64706 0
M  V30 3033 H 275.913 -2.78882 4.18609 0
M  V30 3034 H 275.613 -1.75717 5.60712 0
M  V30 3035 H 277.137 -2.68164 5.48562 0
M  V30 3036 H 278.551 -0.422069 5.71744 0
M  V30 3037 H 276.948 0.319776 5.99247 0
M  V30 3038 H 278.018 0.98858 4.74716 0
M  V30 3039 N 279.361 -1.56624 0.175154 0
M  V30 3040 C 280.61 -1.96173 -0.468921 0
M  V30 3041 C 280.923 -1.06401 -1.64128 0
M  V30 3042 O 282.129 -1.35648 -2.35185 0
M  V30 3043 C 280.585 -3.48833 -0.885633 0
M  V30 3044 C 280.193 -4.47237 0.261343 0
M  V30 3045 C 281.937 -3.97194 -1.49791 0
M  V30 3046 C 279.844 -5.9114 -0.175214 0
M  V30 3047 H 278.774 -0.732455 -0.178958 0
M  V30 3048 H 281.425 -1.81591 0.263997 0
M  V30 3049 H 279.807 -3.58848 -1.67464 0
M  V30 3050 H 280.981 -4.4894 1.03871 0
M  V30 3051 H 279.296 -4.08956 0.783827 0
M  V30 3052 H 281.893 -5.02167 -1.83665 0
M  V30 3053 H 282.236 -3.40351 -2.39722 0
M  V30 3054 H 282.769 -3.90212 -0.773267 0
M  V30 3055 H 279.508 -6.51865 0.689414 0
M  V30 3056 H 279.028 -5.92735 -0.91786 0
M  V30 3057 H 280.707 -6.44044 -0.617792 0
M  V30 3058 N 280.839 0.0985539 -1.57292 0
M  V30 3059 C 281.771 1.14595 -1.98496 0
M  V30 3060 C 282.784 1.36512 -0.887031 0
M  V30 3061 O 283.973 1.35225 -1.16518 0
M  V30 3062 C 281.073 2.50216 -2.28572 0
M  V30 3063 C 280.246 2.48624 -3.59868 0
M  V30 3064 C 279.305 3.66146 -3.7792 0
M  V30 3065 O 278.331 3.48795 -4.49812 0
M  V30 3066 N 279.533 4.85496 -3.18235 0
M  V30 3067 H 282.298 0.795277 -2.88956 0
M  V30 3068 H 279.859 0.287579 -1.59325 0
M  V30 3069 H 281.851 3.27432 -2.37845 0
M  V30 3070 H 280.421 2.77387 -1.44136 0
M  V30 3071 H 279.641 1.56978 -3.61596 0
M  V30 3072 H 280.929 2.44635 -4.46129 0
M  V30 3073 H 280.327 5.02497 -2.59833 0
M  V30 3074 H 278.884 5.60317 -3.32999 0
M  V30 3075 N 282.317 1.53212 0.369288 0
M  V30 3076 C 283.564 1.69215 1.11232 0
M  V30 3077 C 283.892 0.442048 1.8941 0
M  V30 3078 O 283.147 -0.575944 1.87033 0
M  V30 3079 C 283.446 2.89101 2.10132 0
M  V30 3080 C 283.112 4.25758 1.48463 0
M  V30 3081 C 281.774 4.6292 1.31372 0
M  V30 3082 C 284.126 5.10757 1.03811 0
M  V30 3083 C 281.454 5.82722 0.68207 0
M  V30 3084 C 283.806 6.31201 0.420487 0
M  V30 3085 C 282.47 6.67079 0.237038 0
M  V30 3086 H 281.74 0.619201 0.407027 0
M  V30 3087 H 284.387 1.87391 0.394552 0
M  V30 3088 H 282.692 2.65421 2.88199 0
M  V30 3089 H 284.389 2.98676 2.6757 0
M  V30 3090 H 280.979 3.96494 1.62758 0
M  V30 3091 H 285.163 4.82599 1.1581 0
M  V30 3092 H 280.419 6.09113 0.528316 0
M  V30 3093 H 284.593 6.96368 0.0662874 0
M  V30 3094 H 282.22 7.59774 -0.254477 0
M  V30 3095 N 283.795 -0.628877 1.44509 0
M  V30 3096 C 284.725 -1.75187 1.54376 0
M  V30 3097 C 285.706 -1.65411 0.396618 0
M  V30 3098 O 286.891 -1.84137 0.617031 0
M  V30 3099 C 284.021 -3.13725 1.48976 0
M  V30 3100 C 282.975 -3.38291 2.62189 0
M  V30 3101 C 282.301 -4.76883 2.41841 0
M  V30 3102 C 283.601 -3.30632 4.04326 0
M  V30 3103 H 285.295 -1.67187 2.48373 0
M  V30 3104 H 282.841 -0.802909 1.19538 0
M  V30 3105 H 284.794 -3.92064 1.54478 0
M  V30 3106 H 283.518 -3.22515 0.514961 0
M  V30 3107 H 282.177 -2.62334 2.56079 0
M  V30 3108 H 281.825 -4.82378 1.42548 0
M  V30 3109 H 281.525 -4.94278 3.17747 0
M  V30 3110 H 283.049 -5.57449 2.49165 0
M  V30 3111 H 284.463 -3.98873 4.11793 0
M  V30 3112 H 282.86 -3.59561 4.80454 0
M  V30 3113 H 283.93 -2.28404 4.27738 0
M  V30 3114 N 285.273 -1.31445 -0.869486 0
M  V30 3115 C 286.522 -1.20517 -1.61736 0
M  V30 3116 C 286.835 0.235341 -1.94179 0
M  V30 3117 O 288.041 0.466312 -2.67465 0
M  V30 3118 C 286.497 -2.10982 -2.91573 0
M  V30 3119 C 286.105 -3.60032 -2.66611 0
M  V30 3120 C 287.849 -2.08856 -3.69567 0
M  V30 3121 C 285.756 -4.42503 -3.92358 0
M  V30 3122 H 284.686 -0.447493 -0.606849 0
M  V30 3123 H 287.337 -1.56303 -0.96133 0
M  V30 3124 H 285.719 -1.68095 -3.58553 0
M  V30 3125 H 286.893 -4.11167 -2.08035 0
M  V30 3126 H 285.208 -3.64139 -2.0197 0
M  V30 3127 H 287.805 -2.67716 -4.62852 0
M  V30 3128 H 288.148 -1.07582 -4.02159 0
M  V30 3129 H 288.681 -2.49945 -3.09471 0
M  V30 3130 H 285.42 -5.44533 -3.64916 0
M  V30 3131 H 284.94 -3.96125 -4.50383 0
M  V30 3132 H 286.619 -4.54741 -4.60238 0
M  V30 3133 N 286.751 1.08385 -1.14413 0
M  V30 3134 C 287.976 1.85057 -0.936413 0
M  V30 3135 C 288.401 1.81055 0.509971 0
M  V30 3136 O 287.759 1.1958 1.36273 0
M  V30 3137 C 287.807 3.30505 -1.44217 0
M  V30 3138 O 286.911 4.07491 -0.634409 0
M  V30 3139 H 286.252 0.573425 -0.334784 0
M  V30 3140 H 288.782 1.36799 -1.52142 0
M  V30 3141 H 288.792 3.81348 -1.45043 0
M  V30 3142 H 287.467 3.32734 -2.49522 0
M  V30 3143 H 286.044 3.66368 -0.694902 0
M  V30 3144 N 288.23 0.939286 1.26551 0
M  V30 3145 C 289.16 0.465044 2.28822 0
M  V30 3146 C 290.141 -0.480692 1.63167 0
M  V30 3147 O 291.326 -0.382955 1.90387 0
M  V30 3148 C 288.456 -0.27234 3.46231 0
M  V30 3149 C 287.41 0.58666 4.2396 0
M  V30 3150 C 286.736 -0.280573 5.33963 0
M  V30 3151 C 288.036 1.85704 4.88171 0
M  V30 3152 H 289.73 1.31979 2.68741 0
M  V30 3153 H 287.276 0.636061 1.29191 0
M  V30 3154 H 289.229 -0.615133 4.16886 0
M  V30 3155 H 287.953 -1.16121 3.0526 0
M  V30 3156 H 286.612 0.91232 3.55067 0
M  V30 3157 H 286.26 -1.16874 4.89234 0
M  V30 3158 H 285.96 0.29076 5.8688 0
M  V30 3159 H 287.484 -0.618678 6.07458 0
M  V30 3160 H 288.898 1.58161 5.51052 0
M  V30 3161 H 287.295 2.37279 5.51197 0
M  V30 3162 H 288.365 2.56957 4.11219 0
M  V30 3163 N 289.708 -1.40897 0.706093 0
M  V30 3164 C 290.954 -2.01352 0.241889 0
M  V30 3165 C 291.287 -1.55832 -1.15888 0
M  V30 3166 O 290.562 -0.774145 -1.7843 0
M  V30 3167 C 290.845 -3.58752 0.311311 0
M  V30 3168 C 290.698 -4.1437 1.74978 0
M  V30 3169 C 292.017 -4.38914 -0.322922 0
M  V30 3170 H 289.136 -0.731562 0.0893687 0
M  V30 3171 H 291.778 -1.67504 0.896802 0
M  V30 3172 H 289.928 -3.87718 -0.246302 0
M  V30 3173 H 291.6 -3.96239 2.36205 0
M  V30 3174 H 289.843 -3.69016 2.28057 0
M  V30 3175 H 290.514 -5.23532 1.74981 0
M  V30 3176 H 292.99 -4.15822 0.152089 0
M  V30 3177 H 291.866 -5.48358 -0.243855 0
M  V30 3178 H 292.127 -4.19176 -1.40513 0
M  V30 3179 N 291.186 -0.45159 -1.50991 0
M  V30 3180 C 292.118 0.388634 -2.25881 0
M  V30 3181 C 293.131 0.974041 -1.30446 0
M  V30 3182 O 294.32 0.865758 -1.56099 0
M  V30 3183 C 291.42 1.5571 -3.01011 0
M  V30 3184 C 290.593 1.08801 -4.23652 0
M  V30 3185 C 289.652 2.12825 -4.8124 0
M  V30 3186 O 288.678 1.71678 -5.42693 0
M  V30 3187 N 289.88 3.45453 -4.66522 0
M  V30 3188 H 292.645 -0.25329 -2.98628 0
M  V30 3189 H 290.206 -0.281268 -1.59438 0
M  V30 3190 H 292.198 2.24952 -3.3642 0
M  V30 3191 H 290.768 2.10409 -2.31186 0
M  V30 3192 H 289.988 0.22215 -3.93574 0
M  V30 3193 H 291.276 0.752213 -5.03209 0
M  V30 3194 H 290.674 3.81605 -4.17605 0
M  V30 3195 H 289.231 4.10549 -5.06254 0
M  V30 3196 N 292.664 1.56529 -0.183458 0
M  V30 3197 C 293.889 2.02064 0.467428 0
M  V30 3198 C 294.314 1.06282 1.55196 0
M  V30 3199 O 293.672 0.0443565 1.81246 0
M  V30 3200 C 293.72 3.46122 1.01153 0
M  V30 3201 O 292.824 3.53437 2.12499 0
M  V30 3202 H 292.165 0.654726 0.110588 0
M  V30 3203 H 294.695 2.02521 -0.290917 0
M  V30 3204 H 294.705 3.85676 1.33108 0
M  V30 3205 H 293.38 4.15331 0.217533 0
M  V30 3206 H 291.957 3.2575 1.81497 0
M  V30 3207 N 294.142 -0.090211 1.57342 0
M  V30 3208 C 295.09 -1.12792 2.03422 0
M  V30 3209 C 296.084 -1.41182 0.936166 0
M  V30 3210 O 297.29 -1.40805 1.12133 0
M  V30 3211 H 293.665 -0.380986 0.648347 0
M  V30 3212 H 295.636 -0.71299 2.89757 0
M  V30 3213 C 294.385 -2.43855 2.47851 0
M  V30 3214 H 293.708 -2.22855 3.31927 0
M  V30 3215 H 295.148 -3.14955 2.83865 0
M  V30 3216 C 293.607 -3.08503 1.3538 0
M  V30 3217 O 294.137 -3.95805 0.685641 0
M  V30 3218 N 292.343 -2.68831 1.10355 0
M  V30 3219 H 291.89 -1.97929 1.64869 0
M  V30 3220 H 291.848 -3.12412 0.353031 0
M  V30 3221 N 295.62 -1.53406 -0.361157 0
M  V30 3222 C 297.036 -1.43277 -0.703124 0
M  V30 3223 C 297.236 -0.575384 -1.9311 0
M  V30 3224 O 296.292 -0.0595362 -2.5243 0
M  V30 3225 C 297.605 -2.8653 -0.9122 0
M  V30 3226 C 299.153 -2.96191 -1.01193 0
M  V30 3227 C 299.628 -4.40514 -1.25345 0
M  V30 3228 N 301.119 -4.43962 -1.32105 0
M  V30 3229 C 301.854 -5.52746 -1.5251 0
M  V30 3230 N 301.35 -6.71567 -1.70203 0
M  V30 3231 N 303.143 -5.40331 -1.54916 0
M  V30 3232 H 295.294 -2.07654 0.446475 0
M  V30 3233 H 297.557 -0.937944 0.137715 0
M  V30 3234 H 297.263 -3.51605 -0.0816414 0
M  V30 3235 H 297.137 -3.30441 -1.81903 0
M  V30 3236 H 299.524 -2.31266 -1.83303 0
M  V30 3237 H 299.605 -2.55667 -0.0823929 0
M  V30 3238 H 299.249 -5.06014 -0.437346 0
M  V30 3239 H 299.179 -4.78614 -2.19627 0
M  V30 3240 H 301.67 -3.58332 -1.20028 0
M  V30 3241 H 301.983 -7.50241 -1.85359 0
M  V30 3242 H 300.328 -6.74545 -1.67373 0
M  V30 3243 H 303.519 -4.46465 -1.40663 0
M  V30 3244 H 303.692 -6.25173 -1.70477 0
M  V30 3245 N 297.098 0.621204 -1.44841 0
M  V30 3246 C 298.347 1.37658 -1.47422 0
M  V30 3247 C 298.66 1.95264 -0.114629 0
M  V30 3248 O 299.866 2.71494 -0.0180199 0
M  V30 3249 C 298.322 2.49285 -2.59586 0
M  V30 3250 C 297.93 1.98149 -4.01797 0
M  V30 3251 C 299.674 3.26409 -2.71399 0
M  V30 3252 C 297.581 3.07178 -5.05367 0
M  V30 3253 H 296.511 0.517344 -0.548517 0
M  V30 3254 H 299.162 0.667257 -1.70938 0
M  V30 3255 H 297.544 3.22839 -2.29328 0
M  V30 3256 H 298.718 1.31395 -4.41669 0
M  V30 3257 H 297.033 1.33812 -3.94314 0
M  V30 3258 H 299.63 4.07706 -3.45948 0
M  V30 3259 H 299.973 3.76535 -1.77559 0
M  V30 3260 H 300.506 2.5995 -3.01116 0
M  V30 3261 H 297.245 2.61985 -6.00869 0
M  V30 3262 H 296.765 3.72542 -4.70077 0
M  V30 3263 H 298.444 3.71789 -5.29511 0
M  V30 3264 N 298.576 1.31904 0.862503 0
M  V30 3265 C 299.506 1.22782 1.98612 0
M  V30 3266 C 300.487 0.113362 1.69722 0
M  V30 3267 O 301.672 0.299218 1.91881 0
M  V30 3268 C 298.802 0.942058 3.34279 0
M  V30 3269 C 297.756 2.0169 3.77499 0
M  V30 3270 C 297.082 1.58369 5.10709 0
M  V30 3271 C 298.382 3.43096 3.93805 0
M  V30 3272 H 300.076 2.16788 2.06502 0
M  V30 3273 H 297.622 1.04366 0.992154 0
M  V30 3274 H 299.575 0.864818 4.1243 0
M  V30 3275 H 298.299 -0.0336603 3.26583 0
M  V30 3276 H 296.958 2.08416 3.01593 0
M  V30 3277 H 296.606 0.595628 4.99461 0
M  V30 3278 H 296.306 2.30279 5.40597 0
M  V30 3279 H 297.83 1.52067 5.91361 0
M  V30 3280 H 299.244 3.39003 4.62331 0
M  V30 3281 H 297.641 4.13288 4.35101 0
M  V30 3282 H 298.711 3.83334 2.96957 0
M  V30 3283 N 300.054 -1.07777 1.14986 0
M  V30 3284 C 301.302 -1.79934 0.920235 0
M  V30 3285 C 301.623 -1.86955 -0.554336 0
M  V30 3286 O 300.893 -1.36731 -1.40291 0
M  V30 3287 H 299.473 -0.666424 0.337473 0
M  V30 3288 H 302.135 -1.3027 1.44968 0
M  V30 3289 H 301.231 -2.82539 1.32583 0
M  V30 3290 N 301.532 -0.945985 -1.26051 0
M  V30 3291 C 302.778 -0.597002 -1.93814 0
M  V30 3292 C 303.111 0.862484 -1.73997 0
M  V30 3293 O 302.386 1.61769 -1.07986 0
M  V30 3294 C 302.669 -0.945937 -3.47454 0
M  V30 3295 C 302.522 -2.46052 -3.76535 0
M  V30 3296 C 303.841 -0.464785 -4.37639 0
M  V30 3297 H 300.96 -0.218366 -0.703907 0
M  V30 3298 H 303.602 -1.18107 -1.48831 0
M  V30 3299 H 301.752 -0.448902 -3.85898 0
M  V30 3300 H 303.424 -3.03065 -3.47778 0
M  V30 3301 H 301.667 -2.90194 -3.22444 0
M  V30 3302 H 302.338 -2.65517 -4.83947 0
M  V30 3303 H 304.814 -0.891016 -4.06448 0
M  V30 3304 H 303.69 -0.737712 -5.4392 0
M  V30 3305 H 303.951 0.635274 -4.37512 0
M  V30 3306 N 303.011 1.40521 -0.713556 0
M  V30 3307 C 303.958 2.30723 -0.059684 0
M  V30 3308 C 304.928 1.48079 0.752448 0
M  V30 3309 O 306.113 1.76823 0.71681 0
M  V30 3310 C 303.253 3.34274 0.857594 0
M  V30 3311 C 302.366 4.31986 0.0351536 0
M  V30 3312 C 301.501 5.22605 0.951724 0
M  V30 3313 C 300.54 6.11976 0.123253 0
M  V30 3314 N 299.677 6.9502 0.99459 0
M  V30 3315 H 304.517 2.86074 -0.834596 0
M  V30 3316 H 302.054 1.40879 -0.42326 0
M  V30 3317 H 304.012 3.92879 1.40364 0
M  V30 3318 H 302.642 2.8043 1.59871 0
M  V30 3319 H 301.694 3.7518 -0.628052 0
M  V30 3320 H 303.006 4.95101 -0.606347 0
M  V30 3321 H 302.16 5.86131 1.56638 0
M  V30 3322 H 300.899 4.59759 1.62705 0
M  V30 3323 H 299.904 5.47482 -0.50435 0
M  V30 3324 H 301.129 6.76881 -0.548539 0
M  V30 3325 H 299.075 6.34764 1.6556 0
M  V30 3326 H 298.992 7.54892 0.40908 0
M  V30 3327 H 300.26 7.62997 1.59549 0
M  V30 3328 N 304.489 0.459591 1.5075 0
M  V30 3329 C 305.905 0.113092 1.59199 0
M  V30 3330 C 306.105 -1.37951 1.46874 0
M  V30 3331 O 305.161 -2.15168 1.32132 0
M  V30 3332 C 306.474 0.653043 2.93523 0
M  V30 3333 C 308.022 0.615449 3.0689 0
M  V30 3334 C 308.497 1.13275 4.43771 0
M  V30 3335 N 309.988 1.09167 4.50152 0
M  V30 3336 C 310.723 1.46256 5.54434 0
M  V30 3337 N 310.219 1.90739 6.66026 0
M  V30 3338 N 312.012 1.37932 5.44914 0
M  V30 3339 H 304.163 1.43049 1.57005 0
M  V30 3340 H 306.426 0.590861 0.741341 0
M  V30 3341 H 306.132 1.69822 3.07983 0
M  V30 3342 H 306.006 0.0902132 3.77092 0
M  V30 3343 H 308.393 -0.420793 2.92084 0
M  V30 3344 H 308.474 1.21495 2.25106 0
M  V30 3345 H 308.118 2.16757 4.59324 0
M  V30 3346 H 308.048 0.509576 5.24129 0
M  V30 3347 H 310.539 0.76528 3.7007 0
M  V30 3348 H 310.852 2.17218 7.41644 0
M  V30 3349 H 309.197 1.94683 6.67176 0
M  V30 3350 H 312.388 1.0303 4.56621 0
M  V30 3351 H 312.561 1.67164 6.26067 0
M  V30 3352 N 305.967 -1.56429 0.191757 0
M  V30 3353 C 306.914 -2.18936 -0.730454 0
M  V30 3354 C 307.884 -1.13557 -1.21219 0
M  V30 3355 O 309.069 -1.41794 -1.27668 0
M  V30 3356 C 306.209 -2.85013 -1.9458 0
M  V30 3357 C 305.322 -4.04909 -1.50574 0
M  V30 3358 C 304.457 -4.58853 -2.67634 0
M  V30 3359 C 303.496 -5.71114 -2.20217 0
M  V30 3360 N 302.633 -6.19478 -3.30442 0
M  V30 3361 H 307.473 -2.97389 -0.190664 0
M  V30 3362 H 305.01 -1.46869 -0.0823694 0
M  V30 3363 H 306.968 -3.21492 -2.65893 0
M  V30 3364 H 305.598 -2.09129 -2.45896 0
M  V30 3365 H 304.65 -3.74115 -0.688605 0
M  V30 3366 H 305.962 -4.86113 -1.11784 0
M  V30 3367 H 305.116 -4.97619 -3.47074 0
M  V30 3368 H 303.855 -3.76749 -3.09696 0
M  V30 3369 H 302.86 -5.31879 -1.3923 0
M  V30 3370 H 304.085 -6.55033 -1.79189 0
M  V30 3371 H 302.031 -5.40297 -3.72041 0
M  V30 3372 H 301.948 -6.95725 -2.9581 0
M  V30 3373 H 303.216 -6.62898 -4.10106 0
M  V30 3374 N 307.445 0.0818655 -1.57387 0
M  V30 3375 C 308.694 0.781681 -1.85937 0
M  V30 3376 C 309.007 1.79246 -0.782957 0
M  V30 3377 O 310.213 2.54112 -0.955987 0
M  V30 3378 C 308.669 1.44109 -3.29789 0
M  V30 3379 C 308.277 0.469396 -4.45534 0
M  V30 3380 C 310.021 2.12386 -3.67549 0
M  V30 3381 C 307.928 1.13415 -5.80423 0
M  V30 3382 H 306.858 0.295682 -0.693605 0
M  V30 3383 H 309.509 0.0348051 -1.83467 0
M  V30 3384 H 307.891 2.23588 -3.2684 0
M  V30 3385 H 309.065 -0.294856 -4.59856 0
M  V30 3386 H 307.38 -0.108383 -4.16259 0
M  V30 3387 H 309.977 2.62878 -4.65617 0
M  V30 3388 H 310.32 2.91877 -2.96839 0
M  V30 3389 H 310.853 1.39751 -3.72444 0
M  V30 3390 H 307.592 0.379771 -6.54399 0
M  V30 3391 H 307.112 1.8695 -5.69921 0
M  V30 3392 H 308.791 1.65686 -6.25426 0
M  V30 3393 N 308.923 1.53595 0.353017 0
M  V30 3394 C 310.334 1.61937 0.929153 0
M  V30 3395 C 310.685 0.494686 1.89861 0
M  V30 3396 O 309.81 -0.377017 2.1309 0
M  V30 3397 C 310.405 2.93526 1.69199 0
M  V30 3398 C 308.964 3.04161 2.21727 0
M  V30 3399 C 308.111 2.57322 1.03348 0
M  V30 3400 H 311.062 1.58155 0.131431 0
M  V30 3401 H 311.083 2.82034 2.55416 0
M  V30 3402 H 310.595 3.75362 0.986144 0
M  V30 3403 H 308.696 2.26938 2.95516 0
M  V30 3404 H 308.809 4.09465 2.48748 0
M  V30 3405 H 307.173 2.12499 1.40414 0
M  V30 3406 H 307.956 3.41588 0.342428 0
M  V30 3407 N 310.401 -0.613514 1.45168 0
M  V30 3408 C 311.331 -1.7354 1.56225 0
M  V30 3409 C 312.312 -1.64981 0.41414 0
M  V30 3410 O 313.497 -1.83472 0.636526 0
M  V30 3411 C 310.627 -3.12128 1.52295 0
M  V30 3412 C 309.581 -3.35491 2.65762 0
M  V30 3413 C 308.907 -4.74291 2.46885 0
M  V30 3414 C 310.207 -3.26325 4.0781 0
M  V30 3415 H 311.901 -1.64543 2.50132 0
M  V30 3416 H 309.447 -0.790185 1.20383 0
M  V30 3417 H 311.4 -3.90404 1.58628 0
M  V30 3418 H 310.124 -3.2195 0.549139 0
M  V30 3419 H 308.783 -2.59603 2.58847 0
M  V30 3420 H 308.431 -4.80839 1.47657 0
M  V30 3421 H 308.131 -4.9088 3.22972 0
M  V30 3422 H 309.655 -5.54775 2.55063 0
M  V30 3423 H 311.069 -3.94483 4.16 0
M  V30 3424 H 309.466 -3.54445 4.8424 0
M  V30 3425 H 310.536 -2.23855 4.30136 0
M  V30 3426 N 311.879 -1.3236 -0.855495 0
M  V30 3427 C 312.812 -1.15559 -1.96777 0
M  V30 3428 C 313.79 -0.0552681 -1.62506 0
M  V30 3429 O 314.974 -0.214419 -1.87277 0
M  V30 3430 C 312.101 -0.768851 -3.29858 0
M  V30 3431 C 311.147 -1.87429 -3.83109 0
M  V30 3432 S 311.98 -3.48243 -4.06801 0
M  V30 3433 C 313.136 -3.11539 -5.42858 0
M  V30 3434 H 313.369 -2.09717 -2.10727 0
M  V30 3435 H 310.902 -1.17011 -1.00737 0
M  V30 3436 H 312.86 -0.55248 -4.06765 0
M  V30 3437 H 311.521 0.153857 -3.13723 0
M  V30 3438 H 310.714 -1.55667 -4.79358 0
M  V30 3439 H 310.316 -2.04647 -3.13042 0
M  V30 3440 H 312.608 -2.61331 -6.2507 0
M  V30 3441 H 313.551 -4.06806 -5.79582 0
M  V30 3442 H 313.959 -2.48582 -5.06821 0
M  V30 3443 N 313.357 1.07166 -1.15556 0
M  V30 3444 C 314.287 2.16403 -0.877046 0
M  V30 3445 C 315.268 1.69217 0.173111 0
M  V30 3446 O 316.453 1.94181 0.027084 0
M  V30 3447 C 313.583 3.45349 -0.367632 0
M  V30 3448 C 312.537 4.05995 -1.35468 0
M  V30 3449 C 311.863 5.30045 -0.704038 0
M  V30 3450 C 313.163 4.45804 -2.72132 0
M  V30 3451 H 314.857 2.39959 -1.79053 0
M  V30 3452 H 312.403 1.15325 -0.862331 0
M  V30 3453 H 314.356 4.21095 -0.160317 0
M  V30 3454 H 313.08 3.21385 0.581326 0
M  V30 3455 H 311.739 3.32296 -1.54839 0
M  V30 3456 H 311.387 5.02373 0.251128 0
M  V30 3457 H 311.087 5.71579 -1.36277 0
M  V30 3458 H 312.611 6.08495 -0.50654 0
M  V30 3459 H 314.025 5.12671 -2.56595 0
M  V30 3460 H 312.422 4.98296 -3.34397 0
M  V30 3461 H 313.492 3.57083 -3.28054 0
M  V30 3462 N 314.835 0.952656 1.25548 0
M  V30 3463 C 315.783 0.462354 2.27958 0
M  V30 3464 C 316.777 -0.46634 1.62855 0
M  V30 3465 O 317.983 -0.343287 1.76696 0
M  V30 3466 H 314.358 0.13101 0.7405 0
M  V30 3467 H 316.329 1.33839 2.66702 0
M  V30 3468 C 315.078 -0.24628 3.46827 0
M  V30 3469 H 314.401 0.459192 3.97154 0
M  V30 3470 H 315.841 -0.553393 4.20373 0
M  V30 3471 C 314.3 -1.4681 3.0323 0
M  V30 3472 O 314.83 -2.56591 3.09069 0
M  V30 3473 N 313.036 -1.32874 2.58443 0
M  V30 3474 H 312.583 -0.435536 2.53891 0
M  V30 3475 H 312.541 -2.14742 2.29637 0
M  V30 3476 N 316.313 -1.40141 0.720998 0
M  V30 3477 C 317.59 -1.94677 0.189757 0
M  V30 3478 C 317.97 -1.65879 -1.30566 0
M  V30 3479 O 317.318 -0.979391 -2.06447 0
M  V30 3480 C 317.528 -3.45279 0.508304 0
M  V30 3481 C 318.876 -4.22209 0.449934 0
M  V30 3482 O 319.9 -3.53413 0.444677 0
M  V30 3483 O 318.759 -5.44788 0.432189 0
M  V30 3484 H 315.853 -0.826459 0.0299026 0
M  V30 3485 H 318.399 -1.49719 0.7989 0
M  V30 3486 H 317.171 -3.59619 1.54239 0
M  V30 3487 H 316.794 -3.97386 -0.130525 0
M  V30 3488 N 317.792 -0.46758 -1.50504 0
M  V30 3489 C 319.017 0.0886943 -2.0721 0
M  V30 3490 C 319.442 1.33057 -1.32956 0
M  V30 3491 O 318.8 1.77354 -0.376197 0
M  V30 3492 C 318.848 0.359202 -3.58806 0
M  V30 3493 O 317.952 1.44034 -3.8643 0
M  V30 3494 H 317.293 -0.0114349 -0.663902 0
M  V30 3495 H 319.823 -0.657613 -1.93744 0
M  V30 3496 H 319.833 0.600742 -4.03553 0
M  V30 3497 H 318.508 -0.548311 -4.1227 0
M  V30 3498 H 317.085 1.18638 -3.53524 0
M  V30 3499 N 319.27 1.56325 -0.20005 0
M  V30 3500 C 320.518 1.97329 0.436547 0
M  V30 3501 C 320.839 1.08826 1.61808 0
M  V30 3502 O 320.109 0.160604 1.95241 0
M  V30 3503 H 318.689 0.728714 0.164272 0
M  V30 3504 H 321.351 1.92761 -0.287937 0
M  V30 3505 H 320.447 3.02264 0.777353 0
M  V30 3506 N 320.748 -0.0735177 1.57428 0
M  V30 3507 C 321.973 -0.789787 1.91774 0
M  V30 3508 C 322.398 -1.70413 0.796306 0
M  V30 3509 O 321.756 -1.79555 -0.250961 0
M  V30 3510 C 321.804 -1.5609 3.25067 0
M  V30 3511 O 320.908 -2.67144 3.14178 0
M  V30 3512 H 320.249 -0.215582 0.628029 0
M  V30 3513 H 322.779 -0.0422781 2.04556 0
M  V30 3514 H 322.789 -1.94052 3.58898 0
M  V30 3515 H 321.464 -0.890015 4.06265 0
M  V30 3516 H 320.041 -2.32052 2.91901 0
M  V30 3517 N 322.226 -1.5378 -0.344866 0
M  V30 3518 C 323.189 -1.80981 -1.40637 0
M  V30 3519 C 324.189 -0.680816 -1.45676 0
M  V30 3520 O 325.379 -0.949095 -1.46075 0
M  V30 3521 C 322.511 -1.95063 -2.79577 0
M  V30 3522 H 323.704 -2.75803 -1.17783 0
M  V30 3523 H 321.257 -1.45173 -0.579181 0
M  V30 3524 H 321.992 -1.02379 -3.07716 0
M  V30 3525 H 321.777 -2.77198 -2.77315 0
M  V30 3526 H 323.267 -2.17629 -3.56409 0
M  V30 3527 N 323.704 0.605807 -1.45491 0
M  V30 3528 C 324.654 1.71074 -1.50724 0
M  V30 3529 C 325.638 1.5658 -0.37033 0
M  V30 3530 O 326.83 1.65887 -0.617299 0
M  V30 3531 C 323.959 3.0983 -1.47852 0
M  V30 3532 C 323.045 3.29704 -2.66751 0
M  V30 3533 N 323.436 3.19831 -3.91844 0
M  V30 3534 C 321.734 3.60579 -2.62486 0
M  V30 3535 C 322.435 3.41083 -4.71208 0
M  V30 3536 N 321.411 3.65157 -4.02693 0
M  V30 3537 H 325.213 1.61937 -2.45263 0
M  V30 3538 H 322.727 0.80912 -1.40808 0
M  V30 3539 H 324.724 3.89101 -1.49686 0
M  V30 3540 H 323.384 3.20115 -0.543714 0
M  V30 3541 H 324.395 2.98194 -4.23439 0
M  V30 3542 H 321.072 3.7769 -1.77922 0
M  V30 3543 H 322.462 3.38828 -5.80211 0
M  V30 3544 N 325.182 1.32811 0.848464 0
M  V30 3545 C 326.407 1.26882 1.6406 0
M  V30 3546 C 326.832 -0.15913 1.87426 0
M  V30 3547 O 326.19 -1.11258 1.43148 0
M  V30 3548 C 326.238 2.03997 2.97351 0
M  V30 3549 O 325.342 1.39201 3.88197 0
M  V30 3550 H 324.683 0.436982 0.499943 0
M  V30 3551 H 327.213 1.75224 1.0563 0
M  V30 3552 H 327.223 2.14403 3.47124 0
M  V30 3553 H 325.898 3.0783 2.79666 0
M  V30 3554 H 324.475 1.37381 3.46671 0
M  V30 3555 N 326.66 -1.06551 1.16123 0
M  V30 3556 C 327.593 -2.13382 0.80892 0
M  V30 3557 C 328.571 -1.61128 -0.21827 0
M  V30 3558 O 329.755 -1.88219 -0.102952 0
M  V30 3559 C 326.882 -3.38083 0.204303 0
M  V30 3560 C 325.928 -4.09133 1.20469 0
M  V30 3561 S 326.761 -4.5948 2.75024 0
M  V30 3562 C 327.917 -5.87446 2.16005 0
M  V30 3563 H 328.15 -2.42937 1.71373 0
M  V30 3564 H 325.683 -1.18947 0.984428 0
M  V30 3565 H 327.641 -4.10268 -0.138081 0
M  V30 3566 H 326.302 -3.0669 -0.678234 0
M  V30 3567 H 325.495 -4.98685 0.730019 0
M  V30 3568 H 325.097 -3.4295 1.49202 0
M  V30 3569 H 327.389 -6.60065 1.5271 0
M  V30 3570 H 328.332 -6.39639 3.03756 0
M  V30 3571 H 328.74 -5.41354 1.59989 0
M  V30 3572 N 328.138 -0.959301 -1.25041 0
M  V30 3573 C 329.549 -0.65667 -1.74771 0
M  V30 3574 C 329.9 0.827852 -1.77879 0
M  V30 3575 O 329.025 1.64783 -1.40269 0
M  V30 3576 C 329.62 -1.1853 -3.1739 0
M  V30 3577 C 328.179 -0.932734 -3.6466 0
M  V30 3578 C 327.326 -1.32558 -2.43564 0
M  V30 3579 H 330.277 -1.13558 -1.10862 0
M  V30 3580 H 330.298 -0.547582 -3.76539 0
M  V30 3581 H 329.81 -2.26576 -3.15095 0
M  V30 3582 H 327.911 0.13257 -3.72364 0
M  V30 3583 H 328.024 -1.57248 -4.52559 0
M  V30 3584 H 326.388 -0.743956 -2.43593 0
M  V30 3585 H 327.171 -2.41537 -2.43957 0
M  V30 3586 N 329.616 1.39756 -0.72842 0
M  V30 3587 C 330.563 2.30647 -0.0841519 0
M  V30 3588 C 331.533 1.48869 0.7367 0
M  V30 3589 O 332.718 1.77574 0.698015 0
M  V30 3590 C 329.858 3.35165 0.822091 0
M  V30 3591 C 328.971 4.31999 -0.0106663 0
M  V30 3592 C 328.106 5.23585 0.896241 0
M  V30 3593 C 327.145 6.12072 0.0583381 0
M  V30 3594 N 326.282 6.96035 0.920818 0
M  V30 3595 H 331.122 2.85173 -0.864891 0
M  V30 3596 H 328.659 1.40422 -0.438179 0
M  V30 3597 H 330.617 3.94345 1.36189 0
M  V30 3598 H 329.247 2.8211 1.56888 0
M  V30 3599 H 328.299 3.74492 -0.66781 0
M  V30 3600 H 329.611 4.9443 -0.658825 0
M  V30 3601 H 328.765 5.87759 1.50412 0
M  V30 3602 H 327.504 4.61459 1.57819 0
M  V30 3603 H 326.509 5.46916 -0.562389 0
M  V30 3604 H 327.734 6.76261 -0.6203 0
M  V30 3605 H 325.68 6.36485 1.58818 0
M  V30 3606 H 325.597 7.55284 0.32899 0
M  V30 3607 H 326.865 7.64646 1.51447 0
M  V30 3608 N 331.094 0.475555 1.50254 0
M  V30 3609 C 332.324 -0.0753399 2.06463 0
M  V30 3610 C 332.732 -1.33661 1.33908 0
M  V30 3611 O 332.075 -1.79219 0.403257 0
M  V30 3612 C 332.137 -0.424921 3.5698 0
M  V30 3613 C 331.801 0.734965 4.51051 0
M  V30 3614 C 332.798 1.61827 4.94073 0
M  V30 3615 C 330.483 0.926557 4.9368 0
M  V30 3616 C 332.477 2.67754 5.78434 0
M  V30 3617 C 330.164 1.98904 5.77824 0
M  V30 3618 C 331.162 2.8629 6.20103 0
M  V30 3619 O 330.85 3.90708 7.02568 0
M  V30 3620 H 330.582 0.00576308 0.675975 0
M  V30 3621 H 333.136 0.664662 1.94349 0
M  V30 3622 H 331.366 -1.21817 3.67012 0
M  V30 3623 H 333.055 -0.911422 3.95535 0
M  V30 3624 H 333.821 1.48196 4.61804 0
M  V30 3625 H 329.7 0.25584 4.6029 0
M  V30 3626 H 333.244 3.35992 6.11355 0
M  V30 3627 H 329.141 2.12541 6.09505 0
M  V30 3628 H 329.909 3.87751 7.20827 0
M  V30 3629 N 332.573 -1.56217 0.208337 0
M  V30 3630 C 333.798 -2.02782 -0.435222 0
M  V30 3631 C 334.223 -1.08738 -1.53485 0
M  V30 3632 O 333.581 -0.0731855 -1.81152 0
M  V30 3633 C 333.629 -3.47687 -0.956335 0
M  V30 3634 O 332.733 -3.56773 -2.06849 0
M  V30 3635 H 332.074 -0.656403 -0.100158 0
M  V30 3636 H 334.604 -2.02033 0.3231 0
M  V30 3637 H 334.614 -3.87745 -1.26955 0
M  V30 3638 H 333.289 -4.15624 -0.15143 0
M  V30 3639 H 331.866 -3.28597 -1.76292 0
M  V30 3640 N 334.051 0.0651679 -1.57465 0
M  V30 3641 C 335.467 0.420105 -1.53972 0
M  V30 3642 C 335.667 1.78782 -0.929474 0
M  V30 3643 O 334.723 2.46771 -0.534839 0
M  V30 3644 C 336.036 0.355084 -2.98596 0
M  V30 3645 C 337.584 0.434792 -3.09965 0
M  V30 3646 C 338.059 0.399609 -4.56253 0
M  V30 3647 N 339.55 0.459488 -4.60915 0
M  V30 3648 C 340.285 0.454584 -5.71595 0
M  V30 3649 N 339.781 0.404102 -6.9162 0
M  V30 3650 N 341.574 0.501635 -5.59857 0
M  V30 3651 H 333.725 -0.830328 -1.95498 0
M  V30 3652 H 335.988 -0.312244 -0.895102 0
M  V30 3653 H 335.694 -0.583357 -3.46828 0
M  V30 3654 H 335.568 1.16275 -3.58831 0
M  V30 3655 H 337.955 1.36366 -2.61703 0
M  V30 3656 H 338.036 -0.40157 -2.52628 0
M  V30 3657 H 337.68 -0.525436 -5.05175 0
M  V30 3658 H 337.61 1.25359 -5.11461 0
M  V30 3659 H 340.101 0.502482 -3.74544 0
M  V30 3660 H 340.414 0.404468 -7.71741 0
M  V30 3661 H 338.759 0.37069 -6.94011 0
M  V30 3662 H 341.95 0.538812 -4.64989 0
M  V30 3663 H 342.123 0.494345 -6.46112 0
M  V30 3664 N 335.529 1.53961 0.336706 0
M  V30 3665 C 336.461 1.78751 1.4346 0
M  V30 3666 C 337.474 0.669019 1.48418 0
M  V30 3667 O 338.663 0.945884 1.51378 0
M  V30 3668 C 335.763 1.87844 2.82078 0
M  V30 3669 C 334.936 3.17854 3.00479 0
M  V30 3670 C 333.995 3.17816 4.19379 0
M  V30 3671 O 333.021 3.91511 4.13168 0
M  V30 3672 N 334.223 2.40669 5.2826 0
M  V30 3673 H 336.988 2.73493 1.22563 0
M  V30 3674 H 334.549 1.53096 0.526625 0
M  V30 3675 H 336.541 1.85261 3.59806 0
M  V30 3676 H 335.111 1.00257 2.96086 0
M  V30 3677 H 334.331 3.33504 2.10163 0
M  V30 3678 H 335.619 4.03718 3.0966 0
M  V30 3679 H 335.017 1.8036 5.36178 0
M  V30 3680 H 333.574 2.43877 6.04456 0
M  V30 3681 N 337.007 -0.598083 1.45811 0
M  V30 3682 C 338.254 -1.35681 1.50323 0
M  V30 3683 C 338.582 -1.9393 0.148739 0
M  V30 3684 O 337.837 -1.76094 -0.853787 0
M  V30 3685 C 338.136 -2.51669 2.53766 0
M  V30 3686 C 337.802 -2.11508 3.98215 0
M  V30 3687 C 336.464 -2.0027 4.37545 0
M  V30 3688 C 338.816 -1.80308 4.89018 0
M  V30 3689 C 336.144 -1.56067 5.65562 0
M  V30 3690 C 338.496 -1.37589 6.17456 0
M  V30 3691 C 337.16 -1.24916 6.55708 0
M  V30 3692 H 336.43 -0.496492 0.550069 0
M  V30 3693 H 339.077 -0.675052 1.79207 0
M  V30 3694 H 337.382 -3.25225 2.18486 0
M  V30 3695 H 339.079 -3.09895 2.54492 0
M  V30 3696 H 335.669 -2.21185 3.67117 0
M  V30 3697 H 339.853 -1.87884 4.59362 0
M  V30 3698 H 335.109 -1.44886 5.93985 0
M  V30 3699 H 339.283 -1.12495 6.87254 0
M  V30 3700 H 336.91 -0.904386 7.54801 0
M  V30 3701 N 338.485 -1.33259 -0.841409 0
M  V30 3702 C 339.71 -1.2775 -1.63385 0
M  V30 3703 C 340.135 0.149188 -1.87507 0
M  V30 3704 O 339.493 1.10498 -1.43736 0
M  V30 3705 C 339.541 -2.05571 -2.96265 0
M  V30 3706 O 338.645 -1.41257 -3.87453 0
M  V30 3707 H 337.986 -0.439627 -0.497618 0
M  V30 3708 H 340.516 -1.75782 -1.04699 0
M  V30 3709 H 340.526 -2.16241 -3.45982 0
M  V30 3710 H 339.201 -3.09309 -2.7803 0
M  V30 3711 H 337.778 -1.39217 -3.45938 0
M  V30 3712 N 339.963 1.05934 -1.16686 0
M  V30 3713 C 340.893 2.1546 -0.899949 0
M  V30 3714 C 341.874 1.69391 0.155154 0
M  V30 3715 O 343.059 1.94199 0.00648693 0
M  V30 3716 C 340.189 3.44939 -0.404241 0
M  V30 3717 C 339.143 4.04536 -1.39767 0
M  V30 3718 C 338.469 5.29268 -0.760216 0
M  V30 3719 C 339.769 4.42893 -2.76845 0
M  V30 3720 H 341.463 2.38046 -1.81588 0
M  V30 3721 H 339.009 1.14404 -0.874514 0
M  V30 3722 H 340.962 4.20901 -0.204971 0
M  V30 3723 H 339.686 3.21983 0.547206 0
M  V30 3724 H 338.345 3.30635 -1.58355 0
M  V30 3725 H 337.993 5.02611 0.197831 0
M  V30 3726 H 337.693 5.70101 -1.42332 0
M  V30 3727 H 339.217 6.07924 -0.57105 0
M  V30 3728 H 340.631 5.09921 -2.62019 0
M  V30 3729 H 339.028 4.94721 -3.39663 0
M  V30 3730 H 340.098 3.53584 -3.31823 0
M  V30 3731 N 341.441 0.965919 1.2453 0
M  V30 3732 C 342.351 0.502154 2.29163 0
M  V30 3733 C 343.367 -0.436017 1.68448 0
M  V30 3734 O 344.543 -0.309497 1.99008 0
M  V30 3735 C 341.608 -0.201956 3.46111 0
M  V30 3736 C 340.669 0.775821 4.22232 0
M  V30 3737 C 339.902 0.105217 5.33596 0
M  V30 3738 O 340.125 -1.10683 5.59558 0
M  V30 3739 O 339.059 0.796475 5.96607 0
M  V30 3740 H 342.885 1.37194 2.70946 0
M  V30 3741 H 340.47 0.732875 1.30189 0
M  V30 3742 H 342.352 -0.597564 4.17142 0
M  V30 3743 H 341.027 -1.04673 3.06309 0
M  V30 3744 H 339.934 1.22185 3.53584 0
M  V30 3745 H 341.267 1.58896 4.65846 0
M  V30 3746 N 342.919 -1.39368 0.735821 0
M  V30 3747 C 343.869 -2.27885 0.0724287 0
M  V30 3748 C 344.853 -1.44301 -0.711756 0
M  V30 3749 O 346.045 -1.67206 -0.58063 0
M  V30 3750 C 343.174 -3.33029 -0.833454 0
M  V30 3751 C 342.26 -4.24078 -0.0433749 0
M  V30 3752 N 342.651 -4.96138 0.983903 0
M  V30 3753 C 340.949 -4.45164 -0.272905 0
M  V30 3754 C 341.65 -5.63069 1.4604 0
M  V30 3755 N 340.626 -5.37991 0.778857 0
M  V30 3756 H 344.428 -2.81052 0.859467 0
M  V30 3757 H 341.942 -1.5206 0.570227 0
M  V30 3758 H 343.939 -3.95311 -1.32419 0
M  V30 3759 H 342.599 -2.81421 -1.61964 0
M  V30 3760 H 343.61 -4.9958 1.36528 0
M  V30 3761 H 340.287 -4.04497 -1.03383 0
M  V30 3762 H 341.677 -6.30755 2.31511 0
M  V30 3763 N 344.397 -0.483516 -1.5 0
M  V30 3764 C 345.643 0.0672592 -2.02688 0
M  V30 3765 C 345.976 1.38247 -1.36387 0
M  V30 3766 O 345.251 1.88131 -0.493675 0
M  V30 3767 C 345.534 0.238109 -3.59312 0
M  V30 3768 C 345.387 -1.099 -4.36168 0
M  V30 3769 C 346.706 0.986916 -4.28892 0
M  V30 3770 H 343.825 0.0229696 -0.736642 0
M  V30 3771 H 346.467 -0.631527 -1.79197 0
M  V30 3772 H 344.617 0.8333 -3.79458 0
M  V30 3773 H 346.289 -1.73172 -4.27562 0
M  V30 3774 H 344.532 -1.69261 -3.99416 0
M  V30 3775 H 345.203 -0.932954 -5.44059 0
M  V30 3776 H 347.679 0.482302 -4.13295 0
M  V30 3777 H 346.555 1.07527 -5.38265 0
M  V30 3778 H 346.816 2.0265 -3.92919 0
M  V30 3779 N 345.875 1.56104 -0.216619 0
M  V30 3780 C 346.825 2.16703 0.708798 0
M  V30 3781 C 347.809 1.11392 1.16106 0
M  V30 3782 O 349.001 1.37395 1.11587 0
M  V30 3783 C 346.13 2.84666 1.91886 0
M  V30 3784 C 345.216 3.97195 1.48651 0
M  V30 3785 N 345.607 4.99959 0.766434 0
M  V30 3786 C 343.905 4.09193 1.77418 0
M  V30 3787 C 344.606 5.79126 0.546659 0
M  V30 3788 N 343.582 5.32315 1.10188 0
M  V30 3789 H 347.384 2.93516 0.150162 0
M  V30 3790 H 344.898 1.6239 -0.0176768 0
M  V30 3791 H 346.895 3.26486 2.59253 0
M  V30 3792 H 345.555 2.09347 2.48202 0
M  V30 3793 H 346.566 5.16197 0.419634 0
M  V30 3794 H 343.243 3.45021 2.35088 0
M  V30 3795 H 344.633 6.71895 -0.026103 0
M  V30 3796 N 347.353 -0.0568162 1.57498 0
M  V30 3797 C 348.601 -0.751617 1.87604 0
M  V30 3798 C 348.922 -1.77351 0.81066 0
M  V30 3799 O 348.192 -1.95254 -0.159018 0
M  V30 3800 H 346.772 -0.280583 0.692302 0
M  V30 3801 H 349.434 -0.0293483 1.94878 0
M  V30 3802 H 348.53 -1.25852 2.856 0
M  V30 3803 N 348.832 -1.54138 -0.328536 0
M  V30 3804 C 350.057 -1.76378 -1.09112 0
M  V30 3805 C 350.482 -0.508596 -1.81094 0
M  V30 3806 O 349.84 0.539598 -1.73084 0
M  V30 3807 C 349.888 -2.95358 -2.06872 0
M  V30 3808 O 348.992 -2.66556 -3.14677 0
M  V30 3809 H 348.333 -0.584614 -0.314838 0
M  V30 3810 H 350.863 -2.01146 -0.374348 0
M  V30 3811 H 350.873 -3.22566 -2.4983 0
M  V30 3812 H 349.548 -3.86385 -1.5388 0
M  V30 3813 H 348.125 -2.50282 -2.7643 0
M  V30 3814 N 350.31 0.590341 -1.46126 0
M  V30 3815 C 351.558 1.34616 -1.50742 0
M  V30 3816 C 351.879 1.94363 -0.157486 0
M  V30 3817 O 351.149 1.78136 0.815136 0
M  V30 3818 H 349.729 0.499789 -0.555175 0
M  V30 3819 H 352.391 0.691953 -1.82203 0
M  V30 3820 H 351.487 2.15678 -2.25587 0
M  V30 3821 N 351.788 1.33704 0.83433 0
M  V30 3822 C 353.199 1.22813 1.4062 0
M  V30 3823 C 353.55 -0.151107 1.95617 0
M  V30 3824 O 352.675 -1.05092 1.89168 0
M  V30 3825 C 353.27 2.22355 2.55624 0
M  V30 3826 C 351.829 2.1529 3.08751 0
M  V30 3827 C 350.976 2.09589 1.8157 0
M  V30 3828 H 353.927 1.45236 0.639702 0
M  V30 3829 H 353.948 1.83391 3.33389 0
M  V30 3830 H 353.46 3.22728 2.15566 0
M  V30 3831 H 351.561 1.18235 3.53343 0
M  V30 3832 H 351.674 3.06038 3.68616 0
M  V30 3833 H 350.038 1.55134 2.02004 0
M  V30 3834 H 350.821 3.11777 1.43701 0
M  V30 3835 N 353.266 -1.05314 1.17247 0
M  V30 3836 C 354.496 -1.81707 0.983166 0
M  V30 3837 C 354.904 -1.83222 -0.471822 0
M  V30 3838 O 354.247 -1.25721 -1.3394 0
M  V30 3839 C 354.309 -3.29134 1.44606 0
M  V30 3840 C 353.973 -3.51304 2.92292 0
M  V30 3841 C 354.97 -3.4353 3.90235 0
M  V30 3842 C 352.655 -3.78306 3.30439 0
M  V30 3843 C 354.649 -3.62442 5.24323 0
M  V30 3844 C 352.336 -3.96866 4.64694 0
M  V30 3845 C 353.334 -3.88933 5.61445 0
M  V30 3846 O 353.022 -4.06976 6.93272 0
M  V30 3847 H 352.754 -0.579476 0.348114 0
M  V30 3848 H 355.308 -1.33705 1.55924 0
M  V30 3849 H 353.538 -3.78046 0.813537 0
M  V30 3850 H 355.227 -3.87049 1.22262 0
M  V30 3851 H 355.993 -3.22648 3.62109 0
M  V30 3852 H 351.872 -3.83585 2.55702 0
M  V30 3853 H 355.416 -3.56165 5.99827 0
M  V30 3854 H 351.313 -4.1724 4.92525 0
M  V30 3855 H 352.081 -4.24209 6.99992 0
M  V30 3856 N 354.744 -0.972509 -1.24016 0
M  V30 3857 C 355.969 -0.654417 -1.96805 0
M  V30 3858 C 356.394 0.770398 -1.716 0
M  V30 3859 O 355.752 1.52361 -0.982647 0
M  V30 3860 C 355.8 -0.941031 -3.48105 0
M  V30 3861 O 354.904 -0.0289472 -4.1239 0
M  V30 3862 H 354.245 -0.24692 -0.616382 0
M  V30 3863 H 356.775 -1.30396 -1.57664 0
M  V30 3864 H 356.785 -0.87452 -3.98517 0
M  V30 3865 H 355.46 -1.97939 -3.65777 0
M  V30 3866 H 354.037 -0.149192 -3.72601 0
M  V30 3867 N 356.222 1.38976 -0.743202 0
M  V30 3868 C 357.185 2.28901 -0.117014 0
M  V30 3869 C 358.185 1.46698 0.658503 0
M  V30 3870 O 359.375 1.67274 0.486305 0
M  V30 3871 C 356.507 3.30309 0.84315 0
M  V30 3872 H 357.7 2.8578 -0.909373 0
M  V30 3873 H 355.253 1.47761 -0.509547 0
M  V30 3874 H 355.988 2.785 1.66157 0
M  V30 3875 H 355.773 3.91029 0.289594 0
M  V30 3876 H 357.263 3.97577 1.2776 0
M  V30 3877 N 357.7 0.491464 1.49741 0
M  V30 3878 C 359.111 0.0413169 1.86654 0
M  V30 3879 C 359.462 -1.36985 1.40462 0
M  V30 3880 O 358.587 -2.01917 0.778354 0
M  V30 3881 C 359.182 0.0682023 3.38731 0
M  V30 3882 C 357.741 -0.32656 3.74981 0
M  V30 3883 C 356.888 0.444888 2.73708 0
M  V30 3884 H 359.839 0.704733 1.42194 0
M  V30 3885 H 359.86 -0.729322 3.73445 0
M  V30 3886 H 359.372 1.09539 3.72321 0
M  V30 3887 H 357.473 -1.35734 3.46997 0
M  V30 3888 H 357.586 -0.013741 4.79098 0
M  V30 3889 H 355.95 -0.104062 2.54487 0
M  V30 3890 H 356.733 1.47197 3.10142 0
M  V30 3891 N 359.178 -1.55987 0.224894 0
M  V30 3892 C 360.403 -2.03232 -0.41369 0
M  V30 3893 C 360.828 -1.10359 -1.52323 0
M  V30 3894 O 360.186 -0.092395 -1.81064 0
M  V30 3895 C 360.234 -3.48682 -0.919405 0
M  V30 3896 O 359.338 -3.58947 -2.03054 0
M  V30 3897 H 358.679 -0.657428 -0.0931903 0
M  V30 3898 H 361.209 -2.01679 0.34451 0
M  V30 3899 H 361.219 -3.8907 -1.22835 0
M  V30 3900 H 359.894 -4.15761 -0.107339 0
M  V30 3901 H 358.471 -3.30448 -1.72796 0
M  V30 3902 N 360.656 0.0484629 -1.57525 0
M  V30 3903 C 362.067 0.597486 -1.76881 0
M  V30 3904 C 362.418 1.76664 -0.853475 0
M  V30 3905 O 361.543 2.16357 -0.0433656 0
M  V30 3906 C 362.138 1.09066 -3.20765 0
M  V30 3907 C 360.697 1.58535 -3.41385 0
M  V30 3908 C 359.844 0.514868 -2.72478 0
M  V30 3909 H 362.795 -0.177758 -1.57701 0
M  V30 3910 H 362.816 1.95875 -3.2621 0
M  V30 3911 H 362.328 0.239521 -3.8736 0
M  V30 3912 H 360.429 2.45898 -2.79937 0
M  V30 3913 H 360.542 1.64622 -4.49929 0
M  V30 3914 H 358.906 0.965407 -2.35695 0
M  V30 3915 H 359.689 -0.32648 -3.41744 0
M  V30 3916 N 362.134 1.5431 0.320358 0
M  V30 3917 C 363.097 1.83195 1.3774 0
M  V30 3918 C 364.097 0.703906 1.44575 0
M  V30 3919 O 365.287 0.972214 1.44546 0
M  V30 3920 C 362.419 1.99487 2.76438 0
M  V30 3921 H 363.612 2.77642 1.1338 0
M  V30 3922 H 361.165 1.46076 0.556012 0
M  V30 3923 H 361.9 1.07262 3.06048 0
M  V30 3924 H 361.685 2.81575 2.7287 0
M  V30 3925 H 363.175 2.23271 3.52902 0
M  V30 3926 N 363.613 -0.582584 1.46437 0
M  V30 3927 C 364.843 -1.36484 1.55099 0
M  V30 3928 C 365.251 -1.88233 0.191056 0
M  V30 3929 O 364.594 -1.6429 -0.821858 0
M  V30 3930 C 364.656 -2.588 2.49525 0
M  V30 3931 C 364.32 -2.28517 3.95764 0
M  V30 3932 C 365.317 -1.87346 4.84972 0
M  V30 3933 C 363.002 -2.40658 4.40896 0
M  V30 3934 C 364.996 -1.5871 6.17325 0
M  V30 3935 C 362.683 -2.11635 5.73284 0
M  V30 3936 C 363.681 -1.70725 6.61318 0
M  V30 3937 O 363.369 -1.42057 7.91249 0
M  V30 3938 H 363.101 -0.423297 0.527063 0
M  V30 3939 H 365.655 -0.715188 1.92547 0
M  V30 3940 H 363.885 -3.26571 2.07095 0
M  V30 3941 H 365.574 -3.20868 2.48593 0
M  V30 3942 H 366.34 -1.77481 4.5136 0
M  V30 3943 H 362.219 -2.71463 3.72598 0
M  V30 3944 H 365.763 -1.26704 6.85997 0
M  V30 3945 H 361.66 -2.21124 6.06444 0
M  V30 3946 H 362.428 -1.55901 8.03515 0
M  V30 3947 N 365.091 -1.34144 -0.827227 0
M  V30 3948 C 366.316 -1.29476 -1.62021 0
M  V30 3949 C 366.741 0.129292 -1.87655 0
M  V30 3950 O 366.099 1.08967 -1.449 0
M  V30 3951 C 366.147 -2.08702 -2.94068 0
M  V30 3952 O 365.251 -1.45359 -3.85933 0
M  V30 3953 H 364.592 -0.444881 -0.492927 0
M  V30 3954 H 367.122 -1.76882 -1.02829 0
M  V30 3955 H 367.132 -2.19898 -3.43669 0
M  V30 3956 H 365.807 -3.12241 -2.74734 0
M  V30 3957 H 364.384 -1.42879 -3.44442 0
M  V30 3958 N 366.569 1.04691 -1.17803 0
M  V30 3959 C 367.794 1.81984 -0.994813 0
M  V30 3960 C 368.219 1.82586 0.452112 0
M  V30 3961 O 367.577 1.23854 1.324 0
M  V30 3962 C 367.625 3.2575 -1.54659 0
M  V30 3963 O 366.729 4.05267 -0.763728 0
M  V30 3964 H 366.07 0.562483 -0.352857 0
M  V30 3965 H 368.6 1.3189 -1.56417 0
M  V30 3966 H 368.61 3.76541 -1.57102 0
M  V30 3967 H 367.285 3.24627 -2.59981 0
M  V30 3968 H 365.862 3.63972 -0.811108 0
M  V30 3969 N 368.047 0.979072 1.23499 0
M  V30 3970 C 369.272 0.664845 1.96455 0
M  V30 3971 C 369.697 -0.761287 1.72006 0
M  V30 3972 O 369.055 -1.51837 0.990713 0
M  V30 3973 C 369.103 0.959479 3.47601 0
M  V30 3974 O 368.207 0.0508168 4.12369 0
M  V30 3975 H 367.548 0.250185 0.615064 0
M  V30 3976 H 370.078 1.31231 1.5697 0
M  V30 3977 H 370.088 0.895642 3.98048 0
M  V30 3978 H 368.763 1.99876 3.64723 0
M  V30 3979 H 367.34 0.16895 3.72517 0
M  V30 3980 N 369.525 -1.3858 0.750561 0
M  V30 3981 C 370.75 -2.04997 0.314812 0
M  V30 3982 C 371.175 -1.56235 -1.04749 0
M  V30 3983 O 370.533 -0.712981 -1.66692 0
M  V30 3984 C 370.581 -3.58961 0.343415 0
M  V30 3985 O 369.685 -4.07025 -0.663628 0
M  V30 3986 H 369.026 -0.649081 0.139962 0
M  V30 3987 H 371.556 -1.77313 1.02084 0
M  V30 3988 H 371.566 -4.07542 0.193233 0
M  V30 3989 H 370.241 -3.93811 1.33738 0
M  V30 3990 H 368.818 -3.6982 -0.478307 0
M  V30 3991 N 371.003 -0.499398 -1.49478 0
M  V30 3992 C 371.933 0.269244 -2.31943 0
M  V30 3993 C 372.914 0.964054 -1.40143 0
M  V30 3994 O 374.099 0.955767 -1.69052 0
M  V30 3995 C 371.229 1.33504 -3.20615 0
M  V30 3996 C 370.183 0.760202 -4.21195 0
M  V30 3997 C 369.509 1.9264 -4.98792 0
M  V30 3998 C 370.809 -0.247661 -5.21712 0
M  V30 3999 H 372.503 -0.419082 -2.96452 0
M  V30 4000 H 370.049 -0.202988 -1.42562 0
M  V30 4001 H 372.002 1.88048 -3.77115 0
M  V30 4002 H 370.726 2.05253 -2.54045 0
M  V30 4003 H 369.385 0.23653 -3.65836 0
M  V30 4004 H 369.033 2.63154 -4.28671 0
M  V30 4005 H 368.733 1.54785 -5.66847 0
M  V30 4006 H 370.257 2.4762 -5.58137 0
M  V30 4007 H 371.671 0.209579 -5.72917 0
M  V30 4008 H 370.068 -0.541962 -5.97648 0
M  V30 4009 H 371.138 -1.16409 -4.7072 0
M  V30 4010 N 372.481 1.55866 -0.233164 0
M  V30 4011 C 373.711 2.02704 0.399325 0
M  V30 4012 C 374.119 1.11204 1.53069 0
M  V30 4013 O 373.462 0.116182 1.83332 0
M  V30 4014 C 373.524 3.45844 0.981429 0
M  V30 4015 C 373.188 4.56997 -0.0159561 0
M  V30 4016 C 374.185 5.13384 -0.820552 0
M  V30 4017 C 371.87 5.0211 -0.138072 0
M  V30 4018 C 373.864 6.13365 -1.73386 0
M  V30 4019 C 371.551 6.01926 -1.0549 0
M  V30 4020 C 372.549 6.57431 -1.85132 0
M  V30 4021 O 372.237 7.55302 -2.75272 0
M  V30 4022 H 371.969 0.668459 0.100692 0
M  V30 4023 H 374.523 2.02387 -0.35052 0
M  V30 4024 H 372.753 3.43267 1.78058 0
M  V30 4025 H 374.442 3.76262 1.52255 0
M  V30 4026 H 375.208 4.79372 -0.736721 0
M  V30 4027 H 371.087 4.5858 0.471737 0
M  V30 4028 H 374.631 6.56614 -2.35592 0
M  V30 4029 H 370.528 6.35359 -1.1397 0
M  V30 4030 H 371.296 7.72867 -2.69477 0
M  V30 4031 N 373.959 -0.0401083 1.57549 0
M  V30 4032 C 374.922 -1.02871 2.04817 0
M  V30 4033 C 375.922 -1.29708 0.950388 0
M  V30 4034 O 377.112 -1.24897 1.21435 0
M  V30 4035 C 374.244 -2.36443 2.45576 0
M  V30 4036 H 375.437 -0.620631 2.93408 0
M  V30 4037 H 372.99 -0.286667 1.53649 0
M  V30 4038 H 373.725 -2.82021 1.60108 0
M  V30 4039 H 373.51 -2.18296 3.25713 0
M  V30 4040 H 375 -3.07441 2.82612 0
M  V30 4041 N 375.437 -1.54477 -0.31217 0
M  V30 4042 C 376.848 -1.64344 -0.885891 0
M  V30 4043 C 377.199 -0.54485 -1.88483 0
M  V30 4044 O 376.324 0.320387 -2.14015 0
M  V30 4045 C 376.919 -2.97908 -1.61357 0
M  V30 4046 C 375.478 -3.09933 -2.13585 0
M  V30 4047 C 374.625 -2.59971 -0.964897 0
M  V30 4048 H 377.576 -1.58448 -0.0894528 0
M  V30 4049 H 377.597 -2.88706 -2.47848 0
M  V30 4050 H 377.109 -3.77845 -0.886277 0
M  V30 4051 H 375.21 -2.34694 -2.89395 0
M  V30 4052 H 375.323 -4.15916 -2.37804 0
M  V30 4053 H 373.687 -2.16147 -1.34731 0
M  V30 4054 H 374.47 -3.42376 -0.251742 0
M  V30 4055 N 376.915 0.57481 -1.46744 0
M  V30 4056 C 378.192 1.3352 -1.4294 0
M  V30 4057 C 378.572 2.10775 -0.117009 0
M  V30 4058 O 377.92 2.09966 0.901474 0
M  V30 4059 C 378.13 2.25456 -2.66403 0
M  V30 4060 C 379.478 2.87035 -3.12883 0
M  V30 4061 O 380.502 2.35766 -2.67007 0
M  V30 4062 O 379.361 3.80179 -3.92589 0
M  V30 4063 H 376.455 0.600318 -0.568812 0
M  V30 4064 H 379.001 0.595171 -1.58921 0
M  V30 4065 H 377.773 1.67851 -3.53471 0
M  V30 4066 H 377.396 3.06785 -2.52921 0
M  V30 4067 N 378.394 1.34581 0.820102 0
M  V30 4068 C 379.357 1.2628 1.91275 0
M  V30 4069 C 380.357 0.177344 1.59819 0
M  V30 4070 O 381.547 0.430156 1.68806 0
M  V30 4071 C 378.679 0.950327 3.27386 0
M  V30 4072 H 379.872 2.23421 2.00057 0
M  V30 4073 H 377.425 1.1891 1.0144 0
M  V30 4074 H 378.16 -0.0177938 3.24295 0
M  V30 4075 H 377.945 1.73549 3.51601 0
M  V30 4076 H 379.435 0.917492 4.07396 0
M  V30 4077 N 379.872 -1.04064 1.18357 0
M  V30 4078 C 381.118 -1.77528 0.980397 0
M  V30 4079 C 381.451 -1.87948 -0.48879 0
M  V30 4080 O 380.726 -1.3876 -1.36293 0
M  V30 4081 C 381.009 -3.20797 1.63588 0
M  V30 4082 C 380.862 -3.1832 3.17793 0
M  V30 4083 C 382.181 -4.18911 1.34914 0
M  V30 4084 H 379.3 -0.644443 0.357578 0
M  V30 4085 H 381.942 -1.2156 1.46024 0
M  V30 4086 H 380.092 -3.68586 1.22788 0
M  V30 4087 H 381.764 -2.78521 3.67728 0
M  V30 4088 H 380.007 -2.56351 3.49952 0
M  V30 4089 H 380.678 -4.19489 3.58794 0
M  V30 4090 H 383.154 -3.7967 1.70265 0
M  V30 4091 H 382.03 -5.17374 1.83346 0
M  V30 4092 H 382.291 -4.41262 0.272027 0
M  V30 4093 N 381.35 -0.985608 -1.22978 0
M  V30 4094 C 382.313 -0.535071 -2.22867 0
M  V30 4095 C 383.313 0.378123 -1.56291 0
M  V30 4096 O 384.503 0.171092 -1.73358 0
M  V30 4097 C 381.635 0.222702 -3.40172 0
M  V30 4098 H 382.828 -1.41835 -2.6424 0
M  V30 4099 H 380.381 -0.772042 -1.35901 0
M  V30 4100 H 381.116 1.12229 -3.04262 0
M  V30 4101 H 380.901 -0.43288 -3.89703 0
M  V30 4102 H 382.391 0.526335 -4.1427 0
M  V30 4103 N 382.828 1.3818 -0.7579 0
M  V30 4104 C 384.053 2.04827 -0.325679 0
M  V30 4105 C 384.478 1.56788 1.03919 0
M  V30 4106 O 383.836 0.721811 1.66312 0
M  V30 4107 C 383.884 3.58774 -0.362447 0
M  V30 4108 O 382.988 4.07372 0.642033 0
M  V30 4109 H 382.329 0.64833 -0.143402 0
M  V30 4110 H 384.859 1.7677 -1.03023 0
M  V30 4111 H 384.869 4.07434 -0.214844 0
M  V30 4112 H 383.544 3.93096 -1.35824 0
M  V30 4113 H 382.121 3.70068 0.458688 0
M  V30 4114 N 384.306 0.507319 1.49211 0
M  V30 4115 C 385.531 -0.033725 2.07373 0
M  V30 4116 C 385.956 -1.29485 1.36437 0
M  V30 4117 O 385.314 -1.76294 0.423087 0
M  V30 4118 C 385.362 -0.263945 3.59633 0
M  V30 4119 O 384.466 -1.33737 3.90113 0
M  V30 4120 H 383.807 0.0290331 0.663365 0
M  V30 4121 H 386.337 0.708749 1.91932 0
M  V30 4122 H 386.347 -0.493536 4.05004 0
M  V30 4123 H 385.022 0.657424 4.10671 0
M  V30 4124 H 383.599 -1.09224 3.56545 0
M  V30 4125 N 385.784 -1.5574 0.241426 0
M  V30 4126 C 387.032 -1.98417 -0.384075 0
M  V30 4127 C 387.353 -1.13078 -1.58866 0
M  V30 4128 O 386.623 -0.212312 -1.94746 0
M  V30 4129 H 385.203 -0.732813 -0.144894 0
M  V30 4130 H 387.865 -1.9193 0.338943 0
M  V30 4131 H 386.961 -3.04219 -0.696939 0
M  V30 4132 N 387.262 0.0317525 -1.57568 0
M  V30 4133 C 388.673 0.578692 -1.77505 0
M  V30 4134 C 389.024 1.75749 -0.872164 0
M  V30 4135 O 388.149 2.16298 -0.0663106 0
M  V30 4136 C 388.744 1.05658 -3.21904 0
M  V30 4137 C 387.303 1.54906 -3.43047 0
M  V30 4138 C 386.45 0.485939 -2.73009 0
M  V30 4139 H 389.401 -0.194475 -1.57504 0
M  V30 4140 H 389.422 1.92404 -3.28269 0
M  V30 4141 H 388.934 0.198422 -3.87592 0
M  V30 4142 H 387.035 2.42915 -2.82529 0
M  V30 4143 H 387.148 1.59841 -4.5165 0
M  V30 4144 H 385.512 0.940354 -2.36705 0
M  V30 4145 H 386.295 -0.362709 -3.41379 0
M  V30 4146 N 388.74 1.54641 0.303973 0
M  V30 4147 C 389.989 1.7299 1.03717 0
M  V30 4148 C 390.302 0.521168 1.88529 0
M  V30 4149 O 391.508 0.586408 2.65092 0
M  V30 4150 C 389.964 3.06051 1.89369 0
M  V30 4151 C 389.572 4.34393 1.09574 0
M  V30 4152 C 391.316 3.3376 2.62306 0
M  V30 4153 C 389.223 5.58506 1.94486 0
M  V30 4154 H 388.153 0.64473 0.390947 0
M  V30 4155 H 390.804 1.81124 0.294328 0
M  V30 4156 H 389.186 2.91874 2.67629 0
M  V30 4157 H 390.36 4.59396 0.359485 0
M  V30 4158 H 388.675 4.13597 0.482324 0
M  V30 4159 H 391.272 4.23687 3.26181 0
M  V30 4160 H 391.615 2.52503 3.3098 0
M  V30 4161 H 392.148 3.48894 1.91097 0
M  V30 4162 H 388.887 6.42422 1.30287 0
M  V30 4163 H 388.407 5.37694 2.65792 0
M  V30 4164 H 390.086 5.95651 2.52605 0
M  V30 4165 N 390.218 -0.567019 1.47046 0
M  V30 4166 C 391.467 -1.32091 1.5243 0
M  V30 4167 C 391.78 -1.94704 0.187021 0
M  V30 4168 O 392.986 -2.7124 0.118771 0
M  V30 4169 C 391.442 -2.39479 2.68659 0
M  V30 4170 C 391.05 -1.831 4.08874 0
M  V30 4171 C 392.794 -3.16111 2.83327 0
M  V30 4172 C 390.701 -2.8821 5.16419 0
M  V30 4173 H 389.631 -0.496629 0.56734 0
M  V30 4174 H 392.282 -0.603354 1.73297 0
M  V30 4175 H 390.664 -3.14105 2.41152 0
M  V30 4176 H 391.838 -1.14913 4.46242 0
M  V30 4177 H 390.153 -1.19085 3.99008 0
M  V30 4178 H 392.75 -3.94585 3.60842 0
M  V30 4179 H 393.093 -3.69686 1.91411 0
M  V30 4180 H 393.626 -2.48595 3.10556 0
M  V30 4181 H 390.365 -2.39504 6.10179 0
M  V30 4182 H 389.885 -3.54839 4.8358 0
M  V30 4183 H 391.564 -3.51881 5.42945 0
M  V30 4184 N 391.696 -1.35014 -0.812953 0
M  V30 4185 C 392.921 -1.31187 -1.60639 0
M  V30 4186 C 393.346 0.109382 -1.87782 0
M  V30 4187 O 392.704 1.07424 -1.46047 0
M  V30 4188 C 392.752 -2.11809 -2.91838 0
M  V30 4189 O 391.856 -1.49444 -3.8437 0
M  V30 4190 H 391.197 -0.450084 -0.488181 0
M  V30 4191 H 393.727 -1.77963 -1.00947 0
M  V30 4192 H 393.737 -2.23531 -3.41318 0
M  V30 4193 H 392.412 -3.15137 -2.71407 0
M  V30 4194 H 390.989 -1.46524 -3.42907 0
M  V30 4195 N 393.175 1.03435 -1.18907 0
M  V30 4196 C 394.452 1.73778 -0.89781 0
M  V30 4197 C 394.832 2.02458 0.597832 0
M  V30 4198 O 394.18 1.67482 1.55441 0
M  V30 4199 C 394.39 3.01845 -1.75187 0
M  V30 4200 C 395.738 3.7546 -1.9828 0
M  V30 4201 O 396.762 3.11759 -1.72293 0
M  V30 4202 O 395.621 4.89966 -2.42065 0
M  V30 4203 H 392.715 0.75651 -0.334098 0
M  V30 4204 H 395.261 1.09444 -1.29693 0
M  V30 4205 H 394.033 2.76836 -2.76545 0
M  V30 4206 H 393.656 3.73919 -1.35167 0
M  V30 4207 N 394.653 0.992116 1.22453 0
M  V30 4208 C 395.902 0.662992 1.90492 0
M  V30 4209 C 396.215 -0.808407 1.78113 0
M  V30 4210 O 397.421 -1.24908 2.41061 0
M  V30 4211 C 395.877 1.1353 3.41524 0
M  V30 4212 C 395.485 2.63187 3.62542 0
M  V30 4213 C 397.229 0.880465 4.15269 0
M  V30 4214 C 395.136 3.04024 5.0727 0
M  V30 4215 H 394.066 0.244278 0.713333 0
M  V30 4216 H 396.717 1.20157 1.38688 0
M  V30 4217 H 395.099 0.52485 3.92506 0
M  V30 4218 H 396.273 3.2957 3.22056 0
M  V30 4219 H 394.588 2.86543 3.02129 0
M  V30 4220 H 397.185 1.16128 5.21937 0
M  V30 4221 H 397.528 -0.183408 4.15896 0
M  V30 4222 H 398.061 1.45307 3.70312 0
M  V30 4223 H 394.8 4.09584 5.11782 0
M  V30 4224 H 394.32 2.42343 5.48662 0
M  V30 4225 H 395.999 2.95282 5.75689 0
M  V30 4226 N 396.131 -1.37776 0.765217 0
M  V30 4227 C 397.359 -2.04124 0.337767 0
M  V30 4228 C 397.774 -1.57715 -1.03785 0
M  V30 4229 O 397.131 -0.755447 -1.6613 0
M  V30 4230 C 397.182 -3.59658 0.364442 0
M  V30 4231 O 396.903 -4.04367 1.68579 0
M  V30 4232 C 398.404 -4.43236 -0.0754221 0
M  V30 4233 H 395.624 -0.655696 0.142491 0
M  V30 4234 H 398.168 -1.76238 1.03732 0
M  V30 4235 H 396.323 -3.86339 -0.286471 0
M  V30 4236 H 396.737 -4.98857 1.61993 0
M  V30 4237 H 398.211 -5.52 -0.00560067 0
M  V30 4238 H 398.688 -4.2455 -1.12491 0
M  V30 4239 H 399.294 -4.21767 0.547055 0
M  V30 4240 N 397.609 -0.515225 -1.4894 0
M  V30 4241 C 398.519 0.259774 -2.33157 0
M  V30 4242 C 399.535 0.953501 -1.45548 0
M  V30 4243 O 400.711 0.931735 -1.78552 0
M  V30 4244 C 397.776 1.30193 -3.21326 0
M  V30 4245 C 396.837 0.620129 -4.24797 0
M  V30 4246 C 396.07 1.61263 -5.08753 0
M  V30 4247 O 396.293 2.84389 -4.94448 0
M  V30 4248 O 395.227 1.16013 -5.90614 0
M  V30 4249 H 399.053 -0.429932 -3.00641 0
M  V30 4250 H 396.638 -0.276346 -1.46822 0
M  V30 4251 H 398.52 1.90455 -3.75905 0
M  V30 4252 H 397.195 1.97431 -2.56521 0
M  V30 4253 H 396.102 -0.0226019 -3.74093 0
M  V30 4254 H 397.435 -0.0100493 -4.92199 0
M  V30 4255 N 399.087 1.5561 -0.249682 0
M  V30 4256 C 400.017 2.24477 0.642826 0
M  V30 4257 C 400.998 1.22601 1.17911 0
M  V30 4258 O 402.183 1.5126 1.21795 0
M  V30 4259 C 399.313 2.94638 1.83863 0
M  V30 4260 C 398.267 4.03227 1.435 0
M  V30 4261 C 397.593 4.60828 2.71186 0
M  V30 4262 C 398.893 5.18796 0.604002 0
M  V30 4263 H 400.587 2.99321 0.0685625 0
M  V30 4264 H 398.133 1.43965 0.0315363 0
M  V30 4265 H 400.086 3.41517 2.46868 0
M  V30 4266 H 398.81 2.17287 2.43832 0
M  V30 4267 H 397.469 3.57121 0.828275 0
M  V30 4268 H 397.117 3.80174 3.29358 0
M  V30 4269 H 396.817 5.34132 2.44901 0
M  V30 4270 H 398.341 5.10442 3.35084 0
M  V30 4271 H 399.755 5.61883 1.13842 0
M  V30 4272 H 398.152 5.98506 0.437097 0
M  V30 4273 H 399.222 4.83384 -0.383147 0
M  V30 4274 N 400.565 -0.0233959 1.57583 0
M  V30 4275 C 401.528 -1.00693 2.05897 0
M  V30 4276 C 402.528 -1.28693 0.964092 0
M  V30 4277 O 403.718 -1.23602 1.22753 0
M  V30 4278 C 400.85 -2.33825 2.4807 0
M  V30 4279 H 402.043 -0.589476 2.9405 0
M  V30 4280 H 399.596 -0.270354 1.53944 0
M  V30 4281 H 400.331 -2.80307 1.6309 0
M  V30 4282 H 400.116 -2.1483 3.2801 0
M  V30 4283 H 401.606 -3.04426 2.85857 0
M  V30 4284 N 402.043 -1.548 -0.295768 0
M  V30 4285 C 403.454 -1.65274 -0.868411 0
M  V30 4286 C 403.805 -0.56481 -1.87894 0
M  V30 4287 O 402.93 0.29767 -2.14343 0
M  V30 4288 C 403.525 -2.99603 -1.58188 0
M  V30 4289 C 402.084 -3.12181 -2.10286 0
M  V30 4290 C 401.231 -2.6098 -0.93727 0
M  V30 4291 H 404.182 -1.58534 -0.0726422 0
M  V30 4292 H 404.203 -2.91319 -2.44772 0
M  V30 4293 H 403.715 -3.78764 -0.846151 0
M  V30 4294 H 401.816 -2.3775 -2.8689 0
M  V30 4295 H 401.929 -4.18415 -2.33379 0
M  V30 4296 H 400.293 -2.17564 -1.32431 0
M  V30 4297 H 401.076 -3.42623 -0.215414 0
M  V30 4298 N 403.521 0.559213 -1.47345 0
M  V30 4299 C 404.484 1.64854 -1.59235 0
M  V30 4300 C 405.484 1.53851 -0.467607 0
M  V30 4301 O 406.674 1.58045 -0.732617 0
M  V30 4302 C 403.806 3.04388 -1.53496 0
M  V30 4303 H 404.999 1.55662 -2.56339 0
M  V30 4304 H 402.552 0.778973 -1.35505 0
M  V30 4305 H 403.287 3.19115 -0.577604 0
M  V30 4306 H 403.072 3.13783 -2.35123 0
M  V30 4307 H 404.562 3.83642 -1.6495 0
M  V30 4308 N 404.999 1.35443 0.805782 0
M  V30 4309 C 406.224 1.32037 1.59941 0
M  V30 4310 C 406.649 -0.0994215 1.87837 0
M  V30 4311 O 406.007 -1.06648 1.46615 0
M  V30 4312 C 406.055 2.13354 2.90711 0
M  V30 4313 O 405.159 1.5148 3.83572 0
M  V30 4314 H 404.5 0.452666 0.485787 0
M  V30 4315 H 407.03 1.78496 1.00002 0
M  V30 4316 H 407.04 2.25338 3.40128 0
M  V30 4317 H 405.715 3.16572 2.69732 0
M  V30 4318 H 404.292 1.4834 3.42125 0
M  V30 4319 N 406.477 -1.02803 1.19454 0
M  V30 4320 C 407.888 -1.57667 0.999899 0
M  V30 4321 C 408.239 -1.91041 -0.446956 0
M  V30 4322 O 407.364 -1.70978 -1.32648 0
M  V30 4323 C 407.959 -2.86477 1.80877 0
M  V30 4324 C 406.518 -3.37911 1.65811 0
M  V30 4325 C 405.665 -2.11343 1.79526 0
M  V30 4326 H 408.616 -0.853214 1.33813 0
M  V30 4327 H 408.637 -3.57408 1.30536 0
M  V30 4328 H 408.149 -2.62155 2.86175 0
M  V30 4329 H 406.25 -3.67218 0.63102 0
M  V30 4330 H 406.363 -4.10885 2.46395 0
M  V30 4331 H 404.727 -2.23254 1.22596 0
M  V30 4332 H 405.51 -1.89461 2.86285 0
M  V30 4333 N 407.956 -0.998596 -1.21925 0
M  V30 4334 C 408.889 -0.498517 -2.22688 0
M  V30 4335 C 409.867 0.444301 -1.56412 0
M  V30 4336 O 411.051 0.368518 -1.84863 0
M  V30 4337 C 408.178 0.276639 -3.37568 0
M  V30 4338 C 407.224 -0.61302 -4.22071 0
M  V30 4339 S 408.057 -2.07168 -4.93803 0
M  V30 4340 C 409.213 -1.30617 -6.12119 0
M  V30 4341 H 409.446 -1.35234 -2.64762 0
M  V30 4342 H 406.979 -0.806018 -1.31692 0
M  V30 4343 H 408.937 0.717817 -4.04175 0
M  V30 4344 H 407.598 1.10581 -2.93991 0
M  V30 4345 H 406.791 -0.0162909 -5.03997 0
M  V30 4346 H 406.393 -0.991202 -3.60626 0
M  V30 4347 H 408.685 -0.57675 -6.75041 0
M  V30 4348 H 409.628 -2.10091 -6.76215 0
M  V30 4349 H 410.036 -0.816957 -5.58557 0
M  V30 4350 N 409.434 1.37368 -0.772513 0
M  V30 4351 C 410.397 2.28601 -0.165541 0
M  V30 4352 C 411.397 1.48062 0.627238 0
M  V30 4353 O 412.587 1.68268 0.450715 0
M  V30 4354 C 409.719 3.32023 0.772897 0
M  V30 4355 H 410.912 2.83787 -0.969787 0
M  V30 4356 H 408.465 1.46647 -0.540775 0
M  V30 4357 H 409.2 2.81962 1.60212 0
M  V30 4358 H 408.985 3.91555 0.206585 0
M  V30 4359 H 410.475 4.00197 1.19298 0
M  V30 4360 N 410.912 0.523116 1.48665 0
M  V30 4361 C 412.137 -0.0117284 2.07397 0
M  V30 4362 C 412.562 -1.28031 1.37803 0
M  V30 4363 O 411.92 -1.75836 0.441762 0
M  V30 4364 C 411.968 -0.225786 3.59892 0
M  V30 4365 O 411.072 -1.29592 3.91509 0
M  V30 4366 H 410.413 0.0360673 0.66302 0
M  V30 4367 H 412.943 0.729066 1.9117 0
M  V30 4368 H 412.953 -0.450552 4.05505 0
M  V30 4369 H 411.628 0.700944 4.09951 0
M  V30 4370 H 410.205 -1.05436 3.57684 0
M  V30 4371 N 412.39 -1.55475 0.257931 0
M  V30 4372 C 413.801 -1.8511 -0.243135 0
M  V30 4373 C 414.152 -1.17986 -1.5676 0
M  V30 4374 O 413.277 -0.462102 -2.11409 0
M  V30 4375 C 413.872 -3.35826 -0.447929 0
M  V30 4376 C 412.431 -3.65647 -0.893245 0
M  V30 4377 C 411.578 -2.7729 0.0232965 0
M  V30 4378 H 414.529 -1.51261 0.480199 0
M  V30 4379 H 414.55 -3.58002 -1.28898 0
M  V30 4380 H 414.062 -3.84652 0.516196 0
M  V30 4381 H 412.163 -3.22308 -1.86945 0
M  V30 4382 H 412.276 -4.73312 -0.742469 0
M  V30 4383 H 410.64 -2.49942 -0.490021 0
M  V30 4384 H 411.423 -3.28926 0.982994 0
M  V30 4385 N 413.868 0.0150385 -1.57593 0
M  V30 4386 C 415.116 0.701613 -1.8953 0
M  V30 4387 C 415.437 1.75139 -0.857396 0
M  V30 4388 O 414.707 1.95607 0.107194 0
M  V30 4389 H 413.287 0.26213 -0.699498 0
M  V30 4390 H 415.949 -0.0223304 -1.94887 0
M  V30 4391 H 415.045 1.18236 -2.88837 0
M  V30 4392 N 415.346 1.54954 0.287554 0
M  V30 4393 C 416.594 1.74528 1.01904 0
M  V30 4394 C 416.915 0.541349 1.87335 0
M  V30 4395 O 416.185 -0.444108 1.908 0
M  V30 4396 H 414.765 0.643576 0.379235 0
M  V30 4397 H 417.427 1.92333 0.315294 0
M  V30 4398 H 416.523 2.64015 1.6644 0
M  V30 4399 N 416.824 -0.551391 1.4764 0
M  V30 4400 C 418.049 -1.33837 1.58437 0
M  V30 4401 C 418.474 -1.866 0.237063 0
M  V30 4402 O 417.832 -1.6328 -0.787994 0
M  V30 4403 C 417.88 -2.48014 2.61766 0
M  V30 4404 O 416.984 -3.50419 2.1744 0
M  V30 4405 H 416.325 -0.397299 0.532024 0
M  V30 4406 H 418.855 -0.665759 1.93465 0
M  V30 4407 H 418.865 -2.94503 2.82369 0
M  V30 4408 H 417.54 -2.08969 3.5959 0
M  V30 4409 H 416.117 -3.10196 2.06961 0
M  V30 4410 N 418.302 -1.35869 -0.798587 0
M  V30 4411 C 419.551 -1.28921 -1.5512 0
M  V30 4412 C 419.864 0.13208 -1.95154 0
M  V30 4413 O 421.07 0.323879 -2.69561 0
M  V30 4414 C 419.526 -2.26141 -2.79979 0
M  V30 4415 C 419.134 -3.73658 -2.47151 0
M  V30 4416 C 420.878 -2.28152 -3.57976 0
M  V30 4417 C 418.785 -4.62679 -3.6835 0
M  V30 4418 H 417.715 -0.479031 -0.582276 0
M  V30 4419 H 420.366 -1.61179 -0.877125 0
M  V30 4420 H 418.748 -1.86865 -3.49138 0
M  V30 4421 H 419.922 -4.21616 -1.85947 0
M  V30 4422 H 418.237 -3.74333 -1.82383 0
M  V30 4423 H 420.834 -2.91875 -4.4801 0
M  V30 4424 H 421.177 -1.28748 -3.95891 0
M  V30 4425 H 421.71 -2.65998 -2.95787 0
M  V30 4426 H 418.449 -5.63111 -3.35538 0
M  V30 4427 H 417.969 -4.19442 -4.28752 0
M  V30 4428 H 419.648 -4.78498 -4.35487 0
M  V30 4429 N 419.78 1.02168 -1.19998 0
M  V30 4430 C 421.057 1.72816 -0.916191 0
M  V30 4431 C 421.437 2.03081 0.576325 0
M  V30 4432 O 420.785 1.69122 1.53656 0
M  V30 4433 C 420.995 2.9997 -1.78378 0
M  V30 4434 C 422.343 3.73336 -2.02251 0
M  V30 4435 O 423.367 3.09914 -1.75589 0
M  V30 4436 O 422.226 4.87371 -2.47249 0
M  V30 4437 H 419.32 0.752924 -0.342103 0
M  V30 4438 H 421.866 1.08062 -1.30846 0
M  V30 4439 H 420.638 2.73888 -2.79466 0
M  V30 4440 H 420.261 3.72464 -1.39126 0
M  V30 4441 N 421.258 1.00505 1.21394 0
M  V30 4442 C 422.168 0.574806 2.27449 0
M  V30 4443 C 423.184 -0.382206 1.6975 0
M  V30 4444 O 424.36 -0.246027 1.99892 0
M  V30 4445 C 421.425 -0.0917414 3.46579 0
M  V30 4446 C 420.486 0.909758 4.1955 0
M  V30 4447 C 419.719 0.274924 5.32991 0
M  V30 4448 O 419.942 -0.928254 5.62796 0
M  V30 4449 O 418.876 0.985877 5.93771 0
M  V30 4450 H 422.702 1.45744 2.66444 0
M  V30 4451 H 420.287 0.773923 1.27792 0
M  V30 4452 H 422.169 -0.464551 4.18832 0
M  V30 4453 H 420.844 -0.948755 3.09484 0
M  V30 4454 H 419.751 1.33372 3.49518 0
M  V30 4455 H 421.084 1.73636 4.60555 0
M  V30 4456 N 422.737 -1.36956 0.779787 0
M  V30 4457 C 424.153 -1.52817 0.460342 0
M  V30 4458 C 424.353 -1.7361 -1.02283 0
M  V30 4459 O 423.409 -1.76207 -1.80852 0
M  V30 4460 C 424.722 -2.71983 1.28241 0
M  V30 4461 C 426.27 -2.85849 1.27512 0
M  V30 4462 C 426.745 -4.08008 2.08072 0
M  V30 4463 N 428.236 -4.15135 2.05467 0
M  V30 4464 C 428.971 -5.08711 2.64577 0
M  V30 4465 N 428.467 -6.07792 3.32506 0
M  V30 4466 N 430.26 -5.01254 2.54363 0
M  V30 4467 H 422.411 -1.21713 1.74068 0
M  V30 4468 H 424.674 -0.593294 0.739396 0
M  V30 4469 H 424.38 -2.63109 2.33381 0
M  V30 4470 H 424.254 -3.65882 0.917088 0
M  V30 4471 H 426.641 -2.94189 0.231686 0
M  V30 4472 H 426.722 -1.92886 1.68014 0
M  V30 4473 H 426.366 -4.00429 3.12441 0
M  V30 4474 H 426.296 -5.001 1.64947 0
M  V30 4475 H 428.787 -3.44189 1.5602 0
M  V30 4476 H 429.1 -6.75739 3.74963 0
M  V30 4477 H 427.445 -6.08047 3.36606 0
M  V30 4478 H 430.636 -4.22795 2.00902 0
M  V30 4479 H 430.809 -5.73995 3.00722 0
M  V30 4480 N 424.215 -0.530993 -1.48385 0
M  V30 4481 C 425.626 -0.0907905 -1.86479 0
M  V30 4482 C 425.977 1.33213 -1.44044 0
M  V30 4483 O 425.102 1.99783 -0.831615 0
M  V30 4484 C 425.697 -0.157987 -3.38431 0
M  V30 4485 C 424.256 0.227026 -3.75715 0
M  V30 4486 C 423.403 -0.5173 -2.72432 0
M  V30 4487 H 426.354 -0.742186 -1.40276 0
M  V30 4488 H 426.375 0.630053 -3.75247 0
M  V30 4489 H 425.887 -1.19372 -3.69286 0
M  V30 4490 H 423.988 1.26486 -3.50474 0
M  V30 4491 H 424.101 -0.113288 -4.78966 0
M  V30 4492 H 422.465 0.0365527 -2.54674 0
M  V30 4493 H 423.248 -1.55368 -3.0613 0
M  V30 4494 N 425.693 1.55336 -0.266172 0
M  V30 4495 C 426.623 2.25146 0.618981 0
M  V30 4496 C 427.604 1.23845 1.16604 0
M  V30 4497 O 428.789 1.52544 1.20183 0
M  V30 4498 C 425.919 2.96572 1.80728 0
M  V30 4499 C 424.873 4.04726 1.39215 0
M  V30 4500 C 424.199 4.63678 2.66283 0
M  V30 4501 C 425.499 5.19407 0.548942 0
M  V30 4502 H 427.193 2.99377 0.0368116 0
M  V30 4503 H 424.739 1.43991 0.0162651 0
M  V30 4504 H 426.692 3.44116 2.43232 0
M  V30 4505 H 425.416 2.19861 2.41514 0
M  V30 4506 H 424.075 3.57979 0.790351 0
M  V30 4507 H 423.723 3.83646 3.25308 0
M  V30 4508 H 423.423 5.367 2.39222 0
M  V30 4509 H 424.947 5.13967 3.29651 0
M  V30 4510 H 426.361 5.63059 1.07876 0
M  V30 4511 H 424.758 5.98936 0.373593 0
M  V30 4512 H 425.828 4.8295 -0.434394 0
M  V30 4513 N 427.171 -0.0066808 1.57599 0
M  V30 4514 C 428.396 -0.707738 1.94951 0
M  V30 4515 C 428.821 -1.66882 0.867868 0
M  V30 4516 O 428.179 -1.80457 -0.17458 0
M  V30 4517 C 428.227 -1.42162 3.31394 0
M  V30 4518 O 427.331 -2.53578 3.25226 0
M  V30 4519 H 426.672 -0.188752 0.636607 0
M  V30 4520 H 429.202 0.0445193 2.04552 0
M  V30 4521 H 429.212 -1.78655 3.66806 0
M  V30 4522 H 427.887 -0.716903 4.09675 0
M  V30 4523 H 426.464 -2.19463 3.01481 0
M  V30 4524 N 428.649 -1.55105 -0.279332 0
M  V30 4525 C 429.874 -1.7976 -1.03446 0
M  V30 4526 C 430.299 -0.565952 -1.79384 0
M  V30 4527 O 429.657 0.484259 -1.74713 0
M  V30 4528 C 429.705 -3.0179 -1.97371 0
M  V30 4529 O 428.809 -2.76432 -3.06038 0
M  V30 4530 H 428.15 -0.594334 -0.29608 0
M  V30 4531 H 430.68 -2.02235 -0.310165 0
M  V30 4532 H 430.69 -3.30351 -2.39441 0
M  V30 4533 H 429.365 -3.91085 -1.4151 0
M  V30 4534 H 427.942 -2.58949 -2.68328 0
M  V30 4535 N 430.127 0.543554 -1.4793 0
M  V30 4536 C 431.352 1.32995 -1.59145 0
M  V30 4537 C 431.777 1.86472 -0.246956 0
M  V30 4538 O 431.135 1.63696 0.779324 0
M  V30 4539 C 431.183 2.46623 -2.63077 0
M  V30 4540 O 430.287 3.49261 -2.19295 0
M  V30 4541 H 429.628 0.394472 -0.534124 0
M  V30 4542 H 432.158 0.655489 -1.93816 0
M  V30 4543 H 432.168 2.93001 -2.83926 0
M  V30 4544 H 430.843 2.07059 -3.60693 0
M  V30 4545 H 429.42 3.09094 -2.08603 0
M  V30 4546 N 431.605 1.3629 0.791371 0
M  V30 4547 C 433.016 1.27225 1.36641 0
M  V30 4548 C 433.367 -0.0887968 1.95999 0
M  V30 4549 O 432.492 -0.990207 1.92416 0
M  V30 4550 C 433.087 2.30375 2.48421 0
M  V30 4551 C 431.646 2.25004 3.01746 0
M  V30 4552 C 430.793 2.15259 1.7481 0
M  V30 4553 H 433.744 1.47198 0.593173 0
M  V30 4554 H 433.765 1.93905 3.27385 0
M  V30 4555 H 433.277 3.29422 2.05189 0
M  V30 4556 H 431.378 1.29417 3.49403 0
M  V30 4557 H 431.491 3.1761 3.58693 0
M  V30 4558 H 429.855 1.61482 1.96966 0
M  V30 4559 H 430.638 3.16191 1.33709 0
M  V30 4560 N 433.083 -1.0153 1.20538 0
M  V30 4561 C 434.013 -2.11972 0.979295 0
M  V30 4562 C 434.994 -1.6985 -0.0921787 0
M  V30 4563 O 436.179 -1.94089 0.0655932 0
M  V30 4564 C 433.309 -3.43201 0.531984 0
M  V30 4565 C 432.263 -3.9907 1.54685 0
M  V30 4566 C 431.589 -5.26082 0.956127 0
M  V30 4567 C 432.889 -4.32313 2.93092 0
M  V30 4568 H 434.583 -2.31143 1.90298 0
M  V30 4569 H 432.129 -1.11079 0.916372 0
M  V30 4570 H 434.082 -4.1985 0.361044 0
M  V30 4571 H 432.806 -3.23792 -0.427327 0
M  V30 4572 H 431.465 -3.2453 1.70517 0
M  V30 4573 H 431.113 -5.02999 -0.0111538 0
M  V30 4574 H 430.813 -5.64426 1.63393 0
M  V30 4575 H 432.337 -6.05386 0.796284 0
M  V30 4576 H 433.751 -4.99845 2.80763 0
M  V30 4577 H 432.148 -4.81774 3.57791 0
M  V30 4578 H 433.218 -3.41025 3.44717 0
M  V30 4579 N 434.561 -1.01147 -1.20859 0
M  V30 4580 C 435.807 -0.698899 -1.90377 0
M  V30 4581 C 436.14 0.76904 -1.78324 0
M  V30 4582 O 435.415 1.55817 -1.16409 0
M  V30 4583 C 435.698 -1.12878 -3.41951 0
M  V30 4584 C 435.551 -2.65665 -3.62963 0
M  V30 4585 C 436.87 -0.696114 -4.3456 0
M  V30 4586 H 433.989 -0.255372 -0.691342 0
M  V30 4587 H 436.631 -1.25831 -1.42361 0
M  V30 4588 H 434.781 -0.652827 -3.82976 0
M  V30 4589 H 436.453 -3.21074 -3.31224 0
M  V30 4590 H 434.696 -3.06878 -3.06608 0
M  V30 4591 H 435.367 -2.90797 -4.69192 0
M  V30 4592 H 437.843 -1.10521 -4.01154 0
M  V30 4593 H 436.719 -1.025 -5.39245 0
M  V30 4594 H 436.98 0.402465 -4.40264 0
M  V30 4595 N 436.039 1.36541 -0.78704 0
M  V30 4596 C 437.455 1.52571 -0.46844 0
M  V30 4597 C 437.655 1.7415 1.01361 0
M  V30 4598 O 436.711 1.77163 1.79915 0
M  V30 4599 C 438.024 2.71299 -1.29682 0
M  V30 4600 C 439.572 2.85169 -1.29027 0
M  V30 4601 C 440.047 4.06898 -2.10233 0
M  V30 4602 N 441.538 4.1404 -2.07666 0
M  V30 4603 C 442.273 5.07301 -2.67271 0
M  V30 4604 N 441.769 6.06021 -3.35724 0
M  V30 4605 N 443.562 4.99898 -2.57018 0
M  V30 4606 H 435.713 1.20788 -1.74711 0
M  V30 4607 H 437.976 0.589364 -0.742532 0
M  V30 4608 H 437.682 2.61868 -2.34773 0
M  V30 4609 H 437.556 3.6539 -0.936479 0
M  V30 4610 H 439.943 2.94062 -0.247284 0
M  V30 4611 H 440.024 1.91992 -1.69035 0
M  V30 4612 H 439.668 3.98766 -3.1456 0
M  V30 4613 H 439.598 4.99218 -1.67597 0
M  V30 4614 H 442.089 3.43357 -1.57843 0
M  V30 4615 H 442.402 6.73741 -3.78541 0
M  V30 4616 H 440.747 6.06253 -3.39826 0
M  V30 4617 H 443.938 4.21724 -2.03142 0
M  V30 4618 H 444.111 5.72392 -3.03761 0
M  V30 4619 N 437.518 0.538854 1.48102 0
M  V30 4620 C 438.764 0.00801365 2.02798 0
M  V30 4621 C 439.097 -1.3309 1.41424 0
M  V30 4622 O 438.372 -1.86169 0.563158 0
M  V30 4623 C 438.655 -0.104589 3.59948 0
M  V30 4624 C 438.508 1.26012 4.31788 0
M  V30 4625 C 439.827 -0.827055 4.32259 0
M  V30 4626 H 436.946 0.00438624 0.736987 0
M  V30 4627 H 439.588 0.6976 1.7673 0
M  V30 4628 H 437.738 -0.691893 3.82289 0
M  V30 4629 H 439.41 1.88922 4.2084 0
M  V30 4630 H 437.653 1.83968 3.92859 0
M  V30 4631 H 438.324 1.13424 5.40221 0
M  V30 4632 H 440.8 -0.328578 4.14801 0
M  V30 4633 H 439.676 -0.87476 5.41885 0
M  V30 4634 H 439.937 -1.87927 4.0017 0
M  V30 4635 N 438.996 -1.55193 0.274407 0
M  V30 4636 C 439.943 -2.225 -0.613374 0
M  V30 4637 C 440.913 -1.19823 -1.15029 0
M  V30 4638 O 442.098 -1.48362 -1.19973 0
M  V30 4639 C 439.238 -2.94927 -1.79199 0
M  V30 4640 C 438.351 -4.12322 -1.28899 0
M  V30 4641 C 437.486 -4.72394 -2.42934 0
M  V30 4642 C 436.525 -5.81984 -1.89634 0
M  V30 4643 N 435.662 -6.36123 -2.9714 0
M  V30 4644 H 440.502 -2.97982 -0.032756 0
M  V30 4645 H 438.039 -1.47099 -0.00440146 0
M  V30 4646 H 439.997 -3.35134 -2.48478 0
M  V30 4647 H 438.627 -2.2187 -2.34465 0
M  V30 4648 H 437.679 -3.7724 -0.489327 0
M  V30 4649 H 438.991 -4.91355 -0.858587 0
M  V30 4650 H 438.145 -5.15317 -3.20208 0
M  V30 4651 H 436.884 -3.92636 -2.8929 0
M  V30 4652 H 435.889 -5.38511 -1.1084 0
M  V30 4653 H 437.114 -6.6361 -1.44215 0
M  V30 4654 H 435.06 -5.59259 -3.42878 0
M  V30 4655 H 434.977 -7.10427 -2.58515 0
M  V30 4656 H 436.245 -6.83704 -3.74391 0
M  V30 4657 N 440.474 -0.00167713 -1.576 0
M  V30 4658 C 441.384 1.00548 -2.1196 0
M  V30 4659 C 442.4 1.3758 -1.06526 0
M  V30 4660 O 443.576 1.46278 -1.38436 0
M  V30 4661 C 440.641 2.27809 -2.6135 0
M  V30 4662 C 439.702 1.97074 -3.81393 0
M  V30 4663 C 438.935 3.18267 -4.28417 0
M  V30 4664 O 439.158 4.30009 -3.74765 0
M  V30 4665 O 438.092 3.02167 -5.20556 0
M  V30 4666 H 441.918 0.573373 -2.98238 0
M  V30 4667 H 439.503 0.217255 -1.47812 0
M  V30 4668 H 441.385 3.02568 -2.93309 0
M  V30 4669 H 440.06 2.70254 -1.78169 0
M  V30 4670 H 438.967 1.19785 -3.54404 0
M  V30 4671 H 440.3 1.59464 -4.65652 0
M  V30 4672 N 441.952 1.55251 0.271103 0
M  V30 4673 C 442.862 1.9136 1.35714 0
M  V30 4674 C 443.878 0.811075 1.5394 0
M  V30 4675 O 445.054 1.11031 1.6803 0
M  V30 4676 C 442.119 2.1798 2.69603 0
M  V30 4677 C 441.18 3.4153 2.60107 0
M  V30 4678 C 440.413 3.66871 3.8761 0
M  V30 4679 O 440.636 2.94689 4.8838 0
M  V30 4680 O 439.57 4.60405 3.87699 0
M  V30 4681 H 443.396 2.83815 1.08088 0
M  V30 4682 H 440.981 1.41821 0.469792 0
M  V30 4683 H 442.863 2.36518 3.48765 0
M  V30 4684 H 441.538 1.28708 2.97012 0
M  V30 4685 H 440.445 3.28325 1.79314 0
M  V30 4686 H 441.778 4.31027 2.37647 0
M  V30 4687 N 443.43 -0.535701 1.48216 0
M  V30 4688 C 444.841 -1.11769 1.49548 0
M  V30 4689 C 445.192 -1.94442 0.26207 0
M  V30 4690 O 444.317 -2.06987 -0.631287 0
M  V30 4691 C 444.912 -2.03367 2.70975 0
M  V30 4692 C 443.471 -2.56795 2.75196 0
M  V30 4693 C 442.618 -1.33631 2.42977 0
M  V30 4694 H 445.569 -0.321232 1.55415 0
M  V30 4695 H 445.59 -2.87569 2.49167 0
M  V30 4696 H 445.102 -1.43169 3.60727 0
M  V30 4697 H 443.203 -3.20731 1.89638 0
M  V30 4698 H 443.316 -2.9632 3.76472 0
M  V30 4699 H 441.68 -1.6502 1.94012 0
M  V30 4700 H 442.463 -0.75194 3.34964 0
M  V30 4701 N 444.908 -1.36708 -0.784132 0
M  V30 4702 C 446.319 -1.27947 -1.35965 0
M  V30 4703 C 446.67 0.0784013 -1.96043 0
M  V30 4704 O 445.795 0.979989 -1.92938 0
M  V30 4705 C 446.39 -2.31689 -2.47195 0
M  V30 4706 C 444.949 -2.26601 -3.00548 0
M  V30 4707 C 444.096 -2.16184 -1.73666 0
M  V30 4708 H 447.047 -1.4751 -0.585358 0
M  V30 4709 H 447.068 -1.95638 -3.26352 0
M  V30 4710 H 446.58 -3.30506 -2.03439 0
M  V30 4711 H 444.681 -1.31268 -3.48711 0
M  V30 4712 H 444.794 -3.19508 -3.57004 0
M  V30 4713 H 443.158 -1.62524 -1.96107 0
M  V30 4714 H 443.941 -3.16896 -1.32031 0
M  V30 4715 N 446.386 1.0089 -1.21074 0
M  V30 4716 C 447.611 1.78727 -1.05221 0
M  V30 4717 C 448.036 1.83932 0.393795 0
M  V30 4718 O 447.394 1.28004 1.28393 0
M  V30 4719 C 447.442 3.20665 -1.64944 0
M  V30 4720 O 446.546 4.02632 -0.892273 0
M  V30 4721 H 445.887 0.550973 -0.370574 0
M  V30 4722 H 448.417 1.26847 -1.60534 0
M  V30 4723 H 448.427 3.71352 -1.69002 0
M  V30 4724 H 447.102 3.16191 -2.70177 0
M  V30 4725 H 445.679 3.61207 -0.926492 0
M  V30 4726 N 447.864 1.01787 1.20321 0
M  V30 4727 C 449.275 0.739307 1.71438 0
M  V30 4728 C 449.626 -0.742041 1.81627 0
M  V30 4729 O 448.751 -1.57903 1.47971 0
M  V30 4730 C 449.346 1.33538 3.11373 0
M  V30 4731 C 447.905 1.10566 3.59795 0
M  V30 4732 C 447.052 1.44028 2.36962 0
M  V30 4733 H 450.003 1.18718 1.05317 0
M  V30 4734 H 450.024 0.726611 3.73498 0
M  V30 4735 H 449.536 2.41352 3.03926 0
M  V30 4736 H 447.637 0.0452405 3.72573 0
M  V30 4737 H 447.75 1.78661 4.44542 0
M  V30 4738 H 446.114 0.85933 2.39766 0
M  V30 4739 H 446.897 2.52901 2.32155 0
M  V30 4740 N 449.342 -1.36122 0.79427 0
M  V30 4741 C 450.753 -1.81646 0.431446 0
M  V30 4742 C 451.104 -1.66043 -1.04518 0
M  V30 4743 O 450.229 -1.1841 -1.8113 0
M  V30 4744 C 450.824 -3.29785 0.776341 0
M  V30 4745 C 449.383 -3.73501 0.466282 0
M  V30 4746 C 448.53 -2.58313 1.00844 0
M  V30 4747 H 451.481 -1.24274 0.986995 0
M  V30 4748 H 451.502 -3.80437 0.0692413 0
M  V30 4749 H 451.014 -3.4111 1.8511 0
M  V30 4750 H 449.115 -3.67733 -0.600245 0
M  V30 4751 H 449.228 -4.68754 0.990288 0
M  V30 4752 H 447.592 -2.5102 0.431406 0
M  V30 4753 H 448.375 -2.72421 2.08906 0
M  V30 4754 N 450.82 -0.546701 -1.47814 0
M  V30 4755 C 451.752 0.244196 -2.27895 0
M  V30 4756 C 452.765 0.88911 -1.36377 0
M  V30 4757 O 453.954 0.764733 -1.61289 0
M  V30 4758 C 451.054 1.36252 -3.10304 0
M  V30 4759 C 450.227 0.816382 -4.29714 0
M  V30 4760 C 449.286 1.81789 -4.93801 0
M  V30 4761 O 448.312 1.36818 -5.52512 0
M  V30 4762 N 449.514 3.15085 -4.87547 0
M  V30 4763 H 452.279 -0.442694 -2.96412 0
M  V30 4764 H 449.84 -0.382095 -1.57327 0
M  V30 4765 H 451.832 2.03102 -3.50045 0
M  V30 4766 H 450.402 1.95281 -2.44099 0
M  V30 4767 H 449.622 -0.0285981 -3.9419 0
M  V30 4768 H 450.91 0.430668 -5.06974 0
M  V30 4769 H 450.308 3.54275 -4.41028 0
M  V30 4770 H 448.865 3.77522 -5.31339 0
M  V30 4771 N 452.299 1.55045 -0.282633 0
M  V30 4772 C 453.524 2.04628 0.337977 0
M  V30 4773 C 453.949 1.15937 1.48123 0
M  V30 4774 O 453.307 0.159532 1.80597 0
M  V30 4775 C 453.355 3.51854 0.78936 0
M  V30 4776 O 452.459 3.66236 1.89592 0
M  V30 4777 H 451.8 0.660434 0.0687261 0
M  V30 4778 H 454.33 2.00261 -0.419124 0
M  V30 4779 H 454.34 3.93361 1.08311 0
M  V30 4780 H 453.015 4.15873 -0.0470419 0
M  V30 4781 H 451.592 3.36633 1.60413 0
M  V30 4782 N 453.777 0.010035 1.57597 0
M  V30 4783 C 455.188 -0.531426 1.78977 0
M  V30 4784 C 455.539 -1.73375 0.918454 0
M  V30 4785 O 454.664 -2.16047 0.123635 0
M  V30 4786 C 455.259 -0.97086 3.24592 0
M  V30 4787 C 453.818 -1.45756 3.47033 0
M  V30 4788 C 452.965 -0.413384 2.74201 0
M  V30 4789 H 455.916 0.236166 1.56933 0
M  V30 4790 H 455.937 -1.83633 3.33255 0
M  V30 4791 H 455.449 -0.0955893 3.87982 0
M  V30 4792 H 453.55 -2.35339 2.88871 0
M  V30 4793 H 453.663 -1.4781 4.55729 0
M  V30 4794 H 452.027 -0.877266 2.39115 0
M  V30 4795 H 452.81 0.453092 3.40297 0
M  V30 4796 N 455.255 -1.55392 -0.262866 0
M  V30 4797 C 456.671 -1.47459 -0.610582 0
M  V30 4798 C 456.871 -0.697031 -1.8906 0
M  V30 4799 O 455.927 -0.219952 -2.5154 0
M  V30 4800 C 457.24 -2.91751 -0.728131 0
M  V30 4801 C 458.788 -3.02027 -0.821517 0
M  V30 4802 C 459.263 -4.47594 -0.97076 0
M  V30 4803 N 460.754 -4.51465 -1.03603 0
M  V30 4804 C 461.489 -5.61326 -1.17049 0
M  V30 4805 N 460.985 -6.81032 -1.2715 0
M  V30 4806 N 462.778 -5.49089 -1.20239 0
M  V30 4807 H 454.929 -2.04395 0.577632 0
M  V30 4808 H 457.192 -0.927287 0.197086 0
M  V30 4809 H 456.898 -3.51413 0.142132 0
M  V30 4810 H 456.772 -3.4134 -1.6052 0
M  V30 4811 H 459.159 -2.42456 -1.68224 0
M  V30 4812 H 459.24 -2.55674 0.0803688 0
M  V30 4813 H 458.884 -5.07771 -0.114655 0
M  V30 4814 H 458.814 -4.91613 -1.88745 0
M  V30 4815 H 461.305 -3.6524 -0.96996 0
M  V30 4816 H 461.618 -7.60511 -1.37271 0
M  V30 4817 H 459.963 -6.83824 -1.24136 0
M  V30 4818 H 463.154 -4.54507 -1.11985 0
M  V30 4819 H 463.327 -6.34749 -1.30373 0
M  V30 4820 N 456.733 0.527833 -1.48498 0
M  V30 4821 C 457.979 1.28545 -1.56857 0
M  V30 4822 C 458.312 1.92678 -0.242651 0
M  V30 4823 O 457.587 1.79394 0.751545 0
M  V30 4824 C 457.87 2.37314 -2.70839 0
M  V30 4825 C 457.723 1.77858 -4.13142 0
M  V30 4826 C 459.042 3.39068 -2.80573 0
M  V30 4827 H 456.161 0.466006 -0.570971 0
M  V30 4828 H 458.803 0.587784 -1.8068 0
M  V30 4829 H 456.953 2.96821 -2.50658 0
M  V30 4830 H 458.625 1.22385 -4.44769 0
M  V30 4831 H 456.868 1.08383 -4.20042 0
M  V30 4832 H 457.539 2.56624 -4.88721 0
M  V30 4833 H 460.015 2.89518 -2.98862 0
M  V30 4834 H 458.891 4.12566 -3.6205 0
M  V30 4835 H 459.152 3.9975 -1.88818 0
M  V30 4836 N 458.211 1.37122 0.776871 0
M  V30 4837 C 459.121 1.34651 1.9211 0
M  V30 4838 C 460.137 0.246824 1.7224 0
M  V30 4839 O 461.313 0.48134 1.95563 0
M  V30 4840 C 458.378 1.14748 3.2716 0
M  V30 4841 C 457.439 2.34308 3.5972 0
M  V30 4842 C 456.672 2.15345 4.88326 0
M  V30 4843 O 456.895 1.13507 5.58992 0
M  V30 4844 O 455.829 3.03414 5.1983 0
M  V30 4845 H 459.655 2.31013 1.97146 0
M  V30 4846 H 457.24 1.17799 0.918901 0
M  V30 4847 H 459.122 1.05616 4.0795 0
M  V30 4848 H 457.797 0.214562 3.22988 0
M  V30 4849 H 456.704 2.49011 2.79185 0
M  V30 4850 H 458.037 3.26149 3.68629 0
M  V30 4851 N 459.689 -1.00246 1.21608 0
M  V30 4852 C 460.599 -2.12515 0.993709 0
M  V30 4853 C 461.615 -1.73913 -0.0549939 0
M  V30 4854 O 462.791 -2.00943 0.135619 0
M  V30 4855 C 459.856 -3.42083 0.563953 0
M  V30 4856 C 458.917 -3.94843 1.68516 0
M  V30 4857 C 458.15 -5.18226 1.27582 0
M  V30 4858 O 458.373 -5.70201 0.150506 0
M  V30 4859 O 457.307 -5.64497 2.0887 0
M  V30 4860 H 461.133 -2.34152 1.93407 0
M  V30 4861 H 458.718 -1.10891 1.00118 0
M  V30 4862 H 460.6 -4.20073 0.334194 0
M  V30 4863 H 459.275 -3.21828 -0.347665 0
M  V30 4864 H 458.182 -3.18068 1.96935 0
M  V30 4865 H 459.515 -4.19512 2.5743 0
M  V30 4866 N 461.167 -1.02423 -1.1978 0
M  V30 4867 C 462.13 -0.605703 -2.21052 0
M  V30 4868 C 463.13 0.328209 -1.57415 0
M  V30 4869 O 464.32 0.115853 -1.73814 0
M  V30 4870 C 461.452 0.114366 -3.40708 0
M  V30 4871 H 462.645 -1.5017 -2.59594 0
M  V30 4872 H 460.198 -0.814888 -1.33376 0
M  V30 4873 H 460.933 1.02492 -3.07678 0
M  V30 4874 H 460.718 -0.556641 -3.88129 0
M  V30 4875 H 462.208 0.394272 -4.15735 0
M  V30 4876 N 462.645 1.35699 -0.801477 0
M  V30 4877 C 463.87 2.03687 -0.390678 0
M  V30 4878 C 464.295 1.60015 0.988778 0
M  V30 4879 O 463.653 0.774357 1.63931 0
M  V30 4880 C 463.701 3.57439 -0.476404 0
M  V30 4881 O 462.805 4.09208 0.512106 0
M  V30 4882 H 462.146 0.64344 -0.163956 0
M  V30 4883 H 464.676 1.73403 -1.08594 0
M  V30 4884 H 464.686 4.06544 -0.344357 0
M  V30 4885 H 463.361 3.88576 -1.48262 0
M  V30 4886 H 461.938 3.7134 0.340721 0
M  V30 4887 N 464.123 0.554532 1.47522 0
M  V30 4888 C 465.534 0.120446 1.86311 0
M  V30 4889 C 465.885 -1.30904 1.46145 0
M  V30 4890 O 465.01 -1.98434 0.863294 0
M  V30 4891 C 465.605 0.211808 3.38137 0
M  V30 4892 C 464.164 -0.167224 3.76028 0
M  V30 4893 C 463.311 0.560576 2.71575 0
M  V30 4894 H 466.262 0.764408 1.39077 0
M  V30 4895 H 466.283 -0.570275 3.76202 0
M  V30 4896 H 465.795 1.25232 3.6734 0
M  V30 4897 H 463.896 -1.20894 3.52442 0
M  V30 4898 H 464.009 0.189473 4.78725 0
M  V30 4899 H 462.373 0.00396836 2.547 0
M  V30 4900 H 463.156 1.60219 3.0362 0
M  V30 4901 N 465.601 -1.54893 0.290851 0
M  V30 4902 C 466.849 -1.99538 -0.320756 0
M  V30 4903 C 467.17 -1.18075 -1.55188 0
M  V30 4904 O 466.44 -0.274162 -1.93972 0
M  V30 4905 H 465.02 -0.737052 -0.121507 0
M  V30 4906 H 467.682 -1.90755 0.399832 0
M  V30 4907 H 466.778 -3.06282 -0.599802 0
M  V30 4908 N 467.08 -0.0183926 -1.57589 0
M  V30 4909 C 468.496 0.337897 -1.55982 0
M  V30 4910 C 468.696 1.73604 -1.02294 0
M  V30 4911 O 467.752 2.43589 -0.664895 0
M  V30 4912 C 469.065 0.196305 -3.00059 0
M  V30 4913 C 470.613 0.269875 -3.11834 0
M  V30 4914 C 471.088 0.157197 -4.5773 0
M  V30 4915 N 472.579 0.214521 -4.62703 0
M  V30 4916 C 473.314 0.150955 -5.73201 0
M  V30 4917 N 472.81 0.0369212 -6.9279 0
M  V30 4918 N 474.603 0.204162 -5.61729 0
M  V30 4919 H 466.754 -0.93279 -1.90821 0
M  V30 4920 H 469.017 -0.359253 -0.877292 0
M  V30 4921 H 468.723 -0.766383 -3.43248 0
M  V30 4922 H 468.597 0.970908 -3.6449 0
M  V30 4923 H 470.984 1.22302 -2.68563 0
M  V30 4924 H 471.065 -0.534918 -2.50144 0
M  V30 4925 H 470.709 -0.792479 -5.01679 0
M  V30 4926 H 470.639 0.980717 -5.17387 0
M  V30 4927 H 473.13 0.303238 -3.76681 0
M  V30 4928 H 473.443 -0.00518321 -7.728 0
M  V30 4929 H 471.788 0.0022886 -6.95 0
M  V30 4930 H 474.979 0.291575 -4.67191 0
M  V30 4931 H 475.152 0.15116 -6.47824 0
M  V30 4932 N 468.558 1.5553 0.254621 0
M  V30 4933 C 469.969 1.67518 0.824286 0
M  V30 4934 C 470.32 0.614429 1.86331 0
M  V30 4935 O 469.445 -0.240736 2.15057 0
M  V30 4936 C 470.04 3.03692 1.50189 0
M  V30 4937 C 468.599 3.17646 2.01935 0
M  V30 4938 C 467.746 2.63373 0.867746 0
M  V30 4939 H 470.697 1.58671 0.0305843 0
M  V30 4940 H 470.718 2.97706 2.36962 0
M  V30 4941 H 470.23 3.80874 0.745431 0
M  V30 4942 H 468.331 2.45273 2.80485 0
M  V30 4943 H 468.444 4.24455 2.22204 0
M  V30 4944 H 466.808 2.20999 1.26616 0
M  V30 4945 H 467.591 3.43074 0.124498 0
M  V30 4946 N 470.036 -0.519951 1.48776 0
M  V30 4947 C 471.261 -1.30447 1.6124 0
M  V30 4948 C 471.686 -1.86055 0.276591 0
M  V30 4949 O 471.044 -1.64915 -0.753183 0
M  V30 4950 C 471.092 -2.42406 2.66967 0
M  V30 4951 O 470.196 -3.45728 2.24824 0
M  V30 4952 H 469.537 -0.385924 0.540332 0
M  V30 4953 H 472.067 -0.624572 1.94834 0
M  V30 4954 H 472.077 -2.88447 2.88552 0
M  V30 4955 H 470.752 -2.01294 3.63941 0
M  V30 4956 H 469.329 -3.05737 2.13494 0
M  V30 4957 N 471.514 -1.37532 -0.769588 0
M  V30 4958 C 472.739 -1.36231 -1.56384 0
M  V30 4959 C 473.164 0.0495849 -1.88035 0
M  V30 4960 O 472.522 1.02723 -1.49391 0
M  V30 4961 C 472.57 -2.20986 -2.84952 0
M  V30 4962 O 471.674 -1.61597 -3.79421 0
M  V30 4963 H 471.015 -0.465387 -0.473615 0
M  V30 4964 H 473.545 -1.81085 -0.952342 0
M  V30 4965 H 473.555 -2.34277 -3.34034 0
M  V30 4966 H 472.23 -3.23612 -2.61243 0
M  V30 4967 H 470.807 -1.57359 -3.38072 0
M  V30 4968 N 472.992 0.995999 -1.22138 0
M  V30 4969 C 474.238 1.73767 -1.04561 0
M  V30 4970 C 474.571 1.89633 0.418698 0
M  V30 4971 O 473.846 1.43723 1.3105 0
M  V30 4972 C 474.129 3.14505 -1.75382 0
M  V30 4973 C 473.982 3.06306 -3.29388 0
M  V30 4974 C 475.301 4.13615 -1.50369 0
M  V30 4975 H 472.42 0.630728 -0.38125 0
M  V30 4976 H 475.062 1.16057 -1.50435 0
M  V30 4977 H 473.212 3.63775 -1.36383 0
M  V30 4978 H 474.884 2.64681 -3.77812 0
M  V30 4979 H 473.127 2.43186 -3.59226 0
M  V30 4980 H 473.798 4.05884 -3.74116 0
M  V30 4981 H 476.274 3.73089 -1.84239 0
M  V30 4982 H 475.15 5.10212 -2.02421 0
M  V30 4983 H 475.411 4.39949 -0.435611 0
M  V30 4984 N 474.47 1.03057 1.19235 0
M  V30 4985 C 475.747 0.642608 1.84743 0
M  V30 4986 C 476.127 -0.878577 1.91948 0
M  V30 4987 O 475.475 -1.77597 1.43776 0
M  V30 4988 C 475.685 1.30665 3.23616 0
M  V30 4989 C 477.033 1.43098 3.9976 0
M  V30 4990 O 478.057 1.26396 3.3302 0
M  V30 4991 O 476.916 1.70223 5.19313 0
M  V30 4992 H 474.01 0.223573 0.796206 0
M  V30 4993 H 476.556 1.12883 1.26711 0
M  V30 4994 H 475.328 2.34544 3.13217 0
M  V30 4995 H 474.951 0.808405 3.89295 0
M  V30 4996 N 475.948 -1.35272 0.808662 0
M  V30 4997 C 477.176 -2.02946 0.402537 0
M  V30 4998 C 477.591 -1.60937 -0.987147 0
M  V30 4999 O 476.948 -0.807917 -1.63643 0
M  V30 5000 C 476.999 -3.58317 0.47868 0
M  V30 5001 O 476.72 -3.98799 1.81358 0
M  V30 5002 C 478.221 -4.43251 0.0656281 0
M  V30 5003 H 475.441 -0.650831 0.163279 0
M  V30 5004 H 477.985 -1.72849 1.09286 0
M  V30 5005 H 476.14 -3.87055 -0.163415 0
M  V30 5006 H 476.554 -4.93451 1.77781 0
M  V30 5007 H 478.028 -5.51738 0.170017 0
M  V30 5008 H 478.505 -4.27913 -0.989278 0
M  V30 5009 H 479.111 -4.19813 0.68096 0
M  V30 5010 N 477.426 -0.562348 -1.47226 0
M  V30 5011 C 478.356 0.170627 -2.32876 0
M  V30 5012 C 479.337 0.903748 -1.44106 0
M  V30 5013 O 480.522 0.883206 -1.72954 0
M  V30 5014 C 477.652 1.19786 -3.25989 0
M  V30 5015 C 476.606 0.580875 -4.2404 0
M  V30 5016 C 475.932 1.71311 -5.06514 0
M  V30 5017 C 477.232 -0.468714 -5.20193 0
M  V30 5018 H 478.926 -0.544441 -2.94408 0
M  V30 5019 H 476.472 -0.263271 -1.41573 0
M  V30 5020 H 478.425 1.71884 -3.84752 0
M  V30 5021 H 477.149 1.94294 -2.62521 0
M  V30 5022 H 475.808 0.0811538 -3.6651 0
M  V30 5023 H 475.456 2.44736 -4.39447 0
M  V30 5024 H 475.156 1.30604 -5.72902 0
M  V30 5025 H 476.68 2.23725 -5.68137 0
M  V30 5026 H 478.094 -0.0336028 -5.7329 0
M  V30 5027 H 476.491 -0.794957 -5.94811 0
M  V30 5028 H 477.561 -1.36269 -4.65359 0
M  V30 5029 N 478.904 1.54736 -0.299062 0
M  V30 5030 C 479.834 2.26409 0.571085 0
M  V30 5031 C 480.815 1.2629 1.13951 0
M  V30 5032 O 482 1.55059 1.16921 0
M  V30 5033 C 479.13 3.00338 1.74396 0
M  V30 5034 C 478.084 4.07588 1.30599 0
M  V30 5035 C 477.41 4.69222 2.56387 0
M  V30 5036 C 478.71 5.20455 0.438645 0
M  V30 5037 H 480.404 2.99388 -0.0266991 0
M  V30 5038 H 477.95 1.43993 -0.0142812 0
M  V30 5039 H 479.903 3.49198 2.35878 0
M  V30 5040 H 478.627 2.24934 2.36796 0
M  V30 5041 H 477.286 3.59575 0.71424 0
M  V30 5042 H 476.934 3.9046 3.17097 0
M  V30 5043 H 476.634 5.41653 2.27784 0
M  V30 5044 H 478.158 5.20844 3.18675 0
M  V30 5045 H 479.572 5.65221 0.959085 0
M  V30 5046 H 477.969 5.99594 0.246466 0
M  V30 5047 H 479.039 4.8192 -0.536738 0
M  V30 5048 N 480.382 0.0267497 1.57577 0
M  V30 5049 C 481.607 -0.666227 1.96408 0
M  V30 5050 C 482.032 -1.65004 0.903071 0
M  V30 5051 O 481.39 -1.80787 -0.136263 0
M  V30 5052 C 481.438 -1.35101 3.34335 0
M  V30 5053 O 480.542 -2.46623 3.30531 0
M  V30 5054 H 479.883 -0.175206 0.640468 0
M  V30 5055 H 482.413 0.0878977 2.04411 0
M  V30 5056 H 482.423 -1.70834 3.70513 0
M  V30 5057 H 481.098 -0.629844 4.11103 0
M  V30 5058 H 479.675 -2.13019 3.06068 0
M  V30 5059 N 481.861 -1.55662 -0.24637 0
M  V30 5060 C 483.272 -1.67953 -0.81539 0
M  V30 5061 C 483.623 -0.624302 -1.86002 0
M  V30 5062 O 482.748 0.229328 -2.15181 0
M  V30 5063 C 483.343 -3.04484 -1.48576 0
M  V30 5064 C 481.902 -3.18713 -2.00248 0
M  V30 5065 C 481.049 -2.6383 -0.853766 0
M  V30 5066 H 484 -1.58685 -0.0221692 0
M  V30 5067 H 484.021 -2.98959 -2.3538 0
M  V30 5068 H 483.533 -3.81264 -0.725222 0
M  V30 5069 H 481.634 -2.46757 -2.79181 0
M  V30 5070 H 481.747 -4.25628 -2.1995 0
M  V30 5071 H 480.111 -2.21667 -1.25442 0
M  V30 5072 H 480.894 -3.43135 -0.106302 0
M  V30 5073 N 483.339 0.512053 -1.4905 0
M  V30 5074 C 484.567 1.29116 -1.61669 0
M  V30 5075 C 484.982 1.86655 -0.283787 0
M  V30 5076 O 484.339 1.67293 0.729331 0
M  V30 5077 C 484.39 2.4293 -2.67707 0
M  V30 5078 O 484.111 1.87758 -3.95826 0
M  V30 5079 C 485.612 3.34476 -2.90931 0
M  V30 5080 H 482.832 0.392009 -0.544583 0
M  V30 5081 H 485.376 0.615881 -1.95006 0
M  V30 5082 H 483.531 3.06308 -2.37179 0
M  V30 5083 H 483.945 2.62393 -4.54148 0
M  V30 5084 H 485.419 4.10642 -3.68886 0
M  V30 5085 H 485.896 3.90801 -2.00427 0
M  V30 5086 H 486.502 2.76874 -3.22832 0
M  V30 5087 N 484.817 1.37938 0.762283 0
M  V30 5088 C 485.78 1.34279 1.85747 0
M  V30 5089 C 486.78 0.244969 1.58923 0
M  V30 5090 O 487.97 0.501365 1.66829 0
M  V30 5091 C 485.102 1.08833 3.23061 0
M  V30 5092 H 486.295 2.31705 1.90401 0
M  V30 5093 H 483.848 1.23105 0.963057 0
M  V30 5094 H 484.583 0.119767 3.24079 0
M  V30 5095 H 484.368 1.88306 3.43923 0
M  V30 5096 H 485.858 1.08946 4.03138 0
M  V30 5097 N 486.295 -0.989507 1.22664 0
M  V30 5098 C 487.225 -2.09847 1.02404 0
M  V30 5099 C 488.206 -1.70007 -0.0561303 0
M  V30 5100 O 489.391 -1.93906 0.106748 0
M  V30 5101 C 486.521 -3.41996 0.604663 0
M  V30 5102 C 485.475 -3.95699 1.63115 0
M  V30 5103 C 484.801 -5.23936 1.0675 0
M  V30 5104 C 486.101 -4.25999 3.02196 0
M  V30 5105 H 487.795 -2.27054 1.95158 0
M  V30 5106 H 485.341 -1.09111 0.939727 0
M  V30 5107 H 487.294 -4.1899 0.45002 0
M  V30 5108 H 486.018 -3.24626 -0.35855 0
M  V30 5109 H 484.677 -3.2084 1.77362 0
M  V30 5110 H 484.325 -5.02909 0.0955422 0
M  V30 5111 H 484.025 -5.60833 1.75328 0
M  V30 5112 H 485.549 -6.0356 0.924516 0
M  V30 5113 H 486.963 -4.93777 2.91303 0
M  V30 5114 H 485.36 -4.74076 3.67929 0
M  V30 5115 H 486.43 -3.33636 3.51873 0
M  V30 5116 N 487.773 -1.03688 -1.18687 0
M  V30 5117 C 489.022 -0.733235 -1.879 0
M  V30 5118 C 489.335 0.741745 -1.8099 0
M  V30 5119 O 490.541 1.15875 -2.4553 0
M  V30 5120 C 488.997 -1.26127 -3.37076 0
M  V30 5121 C 488.605 -2.76461 -3.52524 0
M  V30 5122 C 490.349 -1.03398 -4.11715 0
M  V30 5123 C 488.256 -3.22642 -4.95637 0
M  V30 5124 H 487.186 -0.270584 -0.703776 0
M  V30 5125 H 489.837 -1.25222 -1.34133 0
M  V30 5126 H 488.219 -0.670165 -3.90288 0
M  V30 5127 H 489.393 -3.41296 -3.09602 0
M  V30 5128 H 487.708 -2.97559 -2.91286 0
M  V30 5129 H 490.305 -1.3542 -5.17267 0
M  V30 5130 H 490.648 0.0289246 -4.1629 0
M  V30 5131 H 491.181 -1.5895 -3.64664 0
M  V30 5132 H 487.92 -4.28296 -4.96228 0
M  V30 5133 H 487.44 -2.62539 -5.39289 0
M  V30 5134 H 489.119 -3.16444 -5.64333 0
M  V30 5135 N 489.251 1.34841 -0.815825 0
M  V30 5136 C 490.528 1.92908 -0.323416 0
M  V30 5137 C 490.908 1.74479 1.18828 0
M  V30 5138 O 490.256 1.11928 1.99209 0
M  V30 5139 C 490.466 3.40957 -0.744952 0
M  V30 5140 C 491.814 4.18107 -0.739716 0
M  V30 5141 O 492.838 3.49511 -0.68708 0
M  V30 5142 O 491.697 5.40517 -0.806456 0
M  V30 5143 H 488.791 0.822436 -0.0867646 0
M  V30 5144 H 491.337 1.4386 -0.90014 0
M  V30 5145 H 490.109 3.4814 -1.78646 0
M  V30 5146 H 489.732 3.97341 -0.143535 0
M  V30 5147 N 490.729 0.570148 1.46925 0
M  V30 5148 C 491.954 0.0542592 2.07329 0
M  V30 5149 C 492.379 -1.23582 1.41806 0
M  V30 5150 O 491.737 -1.74341 0.497479 0
M  V30 5151 C 491.785 -0.111175 3.60429 0
M  V30 5152 O 490.889 -1.17071 3.95434 0
M  V30 5153 H 490.23 0.0571425 0.661537 0
M  V30 5154 H 492.76 0.789516 1.88753 0
M  V30 5155 H 492.77 -0.321315 4.06733 0
M  V30 5156 H 491.445 0.831012 4.07513 0
M  V30 5157 H 490.022 -0.940029 3.60857 0
M  V30 5158 N 492.207 -1.54576 0.307264 0
M  V30 5159 C 493.456 -1.99442 -0.300976 0
M  V30 5160 C 493.769 -1.19928 -1.5452 0
M  V30 5161 O 494.975 -1.55092 -2.22842 0
M  V30 5162 C 493.431 -3.55084 -0.586809 0
M  V30 5163 C 493.039 -4.43413 0.639438 0
M  V30 5164 C 494.783 -4.0846 -1.1559 0
M  V30 5165 C 492.69 -5.90499 0.326411 0
M  V30 5166 H 491.62 -0.744986 -0.116238 0
M  V30 5167 H 494.271 -1.787 0.416947 0
M  V30 5168 H 492.653 -3.71749 -1.36449 0
M  V30 5169 H 493.827 -4.38522 1.41545 0
M  V30 5170 H 492.142 -4.00842 1.1276 0
M  V30 5171 H 494.739 -5.15926 -1.40445 0
M  V30 5172 H 495.082 -3.59443 -2.10015 0
M  V30 5173 H 495.615 -3.95362 -0.439778 0
M  V30 5174 H 492.354 -6.43676 1.23939 0
M  V30 5175 H 491.874 -5.98382 -0.412212 0
M  V30 5176 H 493.553 -6.46962 -0.0697393 0
M  V30 5177 N 493.685 -0.035106 -1.57561 0
M  V30 5178 C 494.615 0.942993 -2.13612 0
M  V30 5179 C 495.596 1.33531 -1.05373 0
M  V30 5180 O 496.781 1.41287 -1.33235 0
M  V30 5181 C 493.911 2.22332 -2.66807 0
M  V30 5182 C 492.865 1.97156 -3.79886 0
M  V30 5183 C 492.191 3.31506 -4.19533 0
M  V30 5184 C 493.491 1.30596 -5.05709 0
M  V30 5185 H 495.185 0.476179 -2.95589 0
M  V30 5186 H 492.731 0.227602 -1.4219 0
M  V30 5187 H 494.684 2.91142 -3.04654 0
M  V30 5188 H 493.408 2.7119 -1.81999 0
M  V30 5189 H 492.067 1.30763 -3.42486 0
M  V30 5190 H 491.715 3.78134 -3.31698 0
M  V30 5191 H 491.415 3.15465 -4.95738 0
M  V30 5192 H 492.939 4.01574 -4.59968 0
M  V30 5193 H 494.353 1.89416 -5.41105 0
M  V30 5194 H 492.75 1.24934 -5.86951 0
M  V30 5195 H 493.82 0.279742 -4.84092 0
M  V30 5196 N 495.163 1.55791 0.238111 0
M  V30 5197 C 496.579 1.48411 0.587045 0
M  V30 5198 C 496.779 0.72702 1.87927 0
M  V30 5199 O 495.835 0.259942 2.51158 0
M  V30 5200 C 497.148 2.92873 0.681623 0
M  V30 5201 C 498.696 3.03295 0.773363 0
M  V30 5202 C 499.171 4.49082 0.899428 0
M  V30 5203 N 500.662 4.53056 0.964075 0
M  V30 5204 C 501.397 5.63117 1.08104 0
M  V30 5205 N 500.893 6.82969 1.16299 0
M  V30 5206 N 502.686 5.50933 1.11488 0
M  V30 5207 H 494.837 2.0345 -0.610076 0
M  V30 5208 H 497.1 0.924034 -0.211813 0
M  V30 5209 H 496.806 3.51142 -0.19802 0
M  V30 5210 H 496.68 3.43851 1.55069 0
M  V30 5211 H 499.067 2.45101 1.64346 0
M  V30 5212 H 499.148 2.55513 -0.121034 0
M  V30 5213 H 498.792 5.07889 0.0338586 0
M  V30 5214 H 498.722 4.94553 1.809 0
M  V30 5215 H 501.213 3.66737 0.91173 0
M  V30 5216 H 501.526 7.62598 1.25155 0
M  V30 5217 H 499.871 6.85712 1.13241 0
M  V30 5218 H 503.062 4.56231 1.0474 0
M  V30 5219 H 503.235 6.36743 1.20259 0
M  V30 5220 N 496.642 -0.504142 1.49319 0
M  V30 5221 C 497.552 -1.63248 1.68486 0
M  V30 5222 C 498.568 -1.64488 0.567432 0
M  V30 5223 O 499.744 -1.82966 0.841749 0
M  V30 5224 C 496.809 -2.99627 1.74426 0
M  V30 5225 C 495.87 -3.09039 2.97982 0
M  V30 5226 C 495.103 -4.38913 3.0363 0
M  V30 5227 O 495.326 -5.27528 2.16958 0
M  V30 5228 O 494.26 -4.53231 3.96062 0
M  V30 5229 H 498.086 -1.50008 2.64067 0
M  V30 5230 H 495.671 -0.680086 1.33023 0
M  V30 5231 H 497.553 -3.80689 1.80705 0
M  V30 5232 H 496.228 -3.13136 0.820233 0
M  V30 5233 H 495.135 -2.27177 2.97223 0
M  V30 5234 H 496.468 -3.00456 3.89855 0
M  V30 5235 N 498.12 -1.38341 -0.754957 0
M  V30 5236 C 499.345 -1.37882 -1.5493 0
M  V30 5237 C 499.77 0.0296385 -1.88077 0
M  V30 5238 O 499.128 1.01133 -1.50472 0
M  V30 5239 C 499.176 -2.23996 -2.82592 0
M  V30 5240 O 498.28 -1.65612 -3.77686 0
M  V30 5241 H 497.621 -0.470384 -0.468652 0
M  V30 5242 H 500.151 -1.82084 -0.933082 0
M  V30 5243 H 500.161 -2.37806 -3.3153 0
M  V30 5244 H 498.836 -3.26365 -2.57796 0
M  V30 5245 H 497.413 -1.60936 -3.36384 0
M  V30 5246 N 499.598 0.982988 -1.23187 0
M  V30 5247 C 500.508 2.10907 -1.02739 0
M  V30 5248 C 501.524 1.73979 0.0273188 0
M  V30 5249 O 502.7 2.00702 -0.16757 0
M  V30 5250 C 499.765 3.41142 -0.618304 0
M  V30 5251 C 498.826 3.92112 -1.74777 0
M  V30 5252 C 498.059 5.16131 -1.3581 0
M  V30 5253 O 498.282 5.6989 -0.241201 0
M  V30 5254 O 497.216 5.61103 -2.17824 0
M  V30 5255 H 501.042 2.31046 -1.97108 0
M  V30 5256 H 498.627 1.09284 -1.01869 0
M  V30 5257 H 500.509 4.19488 -0.400982 0
M  V30 5258 H 499.184 3.2234 0.296421 0
M  V30 5259 H 498.091 3.14895 -2.0197 0
M  V30 5260 H 499.424 4.15364 -2.64071 0
M  V30 5261 N 501.076 1.04316 1.18135 0
M  V30 5262 C 502.487 0.775505 1.69832 0
M  V30 5263 C 502.838 -0.703348 1.8316 0
M  V30 5264 O 501.963 -1.54729 1.51287 0
M  V30 5265 C 502.558 1.40112 3.0847 0
M  V30 5266 C 501.117 1.18172 3.57368 0
M  V30 5267 C 500.264 1.49022 2.33854 0
M  V30 5268 H 503.215 1.20925 1.02775 0
M  V30 5269 H 503.236 0.805672 3.71873 0
M  V30 5270 H 502.748 2.47744 2.98738 0
M  V30 5271 H 500.849 0.124258 3.72393 0
M  V30 5272 H 500.962 1.8805 4.40652 0
M  V30 5273 H 499.326 0.909995 2.37889 0
M  V30 5274 H 500.109 2.57768 2.26738 0
M  V30 5275 N 502.554 -1.34406 0.822964 0
M  V30 5276 C 503.517 -2.2783 0.250271 0
M  V30 5277 C 504.517 -1.50288 -0.571854 0
M  V30 5278 O 505.707 -1.69825 -0.387952 0
M  V30 5279 C 502.839 -3.34663 -0.649137 0
M  V30 5280 H 504.032 -2.79992 1.07444 0
M  V30 5281 H 501.585 -1.44539 0.594829 0
M  V30 5282 H 502.32 -2.87714 -1.49637 0
M  V30 5283 H 502.105 -3.92052 -0.0611199 0
M  V30 5284 H 503.595 -4.04349 -1.04363 0
M  V30 5285 N 504.032 -0.577932 -1.46621 0
M  V30 5286 C 505.443 -0.150071 -1.86096 0
M  V30 5287 C 505.794 1.28563 -1.48209 0
M  V30 5288 O 504.919 1.97036 -0.894754 0
M  V30 5289 C 505.514 -0.265576 -3.37758 0
M  V30 5290 C 504.073 0.10738 -3.76247 0
M  V30 5291 C 503.22 -0.603711 -2.70649 0
M  V30 5292 H 506.171 -0.786438 -1.37844 0
M  V30 5293 H 506.192 0.510352 -3.77062 0
M  V30 5294 H 505.704 -1.3106 -3.65301 0
M  V30 5295 H 503.805 1.15272 -3.54321 0
M  V30 5296 H 503.918 -0.26561 -4.78363 0
M  V30 5297 H 502.282 -0.0444884 -2.54661 0
M  V30 5298 H 503.065 -1.65029 -3.01032 0
M  V30 5299 N 505.51 1.54411 -0.315457 0
M  V30 5300 C 506.473 2.22713 0.54142 0
M  V30 5301 C 507.473 1.2179 1.04995 0
M  V30 5302 O 508.663 1.46426 0.943667 0
M  V30 5303 C 505.795 2.92485 1.75116 0
M  V30 5304 H 506.988 2.99849 -0.0555508 0
M  V30 5305 H 504.541 1.56159 -0.0664453 0
M  V30 5306 H 505.276 2.19466 2.38758 0
M  V30 5307 H 505.061 3.66483 1.39401 0
M  V30 5308 H 506.551 3.44548 2.35959 0
M  V30 5309 N 506.988 0.0434614 1.5754 0
M  V30 5310 C 508.213 -0.645358 1.97104 0
M  V30 5311 C 508.638 -1.64037 0.920521 0
M  V30 5312 O 507.996 -1.80922 -0.11708 0
M  V30 5313 C 508.044 -1.31547 3.35749 0
M  V30 5314 O 507.148 -2.43103 3.33129 0
M  V30 5315 H 506.489 -0.168403 0.64229 0
M  V30 5316 H 509.019 0.109573 2.04306 0
M  V30 5317 H 509.029 -1.66895 3.72304 0
M  V30 5318 H 507.704 -0.586205 4.11748 0
M  V30 5319 H 506.281 -2.0976 3.0831 0
M  V30 5320 N 508.466 -1.55915 -0.229846 0
M  V30 5321 C 509.712 -1.78807 -0.956868 0
M  V30 5322 C 510.045 -0.611687 -1.84315 0
M  V30 5323 O 509.32 0.389398 -1.90562 0
M  V30 5324 C 509.603 -3.11718 -1.80288 0
M  V30 5325 C 509.456 -4.3979 -0.943649 0
M  V30 5326 C 510.775 -3.40999 -2.78222 0
M  V30 5327 H 507.894 -0.6505 -0.346437 0
M  V30 5328 H 510.536 -1.88648 -0.226252 0
M  V30 5329 H 508.686 -3.03459 -2.42579 0
M  V30 5330 H 510.358 -4.60059 -0.338121 0
M  V30 5331 H 508.601 -4.33086 -0.248705 0
M  V30 5332 H 509.272 -5.29208 -1.5698 0
M  V30 5333 H 511.748 -3.49332 -2.26067 0
M  V30 5334 H 510.624 -4.35183 -3.34526 0
M  V30 5335 H 510.885 -2.62754 -3.55546 0
M  V30 5336 N 509.944 0.496216 -1.49584 0
M  V30 5337 C 511.172 1.27394 -1.63029 0
M  V30 5338 C 511.587 1.86344 -0.303569 0
M  V30 5339 O 510.944 1.68057 0.711547 0
M  V30 5340 C 510.995 2.40077 -2.70269 0
M  V30 5341 O 510.716 1.83549 -3.97796 0
M  V30 5342 C 512.217 3.31372 -2.94462 0
M  V30 5343 H 509.437 0.386211 -0.54871 0
M  V30 5344 H 511.981 0.595163 -1.95648 0
M  V30 5345 H 510.136 3.03775 -2.40415 0
M  V30 5346 H 510.55 2.57561 -4.56905 0
M  V30 5347 H 512.024 4.06707 -3.73221 0
M  V30 5348 H 512.501 3.88654 -2.0456 0
M  V30 5349 H 513.107 2.73435 -3.25751 0
M  V30 5350 N 511.423 1.38739 0.74761 0
M  V30 5351 C 512.386 1.36241 1.84312 0
M  V30 5352 C 513.386 0.261811 1.58654 0
M  V30 5353 O 514.576 0.519031 1.66288 0
M  V30 5354 C 511.708 1.12253 3.21888 0
M  V30 5355 H 512.901 2.33712 1.87933 0
M  V30 5356 H 510.454 1.2412 0.949946 0
M  V30 5357 H 511.189 0.154133 3.23934 0
M  V30 5358 H 510.974 1.91943 3.41907 0
M  V30 5359 H 512.464 1.13215 4.0196 0
M  V30 5360 N 512.901 -0.976442 1.23707 0
M  V30 5361 C 513.831 -2.08749 1.04624 0
M  V30 5362 C 514.812 -1.70057 -0.0380956 0
M  V30 5363 O 515.997 -1.93782 0.127308 0
M  V30 5364 C 513.127 -3.41335 0.640902 0
M  V30 5365 C 512.081 -3.93947 1.67302 0
M  V30 5366 C 511.407 -5.22774 1.12301 0
M  V30 5367 C 512.707 -4.22769 3.06697 0
M  V30 5368 H 514.401 -2.24972 1.97555 0
M  V30 5369 H 511.947 -1.08108 0.951247 0
M  V30 5370 H 513.9 -4.18489 0.494434 0
M  V30 5371 H 512.624 -3.24988 -0.324099 0
M  V30 5372 H 511.283 -3.18941 1.80755 0
M  V30 5373 H 510.931 -5.0278 0.148877 0
M  V30 5374 H 510.631 -5.58942 1.81267 0
M  V30 5375 H 512.155 -6.02546 0.988479 0
M  V30 5376 H 513.569 -4.90659 2.96524 0
M  V30 5377 H 511.966 -4.70147 3.72937 0
M  V30 5378 H 513.036 -3.29885 3.55392 0
M  V30 5379 N 514.379 -1.04941 -1.1758 0
M  V30 5380 C 515.607 -0.778294 -1.91703 0
M  V30 5381 C 516.022 0.665697 -1.76675 0
M  V30 5382 O 515.379 1.45456 -1.10222 0
M  V30 5383 C 515.43 -1.14628 -3.42845 0
M  V30 5384 O 515.151 -2.53359 -3.57409 0
M  V30 5385 C 516.652 -0.900931 -4.34049 0
M  V30 5386 H 513.872 -0.283167 -0.608323 0
M  V30 5387 H 516.416 -1.39942 -1.49119 0
M  V30 5388 H 514.571 -0.569953 -3.83184 0
M  V30 5389 H 514.985 -2.67709 -4.51035 0
M  V30 5390 H 516.459 -1.20817 -5.38616 0
M  V30 5391 H 516.936 0.163966 -4.38894 0
M  V30 5392 H 517.542 -1.46097 -3.99419 0
M  V30 5393 N 515.857 1.33968 -0.830081 0
M  V30 5394 C 517.134 1.92554 -0.343858 0
M  V30 5395 C 517.514 1.7573 1.16971 0
M  V30 5396 O 516.862 1.14035 1.98011 0
M  V30 5397 C 517.072 3.40147 -0.781073 0
M  V30 5398 C 518.42 4.17299 -0.78402 0
M  V30 5399 O 519.444 3.48762 -0.724112 0
M  V30 5400 O 518.303 5.39631 -0.863739 0
M  V30 5401 H 515.397 0.821469 -0.0954827 0
M  V30 5402 H 517.943 1.42897 -0.915348 0
M  V30 5403 H 516.715 3.46225 -1.82329 0
M  V30 5404 H 516.338 3.97166 -0.18567 0
M  V30 5405 N 517.335 0.585699 1.46312 0
M  V30 5406 C 518.298 -0.135673 2.28798 0
M  V30 5407 C 519.298 -0.815988 1.38558 0
M  V30 5408 O 520.488 -0.667487 1.60904 0
M  V30 5409 C 517.62 -1.20163 3.1902 0
M  V30 5410 H 518.813 0.589257 2.94054 0
M  V30 5411 H 516.366 0.343794 1.52472 0
M  V30 5412 H 517.101 -1.95804 2.58517 0
M  V30 5413 H 516.886 -0.718282 3.85465 0
M  V30 5414 H 518.376 -1.70749 3.81096 0
M  V30 5415 N 518.813 -1.54241 0.323641 0
M  V30 5416 C 520.229 -1.59574 -0.0290018 0
M  V30 5417 C 520.429 -1.34017 -1.50472 0
M  V30 5418 O 519.485 -1.12464 -2.26071 0
M  V30 5419 C 520.798 -2.98169 0.389295 0
M  V30 5420 C 522.346 -3.11148 0.339958 0
M  V30 5421 C 522.821 -4.5209 0.733418 0
M  V30 5422 N 524.312 -4.5808 0.686827 0
M  V30 5423 C 525.047 -5.65248 0.963464 0
M  V30 5424 N 524.543 -6.80355 1.30724 0
M  V30 5425 N 526.336 -5.55025 0.88902 0
M  V30 5426 H 518.487 -1.6911 1.28512 0
M  V30 5427 H 520.75 -0.790972 0.522558 0
M  V30 5428 H 520.456 -3.21871 1.41746 0
M  V30 5429 H 520.33 -3.76399 -0.245657 0
M  V30 5430 H 522.717 -2.87182 -0.679002 0
M  V30 5431 H 522.798 -2.35023 1.00985 0
M  V30 5432 H 522.442 -4.76788 1.75029 0
M  V30 5433 H 522.372 -5.26584 0.0412189 0
M  V30 5434 H 524.863 -3.75411 0.43298 0
M  V30 5435 H 525.176 -7.58029 1.5037 0
M  V30 5436 H 523.521 -6.81851 1.3455 0
M  V30 5437 H 526.712 -4.63977 0.619939 0
M  V30 5438 H 526.885 -6.38458 1.10797 0
M  V30 5439 N 520.291 -0.0518155 -1.57515 0
M  V30 5440 C 521.539 0.620595 -1.92336 0
M  V30 5441 C 521.86 1.71345 -0.930907 0
M  V30 5442 O 521.13 1.95885 0.0241341 0
M  V30 5443 H 519.71 0.232226 -0.709986 0
M  V30 5444 H 522.372 -0.104969 -1.94617 0
M  V30 5445 H 521.468 1.05879 -2.93592 0
M  V30 5446 N 521.769 1.56035 0.221574 0
M  V30 5447 C 522.719 1.8881 1.27807 0
M  V30 5448 C 523.703 0.751177 1.42289 0
M  V30 5449 O 524.895 1.01359 1.45104 0
M  V30 5450 C 522.024 2.20828 2.6285 0
M  V30 5451 C 521.11 3.40912 2.52269 0
M  V30 5452 N 521.501 4.59531 2.1134 0
M  V30 5453 C 519.799 3.44526 2.83228 0
M  V30 5454 C 520.5 5.41689 2.1201 0
M  V30 5455 N 519.476 4.814 2.52497 0
M  V30 5456 H 523.278 2.78036 0.952529 0
M  V30 5457 H 520.792 1.566 0.430134 0
M  V30 5458 H 522.789 2.42483 3.39127 0
M  V30 5459 H 521.449 1.32914 2.9625 0
M  V30 5460 H 522.46 4.8469 1.82472 0
M  V30 5461 H 519.137 2.66956 3.21 0
M  V30 5462 H 520.527 6.46643 1.82491 0
M  V30 5463 N 523.247 -0.488276 1.49845 0
M  V30 5464 C 524.475 -1.26527 1.63702 0
M  V30 5465 C 524.89 -1.8618 0.313447 0
M  V30 5466 O 524.247 -1.68432 -0.702624 0
M  V30 5467 C 524.298 -2.3864 2.71538 0
M  V30 5468 O 524.019 -1.81437 3.98763 0
M  V30 5469 C 525.52 -3.29805 2.96215 0
M  V30 5470 H 522.74 -0.383295 0.55075 0
M  V30 5471 H 525.284 -0.584779 1.95961 0
M  V30 5472 H 523.439 -3.02496 2.42023 0
M  V30 5473 H 523.853 -2.55135 4.58265 0
M  V30 5474 H 525.327 -4.04722 3.75372 0
M  V30 5475 H 525.804 -3.87563 2.06619 0
M  V30 5476 H 526.41 -2.71703 3.27196 0
M  V30 5477 N 524.725 -1.39134 -0.740242 0
M  V30 5478 C 526.002 -1.26584 -1.49117 0
M  V30 5479 C 526.382 0.126902 -2.10718 0
M  V30 5480 O 525.73 1.13765 -1.98166 0
M  V30 5481 C 525.94 -2.38619 -2.54681 0
M  V30 5482 C 527.288 -2.77685 -3.21211 0
M  V30 5483 O 528.312 -2.38029 -2.64991 0
M  V30 5484 O 527.171 -3.46115 -4.22926 0
M  V30 5485 H 524.265 -0.495769 -0.661923 0
M  V30 5486 H 526.811 -1.50995 -0.774514 0
M  V30 5487 H 525.583 -3.3175 -2.07504 0
M  V30 5488 H 525.206 -2.15845 -3.33911 0
M  V30 5489 N 526.204 0.969867 -1.24223 0
M  V30 5490 C 527.432 1.74756 -1.10761 0
M  V30 5491 C 527.847 1.85713 0.340041 0
M  V30 5492 O 527.204 1.34389 1.23474 0
M  V30 5493 C 527.255 3.16915 -1.73917 0
M  V30 5494 O 526.976 3.06511 -3.13021 0
M  V30 5495 C 528.477 4.11032 -1.66036 0
M  V30 5496 H 525.697 0.548092 -0.387087 0
M  V30 5497 H 528.241 1.2178 -1.64286 0
M  V30 5498 H 526.396 3.66884 -1.244 0
M  V30 5499 H 526.81 3.96079 -3.43834 0
M  V30 5500 H 528.284 5.08446 -2.14911 0
M  V30 5501 H 528.761 4.34785 -0.621159 0
M  V30 5502 H 529.367 3.66972 -2.14969 0
M  V30 5503 N 527.682 1.05563 1.17022 0
M  V30 5504 C 528.592 0.670758 2.24807 0
M  V30 5505 C 529.608 -0.309865 1.71219 0
M  V30 5506 O 530.784 -0.161025 2.00755 0
M  V30 5507 C 527.849 0.055337 3.46656 0
M  V30 5508 C 526.91 1.08688 4.15314 0
M  V30 5509 C 526.143 0.500736 5.31346 0
M  V30 5510 O 526.366 -0.688718 5.66227 0
M  V30 5511 O 525.3 1.23683 5.89055 0
M  V30 5512 H 529.126 1.56914 2.60023 0
M  V30 5513 H 526.711 0.827428 1.24395 0
M  V30 5514 H 528.593 -0.286492 4.20425 0
M  V30 5515 H 527.268 -0.816638 3.13229 0
M  V30 5516 H 526.175 1.48077 3.43546 0
M  V30 5517 H 527.508 1.93014 4.52777 0
M  V30 5518 N 529.16 -1.33526 0.837174 0
M  V30 5519 C 530.408 -1.97446 0.431211 0
M  V30 5520 C 530.729 -1.6665 -1.01255 0
M  V30 5521 O 529.999 -0.964559 -1.70508 0
M  V30 5522 H 528.579 -0.73043 0.156463 0
M  V30 5523 H 531.241 -1.62918 1.06976 0
M  V30 5524 H 530.337 -3.07001 0.561877 0
M  V30 5525 N 530.638 -0.59345 -1.46 0
M  V30 5526 C 532.054 -0.255965 -1.57534 0
M  V30 5527 C 532.254 1.24167 -1.58697 0
M  V30 5528 O 531.31 2.02398 -1.50968 0
M  V30 5529 C 532.623 -0.91466 -2.86451 0
M  V30 5530 C 534.171 -0.889253 -3.00102 0
M  V30 5531 C 534.646 -1.52769 -4.3177 0
M  V30 5532 N 536.137 -1.49253 -4.38495 0
M  V30 5533 C 536.872 -1.9558 -5.39014 0
M  V30 5534 N 536.368 -2.49929 -6.46148 0
M  V30 5535 N 538.161 -1.86432 -5.30282 0
M  V30 5536 H 530.312 -1.56604 -1.43489 0
M  V30 5537 H 532.575 -0.655207 -0.685133 0
M  V30 5538 H 532.281 -1.96861 -2.91442 0
M  V30 5539 H 532.155 -0.429356 -3.74748 0
M  V30 5540 H 534.542 0.156111 -2.94687 0
M  V30 5541 H 534.623 -1.41268 -2.13253 0
M  V30 5542 H 534.267 -2.57231 -4.37944 0
M  V30 5543 H 534.197 -0.979398 -5.17412 0
M  V30 5544 H 536.688 -1.09536 -3.61677 0
M  V30 5545 H 537.001 -2.83109 -7.19075 0
M  V30 5546 H 535.346 -2.53961 -6.46938 0
M  V30 5547 H 538.537 -1.43722 -4.4549 0
M  V30 5548 H 538.71 -2.22852 -6.08474 0
M  V30 5549 N 532.116 1.54067 -0.331816 0
M  V30 5550 C 533.527 1.86059 0.15454 0
M  V30 5551 C 533.878 1.25331 1.50952 0
M  V30 5552 O 533.003 0.562441 2.08963 0
M  V30 5553 C 533.598 3.37581 0.287192 0
M  V30 5554 C 532.157 3.69493 0.717773 0
M  V30 5555 C 531.304 2.76863 -0.155569 0
M  V30 5556 H 534.255 1.48797 -0.55182 0
M  V30 5557 H 534.276 3.63744 1.11671 0
M  V30 5558 H 533.788 3.81751 -0.699131 0
M  V30 5559 H 531.889 3.3086 1.71354 0
M  V30 5560 H 532.002 4.76315 0.5158 0
M  V30 5561 H 530.366 2.51995 0.370213 0
M  V30 5562 H 531.149 3.23861 -1.13881 0
M  V30 5563 N 533.594 0.0601682 1.57485 0
M  V30 5564 C 535.005 -0.474217 1.80577 0
M  V30 5565 C 535.356 -1.70365 0.973147 0
M  V30 5566 O 534.481 -2.15544 0.192306 0
M  V30 5567 C 535.076 -0.867102 3.27516 0
M  V30 5568 C 533.635 -1.34642 3.51495 0
M  V30 5569 C 532.782 -0.32594 2.75378 0
M  V30 5570 H 535.733 0.285973 1.56102 0
M  V30 5571 H 535.754 -1.72938 3.38929 0
M  V30 5572 H 535.266 0.0278927 3.8809 0
M  V30 5573 H 533.367 -2.2603 2.96212 0
M  V30 5574 H 533.48 -1.33237 4.60201 0
M  V30 5575 H 531.844 -0.800749 2.41785 0
M  V30 5576 H 532.627 0.561125 3.38683 0
M  V30 5577 N 535.072 -1.5615 -0.213296 0
M  V30 5578 C 536.297 -1.83986 -0.957282 0
M  V30 5579 C 536.722 -0.641526 -1.76822 0
M  V30 5580 O 536.08 0.409722 -1.7661 0
M  V30 5581 C 536.128 -3.09889 -1.84393 0
M  V30 5582 O 535.232 -2.89163 -2.94038 0
M  V30 5583 H 534.573 -0.606357 -0.270605 0
M  V30 5584 H 537.103 -2.03369 -0.224111 0
M  V30 5585 H 537.113 -3.40209 -2.25215 0
M  V30 5586 H 535.788 -3.96735 -1.24795 0
M  V30 5587 H 534.365 -2.70097 -2.57103 0
M  V30 5588 N 536.55 0.480323 -1.50102 0
M  V30 5589 C 537.961 1.06142 -1.53593 0
M  V30 5590 C 538.312 1.93335 -0.334055 0
M  V30 5591 O 537.437 2.09188 0.55403 0
M  V30 5592 C 538.032 1.9317 -2.78336 0
M  V30 5593 C 536.591 2.46405 -2.84538 0
M  V30 5594 C 535.738 1.24521 -2.4777 0
M  V30 5595 H 538.689 0.26333 -1.565 0
M  V30 5596 H 538.71 2.78123 -2.59669 0
M  V30 5597 H 538.222 1.29683 -3.65792 0
M  V30 5598 H 536.323 3.13472 -2.01411 0
M  V30 5599 H 536.436 2.82143 -3.87211 0
M  V30 5600 H 534.8 1.57706 -2.00003 0
M  V30 5601 H 535.583 0.627102 -3.37524 0
M  V30 5602 N 538.028 1.39524 0.732853 0
M  V30 5603 C 539.439 1.32905 1.31122 0
M  V30 5604 C 539.79 -0.00558708 1.96199 0
M  V30 5605 O 538.915 -0.907706 1.96443 0
M  V30 5606 C 539.51 2.40704 2.38426 0
M  V30 5607 C 538.069 2.37599 2.91931 0
M  V30 5608 C 537.216 2.2248 1.65523 0
M  V30 5609 H 540.167 1.49581 0.530207 0
M  V30 5610 H 540.188 2.07616 3.18867 0
M  V30 5611 H 539.7 3.37829 1.91033 0
M  V30 5612 H 537.801 1.44119 3.43599 0
M  V30 5613 H 537.914 3.32538 3.44899 0
M  V30 5614 H 536.278 1.69691 1.8994 0
M  V30 5615 H 537.061 3.21577 1.20178 0
M  V30 5616 N 539.506 -0.963266 1.24736 0
M  V30 5617 C 540.917 -1.52145 1.08207 0
M  V30 5618 C 541.268 -1.93142 -0.345061 0
M  V30 5619 O 540.393 -1.77769 -1.23399 0
M  V30 5620 C 540.988 -2.76486 1.95808 0
M  V30 5621 C 539.547 -3.28646 1.8349 0
M  V30 5622 C 538.694 -2.01529 1.90476 0
M  V30 5623 H 541.645 -0.781083 1.38148 0
M  V30 5624 H 541.666 -3.49986 1.49297 0
M  V30 5625 H 541.178 -2.46617 2.99669 0
M  V30 5626 H 539.279 -3.63357 0.824787 0
M  V30 5627 H 539.392 -3.97246 2.67829 0
M  V30 5628 H 537.756 -2.16442 1.34258 0
M  V30 5629 H 538.539 -1.7402 2.95926 0
M  V30 5630 N 540.985 -1.06182 -1.16461 0
M  V30 5631 C 542.213 -0.798583 -1.90867 0
M  V30 5632 C 542.628 0.646921 -1.77371 0
M  V30 5633 O 541.985 1.44279 -1.11758 0
M  V30 5634 C 542.036 -1.18258 -3.4161 0
M  V30 5635 O 541.757 -2.57135 -3.54701 0
M  V30 5636 C 543.258 -0.946917 -4.33069 0
M  V30 5637 H 540.478 -0.289603 -0.605286 0
M  V30 5638 H 543.022 -1.41515 -1.47627 0
M  V30 5639 H 541.177 -0.610562 -3.82558 0
M  V30 5640 H 541.591 -2.72477 -4.4817 0
M  V30 5641 H 543.065 -1.26523 -5.37304 0
M  V30 5642 H 543.542 0.117406 -4.39043 0
M  V30 5643 H 544.148 -1.50326 -3.97847 0
M  V30 5644 N 542.463 1.3308 -0.844243 0
M  V30 5645 C 543.688 2.02341 -0.455282 0
M  V30 5646 C 544.113 1.6308 0.93737 0
M  V30 5647 O 543.471 0.826118 1.61385 0
M  V30 5648 C 543.519 3.55743 -0.58988 0
M  V30 5649 O 542.623 4.1063 0.38166 0
M  V30 5650 H 541.964 0.637898 -0.184343 0
M  V30 5651 H 544.494 1.6986 -1.14056 0
M  V30 5652 H 544.504 4.05243 -0.473522 0
M  V30 5653 H 543.179 3.83662 -1.60549 0
M  V30 5654 H 541.756 3.72236 0.22241 0
M  V30 5655 N 543.941 0.601185 1.45683 0
M  V30 5656 C 545.169 0.100054 2.06658 0
M  V30 5657 C 545.584 -1.21285 1.44691 0
M  V30 5658 O 544.941 -1.73735 0.558772 0
M  V30 5659 C 544.992 -0.0528579 3.61461 0
M  V30 5660 O 544.713 1.20809 4.21114 0
M  V30 5661 C 546.214 -0.586193 4.39407 0
M  V30 5662 H 543.434 0.065905 0.667756 0
M  V30 5663 H 545.978 0.827101 1.87028 0
M  V30 5664 H 544.133 -0.730203 3.80456 0
M  V30 5665 H 544.547 1.03368 5.14213 0
M  V30 5666 H 546.021 -0.642297 5.4825 0
M  V30 5667 H 546.498 -1.60713 4.0874 0
M  V30 5668 H 547.104 0.0568935 4.25262 0
M  V30 5669 N 545.419 -1.53889 0.339982 0
M  V30 5670 C 546.83 -1.86139 -0.144671 0
M  V30 5671 C 547.181 -1.2613 -1.50285 0
M  V30 5672 O 546.306 -0.573515 -2.08662 0
M  V30 5673 C 546.901 -3.37728 -0.269285 0
M  V30 5674 C 545.46 -3.69868 -0.698168 0
M  V30 5675 C 544.607 -2.76777 0.170249 0
M  V30 5676 H 547.558 -1.48503 0.559704 0
M  V30 5677 H 547.579 -3.64331 -1.0974 0
M  V30 5678 H 547.091 -3.81375 0.719366 0
M  V30 5679 H 545.192 -3.31764 -1.69597 0
M  V30 5680 H 545.305 -4.76582 -0.490533 0
M  V30 5681 H 543.669 -2.52188 -0.356844 0
M  V30 5682 H 544.452 -3.23253 1.15597 0
M  V30 5683 N 546.897 -0.0685191 -1.57451 0
M  V30 5684 C 547.807 0.914677 -2.16034 0
M  V30 5685 C 548.823 1.32938 -1.12265 0
M  V30 5686 O 549.999 1.40275 -1.44516 0
M  V30 5687 C 547.064 2.16519 -2.70777 0
M  V30 5688 C 546.125 1.80721 -3.89408 0
M  V30 5689 C 545.358 2.9981 -4.41531 0
M  V30 5690 O 545.581 4.13727 -3.92666 0
M  V30 5691 O 544.515 2.79817 -5.32903 0
M  V30 5692 H 548.341 0.446364 -3.00402 0
M  V30 5693 H 545.926 0.154367 -1.486 0
M  V30 5694 H 547.808 2.89856 -3.05878 0
M  V30 5695 H 546.483 2.62454 -1.89471 0
M  V30 5696 H 545.39 1.04646 -3.59166 0
M  V30 5697 H 546.723 1.39571 -4.71997 0
M  V30 5698 N 548.375 1.56261 0.205012 0
M  V30 5699 C 549.322 1.93754 1.25411 0
M  V30 5700 C 550.292 0.796826 1.45739 0
M  V30 5701 O 551.477 1.05414 1.59036 0
M  V30 5702 C 548.617 2.27383 2.59598 0
M  V30 5703 C 547.73 3.5447 2.46931 0
M  V30 5704 C 546.865 3.77468 3.73753 0
M  V30 5705 C 545.904 4.98014 3.55877 0
M  V30 5706 N 545.041 5.17316 4.74688 0
M  V30 5707 H 549.881 2.83203 0.92737 0
M  V30 5708 H 547.418 1.40158 0.446574 0
M  V30 5709 H 549.376 2.44895 3.37761 0
M  V30 5710 H 548.006 1.41088 2.90335 0
M  V30 5711 H 547.058 3.45061 1.60116 0
M  V30 5712 H 548.37 4.42789 2.29651 0
M  V30 5713 H 547.524 3.95165 4.60358 0
M  V30 5714 H 546.263 2.87461 3.93976 0
M  V30 5715 H 545.268 4.80249 2.67657 0
M  V30 5716 H 546.493 5.8952 3.37109 0
M  V30 5717 H 544.439 4.30255 4.95194 0
M  V30 5718 H 544.356 5.99796 4.60197 0
M  V30 5719 H 545.624 5.39463 5.62672 0
M  V30 5720 N 549.853 -0.472356 1.50355 0
M  V30 5721 C 551.093 -1.23439 1.62918 0
M  V30 5722 C 551.457 -1.89284 0.321801 0
M  V30 5723 O 552.658 -2.66854 0.322852 0
M  V30 5724 C 550.929 -2.25119 2.7759 0
M  V30 5725 S 552.488 -3.10278 3.10279 0
M  V30 5726 H 549.306 -0.41911 0.574341 0
M  V30 5727 H 551.908 -0.531621 1.88133 0
M  V30 5728 H 550.612 -1.75324 3.71066 0
M  V30 5729 H 550.143 -3.00026 2.54457 0
M  V30 5730 H 552.158 -4.26257 2.54007 0
M  V30 5731 N 551.331 -1.39911 -0.725443 0
M  V30 5732 C 552.261 -1.42138 -1.85254 0
M  V30 5733 C 553.242 -0.283513 -1.67721 0
M  V30 5734 O 554.427 -0.490717 -1.87898 0
M  V30 5735 C 551.557 -1.27354 -3.23107 0
M  V30 5736 C 550.511 -2.3864 -3.55296 0
M  V30 5737 C 549.837 -2.08939 -4.92188 0
M  V30 5738 C 551.137 -3.8097 -3.57295 0
M  V30 5739 H 552.831 -2.36461 -1.83648 0
M  V30 5740 H 550.377 -1.13817 -0.882138 0
M  V30 5741 H 552.33 -1.2753 -4.01639 0
M  V30 5742 H 551.054 -0.295025 -3.25265 0
M  V30 5743 H 549.713 -2.37696 -2.79099 0
M  V30 5744 H 549.361 -1.09502 -4.90936 0
M  V30 5745 H 549.061 -2.83491 -5.14691 0
M  V30 5746 H 550.585 -2.10781 -5.73065 0
M  V30 5747 H 551.999 -3.8379 -4.25885 0
M  V30 5748 H 550.396 -4.5496 -3.9132 0
M  V30 5749 H 551.466 -4.11261 -2.5689 0
M  V30 5750 N 552.809 0.956637 -1.25245 0
M  V30 5751 C 554.034 1.74104 -1.12706 0
M  V30 5752 C 554.459 1.85436 0.315429 0
M  V30 5753 O 553.817 1.33334 1.22848 0
M  V30 5754 C 553.865 3.1338 -1.78396 0
M  V30 5755 O 552.969 3.98485 -1.06224 0
M  V30 5756 H 552.31 0.53476 -0.393609 0
M  V30 5757 H 554.84 1.19924 -1.65769 0
M  V30 5758 H 554.85 3.6385 -1.846 0
M  V30 5759 H 553.525 3.04448 -2.83345 0
M  V30 5760 H 552.102 3.56952 -1.07886 0
M  V30 5761 N 554.287 1.06798 1.15896 0
M  V30 5762 C 555.533 0.788934 1.86825 0
M  V30 5763 C 555.866 -0.683084 1.8179 0
M  V30 5764 O 555.141 -1.50086 1.23711 0
M  V30 5765 C 555.424 1.29065 3.36176 0
M  V30 5766 C 555.277 2.8268 3.49874 0
M  V30 5767 C 556.596 0.902655 4.30744 0
M  V30 5768 H 553.715 0.288066 0.678371 0
M  V30 5769 H 556.357 1.32479 1.36195 0
M  V30 5770 H 554.507 0.834806 3.79425 0
M  V30 5771 H 556.179 3.36511 3.15528 0
M  V30 5772 H 554.422 3.21157 2.91617 0
M  V30 5773 H 555.093 3.12852 4.54783 0
M  V30 5774 H 557.569 1.29535 3.95424 0
M  V30 5775 H 556.445 1.28111 5.3374 0
M  V30 5776 H 556.706 -0.191951 4.41683 0
M  V30 5777 N 555.766 -1.3263 0.851289 0
M  V30 5778 C 556.729 -2.27247 0.298541 0
M  V30 5779 C 557.729 -1.51467 -0.539847 0
M  V30 5780 O 558.919 -1.7061 -0.351843 0
M  V30 5781 C 556.051 -3.35964 -0.578004 0
M  V30 5782 H 557.244 -2.7765 1.13359 0
M  V30 5783 H 554.797 -1.43245 0.625354 0
M  V30 5784 H 555.532 -2.90823 -1.435 0
M  V30 5785 H 555.317 -3.92094 0.0220539 0
M  V30 5786 H 556.807 -4.06472 -0.957626 0
M  V30 5787 N 557.244 -0.608902 -1.45362 0
M  V30 5788 C 558.484 -0.10763 -2.04116 0
M  V30 5789 C 558.848 1.23883 -1.46686 0
M  V30 5790 O 560.049 1.83091 -1.96803 0
M  V30 5791 C 558.32 -0.0703351 -3.57331 0
M  V30 5792 S 559.879 0.369554 -4.37241 0
M  V30 5793 H 556.697 -0.0502123 -0.709225 0
M  V30 5794 H 559.299 -0.8073 -1.78053 0
M  V30 5795 H 558.003 -1.05379 -3.9664 0
M  V30 5796 H 557.534 0.651287 -3.87971 0
M  V30 5797 H 559.549 1.61878 -4.69052 0
M  V30 5798 N 558.722 1.53707 -0.348139 0
M  V30 5799 C 559.652 2.28111 0.498766 0
M  V30 5800 C 560.633 1.29851 1.09876 0
M  V30 5801 O 561.818 1.587 1.11928 0
M  V30 5802 C 558.948 3.05735 1.64753 0
M  V30 5803 C 557.902 4.11537 1.17565 0
M  V30 5804 C 557.228 4.77142 2.4133 0
M  V30 5805 C 558.528 5.21587 0.272844 0
M  V30 5806 H 560.222 2.99152 -0.121934 0
M  V30 5807 H 557.768 1.43875 -0.0600842 0
M  V30 5808 H 559.721 3.56526 2.24649 0
M  V30 5809 H 558.445 2.32354 2.2952 0
M  V30 5810 H 557.104 3.61665 0.599483 0
M  V30 5811 H 556.752 4.0035 3.04514 0
M  V30 5812 H 556.452 5.48626 2.10436 0
M  V30 5813 H 557.976 5.30719 3.01943 0
M  V30 5814 H 559.39 5.67986 0.778779 0
M  V30 5815 H 557.787 6.00074 0.0555849 0
M  V30 5816 H 558.857 4.79969 -0.689785 0
M  V30 5817 N 560.2 0.0768682 1.57412 0
M  V30 5818 C 561.477 -0.632359 1.85096 0
M  V30 5819 C 561.857 -1.87479 0.9703 0
M  V30 5820 O 561.205 -2.28469 0.0379062 0
M  V30 5821 C 561.415 -0.965174 3.35388 0
M  V30 5822 C 562.763 -1.33648 4.03018 0
M  V30 5823 O 563.787 -1.05675 3.40164 0
M  V30 5824 O 562.646 -1.85959 5.13889 0
M  V30 5825 H 559.74 -0.314574 0.764835 0
M  V30 5826 H 562.286 0.108184 1.69355 0
M  V30 5827 H 561.058 -0.0829745 3.91212 0
M  V30 5828 H 560.681 -1.76231 3.5641 0
M  V30 5829 N 561.678 -1.56367 -0.196722 0
M  V30 5830 C 562.625 -1.94417 -1.24382 0
M  V30 5831 C 563.595 -0.804543 -1.45315 0
M  V30 5832 O 564.78 -1.06256 -1.58475 0
M  V30 5833 C 561.92 -2.28757 -2.58388 0
M  V30 5834 C 561.033 -3.55775 -2.45047 0
M  V30 5835 C 560.168 -3.79445 -3.71746 0
M  V30 5836 C 559.207 -4.99894 -3.53231 0
M  V30 5837 N 558.344 -5.19826 -4.71938 0
M  V30 5838 H 563.184 -2.83691 -0.912338 0
M  V30 5839 H 560.721 -1.40392 -0.439135 0
M  V30 5840 H 562.679 -2.46682 -3.36457 0
M  V30 5841 H 561.309 -1.42625 -2.89582 0
M  V30 5842 H 560.361 -3.45905 -1.58284 0
M  V30 5843 H 561.673 -4.44 -2.27299 0
M  V30 5844 H 560.827 -3.97601 -4.58256 0
M  V30 5845 H 559.566 -2.89546 -3.92446 0
M  V30 5846 H 558.571 -4.81662 -2.65107 0
M  V30 5847 H 559.796 -5.913 -3.33978 0
M  V30 5848 H 557.742 -4.32875 -4.92905 0
M  V30 5849 H 557.659 -6.02228 -4.57009 0
M  V30 5850 H 558.927 -5.42439 -5.59803 0
M  V30 5851 N 563.156 0.464375 -1.50603 0
M  V30 5852 C 564.104 1.58224 -1.70493 0
M  V30 5853 C 565.098 1.59492 -0.570836 0
M  V30 5854 O 566.304 1.63561 -0.751517 0
M  V30 5855 H 562.679 0.525161 -0.538247 0
M  V30 5856 H 564.65 1.38613 -2.64252 0
M  V30 5857 C 563.399 2.96113 -1.82243 0
M  V30 5858 H 562.722 2.95858 -2.68901 0
M  V30 5859 H 564.162 3.73769 -2.00182 0
M  V30 5860 C 562.621 3.31946 -0.575628 0
M  V30 5861 O 563.151 4.00708 0.282152 0
M  V30 5862 N 561.357 2.87436 -0.427665 0
M  V30 5863 H 560.904 2.31652 -1.12674 0
M  V30 5864 H 560.862 3.11776 0.405379 0
M  V30 5865 N 564.634 1.40294 0.718013 0
M  V30 5866 C 565.544 1.42678 1.86226 0
M  V30 5867 C 566.56 0.319655 1.71039 0
M  V30 5868 O 567.736 0.563852 1.93346 0
M  V30 5869 C 564.801 1.2852 3.21999 0
M  V30 5870 C 563.862 2.49354 3.49458 0
M  V30 5871 C 563.095 2.35863 4.78753 0
M  V30 5872 O 563.318 1.37114 5.53675 0
M  V30 5873 O 562.252 3.25189 5.06494 0
M  V30 5874 H 566.078 2.39167 1.87171 0
M  V30 5875 H 563.663 1.2159 0.868112 0
M  V30 5876 H 565.545 1.22824 4.03103 0
M  V30 5877 H 564.22 0.351359 3.21787 0
M  V30 5878 H 563.127 2.60628 2.68373 0
M  V30 5879 H 564.46 3.41491 3.54464 0
M  V30 5880 N 566.112 -0.949982 1.2575 0
M  V30 5881 C 567.042 -2.06483 1.09028 0
M  V30 5882 C 568.023 -1.701 -0.00201532 0
M  V30 5883 O 569.208 -1.93469 0.168383 0
M  V30 5884 C 566.338 -3.39899 0.71316 0
M  V30 5885 C 565.292 -3.90309 1.75621 0
M  V30 5886 C 564.618 -5.20274 1.23365 0
M  V30 5887 C 565.918 -4.16169 3.15596 0
M  V30 5888 H 567.612 -2.20731 2.02283 0
M  V30 5889 H 565.158 -1.06066 0.973964 0
M  V30 5890 H 567.111 -4.17346 0.58309 0
M  V30 5891 H 565.835 -3.25602 -0.255091 0
M  V30 5892 H 564.494 -3.15035 1.8748 0
M  V30 5893 H 564.142 -5.02351 0.255491 0
M  V30 5894 H 563.842 -5.54971 1.93082 0
M  V30 5895 H 565.366 -6.00314 1.11607 0
M  V30 5896 H 566.78 -4.84259 3.06864 0
M  V30 5897 H 565.177 -4.62131 3.82825 0
M  V30 5898 H 566.247 -3.22273 3.6231 0
M  V30 5899 N 567.59 -1.07411 -1.15328 0
M  V30 5900 C 568.815 -0.818856 -1.90551 0
M  V30 5901 C 569.24 0.622194 -1.77512 0
M  V30 5902 O 568.598 1.43484 -1.10824 0
M  V30 5903 C 568.646 -1.23267 -3.38877 0
M  V30 5904 O 567.75 -0.378345 -4.10661 0
M  V30 5905 H 567.091 -0.29827 -0.593238 0
M  V30 5906 H 569.621 -1.43289 -1.46046 0
M  V30 5907 H 569.631 -1.20912 -3.89672 0
M  V30 5908 H 568.306 -2.28226 -3.47686 0
M  V30 5909 H 566.883 -0.464437 -3.69996 0
M  V30 5910 N 569.068 1.32177 -0.85831 0
M  V30 5911 C 570.345 1.91781 -0.384624 0
M  V30 5912 C 570.725 1.78171 1.13217 0
M  V30 5913 O 570.073 1.18209 1.95548 0
M  V30 5914 C 570.283 3.38414 -0.853047 0
M  V30 5915 C 571.631 4.15542 -0.872359 0
M  V30 5916 O 572.655 3.47148 -0.797926 0
M  V30 5917 O 571.514 5.37678 -0.978009 0
M  V30 5918 H 568.608 0.819259 -0.112886 0
M  V30 5919 H 571.154 1.40923 -0.945453 0
M  V30 5920 H 569.926 3.4228 -1.89632 0
M  V30 5921 H 569.549 3.96683 -0.269874 0
M  V30 5922 N 570.547 0.616602 1.45037 0
M  V30 5923 C 571.497 -0.118543 2.27692 0
M  V30 5924 C 572.481 -0.830025 1.37838 0
M  V30 5925 O 573.673 -0.718528 1.6176 0
M  V30 5926 C 570.802 -1.10924 3.24886 0
M  V30 5927 C 569.888 -0.398134 4.22227 0
M  V30 5928 N 570.279 0.565233 5.02632 0
M  V30 5929 C 568.577 -0.644506 4.41319 0
M  V30 5930 C 569.278 0.984043 5.73316 0
M  V30 5931 N 568.254 0.325879 5.42622 0
M  V30 5932 H 572.056 0.621239 2.87259 0
M  V30 5933 H 569.57 0.440968 1.56299 0
M  V30 5934 H 571.567 -1.65038 3.82842 0
M  V30 5935 H 570.227 -1.84948 2.66879 0
M  V30 5936 H 571.238 0.942395 5.09254 0
M  V30 5937 H 567.915 -1.36873 3.94426 0
M  V30 5938 H 569.305 1.77911 6.47918 0
M  V30 5939 N 572.025 -1.5352 0.356285 0
M  V30 5940 C 572.955 -2.28372 -0.486661 0
M  V30 5941 C 573.936 -1.30432 -1.09185 0
M  V30 5942 O 575.121 -1.59291 -1.11085 0
M  V30 5943 C 572.251 -3.06604 -1.63129 0
M  V30 5944 C 571.205 -4.12154 -1.15381 0
M  V30 5945 C 570.531 -4.78415 -2.38796 0
M  V30 5946 C 571.831 -5.21724 -0.245179 0
M  V30 5947 H 573.525 -2.99083 0.137797 0
M  V30 5948 H 571.071 -1.43841 0.0677134 0
M  V30 5949 H 573.024 -3.57712 -2.22755 0
M  V30 5950 H 571.748 -2.33568 -2.28284 0
M  V30 5951 H 570.407 -3.61978 -0.580294 0
M  V30 5952 H 570.055 -4.01959 -3.02387 0
M  V30 5953 H 569.755 -5.49734 -2.07524 0
M  V30 5954 H 571.279 -5.32313 -2.99125 0
M  V30 5955 H 572.693 -5.68391 -0.748646 0
M  V30 5956 H 571.09 -6.00095 -0.0237608 0
M  V30 5957 H 572.16 -4.79596 0.715229 0
M  V30 5958 N 573.503 -0.0852151 -1.57369 0
M  V30 5959 C 574.78 0.622534 -1.85429 0
M  V30 5960 C 575.16 1.86962 -0.980229 0
M  V30 5961 O 574.508 2.28445 -0.0500219 0
M  V30 5962 C 574.718 0.947374 -3.35896 0
M  V30 5963 C 576.066 1.31509 -4.03721 0
M  V30 5964 O 577.09 1.03869 -3.40719 0
M  V30 5965 O 575.949 1.83231 -5.14868 0
M  V30 5966 H 573.043 0.310513 -0.766492 0
M  V30 5967 H 575.589 -0.117164 -1.69295 0
M  V30 5968 H 574.361 0.0622264 -3.91251 0
M  V30 5969 H 573.984 1.74338 -3.5734 0
M  V30 5970 N 574.981 1.5647 0.188427 0
M  V30 5971 C 575.944 1.9421 1.21718 0
M  V30 5972 C 576.944 0.823901 1.38089 0
M  V30 5973 O 578.134 1.09122 1.35787 0
M  V30 5974 C 575.266 2.22197 2.58537 0
M  V30 5975 H 576.459 2.86252 0.894418 0
M  V30 5976 H 574.012 1.50263 0.430211 0
M  V30 5977 H 574.747 1.32814 2.95856 0
M  V30 5978 H 574.532 3.03688 2.48025 0
M  V30 5979 H 576.022 2.52376 3.3271 0
M  V30 5980 N 576.459 -0.456382 1.50847 0
M  V30 5981 C 577.392 -1.57177 1.65441 0
M  V30 5982 C 578.37 -1.54649 0.502224 0
M  V30 5983 O 579.554 -1.74057 0.723633 0
M  V30 5984 C 576.681 -2.95763 1.65052 0
M  V30 5985 C 575.727 -3.16389 2.86007 0
M  V30 5986 S 576.56 -2.94716 4.47105 0
M  V30 5987 C 577.716 -4.35617 4.49432 0
M  V30 5988 H 577.949 -1.44561 2.59787 0
M  V30 5989 H 575.482 -0.644758 1.40293 0
M  V30 5990 H 577.44 -3.75654 1.65512 0
M  V30 5991 H 576.101 -3.05756 0.719153 0
M  V30 5992 H 575.294 -4.17667 2.82081 0
M  V30 5993 H 574.896 -2.44293 2.8319 0
M  V30 5994 H 577.188 -5.28503 4.239 0
M  V30 5995 H 578.131 -4.44582 5.51137 0
M  V30 5996 H 578.539 -4.18382 3.78967 0
M  V30 5997 N 577.937 -1.40673 -0.710563 0
M  V30 5998 C 579.214 -1.29718 -1.46398 0
M  V30 5999 C 579.594 0.082177 -2.1094 0
M  V30 6000 O 578.942 1.09536 -2.00534 0
M  V30 6001 C 579.152 -2.43967 -2.49562 0
M  V30 6002 C 580.5 -2.84436 -3.15248 0
M  V30 6003 O 581.524 -2.43597 -2.59883 0
M  V30 6004 O 580.383 -3.55008 -4.1549 0
M  V30 6005 H 577.477 -0.509697 -0.651258 0
M  V30 6006 H 580.023 -1.52603 -0.742312 0
M  V30 6007 H 578.795 -3.36076 -2.0042 0
M  V30 6008 H 578.418 -2.22879 -3.29258 0
M  V30 6009 N 579.415 0.9433 -1.26252 0
M  V30 6010 C 580.64 1.72898 -1.14547 0
M  V30 6011 C 581.065 1.85761 0.295743 0
M  V30 6012 O 580.423 1.3463 1.21427 0
M  V30 6013 C 580.471 3.11471 -1.8171 0
M  V30 6014 O 579.575 3.97336 -1.10445 0
M  V30 6015 H 578.916 0.530555 -0.399259 0
M  V30 6016 H 581.446 1.18159 -1.67032 0
M  V30 6017 H 581.456 3.61872 -1.88449 0
M  V30 6018 H 580.131 3.01425 -2.86558 0
M  V30 6019 H 578.708 3.55788 -1.11666 0
M  V30 6020 N 580.893 1.08022 1.14757 0
M  V30 6021 C 581.841 0.701088 2.21783 0
M  V30 6022 C 582.835 -0.291311 1.66876 0
M  V30 6023 O 584.041 -0.154296 1.79337 0
M  V30 6024 H 580.416 0.208668 0.722469 0
M  V30 6025 H 582.387 1.61321 2.51034 0
M  V30 6026 C 581.136 0.122278 3.47485 0
M  V30 6027 H 580.459 0.877065 3.90061 0
M  V30 6028 H 581.899 -0.105248 4.23869 0
M  V30 6029 C 580.358 -1.13883 3.17068 0
M  V30 6030 O 580.888 -2.22429 3.34497 0
M  V30 6031 N 579.094 -1.04767 2.71058 0
M  V30 6032 H 578.641 -0.164302 2.57075 0
M  V30 6033 H 578.599 -1.89224 2.51081 0
M  V30 6034 N 582.371 -1.3172 0.865308 0
M  V30 6035 C 583.301 -2.31109 0.333302 0
M  V30 6036 C 584.282 -1.60148 -0.573301 0
M  V30 6037 O 585.467 -1.87882 -0.491305 0
M  V30 6038 C 582.597 -3.44104 -0.470078 0
M  V30 6039 C 581.551 -4.26623 0.343021 0
M  V30 6040 C 580.877 -5.31482 -0.585756 0
M  V30 6041 C 582.177 -4.98001 1.57456 0
M  V30 6042 H 583.871 -2.75855 1.1638 0
M  V30 6043 H 581.417 -1.3262 0.561069 0
M  V30 6044 H 583.37 -4.12682 -0.852752 0
M  V30 6045 H 582.094 -2.98112 -1.33404 0
M  V30 6046 H 580.753 -3.59707 0.707583 0
M  V30 6047 H 580.401 -4.81741 -1.44686 0
M  V30 6048 H 580.101 -5.87582 -0.0456494 0
M  V30 6049 H 581.625 -6.0292 -0.965375 0
M  V30 6050 H 583.039 -5.59201 1.26359 0
M  V30 6051 H 581.436 -5.63876 2.05339 0
M  V30 6052 H 582.506 -4.25253 2.32997 0
M  V30 6053 N 583.85 -0.624285 -1.44708 0
M  V30 6054 C 585.127 -0.0572781 -1.95516 0
M  V30 6055 C 585.507 1.41516 -1.56641 0
M  V30 6056 O 584.855 2.12614 -0.837111 0
M  V30 6057 C 585.065 -0.272944 -3.47931 0
M  V30 6058 C 586.413 -0.162529 -4.24289 0
M  V30 6059 O 587.437 -0.203946 -3.55616 0
M  V30 6060 O 586.296 -0.0616847 -5.46465 0
M  V30 6061 H 583.389 0.0262219 -0.826584 0
M  V30 6062 H 585.936 -0.695512 -1.54793 0
M  V30 6063 H 584.707 -1.29492 -3.69253 0
M  V30 6064 H 584.331 0.399756 -3.95585 0
M  V30 6065 N 585.328 1.53329 -0.364422 0
M  V30 6066 C 586.276 2.27212 0.497737 0
M  V30 6067 C 587.27 1.30146 1.08437 0
M  V30 6068 O 588.476 1.47778 1.0277 0
M  V30 6069 H 584.851 0.730329 0.179232 0
M  V30 6070 H 586.822 2.98037 -0.147182 0
M  V30 6071 C 585.571 3.07333 1.6261 0
M  V30 6072 H 584.894 3.81866 1.184 0
M  V30 6073 H 586.334 3.62209 2.20409 0
M  V30 6074 C 584.793 2.18102 2.56775 0
M  V30 6075 O 585.323 1.79104 3.59562 0
M  V30 6076 N 583.529 1.82759 2.25937 0
M  V30 6077 H 583.076 2.14671 1.42387 0
M  V30 6078 H 583.034 1.23342 2.89196 0
M  V30 6079 N 586.806 0.0935595 1.57322 0
M  V30 6080 C 587.736 -0.863062 2.16964 0
M  V30 6081 C 588.717 -1.29528 1.10256 0
M  V30 6082 O 589.902 -1.36245 1.38387 0
M  V30 6083 C 587.032 -2.12276 2.74875 0
M  V30 6084 C 585.986 -1.82921 3.86942 0
M  V30 6085 C 585.312 -3.15707 4.31548 0
M  V30 6086 C 586.612 -1.11737 5.10208 0
M  V30 6087 H 588.306 -0.366145 2.97153 0
M  V30 6088 H 585.852 -0.174673 1.42937 0
M  V30 6089 H 587.805 -2.79634 3.1525 0
M  V30 6090 H 586.529 -2.64248 1.91938 0
M  V30 6091 H 585.188 -1.17961 3.47103 0
M  V30 6092 H 584.836 -3.65563 3.45504 0
M  V30 6093 H 584.536 -2.96849 5.07104 0
M  V30 6094 H 586.06 -3.84226 4.74555 0
M  V30 6095 H 587.474 -1.69203 5.47762 0
M  V30 6096 H 585.871 -1.03064 5.91183 0
M  V30 6097 H 586.941 -0.0998818 4.84797 0
M  V30 6098 N 588.284 -1.56567 -0.180126 0
M  V30 6099 C 589.216 -1.92275 -1.24751 0
M  V30 6100 C 590.229 -0.814922 -1.40936 0
M  V30 6101 O 591.418 -1.09336 -1.41095 0
M  V30 6102 C 588.518 -2.15265 -2.61752 0
M  V30 6103 C 587.691 -3.46467 -2.66981 0
M  V30 6104 C 586.75 -3.58391 -3.85283 0
M  V30 6105 O 585.776 -4.31086 -3.7169 0
M  V30 6106 N 586.978 -2.92587 -5.01371 0
M  V30 6107 H 589.743 -2.84435 -0.944302 0
M  V30 6108 H 587.304 -1.57617 -0.369952 0
M  V30 6109 H 589.296 -2.20515 -3.39345 0
M  V30 6110 H 587.866 -1.29533 -2.845 0
M  V30 6111 H 587.086 -3.52953 -1.75549 0
M  V30 6112 H 588.374 -4.32819 -2.67479 0
M  V30 6113 H 587.772 -2.3338 -5.15316 0
M  V30 6114 H 586.329 -3.03444 -5.76858 0
M  V30 6115 N 589.762 0.448376 -1.51087 0
M  V30 6116 C 590.99 1.22143 -1.66999 0
M  V30 6117 C 591.405 1.85283 -0.362699 0
M  V30 6118 O 590.762 1.70236 0.65772 0
M  V30 6119 C 590.813 2.31357 -2.7777 0
M  V30 6120 O 590.534 1.70801 -4.03434 0
M  V30 6121 C 592.035 3.21836 -3.04855 0
M  V30 6122 H 589.255 0.368558 -0.560719 0
M  V30 6123 H 591.799 0.532618 -1.97442 0
M  V30 6124 H 589.954 2.95973 -2.49958 0
M  V30 6125 H 590.368 2.42895 -4.64868 0
M  V30 6126 H 591.842 3.94627 -3.85971 0
M  V30 6127 H 592.319 3.81949 -2.16821 0
M  V30 6128 H 592.925 2.62933 -3.34285 0
M  V30 6129 N 591.24 1.41047 0.703093 0
M  V30 6130 C 592.173 1.36713 1.82715 0
M  V30 6131 C 593.151 0.235533 1.60885 0
M  V30 6132 O 594.335 0.421227 1.83733 0
M  V30 6133 C 591.462 1.13069 3.1927 0
M  V30 6134 C 590.508 2.28846 3.59905 0
M  V30 6135 S 591.341 3.91297 3.65578 0
M  V30 6136 C 592.497 3.69941 5.04871 0
M  V30 6137 H 592.73 2.31838 1.86114 0
M  V30 6138 H 590.263 1.27481 0.871083 0
M  V30 6139 H 592.221 1.00113 3.98105 0
M  V30 6140 H 590.882 0.195763 3.13489 0
M  V30 6141 H 590.075 2.07977 4.59088 0
M  V30 6142 H 589.677 2.3817 2.88359 0
M  V30 6143 H 591.969 3.29181 5.92154 0
M  V30 6144 H 592.912 4.68699 5.30779 0
M  V30 6145 H 593.32 3.03369 4.76054 0
M  V30 6146 N 592.718 -0.936591 1.26751 0
M  V30 6147 C 593.648 -2.05315 1.11212 0
M  V30 6148 C 594.629 -1.70092 0.0160262 0
M  V30 6149 O 595.814 -1.93279 0.188894 0
M  V30 6150 C 592.944 -3.39123 0.749171 0
M  V30 6151 C 591.898 -3.88425 1.79751 0
M  V30 6152 C 591.224 -5.18936 1.28876 0
M  V30 6153 C 592.524 -4.12798 3.19992 0
M  V30 6154 H 594.218 -2.18573 2.04613 0
M  V30 6155 H 591.764 -1.05027 0.985159 0
M  V30 6156 H 593.717 -4.16704 0.627323 0
M  V30 6157 H 592.441 -3.25855 -0.220543 0
M  V30 6158 H 591.1 -3.13028 1.90811 0
M  V30 6159 H 590.748 -5.02051 0.308757 0
M  V30 6160 H 590.448 -5.52892 1.98958 0
M  V30 6161 H 591.972 -5.99096 1.17967 0
M  V30 6162 H 593.386 -4.80977 3.11983 0
M  V30 6163 H 591.783 -4.58044 3.87705 0
M  V30 6164 H 592.853 -3.18412 3.65707 0
M  V30 6165 N 594.196 -1.08629 -1.14182 0
M  V30 6166 C 595.421 -0.83902 -1.89671 0
M  V30 6167 C 595.846 0.603332 -1.78161 0
M  V30 6168 O 595.204 1.42301 -1.12339 0
M  V30 6169 C 595.252 -1.26854 -3.37551 0
M  V30 6170 O 594.356 -0.42188 -4.10236 0
M  V30 6171 H 593.697 -0.304545 -0.590041 0
M  V30 6172 H 596.227 -1.4483 -1.44518 0
M  V30 6173 H 596.237 -1.25038 -3.88368 0
M  V30 6174 H 594.912 -2.31901 -3.45246 0
M  V30 6175 H 593.489 -0.503654 -3.69483 0
M  V30 6176 N 595.674 1.31259 -0.872281 0
M  V30 6177 C 596.899 2.0133 -0.498099 0
M  V30 6178 C 597.324 1.65031 0.902568 0
M  V30 6179 O 596.682 0.860164 1.59596 0
M  V30 6180 C 596.73 3.54411 -0.665205 0
M  V30 6181 O 595.834 4.11347 0.294473 0
M  V30 6182 H 595.175 0.633844 -0.197832 0
M  V30 6183 H 597.705 1.67402 -1.17633 0
M  V30 6184 H 597.715 4.04147 -0.559373 0
M  V30 6185 H 596.39 3.80171 -1.68651 0
M  V30 6186 H 594.967 3.72624 0.143403 0
M  V30 6187 N 597.152 0.631951 1.44375 0
M  V30 6188 C 598.102 -0.0943862 2.27805 0
M  V30 6189 C 599.086 -0.815359 1.38711 0
M  V30 6190 O 600.278 -0.701331 1.62513 0
M  V30 6191 C 597.407 -1.07472 3.26044 0
M  V30 6192 C 596.493 -0.353329 4.22626 0
M  V30 6193 N 596.884 0.618512 5.02004 0
M  V30 6194 C 595.182 -0.597662 4.41977 0
M  V30 6195 C 595.883 1.0448 5.7224 0
M  V30 6196 N 594.859 0.383413 5.42246 0
M  V30 6197 H 598.661 0.651672 2.86584 0
M  V30 6198 H 596.175 0.45752 1.55822 0
M  V30 6199 H 598.172 -1.60969 3.84571 0
M  V30 6200 H 596.832 -1.82107 2.68825 0
M  V30 6201 H 597.843 0.996356 5.08226 0
M  V30 6202 H 594.52 -1.32682 3.95856 0
M  V30 6203 H 595.91 1.84773 6.45994 0
M  V30 6204 N 598.631 -1.53133 0.372548 0
M  V30 6205 C 599.879 -2.00958 -0.214534 0
M  V30 6206 C 600.2 -1.26135 -1.48711 0
M  V30 6207 O 599.47 -0.376597 -1.92246 0
M  V30 6208 H 598.05 -0.742456 -0.0822664 0
M  V30 6209 H 600.712 -1.88367 0.500385 0
M  V30 6210 H 599.808 -3.09031 -0.436605 0
M  V30 6211 N 600.109 -0.101901 -1.5727 0
M  V30 6212 C 601.356 0.560197 -1.94597 0
M  V30 6213 C 601.684 1.67767 -0.984101 0
M  V30 6214 O 600.939 1.95699 -0.00489193 0
M  V30 6215 C 601.238 1.14898 -3.38427 0
M  V30 6216 C 600.904 0.154613 -4.50635 0
M  V30 6217 C 599.566 -0.118861 -4.81053 0
M  V30 6218 C 601.918 -0.523979 -5.18559 0
M  V30 6219 C 599.246 -1.0775 -5.76721 0
M  V30 6220 C 601.598 -1.47114 -6.15256 0
M  V30 6221 C 600.262 -1.75278 -6.44076 0
M  V30 6222 H 599.532 0.204991 -0.712081 0
M  V30 6223 H 602.179 -0.17918 -1.9066 0
M  V30 6224 H 600.484 1.96476 -3.38976 0
M  V30 6225 H 602.181 1.66909 -3.64613 0
M  V30 6226 H 598.771 0.377948 -4.2693 0
M  V30 6227 H 602.955 -0.325851 -4.95229 0
M  V30 6228 H 598.211 -1.30263 -5.97362 0
M  V30 6229 H 602.385 -2.00274 -6.66981 0
M  V30 6230 H 600.012 -2.49717 -7.18015 0
M  V30 6231 N 601.587 1.56661 0.17182 0
M  V30 6232 C 602.812 1.86459 0.908165 0
M  V30 6233 C 603.237 0.688181 1.75059 0
M  V30 6234 O 602.595 -0.362753 1.77634 0
M  V30 6235 C 602.643 3.14669 1.76112 0
M  V30 6236 O 601.747 2.96858 2.86268 0
M  V30 6237 H 601.088 0.613318 0.254434 0
M  V30 6238 H 603.618 2.03892 0.170113 0
M  V30 6239 H 603.628 3.46061 2.16115 0
M  V30 6240 H 602.303 3.99905 1.14233 0
M  V30 6241 H 600.88 2.76819 2.49852 0
M  V30 6242 N 603.065 -0.440357 1.51323 0
M  V30 6243 C 604.311 -1.19181 1.64085 0
M  V30 6244 C 604.644 -1.90936 0.354575 0
M  V30 6245 O 603.919 -1.8347 -0.645675 0
M  V30 6246 C 604.202 -2.2112 2.84215 0
M  V30 6247 C 604.055 -1.53468 4.22809 0
M  V30 6248 C 605.374 -3.22133 2.99864 0
M  V30 6249 H 602.493 -0.431924 0.597169 0
M  V30 6250 H 605.135 -0.481443 1.83799 0
M  V30 6251 H 603.285 -2.81703 2.67537 0
M  V30 6252 H 604.957 -0.962455 4.51148 0
M  V30 6253 H 603.2 -0.837086 4.25647 0
M  V30 6254 H 603.871 -2.27694 5.02852 0
M  V30 6255 H 606.347 -2.71601 3.15233 0
M  V30 6256 H 605.223 -3.90756 3.85488 0
M  V30 6257 H 605.484 -3.88061 2.11804 0
M  V30 6258 N 604.543 -1.41418 -0.695603 0
M  V30 6259 C 605.82 -1.31264 -1.45014 0
M  V30 6260 C 606.2 0.0597994 -2.11015 0
M  V30 6261 O 605.548 1.07403 -2.01685 0
M  V30 6262 C 605.758 -2.466 -2.4696 0
M  V30 6263 C 607.106 -2.87763 -3.12214 0
M  V30 6264 O 608.13 -2.46339 -2.57285 0
M  V30 6265 O 606.989 -3.59395 -4.11701 0
M  V30 6266 H 604.083 -0.516576 -0.645816 0
M  V30 6267 H 606.629 -1.53382 -0.726084 0
M  V30 6268 H 605.401 -3.38183 -1.96845 0
M  V30 6269 H 605.024 -2.26358 -3.26876 0
M  V30 6270 N 606.021 0.929856 -1.27246 0
M  V30 6271 C 607.249 1.71144 -1.16265 0
M  V30 6272 C 607.664 1.867 0.280786 0
M  V30 6273 O 607.021 1.38249 1.19136 0
M  V30 6274 C 607.072 3.11222 -1.83911 0
M  V30 6275 O 606.793 2.96398 -3.22614 0
M  V30 6276 C 608.294 4.05541 -1.79028 0
M  V30 6277 H 605.514 0.535499 -0.404328 0
M  V30 6278 H 608.058 1.16492 -1.68077 0
M  V30 6279 H 606.213 3.6274 -1.36009 0
M  V30 6280 H 606.627 3.8494 -3.56261 0
M  V30 6281 H 608.101 5.01351 -2.30978 0
M  V30 6282 H 608.578 4.32589 -0.759168 0
M  V30 6283 H 609.184 3.59947 -2.26535 0
M  V30 6284 N 607.499 1.09233 1.13605 0
M  V30 6285 C 608.724 0.849067 1.89224 0
M  V30 6286 C 609.149 -0.593875 1.78479 0
M  V30 6287 O 608.507 -1.41703 1.13092 0
M  V30 6288 C 608.555 1.28642 3.36873 0
M  V30 6289 O 607.659 0.44363 4.10007 0
M  V30 6290 H 607 0.30767 0.588417 0
M  V30 6291 H 609.53 1.45595 1.43748 0
M  V30 6292 H 609.54 1.27096 3.87699 0
M  V30 6293 H 608.215 2.33729 3.44011 0
M  V30 6294 H 606.792 0.523241 3.69211 0
M  V30 6295 N 608.977 -1.30795 0.87923 0
M  V30 6296 C 609.94 -2.26563 0.346676 0
M  V30 6297 C 610.94 -1.52578 -0.507597 0
M  V30 6298 O 612.13 -1.71318 -0.315575 0
M  V30 6299 C 609.262 -3.37115 -0.506611 0
M  V30 6300 H 610.455 -2.75183 1.19223 0
M  V30 6301 H 608.008 -1.41886 0.655598 0
M  V30 6302 H 608.743 -2.93802 -1.37299 0
M  V30 6303 H 608.528 -3.91959 0.105218 0
M  V30 6304 H 610.018 -4.08412 -0.871192 0
M  V30 6305 N 610.455 -0.639598 -1.44038 0
M  V30 6306 C 611.385 0.0469443 -2.33453 0
M  V30 6307 C 612.366 0.82609 -1.48694 0
M  V30 6308 O 613.551 0.790285 -1.77393 0
M  V30 6309 C 610.681 1.02338 -3.3188 0
M  V30 6310 C 609.635 0.355284 -4.26523 0
M  V30 6311 C 608.961 1.44221 -5.14883 0
M  V30 6312 C 610.261 -0.743798 -5.16977 0
M  V30 6313 H 611.955 -0.699735 -2.91108 0
M  V30 6314 H 609.501 -0.337946 -1.39978 0
M  V30 6315 H 611.454 1.51247 -3.93322 0
M  V30 6316 H 610.178 1.80105 -2.72451 0
M  V30 6317 H 608.837 -0.113239 -3.66425 0
M  V30 6318 H 608.485 2.21097 -4.51802 0
M  V30 6319 H 608.185 1.00052 -5.79019 0
M  V30 6320 H 609.709 1.93295 -5.79197 0
M  V30 6321 H 611.123 -0.337444 -5.72306 0
M  V30 6322 H 609.52 -1.10914 -5.89761 0
M  V30 6323 H 610.59 -1.60745 -4.57481 0
M  V30 6324 N 611.933 1.52934 -0.380664 0
M  V30 6325 C 612.863 2.29118 0.450268 0
M  V30 6326 C 613.844 1.32153 1.07096 0
M  V30 6327 O 615.029 1.61038 1.08537 0
M  V30 6328 C 612.159 3.09161 1.58231 0
M  V30 6329 C 611.113 4.13938 1.0881 0
M  V30 6330 C 610.439 4.82153 2.31155 0
M  V30 6331 C 611.739 5.22048 0.162146 0
M  V30 6332 H 613.433 2.98826 -0.185361 0
M  V30 6333 H 610.979 1.43715 -0.0905886 0
M  V30 6334 H 612.932 3.61211 2.17036 0
M  V30 6335 H 611.656 2.3717 2.2454 0
M  V30 6336 H 610.315 3.62855 0.522633 0
M  V30 6337 H 609.963 4.06719 2.95953 0
M  V30 6338 H 609.663 5.52966 1.98752 0
M  V30 6339 H 611.187 5.37004 2.90618 0
M  V30 6340 H 612.601 5.6951 0.658126 0
M  V30 6341 H 610.998 6.00057 -0.0717122 0
M  V30 6342 H 612.068 4.78398 -0.791438 0
M  V30 6343 N 613.412 0.11024 1.57214 0
M  V30 6344 C 614.689 -0.592956 1.86396 0
M  V30 6345 C 615.069 -1.85379 1.00985 0
M  V30 6346 O 614.417 -2.28337 0.0863592 0
M  V30 6347 C 614.627 -0.893816 3.3736 0
M  V30 6348 C 615.975 -1.25069 4.05762 0
M  V30 6349 O 616.999 -0.984356 3.42329 0
M  V30 6350 O 615.858 -1.75017 5.17718 0
M  V30 6351 H 612.952 -0.29828 0.771335 0
M  V30 6352 H 615.498 0.144083 1.69087 0
M  V30 6353 H 614.27 2.6031e-05 3.913 0
M  V30 6354 H 613.893 -1.68631 3.60068 0
M  V30 6355 N 614.89 -1.56749 -0.16351 0
M  V30 6356 C 615.82 -2.00042 -1.20438 0
M  V30 6357 C 616.801 -0.877256 -1.45733 0
M  V30 6358 O 617.986 -1.1439 -1.56935 0
M  V30 6359 C 615.116 -2.36697 -2.54149 0
M  V30 6360 C 614.07 -3.52046 -2.43408 0
M  V30 6361 C 613.396 -3.74466 -3.81679 0
M  V30 6362 C 614.696 -4.85247 -1.93216 0
M  V30 6363 H 616.39 -2.87244 -0.844477 0
M  V30 6364 H 613.936 -1.38194 -0.40478 0
M  V30 6365 H 615.889 -2.65582 -3.27176 0
M  V30 6366 H 614.613 -1.46414 -2.91943 0
M  V30 6367 H 613.272 -3.23301 -1.72834 0
M  V30 6368 H 612.92 -2.81461 -4.1688 0
M  V30 6369 H 612.62 -4.52084 -3.75359 0
M  V30 6370 H 614.144 -4.0576 -4.5628 0
M  V30 6371 H 615.558 -5.12957 -2.56023 0
M  V30 6372 H 613.955 -5.66556 -1.97825 0
M  V30 6373 H 615.025 -4.7672 -0.88689 0
M  V30 6374 N 616.368 0.432326 -1.51554 0
M  V30 6375 C 617.615 1.18134 -1.64471 0
M  V30 6376 C 617.943 1.91076 -0.363349 0
M  V30 6377 O 617.198 1.84492 0.65279 0
M  V30 6378 C 617.497 2.21907 -2.80164 0
M  V30 6379 C 617.163 1.65941 -4.19255 0
M  V30 6380 C 615.825 1.50401 -4.57092 0
M  V30 6381 C 618.177 1.24843 -5.06027 0
M  V30 6382 C 615.505 0.922443 -5.79403 0
M  V30 6383 C 617.857 0.68113 -6.28922 0
M  V30 6384 C 616.521 0.512673 -6.65528 0
M  V30 6385 H 615.791 0.432283 -0.601841 0
M  V30 6386 H 618.438 0.471701 -1.856 0
M  V30 6387 H 616.743 2.98928 -2.53277 0
M  V30 6388 H 618.44 2.79691 -2.87357 0
M  V30 6389 H 615.03 1.79014 -3.89425 0
M  V30 6390 H 619.214 1.35667 -4.77397 0
M  V30 6391 H 614.47 0.779733 -6.06408 0
M  V30 6392 H 618.644 0.35418 -6.95499 0
M  V30 6393 H 616.271 0.0599084 -7.60176 0
M  V30 6394 N 617.846 1.41785 0.688094 0
M  V30 6395 C 619.071 1.45117 1.48175 0
M  V30 6396 C 619.496 0.060129 1.88004 0
M  V30 6397 O 618.854 -0.938385 1.55126 0
M  V30 6398 C 618.902 2.37224 2.71583 0
M  V30 6399 O 618.006 1.83443 3.69354 0
M  V30 6400 H 617.347 0.492208 0.445676 0
M  V30 6401 H 619.877 1.86329 0.845145 0
M  V30 6402 H 619.887 2.53353 3.19806 0
M  V30 6403 H 618.562 3.38293 2.41931 0
M  V30 6404 H 617.139 1.76802 3.28322 0
M  V30 6405 N 619.324 -0.923095 1.27737 0
M  V30 6406 C 620.735 -1.48626 1.12993 0
M  V30 6407 C 621.086 -1.94142 -0.283439 0
M  V30 6408 O 620.211 -1.81605 -1.17681 0
M  V30 6409 C 620.806 -2.70117 2.04505 0
M  V30 6410 C 619.365 -3.22642 1.93853 0
M  V30 6411 C 618.512 -1.95368 1.96791 0
M  V30 6412 H 621.463 -0.736737 1.40563 0
M  V30 6413 H 621.484 -3.4506 1.60356 0
M  V30 6414 H 620.996 -2.36959 3.07363 0
M  V30 6415 H 619.097 -3.60549 0.939968 0
M  V30 6416 H 619.21 -3.88525 2.80331 0
M  V30 6417 H 617.574 -2.12061 1.41076 0
M  V30 6418 H 618.357 -1.64517 3.01312 0
M  V30 6419 N 620.802 -1.09834 -1.13024 0
M  V30 6420 C 622.027 -0.85909 -1.88771 0
M  V30 6421 C 622.452 0.584402 -1.78791 0
M  V30 6422 O 621.81 1.41101 -1.13842 0
M  V30 6423 C 621.858 -1.30427 -3.36186 0
M  V30 6424 O 620.962 -0.465368 -4.09766 0
M  V30 6425 H 620.303 -0.310786 -0.586778 0
M  V30 6426 H 622.833 -1.46355 -1.42973 0
M  V30 6427 H 622.843 -1.2915 -3.8702 0
M  V30 6428 H 621.518 -2.3555 -3.42767 0
M  V30 6429 H 620.095 -0.542814 -3.68928 0
M  V30 6430 N 622.28 1.30327 -0.886154 0
M  V30 6431 C 623.526 1.96388 -0.505941 0
M  V30 6432 C 623.859 1.69784 0.942712 0
M  V30 6433 O 623.134 1.00322 1.6663 0
M  V30 6434 C 623.417 3.51488 -0.782826 0
M  V30 6435 C 623.27 3.87603 -2.28219 0
M  V30 6436 C 624.589 4.39331 -0.260128 0
M  V30 6437 H 621.708 0.713327 -0.185292 0
M  V30 6438 H 624.35 1.54178 -1.11036 0
M  V30 6439 H 622.5 3.87572 -0.268399 0
M  V30 6440 H 624.172 3.61537 -2.86512 0
M  V30 6441 H 622.415 3.3563 -2.74837 0
M  V30 6442 H 623.086 4.95806 -2.42653 0
M  V30 6443 H 625.562 4.10162 -0.700444 0
M  V30 6444 H 624.438 5.46769 -0.483179 0
M  V30 6445 H 624.699 4.34072 0.838674 0
M  V30 6446 N 623.758 0.647228 1.43697 0
M  V30 6447 C 624.986 0.16575 2.06235 0
M  V30 6448 C 625.401 -1.1662 1.48476 0
M  V30 6449 O 624.758 -1.7187 0.613762 0
M  V30 6450 C 624.809 0.0621651 3.61447 0
M  V30 6451 O 624.53 1.34146 4.17057 0
M  V30 6452 C 626.031 -0.446102 4.4105 0
M  V30 6453 H 623.251 0.0871158 0.665321 0
M  V30 6454 H 625.795 0.886183 1.84301 0
M  V30 6455 H 623.95 -0.608794 3.82587 0
M  V30 6456 H 624.364 1.19675 5.10664 0
M  V30 6457 H 625.838 -0.46755 5.50016 0
M  V30 6458 H 626.315 -1.47627 4.13646 0
M  V30 6459 H 626.921 0.192159 4.24866 0
M  V30 6460 N 625.236 -1.5273 0.388769 0
M  V30 6461 C 626.482 -2.01871 -0.193877 0
M  V30 6462 C 626.815 -1.27475 -1.46505 0
M  V30 6463 O 626.09 -0.375063 -1.90849 0
M  V30 6464 C 626.373 -3.5712 -0.462336 0
M  V30 6465 C 626.226 -4.42186 0.824091 0
M  V30 6466 C 627.545 -4.21881 -1.25319 0
M  V30 6467 H 624.664 -0.733764 -0.0689899 0
M  V30 6468 H 627.306 -1.82796 0.518231 0
M  V30 6469 H 625.456 -3.73504 -1.06896 0
M  V30 6470 H 627.128 -4.37554 1.46096 0
M  V30 6471 H 625.371 -4.09219 1.43952 0
M  V30 6472 H 626.042 -5.48828 0.590905 0
M  V30 6473 H 628.518 -4.0947 -0.73981 0
M  V30 6474 H 627.394 -5.30487 -1.40977 0
M  V30 6475 H 627.655 -3.79478 -2.26824 0
M  V30 6476 N 626.714 -0.118576 -1.57153 0
M  V30 6477 C 628.125 0.40687 -1.82213 0
M  V30 6478 C 628.476 1.66636 -1.03571 0
M  V30 6479 O 627.601 2.14682 -0.272171 0
M  V30 6480 C 628.196 0.744949 -3.30509 0
M  V30 6481 C 626.755 1.21503 -3.5625 0
M  V30 6482 C 625.902 0.223511 -2.76398 0
M  V30 6483 H 628.853 -0.343712 -1.54933 0
M  V30 6484 H 628.874 1.6024 -3.45114 0
M  V30 6485 H 628.386 -0.171911 -3.87719 0
M  V30 6486 H 626.487 2.1488 -3.04396 0
M  V30 6487 H 626.6 1.16065 -4.64829 0
M  V30 6488 H 624.964 0.71046 -2.44591 0
M  V30 6489 H 625.747 -0.686439 -3.36367 0
M  V30 6490 N 628.193 1.56834 0.155195 0
M  V30 6491 C 629.47 1.73799 0.897395 0
M  V30 6492 C 629.85 0.684379 1.99698 0
M  V30 6493 O 629.198 -0.298111 2.26547 0
M  V30 6494 C 629.408 3.17572 1.44737 0
M  V30 6495 C 630.756 3.79014 1.91399 0
M  V30 6496 O 631.78 3.20951 1.54496 0
M  V30 6497 O 630.639 4.80998 2.59429 0
M  V30 6498 H 627.733 0.710329 0.423511 0
M  V30 6499 H 630.279 1.69107 0.141761 0
M  V30 6500 H 629.051 3.85749 0.656741 0
M  V30 6501 H 628.674 3.26657 2.26674 0
M  V30 6502 N 629.671 -0.424282 1.51781 0
M  V30 6503 C 630.604 -1.53633 1.68737 0
M  V30 6504 C 631.582 -1.53549 0.534915 0
M  V30 6505 O 632.766 -1.72483 0.760391 0
M  V30 6506 C 629.893 -2.92195 1.71288 0
M  V30 6507 C 628.939 -3.10251 2.92654 0
M  V30 6508 S 629.772 -2.85166 4.53256 0
M  V30 6509 C 630.928 -4.25986 4.58571 0
M  V30 6510 H 631.161 -1.39018 2.62795 0
M  V30 6511 H 628.694 -0.614854 1.41629 0
M  V30 6512 H 630.652 -3.72059 1.73443 0
M  V30 6513 H 629.313 -3.04162 0.783847 0
M  V30 6514 H 628.506 -4.1159 2.90877 0
M  V30 6515 H 628.108 -2.38231 2.88308 0
M  V30 6516 H 630.4 -5.19392 4.35015 0
M  V30 6517 H 631.343 -4.32792 5.60444 0
M  V30 6518 H 631.751 -4.1025 3.87757 0
M  V30 6519 N 631.149 -1.42148 -0.680565 0
M  V30 6520 C 632.374 -1.45901 -1.47403 0
M  V30 6521 C 632.799 -0.0700985 -1.87969 0
M  V30 6522 O 632.157 0.930145 -1.55621 0
M  V30 6523 C 632.205 -2.38661 -2.70321 0
M  V30 6524 O 631.309 -1.85399 -3.68376 0
M  V30 6525 H 630.65 -0.494565 -0.443059 0
M  V30 6526 H 633.18 -1.86774 -0.835251 0
M  V30 6527 H 633.19 -2.55046 -3.18458 0
M  V30 6528 H 631.865 -3.39571 -2.40134 0
M  V30 6529 H 630.442 -1.78541 -3.2738 0
M  V30 6530 N 632.627 0.916307 -1.28225 0
M  V30 6531 C 633.557 2.0352 -1.14464 0
M  V30 6532 C 634.538 1.70045 -0.0430844 0
M  V30 6533 O 635.723 1.92954 -0.219619 0
M  V30 6534 C 632.853 3.37889 -0.803027 0
M  V30 6535 C 631.807 3.85516 -1.85908 0
M  V30 6536 C 631.133 5.1682 -1.37116 0
M  V30 6537 C 632.433 4.07655 -3.26519 0
M  V30 6538 H 634.127 2.1529 -2.08064 0
M  V30 6539 H 631.673 1.03446 -1.00174 0
M  V30 6540 H 633.626 4.15654 -0.693537 0
M  V30 6541 H 632.35 3.26164 0.168674 0
M  V30 6542 H 631.009 3.09953 -1.95767 0
M  V30 6543 H 630.657 5.01497 -0.38859 0
M  V30 6544 H 630.357 5.49657 -2.07728 0
M  V30 6545 H 631.881 5.97143 -1.27484 0
M  V30 6546 H 633.295 4.75953 -3.19596 0
M  V30 6547 H 631.692 4.51818 -3.94943 0
M  V30 6548 H 632.762 3.12553 -3.70727 0
M  V30 6549 N 634.105 1.10431 1.1244 0
M  V30 6550 C 635.516 0.864439 1.65482 0
M  V30 6551 C 635.867 -0.60527 1.8663 0
M  V30 6552 O 634.992 -1.46492 1.59276 0
M  V30 6553 C 635.587 1.56267 3.0061 0
M  V30 6554 C 634.146 1.3695 3.50602 0
M  V30 6555 C 633.293 1.61209 2.25626 0
M  V30 6556 H 636.244 1.26203 0.962209 0
M  V30 6557 H 636.265 1.00166 3.67079 0
M  V30 6558 H 635.777 2.63231 2.85186 0
M  V30 6559 H 633.878 0.321481 3.71211 0
M  V30 6560 H 633.991 2.11143 4.30064 0
M  V30 6561 H 632.355 1.03482 2.32731 0
M  V30 6562 H 633.138 2.69425 2.12756 0
M  V30 6563 N 635.583 -1.29855 0.893053 0
M  V30 6564 C 636.86 -1.90694 0.435336 0
M  V30 6565 C 637.24 -1.8111 -1.08454 0
M  V30 6566 O 636.588 -1.23352 -1.92345 0
M  V30 6567 C 636.798 -3.36033 0.942472 0
M  V30 6568 C 638.146 -4.13083 0.982226 0
M  V30 6569 O 639.17 -3.4491 0.889686 0
M  V30 6570 O 638.029 -5.34896 1.12022 0
M  V30 6571 H 635.123 -0.815978 0.134567 0
M  V30 6572 H 637.669 -1.38367 0.982484 0
M  V30 6573 H 636.441 -3.37132 1.9864 0
M  V30 6574 H 636.064 -3.95828 0.374952 0
M  V30 6575 N 637.061 -0.65484 -1.43351 0
M  V30 6576 C 637.991 0.0221809 -2.33489 0
M  V30 6577 C 638.972 0.810272 -1.49561 0
M  V30 6578 O 640.157 0.771426 -1.78221 0
M  V30 6579 C 637.287 0.988117 -3.32947 0
M  V30 6580 C 636.241 0.310026 -4.26876 0
M  V30 6581 C 635.567 1.38752 -5.16384 0
M  V30 6582 C 636.867 -0.798589 -5.16159 0
M  V30 6583 H 638.561 -0.730571 -2.9035 0
M  V30 6584 H 636.107 -0.352773 -1.39612 0
M  V30 6585 H 638.06 1.47067 -3.94904 0
M  V30 6586 H 636.784 1.77205 -2.74346 0
M  V30 6587 H 635.443 -0.152097 -3.66284 0
M  V30 6588 H 635.091 2.16293 -4.54121 0
M  V30 6589 H 634.791 0.939051 -5.80048 0
M  V30 6590 H 636.315 1.87141 -5.81215 0
M  V30 6591 H 637.729 -0.398126 -5.71916 0
M  V30 6592 H 636.126 -1.17163 -5.88552 0
M  V30 6593 H 637.196 -1.65588 -4.55751 0
M  V30 6594 N 638.539 1.52521 -0.396863 0
M  V30 6595 C 639.816 1.94112 0.240842 0
M  V30 6596 C 640.196 1.33288 1.637 0
M  V30 6597 O 639.544 0.503901 2.22875 0
M  V30 6598 C 639.754 3.48033 0.259567 0
M  V30 6599 C 641.102 4.21822 0.484866 0
M  V30 6600 O 642.126 3.54579 0.339453 0
M  V30 6601 O 640.985 5.41042 0.770412 0
M  V30 6602 H 638.079 0.812973 0.151671 0
M  V30 6603 H 640.625 1.63572 -0.451918 0
M  V30 6604 H 639.397 3.84655 -0.718078 0
M  V30 6605 H 639.02 3.84899 0.996937 0
M  V30 6606 N 640.017 0.126909 1.57088 0
M  V30 6607 C 641.242 -0.53997 2.00248 0
M  V30 6608 C 641.667 -1.58927 1.00618 0
M  V30 6609 O 641.025 -1.81288 -0.0210131 0
M  V30 6610 C 641.073 -1.13565 3.4225 0
M  V30 6611 O 640.177 -2.25103 3.45547 0
M  V30 6612 H 639.518 -0.13412 0.650314 0
M  V30 6613 H 642.048 0.217718 2.03438 0
M  V30 6614 H 642.058 -1.46925 3.80627 0
M  V30 6615 H 640.733 -0.367122 4.14277 0
M  V30 6616 H 639.31 -1.93123 3.18995 0
M  V30 6617 N 641.495 -1.56914 -0.146875 0
M  V30 6618 C 642.72 -1.87881 -0.878386 0
M  V30 6619 C 643.145 -0.715945 -1.73942 0
M  V30 6620 O 642.503 0.334447 -1.78189 0
M  V30 6621 C 642.551 -3.17431 -1.71084 0
M  V30 6622 O 641.655 -3.01374 -2.81509 0
M  V30 6623 H 640.996 -0.617289 -0.244644 0
M  V30 6624 H 643.526 -2.04136 -0.137654 0
M  V30 6625 H 643.536 -3.49455 -2.10582 0
M  V30 6626 H 642.211 -4.01671 -1.07856 0
M  V30 6627 H 640.788 -2.80758 -2.45416 0
M  V30 6628 N 642.974 0.416227 -1.52004 0
M  V30 6629 C 643.904 1.51365 -1.77795 0
M  V30 6630 C 644.885 1.58059 -0.628601 0
M  V30 6631 O 646.07 1.73447 -0.873478 0
M  V30 6632 C 643.2 2.89256 -1.92219 0
M  V30 6633 C 642.154 2.97415 -3.0778 0
M  V30 6634 C 641.48 4.37492 -3.07417 0
M  V30 6635 C 642.78 2.69551 -4.47369 0
M  V30 6636 H 644.474 1.30033 -2.69688 0
M  V30 6637 H 642.02 0.624112 -1.29772 0
M  V30 6638 H 643.973 3.66008 -2.08845 0
M  V30 6639 H 642.697 3.11866 -0.969917 0
M  V30 6640 H 641.356 2.23107 -2.90893 0
M  V30 6641 H 641.004 4.571 -2.09925 0
M  V30 6642 H 640.704 4.43877 -3.85029 0
M  V30 6643 H 642.228 5.16188 -3.26162 0
M  V30 6644 H 643.642 3.36028 -4.64497 0
M  V30 6645 H 642.039 2.87321 -5.26846 0
M  V30 6646 H 643.109 1.65029 -4.55953 0
M  V30 6647 N 644.452 1.42507 0.673017 0
M  V30 6648 C 645.415 1.4582 1.76831 0
M  V30 6649 C 646.415 0.345542 1.57043 0
M  V30 6650 O 647.605 0.606447 1.63303 0
M  V30 6651 C 644.737 1.29158 3.15485 0
M  V30 6652 H 645.93 2.43345 1.7528 0
M  V30 6653 H 643.483 1.28981 0.882817 0
M  V30 6654 H 644.218 0.325626 3.22661 0
M  V30 6655 H 644.003 2.09797 3.31252 0
M  V30 6656 H 645.493 1.34363 3.95394 0
M  V30 6657 N 645.93 -0.909495 1.28709 0
M  V30 6658 C 647.155 -1.69801 1.1909 0
M  V30 6659 C 647.58 -1.86479 -0.246388 0
M  V30 6660 O 646.938 -1.37802 -1.17815 0
M  V30 6661 C 646.986 -3.06543 1.89904 0
M  V30 6662 O 646.09 -3.94268 1.2094 0
M  V30 6663 H 645.431 -0.519783 0.413185 0
M  V30 6664 H 647.961 -1.13689 1.70106 0
M  V30 6665 H 647.971 -3.56748 1.97977 0
M  V30 6666 H 646.646 -2.93722 2.94449 0
M  V30 6667 H 645.223 -3.52702 1.2106 0
M  V30 6668 N 647.408 -1.11026 -1.11852 0
M  V30 6669 C 648.657 -0.851249 -1.82857 0
M  V30 6670 C 648.97 0.62514 -1.85341 0
M  V30 6671 O 650.176 1.00026 -2.52403 0
M  V30 6672 C 648.632 -1.47309 -3.28372 0
M  V30 6673 C 648.24 -2.9832 -3.34229 0
M  V30 6674 C 649.984 -1.29373 -4.04306 0
M  V30 6675 C 647.891 -3.53509 -4.74115 0
M  V30 6676 H 646.821 -0.314794 -0.685143 0
M  V30 6677 H 649.472 -1.33499 -1.25898 0
M  V30 6678 H 647.854 -0.917017 -3.85236 0
M  V30 6679 H 649.028 -3.60295 -2.87271 0
M  V30 6680 H 647.343 -3.15482 -2.71772 0
M  V30 6681 H 649.94 -1.68042 -5.07608 0
M  V30 6682 H 650.283 -0.235879 -4.15631 0
M  V30 6683 H 650.816 -1.8182 -3.53817 0
M  V30 6684 H 647.555 -4.58987 -4.67986 0
M  V30 6685 H 647.075 -2.96305 -5.21501 0
M  V30 6686 H 648.754 -3.51693 -5.43066 0
M  V30 6687 N 648.886 1.2938 -0.899927 0
M  V30 6688 C 649.818 2.26737 -0.335139 0
M  V30 6689 C 650.831 1.54316 0.518681 0
M  V30 6690 O 652.02 1.75313 0.335803 0
M  V30 6691 C 649.12 3.34558 0.540774 0
M  V30 6692 C 648.293 4.36455 -0.287372 0
M  V30 6693 C 647.352 5.2361 0.52141 0
M  V30 6694 O 646.378 5.69167 -0.0611735 0
M  V30 6695 N 647.58 5.50985 1.82745 0
M  V30 6696 H 650.345 2.75838 -1.17191 0
M  V30 6697 H 647.906 1.42716 -0.764438 0
M  V30 6698 H 649.898 3.89794 1.08825 0
M  V30 6699 H 648.468 2.85272 1.27823 0
M  V30 6700 H 647.688 3.80875 -1.01626 0
M  V30 6701 H 648.976 5.01573 -0.854518 0
M  V30 6702 H 648.374 5.15781 2.32349 0
M  V30 6703 H 646.931 6.09036 2.32204 0
M  V30 6704 N 650.364 0.662433 1.43002 0
M  V30 6705 C 651.274 -0.0239199 2.34588 0
M  V30 6706 C 652.29 -0.802255 1.54402 0
M  V30 6707 O 653.466 -0.747401 1.87018 0
M  V30 6708 C 650.531 -0.972098 3.32793 0
M  V30 6709 C 649.592 -0.189673 4.28881 0
M  V30 6710 C 648.825 -1.09269 5.22395 0
M  V30 6711 O 649.048 -2.33209 5.20547 0
M  V30 6712 O 647.982 -0.560136 5.99288 0
M  V30 6713 H 651.808 0.730171 2.94792 0
M  V30 6714 H 649.393 0.422635 1.43297 0
M  V30 6715 H 651.275 -1.51676 3.93157 0
M  V30 6716 H 649.95 -1.70626 2.75079 0
M  V30 6717 H 648.857 0.398794 3.71968 0
M  V30 6718 H 650.19 0.50511 4.89601 0
M  V30 6719 N 651.842 -1.52309 0.404946 0
M  V30 6720 C 652.772 -2.29805 -0.41376 0
M  V30 6721 C 653.753 -1.3384 -1.0498 0
M  V30 6722 O 654.938 -1.62745 -1.05961 0
M  V30 6723 C 652.068 -3.11639 -1.53292 0
M  V30 6724 C 651.022 -4.15616 -1.02211 0
M  V30 6725 C 650.348 -4.8577 -2.23455 0
M  V30 6726 C 651.648 -5.2224 -0.0790725 0
M  V30 6727 H 653.342 -2.98493 0.232878 0
M  V30 6728 H 650.888 -1.43552 0.113441 0
M  V30 6729 H 652.841 -3.64618 -2.11262 0
M  V30 6730 H 651.565 -2.40712 -2.20738 0
M  V30 6731 H 650.224 -3.63641 -0.46484 0
M  V30 6732 H 649.872 -4.11376 -2.89445 0
M  V30 6733 H 649.572 -5.56058 -1.89929 0
M  V30 6734 H 651.096 -5.4156 -2.82038 0
M  V30 6735 H 652.51 -5.70485 -0.567438 0
M  V30 6736 H 650.907 -5.99867 0.167167 0
M  V30 6737 H 651.977 -4.77078 0.867447 0
M  V30 6738 N 653.32 -0.135238 -1.57019 0
M  V30 6739 C 654.25 0.805235 -2.19176 0
M  V30 6740 C 655.231 1.2656 -1.13651 0
M  V30 6741 O 656.416 1.32528 -1.4195 0
M  V30 6742 C 653.546 2.04914 -2.80406 0
M  V30 6743 C 652.5 1.72598 -3.91655 0
M  V30 6744 C 651.826 3.04154 -4.39766 0
M  V30 6745 C 653.126 0.981709 -5.12991 0
M  V30 6746 H 654.82 0.287232 -2.98019 0
M  V30 6747 H 652.366 0.136714 -1.4335 0
M  V30 6748 H 654.319 2.71178 -3.22553 0
M  V30 6749 H 653.043 2.59067 -1.98877 0
M  V30 6750 H 651.702 1.08717 -3.50109 0
M  V30 6751 H 651.35 3.56274 -3.55075 0
M  V30 6752 H 651.05 2.83299 -5.14796 0
M  V30 6753 H 652.574 3.71509 -4.84576 0
M  V30 6754 H 653.988 1.5462 -5.52056 0
M  V30 6755 H 652.385 0.873533 -5.93708 0
M  V30 6756 H 653.455 -0.0286887 -4.84892 0
M  V30 6757 N 654.798 1.5699 0.138552 0
M  V30 6758 C 656.023 1.88344 0.86841 0
M  V30 6759 C 656.448 0.725159 1.7356 0
M  V30 6760 O 655.806 -0.324992 1.78363 0
M  V30 6761 C 655.854 3.18334 1.69398 0
M  V30 6762 O 654.958 3.02863 2.79907 0
M  V30 6763 H 654.299 0.618577 0.241367 0
M  V30 6764 H 656.829 2.04207 0.126826 0
M  V30 6765 H 656.839 3.50567 2.08726 0
M  V30 6766 H 655.514 4.02238 1.05725 0
M  V30 6767 H 654.091 2.82056 2.43924 0
M  V30 6768 N 656.276 -0.40816 1.52223 0
M  V30 6769 C 657.687 -0.986929 1.58482 0
M  V30 6770 C 658.038 -1.91521 0.425917 0
M  V30 6771 O 657.163 -2.11593 -0.453593 0
M  V30 6772 C 657.758 -1.7967 2.87235 0
M  V30 6773 C 656.317 -2.32549 2.9597 0
M  V30 6774 C 655.464 -1.12558 2.53428 0
M  V30 6775 H 658.415 -0.188362 1.57578 0
M  V30 6776 H 658.436 -2.65417 2.72642 0
M  V30 6777 H 657.948 -1.12082 3.71563 0
M  V30 6778 H 656.049 -3.03505 2.16137 0
M  V30 6779 H 656.162 -2.63348 4.00231 0
M  V30 6780 H 654.526 -1.47984 2.07299 0
M  V30 6781 H 655.309 -0.465351 3.40131 0
M  V30 6782 N 657.755 -1.42862 -0.66545 0
M  V30 6783 C 658.687 -1.43026 -1.79098 0
M  V30 6784 C 659.7 -0.32803 -1.59461 0
M  V30 6785 O 660.889 -0.591709 -1.68407 0
M  V30 6786 C 657.989 -1.21566 -3.16346 0
M  V30 6787 C 657.162 -2.44399 -3.62751 0
M  V30 6788 C 656.221 -2.18344 -4.78761 0
M  V30 6789 O 655.247 -2.91611 -4.88827 0
M  V30 6790 N 656.449 -1.1924 -5.68122 0
M  V30 6791 H 659.214 -2.40045 -1.79439 0
M  V30 6792 H 656.775 -1.37861 -0.848872 0
M  V30 6793 H 658.767 -1.02037 -3.91625 0
M  V30 6794 H 657.337 -0.330368 -3.10849 0
M  V30 6795 H 656.557 -2.79433 -2.78048 0
M  V30 6796 H 657.845 -3.26173 -3.90498 0
M  V30 6797 H 657.243 -0.586603 -5.6265 0
M  V30 6798 H 655.8 -1.05698 -6.43173 0
M  V30 6799 N 659.233 0.902656 -1.29189 0
M  V30 6800 C 660.143 2.03946 -1.15944 0
M  V30 6801 C 661.159 1.738 -0.0833803 0
M  V30 6802 O 662.335 1.9923 -0.29487 0
M  V30 6803 C 659.4 3.36519 -0.834006 0
M  V30 6804 C 658.461 3.80203 -1.9936 0
M  V30 6805 C 657.694 5.06449 -1.68359 0
M  V30 6806 O 657.917 5.67202 -0.603141 0
M  V30 6807 O 656.851 5.46114 -2.53067 0
M  V30 6808 H 660.677 2.18043 -2.11403 0
M  V30 6809 H 658.262 1.02584 -1.08613 0
M  V30 6810 H 660.144 4.16089 -0.666949 0
M  V30 6811 H 658.819 3.23573 0.0908245 0
M  V30 6812 H 657.726 3.01413 -2.21588 0
M  V30 6813 H 659.059 3.97729 -2.89952 0
M  V30 6814 N 660.711 1.11618 1.11262 0
M  V30 6815 C 662.122 0.881942 1.64556 0
M  V30 6816 C 662.473 -0.585442 1.87262 0
M  V30 6817 O 661.598 -1.44795 1.60821 0
M  V30 6818 C 662.193 1.59446 2.98935 0
M  V30 6819 C 660.752 1.40661 3.4913 0
M  V30 6820 C 659.899 1.63593 2.23903 0
M  V30 6821 H 662.85 1.27217 0.94877 0
M  V30 6822 H 662.871 1.04054 3.65996 0
M  V30 6823 H 662.383 2.66241 2.82378 0
M  V30 6824 H 660.484 0.360835 3.70849 0
M  V30 6825 H 660.597 2.15693 4.27801 0
M  V30 6826 H 658.961 1.05944 2.3162 0
M  V30 6827 H 659.744 2.71666 2.09886 0
M  V30 6828 N 662.189 -1.289 0.906776 0
M  V30 6829 C 663.6 -1.77336 0.58384 0
M  V30 6830 C 663.951 -1.74304 -0.900697 0
M  V30 6831 O 663.076 -1.33335 -1.70443 0
M  V30 6832 C 663.671 -3.22019 1.05304 0
M  V30 6833 C 662.23 -3.68205 0.781148 0
M  V30 6834 C 661.377 -2.48837 1.22373 0
M  V30 6835 H 664.328 -1.15462 1.08877 0
M  V30 6836 H 664.349 -3.78481 0.391414 0
M  V30 6837 H 663.861 -3.24194 2.13353 0
M  V30 6838 H 661.962 -3.71497 -0.28643 0
M  V30 6839 H 662.075 -4.58675 1.384 0
M  V30 6840 H 660.439 -2.46461 0.642594 0
M  V30 6841 H 661.222 -2.53736 2.31242 0
M  V30 6842 N 663.667 -0.670007 -1.42649 0
M  V30 6843 C 665.083 -0.33911 -1.55956 0
M  V30 6844 C 665.283 1.1558 -1.65056 0
M  V30 6845 O 664.339 1.94111 -1.61485 0
M  V30 6846 C 665.652 -1.06522 -2.812 0
M  V30 6847 C 667.2 -1.04708 -2.94966 0
M  V30 6848 C 667.675 -1.75442 -4.23065 0
M  V30 6849 N 669.166 -1.72286 -4.29967 0
M  V30 6850 C 669.901 -2.23877 -5.27889 0
M  V30 6851 N 669.397 -2.83829 -6.31991 0
M  V30 6852 N 671.19 -2.14279 -5.19654 0
M  V30 6853 H 663.341 -1.6399 -1.34986 0
M  V30 6854 H 665.604 -0.690603 -0.649439 0
M  V30 6855 H 665.31 -2.12033 -2.80597 0
M  V30 6856 H 665.184 -0.627398 -3.71946 0
M  V30 6857 H 667.571 -0.000315966 -2.951 0
M  V30 6858 H 667.652 -1.52374 -2.05465 0
M  V30 6859 H 667.296 -2.80084 -4.23693 0
M  V30 6860 H 667.226 -1.25229 -5.11493 0
M  V30 6861 H 669.717 -1.28554 -3.55362 0
M  V30 6862 H 670.03 -3.20827 -7.03057 0
M  V30 6863 H 668.375 -2.87896 -6.32567 0
M  V30 6864 H 671.566 -1.67135 -4.37245 0
M  V30 6865 H 671.739 -2.54792 -5.95806 0
M  V30 6866 N 665.145 1.52092 -0.413018 0
M  V30 6867 C 666.556 1.86617 0.0556967 0
M  V30 6868 C 666.907 1.33156 1.44097 0
M  V30 6869 O 666.032 0.672417 2.05688 0
M  V30 6870 C 666.627 3.38628 0.107844 0
M  V30 6871 C 665.186 3.72778 0.520904 0
M  V30 6872 C 664.333 2.75649 -0.302109 0
M  V30 6873 H 667.284 1.45663 -0.629919 0
M  V30 6874 H 667.305 3.69152 0.922324 0
M  V30 6875 H 666.817 3.77508 -0.900506 0
M  V30 6876 H 664.918 3.39478 1.53575 0
M  V30 6877 H 665.031 4.7838 0.262591 0
M  V30 6878 H 663.395 2.53603 0.236115 0
M  V30 6879 H 664.178 3.17369 -1.30888 0
M  V30 6880 N 666.623 0.143563 1.56945 0
M  V30 6881 C 668.034 -0.37783 1.82837 0
M  V30 6882 C 668.385 -1.64967 1.06209 0
M  V30 6883 O 667.51 -2.14221 0.306291 0
M  V30 6884 C 668.105 -0.692274 3.31652 0
M  V30 6885 C 666.664 -1.1582 3.58138 0
M  V30 6886 C 665.811 -0.17951 2.76718 0
M  V30 6887 H 668.762 0.368317 1.54367 0
M  V30 6888 H 668.783 -1.54729 3.47619 0
M  V30 6889 H 668.295 0.233572 3.87397 0
M  V30 6890 H 666.396 -2.10011 3.07776 0
M  V30 6891 H 666.509 -1.08655 4.66616 0
M  V30 6892 H 664.873 -0.671458 2.4569 0
M  V30 6893 H 665.656 0.739865 3.35233 0
M  V30 6894 N 668.101 -1.57061 -0.130224 0
M  V30 6895 C 669.011 -2.02802 -1.17934 0
M  V30 6896 C 670.027 -0.946378 -1.46013 0
M  V30 6897 O 671.203 -1.25708 -1.57351 0
M  V30 6898 C 668.268 -2.41368 -2.48882 0
M  V30 6899 C 667.329 -3.63561 -2.28301 0
M  V30 6900 C 666.562 -4.00279 -3.53005 0
M  V30 6901 O 666.785 -3.37463 -4.59864 0
M  V30 6902 O 665.719 -4.93441 -3.44673 0
M  V30 6903 H 669.545 -2.92394 -0.820958 0
M  V30 6904 H 667.13 -1.45475 -0.340197 0
M  V30 6905 H 669.012 -2.66958 -3.26054 0
M  V30 6906 H 667.687 -1.54926 -2.84217 0
M  V30 6907 H 666.594 -3.43136 -1.49025 0
M  V30 6908 H 667.927 -4.50673 -1.97875 0
M  V30 6909 N 669.579 0.400081 -1.52437 0
M  V30 6910 C 670.542 1.4707 -1.75793 0
M  V30 6911 C 671.542 1.48036 -0.627856 0
M  V30 6912 O 672.732 1.49401 -0.895817 0
M  V30 6913 C 669.864 2.86427 -1.84858 0
M  V30 6914 H 671.057 1.27649 -2.71377 0
M  V30 6915 H 668.61 0.631141 -1.42991 0
M  V30 6916 H 669.345 3.11207 -0.912194 0
M  V30 6917 H 669.13 2.87128 -2.6702 0
M  V30 6918 H 670.62 3.64023 -2.04638 0
M  V30 6919 N 671.057 1.43213 0.657864 0
M  V30 6920 C 671.967 1.50448 1.80007 0
M  V30 6921 C 672.983 0.39191 1.69529 0
M  V30 6922 O 674.159 0.645349 1.90781 0
M  V30 6923 C 671.224 1.42062 3.16258 0
M  V30 6924 C 670.285 2.63951 3.38568 0
M  V30 6925 C 669.518 2.55956 4.68318 0
M  V30 6926 O 669.741 1.60473 5.47361 0
M  V30 6927 O 668.675 3.46378 4.92245 0
M  V30 6928 H 672.501 2.4689 1.76858 0
M  V30 6929 H 670.086 1.25163 0.81576 0
M  V30 6930 H 671.968 1.3981 3.97531 0
M  V30 6931 H 670.643 0.487524 3.20008 0
M  V30 6932 H 669.55 2.71776 2.57077 0
M  V30 6933 H 670.883 3.56217 3.39662 0
M  V30 6934 N 672.536 -0.895792 1.29666 0
M  V30 6935 C 673.484 -2.02173 1.15017 0
M  V30 6936 C 674.478 -1.69276 0.0647651 0
M  V30 6937 O 675.684 -1.7859 0.224846 0
M  V30 6938 H 672.059 -0.662719 0.355397 0
M  V30 6939 H 674.03 -2.11666 2.10334 0
M  V30 6940 C 672.779 -3.37212 0.847555 0
M  V30 6941 H 672.102 -3.6303 1.67479 0
M  V30 6942 H 673.542 -4.16668 0.785106 0
M  V30 6943 C 672.001 -3.33891 -0.44929 0
M  V30 6944 O 672.531 -3.73673 -1.47415 0
M  V30 6945 N 670.737 -2.86991 -0.456547 0
M  V30 6946 H 670.284 -2.54813 0.377925 0
M  V30 6947 H 670.242 -2.85152 -1.32423 0
M  V30 6948 N 674.014 -1.12206 -1.10668 0
M  V30 6949 C 675.239 -0.898938 -1.86906 0
M  V30 6950 C 675.664 0.546346 -1.79991 0
M  V30 6951 O 675.022 1.38655 -1.1681 0
M  V30 6952 C 675.07 -1.37529 -3.33344 0
M  V30 6953 O 674.174 -0.55218 -4.08687 0
M  V30 6954 H 673.515 -0.323163 -0.580053 0
M  V30 6955 H 676.045 -1.49355 -1.39837 0
M  V30 6956 H 676.055 -1.3733 -3.84193 0
M  V30 6957 H 674.73 -2.42767 -3.37693 0
M  V30 6958 H 673.307 -0.620947 -3.67694 0
M  V30 6959 N 675.492 1.28418 -0.913599 0
M  V30 6960 C 676.717 1.99643 -0.561899 0
M  V30 6961 C 677.142 1.67819 0.849608 0
M  V30 6962 O 676.5 0.910503 1.56779 0
M  V30 6963 C 676.548 3.52116 -0.777622 0
M  V30 6964 O 675.652 4.12076 0.163457 0
M  V30 6965 H 674.993 0.627229 -0.217898 0
M  V30 6966 H 677.523 1.63575 -1.229 0
M  V30 6967 H 677.533 4.02163 -0.687666 0
M  V30 6968 H 676.208 3.74613 -1.8066 0
M  V30 6969 H 674.785 3.72892 0.0247827 0
M  V30 6970 N 676.97 0.677563 1.42291 0
M  V30 6971 C 678.381 0.277912 1.8462 0
M  V30 6972 C 678.732 -1.18048 1.56714 0
M  V30 6973 O 677.857 -1.90404 1.02836 0
M  V30 6974 C 678.452 0.497619 3.35126 0
M  V30 6975 C 677.011 0.152063 3.76093 0
M  V30 6976 C 676.158 0.78872 2.65847 0
M  V30 6977 H 679.109 0.879527 1.32098 0
M  V30 6978 H 679.13 -0.24939 3.79682 0
M  V30 6979 H 678.642 1.55913 3.55405 0
M  V30 6980 H 676.743 -0.905896 3.6142 0
M  V30 6981 H 676.856 0.594514 4.75397 0
M  V30 6982 H 675.22 0.219813 2.5375 0
M  V30 6983 H 676.003 1.85374 2.88949 0
M  V30 6984 N 678.448 -1.51871 0.421078 0
M  V30 6985 C 679.725 -1.9447 -0.20993 0
M  V30 6986 C 680.105 -1.35875 -1.61558 0
M  V30 6987 O 679.453 -0.539294 -2.22045 0
M  V30 6988 C 679.663 -3.48402 -0.204165 0
M  V30 6989 C 681.011 -4.2254 -0.417696 0
M  V30 6990 O 682.035 -3.55074 -0.282999 0
M  V30 6991 O 680.894 -5.422 -0.684239 0
M  V30 6992 H 677.988 -0.815283 -0.138718 0
M  V30 6993 H 680.534 -1.62832 0.477884 0
M  V30 6994 H 679.306 -3.83464 0.779183 0
M  V30 6995 H 678.929 -3.86436 -0.935576 0
M  V30 6996 N 679.926 -0.151884 -1.56866 0
M  V30 6997 C 681.151 0.508044 -2.01081 0
M  V30 6998 C 681.576 1.57306 -1.03134 0
M  V30 6999 O 680.934 1.81298 -0.0078309 0
M  V30 7000 C 680.982 1.08106 -3.44014 0
M  V30 7001 O 680.086 2.19577 -3.49084 0
M  V30 7002 H 679.427 0.123757 -0.652365 0
M  V30 7003 H 681.957 -0.250055 -2.03066 0
M  V30 7004 H 681.967 1.40851 -3.82916 0
M  V30 7005 H 680.642 0.301168 -4.14808 0
M  V30 7006 H 679.219 1.88023 -3.22027 0
M  V30 7007 N 681.404 1.57128 0.121893 0
M  V30 7008 C 682.652 1.84335 0.828548 0
M  V30 7009 C 682.973 0.736632 1.80551 0
M  V30 7010 O 682.243 -0.23962 1.94429 0
M  V30 7011 H 680.823 0.680108 0.30897 0
M  V30 7012 H 683.485 1.9459 0.109906 0
M  V30 7013 H 682.581 2.80152 1.37554 0
M  V30 7014 N 682.882 -0.391992 1.52647 0
M  V30 7015 C 683.829 -1.47866 1.77213 0
M  V30 7016 C 684.799 -1.54286 0.615223 0
M  V30 7017 O 685.984 -1.7059 0.854622 0
M  V30 7018 C 683.124 -2.85129 1.94411 0
M  V30 7019 C 682.237 -2.87883 3.22098 0
M  V30 7020 C 681.372 -4.16553 3.29631 0
M  V30 7021 C 680.411 -4.13348 4.51453 0
M  V30 7022 N 679.548 -5.33619 4.56284 0
M  V30 7023 H 684.388 -1.26219 2.6995 0
M  V30 7024 H 681.925 -0.612367 1.33748 0
M  V30 7025 H 683.883 -3.64833 2.02367 0
M  V30 7026 H 682.513 -3.05232 1.05038 0
M  V30 7027 H 681.565 -2.00567 3.23229 0
M  V30 7028 H 682.877 -2.81382 4.11856 0
M  V30 7029 H 682.031 -5.0466 3.36753 0
M  V30 7030 H 680.77 -4.25773 2.37842 0
M  V30 7031 H 679.775 -3.23629 4.44459 0
M  V30 7032 H 681 -4.05754 5.44555 0
M  V30 7033 H 678.946 -5.43474 3.67385 0
M  V30 7034 H 678.863 -5.29182 5.3991 0
M  V30 7035 H 680.131 -6.23632 4.67657 0
M  V30 7036 N 684.36 -1.4356 -0.65026 0
M  V30 7037 C 685.292 -1.44918 -1.77571 0
M  V30 7038 C 686.305 -0.344925 -1.59104 0
M  V30 7039 O 687.494 -0.609537 -1.6777 0
M  V30 7040 C 684.594 -1.24914 -3.15039 0
M  V30 7041 C 683.767 -2.48232 -3.60138 0
M  V30 7042 C 682.826 -2.23409 -4.76419 0
M  V30 7043 O 681.852 -2.9678 -4.85706 0
M  V30 7044 N 683.054 -1.25259 -5.66825 0
M  V30 7045 H 685.819 -2.41935 -1.76883 0
M  V30 7046 H 683.38 -1.38754 -0.834202 0
M  V30 7047 H 685.372 -1.06185 -3.90521 0
M  V30 7048 H 683.942 -0.363319 -3.10481 0
M  V30 7049 H 683.162 -2.82366 -2.75069 0
M  V30 7050 H 684.45 -3.30296 -3.87017 0
M  V30 7051 H 683.848 -0.646246 -5.61997 0
M  V30 7052 H 682.405 -1.12513 -6.42016 0
M  V30 7053 N 685.838 0.888903 -1.30139 0
M  V30 7054 C 686.768 2.01046 -1.18755 0
M  V30 7055 C 687.749 1.69916 -0.0791438 0
M  V30 7056 O 688.934 1.92445 -0.260498 0
M  V30 7057 C 686.064 3.36109 -0.874518 0
M  V30 7058 C 685.018 3.81486 -1.94043 0
M  V30 7059 C 684.344 5.13796 -1.48047 0
M  V30 7060 C 685.644 4.00637 -3.35093 0
M  V30 7061 H 687.338 2.10828 -2.12584 0
M  V30 7062 H 684.884 1.01298 -1.02346 0
M  V30 7063 H 686.837 4.14089 -0.781548 0
M  V30 7064 H 685.561 3.26449 0.0994519 0
M  V30 7065 H 684.22 3.05731 -2.02297 0
M  V30 7066 H 683.868 5.0056 -0.494878 0
M  V30 7067 H 683.568 5.45127 -2.19341 0
M  V30 7068 H 685.092 5.94305 -1.40121 0
M  V30 7069 H 686.506 4.69067 -3.2962 0
M  V30 7070 H 684.903 4.43339 -4.04438 0
M  V30 7071 H 685.973 3.0462 -3.77273 0
M  V30 7072 N 687.317 1.12792 1.10072 0
M  V30 7073 C 688.563 0.886857 1.82381 0
M  V30 7074 C 688.896 -0.58576 1.85155 0
M  V30 7075 O 688.171 -1.43317 1.31493 0
M  V30 7076 C 688.454 1.46703 3.28862 0
M  V30 7077 C 688.307 3.00829 3.34398 0
M  V30 7078 C 689.626 1.12971 4.25353 0
M  V30 7079 H 686.745 0.32362 0.662148 0
M  V30 7080 H 689.387 1.39513 1.28982 0
M  V30 7081 H 687.537 1.03476 3.74466 0
M  V30 7082 H 689.209 3.52764 2.97247 0
M  V30 7083 H 687.452 3.36164 2.74183 0
M  V30 7084 H 688.123 3.36519 4.3756 0
M  V30 7085 H 690.599 1.50313 3.88001 0
M  V30 7086 H 689.475 1.56223 5.26199 0
M  V30 7087 H 689.736 0.0424452 4.4208 0
M  V30 7088 N 688.795 -1.27931 0.920396 0
M  V30 7089 C 689.745 -2.24727 0.384966 0
M  V30 7090 C 690.729 -1.52715 -0.506661 0
M  V30 7091 O 691.921 -1.73599 -0.345298 0
M  V30 7092 C 689.05 -3.41324 -0.3678 0
M  V30 7093 C 688.136 -4.20649 0.539925 0
M  V30 7094 N 688.527 -4.77906 1.6565 0
M  V30 7095 C 686.825 -4.4469 0.341557 0
M  V30 7096 C 687.526 -5.37652 2.22047 0
M  V30 7097 N 686.502 -5.2218 1.51093 0
M  V30 7098 H 690.304 -2.66572 1.23761 0
M  V30 7099 H 687.818 -1.42779 0.773819 0
M  V30 7100 H 689.815 -4.0976 -0.768277 0
M  V30 7101 H 688.475 -3.01012 -1.21746 0
M  V30 7102 H 689.486 -4.76073 2.03899 0
M  V30 7103 H 686.163 -4.14868 -0.468045 0
M  V30 7104 H 687.553 -5.92948 3.1601 0
M  V30 7105 N 690.273 -0.685099 -1.4193 0
M  V30 7106 C 691.503 -0.220052 -2.05425 0
M  V30 7107 C 691.911 1.13185 -1.51611 0
M  V30 7108 O 691.254 1.71631 -0.654875 0
M  V30 7109 C 691.316 -0.0888364 -3.5939 0
M  V30 7110 C 690.98 -1.37109 -4.35947 0
M  V30 7111 C 691.977 -2.30675 -4.65924 0
M  V30 7112 C 689.662 -1.62155 -4.75406 0
M  V30 7113 C 691.656 -3.47556 -5.34306 0
M  V30 7114 C 689.343 -2.79324 -5.43527 0
M  V30 7115 C 690.341 -3.71848 -5.72903 0
M  V30 7116 O 690.029 -4.86966 -6.39624 0
M  V30 7117 H 689.761 -0.102165 -0.668235 0
M  V30 7118 H 692.315 -0.935194 -1.82875 0
M  V30 7119 H 690.545 0.681981 -3.80639 0
M  V30 7120 H 692.234 0.337669 -4.04493 0
M  V30 7121 H 693 -2.12579 -4.3593 0
M  V30 7122 H 688.879 -0.910053 -4.51928 0
M  V30 7123 H 692.423 -4.19794 -5.57153 0
M  V30 7124 H 688.32 -2.97342 -5.72938 0
M  V30 7125 H 689.088 -4.86644 -6.58118 0
M  V30 7126 N 691.751 1.51645 -0.429126 0
M  V30 7127 C 692.979 2.06433 0.138994 0
M  V30 7128 C 693.394 1.29735 1.37165 0
M  V30 7129 O 692.751 0.354638 1.79021 0
M  V30 7130 C 692.802 3.58439 0.469452 0
M  V30 7131 O 692.523 4.32238 -0.714273 0
M  V30 7132 C 694.024 4.29712 1.08914 0
M  V30 7133 H 691.244 0.6709 0.0115608 0
M  V30 7134 H 693.788 1.9532 -0.605843 0
M  V30 7135 H 691.943 3.69494 1.16419 0
M  V30 7136 H 692.357 5.22704 -0.433633 0
M  V30 7137 H 693.831 5.37182 1.27042 0
M  V30 7138 H 694.308 3.87473 2.06788 0
M  V30 7139 H 694.914 4.2308 0.434028 0
M  V30 7140 N 693.229 0.160201 1.56784 0
M  V30 7141 C 694.192 -0.760405 2.16219 0
M  V30 7142 C 695.192 -1.16595 1.10735 0
M  V30 7143 O 696.382 -1.08472 1.36306 0
M  V30 7144 C 693.514 -2.03358 2.73603 0
M  V30 7145 H 694.707 -0.243173 2.98912 0
M  V30 7146 H 692.26 -0.0893139 1.56045 0
M  V30 7147 H 692.995 -2.59416 1.94612 0
M  V30 7148 H 692.78 -1.75186 3.50788 0
M  V30 7149 H 694.27 -2.69081 3.19351 0
M  V30 7150 N 694.707 -1.5719 -0.113559 0
M  V30 7151 C 695.639 -1.97393 -1.16484 0
M  V30 7152 C 696.652 -0.873964 -1.37352 0
M  V30 7153 O 697.841 -1.15222 -1.36331 0
M  V30 7154 C 694.941 -2.26174 -2.52386 0
M  V30 7155 C 694.114 -3.57479 -2.52046 0
M  V30 7156 C 693.173 -3.74409 -3.69735 0
M  V30 7157 O 692.199 -4.46463 -3.53071 0
M  V30 7158 N 693.401 -3.13588 -4.88511 0
M  V30 7159 H 696.166 -2.88184 -0.822814 0
M  V30 7160 H 693.727 -1.59044 -0.302769 0
M  V30 7161 H 695.719 -2.3471 -3.29687 0
M  V30 7162 H 694.289 -1.41483 -2.7875 0
M  V30 7163 H 693.509 -3.60081 -1.60421 0
M  V30 7164 H 694.797 -4.43775 -2.48881 0
M  V30 7165 H 694.195 -2.55026 -5.04953 0
M  V30 7166 H 692.752 -3.27637 -5.63469 0
M  V30 7167 N 696.185 0.383891 -1.52853 0
M  V30 7168 C 697.596 0.961591 -1.60032 0
M  V30 7169 C 697.947 1.90819 -0.456333 0
M  V30 7170 O 697.072 2.12288 0.419873 0
M  V30 7171 C 697.667 1.75078 -2.90057 0
M  V30 7172 C 696.226 2.2781 -2.99632 0
M  V30 7173 C 695.373 1.08512 -2.55187 0
M  V30 7174 H 698.324 0.163269 -1.57858 0
M  V30 7175 H 698.345 2.61046 -2.7683 0
M  V30 7176 H 697.857 1.06157 -3.73299 0
M  V30 7177 H 695.958 3.00028 -2.20939 0
M  V30 7178 H 696.071 2.56947 -4.0437 0
M  V30 7179 H 694.435 1.44667 -2.09627 0
M  V30 7180 H 695.218 0.41118 -3.40829 0
M  V30 7181 N 697.663 1.43903 0.642637 0
M  V30 7182 C 698.593 1.52697 1.76652 0
M  V30 7183 C 699.574 0.380816 1.65782 0
M  V30 7184 O 700.759 0.599432 1.84717 0
M  V30 7185 C 697.889 1.45975 3.15133 0
M  V30 7186 C 696.843 2.58949 3.40778 0
M  V30 7187 C 696.169 2.37279 4.79169 0
M  V30 7188 C 697.469 4.01153 3.34475 0
M  V30 7189 H 699.163 2.46766 1.69549 0
M  V30 7190 H 696.709 1.18767 0.814279 0
M  V30 7191 H 698.662 1.5073 3.93521 0
M  V30 7192 H 697.386 0.484162 3.22991 0
M  V30 7193 H 696.045 2.53564 2.64765 0
M  V30 7194 H 695.693 1.37939 4.83717 0
M  V30 7195 H 695.393 3.13016 4.97287 0
M  V30 7196 H 696.917 2.43834 5.59801 0
M  V30 7197 H 698.331 4.07968 4.02784 0
M  V30 7198 H 696.728 4.77001 3.64129 0
M  V30 7199 H 697.798 4.25539 2.32475 0
M  V30 7200 N 699.141 -0.881989 1.30609 0
M  V30 7201 C 700.388 -1.63405 1.19604 0
M  V30 7202 C 700.716 -1.92905 -0.248574 0
M  V30 7203 O 699.971 -1.55062 -1.19391 0
M  V30 7204 C 700.27 -2.97999 1.97311 0
M  V30 7205 C 699.936 -2.88039 3.46907 0
M  V30 7206 C 698.598 -2.85029 3.877 0
M  V30 7207 C 700.95 -2.75948 4.42156 0
M  V30 7208 C 698.278 -2.67772 5.2203 0
M  V30 7209 C 700.63 -2.60228 5.76597 0
M  V30 7210 C 699.294 -2.55595 6.16626 0
M  V30 7211 H 698.564 -0.597941 0.437662 0
M  V30 7212 H 701.211 -1.02524 1.61744 0
M  V30 7213 H 699.516 -3.62847 1.47815 0
M  V30 7214 H 701.213 -3.55156 1.86186 0
M  V30 7215 H 697.803 -2.91192 3.14492 0
M  V30 7216 H 701.987 -2.77337 4.1158 0
M  V30 7217 H 697.243 -2.62601 5.52133 0
M  V30 7218 H 701.417 -2.49847 6.50038 0
M  V30 7219 H 699.044 -2.41981 7.20659 0
M  V30 7220 N 700.619 -1.13374 -1.09472 0
M  V30 7221 C 701.549 -0.833268 -2.18126 0
M  V30 7222 C 702.53 0.207169 -1.68834 0
M  V30 7223 O 703.715 0.0662012 -1.94087 0
M  V30 7224 C 700.845 -0.297979 -3.46019 0
M  V30 7225 C 699.799 -1.27261 -4.08642 0
M  V30 7226 C 699.125 -0.597104 -5.31356 0
M  V30 7227 C 700.425 -2.63095 -4.51197 0
M  V30 7228 H 702.119 -1.74182 -2.43518 0
M  V30 7229 H 699.665 -0.838921 -1.17039 0
M  V30 7230 H 701.618 -0.0754444 -4.21332 0
M  V30 7231 H 700.342 0.645959 -3.20148 0
M  V30 7232 H 699.001 -1.48113 -3.35348 0
M  V30 7233 H 698.649 0.352293 -5.01765 0
M  V30 7234 H 698.349 -1.24734 -5.74208 0
M  V30 7235 H 699.873 -0.38384 -6.09392 0
M  V30 7236 H 701.287 -2.46214 -5.17737 0
M  V30 7237 H 699.684 -3.2429 -5.04932 0
M  V30 7238 H 700.754 -3.20793 -3.6362 0
M  V30 7239 N 702.098 1.27442 -0.927168 0
M  V30 7240 C 703.028 2.29256 -0.443188 0
M  V30 7241 C 704.009 1.62701 0.49624 0
M  V30 7242 O 705.194 1.90013 0.401105 0
M  V30 7243 C 702.324 3.45955 0.305366 0
M  V30 7244 C 701.278 4.24501 -0.546178 0
M  V30 7245 C 700.604 5.33671 0.331512 0
M  V30 7246 C 701.904 4.89921 -1.81037 0
M  V30 7247 H 703.598 2.69988 -1.29409 0
M  V30 7248 H 701.144 1.29792 -0.623705 0
M  V30 7249 H 703.097 4.1628 0.654885 0
M  V30 7250 H 701.821 3.04138 1.19029 0
M  V30 7251 H 700.48 3.55921 -0.878398 0
M  V30 7252 H 700.128 4.88096 1.21537 0
M  V30 7253 H 699.828 5.87131 -0.234746 0
M  V30 7254 H 701.352 6.0684 0.676614 0
M  V30 7255 H 702.766 5.52536 -1.52895 0
M  V30 7256 H 701.163 5.53436 -2.32009 0
M  V30 7257 H 702.233 4.13652 -2.53021 0
M  V30 7258 N 703.576 0.692616 1.41565 0
M  V30 7259 C 704.853 0.150496 1.9502 0
M  V30 7260 C 705.233 -1.33881 1.63215 0
M  V30 7261 O 704.581 -2.08378 0.937598 0
M  V30 7262 C 704.791 0.438636 3.46233 0
M  V30 7263 C 706.139 0.364777 4.2303 0
M  V30 7264 O 707.163 0.373383 3.54238 0
M  V30 7265 O 706.022 0.32234 5.45549 0
M  V30 7266 H 703.116 0.0132454 0.826894 0
M  V30 7267 H 705.662 0.768574 1.51298 0
M  V30 7268 H 704.434 1.46962 3.62654 0
M  V30 7269 H 704.057 -0.210562 3.97042 0
M  V30 7270 N 705.054 -1.51416 0.437162 0
M  V30 7271 C 706.465 -1.86682 -0.0260005 0
M  V30 7272 C 706.816 -1.35432 -1.4196 0
M  V30 7273 O 705.941 -0.705055 -2.04592 0
M  V30 7274 C 706.536 -3.38757 -0.0539577 0
M  V30 7275 C 705.095 -3.7356 -0.461532 0
M  V30 7276 C 704.242 -2.75134 0.345924 0
M  V30 7277 H 707.193 -1.44642 0.653013 0
M  V30 7278 H 707.214 -3.70573 -0.863478 0
M  V30 7279 H 706.726 -3.76028 0.96045 0
M  V30 7280 H 704.827 -3.41878 -1.48155 0
M  V30 7281 H 704.94 -4.78737 -0.186451 0
M  V30 7282 H 703.304 -2.53947 -0.195739 0
M  V30 7283 H 704.087 -3.15247 1.35921 0
M  V30 7284 N 706.532 -0.168513 -1.56696 0
M  V30 7285 C 707.78 0.476216 -1.96409 0
M  V30 7286 C 708.101 1.63968 -1.05544 0
M  V30 7287 O 707.371 1.95525 -0.121235 0
M  V30 7288 H 705.951 0.178921 -0.725256 0
M  V30 7289 H 708.613 -0.249042 -1.93302 0
M  V30 7290 H 707.709 0.838094 -3.00637 0
M  V30 7291 N 708.01 1.57248 0.105221 0
M  V30 7292 C 709.235 1.90143 0.828264 0
M  V30 7293 C 709.66 0.761811 1.71983 0
M  V30 7294 O 709.018 -0.287086 1.79013 0
M  V30 7295 C 709.066 3.21856 1.62608 0
M  V30 7296 O 708.17 3.08732 2.7342 0
M  V30 7297 H 707.511 0.623558 0.228192 0
M  V30 7298 H 710.041 2.0443 0.0834826 0
M  V30 7299 H 710.051 3.54916 2.01243 0
M  V30 7300 H 708.726 4.0439 0.971687 0
M  V30 7301 H 707.303 2.87167 2.37886 0
M  V30 7302 N 709.488 -0.375779 1.53054 0
M  V30 7303 C 710.734 -1.12114 1.68992 0
M  V30 7304 C 711.067 -1.8926 0.435238 0
M  V30 7305 O 710.342 -1.86044 -0.567278 0
M  V30 7306 C 710.625 -2.08867 2.93337 0
M  V30 7307 C 710.478 -1.35397 4.28938 0
M  V30 7308 C 711.797 -3.09124 3.13257 0
M  V30 7309 H 708.916 -0.406207 0.614951 0
M  V30 7310 H 711.558 -0.403054 1.85676 0
M  V30 7311 H 709.708 -2.70102 2.79244 0
M  V30 7312 H 711.38 -0.770242 4.54824 0
M  V30 7313 H 709.623 -0.655801 4.28814 0
M  V30 7314 H 710.294 -2.06161 5.12056 0
M  V30 7315 H 712.77 -2.57987 3.26469 0
M  V30 7316 H 711.646 -3.74054 4.01715 0
M  V30 7317 H 711.907 -3.78729 2.28072 0
M  V30 7318 N 710.966 -1.44241 -0.634997 0
M  V30 7319 C 712.243 -1.37296 -1.39317 0
M  V30 7320 C 712.623 -0.0297532 -2.11079 0
M  V30 7321 O 711.971 0.987524 -2.06059 0
M  V30 7322 C 712.181 -2.56853 -2.36279 0
M  V30 7323 C 713.529 -3.00747 -2.99728 0
M  V30 7324 O 714.553 -2.5703 -2.46605 0
M  V30 7325 O 713.412 -3.76533 -3.96087 0
M  V30 7326 H 710.506 -0.543503 -0.623325 0
M  V30 7327 H 713.052 -1.56324 -0.660376 0
M  V30 7328 H 711.824 -3.46228 -1.82324 0
M  V30 7329 H 711.447 -2.40019 -3.16981 0
M  V30 7330 N 712.444 0.87505 -1.31075 0
M  V30 7331 C 713.672 1.66058 -1.23419 0
M  V30 7332 C 714.087 1.87723 0.201347 0
M  V30 7333 O 713.444 1.43178 1.13165 0
M  V30 7334 C 713.495 3.03142 -1.96945 0
M  V30 7335 O 713.216 2.82448 -3.34895 0
M  V30 7336 C 714.717 3.97583 -1.96067 0
M  V30 7337 H 711.937 0.517868 -0.426677 0
M  V30 7338 H 714.481 1.09258 -1.72867 0
M  V30 7339 H 712.636 3.56645 -1.51271 0
M  V30 7340 H 713.05 3.69483 -3.72267 0
M  V30 7341 H 714.524 4.91104 -2.52034 0
M  V30 7342 H 715.001 4.2898 -0.941961 0
M  V30 7343 H 715.607 3.50015 -2.41597 0
M  V30 7344 N 713.922 1.13953 1.08869 0
M  V30 7345 C 715.17 0.903023 1.80803 0
M  V30 7346 C 715.491 -0.572151 1.86417 0
M  V30 7347 O 714.761 -1.41589 1.35386 0
M  V30 7348 H 713.341 0.331099 0.669614 0
M  V30 7349 H 716.003 1.43719 1.31647 0
M  V30 7350 H 715.099 1.29881 2.83791 0
M  V30 7351 N 715.4 -1.26948 0.933913 0
M  V30 7352 C 716.625 -1.98724 0.593589 0
M  V30 7353 C 717.05 -1.6915 -0.822801 0
M  V30 7354 O 716.408 -0.93533 -1.5531 0
M  V30 7355 C 716.456 -3.50834 0.833542 0
M  V30 7356 O 715.56 -4.12284 -0.0978788 0
M  V30 7357 H 714.901 -0.623683 0.227849 0
M  V30 7358 H 717.431 -1.61599 1.25486 0
M  V30 7359 H 717.441 -4.01018 0.75156 0
M  V30 7360 H 716.116 -3.71691 1.86597 0
M  V30 7361 H 714.693 -3.72884 0.0345443 0
M  V30 7362 N 716.879 -0.700114 -1.41195 0
M  V30 7363 C 717.827 -0.0263301 -2.32585 0
M  V30 7364 C 718.821 0.763683 -1.51209 0
M  V30 7365 O 720.027 0.668793 -1.67114 0
M  V30 7366 H 716.402 0.0102869 -0.75193 0
M  V30 7367 H 718.373 -0.814087 -2.8708 0
M  V30 7368 C 717.122 0.892793 -3.36042 0
M  V30 7369 H 716.445 0.294306 -3.98715 0
M  V30 7370 H 717.885 1.33247 -4.02518 0
M  V30 7371 C 716.344 2.01109 -2.7029 0
M  V30 7372 O 716.874 3.10035 -2.55423 0
M  V30 7373 N 715.08 1.79015 -2.28915 0
M  V30 7374 H 714.627 0.904275 -2.41207 0
M  V30 7375 H 714.585 2.54022 -1.85257 0
M  V30 7376 N 718.357 1.51182 -0.445186 0
M  V30 7377 C 719.634 1.9478 0.178965 0
M  V30 7378 C 720.014 1.38428 1.59376 0
M  V30 7379 O 719.362 0.574552 2.21159 0
M  V30 7380 C 719.572 3.48683 0.148711 0
M  V30 7381 C 720.92 4.23152 0.35042 0
M  V30 7382 O 721.944 3.55479 0.226474 0
M  V30 7383 O 720.803 5.4322 0.597893 0
M  V30 7384 H 717.897 0.817387 0.12573 0
M  V30 7385 H 720.443 1.62051 -0.503729 0
M  V30 7386 H 719.215 3.82176 -0.84009 0
M  V30 7387 H 718.838 3.87875 0.873979 0
M  V30 7388 N 719.835 0.176821 1.56605 0
M  V30 7389 C 720.765 -0.746841 2.21234 0
M  V30 7390 C 721.746 -1.23502 1.16967 0
M  V30 7391 O 722.931 -1.28718 1.45414 0
M  V30 7392 C 720.061 -1.97407 2.8574 0
M  V30 7393 C 719.015 -1.62153 3.96094 0
M  V30 7394 C 718.341 -2.92387 4.47676 0
M  V30 7395 C 719.641 -0.845353 5.15413 0
M  V30 7396 H 721.335 -0.208116 2.98676 0
M  V30 7397 H 718.881 -0.0986594 1.43662 0
M  V30 7398 H 720.834 -2.62531 3.2963 0
M  V30 7399 H 719.558 -2.53703 2.05676 0
M  V30 7400 H 718.217 -0.993964 3.52868 0
M  V30 7401 H 717.865 -3.46734 3.64396 0
M  V30 7402 H 717.565 -2.69551 5.22127 0
M  V30 7403 H 719.089 -3.5853 4.94255 0
M  V30 7404 H 720.503 -1.39929 5.55961 0
M  V30 7405 H 718.9 -0.715814 5.95815 0
M  V30 7406 H 719.97 0.157239 4.84645 0
M  V30 7407 N 721.313 -1.57302 -0.09688 0
M  V30 7408 C 722.724 -1.7496 -0.651595 0
M  V30 7409 C 723.075 -0.798746 -1.79205 0
M  V30 7410 O 722.2 0.0231858 -2.16388 0
M  V30 7411 C 722.795 -3.17259 -1.18878 0
M  V30 7412 C 721.354 -3.36348 -1.68958 0
M  V30 7413 C 720.501 -2.70766 -0.598413 0
M  V30 7414 H 723.452 -1.58173 0.12918 0
M  V30 7415 H 723.473 -3.20033 -2.05814 0
M  V30 7416 H 722.985 -3.8644 -0.358523 0
M  V30 7417 H 721.086 -2.72243 -2.5439 0
M  V30 7418 H 721.199 -4.44654 -1.7838 0
M  V30 7419 H 719.563 -2.32615 -1.03743 0
M  V30 7420 H 720.346 -3.42586 0.221238 0
M  V30 7421 N 722.791 0.367657 -1.53252 0
M  V30 7422 C 724.037 1.11216 -1.69584 0
M  V30 7423 C 724.37 1.89026 -0.445269 0
M  V30 7424 O 723.645 1.86342 0.557404 0
M  V30 7425 C 723.928 2.07308 -2.94441 0
M  V30 7426 C 723.781 1.3312 -4.2965 0
M  V30 7427 C 725.1 3.07459 -3.14892 0
M  V30 7428 H 722.219 0.40294 -0.617096 0
M  V30 7429 H 724.861 0.393201 -1.85887 0
M  V30 7430 H 723.011 2.68617 -2.80673 0
M  V30 7431 H 724.683 0.746111 -4.55226 0
M  V30 7432 H 722.926 0.633051 -4.29156 0
M  V30 7433 H 723.597 2.03443 -5.13142 0
M  V30 7434 H 726.073 2.56252 -3.27832 0
M  V30 7435 H 724.949 3.71919 -4.03693 0
M  V30 7436 H 725.21 3.77514 -2.30077 0
M  V30 7437 N 724.269 1.44576 0.627338 0
M  V30 7438 C 725.199 1.54562 1.75022 0
M  V30 7439 C 726.18 0.398378 1.65369 0
M  V30 7440 O 727.365 0.61899 1.84071 0
M  V30 7441 C 724.495 1.49309 3.13567 0
M  V30 7442 C 723.449 2.62549 3.38012 0
M  V30 7443 C 722.775 2.42348 4.76625 0
M  V30 7444 C 724.075 4.04678 3.30202 0
M  V30 7445 H 725.769 2.4855 1.66922 0
M  V30 7446 H 723.315 1.19624 0.801636 0
M  V30 7447 H 725.268 1.54895 3.919 0
M  V30 7448 H 723.992 0.518392 3.2246 0
M  V30 7449 H 722.651 2.56358 2.62061 0
M  V30 7450 H 722.299 1.43062 4.82226 0
M  V30 7451 H 721.999 3.18273 4.93939 0
M  V30 7452 H 723.523 2.49758 5.57183 0
M  V30 7453 H 724.937 4.12217 3.98435 0
M  V30 7454 H 723.334 4.80836 3.5905 0
M  V30 7455 H 724.404 4.2798 2.27949 0
M  V30 7456 N 725.747 -0.868086 1.31537 0
M  V30 7457 C 726.994 -1.62127 1.2133 0
M  V30 7458 C 727.322 -1.93158 -0.2281 0
M  V30 7459 O 726.577 -1.5632 -1.1774 0
M  V30 7460 C 726.876 -2.95889 2.0046 0
M  V30 7461 C 726.542 -2.84343 3.49943 0
M  V30 7462 C 725.204 -2.80901 3.90702 0
M  V30 7463 C 727.556 -2.71243 4.45058 0
M  V30 7464 C 724.884 -2.6222 5.24841 0
M  V30 7465 C 727.236 -2.54098 5.79325 0
M  V30 7466 C 725.9 -2.4904 6.19302 0
M  V30 7467 H 725.17 -0.593265 0.443979 0
M  V30 7468 H 727.817 -1.00803 1.62822 0
M  V30 7469 H 726.122 -3.61259 1.51655 0
M  V30 7470 H 727.819 -3.53161 1.89942 0
M  V30 7471 H 724.409 -2.8784 3.17563 0
M  V30 7472 H 728.593 -2.72956 4.14498 0
M  V30 7473 H 723.849 -2.56731 5.54887 0
M  V30 7474 H 728.023 -2.42938 6.52652 0
M  V30 7475 H 725.65 -2.34324 7.23185 0
M  V30 7476 N 727.225 -1.14528 -1.08264 0
M  V30 7477 C 728.135 -0.84728 -2.18765 0
M  V30 7478 C 729.151 0.172826 -1.7314 0
M  V30 7479 O 730.327 0.000985336 -2.014 0
M  V30 7480 C 727.392 -0.330633 -3.4512 0
M  V30 7481 C 726.453 -1.41348 -4.05363 0
M  V30 7482 C 725.686 -0.921387 -5.25686 0
M  V30 7483 O 725.909 0.236587 -5.69909 0
M  V30 7484 O 724.843 -1.70101 -5.77364 0
M  V30 7485 H 728.669 -1.7708 -2.46731 0
M  V30 7486 H 726.254 -0.923661 -1.17426 0
M  V30 7487 H 728.136 -0.0485053 -4.21372 0
M  V30 7488 H 726.811 0.565147 -3.18728 0
M  V30 7489 H 725.718 -1.74908 -3.30693 0
M  V30 7490 H 727.051 -2.28383 -4.36007 0
M  V30 7491 N 728.703 1.26451 -0.940633 0
M  V30 7492 C 729.633 2.28773 -0.467479 0
M  V30 7493 C 730.614 1.63218 0.478955 0
M  V30 7494 O 731.799 1.90427 0.380929 0
M  V30 7495 C 728.929 3.46259 0.268656 0
M  V30 7496 C 727.883 4.23898 -0.591171 0
M  V30 7497 C 727.209 5.33993 0.274891 0
M  V30 7498 C 728.509 4.87974 -1.86223 0
M  V30 7499 H 730.203 2.68601 -1.32265 0
M  V30 7500 H 727.749 1.29123 -0.637436 0
M  V30 7501 H 729.702 4.16951 0.610696 0
M  V30 7502 H 728.426 3.05383 1.15796 0
M  V30 7503 H 727.085 3.54969 -0.916098 0
M  V30 7504 H 726.733 4.89358 1.16353 0
M  V30 7505 H 726.433 5.86849 -0.297006 0
M  V30 7506 H 727.957 6.07523 0.612213 0
M  V30 7507 H 729.371 5.50883 -1.58747 0
M  V30 7508 H 727.768 5.50945 -2.37866 0
M  V30 7509 H 728.838 4.10945 -2.57394 0
M  V30 7510 N 730.181 0.707592 1.40822 0
M  V30 7511 C 731.429 0.243189 2.00632 0
M  V30 7512 C 731.75 -1.16512 1.56365 0
M  V30 7513 O 731.02 -1.78841 0.799553 0
M  V30 7514 H 729.6 0.0869203 0.741926 0
M  V30 7515 H 732.262 0.911438 1.72275 0
M  V30 7516 H 731.358 0.270014 3.1093 0
M  V30 7517 N 731.66 -1.50943 0.453197 0
M  V30 7518 C 732.57 -2.31884 -0.355963 0
M  V30 7519 C 733.586 -1.41481 -1.01287 0
M  V30 7520 O 734.762 -1.74546 -1.00477 0
M  V30 7521 C 731.827 -3.15668 -1.43369 0
M  V30 7522 C 730.888 -4.2187 -0.795253 0
M  V30 7523 C 730.121 -5.0165 -1.82162 0
M  V30 7524 O 730.344 -4.82266 -3.04592 0
M  V30 7525 O 729.278 -5.85311 -1.40336 0
M  V30 7526 H 733.104 -3.02162 0.305248 0
M  V30 7527 H 730.689 -1.47839 0.215398 0
M  V30 7528 H 732.571 -3.67709 -2.05836 0
M  V30 7529 H 731.246 -2.48137 -2.07869 0
M  V30 7530 H 730.153 -3.73867 -0.132106 0
M  V30 7531 H 731.486 -4.9182 -0.193484 0
M  V30 7532 N 733.138 -0.185124 -1.56509 0
M  V30 7533 C 734.386 0.455357 -1.96903 0
M  V30 7534 C 734.707 1.62839 -1.07277 0
M  V30 7535 O 733.977 1.95385 -0.141966 0
M  V30 7536 H 732.557 0.171218 -0.727113 0
M  V30 7537 H 735.219 -0.26953 -1.93027 0
M  V30 7538 H 734.315 0.80616 -3.01509 0
M  V30 7539 N 734.616 1.57351 0.0885366 0
M  V30 7540 C 735.841 1.91011 0.80805 0
M  V30 7541 C 736.266 0.780009 1.71165 0
M  V30 7542 O 735.624 -0.268083 1.79307 0
M  V30 7543 C 735.672 3.23562 1.59185 0
M  V30 7544 O 734.776 3.11615 2.7013 0
M  V30 7545 H 734.117 0.625943 0.221565 0
M  V30 7546 H 736.647 2.04507 0.0617954 0
M  V30 7547 H 736.657 3.5703 1.97468 0
M  V30 7548 H 735.332 4.05398 0.928741 0
M  V30 7549 H 733.909 2.89673 2.34827 0
M  V30 7550 N 736.094 -0.359525 1.53444 0
M  V30 7551 C 737.324 -1.12036 1.73585 0
M  V30 7552 C 737.732 -1.83335 0.467438 0
M  V30 7553 O 737.075 -1.74641 -0.569753 0
M  V30 7554 C 737.137 -2.19036 2.85068 0
M  V30 7555 C 736.801 -1.67451 4.25217 0
M  V30 7556 C 737.798 -1.13534 5.07352 0
M  V30 7557 C 735.483 -1.72781 4.71648 0
M  V30 7558 C 737.477 -0.656321 6.34012 0
M  V30 7559 C 735.164 -1.2449 5.98285 0
M  V30 7560 C 736.162 -0.710068 6.79299 0
M  V30 7561 O 735.85 -0.234314 8.03558 0
M  V30 7562 H 735.582 -0.340662 0.583888 0
M  V30 7563 H 738.136 -0.422452 2.01009 0
M  V30 7564 H 736.366 -2.92338 2.53131 0
M  V30 7565 H 738.055 -2.80559 2.93328 0
M  V30 7566 H 738.821 -1.08751 4.7265 0
M  V30 7567 H 734.7 -2.13351 4.08659 0
M  V30 7568 H 738.244 -0.238193 6.97193 0
M  V30 7569 H 734.141 -1.28969 6.32485 0
M  V30 7570 H 734.909 -0.353084 8.17738 0
M  V30 7571 N 737.572 -1.44907 -0.619662 0
M  V30 7572 C 738.819 -1.48292 -1.37898 0
M  V30 7573 C 739.147 -0.119933 -1.9413 0
M  V30 7574 O 738.402 0.879834 -1.74807 0
M  V30 7575 C 738.701 -2.50002 -2.55409 0
M  V30 7576 C 738.367 -3.95031 -2.17397 0
M  V30 7577 C 737.029 -4.34524 -2.06743 0
M  V30 7578 C 739.381 -4.86287 -1.87548 0
M  V30 7579 C 736.709 -5.63183 -1.64445 0
M  V30 7580 C 739.061 -6.15346 -1.4674 0
M  V30 7581 C 737.725 -6.53781 -1.34636 0
M  V30 7582 H 736.995 -0.542638 -0.504603 0
M  V30 7583 H 739.642 -1.78186 -0.701581 0
M  V30 7584 H 737.947 -2.13634 -3.28433 0
M  V30 7585 H 739.644 -2.49864 -3.13639 0
M  V30 7586 H 736.234 -3.63793 -2.26611 0
M  V30 7587 H 740.418 -4.56522 -1.94682 0
M  V30 7588 H 735.674 -5.91769 -1.53687 0
M  V30 7589 H 739.848 -6.85508 -1.22685 0
M  V30 7590 H 737.475 -7.53375 -1.01634 0
M  V30 7591 N 739.05 0.861098 -1.31996 0
M  V30 7592 C 740.275 1.65264 -1.2531 0
M  V30 7593 C 740.7 1.87265 0.177007 0
M  V30 7594 O 740.058 1.4208 1.12619 0
M  V30 7595 C 740.106 2.99284 -2.0115 0
M  V30 7596 O 739.21 3.89508 -1.3549 0
M  V30 7597 H 738.551 0.50409 -0.432192 0
M  V30 7598 H 741.081 1.07297 -1.74208 0
M  V30 7599 H 741.091 3.49154 -2.11081 0
M  V30 7600 H 739.766 2.82591 -3.05148 0
M  V30 7601 H 738.343 3.47966 -1.34066 0
M  V30 7602 N 740.528 1.15101 1.07655 0
M  V30 7603 C 741.438 0.858869 2.18313 0
M  V30 7604 C 742.454 -0.163641 1.73229 0
M  V30 7605 O 743.63 0.00969541 2.01398 0
M  V30 7606 C 740.695 0.34893 3.4494 0
M  V30 7607 C 739.756 1.43495 4.04608 0
M  V30 7608 C 738.989 0.949253 5.2519 0
M  V30 7609 O 739.212 -0.20636 5.70027 0
M  V30 7610 O 738.146 1.73161 5.76454 0
M  V30 7611 H 741.972 1.78386 2.45788 0
M  V30 7612 H 739.557 0.929876 1.16934 0
M  V30 7613 H 741.439 0.070851 4.2134 0
M  V30 7614 H 740.114 -0.548237 3.19024 0
M  V30 7615 H 739.021 1.7666 3.29761 0
M  V30 7616 H 740.354 2.30692 4.3479 0
M  V30 7617 N 742.006 -1.2595 0.947325 0
M  V30 7618 C 743.254 -1.93081 0.596996 0
M  V30 7619 C 743.575 -1.74632 -0.867672 0
M  V30 7620 O 742.845 -1.1056 -1.6172 0
M  V30 7621 H 741.425 -0.714542 0.217805 0
M  V30 7622 H 744.087 -1.53265 1.20398 0
M  V30 7623 H 743.183 -3.01134 0.82004 0
M  V30 7624 N 743.484 -0.715051 -1.40445 0
M  V30 7625 C 744.761 -0.181503 -1.94756 0
M  V30 7626 C 745.141 1.31268 -1.65324 0
M  V30 7627 O 744.489 2.0686 -0.970631 0
M  V30 7628 C 744.699 -0.493663 -3.45491 0
M  V30 7629 C 746.047 -0.432032 -4.22396 0
M  V30 7630 O 747.071 -0.429692 -3.53599 0
M  V30 7631 O 745.93 -0.409091 -5.44967 0
M  V30 7632 H 743.024 -0.0263989 -0.826579 0
M  V30 7633 H 745.57 -0.792546 -1.50056 0
M  V30 7634 H 744.342 -1.52713 -3.6027 0
M  V30 7635 H 743.965 0.14737 -3.97327 0
M  V30 7636 N 744.962 1.50701 -0.461195 0
M  V30 7637 C 746.21 2.01867 0.0970051 0
M  V30 7638 C 746.531 1.34591 1.41104 0
M  V30 7639 O 745.801 0.488041 1.89723 0
M  V30 7640 H 744.381 0.74599 0.0388392 0
M  V30 7641 H 747.043 1.85129 -0.609357 0
M  V30 7642 H 746.139 3.11051 0.255688 0
M  V30 7643 N 746.441 0.193421 1.56409 0
M  V30 7644 C 747.688 -0.445789 1.97532 0
M  V30 7645 C 748.016 -1.61744 1.08024 0
M  V30 7646 O 747.271 -1.95338 0.118982 0
M  V30 7647 C 747.57 -0.949718 3.44551 0
M  V30 7648 C 747.236 0.108383 4.5077 0
M  V30 7649 C 745.898 0.399126 4.79542 0
M  V30 7650 C 748.25 0.825423 5.14622 0
M  V30 7651 C 745.578 1.41192 5.69457 0
M  V30 7652 C 747.93 1.82735 6.05632 0
M  V30 7653 C 746.594 2.12531 6.32761 0
M  V30 7654 H 745.864 -0.163126 0.722822 0
M  V30 7655 H 748.511 0.290035 1.89291 0
M  V30 7656 H 746.816 -1.76378 3.49854 0
M  V30 7657 H 748.513 -1.45367 3.73724 0
M  V30 7658 H 745.103 -0.128392 4.28408 0
M  V30 7659 H 749.287 0.61403 4.92487 0
M  V30 7660 H 744.543 1.6487 5.88751 0
M  V30 7661 H 748.717 2.3882 6.5417 0
M  V30 7662 H 746.344 2.91155 7.02234 0
M  V30 7663 N 747.919 -1.57396 -0.0801906 0
M  V30 7664 C 748.882 -2.02133 -1.0805 0
M  V30 7665 C 749.882 -0.91707 -1.32085 0
M  V30 7666 O 751.072 -1.18217 -1.27947 0
M  V30 7667 C 748.204 -2.39479 -2.42616 0
M  V30 7668 H 749.397 -2.91733 -0.6951 0
M  V30 7669 H 746.95 -1.52869 -0.325677 0
M  V30 7670 H 747.685 -1.52879 -2.86004 0
M  V30 7671 H 747.47 -3.20052 -2.26515 0
M  V30 7672 H 748.96 -2.74697 -3.14534 0
M  V30 7673 N 749.397 0.351382 -1.53633 0
M  V30 7674 C 750.307 1.45471 -1.84052 0
M  V30 7675 C 751.323 1.57945 -0.730015 0
M  V30 7676 O 752.499 1.73571 -1.02153 0
M  V30 7677 C 749.564 2.80562 -2.03681 0
M  V30 7678 C 748.625 2.77497 -3.27558 0
M  V30 7679 C 747.858 4.06144 -3.46241 0
M  V30 7680 O 748.081 5.03028 -2.68922 0
M  V30 7681 O 747.015 4.11092 -4.39645 0
M  V30 7682 H 750.841 1.22684 -2.77817 0
M  V30 7683 H 748.426 0.542827 -1.3919 0
M  V30 7684 H 750.308 3.6058 -2.18082 0
M  V30 7685 H 748.983 3.03296 -1.13106 0
M  V30 7686 H 747.89 1.96126 -3.18568 0
M  V30 7687 H 749.223 2.59716 -4.18101 0
M  V30 7688 N 750.875 1.45233 0.611969 0
M  V30 7689 C 752.152 1.39495 1.37115 0
M  V30 7690 C 752.532 0.0633303 2.11005 0
M  V30 7691 O 751.88 -0.954617 2.07604 0
M  V30 7692 C 752.09 2.60579 2.32163 0
M  V30 7693 C 753.438 3.05477 2.94905 0
M  V30 7694 O 754.462 2.60921 2.42485 0
M  V30 7695 O 753.321 3.82787 3.90047 0
M  V30 7696 H 750.415 0.55335 0.614599 0
M  V30 7697 H 752.961 1.57355 0.635423 0
M  V30 7698 H 751.733 3.49085 1.76793 0
M  V30 7699 H 751.356 2.45031 3.13122 0
M  V30 7700 N 752.353 -0.854086 1.3245 0
M  V30 7701 C 753.764 -1.42427 1.20712 0
M  V30 7702 C 754.115 -1.95371 -0.18013 0
M  V30 7703 O 753.24 -1.87587 -1.07889 0
M  V30 7704 C 753.835 -2.58897 2.18536 0
M  V30 7705 C 752.394 -3.11913 2.10683 0
M  V30 7706 C 751.541 -1.84661 2.06871 0
M  V30 7707 H 754.492 -0.661192 1.4427 0
M  V30 7708 H 754.513 -3.36074 1.78422 0
M  V30 7709 H 754.025 -2.20333 3.19492 0
M  V30 7710 H 752.126 -3.55059 1.12977 0
M  V30 7711 H 752.239 -3.73119 3.00532 0
M  V30 7712 H 750.603 -2.04285 1.52118 0
M  V30 7713 H 751.386 -1.48314 3.09609 0
M  V30 7714 N 753.831 -1.1567 -1.07043 0
M  V30 7715 C 755.059 -0.957471 -1.83412 0
M  V30 7716 C 755.474 0.494271 -1.82215 0
M  V30 7717 O 754.831 1.34288 -1.23584 0
M  V30 7718 C 754.882 -1.46784 -3.30359 0
M  V30 7719 O 754.603 -2.86271 -3.31633 0
M  V30 7720 C 756.104 -1.31054 -4.23485 0
M  V30 7721 H 753.324 -0.33986 -0.578564 0
M  V30 7722 H 755.868 -1.53518 -1.35102 0
M  V30 7723 H 754.023 -0.932586 -3.76007 0
M  V30 7724 H 754.437 -3.0948 -4.23465 0
M  V30 7725 H 755.911 -1.71605 -5.24648 0
M  V30 7726 H 756.388 -0.255107 -4.38458 0
M  V30 7727 H 756.994 -1.83503 -3.83676 0
M  V30 7728 N 755.309 1.25446 -0.953992 0
M  V30 7729 C 756.558 1.92441 -0.604101 0
M  V30 7730 C 756.871 1.75543 0.862796 0
M  V30 7731 O 758.077 2.37106 1.32262 0
M  V30 7732 C 756.533 3.44854 -1.02974 0
M  V30 7733 C 756.141 3.70464 -2.51914 0
M  V30 7734 C 757.885 4.1778 -0.752352 0
M  V30 7735 C 755.792 5.1638 -2.88281 0
M  V30 7736 H 754.722 0.720508 -0.222227 0
M  V30 7737 H 757.373 1.42318 -1.15836 0
M  V30 7738 H 755.755 3.93935 -0.403904 0
M  V30 7739 H 756.929 3.32038 -3.19511 0
M  V30 7740 H 755.244 3.10797 -2.77117 0
M  V30 7741 H 757.841 5.25261 -1.00024 0
M  V30 7742 H 758.184 4.15135 0.311212 0
M  V30 7743 H 758.717 3.74605 -1.33851 0
M  V30 7744 H 755.456 5.24135 -3.93653 0
M  V30 7745 H 754.976 5.55855 -2.25357 0
M  V30 7746 H 756.655 5.84497 -2.77439 0
M  V30 7747 N 756.787 0.722489 1.40064 0
M  V30 7748 C 758.012 0.273446 2.05589 0
M  V30 7749 C 758.437 -1.07875 1.54093 0
M  V30 7750 O 757.795 -1.68095 0.679252 0
M  V30 7751 C 757.843 0.271023 3.5958 0
M  V30 7752 O 756.947 -0.745499 4.05606 0
M  V30 7753 H 756.288 0.126856 0.65177 0
M  V30 7754 H 758.818 0.984906 1.79334 0
M  V30 7755 H 758.828 0.111084 4.07849 0
M  V30 7756 H 757.503 1.25776 3.96425 0
M  V30 7757 H 756.08 -0.552719 3.68781 0
M  V30 7758 N 758.265 -1.50454 0.469181 0
M  V30 7759 C 759.195 -2.31353 -0.31592 0
M  V30 7760 C 760.176 -1.38172 -0.992094 0
M  V30 7761 O 761.361 -1.67093 -0.989633 0
M  V30 7762 C 758.491 -3.1786 -1.39937 0
M  V30 7763 C 757.445 -4.19578 -0.844909 0
M  V30 7764 C 756.771 -4.9481 -2.0265 0
M  V30 7765 C 758.071 -5.22106 0.142499 0
M  V30 7766 H 759.765 -2.97237 0.359269 0
M  V30 7767 H 757.311 -1.42942 0.174224 0
M  V30 7768 H 759.264 -3.7325 -1.95607 0
M  V30 7769 H 757.988 -2.49858 -2.1033 0
M  V30 7770 H 756.647 -3.65285 -0.310189 0
M  V30 7771 H 756.295 -4.23282 -2.71737 0
M  V30 7772 H 755.995 -5.63613 -1.66174 0
M  V30 7773 H 757.519 -5.53035 -2.58815 0
M  V30 7774 H 758.933 -5.72378 -0.324966 0
M  V30 7775 H 757.33 -5.98618 0.421441 0
M  V30 7776 H 758.4 -4.7297 1.06901 0
M  V30 7777 N 759.743 -0.201713 -1.56304 0
M  V30 7778 C 760.673 0.71155 -2.22394 0
M  V30 7779 C 761.654 1.21625 -1.18917 0
M  V30 7780 O 762.839 1.26388 -1.47444 0
M  V30 7781 C 759.969 1.92837 -2.88845 0
M  V30 7782 C 758.923 1.55831 -3.98623 0
M  V30 7783 C 758.249 2.85228 -4.52271 0
M  V30 7784 C 759.549 0.763249 -5.16693 0
M  V30 7785 H 761.243 0.160573 -2.98969 0
M  V30 7786 H 758.789 0.0757916 -1.438 0
M  V30 7787 H 760.742 2.57253 -3.33764 0
M  V30 7788 H 759.466 2.50398 -2.09686 0
M  V30 7789 H 758.125 0.9377 -3.54405 0
M  V30 7790 H 757.773 3.40893 -3.69866 0
M  V30 7791 H 757.473 2.6121 -5.26349 0
M  V30 7792 H 758.997 3.50622 -4.99897 0
M  V30 7793 H 760.411 1.31066 -5.58117 0
M  V30 7794 H 758.808 0.620935 -5.96879 0
M  V30 7795 H 759.878 -0.234322 -4.84334 0
M  V30 7796 N 761.222 1.57436 0.0718424 0
M  V30 7797 C 762.45 1.91474 0.783932 0
M  V30 7798 C 762.865 0.797669 1.71122 0
M  V30 7799 O 762.222 -0.228989 1.81058 0
M  V30 7800 C 762.273 3.25259 1.57761 0
M  V30 7801 O 761.994 4.3267 0.687596 0
M  V30 7802 C 763.495 3.7331 2.3907 0
M  V30 7803 H 760.715 0.632901 0.222885 0
M  V30 7804 H 763.259 2.04457 0.0421262 0
M  V30 7805 H 761.414 3.13804 2.27169 0
M  V30 7806 H 761.828 5.09641 1.23962 0
M  V30 7807 H 763.302 4.69551 2.90216 0
M  V30 7808 H 763.779 3.02318 3.18591 0
M  V30 7809 H 764.385 3.8771 1.74818 0
M  V30 7810 N 762.7 -0.34323 1.53817 0
M  V30 7811 C 763.948 -1.0813 1.70741 0
M  V30 7812 C 764.269 -1.89165 0.473461 0
M  V30 7813 O 763.539 -1.89075 -0.512605 0
M  V30 7814 H 762.119 -0.40219 0.629486 0
M  V30 7815 H 764.781 -0.384426 1.91071 0
M  V30 7816 H 763.877 -1.7585 2.57843 0
M  V30 7817 N 764.178 -1.45556 -0.604258 0
M  V30 7818 C 765.403 -1.53509 -1.39462 0
M  V30 7819 C 765.828 -0.169638 -1.87333 0
M  V30 7820 O 765.186 0.846346 -1.60333 0
M  V30 7821 C 765.234 -2.52654 -2.5729 0
M  V30 7822 O 764.338 -2.04666 -3.5803 0
M  V30 7823 H 763.679 -0.517355 -0.416221 0
M  V30 7824 H 766.209 -1.90939 -0.735072 0
M  V30 7825 H 766.219 -2.71568 -3.04491 0
M  V30 7826 H 764.894 -3.51823 -2.21797 0
M  V30 7827 H 763.471 -1.95643 -3.17456 0
M  V30 7828 N 765.656 0.84705 -1.32902 0
M  V30 7829 C 766.566 1.98845 -1.2449 0
M  V30 7830 C 767.582 1.7329 -0.15702 0
M  V30 7831 O 768.758 1.978 -0.379104 0
M  V30 7832 C 765.823 3.32679 -0.975985 0
M  V30 7833 C 764.884 3.71405 -2.15306 0
M  V30 7834 C 764.117 4.98853 -1.89688 0
M  V30 7835 O 764.34 5.64134 -0.843168 0
M  V30 7836 O 763.274 5.34889 -2.76002 0
M  V30 7837 H 767.1 2.0888 -2.2046 0
M  V30 7838 H 764.685 0.978852 -1.12867 0
M  V30 7839 H 766.567 4.12885 -0.842826 0
M  V30 7840 H 765.242 3.23667 -0.0464954 0
M  V30 7841 H 764.149 2.91743 -2.34172 0
M  V30 7842 H 765.482 3.85073 -3.06561 0
M  V30 7843 N 767.134 1.16236 1.06428 0
M  V30 7844 C 768.545 0.950942 1.60667 0
M  V30 7845 C 768.896 -0.505491 1.89576 0
M  V30 7846 O 768.021 -1.37843 1.66818 0
M  V30 7847 C 768.616 1.71982 2.91904 0
M  V30 7848 C 767.175 1.55342 3.4285 0
M  V30 7849 C 766.322 1.72942 2.16763 0
M  V30 7850 H 769.273 1.31126 0.893959 0
M  V30 7851 H 769.294 1.19483 3.61253 0
M  V30 7852 H 768.806 2.77978 2.70831 0
M  V30 7853 H 766.907 0.5178 3.68985 0
M  V30 7854 H 767.02 2.33643 4.18267 0
M  V30 7855 H 765.384 1.15673 2.26918 0
M  V30 7856 H 766.167 2.80324 1.98175 0
M  V30 7857 N 768.612 -1.24939 0.960631 0
M  V30 7858 C 770.023 -1.74701 0.658529 0
M  V30 7859 C 770.374 -1.77967 -0.825959 0
M  V30 7860 O 769.499 -1.40444 -1.64634 0
M  V30 7861 C 770.094 -3.17263 1.18867 0
M  V30 7862 C 768.653 -3.64561 0.936614 0
M  V30 7863 C 767.8 -2.43423 1.32817 0
M  V30 7864 H 770.751 -1.10741 1.13676 0
M  V30 7865 H 770.772 -3.76481 0.551589 0
M  V30 7866 H 770.284 -3.14854 2.26912 0
M  V30 7867 H 768.385 -3.72378 -0.128608 0
M  V30 7868 H 768.498 -4.52392 1.57729 0
M  V30 7869 H 766.862 -2.43513 0.746548 0
M  V30 7870 H 767.645 -2.437 2.41796 0
M  V30 7871 N 770.09 -0.729906 -1.39679 0
M  V30 7872 C 771.037 -0.0866063 -2.30637 0
M  V30 7873 C 772.007 0.735115 -1.48947 0
M  V30 7874 O 773.192 0.696125 -1.77648 0
M  V30 7875 C 770.332 0.818524 -3.35252 0
M  V30 7876 C 769.445 -0.0152635 -4.31997 0
M  V30 7877 C 768.58 0.890669 -5.2368 0
M  V30 7878 C 767.619 0.0518246 -6.12078 0
M  V30 7879 N 766.756 0.913411 -6.96133 0
M  V30 7880 H 771.596 -0.867925 -2.85081 0
M  V30 7881 H 769.133 -0.439673 -1.40376 0
M  V30 7882 H 771.091 1.3577 -3.9449 0
M  V30 7883 H 769.721 1.56587 -2.82277 0
M  V30 7884 H 768.773 -0.671794 -3.74421 0
M  V30 7885 H 770.085 -0.664086 -4.9436 0
M  V30 7886 H 769.239 1.49787 -5.87919 0
M  V30 7887 H 767.978 1.57328 -4.61627 0
M  V30 7888 H 766.983 -0.568209 -5.46856 0
M  V30 7889 H 768.208 -0.627497 -6.76195 0
M  V30 7890 H 766.154 1.58141 -6.36653 0
M  V30 7891 H 766.071 0.320952 -7.55318 0
M  V30 7892 H 767.339 1.50633 -7.64807 0
M  V30 7893 N 771.568 1.50203 -0.477153 0
M  V30 7894 C 772.531 2.27194 0.302599 0
M  V30 7895 C 773.531 1.32221 0.915112 0
M  V30 7896 O 774.721 1.55593 0.783348 0
M  V30 7897 C 771.853 3.0938 1.43167 0
M  V30 7898 H 773.046 2.97575 -0.372678 0
M  V30 7899 H 770.599 1.54578 -0.231392 0
M  V30 7900 H 771.334 2.43509 2.14182 0
M  V30 7901 H 771.119 3.79181 0.998197 0
M  V30 7902 H 772.609 3.67592 1.98157 0
M  V30 7903 N 773.046 0.209999 1.56195 0
M  V30 7904 C 773.993 -0.704854 2.19774 0
M  V30 7905 C 774.963 -1.19886 1.14964 0
M  V30 7906 O 776.148 -1.26005 1.43274 0
M  V30 7907 C 773.288 -1.91241 2.87265 0
M  V30 7908 C 772.401 -1.45838 4.06639 0
M  V30 7909 C 771.536 -2.6226 4.61945 0
M  V30 7910 C 770.575 -2.13537 5.73645 0
M  V30 7911 N 769.712 -3.2319 6.23292 0
M  V30 7912 H 774.552 -0.155944 2.97592 0
M  V30 7913 H 772.089 -0.0652235 1.46955 0
M  V30 7914 H 774.047 -2.62123 3.24573 0
M  V30 7915 H 772.677 -2.43439 2.11985 0
M  V30 7916 H 771.729 -0.644897 3.74894 0
M  V30 7917 H 773.041 -1.06103 4.87384 0
M  V30 7918 H 772.195 -3.41243 5.01636 0
M  V30 7919 H 770.934 -3.05278 3.80338 0
M  V30 7920 H 769.939 -1.33013 5.33468 0
M  V30 7921 H 771.164 -1.71533 6.57079 0
M  V30 7922 H 769.11 -3.65711 5.44602 0
M  V30 7923 H 769.027 -2.8767 6.99129 0
M  V30 7924 H 770.295 -4.02342 6.67639 0
M  V30 7925 N 774.524 -1.57472 -0.0634922 0
M  V30 7926 C 775.801 -1.78736 -0.794538 0
M  V30 7927 C 776.181 -0.799645 -1.95369 0
M  V30 7928 O 775.529 0.165521 -2.279 0
M  V30 7929 C 775.739 -3.25471 -1.25975 0
M  V30 7930 C 777.087 -3.89528 -1.68976 0
M  V30 7931 O 778.111 -3.29412 -1.35521 0
M  V30 7932 O 776.97 -4.95305 -2.30944 0
M  V30 7933 H 774.064 -0.733813 -0.381376 0
M  V30 7934 H 776.61 -1.69646 -0.0429258 0
M  V30 7935 H 775.382 -3.88922 -0.430721 0
M  V30 7936 H 775.005 -3.39317 -2.07243 0
M  V30 7937 N 776.003 0.335068 -1.53997 0
M  V30 7938 C 777.414 0.910191 -1.6301 0
M  V30 7939 C 777.765 1.89271 -0.516809 0
M  V30 7940 O 776.89 2.13516 0.352123 0
M  V30 7941 C 777.485 1.65761 -2.9548 0
M  V30 7942 C 776.044 2.18163 -3.06728 0
M  V30 7943 C 775.191 1.00338 -2.5851 0
M  V30 7944 H 778.142 0.112965 -1.58297 0
M  V30 7945 H 778.163 2.52107 -2.84995 0
M  V30 7946 H 777.675 0.94227 -3.76488 0
M  V30 7947 H 775.776 2.92847 -2.30372 0
M  V30 7948 H 775.889 2.43952 -4.1234 0
M  V30 7949 H 774.253 1.37925 -2.14124 0
M  V30 7950 H 775.036 0.30254 -3.41964 0
M  V30 7951 N 777.481 1.45874 0.596531 0
M  V30 7952 C 778.709 1.54013 1.38158 0
M  V30 7953 C 779.124 0.17648 1.87973 0
M  V30 7954 O 778.481 -0.823895 1.62844 0
M  V30 7955 C 778.532 2.53363 2.57855 0
M  V30 7956 O 778.253 3.8443 2.10108 0
M  V30 7957 C 779.754 2.71308 3.50581 0
M  V30 7958 H 776.974 0.521251 0.422538 0
M  V30 7959 H 779.518 1.9116 0.726493 0
M  V30 7960 H 777.673 2.19257 3.19382 0
M  V30 7961 H 778.087 4.38384 2.87958 0
M  V30 7962 H 779.561 3.44776 4.31084 0
M  V30 7963 H 780.038 1.77728 4.01633 0
M  V30 7964 H 780.644 3.06455 2.94899 0
M  V30 7965 N 778.959 -0.83999 1.33349 0
M  V30 7966 C 780.205 -1.59753 1.24927 0
M  V30 7967 C 780.538 -1.93318 -0.184855 0
M  V30 7968 O 779.813 -1.586 -1.12589 0
M  V30 7969 C 780.096 -2.90829 2.12345 0
M  V30 7970 C 779.949 -2.63953 3.6421 0
M  V30 7971 C 781.268 -3.92246 1.99577 0
M  V30 7972 H 778.387 -0.579654 0.45516 0
M  V30 7973 H 781.029 -0.968909 1.63439 0
M  V30 7974 H 779.179 -3.44478 1.79631 0
M  V30 7975 H 780.851 -2.16745 4.07209 0
M  V30 7976 H 779.094 -1.97671 3.86146 0
M  V30 7977 H 779.765 -3.57348 4.20721 0
M  V30 7978 H 782.241 -3.479 2.28265 0
M  V30 7979 H 781.117 -4.81793 2.62996 0
M  V30 7980 H 781.378 -4.3138 0.967673 0
M  V30 7981 N 780.437 -1.16799 -1.0581 0
M  V30 7982 C 781.662 -0.977402 -1.82925 0
M  V30 7983 C 782.087 0.469514 -1.82146 0
M  V30 7984 O 781.445 1.33576 -1.22585 0
M  V30 7985 C 781.493 -1.51543 -3.27211 0
M  V30 7986 O 780.597 -0.725021 -4.05977 0
M  V30 7987 H 779.938 -0.347474 -0.565825 0
M  V30 7988 H 782.468 -1.55151 -1.33376 0
M  V30 7989 H 782.478 -1.53502 -3.78023 0
M  V30 7990 H 781.153 -2.56872 -3.27093 0
M  V30 7991 H 779.73 -0.77634 -3.64729 0
M  V30 7992 O 781.954 1.1855 -1.09673 0
M  V30 7993 H 782.645 1.76666 -0.794287 0
M  V30 END ATOM
M  V30 BEGIN BOND
M  V30 END BOND
M  V30 END CTAB
M  END
$$$$
